drugbank_target|Q96L42 Potassium voltage-gated channel subfamily H member 8 (DB00228; DB01069; DB01110)
 OpenBabel12092121213D

  0  0  0     0  0            999 V3000
M  V30 BEGIN CTAB
M  V30 COUNTS 17424 17602 0 0 0
M  V30 BEGIN ATOM
M  V30 1 H -0.908 1.98254 -0.117106 0
M  V30 2 N 0 1.576 0 0
M  V30 3 C 0.933 2.03868 1.02534 0
M  V30 4 C 1.911 0.928543 1.3348 0
M  V30 5 O 3.095 1.19667 1.45644 0
M  V30 6 C 0.222 2.43627 2.35294 0
M  V30 7 C -0.732 3.65373 2.2001 0
M  V30 8 S 0.101 5.13292 1.52614 0
M  V30 9 C 1.257 5.56322 2.86805 0
M  V30 10 H 1.49 2.90518 0.631377 0
M  V30 11 H -0.977 1.52953 0.210867 0
M  V30 12 H 0.981 2.67203 3.11629 0
M  V30 13 H -0.358 1.57376 2.7183 0
M  V30 14 H -1.165 3.90944 3.18086 0
M  V30 15 H -1.563 3.418 1.51819 0
M  V30 16 H 0.729 5.58782 3.83104 0
M  V30 17 H 1.672 6.56266 2.65933 0
M  V30 18 H 2.08 4.83886 2.90714 0
M  V30 19 N 1.4781 -0.272755 1.55222 0
M  V30 20 C 2.8891 -0.84378 1.66545 0
M  V30 21 C 3.2401 -1.87035 0.592641 0
M  V30 22 O 2.3651 -2.14761 -0.265818 0
M  V30 23 C 2.9601 -1.53723 3.01918 0
M  V30 24 C 1.5191 -2.05628 3.15268 0
M  V30 25 C 0.6661 -0.898424 2.62343 0
M  V30 26 H 3.6171 -0.0490998 1.58624 0
M  V30 27 H 3.6381 -2.40421 2.94921 0
M  V30 28 H 3.1501 -0.78983 3.79978 0
M  V30 29 H 1.2511 -2.83329 2.41983 0
M  V30 30 H 1.3641 -2.27142 4.21833 0
M  V30 31 H -0.2719 -1.29186 2.19506 0
M  V30 32 H 0.5111 -0.164528 3.42906 0
M  V30 33 N 2.9562 -1.48159 -0.537278 0
M  V30 34 C 4.2022 -1.56035 -1.29541 0
M  V30 35 C 4.5352 -0.230377 -1.92829 0
M  V30 36 O 3.8102 0.762952 -1.78911 0
M  V30 37 C 4.0932 -2.69323 -2.39034 0
M  V30 38 C 3.9462 -4.12002 -1.80485 0
M  V30 39 C 5.2652 -2.78408 -3.40847 0
M  V30 40 H 2.3842 -0.567992 -0.469632 0
M  V30 41 H 5.0262 -1.80302 -0.599277 0
M  V30 42 H 3.1762 -2.48763 -2.98412 0
M  V30 43 H 4.8482 -4.43981 -1.25215 0
M  V30 44 H 3.0912 -4.19344 -1.11055 0
M  V30 45 H 3.7622 -4.87077 -2.59731 0
M  V30 46 H 6.2382 -2.97012 -2.91416 0
M  V30 47 H 5.1142 -3.59416 -4.14863 0
M  V30 48 H 5.3752 -1.86269 -4.00944 0
M  V30 49 N 4.4343 0.785586 -1.36625 0
M  V30 50 C 5.3673 1.90509 -1.25625 0
M  V30 51 C 6.3453 1.62 -0.139607 0
M  V30 52 O 7.5293 1.8591 -0.31141 0
M  V30 53 C 4.6563 3.25419 -0.939158 0
M  V30 54 C 3.7023 3.72856 -2.07077 0
M  V30 55 S 4.5353 3.88162 -3.68904 0
M  V30 56 C 5.6913 5.25942 -3.39317 0
M  V30 57 H 5.9243 1.99549 -2.20381 0
M  V30 58 H 3.4573 0.945226 -1.22085 0
M  V30 59 H 5.4153 4.03346 -0.763029 0
M  V30 60 H 4.0763 3.14099 -0.00931402 0
M  V30 61 H 3.2693 4.70624 -1.80357 0
M  V30 62 H 2.8713 3.01989 -2.20632 0
M  V30 63 H 5.1633 6.10651 -2.93447 0
M  V30 64 H 6.1063 5.57668 -4.36363 0
M  V30 65 H 6.5143 4.93224 -2.74573 0
M  V30 66 N 5.9124 1.20967 1.01018 0
M  V30 67 C 6.8594 0.964281 2.09691 0
M  V30 68 C 7.8294 -0.107853 1.65749 0
M  V30 69 O 9.0144 0.0381987 1.90762 0
M  V30 70 C 6.1544 0.52943 3.41015 0
M  V30 71 C 5.2674 1.67043 3.98398 0
M  V30 72 C 4.4024 1.18525 5.17808 0
M  V30 73 C 3.4414 2.29892 5.67288 0
M  V30 74 N 2.5784 1.82546 6.77954 0
M  V30 75 H 7.4184 1.89463 2.30017 0
M  V30 76 H 4.9554 0.944289 1.1279 0
M  V30 77 H 6.9134 0.258588 4.16398 0
M  V30 78 H 5.5434 -0.363919 3.20742 0
M  V30 79 H 4.5954 2.05603 3.20049 0
M  V30 80 H 5.9074 2.50877 4.31117 0
M  V30 81 H 5.0614 0.870762 6.00419 0
M  V30 82 H 3.8004 0.316887 4.86669 0
M  V30 83 H 2.8054 2.6215 4.83278 0
M  V30 84 H 4.0304 3.17216 6.00459 0
M  V30 85 H 1.9764 0.980454 6.48632 0
M  V30 86 H 1.8934 2.59956 7.09901 0
M  V30 87 H 3.1614 1.54115 7.64113 0
M  V30 88 N 7.3905 -1.2043 1.01659 0
M  V30 89 C 8.6385 -1.89423 0.704522 0
M  V30 90 C 8.9595 -1.79231 -0.768197 0
M  V30 91 O 8.2295 -1.1947 -1.55254 0
M  V30 92 H 6.8095 -0.701178 0.257602 0
M  V30 93 H 9.4715 -1.4626 1.28818 0
M  V30 94 H 8.5675 -2.96052 0.987916 0
M  V30 95 N 8.8686 -0.792821 -1.36206 0
M  V30 96 C 9.7986 -0.207853 -2.32573 0
M  V30 97 C 10.7796 0.659055 -1.56813 0
M  V30 98 O 11.9646 0.592176 -1.84951 0
M  V30 99 C 9.0946 0.655449 -3.41059 0
M  V30 100 C 8.0486 -0.111842 -4.27854 0
M  V30 101 C 7.3746 0.872274 -5.27537 0
M  V30 102 C 8.6746 -1.30299 -5.05786 0
M  V30 103 H 10.3686 -1.01294 -2.81744 0
M  V30 104 H 7.9146 -0.48854 -1.3546 0
M  V30 105 H 9.8676 1.07464 -4.07467 0
M  V30 106 H 8.5916 1.49328 -2.90463 0
M  V30 107 H 7.2506 -0.512053 -3.63006 0
M  V30 108 H 6.8986 1.70523 -4.73214 0
M  V30 109 H 6.5986 0.363291 -5.86476 0
M  V30 110 H 8.1226 1.28996 -5.96818 0
M  V30 111 H 9.5366 -0.959379 -5.65216 0
M  V30 112 H 7.9336 -1.7455 -5.74154 0
M  V30 113 H 9.0036 -2.09663 -4.37229 0
M  V30 114 N 10.3467 1.47872 -0.545128 0
M  V30 115 C 11.2767 2.32661 0.197793 0
M  V30 116 C 12.2577 1.43041 0.920504 0
M  V30 117 O 13.4427 1.71912 0.90333 0
M  V30 118 C 10.5727 3.24569 1.23582 0
M  V30 119 C 9.5267 4.23333 0.630323 0
M  V30 120 C 8.8527 5.0448 1.77211 0
M  V30 121 C 10.1527 5.20704 -0.407974 0
M  V30 122 H 11.8467 2.95024 -0.510045 0
M  V30 123 H 9.3927 1.4187 -0.246731 0
M  V30 124 H 11.3457 3.8272 1.76362 0
M  V30 125 H 10.0697 2.60236 1.97344 0
M  V30 126 H 8.7287 3.6639 0.123922 0
M  V30 127 H 8.3767 4.36561 2.49847 0
M  V30 128 H 8.0767 5.71339 1.37281 0
M  V30 129 H 9.6007 5.65487 2.3034 0
M  V30 130 H 11.0147 5.7329 0.033305 0
M  V30 131 H 9.4117 5.95699 -0.725486 0
M  V30 132 H 10.4817 4.66917 -1.30828 0
M  V30 133 N 11.8248 0.280983 1.55075 0
M  V30 134 C 12.7878 -0.590896 2.21452 0
M  V30 135 C 13.7878 -1.07682 1.19421 0
M  V30 136 O 14.9778 -0.97605 1.44288 0
M  V30 137 C 12.1098 -1.81587 2.88511 0
M  V30 138 H 13.3028 -0.0112554 2.99898 0
M  V30 139 H 10.8558 0.0316438 1.56268 0
M  V30 140 H 11.5908 -2.43587 2.14093 0
M  V30 141 H 11.3758 -1.4753 3.63287 0
M  V30 142 H 12.8658 -2.43575 3.39206 0
M  V30 143 N 13.3029 -1.57598 0.00835791 0
M  V30 144 C 14.7139 -1.7892 -0.53333 0
M  V30 145 C 15.0649 -0.916609 -1.73473 0
M  V30 146 O 14.1899 -0.121336 -2.1606 0
M  V30 147 C 14.7849 -3.24488 -0.974313 0
M  V30 148 C 13.3439 -3.46878 -1.46125 0
M  V30 149 C 12.4909 -2.74157 -0.416302 0
M  V30 150 H 15.4419 -1.56958 0.234495 0
M  V30 151 H 15.4629 -3.3306 -1.83988 0
M  V30 152 H 14.9749 -3.87972 -0.099718 0
M  V30 153 H 13.0759 -2.8862 -2.35646 0
M  V30 154 H 13.1889 -4.55572 -1.48295 0
M  V30 155 H 11.5529 -2.39022 -0.87981 0
M  V30 156 H 12.3359 -3.40345 0.44947 0
M  V30 157 N 14.781 0.264519 -1.55364 0
M  V30 158 C 15.713 1.34965 -1.85248 0
M  V30 159 C 16.726 1.45136 -0.737525 0
M  V30 160 O 17.915 1.46801 -1.01547 0
M  V30 161 C 15.015 2.73008 -2.00797 0
M  V30 162 C 14.188 2.85324 -3.31525 0
M  V30 163 C 13.247 4.04097 -3.37034 0
M  V30 164 O 12.273 3.94455 -4.10358 0
M  V30 165 N 13.475 5.16458 -2.65049 0
M  V30 166 H 16.24 1.09672 -2.78913 0
M  V30 167 H 13.801 0.454635 -1.55386 0
M  V30 168 H 15.793 3.50772 -2.01844 0
M  V30 169 H 14.363 2.91087 -1.1396 0
M  V30 170 H 13.583 1.94377 -3.42945 0
M  V30 171 H 14.871 2.9049 -4.17724 0
M  V30 172 H 14.269 5.27181 -2.05175 0
M  V30 173 H 12.826 5.92422 -2.71809 0
M  V30 174 N 16.2591 1.48442 0.529413 0
M  V30 175 C 17.2071 1.63452 1.65487 0
M  V30 176 C 18.2011 0.500955 1.61823 0
M  V30 177 O 19.4071 0.679695 1.66674 0
M  V30 178 H 15.7821 0.514905 0.548066 0
M  V30 179 H 17.7531 2.57975 1.49971 0
M  V30 180 C 16.5021 1.69196 3.03756 0
M  V30 181 H 15.8251 2.55784 3.07269 0
M  V30 182 H 17.2651 1.83743 3.82119 0
M  V30 183 C 15.7241 0.430765 3.34135 0
M  V30 184 O 16.2541 -0.4561 3.99102 0
M  V30 185 N 14.4601 0.302293 2.89023 0
M  V30 186 H 14.0071 1.02496 2.36331 0
M  V30 187 H 13.9651 -0.540546 3.09718 0
M  V30 188 N 17.7372 -0.778329 1.37039 0
M  V30 189 C 18.9652 -1.56734 1.35063 0
M  V30 190 C 19.3802 -1.88686 -0.0655597 0
M  V30 191 O 18.7372 -1.5096 -1.02554 0
M  V30 192 C 18.7882 -2.88163 2.18276 0
M  V30 193 O 18.5092 -2.57583 3.54376 0
M  V30 194 C 20.0102 -3.82422 2.24206 0
M  V30 195 H 17.2302 -0.485778 0.462883 0
M  V30 196 H 19.7742 -0.965185 1.8029 0
M  V30 197 H 17.9292 -3.44818 1.76576 0
M  V30 198 H 18.3432 -3.41699 3.97922 0
M  V30 199 H 19.8172 -4.71667 2.86765 0
M  V30 200 H 20.2942 -4.21078 1.24861 0
M  V30 201 H 20.9002 -3.31697 2.6619 0
M  V30 202 N 19.2153 -1.21501 -1.00376 0
M  V30 203 C 20.4623 -1.03299 -1.74171 0
M  V30 204 C 20.7903 0.433326 -1.89612 0
M  V30 205 O 20.0453 1.33779 -1.42834 0
M  V30 206 C 20.3443 -1.67673 -3.15627 0
M  V30 207 C 20.0103 -3.17533 -3.2013 0
M  V30 208 C 18.6723 -3.58427 -3.21067 0
M  V30 209 C 21.0243 -4.13504 -3.17275 0
M  V30 210 C 18.3523 -4.93794 -3.16835 0
M  V30 211 C 20.7043 -5.48834 -3.14585 0
M  V30 212 C 19.3683 -5.89123 -3.13831 0
M  V30 213 H 18.6383 -0.377999 -0.637336 0
M  V30 214 H 21.2853 -1.51111 -1.17634 0
M  V30 215 H 19.5903 -1.12158 -3.75404 0
M  V30 216 H 21.2873 -1.51091 -3.71446 0
M  V30 217 H 17.8773 -2.84965 -3.20145 0
M  V30 218 H 22.0613 -3.82936 -3.15711 0
M  V30 219 H 17.3173 -5.24255 -3.1459 0
M  V30 220 H 21.4913 -6.22934 -3.1133 0
M  V30 221 H 19.1183 -6.93984 -3.10307 0
M  V30 222 N 20.6934 1.19889 -1.02296 0
M  V30 223 C 21.6234 2.25141 -0.619174 0
M  V30 224 C 22.6044 1.66051 0.368915 0
M  V30 225 O 23.7894 1.92546 0.252941 0
M  V30 226 C 20.9194 3.4728 0.0368783 0
M  V30 227 C 19.8734 4.19005 -0.872865 0
M  V30 228 C 19.1994 5.34637 -0.0822402 0
M  V30 229 C 20.4994 4.74452 -2.18387 0
M  V30 230 H 22.1934 2.59171 -1.49903 0
M  V30 231 H 19.7394 1.24579 -0.722222 0
M  V30 232 H 21.6924 4.20098 0.330958 0
M  V30 233 H 20.4164 3.12433 0.95149 0
M  V30 234 H 19.0754 3.48061 -1.15105 0
M  V30 235 H 18.7234 4.96034 0.83422 0
M  V30 236 H 18.4234 5.83557 -0.688149 0
M  V30 237 H 19.9474 6.10255 0.205238 0
M  V30 238 H 21.3614 5.39055 -1.95172 0
M  V30 239 H 19.7584 5.33834 -2.74119 0
M  V30 240 H 20.8284 3.92844 -2.84257 0
M  V30 241 N 22.1715 0.800033 1.35784 0
M  V30 242 C 23.4485 0.30088 1.93272 0
M  V30 243 C 23.8285 -1.20857 1.73081 0
M  V30 244 O 23.1765 -2.00502 1.09596 0
M  V30 245 C 23.3865 0.70511 3.41803 0
M  V30 246 C 24.7345 0.690871 4.18942 0
M  V30 247 O 25.7585 0.646244 3.50289 0
M  V30 248 O 24.6175 0.74332 5.41421 0
M  V30 249 H 21.7115 0.0771605 0.823393 0
M  V30 250 H 24.2575 0.88329 1.449 0
M  V30 251 H 23.0295 1.74571 3.50201 0
M  V30 252 H 22.6525 0.0971541 3.97481 0
M  V30 253 N 23.6496 -1.47581 0.552962 0
M  V30 254 C 24.8776 -2.06875 0.0320556 0
M  V30 255 C 25.2926 -1.40625 -1.25976 0
M  V30 256 O 24.6496 -0.501349 -1.75479 0
M  V30 257 C 24.7006 -3.61092 -0.17167 0
M  V30 258 O 24.4216 -4.24858 1.06899 0
M  V30 259 C 25.9226 -4.37242 -0.730344 0
M  V30 260 H 23.1426 -0.669561 0.043915 0
M  V30 261 H 25.6866 -1.89646 0.765163 0
M  V30 262 H 23.8416 -3.7785 -0.854894 0
M  V30 263 H 24.2556 -5.17334 0.864059 0
M  V30 264 H 25.7296 -5.45842 -0.822203 0
M  V30 265 H 26.2066 -4.03235 -1.74064 0
M  V30 266 H 26.8126 -4.25219 -0.0829543 0
M  V30 267 N 25.1277 -0.289203 -1.54924 0
M  V30 268 C 26.3767 0.324231 -1.99077 0
M  V30 269 C 26.6897 1.5591 -1.18117 0
M  V30 270 O 27.8957 2.24637 -1.52481 0
M  V30 271 C 26.3517 0.628209 -3.54375 0
M  V30 272 C 25.9597 -0.587647 -4.44129 0
M  V30 273 C 27.7037 1.20349 -4.07083 0
M  V30 274 C 25.6107 -0.257475 -5.90839 0
M  V30 275 H 24.5407 0.124924 -0.743579 0
M  V30 276 H 27.1917 -0.396063 -1.79175 0
M  V30 277 H 25.5737 1.40778 -3.70132 0
M  V30 278 H 26.7477 -1.36418 -4.40144 0
M  V30 279 H 25.0627 -1.08074 -4.0213 0
M  V30 280 H 27.6597 1.46456 -5.14252 0
M  V30 281 H 28.0027 2.14195 -3.56968 0
M  V30 282 H 28.5357 0.485889 -3.94821 0
M  V30 283 H 25.2747 -1.16419 -6.45079 0
M  V30 284 H 24.7947 0.482018 -5.9786 0
M  V30 285 H 26.4737 0.145238 -6.46837 0
M  V30 286 N 26.6058 1.57591 -0.0167156 0
M  V30 287 C 27.5688 2.08393 0.954204 0
M  V30 288 C 28.5688 0.996531 1.26198 0
M  V30 289 O 29.7588 1.25858 1.20438 0
M  V30 290 C 26.8908 2.5394 2.27436 0
M  V30 291 H 28.0838 2.95455 0.514451 0
M  V30 292 H 25.6368 1.54582 0.231089 0
M  V30 293 H 26.3718 1.70171 2.76066 0
M  V30 294 H 26.1568 3.33371 2.06412 0
M  V30 295 H 27.6468 2.93512 2.97053 0
M  V30 296 N 28.0839 -0.256276 1.55502 0
M  V30 297 C 29.3119 -1.00342 1.8094 0
M  V30 298 C 29.7269 -1.79307 0.59114 0
M  V30 299 O 29.0839 -1.77114 -0.440081 0
M  V30 300 C 29.1349 -1.94875 3.04476 0
M  V30 301 O 28.8559 -1.19107 4.21598 0
M  V30 302 C 30.3569 -2.81266 3.42644 0
M  V30 303 H 27.5769 -0.295685 0.602338 0
M  V30 304 H 30.1209 -0.281998 2.02546 0
M  V30 305 H 28.2759 -2.62457 2.84947 0
M  V30 306 H 28.6899 -1.82969 4.91551 0
M  V30 307 H 30.1639 -3.43362 4.32211 0
M  V30 308 H 30.6409 -3.51897 2.62802 0
M  V30 309 H 31.2469 -2.1915 3.64491 0
M  V30 310 N 29.562 -1.4872 -0.521534 0
M  V30 311 C 30.978 -1.35028 -0.850855 0
M  V30 312 C 31.178 -0.367712 -1.98116 0
M  V30 313 O 30.234 0.208037 -2.51642 0
M  V30 314 C 31.547 -2.75263 -1.21041 0
M  V30 315 C 33.095 -2.83813 -1.31981 0
M  V30 316 C 33.57 -4.24769 -1.71276 0
M  V30 317 N 35.061 -4.27482 -1.78363 0
M  V30 318 C 35.796 -5.33494 -2.1017 0
M  V30 319 N 35.292 -6.49775 -2.40343 0
M  V30 320 N 37.085 -5.20894 -2.11248 0
M  V30 321 H 29.236 -2.11214 0.22413 0
M  V30 322 H 31.499 -0.947252 0.0376439 0
M  V30 323 H 31.205 -3.48765 -0.453415 0
M  V30 324 H 31.079 -3.09327 -2.15863 0
M  V30 325 H 33.466 -2.10561 -2.06756 0
M  V30 326 H 33.547 -2.53358 -0.352596 0
M  V30 327 H 33.191 -4.9854 -0.970588 0
M  V30 328 H 33.121 -4.52673 -2.69062 0
M  V30 329 H 35.612 -3.43611 -1.57288 0
M  V30 330 H 35.925 -7.26402 -2.63743 0
M  V30 331 H 34.27 -6.53035 -2.37844 0
M  V30 332 H 37.461 -4.29065 -1.87139 0
M  V30 333 H 37.634 -6.03612 -2.35704 0
M  V30 334 N 31.0401 0.771051 -1.3745 0
M  V30 335 C 32.2871 1.52963 -1.32697 0
M  V30 336 C 32.6151 1.94299 0.0883274 0
M  V30 337 O 31.8701 1.64397 1.0617 0
M  V30 338 C 32.1691 2.80676 -2.2126 0
M  V30 339 C 31.8351 2.58389 -3.69521 0
M  V30 340 C 30.4971 2.52019 -4.09927 0
M  V30 341 C 32.8491 2.38469 -4.63446 0
M  V30 342 C 30.1771 2.23721 -5.42371 0
M  V30 343 C 32.5291 2.11694 -5.96128 0
M  V30 344 C 31.1931 2.03769 -6.35637 0
M  V30 345 H 30.4631 0.559732 -0.485573 0
M  V30 346 H 33.1101 0.888083 -1.69662 0
M  V30 347 H 31.4151 3.49392 -1.77291 0
M  V30 348 H 33.1121 3.38557 -2.14895 0
M  V30 349 H 29.7021 2.6421 -3.37478 0
M  V30 350 H 33.8861 2.4238 -4.33089 0
M  V30 351 H 29.1421 2.16081 -5.71943 0
M  V30 352 H 33.3161 1.9528 -6.6846 0
M  V30 353 H 30.9431 1.81606 -7.38189 0
M  V30 354 N 32.5182 1.22032 0.997298 0
M  V30 355 C 33.7952 0.950823 1.70935 0
M  V30 356 C 34.1752 -0.535292 2.042 0
M  V30 357 O 33.5232 -1.50217 1.72183 0
M  V30 358 C 33.7332 1.84386 2.96315 0
M  V30 359 C 35.0812 2.09732 3.69185 0
M  V30 360 O 36.1052 1.81798 3.06314 0
M  V30 361 O 34.9642 2.57018 4.82291 0
M  V30 362 H 32.0582 0.357204 0.745878 0
M  V30 363 H 34.6042 1.32997 1.05404 0
M  V30 364 H 33.3762 2.84928 2.68201 0
M  V30 365 H 32.9992 1.46602 3.69586 0
M  V30 366 N 33.9963 -1.19345 1.0293 0
M  V30 367 C 35.2443 -1.88665 0.724574 0
M  V30 368 C 35.5653 -1.80036 -0.749144 0
M  V30 369 O 34.8353 -1.2111 -1.53978 0
M  V30 370 H 33.4153 -0.698406 0.265025 0
M  V30 371 H 36.0773 -1.44885 1.30362 0
M  V30 372 H 35.1733 -2.94987 1.01926 0
M  V30 373 N 35.4744 -0.807222 -1.35358 0
M  V30 374 C 36.7024 -0.400377 -2.02989 0
M  V30 375 C 37.1174 0.988859 -1.60832 0
M  V30 376 O 36.4744 1.63729 -0.806175 0
M  V30 377 C 36.5254 -0.474867 -3.58368 0
M  V30 378 O 36.2464 -1.80933 -3.98992 0
M  V30 379 C 37.7474 -0.0609112 -4.43258 0
M  V30 380 H 34.9674 -0.162587 -0.651004 0
M  V30 381 H 37.5114 -1.09102 -1.72965 0
M  V30 382 H 35.6664 0.167534 -3.87038 0
M  V30 383 H 36.0804 -1.77256 -4.9364 0
M  V30 384 H 37.5544 -0.164145 -5.51756 0
M  V30 385 H 38.0314 0.993831 -4.27808 0
M  V30 386 H 38.6374 -0.676492 -4.19885 0
M  V30 387 N 36.9525 1.47285 -0.560781 0
M  V30 388 C 37.9025 2.27073 0.205384 0
M  V30 389 C 38.8865 1.34569 0.882044 0
M  V30 390 O 40.0785 1.58899 0.77976 0
M  V30 391 C 37.2075 3.20414 1.23247 0
M  V30 392 C 36.2935 4.20399 0.559041 0
M  V30 393 N 36.6845 5.04423 -0.372927 0
M  V30 394 C 34.9825 4.38536 0.812522 0
M  V30 395 C 35.6835 5.76655 -0.764446 0
M  V30 396 N 34.6595 5.43471 -0.11848 0
M  V30 397 H 38.4615 2.89422 -0.511117 0
M  V30 398 H 35.9755 1.57868 -0.380975 0
M  V30 399 H 37.9725 3.76262 1.79534 0
M  V30 400 H 36.6325 2.59623 1.95002 0
M  V30 401 H 37.6435 5.1248 -0.747287 0
M  V30 402 H 34.3205 3.88913 1.51832 0
M  V30 403 H 35.7105 6.54238 -1.53045 0
M  V30 404 N 38.4306 0.297415 1.54768 0
M  V30 405 C 39.6556 -0.318435 2.04941 0
M  V30 406 C 40.0806 -1.4701 1.17345 0
M  V30 407 O 39.4386 -1.80436 0.176758 0
M  V30 408 C 39.4866 -0.755749 3.52592 0
M  V30 409 O 38.5906 -1.86088 3.68028 0
M  V30 410 H 37.9316 -0.062421 0.661059 0
M  V30 411 H 40.4616 0.438215 1.99852 0
M  V30 412 H 40.4716 -1.04552 3.94376 0
M  V30 413 H 39.1466 0.0867233 4.1581 0
M  V30 414 H 37.7236 -1.57193 3.38149 0
M  V30 415 N 39.9087 -1.5758 0.0250728 0
M  V30 416 C 40.8567 -2.11125 -0.97617 0
M  V30 417 C 41.8507 -1.03689 -1.33959 0
M  V30 418 O 43.0567 -1.22128 -1.3223 0
M  V30 419 H 39.4317 -0.674468 -0.332561 0
M  V30 420 H 41.4027 -2.94194 -0.499223 0
M  V30 421 C 40.1517 -2.65017 -2.2508 0
M  V30 422 H 39.4747 -3.47333 -1.9799 0
M  V30 423 H 40.9147 -3.06133 -2.93357 0
M  V30 424 C 39.3737 -1.57574 -2.97779 0
M  V30 425 O 39.9037 -0.973203 -3.89733 0
M  V30 426 N 38.1097 -1.29716 -2.60043 0
M  V30 427 H 37.6567 -1.789 -1.85345 0
M  V30 428 H 37.6147 -0.58051 -3.08994 0
M  V30 429 N 41.3868 0.248026 -1.55636 0
M  V30 430 C 42.6338 0.976224 -1.77415 0
M  V30 431 C 42.9618 1.85361 -0.589193 0
M  V30 432 O 42.2168 1.90973 0.427529 0
M  V30 433 C 42.5158 1.86819 -3.04686 0
M  V30 434 C 42.1818 1.14625 -4.36087 0
M  V30 435 C 40.8438 0.946723 -4.71795 0
M  V30 436 C 43.1958 0.634463 -5.17324 0
M  V30 437 C 40.5238 0.223091 -5.86276 0
M  V30 438 C 42.8758 -0.0756959 -6.32555 0
M  V30 439 C 41.5398 -0.286711 -6.66884 0
M  V30 440 H 40.8098 0.357226 -0.649208 0
M  V30 441 H 43.4568 0.246415 -1.89908 0
M  V30 442 H 41.7618 2.66502 -2.872 0
M  V30 443 H 43.4588 2.43329 -3.18735 0
M  V30 444 H 40.0488 1.3117 -4.08035 0
M  V30 445 H 44.2328 0.77616 -4.90193 0
M  V30 446 H 39.4888 0.0491185 -6.1138 0
M  V30 447 H 43.6628 -0.479899 -6.94745 0
M  V30 448 H 41.2898 -0.849389 -7.5544 0
M  V30 449 N 42.8649 1.48995 0.513639 0
M  V30 450 C 44.1139 1.57093 1.2651 0
M  V30 451 C 44.4269 0.257091 1.93903 0
M  V30 452 O 45.6329 0.216478 2.70636 0
M  V30 453 C 44.0889 2.77118 2.29638 0
M  V30 454 C 43.6969 4.15209 1.68241 0
M  V30 455 C 45.4409 2.94538 3.05692 0
M  V30 456 C 43.3479 5.26474 2.69406 0
M  V30 457 H 42.2779 0.584876 0.475854 0
M  V30 458 H 44.9289 1.7536 0.540487 0
M  V30 459 H 43.3109 2.52319 3.05207 0
M  V30 460 H 44.4849 4.50094 0.987505 0
M  V30 461 H 42.7999 4.03042 1.04623 0
M  V30 462 H 45.3969 3.74832 3.8132 0
M  V30 463 H 45.7399 2.04614 3.62545 0
M  V30 464 H 46.2729 3.19316 2.37238 0
M  V30 465 H 43.0119 6.18417 2.17351 0
M  V30 466 H 42.5319 4.96058 3.37175 0
M  V30 467 H 44.2109 5.55277 3.32078 0
M  V30 468 N 44.343 -0.763751 1.37857 0
M  V30 469 C 45.273 -1.89103 1.36975 0
M  V30 470 C 46.254 -1.68439 0.237152 0
M  V30 471 O 47.439 -1.8918 0.438713 0
M  V30 472 C 44.569 -3.26496 1.18395 0
M  V30 473 C 43.523 -3.61741 2.28751 0
M  V30 474 C 42.849 -4.97762 1.95286 0
M  V30 475 C 44.149 -3.67665 3.70972 0
M  V30 476 H 45.843 -1.90099 2.31307 0
M  V30 477 H 43.389 -0.91319 1.11341 0
M  V30 478 H 45.342 -4.05003 1.16406 0
M  V30 479 H 44.066 -3.25955 0.205215 0
M  V30 480 H 42.725 -2.85547 2.29909 0
M  V30 481 H 42.373 -4.93769 0.959221 0
M  V30 482 H 42.073 -5.22313 2.69189 0
M  V30 483 H 43.597 -5.7866 1.94898 0
M  V30 484 H 45.011 -4.36307 3.719 0
M  V30 485 H 43.408 -4.03718 4.43995 0
M  V30 486 H 44.478 -2.68134 4.0402 0
M  V30 487 N 45.8211 -1.22559 -0.990812 0
M  V30 488 C 46.7841 -0.998863 -2.0629 0
M  V30 489 C 47.7841 0.0354834 -1.60761 0
M  V30 490 O 48.9741 -0.203231 -1.7301 0
M  V30 491 C 46.1061 -0.509203 -3.37076 0
M  V30 492 H 47.2991 -1.95014 -2.27837 0
M  V30 493 H 44.8521 -1.04456 -1.16269 0
M  V30 494 H 45.5871 0.446335 -3.21214 0
M  V30 495 H 45.3721 -1.25547 -3.71457 0
M  V30 496 H 46.8621 -0.370888 -4.1595 0
M  V30 497 N 47.2992 1.18797 -1.03562 0
M  V30 498 C 48.2472 2.24297 -0.615905 0
M  V30 499 C 49.2412 1.65643 0.354808 0
M  V30 500 O 50.4472 1.78618 0.22265 0
M  V30 501 H 46.8222 0.729909 -0.180934 0
M  V30 502 H 48.7932 2.5701 -1.5162 0
M  V30 503 C 47.5422 3.47698 0.0104735 0
M  V30 504 H 46.8652 3.93125 -0.727509 0
M  V30 505 H 48.3052 4.23159 0.266995 0
M  V30 506 C 46.7642 3.12489 1.25905 0
M  V30 507 O 47.2942 3.25761 2.35038 0
M  V30 508 N 45.5002 2.6686 1.15039 0
M  V30 509 H 45.0472 2.56261 0.262328 0
M  V30 510 H 45.0052 2.43674 1.98672 0
M  V30 511 N 48.7773 0.814389 1.34928 0
M  V30 512 C 49.7403 0.235759 2.27984 0
M  V30 513 C 50.7403 -0.581412 1.49921 0
M  V30 514 O 51.9303 -0.398758 1.69575 0
M  V30 515 C 49.0623 -0.670433 3.34242 0
M  V30 516 H 50.2553 1.05659 2.80671 0
M  V30 517 H 47.8083 0.585614 1.44915 0
M  V30 518 H 48.5433 -1.51466 2.86755 0
M  V30 519 H 48.3283 -0.0860822 3.92005 0
M  V30 520 H 49.8183 -1.06935 4.03676 0
M  V30 521 N 50.2554 -1.46986 0.568584 0
M  V30 522 C 51.1874 -2.28233 -0.210337 0
M  V30 523 C 52.2004 -1.37682 -0.868767 0
M  V30 524 O 53.3894 -1.62406 -0.740705 0
M  V30 525 C 50.4894 -3.12293 -1.3163 0
M  V30 526 C 49.6624 -4.30878 -0.7525 0
M  V30 527 C 48.7214 -4.96445 -1.74439 0
M  V30 528 O 47.7474 -5.54482 -1.286 0
M  V30 529 N 48.9494 -4.92171 -3.07812 0
M  V30 530 H 51.7144 -2.95723 0.486648 0
M  V30 531 H 49.2754 -1.56742 0.405409 0
M  V30 532 H 51.2674 -3.53022 -1.97883 0
M  V30 533 H 49.8374 -2.46971 -1.91636 0
M  V30 534 H 49.0574 -3.94104 0.0871128 0
M  V30 535 H 50.3454 -5.07558 -0.35536 0
M  V30 536 H 49.7434 -4.46239 -3.47688 0
M  V30 537 H 48.3004 -5.36884 -3.69592 0
M  V30 538 N 51.7335 -0.305618 -1.54608 0
M  V30 539 C 52.9795 0.302746 -2.00528 0
M  V30 540 C 53.3125 1.53184 -1.19367 0
M  V30 541 O 52.5875 1.92598 -0.271321 0
M  V30 542 C 52.8705 0.654756 -3.54097 0
M  V30 543 C 52.7235 -0.583793 -4.45995 0
M  V30 544 C 54.0425 1.47947 -4.14487 0
M  V30 545 H 51.1615 0.108564 -0.72896 0
M  V30 546 H 53.8035 -0.418634 -1.85331 0
M  V30 547 H 51.9535 1.26935 -3.67178 0
M  V30 548 H 53.6255 -1.22224 -4.44814 0
M  V30 549 H 51.8685 -1.21615 -4.16404 0
M  V30 550 H 52.5395 -0.293287 -5.5122 0
M  V30 551 H 55.0155 0.96013 -4.04871 0
M  V30 552 H 53.8915 1.69454 -5.22088 0
M  V30 553 H 54.1525 2.47011 -3.66658 0
M  V30 554 N 53.2116 1.57565 -0.0334293 0
M  V30 555 C 54.1746 2.09393 0.932048 0
M  V30 556 C 55.1746 1.00986 1.25134 0
M  V30 557 O 56.3646 1.27129 1.19096 0
M  V30 558 C 53.4966 2.56338 2.2473 0
M  V30 559 H 54.6896 2.95984 0.483085 0
M  V30 560 H 52.2426 1.54819 0.21468 0
M  V30 561 H 52.9776 1.7309 2.74245 0
M  V30 562 H 52.7626 3.35542 2.02865 0
M  V30 563 H 54.2526 2.96646 2.93923 0
M  V30 564 N 54.6897 -0.239769 1.55765 0
M  V30 565 C 55.6367 -1.29696 1.90913 0
M  V30 566 C 56.6067 -1.47478 0.764164 0
M  V30 567 O 57.7917 -1.61345 1.01845 0
M  V30 568 C 54.9317 -2.64598 2.21544 0
M  V30 569 C 54.0447 -2.54765 3.48882 0
M  V30 570 C 53.1797 -3.82069 3.69049 0
M  V30 571 C 52.2187 -3.66883 4.89963 0
M  V30 572 N 51.3557 -4.86094 5.06614 0
M  V30 573 H 56.1957 -0.990224 2.81067 0
M  V30 574 H 53.7327 -0.477684 1.39128 0
M  V30 575 H 55.6907 -3.43132 2.3731 0
M  V30 576 H 54.3207 -2.93405 1.34585 0
M  V30 577 H 53.3727 -1.67763 3.41409 0
M  V30 578 H 54.6847 -2.39457 4.37563 0
M  V30 579 H 53.8387 -4.69046 3.84812 0
M  V30 580 H 52.5777 -4.00282 2.78614 0
M  V30 581 H 51.5827 -2.78289 4.74168 0
M  V30 582 H 52.8077 -3.50157 5.81865 0
M  V30 583 H 50.7537 -5.04655 4.19117 0
M  V30 584 H 50.6707 -4.73443 5.89396 0
M  V30 585 H 51.9387 -5.74549 5.26795 0
M  V30 586 N 56.1678 -1.49265 -0.50573 0
M  V30 587 C 57.4158 -1.582 -1.25766 0
M  V30 588 C 57.7368 -0.268482 -1.93143 0
M  V30 589 O 57.0068 0.711833 -1.8251 0
M  V30 590 H 55.5868 -0.582873 -0.467191 0
M  V30 591 H 58.2488 -1.85865 -0.586525 0
M  V30 592 H 57.3448 -2.37563 -2.02412 0
M  V30 593 N 57.6459 0.756429 -1.3826 0
M  V30 594 C 58.8929 1.51547 -1.34312 0
M  V30 595 C 59.2209 1.94382 0.0677144 0
M  V30 596 O 58.4759 1.65514 1.04421 0
M  V30 597 C 58.7749 2.78313 -2.24224 0
M  V30 598 C 58.4409 2.54455 -3.72241 0
M  V30 599 C 57.1029 2.47657 -4.12576 0
M  V30 600 C 59.4549 2.3354 -4.65949 0
M  V30 601 C 56.7829 2.17956 -5.44713 0
M  V30 602 C 59.1349 2.05359 -5.9834 0
M  V30 603 C 57.7989 1.97016 -6.37762 0
M  V30 604 H 57.0689 0.55455 -0.491482 0
M  V30 605 H 59.7159 0.870039 -1.70595 0
M  V30 606 H 58.0209 3.47492 -1.80987 0
M  V30 607 H 59.7179 3.36259 -2.18474 0
M  V30 608 H 56.3079 2.60616 -3.40261 0
M  V30 609 H 60.4919 2.37772 -4.35635 0
M  V30 610 H 55.7479 2.10003 -5.74203 0
M  V30 611 H 59.9219 1.88179 -6.70494 0
M  V30 612 H 57.5489 1.73766 -7.40074 0
M  V30 613 N 59.124 1.23083 0.984299 0
M  V30 614 C 60.535 1.05609 1.5396 0
M  V30 615 C 60.886 -0.377793 1.92528 0
M  V30 616 O 60.011 -1.26398 1.75649 0
M  V30 617 C 60.606 1.91087 2.7977 0
M  V30 618 C 59.165 1.77885 3.31713 0
M  V30 619 C 58.312 1.87028 2.04733 0
M  V30 620 H 61.263 1.36802 0.804419 0
M  V30 621 H 61.284 1.43336 3.5247 0
M  V30 622 H 60.796 2.9544 2.51668 0
M  V30 623 H 58.897 0.762995 3.64704 0
M  V30 624 H 59.01 2.61047 4.01735 0
M  V30 625 H 57.374 1.30565 2.18689 0
M  V30 626 H 58.157 2.92929 1.79017 0
M  V30 627 N 60.6021 -1.18246 1.0419 0
M  V30 628 C 61.8511 -1.87588 0.741194 0
M  V30 629 C 62.1641 -1.81303 -0.734066 0
M  V30 630 O 63.3701 -2.46019 -1.14834 0
M  V30 631 C 61.8261 -3.36538 1.27555 0
M  V30 632 C 61.4341 -3.51349 2.77953 0
M  V30 633 C 63.1781 -4.11273 1.05143 0
M  V30 634 C 61.0851 -4.94265 3.2474 0
M  V30 635 H 60.0151 -0.702622 0.273565 0
M  V30 636 H 62.6661 -1.33601 1.25789 0
M  V30 637 H 61.0481 -3.9 0.686703 0
M  V30 638 H 62.2221 -3.08153 3.42605 0
M  V30 639 H 60.5371 -2.90022 2.98791 0
M  V30 640 H 63.1341 -5.16689 1.37611 0
M  V30 641 H 63.4771 -4.16298 -0.0112774 0
M  V30 642 H 64.0101 -3.63987 1.60495 0
M  V30 643 H 60.7491 -4.94408 4.30396 0
M  V30 644 H 60.2691 -5.38172 2.64823 0
M  V30 645 H 61.9481 -5.62987 3.18834 0
M  V30 646 N 62.0802 -0.821533 -1.34494 0
M  V30 647 C 63.3262 -0.409552 -1.98622 0
M  V30 648 C 63.6592 1.0244 -1.64984 0
M  V30 649 O 62.9342 1.71325 -0.920758 0
M  V30 650 C 63.2172 -0.610458 -3.54888 0
M  V30 651 C 63.0702 -2.09043 -3.98273 0
M  V30 652 C 64.3892 -0.0455379 -4.40076 0
M  V30 653 H 61.5082 -0.15028 -0.721516 0
M  V30 654 H 64.1502 -1.03384 -1.59411 0
M  V30 655 H 62.3002 -0.079044 -3.8842 0
M  V30 656 H 63.9722 -2.68537 -3.75081 0
M  V30 657 H 62.2152 -2.58139 -3.48635 0
M  V30 658 H 62.8862 -2.18182 -5.07051 0
M  V30 659 H 65.3622 -0.499557 -4.1309 0
M  V30 660 H 64.2382 -0.215922 -5.48475 0
M  V30 661 H 64.4992 1.04939 -4.29465 0
M  V30 662 N 63.5583 1.46682 -0.576371 0
M  V30 663 C 64.7883 2.06498 -0.0648694 0
M  V30 664 C 65.1963 1.42665 1.24271 0
M  V30 665 O 64.5393 0.523886 1.76071 0
M  V30 666 C 64.6013 3.5904 0.181816 0
M  V30 667 C 64.2653 4.45028 -1.0392 0
M  V30 668 C 65.2623 4.81959 -1.94966 0
M  V30 669 C 62.9473 4.86259 -1.25927 0
M  V30 670 C 64.9413 5.58942 -3.06371 0
M  V30 671 C 62.6283 5.63002 -2.37638 0
M  V30 672 C 63.6263 5.99257 -3.2769 0
M  V30 673 O 63.3143 6.7445 -4.37461 0
M  V30 674 H 63.0463 0.674028 -0.0515987 0
M  V30 675 H 65.6003 1.89393 -0.794951 0
M  V30 676 H 63.8303 3.74429 0.966436 0
M  V30 677 H 65.5193 4.00806 0.641047 0
M  V30 678 H 66.2853 4.50689 -1.79177 0
M  V30 679 H 62.1643 4.57494 -0.567448 0
M  V30 680 H 65.7083 5.87158 -3.76684 0
M  V30 681 H 61.6053 5.93686 -2.53392 0
M  V30 682 H 62.3733 6.92867 -4.35749 0
M  V30 683 N 65.0364 0.313813 1.54444 0
M  V30 684 C 66.2764 -0.292389 2.02298 0
M  V30 685 C 66.6404 -1.50105 1.19719 0
M  V30 686 O 67.8414 -2.17947 1.5733 0
M  V30 687 C 66.1124 -0.627682 3.51845 0
M  V30 688 S 67.6714 -1.21493 4.21646 0
M  V30 689 H 64.4894 -0.0890247 0.705405 0
M  V30 690 H 67.0914 0.444668 1.90376 0
M  V30 691 H 65.7954 0.260265 4.09574 0
M  V30 692 H 65.3264 -1.39519 3.67829 0
M  V30 693 H 67.3414 -2.5022 4.28491 0
M  V30 694 N 66.5145 -1.57545 0.0417849 0
M  V30 695 C 67.7395 -1.97035 -0.647455 0
M  V30 696 C 68.1645 -0.918775 -1.64135 0
M  V30 697 O 67.5225 0.119006 -1.80909 0
M  V30 698 C 67.5705 -3.35609 -1.31905 0
M  V30 699 O 66.6745 -3.3287 -2.43457 0
M  V30 700 H 66.0155 -0.64211 -0.169086 0
M  V30 701 H 68.5455 -2.04318 0.107399 0
M  V30 702 H 68.5555 -3.72126 -1.67291 0
M  V30 703 H 67.2305 -4.11685 -0.590586 0
M  V30 704 H 65.8075 -3.08087 -2.10088 0
M  V30 705 N 67.9926 0.231505 -1.5589 0
M  V30 706 C 69.2696 0.981096 -1.69215 0
M  V30 707 C 69.6496 2.02799 -0.586164 0
M  V30 708 O 68.9976 2.24823 0.408253 0
M  V30 709 C 69.2076 1.60054 -3.10135 0
M  V30 710 C 70.5556 2.09658 -3.69227 0
M  V30 711 O 71.5796 1.69967 -3.13033 0
M  V30 712 O 70.4386 2.8258 -4.67772 0
M  V30 713 H 67.5326 0.457653 -0.688827 0
M  V30 714 H 70.0786 0.224073 -1.68214 0
M  V30 715 H 68.8506 0.844105 -3.82087 0
M  V30 716 H 68.4736 2.42336 -3.15212 0
M  V30 717 N 69.4707 1.49531 0.497807 0
M  V30 718 C 70.7187 1.58865 1.24926 0
M  V30 719 C 71.0397 0.278721 1.92998 0
M  V30 720 O 70.3097 -0.702144 1.82885 0
M  V30 721 H 68.8897 0.585343 0.464094 0
M  V30 722 H 71.5517 1.86174 0.57666 0
M  V30 723 H 70.6477 2.38633 2.01149 0
M  V30 724 N 70.9488 -0.749086 1.3866 0
M  V30 725 C 72.1958 -1.50833 1.35114 0
M  V30 726 C 72.5238 -1.94415 -0.0574049 0
M  V30 727 O 71.7788 -1.66065 -1.03541 0
M  V30 728 C 72.0778 -2.7712 2.25697 0
M  V30 729 C 71.7438 -2.52477 3.73585 0
M  V30 730 C 70.4058 -2.45466 4.13884 0
M  V30 731 C 72.7578 -2.31066 4.67181 0
M  V30 732 C 70.0858 -2.15064 5.45861 0
M  V30 733 C 72.4378 -2.02183 5.9942 0
M  V30 734 C 71.1018 -1.93631 6.38798 0
M  V30 735 H 70.3718 -0.551936 0.494416 0
M  V30 736 H 73.0188 -0.860979 1.71054 0
M  V30 737 H 71.3238 -3.46528 1.82827 0
M  V30 738 H 73.0208 -3.35096 2.20254 0
M  V30 739 H 69.6108 -2.58807 3.41638 0
M  V30 740 H 73.7948 -2.35459 4.3689 0
M  V30 741 H 69.0508 -2.06954 5.75308 0
M  V30 742 H 73.2248 -1.8462 6.71482 0
M  V30 743 H 70.8518 -1.69839 7.40985 0
M  V30 744 N 72.4269 -1.23603 -0.977757 0
M  V30 745 C 73.6669 -1.08148 -1.73446 0
M  V30 746 C 74.0309 0.374785 -1.88307 0
M  V30 747 O 75.2319 0.650588 -2.60808 0
M  V30 748 C 73.5029 -1.78991 -3.0935 0
M  V30 749 S 75.0619 -1.79141 -4.00567 0
M  V30 750 H 71.8799 -0.386987 -0.596458 0
M  V30 751 H 74.4819 -1.5678 -1.16792 0
M  V30 752 H 73.1859 -2.8408 -2.96187 0
M  V30 753 H 72.7169 -1.30651 -3.71071 0
M  V30 754 H 74.7319 -0.851892 -4.88833 0
M  V30 755 N 73.905 1.17692 -1.04816 0
M  V30 756 C 74.815 2.25229 -0.65643 0
M  V30 757 C 75.831 1.71018 0.320761 0
M  V30 758 O 77.007 2.00649 0.173805 0
M  V30 759 C 74.072 3.46684 -0.0332629 0
M  V30 760 C 73.133 4.15997 -1.06042 0
M  V30 761 C 72.366 5.31654 -0.466893 0
M  V30 762 O 72.589 5.65777 0.724758 0
M  V30 763 O 71.523 5.89831 -1.1993 0
M  V30 764 H 75.349 2.61016 -1.55255 0
M  V30 765 H 72.934 1.24919 -0.81949 0
M  V30 766 H 74.816 4.20234 0.313256 0
M  V30 767 H 73.491 3.12703 0.836566 0
M  V30 768 H 72.398 3.44482 -1.45886 0
M  V30 769 H 73.731 4.53996 -1.90127 0
M  V30 770 N 75.3831 0.828654 1.34056 0
M  V30 771 C 76.3131 0.269443 2.3194 0
M  V30 772 C 77.2941 -0.617247 1.58506 0
M  V30 773 O 78.4791 -0.542931 1.86456 0
M  V30 774 C 75.6091 -0.564793 3.42677 0
M  V30 775 C 74.5631 0.225241 4.27407 0
M  V30 776 C 73.8891 -0.7321 5.29664 0
M  V30 777 C 75.1891 1.43663 5.02154 0
M  V30 778 H 76.8831 1.08728 2.7896 0
M  V30 779 H 74.4291 0.524283 1.34117 0
M  V30 780 H 76.3821 -0.966233 4.10173 0
M  V30 781 H 75.1061 -1.41574 2.9432 0
M  V30 782 H 73.7651 0.608117 3.61521 0
M  V30 783 H 73.4131 -1.57916 4.77568 0
M  V30 784 H 73.1131 -0.20767 5.87233 0
M  V30 785 H 74.6371 -1.13128 6.00029 0
M  V30 786 H 76.0511 1.1089 5.62473 0
M  V30 787 H 74.4481 1.89711 5.69324 0
M  V30 788 H 75.5181 2.21181 4.31517 0
M  V30 789 N 76.8612 -1.46375 0.584142 0
M  V30 790 C 77.8242 -2.28784 -0.138108 0
M  V30 791 C 78.8242 -1.38471 -0.817462 0
M  V30 792 O 80.0142 -1.60833 -0.669199 0
M  V30 793 C 77.1462 -3.18892 -1.20503 0
M  V30 794 H 78.3392 -2.94117 0.586127 0
M  V30 795 H 75.8922 -1.52509 0.342171 0
M  V30 796 H 76.6272 -2.58309 -1.96079 0
M  V30 797 H 76.4122 -3.85388 -0.722384 0
M  V30 798 H 77.9022 -3.80914 -1.71155 0
M  V30 799 N 78.3393 -0.321999 -1.54275 0
M  V30 800 C 79.5873 0.280489 -2.00144 0
M  V30 801 C 79.9083 1.52777 -1.21178 0
M  V30 802 O 79.1783 1.9338 -0.313187 0
M  V30 803 H 77.7583 0.106632 -0.73935 0
M  V30 804 H 80.4203 -0.438184 -1.8991 0
M  V30 805 H 79.5163 0.537972 -3.07428 0
M  V30 806 N 79.8174 1.5752 -0.0501392 0
M  V30 807 C 81.0644 1.9265 0.623874 0
M  V30 808 C 81.3924 0.928411 1.70912 0
M  V30 809 O 80.6474 -0.0594525 1.9561 0
M  V30 810 C 80.9464 3.34467 1.25963 0
M  V30 811 C 80.6124 4.49883 0.302689 0
M  V30 812 C 79.2744 4.81184 0.0393636 0
M  V30 813 C 81.6264 5.20002 -0.353205 0
M  V30 814 C 78.9544 5.79951 -0.887308 0
M  V30 815 C 81.3064 6.1976 -1.26806 0
M  V30 816 C 79.9704 6.49491 -1.54007 0
M  V30 817 H 79.2404 0.704957 0.228292 0
M  V30 818 H 81.8874 1.91146 -0.116398 0
M  V30 819 H 80.1924 3.32333 2.07514 0
M  V30 820 H 81.8894 3.58928 1.78806 0
M  V30 821 H 78.4794 4.25457 0.518109 0
M  V30 822 H 82.6634 4.96033 -0.162854 0
M  V30 823 H 77.9194 6.01322 -1.10553 0
M  V30 824 H 82.0934 6.73205 -1.78236 0
M  V30 825 H 79.7204 7.25837 -2.25976 0
M  V30 826 N 81.2955 -0.223234 1.56011 0
M  V30 827 C 82.2585 -1.26014 1.9145 0
M  V30 828 C 83.2585 -1.3989 0.792937 0
M  V30 829 O 84.4485 -1.38184 1.0607 0
M  V30 830 C 81.5805 -2.63422 2.16383 0
M  V30 831 H 82.7735 -0.95796 2.84189 0
M  V30 832 H 80.3265 -0.463576 1.49267 0
M  V30 833 H 81.0615 -2.98741 1.2619 0
M  V30 834 H 80.8465 -2.54728 2.98088 0
M  V30 835 H 82.3365 -3.38249 2.44903 0
M  V30 836 N 82.7736 -1.49793 -0.48987 0
M  V30 837 C 84.1896 -1.36803 -0.822022 0
M  V30 838 C 84.3896 -0.409652 -1.97292 0
M  V30 839 O 83.4456 0.154614 -2.52026 0
M  V30 840 C 84.7586 -2.77768 -1.15175 0
M  V30 841 C 86.3066 -2.86549 -1.25931 0
M  V30 842 C 86.7816 -4.28306 -1.62228 0
M  V30 843 N 88.2726 -4.31169 -1.69256 0
M  V30 844 C 89.0076 -5.37832 -1.98807 0
M  V30 845 N 88.5036 -6.54726 -2.26507 0
M  V30 846 N 90.2966 -5.25258 -2.00152 0
M  V30 847 H 82.4476 -2.10691 0.268881 0
M  V30 848 H 84.7106 -0.946241 0.057728 0
M  V30 849 H 84.4166 -3.49648 -0.379335 0
M  V30 850 H 84.2906 -3.13836 -2.09253 0
M  V30 851 H 86.6776 -2.14899 -2.02243 0
M  V30 852 H 86.7586 -2.54049 -0.298776 0
M  V30 853 H 86.4026 -5.00486 -0.864622 0
M  V30 854 H 86.3326 -4.58279 -2.594 0
M  V30 855 H 88.8236 -3.4687 -1.49965 0
M  V30 856 H 89.1366 -7.31833 -2.48276 0
M  V30 857 H 87.4816 -6.57933 -2.23939 0
M  V30 858 H 90.6726 -4.32938 -1.77996 0
M  V30 859 H 90.8456 -6.08476 -2.22848 0
M  V30 860 N 84.2517 0.741722 -1.39055 0
M  V30 861 C 85.4797 1.53098 -1.39171 0
M  V30 862 C 85.8947 1.88794 0.0155099 0
M  V30 863 O 85.2517 1.53626 0.985159 0
M  V30 864 C 85.3027 2.82274 -2.2584 0
M  V30 865 O 85.0237 2.48097 -3.61081 0
M  V30 866 C 86.5247 3.76343 -2.34266 0
M  V30 867 H 83.7447 0.473335 -0.4756 0
M  V30 868 H 86.2887 0.917045 -1.82785 0
M  V30 869 H 84.4437 3.40015 -1.85656 0
M  V30 870 H 84.8577 3.31029 -4.06842 0
M  V30 871 H 86.3317 4.63898 -2.9917 0
M  V30 872 H 86.8087 4.17619 -1.35982 0
M  V30 873 H 87.4147 3.24523 -2.74891 0
M  V30 874 N 85.7298 1.2412 0.971189 0
M  V30 875 C 86.6398 1.04747 2.09917 0
M  V30 876 C 87.6558 -0.0107162 1.73997 0
M  V30 877 O 88.8318 0.186714 2.00533 0
M  V30 878 C 85.8968 0.650828 3.40537 0
M  V30 879 C 84.9578 1.7851 3.90426 0
M  V30 880 C 84.1908 1.40729 5.14812 0
M  V30 881 O 84.4138 0.29557 5.69634 0
M  V30 882 O 83.3478 2.23168 5.58999 0
M  V30 883 H 87.1738 1.99304 2.29154 0
M  V30 884 H 84.7588 1.02908 1.08307 0
M  V30 885 H 86.6408 0.440992 4.19086 0
M  V30 886 H 85.3158 -0.265649 3.22608 0
M  V30 887 H 84.2228 2.04966 3.12953 0
M  V30 888 H 85.5558 2.68023 4.12825 0
M  V30 889 N 87.2079 -1.17134 1.05439 0
M  V30 890 C 88.4539 -1.87733 0.767077 0
M  V30 891 C 88.7869 -1.8098 -0.704253 0
M  V30 892 O 88.0619 -1.21951 -1.5152 0
M  V30 893 C 88.3449 -3.37659 1.25133 0
M  V30 894 C 88.1979 -3.53149 2.78578 0
M  V30 895 C 89.5169 -4.31768 0.852324 0
M  V30 896 H 86.6359 -0.681687 0.280129 0
M  V30 897 H 89.2779 -1.37732 1.30881 0
M  V30 898 H 87.4279 -3.80373 0.790469 0
M  V30 899 H 89.0999 -3.19434 3.32806 0
M  V30 900 H 87.3429 -2.95345 3.17732 0
M  V30 901 H 88.0139 -4.58403 3.07523 0
M  V30 902 H 90.4899 -3.96909 1.24911 0
M  V30 903 H 89.3659 -5.35199 1.21873 0
M  V30 904 H 89.6269 -4.41429 -0.243485 0
M  V30 905 N 88.686 -0.835752 -1.33615 0
M  V30 906 C 89.619 -0.211815 -2.27215 0
M  V30 907 C 90.597 0.639249 -1.49507 0
M  V30 908 O 91.781 0.600193 -1.78689 0
M  V30 909 C 88.908 0.702893 -3.31326 0
M  V30 910 C 87.954 -0.0723049 -4.26439 0
M  V30 911 S 88.787 -1.42811 -5.16106 0
M  V30 912 C 89.943 -0.518613 -6.23748 0
M  V30 913 H 90.176 -1.00533 -2.79786 0
M  V30 914 H 87.709 -0.632336 -1.40858 0
M  V30 915 H 89.667 1.22505 -3.91794 0
M  V30 916 H 88.328 1.47004 -2.77576 0
M  V30 917 H 87.521 0.62359 -5.00127 0
M  V30 918 H 87.123 -0.525424 -3.70291 0
M  V30 919 H 89.415 0.284778 -6.76901 0
M  V30 920 H 90.358 -1.22556 -6.97413 0
M  V30 921 H 90.766 -0.101344 -5.64409 0
M  V30 922 N 90.1641 1.46063 -0.591896 0
M  V30 923 C 91.0961 2.28539 0.174001 0
M  V30 924 C 92.1091 1.39047 0.846753 0
M  V30 925 O 93.2981 1.63564 0.714774 0
M  V30 926 C 90.3981 3.14347 1.26645 0
M  V30 927 C 89.5711 4.32021 0.683856 0
M  V30 928 C 88.6301 4.99157 1.66518 0
M  V30 929 O 87.6561 5.56458 1.19763 0
M  V30 930 N 88.8581 4.97005 2.99943 0
M  V30 931 H 91.6231 2.94911 -0.533633 0
M  V30 932 H 89.1841 1.56077 -0.430294 0
M  V30 933 H 91.1761 3.56125 1.92242 0
M  V30 934 H 89.7461 2.49988 1.87682 0
M  V30 935 H 88.9661 3.93915 -0.1498 0
M  V30 936 H 90.2541 5.08059 0.274567 0
M  V30 937 H 89.6521 4.51714 3.40545 0
M  V30 938 H 88.2091 5.42696 3.61004 0
M  V30 939 N 91.6422 0.330177 1.54103 0
M  V30 940 C 92.5892 -0.532762 2.24567 0
M  V30 941 C 93.5592 -1.10635 1.23892 0
M  V30 942 O 94.7442 -1.14546 1.5259 0
M  V30 943 C 91.8842 -1.6845 3.01195 0
M  V30 944 C 90.9972 -1.13951 4.167 0
M  V30 945 C 90.1322 -2.25746 4.80845 0
M  V30 946 C 89.1712 -1.6853 5.88442 0
M  V30 947 N 88.3082 -2.74014 6.46421 0
M  V30 948 H 93.1482 0.0746905 2.97906 0
M  V30 949 H 90.6852 0.048632 1.4702 0
M  V30 950 H 92.6432 -2.36234 3.43874 0
M  V30 951 H 91.2732 -2.26314 2.30178 0
M  V30 952 H 90.3252 -0.35301 3.78758 0
M  V30 953 H 91.6372 -0.680892 4.94131 0
M  V30 954 H 90.7912 -3.01422 5.26526 0
M  V30 955 H 89.5302 -2.74947 4.0281 0
M  V30 956 H 88.5352 -0.913543 5.42157 0
M  V30 957 H 89.7602 -1.20198 6.68378 0
M  V30 958 H 87.7062 -3.22494 5.71256 0
M  V30 959 H 87.6232 -2.32735 7.19285 0
M  V30 960 H 88.8912 -3.49499 6.96757 0
M  V30 961 N 93.1203 -1.57491 0.0584922 0
M  V30 962 C 94.3453 -1.97711 -0.62652 0
M  V30 963 C 94.7703 -0.936132 -1.63151 0
M  V30 964 O 94.1283 0.099811 -1.81025 0
M  V30 965 C 94.1763 -3.36989 -1.28338 0
M  V30 966 O 93.2803 -3.35433 -2.39913 0
M  V30 967 H 92.6213 -0.643868 -0.162266 0
M  V30 968 H 95.1513 -2.04193 0.129064 0
M  V30 969 H 95.1613 -3.73879 -1.63335 0
M  V30 970 H 93.8363 -4.12289 -0.546889 0
M  V30 971 H 92.4133 -3.10298 -2.06809 0
M  V30 972 N 94.5984 0.214957 -1.56127 0
M  V30 973 C 95.8384 0.945364 -1.81224 0
M  V30 974 C 96.2024 1.81265 -0.633005 0
M  V30 975 O 97.4034 2.57731 -0.763423 0
M  V30 976 C 95.6744 1.75665 -3.1125 0
M  V30 977 S 97.2334 2.54179 -3.57685 0
M  V30 978 H 94.0514 0.317443 -0.6362 0
M  V30 979 H 96.6534 0.210381 -1.94365 0
M  V30 980 H 95.3574 1.10977 -3.9511 0
M  V30 981 H 94.8884 2.53381 -3.00934 0
M  V30 982 H 96.9034 3.7792 -3.21545 0
M  V30 983 N 96.0765 1.50051 0.48192 0
M  V30 984 C 97.3015 1.64508 1.26301 0
M  V30 985 C 97.7265 0.323851 1.85291 0
M  V30 986 O 97.0845 -0.710969 1.66778 0
M  V30 987 C 97.1325 2.7305 2.35533 0
M  V30 988 O 96.2365 2.3355 3.39895 0
M  V30 989 H 95.5775 0.549978 0.372048 0
M  V30 990 H 98.1075 1.9636 0.574786 0
M  V30 991 H 98.1175 2.95799 2.8101 0
M  V30 992 H 96.7925 3.68946 1.91967 0
M  V30 993 H 95.3695 2.21205 3.00204 0
M  V30 994 N 97.5546 -0.734337 1.39446 0
M  V30 995 C 98.7946 -1.50655 1.38139 0
M  V30 996 C 99.1586 -1.91986 -0.0228701 0
M  V30 997 O 100.36 -2.68318 -0.160947 0
M  V30 998 C 98.6306 -2.71251 2.32718 0
M  V30 999 S 100.19 -3.60892 2.49605 0
M  V30 1000 H 97.0076 -0.515315 0.489869 0
M  V30 1001 H 99.6096 -0.860392 1.75549 0
M  V30 1002 H 98.3136 -2.39027 3.33608 0
M  V30 1003 H 97.8446 -3.40795 1.96526 0
M  V30 1004 H 99.8596 -4.64899 1.73446 0
M  V30 1005 N 99.0327 -1.24633 -0.964593 0
M  V30 1006 C 99.9797 -1.04144 -2.05968 0
M  V30 1007 C 100.95 0.046262 -1.66036 0
M  V30 1008 O 102.135 -0.108972 -1.90489 0
M  V30 1009 C 99.2747 -0.65563 -3.38815 0
M  V30 1010 C 98.3877 -1.81714 -3.91923 0
M  V30 1011 C 97.5227 -1.37662 -5.13052 0
M  V30 1012 C 96.5617 -2.50788 -5.58365 0
M  V30 1013 N 95.6987 -2.07582 -6.70712 0
M  V30 1014 H 100.539 -1.9787 -2.22827 0
M  V30 1015 H 98.0757 -0.9855 -1.09208 0
M  V30 1016 H 100.034 -0.412954 -4.15151 0
M  V30 1017 H 98.6637 0.244627 -3.21872 0
M  V30 1018 H 97.7157 -2.1734 -3.12198 0
M  V30 1019 H 99.0277 -2.66705 -4.21509 0
M  V30 1020 H 98.1817 -1.093 -5.96773 0
M  V30 1021 H 96.9207 -0.497293 -4.85158 0
M  V30 1022 H 95.9257 -2.79906 -4.73215 0
M  V30 1023 H 97.1507 -3.39283 -5.88272 0
M  V30 1024 H 95.0967 -1.22051 -6.44546 0
M  V30 1025 H 95.0137 -2.86125 -6.99763 0
M  V30 1026 H 96.2817 -1.82369 -7.57867 0
M  V30 1027 N 100.511 1.16574 -1.06058 0
M  V30 1028 C 101.758 1.87047 -0.775873 0
M  V30 1029 C 102.086 1.81562 0.697534 0
M  V30 1030 O 101.341 1.22445 1.52662 0
M  V30 1031 C 101.64 3.36195 -1.21275 0
M  V30 1032 C 101.306 3.6188 -2.68986 0
M  V30 1033 C 99.9678 3.68599 -3.09335 0
M  V30 1034 C 102.32 3.72648 -3.64394 0
M  V30 1035 C 99.6478 3.83584 -4.43937 0
M  V30 1036 C 102 3.89154 -4.98741 0
M  V30 1037 C 100.664 3.94114 -5.3873 0
M  V30 1038 H 99.9338 0.684452 -0.283912 0
M  V30 1039 H 102.581 1.37853 -1.32925 0
M  V30 1040 H 100.886 3.87505 -0.578528 0
M  V30 1041 H 102.583 3.89103 -0.969542 0
M  V30 1042 H 99.1728 3.57281 -2.36744 0
M  V30 1043 H 103.357 3.66769 -3.34356 0
M  V30 1044 H 98.6128 3.85677 -4.74409 0
M  V30 1045 H 102.787 3.96427 -5.72554 0
M  V30 1046 H 100.414 4.05478 -6.43033 0
M  V30 1047 N 101.989 0.842826 1.3317 0
M  V30 1048 C 102.919 0.294028 2.31641 0
M  V30 1049 C 103.9 -0.600401 1.59151 0
M  V30 1050 O 105.085 -0.523124 1.87022 0
M  V30 1051 C 102.215 -0.528416 3.43257 0
M  V30 1052 C 101.169 0.27056 4.27144 0
M  V30 1053 C 100.495 -0.675881 5.30411 0
M  V30 1054 C 101.795 1.48981 5.00602 0
M  V30 1055 H 103.489 1.11681 2.77791 0
M  V30 1056 H 101.035 0.538478 1.33553 0
M  V30 1057 H 102.988 -0.922674 4.11175 0
M  V30 1058 H 101.712 -1.38445 2.95805 0
M  V30 1059 H 100.371 0.646427 3.60856 0
M  V30 1060 H 100.019 -1.52842 4.79216 0
M  V30 1061 H 99.7189 -0.145374 5.8742 0
M  V30 1062 H 101.243 -1.06757 6.01195 0
M  V30 1063 H 102.657 1.16849 5.61266 0
M  V30 1064 H 101.054 1.95739 5.6728 0
M  V30 1065 H 102.124 2.25746 4.29147 0
M  V30 1066 N 103.467 -1.45747 0.599634 0
M  V30 1067 C 104.714 -2.02292 0.0917284 0
M  V30 1068 C 105.042 -1.46906 -1.27472 0
M  V30 1069 O 104.297 -0.630652 -1.8526 0
M  V30 1070 C 104.596 -3.57399 -0.00602758 0
M  V30 1071 C 104.262 -4.31902 1.29503 0
M  V30 1072 C 102.924 -4.51974 1.65144 0
M  V30 1073 C 105.276 -4.74551 2.15525 0
M  V30 1074 C 102.604 -5.11949 2.86574 0
M  V30 1075 C 104.956 -5.35868 3.36196 0
M  V30 1076 C 103.62 -5.54165 3.72099 0
M  V30 1077 H 102.89 -0.740239 0.0335658 0
M  V30 1078 H 105.537 -1.7491 0.779661 0
M  V30 1079 H 103.842 -3.84014 -0.777183 0
M  V30 1080 H 105.539 -3.98846 -0.415038 0
M  V30 1081 H 102.129 -4.16588 1.00761 0
M  V30 1082 H 106.313 -4.58784 1.8929 0
M  V30 1083 H 101.569 -5.24305 3.14507 0
M  V30 1084 H 105.743 -5.6787 4.03109 0
M  V30 1085 H 103.37 -6.00406 4.6628 0
M  V30 1086 N 104.945 -0.338344 -1.53925 0
M  V30 1087 C 106.193 0.259245 -2.0043 0
M  V30 1088 C 106.514 1.51484 -1.22791 0
M  V30 1089 O 105.784 1.93037 -0.33368 0
M  V30 1090 H 104.364 0.0987845 -0.740439 0
M  V30 1091 H 107.026 -0.458302 -1.89435 0
M  V30 1092 H 106.122 0.505334 -3.07982 0
M  V30 1093 N 106.423 1.57458 -0.0668435 0
M  V30 1094 C 107.669 1.93587 0.6043 0
M  V30 1095 C 108.002 0.946722 1.69561 0
M  V30 1096 O 107.277 -0.0248516 1.94484 0
M  V30 1097 C 107.56 3.40014 1.18585 0
M  V30 1098 C 107.413 4.49685 0.101529 0
M  V30 1099 C 108.732 3.87154 2.09284 0
M  V30 1100 H 105.851 0.703958 0.218202 0
M  V30 1101 H 108.493 1.89542 -0.131804 0
M  V30 1102 H 106.643 3.43592 1.81319 0
M  V30 1103 H 108.315 4.5823 -0.531279 0
M  V30 1104 H 106.558 4.30059 -0.568487 0
M  V30 1105 H 107.229 5.49266 0.54874 0
M  V30 1106 H 109.705 3.85551 1.56491 0
M  V30 1107 H 108.581 4.90231 2.46911 0
M  V30 1108 H 108.842 3.2481 2.99918 0
M  V30 1109 N 107.901 -0.206675 1.56239 0
M  V30 1110 C 108.811 -1.27686 1.96808 0
M  V30 1111 C 109.827 -1.50455 0.874035 0
M  V30 1112 O 111.003 -1.63295 1.17884 0
M  V30 1113 C 108.068 -2.60358 2.28942 0
M  V30 1114 C 107.129 -2.45762 3.51994 0
M  V30 1115 C 106.362 -3.72108 3.82585 0
M  V30 1116 O 106.585 -4.75776 3.14631 0
M  V30 1117 O 105.519 -3.6833 4.76043 0
M  V30 1118 H 109.345 -0.962593 2.88041 0
M  V30 1119 H 106.93 -0.410746 1.43643 0
M  V30 1120 H 108.812 -3.38687 2.50737 0
M  V30 1121 H 107.487 -2.91435 1.4088 0
M  V30 1122 H 106.394 -1.65584 3.35459 0
M  V30 1123 H 107.727 -2.19621 4.40486 0
M  V30 1124 N 109.379 -1.50304 -0.473955 0
M  V30 1125 C 110.607 -1.64902 -1.24959 0
M  V30 1126 C 111.022 -0.331198 -1.85872 0
M  V30 1127 O 110.379 0.68652 -1.69095 0
M  V30 1128 C 110.43 -2.73803 -2.36038 0
M  V30 1129 O 110.151 -4.00477 -1.77624 0
M  V30 1130 C 111.652 -2.99349 -3.26964 0
M  V30 1131 H 108.872 -0.554383 -0.378022 0
M  V30 1132 H 111.416 -1.9651 -0.566054 0
M  V30 1133 H 109.571 -2.44898 -3.00173 0
M  V30 1134 H 109.985 -4.60678 -2.5075 0
M  V30 1135 H 111.459 -3.79217 -4.01121 0
M  V30 1136 H 111.936 -2.10307 -3.85574 0
M  V30 1137 H 112.542 -3.29774 -2.68569 0
M  V30 1138 N 110.857 0.726932 -1.39834 0
M  V30 1139 C 111.805 1.86235 -1.39353 0
M  V30 1140 C 112.799 1.67144 -0.275555 0
M  V30 1141 O 114.005 1.74387 -0.44601 0
M  V30 1142 H 110.38 0.613174 -0.43534 0
M  V30 1143 H 112.351 1.83756 -2.35109 0
M  V30 1144 C 111.1 3.23995 -1.26185 0
M  V30 1145 H 110.423 3.39285 -2.11484 0
M  V30 1146 H 111.863 4.03609 -1.29907 0
M  V30 1147 C 110.322 3.36888 0.0290018 0
M  V30 1148 O 110.852 3.89152 0.99619 0
M  V30 1149 N 109.058 2.90446 0.0947437 0
M  V30 1150 H 108.605 2.48102 -0.693035 0
M  V30 1151 H 108.563 2.99451 0.957932 0
M  V30 1152 N 112.336 1.25143 0.95797 0
M  V30 1153 C 113.246 1.06968 2.08794 0
M  V30 1154 C 114.262 0.00773911 1.73998 0
M  V30 1155 O 115.438 0.207972 2.00323 0
M  V30 1156 C 112.503 0.68691 3.39827 0
M  V30 1157 C 111.564 1.82641 3.88511 0
M  V30 1158 C 110.797 1.46181 5.1329 0
M  V30 1159 O 111.02 0.355971 5.69288 0
M  V30 1160 O 109.954 2.29085 5.566 0
M  V30 1161 H 113.78 2.01723 2.27027 0
M  V30 1162 H 111.365 1.04051 1.07209 0
M  V30 1163 H 113.247 0.485417 4.18595 0
M  V30 1164 H 111.922 -0.231417 3.22872 0
M  V30 1165 H 110.829 2.08274 3.10762 0
M  V30 1166 H 112.162 2.72386 4.09959 0
M  V30 1167 N 113.814 -1.1601 1.06675 0
M  V30 1168 C 114.746 -2.20115 0.638921 0
M  V30 1169 C 115.759 -1.59916 -0.305057 0
M  V30 1170 O 116.948 -1.78245 -0.0954446 0
M  V30 1171 C 114.048 -3.38798 -0.0830083 0
M  V30 1172 C 113.221 -4.2855 0.875426 0
M  V30 1173 C 112.28 -5.25849 0.192042 0
M  V30 1174 O 111.306 -5.63102 0.830921 0
M  V30 1175 N 112.508 -5.70648 -1.06493 0
M  V30 1176 H 115.273 -2.57439 1.53444 0
M  V30 1177 H 112.834 -1.31057 0.950557 0
M  V30 1178 H 114.826 -4.00936 -0.550685 0
M  V30 1179 H 113.396 -2.99947 -0.880386 0
M  V30 1180 H 112.616 -3.63617 1.52238 0
M  V30 1181 H 113.904 -4.85393 1.52548 0
M  V30 1182 H 113.302 -5.42482 -1.60405 0
M  V30 1183 H 111.859 -6.34859 -1.47641 0
M  V30 1184 N 115.292 -0.849877 -1.32721 0
M  V30 1185 C 116.222 -0.306308 -2.31482 0
M  V30 1186 C 117.203 0.591952 -1.59468 0
M  V30 1187 O 118.388 0.513199 -1.87296 0
M  V30 1188 C 115.518 0.510204 -3.43532 0
M  V30 1189 C 114.472 -0.293209 -4.26994 0
M  V30 1190 C 113.798 0.647743 -5.30762 0
M  V30 1191 C 115.098 -1.51634 -4.99804 0
M  V30 1192 H 116.792 -1.13153 -2.77195 0
M  V30 1193 H 114.338 -0.545553 -1.33266 0
M  V30 1194 H 116.291 0.900856 -4.11658 0
M  V30 1195 H 115.015 1.36874 -2.96535 0
M  V30 1196 H 113.674 -0.665555 -3.60508 0
M  V30 1197 H 113.322 1.50299 -4.8002 0
M  V30 1198 H 113.022 0.11422 -5.87489 0
M  V30 1199 H 114.546 1.03567 -6.01753 0
M  V30 1200 H 115.96 -1.19824 -5.60638 0
M  V30 1201 H 114.357 -1.98745 -5.66234 0
M  V30 1202 H 115.427 -2.28018 -4.27943 0
M  V30 1203 N 116.77 1.45427 -0.607355 0
M  V30 1204 C 117.703 2.27635 0.160482 0
M  V30 1205 C 118.681 1.37122 0.873857 0
M  V30 1206 O 119.865 1.66551 0.882775 0
M  V30 1207 C 116.992 3.15486 1.23231 0
M  V30 1208 C 116.038 4.21939 0.622097 0
M  V30 1209 S 116.871 5.32459 -0.569852 0
M  V30 1210 C 118.027 6.23879 0.502577 0
M  V30 1211 H 118.26 2.9241 -0.536983 0
M  V30 1212 H 115.793 1.49265 -0.394868 0
M  V30 1213 H 117.751 3.66659 1.84585 0
M  V30 1214 H 116.412 2.49977 1.90185 0
M  V30 1215 H 115.605 4.8333 1.42856 0
M  V30 1216 H 115.207 3.73906 0.0837063 0
M  V30 1217 H 117.499 6.63261 1.38171 0
M  V30 1218 H 118.442 7.0806 -0.0751759 0
M  V30 1219 H 118.85 5.58545 0.8178 0
M  V30 1220 N 118.248 0.346503 1.53744 0
M  V30 1221 C 119.178 -0.501193 2.28058 0
M  V30 1222 C 120.159 -1.10014 1.29734 0
M  V30 1223 O 121.344 -1.12097 1.58581 0
M  V30 1224 C 118.474 -1.65078 3.05559 0
M  V30 1225 C 117.428 -1.18003 4.11411 0
M  V30 1226 C 116.754 -2.41837 4.76884 0
M  V30 1227 C 118.054 -0.278394 5.21558 0
M  V30 1228 H 119.748 0.11875 2.99164 0
M  V30 1229 H 117.294 0.0585531 1.43881 0
M  V30 1230 H 119.247 -2.25028 3.56287 0
M  V30 1231 H 117.971 -2.29767 2.32109 0
M  V30 1232 H 116.63 -0.603331 3.61601 0
M  V30 1233 H 116.278 -3.0494 4.00026 0
M  V30 1234 H 115.978 -2.1102 5.48402 0
M  V30 1235 H 117.502 -3.02508 5.30397 0
M  V30 1236 H 118.916 -0.784823 5.67903 0
M  V30 1237 H 117.313 -0.0619707 6.00068 0
M  V30 1238 H 118.383 0.684677 4.80042 0
M  V30 1239 N 119.726 -1.57421 0.075193 0
M  V30 1240 C 120.658 -2.09904 -0.920483 0
M  V30 1241 C 121.671 -1.03191 -1.25918 0
M  V30 1242 O 122.86 -1.30695 -1.21577 0
M  V30 1243 C 119.96 -2.54726 -2.23534 0
M  V30 1244 C 119.133 -3.8505 -2.07498 0
M  V30 1245 C 118.192 -4.15929 -3.22319 0
M  V30 1246 O 117.218 -4.85474 -2.9716 0
M  V30 1247 N 118.42 -3.69745 -4.47514 0
M  V30 1248 H 121.185 -2.95954 -0.472359 0
M  V30 1249 H 118.746 -1.61523 -0.110444 0
M  V30 1250 H 120.738 -2.72443 -2.9926 0
M  V30 1251 H 119.308 -1.73795 -2.59835 0
M  V30 1252 H 118.528 -3.76679 -1.16219 0
M  V30 1253 H 119.816 -4.70348 -1.94038 0
M  V30 1254 H 119.214 -3.13569 -4.7084 0
M  V30 1255 H 117.771 -3.92655 -5.20255 0
M  V30 1256 N 121.204 0.198386 -1.56346 0
M  V30 1257 C 122.453 0.917451 -1.79627 0
M  V30 1258 C 122.766 1.8456 -0.64784 0
M  V30 1259 O 123.972 2.60504 -0.764859 0
M  V30 1260 C 122.428 1.68175 -3.18191 0
M  V30 1261 C 122.036 0.798589 -4.40825 0
M  V30 1262 C 123.78 2.39065 -3.50782 0
M  V30 1263 C 121.687 1.56157 -5.70411 0
M  V30 1264 H 120.617 0.346317 -0.669762 0
M  V30 1265 H 123.268 0.170801 -1.82703 0
M  V30 1266 H 121.65 2.47216 -3.09354 0
M  V30 1267 H 122.824 0.0470665 -4.60776 0
M  V30 1268 H 121.139 0.200686 -4.15916 0
M  V30 1269 H 123.736 2.96692 -4.44835 0
M  V30 1270 H 124.079 3.13091 -2.74371 0
M  V30 1271 H 124.612 1.66993 -3.61052 0
M  V30 1272 H 121.351 0.864142 -6.49779 0
M  V30 1273 H 120.871 2.2871 -5.54483 0
M  V30 1274 H 122.55 2.11622 -6.11412 0
M  V30 1275 N 122.682 1.50554 0.465978 0
M  V30 1276 C 123.592 1.72585 1.58907 0
M  V30 1277 C 124.608 0.60911 1.6299 0
M  V30 1278 O 125.784 0.88804 1.80765 0
M  V30 1279 C 122.849 1.81995 2.95091 0
M  V30 1280 C 121.91 3.05751 3.01355 0
M  V30 1281 C 121.143 3.14702 4.31043 0
M  V30 1282 O 121.366 2.30313 5.21835 0
M  V30 1283 O 120.3 4.07468 4.43005 0
M  V30 1284 H 124.126 2.67799 1.43239 0
M  V30 1285 H 121.711 1.34711 0.646013 0
M  V30 1286 H 123.593 1.90335 3.75966 0
M  V30 1287 H 122.268 0.899659 3.10947 0
M  V30 1288 H 121.175 3.02908 2.19539 0
M  V30 1289 H 122.508 3.97375 2.90437 0
M  V30 1290 N 124.16 -0.719506 1.40217 0
M  V30 1291 C 125.107 -1.83359 1.40172 0
M  V30 1292 C 126.077 -1.64065 0.259206 0
M  V30 1293 O 127.262 -1.85254 0.456677 0
M  V30 1294 C 124.402 -3.2103 1.26624 0
M  V30 1295 C 123.515 -3.51923 2.50548 0
M  V30 1296 C 122.65 -4.79079 2.29471 0
M  V30 1297 C 121.689 -5.02863 3.48992 0
M  V30 1298 N 120.826 -6.2123 3.27135 0
M  V30 1299 H 125.666 -1.82733 2.35399 0
M  V30 1300 H 123.203 -0.892688 1.16917 0
M  V30 1301 H 125.161 -4.00524 1.16776 0
M  V30 1302 H 123.791 -3.20895 0.350176 0
M  V30 1303 H 122.843 -2.67014 2.70939 0
M  V30 1304 H 124.155 -3.6541 3.39525 0
M  V30 1305 H 123.309 -5.66582 2.16955 0
M  V30 1306 H 122.048 -4.67794 1.37913 0
M  V30 1307 H 121.053 -4.13816 3.6199 0
M  V30 1308 H 122.278 -5.16023 4.41472 0
M  V30 1309 H 120.224 -6.11204 2.38256 0
M  V30 1310 H 120.141 -6.35375 4.09675 0
M  V30 1311 H 121.409 -7.11532 3.18344 0
M  V30 1312 N 125.638 -1.25649 -0.95132 0
M  V30 1313 C 126.863 -1.13443 -1.73624 0
M  V30 1314 C 127.288 0.307565 -1.85568 0
M  V30 1315 O 126.646 1.22282 -1.33854 0
M  V30 1316 C 126.694 -1.79723 -3.12621 0
M  V30 1317 O 125.798 -1.07912 -3.98031 0
M  V30 1318 H 125.139 -0.395872 -0.533086 0
M  V30 1319 H 127.669 -1.66276 -1.1922 0
M  V30 1320 H 127.679 -1.86141 -3.63064 0
M  V30 1321 H 126.354 -2.84633 -3.03244 0
M  V30 1322 H 124.931 -1.09398 -3.56492 0
M  V30 1323 N 127.117 1.15442 -1.07289 0
M  V30 1324 C 128.047 2.22312 -0.714107 0
M  V30 1325 C 129.028 1.67467 0.298155 0
M  V30 1326 O 130.213 1.93445 0.171048 0
M  V30 1327 C 127.343 3.47124 -0.110448 0
M  V30 1328 C 126.297 4.14926 -1.04979 0
M  V30 1329 C 125.623 5.33807 -0.308924 0
M  V30 1330 C 126.923 4.64762 -2.38314 0
M  V30 1331 H 128.617 2.5258 -1.6076 0
M  V30 1332 H 126.163 1.21404 -0.77441 0
M  V30 1333 H 128.116 4.21124 0.152482 0
M  V30 1334 H 126.84 3.16187 0.81812 0
M  V30 1335 H 125.499 3.42866 -1.29764 0
M  V30 1336 H 125.147 4.99126 0.623084 0
M  V30 1337 H 124.847 5.80113 -0.935036 0
M  V30 1338 H 126.371 6.10576 -0.0537771 0
M  V30 1339 H 127.785 5.30292 -2.1786 0
M  V30 1340 H 126.182 5.21728 -2.96514 0
M  V30 1341 H 127.252 3.80434 -3.00663 0
M  V30 1342 N 128.595 0.856903 1.32268 0
M  V30 1343 C 129.505 0.306131 2.32594 0
M  V30 1344 C 130.521 -0.577209 1.64147 0
M  V30 1345 O 131.697 -0.477043 1.95669 0
M  V30 1346 C 128.762 -0.494561 3.43154 0
M  V30 1347 C 127.823 0.415186 4.27288 0
M  V30 1348 C 127.056 -0.347387 5.32568 0
M  V30 1349 O 127.279 -1.57708 5.48165 0
M  V30 1350 O 126.213 0.287982 6.01211 0
M  V30 1351 H 130.039 1.13737 2.81598 0
M  V30 1352 H 127.624 0.619902 1.35932 0
M  V30 1353 H 129.506 -0.948944 4.10576 0
M  V30 1354 H 128.181 -1.30257 2.96336 0
M  V30 1355 H 127.088 0.917793 3.62667 0
M  V30 1356 H 128.421 1.18844 4.77637 0
M  V30 1357 N 130.073 -1.45103 0.615059 0
M  V30 1358 C 130.983 -2.34382 -0.101034 0
M  V30 1359 C 131.999 -1.51681 -0.852585 0
M  V30 1360 O 133.175 -1.8446 -0.808484 0
M  V30 1361 C 130.24 -3.29417 -1.08099 0
M  V30 1362 C 129.301 -4.28025 -0.330577 0
M  V30 1363 C 128.534 -5.1852 -1.26385 0
M  V30 1364 O 128.757 -5.12598 -2.50198 0
M  V30 1365 O 127.691 -5.97122 -0.756866 0
M  V30 1366 H 131.517 -2.97033 0.632855 0
M  V30 1367 H 129.102 -1.4461 0.375293 0
M  V30 1368 H 130.984 -3.87958 -1.6452 0
M  V30 1369 H 129.659 -2.69321 -1.79577 0
M  V30 1370 H 128.566 -3.73078 0.276283 0
M  V30 1371 H 129.899 -4.90997 0.343866 0
M  V30 1372 N 131.551 -0.354651 -1.53558 0
M  V30 1373 C 132.498 0.496968 -2.25386 0
M  V30 1374 C 133.468 1.0865 -1.25636 0
M  V30 1375 O 134.653 1.12104 -1.54394 0
M  V30 1376 C 131.793 1.63637 -3.03837 0
M  V30 1377 C 130.906 1.07307 -4.18461 0
M  V30 1378 C 130.041 2.18068 -4.84376 0
M  V30 1379 C 129.08 1.59147 -5.91049 0
M  V30 1380 N 128.217 2.63695 -6.50699 0
M  V30 1381 H 133.057 -0.122075 -2.9775 0
M  V30 1382 H 130.594 -0.0720154 -1.46924 0
M  V30 1383 H 132.552 2.30734 -3.47589 0
M  V30 1384 H 131.182 2.22623 -2.33749 0
M  V30 1385 H 130.234 0.292708 -3.79272 0
M  V30 1386 H 131.546 0.602193 -4.95152 0
M  V30 1387 H 130.7 2.93007 -5.31255 0
M  V30 1388 H 129.439 2.68504 -4.07133 0
M  V30 1389 H 128.444 0.827175 -5.43542 0
M  V30 1390 H 129.669 1.09549 -6.70206 0
M  V30 1391 H 127.615 3.13365 -5.76315 0
M  V30 1392 H 127.532 2.21263 -7.22896 0
M  V30 1393 H 128.8 3.3837 -7.02229 0
M  V30 1394 N 133.029 1.57378 -0.0835403 0
M  V30 1395 C 134.257 1.98263 0.59157 0
M  V30 1396 C 134.672 0.962302 1.62435 0
M  V30 1397 O 134.029 -0.049581 1.82433 0
M  V30 1398 C 134.08 3.39214 1.24965 0
M  V30 1399 O 133.801 4.37339 0.258186 0
M  V30 1400 C 135.302 3.95038 2.01147 0
M  V30 1401 H 132.522 0.651773 0.159477 0
M  V30 1402 H 135.066 2.03878 -0.159415 0
M  V30 1403 H 133.221 3.34649 1.95164 0
M  V30 1404 H 133.635 5.19371 0.731734 0
M  V30 1405 H 135.109 4.95848 2.42567 0
M  V30 1406 H 135.586 3.32222 2.87272 0
M  V30 1407 H 136.192 4.0304 1.35789 0
M  V30 1408 N 134.507 -0.190092 1.56449 0
M  V30 1409 C 135.417 -1.25591 1.98152 0
M  V30 1410 C 136.433 -1.49519 0.889944 0
M  V30 1411 O 137.609 -1.62036 1.19609 0
M  V30 1412 C 134.674 -2.57916 2.3169 0
M  V30 1413 C 133.735 -2.42015 3.5458 0
M  V30 1414 C 132.968 -3.6803 3.8651 0
M  V30 1415 O 133.191 -4.72413 3.1966 0
M  V30 1416 O 132.125 -3.6326 4.79923 0
M  V30 1417 H 135.951 -0.931988 2.89046 0
M  V30 1418 H 133.536 -0.395488 1.4407 0
M  V30 1419 H 135.418 -3.36008 2.54316 0
M  V30 1420 H 134.093 -2.89925 1.43963 0
M  V30 1421 H 133 -1.62017 3.37196 0
M  V30 1422 H 134.333 -2.14937 4.4279 0
M  V30 1423 N 135.985 -1.50799 -0.457987 0
M  V30 1424 C 137.232 -1.62442 -1.20908 0
M  V30 1425 C 137.56 -0.330865 -1.91665 0
M  V30 1426 O 136.815 0.68401 -1.83357 0
M  V30 1427 C 137.114 -2.76358 -2.2663 0
M  V30 1428 C 136.78 -4.16378 -1.73033 0
M  V30 1429 C 135.442 -4.54473 -1.58138 0
M  V30 1430 C 137.794 -5.03836 -1.33413 0
M  V30 1431 C 135.122 -5.77754 -1.02065 0
M  V30 1432 C 137.474 -6.27676 -0.78778 0
M  V30 1433 C 136.138 -6.64562 -0.625561 0
M  V30 1434 H 135.408 -0.594417 -0.442435 0
M  V30 1435 H 138.055 -1.84772 -0.503136 0
M  V30 1436 H 136.36 -2.48167 -3.03184 0
M  V30 1437 H 138.057 -2.82568 -2.84528 0
M  V30 1438 H 134.647 -3.86331 -1.85598 0
M  V30 1439 H 138.831 -4.75026 -1.4375 0
M  V30 1440 H 134.087 -6.04997 -0.882547 0
M  V30 1441 H 138.261 -6.94797 -0.472177 0
M  V30 1442 H 135.888 -7.59965 -0.188926 0
M  V30 1443 N 137.463 0.71206 -1.40597 0
M  V30 1444 C 138.41 1.82613 -1.41142 0
M  V30 1445 C 139.38 1.63925 -0.267903 0
M  V30 1446 O 140.565 1.85009 -0.466495 0
M  V30 1447 C 137.705 3.20354 -1.28324 0
M  V30 1448 C 136.818 3.50589 -2.52411 0
M  V30 1449 C 135.953 4.77855 -2.32009 0
M  V30 1450 C 134.992 5.01005 -3.51654 0
M  V30 1451 N 134.129 6.19487 -3.30425 0
M  V30 1452 H 138.969 1.81482 -2.36365 0
M  V30 1453 H 136.506 0.886475 -1.17388 0
M  V30 1454 H 138.464 3.99899 -1.18899 0
M  V30 1455 H 137.094 3.20705 -0.367189 0
M  V30 1456 H 136.146 2.65573 -2.72351 0
M  V30 1457 H 137.458 3.63604 -3.41458 0
M  V30 1458 H 136.612 5.65424 -2.19956 0
M  V30 1459 H 135.351 4.67056 -1.40392 0
M  V30 1460 H 134.356 4.1189 -3.64179 0
M  V30 1461 H 135.581 5.13674 -4.44202 0
M  V30 1462 H 133.527 6.09932 -2.41494 0
M  V30 1463 H 133.444 6.33194 -4.13039 0
M  V30 1464 H 134.712 7.09834 -3.22113 0
M  V30 1465 N 138.941 1.26152 0.944643 0
M  V30 1466 C 140.189 1.11271 1.6871 0
M  V30 1467 C 140.51 -0.345166 1.91921 0
M  V30 1468 O 139.78 -1.24387 1.51343 0
M  V30 1469 H 138.36 0.408783 0.625224 0
M  V30 1470 H 141.022 1.58427 1.1352 0
M  V30 1471 H 140.118 1.62879 2.66227 0
M  V30 1472 N 140.419 -1.14872 1.07899 0
M  V30 1473 C 141.329 -2.2341 0.715915 0
M  V30 1474 C 142.345 -1.71808 -0.275306 0
M  V30 1475 O 143.521 -2.01039 -0.120545 0
M  V30 1476 C 140.586 -3.46474 0.125168 0
M  V30 1477 C 139.647 -4.13039 1.17034 0
M  V30 1478 C 138.88 -5.30229 0.607688 0
M  V30 1479 O 139.103 -5.675 -0.574497 0
M  V30 1480 O 138.037 -5.86444 1.35526 0
M  V30 1481 H 141.863 -2.56808 1.62121 0
M  V30 1482 H 139.448 -1.22702 0.852322 0
M  V30 1483 H 141.33 -4.20917 -0.201729 0
M  V30 1484 H 140.005 -3.14811 -0.753364 0
M  V30 1485 H 138.912 -3.40493 1.54968 0
M  V30 1486 H 140.245 -4.48796 2.02097 0
M  V30 1487 N 141.898 -0.863906 -1.31812 0
M  V30 1488 C 143.147 -0.46801 -1.96195 0
M  V30 1489 C 143.46 0.983474 -1.69077 0
M  V30 1490 O 144.666 1.48523 -2.27273 0
M  V30 1491 C 143.122 -0.785995 -3.51212 0
M  V30 1492 C 142.73 -2.25383 -3.87178 0
M  V30 1493 C 144.474 -0.458274 -4.22019 0
M  V30 1494 C 142.381 -2.51455 -5.3528 0
M  V30 1495 H 141.311 -0.171283 -0.734287 0
M  V30 1496 H 143.962 -1.05597 -1.50072 0
M  V30 1497 H 142.344 -0.127359 -3.95795 0
M  V30 1498 H 143.518 -2.95502 -3.53575 0
M  V30 1499 H 141.833 -2.54698 -3.2942 0
M  V30 1500 H 144.43 -0.630369 -5.30971 0
M  V30 1501 H 144.773 0.600834 -4.11941 0
M  V30 1502 H 145.306 -1.07319 -3.8305 0
M  V30 1503 H 142.045 -3.56025 -5.50387 0
M  V30 1504 H 141.565 -1.85923 -5.70257 0
M  V30 1505 H 143.244 -2.35874 -6.02472 0
M  V30 1506 N 143.376 1.44774 -0.622745 0
M  V30 1507 C 144.309 2.27792 0.136329 0
M  V30 1508 C 145.287 1.38041 0.859264 0
M  V30 1509 O 146.471 1.67478 0.86506 0
M  V30 1510 C 143.598 3.16776 1.19878 0
M  V30 1511 C 142.644 4.22575 0.57731 0
M  V30 1512 S 143.477 5.31825 -0.626294 0
M  V30 1513 C 144.633 6.24377 0.436378 0
M  V30 1514 H 144.866 2.91824 -0.567967 0
M  V30 1515 H 142.399 1.48838 -0.410677 0
M  V30 1516 H 144.357 3.68596 1.80686 0
M  V30 1517 H 143.018 2.5198 1.87523 0
M  V30 1518 H 142.211 4.84818 1.37721 0
M  V30 1519 H 141.813 3.73974 0.0440439 0
M  V30 1520 H 144.105 6.64689 1.31128 0
M  V30 1521 H 145.048 7.07941 -0.150271 0
M  V30 1522 H 145.456 5.59381 0.758513 0
M  V30 1523 N 144.854 0.36279 1.53368 0
M  V30 1524 C 146.101 -0.227776 2.01215 0
M  V30 1525 C 146.429 -1.49003 1.25014 0
M  V30 1526 O 145.684 -1.92876 0.331236 0
M  V30 1527 C 145.983 -0.568417 3.52851 0
M  V30 1528 C 145.649 0.59918 4.46901 0
M  V30 1529 C 144.311 0.919559 4.72332 0
M  V30 1530 C 146.663 1.38156 5.02556 0
M  V30 1531 C 143.991 2.02434 5.5067 0
M  V30 1532 C 146.343 2.47674 5.821 0
M  V30 1533 C 145.007 2.8025 6.05819 0
M  V30 1534 H 144.277 -0.083349 0.736297 0
M  V30 1535 H 146.924 0.494677 1.85001 0
M  V30 1536 H 145.229 -1.37185 3.66998 0
M  V30 1537 H 146.926 -1.03756 3.87344 0
M  V30 1538 H 143.516 0.339437 4.27254 0
M  V30 1539 H 147.7 1.14729 4.82857 0
M  V30 1540 H 142.956 2.28075 5.67267 0
M  V30 1541 H 147.13 3.08716 6.24234 0
M  V30 1542 H 144.757 3.65979 6.66306 0
M  V30 1543 N 146.332 -1.57332 0.0918853 0
M  V30 1544 C 147.562 -1.98286 -0.580205 0
M  V30 1545 C 147.97 -0.969713 -1.6246 0
M  V30 1546 O 147.313 0.0493501 -1.83634 0
M  V30 1547 C 147.375 -3.35603 -1.28882 0
M  V30 1548 C 147.039 -4.55285 -0.395559 0
M  V30 1549 C 148.036 -5.18687 0.355002 0
M  V30 1550 C 145.721 -5.01314 -0.314556 0
M  V30 1551 C 147.715 -6.26484 1.17458 0
M  V30 1552 C 145.402 -6.08979 0.508677 0
M  V30 1553 C 146.4 -6.71429 1.2519 0
M  V30 1554 O 146.088 -7.77018 2.06151 0
M  V30 1555 H 145.82 -0.656678 -0.160466 0
M  V30 1556 H 148.374 -2.04721 0.16688 0
M  V30 1557 H 146.604 -3.25842 -2.08241 0
M  V30 1558 H 148.293 -3.61026 -1.85512 0
M  V30 1559 H 149.059 -4.84058 0.302134 0
M  V30 1560 H 144.938 -4.5247 -0.882697 0
M  V30 1561 H 148.482 -6.75159 1.75518 0
M  V30 1562 H 144.379 -6.4304 0.563037 0
M  V30 1563 H 145.147 -7.93991 1.98799 0
M  V30 1564 N 147.81 0.181792 -1.56548 0
M  V30 1565 C 148.757 1.22521 -1.95595 0
M  V30 1566 C 149.727 1.4454 -0.818373 0
M  V30 1567 O 150.912 1.57454 -1.07763 0
M  V30 1568 C 148.052 2.56193 -2.31212 0
M  V30 1569 C 147.165 2.41641 -3.58097 0
M  V30 1570 C 146.3 3.68108 -3.82975 0
M  V30 1571 C 145.339 3.48445 -5.03242 0
M  V30 1572 N 144.476 4.66956 -5.24306 0
M  V30 1573 H 149.316 0.885226 -2.84548 0
M  V30 1574 H 146.853 0.425718 -1.40805 0
M  V30 1575 H 148.811 3.34088 -2.49882 0
M  V30 1576 H 147.441 2.88208 -1.45382 0
M  V30 1577 H 146.493 1.54976 -3.474 0
M  V30 1578 H 147.805 2.23052 -4.46149 0
M  V30 1579 H 146.959 4.54441 -4.01956 0
M  V30 1580 H 145.698 3.89666 -2.93278 0
M  V30 1581 H 144.703 2.60499 -4.8417 0
M  V30 1582 H 145.928 3.2832 -5.9446 0
M  V30 1583 H 143.874 4.88752 -4.37559 0
M  V30 1584 H 143.791 4.51242 -6.06561 0
M  V30 1585 H 145.059 5.54602 -5.47756 0
M  V30 1586 N 149.288 1.51039 0.449983 0
M  V30 1587 C 150.235 1.71439 1.54523 0
M  V30 1588 C 151.205 0.555871 1.56522 0
M  V30 1589 O 152.39 0.788871 1.73728 0
M  V30 1590 C 149.53 1.83384 2.92343 0
M  V30 1591 C 148.643 3.10873 2.9997 0
M  V30 1592 C 147.778 3.13488 4.28834 0
M  V30 1593 C 146.817 4.35343 4.30282 0
M  V30 1594 N 145.954 4.35579 5.5065 0
M  V30 1595 H 150.794 2.64934 1.36433 0
M  V30 1596 H 148.331 1.31312 0.662982 0
M  V30 1597 H 150.289 1.88291 3.72293 0
M  V30 1598 H 148.919 0.933086 3.0902 0
M  V30 1599 H 147.971 3.15336 2.12761 0
M  V30 1600 H 149.283 4.00814 2.96901 0
M  V30 1601 H 148.437 3.17241 5.17149 0
M  V30 1602 H 147.176 2.21414 4.34543 0
M  V30 1603 H 146.181 4.3178 3.40362 0
M  V30 1604 H 147.406 5.28668 4.26248 0
M  V30 1605 H 145.352 3.46369 5.57104 0
M  V30 1606 H 145.269 5.19313 5.49409 0
M  V30 1607 H 146.537 4.43507 6.41032 0
M  V30 1608 N 150.766 -0.704594 1.40972 0
M  V30 1609 C 151.714 -1.83994 1.42299 0
M  V30 1610 C 152.708 -1.66684 0.302111 0
M  V30 1611 O 153.914 -1.73655 0.473697 0
M  V30 1612 H 150.289 -0.606171 0.44504 0
M  V30 1613 H 152.26 -1.79992 2.38003 0
M  V30 1614 C 151.009 -3.21946 1.31323 0
M  V30 1615 H 150.332 -3.35878 2.16855 0
M  V30 1616 H 151.772 -4.01491 1.36311 0
M  V30 1617 C 150.231 -3.36891 0.0245977 0
M  V30 1618 O 150.761 -3.90687 -0.934153 0
M  V30 1619 N 148.967 -2.90559 -0.0485243 0
M  V30 1620 H 148.514 -2.46968 0.732419 0
M  V30 1621 H 148.472 -3.00937 -0.910171 0
M  V30 1622 N 152.244 -1.26651 -0.937939 0
M  V30 1623 C 153.492 -1.12165 -1.68118 0
M  V30 1624 C 153.813 0.334983 -1.92101 0
M  V30 1625 O 153.083 1.23583 -1.52 0
M  V30 1626 H 151.663 -0.412093 -0.623048 0
M  V30 1627 H 154.325 -1.59027 -1.12678 0
M  V30 1628 H 153.421 -1.64289 -2.6536 0
M  V30 1629 N 153.722 1.14298 -1.08507 0
M  V30 1630 C 154.947 1.8976 -0.837001 0
M  V30 1631 C 155.372 1.78097 0.605228 0
M  V30 1632 O 154.73 1.12188 1.4242 0
M  V30 1633 C 154.778 3.37685 -1.26495 0
M  V30 1634 O 153.882 4.10281 -0.417514 0
M  V30 1635 H 153.223 0.590365 -0.303917 0
M  V30 1636 H 155.753 1.44672 -1.44676 0
M  V30 1637 H 155.763 3.88501 -1.24625 0
M  V30 1638 H 154.438 3.45492 -2.31534 0
M  V30 1639 H 153.015 3.69536 -0.499722 0
M  V30 1640 N 155.201 0.870884 1.31352 0
M  V30 1641 C 156.612 0.534714 1.78879 0
M  V30 1642 C 156.963 -0.948423 1.71754 0
M  V30 1643 O 156.088 -1.74055 1.28584 0
M  V30 1644 C 156.683 0.963839 3.24801 0
M  V30 1645 C 155.242 0.679311 3.70219 0
M  V30 1646 C 154.389 1.15465 2.52117 0
M  V30 1647 H 157.34 1.05651 1.18421 0
M  V30 1648 H 157.361 0.286892 3.79417 0
M  V30 1649 H 156.873 2.04332 3.29955 0
M  V30 1650 H 154.974 -0.388769 3.70566 0
M  V30 1651 H 155.087 1.25698 4.62317 0
M  V30 1652 H 153.451 0.574383 2.48139 0
M  V30 1653 H 154.234 2.24157 2.60016 0
M  V30 1654 N 156.679 -1.44442 0.630414 0
M  V30 1655 C 157.926 -2.02052 0.134617 0
M  V30 1656 C 158.254 -1.49576 -1.24327 0
M  V30 1657 O 157.509 -0.669806 -1.83881 0
M  V30 1658 C 157.808 -3.57332 0.0697835 0
M  V30 1659 C 157.474 -4.29058 1.38635 0
M  V30 1660 C 156.136 -4.4837 1.74694 0
M  V30 1661 C 158.488 -4.69872 2.25543 0
M  V30 1662 C 155.816 -5.05756 2.97369 0
M  V30 1663 C 158.168 -5.28616 3.47487 0
M  V30 1664 C 156.832 -5.46147 3.8377 0
M  V30 1665 H 156.102 -0.739361 0.0492598 0
M  V30 1666 H 158.749 -1.73217 0.816586 0
M  V30 1667 H 157.054 -3.85577 -0.695553 0
M  V30 1668 H 158.751 -3.99637 -0.330344 0
M  V30 1669 H 155.341 -4.14357 1.09574 0
M  V30 1670 H 159.525 -4.54666 1.98979 0
M  V30 1671 H 154.781 -5.17515 3.25558 0
M  V30 1672 H 158.955 -5.59192 4.15063 0
M  V30 1673 H 156.582 -5.9038 4.7891 0
M  V30 1674 N 158.157 -0.370918 -1.53173 0
M  V30 1675 C 159.403 0.209976 -2.02313 0
M  V30 1676 C 159.758 1.45987 -1.25322 0
M  V30 1677 O 159.051 1.8856 -0.339965 0
M  V30 1678 C 159.245 0.549696 -3.53147 0
M  V30 1679 C 159.074 -0.665721 -4.44745 0
M  V30 1680 C 157.844 -1.17942 -4.91343 0
M  V30 1681 C 160.042 -1.53255 -4.90935 0
M  V30 1682 N 158.024 -2.35431 -5.66962 0
M  V30 1683 C 159.395 -2.55403 -5.64951 0
M  V30 1684 C 161.45 -1.5548 -4.73002 0
M  V30 1685 C 160.153 -3.5964 -6.22938 0
M  V30 1686 C 162.179 -2.58613 -5.31858 0
M  V30 1687 C 161.541 -3.59485 -6.05764 0
M  V30 1688 H 157.64 0.0394095 -0.781006 0
M  V30 1689 H 160.224 -0.516666 -1.8772 0
M  V30 1690 H 158.395 1.24541 -3.67891 0
M  V30 1691 H 160.127 1.11614 -3.89004 0
M  V30 1692 H 156.882 -0.743228 -4.67732 0
M  V30 1693 H 157.306 -2.94827 -6.09431 0
M  V30 1694 H 161.948 -0.788457 -4.15383 0
M  V30 1695 H 159.666 -4.37153 -6.79649 0
M  V30 1696 H 163.252 -2.61195 -5.19873 0
M  V30 1697 H 162.132 -4.3798 -6.50495 0
M  V30 1698 N 159.635 1.57281 -0.100228 0
M  V30 1699 C 160.875 1.96419 0.56558 0
M  V30 1700 C 161.239 0.981265 1.65031 0
M  V30 1701 O 162.44 1.26133 2.37369 0
M  V30 1702 C 160.711 3.39996 1.10171 0
M  V30 1703 S 162.27 4.01134 1.77867 0
M  V30 1704 H 159.088 0.68667 0.184406 0
M  V30 1705 H 161.69 1.94662 -0.180851 0
M  V30 1706 H 160.394 4.09296 0.300803 0
M  V30 1707 H 159.925 3.45361 1.88385 0
M  V30 1708 H 161.94 3.90358 3.06326 0
M  V30 1709 N 161.113 -0.173488 1.56642 0
M  V30 1710 C 162.043 -1.2171 1.99271 0
M  V30 1711 C 163.024 -1.46289 0.867959 0
M  V30 1712 O 164.209 -1.5766 1.13388 0
M  V30 1713 C 161.339 -2.55651 2.35074 0
M  V30 1714 C 160.293 -2.45645 3.50489 0
M  V30 1715 C 159.619 -3.84056 3.72028 0
M  V30 1716 C 160.919 -1.96302 4.84007 0
M  V30 1717 H 162.613 -0.86275 2.867 0
M  V30 1718 H 160.159 -0.413571 1.37933 0
M  V30 1719 H 162.112 -3.2886 2.63494 0
M  V30 1720 H 160.836 -2.92869 1.44552 0
M  V30 1721 H 159.495 -1.7489 3.22194 0
M  V30 1722 H 159.143 -4.18664 2.788 0
M  V30 1723 H 158.843 -3.7823 4.49684 0
M  V30 1724 H 160.367 -4.58854 4.02846 0
M  V30 1725 H 161.781 -2.59284 5.11317 0
M  V30 1726 H 160.178 -2.01429 5.65284 0
M  V30 1727 H 161.248 -0.917226 4.76146 0
M  V30 1728 N 162.591 -1.51276 -0.441967 0
M  V30 1729 C 163.521 -1.752 -1.54361 0
M  V30 1730 C 164.502 -0.601682 -1.59103 0
M  V30 1731 O 165.687 -0.843913 -1.74905 0
M  V30 1732 C 162.817 -1.87282 -2.92477 0
M  V30 1733 C 161.771 -3.02687 -3.02596 0
M  V30 1734 C 161.097 -2.99947 -4.42647 0
M  V30 1735 C 162.397 -4.4273 -2.77106 0
M  V30 1736 H 164.091 -2.67442 -1.34592 0
M  V30 1737 H 161.637 -1.28694 -0.646048 0
M  V30 1738 H 163.59 -2.02602 -3.695 0
M  V30 1739 H 162.314 -0.916844 -3.13467 0
M  V30 1740 H 160.973 -2.87065 -2.28012 0
M  V30 1741 H 160.621 -2.02136 -4.60597 0
M  V30 1742 H 160.321 -3.77439 -4.50348 0
M  V30 1743 H 161.845 -3.17354 -5.2165 0
M  V30 1744 H 163.259 -4.58727 -3.43864 0
M  V30 1745 H 161.656 -5.21893 -2.96222 0
M  V30 1746 H 162.726 -4.53087 -1.72744 0
M  V30 1747 N 164.069 0.697108 -1.41344 0
M  V30 1748 C 165.346 1.45154 -1.31109 0
M  V30 1749 C 165.726 2.11009 0.0620449 0
M  V30 1750 O 165.074 2.01571 1.07618 0
M  V30 1751 C 165.284 2.47223 -2.46337 0
M  V30 1752 C 166.632 3.1252 -2.87431 0
M  V30 1753 O 167.656 2.57547 -2.46065 0
M  V30 1754 O 166.515 4.12083 -3.58957 0
M  V30 1755 H 163.609 0.646365 -0.515889 0
M  V30 1756 H 166.155 0.727716 -1.53305 0
M  V30 1757 H 164.927 1.97204 -3.37974 0
M  V30 1758 H 164.55 3.27116 -2.2601 0
M  V30 1759 N 165.547 1.27147 0.931209 0
M  V30 1760 C 166.796 1.12664 1.67302 0
M  V30 1761 C 167.109 -0.327718 1.92835 0
M  V30 1762 O 168.315 -0.593392 2.64936 0
M  V30 1763 C 166.771 1.9683 3.01307 0
M  V30 1764 C 166.379 3.46901 2.83485 0
M  V30 1765 C 168.123 1.90985 3.79111 0
M  V30 1766 C 166.03 4.23279 4.13024 0
M  V30 1767 H 164.96 0.41803 0.627509 0
M  V30 1768 H 167.611 1.51539 1.03481 0
M  V30 1769 H 165.993 1.50797 3.66164 0
M  V30 1770 H 167.167 4.00773 2.27415 0
M  V30 1771 H 165.482 3.54088 2.19113 0
M  V30 1772 H 168.079 2.45328 4.75098 0
M  V30 1773 H 168.422 0.882718 4.06834 0
M  V30 1774 H 168.955 2.34895 3.21044 0
M  V30 1775 H 165.694 5.26503 3.90481 0
M  V30 1776 H 165.214 3.74186 4.6877 0
M  V30 1777 H 166.893 4.32265 4.81411 0
M  V30 1778 N 167.025 -1.13721 1.09112 0
M  V30 1779 C 168.271 -1.85198 0.826414 0
M  V30 1780 C 168.604 -1.83129 -0.646319 0
M  V30 1781 O 167.879 -1.2671 -1.47563 0
M  V30 1782 C 168.162 -3.33507 1.35812 0
M  V30 1783 C 168.015 -3.44108 2.89672 0
M  V30 1784 C 169.334 -4.28838 0.989256 0
M  V30 1785 H 166.453 -0.67243 0.301675 0
M  V30 1786 H 169.095 -1.33499 1.35197 0
M  V30 1787 H 167.245 -3.77666 0.911082 0
M  V30 1788 H 168.917 -3.08684 3.428 0
M  V30 1789 H 167.16 -2.85087 3.26967 0
M  V30 1790 H 167.831 -4.48388 3.21951 0
M  V30 1791 H 170.307 -3.92734 1.37475 0
M  V30 1792 H 169.183 -5.31051 1.38838 0
M  V30 1793 H 169.444 -4.4198 -0.102924 0
M  V30 1794 N 168.503 -0.877838 -1.30888 0
M  V30 1795 C 169.914 -0.544193 -1.78593 0
M  V30 1796 C 170.265 0.939301 -1.72254 0
M  V30 1797 O 169.39 1.7337 -1.29505 0
M  V30 1798 C 169.985 -0.98105 -3.24285 0
M  V30 1799 C 168.544 -0.698935 -3.69854 0
M  V30 1800 C 167.691 -1.168 -2.51502 0
M  V30 1801 H 170.642 -1.06278 -1.17859 0
M  V30 1802 H 170.663 -0.307009 -3.79259 0
M  V30 1803 H 170.175 -2.06079 -3.28866 0
M  V30 1804 H 168.276 0.369112 -3.70767 0
M  V30 1805 H 168.389 -1.28148 -4.61644 0
M  V30 1806 H 166.753 -0.587535 -2.47831 0
M  V30 1807 H 167.536 -2.25533 -2.58824 0
M  V30 1808 N 169.982 1.44106 -0.638065 0
M  V30 1809 C 171.231 2.01194 -0.142744 0
M  V30 1810 C 171.544 1.50835 1.24532 0
M  V30 1811 O 172.75 2.00096 1.83504 0
M  V30 1812 C 171.206 3.59319 -0.20442 0
M  V30 1813 C 170.814 4.18674 -1.59423 0
M  V30 1814 C 172.558 4.23854 0.234079 0
M  V30 1815 C 170.465 5.69045 -1.61065 0
M  V30 1816 H 169.395 0.752367 -0.0495998 0
M  V30 1817 H 172.046 1.65246 -0.797881 0
M  V30 1818 H 170.428 3.92598 0.517946 0
M  V30 1819 H 171.602 3.96921 -2.34074 0
M  V30 1820 H 169.917 3.66453 -1.97741 0
M  V30 1821 H 172.514 5.34155 0.241443 0
M  V30 1822 H 172.857 3.96688 1.2627 0
M  V30 1823 H 173.39 3.95403 -0.436025 0
M  V30 1824 H 170.129 6.00956 -2.61787 0
M  V30 1825 H 169.649 5.929 -0.90718 0
M  V30 1826 H 171.328 6.32809 -1.34766 0
M  V30 1827 N 171.46 0.379036 1.52974 0
M  V30 1828 C 172.407 -0.461048 2.26148 0
M  V30 1829 C 173.377 -1.06637 1.27349 0
M  V30 1830 O 174.562 -1.09633 1.56157 0
M  V30 1831 C 171.702 -1.58782 3.06402 0
M  V30 1832 C 170.815 -1.00636 4.20115 0
M  V30 1833 C 169.95 -2.10334 4.87784 0
M  V30 1834 C 168.989 -1.49724 5.93506 0
M  V30 1835 N 168.126 -2.5331 6.54812 0
M  V30 1836 H 172.966 0.169429 2.97518 0
M  V30 1837 H 170.503 0.0953806 1.4679 0
M  V30 1838 H 172.461 -2.25174 3.51215 0
M  V30 1839 H 171.091 -2.18876 2.37261 0
M  V30 1840 H 170.143 -0.232332 3.7969 0
M  V30 1841 H 171.455 -0.523343 4.96047 0
M  V30 1842 H 170.609 -2.84519 5.35849 0
M  V30 1843 H 169.348 -2.61992 4.11353 0
M  V30 1844 H 168.353 -0.740598 5.44789 0
M  V30 1845 H 169.578 -0.988732 6.71864 0
M  V30 1846 H 167.524 -3.04156 5.81227 0
M  V30 1847 H 167.441 -2.09734 7.26325 0
M  V30 1848 H 168.709 -3.27155 7.07524 0
M  V30 1849 N 172.938 -1.57226 0.108567 0
M  V30 1850 C 173.886 -2.16002 -0.862885 0
M  V30 1851 C 174.88 -1.10644 -1.28274 0
M  V30 1852 O 176.086 -1.28966 -1.2557 0
M  V30 1853 H 172.461 -0.691148 -0.296342 0
M  V30 1854 H 174.432 -2.96427 -0.342575 0
M  V30 1855 C 173.181 -2.76576 -2.10716 0
M  V30 1856 H 172.504 -3.5734 -1.793 0
M  V30 1857 H 173.944 -3.21253 -2.76717 0
M  V30 1858 C 172.403 -1.73137 -2.89007 0
M  V30 1859 O 172.933 -1.17842 -3.84026 0
M  V30 1860 N 171.139 -1.43317 -2.52801 0
M  V30 1861 H 170.686 -1.88473 -1.75601 0
M  V30 1862 H 170.644 -0.743485 -3.05483 0
M  V30 1863 N 174.416 0.165178 -1.56732 0
M  V30 1864 C 175.326 1.22423 -2.00125 0
M  V30 1865 C 176.342 1.48084 -0.913619 0
M  V30 1866 O 177.518 1.60112 -1.22172 0
M  V30 1867 C 174.583 2.54197 -2.35764 0
M  V30 1868 C 173.644 2.36343 -3.58386 0
M  V30 1869 C 172.877 3.61834 -3.92316 0
M  V30 1870 O 173.1 4.67267 -3.27135 0
M  V30 1871 O 172.034 3.55579 -4.85641 0
M  V30 1872 H 175.86 0.885886 -2.90492 0
M  V30 1873 H 173.445 0.372518 -1.44681 0
M  V30 1874 H 175.327 3.3192 -2.59629 0
M  V30 1875 H 174.002 2.87598 -1.48557 0
M  V30 1876 H 172.909 1.56632 -3.39731 0
M  V30 1877 H 174.242 2.07865 -4.46154 0
M  V30 1878 N 175.894 1.51508 0.433938 0
M  V30 1879 C 176.841 1.73068 1.52696 0
M  V30 1880 C 177.811 0.572441 1.55924 0
M  V30 1881 O 178.996 0.807253 1.72882 0
M  V30 1882 C 176.136 1.86474 2.90381 0
M  V30 1883 C 175.249 3.14037 2.96656 0
M  V30 1884 C 174.384 3.18019 4.25485 0
M  V30 1885 C 173.423 4.39882 4.2564 0
M  V30 1886 N 172.56 4.41394 5.45999 0
M  V30 1887 H 177.4 2.66366 1.33615 0
M  V30 1888 H 174.937 1.32008 0.649018 0
M  V30 1889 H 176.895 1.92229 3.70275 0
M  V30 1890 H 175.525 0.965809 3.08013 0
M  V30 1891 H 174.577 3.17575 2.09404 0
M  V30 1892 H 175.889 4.0394 2.92633 0
M  V30 1893 H 175.043 3.22708 5.13755 0
M  V30 1894 H 173.782 2.2601 4.3217 0
M  V30 1895 H 172.787 4.35366 3.35763 0
M  V30 1896 H 174.012 5.33159 4.20617 0
M  V30 1897 H 171.958 3.52258 5.53399 0
M  V30 1898 H 171.875 5.25111 5.4387 0
M  V30 1899 H 173.143 4.50281 6.36292 0
M  V30 1900 N 177.372 -0.689602 1.41712 0
M  V30 1901 C 178.62 -1.4468 1.4111 0
M  V30 1902 C 178.941 -1.94986 0.0232196 0
M  V30 1903 O 178.211 -1.72097 -0.935913 0
M  V30 1904 H 176.791 -0.536847 0.519427 0
M  V30 1905 H 179.453 -0.815825 1.77004 0
M  V30 1906 H 178.549 -2.30706 2.10193 0
M  V30 1907 N 178.85 -1.27639 -0.924453 0
M  V30 1908 C 180.127 -1.04887 -1.651 0
M  V30 1909 C 180.507 0.415327 -2.06974 0
M  V30 1910 O 179.855 1.39923 -1.80648 0
M  V30 1911 C 180.065 -2.01348 -2.85061 0
M  V30 1912 C 181.413 -2.30899 -3.56329 0
M  V30 1913 O 182.437 -1.99348 -2.95193 0
M  V30 1914 O 181.296 -2.84699 -4.66485 0
M  V30 1915 H 178.39 -0.400083 -0.723784 0
M  V30 1916 H 180.936 -1.38916 -0.974703 0
M  V30 1917 H 179.708 -3.0008 -2.51133 0
M  V30 1918 H 179.331 -1.679 -3.6041 0
M  V30 1919 N 180.328 1.1314 -1.09713 0
M  V30 1920 C 181.574 1.84757 -0.836224 0
M  V30 1921 C 181.907 1.8347 0.636598 0
M  V30 1922 O 181.182 1.27491 1.46889 0
M  V30 1923 C 181.465 3.32782 -1.37578 0
M  V30 1924 C 181.318 3.42567 -2.91493 0
M  V30 1925 C 182.637 4.28307 -1.01198 0
M  V30 1926 H 179.756 0.67082 -0.305236 0
M  V30 1927 H 182.398 1.3278 -1.35903 0
M  V30 1928 H 180.548 3.77177 -0.931097 0
M  V30 1929 H 182.22 3.06862 -3.44432 0
M  V30 1930 H 180.463 2.83349 -3.28475 0
M  V30 1931 H 181.134 4.46674 -3.24324 0
M  V30 1932 H 183.61 3.91999 -1.39556 0
M  V30 1933 H 182.486 5.30307 -1.41653 0
M  V30 1934 H 182.747 4.42029 0.0794833 0
M  V30 1935 N 181.806 0.884767 1.30421 0
M  V30 1936 C 183.052 0.503851 1.96441 0
M  V30 1937 C 183.385 -0.944518 1.69684 0
M  V30 1938 O 182.66 -1.66737 1.00145 0
M  V30 1939 C 182.943 0.779085 3.51571 0
M  V30 1940 C 182.796 2.27807 3.87846 0
M  V30 1941 C 184.115 0.255452 4.39358 0
M  V30 1942 H 181.234 0.184533 0.713524 0
M  V30 1943 H 183.876 1.10872 1.54297 0
M  V30 1944 H 182.026 0.264274 3.876 0
M  V30 1945 H 183.698 2.86127 3.61841 0
M  V30 1946 H 181.941 2.74479 3.35922 0
M  V30 1947 H 182.612 2.42125 4.96064 0
M  V30 1948 H 185.088 0.696079 4.10236 0
M  V30 1949 H 183.964 0.477361 5.4682 0
M  V30 1950 H 184.225 -0.843293 4.33983 0
M  V30 1951 N 183.284 -1.43765 0.645699 0
M  V30 1952 C 184.214 -2.33471 -0.0370477 0
M  V30 1953 C 185.195 -1.49042 -0.819779 0
M  V30 1954 O 186.38 -1.77726 -0.782758 0
M  V30 1955 C 183.51 -3.32311 -1.0093 0
M  V30 1956 C 182.464 -4.2667 -0.337201 0
M  V30 1957 C 181.79 -5.1549 -1.42037 0
M  V30 1958 C 183.09 -5.16657 0.765706 0
M  V30 1959 H 184.784 -2.90809 0.712069 0
M  V30 1960 H 182.33 -1.39834 0.343876 0
M  V30 1961 H 184.283 -3.9396 -1.49578 0
M  V30 1962 H 183.007 -2.73213 -1.78948 0
M  V30 1963 H 181.666 -3.66374 0.128771 0
M  V30 1964 H 181.314 -4.52735 -2.1918 0
M  V30 1965 H 181.014 -5.79438 -0.975966 0
M  V30 1966 H 182.538 -5.80012 -1.90838 0
M  V30 1967 H 183.952 -5.72158 0.361702 0
M  V30 1968 H 182.349 -5.89286 1.13413 0
M  V30 1969 H 183.419 -4.56796 1.62683 0
M  V30 1970 N 184.763 -0.387143 -1.52771 0
M  V30 1971 C 186.01 0.195735 -2.01552 0
M  V30 1972 C 186.338 1.46995 -1.27369 0
M  V30 1973 O 185.593 1.92325 -0.361879 0
M  V30 1974 C 185.892 0.512209 -3.53711 0
M  V30 1975 C 185.558 -0.670202 -4.45891 0
M  V30 1976 C 184.22 -0.994586 -4.70809 0
M  V30 1977 C 186.572 -1.46134 -5.00294 0
M  V30 1978 C 183.9 -2.11169 -5.4738 0
M  V30 1979 C 186.252 -2.56903 -5.78086 0
M  V30 1980 C 184.916 -2.89852 -6.01284 0
M  V30 1981 H 184.186 0.0716246 -0.73753 0
M  V30 1982 H 186.833 -0.524046 -1.8419 0
M  V30 1983 H 185.138 1.31329 -3.69134 0
M  V30 1984 H 186.835 0.975804 -3.88946 0
M  V30 1985 H 183.425 -0.407366 -4.2666 0
M  V30 1986 H 187.609 -1.22397 -4.80971 0
M  V30 1987 H 182.865 -2.3707 -5.63567 0
M  V30 1988 H 187.039 -3.18608 -6.19243 0
M  V30 1989 H 184.666 -3.76533 -6.60399 0
M  V30 1990 N 186.241 1.57166 -0.116904 0
M  V30 1991 C 187.171 2.18222 0.830759 0
M  V30 1992 C 188.152 1.12167 1.27877 0
M  V30 1993 O 189.337 1.40394 1.34176 0
M  V30 1994 C 186.467 2.77996 2.08172 0
M  V30 1995 C 185.421 3.89614 1.77157 0
M  V30 1996 C 184.747 4.36187 3.09265 0
M  V30 1997 C 186.047 5.1181 1.04151 0
M  V30 1998 H 187.741 2.97664 0.321992 0
M  V30 1999 H 185.287 1.4318 0.153434 0
M  V30 2000 H 187.24 3.19366 2.74924 0
M  V30 2001 H 185.964 1.9584 2.6137 0
M  V30 2002 H 184.623 3.48816 1.12796 0
M  V30 2003 H 184.271 3.50893 3.60393 0
M  V30 2004 H 183.971 5.11455 2.89288 0
M  V30 2005 H 185.495 4.80207 3.77139 0
M  V30 2006 H 186.909 5.50214 1.61052 0
M  V30 2007 H 185.306 5.92648 0.942762 0
M  V30 2008 H 186.376 4.84892 0.0279022 0
M  V30 2009 N 187.719 -0.156864 1.56817 0
M  V30 2010 C 188.682 -1.17781 1.96622 0
M  V30 2011 C 189.682 -1.36401 0.851555 0
M  V30 2012 O 190.872 -1.33561 1.11836 0
M  V30 2013 C 188.004 -2.54008 2.27361 0
M  V30 2014 H 189.197 -0.836564 2.87996 0
M  V30 2015 H 186.75 -0.39985 1.51099 0
M  V30 2016 H 187.485 -2.9312 1.38748 0
M  V30 2017 H 187.27 -2.41856 3.08623 0
M  V30 2018 H 188.76 -3.27558 2.59029 0
M  V30 2019 N 189.197 -1.51736 -0.425897 0
M  V30 2020 C 190.422 -1.69082 -1.20108 0
M  V30 2021 C 190.847 -0.392398 -1.83962 0
M  V30 2022 O 190.205 0.64858 -1.69302 0
M  V30 2023 C 190.253 -2.81604 -2.25237 0
M  V30 2024 O 189.357 -2.46004 -3.30992 0
M  V30 2025 H 188.698 -0.563408 -0.35138 0
M  V30 2026 H 191.228 -1.98358 -0.501512 0
M  V30 2027 H 191.238 -3.06025 -2.69838 0
M  V30 2028 H 189.913 -3.75817 -1.78142 0
M  V30 2029 H 188.49 -2.32195 -2.91787 0
M  V30 2030 N 190.675 0.682077 -1.42076 0
M  V30 2031 C 191.922 1.44215 -1.42156 0
M  V30 2032 C 192.25 1.94468 -0.0354186 0
M  V30 2033 O 191.505 1.70816 0.955002 0
M  V30 2034 C 191.804 2.66036 -2.38662 0
M  V30 2035 C 191.47 2.34366 -3.85206 0
M  V30 2036 C 190.132 2.25439 -4.25124 0
M  V30 2037 C 192.484 2.08513 -4.77673 0
M  V30 2038 C 189.812 1.88775 -5.55501 0
M  V30 2039 C 192.164 1.73354 -6.08384 0
M  V30 2040 C 190.828 1.62933 -6.47309 0
M  V30 2041 H 190.098 0.527718 -0.520187 0
M  V30 2042 H 192.745 0.778387 -1.74967 0
M  V30 2043 H 191.05 3.3741 -1.99152 0
M  V30 2044 H 192.747 3.24205 -2.35991 0
M  V30 2045 H 189.337 2.42213 -3.53597 0
M  V30 2046 H 193.521 2.14346 -4.47626 0
M  V30 2047 H 188.777 1.7927 -5.84527 0
M  V30 2048 H 192.951 1.52373 -6.79526 0
M  V30 2049 H 190.578 1.34292 -7.48244 0
M  V30 2050 N 192.153 1.28127 0.917671 0
M  V30 2051 C 193.1 1.11717 2.0196 0
M  V30 2052 C 194.07 0.0153929 1.66093 0
M  V30 2053 O 195.255 0.179596 1.89953 0
M  V30 2054 C 192.395 0.780927 3.36148 0
M  V30 2055 C 191.508 1.96135 3.84909 0
M  V30 2056 C 190.643 1.56609 5.0759 0
M  V30 2057 C 189.682 2.71339 5.48673 0
M  V30 2058 N 188.819 2.32332 6.62545 0
M  V30 2059 H 193.659 2.06003 2.15329 0
M  V30 2060 H 191.196 1.02535 1.05475 0
M  V30 2061 H 193.154 0.56675 4.13333 0
M  V30 2062 H 191.784 -0.124998 3.22558 0
M  V30 2063 H 190.836 2.28777 3.03916 0
M  V30 2064 H 192.148 2.82165 4.1132 0
M  V30 2065 H 191.302 1.31374 5.92305 0
M  V30 2066 H 190.041 0.677014 4.82978 0
M  V30 2067 H 189.046 2.97276 4.62501 0
M  V30 2068 H 190.271 3.60882 5.75274 0
M  V30 2069 H 188.217 1.45889 6.39572 0
M  V30 2070 H 188.134 3.11899 6.88662 0
M  V30 2071 H 189.402 2.10371 7.50576 0
M  V30 2072 N 193.631 -1.12557 1.10312 0
M  V30 2073 C 194.908 -1.80363 0.756878 0
M  V30 2074 C 195.288 -1.97067 -0.756824 0
M  V30 2075 O 194.636 -1.54601 -1.68259 0
M  V30 2076 C 194.846 -3.14812 1.50647 0
M  V30 2077 C 196.194 -3.90029 1.67817 0
M  V30 2078 O 197.218 -3.24464 1.46974 0
M  V30 2079 O 196.077 -5.07652 2.02365 0
M  V30 2080 H 193.171 -0.780667 0.272926 0
M  V30 2081 H 195.717 -1.19404 1.20586 0
M  V30 2082 H 194.489 -2.97936 2.53672 0
M  V30 2083 H 194.112 -3.83478 1.05026 0
M  V30 2084 N 195.109 -0.891671 -1.2995 0
M  V30 2085 C 196.358 -0.509521 -1.95158 0
M  V30 2086 C 196.671 0.947388 -1.71125 0
M  V30 2087 O 197.877 1.43669 -2.30372 0
M  V30 2088 C 196.333 -0.860315 -3.49466 0
M  V30 2089 C 195.941 -2.33545 -3.8231 0
M  V30 2090 C 197.685 -0.547687 -4.20952 0
M  V30 2091 C 195.592 -2.62752 -5.29826 0
M  V30 2092 H 194.522 -0.18682 -0.730489 0
M  V30 2093 H 197.173 -1.08756 -1.47798 0
M  V30 2094 H 195.555 -0.211285 -3.95436 0
M  V30 2095 H 196.729 -3.02936 -3.47227 0
M  V30 2096 H 195.044 -2.61629 -3.23944 0
M  V30 2097 H 197.641 -0.742854 -5.29515 0
M  V30 2098 H 197.984 0.51332 -4.13123 0
M  V30 2099 H 198.517 -1.1542 -3.80688 0
M  V30 2100 H 195.256 -3.6762 -5.42712 0
M  V30 2101 H 194.776 -1.97977 -5.66185 0
M  V30 2102 H 196.455 -2.48601 -5.97333 0
M  V30 2103 N 196.587 1.43421 -0.653314 0
M  V30 2104 C 197.815 2.06163 -0.174491 0
M  V30 2105 C 198.23 1.48969 1.1599 0
M  V30 2106 O 197.587 0.621042 1.71608 0
M  V30 2107 C 197.638 3.61417 -0.0774865 0
M  V30 2108 O 197.359 4.16485 -1.35912 0
M  V30 2109 C 198.86 4.41235 0.427402 0
M  V30 2110 H 196.08 0.664946 -0.0899353 0
M  V30 2111 H 198.624 1.83924 -0.893988 0
M  V30 2112 H 196.779 3.82841 0.59257 0
M  V30 2113 H 197.193 5.10153 -1.21839 0
M  V30 2114 H 198.667 5.5021 0.44423 0
M  V30 2115 H 199.144 4.14268 1.45873 0
M  V30 2116 H 199.75 4.2478 -0.210167 0
M  V30 2117 N 198.065 0.39524 1.52563 0
M  V30 2118 C 199.342 -0.242908 1.94086 0
M  V30 2119 C 199.722 -1.63841 1.33114 0
M  V30 2120 O 199.07 -2.22928 0.501529 0
M  V30 2121 C 199.28 -0.26327 3.48006 0
M  V30 2122 C 200.628 -0.489354 4.21771 0
M  V30 2123 O 201.652 -0.343226 3.54543 0
M  V30 2124 O 200.511 -0.776169 5.4096 0
M  V30 2125 H 197.605 -0.152536 0.812811 0
M  V30 2126 H 200.151 0.450178 1.6362 0
M  V30 2127 H 198.923 0.713985 3.84731 0
M  V30 2128 H 198.546 -1.00103 3.84792 0
M  V30 2129 N 199.544 -1.57102 0.125237 0
M  V30 2130 C 200.772 -1.99761 -0.538797 0
M  V30 2131 C 201.187 -1.00503 -1.59827 0
M  V30 2132 O 200.544 0.00119474 -1.825 0
M  V30 2133 C 200.595 -3.42408 -1.15927 0
M  V30 2134 O 200.316 -4.37869 -0.142143 0
M  V30 2135 C 201.817 -4.00232 -1.90602 0
M  V30 2136 H 199.037 -0.655772 -0.14214 0
M  V30 2137 H 201.581 -2.03383 0.213413 0
M  V30 2138 H 199.736 -3.39706 -1.86223 0
M  V30 2139 H 200.15 -5.21128 -0.593775 0
M  V30 2140 H 201.624 -5.02105 -2.29335 0
M  V30 2141 H 202.101 -3.39721 -2.78363 0
M  V30 2142 H 202.707 -4.06499 -1.25055 0
M  V30 2143 N 201.022 0.148545 -1.56898 0
M  V30 2144 C 201.969 1.18345 -1.98149 0
M  V30 2145 C 202.939 1.42772 -0.848848 0
M  V30 2146 O 204.124 1.55132 -1.11079 0
M  V30 2147 C 201.264 2.51231 -2.36594 0
M  V30 2148 C 200.377 2.33991 -3.63142 0
M  V30 2149 C 199.512 3.59902 -3.90697 0
M  V30 2150 C 198.551 3.37692 -5.1052 0
M  V30 2151 N 197.688 4.5573 -5.34092 0
M  V30 2152 H 202.528 0.82467 -2.86362 0
M  V30 2153 H 200.065 0.395756 -1.41676 0
M  V30 2154 H 202.023 3.28713 -2.56912 0
M  V30 2155 H 200.653 2.85059 -1.51463 0
M  V30 2156 H 199.705 1.47572 -3.50609 0
M  V30 2157 H 201.017 2.13539 -4.5078 0
M  V30 2158 H 200.171 4.45813 -4.11505 0
M  V30 2159 H 198.91 3.83357 -3.01477 0
M  V30 2160 H 197.915 2.5017 -4.89587 0
M  V30 2161 H 199.14 3.15637 -6.0129 0
M  V30 2162 H 197.086 4.79361 -4.47827 0
M  V30 2163 H 197.003 4.38274 -6.15996 0
M  V30 2164 H 198.271 5.42858 -5.59397 0
M  V30 2165 N 202.5 1.5196 0.417844 0
M  V30 2166 C 203.746 1.65836 1.16732 0
M  V30 2167 C 204.079 0.382881 1.90388 0
M  V30 2168 O 203.354 -0.618368 1.84408 0
M  V30 2169 C 203.637 2.87466 2.16876 0
M  V30 2170 C 203.49 4.25041 1.47174 0
M  V30 2171 C 204.809 3.04613 3.17646 0
M  V30 2172 H 201.928 0.603515 0.423011 0
M  V30 2173 H 204.57 1.84494 0.454105 0
M  V30 2174 H 202.72 2.71689 2.777 0
M  V30 2175 H 204.392 4.52527 0.895376 0
M  V30 2176 H 202.635 4.26843 0.773806 0
M  V30 2177 H 203.306 5.06176 2.20204 0
M  V30 2178 H 205.782 3.1923 2.66892 0
M  V30 2179 H 204.658 3.91247 3.8499 0
M  V30 2180 H 204.919 2.17541 3.84874 0
M  V30 2181 N 203.978 -0.674533 1.42435 0
M  V30 2182 C 204.925 -1.78807 1.45934 0
M  V30 2183 C 205.895 -1.63157 0.311271 0
M  V30 2184 O 207.08 -1.83707 0.515383 0
M  V30 2185 C 204.22 -3.16839 1.36773 0
M  V30 2186 C 203.333 -3.43774 2.61617 0
M  V30 2187 C 202.468 -4.71536 2.44597 0
M  V30 2188 C 201.507 -4.91505 3.64814 0
M  V30 2189 N 200.644 -6.10508 3.46734 0
M  V30 2190 H 205.484 -1.75151 2.41093 0
M  V30 2191 H 203.021 -0.85504 1.19697 0
M  V30 2192 H 204.979 -3.96606 1.29459 0
M  V30 2193 H 203.609 -3.19619 0.452089 0
M  V30 2194 H 202.661 -2.58259 2.79297 0
M  V30 2195 H 203.973 -3.54423 3.50978 0
M  V30 2196 H 203.127 -5.59393 2.3487 0
M  V30 2197 H 201.866 -4.6317 1.52726 0
M  V30 2198 H 200.871 -4.0209 3.74972 0
M  V30 2199 H 202.096 -5.01716 4.57665 0
M  V30 2200 H 200.042 -6.03315 2.5758 0
M  V30 2201 H 199.959 -6.2202 4.29682 0
M  V30 2202 H 201.227 -7.01044 3.40819 0
M  V30 2203 N 205.456 -1.28612 -0.910864 0
M  V30 2204 C 206.705 -1.15311 -1.65488 0
M  V30 2205 C 207.018 0.296999 -1.93332 0
M  V30 2206 O 208.224 0.551168 -2.65847 0
M  V30 2207 C 206.68 -2.01599 -2.98137 0
M  V30 2208 C 206.288 -3.51367 -2.7793 0
M  V30 2209 C 208.032 -1.96993 -3.76024 0
M  V30 2210 C 205.939 -4.29797 -4.06237 0
M  V30 2211 H 204.869 -0.42796 -0.620779 0
M  V30 2212 H 207.52 -1.53166 -1.01057 0
M  V30 2213 H 205.902 -1.56603 -3.63719 0
M  V30 2214 H 207.076 -4.0434 -2.21011 0
M  V30 2215 H 205.391 -3.57529 -2.13452 0
M  V30 2216 H 207.988 -2.52856 -4.71135 0
M  V30 2217 H 208.331 -0.94733 -4.05378 0
M  V30 2218 H 208.864 -2.39973 -3.17266 0
M  V30 2219 H 205.603 -5.32648 -3.82055 0
M  V30 2220 H 205.123 -3.81596 -4.62757 0
M  V30 2221 H 206.802 -4.39869 -4.74473 0
M  V30 2222 N 206.934 1.1197 -1.10907 0
M  V30 2223 C 208.162 1.87402 -0.876824 0
M  V30 2224 C 208.577 1.79894 0.573025 0
M  V30 2225 O 207.934 1.17629 1.39534 0
M  V30 2226 C 207.985 3.36428 -1.32282 0
M  V30 2227 O 207.706 3.43765 -2.71582 0
M  V30 2228 C 209.207 4.28783 -1.12518 0
M  V30 2229 H 206.427 0.592793 -0.314384 0
M  V30 2230 H 208.971 1.41649 -1.47499 0
M  V30 2231 H 207.126 3.79706 -0.768229 0
M  V30 2232 H 207.54 4.3652 -2.90776 0
M  V30 2233 H 209.014 5.31613 -1.48633 0
M  V30 2234 H 209.491 4.39153 -0.0642394 0
M  V30 2235 H 210.097 3.91291 -1.66648 0
M  V30 2236 N 208.412 0.89855 1.29475 0
M  V30 2237 C 209.823 0.572537 1.77705 0
M  V30 2238 C 210.174 -0.911778 1.73727 0
M  V30 2239 O 209.299 -1.71288 1.32247 0
M  V30 2240 C 209.894 1.03252 3.22683 0
M  V30 2241 C 208.453 0.757687 3.68695 0
M  V30 2242 C 207.6 1.20787 2.49612 0
M  V30 2243 H 210.551 1.08139 1.16153 0
M  V30 2244 H 210.572 0.367307 3.78723 0
M  V30 2245 H 210.084 2.11285 3.25546 0
M  V30 2246 H 208.185 -0.310079 3.71308 0
M  V30 2247 H 208.298 1.35476 4.59547 0
M  V30 2248 H 206.662 0.626888 2.46865 0
M  V30 2249 H 207.445 2.29622 2.55203 0
M  V30 2250 N 209.89 -1.43072 0.660911 0
M  V30 2251 C 210.8 -2.34585 -0.0264163 0
M  V30 2252 C 211.816 -1.54316 -0.803898 0
M  V30 2253 O 212.992 -1.86939 -0.749391 0
M  V30 2254 C 210.057 -3.32689 -0.975639 0
M  V30 2255 C 209.118 -4.2886 -0.194236 0
M  V30 2256 C 208.351 -5.22278 -1.09825 0
M  V30 2257 O 208.574 -5.20299 -2.33763 0
M  V30 2258 O 207.508 -5.99228 -0.566513 0
M  V30 2259 H 211.334 -2.94869 0.727034 0
M  V30 2260 H 208.919 -1.43342 0.42111 0
M  V30 2261 H 210.801 -3.92995 -1.52094 0
M  V30 2262 H 209.476 -2.74898 -1.70918 0
M  V30 2263 H 208.383 -3.72011 0.394835 0
M  V30 2264 H 209.716 -4.89655 0.499899 0
M  V30 2265 N 211.368 -0.403325 -1.52352 0
M  V30 2266 C 212.645 0.232611 -1.94212 0
M  V30 2267 C 213.025 1.63133 -1.33981 0
M  V30 2268 O 212.373 2.22659 -0.513344 0
M  V30 2269 C 212.583 0.244811 -3.4814 0
M  V30 2270 C 213.931 0.46698 -4.22024 0
M  V30 2271 O 214.955 0.324419 -3.5472 0
M  V30 2272 O 213.814 0.74747 -5.41364 0
M  V30 2273 H 210.908 0.148223 -0.813609 0
M  V30 2274 H 213.454 -0.458848 -1.63379 0
M  V30 2275 H 212.226 -0.734378 -3.84347 0
M  V30 2276 H 211.849 0.980611 -3.85318 0
M  V30 2277 N 212.846 1.57033 -0.133567 0
M  V30 2278 C 213.793 2.16074 0.811208 0
M  V30 2279 C 214.763 1.08979 1.2535 0
M  V30 2280 O 215.948 1.36958 1.32843 0
M  V30 2281 C 213.088 2.77595 2.05024 0
M  V30 2282 C 212.201 3.99042 1.65498 0
M  V30 2283 C 211.336 4.48603 2.84479 0
M  V30 2284 C 210.375 5.62547 2.41262 0
M  V30 2285 N 209.512 6.06787 3.53206 0
M  V30 2286 H 214.352 2.96477 0.300906 0
M  V30 2287 H 211.889 1.46462 0.136822 0
M  V30 2288 H 213.847 3.11402 2.77642 0
M  V30 2289 H 212.477 1.99859 2.53488 0
M  V30 2290 H 211.529 3.71302 0.826981 0
M  V30 2291 H 212.841 4.81629 1.29748 0
M  V30 2292 H 211.995 4.84395 3.65303 0
M  V30 2293 H 210.734 3.64995 3.23465 0
M  V30 2294 H 209.739 5.26345 1.58874 0
M  V30 2295 H 210.964 6.47931 2.03377 0
M  V30 2296 H 208.91 5.26117 3.91838 0
M  V30 2297 H 208.827 6.84266 3.21427 0
M  V30 2298 H 210.095 6.4722 4.34427 0
M  V30 2299 N 214.325 -0.140222 1.56975 0
M  V30 2300 C 215.272 -1.17292 1.98774 0
M  V30 2301 C 216.242 -1.4232 0.856408 0
M  V30 2302 O 217.427 -1.54541 1.119 0
M  V30 2303 C 214.567 -2.49973 2.37923 0
M  V30 2304 C 213.68 -2.32062 3.64378 0
M  V30 2305 C 212.815 -3.57825 3.926 0
M  V30 2306 C 211.854 -3.3498 5.12303 0
M  V30 2307 N 210.991 -4.52891 5.36502 0
M  V30 2308 H 215.831 -0.809472 2.86795 0
M  V30 2309 H 213.368 -0.388237 1.41884 0
M  V30 2310 H 215.326 -3.27346 2.58652 0
M  V30 2311 H 213.956 -2.84252 1.52972 0
M  V30 2312 H 213.008 -1.45711 3.51387 0
M  V30 2313 H 214.32 -2.11145 4.51906 0
M  V30 2314 H 213.474 -4.43624 4.13863 0
M  V30 2315 H 212.213 -3.81753 3.03506 0
M  V30 2316 H 211.218 -2.4757 4.90906 0
M  V30 2317 H 212.443 -3.12444 6.02956 0
M  V30 2318 H 210.389 -4.76979 4.50363 0
M  V30 2319 H 210.306 -4.35001 6.18312 0
M  V30 2320 H 211.574 -5.39884 5.62268 0
M  V30 2321 N 215.803 -1.52179 -0.40978 0
M  V30 2322 C 216.713 -1.78364 -1.52392 0
M  V30 2323 C 217.729 -0.669183 -1.60617 0
M  V30 2324 O 218.905 -0.954518 -1.77344 0
M  V30 2325 C 215.97 -1.92822 -2.88133 0
M  V30 2326 C 215.031 -3.16725 -2.898 0
M  V30 2327 C 214.264 -3.30483 -4.19067 0
M  V30 2328 O 214.487 -2.49522 -5.12928 0
M  V30 2329 O 213.421 -4.2363 -4.27576 0
M  V30 2330 H 217.247 -2.72931 -1.33201 0
M  V30 2331 H 214.832 -1.37016 -0.59557 0
M  V30 2332 H 216.714 -2.04157 -3.68643 0
M  V30 2333 H 215.389 -1.01444 -3.07393 0
M  V30 2334 H 214.296 -3.10848 -2.08146 0
M  V30 2335 H 215.629 -4.07881 -2.75489 0
M  V30 2336 N 217.281 0.66697 -1.42791 0
M  V30 2337 C 218.558 1.4234 -1.34159 0
M  V30 2338 C 218.938 2.11093 0.0172729 0
M  V30 2339 O 218.286 2.03808 1.03318 0
M  V30 2340 C 218.496 2.41942 -2.51526 0
M  V30 2341 C 219.844 3.06353 -2.93995 0
M  V30 2342 O 220.868 2.52269 -2.51473 0
M  V30 2343 O 219.727 4.04376 -3.67617 0
M  V30 2344 H 216.821 0.635277 -0.529483 0
M  V30 2345 H 219.367 0.695034 -1.54814 0
M  V30 2346 H 218.139 1.89991 -3.42081 0
M  V30 2347 H 217.762 3.22249 -2.32898 0
M  V30 2348 N 218.759 1.29093 0.90403 0
M  V30 2349 C 219.706 1.13853 2.00764 0
M  V30 2350 C 220.676 0.0330084 1.66067 0
M  V30 2351 O 221.861 0.199733 1.89752 0
M  V30 2352 C 219.001 0.816537 3.35301 0
M  V30 2353 C 218.114 2.00206 3.82807 0
M  V30 2354 C 217.249 1.61983 5.059 0
M  V30 2355 C 216.288 2.77143 5.45764 0
M  V30 2356 N 215.425 2.39346 6.60044 0
M  V30 2357 H 220.265 2.08276 2.13132 0
M  V30 2358 H 217.802 1.03648 1.04381 0
M  V30 2359 H 219.76 0.610557 4.12708 0
M  V30 2360 H 218.39 -0.090779 3.22672 0
M  V30 2361 H 217.442 2.31988 3.01473 0
M  V30 2362 H 218.754 2.86512 4.08304 0
M  V30 2363 H 217.908 1.37649 5.90879 0
M  V30 2364 H 216.647 0.728202 4.82233 0
M  V30 2365 H 215.652 3.02165 4.59322 0
M  V30 2366 H 216.877 3.66964 5.71414 0
M  V30 2367 H 214.823 1.52665 6.37989 0
M  V30 2368 H 214.74 3.19185 6.85315 0
M  V30 2369 H 216.008 2.1832 7.48303 0
M  V30 2370 N 220.237 -1.11381 1.11499 0
M  V30 2371 C 221.483 -1.83403 0.865512 0
M  V30 2372 C 221.816 -1.84459 -0.607329 0
M  V30 2373 O 221.091 -1.29811 -1.44842 0
M  V30 2374 C 221.374 -3.30552 1.42855 0
M  V30 2375 C 221.227 -3.37886 2.96906 0
M  V30 2376 C 222.546 -4.26643 1.08 0
M  V30 2377 H 219.665 -0.665879 0.31587 0
M  V30 2378 H 222.307 -1.30601 1.37998 0
M  V30 2379 H 220.457 -3.75648 0.990985 0
M  V30 2380 H 222.129 -3.01343 3.49271 0
M  V30 2381 H 220.372 -2.78088 3.32941 0
M  V30 2382 H 221.043 -4.41458 3.31389 0
M  V30 2383 H 223.519 -3.89729 1.45775 0
M  V30 2384 H 222.395 -5.27986 1.50072 0
M  V30 2385 H 222.656 -4.42099 -0.00915037 0
M  V30 2386 N 221.715 -0.905404 -1.28997 0
M  V30 2387 C 222.662 -0.385892 -2.27551 0
M  V30 2388 C 223.632 0.535113 -1.57244 0
M  V30 2389 O 224.817 0.459119 -1.85194 0
M  V30 2390 C 221.957 0.375461 -3.43051 0
M  V30 2391 C 221.07 -0.577092 -4.28128 0
M  V30 2392 C 220.205 0.201879 -5.30816 0
M  V30 2393 C 219.244 -0.744829 -6.07551 0
M  V30 2394 N 218.381 9.42587e-05 -7.021 0
M  V30 2395 H 223.221 -1.23139 -2.71368 0
M  V30 2396 H 220.758 -0.618542 -1.33463 0
M  V30 2397 H 222.716 0.832992 -4.088 0
M  V30 2398 H 221.346 1.18537 -3.00248 0
M  V30 2399 H 220.398 -1.15315 -3.62501 0
M  V30 2400 H 221.71 -1.30152 -4.8152 0
M  V30 2401 H 220.864 0.720351 -6.02408 0
M  V30 2402 H 219.603 0.959413 -4.7817 0
M  V30 2403 H 218.608 -1.27475 -5.34818 0
M  V30 2404 H 219.833 -1.50178 -6.62286 0
M  V30 2405 H 217.779 0.739791 -6.51815 0
M  V30 2406 H 217.696 -0.664321 -7.53076 0
M  V30 2407 H 218.964 0.498644 -7.77903 0
M  V30 2408 N 223.193 1.4272 -0.668489 0
M  V30 2409 C 224.441 2.01226 -0.187769 0
M  V30 2410 C 224.762 1.53092 1.2078 0
M  V30 2411 O 224.032 0.74993 1.80977 0
M  V30 2412 H 222.612 0.744041 -0.0664272 0
M  V30 2413 H 225.274 1.74723 -0.863583 0
M  V30 2414 H 224.37 3.11556 -0.184166 0
M  V30 2415 N 224.671 0.411399 1.52136 0
M  V30 2416 C 226.087 0.0623865 1.59478 0
M  V30 2417 C 226.287 -1.42554 1.4241 0
M  V30 2418 O 225.343 -2.19263 1.2522 0
M  V30 2419 C 226.656 0.559331 2.95452 0
M  V30 2420 C 228.204 0.517503 3.08692 0
M  V30 2421 C 228.679 0.990994 4.4715 0
M  V30 2422 N 230.17 0.947908 4.53397 0
M  V30 2423 C 230.905 1.28544 5.58806 0
M  V30 2424 N 230.401 1.69454 6.71757 0
M  V30 2425 N 232.194 1.20526 5.49026 0
M  V30 2426 H 224.345 1.37982 1.61477 0
M  V30 2427 H 226.608 0.566977 0.759764 0
M  V30 2428 H 226.314 1.59938 3.1323 0
M  V30 2429 H 226.188 -0.0298014 3.77188 0
M  V30 2430 H 228.575 -0.513505 2.90598 0
M  V30 2431 H 228.656 1.14272 2.28857 0
M  V30 2432 H 228.3 2.02034 4.65988 0
M  V30 2433 H 228.23 0.34257 5.25485 0
M  V30 2434 H 230.721 0.647157 3.72317 0
M  V30 2435 H 231.034 1.93513 7.48179 0
M  V30 2436 H 229.379 1.73359 6.73032 0
M  V30 2437 H 232.57 0.884505 4.59667 0
M  V30 2438 H 232.743 1.47161 6.31069 0
M  V30 2439 N 226.149 -1.5696 0.141893 0
M  V30 2440 C 227.374 -2.00754 -0.520838 0
M  V30 2441 C 227.799 -1.0213 -1.57959 0
M  V30 2442 O 227.157 0.00371324 -1.813 0
M  V30 2443 C 227.205 -3.43318 -1.10294 0
M  V30 2444 O 226.309 -3.47679 -2.21795 0
M  V30 2445 H 225.65 -0.651564 -0.127908 0
M  V30 2446 H 228.18 -2.03221 0.23712 0
M  V30 2447 H 228.19 -3.82012 -1.43287 0
M  V30 2448 H 226.865 -4.14608 -0.327574 0
M  V30 2449 H 225.442 -3.20824 -1.9007 0
M  V30 2450 N 227.627 0.131896 -1.57047 0
M  V30 2451 C 229.043 0.485031 -1.52051 0
M  V30 2452 C 229.243 1.82563 -0.85281 0
M  V30 2453 O 228.299 2.48817 -0.429694 0
M  V30 2454 C 229.612 0.481409 -2.96821 0
M  V30 2455 C 231.16 0.565868 -3.07842 0
M  V30 2456 C 231.635 0.592762 -4.54148 0
M  V30 2457 N 233.126 0.654564 -4.58552 0
M  V30 2458 C 233.861 0.696608 -5.69153 0
M  V30 2459 N 233.357 0.697078 -6.89284 0
M  V30 2460 N 235.15 0.738639 -5.57226 0
M  V30 2461 H 227.301 -0.746664 -1.98843 0
M  V30 2462 H 229.564 -0.273999 -0.90754 0
M  V30 2463 H 229.27 -0.435731 -3.4899 0
M  V30 2464 H 229.144 1.3139 -3.53577 0
M  V30 2465 H 231.531 1.47343 -2.55684 0
M  V30 2466 H 231.612 -0.29406 -2.54104 0
M  V30 2467 H 231.256 -0.310701 -5.06949 0
M  V30 2468 H 231.186 1.46939 -5.05684 0
M  V30 2469 H 233.677 0.660887 -3.72076 0
M  V30 2470 H 233.99 0.731426 -7.69331 0
M  V30 2471 H 232.335 0.66471 -6.91814 0
M  V30 2472 H 235.526 0.735545 -4.62285 0
M  V30 2473 H 235.699 0.767938 -6.43434 0
M  V30 2474 N 229.106 1.52395 0.401703 0
M  V30 2475 C 230.069 1.75636 1.47257 0
M  V30 2476 C 231.069 0.62628 1.48103 0
M  V30 2477 O 232.259 0.894227 1.49497 0
M  V30 2478 C 229.391 1.84553 2.86624 0
M  V30 2479 H 230.584 2.71241 1.27938 0
M  V30 2480 H 228.137 1.42923 0.632662 0
M  V30 2481 H 228.872 0.908882 3.11303 0
M  V30 2482 H 228.657 2.66715 2.87412 0
M  V30 2483 H 230.147 2.04251 3.64241 0
M  V30 2484 N 230.584 -0.659388 1.43143 0
M  V30 2485 C 231.832 -1.41654 1.44147 0
M  V30 2486 C 232.153 -1.94893 0.0645739 0
M  V30 2487 O 231.423 -1.74044 -0.899198 0
M  V30 2488 H 230.003 -0.525708 0.530697 0
M  V30 2489 H 232.665 -0.778097 1.78694 0
M  V30 2490 H 231.761 -2.26195 2.1504 0
M  V30 2491 N 232.062 -1.29571 -0.897171 0
M  V30 2492 C 233.29 -1.20583 -1.68129 0
M  V30 2493 C 233.705 0.233181 -1.87354 0
M  V30 2494 O 233.062 1.15579 -1.41236 0
M  V30 2495 C 233.113 -1.91772 -3.06441 0
M  V30 2496 O 232.834 -3.30053 -2.88091 0
M  V30 2497 C 234.335 -1.89291 -4.00854 0
M  V30 2498 H 231.555 -0.417826 -0.525036 0
M  V30 2499 H 234.099 -1.70987 -1.12177 0
M  V30 2500 H 232.254 -1.45196 -3.59161 0
M  V30 2501 H 232.668 -3.65942 -3.75748 0
M  V30 2502 H 234.142 -2.43662 -4.95311 0
M  V30 2503 H 234.619 -0.869014 -4.30517 0
M  V30 2504 H 235.225 -2.35622 -3.54066 0
M  V30 2505 N 233.54 1.10788 -1.12088 0
M  V30 2506 C 234.49 2.15158 -0.754401 0
M  V30 2507 C 235.474 1.59026 0.244846 0
M  V30 2508 O 236.666 1.76927 0.0509097 0
M  V30 2509 C 233.795 3.42677 -0.206657 0
M  V30 2510 C 232.881 4.05751 -1.23398 0
M  V30 2511 N 233.272 4.43582 -2.43041 0
M  V30 2512 C 231.57 4.32764 -1.07848 0
M  V30 2513 C 232.271 4.93085 -3.08613 0
M  V30 2514 N 231.247 4.89664 -2.36072 0
M  V30 2515 H 235.049 2.42195 -1.6649 0
M  V30 2516 H 232.563 1.27872 -1.00112 0
M  V30 2517 H 234.56 4.16834 0.0740646 0
M  V30 2518 H 233.22 3.17101 0.698342 0
M  V30 2519 H 234.231 4.35395 -2.80449 0
M  V30 2520 H 230.908 4.16863 -0.230483 0
M  V30 2521 H 232.298 5.31933 -4.10483 0
M  V30 2522 N 235.018 0.912232 1.28515 0
M  V30 2523 C 236.265 0.544599 1.95039 0
M  V30 2524 C 236.593 -0.911435 1.71823 0
M  V30 2525 O 235.848 -1.66317 1.03137 0
M  V30 2526 C 236.147 0.798392 3.48368 0
M  V30 2527 C 235.813 2.23374 3.91682 0
M  V30 2528 C 234.475 2.62617 4.03219 0
M  V30 2529 C 236.827 3.16786 4.13879 0
M  V30 2530 C 234.155 3.94429 4.3433 0
M  V30 2531 C 236.507 4.48161 4.46469 0
M  V30 2532 C 235.171 4.8726 4.56217 0
M  V30 2533 H 234.441 0.199283 0.7137 0
M  V30 2534 H 237.088 1.15327 1.52879 0
M  V30 2535 H 235.393 0.106908 3.91654 0
M  V30 2536 H 237.09 0.493141 3.97956 0
M  V30 2537 H 233.68 1.91922 3.83228 0
M  V30 2538 H 237.864 2.87677 4.0442 0
M  V30 2539 H 233.12 4.24426 4.40082 0
M  V30 2540 H 237.294 5.20559 4.62592 0
M  V30 2541 H 234.921 5.89431 4.80078 0
M  V30 2542 N 236.496 -1.42363 0.676048 0
M  V30 2543 C 237.773 -1.95183 0.127726 0
M  V30 2544 C 238.153 -1.61641 -1.35777 0
M  V30 2545 O 237.501 -0.913216 -2.09458 0
M  V30 2546 C 237.711 -3.46721 0.398199 0
M  V30 2547 C 239.059 -4.23427 0.315383 0
M  V30 2548 O 240.083 -3.54649 0.332016 0
M  V30 2549 O 238.942 -5.45888 0.25865 0
M  V30 2550 H 236.036 -0.826992 0.00359427 0
M  V30 2551 H 238.582 -1.52184 0.750864 0
M  V30 2552 H 237.354 -3.64344 1.4272 0
M  V30 2553 H 236.977 -3.96769 -0.256885 0
M  V30 2554 N 237.974 -0.419461 -1.51915 0
M  V30 2555 C 239.199 0.154572 -2.06823 0
M  V30 2556 C 239.624 1.3722 -1.28656 0
M  V30 2557 O 238.982 1.78461 -0.319583 0
M  V30 2558 C 239.03 0.473172 -3.57482 0
M  V30 2559 O 238.134 1.56255 -3.81652 0
M  V30 2560 H 237.475 0.0096924 -0.663929 0
M  V30 2561 H 240.005 -0.595642 -1.95738 0
M  V30 2562 H 240.015 0.728825 -4.01438 0
M  V30 2563 H 238.69 -0.416873 -4.13805 0
M  V30 2564 H 237.267 1.29825 -3.49571 0
M  V30 2565 N 239.452 1.56882 -0.150215 0
M  V30 2566 C 240.415 2.1573 0.774157 0
M  V30 2567 C 241.415 1.0999 1.17298 0
M  V30 2568 O 242.605 1.35613 1.09338 0
M  V30 2569 C 239.737 2.72302 2.05096 0
M  V30 2570 H 240.93 2.98752 0.262201 0
M  V30 2571 H 238.483 1.55985 0.099248 0
M  V30 2572 H 239.218 1.92956 2.6065 0
M  V30 2573 H 239.003 3.49665 1.77416 0
M  V30 2574 H 240.493 3.17632 2.71109 0
M  V30 2575 N 240.93 -0.123565 1.57115 0
M  V30 2576 C 242.346 -0.476961 1.52306 0
M  V30 2577 C 242.546 -1.82109 0.86248 0
M  V30 2578 O 241.602 -2.48586 0.442884 0
M  V30 2579 C 242.915 -0.465661 2.97073 0
M  V30 2580 C 244.463 -0.549534 3.08138 0
M  V30 2581 C 244.938 -0.568669 4.54456 0
M  V30 2582 N 246.429 -0.630237 4.58892 0
M  V30 2583 C 247.164 -0.666415 5.69514 0
M  V30 2584 N 246.66 -0.660514 6.89644 0
M  V30 2585 N 248.453 -0.709077 5.5761 0
M  V30 2586 H 240.604 0.757198 1.98445 0
M  V30 2587 H 242.867 0.278808 0.906074 0
M  V30 2588 H 242.573 0.454232 3.48754 0
M  V30 2589 H 242.447 -1.29513 3.54269 0
M  V30 2590 H 244.834 -1.45985 2.56461 0
M  V30 2591 H 244.915 0.307532 2.53945 0
M  V30 2592 H 244.559 0.337581 5.06777 0
M  V30 2593 H 244.489 -1.44256 5.06456 0
M  V30 2594 H 246.98 -0.641146 3.72421 0
M  V30 2595 H 247.293 -0.690616 7.69708 0
M  V30 2596 H 245.638 -0.628012 6.92157 0
M  V30 2597 H 248.829 -0.711019 4.62668 0
M  V30 2598 H 249.002 -0.733804 6.43832 0
M  V30 2599 N 242.408 -1.52605 -0.393616 0
M  V30 2600 C 243.824 -1.41753 -0.733357 0
M  V30 2601 C 244.024 -0.534293 -1.94287 0
M  V30 2602 O 243.08 -0.0059787 -2.52499 0
M  V30 2603 C 244.393 -2.84531 -0.972772 0
M  V30 2604 C 245.941 -2.93978 -1.07453 0
M  V30 2605 C 246.416 -4.37756 -1.3466 0
M  V30 2606 N 247.907 -4.4106 -1.41492 0
M  V30 2607 C 248.642 -5.49387 -1.642 0
M  V30 2608 N 248.138 -6.67806 -1.8441 0
M  V30 2609 N 249.931 -5.36923 -1.66342 0
M  V30 2610 H 242.082 -2.08555 0.402328 0
M  V30 2611 H 244.345 -0.940654 0.117789 0
M  V30 2612 H 244.051 -3.51353 -0.156204 0
M  V30 2613 H 243.925 -3.26508 -1.88871 0
M  V30 2614 H 246.312 -2.27326 -1.88167 0
M  V30 2615 H 246.393 -2.55435 -0.136605 0
M  V30 2616 H 246.037 -5.04972 -0.544581 0
M  V30 2617 H 245.967 -4.73848 -2.2973 0
M  V30 2618 H 248.458 -3.55705 -1.27601 0
M  V30 2619 H 248.771 -7.46141 -2.01231 0
M  V30 2620 H 247.116 -6.70843 -1.81644 0
M  V30 2621 H 250.307 -4.43381 -1.50102 0
M  V30 2622 H 250.48 -6.21416 -1.837 0
M  V30 2623 N 243.887 0.651787 -1.4349 0
M  V30 2624 C 245.303 0.96762 -1.26922 0
M  V30 2625 C 245.503 2.00602 -0.189982 0
M  V30 2626 O 244.559 2.48793 0.431107 0
M  V30 2627 C 245.872 1.45052 -2.63401 0
M  V30 2628 C 247.42 1.5671 -2.70945 0
M  V30 2629 C 247.895 2.0839 -4.07845 0
M  V30 2630 N 249.386 2.1569 -4.09917 0
M  V30 2631 C 250.121 2.56804 -5.12679 0
M  V30 2632 N 249.617 2.97203 -6.25813 0
M  V30 2633 N 251.41 2.56756 -5.00033 0
M  V30 2634 H 243.561 -0.0353158 -2.12371 0
M  V30 2635 H 245.824 0.0467858 -0.946845 0
M  V30 2636 H 245.53 0.761926 -3.43348 0
M  V30 2637 H 245.404 2.42529 -2.88894 0
M  V30 2638 H 247.791 2.2467 -1.9133 0
M  V30 2639 H 247.872 0.57662 -2.49216 0
M  V30 2640 H 247.516 1.41031 -4.87927 0
M  V30 2641 H 247.446 3.08271 -4.26938 0
M  V30 2642 H 249.937 1.87237 -3.28254 0
M  V30 2643 H 250.25 3.27328 -7.00055 0
M  V30 2644 H 248.595 2.95004 -6.29283 0
M  V30 2645 H 251.786 2.24572 -4.10713 0
M  V30 2646 H 251.959 2.88475 -5.80247 0
M  V30 2647 N 245.365 1.30045 0.890287 0
M  V30 2648 C 246.59 1.21598 1.68014 0
M  V30 2649 C 247.015 -0.218678 1.86825 0
M  V30 2650 O 246.373 -1.15756 1.39536 0
M  V30 2651 C 246.421 1.94434 3.03691 0
M  V30 2652 O 245.525 1.2678 3.92429 0
M  V30 2653 H 244.866 0.420856 0.513592 0
M  V30 2654 H 247.396 1.71775 1.11151 0
M  V30 2655 H 247.406 2.03251 3.5377 0
M  V30 2656 H 246.081 2.98777 2.89318 0
M  V30 2657 H 244.658 1.26282 3.50866 0
M  V30 2658 N 246.843 -1.10192 1.12674 0
M  V30 2659 C 248.259 -1.34235 0.863317 0
M  V30 2660 C 248.459 -1.95062 -0.505277 0
M  V30 2661 O 247.515 -2.19192 -1.25345 0
M  V30 2662 C 248.828 -2.2616 1.98172 0
M  V30 2663 C 250.376 -2.3969 2.0129 0
M  V30 2664 C 250.851 -3.34946 3.1237 0
M  V30 2665 N 252.342 -3.42515 3.11829 0
M  V30 2666 C 253.077 -4.16199 3.94419 0
M  V30 2667 N 252.573 -4.92747 4.87004 0
M  V30 2668 N 254.366 -4.11843 3.82547 0
M  V30 2669 H 246.517 -0.690798 2.00853 0
M  V30 2670 H 248.78 -0.366774 0.874174 0
M  V30 2671 H 248.486 -1.8868 2.96804 0
M  V30 2672 H 248.36 -3.26488 1.88906 0
M  V30 2673 H 250.747 -2.76438 1.03276 0
M  V30 2674 H 250.828 -1.39169 2.14629 0
M  V30 2675 H 250.472 -2.98923 4.10619 0
M  V30 2676 H 250.402 -4.35353 2.96269 0
M  V30 2677 H 252.893 -2.87926 2.44759 0
M  V30 2678 H 253.206 -5.46376 5.46528 0
M  V30 2679 H 251.551 -4.91862 4.91016 0
M  V30 2680 H 254.742 -3.51136 3.0955 0
M  V30 2681 H 254.915 -4.69007 4.47142 0
M  V30 2682 N 248.321 -0.919034 -1.28029 0
M  V30 2683 C 249.284 -0.416182 -2.2539 0
M  V30 2684 C 250.284 0.460438 -1.54067 0
M  V30 2685 O 251.474 0.262744 -1.72207 0
M  V30 2686 C 248.606 0.402707 -3.38513 0
M  V30 2687 H 249.799 -1.27629 -2.71387 0
M  V30 2688 H 247.352 -0.698919 -1.39803 0
M  V30 2689 H 248.087 1.282 -2.97885 0
M  V30 2690 H 247.872 -0.225698 -3.9145 0
M  V30 2691 H 249.362 0.745191 -4.10897 0
M  V30 2692 N 249.799 1.42003 -0.683588 0
M  V30 2693 C 251.045 2.01712 -0.209825 0
M  V30 2694 C 251.378 1.53968 1.18353 0
M  V30 2695 O 250.653 0.745661 1.79639 0
M  V30 2696 C 250.936 3.59202 -0.254197 0
M  V30 2697 C 250.789 4.17102 -1.68363 0
M  V30 2698 C 252.108 4.38344 0.392709 0
M  V30 2699 H 249.227 0.732891 -0.0777189 0
M  V30 2700 H 251.869 1.68909 -0.87004 0
M  V30 2701 H 250.019 3.87278 0.307954 0
M  V30 2702 H 251.691 3.99946 -2.29871 0
M  V30 2703 H 249.934 3.72597 -2.22157 0
M  V30 2704 H 250.605 5.26249 -1.6663 0
M  V30 2705 H 253.081 4.16011 -0.0859162 0
M  V30 2706 H 251.957 5.47901 0.331063 0
M  V30 2707 H 252.218 4.16887 1.47164 0
M  V30 2708 N 251.277 0.427512 1.51691 0
M  V30 2709 C 252.207 -0.3796 2.30394 0
M  V30 2710 C 253.188 -1.02982 1.35384 0
M  V30 2711 O 254.373 -1.03534 1.643 0
M  V30 2712 C 251.503 -1.48649 3.1388 0
M  V30 2713 C 250.457 -0.960294 4.17088 0
M  V30 2714 C 249.783 -2.16219 4.89033 0
M  V30 2715 C 251.083 -0.00153679 5.223 0
M  V30 2716 H 252.777 0.277164 2.98114 0
M  V30 2717 H 250.323 0.134739 1.43368 0
M  V30 2718 H 252.276 -2.05826 3.67714 0
M  V30 2719 H 251 -2.1714 2.43962 0
M  V30 2720 H 249.659 -0.410806 3.64291 0
M  V30 2721 H 249.307 -2.83307 4.15628 0
M  V30 2722 H 249.007 -1.81654 5.58816 0
M  V30 2723 H 250.531 -2.73968 5.45687 0
M  V30 2724 H 251.945 -0.482687 5.71264 0
M  V30 2725 H 250.342 0.256199 5.99553 0
M  V30 2726 H 251.412 0.938174 4.75738 0
M  V30 2727 N 252.755 -1.56801 0.158532 0
M  V30 2728 C 253.985 -2.00568 -0.495583 0
M  V30 2729 C 254.393 -1.03774 -1.58201 0
M  V30 2730 O 253.736 -0.0285797 -1.83678 0
M  V30 2731 C 253.798 -3.40768 -1.14532 0
M  V30 2732 C 253.462 -4.56553 -0.202101 0
M  V30 2733 C 254.459 -5.16714 0.574675 0
M  V30 2734 C 252.144 -5.02197 -0.101648 0
M  V30 2735 C 254.138 -6.20939 1.43924 0
M  V30 2736 C 251.825 -6.06274 0.766508 0
M  V30 2737 C 252.823 -6.65515 1.53555 0
M  V30 2738 O 252.511 -7.67575 2.38922 0
M  V30 2739 H 252.243 -0.662893 -0.13247 0
M  V30 2740 H 254.797 -2.03829 0.253559 0
M  V30 2741 H 253.027 -3.34381 -1.94233 0
M  V30 2742 H 254.716 -3.6857 -1.70033 0
M  V30 2743 H 255.482 -4.82341 0.507167 0
M  V30 2744 H 251.361 -4.55807 -0.689994 0
M  V30 2745 H 254.905 -6.67107 2.03996 0
M  V30 2746 H 250.802 -6.40073 0.835266 0
M  V30 2747 H 251.57 -7.84844 2.32296 0
M  V30 2748 N 254.233 0.115231 -1.57178 0
M  V30 2749 C 255.183 1.14707 -1.97044 0
M  V30 2750 C 256.167 1.36866 -0.845957 0
M  V30 2751 O 257.359 1.37895 -1.10968 0
M  V30 2752 C 254.488 2.47266 -2.38148 0
M  V30 2753 C 253.574 2.28566 -3.57237 0
M  V30 2754 N 253.965 1.79685 -4.72807 0
M  V30 2755 C 252.263 2.59208 -3.62943 0
M  V30 2756 C 252.964 1.74781 -5.54821 0
M  V30 2757 N 251.94 2.19264 -4.97417 0
M  V30 2758 H 255.742 0.761754 -2.83857 0
M  V30 2759 H 253.256 0.322928 -1.59157 0
M  V30 2760 H 255.253 3.219 -2.64927 0
M  V30 2761 H 253.913 2.86552 -1.52702 0
M  V30 2762 H 254.924 1.49177 -4.9595 0
M  V30 2763 H 251.601 3.02154 -2.88113 0
M  V30 2764 H 252.991 1.38212 -6.57531 0
M  V30 2765 N 255.711 1.52812 0.385517 0
M  V30 2766 C 256.96 1.67249 1.12741 0
M  V30 2767 C 257.273 0.4205 1.91027 0
M  V30 2768 O 258.479 0.445064 2.67827 0
M  V30 2769 C 256.935 2.95583 2.05326 0
M  V30 2770 C 256.543 4.27974 1.32447 0
M  V30 2771 C 258.287 3.19386 2.7963 0
M  V30 2772 C 256.194 5.47412 2.23818 0
M  V30 2773 H 255.124 0.6231 0.424573 0
M  V30 2774 H 257.775 1.79309 0.389924 0
M  V30 2775 H 256.157 2.77277 2.82725 0
M  V30 2776 H 257.331 4.56844 0.602495 0
M  V30 2777 H 255.646 4.10459 0.700885 0
M  V30 2778 H 258.243 4.05801 3.48181 0
M  V30 2779 H 258.586 2.34604 3.43899 0
M  V30 2780 H 259.119 3.38274 2.09322 0
M  V30 2781 H 255.858 6.34612 1.64157 0
M  V30 2782 H 255.378 5.22849 2.93921 0
M  V30 2783 H 257.057 5.81423 2.83824 0
M  V30 2784 N 257.189 -0.644168 1.43834 0
M  V30 2785 C 258.414 -1.43642 1.49605 0
M  V30 2786 C 258.839 -1.8773 0.117913 0
M  V30 2787 O 258.197 -1.57938 -0.890239 0
M  V30 2788 C 258.245 -2.6416 2.45463 0
M  V30 2789 O 257.349 -3.63538 1.94714 0
M  V30 2790 H 256.69 -0.430329 0.50568 0
M  V30 2791 H 259.22 -0.787448 1.8884 0
M  V30 2792 H 259.23 -3.11864 2.63068 0
M  V30 2793 H 257.905 -2.31414 3.45572 0
M  V30 2794 H 256.482 -3.2273 1.86814 0
M  V30 2795 N 258.668 -1.30515 -0.883378 0
M  V30 2796 C 259.916 -1.19194 -1.63209 0
M  V30 2797 C 260.237 0.253205 -1.93349 0
M  V30 2798 O 259.507 1.17025 -1.57105 0
M  V30 2799 H 258.087 -0.438148 -0.605009 0
M  V30 2800 H 260.749 -1.63663 -1.05832 0
M  V30 2801 H 259.845 -1.75396 -2.58153 0
M  V30 2802 N 260.146 1.09593 -1.13257 0
M  V30 2803 C 261.096 2.14345 -0.777179 0
M  V30 2804 C 262.08 1.59277 0.227966 0
M  V30 2805 O 263.272 1.76971 0.0321413 0
M  V30 2806 C 260.401 3.42439 -0.242991 0
M  V30 2807 C 259.487 4.04419 -1.27694 0
M  V30 2808 N 259.878 4.40979 -2.47732 0
M  V30 2809 C 258.176 4.31596 -1.12432 0
M  V30 2810 C 258.877 4.89784 -3.13826 0
M  V30 2811 N 257.853 4.87133 -2.41252 0
M  V30 2812 H 261.655 2.40415 -1.69049 0
M  V30 2813 H 259.169 1.26803 -1.01463 0
M  V30 2814 H 261.166 4.16889 0.0298496 0
M  V30 2815 H 259.826 3.17824 0.66467 0
M  V30 2816 H 260.837 4.32396 -2.85051 0
M  V30 2817 H 257.514 4.16595 -0.274684 0
M  V30 2818 H 258.904 5.2755 -4.16102 0
M  V30 2819 N 261.624 0.925811 1.2754 0
M  V30 2820 C 262.554 0.440748 2.29303 0
M  V30 2821 C 263.535 -0.497971 1.62648 0
M  V30 2822 O 264.72 -0.403126 1.8997 0
M  V30 2823 C 261.85 -0.309048 3.45922 0
M  V30 2824 C 260.804 0.54166 4.24559 0
M  V30 2825 C 260.13 -0.337191 5.33636 0
M  V30 2826 C 261.43 1.80516 4.90114 0
M  V30 2827 H 263.124 1.29121 2.70126 0
M  V30 2828 H 260.67 0.622323 1.29858 0
M  V30 2829 H 262.623 -0.659315 4.1621 0
M  V30 2830 H 261.347 -1.19352 3.04011 0
M  V30 2831 H 260.006 0.874609 3.56014 0
M  V30 2832 H 259.654 -1.22056 4.87966 0
M  V30 2833 H 259.354 0.228497 5.87156 0
M  V30 2834 H 260.878 -0.683072 6.06767 0
M  V30 2835 H 262.292 1.52307 5.52698 0
M  V30 2836 H 260.689 2.3142 5.53683 0
M  V30 2837 H 261.759 2.52581 4.13921 0
M  V30 2838 N 263.102 -1.41638 0.69111 0
M  V30 2839 C 264.034 -2.29194 -0.0161523 0
M  V30 2840 C 265.047 -1.44549 -0.748955 0
M  V30 2841 O 266.236 -1.681 -0.6004 0
M  V30 2842 C 263.336 -3.22325 -1.0469 0
M  V30 2843 C 262.509 -4.35706 -0.384621 0
M  V30 2844 C 261.568 -5.09443 -1.31737 0
M  V30 2845 O 260.594 -5.63386 -0.811451 0
M  V30 2846 N 261.796 -5.16487 -2.64993 0
M  V30 2847 H 264.561 -2.90534 0.735523 0
M  V30 2848 H 262.122 -1.52742 0.53679 0
M  V30 2849 H 264.114 -3.68522 -1.67252 0
M  V30 2850 H 262.684 -2.62323 -1.70015 0
M  V30 2851 H 261.904 -3.91948 0.420804 0
M  V30 2852 H 263.192 -5.08743 0.0760765 0
M  V30 2853 H 262.59 -4.741 -3.08619 0
M  V30 2854 H 261.147 -5.66276 -3.22761 0
M  V30 2855 N 264.58 -0.43555 -1.51462 0
M  V30 2856 C 265.996 -0.0877501 -1.59359 0
M  V30 2857 C 266.196 1.4027 -1.4466 0
M  V30 2858 O 265.252 2.17243 -1.28693 0
M  V30 2859 C 266.565 -0.606264 -2.94525 0
M  V30 2860 C 268.113 -0.566548 -3.0783 0
M  V30 2861 C 268.588 -1.06201 -4.45517 0
M  V30 2862 N 270.079 -1.01992 -4.51832 0
M  V30 2863 C 270.814 -1.37417 -5.5669 0
M  V30 2864 N 270.31 -1.80119 -6.68976 0
M  V30 2865 N 272.103 -1.29245 -5.47039 0
M  V30 2866 H 264.254 -1.40533 -1.59261 0
M  V30 2867 H 266.517 -0.578992 -0.750648 0
M  V30 2868 H 266.223 -1.64901 -3.10645 0
M  V30 2869 H 266.097 -0.0302097 -3.77188 0
M  V30 2870 H 268.484 0.467208 -2.91378 0
M  V30 2871 H 268.565 -1.17898 -2.2701 0
M  V30 2872 H 268.209 -2.09422 -4.62715 0
M  V30 2873 H 268.139 -0.426127 -5.24873 0
M  V30 2874 H 270.63 -0.706308 -3.71241 0
M  V30 2875 H 270.943 -2.05392 -7.45006 0
M  V30 2876 H 269.288 -1.84044 -6.70189 0
M  V30 2877 H 272.479 -0.957522 -4.58202 0
M  V30 2878 H 272.652 -1.57182 -6.28648 0
M  V30 2879 N 266.058 1.56714 -0.166846 0
M  V30 2880 C 267.474 1.58473 0.189372 0
M  V30 2881 C 267.674 1.18201 1.63189 0
M  V30 2882 O 266.73 0.891528 2.36237 0
M  V30 2883 C 268.043 3.00573 -0.0873872 0
M  V30 2884 C 269.591 3.1299 -0.0252443 0
M  V30 2885 C 270.066 4.57174 -0.274934 0
M  V30 2886 N 271.557 4.62665 -0.222553 0
M  V30 2887 C 272.292 5.72072 -0.389985 0
M  V30 2888 N 271.788 6.90054 -0.616229 0
M  V30 2889 N 273.581 5.61153 -0.326202 0
M  V30 2890 H 265.732 1.8118 -1.10849 0
M  V30 2891 H 267.995 0.839525 -0.440342 0
M  V30 2892 H 267.701 3.34497 -1.0865 0
M  V30 2893 H 267.575 3.72019 0.623037 0
M  V30 2894 H 269.962 2.78895 0.96444 0
M  V30 2895 H 270.043 2.43989 -0.768309 0
M  V30 2896 H 269.687 4.91976 -1.26181 0
M  V30 2897 H 269.617 5.24328 0.48869 0
M  V30 2898 H 272.108 3.77863 -0.0531512 0
M  V30 2899 H 272.421 7.69311 -0.733559 0
M  V30 2900 H 270.766 6.91927 -0.652791 0
M  V30 2901 H 273.957 4.67859 -0.150072 0
M  V30 2902 H 274.13 6.46364 -0.460116 0
M  V30 2903 N 267.536 -0.106894 1.57237 0
M  V30 2904 C 268.446 -1.14911 2.0453 0
M  V30 2905 C 269.462 -1.44592 0.96795 0
M  V30 2906 O 270.638 -1.55468 1.2803 0
M  V30 2907 C 267.703 -2.45272 2.45036 0
M  V30 2908 C 266.764 -2.22879 3.66911 0
M  V30 2909 C 265.997 -3.47024 4.05475 0
M  V30 2910 O 266.22 -4.54804 3.44252 0
M  V30 2911 O 265.154 -3.3731 4.98504 0
M  V30 2912 H 268.98 -0.777461 2.9358 0
M  V30 2913 H 266.565 -0.318563 1.45964 0
M  V30 2914 H 268.447 -3.22055 2.71769 0
M  V30 2915 H 267.122 -2.81886 1.59129 0
M  V30 2916 H 266.029 -1.43915 3.45311 0
M  V30 2917 H 267.362 -1.91163 4.53561 0
M  V30 2918 N 269.014 -1.53014 -0.377408 0
M  V30 2919 C 269.961 -1.78616 -1.46168 0
M  V30 2920 C 270.931 -0.629917 -1.53692 0
M  V30 2921 O 272.116 -0.870861 -1.69766 0
M  V30 2922 C 269.256 -1.97123 -2.8326 0
M  V30 2923 C 268.369 -3.24831 -2.84796 0
M  V30 2924 C 267.504 -3.33591 -4.13389 0
M  V30 2925 C 266.543 -4.55377 -4.09021 0
M  V30 2926 N 265.68 -4.61355 -5.29241 0
M  V30 2927 H 270.52 -2.71142 -1.23637 0
M  V30 2928 H 268.057 -1.34326 -0.599577 0
M  V30 2929 H 270.015 -2.05839 -3.62886 0
M  V30 2930 H 268.645 -1.07946 -3.04216 0
M  V30 2931 H 267.697 -3.25128 -1.97474 0
M  V30 2932 H 269.009 -4.14523 -2.77439 0
M  V30 2933 H 268.163 -3.41554 -5.01424 0
M  V30 2934 H 266.902 -2.41894 -4.23484 0
M  V30 2935 H 265.907 -4.47527 -3.19373 0
M  V30 2936 H 267.132 -5.48402 -4.00539 0
M  V30 2937 H 265.078 -3.72554 -5.39944 0
M  V30 2938 H 264.995 -5.44935 -5.24006 0
M  V30 2939 H 266.263 -4.73586 -6.19141 0
M  V30 2940 N 270.492 0.636531 -1.44174 0
M  V30 2941 C 271.44 1.76995 -1.50915 0
M  V30 2942 C 272.434 1.65053 -0.381295 0
M  V30 2943 O 273.64 1.71197 -0.55601 0
M  V30 2944 H 270.015 0.584247 -0.473455 0
M  V30 2945 H 271.986 1.68432 -2.4632 0
M  V30 2946 C 270.735 3.15314 -1.46534 0
M  V30 2947 H 270.058 3.25149 -2.32633 0
M  V30 2948 H 271.498 3.9453 -1.55312 0
M  V30 2949 C 269.957 3.3639 -0.185305 0
M  V30 2950 O 270.487 3.94699 0.746688 0
M  V30 2951 N 268.693 2.9046 -0.0901606 0
M  V30 2952 H 268.24 2.43193 -0.849416 0
M  V30 2953 H 268.198 3.04937 0.765553 0
M  V30 2954 N 271.97 1.30982 0.876444 0
M  V30 2955 C 272.917 1.18085 1.98304 0
M  V30 2956 C 273.887 0.0682263 1.6596 0
M  V30 2957 O 275.072 0.239937 1.89285 0
M  V30 2958 C 272.212 0.887475 3.33493 0
M  V30 2959 C 271.325 2.08281 3.78475 0
M  V30 2960 C 270.46 1.72678 5.0235 0
M  V30 2961 C 269.499 2.88657 5.39762 0
M  V30 2962 N 268.636 2.53292 6.54819 0
M  V30 2963 H 273.476 2.1275 2.08666 0
M  V30 2964 H 271.013 1.05839 1.02159 0
M  V30 2965 H 272.971 0.697961 4.1132 0
M  V30 2966 H 271.601 -0.022315 3.22792 0
M  V30 2967 H 270.653 2.3833 2.96484 0
M  V30 2968 H 271.965 2.95108 4.02135 0
M  V30 2969 H 271.119 1.50151 5.87826 0
M  V30 2970 H 269.858 0.830327 4.8058 0
M  V30 2971 H 268.863 3.1184 4.52809 0
M  V30 2972 H 270.088 3.79002 5.63502 0
M  V30 2973 H 268.034 1.66163 6.34607 0
M  V30 2974 H 267.951 3.3365 6.7839 0
M  V30 2975 H 269.219 2.34143 7.43503 0
M  V30 2976 N 273.449 -1.08991 1.13837 0
M  V30 2977 C 274.379 -2.17771 0.842507 0
M  V30 2978 C 275.36 -1.6892 -0.20001 0
M  V30 2979 O 276.545 -1.94113 -0.0579731 0
M  V30 2980 C 273.675 -3.4589 0.312644 0
M  V30 2981 C 272.629 -4.08099 1.28992 0
M  V30 2982 C 271.955 -5.31098 0.619623 0
M  V30 2983 C 273.255 -4.50077 2.65005 0
M  V30 2984 H 274.949 -2.42777 1.75213 0
M  V30 2985 H 272.495 -1.16682 0.843875 0
M  V30 2986 H 274.448 -4.21297 0.0933043 0
M  V30 2987 H 273.172 -3.20419 -0.632382 0
M  V30 2988 H 271.831 -3.34717 1.49533 0
M  V30 2989 H 271.479 -5.0191 -0.33102 0
M  V30 2990 H 271.179 -5.73674 1.27167 0
M  V30 2991 H 272.703 -6.09224 0.409669 0
M  V30 2992 H 274.117 -5.16688 2.48407 0
M  V30 2993 H 272.514 -5.03553 3.26427 0
M  V30 2994 H 273.584 -3.62257 3.22332 0
M  V30 2995 N 274.927 -0.932562 -1.27047 0
M  V30 2996 C 275.874 -0.434072 -2.26681 0
M  V30 2997 C 276.844 0.501639 -1.58344 0
M  V30 2998 O 278.029 0.419734 -1.86126 0
M  V30 2999 C 275.169 0.30261 -3.43771 0
M  V30 3000 C 274.282 -0.667774 -4.26808 0
M  V30 3001 C 273.417 0.0892393 -5.31125 0
M  V30 3002 C 272.456 -0.873532 -6.05835 0
M  V30 3003 N 271.593 -0.148832 -7.01942 0
M  V30 3004 H 276.433 -1.28868 -2.68695 0
M  V30 3005 H 273.97 -0.646713 -1.32121 0
M  V30 3006 H 275.928 0.746092 -4.10474 0
M  V30 3007 H 274.558 1.12142 -3.02695 0
M  V30 3008 H 273.61 -1.22978 -3.59973 0
M  V30 3009 H 274.922 -1.40337 -4.78651 0
M  V30 3010 H 274.076 0.592409 -6.03801 0
M  V30 3011 H 272.815 0.85777 -4.80097 0
M  V30 3012 H 271.82 -1.38791 -5.31994 0
M  V30 3013 H 273.045 -1.64193 -6.58952 0
M  V30 3014 H 270.991 0.601365 -6.53238 0
M  V30 3015 H 270.908 -0.82391 -7.51497 0
M  V30 3016 H 272.176 0.333527 -7.78786 0
M  V30 3017 N 276.405 1.4127 -0.698611 0
M  V30 3018 C 277.654 2.00408 -0.227949 0
M  V30 3019 C 277.967 1.55981 1.18023 0
M  V30 3020 O 279.173 2.07699 1.74852 0
M  V30 3021 C 277.629 3.58129 -0.356636 0
M  V30 3022 C 277.237 4.11536 -1.77037 0
M  V30 3023 C 278.981 4.24466 0.0540969 0
M  V30 3024 C 276.888 5.61701 -1.85055 0
M  V30 3025 H 275.818 0.749586 -0.0814657 0
M  V30 3026 H 278.469 1.61713 -0.867249 0
M  V30 3027 H 276.851 3.94442 0.350965 0
M  V30 3028 H 278.025 3.86636 -2.50698 0
M  V30 3029 H 276.34 3.57736 -2.13105 0
M  V30 3030 H 278.937 5.34698 0.0146723 0
M  V30 3031 H 279.28 4.01687 1.09332 0
M  V30 3032 H 279.813 3.93198 -0.603337 0
M  V30 3033 H 276.552 5.89312 -2.8704 0
M  V30 3034 H 276.072 5.88519 -1.15783 0
M  V30 3035 H 277.751 6.26524 -1.61484 0
M  V30 3036 N 277.883 0.443576 1.51229 0
M  V30 3037 C 278.831 -0.37904 2.29491 0
M  V30 3038 C 279.825 -1.0153 1.35603 0
M  V30 3039 O 281.031 -0.94955 1.52917 0
M  V30 3040 H 277.406 -0.141053 0.738653 0
M  V30 3041 H 279.377 0.301799 2.9687 0
M  V30 3042 C 278.126 -1.46426 3.15364 0
M  V30 3043 H 277.449 -0.984037 3.87501 0
M  V30 3044 H 278.889 -2.01297 3.7317 0
M  V30 3045 C 277.348 -2.45099 2.31146 0
M  V30 3046 O 277.878 -3.49773 1.9754 0
M  V30 3047 N 276.084 -2.16139 1.94249 0
M  V30 3048 H 275.631 -1.31044 2.21777 0
M  V30 3049 H 275.589 -2.82398 1.38198 0
M  V30 3050 N 279.361 -1.56624 0.175154 0
M  V30 3051 C 280.309 -2.19468 -0.770495 0
M  V30 3052 C 281.303 -1.15985 -1.23466 0
M  V30 3053 O 282.509 -1.34176 -1.19987 0
M  V30 3054 H 278.884 -0.703095 -0.266761 0
M  V30 3055 H 280.855 -2.97613 -0.216542 0
M  V30 3056 C 279.604 -2.85264 -1.98796 0
M  V30 3057 H 278.927 -3.64623 -1.63983 0
M  V30 3058 H 280.367 -3.327 -2.62843 0
M  V30 3059 C 278.826 -1.85239 -2.81404 0
M  V30 3060 O 279.356 -1.34024 -3.78682 0
M  V30 3061 N 277.562 -1.53911 -2.46495 0
M  V30 3062 H 277.109 -1.95751 -1.67449 0
M  V30 3063 H 277.067 -0.872382 -3.02054 0
M  V30 3064 N 280.839 0.0985539 -1.57292 0
M  V30 3065 C 281.787 1.1387 -2.02821 0
M  V30 3066 C 282.781 1.41676 -0.928666 0
M  V30 3067 O 283.987 1.41398 -1.11385 0
M  V30 3068 H 280.362 0.384419 -0.646317 0
M  V30 3069 H 282.333 0.728347 -2.89375 0
M  V30 3070 C 281.082 2.45166 -2.46554 0
M  V30 3071 H 280.405 2.24613 -3.3074 0
M  V30 3072 H 281.845 3.16456 -2.8219 0
M  V30 3073 C 280.304 3.09216 -1.33742 0
M  V30 3074 O 280.834 3.96163 -0.66464 0
M  V30 3075 N 279.04 2.69413 -1.08928 0
M  V30 3076 H 278.587 1.98801 -1.63817 0
M  V30 3077 H 278.545 3.12594 -0.336458 0
M  V30 3078 N 282.317 1.53212 0.369288 0
M  V30 3079 C 283.563 1.69466 1.11397 0
M  V30 3080 C 283.896 0.443257 1.89074 0
M  V30 3081 O 283.171 -0.559386 1.86282 0
M  V30 3082 C 283.454 2.9422 2.07621 0
M  V30 3083 C 283.307 4.29508 1.33577 0
M  V30 3084 C 284.626 3.14565 3.07794 0
M  V30 3085 H 281.745 0.616667 0.403597 0
M  V30 3086 H 284.387 1.85845 0.395179 0
M  V30 3087 H 282.537 2.80387 2.68916 0
M  V30 3088 H 284.209 4.55147 0.750955 0
M  V30 3089 H 282.452 4.29088 0.637618 0
M  V30 3090 H 283.123 5.12926 2.03989 0
M  V30 3091 H 285.599 3.2756 2.56601 0
M  V30 3092 H 284.475 4.03297 3.72348 0
M  V30 3093 H 284.736 2.29675 3.77759 0
M  V30 3094 N 283.795 -0.628877 1.44509 0
M  V30 3095 C 285.042 -1.38839 1.47411 0
M  V30 3096 C 285.37 -1.94202 0.10757 0
M  V30 3097 O 284.625 -1.74243 -0.890947 0
M  V30 3098 C 284.924 -2.56995 2.48371 0
M  V30 3099 C 284.59 -2.19908 3.93639 0
M  V30 3100 C 283.252 -2.09506 4.33198 0
M  V30 3101 C 285.604 -1.9064 4.85083 0
M  V30 3102 C 282.932 -1.68028 5.62124 0
M  V30 3103 C 285.284 -1.50655 6.14399 0
M  V30 3104 C 283.948 -1.38796 6.5291 0
M  V30 3105 H 283.218 -0.508048 0.539414 0
M  V30 3106 H 285.865 -0.712913 1.77735 0
M  V30 3107 H 284.17 -3.29786 2.11538 0
M  V30 3108 H 285.867 -3.15223 2.47861 0
M  V30 3109 H 282.457 -2.28922 3.62343 0
M  V30 3110 H 286.641 -1.97585 4.55273 0
M  V30 3111 H 281.897 -1.57452 5.90778 0
M  V30 3112 H 286.071 -1.27048 6.84713 0
M  V30 3113 H 283.698 -1.06429 7.52713 0
M  V30 3114 N 285.273 -1.31445 -0.869486 0
M  V30 3115 C 286.519 -1.21337 -1.62496 0
M  V30 3116 C 286.852 0.227872 -1.92858 0
M  V30 3117 O 286.127 1.16094 -1.56053 0
M  V30 3118 C 286.41 -2.05814 -2.95487 0
M  V30 3119 C 286.263 -3.5824 -2.72 0
M  V30 3120 C 287.582 -1.9079 -3.96594 0
M  V30 3121 H 284.701 -0.442135 -0.589649 0
M  V30 3122 H 287.343 -1.6124 -1.00507 0
M  V30 3123 H 285.493 -1.71913 -3.48394 0
M  V30 3124 H 287.165 -4.0228 -2.25762 0
M  V30 3125 H 285.408 -3.81647 -2.06224 0
M  V30 3126 H 286.079 -4.12657 -3.66631 0
M  V30 3127 H 288.555 -2.20459 -3.52898 0
M  V30 3128 H 287.431 -2.52199 -4.87531 0
M  V30 3129 H 287.692 -0.871341 -4.33428 0
M  V30 3130 N 286.751 1.08385 -1.14413 0
M  V30 3131 C 288.028 1.77429 -0.823297 0
M  V30 3132 C 288.408 1.9974 0.683163 0
M  V30 3133 O 287.756 1.60739 1.62405 0
M  V30 3134 C 287.966 3.09004 -1.62227 0
M  V30 3135 C 289.314 3.83532 -1.82177 0
M  V30 3136 O 290.338 3.18786 -1.58915 0
M  V30 3137 O 289.197 4.99792 -2.21067 0
M  V30 3138 H 286.291 0.769999 -0.301712 0
M  V30 3139 H 288.837 1.14846 -1.24934 0
M  V30 3140 H 287.609 2.88316 -2.64555 0
M  V30 3141 H 287.232 3.79316 -1.19187 0
M  V30 3142 N 288.23 0.939286 1.26551 0
M  V30 3143 C 289.177 0.446088 2.26448 0
M  V30 3144 C 290.147 -0.493234 1.58608 0
M  V30 3145 O 291.332 -0.409857 1.86346 0
M  V30 3146 C 288.472 -0.284375 3.43926 0
M  V30 3147 C 287.585 0.690399 4.26448 0
M  V30 3148 C 286.72 -0.0610712 5.31165 0
M  V30 3149 C 285.759 0.905649 6.05363 0
M  V30 3150 N 284.896 0.186055 7.01853 0
M  V30 3151 H 289.736 1.30291 2.68008 0
M  V30 3152 H 287.273 0.65371 1.31776 0
M  V30 3153 H 289.231 -0.724313 4.10864 0
M  V30 3154 H 287.861 -1.10535 3.03285 0
M  V30 3155 H 286.913 1.24885 3.59316 0
M  V30 3156 H 288.225 1.42873 4.779 0
M  V30 3157 H 287.379 -0.56038 6.04106 0
M  V30 3158 H 286.118 -0.832297 4.80546 0
M  V30 3159 H 285.123 1.4161 5.3125 0
M  V30 3160 H 286.348 1.67685 6.58072 0
M  V30 3161 H 284.294 -0.566714 6.53548 0
M  V30 3162 H 284.211 0.863752 7.51049 0
M  V30 3163 H 285.479 -0.292221 7.78952 0
M  V30 3164 N 289.708 -1.40897 0.706093 0
M  V30 3165 C 291.119 -1.84023 0.315052 0
M  V30 3166 C 291.47 -1.5906 -1.14866 0
M  V30 3167 O 290.595 -1.06651 -1.88293 0
M  V30 3168 C 291.19 -3.34055 0.565038 0
M  V30 3169 C 289.749 -3.7571 0.227806 0
M  V30 3170 C 288.896 -2.64204 0.842122 0
M  V30 3171 H 291.847 -1.303 0.905963 0
M  V30 3172 H 291.868 -3.80107 -0.172843 0
M  V30 3173 H 291.38 -3.52192 1.63042 0
M  V30 3174 H 289.481 -3.63172 -0.832895 0
M  V30 3175 H 289.594 -4.74103 0.690174 0
M  V30 3176 H 287.958 -2.53255 0.270893 0
M  V30 3177 H 288.741 -2.85155 1.91158 0
M  V30 3178 N 291.186 -0.45159 -1.50991 0
M  V30 3179 C 292.149 0.341117 -2.26647 0
M  V30 3180 C 293.149 0.937422 -1.30649 0
M  V30 3181 O 294.339 0.809644 -1.54241 0
M  V30 3182 C 291.471 1.48398 -3.06905 0
M  V30 3183 H 292.664 -0.322117 -2.98165 0
M  V30 3184 H 290.217 -0.205122 -1.54948 0
M  V30 3185 H 290.952 2.18284 -2.39838 0
M  V30 3186 H 290.737 1.06241 -3.77432 0
M  V30 3187 H 292.227 2.04367 -3.64176 0
M  V30 3188 N 292.664 1.56529 -0.183458 0
M  V30 3189 C 293.911 1.97244 0.458357 0
M  V30 3190 C 294.239 1.06992 1.62428 0
M  V30 3191 O 293.494 0.106542 1.9541 0
M  V30 3192 C 293.793 3.43939 0.971637 0
M  V30 3193 C 293.459 4.5083 -0.0796784 0
M  V30 3194 C 292.121 4.79786 -0.368584 0
M  V30 3195 C 294.473 5.15138 -0.792638 0
M  V30 3196 C 291.801 5.70345 -1.37563 0
M  V30 3197 C 294.153 6.06784 -1.78875 0
M  V30 3198 C 292.817 6.34102 -2.08497 0
M  V30 3199 H 292.087 0.721768 0.167725 0
M  V30 3200 H 294.734 1.89472 -0.277976 0
M  V30 3201 H 293.039 3.48724 1.78602 0
M  V30 3202 H 294.736 3.72791 1.47744 0
M  V30 3203 H 291.326 4.28317 0.155668 0
M  V30 3204 H 295.51 4.92868 -0.582659 0
M  V30 3205 H 290.766 5.89789 -1.61118 0
M  V30 3206 H 294.94 6.55677 -2.3465 0
M  V30 3207 H 292.567 7.04074 -2.86678 0
M  V30 3208 N 294.142 -0.090211 1.57342 0
M  V30 3209 C 295.553 -0.644173 1.75235 0
M  V30 3210 C 295.904 -1.78865 0.806335 0
M  V30 3211 O 295.029 -2.16395 -0.0140128 0
M  V30 3212 C 295.624 -1.17532 3.1776 0
M  V30 3213 C 294.183 -1.67531 3.37061 0
M  V30 3214 C 293.33 -0.58693 2.71017 0
M  V30 3215 H 296.281 0.135884 1.58117 0
M  V30 3216 H 296.302 -2.04455 3.20902 0
M  V30 3217 H 295.814 -0.342138 3.86589 0
M  V30 3218 H 293.915 -2.53234 2.73319 0
M  V30 3219 H 294.028 -1.76493 4.45406 0
M  V30 3220 H 292.392 -1.02756 2.33052 0
M  V30 3221 H 293.175 0.235758 3.4249 0
M  V30 3222 N 295.62 -1.53406 -0.361157 0
M  V30 3223 C 296.53 -1.83122 -1.4664 0
M  V30 3224 C 297.546 -0.719943 -1.58407 0
M  V30 3225 O 298.722 -1.01046 -1.74218 0
M  V30 3226 C 295.787 -2.01891 -2.81853 0
M  V30 3227 C 294.848 -3.25784 -2.79577 0
M  V30 3228 C 294.081 -3.43648 -4.0834 0
M  V30 3229 O 294.304 -2.65714 -5.0473 0
M  V30 3230 O 293.238 -4.37018 -4.13883 0
M  V30 3231 H 297.064 -2.7703 -1.24451 0
M  V30 3232 H 294.649 -1.38841 -0.551678 0
M  V30 3233 H 296.531 -2.15782 -3.61962 0
M  V30 3234 H 295.206 -1.11173 -3.0401 0
M  V30 3235 H 294.113 -3.17312 -1.98151 0
M  V30 3236 H 295.446 -4.16439 -2.62373 0
M  V30 3237 N 297.098 0.621204 -1.44841 0
M  V30 3238 C 298.328 1.40548 -1.51426 0
M  V30 3239 C 298.736 1.88673 -0.141083 0
M  V30 3240 O 298.079 1.62053 0.865128 0
M  V30 3241 C 298.141 2.65325 -2.42576 0
M  V30 3242 C 297.805 2.3893 -3.89566 0
M  V30 3243 C 298.802 2.00138 -4.79834 0
M  V30 3244 C 296.487 2.52263 -4.3436 0
M  V30 3245 C 298.481 1.75021 -6.129 0
M  V30 3246 C 296.168 2.2676 -5.67471 0
M  V30 3247 C 297.166 1.88199 -6.56559 0
M  V30 3248 O 296.854 1.62986 -7.87204 0
M  V30 3249 H 296.586 0.437122 -0.515655 0
M  V30 3250 H 299.14 0.765987 -1.90583 0
M  V30 3251 H 297.37 3.31947 -1.98364 0
M  V30 3252 H 299.059 3.27347 -2.39998 0
M  V30 3253 H 299.825 1.89386 -4.46495 0
M  V30 3254 H 295.704 2.81246 -3.65269 0
M  V30 3255 H 299.248 1.44848 -6.82396 0
M  V30 3256 H 295.145 2.37125 -6.00368 0
M  V30 3257 H 295.913 1.7715 -7.991 0
M  V30 3258 N 298.576 1.31904 0.862503 0
M  V30 3259 C 299.523 1.20182 1.9704 0
M  V30 3260 C 300.493 0.0858247 1.65878 0
M  V30 3261 O 301.678 0.26 1.8902 0
M  V30 3262 C 298.818 0.922797 3.32533 0
M  V30 3263 C 297.931 2.12284 3.76244 0
M  V30 3264 C 297.066 1.77996 5.00491 0
M  V30 3265 C 296.105 2.94366 5.36671 0
M  V30 3266 N 295.242 2.60223 6.52095 0
M  V30 3267 H 300.082 2.14951 2.06398 0
M  V30 3268 H 297.619 1.06917 1.01031 0
M  V30 3269 H 299.577 0.741548 4.10557 0
M  V30 3270 H 298.207 0.0119227 3.22798 0
M  V30 3271 H 297.259 2.41461 2.9394 0
M  V30 3272 H 298.571 2.99357 3.98982 0
M  V30 3273 H 297.725 1.56377 5.862 0
M  V30 3274 H 296.464 0.881252 4.79672 0
M  V30 3275 H 295.469 3.16625 4.49476 0
M  V30 3276 H 296.694 3.84957 5.59451 0
M  V30 3277 H 294.64 1.72884 6.32809 0
M  V30 3278 H 294.557 3.40827 6.74814 0
M  V30 3279 H 295.825 2.42016 7.40978 0
M  V30 3280 N 300.054 -1.07777 1.14986 0
M  V30 3281 C 301.3 -1.80557 0.923422 0
M  V30 3282 C 301.633 -1.86298 -0.548337 0
M  V30 3283 O 300.908 -1.34354 -1.40639 0
M  V30 3284 C 301.191 -3.25839 1.53299 0
M  V30 3285 C 301.044 -3.28269 3.07505 0
M  V30 3286 C 302.363 -4.22991 1.21518 0
M  V30 3287 H 299.482 -0.655493 0.336894 0
M  V30 3288 H 302.124 -1.26144 1.42083 0
M  V30 3289 H 300.274 -3.72306 1.10999 0
M  V30 3290 H 301.946 -2.90079 3.58681 0
M  V30 3291 H 300.189 -2.67355 3.4162 0
M  V30 3292 H 300.86 -4.30691 3.45266 0
M  V30 3293 H 303.336 -3.84894 1.581 0
M  V30 3294 H 302.212 -5.22945 1.66793 0
M  V30 3295 H 302.473 -4.41904 0.131505 0
M  V30 3296 N 301.532 -0.945985 -1.26051 0
M  V30 3297 C 302.757 -0.612525 -1.98149 0
M  V30 3298 C 303.182 0.806623 -1.69927 0
M  V30 3299 O 302.54 1.54411 -0.950108 0
M  V30 3300 C 302.588 -0.866981 -3.50023 0
M  V30 3301 O 301.692 0.0585333 -4.12358 0
M  V30 3302 H 301.033 -0.23379 -0.621481 0
M  V30 3303 H 303.563 -1.27023 -1.60395 0
M  V30 3304 H 303.573 -0.789792 -4.00283 0
M  V30 3305 H 302.248 -1.90135 -3.69894 0
M  V30 3306 H 300.825 -0.0701241 -3.72834 0
M  V30 3307 N 303.011 1.40521 -0.713556 0
M  V30 3308 C 304.288 1.94775 -0.17943 0
M  V30 3309 C 304.668 1.65184 1.31444 0
M  V30 3310 O 304.016 0.968429 2.06963 0
M  V30 3311 C 304.226 3.45543 -0.489986 0
M  V30 3312 C 305.574 4.22442 -0.427536 0
M  V30 3313 O 306.598 3.53644 -0.425929 0
M  V30 3314 O 305.457 5.4501 -0.403292 0
M  V30 3315 H 302.551 0.826606 -0.0255192 0
M  V30 3316 H 305.097 1.5014 -0.790949 0
M  V30 3317 H 303.869 3.60432 -1.5233 0
M  V30 3318 H 303.492 3.97311 0.151598 0
M  V30 3319 N 304.489 0.459591 1.5075 0
M  V30 3320 C 305.452 -0.329093 2.26825 0
M  V30 3321 C 306.452 -0.930481 1.31144 0
M  V30 3322 O 307.642 -0.801453 1.54669 0
M  V30 3323 C 304.774 -1.46768 3.07688 0
M  V30 3324 H 305.967 0.337924 2.9799 0
M  V30 3325 H 303.52 0.213336 1.54837 0
M  V30 3326 H 304.255 -2.17009 2.40993 0
M  V30 3327 H 304.04 -1.04238 3.77991 0
M  V30 3328 H 305.53 -2.02433 3.65254 0
M  V30 3329 N 305.967 -1.56429 0.191757 0
M  V30 3330 C 306.914 -2.18936 -0.730454 0
M  V30 3331 C 307.884 -1.13557 -1.21219 0
M  V30 3332 O 309.069 -1.41794 -1.27668 0
M  V30 3333 C 306.209 -2.85013 -1.9458 0
M  V30 3334 C 305.322 -4.04909 -1.50574 0
M  V30 3335 C 304.457 -4.58853 -2.67634 0
M  V30 3336 C 303.496 -5.71114 -2.20217 0
M  V30 3337 N 302.633 -6.19478 -3.30442 0
M  V30 3338 H 307.473 -2.97389 -0.190664 0
M  V30 3339 H 305.01 -1.46869 -0.0823694 0
M  V30 3340 H 306.968 -3.21492 -2.65893 0
M  V30 3341 H 305.598 -2.09129 -2.45896 0
M  V30 3342 H 304.65 -3.74115 -0.688605 0
M  V30 3343 H 305.962 -4.86113 -1.11784 0
M  V30 3344 H 305.116 -4.97619 -3.47074 0
M  V30 3345 H 303.855 -3.76749 -3.09696 0
M  V30 3346 H 302.86 -5.31879 -1.3923 0
M  V30 3347 H 304.085 -6.55033 -1.79189 0
M  V30 3348 H 302.031 -5.40297 -3.72041 0
M  V30 3349 H 301.948 -6.95725 -2.9581 0
M  V30 3350 H 303.216 -6.62898 -4.10106 0
M  V30 3351 N 307.445 0.0818655 -1.57387 0
M  V30 3352 C 308.392 1.09834 -2.0299 0
M  V30 3353 C 309.362 1.39043 -0.908639 0
M  V30 3354 O 310.547 1.50282 -1.17559 0
M  V30 3355 C 307.687 2.40971 -2.47037 0
M  V30 3356 C 306.8 2.18379 -3.7274 0
M  V30 3357 C 305.935 3.43008 -4.0561 0
M  V30 3358 C 304.974 3.15736 -5.24383 0
M  V30 3359 N 304.111 4.32667 -5.52941 0
M  V30 3360 H 308.951 0.702472 -2.89602 0
M  V30 3361 H 306.488 0.33531 -1.43227 0
M  V30 3362 H 308.446 3.1752 -2.70623 0
M  V30 3363 H 307.076 2.78379 -1.63417 0
M  V30 3364 H 306.128 1.32569 -3.56552 0
M  V30 3365 H 307.44 1.94227 -4.59431 0
M  V30 3366 H 306.594 4.27958 -4.30043 0
M  V30 3367 H 305.333 3.70225 -3.17466 0
M  V30 3368 H 304.338 2.2918 -4.99757 0
M  V30 3369 H 305.563 2.8985 -6.14136 0
M  V30 3370 H 303.509 4.59935 -4.67756 0
M  V30 3371 H 303.426 4.11753 -6.34031 0
M  V30 3372 H 304.694 5.18644 -5.81918 0
M  V30 3373 N 308.923 1.53595 0.353017 0
M  V30 3374 C 310.148 1.7462 1.11904 0
M  V30 3375 C 310.573 0.479721 1.8188 0
M  V30 3376 O 309.931 -0.567066 1.72204 0
M  V30 3377 C 309.979 2.92029 2.11545 0
M  V30 3378 O 309.083 2.61516 3.18878 0
M  V30 3379 H 308.424 0.579531 0.324099 0
M  V30 3380 H 310.954 2.00525 0.406301 0
M  V30 3381 H 310.964 3.18551 2.5493 0
M  V30 3382 H 309.639 3.83888 1.60008 0
M  V30 3383 H 308.216 2.45852 2.80377 0
M  V30 3384 N 310.401 -0.613514 1.45168 0
M  V30 3385 C 311.348 -1.72456 1.53387 0
M  V30 3386 C 312.318 -1.6169 0.380191 0
M  V30 3387 O 313.503 -1.81356 0.592836 0
M  V30 3388 C 310.643 -3.10753 1.50088 0
M  V30 3389 C 309.756 -3.32368 2.75963 0
M  V30 3390 C 308.891 -4.60737 2.64376 0
M  V30 3391 C 307.93 -4.7559 3.85332 0
M  V30 3392 N 307.067 -5.95253 3.72315 0
M  V30 3393 H 311.907 -1.64768 2.48305 0
M  V30 3394 H 309.444 -0.803503 1.23216 0
M  V30 3395 H 311.402 -3.90758 1.46164 0
M  V30 3396 H 310.032 -3.17413 0.587243 0
M  V30 3397 H 309.084 -2.4618 2.89999 0
M  V30 3398 H 310.396 -3.39218 3.65695 0
M  V30 3399 H 309.55 -5.48928 2.58385 0
M  V30 3400 H 308.289 -4.56275 1.72233 0
M  V30 3401 H 307.294 -3.85824 3.91688 0
M  V30 3402 H 308.519 -4.81854 4.78533 0
M  V30 3403 H 306.465 -5.91847 2.82937 0
M  V30 3404 H 306.382 -6.03236 4.55677 0
M  V30 3405 H 307.65 -6.85958 3.70246 0
M  V30 3406 N 311.879 -1.3236 -0.855495 0
M  V30 3407 C 313.126 -1.22872 -1.60962 0
M  V30 3408 C 313.454 0.209658 -1.93367 0
M  V30 3409 O 312.709 1.16243 -1.57436 0
M  V30 3410 C 313.008 -2.03275 -2.93963 0
M  V30 3411 C 312.674 -3.5264 -2.80991 0
M  V30 3412 C 311.336 -3.93364 -2.7716 0
M  V30 3413 C 313.688 -4.47626 -2.66983 0
M  V30 3414 C 311.016 -5.27319 -2.572 0
M  V30 3415 C 313.368 -5.81723 -2.48558 0
M  V30 3416 C 312.032 -6.2165 -2.4312 0
M  V30 3417 H 311.302 -0.44962 -0.589001 0
M  V30 3418 H 313.949 -1.63777 -0.992442 0
M  V30 3419 H 312.254 -1.55095 -3.59795 0
M  V30 3420 H 313.951 -1.93303 -3.51333 0
M  V30 3421 H 310.541 -3.20295 -2.84797 0
M  V30 3422 H 314.725 -4.17084 -2.68988 0
M  V30 3423 H 309.981 -5.57311 -2.51424 0
M  V30 3424 H 314.155 -6.5494 -2.36699 0
M  V30 3425 H 311.782 -7.25388 -2.27412 0
M  V30 3426 N 313.357 1.07166 -1.15556 0
M  V30 3427 C 314.606 1.79181 -0.926132 0
M  V30 3428 C 314.919 1.87768 0.547967 0
M  V30 3429 O 316.125 2.56323 0.895036 0
M  V30 3430 C 314.581 3.22 -1.60761 0
M  V30 3431 C 314.189 3.21607 -3.11886 0
M  V30 3432 C 315.933 3.9861 -1.4598 0
M  V30 3433 C 313.84 4.59092 -3.72812 0
M  V30 3434 H 312.77 0.67154 -0.342856 0
M  V30 3435 H 315.421 1.2027 -1.3859 0
M  V30 3436 H 313.803 3.81115 -1.07553 0
M  V30 3437 H 314.977 2.72127 -3.71865 0
M  V30 3438 H 313.292 2.58495 -3.2645 0
M  V30 3439 H 315.889 5.00225 -1.88888 0
M  V30 3440 H 316.232 4.143 -0.407541 0
M  V30 3441 H 316.765 3.45996 -1.96295 0
M  V30 3442 H 313.504 4.48606 -4.77946 0
M  V30 3443 H 313.024 5.08803 -3.17616 0
M  V30 3444 H 314.703 5.28059 -3.73848 0
M  V30 3445 N 314.835 0.952656 1.25548 0
M  V30 3446 C 315.765 0.489287 2.28316 0
M  V30 3447 C 316.746 -0.463359 1.63667 0
M  V30 3448 O 317.931 -0.36274 1.90782 0
M  V30 3449 C 315.061 -0.235603 3.465 0
M  V30 3450 C 314.015 0.631593 4.23314 0
M  V30 3451 C 313.341 -0.223923 5.34231 0
M  V30 3452 C 314.641 1.90871 4.86174 0
M  V30 3453 H 316.335 1.34822 2.67326 0
M  V30 3454 H 313.881 0.649728 1.28509 0
M  V30 3455 H 315.834 -0.570882 4.17515 0
M  V30 3456 H 314.558 -1.12877 3.06474 0
M  V30 3457 H 313.217 0.949929 3.54079 0
M  V30 3458 H 312.865 -1.11678 4.90446 0
M  V30 3459 H 312.565 0.35299 5.86539 0
M  V30 3460 H 314.089 -0.554214 6.0808 0
M  V30 3461 H 315.503 1.63997 5.49343 0
M  V30 3462 H 313.9 2.43112 5.4865 0
M  V30 3463 H 314.97 2.61304 4.08471 0
M  V30 3464 N 316.313 -1.40141 0.720998 0
M  V30 3465 C 317.243 -2.33339 0.0867621 0
M  V30 3466 C 318.224 -1.53178 -0.739622 0
M  V30 3467 O 319.409 -1.81625 -0.687449 0
M  V30 3468 C 316.539 -3.37194 -0.831728 0
M  V30 3469 C 315.493 -4.27857 -0.110558 0
M  V30 3470 C 314.819 -5.22294 -1.14513 0
M  V30 3471 C 316.119 -5.11872 1.0385 0
M  V30 3472 H 317.813 -2.86626 0.865219 0
M  V30 3473 H 315.359 -1.37814 0.417516 0
M  V30 3474 H 317.312 -4.01335 -1.28485 0
M  V30 3475 H 316.036 -2.82314 -1.64214 0
M  V30 3476 H 314.695 -3.65176 0.322797 0
M  V30 3477 H 314.343 -4.63717 -1.94874 0
M  V30 3478 H 314.043 -5.83797 -0.667446 0
M  V30 3479 H 315.567 -5.89312 -1.59824 0
M  V30 3480 H 316.981 -5.69436 0.664482 0
M  V30 3481 H 315.378 -5.82445 1.4449 0
M  V30 3482 H 316.448 -4.4753 1.86668 0
M  V30 3483 N 317.792 -0.46758 -1.50504 0
M  V30 3484 C 318.742 0.34698 -2.25344 0
M  V30 3485 C 319.726 0.964469 -1.2879 0
M  V30 3486 O 320.918 0.8776 -1.53711 0
M  V30 3487 C 318.047 1.43042 -3.1208 0
M  V30 3488 C 317.133 0.82084 -4.16081 0
M  V30 3489 N 317.524 -0.0567602 -5.05768 0
M  V30 3490 C 315.822 1.08517 -4.32597 0
M  V30 3491 C 316.523 -0.402343 -5.80307 0
M  V30 3492 N 315.499 0.221607 -5.43148 0
M  V30 3493 H 319.301 -0.329129 -2.92051 0
M  V30 3494 H 316.815 -0.281508 -1.59942 0
M  V30 3495 H 318.812 2.02712 -3.64299 0
M  V30 3496 H 317.472 2.10856 -2.46921 0
M  V30 3497 H 318.483 -0.425349 -5.1615 0
M  V30 3498 H 315.16 1.75855 -3.78657 0
M  V30 3499 H 316.55 -1.11834 -6.62528 0
M  V30 3500 N 319.27 1.56325 -0.20005 0
M  V30 3501 C 320.517 1.97719 0.437411 0
M  V30 3502 C 320.845 1.08709 1.61284 0
M  V30 3503 O 320.1 0.127261 1.95286 0
M  V30 3504 C 320.399 3.4495 0.935103 0
M  V30 3505 C 320.065 4.5072 -0.12749 0
M  V30 3506 C 318.727 4.79368 -0.419451 0
M  V30 3507 C 321.079 5.14268 -0.847231 0
M  V30 3508 C 318.407 5.68854 -1.43604 0
M  V30 3509 C 320.759 6.04852 -1.85301 0
M  V30 3510 C 319.423 6.31855 -2.15211 0
M  V30 3511 H 318.693 0.723507 0.16006 0
M  V30 3512 H 321.34 1.89166 -0.298056 0
M  V30 3513 H 319.645 3.50599 1.74894 0
M  V30 3514 H 321.342 3.74337 1.43781 0
M  V30 3515 H 317.932 4.28458 0.11023 0
M  V30 3516 H 322.116 4.92222 -0.634901 0
M  V30 3517 H 317.372 5.88047 -1.67364 0
M  V30 3518 H 321.546 6.53152 -2.41591 0
M  V30 3519 H 319.173 7.00994 -2.94129 0
M  V30 3520 N 320.748 -0.0735177 1.57428 0
M  V30 3521 C 321.973 -0.789787 1.91774 0
M  V30 3522 C 322.398 -1.70413 0.796306 0
M  V30 3523 O 321.756 -1.79555 -0.250961 0
M  V30 3524 C 321.804 -1.5609 3.25067 0
M  V30 3525 O 320.908 -2.67144 3.14178 0
M  V30 3526 H 320.249 -0.215582 0.628029 0
M  V30 3527 H 322.779 -0.0422781 2.04556 0
M  V30 3528 H 322.789 -1.94052 3.58898 0
M  V30 3529 H 321.464 -0.890015 4.06265 0
M  V30 3530 H 320.041 -2.32052 2.91901 0
M  V30 3531 N 322.226 -1.5378 -0.344866 0
M  V30 3532 C 323.454 -1.74899 -1.10534 0
M  V30 3533 C 323.869 -0.487534 -1.82397 0
M  V30 3534 O 323.226 0.540741 -1.74305 0
M  V30 3535 C 323.277 -2.92822 -2.11984 0
M  V30 3536 O 322.998 -4.14089 -1.43044 0
M  V30 3537 C 324.499 -3.25982 -3.00417 0
M  V30 3538 H 321.719 -0.584426 -0.329678 0
M  V30 3539 H 324.263 -2.006 -0.397474 0
M  V30 3540 H 322.418 -2.69457 -2.78338 0
M  V30 3541 H 322.832 -4.80272 -2.10805 0
M  V30 3542 H 324.306 -4.11848 -3.67539 0
M  V30 3543 H 324.783 -2.42228 -3.66363 0
M  V30 3544 H 325.389 -3.51349 -2.39654 0
M  V30 3545 N 323.704 0.605807 -1.45491 0
M  V30 3546 C 324.951 1.36476 -1.49601 0
M  V30 3547 C 325.279 1.94007 -0.138452 0
M  V30 3548 O 324.534 1.75638 0.863114 0
M  V30 3549 C 324.833 2.53012 -2.52428 0
M  V30 3550 C 324.499 2.13617 -3.97087 0
M  V30 3551 C 323.161 2.02587 -4.36477 0
M  V30 3552 C 325.513 1.82899 -4.88055 0
M  V30 3553 C 322.841 1.59064 -5.64726 0
M  V30 3554 C 325.193 1.40861 -6.16718 0
M  V30 3555 C 323.857 1.28391 -6.55036 0
M  V30 3556 H 323.127 0.499402 -0.547429 0
M  V30 3557 H 325.774 0.684546 -1.78847 0
M  V30 3558 H 324.079 3.26379 -2.16758 0
M  V30 3559 H 325.776 3.1124 -2.52845 0
M  V30 3560 H 322.366 2.23129 -3.65939 0
M  V30 3561 H 326.55 1.90317 -4.58359 0
M  V30 3562 H 321.806 1.48034 -5.93208 0
M  V30 3563 H 325.98 1.16138 -6.86648 0
M  V30 3564 H 323.607 0.944403 -7.54311 0
M  V30 3565 N 325.182 1.32811 0.848464 0
M  V30 3566 C 326.129 1.22265 1.95755 0
M  V30 3567 C 327.099 0.103413 1.65778 0
M  V30 3568 O 328.284 0.280033 1.88734 0
M  V30 3569 C 325.424 0.958014 3.31536 0
M  V30 3570 C 324.537 2.16262 3.73971 0
M  V30 3571 C 323.672 1.83295 4.98575 0
M  V30 3572 C 322.711 3.00041 5.33518 0
M  V30 3573 N 321.848 2.67125 6.49299 0
M  V30 3574 H 326.688 2.17128 2.04107 0
M  V30 3575 H 324.225 1.07982 0.998913 0
M  V30 3576 H 326.183 0.785052 4.09747 0
M  V30 3577 H 324.813 0.046159 3.22767 0
M  V30 3578 H 323.865 2.44565 2.91362 0
M  V30 3579 H 325.177 3.03572 3.95785 0
M  V30 3580 H 324.331 1.62586 5.84509 0
M  V30 3581 H 323.07 0.932078 4.7871 0
M  V30 3582 H 322.075 3.21374 4.46093 0
M  V30 3583 H 323.3 3.90869 5.55336 0
M  V30 3584 H 321.246 1.79586 6.3094 0
M  V30 3585 H 321.163 3.47965 6.71161 0
M  V30 3586 H 322.431 2.49861 7.3837 0
M  V30 3587 N 326.66 -1.06551 1.16123 0
M  V30 3588 C 327.623 -2.12132 0.867906 0
M  V30 3589 C 328.623 -1.60224 -0.135944 0
M  V30 3590 O 329.813 -1.73943 0.0946422 0
M  V30 3591 C 326.945 -3.396 0.297419 0
M  V30 3592 H 328.138 -2.39586 1.80385 0
M  V30 3593 H 325.691 -1.22574 0.969812 0
M  V30 3594 H 326.426 -3.17794 -0.64633 0
M  V30 3595 H 326.211 -3.78581 1.02073 0
M  V30 3596 H 327.701 -4.17455 0.110052 0
M  V30 3597 N 328.138 -0.959301 -1.25041 0
M  V30 3598 C 329.386 -0.615393 -1.92503 0
M  V30 3599 C 329.707 0.850969 -1.75452 0
M  V30 3600 O 328.977 1.60658 -1.12098 0
M  V30 3601 H 327.557 -0.224613 -0.712431 0
M  V30 3602 H 330.219 -1.21855 -1.5211 0
M  V30 3603 H 329.315 -0.848738 -3.00338 0
M  V30 3604 N 329.616 1.39756 -0.72842 0
M  V30 3605 C 330.862 2.01425 -0.282761 0
M  V30 3606 C 331.217 1.56754 1.11561 0
M  V30 3607 O 330.51 0.783482 1.74849 0
M  V30 3608 C 330.704 3.56002 -0.315776 0
M  V30 3609 C 330.533 4.1568 -1.71582 0
M  V30 3610 C 329.303 4.48555 -2.32651 0
M  V30 3611 C 331.501 4.39667 -2.66829 0
M  V30 3612 N 329.483 4.93698 -3.64877 0
M  V30 3613 C 330.854 4.86942 -3.8378 0
M  V30 3614 C 332.909 4.21724 -2.64675 0
M  V30 3615 C 331.612 5.18158 -4.98904 0
M  V30 3616 C 333.638 4.54049 -3.78937 0
M  V30 3617 C 333 5.01525 -4.94623 0
M  V30 3618 H 329.099 0.76756 -0.149583 0
M  V30 3619 H 331.683 1.69784 -0.952976 0
M  V30 3620 H 329.854 3.87046 0.324057 0
M  V30 3621 H 331.586 4.0443 0.147808 0
M  V30 3622 H 328.341 4.36128 -1.84633 0
M  V30 3623 H 328.765 5.20635 -4.32744 0
M  V30 3624 H 333.407 3.84228 -1.76433 0
M  V30 3625 H 331.125 5.54562 -5.87781 0
M  V30 3626 H 334.711 4.41795 -3.78561 0
M  V30 3627 H 333.591 5.26065 -5.81572 0
M  V30 3628 N 331.094 0.475555 1.50254 0
M  V30 3629 C 332.371 -0.139685 1.95101 0
M  V30 3630 C 332.751 -1.56555 1.41611 0
M  V30 3631 O 332.099 -2.19956 0.618993 0
M  V30 3632 C 332.309 -0.0784298 3.48912 0
M  V30 3633 C 333.657 -0.265095 4.23772 0
M  V30 3634 O 334.681 -0.154808 3.55863 0
M  V30 3635 O 333.54 -0.488327 5.44314 0
M  V30 3636 H 330.634 -0.109236 0.819754 0
M  V30 3637 H 333.18 0.536276 1.61004 0
M  V30 3638 H 331.952 0.916918 3.80405 0
M  V30 3639 H 331.575 -0.795655 3.89558 0
M  V30 3640 N 332.573 -1.56217 0.208337 0
M  V30 3641 C 333.819 -1.98998 -0.42086 0
M  V30 3642 C 334.174 -1.09331 -1.58317 0
M  V30 3643 O 333.467 -0.140466 -1.91084 0
M  V30 3644 C 333.661 -3.45441 -0.916797 0
M  V30 3645 C 333.49 -4.49273 0.195925 0
M  V30 3646 C 332.26 -5.00998 0.657956 0
M  V30 3647 C 334.458 -5.04294 1.00956 0
M  V30 3648 N 332.44 -5.88514 1.74712 0
M  V30 3649 C 333.811 -5.88607 1.94785 0
M  V30 3650 C 335.866 -4.86692 1.05049 0
M  V30 3651 C 334.569 -6.572 2.9237 0
M  V30 3652 C 336.595 -5.56034 2.01446 0
M  V30 3653 C 335.957 -6.40105 2.94016 0
M  V30 3654 H 332.056 -0.772574 -0.121048 0
M  V30 3655 H 334.64 -1.92101 0.317075 0
M  V30 3656 H 332.811 -3.52812 -1.62413 0
M  V30 3657 H 334.543 -3.75164 -1.51771 0
M  V30 3658 H 331.298 -4.72945 0.248912 0
M  V30 3659 H 331.722 -6.36975 2.2933 0
M  V30 3660 H 336.364 -4.21359 0.348759 0
M  V30 3661 H 334.082 -7.21723 3.63512 0
M  V30 3662 H 337.668 -5.44385 2.0527 0
M  V30 3663 H 336.548 -6.92816 3.6739 0
M  V30 3664 N 334.051 0.0651679 -1.57465 0
M  V30 3665 C 334.981 1.07693 -2.07182 0
M  V30 3666 C 335.962 1.39962 -0.966673 0
M  V30 3667 O 337.147 1.49475 -1.2398 0
M  V30 3668 C 334.277 2.3885 -2.52127 0
M  V30 3669 C 333.231 2.20917 -3.66579 0
M  V30 3670 C 332.557 3.57515 -3.97601 0
M  V30 3671 C 333.857 1.62493 -4.9638 0
M  V30 3672 H 335.551 0.663199 -2.91962 0
M  V30 3673 H 333.097 0.317569 -1.40455 0
M  V30 3674 H 335.05 3.09928 -2.85522 0
M  V30 3675 H 333.774 2.82215 -1.64384 0
M  V30 3676 H 332.433 1.52279 -3.33477 0
M  V30 3677 H 332.081 3.98463 -3.06979 0
M  V30 3678 H 331.781 3.46353 -4.74672 0
M  V30 3679 H 333.305 4.30013 -4.33499 0
M  V30 3680 H 334.719 2.23445 -5.27963 0
M  V30 3681 H 333.116 1.62009 -5.77818 0
M  V30 3682 H 334.186 0.587041 -4.81333 0
M  V30 3683 N 335.529 1.53961 0.336706 0
M  V30 3684 C 336.778 1.70751 1.07363 0
M  V30 3685 C 337.091 0.481061 1.89592 0
M  V30 3686 O 338.297 0.530046 2.66276 0
M  V30 3687 C 336.753 3.01965 1.95818 0
M  V30 3688 C 336.361 4.31971 1.18764 0
M  V30 3689 C 338.105 3.28121 2.69327 0
M  V30 3690 C 336.012 5.54255 2.06289 0
M  V30 3691 H 334.942 0.636292 0.404535 0
M  V30 3692 H 337.593 1.80459 0.332681 0
M  V30 3693 H 335.975 2.86132 2.7376 0
M  V30 3694 H 337.149 4.5853 0.456849 0
M  V30 3695 H 335.464 4.12481 0.569946 0
M  V30 3696 H 338.061 4.16673 3.35094 0
M  V30 3697 H 338.404 2.45426 3.36261 0
M  V30 3698 H 338.937 3.44762 1.98454 0
M  V30 3699 H 335.676 6.39513 1.43885 0
M  V30 3700 H 335.196 5.31935 2.77138 0
M  V30 3701 H 336.875 5.90159 2.65182 0
M  V30 3702 N 337.007 -0.598083 1.45811 0
M  V30 3703 C 337.937 -1.71873 1.58057 0
M  V30 3704 C 338.918 -1.64533 0.431615 0
M  V30 3705 O 340.103 -1.82787 0.65595 0
M  V30 3706 C 337.233 -3.10495 1.55597 0
M  V30 3707 C 336.187 -3.32654 2.69305 0
M  V30 3708 C 335.513 -4.71646 2.51902 0
M  V30 3709 C 336.813 -3.21981 4.11248 0
M  V30 3710 H 338.507 -1.61881 2.51863 0
M  V30 3711 H 336.053 -0.777372 1.21214 0
M  V30 3712 H 338.006 -3.88699 1.6276 0
M  V30 3713 H 336.73 -3.2135 0.583255 0
M  V30 3714 H 335.389 -2.56843 2.61586 0
M  V30 3715 H 335.037 -4.79246 1.52748 0
M  V30 3716 H 334.737 -4.87426 3.2816 0
M  V30 3717 H 336.261 -5.52038 2.60933 0
M  V30 3718 H 337.675 -3.90049 4.20161 0
M  V30 3719 H 336.072 -3.49289 4.87972 0
M  V30 3720 H 337.142 -2.1928 4.32486 0
M  V30 3721 N 338.485 -1.33259 -0.841409 0
M  V30 3722 C 339.415 -1.25926 -1.96634 0
M  V30 3723 C 340.396 -0.140349 -1.6952 0
M  V30 3724 O 341.581 -0.329707 -1.91381 0
M  V30 3725 C 338.711 -0.99512 -3.32738 0
M  V30 3726 C 337.665 -2.0767 -3.74242 0
M  V30 3727 C 336.991 -1.66474 -5.08125 0
M  V30 3728 C 338.291 -3.49318 -3.88297 0
M  V30 3729 H 339.985 -2.20046 -2.03027 0
M  V30 3730 H 337.531 -1.05931 -0.975425 0
M  V30 3731 H 339.484 -0.930323 -4.11002 0
M  V30 3732 H 338.208 -0.0183004 -3.26595 0
M  V30 3733 H 336.867 -2.13187 -2.98239 0
M  V30 3734 H 336.515 -0.675012 -4.9845 0
M  V30 3735 H 336.215 -2.3885 -5.36865 0
M  V30 3736 H 337.739 -1.61455 -5.88867 0
M  V30 3737 H 339.153 -3.46316 -4.56879 0
M  V30 3738 H 337.55 -4.20158 -4.28471 0
M  V30 3739 H 338.62 -3.8801 -2.9082 0
M  V30 3740 N 339.963 1.05934 -1.16686 0
M  V30 3741 C 340.926 2.11669 -0.879144 0
M  V30 3742 C 341.926 1.60294 0.127445 0
M  V30 3743 O 343.116 1.7389 -0.103865 0
M  V30 3744 C 340.248 3.39438 -0.315425 0
M  V30 3745 H 341.441 2.38626 -1.81653 0
M  V30 3746 H 338.994 1.22058 -0.976299 0
M  V30 3747 H 339.729 3.18132 0.629468 0
M  V30 3748 H 339.514 3.78034 -1.04079 0
M  V30 3749 H 341.004 4.17391 -0.132189 0
M  V30 3750 N 341.441 0.965919 1.2453 0
M  V30 3751 C 342.669 0.644385 1.96609 0
M  V30 3752 C 343.084 -0.785823 1.71669 0
M  V30 3753 O 342.441 -1.52703 0.999399 0
M  V30 3754 C 342.492 0.907375 3.49927 0
M  V30 3755 O 342.213 2.28136 3.74013 0
M  V30 3756 C 343.714 0.599784 4.39224 0
M  V30 3757 H 340.934 0.240588 0.626385 0
M  V30 3758 H 343.478 1.29337 1.58405 0
M  V30 3759 H 341.633 0.304631 3.862 0
M  V30 3760 H 342.047 2.36002 4.68405 0
M  V30 3761 H 343.521 0.834263 5.45659 0
M  V30 3762 H 343.998 -0.465921 4.36722 0
M  V30 3763 H 344.604 1.18235 4.08535 0
M  V30 3764 N 342.919 -1.39368 0.735821 0
M  V30 3765 C 344.166 -2.00497 0.284123 0
M  V30 3766 C 344.494 -1.58387 -1.12889 0
M  V30 3767 O 343.749 -0.804359 -1.78406 0
M  V30 3768 C 344.048 -3.5583 0.334651 0
M  V30 3769 C 343.714 -4.17593 1.7008 0
M  V30 3770 C 342.376 -4.34176 2.07472 0
M  V30 3771 C 344.728 -4.51848 2.59775 0
M  V30 3772 C 342.056 -4.82304 3.34065 0
M  V30 3773 C 344.408 -5.01384 3.85741 0
M  V30 3774 C 343.072 -5.16175 4.23225 0
M  V30 3775 H 342.342 -0.73367 0.103968 0
M  V30 3776 H 344.989 -1.66683 0.942825 0
M  V30 3777 H 343.294 -3.89674 -0.407625 0
M  V30 3778 H 344.991 -4.00986 -0.0329927 0
M  V30 3779 H 341.581 -4.05087 1.40008 0
M  V30 3780 H 345.765 -4.38653 2.32157 0
M  V30 3781 H 341.021 -4.91941 3.63049 0
M  V30 3782 H 345.195 -5.26863 4.55399 0
M  V30 3783 H 342.822 -5.5323 5.21384 0
M  V30 3784 N 344.397 -0.483516 -1.5 0
M  V30 3785 C 345.627 0.0643896 -2.065 0
M  V30 3786 C 346.035 1.32949 -1.34615 0
M  V30 3787 O 345.378 1.79003 -0.412756 0
M  V30 3788 C 345.44 0.405983 -3.572 0
M  V30 3789 C 345.104 -0.758875 -4.50655 0
M  V30 3790 C 346.101 -1.64445 -4.93208 0
M  V30 3791 C 343.786 -0.952725 -4.93182 0
M  V30 3792 C 345.78 -2.70818 -5.77006 0
M  V30 3793 C 343.467 -2.01966 -5.76761 0
M  V30 3794 C 344.465 -2.89574 -6.18576 0
M  V30 3795 O 344.153 -3.94429 -7.00486 0
M  V30 3796 H 343.885 -0.00934786 -0.675935 0
M  V30 3797 H 346.439 -0.674959 -1.93993 0
M  V30 3798 H 344.669 1.19869 -3.67652 0
M  V30 3799 H 346.358 0.890433 -3.96013 0
M  V30 3800 H 347.124 -1.50643 -4.61012 0
M  V30 3801 H 343.003 -0.280247 -4.60147 0
M  V30 3802 H 346.547 -3.3923 -6.09565 0
M  V30 3803 H 342.444 -2.1577 -6.0837 0
M  V30 3804 H 343.212 -3.91568 -7.1876 0
M  V30 3805 N 345.875 1.56104 -0.216619 0
M  V30 3806 C 347.121 1.98466 0.417033 0
M  V30 3807 C 347.454 1.10403 1.59765 0
M  V30 3808 O 346.729 0.160632 1.93836 0
M  V30 3809 C 347.012 3.49769 0.85637 0
M  V30 3810 C 346.865 4.48606 -0.327546 0
M  V30 3811 C 348.184 4.05339 1.7143 0
M  V30 3812 H 345.303 0.721551 0.150112 0
M  V30 3813 H 347.945 1.87423 -0.311864 0
M  V30 3814 H 346.095 3.5931 1.47745 0
M  V30 3815 H 347.767 4.5108 -0.965618 0
M  V30 3816 H 346.01 4.22682 -0.975805 0
M  V30 3817 H 346.681 5.51995 0.0227149 0
M  V30 3818 H 349.157 3.98712 1.19031 0
M  V30 3819 H 348.033 5.11533 1.99061 0
M  V30 3820 H 348.294 3.51918 2.67593 0
M  V30 3821 N 347.353 -0.0568162 1.57498 0
M  V30 3822 C 348.316 -1.05038 2.03715 0
M  V30 3823 C 349.316 -1.30709 0.936577 0
M  V30 3824 O 350.506 -1.26178 1.20103 0
M  V30 3825 C 347.638 -2.39034 2.43055 0
M  V30 3826 H 348.831 -0.651715 2.92733 0
M  V30 3827 H 346.384 -0.302947 1.53336 0
M  V30 3828 H 347.119 -2.83703 1.57108 0
M  V30 3829 H 346.904 -2.21739 3.2338 0
M  V30 3830 H 348.394 -3.10421 2.79336 0
M  V30 3831 N 348.832 -1.54138 -0.328536 0
M  V30 3832 C 350.078 -1.7236 -1.06865 0
M  V30 3833 C 350.411 -0.493231 -1.87832 0
M  V30 3834 O 349.686 0.5098 -1.877 0
M  V30 3835 C 349.969 -2.99621 -1.99747 0
M  V30 3836 C 349.822 -4.32899 -1.22143 0
M  V30 3837 C 351.141 -3.22615 -2.99345 0
M  V30 3838 H 348.26 -0.627151 -0.387105 0
M  V30 3839 H 350.902 -1.86827 -0.345767 0
M  V30 3840 H 349.052 -2.87418 -2.61387 0
M  V30 3841 H 350.724 -4.56978 -0.630017 0
M  V30 3842 H 348.967 -4.30628 -0.523628 0
M  V30 3843 H 349.638 -5.18154 -1.90318 0
M  V30 3844 H 352.114 -3.34248 -2.47826 0
M  V30 3845 H 350.99 -4.13027 -3.61524 0
M  V30 3846 H 351.251 -2.3961 -3.71536 0
M  V30 3847 N 350.31 0.590341 -1.46126 0
M  V30 3848 C 351.538 1.37504 -1.54597 0
M  V30 3849 C 351.953 1.87897 -0.184447 0
M  V30 3850 O 351.31 1.63192 0.816984 0
M  V30 3851 C 351.361 2.56779 -2.54454 0
M  V30 3852 O 351.082 2.08476 -3.85317 0
M  V30 3853 C 352.583 3.49427 -2.72792 0
M  V30 3854 H 349.803 0.420325 -0.523037 0
M  V30 3855 H 352.347 0.718383 -1.91467 0
M  V30 3856 H 350.502 3.1845 -2.20609 0
M  V30 3857 H 350.916 2.86097 -4.396 0
M  V30 3858 H 352.39 4.29619 -3.466 0
M  V30 3859 H 352.867 4.00876 -1.79429 0
M  V30 3860 H 353.473 2.93598 -3.07702 0
M  V30 3861 N 351.788 1.33704 0.83433 0
M  V30 3862 C 353.034 1.25603 1.59222 0
M  V30 3863 C 353.367 -0.176659 1.93395 0
M  V30 3864 O 352.642 -1.11915 1.59076 0
M  V30 3865 C 352.925 2.13576 2.89926 0
M  V30 3866 C 352.778 3.65326 2.62406 0
M  V30 3867 C 354.097 2.01238 3.91397 0
M  V30 3868 H 351.216 0.457613 0.577719 0
M  V30 3869 H 353.858 1.63848 0.961972 0
M  V30 3870 H 352.008 1.8109 3.43713 0
M  V30 3871 H 353.68 4.08124 2.15017 0
M  V30 3872 H 351.923 3.8698 1.96033 0
M  V30 3873 H 352.594 4.22232 3.55562 0
M  V30 3874 H 355.07 2.29738 3.46929 0
M  V30 3875 H 353.946 2.65036 4.80673 0
M  V30 3876 H 354.207 0.985951 4.30966 0
M  V30 3877 N 353.266 -1.05314 1.17247 0
M  V30 3878 C 354.677 -1.59753 0.96623 0
M  V30 3879 C 355.028 -1.9005 -0.487378 0
M  V30 3880 O 354.153 -1.68126 -1.36245 0
M  V30 3881 C 354.748 -2.90249 1.74759 0
M  V30 3882 C 353.307 -3.41352 1.58606 0
M  V30 3883 C 352.454 -2.15103 1.75002 0
M  V30 3884 H 355.405 -0.881406 1.31973 0
M  V30 3885 H 355.426 -3.60097 1.22925 0
M  V30 3886 H 354.938 -2.68166 2.8055 0
M  V30 3887 H 353.039 -3.68474 0.552985 0
M  V30 3888 H 353.152 -4.16019 2.37624 0
M  V30 3889 H 351.516 -2.25804 1.17833 0
M  V30 3890 H 352.299 -1.95491 2.82202 0
M  V30 3891 N 354.744 -0.972509 -1.24016 0
M  V30 3892 C 355.974 -0.653853 -1.9598 0
M  V30 3893 C 356.382 0.781801 -1.72292 0
M  V30 3894 O 355.725 1.53677 -1.00644 0
M  V30 3895 C 355.787 -0.854608 -3.49194 0
M  V30 3896 C 355.451 -2.27082 -3.96589 0
M  V30 3897 C 356.448 -3.24892 -4.05883 0
M  V30 3898 C 354.133 -2.5998 -4.29786 0
M  V30 3899 C 356.127 -4.53684 -4.47716 0
M  V30 3900 C 353.814 -3.88997 -4.71301 0
M  V30 3901 C 354.812 -4.85661 -4.80232 0
M  V30 3902 O 354.5 -6.12376 -5.20818 0
M  V30 3903 H 354.232 -0.242572 -0.630979 0
M  V30 3904 H 356.786 -1.30431 -1.58673 0
M  V30 3905 H 355.016 -0.146985 -3.86421 0
M  V30 3906 H 356.705 -0.534311 -4.02368 0
M  V30 3907 H 357.471 -3.00805 -3.80449 0
M  V30 3908 H 353.35 -1.85457 -4.22051 0
M  V30 3909 H 356.894 -5.29135 -4.54601 0
M  V30 3910 H 352.791 -4.12882 -4.96184 0
M  V30 3911 H 353.559 -6.16013 -5.38953 0
M  V30 3912 N 356.222 1.38976 -0.743202 0
M  V30 3913 C 357.17 2.32394 -0.0978389 0
M  V30 3914 C 358.164 1.53486 0.716824 0
M  V30 3915 O 359.37 1.69092 0.617088 0
M  V30 3916 H 355.745 0.75189 -0.0128402 0
M  V30 3917 H 357.716 2.84441 -0.901981 0
M  V30 3918 C 356.465 3.38629 0.789036 0
M  V30 3919 H 355.788 3.99432 0.171559 0
M  V30 3920 H 357.228 4.06426 1.20807 0
M  V30 3921 C 355.687 2.76347 1.92702 0
M  V30 3922 O 356.217 2.64836 3.02034 0
M  V30 3923 N 354.423 2.34311 1.71891 0
M  V30 3924 H 353.97 2.43873 0.829675 0
M  V30 3925 H 353.928 1.9298 2.48205 0
M  V30 3926 N 357.7 0.491464 1.49741 0
M  V30 3927 C 358.946 -0.0565092 2.02721 0
M  V30 3928 C 359.279 -1.37522 1.37118 0
M  V30 3929 O 358.554 -1.87866 0.503645 0
M  V30 3930 C 358.837 -0.219051 3.59433 0
M  V30 3931 C 358.69 1.12211 4.35579 0
M  V30 3932 C 360.009 -0.964157 4.29409 0
M  V30 3933 H 357.128 -0.0190627 0.736753 0
M  V30 3934 H 359.77 0.641021 1.7886 0
M  V30 3935 H 357.92 -0.813165 3.79895 0
M  V30 3936 H 359.592 1.75437 4.26637 0
M  V30 3937 H 357.835 1.71377 3.98513 0
M  V30 3938 H 358.506 0.961794 5.43556 0
M  V30 3939 H 360.982 -0.460378 4.13545 0
M  V30 3940 H 359.858 -1.04671 5.38828 0
M  V30 3941 H 360.119 -2.00563 3.93988 0
M  V30 3942 N 359.178 -1.55987 0.224894 0
M  V30 3943 C 360.418 -2.00293 -0.407706 0
M  V30 3944 C 360.782 -1.1093 -1.56711 0
M  V30 3945 O 361.983 -1.44597 -2.26595 0
M  V30 3946 C 360.254 -3.47675 -0.82805 0
M  V30 3947 S 361.813 -4.14 -1.45429 0
M  V30 3948 H 358.631 -0.699152 -0.129256 0
M  V30 3949 H 361.233 -1.92609 0.334967 0
M  V30 3950 H 359.937 -4.10392 0.0253964 0
M  V30 3951 H 359.468 -3.59239 -1.60345 0
M  V30 3952 H 361.483 -4.13465 -2.74337 0
M  V30 3953 N 360.656 0.0484629 -1.57525 0
M  V30 3954 C 361.903 0.743125 -1.88372 0
M  V30 3955 C 362.231 1.76383 -0.819715 0
M  V30 3956 O 361.486 1.94855 0.181659 0
M  V30 3957 C 361.785 1.46632 -3.25935 0
M  V30 3958 C 361.451 0.583427 -4.4711 0
M  V30 3959 C 360.113 0.340191 -4.79996 0
M  V30 3960 C 362.465 -0.0273345 -5.21193 0
M  V30 3961 C 359.793 -0.522903 -5.84365 0
M  V30 3962 C 362.145 -0.878017 -6.26477 0
M  V30 3963 C 360.809 -1.1309 -6.5785 0
M  V30 3964 H 360.079 0.271929 -0.689301 0
M  V30 3965 H 362.726 0.00336166 -1.915 0
M  V30 3966 H 361.031 2.2789 -3.18706 0
M  V30 3967 H 362.728 2.00902 -3.47044 0
M  V30 3968 H 359.318 0.783151 -4.21384 0
M  V30 3969 H 363.502 0.147654 -4.9608 0
M  V30 3970 H 358.758 -0.727335 -6.07058 0
M  V30 3971 H 362.932 -1.35789 -6.83033 0
M  V30 3972 H 360.559 -1.80144 -7.38547 0
M  V30 3973 N 362.134 1.5431 0.320358 0
M  V30 3974 C 363.383 1.7188 1.05546 0
M  V30 3975 C 363.696 0.501143 1.89071 0
M  V30 3976 O 364.902 0.558258 2.65699 0
M  V30 3977 C 363.358 3.04025 1.92605 0
M  V30 3978 C 362.966 4.33207 1.14176 0
M  V30 3979 C 364.71 3.30959 2.65832 0
M  V30 3980 C 362.617 5.56412 2.00399 0
M  V30 3981 H 361.547 0.640547 0.397763 0
M  V30 3982 H 364.198 1.80802 0.313522 0
M  V30 3983 H 362.58 2.89019 2.7071 0
M  V30 3984 H 363.754 4.58989 0.40819 0
M  V30 3985 H 362.069 4.13062 0.526165 0
M  V30 3986 H 364.666 4.20203 3.30656 0
M  V30 3987 H 365.009 2.48979 3.33639 0
M  V30 3988 H 365.542 3.46847 1.94787 0
M  V30 3989 H 362.281 6.41004 1.37094 0
M  V30 3990 H 361.801 5.34844 2.7148 0
M  V30 3991 H 363.48 5.92938 2.58908 0
M  V30 3992 N 363.613 -0.582584 1.46437 0
M  V30 3993 C 364.861 -1.33814 1.51453 0
M  V30 3994 C 365.182 -1.94277 0.167792 0
M  V30 3995 O 364.452 -1.78566 -0.805677 0
M  V30 3996 H 363.032 -0.496838 0.557818 0
M  V30 3997 H 365.694 -0.682281 1.82568 0
M  V30 3998 H 364.79 -2.14479 2.26728 0
M  V30 3999 N 365.091 -1.34144 -0.827227 0
M  V30 4000 C 366.039 -1.25364 -1.95925 0
M  V30 4001 C 367.033 -0.152608 -1.68711 0
M  V30 4002 O 368.239 -0.317311 -1.77181 0
M  V30 4003 H 364.614 -0.389342 -0.643364 0
M  V30 4004 H 366.585 -2.21045 -2.00454 0
M  V30 4005 C 365.334 -1.02158 -3.32354 0
M  V30 4006 H 364.657 -1.86111 -3.5384 0
M  V30 4007 H 366.097 -1.00048 -4.12027 0
M  V30 4008 C 364.556 0.275244 -3.35774 0
M  V30 4009 O 365.086 1.27806 -3.80826 0
M  V30 4010 N 363.292 0.306853 -2.88975 0
M  V30 4011 H 362.839 -0.509777 -2.52506 0
M  V30 4012 H 362.797 1.17432 -2.91646 0
M  V30 4013 N 366.569 1.04691 -1.17803 0
M  V30 4014 C 367.846 1.7472 -0.879328 0
M  V30 4015 C 368.226 2.01812 0.619271 0
M  V30 4016 O 367.574 1.65824 1.57209 0
M  V30 4017 C 367.784 3.03686 -1.71976 0
M  V30 4018 C 369.132 3.77542 -1.94286 0
M  V30 4019 O 370.156 3.13569 -1.68976 0
M  V30 4020 O 369.015 4.92506 -2.36855 0
M  V30 4021 H 366.109 0.760011 -0.326056 0
M  V30 4022 H 368.655 1.10813 -1.28525 0
M  V30 4023 H 367.427 2.79754 -2.73594 0
M  V30 4024 H 367.05 3.75332 -1.31194 0
M  V30 4025 N 368.047 0.979072 1.23499 0
M  V30 4026 C 369.324 0.563674 1.87302 0
M  V30 4027 C 369.704 -0.959199 1.88049 0
M  V30 4028 O 369.052 -1.83535 1.36114 0
M  V30 4029 C 369.262 1.16822 3.28867 0
M  V30 4030 C 370.61 1.26014 4.0547 0
M  V30 4031 O 371.634 1.12158 3.38082 0
M  V30 4032 O 370.493 1.48044 5.26066 0
M  V30 4033 H 367.587 0.189602 0.804972 0
M  V30 4034 H 370.133 1.07407 1.31384 0
M  V30 4035 H 368.905 2.21049 3.22883 0
M  V30 4036 H 368.528 0.642564 3.92373 0
M  V30 4037 N 369.525 -1.3858 0.750561 0
M  V30 4038 C 370.455 -2.33102 0.136237 0
M  V30 4039 C 371.436 -1.54713 -0.706965 0
M  V30 4040 O 372.621 -1.83043 -0.648769 0
M  V30 4041 C 369.751 -3.38882 -0.760017 0
M  V30 4042 C 368.705 -4.27995 -0.0197785 0
M  V30 4043 C 368.031 -5.24605 -1.03408 0
M  V30 4044 C 369.331 -5.09554 1.14684 0
M  V30 4045 H 371.025 -2.84726 0.925822 0
M  V30 4046 H 368.571 -1.36898 0.446654 0
M  V30 4047 H 370.524 -4.0397 -1.19943 0
M  V30 4048 H 369.248 -2.85734 -1.58189 0
M  V30 4049 H 367.907 -3.64409 0.400184 0
M  V30 4050 H 367.555 -4.67746 -1.84994 0
M  V30 4051 H 367.255 -5.85081 -0.543464 0
M  V30 4052 H 368.779 -5.9257 -1.47288 0
M  V30 4053 H 370.193 -5.67899 0.785118 0
M  V30 4054 H 368.59 -5.7925 1.56812 0
M  V30 4055 H 369.66 -4.4347 1.96118 0
M  V30 4056 N 371.003 -0.499398 -1.49478 0
M  V30 4057 C 372.228 0.044722 -2.07352 0
M  V30 4058 C 372.653 1.30207 -1.35749 0
M  V30 4059 O 372.011 1.76516 -0.413732 0
M  V30 4060 C 372.059 0.283013 -3.59488 0
M  V30 4061 O 371.163 1.35804 -3.89398 0
M  V30 4062 H 370.504 -0.0255147 -0.66351 0
M  V30 4063 H 373.034 -0.698561 -1.92305 0
M  V30 4064 H 373.044 0.515007 -4.04737 0
M  V30 4065 H 371.719 -0.635636 -4.11014 0
M  V30 4066 H 370.296 1.11113 -3.55961 0
M  V30 4067 N 372.481 1.55866 -0.233164 0
M  V30 4068 C 373.709 2.02998 0.399905 0
M  V30 4069 C 374.124 1.11274 1.52524 0
M  V30 4070 O 373.481 0.124528 1.82075 0
M  V30 4071 C 373.532 3.4958 0.920639 0
M  V30 4072 O 373.253 4.37808 -0.159834 0
M  V30 4073 C 374.754 4.12411 1.62578 0
M  V30 4074 H 371.974 0.664006 0.0966281 0
M  V30 4075 H 374.518 2.0143 -0.353013 0
M  V30 4076 H 372.673 3.51727 1.62379 0
M  V30 4077 H 373.087 5.23981 0.23337 0
M  V30 4078 H 374.561 5.16711 1.94201 0
M  V30 4079 H 375.038 3.5809 2.54299 0
M  V30 4080 H 375.644 4.14148 0.967553 0
M  V30 4081 N 373.959 -0.0401083 1.57549 0
M  V30 4082 C 375.187 -0.745196 1.93014 0
M  V30 4083 C 375.602 -1.6948 0.831984 0
M  V30 4084 O 374.959 -1.81482 -0.192463 0
M  V30 4085 C 375.01 -1.51176 3.28372 0
M  V30 4086 O 374.731 -0.600284 4.33968 0
M  V30 4087 C 376.232 -2.315 3.78051 0
M  V30 4088 H 373.452 -0.210088 0.637263 0
M  V30 4089 H 375.996 -0.000924689 2.045 0
M  V30 4090 H 374.151 -2.20801 3.18317 0
M  V30 4091 H 374.565 -1.13669 5.12035 0
M  V30 4092 H 376.039 -2.80697 4.75303 0
M  V30 4093 H 376.516 -3.12436 3.08675 0
M  V30 4094 H 377.122 -1.66971 3.91153 0
M  V30 4095 N 375.437 -1.54477 -0.31217 0
M  V30 4096 C 376.853 -1.45442 -0.657185 0
M  V30 4097 C 377.053 -0.63653 -1.91182 0
M  V30 4098 O 376.109 -0.139815 -2.52113 0
M  V30 4099 C 377.422 -2.89287 -0.82058 0
M  V30 4100 C 378.97 -2.9926 -0.917188 0
M  V30 4101 C 379.445 -4.44279 -1.11267 0
M  V30 4102 N 380.936 -4.4794 -1.17914 0
M  V30 4103 C 381.671 -5.57318 -1.34848 0
M  V30 4104 N 381.167 -6.76642 -1.48752 0
M  V30 4105 N 382.96 -5.44986 -1.37647 0
M  V30 4106 H 375.111 -2.06129 0.512313 0
M  V30 4107 H 377.374 -0.933088 0.167485 0
M  V30 4108 H 377.08 -3.51687 0.0302604 0
M  V30 4109 H 376.954 -3.36061 -1.71298 0
M  V30 4110 H 379.341 -2.36981 -1.75852 0
M  V30 4111 H 379.422 -2.558 -0.00101257 0
M  V30 4112 H 379.066 -5.07149 -0.27614 0
M  V30 4113 H 378.996 -4.85359 -2.04289 0
M  V30 4114 H 381.487 -3.61969 -1.08567 0
M  V30 4115 H 381.8 -7.55758 -1.61397 0
M  V30 4116 H 380.145 -6.79529 -1.45828 0
M  V30 4117 H 383.336 -4.50715 -1.26388 0
M  V30 4118 H 383.509 -6.3028 -1.50501 0
M  V30 4119 N 376.915 0.57481 -1.46744 0
M  V30 4120 C 378.14 1.36341 -1.56288 0
M  V30 4121 C 378.565 1.86954 -0.207347 0
M  V30 4122 O 377.923 1.62006 0.813871 0
M  V30 4123 C 377.971 2.52147 -2.57787 0
M  V30 4124 O 377.075 3.53834 -2.11838 0
M  V30 4125 H 376.416 0.405713 -0.525636 0
M  V30 4126 H 378.946 0.696453 -1.92382 0
M  V30 4127 H 378.956 2.98958 -2.77648 0
M  V30 4128 H 377.631 2.14663 -3.5622 0
M  V30 4129 H 376.208 3.1345 -2.01999 0
M  V30 4130 N 378.394 1.34581 0.820102 0
M  V30 4131 C 379.622 1.3018 1.60813 0
M  V30 4132 C 380.037 -0.123551 1.88395 0
M  V30 4133 O 379.394 -1.07148 1.47735 0
M  V30 4134 C 379.445 2.09312 2.94739 0
M  V30 4135 O 379.166 3.46288 2.68358 0
M  V30 4136 C 380.667 2.1234 3.89136 0
M  V30 4137 H 377.887 0.447726 0.499782 0
M  V30 4138 H 380.431 1.77237 1.02017 0
M  V30 4139 H 378.586 1.65889 3.50085 0
M  V30 4140 H 379 3.87227 3.53774 0
M  V30 4141 H 380.474 2.72126 4.80262 0
M  V30 4142 H 380.951 1.11854 4.24718 0
M  V30 4143 H 381.557 2.55864 3.39726 0
M  V30 4144 N 379.872 -1.04064 1.18357 0
M  V30 4145 C 381.1 -1.80916 1.00384 0
M  V30 4146 C 381.515 -1.83414 -0.447738 0
M  V30 4147 O 380.872 -1.26962 -1.31099 0
M  V30 4148 C 380.923 -3.26516 1.55144 0
M  V30 4149 O 380.644 -3.2424 2.94618 0
M  V30 4150 C 382.145 -4.20013 1.41789 0
M  V30 4151 H 379.365 -0.569728 0.354474 0
M  V30 4152 H 381.909 -1.31151 1.56906 0
M  V30 4153 H 380.064 -3.73512 1.02798 0
M  V30 4154 H 380.478 -4.15452 3.20156 0
M  V30 4155 H 381.952 -5.20111 1.84901 0
M  V30 4156 H 382.429 -4.37667 0.36661 0
M  V30 4157 H 383.035 -3.78881 1.93207 0
M  V30 4158 N 381.35 -0.985608 -1.22978 0
M  V30 4159 C 382.596 -0.65836 -1.91816 0
M  V30 4160 C 382.929 0.806692 -1.76653 0
M  V30 4161 O 382.204 1.58252 -1.13078 0
M  V30 4162 C 382.487 -1.056 -3.44268 0
M  V30 4163 C 382.34 -2.57906 -3.68516 0
M  V30 4164 C 383.659 -0.603781 -4.35939 0
M  V30 4165 H 380.778 -0.24065 -0.696604 0
M  V30 4166 H 383.42 -1.22783 -1.44998 0
M  V30 4167 H 381.57 -0.571445 -3.84274 0
M  V30 4168 H 383.242 -3.13976 -3.3796 0
M  V30 4169 H 381.485 -3.00305 -3.13048 0
M  V30 4170 H 382.156 -2.80779 -4.75255 0
M  V30 4171 H 384.632 -1.01987 -4.03408 0
M  V30 4172 H 383.508 -0.910383 -5.41298 0
M  V30 4173 H 383.769 0.495761 -4.39312 0
M  V30 4174 N 382.828 1.3818 -0.7579 0
M  V30 4175 C 384.053 2.04827 -0.325679 0
M  V30 4176 C 384.478 1.56788 1.03919 0
M  V30 4177 O 383.836 0.721811 1.66312 0
M  V30 4178 C 383.884 3.58774 -0.362447 0
M  V30 4179 O 382.988 4.07372 0.642033 0
M  V30 4180 H 382.329 0.64833 -0.143402 0
M  V30 4181 H 384.859 1.7677 -1.03023 0
M  V30 4182 H 384.869 4.07434 -0.214844 0
M  V30 4183 H 383.544 3.93096 -1.35824 0
M  V30 4184 H 382.121 3.70068 0.458688 0
M  V30 4185 N 384.306 0.507319 1.49211 0
M  V30 4186 C 385.583 -0.0982702 1.95353 0
M  V30 4187 C 385.963 -1.53516 1.449 0
M  V30 4188 O 385.311 -2.18594 0.66551 0
M  V30 4189 C 385.521 -0.00440283 3.49 0
M  V30 4190 C 386.869 -0.175147 4.24239 0
M  V30 4191 O 387.893 -0.0792891 3.56112 0
M  V30 4192 O 386.752 -0.37276 5.45227 0
M  V30 4193 H 383.846 -0.0918236 0.821887 0
M  V30 4194 H 386.392 0.570307 1.5983 0
M  V30 4195 H 385.164 0.997402 3.78375 0
M  V30 4196 H 384.787 -0.712845 3.91158 0
M  V30 4197 N 385.784 -1.5574 0.241426 0
M  V30 4198 C 387.033 -1.97986 -0.385295 0
M  V30 4199 C 387.346 -1.13267 -1.59468 0
M  V30 4200 O 388.552 -1.45501 -2.2922 0
M  V30 4201 C 387.008 -3.52275 -0.736884 0
M  V30 4202 C 386.616 -4.45726 0.450796 0
M  V30 4203 C 388.36 -4.03189 -1.3281 0
M  V30 4204 C 386.267 -5.91352 0.0756662 0
M  V30 4205 H 385.197 -0.739386 -0.147731 0
M  V30 4206 H 387.848 -1.80308 0.340779 0
M  V30 4207 H 386.23 -3.65628 -1.52094 0
M  V30 4208 H 387.404 -4.44131 1.22819 0
M  V30 4209 H 385.719 -4.05264 0.956573 0
M  V30 4210 H 388.316 -5.09505 -1.62201 0
M  V30 4211 H 388.659 -3.50212 -2.25071 0
M  V30 4212 H 389.192 -3.93141 -0.607069 0
M  V30 4213 H 385.931 -6.48354 0.965272 0
M  V30 4214 H 385.451 -5.96095 -0.665635 0
M  V30 4215 H 387.13 -6.46084 -0.344075 0
M  V30 4216 N 387.262 0.0317525 -1.57568 0
M  V30 4217 C 388.225 1.01783 -2.0536 0
M  V30 4218 C 389.225 1.29203 -0.957253 0
M  V30 4219 O 390.415 1.24251 -1.22095 0
M  V30 4220 C 387.547 2.35137 -2.46827 0
M  V30 4221 H 388.74 0.605062 -2.93733 0
M  V30 4222 H 386.293 0.278514 -1.53799 0
M  V30 4223 H 387.028 2.81168 -1.61602 0
M  V30 4224 H 386.813 2.16566 -3.26866 0
M  V30 4225 H 388.303 3.05938 -2.84239 0
M  V30 4226 N 388.74 1.54641 0.303973 0
M  V30 4227 C 389.986 1.74038 1.04109 0
M  V30 4228 C 390.319 0.523051 1.87024 0
M  V30 4229 O 389.594 -0.479874 1.88487 0
M  V30 4230 C 389.877 3.02761 1.94955 0
M  V30 4231 C 389.73 4.34787 1.1524 0
M  V30 4232 C 391.049 3.27336 2.94175 0
M  V30 4233 H 388.168 0.63323 0.377079 0
M  V30 4234 H 390.81 1.87354 0.316001 0
M  V30 4235 H 388.96 2.9154 2.56782 0
M  V30 4236 H 390.632 4.57922 0.557236 0
M  V30 4237 H 388.875 4.31407 0.455053 0
M  V30 4238 H 389.546 5.21116 1.8205 0
M  V30 4239 H 392.022 3.38148 2.42477 0
M  V30 4240 H 390.898 4.18726 3.54908 0
M  V30 4241 H 391.159 2.45491 3.67677 0
M  V30 4242 N 390.218 -0.567019 1.47046 0
M  V30 4243 C 391.128 -1.70247 1.6141 0
M  V30 4244 C 392.144 -1.66746 0.497157 0
M  V30 4245 O 393.32 -1.86371 0.763389 0
M  V30 4246 C 390.385 -3.06756 1.61561 0
M  V30 4247 C 389.446 -3.21399 2.84607 0
M  V30 4248 C 388.679 -4.51396 2.84741 0
M  V30 4249 O 388.902 -5.36255 1.94388 0
M  V30 4250 O 387.836 -4.69621 3.76483 0
M  V30 4251 H 391.662 -1.61073 2.57467 0
M  V30 4252 H 389.247 -0.735894 1.30019 0
M  V30 4253 H 391.129 -3.8801 1.64396 0
M  V30 4254 H 389.804 -3.16333 0.686684 0
M  V30 4255 H 388.711 -2.39579 2.8732 0
M  V30 4256 H 390.044 -3.16721 3.76761 0
M  V30 4257 N 391.696 -1.35014 -0.812953 0
M  V30 4258 C 392.945 -1.27269 -1.56479 0
M  V30 4259 C 393.258 0.152771 -1.95002 0
M  V30 4260 O 394.464 0.352451 -2.69203 0
M  V30 4261 C 392.92 -2.23159 -2.82362 0
M  V30 4262 C 392.528 -3.71016 -2.511 0
M  V30 4263 C 394.272 -2.24342 -3.60376 0
M  V30 4264 C 392.179 -4.58746 -3.73237 0
M  V30 4265 H 391.109 -0.472829 -0.587324 0
M  V30 4266 H 393.76 -1.6024 -0.894171 0
M  V30 4267 H 392.142 -1.83151 -3.51101 0
M  V30 4268 H 393.316 -4.1962 -1.90409 0
M  V30 4269 H 391.631 -3.72378 -1.86343 0
M  V30 4270 H 394.228 -2.87107 -4.51081 0
M  V30 4271 H 394.571 -1.24542 -3.97234 0
M  V30 4272 H 395.104 -2.62846 -2.98591 0
M  V30 4273 H 391.843 -5.59521 -3.41492 0
M  V30 4274 H 391.363 -4.14871 -4.33176 0
M  V30 4275 H 393.042 -4.73852 -4.40537 0
M  V30 4276 N 393.175 1.03435 -1.18907 0
M  V30 4277 C 394.105 2.13503 -0.945448 0
M  V30 4278 C 395.086 1.69682 0.119189 0
M  V30 4279 O 396.271 1.94169 -0.034707 0
M  V30 4280 C 393.401 3.44004 -0.477316 0
M  V30 4281 C 392.355 4.0148 -1.48316 0
M  V30 4282 C 391.681 5.27537 -0.872311 0
M  V30 4283 C 392.981 4.36921 -2.86177 0
M  V30 4284 H 394.675 2.34141 -1.86597 0
M  V30 4285 H 392.221 1.12523 -0.898584 0
M  V30 4286 H 394.174 4.20372 -0.294204 0
M  V30 4287 H 392.898 3.23072 0.478786 0
M  V30 4288 H 391.557 3.27201 -1.65332 0
M  V30 4289 H 391.205 5.02917 0.0911752 0
M  V30 4290 H 390.905 5.66954 -1.54393 0
M  V30 4291 H 392.429 6.06576 -0.699871 0
M  V30 4292 H 393.843 5.04248 -2.72776 0
M  V30 4293 H 392.24 4.87405 -3.50081 0
M  V30 4294 H 393.31 3.46466 -3.39248 0
M  V30 4295 N 394.653 0.992116 1.22453 0
M  V30 4296 C 395.9 0.667534 1.91181 0
M  V30 4297 C 396.228 -0.800317 1.77271 0
M  V30 4298 O 395.483 -1.59421 1.13505 0
M  V30 4299 C 395.782 1.01832 3.42586 0
M  V30 4300 C 395.448 2.47831 3.76684 0
M  V30 4301 C 394.11 2.87729 3.85701 0
M  V30 4302 C 396.462 3.42466 3.92895 0
M  V30 4303 C 393.79 4.21252 4.08367 0
M  V30 4304 C 396.142 4.75648 4.17064 0
M  V30 4305 C 394.806 5.15288 4.24305 0
M  V30 4306 H 394.076 0.244268 0.699581 0
M  V30 4307 H 396.723 1.24816 1.45235 0
M  V30 4308 H 395.028 0.355769 3.90181 0
M  V30 4309 H 396.725 0.745228 3.94014 0
M  V30 4310 H 393.315 2.15905 3.70247 0
M  V30 4311 H 397.499 3.12814 3.85307 0
M  V30 4312 H 392.755 4.51554 4.122 0
M  V30 4313 H 396.929 5.48924 4.2855 0
M  V30 4314 H 394.556 6.18769 4.41621 0
M  V30 4315 N 396.131 -1.37776 0.765217 0
M  V30 4316 C 397.38 -1.99092 0.323307 0
M  V30 4317 C 397.693 -1.61434 -1.10446 0
M  V30 4318 O 398.899 -2.15805 -1.64743 0
M  V30 4319 C 397.355 -3.56019 0.527098 0
M  V30 4320 C 396.963 -4.0262 1.96471 0
M  V30 4321 C 398.707 -4.2424 0.148483 0
M  V30 4322 C 396.614 -5.52233 2.11644 0
M  V30 4323 H 395.544 -0.744846 0.117137 0
M  V30 4324 H 398.195 -1.57391 0.943417 0
M  V30 4325 H 396.577 -3.95667 -0.162372 0
M  V30 4326 H 397.751 -3.74234 2.68859 0
M  V30 4327 H 396.066 -3.47161 2.29931 0
M  V30 4328 H 398.663 -5.34159 0.240456 0
M  V30 4329 H 399.006 -4.06446 -0.900422 0
M  V30 4330 H 399.539 -3.89872 0.79025 0
M  V30 4331 H 396.278 -5.74945 3.1483 0
M  V30 4332 H 395.798 -5.82324 1.4373 0
M  V30 4333 H 397.477 -6.18106 1.91193 0
M  V30 4334 N 397.609 -0.515225 -1.4894 0
M  V30 4335 C 398.858 0.0261361 -2.01683 0
M  V30 4336 C 399.171 1.36719 -1.39883 0
M  V30 4337 O 400.377 1.99606 -1.84037 0
M  V30 4338 C 398.833 0.0970111 -3.59769 0
M  V30 4339 C 398.441 -1.23825 -4.30548 0
M  V30 4340 C 400.185 0.587981 -4.20408 0
M  V30 4341 C 398.092 -1.12877 -5.80528 0
M  V30 4342 H 397.022 0.0135398 -0.753878 0
M  V30 4343 H 399.673 -0.656787 -1.71343 0
M  V30 4344 H 398.055 0.844694 -3.86886 0
M  V30 4345 H 399.229 -2.00034 -4.15118 0
M  V30 4346 H 397.544 -1.66379 -3.81716 0
M  V30 4347 H 400.141 0.68763 -5.3026 0
M  V30 4348 H 400.484 1.59026 -3.84729 0
M  V30 4349 H 401.017 -0.103582 -3.97665 0
M  V30 4350 H 397.756 -2.10575 -6.20756 0
M  V30 4351 H 397.276 -0.407799 -5.98412 0
M  V30 4352 H 398.955 -0.813332 -6.41868 0
M  V30 4353 N 399.087 1.5561 -0.249682 0
M  V30 4354 C 400.364 1.90932 0.424761 0
M  V30 4355 C 400.744 1.17078 1.75658 0
M  V30 4356 O 400.092 0.289176 2.26663 0
M  V30 4357 C 400.302 3.43975 0.590109 0
M  V30 4358 C 401.65 4.15281 0.884714 0
M  V30 4359 O 402.674 3.49729 0.67587 0
M  V30 4360 O 401.533 5.31236 1.28259 0
M  V30 4361 H 398.627 0.794815 0.228468 0
M  V30 4362 H 401.173 1.67135 -0.293954 0
M  V30 4363 H 399.945 3.89748 -0.34818 0
M  V30 4364 H 399.568 3.73644 1.35926 0
M  V30 4365 N 400.565 -0.0233959 1.57583 0
M  V30 4366 C 401.814 -0.712133 1.8871 0
M  V30 4367 C 402.127 -1.76217 0.848944 0
M  V30 4368 O 403.333 -2.50389 1.04964 0
M  V30 4369 C 401.789 -1.3177 3.3491 0
M  V30 4370 C 401.397 -0.303715 4.46969 0
M  V30 4371 C 403.141 -1.98598 3.75179 0
M  V30 4372 C 401.048 -0.917945 5.84233 0
M  V30 4373 H 399.978 -0.269735 0.704101 0
M  V30 4374 H 402.629 0.0333114 1.8347 0
M  V30 4375 H 401.011 -2.11304 3.34913 0
M  V30 4376 H 402.185 0.465325 4.58445 0
M  V30 4377 H 400.5 0.2628 4.1557 0
M  V30 4378 H 403.097 -2.45416 4.75053 0
M  V30 4379 H 403.44 -2.80659 3.07468 0
M  V30 4380 H 403.973 -1.25831 3.77374 0
M  V30 4381 H 400.712 -0.136633 6.55358 0
M  V30 4382 H 400.232 -1.65669 5.76467 0
M  V30 4383 H 401.911 -1.4236 6.31144 0
M  V30 4384 N 402.043 -1.548 -0.295768 0
M  V30 4385 C 403.292 -1.73538 -1.02798 0
M  V30 4386 C 403.605 -0.531159 -1.8825 0
M  V30 4387 O 404.811 -0.600458 -2.64777 0
M  V30 4388 C 403.267 -3.07051 -1.87744 0
M  V30 4389 C 402.875 -4.34968 -1.07269 0
M  V30 4390 C 404.619 -3.35146 -2.60533 0
M  V30 4391 C 402.526 -5.5953 -1.91521 0
M  V30 4392 H 401.456 -0.646794 -0.387522 0
M  V30 4393 H 404.107 -1.81278 -0.284718 0
M  V30 4394 H 402.489 -2.93289 -2.66078 0
M  V30 4395 H 403.663 -4.5958 -0.335117 0
M  V30 4396 H 401.978 -4.13847 -0.460384 0
M  V30 4397 H 404.575 -4.2541 -3.23929 0
M  V30 4398 H 404.918 -2.54255 -3.29636 0
M  V30 4399 H 405.451 -3.49902 -1.89244 0
M  V30 4400 H 402.19 -6.43103 -1.26878 0
M  V30 4401 H 401.71 -5.39096 -2.62937 0
M  V30 4402 H 403.389 -5.96982 -2.49442 0
M  V30 4403 N 403.521 0.559213 -1.47345 0
M  V30 4404 C 404.451 1.67622 -1.62558 0
M  V30 4405 C 405.432 1.63331 -0.475087 0
M  V30 4406 O 406.617 1.80983 -0.704182 0
M  V30 4407 C 403.747 3.0626 -1.63774 0
M  V30 4408 C 402.701 3.25397 -2.7803 0
M  V30 4409 C 402.027 4.64801 -2.64318 0
M  V30 4410 C 403.327 3.10965 -4.19641 0
M  V30 4411 H 405.021 1.55146 -2.56067 0
M  V30 4412 H 402.567 0.744961 -1.23233 0
M  V30 4413 H 404.52 3.84247 -1.73008 0
M  V30 4414 H 403.244 3.1969 -0.66825 0
M  V30 4415 H 401.903 2.49817 -2.68304 0
M  V30 4416 H 401.551 4.75028 -1.65401 0
M  V30 4417 H 401.251 4.78555 -3.40968 0
M  V30 4418 H 402.775 5.44926 -2.75478 0
M  V30 4419 H 404.189 3.78772 -4.30354 0
M  V30 4420 H 402.586 3.36229 -4.97062 0
M  V30 4421 H 403.656 2.07736 -4.38148 0
M  V30 4422 N 404.999 1.35443 0.805782 0
M  V30 4423 C 405.947 1.28465 1.93906 0
M  V30 4424 C 406.941 0.17943 1.68447 0
M  V30 4425 O 408.147 0.345459 1.76654 0
M  V30 4426 H 404.522 0.399528 0.637088 0
M  V30 4427 H 406.493 2.24206 1.96912 0
M  V30 4428 C 405.242 1.07432 3.30687 0
M  V30 4429 H 404.565 1.91716 3.50835 0
M  V30 4430 H 406.005 1.06591 4.10383 0
M  V30 4431 C 404.464 -0.22179 3.36169 0
M  V30 4432 O 404.994 -1.21731 3.82811 0
M  V30 4433 N 403.2 -0.260841 2.89427 0
M  V30 4434 H 402.747 0.549884 2.51663 0
M  V30 4435 H 402.705 -1.12777 2.93477 0
M  V30 4436 N 406.477 -1.02803 1.19454 0
M  V30 4437 C 407.724 -1.76217 0.997693 0
M  V30 4438 C 408.052 -1.887 -0.47144 0
M  V30 4439 O 407.307 -1.4011 -1.3663 0
M  V30 4440 C 407.606 -3.18941 1.6128 0
M  V30 4441 C 407.272 -3.26463 3.11019 0
M  V30 4442 C 405.934 -3.28223 3.51885 0
M  V30 4443 C 408.286 -3.25542 4.07028 0
M  V30 4444 C 405.614 -3.26719 4.8731 0
M  V30 4445 C 407.966 -3.25579 5.42385 0
M  V30 4446 C 406.63 -3.25637 5.82681 0
M  V30 4447 H 405.9 -0.644823 0.365082 0
M  V30 4448 H 408.547 -1.20655 1.4871 0
M  V30 4449 H 406.852 -3.77587 1.04572 0
M  V30 4450 H 408.549 -3.74415 1.43577 0
M  V30 4451 H 405.139 -3.25822 2.78457 0
M  V30 4452 H 409.323 -3.23362 3.76498 0
M  V30 4453 H 404.579 -3.25089 5.1781 0
M  V30 4454 H 408.753 -3.23817 6.16535 0
M  V30 4455 H 406.38 -3.24226 6.87591 0
M  V30 4456 N 407.956 -0.998596 -1.21925 0
M  V30 4457 C 409.372 -0.710303 -1.42923 0
M  V30 4458 C 409.572 0.716933 -1.88314 0
M  V30 4459 O 408.628 1.48712 -2.04062 0
M  V30 4460 C 409.941 -1.72072 -2.466 0
M  V30 4461 C 411.489 -1.73681 -2.60392 0
M  V30 4462 C 411.964 -2.73601 -3.67296 0
M  V30 4463 N 413.455 -2.7223 -3.7476 0
M  V30 4464 C 414.19 -3.46206 -4.57087 0
M  V30 4465 N 413.686 -4.29802 -5.43362 0
M  V30 4466 N 415.479 -3.34886 -4.51451 0
M  V30 4467 H 407.63 -1.92028 -0.9077 0
M  V30 4468 H 409.893 -0.828487 -0.460775 0
M  V30 4469 H 409.599 -2.74231 -2.20206 0
M  V30 4470 H 409.473 -1.51818 -3.45299 0
M  V30 4471 H 411.86 -0.722173 -2.86127 0
M  V30 4472 H 411.941 -1.98005 -1.61949 0
M  V30 4473 H 411.585 -3.75217 -3.42307 0
M  V30 4474 H 411.515 -2.46545 -4.65321 0
M  V30 4475 H 414.006 -2.11576 -3.1312 0
M  V30 4476 H 414.319 -4.83061 -6.03218 0
M  V30 4477 H 412.664 -4.33887 -5.42925 0
M  V30 4478 H 415.855 -2.69015 -3.83078 0
M  V30 4479 H 416.028 -3.92796 -5.15379 0
M  V30 4480 N 409.434 1.37368 -0.772513 0
M  V30 4481 C 410.662 2.03942 -0.348588 0
M  V30 4482 C 411.077 1.58264 1.02947 0
M  V30 4483 O 410.434 0.764246 1.65727 0
M  V30 4484 C 410.485 3.5946 -0.38351 0
M  V30 4485 O 410.206 4.03468 -1.70721 0
M  V30 4486 C 411.707 4.4327 0.0519152 0
M  V30 4487 H 408.927 0.654931 -0.145966 0
M  V30 4488 H 411.471 1.75686 -1.04665 0
M  V30 4489 H 409.626 3.86486 0.265978 0
M  V30 4490 H 410.04 4.97991 -1.64636 0
M  V30 4491 H 411.514 5.51995 -0.0236733 0
M  V30 4492 H 411.991 4.2514 1.10238 0
M  V30 4493 H 412.597 4.21471 -0.569415 0
M  V30 4494 N 410.912 0.523116 1.48665 0
M  V30 4495 C 412.14 -0.0096312 2.06898 0
M  V30 4496 C 412.555 -1.28784 1.38059 0
M  V30 4497 O 411.912 -1.76453 0.465893 0
M  V30 4498 C 411.963 -0.244386 3.60673 0
M  V30 4499 O 411.684 0.983172 4.26925 0
M  V30 4500 C 413.185 -0.818289 4.35682 0
M  V30 4501 H 410.405 0.0304161 0.67031 0
M  V30 4502 H 412.949 0.726799 1.91149 0
M  V30 4503 H 411.104 -0.930847 3.76051 0
M  V30 4504 H 411.518 0.759653 5.1897 0
M  V30 4505 H 412.992 -0.93201 5.44075 0
M  V30 4506 H 413.469 -1.82153 3.99646 0
M  V30 4507 H 414.075 -0.168609 4.24966 0
M  V30 4508 N 412.39 -1.55475 0.257931 0
M  V30 4509 C 413.62 -2.03314 -0.367026 0
M  V30 4510 C 414.028 -1.13625 -1.51281 0
M  V30 4511 O 413.371 -0.145334 -1.83124 0
M  V30 4512 C 413.433 -3.47362 -0.926284 0
M  V30 4513 C 413.097 -4.56914 0.0886584 0
M  V30 4514 C 414.094 -5.12013 0.902123 0
M  V30 4515 C 411.779 -5.01827 0.217936 0
M  V30 4516 C 413.773 -6.10529 1.83122 0
M  V30 4517 C 411.46 -6.00172 1.15052 0
M  V30 4518 C 412.458 -6.54402 1.95568 0
M  V30 4519 O 412.146 -7.50827 2.87253 0
M  V30 4520 H 411.878 -0.669976 -0.0900443 0
M  V30 4521 H 414.432 -2.01804 0.382673 0
M  V30 4522 H 412.662 -3.46056 -1.72575 0
M  V30 4523 H 414.351 -3.78637 -1.46249 0
M  V30 4524 H 415.117 -4.78139 0.812891 0
M  V30 4525 H 410.996 -4.59272 -0.398721 0
M  V30 4526 H 414.54 -6.52783 2.46008 0
M  V30 4527 H 410.437 -6.33465 1.24064 0
M  V30 4528 H 411.205 -7.68483 2.81739 0
M  V30 4529 N 413.868 0.0150385 -1.57593 0
M  V30 4530 C 415.114 0.704043 -1.90187 0
M  V30 4531 C 415.447 1.74249 -0.857366 0
M  V30 4532 O 414.722 1.94092 0.125843 0
M  V30 4533 C 415.005 1.36087 -3.33395 0
M  V30 4534 C 414.858 0.334981 -4.48551 0
M  V30 4535 C 416.177 2.29112 -3.7576 0
M  V30 4536 H 413.296 0.254475 -0.691673 0
M  V30 4537 H 415.938 -0.0331678 -1.89971 0
M  V30 4538 H 414.088 1.98922 -3.3371 0
M  V30 4539 H 415.76 -0.292534 -4.60372 0
M  V30 4540 H 414.003 -0.344325 -4.32431 0
M  V30 4541 H 414.674 0.833316 -5.45674 0
M  V30 4542 H 417.15 1.76308 -3.76902 0
M  V30 4543 H 416.026 2.72043 -4.76743 0
M  V30 4544 H 416.287 3.16385 -3.08793 0
M  V30 4545 N 415.346 1.54954 0.287554 0
M  V30 4546 C 416.571 1.79209 1.04397 0
M  V30 4547 C 416.996 0.556431 1.79682 0
M  V30 4548 O 416.354 -0.493518 1.74454 0
M  V30 4549 C 416.402 3.00739 1.98969 0
M  V30 4550 O 415.506 2.74805 3.075 0
M  V30 4551 H 414.847 0.592755 0.299227 0
M  V30 4552 H 417.377 2.02068 0.320886 0
M  V30 4553 H 417.387 3.29077 2.4119 0
M  V30 4554 H 416.062 3.90329 1.43582 0
M  V30 4555 H 414.639 2.57523 2.69697 0
M  V30 4556 N 416.824 -0.551391 1.4764 0
M  V30 4557 C 417.771 -1.65796 1.60563 0
M  V30 4558 C 418.741 -1.59932 0.448428 0
M  V30 4559 O 419.926 -1.78679 0.669222 0
M  V30 4560 C 417.066 -3.04108 1.63133 0
M  V30 4561 C 416.179 -3.20365 2.89811 0
M  V30 4562 C 415.314 -4.49109 2.8368 0
M  V30 4563 C 414.353 -4.58819 4.05156 0
M  V30 4564 N 413.49 -5.78926 3.97227 0
M  V30 4565 H 418.33 -1.54088 2.5507 0
M  V30 4566 H 415.867 -0.75052 1.26513 0
M  V30 4567 H 417.825 -3.84207 1.62606 0
M  V30 4568 H 416.455 -3.14637 0.721341 0
M  V30 4569 H 415.507 -2.33659 3.00179 0
M  V30 4570 H 416.819 -3.23402 3.79753 0
M  V30 4571 H 415.973 -5.37475 2.81434 0
M  V30 4572 H 414.712 -4.4856 1.91431 0
M  V30 4573 H 413.717 -3.68864 4.077 0
M  V30 4574 H 414.942 -4.61124 4.98539 0
M  V30 4575 H 412.888 -5.79314 3.07785 0
M  V30 4576 H 412.805 -5.83367 4.80853 0
M  V30 4577 H 414.073 -6.69637 3.99007 0
M  V30 4578 N 418.302 -1.35869 -0.798587 0
M  V30 4579 C 419.527 -1.32883 -1.59238 0
M  V30 4580 C 419.952 0.0894587 -1.87887 0
M  V30 4581 O 419.31 1.05869 -1.47178 0
M  V30 4582 C 419.358 -2.14892 -2.89575 0
M  V30 4583 O 418.462 -1.53512 -3.82763 0
M  V30 4584 H 417.803 -0.455236 -0.48338 0
M  V30 4585 H 420.333 -1.79024 -0.990539 0
M  V30 4586 H 420.343 -2.27139 -3.38928 0
M  V30 4587 H 419.018 -3.17998 -2.68049 0
M  V30 4588 H 417.595 -1.50153 -3.41334 0
M  V30 4589 N 419.78 1.02168 -1.19998 0
M  V30 4590 C 421.028 1.75338 -1.00504 0
M  V30 4591 C 421.349 1.89387 0.464506 0
M  V30 4592 O 420.619 1.43268 1.33608 0
M  V30 4593 H 419.199 0.649564 -0.368885 0
M  V30 4594 H 421.861 1.23205 -1.51018 0
M  V30 4595 H 420.957 2.75892 -1.45912 0
M  V30 4596 N 421.258 1.00505 1.21394 0
M  V30 4597 C 422.19 0.52372 2.23136 0
M  V30 4598 C 423.203 -0.387714 1.58116 0
M  V30 4599 O 424.392 -0.187905 1.77508 0
M  V30 4600 C 421.492 -0.258885 3.3791 0
M  V30 4601 C 420.665 0.651634 4.32519 0
M  V30 4602 C 419.724 -0.0813705 5.26137 0
M  V30 4603 O 418.75 0.537295 5.66658 0
M  V30 4604 N 419.952 -1.35992 5.64346 0
M  V30 4605 H 422.717 1.39865 2.65062 0
M  V30 4606 H 420.278 0.881196 1.35818 0
M  V30 4607 H 422.27 -0.758208 3.97534 0
M  V30 4608 H 420.84 -1.035 2.94968 0
M  V30 4609 H 420.06 1.33145 3.71034 0
M  V30 4610 H 421.348 1.27129 4.92662 0
M  V30 4611 H 420.746 -1.88368 5.33417 0
M  V30 4612 H 419.303 -1.8042 6.26332 0
M  V30 4613 N 422.737 -1.36956 0.779787 0
M  V30 4614 C 423.983 -1.99787 0.348281 0
M  V30 4615 C 424.316 -1.61756 -1.07465 0
M  V30 4616 O 423.591 -0.867639 -1.74075 0
M  V30 4617 C 423.874 -3.56597 0.50104 0
M  V30 4618 C 423.727 -4.04513 1.96697 0
M  V30 4619 C 425.046 -4.40008 -0.0898097 0
M  V30 4620 H 422.165 -0.725796 0.128022 0
M  V30 4621 H 424.807 -1.62514 0.984331 0
M  V30 4622 H 422.957 -3.88479 -0.0404347 0
M  V30 4623 H 424.629 -3.83161 2.56876 0
M  V30 4624 H 422.872 -3.56408 2.47297 0
M  V30 4625 H 423.543 -5.1352 2.02486 0
M  V30 4626 H 426.019 -4.14431 0.372293 0
M  V30 4627 H 424.895 -5.4888 0.0471605 0
M  V30 4628 H 425.156 -4.26035 -1.18096 0
M  V30 4629 N 424.215 -0.530993 -1.48385 0
M  V30 4630 C 425.464 0.00474348 -2.01699 0
M  V30 4631 C 425.777 1.35227 -1.41325 0
M  V30 4632 O 426.983 1.97643 -1.86144 0
M  V30 4633 C 425.439 0.0588473 -3.59852 0
M  V30 4634 C 425.047 -1.28385 -4.2921 0
M  V30 4635 C 426.791 0.543358 -4.21008 0
M  V30 4636 C 424.698 -1.19028 -5.79298 0
M  V30 4637 H 423.628 0.00554317 -0.75398 0
M  V30 4638 H 426.279 -0.674924 -1.70637 0
M  V30 4639 H 424.661 0.803612 -3.8776 0
M  V30 4640 H 425.835 -2.04426 -4.12973 0
M  V30 4641 H 424.15 -1.70418 -3.7993 0
M  V30 4642 H 426.747 0.631351 -5.3096 0
M  V30 4643 H 427.09 1.54937 -3.86394 0
M  V30 4644 H 427.623 -0.145754 -3.97533 0
M  V30 4645 H 424.362 -2.17147 -6.18488 0
M  V30 4646 H 423.882 -0.471246 -5.97946 0
M  V30 4647 H 425.561 -0.881365 -6.40969 0
M  V30 4648 N 425.693 1.55336 -0.266172 0
M  V30 4649 C 426.94 1.99397 0.353158 0
M  V30 4650 C 427.268 1.15451 1.56529 0
M  V30 4651 O 426.523 0.209974 1.9457 0
M  V30 4652 C 426.822 3.48606 0.787957 0
M  V30 4653 C 426.488 4.49773 -0.318541 0
M  V30 4654 C 425.15 4.77158 -0.62239 0
M  V30 4655 C 427.502 5.10212 -1.06459 0
M  V30 4656 C 424.83 5.62251 -1.67602 0
M  V30 4657 C 427.182 5.96449 -2.10788 0
M  V30 4658 C 425.846 6.22158 -2.41817 0
M  V30 4659 H 425.116 0.729644 0.12923 0
M  V30 4660 H 427.763 1.87732 -0.37802 0
M  V30 4661 H 426.068 3.57701 1.59866 0
M  V30 4662 H 427.765 3.80098 1.27775 0
M  V30 4663 H 424.355 4.2854 -0.0715925 0
M  V30 4664 H 428.539 4.89086 -0.843098 0
M  V30 4665 H 423.795 5.80419 -1.92155 0
M  V30 4666 H 427.969 6.42317 -2.69076 0
M  V30 4667 H 425.596 6.87888 -3.23596 0
M  V30 4668 N 427.171 -0.0066808 1.57599 0
M  V30 4669 C 428.081 -1.01671 2.11424 0
M  V30 4670 C 429.097 -1.38143 1.05795 0
M  V30 4671 O 430.273 -1.47011 1.37658 0
M  V30 4672 C 427.338 -2.29192 2.60139 0
M  V30 4673 C 426.399 -1.99094 3.80342 0
M  V30 4674 C 425.632 -3.20535 4.26724 0
M  V30 4675 O 425.855 -4.3199 3.72479 0
M  V30 4676 O 424.789 -3.04924 5.18946 0
M  V30 4677 H 428.615 -0.589181 2.9793 0
M  V30 4678 H 426.2 -0.225091 1.47695 0
M  V30 4679 H 428.082 -3.0412 2.917 0
M  V30 4680 H 426.757 -2.71195 1.76733 0
M  V30 4681 H 425.664 -1.21663 3.53764 0
M  V30 4682 H 426.997 -1.61931 4.648 0
M  V30 4683 N 428.649 -1.55105 -0.279332 0
M  V30 4684 C 429.612 -1.86783 -1.32834 0
M  V30 4685 C 430.612 -0.74199 -1.42657 0
M  V30 4686 O 431.802 -1.0102 -1.41918 0
M  V30 4687 C 428.934 -2.06746 -2.71052 0
M  V30 4688 H 430.127 -2.8055 -1.05979 0
M  V30 4689 H 427.68 -1.47499 -0.517087 0
M  V30 4690 H 428.415 -1.15339 -3.03097 0
M  V30 4691 H 428.2 -2.88711 -2.65309 0
M  V30 4692 H 429.69 -2.32549 -3.46858 0
M  V30 4693 N 430.127 0.543554 -1.4793 0
M  V30 4694 C 431.543 0.870806 -1.3375 0
M  V30 4695 C 431.743 1.9864 -0.338261 0
M  V30 4696 O 430.799 2.51305 0.245371 0
M  V30 4697 C 432.112 1.25114 -2.73435 0
M  V30 4698 C 433.66 1.3618 -2.81823 0
M  V30 4699 C 434.135 1.77563 -4.22179 0
M  V30 4700 N 435.626 1.8469 -4.24787 0
M  V30 4701 C 436.361 2.18067 -5.30315 0
M  V30 4702 N 435.857 2.49963 -6.46135 0
M  V30 4703 N 437.65 2.18958 -5.17701 0
M  V30 4704 H 429.801 -0.19275 -2.11524 0
M  V30 4705 H 432.064 -0.0235777 -0.947707 0
M  V30 4706 H 431.77 0.50514 -3.48053 0
M  V30 4707 H 431.644 2.20431 -3.06088 0
M  V30 4708 H 434.031 2.09859 -2.07468 0
M  V30 4709 H 434.112 0.390169 -2.52807 0
M  V30 4710 H 433.756 1.04449 -4.97044 0
M  V30 4711 H 433.686 2.75753 -4.48629 0
M  V30 4712 H 436.177 1.62372 -3.41239 0
M  V30 4713 H 436.49 2.74497 -7.22406 0
M  V30 4714 H 434.835 2.47513 -6.49432 0
M  V30 4715 H 438.026 1.93488 -4.2624 0
M  V30 4716 H 438.199 2.44639 -6.00047 0
M  V30 4717 N 431.605 1.3629 0.791371 0
M  V30 4718 C 432.83 1.33726 1.58531 0
M  V30 4719 C 433.255 -0.0794933 1.87932 0
M  V30 4720 O 432.613 -1.05087 1.47738 0
M  V30 4721 C 432.661 2.16425 2.88431 0
M  V30 4722 O 431.765 1.5554 3.81944 0
M  V30 4723 H 431.106 0.457793 0.480959 0
M  V30 4724 H 433.636 1.79547 0.981031 0
M  V30 4725 H 433.646 2.28933 3.37718 0
M  V30 4726 H 432.321 3.19415 2.66359 0
M  V30 4727 H 430.898 1.51961 3.40532 0
M  V30 4728 N 433.083 -1.0153 1.20538 0
M  V30 4729 C 434.332 -1.74558 1.01057 0
M  V30 4730 C 434.645 -1.90168 -0.457756 0
M  V30 4731 O 435.851 -2.60301 -0.771722 0
M  V30 4732 C 434.307 -3.13963 1.75941 0
M  V30 4733 C 433.915 -3.06361 3.26875 0
M  V30 4734 C 435.659 -3.91191 1.64832 0
M  V30 4735 C 433.566 -4.40782 3.94291 0
M  V30 4736 H 432.496 -0.654417 0.374505 0
M  V30 4737 H 435.147 -1.13521 1.44171 0
M  V30 4738 H 433.529 -3.75549 1.25614 0
M  V30 4739 H 434.703 -2.54074 3.84425 0
M  V30 4740 H 433.018 -2.42625 3.38411 0
M  V30 4741 H 435.615 -4.90644 2.12539 0
M  V30 4742 H 435.958 -4.11884 0.604745 0
M  V30 4743 H 436.491 -3.36236 2.12579 0
M  V30 4744 H 433.23 -4.25292 4.98805 0
M  V30 4745 H 432.75 -4.9307 3.41529 0
M  V30 4746 H 434.429 -5.09621 3.98617 0
M  V30 4747 N 434.561 -1.01147 -1.20859 0
M  V30 4748 C 435.801 -0.706331 -1.91808 0
M  V30 4749 C 436.165 0.749736 -1.76757 0
M  V30 4750 O 437.366 1.16716 -2.42138 0
M  V30 4751 C 435.637 -1.12371 -3.39275 0
M  V30 4752 S 437.196 -0.939764 -4.28619 0
M  V30 4753 H 434.014 -0.257665 -0.662669 0
M  V30 4754 H 436.616 -1.29766 -1.46223 0
M  V30 4755 H 435.32 -2.17943 -3.47749 0
M  V30 4756 H 434.851 -0.524952 -3.89882 0
M  V30 4757 H 436.866 0.159556 -4.95943 0
M  V30 4758 N 436.039 1.36541 -0.78704 0
M  V30 4759 C 437.288 1.98552 -0.35494 0
M  V30 4760 C 437.601 1.63171 1.07864 0
M  V30 4761 O 438.807 2.18399 1.61289 0
M  V30 4762 C 437.263 3.55136 -0.583671 0
M  V30 4763 C 436.871 3.99444 -2.02851 0
M  V30 4764 C 438.615 4.2395 -0.215957 0
M  V30 4765 C 436.522 5.48796 -2.20403 0
M  V30 4766 H 435.452 0.742888 -0.128972 0
M  V30 4767 H 438.103 1.5587 -0.968337 0
M  V30 4768 H 436.485 3.95875 0.0994046 0
M  V30 4769 H 437.659 3.6991 -2.74779 0
M  V30 4770 H 435.974 3.43459 -2.35425 0
M  V30 4771 H 438.571 5.33709 -0.325405 0
M  V30 4772 H 438.914 4.07827 0.835646 0
M  V30 4773 H 439.447 3.88565 -0.852175 0
M  V30 4774 H 436.186 5.69864 -3.23937 0
M  V30 4775 H 435.706 5.79964 -1.52977 0
M  V30 4776 H 437.385 6.14986 -2.01002 0
M  V30 4777 N 437.518 0.538854 1.48102 0
M  V30 4778 C 438.468 -0.23907 2.26743 0
M  V30 4779 C 439.452 -0.901923 1.33245 0
M  V30 4780 O 440.644 -0.803263 1.57723 0
M  V30 4781 C 437.773 -1.2799 3.18549 0
M  V30 4782 C 436.859 -0.621388 4.19523 0
M  V30 4783 N 437.25 0.298004 5.04921 0
M  V30 4784 C 435.548 -0.877533 4.37282 0
M  V30 4785 C 436.249 0.678757 5.77726 0
M  V30 4786 N 435.225 0.0377881 5.43587 0
M  V30 4787 H 439.027 0.468096 2.90148 0
M  V30 4788 H 436.541 0.357497 1.58416 0
M  V30 4789 H 438.538 -1.851 3.73555 0
M  V30 4790 H 437.198 -1.98835 2.567 0
M  V30 4791 H 438.209 0.671126 5.13533 0
M  V30 4792 H 434.886 -1.57588 3.86616 0
M  V30 4793 H 436.276 1.43316 6.56437 0
M  V30 4794 N 438.996 -1.55193 0.274407 0
M  V30 4795 C 440.226 -2.03692 -0.345442 0
M  V30 4796 C 440.634 -1.15224 -1.50067 0
M  V30 4797 O 439.977 -0.164749 -1.8296 0
M  V30 4798 C 440.039 -3.48325 -0.88939 0
M  V30 4799 C 439.703 -4.56794 0.137115 0
M  V30 4800 C 440.7 -5.11028 0.956378 0
M  V30 4801 C 438.385 -5.01568 0.27115 0
M  V30 4802 C 440.379 -6.08552 1.89587 0
M  V30 4803 C 438.066 -5.98918 1.21412 0
M  V30 4804 C 439.064 -6.52291 2.02498 0
M  V30 4805 O 438.752 -7.47738 2.952 0
M  V30 4806 H 438.484 -0.670893 -0.0829332 0
M  V30 4807 H 441.038 -2.01387 0.404056 0
M  V30 4808 H 439.268 -3.47867 -1.68895 0
M  V30 4809 H 440.957 -3.80167 -1.42225 0
M  V30 4810 H 441.723 -4.7725 0.863559 0
M  V30 4811 H 437.602 -4.5967 -0.349987 0
M  V30 4812 H 441.146 -6.50137 2.52918 0
M  V30 4813 H 437.043 -6.32114 1.30776 0
M  V30 4814 H 437.811 -7.65451 2.89874 0
M  V30 4815 N 440.474 -0.00167713 -1.576 0
M  V30 4816 C 441.72 0.683832 -1.90923 0
M  V30 4817 C 442.053 1.7333 -0.875799 0
M  V30 4818 O 441.328 1.94215 0.10525 0
M  V30 4819 C 441.611 1.32543 -3.3482 0
M  V30 4820 C 441.464 0.287387 -4.48881 0
M  V30 4821 C 442.783 2.25114 -3.78169 0
M  V30 4822 H 439.902 0.247125 -0.694333 0
M  V30 4823 H 442.544 -0.0533149 -1.89925 0
M  V30 4824 H 440.694 1.95372 -3.35801 0
M  V30 4825 H 442.366 -0.341346 -4.60035 0
M  V30 4826 H 440.609 -0.39017 -4.32042 0
M  V30 4827 H 441.28 0.775393 -5.46527 0
M  V30 4828 H 443.756 1.723 -3.7875 0
M  V30 4829 H 442.632 2.66971 -4.79602 0
M  V30 4830 H 442.893 3.13092 -3.12131 0
M  V30 4831 N 441.952 1.55251 0.271103 0
M  V30 4832 C 443.18 1.79974 1.02064 0
M  V30 4833 C 443.595 0.574003 1.79863 0
M  V30 4834 O 442.952 -0.456962 1.76686 0
M  V30 4835 C 443.003 3.02603 1.97772 0
M  V30 4836 O 442.724 4.20443 1.23124 0
M  V30 4837 C 444.225 3.39944 2.84522 0
M  V30 4838 H 441.445 0.599489 0.301419 0
M  V30 4839 H 443.989 2.02268 0.301313 0
M  V30 4840 H 442.144 2.8243 2.65165 0
M  V30 4841 H 442.558 4.89783 1.87651 0
M  V30 4842 H 444.032 4.28915 3.47471 0
M  V30 4843 H 444.509 2.59432 3.54389 0
M  V30 4844 H 445.115 3.62383 2.22618 0
M  V30 4845 N 443.43 -0.535701 1.48216 0
M  V30 4846 C 444.658 -1.31671 1.59594 0
M  V30 4847 C 445.073 -1.87083 0.254056 0
M  V30 4848 O 444.43 -1.66112 -0.755854 0
M  V30 4849 C 444.481 -2.47158 2.63809 0
M  V30 4850 O 444.202 -1.94032 3.92789 0
M  V30 4851 C 445.703 -3.39062 2.85573 0
M  V30 4852 H 442.923 -0.400623 0.538277 0
M  V30 4853 H 445.467 -0.646827 1.94001 0
M  V30 4854 H 443.622 -3.10043 2.32276 0
M  V30 4855 H 444.036 -2.69585 4.49916 0
M  V30 4856 H 445.51 -4.16459 3.62306 0
M  V30 4857 H 445.987 -3.93941 1.94184 0
M  V30 4858 H 446.593 -2.81975 3.18387 0
M  V30 4859 N 444.908 -1.36708 -0.784132 0
M  V30 4860 C 446.154 -1.32433 -1.54379 0
M  V30 4861 C 446.509 0.0941816 -1.92169 0
M  V30 4862 O 445.802 1.04997 -1.60269 0
M  V30 4863 C 445.996 -2.18571 -2.82774 0
M  V30 4864 C 445.825 -3.68656 -2.57533 0
M  V30 4865 C 444.595 -4.37813 -2.52286 0
M  V30 4866 C 446.793 -4.61802 -2.2637 0
M  V30 4867 N 444.775 -5.7351 -2.18997 0
M  V30 4868 C 446.146 -5.85785 -2.03115 0
M  V30 4869 C 448.201 -4.50313 -2.12421 0
M  V30 4870 C 446.904 -6.99569 -1.67321 0
M  V30 4871 C 448.93 -5.63969 -1.78026 0
M  V30 4872 C 448.292 -6.86994 -1.55622 0
M  V30 4873 H 444.391 -0.539886 -0.565727 0
M  V30 4874 H 446.975 -1.71812 -0.915908 0
M  V30 4875 H 445.146 -1.81429 -3.43421 0
M  V30 4876 H 446.878 -2.05646 -3.48557 0
M  V30 4877 H 443.633 -3.90674 -2.67714 0
M  V30 4878 H 444.057 -6.45189 -2.05084 0
M  V30 4879 H 448.699 -3.55781 -2.28429 0
M  V30 4880 H 446.417 -7.94047 -1.5005 0
M  V30 4881 H 450.003 -5.57044 -1.67909 0
M  V30 4882 H 448.883 -7.7345 -1.294 0
M  V30 4883 N 446.386 1.0089 -1.21074 0
M  V30 4884 C 447.633 1.74607 -1.0256 0
M  V30 4885 C 447.961 1.89426 0.44136 0
M  V30 4886 O 447.216 1.42266 1.34384 0
M  V30 4887 C 447.515 3.16335 -1.66334 0
M  V30 4888 C 447.181 3.21474 -3.16173 0
M  V30 4889 C 445.843 3.22583 -3.57062 0
M  V30 4890 C 448.195 3.19025 -4.12156 0
M  V30 4891 C 445.523 3.18925 -4.92446 0
M  V30 4892 C 447.875 3.16909 -5.47496 0
M  V30 4893 C 446.539 3.16326 -5.87787 0
M  V30 4894 H 445.809 0.638933 -0.375294 0
M  V30 4895 H 448.456 1.18274 -1.50611 0
M  V30 4896 H 446.761 3.75876 -1.10566 0
M  V30 4897 H 448.458 3.72083 -1.49516 0
M  V30 4898 H 445.048 3.2135 -2.83605 0
M  V30 4899 H 449.232 3.17332 -3.81595 0
M  V30 4900 H 444.488 3.16809 -5.22917 0
M  V30 4901 H 448.662 3.13968 -6.21609 0
M  V30 4902 H 446.289 3.13246 -6.92662 0
M  V30 4903 N 447.864 1.01787 1.20321 0
M  V30 4904 C 449.113 0.703249 1.89043 0
M  V30 4905 C 449.426 -0.770445 1.79787 0
M  V30 4906 O 450.632 -1.19767 2.43656 0
M  V30 4907 C 449.088 1.20749 3.3904 0
M  V30 4908 C 448.696 2.70817 3.56878 0
M  V30 4909 C 450.44 0.968352 4.13308 0
M  V30 4910 C 448.347 3.14716 5.00708 0
M  V30 4911 H 447.277 0.259354 0.707991 0
M  V30 4912 H 449.928 1.23072 1.36108 0
M  V30 4913 H 448.31 0.607989 3.91305 0
M  V30 4914 H 449.484 3.36327 3.14993 0
M  V30 4915 H 447.799 2.92888 2.95983 0
M  V30 4916 H 450.396 1.27173 5.19356 0
M  V30 4917 H 450.739 -0.095149 4.16191 0
M  V30 4918 H 451.272 1.53129 3.67146 0
M  V30 4919 H 448.011 4.20347 5.02979 0
M  V30 4920 H 447.531 2.53927 5.43398 0
M  V30 4921 H 449.21 3.07426 5.69296 0
M  V30 4922 N 449.342 -1.36122 0.79427 0
M  V30 4923 C 450.591 -1.98361 0.365464 0
M  V30 4924 C 450.904 -1.6374 -1.06997 0
M  V30 4925 O 452.11 -2.19251 -1.60129 0
M  V30 4926 C 450.566 -3.54821 0.602496 0
M  V30 4927 C 450.174 -3.98362 2.04967 0
M  V30 4928 C 451.918 -4.2383 0.238437 0
M  V30 4929 C 449.825 -5.47619 2.2331 0
M  V30 4930 H 448.755 -0.742193 0.13291 0
M  V30 4931 H 451.406 -1.55354 0.976589 0
M  V30 4932 H 449.788 -3.95922 -0.078409 0
M  V30 4933 H 450.962 -3.68447 2.76737 0
M  V30 4934 H 449.277 -3.42206 2.37243 0
M  V30 4935 H 451.874 -5.33529 0.353705 0
M  V30 4936 H 452.217 -4.08264 -0.814006 0
M  V30 4937 H 452.75 -3.88108 0.872769 0
M  V30 4938 H 449.489 -5.68138 3.26955 0
M  V30 4939 H 449.009 -5.79145 1.5605 0
M  V30 4940 H 450.688 -6.13911 2.0426 0
M  V30 4941 N 450.82 -0.546701 -1.47814 0
M  V30 4942 C 452.097 0.0464413 -1.95545 0
M  V30 4943 C 452.477 1.4962 -1.48919 0
M  V30 4944 O 451.825 2.16752 -0.723232 0
M  V30 4945 C 452.035 -0.0881298 -3.48889 0
M  V30 4946 C 453.383 0.0626059 -4.24554 0
M  V30 4947 O 454.407 -0.0151555 -3.56197 0
M  V30 4948 O 453.266 0.228071 -5.46024 0
M  V30 4949 H 450.36 0.0700004 -0.824032 0
M  V30 4950 H 452.906 -0.612482 -1.58262 0
M  V30 4951 H 451.678 -1.09737 -3.75597 0
M  V30 4952 H 451.301 0.608886 -3.9291 0
M  V30 4953 N 452.299 1.55045 -0.282633 0
M  V30 4954 C 453.229 2.2579 0.595066 0
M  V30 4955 C 454.21 1.25074 1.15284 0
M  V30 4956 O 455.395 1.5381 1.18559 0
M  V30 4957 C 452.525 2.98472 1.77572 0
M  V30 4958 C 451.479 4.0618 1.34914 0
M  V30 4959 C 450.805 4.66477 2.6135 0
M  V30 4960 C 452.105 5.1996 0.493821 0
M  V30 4961 H 453.799 2.994 0.00505653 0
M  V30 4962 H 451.345 1.44 0.000992001 0
M  V30 4963 H 453.298 3.46677 2.39568 0
M  V30 4964 H 452.022 2.2241 2.39168 0
M  V30 4965 H 450.681 3.58797 0.752338 0
M  V30 4966 H 450.329 3.87074 3.2122 0
M  V30 4967 H 450.029 5.39207 2.33516 0
M  V30 4968 H 451.553 5.17435 3.24181 0
M  V30 4969 H 452.967 5.64172 1.01898 0
M  V30 4970 H 451.364 5.99299 0.310047 0
M  V30 4971 H 452.434 4.82462 -0.485593 0
M  V30 4972 N 453.777 0.010035 1.57597 0
M  V30 4973 C 455.026 -0.671945 1.90178 0
M  V30 4974 C 455.339 -1.74376 0.886131 0
M  V30 4975 O 456.545 -2.48107 1.10252 0
M  V30 4976 C 455.001 -1.24636 3.3763 0
M  V30 4977 C 454.609 -0.208838 4.47513 0
M  V30 4978 C 456.353 -1.90595 3.79307 0
M  V30 4979 C 454.26 -0.793814 5.86048 0
M  V30 4980 H 453.19 -0.25474 0.709665 0
M  V30 4981 H 455.841 0.0722206 1.83358 0
M  V30 4982 H 454.223 -2.04152 3.3932 0
M  V30 4983 H 455.397 0.562463 4.57354 0
M  V30 4984 H 453.712 0.350889 4.14919 0
M  V30 4985 H 456.309 -2.35284 4.80151 0
M  V30 4986 H 456.652 -2.74074 3.13352 0
M  V30 4987 H 457.185 -1.17798 3.79958 0
M  V30 4988 H 453.924 0.00240855 6.555 0
M  V30 4989 H 453.444 -1.53404 5.79851 0
M  V30 4990 H 455.123 -1.2894 6.34022 0
M  V30 4991 N 455.255 -1.55392 -0.262866 0
M  V30 4992 C 456.218 -1.88181 -1.30846 0
M  V30 4993 C 457.218 -0.757079 -1.41862 0
M  V30 4994 O 458.408 -1.02519 -1.40838 0
M  V30 4995 C 455.54 -2.09609 -2.68844 0
M  V30 4996 H 456.733 -2.81659 -1.02997 0
M  V30 4997 H 454.286 -1.48039 -0.501414 0
M  V30 4998 H 455.021 -1.18547 -3.01856 0
M  V30 4999 H 454.806 -2.91508 -2.62231 0
M  V30 5000 H 456.296 -2.36215 -3.44372 0
M  V30 5001 N 456.733 0.527833 -1.48498 0
M  V30 5002 C 457.696 1.61439 -1.62696 0
M  V30 5003 C 458.696 1.52824 -0.500136 0
M  V30 5004 O 459.886 1.56456 -0.765976 0
M  V30 5005 C 457.018 3.01063 -1.59918 0
M  V30 5006 H 458.211 1.50189 -2.59583 0
M  V30 5007 H 455.764 0.750055 -1.37127 0
M  V30 5008 H 456.499 3.17818 -0.645163 0
M  V30 5009 H 456.284 3.08725 -2.41726 0
M  V30 5010 H 457.774 3.80057 -1.73051 0
M  V30 5011 N 458.211 1.37122 0.776871 0
M  V30 5012 C 459.141 1.35164 1.90402 0
M  V30 5013 C 460.122 0.221069 1.68657 0
M  V30 5014 O 461.307 0.420642 1.8959 0
M  V30 5015 C 458.437 1.15274 3.27611 0
M  V30 5016 C 457.391 2.25289 3.63908 0
M  V30 5017 C 456.717 1.90527 4.99603 0
M  V30 5018 C 458.017 3.67446 3.71188 0
M  V30 5019 H 459.711 2.29482 1.92297 0
M  V30 5020 H 457.257 1.10465 0.923773 0
M  V30 5021 H 459.21 1.12536 4.06096 0
M  V30 5022 H 457.934 0.174102 3.26136 0
M  V30 5023 H 456.593 2.27174 2.87728 0
M  V30 5024 H 456.241 0.91206 4.94662 0
M  V30 5025 H 455.941 2.64193 5.24858 0
M  V30 5026 H 457.465 1.89367 5.80493 0
M  V30 5027 H 458.879 3.67719 4.39836 0
M  V30 5028 H 457.276 4.40123 4.07936 0
M  V30 5029 H 458.346 4.01443 2.71977 0
M  V30 5030 N 459.689 -1.00246 1.21608 0
M  V30 5031 C 461.1 -1.55511 1.03312 0
M  V30 5032 C 461.451 -1.91946 -0.406332 0
M  V30 5033 O 460.576 -1.73753 -1.28992 0
M  V30 5034 C 461.171 -2.82576 1.86913 0
M  V30 5035 C 459.73 -3.34318 1.72941 0
M  V30 5036 C 458.877 -2.07487 1.83968 0
M  V30 5037 H 461.828 -0.824638 1.35593 0
M  V30 5038 H 461.849 -3.54559 1.38087 0
M  V30 5039 H 461.361 -2.56026 2.91672 0
M  V30 5040 H 459.462 -3.65797 0.70877 0
M  V30 5041 H 459.575 -4.05566 2.55055 0
M  V30 5042 H 457.939 -2.20603 1.27304 0
M  V30 5043 H 458.722 -1.83346 2.9024 0
M  V30 5044 N 461.167 -1.02423 -1.1978 0
M  V30 5045 C 462.414 -0.717988 -1.89344 0
M  V30 5046 C 462.742 0.753036 -1.79331 0
M  V30 5047 O 461.997 1.56355 -1.17692 0
M  V30 5048 C 462.296 -1.1088 -3.39765 0
M  V30 5049 C 461.962 -2.57731 -3.6998 0
M  V30 5050 C 460.624 -2.97854 -3.77937 0
M  V30 5051 C 462.976 -3.52763 -3.83677 0
M  V30 5052 C 460.304 -4.31931 -3.97054 0
M  V30 5053 C 462.656 -4.86538 -4.04306 0
M  V30 5054 C 461.32 -5.26356 -4.10494 0
M  V30 5055 H 460.59 -0.26273 -0.692859 0
M  V30 5056 H 463.237 -1.28623 -1.41875 0
M  V30 5057 H 461.542 -0.459094 -3.89101 0
M  V30 5058 H 463.239 -0.849432 -3.919 0
M  V30 5059 H 459.829 -2.25646 -3.64393 0
M  V30 5060 H 464.013 -3.2292 -3.76877 0
M  V30 5061 H 459.269 -4.62324 -4.00083 0
M  V30 5062 H 463.443 -5.60093 -4.13846 0
M  V30 5063 H 461.07 -6.3026 -4.2506 0
M  V30 5064 N 462.645 1.35699 -0.801477 0
M  V30 5065 C 463.922 1.9324 -0.302937 0
M  V30 5066 C 464.302 1.73209 1.20672 0
M  V30 5067 O 463.65 1.09809 2.00385 0
M  V30 5068 C 463.86 3.41728 -0.708747 0
M  V30 5069 C 465.208 4.18868 -0.695328 0
M  V30 5070 O 466.232 3.5022 -0.649971 0
M  V30 5071 O 465.091 5.41342 -0.749081 0
M  V30 5072 H 462.185 0.82331 -0.0780367 0
M  V30 5073 H 464.731 1.44806 -0.884832 0
M  V30 5074 H 463.503 3.50015 -1.74944 0
M  V30 5075 H 463.126 3.97471 -0.101384 0
M  V30 5076 N 464.123 0.554532 1.47522 0
M  V30 5077 C 465.053 -0.182974 2.32782 0
M  V30 5078 C 466.034 -0.911377 1.43624 0
M  V30 5079 O 467.219 -0.892366 1.72483 0
M  V30 5080 C 464.349 -1.21513 3.25349 0
M  V30 5081 C 463.303 -0.603355 4.23726 0
M  V30 5082 C 462.629 -1.73995 5.05598 0
M  V30 5083 C 463.929 0.441121 5.20434 0
M  V30 5084 H 465.623 0.52882 2.94693 0
M  V30 5085 H 463.169 0.255759 1.41711 0
M  V30 5086 H 465.122 -1.73922 3.83835 0
M  V30 5087 H 463.846 -1.95683 2.61487 0
M  V30 5088 H 462.505 -0.10059 3.66462 0
M  V30 5089 H 462.153 -2.47063 4.38143 0
M  V30 5090 H 461.853 -1.3364 5.72201 0
M  V30 5091 H 463.377 -2.26735 5.66942 0
M  V30 5092 H 464.791 0.00319931 5.733 0
M  V30 5093 H 463.188 0.763402 5.95224 0
M  V30 5094 H 464.258 1.33799 4.66075 0
M  V30 5095 N 465.601 -1.54893 0.290851 0
M  V30 5096 C 466.531 -2.26103 -0.583084 0
M  V30 5097 C 467.512 -1.25684 -1.14619 0
M  V30 5098 O 468.697 -1.54436 -1.17741 0
M  V30 5099 C 465.827 -2.99409 -1.75987 0
M  V30 5100 C 464.781 -4.0689 -1.32758 0
M  V30 5101 C 464.107 -4.67856 -2.58872 0
M  V30 5102 C 465.407 -5.20215 -0.46624 0
M  V30 5103 H 467.101 -2.99398 0.0108214 0
M  V30 5104 H 464.647 -1.43998 0.00664468 0
M  V30 5105 H 466.6 -3.47943 -2.37727 0
M  V30 5106 H 465.324 -2.23675 -2.37985 0
M  V30 5107 H 463.983 -3.59191 -0.733299 0
M  V30 5108 H 463.631 -3.88772 -3.19163 0
M  V30 5109 H 463.331 -5.40438 -2.30653 0
M  V30 5110 H 464.855 -5.19147 -3.21433 0
M  V30 5111 H 466.269 -5.64704 -0.989047 0
M  V30 5112 H 464.666 -5.99455 -0.27826 0
M  V30 5113 H 465.736 -4.82198 0.511173 0
M  V30 5114 N 467.08 -0.0183926 -1.57589 0
M  V30 5115 C 468.31 0.67207 -1.95363 0
M  V30 5116 C 468.718 1.66807 -0.892872 0
M  V30 5117 O 468.061 1.83204 0.134958 0
M  V30 5118 C 468.123 1.44397 -3.29226 0
M  V30 5119 C 467.787 0.607511 -4.52944 0
M  V30 5120 C 468.784 -0.112657 -5.19778 0
M  V30 5121 C 466.469 0.548068 -4.99301 0
M  V30 5122 C 468.463 -0.881057 -6.31281 0
M  V30 5123 C 466.15 -0.224044 -6.10689 0
M  V30 5124 C 467.148 -0.937323 -6.76538 0
M  V30 5125 O 466.836 -1.6968 -7.85789 0
M  V30 5126 H 466.568 0.190925 -0.648478 0
M  V30 5127 H 469.122 -0.0711994 -2.05277 0
M  V30 5128 H 467.352 2.23214 -3.15773 0
M  V30 5129 H 469.041 2.02152 -3.51979 0
M  V30 5130 H 469.807 -0.0759998 -4.8494 0
M  V30 5131 H 465.686 1.09281 -4.4786 0
M  V30 5132 H 469.23 -1.43832 -6.82611 0
M  V30 5133 H 465.127 -0.262457 -6.44966 0
M  V30 5134 H 465.895 -1.61544 -8.024 0
M  V30 5135 N 468.558 1.5553 0.254621 0
M  V30 5136 C 469.521 1.88872 1.29846 0
M  V30 5137 C 470.521 0.764591 1.41459 0
M  V30 5138 O 471.711 1.03265 1.40293 0
M  V30 5139 C 468.843 2.11032 2.67728 0
M  V30 5140 H 470.036 2.82201 1.01502 0
M  V30 5141 H 467.589 1.48303 0.493556 0
M  V30 5142 H 468.324 1.20146 3.01223 0
M  V30 5143 H 468.109 2.92895 2.60682 0
M  V30 5144 H 469.599 2.38038 3.43115 0
M  V30 5145 N 470.036 -0.519951 1.48776 0
M  V30 5146 C 471.283 -1.27522 1.57303 0
M  V30 5147 C 471.611 -1.92869 0.251328 0
M  V30 5148 O 470.866 -1.80372 -0.759243 0
M  V30 5149 C 471.165 -2.37864 2.6675 0
M  V30 5150 C 470.831 -1.90103 4.08867 0
M  V30 5151 C 469.493 -1.76795 4.47546 0
M  V30 5152 C 471.845 -1.54133 4.97888 0
M  V30 5153 C 469.173 -1.25868 5.73039 0
M  V30 5154 C 471.525 -1.04665 6.23881 0
M  V30 5155 C 470.189 -0.899823 6.61407 0
M  V30 5156 H 469.459 -0.466636 0.575614 0
M  V30 5157 H 472.106 -0.579109 1.82534 0
M  V30 5158 H 470.411 -3.13186 2.35418 0
M  V30 5159 H 472.108 -2.95969 2.70561 0
M  V30 5160 H 468.698 -2.01414 3.78326 0
M  V30 5161 H 472.882 -1.6327 4.68675 0
M  V30 5162 H 468.138 -1.13196 6.0083 0
M  V30 5163 H 472.312 -0.759074 6.92251 0
M  V30 5164 H 469.939 -0.503011 7.58534 0
M  V30 5165 N 471.514 -1.37532 -0.769588 0
M  V30 5166 C 472.462 -1.33561 -1.90432 0
M  V30 5167 C 473.456 -0.224027 -1.67912 0
M  V30 5168 O 474.662 -0.392174 -1.75676 0
M  V30 5169 H 471.037 -0.416279 -0.626271 0
M  V30 5170 H 473.008 -2.29348 -1.90899 0
M  V30 5171 C 471.757 -1.16162 -3.27722 0
M  V30 5172 H 471.08 -2.00951 -3.45628 0
M  V30 5173 H 472.52 -1.17434 -4.07413 0
M  V30 5174 C 470.979 0.132583 -3.36639 0
M  V30 5175 O 471.509 1.11539 -3.85904 0
M  V30 5176 N 469.715 0.184013 -2.90017 0
M  V30 5177 H 469.262 -0.616415 -2.50116 0
M  V30 5178 H 469.22 1.04956 -2.96364 0
M  V30 5179 N 472.992 0.995999 -1.22138 0
M  V30 5180 C 474.238 1.73767 -1.04561 0
M  V30 5181 C 474.571 1.89633 0.418698 0
M  V30 5182 O 473.846 1.43723 1.3105 0
M  V30 5183 C 474.129 3.14505 -1.75382 0
M  V30 5184 C 473.982 3.06306 -3.29388 0
M  V30 5185 C 475.301 4.13615 -1.50369 0
M  V30 5186 H 472.42 0.630728 -0.38125 0
M  V30 5187 H 475.062 1.16057 -1.50435 0
M  V30 5188 H 473.212 3.63775 -1.36383 0
M  V30 5189 H 474.884 2.64681 -3.77812 0
M  V30 5190 H 473.127 2.43186 -3.59226 0
M  V30 5191 H 473.798 4.05884 -3.74116 0
M  V30 5192 H 476.274 3.73089 -1.84239 0
M  V30 5193 H 475.15 5.10212 -2.02421 0
M  V30 5194 H 475.411 4.39949 -0.435611 0
M  V30 5195 N 474.47 1.03057 1.19235 0
M  V30 5196 C 475.698 0.747697 1.92917 0
M  V30 5197 C 476.113 -0.69372 1.75593 0
M  V30 5198 O 475.47 -1.47191 1.07894 0
M  V30 5199 C 475.521 1.09159 3.44625 0
M  V30 5200 O 475.242 2.47641 3.61394 0
M  V30 5201 C 476.743 0.831763 4.35427 0
M  V30 5202 H 473.963 0.273453 0.612751 0
M  V30 5203 H 476.507 1.37552 1.51327 0
M  V30 5204 H 474.662 0.508919 3.84043 0
M  V30 5205 H 475.076 2.60499 4.55237 0
M  V30 5206 H 476.55 1.12233 5.4047 0
M  V30 5207 H 477.027 -0.233769 4.38577 0
M  V30 5208 H 477.633 1.39725 4.01693 0
M  V30 5209 N 475.948 -1.35272 0.808662 0
M  V30 5210 C 477.194 -1.99003 0.390581 0
M  V30 5211 C 477.527 -1.63999 -1.0401 0
M  V30 5212 O 476.802 -0.904368 -1.72196 0
M  V30 5213 C 477.085 -3.55454 0.576566 0
M  V30 5214 C 476.938 -4.00249 2.05233 0
M  V30 5215 C 478.257 -4.401 0.00354277 0
M  V30 5216 H 475.376 -0.722917 0.143388 0
M  V30 5217 H 478.018 -1.6039 1.01858 0
M  V30 5218 H 476.168 -3.88477 0.0419766 0
M  V30 5219 H 477.84 -3.77626 2.64946 0
M  V30 5220 H 476.083 -3.51082 2.54801 0
M  V30 5221 H 476.754 -5.0911 2.13333 0
M  V30 5222 H 479.23 -4.13548 0.460117 0
M  V30 5223 H 478.106 -5.48656 0.163575 0
M  V30 5224 H 478.367 -4.28444 -1.09032 0
M  V30 5225 N 477.426 -0.562348 -1.47226 0
M  V30 5226 C 478.672 -0.0402761 -2.0276 0
M  V30 5227 C 479.005 1.30823 -1.43523 0
M  V30 5228 O 478.28 1.85249 -0.592705 0
M  V30 5229 C 478.563 0.047311 -3.60069 0
M  V30 5230 C 478.416 -1.32865 -4.29729 0
M  V30 5231 C 479.735 0.758182 -4.3352 0
M  V30 5232 H 476.854 -0.0161105 -0.736824 0
M  V30 5233 H 479.496 -0.725628 -1.75598 0
M  V30 5234 H 477.646 0.630986 -3.83342 0
M  V30 5235 H 479.318 -1.95593 -4.17781 0
M  V30 5236 H 477.561 -1.90195 -3.89882 0
M  V30 5237 H 478.232 -1.22004 -5.38349 0
M  V30 5238 H 480.708 0.262546 -4.15271 0
M  V30 5239 H 479.584 0.78844 -5.43208 0
M  V30 5240 H 479.845 1.81537 -4.03109 0
M  V30 5241 N 478.904 1.54736 -0.299062 0
M  V30 5242 C 480.129 2.04975 0.316254 0
M  V30 5243 C 480.554 1.17501 1.46885 0
M  V30 5244 O 479.912 0.178678 1.80417 0
M  V30 5245 C 479.96 3.52672 0.751997 0
M  V30 5246 O 479.064 3.68226 1.85697 0
M  V30 5247 H 478.405 0.661126 0.0617175 0
M  V30 5248 H 480.935 1.99805 -0.440341 0
M  V30 5249 H 480.945 3.94488 1.04133 0
M  V30 5250 H 479.62 4.158 -0.0911482 0
M  V30 5251 H 478.197 3.38316 1.56834 0
M  V30 5252 N 480.382 0.0267497 1.57577 0
M  V30 5253 C 481.312 -0.954308 2.13108 0
M  V30 5254 C 482.293 -1.34088 1.04663 0
M  V30 5255 O 483.478 -1.41992 1.32484 0
M  V30 5256 C 480.608 -2.23744 2.65624 0
M  V30 5257 C 479.562 -1.99168 3.78835 0
M  V30 5258 C 478.888 -3.33726 4.17769 0
M  V30 5259 C 480.188 -1.33277 5.0501 0
M  V30 5260 H 481.882 -0.491848 2.95332 0
M  V30 5261 H 479.428 -0.23514 1.42067 0
M  V30 5262 H 481.381 -2.92754 3.03106 0
M  V30 5263 H 480.105 -2.72151 1.80558 0
M  V30 5264 H 478.764 -1.32577 3.41788 0
M  V30 5265 H 478.412 -3.79888 3.29688 0
M  V30 5266 H 478.112 -3.18089 4.94058 0
M  V30 5267 H 479.636 -4.04008 4.57832 0
M  V30 5268 H 481.05 -1.92283 5.40093 0
M  V30 5269 H 479.447 -1.28045 5.8628 0
M  V30 5270 H 480.517 -0.305411 4.83937 0
M  V30 5271 N 481.861 -1.55662 -0.24637 0
M  V30 5272 C 483.107 -1.77782 -0.975779 0
M  V30 5273 C 483.44 -0.592103 -1.84953 0
M  V30 5274 O 482.715 0.409588 -1.90138 0
M  V30 5275 C 482.998 -3.09788 -1.83584 0
M  V30 5276 C 482.851 -4.38764 -0.990241 0
M  V30 5277 C 484.17 -3.38029 -2.81823 0
M  V30 5278 H 481.289 -0.646789 -0.353317 0
M  V30 5279 H 483.931 -1.88398 -0.246248 0
M  V30 5280 H 482.081 -3.00869 -2.45784 0
M  V30 5281 H 483.753 -4.59675 -0.386897 0
M  V30 5282 H 481.996 -4.32798 -0.294626 0
M  V30 5283 H 482.667 -5.27514 -1.62584 0
M  V30 5284 H 485.143 -3.46915 -2.2976 0
M  V30 5285 H 484.019 -4.3161 -3.39122 0
M  V30 5286 H 484.28 -2.58968 -3.58313 0
M  V30 5287 N 483.339 0.512053 -1.4905 0
M  V30 5288 C 484.289 1.61142 -1.61298 0
M  V30 5289 C 485.273 1.53908 -0.46916 0
M  V30 5290 O 486.465 1.61625 -0.721547 0
M  V30 5291 C 483.594 2.998 -1.67256 0
M  V30 5292 C 482.68 3.12072 -2.87179 0
M  V30 5293 N 483.071 2.94263 -4.11391 0
M  V30 5294 C 481.369 3.43156 -2.84886 0
M  V30 5295 C 482.07 3.10426 -4.91946 0
M  V30 5296 N 481.046 3.38808 -4.251 0
M  V30 5297 H 484.848 1.46011 -2.55065 0
M  V30 5298 H 482.362 0.717934 -1.45669 0
M  V30 5299 H 484.359 3.78794 -1.74128 0
M  V30 5300 H 483.019 3.1601 -0.746195 0
M  V30 5301 H 484.03 2.70661 -4.41546 0
M  V30 5302 H 480.707 3.65611 -2.01581 0
M  V30 5303 H 482.097 3.01243 -6.00585 0
M  V30 5304 N 484.817 1.37938 0.762283 0
M  V30 5305 C 485.747 1.37176 1.88958 0
M  V30 5306 C 486.728 0.238945 1.68413 0
M  V30 5307 O 487.913 0.440726 1.89133 0
M  V30 5308 C 485.043 1.18742 3.2637 0
M  V30 5309 C 483.997 2.29136 3.61498 0
M  V30 5310 C 483.323 1.95816 4.97554 0
M  V30 5311 C 484.623 3.71363 3.6727 0
M  V30 5312 H 486.317 2.31509 1.89853 0
M  V30 5313 H 483.863 1.11438 0.912005 0
M  V30 5314 H 485.816 1.16837 4.04879 0
M  V30 5315 H 484.54 0.208683 3.25933 0
M  V30 5316 H 483.199 2.30213 2.85303 0
M  V30 5317 H 482.847 0.964475 4.93667 0
M  V30 5318 H 482.547 2.69745 5.22026 0
M  V30 5319 H 484.071 1.95513 5.78452 0
M  V30 5320 H 485.485 3.72364 4.35911 0
M  V30 5321 H 483.882 4.44425 4.03245 0
M  V30 5322 H 484.952 4.04305 2.67704 0
M  V30 5323 N 486.295 -0.989507 1.22664 0
M  V30 5324 C 487.225 -2.09847 1.02404 0
M  V30 5325 C 488.206 -1.70007 -0.0561303 0
M  V30 5326 O 489.391 -1.93906 0.106748 0
M  V30 5327 C 486.521 -3.41996 0.604663 0
M  V30 5328 C 485.475 -3.95699 1.63115 0
M  V30 5329 C 484.801 -5.23936 1.0675 0
M  V30 5330 C 486.101 -4.25999 3.02196 0
M  V30 5331 H 487.795 -2.27054 1.95158 0
M  V30 5332 H 485.341 -1.09111 0.939727 0
M  V30 5333 H 487.294 -4.1899 0.45002 0
M  V30 5334 H 486.018 -3.24626 -0.35855 0
M  V30 5335 H 484.677 -3.2084 1.77362 0
M  V30 5336 H 484.325 -5.02909 0.0955422 0
M  V30 5337 H 484.025 -5.60833 1.75328 0
M  V30 5338 H 485.549 -6.0356 0.924516 0
M  V30 5339 H 486.963 -4.93777 2.91303 0
M  V30 5340 H 485.36 -4.74076 3.67929 0
M  V30 5341 H 486.43 -3.33636 3.51873 0
M  V30 5342 N 487.773 -1.03688 -1.18687 0
M  V30 5343 C 488.72 -0.624624 -2.22187 0
M  V30 5344 C 489.69 0.365636 -1.62026 0
M  V30 5345 O 490.875 0.260481 -1.89014 0
M  V30 5346 C 488.015 0.0101738 -3.45099 0
M  V30 5347 C 487.128 -1.02709 -4.19613 0
M  V30 5348 C 486.263 -0.361213 -5.2997 0
M  V30 5349 C 485.302 -1.38384 -5.96252 0
M  V30 5350 N 484.439 -0.743196 -6.98155 0
M  V30 5351 H 489.279 -1.51176 -2.56807 0
M  V30 5352 H 486.816 -0.75636 -1.26165 0
M  V30 5353 H 488.774 0.395528 -4.15321 0
M  V30 5354 H 487.404 0.860848 -3.1111 0
M  V30 5355 H 486.456 -1.53043 -3.48256 0
M  V30 5356 H 487.768 -1.80398 -4.65036 0
M  V30 5357 H 486.922 0.0785537 -6.06649 0
M  V30 5358 H 485.661 0.447799 -4.8564 0
M  V30 5359 H 484.666 -1.83378 -5.18317 0
M  V30 5360 H 485.891 -2.19448 -6.42666 0
M  V30 5361 H 483.837 0.0455789 -6.55984 0
M  V30 5362 H 483.754 -1.45784 -7.41811 0
M  V30 5363 H 485.022 -0.327698 -7.78811 0
M  V30 5364 N 489.251 1.34841 -0.815825 0
M  V30 5365 C 490.479 2.0273 -0.413294 0
M  V30 5366 C 490.894 1.61459 0.978599 0
M  V30 5367 O 490.251 0.816584 1.63212 0
M  V30 5368 C 490.302 3.58058 -0.497676 0
M  V30 5369 O 490.023 3.97832 -1.8347 0
M  V30 5370 C 491.524 4.4321 -0.0891339 0
M  V30 5371 H 488.744 0.649956 -0.166728 0
M  V30 5372 H 491.288 1.72267 -1.10201 0
M  V30 5373 H 489.443 3.87136 0.142886 0
M  V30 5374 H 489.857 4.92501 -1.80396 0
M  V30 5375 H 491.331 5.5164 -0.199274 0
M  V30 5376 H 491.808 4.28432 0.966571 0
M  V30 5377 H 492.414 4.19446 -0.703214 0
M  V30 5378 N 490.729 0.570148 1.46925 0
M  V30 5379 C 491.975 0.0510284 2.02736 0
M  V30 5380 C 492.308 -1.3006 1.44215 0
M  V30 5381 O 491.583 -1.84932 0.602521 0
M  V30 5382 C 491.866 -0.028215 3.60089 0
M  V30 5383 C 491.719 1.35142 4.29018 0
M  V30 5384 C 493.038 -0.735181 4.33916 0
M  V30 5385 H 490.157 0.0200178 0.736728 0
M  V30 5386 H 492.799 0.73493 1.75211 0
M  V30 5387 H 490.949 -0.610648 3.83671 0
M  V30 5388 H 492.621 1.97806 4.16738 0
M  V30 5389 H 490.864 1.9226 3.88868 0
M  V30 5390 H 491.535 1.24857 5.37694 0
M  V30 5391 H 494.011 -0.240519 4.15404 0
M  V30 5392 H 492.887 -0.759622 5.43618 0
M  V30 5393 H 493.148 -1.79397 4.04066 0
M  V30 5394 N 492.207 -1.54576 0.307264 0
M  V30 5395 C 493.623 -1.59534 -0.0459251 0
M  V30 5396 C 493.823 -1.32414 -1.51884 0
M  V30 5397 O 492.879 -1.1006 -2.27251 0
M  V30 5398 C 494.192 -2.98566 0.357649 0
M  V30 5399 C 495.74 -3.11491 0.306937 0
M  V30 5400 C 496.215 -4.52842 0.685427 0
M  V30 5401 N 497.706 -4.58782 0.638203 0
M  V30 5402 C 498.441 -5.66238 0.903458 0
M  V30 5403 N 497.937 -6.81703 1.23501 0
M  V30 5404 N 499.73 -5.55937 0.830102 0
M  V30 5405 H 491.881 -1.70464 1.26712 0
M  V30 5406 H 494.144 -0.79647 0.514139 0
M  V30 5407 H 493.85 -3.23356 1.38325 0
M  V30 5408 H 493.724 -3.76117 -0.285565 0
M  V30 5409 H 496.111 -2.86446 -0.709424 0
M  V30 5410 H 496.192 -2.36081 0.984861 0
M  V30 5411 H 495.836 -4.78618 1.69963 0
M  V30 5412 H 495.766 -5.26598 -0.0146346 0
M  V30 5413 H 498.257 -3.75849 0.393138 0
M  V30 5414 H 498.57 -7.59582 1.42322 0
M  V30 5415 H 496.915 -6.8324 1.27311 0
M  V30 5416 H 500.106 -4.64608 0.570693 0
M  V30 5417 H 500.279 -6.39597 1.04019 0
M  V30 5418 N 493.685 -0.035106 -1.57561 0
M  V30 5419 C 494.615 0.942993 -2.13612 0
M  V30 5420 C 495.596 1.33531 -1.05373 0
M  V30 5421 O 496.781 1.41287 -1.33235 0
M  V30 5422 C 493.911 2.22332 -2.66807 0
M  V30 5423 C 492.865 1.97156 -3.79886 0
M  V30 5424 C 492.191 3.31506 -4.19533 0
M  V30 5425 C 493.491 1.30596 -5.05709 0
M  V30 5426 H 495.185 0.476179 -2.95589 0
M  V30 5427 H 492.731 0.227602 -1.4219 0
M  V30 5428 H 494.684 2.91142 -3.04654 0
M  V30 5429 H 493.408 2.7119 -1.81999 0
M  V30 5430 H 492.067 1.30763 -3.42486 0
M  V30 5431 H 491.715 3.78134 -3.31698 0
M  V30 5432 H 491.415 3.15465 -4.95738 0
M  V30 5433 H 492.939 4.01574 -4.59968 0
M  V30 5434 H 494.353 1.89416 -5.41105 0
M  V30 5435 H 492.75 1.24934 -5.86951 0
M  V30 5436 H 493.82 0.279742 -4.84092 0
M  V30 5437 N 495.163 1.55791 0.238111 0
M  V30 5438 C 496.093 1.94068 1.29846 0
M  V30 5439 C 497.074 0.806726 1.49753 0
M  V30 5440 O 498.259 1.06772 1.62214 0
M  V30 5441 C 495.389 2.24302 2.65153 0
M  V30 5442 C 494.343 3.40032 2.59927 0
M  V30 5443 C 493.669 3.55829 3.99111 0
M  V30 5444 C 494.969 4.75476 2.16148 0
M  V30 5445 H 496.663 2.82887 0.980563 0
M  V30 5446 H 494.209 1.36105 0.470253 0
M  V30 5447 H 496.162 2.4967 3.39475 0
M  V30 5448 H 494.886 1.32318 2.98596 0
M  V30 5449 H 493.545 3.14687 1.88063 0
M  V30 5450 H 493.193 2.6125 4.29834 0
M  V30 5451 H 492.893 4.3366 3.96501 0
M  V30 5452 H 494.417 3.83528 4.7512 0
M  V30 5453 H 495.831 5.00158 2.80205 0
M  V30 5454 H 494.228 5.56472 2.24631 0
M  V30 5455 H 495.298 4.71946 1.11333 0
M  V30 5456 N 496.642 -0.504142 1.49319 0
M  V30 5457 C 498.058 -0.835039 1.36012 0
M  V30 5458 C 498.258 -1.97674 0.390808 0
M  V30 5459 O 497.314 -2.51867 -0.178655 0
M  V30 5460 C 498.627 -1.17821 2.76656 0
M  V30 5461 C 500.175 -1.2866 2.85334 0
M  V30 5462 C 500.65 -1.66307 4.26739 0
M  V30 5463 N 502.141 -1.73362 4.29534 0
M  V30 5464 C 502.876 -2.0393 5.35911 0
M  V30 5465 N 502.372 -2.32744 6.52535 0
M  V30 5466 N 504.165 -2.05155 5.23324 0
M  V30 5467 H 496.316 0.248764 2.10938 0
M  V30 5468 H 498.579 0.0486962 0.946748 0
M  V30 5469 H 498.285 -0.412682 3.4927 0
M  V30 5470 H 498.159 -2.12239 3.11825 0
M  V30 5471 H 500.546 -2.04285 2.1296 0
M  V30 5472 H 500.627 -0.323004 2.53752 0
M  V30 5473 H 500.271 -0.91234 4.99639 0
M  V30 5474 H 500.201 -2.63761 4.55782 0
M  V30 5475 H 502.692 -1.53268 3.45424 0
M  V30 5476 H 503.005 -2.55248 7.2943 0
M  V30 5477 H 501.35 -2.30207 6.55767 0
M  V30 5478 H 504.541 -1.82119 4.3122 0
M  V30 5479 H 504.714 -2.28644 6.06322 0
M  V30 5480 N 498.12 -1.38341 -0.754957 0
M  V30 5481 C 499.05 -1.38176 -1.88227 0
M  V30 5482 C 500.031 -0.247873 -1.68284 0
M  V30 5483 O 501.216 -0.45075 -1.88896 0
M  V30 5484 C 498.346 -1.20471 -3.25736 0
M  V30 5485 C 497.3 -2.3105 -3.60278 0
M  V30 5486 C 496.626 -1.98452 -4.96509 0
M  V30 5487 C 497.926 -3.73305 -3.65295 0
M  V30 5488 H 499.62 -2.32512 -1.88622 0
M  V30 5489 H 497.166 -1.1192 -0.906082 0
M  V30 5490 H 499.119 -1.18982 -4.04254 0
M  V30 5491 H 497.843 -0.225965 -3.25817 0
M  V30 5492 H 496.502 -2.31723 -2.84078 0
M  V30 5493 H 496.15 -0.990641 -4.93148 0
M  V30 5494 H 495.85 -2.7251 -5.20588 0
M  V30 5495 H 497.374 -1.98578 -5.77407 0
M  V30 5496 H 498.788 -3.7467 -4.3393 0
M  V30 5497 H 497.185 -4.46557 -4.00883 0
M  V30 5498 H 498.255 -4.05719 -2.65556 0
M  V30 5499 N 499.598 0.982988 -1.23187 0
M  V30 5500 C 500.528 2.09301 -1.03515 0
M  V30 5501 C 501.509 1.70035 0.0471136 0
M  V30 5502 O 502.694 1.93847 -0.117029 0
M  V30 5503 C 499.824 3.4167 -0.622791 0
M  V30 5504 C 498.778 3.94828 -1.65211 0
M  V30 5505 C 498.104 5.23362 -1.09527 0
M  V30 5506 C 499.404 4.2439 -3.04451 0
M  V30 5507 H 501.098 2.26016 -1.96359 0
M  V30 5508 H 498.644 1.08611 -0.945501 0
M  V30 5509 H 500.597 4.18746 -0.472233 0
M  V30 5510 H 499.321 3.24811 0.341329 0
M  V30 5511 H 497.98 3.19895 -1.79061 0
M  V30 5512 H 497.628 5.02852 -0.122211 0
M  V30 5513 H 497.328 5.59895 -1.783 0
M  V30 5514 H 498.852 6.03062 -0.956511 0
M  V30 5515 H 500.266 4.92225 -2.93917 0
M  V30 5516 H 498.663 4.72118 -3.70438 0
M  V30 5517 H 499.733 3.31765 -3.53638 0
M  V30 5518 N 501.076 1.04316 1.18135 0
M  V30 5519 C 502.492 0.762858 1.40188 0
M  V30 5520 C 502.692 -0.646547 1.90846 0
M  V30 5521 O 501.748 -1.41036 2.0944 0
M  V30 5522 C 503.061 1.81106 2.40044 0
M  V30 5523 C 504.609 1.83226 2.53766 0
M  V30 5524 C 505.084 2.87044 3.56889 0
M  V30 5525 N 506.575 2.85951 3.64398 0
M  V30 5526 C 507.31 3.62932 4.43923 0
M  V30 5527 N 506.806 4.49672 5.27036 0
M  V30 5528 N 508.599 3.51411 4.38711 0
M  V30 5529 H 500.75 1.95264 0.835805 0
M  V30 5530 H 503.013 0.845017 0.429709 0
M  V30 5531 H 502.719 2.82214 2.09876 0
M  V30 5532 H 502.593 1.64529 3.39426 0
M  V30 5533 H 504.98 0.827869 2.8325 0
M  V30 5534 H 505.061 2.03879 1.54489 0
M  V30 5535 H 504.705 3.87663 3.28145 0
M  V30 5536 H 504.635 2.63645 4.5585 0
M  V30 5537 H 507.126 2.23051 3.05052 0
M  V30 5538 H 507.439 5.05116 5.84874 0
M  V30 5539 H 505.784 4.53738 5.26447 0
M  V30 5540 H 508.975 2.83047 3.72829 0
M  V30 5541 H 509.148 4.11654 5.00445 0
M  V30 5542 N 502.554 -1.34406 0.822964 0
M  V30 5543 C 503.484 -2.32052 0.259608 0
M  V30 5544 C 504.465 -1.58243 -0.623961 0
M  V30 5545 O 505.65 -1.86224 -0.55083 0
M  V30 5546 C 502.78 -3.42434 -0.579314 0
M  V30 5547 C 501.734 -4.27499 0.20712 0
M  V30 5548 C 501.06 -5.29349 -0.754547 0
M  V30 5549 C 502.36 -5.02758 1.41533 0
M  V30 5550 H 504.054 -2.79418 1.07545 0
M  V30 5551 H 501.6 -1.34338 0.518593 0
M  V30 5552 H 503.553 -4.0976 -0.983612 0
M  V30 5553 H 502.277 -2.93717 -1.4282 0
M  V30 5554 H 500.936 -3.61776 0.592787 0
M  V30 5555 H 500.584 -4.76895 -1.59939 0
M  V30 5556 H 500.284 -5.8714 -0.232561 0
M  V30 5557 H 501.808 -5.99544 -1.1567 0
M  V30 5558 H 503.222 -5.62938 1.08504 0
M  V30 5559 H 501.619 -5.70123 1.87296 0
M  V30 5560 H 502.689 -4.32451 2.1935 0
M  V30 5561 N 504.032 -0.577932 -1.46621 0
M  V30 5562 C 504.962 0.145917 -2.33044 0
M  V30 5563 C 505.943 0.888412 -1.45056 0
M  V30 5564 O 507.128 0.864812 -1.73881 0
M  V30 5565 C 504.258 1.16322 -3.27241 0
M  V30 5566 C 503.212 0.535868 -4.24632 0
M  V30 5567 C 502.538 1.65929 -5.08303 0
M  V30 5568 C 503.838 -0.523861 -5.19666 0
M  V30 5569 H 505.532 -0.575636 -2.93814 0
M  V30 5570 H 503.078 -0.278272 -1.41286 0
M  V30 5571 H 505.031 1.67793 -3.86553 0
M  V30 5572 H 503.755 1.91498 -2.64567 0
M  V30 5573 H 502.414 0.0422759 -3.66576 0
M  V30 5574 H 502.062 2.40061 -4.42018 0
M  V30 5575 H 501.762 1.2452 -5.74255 0
M  V30 5576 H 503.286 2.17686 -5.70478 0
M  V30 5577 H 504.7 -0.0944059 -5.73222 0
M  V30 5578 H 503.097 -0.858 -5.93935 0
M  V30 5579 H 504.167 -1.41197 -4.63887 0
M  V30 5580 N 505.51 1.54411 -0.315457 0
M  V30 5581 C 506.442 2.21527 0.588067 0
M  V30 5582 C 507.455 1.21263 1.08624 0
M  V30 5583 O 508.644 1.47777 1.00121 0
M  V30 5584 C 505.744 2.85963 1.81875 0
M  V30 5585 C 504.917 4.12291 1.46063 0
M  V30 5586 C 503.976 4.60396 2.54799 0
M  V30 5587 O 503.002 5.25265 2.19283 0
M  V30 5588 N 504.204 4.33935 3.85591 0
M  V30 5589 H 506.969 2.99697 0.013414 0
M  V30 5590 H 504.53 1.61308 -0.138295 0
M  V30 5591 H 506.522 3.15071 2.53993 0
M  V30 5592 H 505.092 2.11548 2.30144 0
M  V30 5593 H 504.312 3.90036 0.571445 0
M  V30 5594 H 505.6 4.9452 1.19695 0
M  V30 5595 H 504.998 3.81996 4.17248 0
M  V30 5596 H 503.555 4.67718 4.53964 0
M  V30 5597 N 506.988 0.0434614 1.5754 0
M  V30 5598 C 507.935 -0.93356 2.11077 0
M  V30 5599 C 508.905 -1.31383 1.01626 0
M  V30 5600 O 510.09 -1.40465 1.29129 0
M  V30 5601 C 507.23 -2.20578 2.65404 0
M  V30 5602 C 506.343 -1.88068 3.88914 0
M  V30 5603 C 505.478 -3.09691 4.31584 0
M  V30 5604 C 504.517 -2.73067 5.47815 0
M  V30 5605 N 503.654 -3.87359 5.85574 0
M  V30 5606 H 508.494 -0.470118 2.94268 0
M  V30 5607 H 506.031 -0.220434 1.45439 0
M  V30 5608 H 507.989 -2.95011 2.94999 0
M  V30 5609 H 506.619 -2.64513 1.85021 0
M  V30 5610 H 505.671 -1.03816 3.6596 0
M  V30 5611 H 506.983 -1.57104 4.73413 0
M  V30 5612 H 506.137 -3.92431 4.62691 0
M  V30 5613 H 504.876 -3.43827 3.45882 0
M  V30 5614 H 503.881 -1.88742 5.16388 0
M  V30 5615 H 505.106 -2.40131 6.35227 0
M  V30 5616 H 503.052 -4.21311 5.02825 0
M  V30 5617 H 502.969 -3.60068 6.64746 0
M  V30 5618 H 504.237 -4.70761 6.21292 0
M  V30 5619 N 508.466 -1.55915 -0.229846 0
M  V30 5620 C 509.396 -1.94754 -1.28815 0
M  V30 5621 C 510.377 -0.814657 -1.49323 0
M  V30 5622 O 511.562 -1.07631 -1.61645 0
M  V30 5623 C 508.692 -2.25705 -2.63959 0
M  V30 5624 C 507.646 -3.41406 -2.5812 0
M  V30 5625 C 506.972 -3.57941 -3.97218 0
M  V30 5626 C 508.272 -4.76616 -2.13623 0
M  V30 5627 H 509.966 -2.83404 -0.965547 0
M  V30 5628 H 507.512 -1.36353 -0.463028 0
M  V30 5629 H 509.465 -2.51467 -3.38146 0
M  V30 5630 H 508.189 -1.339 -2.9789 0
M  V30 5631 H 506.848 -3.1568 -1.86391 0
M  V30 5632 H 506.496 -2.63526 -4.28443 0
M  V30 5633 H 506.196 -4.35757 -3.94195 0
M  V30 5634 H 507.72 -3.86042 -4.73079 0
M  V30 5635 H 509.134 -5.01637 -2.77549 0
M  V30 5636 H 507.531 -5.57655 -2.21677 0
M  V30 5637 H 508.601 -4.7253 -1.08829 0
M  V30 5638 N 509.944 0.496216 -1.49584 0
M  V30 5639 C 511.221 1.25755 -1.49816 0
M  V30 5640 C 511.601 2.09859 -0.228572 0
M  V30 5641 O 510.949 2.14449 0.788908 0
M  V30 5642 C 511.159 2.11017 -2.7798 0
M  V30 5643 C 512.507 2.70047 -3.27658 0
M  V30 5644 O 513.531 2.21281 -2.79129 0
M  V30 5645 O 512.39 3.58834 -4.1219 0
M  V30 5646 H 509.484 0.569322 -0.599834 0
M  V30 5647 H 512.03 0.510094 -1.61852 0
M  V30 5648 H 510.802 1.48879 -3.61871 0
M  V30 5649 H 510.425 2.92947 -2.68827 0
M  V30 5650 N 511.423 1.38739 0.74761 0
M  V30 5651 C 512.839 1.20067 1.05148 0
M  V30 5652 C 513.039 0.0534835 2.01429 0
M  V30 5653 O 512.095 -0.59886 2.45296 0
M  V30 5654 C 513.408 2.52957 1.62584 0
M  V30 5655 C 514.956 2.59692 1.74726 0
M  V30 5656 C 515.431 3.92772 2.35573 0
M  V30 5657 N 516.922 3.94343 2.42997 0
M  V30 5658 C 517.657 4.9408 2.90985 0
M  V30 5659 N 517.153 6.04214 3.38965 0
M  V30 5660 N 518.946 4.81466 2.9008 0
M  V30 5661 H 511.097 2.12121 0.108808 0
M  V30 5662 H 513.36 0.941491 0.110899 0
M  V30 5663 H 513.066 3.37389 0.993051 0
M  V30 5664 H 512.94 2.71779 2.61565 0
M  V30 5665 H 515.327 1.75651 2.3713 0
M  V30 5666 H 515.408 2.44731 0.744326 0
M  V30 5667 H 515.052 4.77238 1.738 0
M  V30 5668 H 514.982 4.05046 3.36519 0
M  V30 5669 H 517.473 3.14799 2.0907 0
M  V30 5670 H 517.786 6.76241 3.74056 0
M  V30 5671 H 516.131 6.07825 3.37007 0
M  V30 5672 H 519.322 3.94535 2.51912 0
M  V30 5673 H 519.495 5.59344 3.27166 0
M  V30 5674 N 512.901 -0.976442 1.23707 0
M  V30 5675 C 514.131 -1.75087 1.09673 0
M  V30 5676 C 514.539 -1.85852 -0.354344 0
M  V30 5677 O 513.882 -1.33985 -1.25673 0
M  V30 5678 C 513.944 -3.19272 1.65245 0
M  V30 5679 C 513.608 -3.32004 3.14042 0
M  V30 5680 C 514.605 -3.18017 4.11292 0
M  V30 5681 C 512.29 -3.56525 3.53829 0
M  V30 5682 C 514.284 -3.28363 5.46312 0
M  V30 5683 C 511.971 -3.6651 4.88993 0
M  V30 5684 C 512.969 -3.52439 5.85043 0
M  V30 5685 O 512.657 -3.62063 7.1775 0
M  V30 5686 H 512.389 -0.556164 0.384262 0
M  V30 5687 H 514.943 -1.23518 1.64111 0
M  V30 5688 H 513.173 -3.72107 1.05231 0
M  V30 5689 H 514.862 -3.7849 1.46629 0
M  V30 5690 H 515.628 -2.98966 3.81896 0
M  V30 5691 H 511.507 -3.66547 2.79579 0
M  V30 5692 H 515.051 -3.17297 6.21263 0
M  V30 5693 H 510.948 -3.85072 5.18063 0
M  V30 5694 H 511.716 -3.78833 7.25553 0
M  V30 5695 N 514.379 -1.04941 -1.1758 0
M  V30 5696 C 515.604 -0.778253 -1.92245 0
M  V30 5697 C 516.029 0.659707 -1.76152 0
M  V30 5698 O 515.387 1.45803 -1.07755 0
M  V30 5699 C 515.435 -1.16051 -3.41416 0
M  V30 5700 O 514.539 -0.291153 -4.11371 0
M  V30 5701 H 513.88 -0.285619 -0.599431 0
M  V30 5702 H 516.41 -1.40159 -1.49052 0
M  V30 5703 H 516.42 -1.12619 -3.92149 0
M  V30 5704 H 515.095 -2.208 -3.52449 0
M  V30 5705 H 513.672 -0.385851 -3.70898 0
M  V30 5706 N 515.857 1.33968 -0.830081 0
M  V30 5707 C 516.789 2.28194 -0.21448 0
M  V30 5708 C 517.802 1.5135 0.599752 0
M  V30 5709 O 518.991 1.73286 0.42826 0
M  V30 5710 C 516.091 3.31221 0.717356 0
M  V30 5711 C 515.264 4.37365 -0.055613 0
M  V30 5712 C 514.323 5.2011 0.798231 0
M  V30 5713 O 513.349 5.68691 0.240616 0
M  V30 5714 N 514.551 5.40523 2.11695 0
M  V30 5715 H 517.316 2.81662 -1.02405 0
M  V30 5716 H 514.877 1.46568 -0.687713 0
M  V30 5717 H 516.869 3.83477 1.29334 0
M  V30 5718 H 515.439 2.78095 1.42765 0
M  V30 5719 H 514.659 3.85727 -0.812936 0
M  V30 5720 H 515.947 5.05397 -0.587444 0
M  V30 5721 H 515.345 5.0274 2.59363 0
M  V30 5722 H 513.902 5.95871 2.64162 0
M  V30 5723 N 517.335 0.585699 1.46312 0
M  V30 5724 C 518.285 -0.166813 2.27389 0
M  V30 5725 C 519.269 -0.859076 1.36047 0
M  V30 5726 O 520.461 -0.752678 1.60199 0
M  V30 5727 C 517.59 -1.17791 3.2246 0
M  V30 5728 C 516.676 -0.487605 4.21288 0
M  V30 5729 N 517.067 0.45849 5.03718 0
M  V30 5730 C 515.365 -0.737971 4.39852 0
M  V30 5731 C 516.066 0.862213 5.75275 0
M  V30 5732 N 515.042 0.210707 5.43191 0
M  V30 5733 H 518.844 0.560167 2.88512 0
M  V30 5734 H 516.358 0.407715 1.57199 0
M  V30 5735 H 518.355 -1.73122 3.79255 0
M  V30 5736 H 517.015 -1.90568 2.62896 0
M  V30 5737 H 518.026 0.834163 5.11138 0
M  V30 5738 H 514.703 -1.45209 3.91434 0
M  V30 5739 H 516.093 1.64128 6.51546 0
M  V30 5740 N 518.813 -1.54241 0.323641 0
M  V30 5741 C 520.038 -2.05452 -0.283605 0
M  V30 5742 C 520.463 -1.19823 -1.44997 0
M  V30 5743 O 519.821 -0.207358 -1.8011 0
M  V30 5744 C 519.869 -3.53823 -0.695795 0
M  V30 5745 O 518.973 -3.71134 -1.79815 0
M  V30 5746 H 518.314 -0.662024 -0.0511917 0
M  V30 5747 H 520.844 -1.99079 0.472073 0
M  V30 5748 H 520.854 -3.96094 -0.978434 0
M  V30 5749 H 519.529 -4.15602 0.157287 0
M  V30 5750 H 518.106 -3.40768 -1.51431 0
M  V30 5751 N 520.291 -0.0518155 -1.57515 0
M  V30 5752 C 521.519 0.631395 -1.9703 0
M  V30 5753 C 521.934 1.64341 -0.92938 0
M  V30 5754 O 521.291 1.82296 0.0863266 0
M  V30 5755 C 521.342 1.31774 -3.36627 0
M  V30 5756 O 521.063 0.346247 -4.3673 0
M  V30 5757 C 522.564 2.09065 -3.90905 0
M  V30 5758 H 519.784 0.172576 -0.648428 0
M  V30 5759 H 522.328 -0.118306 -2.04158 0
M  V30 5760 H 520.483 2.01867 -3.30649 0
M  V30 5761 H 520.897 0.836226 -5.17791 0
M  V30 5762 H 522.371 2.52508 -4.9086 0
M  V30 5763 H 522.848 2.93908 -3.26366 0
M  V30 5764 H 523.454 1.43882 -4.00223 0
M  V30 5765 N 521.769 1.56035 0.221574 0
M  V30 5766 C 523.018 1.78245 0.944016 0
M  V30 5767 C 523.331 0.620371 1.85501 0
M  V30 5768 O 524.537 0.726103 2.6161 0
M  V30 5769 C 522.993 3.15659 1.7288 0
M  V30 5770 C 522.601 4.39591 0.863942 0
M  V30 5771 C 524.345 3.47195 2.44246 0
M  V30 5772 C 522.252 5.6803 1.64607 0
M  V30 5773 H 521.182 0.664547 0.356222 0
M  V30 5774 H 523.833 1.8243 0.197904 0
M  V30 5775 H 522.215 3.0565 2.51781 0
M  V30 5776 H 523.389 4.60655 0.115464 0
M  V30 5777 H 521.704 4.15572 0.262407 0
M  V30 5778 H 524.301 4.40381 3.03263 0
M  V30 5779 H 524.644 2.69693 3.1713 0
M  V30 5780 H 525.177 3.58533 1.72334 0
M  V30 5781 H 521.916 6.48425 0.960507 0
M  V30 5782 H 521.436 5.51027 2.36917 0
M  V30 5783 H 523.115 6.08203 2.20675 0
M  V30 5784 N 523.247 -0.488276 1.49845 0
M  V30 5785 C 524.493 -1.24341 1.6021 0
M  V30 5786 C 524.826 -1.91967 0.293651 0
M  V30 5787 O 524.101 -1.81323 -0.703718 0
M  V30 5788 C 524.384 -2.3005 2.77036 0
M  V30 5789 C 524.237 -1.66842 4.17713 0
M  V30 5790 C 525.556 -3.31509 2.89464 0
M  V30 5791 H 522.675 -0.450704 0.583125 0
M  V30 5792 H 525.317 -0.539673 1.82174 0
M  V30 5793 H 523.467 -2.90071 2.58439 0
M  V30 5794 H 525.139 -1.1055 4.47858 0
M  V30 5795 H 523.382 -0.972079 4.22768 0
M  V30 5796 H 524.053 -2.43576 4.95353 0
M  V30 5797 H 526.529 -2.81493 3.06433 0
M  V30 5798 H 525.405 -4.02822 3.72861 0
M  V30 5799 H 525.666 -3.94603 1.99351 0
M  V30 5800 N 524.725 -1.39134 -0.740242 0
M  V30 5801 C 525.655 -1.40165 -1.86751 0
M  V30 5802 C 526.636 -0.265708 -1.68012 0
M  V30 5803 O 527.821 -0.47076 -1.88408 0
M  V30 5804 C 524.951 -1.2392 -3.2444 0
M  V30 5805 C 523.905 -2.34858 -3.57807 0
M  V30 5806 C 523.231 -2.03707 -4.94376 0
M  V30 5807 C 524.531 -3.77159 -3.61315 0
M  V30 5808 H 526.225 -2.345 -1.86145 0
M  V30 5809 H 523.771 -1.12875 -0.89416 0
M  V30 5810 H 525.724 -1.23263 -4.02969 0
M  V30 5811 H 524.448 -0.26051 -3.25559 0
M  V30 5812 H 523.107 -2.34723 -2.81604 0
M  V30 5813 H 522.755 -1.04289 -4.9207 0
M  V30 5814 H 522.455 -2.78016 -5.17669 0
M  V30 5815 H 523.979 -2.04691 -5.75268 0
M  V30 5816 H 525.393 -3.79252 -4.29931 0
M  V30 5817 H 523.79 -4.50784 -3.96124 0
M  V30 5818 H 524.86 -4.08513 -2.61238 0
M  V30 5819 N 526.204 0.969867 -1.24223 0
M  V30 5820 C 527.432 1.74756 -1.10761 0
M  V30 5821 C 527.847 1.85713 0.340041 0
M  V30 5822 O 527.204 1.34389 1.23474 0
M  V30 5823 C 527.255 3.16915 -1.73917 0
M  V30 5824 O 526.976 3.06511 -3.13021 0
M  V30 5825 C 528.477 4.11032 -1.66036 0
M  V30 5826 H 525.697 0.548092 -0.387087 0
M  V30 5827 H 528.241 1.2178 -1.64286 0
M  V30 5828 H 526.396 3.66884 -1.244 0
M  V30 5829 H 526.81 3.96079 -3.43834 0
M  V30 5830 H 528.284 5.08446 -2.14911 0
M  V30 5831 H 528.761 4.34785 -0.621159 0
M  V30 5832 H 529.367 3.66972 -2.14969 0
M  V30 5833 N 527.682 1.05563 1.17022 0
M  V30 5834 C 528.612 0.681026 2.23348 0
M  V30 5835 C 529.593 -0.322983 1.67005 0
M  V30 5836 O 530.778 -0.199746 1.9317 0
M  V30 5837 C 527.908 0.0589053 3.4725 0
M  V30 5838 C 526.862 0.988082 4.16438 0
M  V30 5839 C 526.188 0.229646 5.34207 0
M  V30 5840 C 527.488 2.31388 4.68249 0
M  V30 5841 H 529.182 1.56993 2.54938 0
M  V30 5842 H 526.728 0.756302 1.2254 0
M  V30 5843 H 528.681 -0.214982 4.20851 0
M  V30 5844 H 527.405 -0.864968 3.14938 0
M  V30 5845 H 526.064 1.24659 3.44754 0
M  V30 5846 H 525.712 -0.697111 4.98146 0
M  V30 5847 H 525.412 0.848815 5.81437 0
M  V30 5848 H 526.936 -0.0368694 6.10589 0
M  V30 5849 H 528.35 2.09964 5.33468 0
M  V30 5850 H 526.747 2.88736 5.26072 0
M  V30 5851 H 527.817 2.94982 3.84855 0
M  V30 5852 N 529.16 -1.33526 0.837174 0
M  V30 5853 C 530.09 -2.31764 0.284206 0
M  V30 5854 C 531.071 -1.58896 -0.607142 0
M  V30 5855 O 532.256 -1.86798 -0.531047 0
M  V30 5856 C 529.386 -3.43029 -0.542962 0
M  V30 5857 C 528.34 -4.27255 0.252451 0
M  V30 5858 C 527.666 -5.3012 -0.69836 0
M  V30 5859 C 528.966 -5.01229 1.46858 0
M  V30 5860 H 530.66 -2.78262 1.10502 0
M  V30 5861 H 528.206 -1.3378 0.532812 0
M  V30 5862 H 530.159 -4.1078 -0.940096 0
M  V30 5863 H 528.883 -2.95216 -1.39697 0
M  V30 5864 H 527.542 -3.61127 0.631124 0
M  V30 5865 H 527.19 -4.78564 -1.54872 0
M  V30 5866 H 526.89 -5.87353 -0.170274 0
M  V30 5867 H 528.414 -6.00737 -1.09305 0
M  V30 5868 H 529.828 -5.61756 1.14469 0
M  V30 5869 H 528.225 -5.68104 1.93333 0
M  V30 5870 H 529.295 -4.301 2.23924 0
M  V30 5871 N 530.638 -0.59345 -1.46 0
M  V30 5872 C 531.571 0.182196 -2.27472 0
M  V30 5873 C 532.549 0.886901 -1.36282 0
M  V30 5874 O 533.733 0.898627 -1.65701 0
M  V30 5875 C 530.86 1.26236 -3.14296 0
M  V30 5876 C 529.906 0.662331 -4.21326 0
M  V30 5877 S 530.739 -0.519017 -5.32979 0
M  V30 5878 C 531.895 0.562086 -6.23371 0
M  V30 5879 H 532.128 -0.509056 -2.92909 0
M  V30 5880 H 529.661 -0.380607 -1.49635 0
M  V30 5881 H 531.619 1.88075 -3.64881 0
M  V30 5882 H 530.28 1.92562 -2.48151 0
M  V30 5883 H 529.473 1.47461 -4.81945 0
M  V30 5884 H 529.075 0.119381 -3.73809 0
M  V30 5885 H 531.367 1.44494 -6.61912 0
M  V30 5886 H 532.31 -0.00760776 -7.081 0
M  V30 5887 H 532.718 0.871061 -5.57739 0
M  V30 5888 N 532.116 1.54067 -0.331816 0
M  V30 5889 C 533.341 2.05599 0.272705 0
M  V30 5890 C 533.766 1.2059 1.44359 0
M  V30 5891 O 533.124 0.216907 1.79998 0
M  V30 5892 C 533.172 3.54188 0.677021 0
M  V30 5893 O 532.276 3.72082 1.77844 0
M  V30 5894 H 531.617 0.662286 0.0476801 0
M  V30 5895 H 534.147 1.98826 -0.482624 0
M  V30 5896 H 534.157 3.96608 0.957415 0
M  V30 5897 H 532.832 4.15513 -0.179325 0
M  V30 5898 H 531.409 3.41566 1.49622 0
M  V30 5899 N 533.594 0.0601682 1.57485 0
M  V30 5900 C 534.527 -0.94676 2.07634 0
M  V30 5901 C 535.505 -1.29837 0.978826 0
M  V30 5902 O 536.689 -1.40969 1.2514 0
M  V30 5903 C 533.816 -2.25822 2.52433 0
M  V30 5904 C 532.862 -2.05901 3.73507 0
M  V30 5905 S 533.695 -1.32907 5.18745 0
M  V30 5906 C 534.851 -2.65356 5.66866 0
M  V30 5907 H 535.084 -0.520003 2.92717 0
M  V30 5908 H 532.617 -0.152319 1.53647 0
M  V30 5909 H 534.575 -3.01201 2.78905 0
M  V30 5910 H 533.236 -2.65624 1.67639 0
M  V30 5911 H 532.429 -3.02929 4.02803 0
M  V30 5912 H 532.031 -1.38659 3.47347 0
M  V30 5913 H 534.323 -3.61492 5.73001 0
M  V30 5914 H 535.266 -2.40685 6.6594 0
M  V30 5915 H 535.674 -2.72028 4.94632 0
M  V30 5916 N 535.072 -1.5615 -0.213296 0
M  V30 5917 C 536.319 -1.79546 -0.936462 0
M  V30 5918 C 536.647 -0.630337 -1.84003 0
M  V30 5919 O 535.902 0.384883 -1.91878 0
M  V30 5920 C 536.201 -3.08772 -1.79985 0
M  V30 5921 C 535.867 -4.38532 -1.04882 0
M  V30 5922 C 534.529 -4.73787 -0.841393 0
M  V30 5923 C 536.881 -5.18609 -0.51907 0
M  V30 5924 C 534.209 -5.86627 -0.0924403 0
M  V30 5925 C 536.561 -6.32229 0.216581 0
M  V30 5926 C 535.225 -6.6608 0.435191 0
M  V30 5927 H 534.495 -0.657004 -0.342676 0
M  V30 5928 H 537.142 -1.9041 -0.204051 0
M  V30 5929 H 535.447 -2.93065 -2.60038 0
M  V30 5930 H 537.144 -3.24077 -2.36168 0
M  V30 5931 H 533.734 -4.10855 -1.22048 0
M  V30 5932 H 537.918 -4.91801 -0.666775 0
M  V30 5933 H 533.174 -6.11338 0.087081 0
M  V30 5934 H 537.348 -6.93503 0.634538 0
M  V30 5935 H 534.975 -7.5336 1.01746 0
M  V30 5936 N 536.55 0.480323 -1.50102 0
M  V30 5937 C 537.513 1.56181 -1.6775 0
M  V30 5938 C 538.513 1.51156 -0.548503 0
M  V30 5939 O 539.703 1.5394 -0.815363 0
M  V30 5940 C 536.835 2.95823 -1.69415 0
M  V30 5941 H 538.028 1.41855 -2.6423 0
M  V30 5942 H 535.581 0.70605 -1.39444 0
M  V30 5943 H 536.316 3.15604 -0.745948 0
M  V30 5944 H 536.101 3.00878 -2.51425 0
M  V30 5945 H 537.591 3.74359 -1.85054 0
M  V30 5946 N 538.028 1.39524 0.732853 0
M  V30 5947 C 538.958 1.41153 1.86005 0
M  V30 5948 C 539.939 0.274614 1.67869 0
M  V30 5949 O 541.124 0.480745 1.88155 0
M  V30 5950 C 538.254 1.25638 3.23778 0
M  V30 5951 C 537.208 2.36752 3.56556 0
M  V30 5952 C 536.534 2.06326 4.93289 0
M  V30 5953 C 537.834 3.79069 3.5931 0
M  V30 5954 H 539.528 2.35484 1.84899 0
M  V30 5955 H 537.074 1.13348 0.888162 0
M  V30 5956 H 539.027 1.25398 4.0231 0
M  V30 5957 H 537.751 0.277772 3.25417 0
M  V30 5958 H 536.41 2.36213 2.80355 0
M  V30 5959 H 536.058 1.06897 4.9151 0
M  V30 5960 H 535.758 2.80757 5.16187 0
M  V30 5961 H 537.282 2.07739 5.74175 0
M  V30 5962 H 538.696 3.81526 4.27914 0
M  V30 5963 H 537.093 4.52878 3.93728 0
M  V30 5964 H 538.163 4.09893 2.59068 0
M  V30 5965 N 539.506 -0.963266 1.24736 0
M  V30 5966 C 540.436 -2.07628 1.06832 0
M  V30 5967 C 541.417 -1.70088 -0.0200566 0
M  V30 5968 O 542.602 -1.93636 0.147854 0
M  V30 5969 C 539.732 -3.40636 0.677069 0
M  V30 5970 C 538.686 -3.9215 1.71471 0
M  V30 5971 C 538.012 -5.21553 1.1784 0
M  V30 5972 C 539.312 -4.19493 3.11164 0
M  V30 5973 H 541.006 -2.22864 1.9993 0
M  V30 5974 H 538.552 -1.07093 0.96266 0
M  V30 5975 H 540.505 -4.17941 0.538792 0
M  V30 5976 H 539.229 -3.25313 -0.289612 0
M  V30 5977 H 537.888 -3.17005 1.84128 0
M  V30 5978 H 537.536 -5.02593 0.202195 0
M  V30 5979 H 537.236 -5.56988 1.87185 0
M  V30 5980 H 538.76 -6.01463 1.05233 0
M  V30 5981 H 540.174 -4.87487 3.01711 0
M  V30 5982 H 538.571 -4.66165 3.77902 0
M  V30 5983 H 539.641 -3.26097 3.58871 0
M  V30 5984 N 540.985 -1.06182 -1.16461 0
M  V30 5985 C 541.948 -0.675723 -2.19013 0
M  V30 5986 C 542.948 0.277963 -1.58379 0
M  V30 5987 O 544.138 0.0604962 -1.74095 0
M  V30 5988 C 541.27 0.00591459 -3.40899 0
M  V30 5989 H 542.463 -1.58353 -2.54685 0
M  V30 5990 H 540.016 -0.856908 -1.30716 0
M  V30 5991 H 540.751 0.92652 -3.10783 0
M  V30 5992 H 540.536 -0.67984 -3.86161 0
M  V30 5993 H 542.026 0.26181 -4.16778 0
M  V30 5994 N 542.463 1.3308 -0.844243 0
M  V30 5995 C 543.413 2.26589 -0.253289 0
M  V30 5996 C 544.397 1.49501 0.594836 0
M  V30 5997 O 545.589 1.71291 0.445924 0
M  V30 5998 C 542.718 3.38599 0.566176 0
M  V30 5999 C 541.804 4.23081 -0.293756 0
M  V30 6000 N 542.195 4.86751 -1.37505 0
M  V30 6001 C 540.493 4.45925 -0.0817086 0
M  V30 6002 C 541.194 5.49684 -1.90323 0
M  V30 6003 N 540.17 5.30101 -1.20391 0
M  V30 6004 H 543.972 2.73334 -1.08009 0
M  V30 6005 H 541.486 1.47048 -0.689258 0
M  V30 6006 H 543.483 4.04584 1.00587 0
M  V30 6007 H 542.143 2.93401 1.39089 0
M  V30 6008 H 543.154 4.87151 -1.75796 0
M  V30 6009 H 539.831 4.11434 0.709129 0
M  V30 6010 H 541.221 6.10363 -2.80902 0
M  V30 6011 N 543.941 0.601185 1.45683 0
M  V30 6012 C 545.187 0.102425 2.03142 0
M  V30 6013 C 545.542 -1.25066 1.46207 0
M  V30 6014 O 544.835 -1.81126 0.624806 0
M  V30 6015 C 545.029 -0.00222425 3.574 0
M  V30 6016 C 544.858 1.33917 4.29298 0
M  V30 6017 C 543.628 1.91818 4.67476 0
M  V30 6018 C 545.826 2.26652 4.61664 0
M  V30 6019 N 543.808 3.19504 5.24204 0
M  V30 6020 C 545.179 3.38933 5.19157 0
M  V30 6021 C 547.234 2.26103 4.43601 0
M  V30 6022 C 545.937 4.50823 5.60492 0
M  V30 6023 C 547.963 3.37036 4.85964 0
M  V30 6024 C 547.325 4.48039 5.43545 0
M  V30 6025 H 543.424 0.0806974 0.777825 0
M  V30 6026 H 546.008 0.798134 1.77589 0
M  V30 6027 H 544.179 -0.66714 3.82627 0
M  V30 6028 H 545.911 -0.507058 4.01511 0
M  V30 6029 H 542.666 1.45097 4.50826 0
M  V30 6030 H 543.09 3.84705 5.57073 0
M  V30 6031 H 547.732 1.41547 3.98402 0
M  V30 6032 H 545.45 5.36108 6.0466 0
M  V30 6033 H 549.036 3.37752 4.73725 0
M  V30 6034 H 547.916 5.32459 5.75723 0
M  V30 6035 N 545.419 -1.53889 0.339982 0
M  V30 6036 C 546.352 -2.21187 -0.561405 0
M  V30 6037 C 547.33 -1.19463 -1.10306 0
M  V30 6038 O 548.514 -1.48268 -1.164 0
M  V30 6039 C 545.641 -2.8865 -1.77198 0
M  V30 6040 C 544.687 -4.04232 -1.3601 0
M  V30 6041 S 545.52 -5.34129 -0.382909 0
M  V30 6042 C 546.676 -6.05094 -1.60039 0
M  V30 6043 H 546.909 -2.97298 0.0102092 0
M  V30 6044 H 544.442 -1.53901 0.124056 0
M  V30 6045 H 546.4 -3.28138 -2.4665 0
M  V30 6046 H 545.061 -2.12311 -2.3148 0
M  V30 6047 H 544.254 -4.50358 -2.2626 0
M  V30 6048 H 543.856 -3.66503 -0.745098 0
M  V30 6049 H 546.148 -6.2827 -2.53541 0
M  V30 6050 H 547.091 -6.98182 -1.18099 0
M  V30 6051 H 547.499 -5.35207 -1.79483 0
M  V30 6052 N 546.897 -0.0685191 -1.57451 0
M  V30 6053 C 547.86 0.885173 -2.11417 0
M  V30 6054 C 548.86 1.22853 -1.03748 0
M  V30 6055 O 550.05 1.16235 -1.2975 0
M  V30 6056 C 547.182 2.18964 -2.61281 0
M  V30 6057 H 548.375 0.417034 -2.96986 0
M  V30 6058 H 545.928 0.18014 -1.55258 0
M  V30 6059 H 546.663 2.70321 -1.79156 0
M  V30 6060 H 546.448 1.9534 -3.39977 0
M  V30 6061 H 547.938 2.87242 -3.0312 0
M  V30 6062 N 548.375 1.56261 0.205012 0
M  V30 6063 C 549.615 1.81823 0.933806 0
M  V30 6064 C 549.979 0.644534 1.80858 0
M  V30 6065 O 551.18 0.779819 2.5724 0
M  V30 6066 C 549.451 3.12362 1.7368 0
M  V30 6067 S 551.01 3.59296 2.51897 0
M  V30 6068 H 547.828 0.638209 0.313386 0
M  V30 6069 H 550.43 1.94495 0.198001 0
M  V30 6070 H 549.134 3.95809 1.08459 0
M  V30 6071 H 548.665 3.02542 2.5146 0
M  V30 6072 H 550.68 3.23945 3.75864 0
M  V30 6073 N 549.853 -0.472356 1.50355 0
M  V30 6074 C 551.102 -1.2213 1.60522 0
M  V30 6075 C 551.415 -1.9312 0.310466 0
M  V30 6076 O 552.621 -2.69936 0.291029 0
M  V30 6077 C 551.077 -2.21909 2.83345 0
M  V30 6078 C 550.685 -1.56727 4.19691 0
M  V30 6079 C 552.429 -2.97453 3.02856 0
M  V30 6080 C 550.336 -2.54785 5.33703 0
M  V30 6081 H 549.266 -0.459543 0.597776 0
M  V30 6082 H 551.917 -0.491922 1.76783 0
M  V30 6083 H 550.299 -2.98133 2.60639 0
M  V30 6084 H 551.473 -0.863007 4.52646 0
M  V30 6085 H 549.788 -0.934685 4.05774 0
M  V30 6086 H 552.385 -3.70838 3.85205 0
M  V30 6087 H 552.728 -3.56764 2.14534 0
M  V30 6088 H 553.261 -2.28342 3.25737 0
M  V30 6089 H 550 -2.00214 6.24175 0
M  V30 6090 H 549.52 -3.23367 5.05167 0
M  V30 6091 H 551.199 -3.16639 5.64224 0
M  V30 6092 N 551.331 -1.39911 -0.725443 0
M  V30 6093 C 552.577 -1.38862 -1.48624 0
M  V30 6094 C 552.932 0.0125913 -1.92396 0
M  V30 6095 O 552.225 0.981046 -1.64578 0
M  V30 6096 C 552.419 -2.30368 -2.7325 0
M  V30 6097 C 552.248 -3.79247 -2.41665 0
M  V30 6098 C 551.018 -4.48119 -2.3349 0
M  V30 6099 C 553.216 -4.70988 -2.06579 0
M  V30 6100 N 551.198 -5.82282 -1.94476 0
M  V30 6101 C 552.569 -5.93873 -1.78087 0
M  V30 6102 C 554.624 -4.58917 -1.9313 0
M  V30 6103 C 553.327 -7.06036 -1.37499 0
M  V30 6104 C 555.353 -5.71012 -1.53946 0
M  V30 6105 C 554.715 -6.92976 -1.26345 0
M  V30 6106 H 550.814 -0.563394 -0.54232 0
M  V30 6107 H 553.398 -1.75542 -0.842213 0
M  V30 6108 H 551.569 -1.95831 -3.35417 0
M  V30 6109 H 553.301 -2.20245 -3.39521 0
M  V30 6110 H 550.056 -4.01677 -2.50904 0
M  V30 6111 H 550.48 -6.53307 -1.77535 0
M  V30 6112 H 555.122 -3.65149 -2.13134 0
M  V30 6113 H 552.84 -7.99697 -1.16237 0
M  V30 6114 H 556.426 -5.63664 -1.44132 0
M  V30 6115 H 555.306 -7.78243 -0.964787 0
M  V30 6116 N 552.809 0.956637 -1.25245 0
M  V30 6117 C 554.039 1.7332 -1.12445 0
M  V30 6118 C 554.447 1.86392 0.324732 0
M  V30 6119 O 553.79 1.35967 1.23526 0
M  V30 6120 C 553.852 3.16603 -1.70303 0
M  V30 6121 C 553.516 3.26966 -3.19284 0
M  V30 6122 C 554.513 3.11434 -4.16299 0
M  V30 6123 C 552.198 3.50851 -3.59456 0
M  V30 6124 C 554.192 3.1963 -5.51467 0
M  V30 6125 C 551.879 3.58684 -4.94761 0
M  V30 6126 C 552.877 3.43087 -5.90576 0
M  V30 6127 O 552.565 3.50598 -7.2342 0
M  V30 6128 H 552.297 0.549981 -0.393061 0
M  V30 6129 H 554.851 1.20892 -1.66055 0
M  V30 6130 H 553.081 3.70385 -1.11138 0
M  V30 6131 H 554.77 3.76109 -1.52632 0
M  V30 6132 H 555.536 2.92853 -3.86604 0
M  V30 6133 H 551.415 3.62053 -2.85375 0
M  V30 6134 H 554.959 3.07373 -6.26233 0
M  V30 6135 H 550.856 3.76782 -5.24124 0
M  V30 6136 H 551.624 3.67242 -7.31489 0
M  V30 6137 N 554.287 1.06798 1.15896 0
M  V30 6138 C 555.533 0.788934 1.86825 0
M  V30 6139 C 555.866 -0.683084 1.8179 0
M  V30 6140 O 555.141 -1.50086 1.23711 0
M  V30 6141 C 555.424 1.29065 3.36176 0
M  V30 6142 C 555.277 2.8268 3.49874 0
M  V30 6143 C 556.596 0.902655 4.30744 0
M  V30 6144 H 553.715 0.288066 0.678371 0
M  V30 6145 H 556.357 1.32479 1.36195 0
M  V30 6146 H 554.507 0.834806 3.79425 0
M  V30 6147 H 556.179 3.36511 3.15528 0
M  V30 6148 H 554.422 3.21157 2.91617 0
M  V30 6149 H 555.093 3.12852 4.54783 0
M  V30 6150 H 557.569 1.29535 3.95424 0
M  V30 6151 H 556.445 1.28111 5.3374 0
M  V30 6152 H 556.706 -0.191951 4.41683 0
M  V30 6153 N 555.766 -1.3263 0.851289 0
M  V30 6154 C 557.015 -1.96633 0.449267 0
M  V30 6155 C 557.328 -1.68131 -0.999562 0
M  V30 6156 O 558.534 -2.25845 -1.50685 0
M  V30 6157 C 556.99 -3.51946 0.752446 0
M  V30 6158 C 556.598 -3.89311 2.21678 0
M  V30 6159 C 558.342 -4.22437 0.417983 0
M  V30 6160 C 556.249 -5.37655 2.46336 0
M  V30 6161 H 555.179 -0.735888 0.164269 0
M  V30 6162 H 557.83 -1.51073 1.0416 0
M  V30 6163 H 556.212 -3.95899 0.0895858 0
M  V30 6164 H 557.386 -3.56378 2.92115 0
M  V30 6165 H 555.701 -3.31836 2.51543 0
M  V30 6166 H 558.298 -5.31549 0.579674 0
M  V30 6167 H 558.641 -4.11349 -0.640115 0
M  V30 6168 H 559.174 -3.84057 1.03659 0
M  V30 6169 H 555.913 -5.5376 3.50757 0
M  V30 6170 H 555.433 -5.72005 1.80473 0
M  V30 6171 H 557.112 -6.04695 2.30115 0
M  V30 6172 N 557.244 -0.608902 -1.45362 0
M  V30 6173 C 558.492 -0.104401 -2.0183 0
M  V30 6174 C 558.813 1.27007 -1.47967 0
M  V30 6175 O 558.083 1.83924 -0.674455 0
M  V30 6176 H 556.663 -0.0356042 -0.746151 0
M  V30 6177 H 559.325 -0.790596 -1.78145 0
M  V30 6178 H 558.421 -0.0551793 -3.12051 0
M  V30 6179 N 558.722 1.53707 -0.348139 0
M  V30 6180 C 559.669 2.25173 0.506518 0
M  V30 6181 C 560.639 1.25174 1.09182 0
M  V30 6182 O 561.824 1.53917 1.12757 0
M  V30 6183 C 558.964 3.03141 1.64923 0
M  V30 6184 C 558.077 4.18002 1.0908 0
M  V30 6185 C 557.212 4.83447 2.20119 0
M  V30 6186 C 556.251 5.90369 1.61651 0
M  V30 6187 N 555.388 6.49575 2.66451 0
M  V30 6188 H 560.228 2.97799 -0.109452 0
M  V30 6189 H 557.765 1.46953 -0.0657866 0
M  V30 6190 H 559.723 3.46607 2.32205 0
M  V30 6191 H 558.353 2.32803 2.23612 0
M  V30 6192 H 557.405 3.79145 0.308783 0
M  V30 6193 H 558.717 4.94892 0.623178 0
M  V30 6194 H 557.871 5.30008 2.95257 0
M  V30 6195 H 556.61 4.05991 2.70227 0
M  V30 6196 H 555.615 5.43186 0.850209 0
M  V30 6197 H 556.84 6.69735 1.1239 0
M  V30 6198 H 554.786 5.74981 3.15805 0
M  V30 6199 H 554.703 7.21952 2.24325 0
M  V30 6200 H 555.971 7.00789 3.41344 0
M  V30 6201 N 560.2 0.0768682 1.57412 0
M  V30 6202 C 561.133 -0.924685 2.08626 0
M  V30 6203 C 562.111 -1.28792 0.992542 0
M  V30 6204 O 563.295 -1.39634 1.26628 0
M  V30 6205 C 560.422 -2.23131 2.54814 0
M  V30 6206 C 559.468 -2.01928 3.75669 0
M  V30 6207 S 560.301 -1.27397 5.20125 0
M  V30 6208 C 561.457 -2.59329 5.69648 0
M  V30 6209 H 561.69 -0.488928 2.93252 0
M  V30 6210 H 559.223 -0.136014 1.538 0
M  V30 6211 H 561.181 -2.98226 2.82084 0
M  V30 6212 H 559.842 -2.63831 1.70447 0
M  V30 6213 H 559.035 -2.98639 4.05993 0
M  V30 6214 H 558.637 -1.34967 3.48798 0
M  V30 6215 H 560.929 -3.55394 5.76803 0
M  V30 6216 H 561.872 -2.33608 6.68456 0
M  V30 6217 H 562.28 -2.66767 4.9749 0
M  V30 6218 N 561.678 -1.56367 -0.196722 0
M  V30 6219 C 562.588 -1.97617 -1.2643 0
M  V30 6220 C 563.604 -0.883598 -1.49895 0
M  V30 6221 O 564.78 -1.18921 -1.62541 0
M  V30 6222 C 561.845 -2.30595 -2.58895 0
M  V30 6223 C 560.906 -3.53551 -2.43516 0
M  V30 6224 C 560.139 -3.84946 -3.69665 0
M  V30 6225 O 560.362 -3.17655 -4.73763 0
M  V30 6226 O 559.296 -4.78379 -3.65291 0
M  V30 6227 H 563.122 -2.88648 -0.944233 0
M  V30 6228 H 560.707 -1.43901 -0.401592 0
M  V30 6229 H 562.589 -2.52889 -3.37083 0
M  V30 6230 H 561.264 -1.42732 -2.90533 0
M  V30 6231 H 560.171 -3.36507 -1.63445 0
M  V30 6232 H 561.504 -4.41875 -2.16812 0
M  V30 6233 N 563.156 0.464375 -1.50603 0
M  V30 6234 C 564.572 0.798684 -1.38178 0
M  V30 6235 C 564.772 1.96568 -0.44308 0
M  V30 6236 O 563.828 2.52252 0.111814 0
M  V30 6237 C 565.141 1.10444 -2.79683 0
M  V30 6238 C 566.689 1.2105 -2.88645 0
M  V30 6239 C 567.164 1.54934 -4.30998 0
M  V30 6240 N 568.655 1.61913 -4.3398 0
M  V30 6241 C 569.39 1.8965 -5.41129 0
M  V30 6242 N 568.886 2.15361 -6.58477 0
M  V30 6243 N 570.679 1.91207 -5.28579 0
M  V30 6244 H 562.83 -0.304603 -2.10204 0
M  V30 6245 H 565.093 -0.0737804 -0.945125 0
M  V30 6246 H 564.799 0.319934 -3.50242 0
M  V30 6247 H 564.673 2.03896 -3.17342 0
M  V30 6248 H 567.06 1.98567 -2.18301 0
M  V30 6249 H 567.141 0.255613 -2.5452 0
M  V30 6250 H 566.785 0.779549 -5.01882 0
M  V30 6251 H 566.715 2.51584 -4.62615 0
M  V30 6252 H 569.206 1.44055 -3.49366 0
M  V30 6253 H 569.519 2.35818 -7.35941 0
M  V30 6254 H 567.864 2.1274 -6.6164 0
M  V30 6255 H 571.055 1.70622 -4.35897 0
M  V30 6256 H 571.228 2.12488 -6.12171 0
M  V30 6257 N 564.634 1.40294 0.718013 0
M  V30 6258 C 565.544 1.42678 1.86226 0
M  V30 6259 C 566.56 0.319655 1.71039 0
M  V30 6260 O 567.736 0.563852 1.93346 0
M  V30 6261 C 564.801 1.2852 3.21999 0
M  V30 6262 C 563.862 2.49354 3.49458 0
M  V30 6263 C 563.095 2.35863 4.78753 0
M  V30 6264 O 563.318 1.37114 5.53675 0
M  V30 6265 O 562.252 3.25189 5.06494 0
M  V30 6266 H 566.078 2.39167 1.87171 0
M  V30 6267 H 563.663 1.2159 0.868112 0
M  V30 6268 H 565.545 1.22824 4.03103 0
M  V30 6269 H 564.22 0.351359 3.21787 0
M  V30 6270 H 563.127 2.60628 2.68373 0
M  V30 6271 H 564.46 3.41491 3.54464 0
M  V30 6272 N 566.112 -0.949982 1.2575 0
M  V30 6273 C 567.389 -1.6718 1.01539 0
M  V30 6274 C 567.769 -2.06095 -0.456942 0
M  V30 6275 O 567.117 -1.77792 -1.43534 0
M  V30 6276 C 567.327 -2.8906 1.95564 0
M  V30 6277 C 568.675 -3.60909 2.23673 0
M  V30 6278 O 569.699 -2.9915 1.9336 0
M  V30 6279 O 568.558 -4.72127 2.75243 0
M  V30 6280 H 565.652 -0.731697 0.385419 0
M  V30 6281 H 568.198 -1.00249 1.36924 0
M  V30 6282 H 566.97 -2.57128 2.94959 0
M  V30 6283 H 566.593 -3.63719 1.60605 0
M  V30 6284 N 567.59 -1.07411 -1.15328 0
M  V30 6285 C 568.538 -0.689316 -2.22151 0
M  V30 6286 C 569.532 0.300156 -1.6672 0
M  V30 6287 O 570.738 0.163804 -1.79253 0
M  V30 6288 H 567.113 -0.204834 -0.723566 0
M  V30 6289 H 569.084 -1.59988 -2.51886 0
M  V30 6290 C 567.833 -0.103848 -3.47545 0
M  V30 6291 H 567.156 -0.856367 -3.90521 0
M  V30 6292 H 568.596 0.127725 -4.23808 0
M  V30 6293 C 567.055 1.15563 -3.1646 0
M  V30 6294 O 567.585 2.242 -3.33312 0
M  V30 6295 N 565.791 1.06203 -2.70498 0
M  V30 6296 H 565.338 0.177933 -2.56985 0
M  V30 6297 H 565.296 1.90553 -2.50074 0
M  V30 6298 N 569.068 1.32177 -0.85831 0
M  V30 6299 C 570.293 2.01847 -0.476718 0
M  V30 6300 C 570.718 1.64065 0.920021 0
M  V30 6301 O 570.076 0.843189 1.60499 0
M  V30 6302 C 570.124 3.55097 -0.627578 0
M  V30 6303 O 569.228 4.11012 0.338086 0
M  V30 6304 H 568.569 0.635907 -0.191099 0
M  V30 6305 H 571.099 1.68641 -1.15851 0
M  V30 6306 H 571.109 4.04718 -0.516476 0
M  V30 6307 H 569.784 3.81938 -1.64609 0
M  V30 6308 H 568.361 3.72451 0.182917 0
M  V30 6309 N 570.547 0.616602 1.45037 0
M  V30 6310 C 571.477 -0.0840787 2.33349 0
M  V30 6311 C 572.458 -0.849641 1.4736 0
M  V30 6312 O 573.643 -0.818407 1.76113 0
M  V30 6313 C 570.773 -1.07604 3.3021 0
M  V30 6314 C 569.727 -0.423096 4.25904 0
M  V30 6315 C 569.053 -1.52394 5.12523 0
M  V30 6316 C 570.353 0.661457 5.18095 0
M  V30 6317 H 572.047 0.653333 2.92185 0
M  V30 6318 H 569.593 0.315634 1.40498 0
M  V30 6319 H 571.546 -1.57485 3.90866 0
M  V30 6320 H 570.27 -1.84416 2.69552 0
M  V30 6321 H 568.929 0.05493 3.66559 0
M  V30 6322 H 568.577 -2.28257 4.48227 0
M  V30 6323 H 568.277 -1.09251 5.77354 0
M  V30 6324 H 569.801 -2.02485 5.76049 0
M  V30 6325 H 571.215 0.246353 5.7277 0
M  V30 6326 H 569.612 1.01517 5.91451 0
M  V30 6327 H 570.682 1.53446 4.59981 0
M  V30 6328 N 572.025 -1.5352 0.356285 0
M  V30 6329 C 572.955 -2.28372 -0.486661 0
M  V30 6330 C 573.936 -1.30432 -1.09185 0
M  V30 6331 O 575.121 -1.59291 -1.11085 0
M  V30 6332 C 572.251 -3.06604 -1.63129 0
M  V30 6333 C 571.205 -4.12154 -1.15381 0
M  V30 6334 C 570.531 -4.78415 -2.38796 0
M  V30 6335 C 571.831 -5.21724 -0.245179 0
M  V30 6336 H 573.525 -2.99083 0.137797 0
M  V30 6337 H 571.071 -1.43841 0.0677134 0
M  V30 6338 H 573.024 -3.57712 -2.22755 0
M  V30 6339 H 571.748 -2.33568 -2.28284 0
M  V30 6340 H 570.407 -3.61978 -0.580294 0
M  V30 6341 H 570.055 -4.01959 -3.02387 0
M  V30 6342 H 569.755 -5.49734 -2.07524 0
M  V30 6343 H 571.279 -5.32313 -2.99125 0
M  V30 6344 H 572.693 -5.68391 -0.748646 0
M  V30 6345 H 571.09 -6.00095 -0.0237608 0
M  V30 6346 H 572.16 -4.79596 0.715229 0
M  V30 6347 N 573.503 -0.0852151 -1.57369 0
M  V30 6348 C 574.45 0.877268 -2.13478 0
M  V30 6349 C 575.42 1.28642 -1.05073 0
M  V30 6350 O 576.605 1.36992 -1.32808 0
M  V30 6351 C 573.745 2.13464 -2.71159 0
M  V30 6352 C 572.858 1.77691 -3.93764 0
M  V30 6353 C 571.993 2.98139 -4.39643 0
M  V30 6354 C 571.032 2.58447 -5.54862 0
M  V30 6355 N 570.169 3.71698 -5.95639 0
M  V30 6356 H 575.009 0.391933 -2.95411 0
M  V30 6357 H 572.546 0.181796 -1.45972 0
M  V30 6358 H 574.504 2.87086 -3.02717 0
M  V30 6359 H 573.134 2.59514 -1.91969 0
M  V30 6360 H 572.186 0.940768 -3.68583 0
M  V30 6361 H 573.498 1.44497 -4.77412 0
M  V30 6362 H 572.652 3.80026 -4.72933 0
M  V30 6363 H 571.391 3.34536 -3.54876 0
M  V30 6364 H 570.396 1.74984 -5.21211 0
M  V30 6365 H 571.621 2.23205 -6.41371 0
M  V30 6366 H 569.567 4.07831 -5.13819 0
M  V30 6367 H 569.484 3.42317 -6.74059 0
M  V30 6368 H 570.752 4.54123 -6.33555 0
M  V30 6369 N 574.981 1.5647 0.188427 0
M  V30 6370 C 576.227 1.82181 0.904534 0
M  V30 6371 C 576.582 0.663258 1.80606 0
M  V30 6372 O 575.875 -0.341231 1.88537 0
M  V30 6373 C 576.069 3.11596 1.7505 0
M  V30 6374 C 575.898 4.39928 0.932372 0
M  V30 6375 C 574.668 5.01554 0.61417 0
M  V30 6376 C 576.866 5.13527 0.281936 0
M  V30 6377 N 574.848 6.13499 -0.221896 0
M  V30 6378 C 576.219 6.18603 -0.416037 0
M  V30 6379 C 578.274 4.97505 0.198345 0
M  V30 6380 C 576.977 7.09394 -1.18965 0
M  V30 6381 C 579.003 5.88725 -0.561887 0
M  V30 6382 C 578.365 6.93251 -1.24828 0
M  V30 6383 H 574.464 0.717858 0.310168 0
M  V30 6384 H 577.048 1.93932 0.172757 0
M  V30 6385 H 575.219 3.01068 2.45383 0
M  V30 6386 H 576.951 3.25369 2.4066 0
M  V30 6387 H 573.706 4.64174 0.940187 0
M  V30 6388 H 574.13 6.74065 -0.629735 0
M  V30 6389 H 578.772 4.16716 0.714665 0
M  V30 6390 H 576.49 7.8964 -1.71737 0
M  V30 6391 H 580.076 5.78401 -0.628009 0
M  V30 6392 H 578.956 7.62618 -1.82712 0
M  V30 6393 N 576.459 -0.456382 1.50847 0
M  V30 6394 C 577.369 -1.57805 1.73594 0
M  V30 6395 C 578.385 -1.62599 0.619476 0
M  V30 6396 O 579.561 -1.80195 0.899532 0
M  V30 6397 C 576.626 -2.93926 1.8387 0
M  V30 6398 C 575.687 -2.99402 3.07663 0
M  V30 6399 C 574.92 -4.29031 3.1744 0
M  V30 6400 O 575.143 -5.20358 2.33631 0
M  V30 6401 O 574.077 -4.40401 4.10281 0
M  V30 6402 H 577.903 -1.41531 2.68705 0
M  V30 6403 H 575.488 -0.637422 1.3512 0
M  V30 6404 H 577.37 -3.74747 1.92725 0
M  V30 6405 H 576.045 -3.10368 0.91944 0
M  V30 6406 H 574.952 -2.17606 3.043 0
M  V30 6407 H 576.285 -2.87901 3.99216 0
M  V30 6408 N 577.937 -1.40673 -0.710563 0
M  V30 6409 C 579.183 -1.39428 -1.47267 0
M  V30 6410 C 579.516 0.00182129 -1.942 0
M  V30 6411 O 578.791 0.971387 -1.68506 0
M  V30 6412 C 579.074 -2.38812 -2.6952 0
M  V30 6413 C 578.927 -3.87467 -2.28449 0
M  V30 6414 C 580.246 -2.3566 -3.71689 0
M  V30 6415 H 577.365 -0.507768 -0.534173 0
M  V30 6416 H 580.007 -1.71843 -0.810547 0
M  V30 6417 H 578.157 -2.113 -3.26013 0
M  V30 6418 H 579.829 -4.25825 -1.77399 0
M  V30 6419 H 578.072 -4.03058 -1.60395 0
M  V30 6420 H 578.743 -4.5253 -3.16103 0
M  V30 6421 H 581.219 -2.6004 -3.24836 0
M  V30 6422 H 580.095 -3.07237 -4.54859 0
M  V30 6423 H 580.356 -1.36996 -4.20339 0
M  V30 6424 N 579.415 0.9433 -1.26252 0
M  V30 6425 C 580.663 1.68592 -1.11451 0
M  V30 6426 C 580.984 1.91957 0.343123 0
M  V30 6427 O 580.254 1.51475 1.24226 0
M  V30 6428 H 578.834 0.624789 -0.409448 0
M  V30 6429 H 581.496 1.13351 -1.58548 0
M  V30 6430 H 580.592 2.66054 -1.63162 0
M  V30 6431 N 580.893 1.08022 1.14757 0
M  V30 6432 C 582.139 0.818552 1.86202 0
M  V30 6433 C 582.494 -0.648563 1.81139 0
M  V30 6434 O 581.787 -1.4704 1.22841 0
M  V30 6435 C 581.981 1.26964 3.34088 0
M  V30 6436 C 581.81 2.77907 3.5355 0
M  V30 6437 C 580.58 3.45604 3.68627 0
M  V30 6438 C 582.778 3.7609 3.50801 0
M  V30 6439 N 580.76 4.85119 3.76209 0
M  V30 6440 C 582.131 5.0148 3.64579 0
M  V30 6441 C 584.186 3.6915 3.34115 0
M  V30 6442 C 582.889 6.20755 3.63395 0
M  V30 6443 C 584.915 4.87896 3.34233 0
M  V30 6444 C 584.277 6.12123 3.48547 0
M  V30 6445 H 580.376 0.352186 0.698204 0
M  V30 6446 H 582.96 1.37781 1.37567 0
M  V30 6447 H 581.131 0.738008 3.81324 0
M  V30 6448 H 582.863 0.954806 3.93275 0
M  V30 6449 H 579.618 2.96016 3.69691 0
M  V30 6450 H 580.042 5.57748 3.83726 0
M  V30 6451 H 584.684 2.74045 3.21961 0
M  V30 6452 H 582.402 7.16175 3.74326 0
M  V30 6453 H 585.988 4.8421 3.2254 0
M  V30 6454 H 584.868 7.02468 3.48581 0
M  V30 6455 N 582.371 -1.3172 0.865308 0
M  V30 6456 C 583.301 -2.31109 0.333302 0
M  V30 6457 C 584.282 -1.60148 -0.573301 0
M  V30 6458 O 585.467 -1.87882 -0.491305 0
M  V30 6459 C 582.597 -3.44104 -0.470078 0
M  V30 6460 C 581.551 -4.26623 0.343021 0
M  V30 6461 C 580.877 -5.31482 -0.585756 0
M  V30 6462 C 582.177 -4.98001 1.57456 0
M  V30 6463 H 583.871 -2.75855 1.1638 0
M  V30 6464 H 581.417 -1.3262 0.561069 0
M  V30 6465 H 583.37 -4.12682 -0.852752 0
M  V30 6466 H 582.094 -2.98112 -1.33404 0
M  V30 6467 H 580.753 -3.59707 0.707583 0
M  V30 6468 H 580.401 -4.81741 -1.44686 0
M  V30 6469 H 580.101 -5.87582 -0.0456494 0
M  V30 6470 H 581.625 -6.0292 -0.965375 0
M  V30 6471 H 583.039 -5.59201 1.26359 0
M  V30 6472 H 581.436 -5.63876 2.05339 0
M  V30 6473 H 582.506 -4.25253 2.32997 0
M  V30 6474 N 583.85 -0.624285 -1.44708 0
M  V30 6475 C 584.8 0.106466 -2.27751 0
M  V30 6476 C 585.784 0.822703 -1.38277 0
M  V30 6477 O 586.976 0.709939 -1.62138 0
M  V30 6478 C 584.105 1.092 -3.25469 0
M  V30 6479 C 583.191 0.375737 -4.22432 0
M  V30 6480 N 583.582 -0.591881 -5.02325 0
M  V30 6481 C 581.88 0.621093 -4.41654 0
M  V30 6482 C 582.581 -1.01443 -5.72786 0
M  V30 6483 N 581.557 -0.354651 -5.42442 0
M  V30 6484 H 585.359 -0.636464 -2.86926 0
M  V30 6485 H 582.873 -0.44925 -1.56062 0
M  V30 6486 H 584.87 1.63006 -3.83712 0
M  V30 6487 H 583.529 1.8353 -2.67856 0
M  V30 6488 H 584.541 -0.969389 -5.08747 0
M  V30 6489 H 581.218 1.34779 -3.95147 0
M  V30 6490 H 582.608 -1.81345 -6.46965 0
M  V30 6491 N 585.328 1.53329 -0.364422 0
M  V30 6492 C 586.238 2.29414 0.490552 0
M  V30 6493 C 587.254 1.35335 1.09363 0
M  V30 6494 O 588.43 1.68391 1.10483 0
M  V30 6495 C 585.495 3.06772 1.61529 0
M  V30 6496 C 584.556 4.16516 1.03986 0
M  V30 6497 C 583.789 4.90176 2.111 0
M  V30 6498 O 584.012 4.63687 3.32191 0
M  V30 6499 O 582.946 5.76134 1.74222 0
M  V30 6500 H 586.772 3.03428 -0.12856 0
M  V30 6501 H 584.357 1.48843 -0.128837 0
M  V30 6502 H 586.239 3.55082 2.26924 0
M  V30 6503 H 584.914 2.35596 2.21983 0
M  V30 6504 H 583.821 3.7246 0.349856 0
M  V30 6505 H 585.154 4.89855 0.4799 0
M  V30 6506 N 586.806 0.0935595 1.57322 0
M  V30 6507 C 587.736 -0.863062 2.16964 0
M  V30 6508 C 588.717 -1.29528 1.10256 0
M  V30 6509 O 589.902 -1.36245 1.38387 0
M  V30 6510 C 587.032 -2.12276 2.74875 0
M  V30 6511 C 585.986 -1.82921 3.86942 0
M  V30 6512 C 585.312 -3.15707 4.31548 0
M  V30 6513 C 586.612 -1.11737 5.10208 0
M  V30 6514 H 588.306 -0.366145 2.97153 0
M  V30 6515 H 585.852 -0.174673 1.42937 0
M  V30 6516 H 587.805 -2.79634 3.1525 0
M  V30 6517 H 586.529 -2.64248 1.91938 0
M  V30 6518 H 585.188 -1.17961 3.47103 0
M  V30 6519 H 584.836 -3.65563 3.45504 0
M  V30 6520 H 584.536 -2.96849 5.07104 0
M  V30 6521 H 586.06 -3.84226 4.74555 0
M  V30 6522 H 587.474 -1.69203 5.47762 0
M  V30 6523 H 585.871 -1.03064 5.91183 0
M  V30 6524 H 586.941 -0.0998818 4.84797 0
M  V30 6525 N 588.284 -1.56567 -0.180126 0
M  V30 6526 C 589.532 -1.81133 -0.896392 0
M  V30 6527 C 589.853 -0.669114 -1.83161 0
M  V30 6528 O 589.123 0.311616 -1.93406 0
M  V30 6529 H 587.703 -0.668172 -0.333999 0
M  V30 6530 H 590.365 -1.94048 -0.182051 0
M  V30 6531 H 589.461 -2.74854 -1.47857 0
M  V30 6532 N 589.762 0.448376 -1.51087 0
M  V30 6533 C 590.709 1.54341 -1.71603 0
M  V30 6534 C 591.679 1.56463 -0.557536 0
M  V30 6535 O 592.864 1.73644 -0.79072 0
M  V30 6536 C 590.004 2.92148 -1.83695 0
M  V30 6537 C 589.117 2.99639 -3.11192 0
M  V30 6538 C 588.252 4.285 -3.13944 0
M  V30 6539 C 587.291 4.29819 -4.35801 0
M  V30 6540 N 586.428 5.50186 -4.36164 0
M  V30 6541 H 591.268 1.36151 -2.65079 0
M  V30 6542 H 588.805 0.661585 -1.31383 0
M  V30 6543 H 590.763 3.72093 -1.88687 0
M  V30 6544 H 589.393 3.0892 -0.936374 0
M  V30 6545 H 588.445 2.12425 -3.15562 0
M  V30 6546 H 589.757 2.96474 -4.01129 0
M  V30 6547 H 588.911 5.16811 -3.17791 0
M  V30 6548 H 587.65 4.34307 -2.21876 0
M  V30 6549 H 586.655 3.39902 -4.32142 0
M  V30 6550 H 587.88 4.25685 -5.29121 0
M  V30 6551 H 585.826 5.56735 -3.46961 0
M  V30 6552 H 585.743 5.48856 -5.19897 0
M  V30 6553 H 587.011 6.40559 -4.44189 0
M  V30 6554 N 591.24 1.41047 0.703093 0
M  V30 6555 C 592.656 1.23351 1.01275 0
M  V30 6556 C 592.856 0.11754 2.01157 0
M  V30 6557 O 591.912 -0.520518 2.47077 0
M  V30 6558 C 593.225 2.58001 1.54454 0
M  V30 6559 C 594.773 2.65119 1.66376 0
M  V30 6560 C 595.248 4.00067 2.22958 0
M  V30 6561 N 596.739 4.01875 2.30328 0
M  V30 6562 C 597.474 5.03087 2.75119 0
M  V30 6563 N 596.97 6.14692 3.19571 0
M  V30 6564 N 598.763 4.90451 2.74616 0
M  V30 6565 H 590.914 2.1236 0.0412686 0
M  V30 6566 H 593.177 0.944543 0.08089 0
M  V30 6567 H 592.883 3.40378 0.88521 0
M  V30 6568 H 592.757 2.79962 2.52786 0
M  V30 6569 H 595.144 1.83106 2.31422 0
M  V30 6570 H 595.225 2.46975 0.666089 0
M  V30 6571 H 594.869 4.82526 1.58529 0
M  V30 6572 H 594.799 4.15547 3.23462 0
M  V30 6573 H 597.29 3.21291 1.98949 0
M  V30 6574 H 597.603 6.87799 3.52352 0
M  V30 6575 H 595.948 6.18239 3.17498 0
M  V30 6576 H 599.139 4.0235 2.39233 0
M  V30 6577 H 599.312 5.6947 3.09206 0
M  V30 6578 N 592.718 -0.936591 1.26751 0
M  V30 6579 C 593.648 -2.05315 1.11212 0
M  V30 6580 C 594.629 -1.70092 0.0160262 0
M  V30 6581 O 595.814 -1.93279 0.188894 0
M  V30 6582 C 592.944 -3.39123 0.749171 0
M  V30 6583 C 591.898 -3.88425 1.79751 0
M  V30 6584 C 591.224 -5.18936 1.28876 0
M  V30 6585 C 592.524 -4.12798 3.19992 0
M  V30 6586 H 594.218 -2.18573 2.04613 0
M  V30 6587 H 591.764 -1.05027 0.985159 0
M  V30 6588 H 593.717 -4.16704 0.627323 0
M  V30 6589 H 592.441 -3.25855 -0.220543 0
M  V30 6590 H 591.1 -3.13028 1.90811 0
M  V30 6591 H 590.748 -5.02051 0.308757 0
M  V30 6592 H 590.448 -5.52892 1.98958 0
M  V30 6593 H 591.972 -5.99096 1.17967 0
M  V30 6594 H 593.386 -4.80977 3.11983 0
M  V30 6595 H 591.783 -4.58044 3.87705 0
M  V30 6596 H 592.853 -3.18412 3.65707 0
M  V30 6597 N 594.196 -1.08629 -1.14182 0
M  V30 6598 C 595.106 -0.730126 -2.22949 0
M  V30 6599 C 596.122 0.26436 -1.7198 0
M  V30 6600 O 597.298 0.107742 -2.01112 0
M  V30 6601 C 594.363 -0.147227 -3.46387 0
M  V30 6602 C 593.424 -1.19662 -4.12286 0
M  V30 6603 C 592.657 -0.641437 -5.29831 0
M  V30 6604 O 592.88 0.538351 -5.67854 0
M  V30 6605 O 591.814 -1.39257 -5.85569 0
M  V30 6606 H 595.64 -1.63753 -2.55771 0
M  V30 6607 H 593.225 -0.860118 -1.22157 0
M  V30 6608 H 595.107 0.174923 -4.21037 0
M  V30 6609 H 593.782 0.733304 -3.15285 0
M  V30 6610 H 592.689 -1.57133 -3.395 0
M  V30 6611 H 594.022 -2.0495 -4.475 0
M  V30 6612 N 595.674 1.31259 -0.872281 0
M  V30 6613 C 596.899 2.0133 -0.498099 0
M  V30 6614 C 597.324 1.65031 0.902568 0
M  V30 6615 O 596.682 0.860164 1.59596 0
M  V30 6616 C 596.73 3.54411 -0.665205 0
M  V30 6617 O 595.834 4.11347 0.294473 0
M  V30 6618 H 595.175 0.633844 -0.197832 0
M  V30 6619 H 597.705 1.67402 -1.17633 0
M  V30 6620 H 597.715 4.04147 -0.559373 0
M  V30 6621 H 596.39 3.80171 -1.68651 0
M  V30 6622 H 594.967 3.72624 0.143403 0
M  V30 6623 N 597.152 0.631951 1.44375 0
M  V30 6624 C 598.563 0.219036 1.85411 0
M  V30 6625 C 598.914 -1.22974 1.52879 0
M  V30 6626 O 598.039 -1.93579 0.967266 0
M  V30 6627 C 598.634 0.39075 3.36539 0
M  V30 6628 C 597.193 0.0323351 3.76386 0
M  V30 6629 C 596.34 0.703744 2.68221 0
M  V30 6630 H 599.291 0.837056 1.3483 0
M  V30 6631 H 599.312 -0.370056 3.78696 0
M  V30 6632 H 598.824 1.44527 3.60185 0
M  V30 6633 H 596.925 -1.02042 3.58355 0
M  V30 6634 H 597.038 0.442969 4.77048 0
M  V30 6635 H 595.402 0.138974 2.54321 0
M  V30 6636 H 596.185 1.76088 2.947 0
M  V30 6637 N 598.631 -1.53133 0.372548 0
M  V30 6638 C 599.861 -2.05476 -0.215202 0
M  V30 6639 C 600.269 -1.24534 -1.42436 0
M  V30 6640 O 599.612 -0.280771 -1.81542 0
M  V30 6641 C 599.674 -3.53276 -0.666068 0
M  V30 6642 C 599.338 -4.54998 0.427342 0
M  V30 6643 C 600.335 -5.03911 1.27944 0
M  V30 6644 C 598.02 -4.98828 0.589579 0
M  V30 6645 C 600.014 -5.95263 2.27905 0
M  V30 6646 C 597.701 -5.89984 1.59255 0
M  V30 6647 C 598.699 -6.38093 2.43571 0
M  V30 6648 O 598.387 -7.27451 3.42156 0
M  V30 6649 H 598.119 -0.67481 -0.040099 0
M  V30 6650 H 600.673 -1.98409 0.531312 0
M  V30 6651 H 598.903 -3.57904 -1.4643 0
M  V30 6652 H 600.592 -3.88442 -1.1776 0
M  V30 6653 H 601.358 -4.70792 1.16532 0
M  V30 6654 H 597.237 -4.60965 -0.0569456 0
M  V30 6655 H 600.781 -6.32736 2.93753 0
M  V30 6656 H 596.678 -6.22518 1.70711 0
M  V30 6657 H 597.446 -7.45467 3.37967 0
M  V30 6658 N 600.109 -0.101901 -1.5727 0
M  V30 6659 C 601.339 0.567568 -1.98651 0
M  V30 6660 C 601.747 1.61839 -0.980037 0
M  V30 6661 O 601.09 1.83661 0.0376564 0
M  V30 6662 C 601.152 1.26742 -3.36417 0
M  V30 6663 C 600.816 0.366561 -4.55528 0
M  V30 6664 C 601.813 -0.388022 -5.1845 0
M  V30 6665 C 599.498 0.282629 -5.01504 0
M  V30 6666 C 601.492 -1.21445 -6.25724 0
M  V30 6667 C 599.179 -0.547443 -6.08643 0
M  V30 6668 C 600.177 -1.29462 -6.70618 0
M  V30 6669 O 599.865 -2.11095 -7.7569 0
M  V30 6670 H 599.597 0.156282 -0.657687 0
M  V30 6671 H 602.151 -0.179912 -2.04611 0
M  V30 6672 H 600.381 2.06162 -3.27161 0
M  V30 6673 H 602.07 1.8321 -3.622 0
M  V30 6674 H 602.836 -0.332949 -4.83856 0
M  V30 6675 H 598.715 0.853868 -4.53023 0
M  V30 6676 H 602.259 -1.79814 -6.74027 0
M  V30 6677 H 598.156 -0.603971 -6.42668 0
M  V30 6678 H 598.924 -2.03851 -7.92709 0
M  V30 6679 N 601.587 1.56661 0.17182 0
M  V30 6680 C 602.835 1.81606 0.886774 0
M  V30 6681 C 603.156 0.678818 1.82803 0
M  V30 6682 O 602.426 -0.301354 1.93568 0
M  V30 6683 H 601.006 0.669934 0.330451 0
M  V30 6684 H 603.668 1.94142 0.171757 0
M  V30 6685 H 602.764 2.75634 1.46398 0
M  V30 6686 N 603.065 -0.440357 1.51323 0
M  V30 6687 C 604.013 -1.55492 1.72988 0
M  V30 6688 C 605.007 -1.58564 0.596138 0
M  V30 6689 O 606.213 -1.62345 0.777443 0
M  V30 6690 H 602.588 -0.516532 0.546533 0
M  V30 6691 H 604.559 -1.34392 2.66423 0
M  V30 6692 C 603.308 -2.93176 1.86931 0
M  V30 6693 H 602.631 -2.91543 2.73574 0
M  V30 6694 H 604.071 -3.70537 2.06103 0
M  V30 6695 C 602.53 -3.30988 0.628365 0
M  V30 6696 O 603.06 -4.01106 -0.218367 0
M  V30 6697 N 601.266 -2.86719 0.473339 0
M  V30 6698 H 600.813 -2.2983 1.16345 0
M  V30 6699 H 600.771 -3.12381 -0.355727 0
M  V30 6700 N 604.543 -1.41418 -0.695603 0
M  V30 6701 C 605.491 -1.43467 -1.83084 0
M  V30 6702 C 606.485 -0.312719 -1.66489 0
M  V30 6703 O 607.691 -0.484744 -1.7335 0
M  V30 6704 H 604.066 -0.448891 -0.603325 0
M  V30 6705 H 606.037 -2.39144 -1.78473 0
M  V30 6706 C 604.786 -1.3337 -3.21104 0
M  V30 6707 H 604.109 -2.18989 -3.3449 0
M  V30 6708 H 605.549 -1.38865 -4.00615 0
M  V30 6709 C 604.008 -0.0460484 -3.36869 0
M  V30 6710 O 604.538 0.909258 -3.91274 0
M  V30 6711 N 602.744 0.0300222 -2.90584 0
M  V30 6712 H 602.291 -0.748129 -2.46497 0
M  V30 6713 H 602.249 0.890991 -3.01511 0
M  V30 6714 N 606.021 0.929856 -1.27246 0
M  V30 6715 C 607.249 1.71144 -1.16265 0
M  V30 6716 C 607.664 1.867 0.280786 0
M  V30 6717 O 607.021 1.38249 1.19136 0
M  V30 6718 C 607.072 3.11222 -1.83911 0
M  V30 6719 O 606.793 2.96398 -3.22614 0
M  V30 6720 C 608.294 4.05541 -1.79028 0
M  V30 6721 H 605.514 0.535499 -0.404328 0
M  V30 6722 H 608.058 1.16492 -1.68077 0
M  V30 6723 H 606.213 3.6274 -1.36009 0
M  V30 6724 H 606.627 3.8494 -3.56261 0
M  V30 6725 H 608.101 5.01351 -2.30978 0
M  V30 6726 H 608.578 4.32589 -0.759168 0
M  V30 6727 H 609.184 3.59947 -2.26535 0
M  V30 6728 N 607.499 1.09233 1.13605 0
M  V30 6729 C 608.429 0.751738 2.21068 0
M  V30 6730 C 609.41 -0.269688 1.67948 0
M  V30 6731 O 610.595 -0.13819 1.93708 0
M  V30 6732 C 607.725 0.16935 3.46887 0
M  V30 6733 C 606.679 1.12007 4.13084 0
M  V30 6734 C 606.005 0.399483 5.33206 0
M  V30 6735 C 607.305 2.46168 4.6065 0
M  V30 6736 H 608.999 1.65024 2.49815 0
M  V30 6737 H 606.545 0.794905 1.20072 0
M  V30 6738 H 608.498 -0.0809824 4.21322 0
M  V30 6739 H 607.222 -0.764335 3.1753 0
M  V30 6740 H 605.881 1.35564 3.40614 0
M  V30 6741 H 605.529 -0.538277 5.00112 0
M  V30 6742 H 605.229 1.03337 5.78442 0
M  V30 6743 H 606.753 0.157403 6.10397 0
M  V30 6744 H 608.167 2.26829 5.26518 0
M  V30 6745 H 606.564 3.05326 5.1662 0
M  V30 6746 H 607.634 3.07076 3.75276 0
M  V30 6747 N 608.977 -1.30795 0.87923 0
M  V30 6748 C 610.225 -1.95974 0.493809 0
M  V30 6749 C 610.546 -1.69787 -0.959021 0
M  V30 6750 O 609.816 -1.01832 -1.67353 0
M  V30 6751 H 608.396 -0.725083 0.179622 0
M  V30 6752 H 611.058 -1.59432 1.12105 0
M  V30 6753 H 610.154 -3.05058 0.659263 0
M  V30 6754 N 610.455 -0.639598 -1.44038 0
M  V30 6755 C 611.703 -0.147188 -2.01563 0
M  V30 6756 C 612.024 1.2384 -1.50628 0
M  V30 6757 O 611.294 1.82452 -0.713316 0
M  V30 6758 H 609.874 -0.0514231 -0.745228 0
M  V30 6759 H 612.536 -0.828205 -1.76428 0
M  V30 6760 H 611.632 -0.121358 -3.11864 0
M  V30 6761 N 611.933 1.52934 -0.380664 0
M  V30 6762 C 613.344 1.86457 0.0952684 0
M  V30 6763 C 613.695 1.3007 1.46889 0
M  V30 6764 O 612.82 0.628636 2.07068 0
M  V30 6765 C 613.415 3.38323 0.179648 0
M  V30 6766 C 611.974 3.71589 0.599858 0
M  V30 6767 C 611.121 2.76228 -0.243572 0
M  V30 6768 H 614.072 1.46966 -0.59888 0
M  V30 6769 H 614.093 3.67113 1.00042 0
M  V30 6770 H 613.605 3.79333 -0.820228 0
M  V30 6771 H 611.706 3.36144 1.60742 0
M  V30 6772 H 611.819 4.77715 0.364003 0
M  V30 6773 H 610.183 2.53045 0.289855 0
M  V30 6774 H 610.966 3.20074 -1.24127 0
M  V30 6775 N 613.412 0.11024 1.57214 0
M  V30 6776 C 614.637 -0.561179 1.99664 0
M  V30 6777 C 615.062 -1.59985 0.989266 0
M  V30 6778 O 614.42 -1.81255 -0.0402399 0
M  V30 6779 C 614.468 -1.17189 3.41027 0
M  V30 6780 O 613.572 -2.28755 3.4314 0
M  V30 6781 H 612.913 -0.14101 0.648855 0
M  V30 6782 H 615.443 0.196128 2.03658 0
M  V30 6783 H 615.453 -1.50954 3.79047 0
M  V30 6784 H 614.128 -0.411041 4.13864 0
M  V30 6785 H 612.705 -1.96495 3.16929 0
M  V30 6786 N 614.89 -1.56749 -0.16351 0
M  V30 6787 C 616.139 -1.81626 -0.877211 0
M  V30 6788 C 616.452 -0.688791 -1.83071 0
M  V30 6789 O 617.658 -0.822697 -2.58735 0
M  V30 6790 C 616.114 -3.21858 -1.61045 0
M  V30 6791 C 615.722 -4.42494 -0.700195 0
M  V30 6792 C 617.466 -3.56021 -2.31192 0
M  V30 6793 C 615.373 -5.73748 -1.43412 0
M  V30 6794 H 614.303 -0.67731 -0.331312 0
M  V30 6795 H 616.954 -1.83039 -0.13006 0
M  V30 6796 H 615.336 -3.14784 -2.40264 0
M  V30 6797 H 616.51 -4.60766 0.0555849 0
M  V30 6798 H 614.825 -4.1626 -0.10799 0
M  V30 6799 H 617.422 -4.51333 -2.8671 0
M  V30 6800 H 617.765 -2.81277 -3.06902 0
M  V30 6801 H 618.298 -3.64682 -1.58909 0
M  V30 6802 H 615.037 -6.51543 -0.719186 0
M  V30 6803 H 614.557 -5.5944 -2.16302 0
M  V30 6804 H 616.236 -6.15975 -1.9795 0
M  V30 6805 N 616.368 0.432326 -1.51554 0
M  V30 6806 C 617.784 0.769195 -1.39841 0
M  V30 6807 C 617.984 1.95584 -0.484675 0
M  V30 6808 O 617.04 2.52433 0.0582829 0
M  V30 6809 C 618.353 1.04487 -2.81963 0
M  V30 6810 C 619.901 1.149 -2.91148 0
M  V30 6811 C 620.376 1.45758 -4.34187 0
M  V30 6812 N 621.867 1.52671 -4.37317 0
M  V30 6813 C 622.602 1.78129 -5.4503 0
M  V30 6814 N 622.098 2.01345 -6.62897 0
M  V30 6815 N 623.891 1.79953 -5.32516 0
M  V30 6816 H 616.042 -0.349122 -2.09511 0
M  V30 6817 H 618.305 -0.0938113 -0.943347 0
M  V30 6818 H 618.011 0.24557 -3.50842 0
M  V30 6819 H 617.885 1.97119 -3.21596 0
M  V30 6820 H 620.272 1.93891 -2.22464 0
M  V30 6821 H 620.353 0.201568 -2.55005 0
M  V30 6822 H 619.997 0.672917 -5.03423 0
M  V30 6823 H 619.927 2.41715 -4.67848 0
M  V30 6824 H 622.418 1.36612 -3.52343 0
M  V30 6825 H 622.731 2.20155 -7.40778 0
M  V30 6826 H 621.076 1.98657 -6.66003 0
M  V30 6827 H 624.267 1.61337 -4.39418 0
M  V30 6828 H 624.44 1.99455 -6.1654 0
M  V30 6829 N 617.846 1.41785 0.688094 0
M  V30 6830 C 619.071 1.45117 1.48175 0
M  V30 6831 C 619.496 0.060129 1.88004 0
M  V30 6832 O 618.854 -0.938385 1.55126 0
M  V30 6833 C 618.902 2.37224 2.71583 0
M  V30 6834 O 618.006 1.83443 3.69354 0
M  V30 6835 H 617.347 0.492208 0.445676 0
M  V30 6836 H 619.877 1.86329 0.845145 0
M  V30 6837 H 619.887 2.53353 3.19806 0
M  V30 6838 H 618.562 3.38293 2.41931 0
M  V30 6839 H 617.139 1.76802 3.28322 0
M  V30 6840 N 619.324 -0.923095 1.27737 0
M  V30 6841 C 620.287 -2.00587 1.10894 0
M  V30 6842 C 621.287 -1.60718 0.0514927 0
M  V30 6843 O 622.477 -1.71658 0.296481 0
M  V30 6844 C 619.609 -3.33829 0.690717 0
M  V30 6845 H 620.802 -2.16959 2.07048 0
M  V30 6846 H 618.355 -1.10451 1.1059 0
M  V30 6847 H 619.09 -3.23157 -0.272 0
M  V30 6848 H 618.875 -3.64125 1.45448 0
M  V30 6849 H 620.365 -4.13336 0.595252 0
M  V30 6850 N 620.802 -1.09834 -1.13024 0
M  V30 6851 C 622.032 -0.857657 -1.87957 0
M  V30 6852 C 622.44 0.595008 -1.796 0
M  V30 6853 O 621.783 1.42158 -1.16347 0
M  V30 6854 C 621.845 -1.21949 -3.38185 0
M  V30 6855 C 621.509 -2.67791 -3.7032 0
M  V30 6856 C 622.506 -3.66036 -3.69207 0
M  V30 6857 C 620.191 -3.04019 -3.99847 0
M  V30 6858 C 622.185 -4.98533 -3.9717 0
M  V30 6859 C 619.872 -4.36706 -4.27471 0
M  V30 6860 C 620.87 -5.33772 -4.26118 0
M  V30 6861 O 620.558 -6.64072 -4.53061 0
M  V30 6862 H 620.29 -0.308009 -0.601753 0
M  V30 6863 H 622.844 -1.46496 -1.43973 0
M  V30 6864 H 621.074 -0.555249 -3.82693 0
M  V30 6865 H 622.763 -0.957281 -3.9445 0
M  V30 6866 H 623.529 -3.39392 -3.46465 0
M  V30 6867 H 619.408 -2.29096 -4.00045 0
M  V30 6868 H 622.952 -5.74288 -3.96029 0
M  V30 6869 H 618.849 -4.63091 -4.49685 0
M  V30 6870 H 619.617 -6.69608 -4.7071 0
M  V30 6871 N 622.28 1.30327 -0.886154 0
M  V30 6872 C 623.529 1.95373 -0.501243 0
M  V30 6873 C 623.842 1.70722 0.954634 0
M  V30 6874 O 625.048 2.29761 1.44644 0
M  V30 6875 C 623.504 3.49828 -0.845493 0
M  V30 6876 C 623.112 3.83296 -2.31922 0
M  V30 6877 C 624.856 4.2118 -0.529838 0
M  V30 6878 C 622.763 5.30935 -2.60504 0
M  V30 6879 H 621.693 0.731274 -0.183722 0
M  V30 6880 H 624.344 1.48258 -1.08129 0
M  V30 6881 H 622.726 3.95522 -0.19452 0
M  V30 6882 H 623.9 3.48508 -3.01461 0
M  V30 6883 H 622.215 3.2505 -2.60253 0
M  V30 6884 H 624.812 5.29825 -0.720401 0
M  V30 6885 H 625.155 4.12902 0.530828 0
M  V30 6886 H 625.688 3.81173 -1.13806 0
M  V30 6887 H 622.427 5.44265 -3.65316 0
M  V30 6888 H 621.947 5.67019 -1.95575 0
M  V30 6889 H 623.626 5.98381 -2.46066 0
M  V30 6890 N 623.758 0.647228 1.43697 0
M  V30 6891 C 624.721 -0.0385101 2.29168 0
M  V30 6892 C 625.721 -0.756487 1.41894 0
M  V30 6893 O 626.911 -0.598641 1.63591 0
M  V30 6894 C 624.043 -1.06524 3.23829 0
M  V30 6895 H 625.236 0.713445 2.9129 0
M  V30 6896 H 622.789 0.408153 1.50877 0
M  V30 6897 H 623.524 -1.84664 2.66589 0
M  V30 6898 H 623.309 -0.554147 3.88164 0
M  V30 6899 H 624.799 -1.54432 3.87996 0
M  V30 6900 N 625.236 -1.5273 0.388769 0
M  V30 6901 C 626.199 -2.25043 -0.434544 0
M  V30 6902 C 627.199 -1.26661 -0.990644 0
M  V30 6903 O 628.389 -1.50762 -0.872731 0
M  V30 6904 C 625.521 -3.00507 -1.60961 0
M  V30 6905 H 626.714 -2.99242 0.198549 0
M  V30 6906 H 624.267 -1.55664 0.140875 0
M  V30 6907 H 625.002 -2.30607 -2.28015 0
M  V30 6908 H 624.787 -3.72716 -1.21757 0
M  V30 6909 H 626.277 -3.55413 -2.19251 0
M  V30 6910 N 626.714 -0.118576 -1.57153 0
M  V30 6911 C 627.644 0.828436 -2.1831 0
M  V30 6912 C 628.625 1.27758 -1.12303 0
M  V30 6913 O 629.81 1.34026 -1.40537 0
M  V30 6914 C 626.94 2.07876 -2.78217 0
M  V30 6915 C 625.894 1.76742 -3.89803 0
M  V30 6916 C 625.22 3.08801 -4.36516 0
M  V30 6917 C 626.52 1.03606 -5.11921 0
M  V30 6918 H 628.214 0.318824 -2.97698 0
M  V30 6919 H 625.76 0.151911 -1.43196 0
M  V30 6920 H 627.713 2.74584 -3.19659 0
M  V30 6921 H 626.437 2.61161 -1.96118 0
M  V30 6922 H 625.096 1.12424 -3.48936 0
M  V30 6923 H 624.744 3.6002 -3.51276 0
M  V30 6924 H 624.444 2.88743 -5.11763 0
M  V30 6925 H 625.968 3.76627 -4.80608 0
M  V30 6926 H 627.382 1.60467 -5.50385 0
M  V30 6927 H 625.779 0.936454 -5.92748 0
M  V30 6928 H 626.849 0.0227421 -4.84895 0
M  V30 6929 N 628.193 1.56834 0.155195 0
M  V30 6930 C 629.423 1.86778 0.883044 0
M  V30 6931 C 629.831 0.703824 1.75622 0
M  V30 6932 O 629.174 -0.33581 1.80605 0
M  V30 6933 C 629.236 3.1133 1.79761 0
M  V30 6934 C 628.9 4.43504 1.10242 0
M  V30 6935 C 629.897 5.17859 0.460204 0
M  V30 6936 C 627.582 4.90233 1.09437 0
M  V30 6937 C 629.576 6.37144 -0.180782 0
M  V30 6938 C 627.263 6.09444 0.449569 0
M  V30 6939 C 628.261 6.82744 -0.186888 0
M  V30 6940 O 627.949 7.99692 -0.821486 0
M  V30 6941 H 627.681 0.62352 0.261149 0
M  V30 6942 H 630.235 2.04813 0.155204 0
M  V30 6943 H 628.465 2.89282 2.56618 0
M  V30 6944 H 630.154 3.27587 2.39669 0
M  V30 6945 H 630.92 4.8283 0.458289 0
M  V30 6946 H 626.799 4.33109 1.57917 0
M  V30 6947 H 630.343 6.94296 -0.678154 0
M  V30 6948 H 626.24 6.43936 0.449123 0
M  V30 6949 H 627.008 8.15306 -0.722337 0
M  V30 6950 N 629.671 -0.424282 1.51781 0
M  V30 6951 C 630.918 -1.1726 1.65095 0
M  V30 6952 C 631.246 -1.90881 0.373477 0
M  V30 6953 O 630.501 -1.84835 -0.642997 0
M  V30 6954 C 630.8 -2.20418 2.81337 0
M  V30 6955 C 630.466 -1.63715 4.20129 0
M  V30 6956 C 629.128 -1.47975 4.57883 0
M  V30 6957 C 631.48 -1.22157 5.06682 0
M  V30 6958 C 628.808 -0.891703 5.79884 0
M  V30 6959 C 631.16 -0.647767 6.29275 0
M  V30 6960 C 629.824 -0.477371 6.65791 0
M  V30 6961 H 629.094 -0.429085 0.604125 0
M  V30 6962 H 631.741 -0.461852 1.85847 0
M  V30 6963 H 630.046 -2.97581 2.54859 0
M  V30 6964 H 631.743 -2.78163 2.88836 0
M  V30 6965 H 628.333 -1.76946 3.90369 0
M  V30 6966 H 632.517 -1.33133 4.7811 0
M  V30 6967 H 627.773 -0.747563 6.06813 0
M  V30 6968 H 631.947 -0.317291 6.95677 0
M  V30 6969 H 629.574 -0.0195936 7.60197 0
M  V30 6970 N 631.149 -1.42148 -0.680565 0
M  V30 6971 C 632.377 -1.45696 -1.46902 0
M  V30 6972 C 632.792 -0.0665858 -1.88683 0
M  V30 6973 O 632.149 0.917436 -1.57764 0
M  V30 6974 C 632.2 -2.37898 -2.72188 0
M  V30 6975 O 631.921 -3.71526 -2.32163 0
M  V30 6976 C 633.422 -2.50407 -3.65802 0
M  V30 6977 H 630.642 -0.495729 -0.45221 0
M  V30 6978 H 633.186 -1.866 -0.836709 0
M  V30 6979 H 631.341 -2.00263 -3.31622 0
M  V30 6980 H 631.755 -4.20849 -3.13027 0
M  V30 6981 H 633.229 -3.19056 -4.50452 0
M  V30 6982 H 633.706 -1.5401 -4.11312 0
M  V30 6983 H 634.312 -2.8874 -3.12265 0
M  V30 6984 N 632.627 0.916307 -1.28225 0
M  V30 6985 C 633.557 2.0352 -1.14464 0
M  V30 6986 C 634.538 1.70045 -0.0430844 0
M  V30 6987 O 635.723 1.92954 -0.219619 0
M  V30 6988 C 632.853 3.37889 -0.803027 0
M  V30 6989 C 631.807 3.85516 -1.85908 0
M  V30 6990 C 631.133 5.1682 -1.37116 0
M  V30 6991 C 632.433 4.07655 -3.26519 0
M  V30 6992 H 634.127 2.1529 -2.08064 0
M  V30 6993 H 631.673 1.03446 -1.00174 0
M  V30 6994 H 633.626 4.15654 -0.693537 0
M  V30 6995 H 632.35 3.26164 0.168674 0
M  V30 6996 H 631.009 3.09953 -1.95767 0
M  V30 6997 H 630.657 5.01497 -0.38859 0
M  V30 6998 H 630.357 5.49657 -2.07728 0
M  V30 6999 H 631.881 5.97143 -1.27484 0
M  V30 7000 H 633.295 4.75953 -3.19596 0
M  V30 7001 H 631.692 4.51818 -3.94943 0
M  V30 7002 H 632.762 3.12553 -3.70727 0
M  V30 7003 N 634.105 1.10431 1.1244 0
M  V30 7004 C 635.33 0.869089 1.88313 0
M  V30 7005 C 635.755 -0.574912 1.79099 0
M  V30 7006 O 635.113 -1.40496 1.14589 0
M  V30 7007 C 635.161 1.32208 3.3549 0
M  V30 7008 O 634.265 0.487092 4.09513 0
M  V30 7009 H 633.606 0.313894 0.585121 0
M  V30 7010 H 636.136 1.47111 1.42195 0
M  V30 7011 H 636.146 1.31201 3.86329 0
M  V30 7012 H 634.821 2.37364 3.41513 0
M  V30 7013 H 633.398 0.562372 3.68635 0
M  V30 7014 N 635.583 -1.29855 0.893053 0
M  V30 7015 C 636.808 -2.00512 0.530066 0
M  V30 7016 C 637.233 -1.66446 -0.876199 0
M  V30 7017 O 636.591 -0.885446 -1.58207 0
M  V30 7018 C 636.639 -3.53308 0.721505 0
M  V30 7019 O 635.743 -4.11764 -0.228994 0
M  V30 7020 H 635.084 -0.630617 0.207891 0
M  V30 7021 H 637.614 -1.6551 1.20282 0
M  V30 7022 H 637.624 -4.03206 0.623599 0
M  V30 7023 H 636.299 -3.77439 1.74678 0
M  V30 7024 H 634.876 -3.72805 -0.0841034 0
M  V30 7025 N 637.061 -0.65484 -1.43351 0
M  V30 7026 C 637.991 0.0221809 -2.33489 0
M  V30 7027 C 638.972 0.810272 -1.49561 0
M  V30 7028 O 640.157 0.771426 -1.78221 0
M  V30 7029 C 637.287 0.988117 -3.32947 0
M  V30 7030 C 636.241 0.310026 -4.26876 0
M  V30 7031 C 635.567 1.38752 -5.16384 0
M  V30 7032 C 636.867 -0.798589 -5.16159 0
M  V30 7033 H 638.561 -0.730571 -2.9035 0
M  V30 7034 H 636.107 -0.352773 -1.39612 0
M  V30 7035 H 638.06 1.47067 -3.94904 0
M  V30 7036 H 636.784 1.77205 -2.74346 0
M  V30 7037 H 635.443 -0.152097 -3.66284 0
M  V30 7038 H 635.091 2.16293 -4.54121 0
M  V30 7039 H 634.791 0.939051 -5.80048 0
M  V30 7040 H 636.315 1.87141 -5.81215 0
M  V30 7041 H 637.729 -0.398126 -5.71916 0
M  V30 7042 H 636.126 -1.17163 -5.88552 0
M  V30 7043 H 637.196 -1.65588 -4.55751 0
M  V30 7044 N 638.539 1.52521 -0.396863 0
M  V30 7045 C 639.767 2.06091 0.18275 0
M  V30 7046 C 640.182 1.26796 1.39886 0
M  V30 7047 O 639.539 0.316585 1.79733 0
M  V30 7048 C 639.59 3.57362 0.545377 0
M  V30 7049 O 639.311 4.33656 -0.622428 0
M  V30 7050 C 640.812 4.27305 1.18004 0
M  V30 7051 H 638.032 0.670504 0.025789 0
M  V30 7052 H 640.576 1.96561 -0.564276 0
M  V30 7053 H 638.731 3.66941 1.2423 0
M  V30 7054 H 639.145 5.23507 -0.322662 0
M  V30 7055 H 640.619 5.34366 1.38408 0
M  V30 7056 H 641.096 3.83 2.1496 0
M  V30 7057 H 641.702 4.22064 0.523671 0
M  V30 7058 N 640.017 0.126909 1.57088 0
M  V30 7059 C 641.242 -0.53997 2.00248 0
M  V30 7060 C 641.667 -1.58927 1.00618 0
M  V30 7061 O 641.025 -1.81288 -0.0210131 0
M  V30 7062 C 641.073 -1.13565 3.4225 0
M  V30 7063 O 640.177 -2.25103 3.45547 0
M  V30 7064 H 639.518 -0.13412 0.650314 0
M  V30 7065 H 642.048 0.217718 2.03438 0
M  V30 7066 H 642.058 -1.46925 3.80627 0
M  V30 7067 H 640.733 -0.367122 4.14277 0
M  V30 7068 H 639.31 -1.93123 3.18995 0
M  V30 7069 N 641.495 -1.56914 -0.146875 0
M  V30 7070 C 642.741 -1.83628 -0.860741 0
M  V30 7071 C 643.074 -0.708528 -1.80813 0
M  V30 7072 O 642.349 0.287838 -1.92358 0
M  V30 7073 C 642.632 -3.20836 -1.63511 0
M  V30 7074 C 642.485 -4.44174 -0.709199 0
M  V30 7075 C 643.804 -3.55268 -2.59756 0
M  V30 7076 H 640.923 -0.667949 -0.311468 0
M  V30 7077 H 643.565 -1.89582 -0.125936 0
M  V30 7078 H 641.715 -3.15891 -2.26153 0
M  V30 7079 H 643.387 -4.61205 -0.0937781 0
M  V30 7080 H 641.63 -4.33796 -0.0187856 0
M  V30 7081 H 642.301 -5.36785 -1.28707 0
M  V30 7082 H 644.777 -3.60824 -2.07232 0
M  V30 7083 H 643.653 -4.52303 -3.10987 0
M  V30 7084 H 643.914 -2.81231 -3.41118 0
M  V30 7085 N 642.974 0.416227 -1.52004 0
M  V30 7086 C 644.222 1.16153 -1.65387 0
M  V30 7087 C 644.543 1.91208 -0.382669 0
M  V30 7088 O 643.813 1.86413 0.602231 0
M  V30 7089 H 642.393 0.431765 -0.60958 0
M  V30 7090 H 645.055 0.475151 -1.89019 0
M  V30 7091 H 644.151 1.87952 -2.4916 0
M  V30 7092 N 644.452 1.42507 0.673017 0
M  V30 7093 C 645.699 1.43072 1.43306 0
M  V30 7094 C 646.027 0.0478004 1.94441 0
M  V30 7095 O 645.282 -0.944106 1.71421 0
M  V30 7096 C 645.581 2.40351 2.64511 0
M  V30 7097 C 645.247 3.8669 2.31908 0
M  V30 7098 C 643.909 4.26551 2.22728 0
M  V30 7099 C 646.261 4.78991 2.05467 0
M  V30 7100 C 643.589 5.56691 1.85234 0
M  V30 7101 C 645.941 6.09476 1.69477 0
M  V30 7102 C 644.605 6.48334 1.58808 0
M  V30 7103 H 643.875 0.523536 0.524395 0
M  V30 7104 H 646.522 1.75459 0.76723 0
M  V30 7105 H 644.827 2.01297 3.36135 0
M  V30 7106 H 646.524 2.38051 3.22696 0
M  V30 7107 H 643.114 3.55132 2.39956 0
M  V30 7108 H 647.298 4.48982 2.11492 0
M  V30 7109 H 642.554 5.85657 1.75545 0
M  V30 7110 H 646.728 6.80482 1.48043 0
M  V30 7111 H 644.355 7.49084 1.29525 0
M  V30 7112 N 645.93 -0.909495 1.28709 0
M  V30 7113 C 647.178 -1.65577 1.15882 0
M  V30 7114 C 647.499 -1.928 -0.292108 0
M  V30 7115 O 646.769 -1.54716 -1.20166 0
M  V30 7116 H 645.349 -0.613714 0.425869 0
M  V30 7117 H 648.011 -1.09108 1.61498 0
M  V30 7118 H 647.107 -2.61634 1.70159 0
M  V30 7119 N 647.408 -1.11026 -1.11852 0
M  V30 7120 C 648.356 -0.759643 -2.19846 0
M  V30 7121 C 649.35 0.246964 -1.6759 0
M  V30 7122 O 650.556 0.106693 -1.79684 0
M  V30 7123 H 646.931 -0.22775 -0.716683 0
M  V30 7124 H 648.902 -1.6792 -2.46669 0
M  V30 7125 C 647.651 -0.214364 -3.47039 0
M  V30 7126 H 646.974 -0.980175 -3.87599 0
M  V30 7127 H 648.414 -0.00717047 -4.23999 0
M  V30 7128 C 646.873 1.05436 -3.19976 0
M  V30 7129 O 647.403 2.13483 -3.40276 0
M  V30 7130 N 645.609 0.975436 -2.7374 0
M  V30 7131 H 645.156 0.0960853 -2.57421 0
M  V30 7132 H 645.114 1.82501 -2.5601 0
M  V30 7133 N 648.886 1.2938 -0.899927 0
M  V30 7134 C 650.132 1.9584 -0.526742 0
M  V30 7135 C 650.465 1.70774 0.924651 0
M  V30 7136 O 649.74 1.02084 1.65557 0
M  V30 7137 C 650.023 3.50638 -0.820062 0
M  V30 7138 C 649.876 3.85161 -2.32317 0
M  V30 7139 C 651.195 4.3903 -0.30671 0
M  V30 7140 H 648.314 0.711322 -0.192848 0
M  V30 7141 H 650.956 1.52992 -1.12665 0
M  V30 7142 H 649.106 3.87265 -0.309491 0
M  V30 7143 H 650.778 3.58477 -2.9033 0
M  V30 7144 H 649.021 3.32696 -2.78381 0
M  V30 7145 H 649.692 4.93204 -2.47898 0
M  V30 7146 H 652.168 4.09396 -0.743908 0
M  V30 7147 H 651.044 5.46226 -0.541144 0
M  V30 7148 H 651.305 4.34937 0.792588 0
M  V30 7149 N 650.364 0.662433 1.43002 0
M  V30 7150 C 651.589 0.186003 2.06564 0
M  V30 7151 C 652.014 -1.14314 1.49379 0
M  V30 7152 O 651.372 -1.70824 0.607346 0
M  V30 7153 C 651.42 0.118269 3.60406 0
M  V30 7154 O 650.524 -0.916859 4.02079 0
M  V30 7155 H 649.865 0.0990981 0.656563 0
M  V30 7156 H 652.395 0.907958 1.8335 0
M  V30 7157 H 652.405 -0.0619981 4.07953 0
M  V30 7158 H 651.08 1.08849 4.01403 0
M  V30 7159 H 649.657 -0.708635 3.66105 0
M  V30 7160 N 651.842 -1.52309 0.404946 0
M  V30 7161 C 652.805 -2.25491 -0.410651 0
M  V30 7162 C 653.805 -1.27704 -0.977154 0
M  V30 7163 O 654.995 -1.51679 -0.856691 0
M  V30 7164 C 652.127 -3.02197 -1.57765 0
M  V30 7165 H 653.32 -2.99015 0.230277 0
M  V30 7166 H 650.873 -1.55506 0.157377 0
M  V30 7167 H 651.608 -2.33013 -2.25556 0
M  V30 7168 H 651.393 -3.73987 -1.17797 0
M  V30 7169 H 652.883 -3.57719 -2.15469 0
M  V30 7170 N 653.32 -0.135238 -1.57019 0
M  V30 7171 C 654.268 0.826099 -2.17436 0
M  V30 7172 C 655.262 1.26378 -1.12805 0
M  V30 7173 O 656.468 1.23363 -1.31079 0
M  V30 7174 H 652.843 0.284568 -0.696078 0
M  V30 7175 H 654.814 0.292212 -2.96966 0
M  V30 7176 C 653.563 2.05991 -2.80112 0
M  V30 7177 H 652.886 1.73209 -3.60331 0
M  V30 7178 H 654.326 2.71225 -3.25903 0
M  V30 7179 C 652.785 2.86027 -1.78017 0
M  V30 7180 O 653.315 3.81971 -1.24344 0
M  V30 7181 N 651.521 2.50332 -1.47588 0
M  V30 7182 H 651.068 1.72377 -1.91426 0
M  V30 7183 H 651.026 3.04177 -0.795228 0
M  V30 7184 N 654.798 1.5699 0.138552 0
M  V30 7185 C 656.026 1.87976 0.864437 0
M  V30 7186 C 656.441 0.724372 1.74351 0
M  V30 7187 O 655.798 -0.305575 1.79924 0
M  V30 7188 C 655.849 3.18276 1.71414 0
M  V30 7189 O 655.57 4.29365 0.870487 0
M  V30 7190 C 657.071 3.62834 2.54688 0
M  V30 7191 H 654.291 0.622878 0.249528 0
M  V30 7192 H 656.835 2.04094 0.128805 0
M  V30 7193 H 654.99 3.03886 2.40274 0
M  V30 7194 H 655.404 5.03924 1.45466 0
M  V30 7195 H 656.878 4.5682 3.0987 0
M  V30 7196 H 657.355 2.88533 3.31127 0
M  V30 7197 H 657.961 3.79946 1.91105 0
M  V30 7198 N 656.276 -0.40816 1.52223 0
M  V30 7199 C 657.553 -1.16807 1.56893 0
M  V30 7200 C 657.933 -2.08169 0.350537 0
M  V30 7201 O 657.281 -2.18684 -0.662536 0
M  V30 7202 C 657.491 -1.94451 2.8981 0
M  V30 7203 C 658.839 -2.50484 3.42845 0
M  V30 7204 O 659.863 -2.0463 2.91556 0
M  V30 7205 O 658.722 -3.34192 4.3241 0
M  V30 7206 H 655.816 -0.533382 0.632007 0
M  V30 7207 H 658.362 -0.414862 1.64551 0
M  V30 7208 H 657.134 -1.27527 3.69936 0
M  V30 7209 H 656.757 -2.76775 2.85449 0
M  V30 7210 N 657.755 -1.42862 -0.66545 0
M  V30 7211 C 658.718 -1.46756 -1.76055 0
M  V30 7212 C 659.718 -0.353866 -1.56858 0
M  V30 7213 O 660.908 -0.615099 -1.62979 0
M  V30 7214 C 658.04 -1.30829 -3.14796 0
M  V30 7215 H 659.233 -2.44271 -1.73987 0
M  V30 7216 H 656.786 -1.29447 -0.875965 0
M  V30 7217 H 657.521 -0.342733 -3.22484 0
M  V30 7218 H 657.306 -2.11551 -3.30134 0
M  V30 7219 H 658.796 -1.36458 -3.94676 0
M  V30 7220 N 659.233 0.902656 -1.29189 0
M  V30 7221 C 660.143 2.03946 -1.15944 0
M  V30 7222 C 661.159 1.738 -0.0833803 0
M  V30 7223 O 662.335 1.9923 -0.29487 0
M  V30 7224 C 659.4 3.36519 -0.834006 0
M  V30 7225 C 658.461 3.80203 -1.9936 0
M  V30 7226 C 657.694 5.06449 -1.68359 0
M  V30 7227 O 657.917 5.67202 -0.603141 0
M  V30 7228 O 656.851 5.46114 -2.53067 0
M  V30 7229 H 660.677 2.18043 -2.11403 0
M  V30 7230 H 658.262 1.02584 -1.08613 0
M  V30 7231 H 660.144 4.16089 -0.666949 0
M  V30 7232 H 658.819 3.23573 0.0908245 0
M  V30 7233 H 657.726 3.01413 -2.21588 0
M  V30 7234 H 659.059 3.97729 -2.89952 0
M  V30 7235 N 660.711 1.11618 1.11262 0
M  V30 7236 C 661.658 0.7762 2.17356 0
M  V30 7237 C 662.628 -0.253152 1.6416 0
M  V30 7238 O 663.813 -0.129655 1.90359 0
M  V30 7239 C 660.953 0.227581 3.44349 0
M  V30 7240 C 660.066 1.31372 4.1154 0
M  V30 7241 C 659.201 0.72544 5.26223 0
M  V30 7242 C 658.24 1.7913 5.85302 0
M  V30 7243 N 657.377 1.22237 6.91377 0
M  V30 7244 H 662.217 1.68508 2.45783 0
M  V30 7245 H 659.754 0.841475 1.20655 0
M  V30 7246 H 661.712 -0.108483 4.17059 0
M  V30 7247 H 660.342 -0.644486 3.16301 0
M  V30 7248 H 659.394 1.7667 3.36885 0
M  V30 7249 H 660.706 2.12005 4.51504 0
M  V30 7250 H 659.86 0.339541 6.05749 0
M  V30 7251 H 658.599 -0.112188 4.87571 0
M  V30 7252 H 657.604 2.18648 5.04453 0
M  V30 7253 H 658.829 2.63199 6.26022 0
M  V30 7254 H 656.775 0.406423 6.5474 0
M  V30 7255 H 656.692 1.9654 7.30006 0
M  V30 7256 H 657.96 0.863426 7.74703 0
M  V30 7257 N 662.189 -1.289 0.906776 0
M  V30 7258 C 663.438 -1.9455 0.532262 0
M  V30 7259 C 663.751 -1.72219 -0.927353 0
M  V30 7260 O 664.957 -2.32033 -1.40971 0
M  V30 7261 C 663.413 -3.48438 0.901041 0
M  V30 7262 C 663.021 -3.79558 2.37991 0
M  V30 7263 C 664.765 -4.20284 0.596777 0
M  V30 7264 C 662.672 -5.26723 2.68918 0
M  V30 7265 H 661.602 -0.728259 0.195333 0
M  V30 7266 H 664.253 -1.46519 1.10474 0
M  V30 7267 H 662.635 -3.95162 0.257419 0
M  V30 7268 H 663.809 -3.43668 3.06967 0
M  V30 7269 H 662.124 -3.20868 2.65391 0
M  V30 7270 H 664.721 -5.28612 0.8046 0
M  V30 7271 H 665.064 -4.13694 -0.465072 0
M  V30 7272 H 665.597 -3.79315 1.19855 0
M  V30 7273 H 662.336 -5.38384 3.73928 0
M  V30 7274 H 661.856 -5.63836 2.04571 0
M  V30 7275 H 663.535 -5.94391 2.55555 0
M  V30 7276 N 663.667 -0.670007 -1.42649 0
M  V30 7277 C 664.914 -0.190286 -2.01604 0
M  V30 7278 C 665.242 1.20155 -1.52948 0
M  V30 7279 O 664.497 1.81964 -0.72026 0
M  V30 7280 C 664.796 -0.168298 -3.57004 0
M  V30 7281 C 664.462 -1.50415 -4.25072 0
M  V30 7282 C 663.124 -1.86992 -4.43382 0
M  V30 7283 C 665.476 -2.38414 -4.63474 0
M  V30 7284 C 662.804 -3.11203 -4.97363 0
M  V30 7285 C 665.156 -3.61933 -5.18833 0
M  V30 7286 C 663.82 -3.98685 -5.35356 0
M  V30 7287 H 663.09 -0.0696305 -0.737721 0
M  V30 7288 H 665.737 -0.864044 -1.70899 0
M  V30 7289 H 664.042 0.588958 -3.87348 0
M  V30 7290 H 665.739 0.22001 -4.00396 0
M  V30 7291 H 662.329 -1.20959 -4.11177 0
M  V30 7292 H 666.513 -2.11442 -4.49006 0
M  V30 7293 H 661.769 -3.39705 -5.08341 0
M  V30 7294 H 665.943 -4.30326 -5.47533 0
M  V30 7295 H 663.57 -4.95009 -5.76949 0
M  V30 7296 N 665.145 1.52092 -0.413018 0
M  V30 7297 C 666.37 2.06756 0.163338 0
M  V30 7298 C 666.795 1.28073 1.37764 0
M  V30 7299 O 666.153 0.312015 1.78595 0
M  V30 7300 C 666.201 3.57278 0.488322 0
M  V30 7301 O 665.305 3.80986 1.57871 0
M  V30 7302 H 664.646 0.663882 0.0125068 0
M  V30 7303 H 667.176 1.95988 -0.587339 0
M  V30 7304 H 667.186 4.01125 0.745836 0
M  V30 7305 H 665.861 4.13978 -0.399327 0
M  V30 7306 H 664.438 3.49017 1.31306 0
M  V30 7307 N 666.623 0.143563 1.56945 0
M  V30 7308 C 667.872 -0.50835 1.95189 0
M  V30 7309 C 668.185 -1.66239 1.03073 0
M  V30 7310 O 669.391 -2.3787 1.30882 0
M  V30 7311 C 667.847 -0.955735 3.46978 0
M  V30 7312 C 667.455 0.171183 4.47673 0
M  V30 7313 C 669.199 -1.57763 3.94095 0
M  V30 7314 C 667.106 -0.294279 5.90667 0
M  V30 7315 H 666.036 -0.193679 0.728701 0
M  V30 7316 H 668.687 0.227357 1.82086 0
M  V30 7317 H 667.069 -1.7466 3.55401 0
M  V30 7318 H 668.243 0.948049 4.50942 0
M  V30 7319 H 666.558 0.701273 4.10452 0
M  V30 7320 H 669.155 -1.93745 4.98364 0
M  V30 7321 H 669.498 -2.46531 3.35452 0
M  V30 7322 H 670.031 -0.851728 3.88575 0
M  V30 7323 H 666.77 0.557939 6.53121 0
M  V30 7324 H 666.29 -1.0371 5.90766 0
M  V30 7325 H 667.969 -0.747426 6.42668 0
M  V30 7326 N 668.101 -1.57061 -0.130224 0
M  V30 7327 C 669.341 -1.86071 -0.845993 0
M  V30 7328 C 669.705 -0.73009 -1.77577 0
M  V30 7329 O 670.906 -0.901663 -2.53226 0
M  V30 7330 C 669.177 -3.20293 -1.58579 0
M  V30 7331 S 670.736 -3.70905 -2.34467 0
M  V30 7332 H 667.554 -0.652434 -0.282579 0
M  V30 7333 H 670.156 -1.95218 -0.10498 0
M  V30 7334 H 668.86 -4.00533 -0.894509 0
M  V30 7335 H 668.391 -3.14195 -2.36739 0
M  V30 7336 H 670.406 -3.41509 -3.59981 0
M  V30 7337 N 669.579 0.400081 -1.52437 0
M  V30 7338 C 670.807 1.16768 -1.70801 0
M  V30 7339 C 671.222 1.84036 -0.421462 0
M  V30 7340 O 670.579 1.72242 0.603228 0
M  V30 7341 C 670.63 2.22403 -2.8499 0
M  V30 7342 O 670.351 1.57879 -4.08663 0
M  V30 7343 C 671.852 3.11974 -3.1494 0
M  V30 7344 H 669.072 0.350533 -0.57216 0
M  V30 7345 H 671.616 0.469534 -1.99037 0
M  V30 7346 H 669.771 2.87871 -2.59247 0
M  V30 7347 H 670.185 2.27982 -4.7236 0
M  V30 7348 H 671.659 3.82148 -3.9833 0
M  V30 7349 H 672.136 3.74858 -2.28863 0
M  V30 7350 H 672.742 2.52165 -3.42481 0
M  V30 7351 N 671.057 1.43213 0.657864 0
M  V30 7352 C 671.99 1.42456 1.78273 0
M  V30 7353 C 672.968 0.286598 1.60054 0
M  V30 7354 O 674.152 0.479467 1.823 0
M  V30 7355 C 671.279 1.23169 3.15511 0
M  V30 7356 C 670.325 2.40181 3.52442 0
M  V30 7357 S 671.158 4.02729 3.52944 0
M  V30 7358 C 672.314 3.85816 4.92846 0
M  V30 7359 H 672.547 2.37642 1.78644 0
M  V30 7360 H 670.08 1.30188 0.830084 0
M  V30 7361 H 672.038 1.12728 3.94719 0
M  V30 7362 H 670.699 0.295398 3.12708 0
M  V30 7363 H 669.892 2.22478 4.52239 0
M  V30 7364 H 669.494 2.47224 2.80636 0
M  V30 7365 H 671.786 3.47853 5.81381 0
M  V30 7366 H 672.729 4.85348 5.15599 0
M  V30 7367 H 673.137 3.18361 4.66162 0
M  V30 7368 N 672.536 -0.895792 1.29666 0
M  V30 7369 C 673.466 -2.01673 1.17688 0
M  V30 7370 C 674.447 -1.69955 0.0701317 0
M  V30 7371 O 675.632 -1.9258 0.250289 0
M  V30 7372 C 672.762 -3.36568 0.856681 0
M  V30 7373 C 671.716 -3.82509 1.92017 0
M  V30 7374 C 671.042 -5.14574 1.4532 0
M  V30 7375 C 672.342 -4.02409 3.32963 0
M  V30 7376 H 674.036 -2.11953 2.11463 0
M  V30 7377 H 671.582 -1.01839 1.01807 0
M  V30 7378 H 673.535 -4.14498 0.759577 0
M  V30 7379 H 672.259 -3.26391 -0.116763 0
M  V30 7380 H 670.918 -3.068 2.00673 0
M  V30 7381 H 670.566 -5.00815 0.468325 0
M  V30 7382 H 670.266 -5.46283 2.16447 0
M  V30 7383 H 671.79 -5.9504 1.36968 0
M  V30 7384 H 673.204 -4.70808 3.27127 0
M  V30 7385 H 671.601 -4.45478 4.02082 0
M  V30 7386 H 672.671 -3.06616 3.75652 0
M  V30 7387 N 674.014 -1.12206 -1.10668 0
M  V30 7388 C 675.263 -0.870595 -1.81944 0
M  V30 7389 C 675.576 0.605447 -1.85994 0
M  V30 7390 O 676.782 0.973433 -2.53449 0
M  V30 7391 C 675.238 -1.50783 -3.26791 0
M  V30 7392 C 674.846 -3.01849 -3.31046 0
M  V30 7393 C 676.59 -1.33653 -4.02911 0
M  V30 7394 C 674.497 -3.58518 -4.70339 0
M  V30 7395 H 673.427 -0.322043 -0.681765 0
M  V30 7396 H 676.078 -1.34827 -1.24475 0
M  V30 7397 H 674.46 -0.957825 -3.84242 0
M  V30 7398 H 675.634 -3.63321 -2.83433 0
M  V30 7399 H 673.949 -3.18346 -2.68411 0
M  V30 7400 H 676.546 -1.73416 -5.05797 0
M  V30 7401 H 676.889 -0.279949 -4.15358 0
M  V30 7402 H 677.422 -1.85562 -3.51868 0
M  V30 7403 H 674.161 -4.63925 -4.63091 0
M  V30 7404 H 673.681 -3.01819 -5.18329 0
M  V30 7405 H 675.36 -3.57434 -5.39305 0
M  V30 7406 N 675.492 1.28418 -0.913599 0
M  V30 7407 C 676.74 1.94596 -0.545594 0
M  V30 7408 C 677.061 1.7227 0.913668 0
M  V30 7409 O 676.331 1.06233 1.64595 0
M  V30 7410 H 674.911 0.720065 -0.198783 0
M  V30 7411 H 677.573 1.56404 -1.16292 0
M  V30 7412 H 676.669 3.03202 -0.739911 0
M  V30 7413 N 676.97 0.677563 1.42291 0
M  V30 7414 C 677.933 0.0101085 2.29198 0
M  V30 7415 C 678.933 -0.726219 1.43467 0
M  V30 7416 O 680.123 -0.563807 1.64824 0
M  V30 7417 C 677.255 -0.996316 3.26016 0
M  V30 7418 H 678.448 0.775071 2.89711 0
M  V30 7419 H 676.001 0.440065 1.49977 0
M  V30 7420 H 676.736 -1.78967 2.70446 0
M  V30 7421 H 676.521 -0.471687 3.89253 0
M  V30 7422 H 678.011 -1.46167 3.91184 0
M  V30 7423 N 678.448 -1.51871 0.421078 0
M  V30 7424 C 679.378 -2.30231 -0.389363 0
M  V30 7425 C 680.359 -1.34946 -1.03555 0
M  V30 7426 O 681.544 -1.63859 -1.04229 0
M  V30 7427 C 678.674 -3.13247 -1.49979 0
M  V30 7428 C 677.628 -4.16677 -0.977966 0
M  V30 7429 C 676.954 -4.88112 -2.1829 0
M  V30 7430 C 678.254 -5.22295 -0.0236775 0
M  V30 7431 H 679.948 -2.98229 0.264524 0
M  V30 7432 H 677.494 -1.43424 0.12866 0
M  V30 7433 H 679.447 -3.66838 -2.07383 0
M  V30 7434 H 678.171 -2.4304 -2.18173 0
M  V30 7435 H 676.83 -3.64114 -0.426245 0
M  V30 7436 H 676.478 -4.14423 -2.85066 0
M  V30 7437 H 676.178 -5.58041 -1.84021 0
M  V30 7438 H 677.702 -5.44521 -2.76278 0
M  V30 7439 H 679.116 -5.71055 -0.506899 0
M  V30 7440 H 677.513 -5.99656 0.230782 0
M  V30 7441 H 678.583 -4.76131 0.917999 0
M  V30 7442 N 679.926 -0.151884 -1.56866 0
M  V30 7443 C 680.859 0.824094 -2.128 0
M  V30 7444 C 681.837 1.2391 -1.05286 0
M  V30 7445 O 683.021 1.33433 -1.33146 0
M  V30 7446 C 680.148 2.1072 -2.65169 0
M  V30 7447 C 679.194 1.83774 -3.84876 0
M  V30 7448 S 680.027 1.02436 -5.25611 0
M  V30 7449 C 681.183 2.31855 -5.81373 0
M  V30 7450 H 681.416 0.348456 -2.95251 0
M  V30 7451 H 678.949 0.0624794 -1.54274 0
M  V30 7452 H 680.907 2.84428 -2.95992 0
M  V30 7453 H 679.568 2.55398 -1.8284 0
M  V30 7454 H 678.761 2.78929 -4.19779 0
M  V30 7455 H 678.363 1.18172 -3.5484 0
M  V30 7456 H 680.655 3.27469 -5.93102 0
M  V30 7457 H 681.598 2.01449 -6.7884 0
M  V30 7458 H 682.006 2.42727 -5.09651 0
M  V30 7459 N 681.404 1.57128 0.121893 0
M  V30 7460 C 682.354 1.96556 1.15541 0
M  V30 7461 C 683.338 0.840147 1.37224 0
M  V30 7462 O 684.53 1.10382 1.38365 0
M  V30 7463 C 681.659 2.37097 2.48274 0
M  V30 7464 C 680.745 3.56265 2.30078 0
M  V30 7465 N 681.136 4.72041 1.81688 0
M  V30 7466 C 679.434 3.61841 2.60744 0
M  V30 7467 C 680.135 5.54075 1.77132 0
M  V30 7468 N 679.111 4.96483 2.21371 0
M  V30 7469 H 682.913 2.83531 0.77378 0
M  V30 7470 H 680.427 1.59019 0.329672 0
M  V30 7471 H 682.424 2.6356 3.2302 0
M  V30 7472 H 681.084 1.51486 2.87197 0
M  V30 7473 H 682.095 4.95313 1.51278 0
M  V30 7474 H 678.772 2.8683 3.03373 0
M  V30 7475 H 680.162 6.56939 1.40998 0
M  V30 7476 N 682.882 -0.391992 1.52647 0
M  V30 7477 C 683.845 -1.46135 1.7657 0
M  V30 7478 C 684.845 -1.47701 0.635698 0
M  V30 7479 O 686.035 -1.48924 0.903728 0
M  V30 7480 C 683.167 -2.85443 1.86374 0
M  V30 7481 H 684.36 -1.26208 2.72051 0
M  V30 7482 H 681.913 -0.623549 1.43323 0
M  V30 7483 H 682.648 -3.10718 0.928685 0
M  V30 7484 H 682.433 -2.85708 2.68539 0
M  V30 7485 H 683.923 -3.62933 2.06566 0
M  V30 7486 N 684.36 -1.4356 -0.65026 0
M  V30 7487 C 685.29 -1.51758 -1.77459 0
M  V30 7488 C 686.271 -0.372019 -1.65982 0
M  V30 7489 O 687.456 -0.589627 -1.85033 0
M  V30 7490 C 684.586 -1.44302 -3.15902 0
M  V30 7491 C 683.54 -2.57138 -3.42146 0
M  V30 7492 C 682.866 -2.34735 -4.8042 0
M  V30 7493 C 684.166 -3.99373 -3.36598 0
M  V30 7494 H 685.86 -2.45863 -1.70855 0
M  V30 7495 H 683.406 -1.18333 -0.820566 0
M  V30 7496 H 685.359 -1.48641 -3.94314 0
M  V30 7497 H 684.083 -0.467026 -3.23244 0
M  V30 7498 H 682.742 -2.52157 -2.66106 0
M  V30 7499 H 682.39 -1.35372 -4.84441 0
M  V30 7500 H 682.09 -3.10375 -4.9894 0
M  V30 7501 H 683.614 -2.40862 -5.61086 0
M  V30 7502 H 685.028 -4.05826 -4.04942 0
M  V30 7503 H 683.425 -4.75063 -3.66654 0
M  V30 7504 H 684.495 -4.243 -2.34729 0
M  V30 7505 N 685.838 0.888903 -1.30139 0
M  V30 7506 C 687.084 1.6428 -1.18912 0
M  V30 7507 C 687.417 1.92499 0.256477 0
M  V30 7508 O 686.692 1.54312 1.18397 0
M  V30 7509 C 686.975 2.9851 -2.01405 0
M  V30 7510 C 686.828 2.77288 -3.54163 0
M  V30 7511 C 688.147 3.99383 -1.84882 0
M  V30 7512 H 685.266 0.596148 -0.433333 0
M  V30 7513 H 687.908 1.0289 -1.5973 0
M  V30 7514 H 686.058 3.50907 -1.66722 0
M  V30 7515 H 687.73 2.31709 -3.98884 0
M  V30 7516 H 685.973 2.11867 -3.78543 0
M  V30 7517 H 686.644 3.72717 -4.07168 0
M  V30 7518 H 689.12 3.56132 -2.15196 0
M  V30 7519 H 687.996 4.91222 -2.44934 0
M  V30 7520 H 688.257 4.34674 -0.806902 0
M  V30 7521 N 687.317 1.12792 1.10072 0
M  V30 7522 C 688.564 0.885545 1.82111 0
M  V30 7523 C 688.892 -0.588519 1.85383 0
M  V30 7524 O 688.147 -1.45124 1.31292 0
M  V30 7525 C 688.446 1.4102 3.28403 0
M  V30 7526 C 688.112 2.89995 3.45273 0
M  V30 7527 C 686.774 3.30671 3.49585 0
M  V30 7528 C 689.126 3.85874 3.50358 0
M  V30 7529 C 686.454 4.65925 3.56553 0
M  V30 7530 C 688.806 5.20963 3.58859 0
M  V30 7531 C 687.47 5.61177 3.61437 0
M  V30 7532 H 686.74 0.324044 0.666391 0
M  V30 7533 H 689.387 1.40874 1.29718 0
M  V30 7534 H 687.692 0.807551 3.83387 0
M  V30 7535 H 689.389 1.19882 3.82661 0
M  V30 7536 H 685.979 2.57537 3.42597 0
M  V30 7537 H 690.163 3.5554 3.46273 0
M  V30 7538 H 685.419 4.96468 3.56833 0
M  V30 7539 H 689.593 5.95079 3.61738 0
M  V30 7540 H 687.22 6.6597 3.66589 0
M  V30 7541 N 688.795 -1.27931 0.920396 0
M  V30 7542 C 690.043 -1.94304 0.555906 0
M  V30 7543 C 690.364 -1.72753 -0.904519 0
M  V30 7544 O 689.634 -1.07104 -1.64029 0
M  V30 7545 H 688.214 -0.719001 0.202599 0
M  V30 7546 H 690.876 -1.55785 1.1712 0
M  V30 7547 H 689.972 -3.02806 0.755981 0
M  V30 7548 N 690.273 -0.685099 -1.4193 0
M  V30 7549 C 691.221 -0.00165985 -2.326 0
M  V30 7550 C 692.215 0.779678 -1.50391 0
M  V30 7551 O 693.421 0.68648 -1.66395 0
M  V30 7552 H 689.796 0.0182616 -0.751778 0
M  V30 7553 H 691.767 -0.783592 -2.87928 0
M  V30 7554 C 690.516 0.928385 -3.35077 0
M  V30 7555 H 689.839 0.336578 -3.98381 0
M  V30 7556 H 691.279 1.37509 -4.01083 0
M  V30 7557 C 689.738 2.03964 -2.68142 0
M  V30 7558 O 690.268 3.12727 -2.5212 0
M  V30 7559 N 688.474 1.81433 -2.27003 0
M  V30 7560 H 688.021 0.929807 -2.40234 0
M  V30 7561 H 687.979 2.55973 -1.82552 0
M  V30 7562 N 691.751 1.51645 -0.429126 0
M  V30 7563 C 692.997 2.02314 0.140286 0
M  V30 7564 C 693.33 1.31314 1.43074 0
M  V30 7565 O 692.605 0.425531 1.89788 0
M  V30 7566 C 692.888 3.5822 0.36749 0
M  V30 7567 C 692.741 4.39846 -0.941039 0
M  V30 7568 C 694.06 4.25055 1.14089 0
M  V30 7569 H 691.179 0.735335 0.0495112 0
M  V30 7570 H 693.821 1.81358 -0.566514 0
M  V30 7571 H 691.971 3.76207 0.969556 0
M  V30 7572 H 693.643 4.33527 -1.57646 0
M  V30 7573 H 691.886 4.05259 -1.54751 0
M  V30 7574 H 692.557 5.47069 -0.73621 0
M  V30 7575 H 695.033 4.11288 0.630986 0
M  V30 7576 H 693.909 5.34038 1.26863 0
M  V30 7577 H 694.17 3.85358 2.16683 0
M  V30 7578 N 693.229 0.160201 1.56784 0
M  V30 7579 C 694.457 -0.494165 2.00912 0
M  V30 7580 C 694.872 -1.57548 1.04038 0
M  V30 7581 O 694.229 -1.82457 0.0394581 0
M  V30 7582 C 694.28 -1.08271 3.44905 0
M  V30 7583 O 694.001 -0.0445704 4.38077 0
M  V30 7584 C 695.502 -1.8164 4.04378 0
M  V30 7585 H 692.722 -0.127498 0.658776 0
M  V30 7586 H 695.266 0.258665 2.02858 0
M  V30 7587 H 693.421 -1.78609 3.4377 0
M  V30 7588 H 693.835 -0.477544 5.22322 0
M  V30 7589 H 695.309 -2.18094 5.07089 0
M  V30 7590 H 695.786 -2.70727 3.45838 0
M  V30 7591 H 696.392 -1.15969 4.09184 0
M  V30 7592 N 694.707 -1.5719 -0.113559 0
M  V30 7593 C 695.67 -1.99796 -1.12314 0
M  V30 7594 C 696.67 -0.888847 -1.34001 0
M  V30 7595 O 697.86 -1.15476 -1.30426 0
M  V30 7596 C 694.992 -2.34279 -2.47641 0
M  V30 7597 H 696.185 -2.90193 -0.756825 0
M  V30 7598 H 693.738 -1.52144 -0.358029 0
M  V30 7599 H 694.473 -1.46778 -2.89183 0
M  V30 7600 H 694.258 -3.15175 -2.33253 0
M  V30 7601 H 695.748 -2.67963 -3.2029 0
M  V30 7602 N 696.185 0.383891 -1.52853 0
M  V30 7603 C 697.434 1.12563 -1.67369 0
M  V30 7604 C 697.747 1.90982 -0.422533 0
M  V30 7605 O 698.953 2.6778 -0.447914 0
M  V30 7606 C 697.409 2.05011 -2.95801 0
M  V30 7607 C 697.017 1.31991 -4.28115 0
M  V30 7608 C 698.761 2.79289 -3.19684 0
M  V30 7609 C 696.668 2.23235 -5.4765 0
M  V30 7610 H 695.598 0.42391 -0.623552 0
M  V30 7611 H 698.249 0.388016 -1.79351 0
M  V30 7612 H 696.631 2.82429 -2.77578 0
M  V30 7613 H 697.805 0.597633 -4.56908 0
M  V30 7614 H 696.12 0.696517 -4.10533 0
M  V30 7615 H 698.717 3.47749 -4.06171 0
M  V30 7616 H 699.06 3.43649 -2.3497 0
M  V30 7617 H 699.593 2.08962 -3.38496 0
M  V30 7618 H 696.332 1.63482 -6.34786 0
M  V30 7619 H 695.852 2.93364 -5.23161 0
M  V30 7620 H 697.531 2.83205 -5.81725 0
M  V30 7621 N 697.663 1.43903 0.642637 0
M  V30 7622 C 698.912 1.45362 1.39831 0
M  V30 7623 C 699.225 0.0856289 1.95412 0
M  V30 7624 O 700.431 -0.0222856 2.71491 0
M  V30 7625 C 698.887 2.55857 2.53111 0
M  V30 7626 C 698.495 3.98811 2.04092 0
M  V30 7627 C 700.239 2.66524 3.30402 0
M  V30 7628 C 698.146 5.00751 3.14647 0
M  V30 7629 H 697.076 0.540777 0.52543 0
M  V30 7630 H 699.727 1.69929 0.692559 0
M  V30 7631 H 698.109 2.2451 3.26207 0
M  V30 7632 H 699.283 4.3967 1.37938 0
M  V30 7633 H 697.598 3.92284 1.39651 0
M  V30 7634 H 700.195 3.39858 4.12796 0
M  V30 7635 H 700.538 1.71949 3.79129 0
M  V30 7636 H 701.071 2.97224 2.64392 0
M  V30 7637 H 697.81 5.96914 2.70876 0
M  V30 7638 H 697.33 4.64495 3.79479 0
M  V30 7639 H 699.009 5.23933 3.79609 0
M  V30 7640 N 699.141 -0.881989 1.30609 0
M  V30 7641 C 700.073 -1.99375 1.13058 0
M  V30 7642 C 701.086 -1.62636 0.0729879 0
M  V30 7643 O 702.275 -1.75621 0.319301 0
M  V30 7644 C 699.375 -3.31536 0.702651 0
M  V30 7645 C 698.548 -3.96693 1.84265 0
M  V30 7646 C 697.607 -5.07158 1.40277 0
M  V30 7647 O 696.633 -5.28628 2.11048 0
M  V30 7648 N 697.835 -5.79808 0.283449 0
M  V30 7649 H 700.6 -2.14981 2.08814 0
M  V30 7650 H 698.161 -1.05526 1.22784 0
M  V30 7651 H 700.153 -4.02804 0.391331 0
M  V30 7652 H 698.723 -3.12175 -0.162954 0
M  V30 7653 H 697.943 -3.1856 2.32192 0
M  V30 7654 H 699.231 -4.36964 2.60653 0
M  V30 7655 H 698.629 -5.64871 -0.306189 0
M  V30 7656 H 697.186 -6.51792 0.0315985 0
M  V30 7657 N 700.619 -1.13374 -1.09472 0
M  V30 7658 C 702.035 -0.871846 -1.33682 0
M  V30 7659 C 702.235 0.492847 -1.9538 0
M  V30 7660 O 701.291 1.23946 -2.19985 0
M  V30 7661 C 702.604 -1.99608 -2.24893 0
M  V30 7662 C 704.152 -2.02812 -2.38404 0
M  V30 7663 C 704.627 -3.14497 -3.3295 0
M  V30 7664 N 706.118 -3.14004 -3.40523 0
M  V30 7665 C 706.853 -3.97061 -4.13679 0
M  V30 7666 N 706.349 -4.90131 -4.89636 0
M  V30 7667 N 708.142 -3.85162 -4.09398 0
M  V30 7668 H 700.293 -2.01288 -0.677995 0
M  V30 7669 H 702.556 -0.876492 -0.361201 0
M  V30 7670 H 702.262 -2.98 -1.86786 0
M  V30 7671 H 702.136 -1.90981 -3.25278 0
M  V30 7672 H 704.523 -1.05034 -2.75775 0
M  V30 7673 H 704.604 -2.15511 -1.37799 0
M  V30 7674 H 704.248 -4.12514 -2.96302 0
M  V30 7675 H 704.178 -2.99035 -4.33458 0
M  V30 7676 H 706.669 -2.46587 -2.86362 0
M  V30 7677 H 706.982 -5.49996 -5.42885 0
M  V30 7678 H 705.327 -4.94138 -4.88726 0
M  V30 7679 H 708.518 -3.11779 -3.49158 0
M  V30 7680 H 708.691 -4.5012 -4.6615 0
M  V30 7681 N 702.098 1.27442 -0.927168 0
M  V30 7682 C 703.031 2.25177 -0.370232 0
M  V30 7683 C 704.009 1.53612 0.533103 0
M  V30 7684 O 705.193 1.8245 0.47373 0
M  V30 7685 C 702.32 3.35431 0.469411 0
M  V30 7686 C 701.366 4.24888 -0.370419 0
M  V30 7687 S 702.199 5.04852 -1.78562 0
M  V30 7688 C 703.355 6.18592 -0.953651 0
M  V30 7689 H 703.588 2.72069 -1.19858 0
M  V30 7690 H 701.121 1.36089 -0.729316 0
M  V30 7691 H 703.079 3.99404 0.947992 0
M  V30 7692 H 701.74 2.87179 1.27228 0
M  V30 7693 H 700.933 5.03264 0.272226 0
M  V30 7694 H 700.535 3.65709 -0.783153 0
M  V30 7695 H 702.827 6.77235 -0.189408 0
M  V30 7696 H 703.77 6.87132 -1.7104 0
M  V30 7697 H 704.178 5.62318 -0.495897 0
M  V30 7698 N 703.576 0.692616 1.41565 0
M  V30 7699 C 704.806 0.230943 2.05305 0
M  V30 7700 C 705.214 -1.12379 1.52209 0
M  V30 7701 O 704.557 -1.71281 0.663968 0
M  V30 7702 C 704.619 0.107894 3.59338 0
M  V30 7703 C 704.283 1.39419 4.35214 0
M  V30 7704 C 705.28 2.33143 4.64694 0
M  V30 7705 C 702.965 1.64674 4.74539 0
M  V30 7706 C 704.959 3.50385 5.32456 0
M  V30 7707 C 702.646 2.82202 5.42038 0
M  V30 7708 C 703.644 3.74881 5.70923 0
M  V30 7709 O 703.332 4.90351 6.37033 0
M  V30 7710 H 703.064 0.105708 0.667684 0
M  V30 7711 H 705.618 0.94488 1.82376 0
M  V30 7712 H 703.848 -0.661785 3.80995 0
M  V30 7713 H 705.537 -0.316213 4.04666 0
M  V30 7714 H 706.303 2.14887 4.34797 0
M  V30 7715 H 702.182 0.934007 4.51439 0
M  V30 7716 H 705.726 4.22743 5.54918 0
M  V30 7717 H 701.623 3.00376 5.71353 0
M  V30 7718 H 702.391 4.90128 6.55528 0
M  V30 7719 N 705.054 -1.51416 0.437162 0
M  V30 7720 C 706.279 -2.0699 -0.130424 0
M  V30 7721 C 706.704 -1.30249 -1.35709 0
M  V30 7722 O 706.062 -0.340388 -1.78076 0
M  V30 7723 C 706.11 -3.5801 -0.43142 0
M  V30 7724 O 705.214 -3.8345 -1.5179 0
M  V30 7725 H 704.555 -0.663997 -0.00194339 0
M  V30 7726 H 707.085 -1.95029 0.618445 0
M  V30 7727 H 707.095 -4.02261 -0.681926 0
M  V30 7728 H 705.77 -4.13291 0.465137 0
M  V30 7729 H 704.347 -3.51062 -1.25737 0
M  V30 7730 N 706.532 -0.168513 -1.56696 0
M  V30 7731 C 707.948 0.187686 -1.58493 0
M  V30 7732 C 708.148 1.63063 -1.18375 0
M  V30 7733 O 707.204 2.36142 -0.894042 0
M  V30 7734 C 708.517 -0.0905858 -3.00564 0
M  V30 7735 C 710.065 -0.028575 -3.12987 0
M  V30 7736 C 710.54 -0.279799 -4.57145 0
M  V30 7737 N 712.031 -0.227476 -4.62641 0
M  V30 7738 C 712.766 -0.396073 -5.7203 0
M  V30 7739 N 712.262 -0.623572 -6.89988 0
M  V30 7740 N 714.055 -0.332173 -5.61118 0
M  V30 7741 H 706.206 -1.11042 -1.81062 0
M  V30 7742 H 708.469 -0.441235 -0.839056 0
M  V30 7743 H 708.175 -1.09006 -3.34381 0
M  V30 7744 H 708.049 0.619078 -3.72085 0
M  V30 7745 H 710.436 0.961471 -2.78998 0
M  V30 7746 H 710.517 -0.770905 -2.43907 0
M  V30 7747 H 710.161 -1.26704 -4.91842 0
M  V30 7748 H 710.091 0.48311 -5.24379 0
M  V30 7749 H 712.582 -0.0571723 -3.77857 0
M  V30 7750 H 712.895 -0.741745 -7.69232 0
M  V30 7751 H 711.24 -0.660153 -6.91858 0
M  V30 7752 H 714.431 -0.155051 -4.67843 0
M  V30 7753 H 714.604 -0.466994 -6.46315 0
M  V30 7754 N 708.01 1.57248 0.105221 0
M  V30 7755 C 709.256 1.86719 0.806692 0
M  V30 7756 C 709.611 0.758061 1.76837 0
M  V30 7757 O 708.904 -0.240812 1.90081 0
M  V30 7758 C 709.098 3.20437 1.58287 0
M  V30 7759 C 708.927 4.44252 0.697864 0
M  V30 7760 C 707.697 5.04104 0.347444 0
M  V30 7761 C 709.895 5.14299 0.00933014 0
M  V30 7762 N 707.877 6.1146 -0.546786 0
M  V30 7763 C 709.248 6.15528 -0.74336 0
M  V30 7764 C 711.303 4.97857 -0.0656505 0
M  V30 7765 C 710.006 7.02091 -1.56401 0
M  V30 7766 C 712.032 5.84919 -0.873167 0
M  V30 7767 C 711.394 6.8566 -1.61401 0
M  V30 7768 H 707.493 0.73329 0.271679 0
M  V30 7769 H 710.077 1.94575 0.0697152 0
M  V30 7770 H 708.248 3.13651 2.29079 0
M  V30 7771 H 709.98 3.37668 2.23075 0
M  V30 7772 H 706.735 4.68505 0.692817 0
M  V30 7773 H 707.159 6.69779 -0.986157 0
M  V30 7774 H 711.801 4.19919 0.492768 0
M  V30 7775 H 709.519 7.79427 -2.13353 0
M  V30 7776 H 713.105 5.74259 -0.933724 0
M  V30 7777 H 711.985 7.5186 -2.2288 0
M  V30 7778 N 709.488 -0.375779 1.53054 0
M  V30 7779 C 710.713 -1.14484 1.7294 0
M  V30 7780 C 711.138 -1.82572 0.452668 0
M  V30 7781 O 710.496 -1.71343 -0.592567 0
M  V30 7782 C 710.544 -2.15857 2.88857 0
M  V30 7783 O 709.648 -3.22725 2.56753 0
M  V30 7784 H 708.989 -0.332666 0.574656 0
M  V30 7785 H 711.519 -0.436025 1.999 0
M  V30 7786 H 711.529 -2.59631 3.14731 0
M  V30 7787 H 710.204 -1.65689 3.81471 0
M  V30 7788 H 708.781 -2.83996 2.41663 0
M  V30 7789 N 710.966 -1.44241 -0.634997 0
M  V30 7790 C 711.896 -1.53632 -1.7584 0
M  V30 7791 C 712.877 -0.389603 -1.65578 0
M  V30 7792 O 714.062 -0.609219 -1.84397 0
M  V30 7793 C 711.192 -1.47644 -3.14354 0
M  V30 7794 C 710.146 -2.60752 -3.394 0
M  V30 7795 C 709.472 -2.39817 -4.77904 0
M  V30 7796 C 710.772 -4.02921 -3.32343 0
M  V30 7797 H 712.466 -2.47662 -1.68238 0
M  V30 7798 H 710.012 -1.19197 -0.807969 0
M  V30 7799 H 711.965 -1.52815 -3.92716 0
M  V30 7800 H 710.689 -0.501284 -3.2273 0
M  V30 7801 H 709.348 -2.54965 -2.63417 0
M  V30 7802 H 708.996 -1.40502 -4.82978 0
M  V30 7803 H 708.696 -3.15649 -4.9562 0
M  V30 7804 H 710.22 -2.46799 -5.585 0
M  V30 7805 H 711.634 -4.10098 -4.00615 0
M  V30 7806 H 710.031 -4.78925 -3.61595 0
M  V30 7807 H 711.101 -4.26766 -2.30215 0
M  V30 7808 N 712.444 0.87505 -1.31075 0
M  V30 7809 C 713.674 1.65818 -1.2324 0
M  V30 7810 C 714.082 1.8808 0.205536 0
M  V30 7811 O 713.425 1.43548 1.14628 0
M  V30 7812 C 713.487 3.05131 -1.90093 0
M  V30 7813 C 713.151 3.05999 -3.39432 0
M  V30 7814 C 714.148 2.84328 -4.35263 0
M  V30 7815 C 711.833 3.27281 -3.81041 0
M  V30 7816 C 713.827 2.83912 -5.70678 0
M  V30 7817 C 711.514 3.26493 -5.16571 0
M  V30 7818 C 712.512 3.04834 -6.112 0
M  V30 7819 O 712.2 3.03882 -7.44252 0
M  V30 7820 H 711.932 0.52387 -0.427242 0
M  V30 7821 H 714.486 1.10086 -1.73408 0
M  V30 7822 H 712.716 3.62568 -1.34468 0
M  V30 7823 H 714.405 3.65641 -1.76242 0
M  V30 7824 H 715.171 2.67673 -4.04445 0
M  V30 7825 H 711.05 3.43171 -3.07822 0
M  V30 7826 H 714.594 2.66925 -6.44513 0
M  V30 7827 H 710.491 3.42687 -5.47025 0
M  V30 7828 H 711.259 3.19979 -7.53363 0
M  V30 7829 N 713.922 1.13953 1.08869 0
M  V30 7830 C 714.872 0.790812 2.13846 0
M  V30 7831 C 715.856 -0.217819 1.59419 0
M  V30 7832 O 717.048 -0.0208723 1.76988 0
M  V30 7833 C 714.177 0.26479 3.42277 0
M  V30 7834 C 713.263 1.30267 4.03598 0
M  V30 7835 N 713.654 2.50535 4.39393 0
M  V30 7836 C 711.952 1.15178 4.30871 0
M  V30 7837 C 712.653 3.16938 4.87776 0
M  V30 7838 N 711.629 2.44349 4.85587 0
M  V30 7839 H 715.431 1.70577 2.39334 0
M  V30 7840 H 712.945 1.02268 1.26154 0
M  V30 7841 H 714.942 -0.00330398 4.169 0
M  V30 7842 H 713.602 -0.644419 3.18241 0
M  V30 7843 H 714.613 2.87798 4.30572 0
M  V30 7844 H 711.29 0.301204 4.16412 0
M  V30 7845 H 712.68 4.19453 5.2489 0
M  V30 7846 N 715.4 -1.26948 0.933913 0
M  V30 7847 C 716.628 -1.98186 0.59414 0
M  V30 7848 C 717.043 -1.69614 -0.829257 0
M  V30 7849 O 716.4 -0.960213 -1.55197 0
M  V30 7850 C 716.451 -3.52123 0.818026 0
M  V30 7851 O 716.172 -3.79698 2.18543 0
M  V30 7852 C 717.673 -4.40608 0.48781 0
M  V30 7853 H 714.893 -0.632305 0.224569 0
M  V30 7854 H 717.437 -1.61646 1.25263 0
M  V30 7855 H 715.592 -3.86851 0.206246 0
M  V30 7856 H 716.006 -4.7426 2.24005 0
M  V30 7857 H 717.48 -5.47606 0.695126 0
M  V30 7858 H 717.957 -4.35394 -0.576913 0
M  V30 7859 H 718.563 -4.11411 1.078 0
M  V30 7860 N 716.879 -0.700114 -1.41195 0
M  V30 7861 C 718.295 -0.372114 -1.55201 0
M  V30 7862 C 718.495 1.12053 -1.6747 0
M  V30 7863 O 717.551 1.90642 -1.65566 0
M  V30 7864 C 718.864 -1.12462 -2.78878 0
M  V30 7865 C 720.412 -1.10941 -2.92679 0
M  V30 7866 C 720.887 -1.84376 -4.19249 0
M  V30 7867 N 722.378 -1.81368 -4.26216 0
M  V30 7868 C 723.113 -2.35024 -5.23021 0
M  V30 7869 N 722.609 -2.9717 -6.25829 0
M  V30 7870 N 724.402 -2.25254 -5.14992 0
M  V30 7871 H 716.553 -1.66816 -1.31477 0
M  V30 7872 H 718.816 -0.704223 -0.634644 0
M  V30 7873 H 718.522 -2.17937 -2.76037 0
M  V30 7874 H 718.396 -0.706152 -3.70531 0
M  V30 7875 H 720.783 -0.062911 -2.95033 0
M  V30 7876 H 720.864 -1.56698 -2.02187 0
M  V30 7877 H 720.508 -2.89008 -4.17656 0
M  V30 7878 H 720.438 -1.3605 -5.08722 0
M  V30 7879 H 722.929 -1.36062 -3.52556 0
M  V30 7880 H 723.242 -3.35668 -6.96094 0
M  V30 7881 H 721.587 -3.01249 -6.26318 0
M  V30 7882 H 724.778 -1.76372 -4.33602 0
M  V30 7883 H 724.951 -2.67373 -5.90268 0
M  V30 7884 N 718.357 1.51182 -0.445186 0
M  V30 7885 C 719.585 2.06568 0.117091 0
M  V30 7886 C 720 1.31182 1.35781 0
M  V30 7887 O 719.357 0.373605 1.78635 0
M  V30 7888 C 719.408 3.58917 0.431408 0
M  V30 7889 O 719.129 4.31456 -0.760078 0
M  V30 7890 C 720.63 4.30843 1.0435 0
M  V30 7891 H 717.85 0.670985 0.00444436 0
M  V30 7892 H 720.394 1.94666 -0.626525 0
M  V30 7893 H 718.549 3.70708 1.12493 0
M  V30 7894 H 718.963 5.22215 -0.489048 0
M  V30 7895 H 720.437 5.38499 1.21337 0
M  V30 7896 H 720.914 3.89644 2.02667 0
M  V30 7897 H 721.52 4.23516 0.38913 0
M  V30 7898 N 719.835 0.176821 1.56605 0
M  V30 7899 C 720.782 -0.751312 2.18229 0
M  V30 7900 C 721.752 -1.22297 1.12395 0
M  V30 7901 O 722.937 -1.29015 1.40569 0
M  V30 7902 C 720.077 -1.97291 2.83143 0
M  V30 7903 C 719.19 -1.54431 4.03454 0
M  V30 7904 C 718.325 -2.72 4.56278 0
M  V30 7905 C 717.364 -2.25657 5.68986 0
M  V30 7906 N 716.501 -3.36338 6.16296 0
M  V30 7907 H 721.341 -0.219033 2.97194 0
M  V30 7908 H 718.878 -0.0963803 1.46784 0
M  V30 7909 H 720.836 -2.68949 3.1894 0
M  V30 7910 H 719.466 -2.4788 2.06773 0
M  V30 7911 H 718.518 -0.724273 3.73441 0
M  V30 7912 H 719.83 -1.16417 4.85024 0
M  V30 7913 H 718.984 -3.51806 4.94285 0
M  V30 7914 H 717.723 -3.13277 3.73777 0
M  V30 7915 H 716.728 -1.44299 5.30526 0
M  V30 7916 H 717.953 -1.85432 6.53293 0
M  V30 7917 H 715.899 -3.7718 5.36723 0
M  V30 7918 H 715.816 -3.02435 6.9287 0
M  V30 7919 H 717.084 -4.16413 6.58954 0
M  V30 7920 N 721.313 -1.57302 -0.09688 0
M  V30 7921 C 722.59 -1.7701 -0.832272 0
M  V30 7922 C 722.97 -0.758025 -1.97021 0
M  V30 7923 O 722.318 0.213824 -2.27497 0
M  V30 7924 C 722.528 -3.22725 -1.32851 0
M  V30 7925 C 723.876 -3.85856 -1.772 0
M  V30 7926 O 724.9 -3.26464 -1.42478 0
M  V30 7927 O 723.759 -4.90295 -2.41398 0
M  V30 7928 H 720.853 -0.725558 -0.396856 0
M  V30 7929 H 723.399 -1.69516 -0.0789005 0
M  V30 7930 H 722.171 -3.87921 -0.51312 0
M  V30 7931 H 721.794 -3.34845 -2.14394 0
M  V30 7932 N 722.791 0.367657 -1.53252 0
M  V30 7933 C 723.721 1.45632 -1.8252 0
M  V30 7934 C 724.702 1.55979 -0.678568 0
M  V30 7935 O 725.887 1.70581 -0.928217 0
M  V30 7936 C 723.017 2.82994 -2.01325 0
M  V30 7937 C 721.971 2.87473 -3.17086 0
M  V30 7938 C 721.297 4.2749 -3.21179 0
M  V30 7939 C 722.597 2.55182 -4.55719 0
M  V30 7940 H 724.291 1.21387 -2.73689 0
M  V30 7941 H 721.837 0.58251 -1.31692 0
M  V30 7942 H 723.79 3.59179 -2.20383 0
M  V30 7943 H 722.514 3.08622 -1.06864 0
M  V30 7944 H 721.173 2.13739 -2.97844 0
M  V30 7945 H 720.821 4.5019 -2.24361 0
M  V30 7946 H 720.521 4.31403 -3.98955 0
M  V30 7947 H 722.045 5.0555 -3.42419 0
M  V30 7948 H 723.459 3.21081 -4.74953 0
M  V30 7949 H 721.856 2.70414 -5.3572 0
M  V30 7950 H 722.926 1.5044 -4.60973 0
M  V30 7951 N 724.269 1.44576 0.627338 0
M  V30 7952 C 725.216 1.51734 1.73912 0
M  V30 7953 C 726.186 0.364745 1.62046 0
M  V30 7954 O 727.371 0.575503 1.81914 0
M  V30 7955 C 724.511 1.47116 3.12171 0
M  V30 7956 C 723.624 2.72778 3.34986 0
M  V30 7957 C 722.759 2.59968 4.63239 0
M  V30 7958 C 721.798 3.80776 4.79245 0
M  V30 7959 N 720.935 3.66618 5.98778 0
M  V30 7960 H 725.775 2.46722 1.6713 0
M  V30 7961 H 723.312 1.22444 0.815224 0
M  V30 7962 H 725.27 1.42429 3.92135 0
M  V30 7963 H 723.9 0.556928 3.17959 0
M  V30 7964 H 722.952 2.87637 2.48936 0
M  V30 7965 H 724.264 3.62441 3.42692 0
M  V30 7966 H 723.418 2.53135 5.51369 0
M  V30 7967 H 722.157 1.67872 4.57898 0
M  V30 7968 H 721.162 3.87989 3.89544 0
M  V30 7969 H 722.387 4.73913 4.86398 0
M  V30 7970 H 720.333 2.77277 5.9452 0
M  V30 7971 H 720.25 4.499 6.07557 0
M  V30 7972 H 721.518 3.63684 6.89459 0
M  V30 7973 N 725.747 -0.868086 1.31537 0
M  V30 7974 C 727.024 -1.60384 1.11965 0
M  V30 7975 C 727.404 -2.08584 -0.324949 0
M  V30 7976 O 726.752 -1.86561 -1.31937 0
M  V30 7977 C 726.962 -2.76038 2.13551 0
M  V30 7978 C 728.31 -3.45954 2.46173 0
M  V30 7979 O 729.334 -2.86247 2.11993 0
M  V30 7980 O 728.193 -4.53666 3.04711 0
M  V30 7981 H 725.287 -0.705705 0.431172 0
M  V30 7982 H 727.833 -0.913385 1.43022 0
M  V30 7983 H 726.605 -2.37849 3.10714 0
M  V30 7984 H 726.228 -3.52769 1.83411 0
M  V30 7985 N 727.225 -1.14528 -1.08264 0
M  V30 7986 C 728.472 -0.914405 -1.80679 0
M  V30 7987 C 728.8 0.558952 -1.86295 0
M  V30 7988 O 728.055 1.43017 -1.33584 0
M  V30 7989 C 728.354 -1.46226 -3.26117 0
M  V30 7990 C 728.02 -2.95451 -3.40616 0
M  V30 7991 C 726.682 -3.36191 -3.4428 0
M  V30 7992 C 729.034 -3.91399 -3.44175 0
M  V30 7993 C 726.362 -4.71539 -3.49096 0
M  V30 7994 C 728.714 -5.26606 -3.50526 0
M  V30 7995 C 727.378 -5.66856 -3.52464 0
M  V30 7996 H 726.648 -0.334604 -0.661151 0
M  V30 7997 H 729.295 -1.4292 -1.27461 0
M  V30 7998 H 727.6 -0.868442 -3.82054 0
M  V30 7999 H 729.297 -1.25955 -3.80705 0
M  V30 8000 H 725.887 -2.62955 -3.38456 0
M  V30 8001 H 730.071 -3.61004 -3.40573 0
M  V30 8002 H 725.327 -5.02082 -3.4889 0
M  V30 8003 H 729.501 -6.00758 -3.52225 0
M  V30 8004 H 727.128 -6.71718 -3.55948 0
M  V30 8005 N 728.703 1.26451 -0.940633 0
M  V30 8006 C 729.952 1.93071 -0.583656 0
M  V30 8007 C 730.265 1.74618 0.881366 0
M  V30 8008 O 731.471 2.35689 1.34769 0
M  V30 8009 C 729.927 3.45927 -0.993106 0
M  V30 8010 C 729.535 3.73115 -2.4797 0
M  V30 8011 C 731.279 4.18554 -0.707998 0
M  V30 8012 C 729.186 5.19408 -2.82788 0
M  V30 8013 H 728.116 0.722824 -0.214572 0
M  V30 8014 H 730.767 1.43538 -1.1432 0
M  V30 8015 H 729.149 3.94341 -0.362099 0
M  V30 8016 H 730.323 3.35408 -3.15971 0
M  V30 8017 H 728.638 3.13719 -2.73805 0
M  V30 8018 H 731.235 5.26293 -0.94447 0
M  V30 8019 H 731.578 4.14782 0.355225 0
M  V30 8020 H 732.111 3.76003 -1.2987 0
M  V30 8021 H 728.85 5.28281 -3.88071 0
M  V30 8022 H 728.37 5.58214 -2.19449 0
M  V30 8023 H 730.049 5.87407 -2.71224 0
M  V30 8024 N 730.181 0.707592 1.40822 0
M  V30 8025 C 731.597 0.38034 1.55002 0
M  V30 8026 C 731.797 -1.11163 1.68062 0
M  V30 8027 O 730.853 -1.89761 1.66574 0
M  V30 8028 C 732.166 1.1394 2.78277 0
M  V30 8029 C 733.714 1.12492 2.92087 0
M  V30 8030 C 734.189 1.86597 4.18265 0
M  V30 8031 N 735.68 1.83626 4.25248 0
M  V30 8032 C 736.415 2.37794 5.21768 0
M  V30 8033 N 735.911 3.00485 6.24244 0
M  V30 8034 N 737.704 2.27982 5.13791 0
M  V30 8035 H 729.855 1.67511 1.3059 0
M  V30 8036 H 732.118 0.707579 0.630901 0
M  V30 8037 H 731.824 2.19398 2.74877 0
M  V30 8038 H 731.698 0.725793 3.70151 0
M  V30 8039 H 734.085 0.0785564 2.94995 0
M  V30 8040 H 734.166 1.57768 2.01353 0
M  V30 8041 H 733.81 2.91219 4.16118 0
M  V30 8042 H 733.74 1.38746 5.07993 0
M  V30 8043 H 736.231 1.3793 3.51829 0
M  V30 8044 H 736.544 3.39355 6.94304 0
M  V30 8045 H 734.889 3.04567 6.24711 0
M  V30 8046 H 738.08 1.78669 4.3266 0
M  V30 8047 H 738.253 2.70499 5.88841 0
M  V30 8048 N 731.66 -1.50943 0.453197 0
M  V30 8049 C 732.906 -2.02512 -0.108082 0
M  V30 8050 C 733.239 -1.33574 -1.40967 0
M  V30 8051 O 732.514 -0.455671 -1.89087 0
M  V30 8052 C 732.797 -3.58759 -0.310453 0
M  V30 8053 C 732.65 -4.38293 1.0109 0
M  V30 8054 C 733.969 -4.26816 -1.07313 0
M  V30 8055 H 731.088 -0.73603 -0.0378064 0
M  V30 8056 H 733.73 -1.80433 0.595295 0
M  V30 8057 H 731.88 -3.77702 -0.909582 0
M  V30 8058 H 733.552 -4.30964 1.64523 0
M  V30 8059 H 731.795 -4.02745 1.61179 0
M  V30 8060 H 732.466 -5.45828 0.82315 0
M  V30 8061 H 734.942 -4.1224 -0.565473 0
M  V30 8062 H 733.818 -5.35989 -1.1835 0
M  V30 8063 H 734.079 -3.88757 -2.10525 0
M  V30 8064 N 733.138 -0.185124 -1.56509 0
M  V30 8065 C 734.088 0.752315 -2.15231 0
M  V30 8066 C 735.072 1.18327 -1.0903 0
M  V30 8067 O 736.264 1.14333 -1.35119 0
M  V30 8068 C 733.393 1.97583 -2.80742 0
M  V30 8069 C 732.479 1.56623 -3.94119 0
M  V30 8070 N 732.87 0.867008 -4.98314 0
M  V30 8071 C 731.168 1.85626 -4.05535 0
M  V30 8072 C 731.869 0.663228 -5.77907 0
M  V30 8073 N 730.845 1.20891 -5.29987 0
M  V30 8074 H 734.647 0.209267 -2.93154 0
M  V30 8075 H 732.161 0.0150444 -1.62393 0
M  V30 8076 H 734.158 2.65779 -3.21197 0
M  V30 8077 H 732.818 2.52369 -2.04303 0
M  V30 8078 H 733.829 0.52355 -5.15247 0
M  V30 8079 H 730.506 2.41992 -3.40215 0
M  V30 8080 H 731.896 0.109273 -6.71811 0
M  V30 8081 N 734.616 1.57351 0.0885366 0
M  V30 8082 C 735.566 1.98963 1.11346 0
M  V30 8083 C 736.55 0.869065 1.35411 0
M  V30 8084 O 737.742 1.13292 1.35992 0
M  V30 8085 C 734.871 2.4231 2.43189 0
M  V30 8086 C 733.957 3.61065 2.22469 0
M  V30 8087 N 734.348 4.75789 1.71635 0
M  V30 8088 C 732.646 3.6729 2.5301 0
M  V30 8089 C 733.347 5.57708 1.65339 0
M  V30 8090 N 732.323 5.01067 2.1079 0
M  V30 8091 H 736.125 2.85109 0.713465 0
M  V30 8092 H 733.639 1.59682 0.295868 0
M  V30 8093 H 735.636 2.70352 3.17357 0
M  V30 8094 H 734.296 1.57544 2.83919 0
M  V30 8095 H 735.307 4.98411 1.40738 0
M  V30 8096 H 731.984 2.932 2.9722 0
M  V30 8097 H 733.374 6.59782 1.27031 0
M  V30 8098 N 736.094 -0.359525 1.53444 0
M  V30 8099 C 737.024 -1.44662 1.8329 0
M  V30 8100 C 738.005 -1.55617 0.68683 0
M  V30 8101 O 739.19 -1.70086 0.93725 0
M  V30 8102 C 736.32 -2.81923 2.02822 0
M  V30 8103 C 735.274 -2.85787 3.18606 0
M  V30 8104 C 734.6 -4.25781 3.23442 0
M  V30 8105 C 735.9 -2.52762 4.57065 0
M  V30 8106 H 737.594 -1.19934 2.74329 0
M  V30 8107 H 735.14 -0.575517 1.31999 0
M  V30 8108 H 737.093 -3.58005 2.22285 0
M  V30 8109 H 735.817 -3.08051 1.085 0
M  V30 8110 H 734.476 -2.12157 2.98973 0
M  V30 8111 H 734.124 -4.48994 2.26745 0
M  V30 8112 H 733.824 -4.29281 4.01238 0
M  V30 8113 H 735.348 -5.03727 3.45096 0
M  V30 8114 H 736.762 -3.18557 4.76649 0
M  V30 8115 H 735.159 -2.67569 5.37147 0
M  V30 8116 H 736.229 -1.47993 4.61764 0
M  V30 8117 N 737.572 -1.44907 -0.619662 0
M  V30 8118 C 738.983 -1.42905 -1.20146 0
M  V30 8119 C 739.334 -0.150341 -1.95623 0
M  V30 8120 O 738.459 0.748732 -2.03034 0
M  V30 8121 C 739.054 -2.58889 -2.18545 0
M  V30 8122 C 737.613 -2.60046 -2.72127 0
M  V30 8123 C 736.76 -2.3493 -1.4732 0
M  V30 8124 H 739.711 -1.53321 -0.409666 0
M  V30 8125 H 739.732 -2.32298 -3.0136 0
M  V30 8126 H 739.244 -3.51941 -1.63583 0
M  V30 8127 H 737.345 -1.70968 -3.3106 0
M  V30 8128 H 737.458 -3.58893 -3.17384 0
M  V30 8129 H 735.822 -1.84248 -1.75855 0
M  V30 8130 H 736.605 -3.3011 -0.942442 0
M  V30 8131 N 739.05 0.861098 -1.31996 0
M  V30 8132 C 739.982 1.97551 -1.16216 0
M  V30 8133 C 740.995 1.625 -0.0988527 0
M  V30 8134 O 742.184 1.75091 -0.3472 0
M  V30 8135 C 739.284 3.30376 -0.755307 0
M  V30 8136 C 738.457 3.93711 -1.90552 0
M  V30 8137 C 737.516 5.04862 -1.48328 0
M  V30 8138 O 736.542 5.25204 -2.19431 0
M  V30 8139 N 737.744 5.79283 -0.375656 0
M  V30 8140 H 740.509 2.11632 -2.12208 0
M  V30 8141 H 738.07 1.03559 -1.24448 0
M  V30 8142 H 740.062 4.0213 -0.455364 0
M  V30 8143 H 738.632 3.12395 0.113269 0
M  V30 8144 H 737.852 3.14825 -2.37231 0
M  V30 8145 H 739.14 4.32762 -2.67571 0
M  V30 8146 H 738.538 5.65286 0.216284 0
M  V30 8147 H 737.095 6.5166 -0.135289 0
M  V30 8148 N 740.528 1.15101 1.07655 0
M  V30 8149 C 741.46 0.802722 2.14684 0
M  V30 8150 C 742.473 -0.183874 1.61758 0
M  V30 8151 O 743.662 0.0389349 1.78458 0
M  V30 8152 C 740.762 0.172135 3.38463 0
M  V30 8153 C 739.935 1.19538 4.20749 0
M  V30 8154 C 738.994 0.58714 5.22914 0
M  V30 8155 O 738.02 1.25224 5.55255 0
M  V30 8156 N 739.222 -0.632566 5.77043 0
M  V30 8157 H 741.987 1.72379 2.45164 0
M  V30 8158 H 739.548 1.04647 1.23534 0
M  V30 8159 H 741.54 -0.247465 4.03943 0
M  V30 8160 H 740.11 -0.652214 3.0572 0
M  V30 8161 H 739.33 1.79165 3.51132 0
M  V30 8162 H 740.618 1.88636 4.7254 0
M  V30 8163 H 740.016 -1.19135 5.53013 0
M  V30 8164 H 738.573 -0.994566 6.44167 0
M  V30 8165 N 742.006 -1.2595 0.947325 0
M  V30 8166 C 742.936 -2.28521 0.479604 0
M  V30 8167 C 743.917 -1.63469 -0.470293 0
M  V30 8168 O 745.102 -1.90627 -0.370824 0
M  V30 8169 C 742.232 -3.46397 -0.250289 0
M  V30 8170 C 741.186 -4.23578 0.613643 0
M  V30 8171 C 740.512 -5.34131 -0.246568 0
M  V30 8172 C 741.812 -4.86979 1.88809 0
M  V30 8173 H 743.506 -2.67895 1.33688 0
M  V30 8174 H 741.052 -1.28783 0.644274 0
M  V30 8175 H 743.005 -4.17269 -0.588576 0
M  V30 8176 H 741.729 -3.05993 -1.14175 0
M  V30 8177 H 740.388 -3.54478 0.93491 0
M  V30 8178 H 740.036 -4.89968 -1.13756 0
M  V30 8179 H 739.736 -5.86683 0.328123 0
M  V30 8180 H 741.26 -6.07839 -0.579986 0
M  V30 8181 H 742.674 -5.50034 1.61666 0
M  V30 8182 H 741.071 -5.49675 2.40784 0
M  V30 8183 H 742.141 -4.09575 2.5957 0
M  V30 8184 N 743.484 -0.715051 -1.40445 0
M  V30 8185 C 744.431 -0.0621393 -2.30716 0
M  V30 8186 C 745.401 0.750871 -1.48159 0
M  V30 8187 O 746.586 0.714928 -1.76899 0
M  V30 8188 C 743.726 0.854036 -3.34365 0
M  V30 8189 C 742.839 0.0305565 -4.31989 0
M  V30 8190 C 741.974 0.946162 -5.22706 0
M  V30 8191 C 741.013 0.116741 -6.11989 0
M  V30 8192 N 740.15 0.987194 -6.95125 0
M  V30 8193 H 744.99 -0.83764 -2.85985 0
M  V30 8194 H 742.527 -0.424759 -1.40834 0
M  V30 8195 H 744.485 1.39946 -3.93028 0
M  V30 8196 H 743.115 1.59572 -2.806 0
M  V30 8197 H 742.167 -0.632044 -3.75112 0
M  V30 8198 H 743.479 -0.611615 -4.95036 0
M  V30 8199 H 742.633 1.56014 -5.86297 0
M  V30 8200 H 741.372 1.62216 -4.59932 0
M  V30 8201 H 740.377 -0.510176 -5.47428 0
M  V30 8202 H 741.602 -0.555742 -6.76822 0
M  V30 8203 H 739.548 1.64885 -6.3494 0
M  V30 8204 H 739.465 0.401046 -7.54936 0
M  V30 8205 H 740.733 1.58737 -7.63166 0
M  V30 8206 N 744.962 1.50701 -0.461195 0
M  V30 8207 C 745.894 2.26124 0.374244 0
M  V30 8208 C 746.907 1.31064 0.965715 0
M  V30 8209 O 748.096 1.56647 0.855801 0
M  V30 8210 C 745.196 3.01996 1.5379 0
M  V30 8211 C 744.369 4.24336 1.06101 0
M  V30 8212 C 743.428 4.82585 2.09756 0
M  V30 8213 O 742.454 5.43775 1.68219 0
M  V30 8214 N 743.656 4.68712 3.42475 0
M  V30 8215 H 746.421 2.9846 -0.2723 0
M  V30 8216 H 743.982 1.59256 -0.291415 0
M  V30 8217 H 745.974 3.37846 2.22806 0
M  V30 8218 H 744.544 2.32521 2.08933 0
M  V30 8219 H 743.764 3.93707 0.197085 0
M  V30 8220 H 745.052 5.03678 0.720156 0
M  V30 8221 H 744.45 4.20026 3.78938 0
M  V30 8222 H 743.007 5.08858 4.07317 0
M  V30 8223 N 746.441 0.193421 1.56409 0
M  V30 8224 C 747.857 -0.162447 1.58771 0
M  V30 8225 C 748.057 -1.6116 1.20954 0
M  V30 8226 O 747.113 -2.3469 0.931497 0
M  V30 8227 C 748.426 0.138391 3.00381 0
M  V30 8228 C 749.974 0.0783649 3.12902 0
M  V30 8229 C 750.449 0.352491 4.56642 0
M  V30 8230 N 751.94 0.30105 4.62221 0
M  V30 8231 C 752.675 0.487028 5.71328 0
M  V30 8232 N 752.171 0.733265 6.88909 0
M  V30 8233 N 753.964 0.4214 5.60518 0
M  V30 8234 H 746.115 1.13909 1.79272 0
M  V30 8235 H 748.378 0.454528 0.83193 0
M  V30 8236 H 748.084 1.14312 3.32604 0
M  V30 8237 H 747.958 -0.559804 3.73023 0
M  V30 8238 H 750.345 -0.916963 2.80492 0
M  V30 8239 H 750.426 0.809611 2.4265 0
M  V30 8240 H 750.07 1.34513 4.89764 0
M  V30 8241 H 750 -0.399624 5.25081 0
M  V30 8242 H 752.491 0.117279 3.77718 0
M  V30 8243 H 752.804 0.86403 7.67955 0
M  V30 8244 H 751.149 0.770138 6.9072 0
M  V30 8245 H 754.34 0.229461 4.67537 0
M  V30 8246 H 754.513 0.569758 6.4549 0
M  V30 8247 N 747.919 -1.57396 -0.0801906 0
M  V30 8248 C 748.852 -1.98386 -1.12774 0
M  V30 8249 C 749.83 -0.859423 -1.38031 0
M  V30 8250 O 751.014 -1.12101 -1.51544 0
M  V30 8251 C 748.141 -2.3134 -2.47386 0
M  V30 8252 C 747.187 -3.53706 -2.38316 0
M  V30 8253 S 748.02 -5.04862 -1.78534 0
M  V30 8254 C 749.176 -5.41008 -3.1474 0
M  V30 8255 H 749.409 -2.86929 -0.778382 0
M  V30 8256 H 746.942 -1.51682 -0.28842 0
M  V30 8257 H 748.9 -2.51 -3.24822 0
M  V30 8258 H 747.561 -1.4334 -2.79486 0
M  V30 8259 H 746.754 -3.74253 -3.37566 0
M  V30 8260 H 746.356 -3.33632 -1.69014 0
M  V30 8261 H 748.648 -5.38565 -4.1104 0
M  V30 8262 H 749.591 -6.41885 -2.98981 0
M  V30 8263 H 749.999 -4.68467 -3.14958 0
M  V30 8264 N 749.397 0.351382 -1.53633 0
M  V30 8265 C 750.327 1.43688 -1.84055 0
M  V30 8266 C 751.308 1.55251 -0.695073 0
M  V30 8267 O 752.493 1.69587 -0.946257 0
M  V30 8268 C 749.623 2.80843 -2.04315 0
M  V30 8269 C 748.577 2.84094 -3.20117 0
M  V30 8270 C 747.903 4.2406 -3.25696 0
M  V30 8271 C 749.203 2.50334 -4.58399 0
M  V30 8272 H 750.897 1.18478 -2.74961 0
M  V30 8273 H 748.443 0.568509 -1.32303 0
M  V30 8274 H 750.396 3.56821 -2.2418 0
M  V30 8275 H 749.12 3.07471 -1.10132 0
M  V30 8276 H 747.779 2.10568 -3.00094 0
M  V30 8277 H 747.427 4.47785 -2.29123 0
M  V30 8278 H 747.127 4.27147 -4.03509 0
M  V30 8279 H 748.651 5.0189 -3.47762 0
M  V30 8280 H 750.065 3.16025 -4.78332 0
M  V30 8281 H 748.462 2.64717 -5.38558 0
M  V30 8282 H 749.532 1.45542 -4.62543 0
M  V30 8283 N 750.875 1.45233 0.611969 0
M  V30 8284 C 751.785 1.56098 1.7513 0
M  V30 8285 C 752.801 0.445646 1.68196 0
M  V30 8286 O 753.977 0.705718 1.88631 0
M  V30 8287 C 751.042 1.52052 3.11579 0
M  V30 8288 C 750.103 2.74589 3.29999 0
M  V30 8289 C 749.336 2.70726 4.59938 0
M  V30 8290 O 749.559 1.77806 5.41979 0
M  V30 8291 O 748.493 3.61864 4.80976 0
M  V30 8292 H 752.319 2.52392 1.68914 0
M  V30 8293 H 749.904 1.27695 0.775528 0
M  V30 8294 H 751.786 1.52387 3.92882 0
M  V30 8295 H 750.461 0.589085 3.18295 0
M  V30 8296 H 749.368 2.79817 2.48301 0
M  V30 8297 H 750.701 3.66843 3.28157 0
M  V30 8298 N 752.353 -0.854086 1.3245 0
M  V30 8299 C 753.583 -1.63836 1.25862 0
M  V30 8300 C 753.991 -1.88383 -0.175588 0
M  V30 8301 O 753.334 -1.45353 -1.1233 0
M  V30 8302 C 753.396 -3.02068 1.94923 0
M  V30 8303 C 753.06 -3.0056 3.44257 0
M  V30 8304 C 754.057 -2.77368 4.39731 0
M  V30 8305 C 751.742 -3.21177 3.862 0
M  V30 8306 C 753.736 -2.74797 5.75122 0
M  V30 8307 C 751.423 -3.18234 5.217 0
M  V30 8308 C 752.421 -2.95072 6.15972 0
M  V30 8309 O 752.109 -2.92003 7.48992 0
M  V30 8310 H 751.841 -0.517007 0.435523 0
M  V30 8311 H 754.395 -1.07314 1.75137 0
M  V30 8312 H 752.625 -3.60382 1.40219 0
M  V30 8313 H 754.314 -3.62791 1.82037 0
M  V30 8314 H 755.08 -2.61205 4.08653 0
M  V30 8315 H 750.959 -3.38231 3.13243 0
M  V30 8316 H 754.503 -2.56638 6.48678 0
M  V30 8317 H 750.4 -3.33941 5.52407 0
M  V30 8318 H 751.168 -3.07953 7.58358 0
M  V30 8319 N 753.831 -1.1567 -1.07043 0
M  V30 8320 C 755.078 -0.933517 -1.79699 0
M  V30 8321 C 755.406 0.539162 -1.86878 0
M  V30 8322 O 754.661 1.41592 -1.35093 0
M  V30 8323 C 754.96 -1.49677 -3.24548 0
M  V30 8324 C 754.626 -2.99047 -3.37463 0
M  V30 8325 C 753.288 -3.39824 -3.40695 0
M  V30 8326 C 755.64 -3.95027 -3.40004 0
M  V30 8327 C 752.968 -4.75215 -3.44075 0
M  V30 8328 C 755.32 -5.30295 -3.44921 0
M  V30 8329 C 753.984 -5.70562 -3.46432 0
M  V30 8330 H 753.254 -0.341598 -0.657565 0
M  V30 8331 H 755.901 -1.44263 -1.25938 0
M  V30 8332 H 754.206 -0.908915 -3.81111 0
M  V30 8333 H 755.903 -1.29986 -3.79348 0
M  V30 8334 H 752.493 -2.6653 -3.35648 0
M  V30 8335 H 756.677 -3.64596 -3.36725 0
M  V30 8336 H 751.933 -5.05754 -3.43545 0
M  V30 8337 H 756.107 -6.0446 -3.45833 0
M  V30 8338 H 753.734 -6.75456 -3.48803 0
M  V30 8339 N 755.309 1.25446 -0.953992 0
M  V30 8340 C 756.241 2.25111 -0.431004 0
M  V30 8341 C 757.254 1.56377 0.452764 0
M  V30 8342 O 758.443 1.76579 0.261144 0
M  V30 8343 C 755.543 3.3655 0.39839 0
M  V30 8344 C 754.716 4.34843 -0.472229 0
M  V30 8345 C 753.775 5.25351 0.29886 0
M  V30 8346 O 752.801 5.68396 -0.302522 0
M  V30 8347 N 754.003 5.5824 1.59211 0
M  V30 8348 H 756.768 2.70619 -1.28785 0
M  V30 8349 H 754.329 1.39346 -0.824281 0
M  V30 8350 H 756.321 3.94059 0.921941 0
M  V30 8351 H 754.891 2.90436 1.15609 0
M  V30 8352 H 754.111 3.76222 -1.17689 0
M  V30 8353 H 755.399 4.97497 -1.06648 0
M  V30 8354 H 754.797 5.25172 2.10264 0
M  V30 8355 H 753.354 6.18336 2.06164 0
M  V30 8356 N 756.787 0.722489 1.40064 0
M  V30 8357 C 758.015 0.274838 2.05066 0
M  V30 8358 C 758.43 -1.08586 1.54449 0
M  V30 8359 O 757.787 -1.68375 0.704003 0
M  V30 8360 C 757.838 0.253673 3.60609 0
M  V30 8361 O 757.559 1.56064 4.0936 0
M  V30 8362 C 759.06 -0.211684 4.42794 0
M  V30 8363 H 756.28 0.12226 0.659768 0
M  V30 8364 H 758.824 0.982632 1.79345 0
M  V30 8365 H 756.979 -0.405137 3.85276 0
M  V30 8366 H 757.393 1.46576 5.03603 0
M  V30 8367 H 758.867 -0.175341 5.51721 0
M  V30 8368 H 759.344 -1.25493 4.2089 0
M  V30 8369 H 759.95 0.4171 4.2325 0
M  V30 8370 N 758.265 -1.50454 0.469181 0
M  V30 8371 C 759.493 -2.06729 -0.0842134 0
M  V30 8372 C 759.908 -1.33326 -1.33677 0
M  V30 8373 O 759.265 -0.401977 -1.78018 0
M  V30 8374 C 759.316 -3.59557 -0.374253 0
M  V30 8375 O 759.037 -4.30192 0.828622 0
M  V30 8376 C 760.538 -4.32449 -0.974824 0
M  V30 8377 H 757.758 -0.670971 0.006231 0
M  V30 8378 H 760.302 -1.93645 0.657415 0
M  V30 8379 H 758.457 -3.7245 -1.06581 0
M  V30 8380 H 758.871 -5.21371 0.572066 0
M  V30 8381 H 760.345 -5.40361 -1.12755 0
M  V30 8382 H 760.822 -3.92819 -1.96442 0
M  V30 8383 H 761.428 -4.24082 -0.321703 0
M  V30 8384 N 759.743 -0.201713 -1.56304 0
M  V30 8385 C 760.989 0.429292 -1.98818 0
M  V30 8386 C 761.344 1.58779 -1.08659 0
M  V30 8387 O 760.637 1.91142 -0.132365 0
M  V30 8388 C 760.831 0.931432 -3.45049 0
M  V30 8389 C 760.66 -0.176878 -4.49352 0
M  V30 8390 C 759.43 -0.636712 -5.01272 0
M  V30 8391 C 761.628 -0.988177 -5.04717 0
M  V30 8392 N 759.61 -1.72215 -5.8925 0
M  V30 8393 C 760.981 -1.92288 -5.89428 0
M  V30 8394 C 763.036 -1.02985 -4.87133 0
M  V30 8395 C 761.739 -2.89582 -6.58434 0
M  V30 8396 C 763.765 -1.99087 -5.56883 0
M  V30 8397 C 763.127 -2.913 -6.41345 0
M  V30 8398 H 759.226 0.124322 -0.772054 0
M  V30 8399 H 761.81 -0.308929 -1.92234 0
M  V30 8400 H 759.981 1.63907 -3.52121 0
M  V30 8401 H 761.713 1.5336 -3.74517 0
M  V30 8402 H 758.468 -0.228861 -4.73047 0
M  V30 8403 H 758.892 -2.26627 -6.37941 0
M  V30 8404 H 763.534 -0.330894 -4.21503 0
M  V30 8405 H 761.252 -3.6045 -7.23258 0
M  V30 8406 H 764.838 -2.0296 -5.45251 0
M  V30 8407 H 763.718 -3.6445 -6.94367 0
M  V30 8408 N 761.222 1.57436 0.0718424 0
M  V30 8409 C 762.447 1.91858 0.787745 0
M  V30 8410 C 762.872 0.798119 1.70328 0
M  V30 8411 O 762.23 -0.24905 1.79581 0
M  V30 8412 C 762.278 3.25232 1.55744 0
M  V30 8413 O 761.382 3.14462 2.6681 0
M  V30 8414 H 760.723 0.628258 0.214914 0
M  V30 8415 H 763.253 2.04561 0.0401012 0
M  V30 8416 H 763.263 3.59105 1.9367 0
M  V30 8417 H 761.938 4.0636 0.885691 0
M  V30 8418 H 760.515 2.92148 2.31741 0
M  V30 8419 N 762.7 -0.34323 1.53817 0
M  V30 8420 C 763.946 -1.08504 1.71332 0
M  V30 8421 C 764.279 -1.88294 0.475285 0
M  V30 8422 O 763.554 -1.87205 -0.527688 0
M  V30 8423 C 763.837 -2.02597 2.97702 0
M  V30 8424 C 763.69 -1.26268 4.31713 0
M  V30 8425 C 765.009 -3.0241 3.19744 0
M  V30 8426 H 762.128 -0.393072 0.623429 0
M  V30 8427 H 764.77 -0.363579 1.86489 0
M  V30 8428 H 762.92 -2.64118 2.8491 0
M  V30 8429 H 764.592 -0.673594 4.56356 0
M  V30 8430 H 762.835 -0.564696 4.30109 0
M  V30 8431 H 763.506 -1.95253 5.16314 0
M  V30 8432 H 765.982 -2.51004 3.31868 0
M  V30 8433 H 764.858 -3.65449 4.09558 0
M  V30 8434 H 765.119 -3.73806 2.36054 0
M  V30 8435 N 764.178 -1.45556 -0.604258 0
M  V30 8436 C 765.126 -1.5482 -1.7359 0
M  V30 8437 C 766.12 -0.417966 -1.64163 0
M  V30 8438 O 767.326 -0.594007 -1.69916 0
M  V30 8439 H 763.701 -0.486352 -0.573556 0
M  V30 8440 H 765.672 -2.5001 -1.62903 0
M  V30 8441 C 764.421 -1.53521 -3.11972 0
M  V30 8442 H 763.744 -2.39818 -3.19886 0
M  V30 8443 H 765.184 -1.64061 -3.90973 0
M  V30 8444 C 763.643 -0.260191 -3.35894 0
M  V30 8445 O 764.173 0.658582 -3.96265 0
M  V30 8446 N 762.379 -0.154839 -2.90187 0
M  V30 8447 H 761.926 -0.903378 -2.4124 0
M  V30 8448 H 761.884 0.697437 -3.06567 0
M  V30 8449 N 765.656 0.84705 -1.32902 0
M  V30 8450 C 766.604 1.97765 -1.22441 0
M  V30 8451 C 767.598 1.68919 -0.127546 0
M  V30 8452 O 768.804 1.77633 -0.290973 0
M  V30 8453 H 765.179 0.649072 -0.379748 0
M  V30 8454 H 767.15 2.03713 -2.18044 0
M  V30 8455 C 765.899 3.33834 -0.972125 0
M  V30 8456 H 765.222 3.56564 -1.80837 0
M  V30 8457 H 766.662 4.13467 -0.939209 0
M  V30 8458 C 765.121 3.35328 0.325059 0
M  V30 8459 O 765.651 3.78887 1.33445 0
M  V30 8460 N 763.857 2.88488 0.349718 0
M  V30 8461 H 763.404 2.53234 -0.472236 0
M  V30 8462 H 763.362 2.8987 1.21748 0
M  V30 8463 N 767.134 1.16236 1.06428 0
M  V30 8464 C 768.382 0.941171 1.78847 0
M  V30 8465 C 768.703 -0.53248 1.87589 0
M  V30 8466 O 767.973 -1.38686 1.38358 0
M  V30 8467 H 766.553 0.345228 0.66244 0
M  V30 8468 H 769.215 1.46479 1.28569 0
M  V30 8469 H 768.311 1.35871 2.80972 0
M  V30 8470 N 768.612 -1.24939 0.960631 0
M  V30 8471 C 769.861 -1.92118 0.614298 0
M  V30 8472 C 770.174 -1.75998 -0.853474 0
M  V30 8473 O 771.38 -2.37804 -1.31003 0
M  V30 8474 C 769.836 -3.44303 1.04801 0
M  V30 8475 C 769.444 -3.69123 2.53875 0
M  V30 8476 C 771.188 -4.17375 0.774497 0
M  V30 8477 C 769.095 -5.14843 2.91016 0
M  V30 8478 H 768.025 -0.719319 0.226045 0
M  V30 8479 H 770.676 -1.41701 1.16589 0
M  V30 8480 H 769.058 -3.93715 0.42479 0
M  V30 8481 H 770.232 -3.30339 3.21267 0
M  V30 8482 H 768.547 -3.09323 2.78762 0
M  V30 8483 H 771.144 -5.24723 1.02808 0
M  V30 8484 H 771.487 -4.15294 -0.289192 0
M  V30 8485 H 772.02 -3.7389 1.35835 0
M  V30 8486 H 768.759 -5.2204 3.96427 0
M  V30 8487 H 768.279 -5.54652 2.28302 0
M  V30 8488 H 769.958 -5.83017 2.80535 0
M  V30 8489 N 770.09 -0.729906 -1.39679 0
M  V30 8490 C 771.367 -0.202149 -1.94553 0
M  V30 8491 C 771.747 1.29507 -1.66707 0
M  V30 8492 O 771.095 2.05819 -0.992517 0
M  V30 8493 C 771.305 -0.530279 -3.44948 0
M  V30 8494 C 772.653 -0.476808 -4.21914 0
M  V30 8495 O 773.677 -0.467171 -3.53123 0
M  V30 8496 O 772.536 -0.466869 -5.44502 0
M  V30 8497 H 769.63 -0.0351644 -0.826252 0
M  V30 8498 H 772.176 -0.808417 -1.49207 0
M  V30 8499 H 770.948 -1.56526 -3.5863 0
M  V30 8500 H 770.571 0.10522 -3.97461 0
M  V30 8501 N 771.568 1.50203 -0.477153 0
M  V30 8502 C 772.793 2.07263 0.0754986 0
M  V30 8503 C 773.218 1.33801 1.32208 0
M  V30 8504 O 772.576 0.387482 1.77111 0
M  V30 8505 C 772.624 3.59028 0.336348 0
M  V30 8506 O 771.728 3.87339 1.4157 0
M  V30 8507 H 771.069 0.663815 -0.015662 0
M  V30 8508 H 773.599 1.93321 -0.669936 0
M  V30 8509 H 773.609 4.03927 0.575034 0
M  V30 8510 H 772.284 4.11912 -0.574551 0
M  V30 8511 H 770.861 3.54272 1.16385 0
M  V30 8512 N 773.046 0.209999 1.56195 0
M  V30 8513 C 773.994 -0.721416 2.2113 0
M  V30 8514 C 774.988 -1.20852 1.18706 0
M  V30 8515 O 776.194 -1.16968 1.36815 0
M  V30 8516 H 772.569 -0.251033 0.708863 0
M  V30 8517 H 774.54 -0.150193 2.98022 0
M  V30 8518 C 773.289 -1.92392 2.89621 0
M  V30 8519 H 772.612 -1.5582 3.68185 0
M  V30 8520 H 774.052 -2.55367 3.38473 0
M  V30 8521 C 772.511 -2.77208 1.91461 0
M  V30 8522 O 773.041 -3.75603 1.42426 0
M  V30 8523 N 771.247 -2.43006 1.59363 0
M  V30 8524 H 770.794 -1.63047 1.99433 0
M  V30 8525 H 770.752 -3.00036 0.939449 0
M  V30 8526 N 774.524 -1.57472 -0.0634922 0
M  V30 8527 C 775.434 -2.07621 -1.09227 0
M  V30 8528 C 776.45 -1.00746 -1.41867 0
M  V30 8529 O 777.626 -1.32269 -1.51878 0
M  V30 8530 C 774.691 -2.51707 -2.38421 0
M  V30 8531 C 773.752 -3.72917 -2.12676 0
M  V30 8532 C 772.985 -4.14891 -3.3571 0
M  V30 8533 O 773.208 -3.56663 -4.45137 0
M  V30 8534 O 772.142 -5.07616 -3.23434 0
M  V30 8535 H 775.968 -2.95612 -0.696205 0
M  V30 8536 H 773.553 -1.46787 -0.27819 0
M  V30 8537 H 775.435 -2.80547 -3.14438 0
M  V30 8538 H 774.11 -1.66842 -2.77391 0
M  V30 8539 H 773.017 -3.49148 -1.34337 0
M  V30 8540 H 774.35 -4.5866 -1.78583 0
M  V30 8541 N 776.003 0.335068 -1.53997 0
M  V30 8542 C 776.933 1.41727 -1.85568 0
M  V30 8543 C 777.914 1.54505 -0.7115 0
M  V30 8544 O 779.099 1.68573 -0.964191 0
M  V30 8545 C 776.229 2.7866 -2.07282 0
M  V30 8546 C 775.183 2.80682 -3.23112 0
M  V30 8547 C 774.509 4.20581 -3.30175 0
M  V30 8548 C 775.809 2.45458 -4.61029 0
M  V30 8549 H 777.503 1.15555 -2.76202 0
M  V30 8550 H 775.049 0.554445 -1.32898 0
M  V30 8551 H 777.002 3.54423 -2.27952 0
M  V30 8552 H 775.726 3.06286 -1.13387 0
M  V30 8553 H 774.385 2.07373 -3.02311 0
M  V30 8554 H 774.033 4.4533 -2.33859 0
M  V30 8555 H 773.733 4.22843 -4.08016 0
M  V30 8556 H 775.257 4.98174 -3.53066 0
M  V30 8557 H 776.671 3.10934 -4.81656 0
M  V30 8558 H 775.068 2.5899 -5.41336 0
M  V30 8559 H 776.138 1.40628 -4.6406 0
M  V30 8560 N 777.481 1.45874 0.596531 0
M  V30 8561 C 778.411 1.5824 1.71705 0
M  V30 8562 C 779.392 0.433366 1.64487 0
M  V30 8563 O 780.577 0.657895 1.82717 0
M  V30 8564 C 777.707 1.55927 3.10329 0
M  V30 8565 C 776.661 2.69659 3.32367 0
M  V30 8566 C 775.987 2.52403 4.71377 0
M  V30 8567 C 777.287 4.11591 3.21544 0
M  V30 8568 H 778.981 2.52035 1.61613 0
M  V30 8569 H 776.527 1.21297 0.776082 0
M  V30 8570 H 778.48 1.63173 3.88526 0
M  V30 8571 H 777.204 0.586674 3.21288 0
M  V30 8572 H 775.863 2.61859 2.56564 0
M  V30 8573 H 775.511 1.53258 4.79083 0
M  V30 8574 H 775.211 3.28679 4.87077 0
M  V30 8575 H 776.735 2.6152 5.5176 0
M  V30 8576 H 778.149 4.20576 3.89601 0
M  V30 8577 H 776.546 4.88344 3.4877 0
M  V30 8578 H 777.616 4.32719 2.1882 0
M  V30 8579 N 778.959 -0.83999 1.33349 0
M  V30 8580 C 779.906 -1.94972 1.23509 0
M  V30 8581 C 780.876 -1.65709 0.113967 0
M  V30 8582 O 782.061 -1.88552 0.292045 0
M  V30 8583 C 779.201 -3.30919 0.979105 0
M  V30 8584 C 778.314 -3.72587 2.18639 0
M  V30 8585 C 777.449 -4.97397 1.86465 0
M  V30 8586 C 776.488 -5.31597 3.03432 0
M  V30 8587 N 775.625 -6.47584 2.71254 0
M  V30 8588 H 780.465 -2.0272 2.18423 0
M  V30 8589 H 778.002 -0.992017 1.08616 0
M  V30 8590 H 779.96 -4.09239 0.811126 0
M  V30 8591 H 778.59 -3.22731 0.0667099 0
M  V30 8592 H 777.642 -2.89799 2.46416 0
M  V30 8593 H 778.954 -3.93844 3.06086 0
M  V30 8594 H 778.108 -5.83462 1.66305 0
M  V30 8595 H 776.847 -4.78107 0.96254 0
M  V30 8596 H 775.852 -4.44037 3.24208 0
M  V30 8597 H 777.077 -5.52836 3.94397 0
M  V30 8598 H 775.023 -6.29783 1.836 0
M  V30 8599 H 774.94 -6.68931 3.52231 0
M  V30 8600 H 776.208 -7.36764 2.54558 0
M  V30 8601 N 780.437 -1.16799 -1.0581 0
M  V30 8602 C 781.714 -0.862616 -1.75551 0
M  V30 8603 C 782.094 0.6385 -2.01212 0
M  V30 8604 O 781.442 1.58784 -1.64317 0
M  V30 8605 C 781.652 -1.6907 -3.05314 0
M  V30 8606 C 783 -1.90675 -3.79379 0
M  V30 8607 O 784.024 -1.65976 -3.15167 0
M  V30 8608 O 782.883 -2.32145 -4.94743 0
M  V30 8609 H 779.977 -0.318789 -0.763088 0
M  V30 8610 H 782.523 -1.27461 -1.12034 0
M  V30 8611 H 781.295 -2.70912 -2.82352 0
M  V30 8612 H 780.918 -1.27606 -3.76567 0
M  V30 8613 N 781.915 1.24427 -0.967243 0
M  V30 8614 C 783.162 1.92487 -0.62888 0
M  V30 8615 C 783.49 1.75623 0.835871 0
M  V30 8616 O 782.745 1.1027 1.61675 0
M  V30 8617 C 783.044 3.44568 -0.949096 0
M  V30 8618 C 782.71 3.816 -2.40192 0
M  V30 8619 C 781.372 3.9142 -2.799 0
M  V30 8620 C 783.724 3.99715 -3.34481 0
M  V30 8621 C 781.052 4.16771 -4.12939 0
M  V30 8622 C 783.404 4.26562 -4.67148 0
M  V30 8623 C 782.068 4.34601 -5.06634 0
M  V30 8624 H 781.338 0.704361 -0.230124 0
M  V30 8625 H 783.985 1.4772 -1.21864 0
M  V30 8626 H 782.29 3.90819 -0.277085 0
M  V30 8627 H 783.987 3.95436 -0.665692 0
M  V30 8628 H 780.577 3.74522 -2.08402 0
M  V30 8629 H 784.761 3.91531 -3.04987 0
M  V30 8630 H 780.017 4.21214 -4.43158 0
M  V30 8631 H 784.191 4.39523 -5.40178 0
M  V30 8632 H 781.818 4.53998 -6.09746 0
M  V30 8633 N 783.393 0.737304 1.3929 0
M  V30 8634 C 784.804 0.355966 1.83275 0
M  V30 8635 C 785.155 -1.11295 1.6158 0
M  V30 8636 O 784.28 -1.85871 1.10819 0
M  V30 8637 C 784.875 0.63931 3.32713 0
M  V30 8638 C 783.434 0.31144 3.75109 0
M  V30 8639 C 782.581 0.900765 2.62262 0
M  V30 8640 H 785.532 0.934763 1.28249 0
M  V30 8641 H 785.553 -0.0881293 3.80398 0
M  V30 8642 H 785.065 1.70847 3.48472 0
M  V30 8643 H 783.166 -0.751791 3.64937 0
M  V30 8644 H 783.279 0.795611 4.72448 0
M  V30 8645 H 781.643 0.327239 2.52589 0
M  V30 8646 H 782.426 1.97463 2.80826 0
M  V30 8647 N 784.871 -1.49948 0.485112 0
M  V30 8648 C 786.148 -1.95186 -0.12726 0
M  V30 8649 C 786.528 -1.42605 -1.5565 0
M  V30 8650 O 785.876 -0.632986 -2.19558 0
M  V30 8651 C 786.086 -3.48955 -0.0562117 0
M  V30 8652 C 787.434 -4.23932 -0.238106 0
M  V30 8653 O 788.458 -3.55955 -0.132145 0
M  V30 8654 O 787.317 -5.44614 -0.453658 0
M  V30 8655 H 784.411 -0.820433 -0.104014 0
M  V30 8656 H 786.957 -1.60659 0.546517 0
M  V30 8657 H 785.729 -3.79814 0.941122 0
M  V30 8658 H 785.352 -3.90056 -0.770834 0
M  V30 8659 N 786.349 -0.21828 -1.56081 0
M  V30 8660 C 787.259 0.704602 -2.23769 0
M  V30 8661 C 788.275 1.21633 -1.24425 0
M  V30 8662 O 789.451 1.25862 -1.57228 0
M  V30 8663 C 786.516 1.89725 -2.90182 0
M  V30 8664 C 785.577 1.42782 -4.0486 0
M  V30 8665 C 784.81 2.56361 -4.68097 0
M  V30 8666 O 785.033 3.74417 -4.30312 0
M  V30 8667 O 783.967 2.2775 -5.57148 0
M  V30 8668 H 787.793 0.158007 -3.03289 0
M  V30 8669 H 785.378 0.0120279 -1.49395 0
M  V30 8670 H 787.26 2.59382 -3.32113 0
M  V30 8671 H 785.935 2.432 -2.13624 0
M  V30 8672 H 784.842 0.699359 -3.67505 0
M  V30 8673 H 786.175 0.939474 -4.83151 0
M  V30 8674 N 787.827 1.57504 0.0551401 0
M  V30 8675 C 788.757 2.07864 1.06372 0
M  V30 8676 C 789.738 0.975565 1.39344 0
M  V30 8677 O 790.923 1.24929 1.48682 0
M  V30 8678 C 788.053 2.53643 2.3724 0
M  V30 8679 C 787.007 3.67978 2.18578 0
M  V30 8680 C 786.333 3.9987 3.54976 0
M  V30 8681 C 787.633 4.97405 1.59329 0
M  V30 8682 H 789.327 2.92379 0.644595 0
M  V30 8683 H 786.873 1.40654 0.308619 0
M  V30 8684 H 788.826 2.8749 3.08103 0
M  V30 8685 H 787.55 1.66177 2.81163 0
M  V30 8686 H 786.209 3.3444 1.50152 0
M  V30 8687 H 785.857 3.0951 3.965 0
M  V30 8688 H 785.557 4.76867 3.43324 0
M  V30 8689 H 787.081 4.36228 4.27244 0
M  V30 8690 H 788.495 5.29375 2.20078 0
M  V30 8691 H 786.892 5.78837 1.58327 0
M  V30 8692 H 787.962 4.81697 0.55638 0
M  V30 8693 N 789.305 -0.326896 1.54172 0
M  V30 8694 C 790.721 -0.671034 1.44808 0
M  V30 8695 C 790.921 -1.91781 0.618258 0
M  V30 8696 O 789.977 -2.52235 0.115751 0
M  V30 8697 C 791.29 -0.848147 2.88491 0
M  V30 8698 C 792.838 -0.945702 2.98371 0
M  V30 8699 C 793.313 -1.15501 4.43197 0
M  V30 8700 N 794.804 -1.22183 4.46795 0
M  V30 8701 C 795.539 -1.4016 5.56006 0
M  V30 8702 N 795.035 -1.55202 6.75192 0
M  V30 8703 N 796.828 -1.42841 5.43648 0
M  V30 8704 H 788.979 0.49262 2.06608 0
M  V30 8705 H 791.242 0.158574 0.934643 0
M  V30 8706 H 790.948 -0.00329969 3.517 0
M  V30 8707 H 790.822 -1.74497 3.34411 0
M  V30 8708 H 793.209 -1.78106 2.35292 0
M  V30 8709 H 793.29 -0.0254215 2.55787 0
M  V30 8710 H 792.934 -0.324521 5.06862 0
M  V30 8711 H 792.864 -2.08911 4.83388 0
M  V30 8712 H 795.355 -1.12016 3.60917 0
M  V30 8713 H 795.668 -1.68601 7.54184 0
M  V30 8714 H 794.013 -1.52306 6.78106 0
M  V30 8715 H 797.204 -1.30683 4.49488 0
M  V30 8716 H 797.377 -1.56509 6.28816 0
M  V30 8717 N 790.784 -1.46188 -0.588786 0
M  V30 8718 C 792.009 -1.5498 -1.37826 0
M  V30 8719 C 792.434 -0.189498 -1.87143 0
M  V30 8720 O 791.792 0.829293 -1.61222 0
M  V30 8721 C 791.84 -2.55369 -2.54596 0
M  V30 8722 O 790.944 -2.08452 -3.55839 0
M  V30 8723 H 790.285 -0.521741 -0.41071 0
M  V30 8724 H 792.815 -1.91708 -0.714779 0
M  V30 8725 H 792.825 -2.74782 -3.01594 0
M  V30 8726 H 791.5 -3.54155 -2.18052 0
M  V30 8727 H 790.077 -1.98999 -3.15363 0
M  V30 8728 N 792.262 0.832906 -1.33792 0
M  V30 8729 C 793.539 1.57359 -1.16178 0
M  V30 8730 C 793.919 2.09372 0.269532 0
M  V30 8731 O 793.267 1.89993 1.26944 0
M  V30 8732 C 793.477 2.70279 -2.20795 0
M  V30 8733 C 794.825 3.39305 -2.55259 0
M  V30 8734 O 795.849 2.80526 -2.19508 0
M  V30 8735 O 794.708 4.45428 -3.16632 0
M  V30 8736 H 791.802 0.694025 -0.449731 0
M  V30 8737 H 794.348 0.875144 -1.45394 0
M  V30 8738 H 793.12 2.29527 -3.16911 0
M  V30 8739 H 792.743 3.47782 -1.927 0
M  V30 8740 N 793.74 1.17359 1.05189 0
M  V30 8741 C 794.989 0.956412 1.77583 0
M  V30 8742 C 795.302 -0.516018 1.88671 0
M  V30 8743 O 796.508 -0.851401 2.57805 0
M  V30 8744 C 794.964 1.66203 3.19225 0
M  V30 8745 C 794.572 3.17299 3.16267 0
M  V30 8746 C 796.316 1.52725 3.96075 0
M  V30 8747 C 794.223 3.8055 4.52698 0
M  V30 8748 H 793.153 0.354204 0.665624 0
M  V30 8749 H 795.804 1.40612 1.17901 0
M  V30 8750 H 794.186 1.14006 3.79234 0
M  V30 8751 H 795.36 3.76431 2.65776 0
M  V30 8752 H 793.675 3.3079 2.52917 0
M  V30 8753 H 796.272 1.97351 4.96947 0
M  V30 8754 H 796.615 0.477803 4.13549 0
M  V30 8755 H 797.148 2.02139 3.42614 0
M  V30 8756 H 793.887 4.85492 4.4043 0
M  V30 8757 H 793.407 3.26206 5.03339 0
M  V30 8758 H 795.086 3.82757 5.21638 0
M  V30 8759 N 795.218 -1.23913 0.973828 0
M  V30 8760 C 796.446 -1.96195 0.656891 0
M  V30 8761 C 796.861 -1.72166 -0.774876 0
M  V30 8762 O 796.218 -1.0091 -1.52064 0
M  V30 8763 C 796.269 -3.49342 0.929638 0
M  V30 8764 O 795.99 -3.72553 2.30512 0
M  V30 8765 C 797.491 -4.38833 0.627739 0
M  V30 8766 H 794.711 -0.624841 0.244572 0
M  V30 8767 H 797.255 -1.57579 1.30343 0
M  V30 8768 H 795.41 -3.85999 0.329216 0
M  V30 8769 H 795.824 -4.66893 2.3898 0
M  V30 8770 H 797.298 -5.45117 0.868991 0
M  V30 8771 H 797.775 -4.37009 -0.438104 0
M  V30 8772 H 798.381 -4.07773 1.20834 0
M  V30 8773 N 796.696 -0.74468 -1.38897 0
M  V30 8774 C 797.629 -0.0596441 -2.28122 0
M  V30 8775 C 798.607 0.73764 -1.44906 0
M  V30 8776 O 799.791 0.718155 -1.74284 0
M  V30 8777 C 796.918 0.922533 -3.25894 0
M  V30 8778 C 795.964 0.212566 -4.2597 0
M  V30 8779 S 796.797 -1.08035 -5.24489 0
M  V30 8780 C 797.953 -0.101014 -6.25818 0
M  V30 8781 H 798.186 -0.816289 -2.85874 0
M  V30 8782 H 795.719 -0.536882 -1.44765 0
M  V30 8783 H 797.677 1.4839 -3.82741 0
M  V30 8784 H 796.338 1.65209 -2.67142 0
M  V30 8785 H 795.531 0.956106 -4.94848 0
M  V30 8786 H 795.133 -0.277029 -3.72973 0
M  V30 8787 H 797.425 0.736072 -6.7349 0
M  V30 8788 H 798.368 -0.757206 -7.0404 0
M  V30 8789 H 798.776 0.275706 -5.63826 0
M  V30 8790 N 798.174 1.49689 -0.493057 0
M  V30 8791 C 799.124 2.25901 0.308682 0
M  V30 8792 C 800.108 1.30408 0.94247 0
M  V30 8793 O 801.3 1.55179 0.851384 0
M  V30 8794 C 798.429 3.14463 1.37725 0
M  V30 8795 C 797.515 4.17414 0.7501 0
M  V30 8796 N 797.906 5.05599 -0.142597 0
M  V30 8797 C 796.204 4.34377 1.01159 0
M  V30 8798 C 796.905 5.7954 -0.500782 0
M  V30 8799 N 795.881 5.43446 0.129386 0
M  V30 8800 H 799.683 2.91451 -0.378652 0
M  V30 8801 H 797.197 1.59441 -0.308614 0
M  V30 8802 H 799.194 3.67687 1.965 0
M  V30 8803 H 797.854 2.50464 2.06635 0
M  V30 8804 H 798.865 5.15354 -0.512894 0
M  V30 8805 H 795.542 3.81588 1.69402 0
M  V30 8806 H 796.932 6.60534 -1.23063 0
M  V30 8807 N 799.652 0.226554 1.55963 0
M  V30 8808 C 800.582 -0.676079 2.23498 0
M  V30 8809 C 801.563 -1.19718 1.20837 0
M  V30 8810 O 802.748 -1.24027 1.49436 0
M  V30 8811 C 799.878 -1.88217 2.91876 0
M  V30 8812 C 798.832 -1.4947 4.01052 0
M  V30 8813 C 798.158 -2.77997 4.56751 0
M  V30 8814 C 799.458 -0.680951 5.17842 0
M  V30 8815 H 801.152 -0.112989 2.99187 0
M  V30 8816 H 798.698 -0.0529046 1.43903 0
M  V30 8817 H 800.651 -2.51911 3.37815 0
M  V30 8818 H 799.375 -2.47031 2.13643 0
M  V30 8819 H 798.034 -0.881199 3.55852 0
M  V30 8820 H 797.682 -3.34966 3.75243 0
M  V30 8821 H 797.382 -2.52803 5.30438 0
M  V30 8822 H 798.906 -3.42625 5.05411 0
M  V30 8823 H 800.32 -1.22171 5.60131 0
M  V30 8824 H 798.717 -0.525898 5.97791 0
M  V30 8825 H 799.787 0.311346 4.83899 0
M  V30 8826 N 801.13 -1.57531 -0.0467866 0
M  V30 8827 C 802.078 -2.06455 -1.0714 0
M  V30 8828 C 803.072 -0.974744 -1.38546 0
M  V30 8829 O 804.278 -1.15974 -1.37659 0
M  V30 8830 H 800.653 -0.658607 -0.362962 0
M  V30 8831 H 802.624 -2.91613 -0.632813 0
M  V30 8832 C 801.373 -2.54481 -2.36927 0
M  V30 8833 H 800.696 -3.37946 -2.13617 0
M  V30 8834 H 802.136 -2.92442 -3.07007 0
M  V30 8835 C 800.595 -1.43836 -3.04652 0
M  V30 8836 O 801.125 -0.794531 -3.93764 0
M  V30 8837 N 799.331 -1.17727 -2.65686 0
M  V30 8838 H 798.878 -1.70265 -1.93307 0
M  V30 8839 H 798.836 -0.439051 -3.11319 0
M  V30 8840 N 802.608 0.318715 -1.54344 0
M  V30 8841 C 803.555 1.39242 -1.84066 0
M  V30 8842 C 804.525 1.51175 -0.688134 0
M  V30 8843 O 805.71 1.66318 -0.935039 0
M  V30 8844 C 802.85 2.75528 -2.07794 0
M  V30 8845 C 801.963 2.72187 -3.35467 0
M  V30 8846 C 801.098 4.00352 -3.4913 0
M  V30 8847 C 800.137 3.91338 -4.7066 0
M  V30 8848 N 799.274 5.11242 -4.81224 0
M  V30 8849 H 804.114 1.13196 -2.75664 0
M  V30 8850 H 801.651 0.547857 -1.36517 0
M  V30 8851 H 803.609 3.54763 -2.19543 0
M  V30 8852 H 802.239 2.99873 -1.19482 0
M  V30 8853 H 801.291 1.84917 -3.3243 0
M  V30 8854 H 802.603 2.61411 -4.24812 0
M  V30 8855 H 801.757 4.88019 -3.60448 0
M  V30 8856 H 800.496 4.1394 -2.57886 0
M  V30 8857 H 799.501 3.02055 -4.59394 0
M  V30 8858 H 800.726 3.7931 -5.63294 0
M  V30 8859 H 798.672 5.25327 -3.92897 0
M  V30 8860 H 798.589 5.0282 -5.64543 0
M  V30 8861 H 799.857 6.0061 -4.96879 0
M  V30 8862 N 804.086 1.46499 0.581025 0
M  V30 8863 C 804.996 1.59778 1.71779 0
M  V30 8864 C 806.012 0.481223 1.67213 0
M  V30 8865 O 807.188 0.74557 1.87091 0
M  V30 8866 C 804.253 1.58626 3.08283 0
M  V30 8867 C 803.314 2.81527 3.241 0
M  V30 8868 C 802.547 2.80421 4.54092 0
M  V30 8869 O 802.77 1.89262 5.38085 0
M  V30 8870 O 801.704 3.71984 4.73193 0
M  V30 8871 H 805.53 2.55918 1.63523 0
M  V30 8872 H 803.115 1.29311 0.748267 0
M  V30 8873 H 804.997 1.60686 3.89561 0
M  V30 8874 H 803.672 0.656467 3.16973 0
M  V30 8875 H 802.579 2.85021 2.42309 0
M  V30 8876 H 803.912 3.73721 3.20302 0
M  V30 8877 N 805.565 -0.825799 1.34232 0
M  V30 8878 C 806.814 -1.57686 1.2577 0
M  V30 8879 C 807.127 -1.94848 -0.171372 0
M  V30 8880 O 808.333 -2.68854 -0.378123 0
M  V30 8881 C 806.789 -2.84478 2.20454 0
M  V30 8882 C 806.397 -2.54629 3.68603 0
M  V30 8883 C 808.141 -3.625 2.20893 0
M  V30 8884 C 806.048 -3.77597 4.55164 0
M  V30 8885 H 804.978 -0.591809 0.467203 0
M  V30 8886 H 807.629 -0.909421 1.59379 0
M  V30 8887 H 806.011 -3.52832 1.79793 0
M  V30 8888 H 807.185 -1.94404 4.17784 0
M  V30 8889 H 805.5 -1.89888 3.70582 0
M  V30 8890 H 808.097 -4.538 2.82789 0
M  V30 8891 H 808.44 -3.98404 1.20746 0
M  V30 8892 H 808.973 -3.01086 2.59985 0
M  V30 8893 H 805.712 -3.46815 5.56237 0
M  V30 8894 H 805.232 -4.37116 4.10719 0
M  V30 8895 H 806.911 -4.45039 4.69627 0
M  V30 8896 N 807.043 -1.17915 -1.04565 0
M  V30 8897 C 807.973 -0.925033 -2.14395 0
M  V30 8898 C 808.954 0.135375 -1.6956 0
M  V30 8899 O 810.139 -0.0161774 -1.94193 0
M  V30 8900 C 807.269 -0.444469 -3.44444 0
M  V30 8901 C 806.223 -1.44478 -4.02877 0
M  V30 8902 C 805.549 -0.821933 -5.28345 0
M  V30 8903 C 806.849 -2.81995 -4.39632 0
M  V30 8904 H 808.543 -1.84354 -2.35911 0
M  V30 8905 H 806.089 -0.887806 -1.13375 0
M  V30 8906 H 808.042 -0.254078 -4.20633 0
M  V30 8907 H 806.766 0.509592 -3.226 0
M  V30 8908 H 805.425 -1.62203 -3.28764 0
M  V30 8909 H 805.073 0.139161 -5.02807 0
M  V30 8910 H 804.773 -1.48976 -5.68401 0
M  V30 8911 H 806.297 -0.641959 -6.07216 0
M  V30 8912 H 807.711 -2.67952 -5.06828 0
M  V30 8913 H 806.108 -3.45414 -4.90723 0
M  V30 8914 H 807.178 -3.35927 -3.49687 0
M  V30 8915 N 808.521 1.23394 -0.980386 0
M  V30 8916 C 809.453 2.24146 -0.478657 0
M  V30 8917 C 810.466 1.57303 0.419492 0
M  V30 8918 O 811.655 1.77094 0.223631 0
M  V30 8919 C 808.755 3.3732 0.326913 0
M  V30 8920 C 807.928 4.33744 -0.56436 0
M  V30 8921 C 806.987 5.25866 0.187358 0
M  V30 8922 O 806.013 5.67626 -0.423019 0
M  V30 8923 N 807.215 5.61492 1.47335 0
M  V30 8924 H 809.98 2.67826 -1.34496 0
M  V30 8925 H 807.541 1.37566 -0.853653 0
M  V30 8926 H 809.533 3.95926 0.838148 0
M  V30 8927 H 808.103 2.92823 1.09422 0
M  V30 8928 H 807.323 3.73641 -1.25642 0
M  V30 8929 H 808.611 4.95123 -1.17177 0
M  V30 8930 H 808.009 5.29514 1.99077 0
M  V30 8931 H 806.566 6.2257 1.93002 0
M  V30 8932 N 809.999 0.752036 1.385 0
M  V30 8933 C 810.929 0.138718 2.33088 0
M  V30 8934 C 811.91 -0.705318 1.54788 0
M  V30 8935 O 813.095 -0.646821 1.83112 0
M  V30 8936 C 810.225 -0.75641 3.38963 0
M  V30 8937 C 809.179 -0.0152239 4.27997 0
M  V30 8938 C 808.505 -1.0285 5.24715 0
M  V30 8939 C 809.805 1.15226 5.09431 0
M  V30 8940 H 811.499 0.928852 2.84627 0
M  V30 8941 H 809.045 0.448111 1.3685 0
M  V30 8942 H 810.998 -1.19513 4.04097 0
M  V30 8943 H 809.722 -1.57885 2.85902 0
M  V30 8944 H 808.381 0.404061 3.64366 0
M  V30 8945 H 808.029 -1.84496 4.67943 0
M  V30 8946 H 807.729 -0.537238 5.85139 0
M  V30 8947 H 809.253 -1.46657 5.92726 0
M  V30 8948 H 810.667 0.791161 5.67815 0
M  V30 8949 H 809.064 1.57428 5.79082 0
M  V30 8950 H 810.134 1.9659 4.43261 0
M  V30 8951 N 811.477 -1.49425 0.500989 0
M  V30 8952 C 812.702 -2.07356 -0.0425154 0
M  V30 8953 C 813.127 -1.35887 -1.30063 0
M  V30 8954 O 812.485 -0.41561 -1.76472 0
M  V30 8955 C 812.533 -3.59518 -0.279188 0
M  V30 8956 O 811.637 -3.89542 -1.3539 0
M  V30 8957 H 810.978 -0.663482 0.0262207 0
M  V30 8958 H 813.508 -1.92231 0.700607 0
M  V30 8959 H 813.518 -4.04791 -0.5107 0
M  V30 8960 H 812.193 -4.10946 0.640009 0
M  V30 8961 H 810.77 -3.56079 -1.10734 0
M  V30 8962 N 812.955 -0.234822 -1.55841 0
M  V30 8963 C 813.885 0.664217 -2.23854 0
M  V30 8964 C 814.866 1.19076 -1.2147 0
M  V30 8965 O 816.051 1.23232 -1.50091 0
M  V30 8966 C 813.181 1.86666 -2.9287 0
M  V30 8967 C 812.135 1.47341 -4.01839 0
M  V30 8968 C 811.461 2.75571 -4.58219 0
M  V30 8969 C 812.761 0.653479 -5.18196 0
M  V30 8970 H 814.455 0.0971213 -2.99242 0
M  V30 8971 H 812.001 0.0452724 -1.43929 0
M  V30 8972 H 813.954 2.50116 -3.39146 0
M  V30 8973 H 812.678 2.45894 -2.1495 0
M  V30 8974 H 811.337 0.862314 -3.56314 0
M  V30 8975 H 810.985 3.32971 -3.77014 0
M  V30 8976 H 810.685 2.49987 -5.31771 0
M  V30 8977 H 812.209 3.39939 -5.07221 0
M  V30 8978 H 813.623 1.19198 -5.60771 0
M  V30 8979 H 812.02 0.494188 -5.98062 0
M  V30 8980 H 813.09 -0.337004 -4.83728 0
M  V30 8981 N 814.433 1.57553 0.0384317 0
M  V30 8982 C 815.68 1.88841 0.731116 0
M  V30 8983 C 816.008 0.83093 1.75857 0
M  V30 8984 O 815.263 -0.169248 1.94967 0
M  V30 8985 C 815.562 3.26862 1.44554 0
M  V30 8986 C 815.228 4.47472 0.554946 0
M  V30 8987 C 813.89 4.80203 0.309621 0
M  V30 8988 C 816.242 5.21165 -0.0605204 0
M  V30 8989 C 813.57 5.8402 -0.560101 0
M  V30 8990 C 815.922 6.25905 -0.91789 0
M  V30 8991 C 814.586 6.57117 -1.17277 0
M  V30 8992 H 813.856 0.691018 0.267534 0
M  V30 8993 H 816.503 1.91498 -0.00883195 0
M  V30 8994 H 814.808 3.2015 2.25856 0
M  V30 8995 H 816.505 3.48316 1.98688 0
M  V30 8996 H 813.095 4.21874 0.756304 0
M  V30 8997 H 817.279 4.96164 0.116064 0
M  V30 8998 H 812.535 6.06583 -0.765974 0
M  V30 8999 H 816.709 6.82155 -1.40136 0
M  V30 9000 H 814.336 7.37385 -1.84843 0
M  V30 9001 N 815.911 -0.310526 1.54511 0
M  V30 9002 C 816.821 -1.4054 1.87844 0
M  V30 9003 C 817.837 -1.55954 0.771635 0
M  V30 9004 O 819.013 -1.70801 1.06719 0
M  V30 9005 C 816.078 -2.75063 2.11048 0
M  V30 9006 C 815.139 -2.68715 3.348 0
M  V30 9007 C 814.372 -3.96821 3.56887 0
M  V30 9008 O 814.595 -4.95721 2.82165 0
M  V30 9009 O 813.529 -3.99291 4.50389 0
M  V30 9010 H 817.355 -1.15275 2.80972 0
M  V30 9011 H 814.94 -0.505732 1.4058 0
M  V30 9012 H 816.822 -3.54671 2.27566 0
M  V30 9013 H 815.497 -3.00191 1.21108 0
M  V30 9014 H 814.404 -1.87611 3.23655 0
M  V30 9015 H 815.737 -2.4854 4.2484 0
M  V30 9016 N 817.389 -1.46805 -0.573248 0
M  V30 9017 C 818.629 -1.5417 -1.34205 0
M  V30 9018 C 818.993 -0.192675 -1.91031 0
M  V30 9019 O 820.194 -0.141111 -2.68429 0
M  V30 9020 C 818.465 -2.61682 -2.43428 0
M  V30 9021 S 820.024 -2.88519 -3.30609 0
M  V30 9022 H 816.842 -0.544592 -0.4571 0
M  V30 9023 H 819.444 -1.84094 -0.658001 0
M  V30 9024 H 818.148 -3.58319 -2.00088 0
M  V30 9025 H 817.679 -2.33521 -3.16594 0
M  V30 9026 H 819.694 -2.2451 -4.42504 0
M  V30 9027 N 818.867 0.818669 -1.34668 0
M  V30 9028 C 819.83 1.9114 -1.26483 0
M  V30 9029 C 820.83 1.598 -0.179044 0
M  V30 9030 O 822.02 1.6876 -0.431952 0
M  V30 9031 C 819.152 3.27285 -0.95381 0
M  V30 9032 H 820.345 1.9982 -2.23634 0
M  V30 9033 H 817.898 1.01314 -1.19018 0
M  V30 9034 H 818.633 3.24297 0.0143428 0
M  V30 9035 H 818.418 3.51416 -1.73924 0
M  V30 9036 H 819.908 4.07299 -0.921827 0
M  V30 9037 N 820.346 1.18468 1.03938 0
M  V30 9038 C 821.571 1.00638 1.81347 0
M  V30 9039 C 821.996 -0.440477 1.8287 0
M  V30 9040 O 821.354 -1.31609 1.24695 0
M  V30 9041 C 821.402 1.5673 3.24759 0
M  V30 9042 O 820.506 0.789517 4.04772 0
M  V30 9043 H 819.847 0.356432 0.560225 0
M  V30 9044 H 822.377 1.57253 1.30891 0
M  V30 9045 H 822.387 1.59496 3.75533 0
M  V30 9046 H 821.062 2.62043 3.22965 0
M  V30 9047 H 819.639 0.834267 3.63448 0
M  V30 9048 N 821.824 -1.22873 0.986916 0
M  V30 9049 C 823.24 -1.43594 0.696633 0
M  V30 9050 C 823.44 -1.87622 -0.734869 0
M  V30 9051 O 822.496 -2.02633 -1.50652 0
M  V30 9052 C 823.809 -2.48231 1.69711 0
M  V30 9053 C 825.357 -2.62037 1.71188 0
M  V30 9054 C 825.832 -3.6989 2.70084 0
M  V30 9055 N 827.323 -3.77341 2.68641 0
M  V30 9056 C 828.058 -4.6037 3.41829 0
M  V30 9057 N 827.554 -5.47438 4.24598 0
M  V30 9058 N 829.347 -4.54626 3.30563 0
M  V30 9059 H 821.498 -0.925982 1.91153 0
M  V30 9060 H 823.761 -0.46866 0.824052 0
M  V30 9061 H 823.467 -2.22812 2.72117 0
M  V30 9062 H 823.341 -3.46731 1.48516 0
M  V30 9063 H 825.728 -2.86803 0.694837 0
M  V30 9064 H 825.809 -1.63831 1.96451 0
M  V30 9065 H 825.453 -3.45872 3.71934 0
M  V30 9066 H 825.383 -4.67652 2.42093 0
M  V30 9067 H 827.874 -3.15124 2.08578 0
M  V30 9068 H 828.187 -6.078 4.77283 0
M  V30 9069 H 826.532 -5.4704 4.28687 0
M  V30 9070 H 829.723 -3.85627 2.65347 0
M  V30 9071 H 829.896 -5.19103 3.8786 0
M  V30 9072 N 823.302 -0.75937 -1.38099 0
M  V30 9073 C 824.55 -0.317485 -1.99591 0
M  V30 9074 C 824.871 1.10628 -1.60581 0
M  V30 9075 O 824.141 1.7575 -0.865378 0
M  V30 9076 H 822.721 -0.114397 -0.738189 0
M  V30 9077 H 825.383 -0.974749 -1.68774 0
M  V30 9078 H 824.479 -0.385227 -3.09713 0
M  V30 9079 N 824.78 1.49157 -0.508906 0
M  V30 9080 C 826.02 2.04376 0.0310623 0
M  V30 9081 C 826.384 1.37946 1.33547 0
M  V30 9082 O 827.585 1.83931 1.96017 0
M  V30 9083 C 825.856 3.56985 0.172191 0
M  V30 9084 S 827.415 4.33728 0.665267 0
M  V30 9085 H 824.233 0.710997 -0.00199266 0
M  V30 9086 H 826.835 1.83119 -0.684674 0
M  V30 9087 H 825.539 4.02874 -0.78234 0
M  V30 9088 H 825.07 3.82661 0.912933 0
M  V30 9089 H 827.085 4.56992 1.9332 0
M  V30 9090 N 826.258 0.243083 1.55714 0
M  V30 9091 C 827.188 -0.652336 2.24203 0
M  V30 9092 C 828.169 -1.1843 1.221 0
M  V30 9093 O 829.354 -1.22435 1.50743 0
M  V30 9094 C 826.484 -1.85111 2.93856 0
M  V30 9095 C 825.438 -1.45208 4.02615 0
M  V30 9096 C 824.764 -2.73137 4.59674 0
M  V30 9097 C 826.064 -0.625988 5.18535 0
M  V30 9098 H 827.758 -0.0812504 2.9929 0
M  V30 9099 H 825.304 -0.0376388 1.43951 0
M  V30 9100 H 827.257 -2.48314 3.40468 0
M  V30 9101 H 825.981 -2.44751 2.16251 0
M  V30 9102 H 824.64 -0.843406 3.56766 0
M  V30 9103 H 824.288 -3.30967 3.78774 0
M  V30 9104 H 823.988 -2.47163 5.33089 0
M  V30 9105 H 825.512 -3.37245 5.09017 0
M  V30 9106 H 826.926 -1.16223 5.61396 0
M  V30 9107 H 825.323 -0.462465 5.98315 0
M  V30 9108 H 826.393 0.362652 4.83542 0
M  V30 9109 N 827.736 -1.57571 -0.0300757 0
M  V30 9110 C 829.152 -1.54869 -0.385703 0
M  V30 9111 C 829.352 -0.969068 -1.76667 0
M  V30 9112 O 828.408 -0.589676 -2.45518 0
M  V30 9113 C 829.721 -2.99313 -0.288482 0
M  V30 9114 C 831.269 -3.10857 -0.365638 0
M  V30 9115 C 831.744 -4.5703 -0.297878 0
M  V30 9116 N 833.235 -4.61825 -0.356703 0
M  V30 9117 C 833.97 -5.72466 -0.327146 0
M  V30 9118 N 833.466 -6.92349 -0.249941 0
M  V30 9119 N 835.259 -5.60836 -0.376801 0
M  V30 9120 H 827.41 -1.936 0.87367 0
M  V30 9121 H 829.673 -0.887924 0.332106 0
M  V30 9122 H 829.379 -3.45443 0.66047 0
M  V30 9123 H 829.253 -3.61332 -1.08253 0
M  V30 9124 H 831.64 -2.64676 -1.30502 0
M  V30 9125 H 831.721 -2.51671 0.457744 0
M  V30 9126 H 831.365 -5.03879 0.637835 0
M  V30 9127 H 831.295 -5.14127 -1.13935 0
M  V30 9128 H 833.786 -3.75571 -0.418926 0
M  V30 9129 H 834.099 -7.7245 -0.23246 0
M  V30 9130 H 832.444 -6.94664 -0.216004 0
M  V30 9131 H 835.635 -4.66073 -0.435101 0
M  V30 9132 H 835.808 -6.47052 -0.350298 0
M  V30 9133 N 829.214 0.302327 -1.54673 0
M  V30 9134 C 830.439 1.06103 -1.78205 0
M  V30 9135 C 830.864 1.80204 -0.53926 0
M  V30 9136 O 830.222 1.73975 0.510142 0
M  V30 9137 C 830.27 2.01829 -2.98827 0
M  V30 9138 O 829.374 3.10108 -2.71858 0
M  V30 9139 H 828.715 0.30487 -0.589873 0
M  V30 9140 H 831.245 0.340153 -2.01753 0
M  V30 9141 H 831.255 2.44319 -3.2676 0
M  V30 9142 H 829.93 1.473 -3.88942 0
M  V30 9143 H 828.507 2.72142 -2.54937 0
M  V30 9144 N 830.692 1.47107 0.565454 0
M  V30 9145 C 831.622 1.61846 1.68309 0
M  V30 9146 C 832.603 0.468159 1.63531 0
M  V30 9147 O 833.788 0.696504 1.8128 0
M  V30 9148 C 830.918 1.62474 3.06952 0
M  V30 9149 C 829.872 2.76649 3.26572 0
M  V30 9150 C 829.198 2.62345 4.65917 0
M  V30 9151 C 830.498 4.18319 3.12741 0
M  V30 9152 H 832.192 2.55407 1.5623 0
M  V30 9153 H 829.738 1.22916 0.750179 0
M  V30 9154 H 831.691 1.71378 3.84977 0
M  V30 9155 H 830.415 0.654692 3.19971 0
M  V30 9156 H 829.074 2.67242 2.50952 0
M  V30 9157 H 828.722 1.63386 4.75725 0
M  V30 9158 H 828.422 3.38936 4.79996 0
M  V30 9159 H 829.946 2.73165 5.46089 0
M  V30 9160 H 831.36 4.28745 3.80593 0
M  V30 9161 H 829.757 4.95632 3.38333 0
M  V30 9162 H 830.827 4.37263 2.09592 0
M  V30 9163 N 832.17 -0.811516 1.35101 0
M  V30 9164 C 833.395 -1.60499 1.31358 0
M  V30 9165 C 833.82 -1.87793 -0.107383 0
M  V30 9166 O 833.178 -1.46161 -1.07268 0
M  V30 9167 C 833.226 -2.91612 2.12119 0
M  V30 9168 O 832.33 -3.84211 1.49853 0
M  V30 9169 H 831.671 -0.487702 0.450603 0
M  V30 9170 H 834.201 -1.00758 1.7807 0
M  V30 9171 H 834.211 -3.4108 2.23894 0
M  V30 9172 H 832.886 -2.71071 3.15426 0
M  V30 9173 H 831.463 -3.42751 1.46889 0
M  V30 9174 N 833.648 -1.19017 -1.03309 0
M  V30 9175 C 834.578 -0.94772 -2.13402 0
M  V30 9176 C 835.559 0.117383 -1.69694 0
M  V30 9177 O 836.744 -0.0367733 -1.94165 0
M  V30 9178 C 833.874 -0.480977 -3.43953 0
M  V30 9179 C 832.828 -1.48743 -4.01322 0
M  V30 9180 C 832.154 -0.877924 -5.27443 0
M  V30 9181 C 833.454 -2.86642 -4.36616 0
M  V30 9182 H 835.148 -1.86846 -2.33942 0
M  V30 9183 H 832.694 -0.899781 -1.12427 0
M  V30 9184 H 834.647 -0.298677 -4.2034 0
M  V30 9185 H 833.371 0.475348 -3.23122 0
M  V30 9186 H 832.03 -1.65681 -3.27025 0
M  V30 9187 H 831.678 0.0858232 -5.02927 0
M  V30 9188 H 831.378 -1.54996 -5.66789 0
M  V30 9189 H 832.902 -0.706326 -6.06501 0
M  V30 9190 H 834.316 -2.73312 -5.03958 0
M  V30 9191 H 832.713 -3.50599 -4.87032 0
M  V30 9192 H 833.783 -3.39617 -3.46105 0
M  V30 9193 N 835.127 1.22348 -0.993418 0
M  V30 9194 C 836.077 2.221 -0.515333 0
M  V30 9195 C 837.061 1.55409 0.416762 0
M  V30 9196 O 838.253 1.75317 0.243497 0
M  V30 9197 C 835.382 3.42888 0.168173 0
M  V30 9198 C 834.468 4.16786 -0.784257 0
M  V30 9199 N 834.859 4.67435 -1.93231 0
M  V30 9200 C 833.157 4.41942 -0.600243 0
M  V30 9201 C 833.858 5.23792 -2.53016 0
M  V30 9202 N 832.834 5.12483 -1.8128 0
M  V30 9203 H 836.636 2.58902 -1.39093 0
M  V30 9204 H 834.15 1.38024 -0.855747 0
M  V30 9205 H 836.147 4.13542 0.528069 0
M  V30 9206 H 834.807 3.07598 1.03989 0
M  V30 9207 H 835.818 4.63375 -2.31309 0
M  V30 9208 H 832.495 4.16891 0.225369 0
M  V30 9209 H 833.885 5.73515 -3.50043 0
M  V30 9210 N 836.605 0.766683 1.37694 0
M  V30 9211 C 837.854 0.325425 1.99057 0
M  V30 9212 C 838.167 -1.10275 1.61551 0
M  V30 9213 O 839.373 -1.64513 2.1598 0
M  V30 9214 C 837.829 0.530886 3.55963 0
M  V30 9215 C 837.437 1.96899 4.02411 0
M  V30 9216 C 839.181 0.152997 4.24224 0
M  V30 9217 C 837.088 2.12232 5.52007 0
M  V30 9218 H 836.018 0.117929 0.744721 0
M  V30 9219 H 838.669 0.945091 1.5729 0
M  V30 9220 H 837.051 -0.158162 3.95684 0
M  V30 9221 H 838.225 2.69258 3.73948 0
M  V30 9222 H 836.54 2.303 3.46916 0
M  V30 9223 H 839.137 0.24614 5.34133 0
M  V30 9224 H 839.48 -0.896096 4.06541 0
M  V30 9225 H 840.013 0.794398 3.89787 0
M  V30 9226 H 836.752 3.15442 5.7461 0
M  V30 9227 H 836.272 1.4435 5.82171 0
M  V30 9228 H 837.951 1.9185 6.17902 0
M  V30 9229 N 838.083 -1.48885 0.516809 0
M  V30 9230 C 839.03 -2.29408 -0.253125 0
M  V30 9231 C 840 -1.36533 -0.945935 0
M  V30 9232 O 841.185 -1.65495 -0.949527 0
M  V30 9233 C 838.325 -3.19592 -1.30211 0
M  V30 9234 C 837.438 -4.27535 -0.61948 0
M  V30 9235 C 836.573 -5.04916 -1.65026 0
M  V30 9236 C 835.612 -6.04677 -0.950368 0
M  V30 9237 N 834.749 -6.75164 -1.92608 0
M  V30 9238 H 839.589 -2.94738 0.439744 0
M  V30 9239 H 837.126 -1.45311 0.2287 0
M  V30 9240 H 839.084 -3.70267 -1.92245 0
M  V30 9241 H 837.714 -2.56213 -1.96353 0
M  V30 9242 H 836.766 -3.80228 0.114505 0
M  V30 9243 H 838.078 -4.98752 -0.0693016 0
M  V30 9244 H 837.232 -5.59539 -2.34523 0
M  V30 9245 H 835.971 -4.33508 -2.23432 0
M  V30 9246 H 834.976 -5.4927 -0.241252 0
M  V30 9247 H 836.201 -6.78077 -0.372599 0
M  V30 9248 H 834.147 -6.06517 -2.49946 0
M  V30 9249 H 834.064 -7.4241 -1.42699 0
M  V30 9250 H 835.332 -7.34384 -2.61345 0
M  V30 9251 N 839.561 -0.251338 -1.55583 0
M  V30 9252 C 840.789 0.376187 -2.03451 0
M  V30 9253 C 841.204 1.51215 -1.13047 0
M  V30 9254 O 840.561 1.81917 -0.145769 0
M  V30 9255 C 840.612 0.879779 -3.50631 0
M  V30 9256 O 840.333 -0.210917 -4.37592 0
M  V30 9257 C 841.834 1.57754 -4.14281 0
M  V30 9258 H 839.054 0.0888722 -0.665089 0
M  V30 9259 H 841.598 -0.376497 -2.01004 0
M  V30 9260 H 839.753 1.58263 -3.53598 0
M  V30 9261 H 840.167 0.172203 -5.24217 0
M  V30 9262 H 841.641 1.88158 -5.18942 0
M  V30 9263 H 842.118 2.50103 -3.61034 0
M  V30 9264 H 842.724 0.919154 -4.15249 0
M  V30 9265 N 841.039 1.57585 0.0217189 0
M  V30 9266 C 842.264 1.94267 0.726309 0
M  V30 9267 C 842.689 0.851904 1.67703 0
M  V30 9268 O 842.047 -0.191792 1.80283 0
M  V30 9269 C 842.095 3.30023 1.45318 0
M  V30 9270 O 841.199 3.22791 2.5667 0
M  V30 9271 H 840.54 0.634777 0.194818 0
M  V30 9272 H 843.07 2.04585 -0.0249985 0
M  V30 9273 H 843.08 3.65084 1.82147 0
M  V30 9274 H 841.755 4.08972 0.755962 0
M  V30 9275 H 840.332 2.99373 2.2233 0
M  V30 9276 N 842.517 -0.29412 1.54831 0
M  V30 9277 C 843.764 -1.02846 1.74439 0
M  V30 9278 C 844.092 -1.87029 0.533905 0
M  V30 9279 O 843.347 -1.8962 -0.484035 0
M  V30 9280 C 843.646 -1.95782 2.99006 0
M  V30 9281 C 843.312 -1.2752 4.32492 0
M  V30 9282 C 841.974 -1.08637 4.68777 0
M  V30 9283 C 844.326 -0.787761 5.15212 0
M  V30 9284 C 841.654 -0.39704 5.85355 0
M  V30 9285 C 844.006 -0.112123 6.32501 0
M  V30 9286 C 842.67 0.0886071 6.67441 0
M  V30 9287 H 841.94 -0.376341 0.638317 0
M  V30 9288 H 844.587 -0.302684 1.89093 0
M  V30 9289 H 842.892 -2.74911 2.79162 0
M  V30 9290 H 844.589 -2.52684 3.11371 0
M  V30 9291 H 841.179 -1.43226 4.03961 0
M  V30 9292 H 845.363 -0.921341 4.87673 0
M  V30 9293 H 840.619 -0.230597 6.10965 0
M  V30 9294 H 844.793 0.27344 6.95863 0
M  V30 9295 H 842.42 0.624748 7.57628 0
M  V30 9296 N 843.995 -1.47404 -0.557645 0
M  V30 9297 C 845.235 -1.55585 -1.32562 0
M  V30 9298 C 845.599 -0.212926 -1.90816 0
M  V30 9299 O 846.8 -0.169574 -2.68265 0
M  V30 9300 C 845.071 -2.64249 -2.40639 0
M  V30 9301 S 846.63 -2.9201 -3.2753 0
M  V30 9302 H 843.448 -0.549409 -0.451298 0
M  V30 9303 H 846.05 -1.84782 -0.638438 0
M  V30 9304 H 844.754 -3.60421 -1.96277 0
M  V30 9305 H 844.285 -2.36866 -3.14099 0
M  V30 9306 H 846.3 -2.29191 -4.40098 0
M  V30 9307 N 845.473 0.80434 -1.35529 0
M  V30 9308 C 846.436 1.89788 -1.28503 0
M  V30 9309 C 847.436 1.59601 -0.195983 0
M  V30 9310 O 848.626 1.68292 -0.449827 0
M  V30 9311 C 845.758 3.26255 -0.98847 0
M  V30 9312 H 846.951 1.97436 -2.25741 0
M  V30 9313 H 844.504 1.00046 -1.20086 0
M  V30 9314 H 845.239 3.24294 -0.0200541 0
M  V30 9315 H 845.024 3.49551 -1.77641 0
M  V30 9316 H 846.514 4.06298 -0.964975 0
M  V30 9317 N 846.951 1.19563 1.02676 0
M  V30 9318 C 848.362 1.00158 1.57561 0
M  V30 9319 C 848.713 -0.444922 1.91089 0
M  V30 9320 O 847.838 -1.32466 1.71119 0
M  V30 9321 C 848.433 1.81181 2.86284 0
M  V30 9322 C 846.992 1.66171 3.37734 0
M  V30 9323 C 846.139 1.7975 2.11152 0
M  V30 9324 H 849.09 1.33904 0.85179 0
M  V30 9325 H 849.111 1.30916 3.57269 0
M  V30 9326 H 848.623 2.86454 2.6185 0
M  V30 9327 H 846.724 0.634927 3.6715 0
M  V30 9328 H 846.837 2.46832 4.10622 0
M  V30 9329 H 845.201 1.22833 2.23123 0
M  V30 9330 H 845.984 2.86487 1.89157 0
M  V30 9331 N 848.429 -1.21819 0.999893 0
M  V30 9332 C 849.677 -1.90375 0.678351 0
M  V30 9333 C 849.998 -1.78155 -0.792824 0
M  V30 9334 O 849.268 -1.17319 -1.56885 0
M  V30 9335 H 847.848 -0.704661 0.247915 0
M  V30 9336 H 850.51 -1.48021 1.2679 0
M  V30 9337 H 849.606 -2.97385 0.947023 0
M  V30 9338 N 849.908 -0.773975 -1.37286 0
M  V30 9339 C 850.818 -0.162571 -2.34036 0
M  V30 9340 C 851.834 0.677022 -1.60289 0
M  V30 9341 O 853.01 0.596423 -1.92366 0
M  V30 9342 C 850.075 0.70457 -3.39465 0
M  V30 9343 C 849.136 -0.151738 -4.29032 0
M  V30 9344 C 848.369 0.674111 -5.29426 0
M  V30 9345 O 848.592 1.91107 -5.37433 0
M  V30 9346 O 847.526 0.0821398 -6.01844 0
M  V30 9347 H 851.352 -0.962119 -2.88057 0
M  V30 9348 H 848.937 -0.53517 -1.39486 0
M  V30 9349 H 850.819 1.19954 -4.03967 0
M  V30 9350 H 849.494 1.48227 -2.87768 0
M  V30 9351 H 848.401 -0.693118 -3.67623 0
M  V30 9352 H 849.734 -0.892575 -4.84039 0
M  V30 9353 N 851.386 1.48609 -0.524698 0
M  V30 9354 C 852.616 2.06599 0.00741868 0
M  V30 9355 C 853.024 1.3823 1.29186 0
M  V30 9356 O 852.367 0.461962 1.77797 0
M  V30 9357 C 852.429 3.58184 0.307324 0
M  V30 9358 C 852.093 4.48391 -0.882864 0
M  V30 9359 C 853.09 4.88485 -1.77984 0
M  V30 9360 C 850.775 4.90367 -1.08837 0
M  V30 9361 C 852.769 5.69319 -2.86627 0
M  V30 9362 C 850.456 5.70972 -2.17794 0
M  V30 9363 C 851.454 6.10355 -3.06523 0
M  V30 9364 O 851.142 6.89343 -4.13596 0
M  V30 9365 H 850.874 0.675421 -0.0279846 0
M  V30 9366 H 853.428 1.92058 -0.7282 0
M  V30 9367 H 851.658 3.70818 1.09685 0
M  V30 9368 H 853.347 3.98318 0.780886 0
M  V30 9369 H 854.113 4.56682 -1.63299 0
M  V30 9370 H 849.992 4.592 -0.407035 0
M  V30 9371 H 853.536 5.99978 -3.55911 0
M  V30 9372 H 849.433 6.02188 -2.32465 0
M  V30 9373 H 850.201 7.07689 -4.1124 0
M  V30 9374 N 852.864 0.259585 1.55447 0
M  V30 9375 C 853.794 -0.62852 2.24882 0
M  V30 9376 C 854.775 -1.17128 1.23349 0
M  V30 9377 O 855.96 -1.20829 1.52033 0
M  V30 9378 C 853.09 -1.81983 2.95803 0
M  V30 9379 C 852.044 -1.40929 4.04132 0
M  V30 9380 C 851.37 -2.68246 4.62545 0
M  V30 9381 C 852.67 -0.570956 5.1917 0
M  V30 9382 H 854.364 -0.0495021 2.99359 0
M  V30 9383 H 851.91 -0.0223688 1.43983 0
M  V30 9384 H 853.863 -2.44689 3.43082 0
M  V30 9385 H 852.587 -2.42444 2.18835 0
M  V30 9386 H 851.246 -0.805519 3.57641 0
M  V30 9387 H 850.894 -3.26931 3.82263 0
M  V30 9388 H 850.594 -2.41495 5.35681 0
M  V30 9389 H 852.118 -3.31827 5.12565 0
M  V30 9390 H 853.532 -1.10262 5.62597 0
M  V30 9391 H 851.929 -0.398979 5.98772 0
M  V30 9392 H 852.999 0.413918 4.8313 0
M  V30 9393 N 854.342 -1.57594 -0.0133615 0
M  V30 9394 C 855.272 -2.10611 -1.00823 0
M  V30 9395 C 856.253 -1.01217 -1.36708 0
M  V30 9396 O 857.438 -1.28827 -1.45318 0
M  V30 9397 C 854.568 -2.59844 -2.30431 0
M  V30 9398 C 853.522 -3.73644 -2.08745 0
M  V30 9399 C 852.848 -4.09141 -3.4425 0
M  V30 9400 C 854.148 -5.01454 -1.46086 0
M  V30 9401 H 855.842 -2.93985 -0.566849 0
M  V30 9402 H 853.388 -1.41423 -0.271219 0
M  V30 9403 H 855.341 -2.95557 -3.00373 0
M  V30 9404 H 854.065 -1.73573 -2.76658 0
M  V30 9405 H 852.724 -3.38303 -1.41232 0
M  V30 9406 H 852.372 -3.19914 -3.88155 0
M  V30 9407 H 852.072 -4.85802 -3.3056 0
M  V30 9408 H 853.596 -4.47402 -4.15528 0
M  V30 9409 H 855.01 -5.35024 -2.05966 0
M  V30 9410 H 853.407 -5.82832 -1.42924 0
M  V30 9411 H 854.477 -4.83003 -0.428471 0
M  V30 9412 N 855.82 0.285905 -1.54985 0
M  V30 9413 C 857.236 0.632405 -1.46536 0
M  V30 9414 C 857.436 1.90074 -0.668888 0
M  V30 9415 O 856.492 2.51839 -0.182586 0
M  V30 9416 C 857.805 0.771361 -2.90638 0
M  V30 9417 C 859.353 0.866262 -3.00774 0
M  V30 9418 C 859.828 1.0371 -4.46103 0
M  V30 9419 N 861.319 1.10294 -4.49877 0
M  V30 9420 C 862.054 1.25369 -5.59527 0
M  V30 9421 N 861.55 1.37246 -6.7907 0
M  V30 9422 N 863.343 1.28377 -5.47244 0
M  V30 9423 H 855.494 -0.547226 -2.0523 0
M  V30 9424 H 857.757 -0.183298 -0.930111 0
M  V30 9425 H 857.463 -0.0899485 -3.51585 0
M  V30 9426 H 857.337 1.65569 -3.3892 0
M  V30 9427 H 859.724 1.71805 -2.39931 0
M  V30 9428 H 859.805 -0.0424049 -2.55765 0
M  V30 9429 H 859.449 0.190021 -5.07544 0
M  V30 9430 H 859.379 1.96022 -4.88757 0
M  V30 9431 H 861.87 1.02407 -3.6376 0
M  V30 9432 H 862.183 1.48546 -7.58389 0
M  V30 9433 H 860.528 1.34274 -6.81906 0
M  V30 9434 H 863.719 1.1872 -4.52795 0
M  V30 9435 H 863.892 1.39782 -6.32744 0
M  V30 9436 N 857.298 1.47698 0.54982 0
M  V30 9437 C 858.23 1.56806 1.67166 0
M  V30 9438 C 859.243 0.453709 1.5635 0
M  V30 9439 O 860.432 0.723663 1.63173 0
M  V30 9440 C 857.532 1.4632 3.05686 0
M  V30 9441 C 856.705 2.72452 3.42182 0
M  V30 9442 C 855.764 2.55698 4.59897 0
M  V30 9443 O 854.79 3.29534 4.64108 0
M  V30 9444 N 855.992 1.64009 5.56849 0
M  V30 9445 H 858.757 2.53545 1.59797 0
M  V30 9446 H 856.318 1.44171 0.736635 0
M  V30 9447 H 858.31 1.32835 3.82279 0
M  V30 9448 H 856.88 0.57634 3.07241 0
M  V30 9449 H 856.1 3.00644 2.54964 0
M  V30 9450 H 857.388 3.56172 3.63344 0
M  V30 9451 H 856.786 1.03186 5.5621 0
M  V30 9452 H 855.343 1.56473 6.3274 0
M  V30 9453 N 858.776 -0.797141 1.35954 0
M  V30 9454 C 860.024 -1.55161 1.29497 0
M  V30 9455 C 860.345 -1.94582 -0.127659 0
M  V30 9456 O 859.615 -1.64343 -1.06622 0
M  V30 9457 H 858.195 -0.575413 0.47635 0
M  V30 9458 H 860.857 -0.950282 1.70164 0
M  V30 9459 H 859.953 -2.46272 1.9172 0
M  V30 9460 N 860.254 -1.20106 -1.0204 0
M  V30 9461 C 861.531 -0.918029 -1.72718 0
M  V30 9462 C 861.911 0.574163 -2.03142 0
M  V30 9463 O 861.259 1.53476 -1.69285 0
M  V30 9464 C 861.469 -1.78698 -2.9978 0
M  V30 9465 C 862.817 -2.02648 -3.7312 0
M  V30 9466 O 863.841 -1.75919 -3.09727 0
M  V30 9467 O 862.7 -2.47767 -4.87107 0
M  V30 9468 H 859.794 -0.342904 -0.752559 0
M  V30 9469 H 862.34 -1.30961 -1.07923 0
M  V30 9470 H 861.112 -2.79757 -2.7359 0
M  V30 9471 H 860.735 -1.39522 -3.72316 0
M  V30 9472 N 861.732 1.21287 -1.00634 0
M  V30 9473 C 862.695 2.21927 -0.572821 0
M  V30 9474 C 863.695 1.5691 0.351541 0
M  V30 9475 O 864.885 1.73623 0.141643 0
M  V30 9476 C 862.017 3.40501 0.164932 0
M  V30 9477 H 863.21 2.61795 -1.463 0
M  V30 9478 H 860.763 1.34571 -0.794998 0
M  V30 9479 H 861.498 3.06123 1.07049 0
M  V30 9480 H 861.283 3.88912 -0.498962 0
M  V30 9481 H 862.773 4.15103 0.455945 0
M  V30 9482 N 863.21 0.781244 1.36873 0
M  V30 9483 C 864.14 0.188128 2.32741 0
M  V30 9484 C 865.121 -0.672326 1.56249 0
M  V30 9485 O 866.306 -0.607835 1.84442 0
M  V30 9486 C 863.436 -0.684341 3.40491 0
M  V30 9487 C 862.39 0.0755641 4.27933 0
M  V30 9488 C 861.716 -0.916968 5.26779 0
M  V30 9489 C 863.016 1.26006 5.06873 0
M  V30 9490 H 864.71 0.989016 2.82593 0
M  V30 9491 H 862.256 0.477038 1.35869 0
M  V30 9492 H 864.209 -1.10915 4.06541 0
M  V30 9493 H 862.933 -1.51785 2.89187 0
M  V30 9494 H 861.592 0.481258 3.63427 0
M  V30 9495 H 861.24 -1.74528 4.71751 0
M  V30 9496 H 860.94 -0.413 5.86147 0
M  V30 9497 H 862.464 -1.34052 5.95703 0
M  V30 9498 H 863.878 0.911425 5.66009 0
M  V30 9499 H 862.275 1.69676 5.75613 0
M  V30 9500 H 863.345 2.05948 4.38991 0
M  V30 9501 N 864.689 -1.48329 0.532571 0
M  V30 9502 C 865.621 -2.27652 -0.265931 0
M  V30 9503 C 866.634 -1.35522 -0.902083 0
M  V30 9504 O 867.823 -1.60552 -0.780088 0
M  V30 9505 C 864.923 -3.0899 -1.39207 0
M  V30 9506 C 864.096 -4.28915 -0.857349 0
M  V30 9507 C 863.155 -4.92044 -1.86493 0
M  V30 9508 O 862.181 -5.51181 -1.42084 0
M  V30 9509 N 863.383 -4.84518 -3.19723 0
M  V30 9510 H 866.148 -2.96821 0.414389 0
M  V30 9511 H 863.709 -1.57684 0.367066 0
M  V30 9512 H 865.701 -3.48091 -2.06433 0
M  V30 9513 H 864.271 -2.42224 -1.97601 0
M  V30 9514 H 863.491 -3.94199 -0.00901765 0
M  V30 9515 H 864.779 -5.0654 -0.479025 0
M  V30 9516 H 864.177 -4.37628 -3.58467 0
M  V30 9517 H 862.734 -5.27712 -3.82575 0
M  V30 9518 N 866.167 -0.267825 -1.55308 0
M  V30 9519 C 867.13 0.60965 -2.20943 0
M  V30 9520 C 868.13 1.0869 -1.18504 0
M  V30 9521 O 869.32 0.988248 -1.43455 0
M  V30 9522 C 866.452 1.84027 -2.86961 0
M  V30 9523 H 867.645 0.0366806 -2.99878 0
M  V30 9524 H 865.198 -0.0183941 -1.56289 0
M  V30 9525 H 865.933 2.45394 -2.1202 0
M  V30 9526 H 865.718 1.50605 -3.62023 0
M  V30 9527 H 867.208 2.46442 -3.37129 0
M  V30 9528 N 867.645 1.57599 0.00500368 0
M  V30 9529 C 868.894 1.89528 0.690061 0
M  V30 9530 C 869.207 0.869451 1.75214 0
M  V30 9531 O 870.413 1.07879 2.49147 0
M  V30 9532 C 868.869 3.36425 1.27852 0
M  V30 9533 C 868.477 4.47293 0.251531 0
M  V30 9534 C 870.221 3.77471 1.94206 0
M  V30 9535 C 868.128 5.85264 0.8497 0
M  V30 9536 H 867.058 0.707201 0.2615 0
M  V30 9537 H 869.709 1.83418 -0.0547209 0
M  V30 9538 H 868.091 3.37356 2.07381 0
M  V30 9539 H 869.265 4.5787 -0.518796 0
M  V30 9540 H 867.58 4.15235 -0.311281 0
M  V30 9541 H 870.177 4.77884 2.39855 0
M  V30 9542 H 870.52 3.10722 2.77051 0
M  V30 9543 H 871.053 3.78817 1.21419 0
M  V30 9544 H 867.792 6.55472 0.0601408 0
M  V30 9545 H 867.312 5.78361 1.5893 0
M  V30 9546 H 868.991 6.32762 1.34984 0
M  V30 9547 N 869.123 -0.277682 1.55134 0
M  V30 9548 C 870.353 -1.02677 1.79279 0
M  V30 9549 C 870.761 -1.80599 0.563962 0
M  V30 9550 O 870.104 -1.77416 -0.476378 0
M  V30 9551 C 870.166 -2.03617 2.96277 0
M  V30 9552 C 869.83 -1.44676 4.33495 0
M  V30 9553 C 870.827 -0.864811 5.12657 0
M  V30 9554 C 868.512 -1.47537 4.80144 0
M  V30 9555 C 870.506 -0.319322 6.366 0
M  V30 9556 C 868.193 -0.926016 6.04043 0
M  V30 9557 C 869.191 -0.348988 6.82108 0
M  V30 9558 O 868.879 0.191964 8.03671 0
M  V30 9559 H 868.611 -0.309232 0.601125 0
M  V30 9560 H 871.165 -0.315308 2.02965 0
M  V30 9561 H 869.395 -2.78509 2.68272 0
M  V30 9562 H 871.084 -2.64616 3.07788 0
M  V30 9563 H 871.85 -0.835438 4.7775 0
M  V30 9564 H 867.729 -1.91389 4.19394 0
M  V30 9565 H 871.273 0.131709 6.97476 0
M  V30 9566 H 867.17 -0.952613 6.38432 0
M  V30 9567 H 867.938 0.0808779 8.1846 0
M  V30 9568 N 870.601 -1.47988 -0.541979 0
M  V30 9569 C 871.848 -1.55393 -1.29843 0
M  V30 9570 C 872.176 -0.222668 -1.93221 0
M  V30 9571 O 871.431 0.785936 -1.79225 0
M  V30 9572 C 871.73 -2.63189 -2.41798 0
M  V30 9573 C 871.396 -4.05999 -1.96151 0
M  V30 9574 C 870.058 -4.44872 -1.83419 0
M  V30 9575 C 872.41 -4.95545 -1.61507 0
M  V30 9576 C 869.738 -5.71108 -1.34361 0
M  V30 9577 C 872.09 -6.22259 -1.13915 0
M  V30 9578 C 870.754 -6.59998 -0.997911 0
M  V30 9579 H 870.024 -0.568623 -0.47513 0
M  V30 9580 H 872.671 -1.81654 -0.606142 0
M  V30 9581 H 870.976 -2.30743 -3.16647 0
M  V30 9582 H 872.673 -2.66138 -2.99953 0
M  V30 9583 H 869.263 -3.75294 -2.07008 0
M  V30 9584 H 873.447 -4.662 -1.70209 0
M  V30 9585 H 868.703 -5.99083 -1.22103 0
M  V30 9586 H 872.877 -6.91048 -0.861755 0
M  V30 9587 H 870.504 -7.57704 -0.615561 0
M  V30 9588 N 872.079 0.78992 -1.36375 0
M  V30 9589 C 873.325 1.55007 -1.3077 0
M  V30 9590 C 873.658 1.93871 0.112979 0
M  V30 9591 O 872.933 1.6267 1.06625 0
M  V30 9592 C 873.216 2.82748 -2.22993 0
M  V30 9593 C 873.069 2.50253 -3.73756 0
M  V30 9594 C 874.388 3.84569 -2.13998 0
M  V30 9595 H 871.507 0.562362 -0.476359 0
M  V30 9596 H 874.149 0.907582 -1.66922 0
M  V30 9597 H 872.299 3.37573 -1.92292 0
M  V30 9598 H 873.971 2.01482 -4.14973 0
M  V30 9599 H 872.214 1.83203 -3.93216 0
M  V30 9600 H 872.885 3.41487 -4.33694 0
M  V30 9601 H 875.361 3.39188 -2.4102 0
M  V30 9602 H 874.237 4.717 -2.80697 0
M  V30 9603 H 874.498 4.27491 -1.12711 0
M  V30 9604 N 873.557 1.20646 1.01402 0
M  V30 9605 C 874.797 1.02951 1.7658 0
M  V30 9606 C 875.161 -0.430522 1.87111 0
M  V30 9607 O 876.362 -0.727727 2.58762 0
M  V30 9608 C 874.633 1.69728 3.14527 0
M  V30 9609 S 876.192 1.6717 4.05709 0
M  V30 9610 H 873.01 0.36911 0.607683 0
M  V30 9611 H 875.612 1.53243 1.21395 0
M  V30 9612 H 874.316 2.75162 3.0449 0
M  V30 9613 H 873.847 1.19578 3.74786 0
M  V30 9614 H 875.862 0.706397 4.91146 0
M  V30 9615 N 875.035 -1.20752 1.01276 0
M  V30 9616 C 876.26 -1.94547 0.718769 0
M  V30 9617 C 876.685 -1.7404 -0.713563 0
M  V30 9618 O 876.043 -1.03221 -1.49047 0
M  V30 9619 C 876.091 -3.44823 1.05497 0
M  V30 9620 O 875.195 -4.12072 0.164516 0
M  V30 9621 H 874.536 -0.607931 0.267051 0
M  V30 9622 H 877.066 -1.53292 1.35509 0
M  V30 9623 H 877.076 -3.95427 1.00507 0
M  V30 9624 H 875.751 -3.59072 2.09858 0
M  V30 9625 H 874.328 -3.71909 0.271615 0
M  V30 9626 N 876.513 -0.788492 -1.36457 0
M  V30 9627 C 877.761 -0.359749 -1.98872 0
M  V30 9628 C 878.082 1.07197 -1.62892 0
M  V30 9629 O 877.352 1.73875 -0.902463 0
M  V30 9630 H 875.932 -0.130029 -0.735596 0
M  V30 9631 H 878.594 -1.01033 -1.66668 0
M  V30 9632 H 877.69 -0.450835 -3.08827 0
M  V30 9633 N 877.991 1.48044 -0.54043 0
M  V30 9634 C 879.216 2.07396 -0.0124765 0
M  V30 9635 C 879.641 1.39288 1.26414 0
M  V30 9636 O 878.999 0.462252 1.75308 0
M  V30 9637 C 879.047 3.60131 0.18377 0
M  V30 9638 O 878.151 3.92995 1.25014 0
M  V30 9639 H 877.492 0.662554 -0.0438026 0
M  V30 9640 H 880.022 1.90306 -0.751327 0
M  V30 9641 H 880.032 4.06003 0.403197 0
M  V30 9642 H 878.707 4.09105 -0.74874 0
M  V30 9643 H 877.284 3.5889 1.01254 0
M  V30 9644 N 879.47 0.276058 1.55163 0
M  V30 9645 C 880.403 -0.652386 2.18676 0
M  V30 9646 C 881.381 -1.15151 1.148 0
M  V30 9647 O 882.565 -1.22431 1.43328 0
M  V30 9648 C 879.692 -1.88982 2.81076 0
M  V30 9649 C 878.738 -1.52609 3.98262 0
M  V30 9650 S 879.571 -0.603445 5.32089 0
M  V30 9651 C 880.727 -1.84923 5.97958 0
M  V30 9652 H 880.96 -0.112733 2.97086 0
M  V30 9653 H 878.493 0.0603118 1.54282 0
M  V30 9654 H 880.451 -2.60007 3.17658 0
M  V30 9655 H 879.112 -2.40061 2.02557 0
M  V30 9656 H 878.305 -2.44689 4.40617 0
M  V30 9657 H 877.907 -0.89601 3.63108 0
M  V30 9658 H 880.199 -2.79303 6.17249 0
M  V30 9659 H 881.142 -1.46868 6.92702 0
M  V30 9660 H 881.55 -2.0146 5.27327 0
M  V30 9661 N 880.948 -1.576 0.00335426 0
M  V30 9662 C 881.858 -2.12067 -1.00322 0
M  V30 9663 C 882.874 -1.06672 -1.37467 0
M  V30 9664 O 884.05 -1.38592 -1.46131 0
M  V30 9665 C 881.115 -2.61593 -2.27531 0
M  V30 9666 C 880.176 -3.81602 -1.96668 0
M  V30 9667 C 879.409 -4.28756 -3.17811 0
M  V30 9668 O 879.632 -3.75222 -4.2961 0
M  V30 9669 O 878.566 -5.20877 -3.01613 0
M  V30 9670 H 882.392 -2.98299 -0.570199 0
M  V30 9671 H 879.977 -1.47835 -0.215682 0
M  V30 9672 H 881.859 -2.93631 -3.02256 0
M  V30 9673 H 880.534 -1.78457 -2.70065 0
M  V30 9674 H 879.441 -3.54531 -1.19408 0
M  V30 9675 H 880.774 -4.65822 -1.58968 0
M  V30 9676 N 882.426 0.269451 -1.5528 0
M  V30 9677 C 883.672 1.00206 -1.76314 0
M  V30 9678 C 884.005 1.85812 -0.564581 0
M  V30 9679 O 883.28 1.89509 0.437769 0
M  V30 9680 C 883.563 1.88163 -3.07029 0
M  V30 9681 C 883.416 1.05527 -4.37246 0
M  V30 9682 C 884.735 2.8681 -3.33808 0
M  V30 9683 H 881.854 0.36288 -0.641473 0
M  V30 9684 H 884.496 0.274188 -1.88011 0
M  V30 9685 H 882.646 2.50224 -2.97187 0
M  V30 9686 H 884.318 0.455094 -4.5905 0
M  V30 9687 H 882.561 0.358842 -4.32313 0
M  V30 9688 H 883.232 1.70397 -5.25042 0
M  V30 9689 H 885.708 2.34884 -3.43466 0
M  V30 9690 H 884.584 3.45492 -4.26528 0
M  V30 9691 H 884.845 3.62118 -2.5362 0
M  V30 9692 N 883.904 1.48273 0.534124 0
M  V30 9693 C 884.834 1.6538 1.64839 0
M  V30 9694 C 885.815 0.502741 1.62501 0
M  V30 9695 O 887 0.734799 1.79762 0
M  V30 9696 C 884.13 1.68949 3.03436 0
M  V30 9697 C 883.084 2.83513 3.20631 0
M  V30 9698 C 882.41 2.72169 4.60248 0
M  V30 9699 C 883.71 4.24858 3.03797 0
M  V30 9700 H 885.404 2.58663 1.50777 0
M  V30 9701 H 882.95 1.24479 0.723937 0
M  V30 9702 H 884.903 1.79505 3.81256 0
M  V30 9703 H 883.627 0.722415 3.1851 0
M  V30 9704 H 882.286 2.72505 2.45227 0
M  V30 9705 H 881.934 1.7344 4.72152 0
M  V30 9706 H 881.634 3.49042 4.72698 0
M  V30 9707 H 883.158 2.84687 5.40172 0
M  V30 9708 H 884.572 4.36721 3.71413 0
M  V30 9709 H 882.969 5.02697 3.27743 0
M  V30 9710 H 884.039 4.41611 2.0027 0
M  V30 9711 N 885.382 -0.782676 1.36792 0
M  V30 9712 C 886.329 -1.89558 1.31667 0
M  V30 9713 C 887.299 -1.65076 0.184147 0
M  V30 9714 O 888.484 -1.87143 0.371753 0
M  V30 9715 C 885.624 -3.26469 1.11858 0
M  V30 9716 C 884.737 -3.62978 2.34245 0
M  V30 9717 C 883.872 -4.89041 2.07394 0
M  V30 9718 C 882.911 -5.18249 3.25706 0
M  V30 9719 N 882.048 -6.35497 2.98476 0
M  V30 9720 H 886.888 -1.93274 2.26824 0
M  V30 9721 H 884.425 -0.945057 1.12726 0
M  V30 9722 H 886.383 -4.05431 0.983968 0
M  V30 9723 H 885.013 -3.22158 0.203531 0
M  V30 9724 H 884.065 -2.79087 2.58485 0
M  V30 9725 H 885.377 -3.80507 3.22514 0
M  V30 9726 H 884.531 -5.75883 1.90901 0
M  V30 9727 H 883.27 -4.73594 1.16446 0
M  V30 9728 H 882.275 -4.29887 3.4275 0
M  V30 9729 H 883.5 -5.35611 4.1749 0
M  V30 9730 H 881.446 -6.21429 2.10146 0
M  V30 9731 H 881.363 -6.5339 3.80286 0
M  V30 9732 H 882.631 -7.25304 2.85577 0
M  V30 9733 N 886.86 -1.21182 -1.00761 0
M  V30 9734 C 888.137 -0.936297 -1.71735 0
M  V30 9735 C 888.517 0.552585 -2.03739 0
M  V30 9736 O 887.865 1.51672 -1.70903 0
M  V30 9737 C 888.075 -1.81867 -2.97868 0
M  V30 9738 C 889.423 -2.06594 -3.7095 0
M  V30 9739 O 890.447 -1.79194 -3.07844 0
M  V30 9740 O 889.306 -2.5292 -4.84452 0
M  V30 9741 H 886.4 -0.350867 -0.74888 0
M  V30 9742 H 888.946 -1.32098 -1.06527 0
M  V30 9743 H 887.718 -2.82643 -2.70607 0
M  V30 9744 H 887.341 -1.43463 -3.70815 0
M  V30 9745 N 888.338 1.20213 -1.01915 0
M  V30 9746 C 889.563 1.94163 -0.729076 0
M  V30 9747 C 889.988 1.74416 0.704323 0
M  V30 9748 O 889.346 1.0401 1.48498 0
M  V30 9749 C 889.394 3.44258 -1.07324 0
M  V30 9750 O 888.498 4.11979 -0.186367 0
M  V30 9751 H 887.839 0.606506 -0.270272 0
M  V30 9752 H 890.369 1.52571 -1.3632 0
M  V30 9753 H 890.379 3.94888 -1.02603 0
M  V30 9754 H 889.054 3.57954 -2.11759 0
M  V30 9755 H 887.631 3.7176 -0.291334 0
M  V30 9756 N 889.816 0.795718 1.36037 0
M  V30 9757 C 890.749 0.144269 2.27744 0
M  V30 9758 C 891.727 -0.683351 1.47543 0
M  V30 9759 O 892.911 -0.652976 1.76829 0
M  V30 9760 C 890.038 -0.800944 3.29094 0
M  V30 9761 C 889.084 -0.0543234 4.26465 0
M  V30 9762 S 889.917 1.27426 5.20118 0
M  V30 9763 C 891.073 0.333213 6.25012 0
M  V30 9764 H 891.306 0.921827 2.82648 0
M  V30 9765 H 888.839 0.590241 1.42673 0
M  V30 9766 H 890.797 -1.34082 3.87985 0
M  V30 9767 H 889.458 -1.5518 2.7309 0
M  V30 9768 H 888.651 -0.771788 4.98056 0
M  V30 9769 H 888.253 0.415264 3.71687 0
M  V30 9770 H 890.545 -0.485604 6.75757 0
M  V30 9771 H 891.488 1.01798 7.00744 0
M  V30 9772 H 891.896 -0.066256 5.64461 0
M  V30 9773 N 891.294 -1.47756 0.548274 0
M  V30 9774 C 892.54 -2.02789 0.0209265 0
M  V30 9775 C 892.873 -1.42268 -1.32187 0
M  V30 9776 O 892.148 -0.575001 -1.85806 0
M  V30 9777 C 892.431 -3.60007 -0.0816674 0
M  V30 9778 C 892.284 -4.30977 1.28759 0
M  V30 9779 C 893.603 -4.32777 -0.799515 0
M  V30 9780 H 890.722 -0.736944 0.00907884 0
M  V30 9781 H 893.364 -1.76282 0.708839 0
M  V30 9782 H 891.514 -3.82722 -0.667537 0
M  V30 9783 H 893.186 -4.19629 1.91597 0
M  V30 9784 H 891.429 -3.9168 1.86466 0
M  V30 9785 H 892.1 -5.39488 1.16861 0
M  V30 9786 H 894.576 -4.15001 -0.30216 0
M  V30 9787 H 893.452 -5.42431 -0.840239 0
M  V30 9788 H 893.713 -4.01358 -1.85375 0
M  V30 9789 N 892.772 -0.284283 -1.55015 0
M  V30 9790 C 893.702 0.592663 -2.25853 0
M  V30 9791 C 894.683 1.15151 -1.25197 0
M  V30 9792 O 895.868 1.18395 -1.53936 0
M  V30 9793 C 892.998 1.77254 -2.98661 0
M  V30 9794 C 891.952 1.34482 -4.06323 0
M  V30 9795 C 891.278 2.60853 -4.66754 0
M  V30 9796 C 892.578 0.488288 -5.20013 0
M  V30 9797 H 894.272 0.00187041 -2.994 0
M  V30 9798 H 891.818 -0.000540402 -1.44 0
M  V30 9799 H 893.771 2.39199 -3.46932 0
M  V30 9800 H 892.495 2.38931 -2.22664 0
M  V30 9801 H 891.154 0.748519 -3.58877 0
M  V30 9802 H 890.802 3.20808 -3.87416 0
M  V30 9803 H 890.502 2.32942 -5.39455 0
M  V30 9804 H 892.026 3.23631 -5.1778 0
M  V30 9805 H 893.44 1.01298 -5.6428 0
M  V30 9806 H 891.837 0.303669 -5.99331 0
M  V30 9807 H 892.907 -0.490727 -4.8241 0
M  V30 9808 N 894.251 1.57596 -0.0117121 0
M  V30 9809 C 895.214 2.08089 0.960816 0
M  V30 9810 C 896.214 0.992519 1.26514 0
M  V30 9811 O 897.404 1.25475 1.20837 0
M  V30 9812 C 894.536 2.53217 2.28241 0
M  V30 9813 H 895.729 2.9529 0.523829 0
M  V30 9814 H 893.282 1.54508 0.235995 0
M  V30 9815 H 894.017 1.69294 2.76604 0
M  V30 9816 H 893.802 3.32714 2.0747 0
M  V30 9817 H 895.292 2.92568 2.97983 0
M  V30 9818 N 895.729 -0.261212 1.5542 0
M  V30 9819 C 896.978 -0.989072 1.75785 0
M  V30 9820 C 897.291 -1.8702 0.572961 0
M  V30 9821 O 898.497 -2.63374 0.659289 0
M  V30 9822 C 896.953 -1.80857 3.11157 0
M  V30 9823 C 896.561 -0.975535 4.3725 0
M  V30 9824 C 898.305 -2.53003 3.40866 0
M  V30 9825 C 896.212 -1.7901 5.63657 0
M  V30 9826 H 895.142 -0.373019 0.655266 0
M  V30 9827 H 897.793 -0.244267 1.81867 0
M  V30 9828 H 896.175 -2.59479 2.99144 0
M  V30 9829 H 897.349 -0.232661 4.60212 0
M  V30 9830 H 895.664 -0.368083 4.1477 0
M  V30 9831 H 898.261 -3.14372 4.32521 0
M  V30 9832 H 898.604 -3.23891 2.61535 0
M  V30 9833 H 899.137 -1.81403 3.54031 0
M  V30 9834 H 895.876 -1.12522 6.4577 0
M  V30 9835 H 895.396 -2.50863 5.44819 0
M  V30 9836 H 897.075 -2.36082 6.0239 0
M  V30 9837 N 897.207 -1.48554 -0.526253 0
M  V30 9838 C 898.137 -1.66252 -1.63959 0
M  V30 9839 C 899.118 -0.511351 -1.62232 0
M  V30 9840 O 900.303 -0.744322 -1.7937 0
M  V30 9841 C 897.433 -1.70556 -3.02536 0
M  V30 9842 C 896.387 -2.8521 -3.19123 0
M  V30 9843 C 895.713 -2.74606 -4.58798 0
M  V30 9844 C 897.013 -4.26463 -3.0154 0
M  V30 9845 H 898.707 -2.59459 -1.49404 0
M  V30 9846 H 896.253 -1.24862 -0.717326 0
M  V30 9847 H 898.206 -1.81524 -3.80298 0
M  V30 9848 H 896.93 -0.739297 -3.18123 0
M  V30 9849 H 895.589 -2.73802 -2.43779 0
M  V30 9850 H 895.237 -1.75941 -4.71226 0
M  V30 9851 H 894.937 -3.51544 -4.70841 0
M  V30 9852 H 896.461 -2.87548 -5.38655 0
M  V30 9853 H 897.875 -4.38685 -3.69091 0
M  V30 9854 H 896.272 -5.04428 -3.25073 0
M  V30 9855 H 897.342 -4.42667 -1.97925 0
M  V30 9856 N 898.685 0.775411 -1.37205 0
M  V30 9857 C 899.933 1.53081 -1.3195 0
M  V30 9858 C 900.254 1.9476 0.0966864 0
M  V30 9859 O 899.524 1.66019 1.03993 0
M  V30 9860 H 898.104 0.567762 -0.485444 0
M  V30 9861 H 900.766 0.92309 -1.71654 0
M  V30 9862 H 899.862 2.4319 -1.95614 0
M  V30 9863 N 900.163 1.21714 1.00117 0
M  V30 9864 C 901.11 0.979837 2.08968 0
M  V30 9865 C 902.08 -0.0955324 1.65825 0
M  V30 9866 O 903.265 0.0523742 1.90728 0
M  V30 9867 C 900.405 0.554758 3.40612 0
M  V30 9868 C 899.518 1.69999 3.97145 0
M  V30 9869 C 898.653 1.2237 5.16913 0
M  V30 9870 C 897.692 2.34101 5.65564 0
M  V30 9871 N 896.829 1.87579 6.76579 0
M  V30 9872 H 901.669 1.91167 2.28602 0
M  V30 9873 H 899.206 0.952645 1.12085 0
M  V30 9874 H 901.164 0.289526 4.16194 0
M  V30 9875 H 899.794 -0.340073 3.21004 0
M  V30 9876 H 898.846 2.07976 3.18512 0
M  V30 9877 H 900.158 2.54074 4.29241 0
M  V30 9878 H 899.312 0.915358 5.99755 0
M  V30 9879 H 898.051 0.353045 4.8642 0
M  V30 9880 H 897.056 2.65734 4.81316 0
M  V30 9881 H 898.281 3.21669 5.98085 0
M  V30 9882 H 896.227 1.02863 6.47885 0
M  V30 9883 H 896.144 2.65225 7.07949 0
M  V30 9884 H 897.412 1.5979 7.62947 0
M  V30 9885 N 901.641 -1.19671 1.02551 0
M  V30 9886 C 902.889 -1.88894 0.71858 0
M  V30 9887 C 903.21 -1.79797 -0.754856 0
M  V30 9888 O 902.48 -1.20621 -1.54362 0
M  V30 9889 H 901.06 -0.699244 0.262806 0
M  V30 9890 H 903.722 -1.45298 1.29902 0
M  V30 9891 H 902.818 -2.95309 1.00989 0
M  V30 9892 N 903.119 -0.802921 -1.35613 0
M  V30 9893 C 904.396 -0.304993 -1.93208 0
M  V30 9894 C 904.776 1.20488 -1.73337 0
M  V30 9895 O 904.124 2.00268 -1.10022 0
M  V30 9896 C 904.334 -0.712383 -3.41652 0
M  V30 9897 C 905.682 -0.699785 -4.18794 0
M  V30 9898 O 906.706 -0.653698 -3.5015 0
M  V30 9899 O 905.565 -0.754842 -5.41262 0
M  V30 9900 H 902.659 -0.0789127 -0.823226 0
M  V30 9901 H 905.205 -0.886372 -1.44712 0
M  V30 9902 H 903.977 -1.75316 -3.49829 0
M  V30 9903 H 903.6 -0.105614 -3.9746 0
M  V30 9904 N 904.597 1.47463 -0.556102 0
M  V30 9905 C 905.527 2.32801 0.180497 0
M  V30 9906 C 906.508 1.43721 0.909848 0
M  V30 9907 O 907.693 1.72578 0.89053 0
M  V30 9908 C 904.823 3.25478 1.21167 0
M  V30 9909 C 903.777 4.2379 0.598846 0
M  V30 9910 C 903.103 5.05783 1.73457 0
M  V30 9911 C 904.403 5.20387 -0.446659 0
M  V30 9912 H 906.097 2.94636 -0.531956 0
M  V30 9913 H 903.643 1.41683 -0.257267 0
M  V30 9914 H 905.596 3.8402 1.73513 0
M  V30 9915 H 904.32 2.61695 1.95405 0
M  V30 9916 H 902.979 3.66472 0.0966897 0
M  V30 9917 H 902.627 4.38405 2.46596 0
M  V30 9918 H 902.327 5.72343 1.33031 0
M  V30 9919 H 903.851 5.67183 2.26131 0
M  V30 9920 H 905.265 5.73299 -0.00930019 0
M  V30 9921 H 903.662 5.95143 -0.769735 0
M  V30 9922 H 904.732 4.65932 -1.34295 0
M  V30 9923 N 906.075 0.2925 1.54862 0
M  V30 9924 C 907.324 -0.319994 1.99146 0
M  V30 9925 C 907.637 -1.55658 1.18448 0
M  V30 9926 O 908.843 -2.24312 1.52959 0
M  V30 9927 C 907.299 -0.620665 3.54508 0
M  V30 9928 C 906.907 0.597098 4.44003 0
M  V30 9929 C 908.651 -1.19482 4.07338 0
M  V30 9930 C 906.558 0.270049 5.90783 0
M  V30 9931 H 905.488 -0.123342 0.743843 0
M  V30 9932 H 908.139 0.399876 1.7909 0
M  V30 9933 H 906.521 -1.3999 3.7043 0
M  V30 9934 H 907.695 1.37354 4.39853 0
M  V30 9935 H 906.01 1.0893 4.019 0
M  V30 9936 H 908.607 -1.45362 5.14562 0
M  V30 9937 H 908.95 -2.13435 3.57423 0
M  V30 9938 H 909.483 -0.477485 3.94924 0
M  V30 9939 H 906.222 1.17791 6.4483 0
M  V30 9940 H 905.742 -0.469292 5.97961 0
M  V30 9941 H 907.421 -0.131471 6.46866 0
M  V30 9942 N 907.553 -1.57587 0.0200696 0
M  V30 9943 C 908.801 -1.91046 -0.65922 0
M  V30 9944 C 909.122 -0.896197 -1.73186 0
M  V30 9945 O 908.392 0.0635952 -1.95797 0
M  V30 9946 H 906.972 -0.705163 -0.246483 0
M  V30 9947 H 909.634 -1.94789 0.0657368 0
M  V30 9948 H 908.73 -2.91399 -1.11773 0
M  V30 9949 N 909.032 0.252966 -1.55557 0
M  V30 9950 C 909.995 1.29645 -1.8901 0
M  V30 9951 C 910.995 1.41378 -0.766096 0
M  V30 9952 O 912.185 1.40183 -1.03414 0
M  V30 9953 C 909.317 2.67504 -2.11316 0
M  V30 9954 H 910.51 1.01202 -2.82309 0
M  V30 9955 H 908.063 0.491977 -1.48355 0
M  V30 9956 H 908.798 3.01095 -1.20466 0
M  V30 9957 H 908.583 2.6037 -2.93172 0
M  V30 9958 H 910.073 3.42861 -2.38403 0
M  V30 9959 N 910.51 1.48831 0.518367 0
M  V30 9960 C 911.458 1.64678 1.64268 0
M  V30 9961 C 912.452 0.512967 1.61447 0
M  V30 9962 O 913.658 0.692063 1.66164 0
M  V30 9963 H 910.033 0.518964 0.544224 0
M  V30 9964 H 912.004 2.59083 1.4805 0
M  V30 9965 C 910.753 1.71449 3.0249 0
M  V30 9966 H 910.076 2.58061 3.0536 0
M  V30 9967 H 911.516 1.86577 3.80743 0
M  V30 9968 C 909.975 0.455584 3.33805 0
M  V30 9969 O 910.505 -0.426428 3.9943 0
M  V30 9970 N 908.711 0.323763 2.88791 0
M  V30 9971 H 908.258 1.04249 2.35563 0
M  V30 9972 H 908.216 -0.517514 3.10112 0
M  V30 9973 N 911.988 -0.768124 1.37614 0
M  V30 9974 C 912.918 -1.89537 1.36374 0
M  V30 9975 C 913.899 -1.68513 0.231803 0
M  V30 9976 O 915.084 -1.89318 0.432705 0
M  V30 9977 C 912.214 -3.26871 1.17358 0
M  V30 9978 C 911.168 -3.62466 2.27602 0
M  V30 9979 C 910.494 -4.9838 1.93705 0
M  V30 9980 C 911.794 -3.68841 3.69802 0
M  V30 9981 H 913.488 -1.90832 2.30702 0
M  V30 9982 H 911.034 -0.91672 1.11051 0
M  V30 9983 H 912.987 -4.05371 1.15119 0
M  V30 9984 H 911.711 -3.26018 0.194865 0
M  V30 9985 H 910.37 -2.86276 2.29002 0
M  V30 9986 H 910.018 -4.94071 0.943539 0
M  V30 9987 H 909.718 -5.23165 2.6753 0
M  V30 9988 H 911.242 -5.79276 1.93059 0
M  V30 9989 H 912.656 -4.37485 3.70513 0
M  V30 9990 H 911.053 -4.05126 4.42711 0
M  V30 9991 H 912.123 -2.69415 4.03167 0
M  V30 9992 N 913.466 -1.22244 -0.994698 0
M  V30 9993 C 914.691 -1.07299 -1.77487 0
M  V30 9994 C 915.116 0.372302 -1.84379 0
M  V30 9995 O 914.474 1.2689 -1.29494 0
M  V30 9996 C 914.522 -1.68675 -3.18718 0
M  V30 9997 O 913.626 -0.939202 -4.01563 0
M  V30 9998 H 912.967 -0.376979 -0.546611 0
M  V30 9999 H 915.497 -1.62003 -1.24965 0
M  V30 10000 H 915.507 -1.73324 -3.69354 0
M  V30 10001 H 914.182 -2.73849 -3.13017 0
M  V30 10002 H 912.759 -0.968583 -3.60101 0
M  V30 10003 N 914.944 1.19125 -1.03184 0
M  V30 10004 C 916.193 1.8821 -0.725264 0
M  V30 10005 C 916.506 1.80674 0.749411 0
M  V30 10006 O 917.712 2.45037 1.16915 0
M  V30 10007 C 916.168 3.37607 -1.24697 0
M  V30 10008 C 915.776 3.53693 -2.74964 0
M  V30 10009 C 917.52 4.12149 -1.01652 0
M  V30 10010 C 915.427 4.97001 -3.20538 0
M  V30 10011 H 914.357 0.704916 -0.267599 0
M  V30 10012 H 917.008 1.34663 -1.24652 0
M  V30 10013 H 915.39 3.90569 -0.653614 0
M  V30 10014 H 916.564 3.11046 -3.39981 0
M  V30 10015 H 914.879 2.92544 -2.96322 0
M  V30 10016 H 917.476 5.17837 -1.33226 0
M  V30 10017 H 917.819 4.16274 0.0465712 0
M  V30 10018 H 918.352 3.65334 -1.57403 0
M  V30 10019 H 915.091 4.9804 -4.26189 0
M  V30 10020 H 914.611 5.40398 -2.60251 0
M  V30 10021 H 916.29 5.65669 -3.14049 0
M  V30 10022 N 916.422 0.810101 1.35185 0
M  V30 10023 C 917.369 0.220927 2.2974 0
M  V30 10024 C 918.339 -0.647024 1.5298 0
M  V30 10025 O 919.524 -0.591367 1.81404 0
M  V30 10026 C 916.664 -0.62167 3.39454 0
M  V30 10027 C 915.777 0.267104 4.31173 0
M  V30 10028 C 914.912 -0.583833 5.27982 0
M  V30 10029 C 913.951 0.305123 6.11339 0
M  V30 10030 N 913.088 -0.505992 7.00274 0
M  V30 10031 H 917.928 1.03266 2.79536 0
M  V30 10032 H 915.465 0.520768 1.37573 0
M  V30 10033 H 917.423 -1.12539 4.01735 0
M  V30 10034 H 916.053 -1.39863 2.90926 0
M  V30 10035 H 915.105 0.88895 3.69867 0
M  V30 10036 H 916.417 0.951182 4.89647 0
M  V30 10037 H 915.571 -1.15254 5.95652 0
M  V30 10038 H 914.31 -1.30146 4.70014 0
M  V30 10039 H 913.315 0.886075 5.42613 0
M  V30 10040 H 914.54 1.02067 6.71386 0
M  V30 10041 H 912.486 -1.20753 6.4479 0
M  V30 10042 H 912.403 0.119966 7.55905 0
M  V30 10043 H 913.671 -1.05787 7.72288 0
M  V30 10044 N 917.9 -1.47166 0.563914 0
M  V30 10045 C 919.177 -1.95586 -0.0236172 0
M  V30 10046 C 919.557 -1.50655 -1.47872 0
M  V30 10047 O 918.905 -0.748479 -2.15894 0
M  V30 10048 C 919.115 -3.48762 0.128841 0
M  V30 10049 C 920.463 -4.24598 -0.0130544 0
M  V30 10050 O 921.487 -3.56155 0.0567242 0
M  V30 10051 O 920.346 -5.46253 -0.164332 0
M  V30 10052 H 917.44 -0.824793 -0.0603789 0
M  V30 10053 H 919.986 -1.57536 0.63091 0
M  V30 10054 H 918.758 -3.74291 1.14113 0
M  V30 10055 H 918.381 -3.93594 -0.56299 0
M  V30 10056 N 919.378 -0.300708 -1.54705 0
M  V30 10057 C 920.31 0.609179 -2.20956 0
M  V30 10058 C 921.323 1.09776 -1.20221 0
M  V30 10059 O 922.512 1.01527 -1.46815 0
M  V30 10060 C 919.612 1.84595 -2.84214 0
M  V30 10061 C 918.785 1.49991 -4.10879 0
M  V30 10062 C 917.844 2.5918 -4.57943 0
M  V30 10063 O 916.87 2.24285 -5.23149 0
M  V30 10064 N 918.072 3.89714 -4.30236 0
M  V30 10065 H 920.837 0.0420111 -2.99671 0
M  V30 10066 H 918.398 -0.122896 -1.61433 0
M  V30 10067 H 920.39 2.56988 -3.12633 0
M  V30 10068 H 918.96 2.32152 -2.09342 0
M  V30 10069 H 918.18 0.608637 -3.89473 0
M  V30 10070 H 919.468 1.24409 -4.93356 0
M  V30 10071 H 918.866 4.20874 -3.77997 0
M  V30 10072 H 917.423 4.58406 -4.63365 0
M  V30 10073 N 920.856 1.57574 -0.0284266 0
M  V30 10074 C 922.102 1.92056 0.651327 0
M  V30 10075 C 922.435 0.905092 1.71819 0
M  V30 10076 O 921.71 -0.0722703 1.94366 0
M  V30 10077 C 921.993 3.37021 1.26841 0
M  V30 10078 C 921.846 4.49304 0.211157 0
M  V30 10079 C 923.165 3.81936 2.18662 0
M  V30 10080 H 920.284 0.698428 0.235304 0
M  V30 10081 H 922.926 1.89807 -0.0855435 0
M  V30 10082 H 921.076 3.39068 1.89644 0
M  V30 10083 H 922.748 4.5939 -0.419379 0
M  V30 10084 H 920.991 4.31317 -0.463445 0
M  V30 10085 H 921.662 5.47764 0.682518 0
M  V30 10086 H 924.138 3.8162 1.65847 0
M  V30 10087 H 923.014 4.84064 2.58792 0
M  V30 10088 H 923.275 3.174 3.07749 0
M  V30 10089 N 922.334 -0.244713 1.55689 0
M  V30 10090 C 923.583 -0.970373 1.76824 0
M  V30 10091 C 923.896 -1.86402 0.592764 0
M  V30 10092 O 925.102 -2.62659 0.687186 0
M  V30 10093 C 923.558 -1.77547 3.13058 0
M  V30 10094 C 923.166 -0.929104 4.3826 0
M  V30 10095 C 924.91 -2.49373 3.43531 0
M  V30 10096 C 922.817 -1.73021 5.65524 0
M  V30 10097 H 921.747 -0.366048 0.659185 0
M  V30 10098 H 924.398 -0.224964 1.82116 0
M  V30 10099 H 922.78 -2.56291 3.01879 0
M  V30 10100 H 923.954 -0.183836 4.60433 0
M  V30 10101 H 922.269 -0.324071 4.15137 0
M  V30 10102 H 924.866 -3.09767 4.35831 0
M  V30 10103 H 925.209 -3.21099 2.64955 0
M  V30 10104 H 925.742 -1.77637 3.55935 0
M  V30 10105 H 922.481 -1.05666 6.46927 0
M  V30 10106 H 922.001 -2.45071 5.47449 0
M  V30 10107 H 923.68 -2.2968 6.0486 0
M  V30 10108 N 923.813 -1.49104 -0.510467 0
M  V30 10109 C 924.76 -1.65074 -1.61305 0
M  V30 10110 C 925.73 -0.492362 -1.58635 0
M  V30 10111 O 926.915 -0.718241 -1.76765 0
M  V30 10112 C 924.055 -1.71457 -2.99493 0
M  V30 10113 C 923.168 -2.98536 -3.12251 0
M  V30 10114 C 922.303 -2.95957 -4.41116 0
M  V30 10115 C 921.342 -4.17655 -4.47471 0
M  V30 10116 N 920.479 -4.13041 -5.67751 0
M  V30 10117 H 925.319 -2.59222 -1.46996 0
M  V30 10118 H 922.856 -1.28535 -0.715346 0
M  V30 10119 H 924.814 -1.7314 -3.79577 0
M  V30 10120 H 923.444 -0.807834 -3.12528 0
M  V30 10121 H 922.496 -3.06509 -2.25292 0
M  V30 10122 H 923.808 -3.88527 -3.12807 0
M  V30 10123 H 922.962 -2.96149 -5.2951 0
M  V30 10124 H 921.701 -2.03728 -4.4311 0
M  V30 10125 H 920.706 -4.17717 -3.57481 0
M  V30 10126 H 921.931 -5.11066 -4.472 0
M  V30 10127 H 919.877 -3.23643 -5.70606 0
M  V30 10128 H 919.794 -4.96757 -5.69884 0
M  V30 10129 H 921.062 -4.17322 -6.58379 0
M  V30 10130 N 925.291 0.760815 -1.38019 0
M  V30 10131 C 926.519 1.55001 -1.37048 0
M  V30 10132 C 926.934 1.88754 0.0415261 0
M  V30 10133 O 926.291 1.52254 1.00624 0
M  V30 10134 C 926.342 2.8536 -2.21928 0
M  V30 10135 O 926.063 2.53049 -3.57628 0
M  V30 10136 C 927.564 3.79536 -2.29057 0
M  V30 10137 H 924.784 0.479844 -0.469032 0
M  V30 10138 H 927.328 0.942148 -1.81504 0
M  V30 10139 H 925.483 3.42542 -1.80953 0
M  V30 10140 H 925.897 3.36604 -4.02241 0
M  V30 10141 H 927.371 4.67977 -2.92749 0
M  V30 10142 H 927.848 4.19453 -1.30213 0
M  V30 10143 H 928.454 3.28281 -2.70392 0
M  V30 10144 N 926.769 1.22769 0.988202 0
M  V30 10145 C 927.717 0.999271 2.10041 0
M  V30 10146 C 928.711 -0.0591767 1.69297 0
M  V30 10147 O 929.917 0.0936653 1.79756 0
M  V30 10148 H 926.292 0.30599 0.686931 0
M  V30 10149 H 928.263 1.94294 2.26478 0
M  V30 10150 C 927.012 0.59873 3.42506 0
M  V30 10151 H 926.335 1.40487 3.74304 0
M  V30 10152 H 927.775 0.478353 4.21293 0
M  V30 10153 C 926.234 -0.692216 3.29712 0
M  V30 10154 O 926.764 -1.74342 3.61895 0
M  V30 10155 N 924.97 -0.665163 2.82885 0
M  V30 10156 H 924.517 0.190604 2.56894 0
M  V30 10157 H 924.475 -1.52917 2.74706 0
M  V30 10158 N 928.247 -1.18576 1.03814 0
M  V30 10159 C 929.21 -2.2033 0.63146 0
M  V30 10160 C 930.21 -1.57787 -0.309816 0
M  V30 10161 O 931.4 -1.73938 -0.0955598 0
M  V30 10162 C 928.532 -3.40818 -0.0745963 0
M  V30 10163 H 929.725 -2.57824 1.53189 0
M  V30 10164 H 927.278 -1.32416 0.830398 0
M  V30 10165 H 928.013 -3.08853 -0.988947 0
M  V30 10166 H 927.798 -3.87453 0.6019 0
M  V30 10167 H 929.288 -4.16166 -0.345727 0
M  V30 10168 N 929.725 -0.817259 -1.34754 0
M  V30 10169 C 931.002 -0.325468 -1.92873 0
M  V30 10170 C 931.382 1.18643 -1.74606 0
M  V30 10171 O 930.73 1.9909 -1.1214 0
M  V30 10172 C 930.94 -0.74858 -3.40877 0
M  V30 10173 C 932.288 -0.744165 -4.18028 0
M  V30 10174 O 933.312 -0.690799 -3.49437 0
M  V30 10175 O 932.171 -0.812207 -5.40431 0
M  V30 10176 H 929.265 -0.0876397 -0.822343 0
M  V30 10177 H 931.811 -0.901671 -1.43764 0
M  V30 10178 H 930.583 -1.79017 -3.47949 0
M  V30 10179 H 930.206 -0.147764 -3.97325 0
M  V30 10180 N 931.203 1.46865 -0.571711 0
M  V30 10181 C 932.449 2.0273 -0.0531858 0
M  V30 10182 C 932.782 1.44353 1.29907 0
M  V30 10183 O 932.057 0.604488 1.84868 0
M  V30 10184 C 932.34 3.60092 0.0243831 0
M  V30 10185 C 932.193 4.28874 -1.35599 0
M  V30 10186 C 933.512 4.33994 0.730563 0
M  V30 10187 H 930.631 0.736706 -0.0208018 0
M  V30 10188 H 933.273 1.75132 -0.736794 0
M  V30 10189 H 931.423 3.83736 0.606565 0
M  V30 10190 H 933.095 4.16527 -1.98249 0
M  V30 10191 H 931.338 3.88664 -1.92674 0
M  V30 10192 H 932.009 5.37561 -1.25429 0
M  V30 10193 H 934.485 4.1543 0.236098 0
M  V30 10194 H 933.361 5.43699 0.753836 0
M  V30 10195 H 933.622 4.04257 1.78967 0
M  V30 10196 N 932.681 0.308908 1.54543 0
M  V30 10197 C 933.628 -0.563659 2.23811 0
M  V30 10198 C 934.598 -1.12332 1.22355 0
M  V30 10199 O 935.783 -1.16638 1.50997 0
M  V30 10200 C 932.923 -1.72585 2.98845 0
M  V30 10201 C 932.036 -1.19682 4.1509 0
M  V30 10202 C 931.171 -2.32351 4.77688 0
M  V30 10203 C 930.21 -1.76623 5.86064 0
M  V30 10204 N 929.347 -2.82896 6.42584 0
M  V30 10205 H 934.187 0.0336288 2.97981 0
M  V30 10206 H 931.724 0.0283666 1.47073 0
M  V30 10207 H 933.682 -2.40951 3.40586 0
M  V30 10208 H 932.312 -2.29464 2.27037 0
M  V30 10209 H 931.364 -0.405173 3.78236 0
M  V30 10210 H 932.676 -0.748923 4.93146 0
M  V30 10211 H 931.83 -3.0865 5.22322 0
M  V30 10212 H 930.569 -2.80472 3.98982 0
M  V30 10213 H 929.574 -0.988171 5.40847 0
M  V30 10214 H 930.799 -1.29398 6.66658 0
M  V30 10215 H 928.745 -3.30336 5.66758 0
M  V30 10216 H 928.662 -2.42626 7.16009 0
M  V30 10217 H 929.93 -3.59068 6.91875 0
M  V30 10218 N 934.159 -1.57557 0.0367827 0
M  V30 10219 C 935.122 -2.09591 -0.927589 0
M  V30 10220 C 936.122 -1.01252 -1.24919 0
M  V30 10221 O 937.312 -1.27382 -1.18825 0
M  V30 10222 C 934.444 -2.56816 -2.24184 0
M  V30 10223 H 935.637 -2.96086 -0.476784 0
M  V30 10224 H 933.19 -1.54864 -0.211385 0
M  V30 10225 H 933.925 -1.73673 -2.73876 0
M  V30 10226 H 933.71 -3.35973 -2.0215 0
M  V30 10227 H 935.2 -2.97271 -2.93291 0
M  V30 10228 N 935.637 0.236453 -1.55816 0
M  V30 10229 C 936.567 1.29639 -1.94206 0
M  V30 10230 C 937.548 1.49667 -0.808319 0
M  V30 10231 O 938.733 1.621 -1.06945 0
M  V30 10232 C 935.863 2.64914 -2.24584 0
M  V30 10233 C 934.817 2.59565 -3.40308 0
M  V30 10234 C 934.143 3.98732 -3.56254 0
M  V30 10235 C 935.443 2.15642 -4.75706 0
M  V30 10236 H 937.137 0.977552 -2.82992 0
M  V30 10237 H 934.683 0.468804 -1.36155 0
M  V30 10238 H 936.636 3.39209 -2.50031 0
M  V30 10239 H 935.36 2.98455 -1.32636 0
M  V30 10240 H 934.019 1.87728 -3.14887 0
M  V30 10241 H 933.667 4.29556 -2.61707 0
M  V30 10242 H 933.367 3.96039 -4.34082 0
M  V30 10243 H 934.891 4.74711 -3.84033 0
M  V30 10244 H 936.305 2.79673 -5.00456 0
M  V30 10245 H 934.702 2.24039 -5.56711 0
M  V30 10246 H 935.772 1.10831 -4.72064 0
M  V30 10247 N 937.115 1.49373 0.502552 0
M  V30 10248 C 938.343 1.62488 1.28084 0
M  V30 10249 C 938.758 0.295667 1.86471 0
M  V30 10250 O 938.115 -0.718664 1.67754 0
M  V30 10251 C 938.166 2.69249 2.4122 0
M  V30 10252 O 937.887 3.97014 1.85234 0
M  V30 10253 C 939.388 2.93054 3.32617 0
M  V30 10254 H 936.608 0.547068 0.388533 0
M  V30 10255 H 939.152 1.95394 0.603452 0
M  V30 10256 H 937.307 2.39125 3.04792 0
M  V30 10257 H 937.721 4.55809 2.59496 0
M  V30 10258 H 939.195 3.71493 4.08285 0
M  V30 10259 H 939.672 2.02911 3.89517 0
M  V30 10260 H 940.278 3.24589 2.74813 0
M  V30 10261 N 938.594 -0.753485 1.38421 0
M  V30 10262 C 939.824 -1.54049 1.37669 0
M  V30 10263 C 940.232 -1.89167 -0.0353656 0
M  V30 10264 O 939.575 -1.53285 -1.01239 0
M  V30 10265 C 939.637 -2.86777 2.16793 0
M  V30 10266 C 939.301 -2.74196 3.65603 0
M  V30 10267 C 940.298 -2.43985 4.59094 0
M  V30 10268 C 937.983 -2.91645 4.0896 0
M  V30 10269 C 939.977 -2.31379 5.93921 0
M  V30 10270 C 937.664 -2.78658 5.43868 0
M  V30 10271 C 938.662 -2.48568 6.36163 0
M  V30 10272 O 938.35 -2.3564 7.68589 0
M  V30 10273 H 938.082 -0.483276 0.472673 0
M  V30 10274 H 940.636 -0.940267 1.82615 0
M  V30 10275 H 938.866 -3.48988 1.66565 0
M  V30 10276 H 940.555 -3.48289 2.08446 0
M  V30 10277 H 941.321 -2.30172 4.26902 0
M  V30 10278 H 937.2 -3.14063 3.37469 0
M  V30 10279 H 940.744 -2.07813 6.65927 0
M  V30 10280 H 936.641 -2.92044 5.75656 0
M  V30 10281 H 937.409 -2.50851 7.79112 0
M  V30 10282 N 940.072 -1.23292 -0.981677 0
M  V30 10283 C 941.312 -1.07597 -1.73788 0
M  V30 10284 C 941.676 0.380762 -1.88187 0
M  V30 10285 O 942.877 0.658866 -2.606 0
M  V30 10286 C 941.148 -1.78008 -3.09916 0
M  V30 10287 S 942.707 -1.77868 -4.01134 0
M  V30 10288 H 939.525 -0.385092 -0.597683 0
M  V30 10289 H 942.127 -1.56408 -1.17289 0
M  V30 10290 H 940.831 -2.83139 -2.97087 0
M  V30 10291 H 940.362 -1.29473 -3.71484 0
M  V30 10292 H 942.377 -0.836368 -4.89101 0
M  V30 10293 N 941.55 1.18024 -1.04442 0
M  V30 10294 C 942.827 1.8398 -0.664125 0
M  V30 10295 C 943.207 1.92961 0.856116 0
M  V30 10296 O 942.555 1.45839 1.75907 0
M  V30 10297 C 942.765 3.22069 -1.34433 0
M  V30 10298 C 944.113 3.98063 -1.47754 0
M  V30 10299 O 945.137 3.31523 -1.30274 0
M  V30 10300 O 943.996 5.17291 -1.76272 0
M  V30 10301 H 941.09 0.793543 -0.23285 0
M  V30 10302 H 943.636 1.25385 -1.14354 0
M  V30 10303 H 942.408 3.10458 -2.38184 0
M  V30 10304 H 942.031 3.88325 -0.853782 0
M  V30 10305 N 943.028 0.824394 1.34319 0
M  V30 10306 C 943.958 0.262077 2.32025 0
M  V30 10307 C 944.939 -0.622277 1.58309 0
M  V30 10308 O 946.124 -0.548848 1.86283 0
M  V30 10309 C 943.254 -0.57567 3.42496 0
M  V30 10310 C 942.208 0.21167 4.27476 0
M  V30 10311 C 941.534 -0.748913 5.29429 0
M  V30 10312 C 942.834 1.42068 5.02607 0
M  V30 10313 H 944.528 1.07842 2.79304 0
M  V30 10314 H 942.074 0.520022 1.34282 0
M  V30 10315 H 944.027 -0.979251 4.09864 0
M  V30 10316 H 942.751 -1.42508 2.93869 0
M  V30 10317 H 941.41 0.596636 3.61712 0
M  V30 10318 H 941.058 -1.59432 4.77064 0
M  V30 10319 H 940.758 -0.226313 5.87164 0
M  V30 10320 H 942.282 -1.15032 5.99667 0
M  V30 10321 H 943.696 1.09103 5.62823 0
M  V30 10322 H 942.093 1.87903 5.69923 0
M  V30 10323 H 943.163 2.1981 4.32217 0
M  V30 10324 N 944.506 -1.46559 0.579492 0
M  V30 10325 C 945.438 -2.28383 -0.19337 0
M  V30 10326 C 946.451 -1.38324 -0.858511 0
M  V30 10327 O 947.64 -1.62952 -0.728615 0
M  V30 10328 C 944.74 -3.13262 -1.29306 0
M  V30 10329 C 943.913 -4.31426 -0.720459 0
M  V30 10330 C 942.972 -4.97728 -1.70744 0
M  V30 10331 O 941.998 -5.55423 -1.24476 0
M  V30 10332 N 943.2 -4.94445 -3.04146 0
M  V30 10333 H 945.965 -2.95353 0.508611 0
M  V30 10334 H 943.526 -1.56436 0.417046 0
M  V30 10335 H 945.518 -3.54483 -1.95254 0
M  V30 10336 H 944.088 -2.48388 -1.89795 0
M  V30 10337 H 943.308 -3.94028 0.116398 0
M  V30 10338 H 944.596 -5.07808 -0.31763 0
M  V30 10339 H 943.994 -4.4881 -3.44363 0
M  V30 10340 H 942.551 -5.39616 -3.65592 0
M  V30 10341 N 945.984 -0.3171 -1.54377 0
M  V30 10342 C 947.224 0.288083 -2.0236 0
M  V30 10343 C 947.588 1.4985 -1.20038 0
M  V30 10344 O 948.789 2.17611 -1.57794 0
M  V30 10345 C 947.06 0.620192 -3.51978 0
M  V30 10346 S 948.619 1.20595 -4.21903 0
M  V30 10347 H 945.437 0.0875231 -0.705592 0
M  V30 10348 H 948.039 -0.448719 -1.90281 0
M  V30 10349 H 946.743 -0.268982 -4.09518 0
M  V30 10350 H 946.274 1.38736 -3.68125 0
M  V30 10351 H 948.289 2.49308 -4.29022 0
M  V30 10352 N 947.462 1.57535 -0.0451378 0
M  V30 10353 C 948.711 1.91628 0.629415 0
M  V30 10354 C 949.024 0.924754 1.72359 0
M  V30 10355 O 950.23 1.15751 2.45589 0
M  V30 10356 C 948.686 3.40322 1.17084 0
M  V30 10357 C 948.294 4.47867 0.109101 0
M  V30 10358 C 950.038 3.83458 1.82099 0
M  V30 10359 C 947.945 5.87671 0.663072 0
M  V30 10360 H 946.875 0.715163 0.238868 0
M  V30 10361 H 949.526 1.83151 -0.113046 0
M  V30 10362 H 947.908 3.43783 1.96543 0
M  V30 10363 H 949.082 4.55988 -0.664201 0
M  V30 10364 H 947.397 4.14034 -0.443227 0
M  V30 10365 H 949.994 4.85273 2.2453 0
M  V30 10366 H 950.337 3.19379 2.67026 0
M  V30 10367 H 950.87 3.82488 1.09305 0
M  V30 10368 H 947.609 6.55332 -0.148423 0
M  V30 10369 H 947.129 5.83124 1.4045 0
M  V30 10370 H 948.808 6.36737 1.14785 0
M  V30 10371 N 948.94 -0.228186 1.55939 0
M  V30 10372 C 950.189 -0.951563 1.77843 0
M  V30 10373 C 950.502 -1.85763 0.612501 0
M  V30 10374 O 951.708 -2.61916 0.715006 0
M  V30 10375 C 950.164 -1.74216 3.14923 0
M  V30 10376 C 949.772 -0.882569 4.39221 0
M  V30 10377 C 951.516 -2.45715 3.46156 0
M  V30 10378 C 949.423 -1.67014 5.67327 0
M  V30 10379 H 948.353 -0.359035 0.663031 0
M  V30 10380 H 951.004 -0.205636 1.82344 0
M  V30 10381 H 949.386 -2.53075 3.0458 0
M  V30 10382 H 950.56 -0.13499 4.60602 0
M  V30 10383 H 948.875 -0.280022 4.15457 0
M  V30 10384 H 951.472 -3.05127 4.39092 0
M  V30 10385 H 951.815 -3.1827 2.68346 0
M  V30 10386 H 952.348 -1.73852 3.57799 0
M  V30 10387 H 949.087 -0.987985 6.48012 0
M  V30 10388 H 948.607 -2.3925 5.50018 0
M  V30 10389 H 950.286 -2.23252 6.07262 0
M  V30 10390 N 950.418 -1.49637 -0.494624 0
M  V30 10391 C 951.348 -1.69692 -1.60396 0
M  V30 10392 C 952.329 -0.545648 -1.61111 0
M  V30 10393 O 953.514 -0.782202 -1.77751 0
M  V30 10394 C 950.644 -1.76934 -2.9885 0
M  V30 10395 C 949.598 -2.91915 -3.13001 0
M  V30 10396 C 948.924 -2.84276 -4.5287 0
M  V30 10397 C 950.224 -4.32764 -2.92426 0
M  V30 10398 H 951.918 -2.6257 -1.43866 0
M  V30 10399 H 949.464 -1.26355 -0.690679 0
M  V30 10400 H 951.417 -1.8955 -3.76362 0
M  V30 10401 H 950.141 -0.806609 -3.16483 0
M  V30 10402 H 948.8 -2.78911 -2.37916 0
M  V30 10403 H 948.448 -1.85897 -4.67388 0
M  V30 10404 H 948.148 -3.61452 -4.63278 0
M  V30 10405 H 949.672 -2.98909 -5.32434 0
M  V30 10406 H 951.086 -4.46415 -3.59703 0
M  V30 10407 H 949.483 -5.1121 -3.143 0
M  V30 10408 H 950.553 -4.46765 -1.88491 0
M  V30 10409 N 951.896 0.746133 -1.38819 0
M  V30 10410 C 952.843 1.86001 -1.36647 0
M  V30 10411 C 953.813 1.6453 -0.227849 0
M  V30 10412 O 954.998 1.86092 -0.421241 0
M  V30 10413 C 952.138 3.23388 -1.20474 0
M  V30 10414 C 951.251 3.5664 -2.43786 0
M  V30 10415 C 950.386 4.8337 -2.20287 0
M  V30 10416 C 949.425 5.09431 -3.39332 0
M  V30 10417 N 948.562 6.2736 -3.1522 0
M  V30 10418 H 953.402 1.87192 -2.31869 0
M  V30 10419 H 950.939 0.914838 -1.15192 0
M  V30 10420 H 952.897 4.02679 -1.09112 0
M  V30 10421 H 951.527 3.21505 -0.288874 0
M  V30 10422 H 950.579 2.72135 -2.65794 0
M  V30 10423 H 951.891 3.71823 -3.3249 0
M  V30 10424 H 951.045 5.70619 -2.06103 0
M  V30 10425 H 949.784 4.70341 -1.28961 0
M  V30 10426 H 948.789 4.20648 -3.54027 0
M  V30 10427 H 950.014 5.24354 -4.31544 0
M  V30 10428 H 947.96 6.15639 -2.26549 0
M  V30 10429 H 947.877 6.43078 -3.97476 0
M  V30 10430 H 949.145 7.17477 -3.04707 0
M  V30 10431 N 953.375 1.23811 0.975125 0
M  V30 10432 C 954.623 1.07124 1.71373 0
M  V30 10433 C 954.944 -0.391864 1.91022 0
M  V30 10434 O 954.214 -1.28041 1.48265 0
M  V30 10435 H 952.794 0.393415 0.635007 0
M  V30 10436 H 955.456 1.55612 1.17349 0
M  V30 10437 H 954.552 1.56338 2.7012 0
M  V30 10438 N 954.853 -1.17469 1.05066 0
M  V30 10439 C 955.783 -2.23635 0.671552 0
M  V30 10440 C 956.764 -1.66867 -0.33006 0
M  V30 10441 O 957.949 -1.93084 -0.207933 0
M  V30 10442 C 955.079 -3.47272 0.0441845 0
M  V30 10443 C 954.033 -4.16854 0.97042 0
M  V30 10444 C 953.359 -5.34299 0.206998 0
M  V30 10445 C 954.659 -4.69225 2.29401 0
M  V30 10446 H 956.353 -2.55602 1.55911 0
M  V30 10447 H 953.899 -1.2286 0.751101 0
M  V30 10448 H 955.852 -4.20756 -0.23282 0
M  V30 10449 H 954.576 -3.14568 -0.878311 0
M  V30 10450 H 953.235 -3.4528 1.23197 0
M  V30 10451 H 952.883 -4.97846 -0.718222 0
M  V30 10452 H 952.583 -5.81792 0.82416 0
M  V30 10453 H 954.107 -6.10568 -0.0627525 0
M  V30 10454 H 955.521 -5.34353 2.077 0
M  V30 10455 H 953.918 -5.27291 2.86503 0
M  V30 10456 H 954.988 -3.86102 2.93348 0
M  V30 10457 N 956.331 -0.831506 -1.3388 0
M  V30 10458 C 957.578 -0.423674 -1.98018 0
M  V30 10459 C 957.906 1.01533 -1.65895 0
M  V30 10460 O 957.161 1.72342 -0.927183 0
M  V30 10461 C 957.46 -0.582733 -3.52617 0
M  V30 10462 C 957.126 -1.98874 -4.04673 0
M  V30 10463 C 955.788 -2.37334 -4.186 0
M  V30 10464 C 958.14 -2.90745 -4.3257 0
M  V30 10465 C 955.468 -3.66984 -4.57755 0
M  V30 10466 C 957.82 -4.19868 -4.73174 0
M  V30 10467 C 956.484 -4.58294 -4.85307 0
M  V30 10468 H 955.754 -0.155033 -0.7246 0
M  V30 10469 H 958.401 -1.05711 -1.59679 0
M  V30 10470 H 956.706 0.134052 -3.91571 0
M  V30 10471 H 958.403 -0.247576 -4.00235 0
M  V30 10472 H 954.993 -1.68001 -3.94301 0
M  V30 10473 H 959.177 -2.62272 -4.2134 0
M  V30 10474 H 954.433 -3.9657 -4.65341 0
M  V30 10475 H 958.607 -4.91138 -4.93717 0
M  V30 10476 H 956.234 -5.58805 -5.15404 0
M  V30 10477 N 957.809 1.4625 -0.587256 0
M  V30 10478 C 958.719 2.34147 0.145744 0
M  V30 10479 C 959.735 1.50026 0.881376 0
M  V30 10480 O 960.911 1.82884 0.843539 0
M  V30 10481 C 957.976 3.27294 1.14366 0
M  V30 10482 C 957.037 4.27317 0.412199 0
M  V30 10483 C 956.27 5.16013 1.36257 0
M  V30 10484 O 956.493 5.0773 2.59934 0
M  V30 10485 O 955.427 5.95569 0.870681 0
M  V30 10486 H 959.253 2.98187 -0.576055 0
M  V30 10487 H 956.838 1.45299 -0.347628 0
M  V30 10488 H 958.72 3.84747 1.71894 0
M  V30 10489 H 957.395 2.65845 1.84684 0
M  V30 10490 H 956.302 3.73538 -0.205036 0
M  V30 10491 H 957.635 4.91564 -0.250104 0
M  V30 10492 N 959.287 0.325282 1.54207 0
M  V30 10493 C 960.533 -0.277185 2.00897 0
M  V30 10494 C 960.866 -1.51651 1.21308 0
M  V30 10495 O 960.141 -1.92237 0.295825 0
M  V30 10496 C 960.424 -0.60961 3.54902 0
M  V30 10497 C 960.277 0.640542 4.45216 0
M  V30 10498 C 961.596 -1.42656 4.16338 0
M  V30 10499 H 958.715 -0.0992722 0.730284 0
M  V30 10500 H 961.357 0.442201 1.84783 0
M  V30 10501 H 959.507 -1.22249 3.68765 0
M  V30 10502 H 961.179 1.27878 4.43221 0
M  V30 10503 H 959.422 1.26908 4.14821 0
M  V30 10504 H 960.093 0.363459 5.50802 0
M  V30 10505 H 962.569 -0.908494 4.06061 0
M  V30 10506 H 961.445 -1.62792 5.24204 0
M  V30 10507 H 961.706 -2.42321 3.69774 0
M  V30 10508 N 960.765 -1.57509 0.0534917 0
M  V30 10509 C 961.695 -2.14698 -0.917999 0
M  V30 10510 C 962.676 -1.06924 -1.32292 0
M  V30 10511 O 963.861 -1.34875 -1.39723 0
M  V30 10512 C 960.991 -2.69383 -2.19203 0
M  V30 10513 C 959.945 -3.82161 -1.9271 0
M  V30 10514 C 959.271 -4.23373 -3.26587 0
M  V30 10515 C 960.571 -5.07199 -1.24686 0
M  V30 10516 H 962.265 -2.96125 -0.44165 0
M  V30 10517 H 959.811 -1.42446 -0.210993 0
M  V30 10518 H 961.764 -3.08031 -2.87567 0
M  V30 10519 H 960.488 -1.85151 -2.69048 0
M  V30 10520 H 959.147 -3.43989 -1.26757 0
M  V30 10521 H 958.795 -3.36089 -3.74237 0
M  V30 10522 H 958.495 -4.99385 -3.09658 0
M  V30 10523 H 960.019 -4.64623 -3.96178 0
M  V30 10524 H 961.433 -5.43279 -1.83088 0
M  V30 10525 H 959.83 -5.88369 -1.18076 0
M  V30 10526 H 960.9 -4.84386 -0.223227 0
M  V30 10527 N 962.243 0.219913 -1.56058 0
M  V30 10528 C 963.52 0.968493 -1.6994 0
M  V30 10529 C 963.9 2.02358 -0.601219 0
M  V30 10530 O 963.248 2.25121 0.391534 0
M  V30 10531 C 963.458 1.57745 -3.11316 0
M  V30 10532 C 964.806 2.06908 -3.70775 0
M  V30 10533 O 965.83 1.67636 -3.14288 0
M  V30 10534 O 964.689 2.79096 -4.69859 0
M  V30 10535 H 961.783 0.452521 -0.692209 0
M  V30 10536 H 964.329 0.211566 -1.68376 0
M  V30 10537 H 963.101 0.815687 -3.82704 0
M  V30 10538 H 962.724 2.39987 -3.17005 0
M  V30 10539 N 963.721 1.49897 0.486681 0
M  V30 10540 C 964.651 1.7054 1.59494 0
M  V30 10541 C 965.632 0.554184 1.60819 0
M  V30 10542 O 966.817 0.791617 1.77333 0
M  V30 10543 C 963.947 1.78517 2.97908 0
M  V30 10544 C 962.901 2.93571 3.11449 0
M  V30 10545 C 962.227 2.86674 4.51356 0
M  V30 10546 C 963.527 4.34308 2.90127 0
M  V30 10547 H 965.221 2.63329 1.42472 0
M  V30 10548 H 962.767 1.2672 0.683969 0
M  V30 10549 H 964.72 1.91544 3.75352 0
M  V30 10550 H 963.444 0.823381 3.16051 0
M  V30 10551 H 962.103 2.80169 2.36433 0
M  V30 10552 H 961.751 1.88373 4.66395 0
M  V30 10553 H 961.451 3.63903 4.61355 0
M  V30 10554 H 962.975 3.01728 5.30841 0
M  V30 10555 H 964.389 4.48317 3.57331 0
M  V30 10556 H 962.786 5.12869 3.11585 0
M  V30 10557 H 963.856 4.47759 1.86119 0
M  V30 10558 N 965.199 -0.738761 1.39212 0
M  V30 10559 C 966.429 -1.5258 1.39295 0
M  V30 10560 C 966.837 -1.89194 -0.0153 0
M  V30 10561 O 966.18 -1.5435 -0.996073 0
M  V30 10562 C 966.242 -2.84462 2.19822 0
M  V30 10563 C 965.906 -2.70303 3.68491 0
M  V30 10564 C 966.903 -2.39102 4.61656 0
M  V30 10565 C 964.588 -2.87291 4.1203 0
M  V30 10566 C 966.582 -2.25066 5.96342 0
M  V30 10567 C 964.269 -2.72874 5.46793 0
M  V30 10568 C 965.267 -2.41807 6.38763 0
M  V30 10569 O 964.955 -2.27475 7.71045 0
M  V30 10570 H 964.687 -0.478236 0.477772 0
M  V30 10571 H 967.241 -0.920846 1.83602 0
M  V30 10572 H 965.471 -3.47202 1.70257 0
M  V30 10573 H 967.16 -3.46058 2.12129 0
M  V30 10574 H 967.926 -2.25632 4.2932 0
M  V30 10575 H 963.805 -3.10466 3.40781 0
M  V30 10576 H 967.349 -2.00739 6.68094 0
M  V30 10577 H 963.246 -2.85922 5.78722 0
M  V30 10578 H 964.014 -2.42574 7.81729 0
M  V30 10579 N 966.677 -1.24326 -0.968545 0
M  V30 10580 C 968.088 -1.07561 -1.52603 0
M  V30 10581 C 968.439 0.353245 -1.92994 0
M  V30 10582 O 967.564 1.24151 -1.77244 0
M  V30 10583 C 968.159 -1.94634 -2.77314 0
M  V30 10584 C 966.718 -1.82095 -3.29421 0
M  V30 10585 C 965.865 -1.8962 -2.02335 0
M  V30 10586 H 968.816 -1.37815 -0.786932 0
M  V30 10587 H 968.837 -1.47812 -3.50616 0
M  V30 10588 H 968.349 -2.98621 -2.47885 0
M  V30 10589 H 966.45 -0.809376 -3.63703 0
M  V30 10590 H 966.563 -2.66142 -3.98378 0
M  V30 10591 H 964.927 -1.33339 -2.17009 0
M  V30 10592 H 965.71 -2.95185 -1.75273 0
M  V30 10593 N 968.156 1.1691 -1.05688 0
M  V30 10594 C 969.066 2.24735 -0.67315 0
M  V30 10595 C 970.082 1.71252 0.308043 0
M  V30 10596 O 971.258 2.00772 0.158889 0
M  V30 10597 C 968.323 3.4665 -0.059026 0
M  V30 10598 C 967.384 4.15198 -1.0913 0
M  V30 10599 C 966.617 5.31292 -0.50639 0
M  V30 10600 O 966.84 5.663 0.682692 0
M  V30 10601 O 965.774 5.88923 -1.2431 0
M  V30 10602 H 969.6 2.59855 -1.57191 0
M  V30 10603 H 967.185 1.24306 -0.828751 0
M  V30 10604 H 969.067 4.20455 0.282018 0
M  V30 10605 H 967.742 3.13316 0.813304 0
M  V30 10606 H 966.649 3.43389 -1.48442 0
M  V30 10607 H 967.982 4.52571 -1.93495 0
M  V30 10608 N 969.634 0.838594 1.33437 0
M  V30 10609 C 970.864 0.446995 2.01707 0
M  V30 10610 C 971.272 -0.956335 1.63251 0
M  V30 10611 O 970.615 -1.63289 0.841566 0
M  V30 10612 C 970.677 0.487707 3.56176 0
M  V30 10613 C 970.341 1.8471 4.18009 0
M  V30 10614 C 971.338 2.81028 4.374 0
M  V30 10615 C 969.023 2.13987 4.54439 0
M  V30 10616 C 971.017 4.04785 4.92369 0
M  V30 10617 C 968.704 3.38 5.09116 0
M  V30 10618 C 969.702 4.33216 5.28027 0
M  V30 10619 O 969.39 5.55036 5.81541 0
M  V30 10620 H 969.122 0.175799 0.652741 0
M  V30 10621 H 971.676 1.13265 1.71348 0
M  V30 10622 H 969.906 -0.254719 3.8586 0
M  V30 10623 H 971.595 0.113971 4.0574 0
M  V30 10624 H 972.361 2.5971 4.09604 0
M  V30 10625 H 968.24 1.40668 4.39014 0
M  V30 10626 H 971.784 4.79114 5.07046 0
M  V30 10627 H 967.681 3.59175 5.36343 0
M  V30 10628 H 968.449 5.56772 5.99956 0
M  V30 10629 N 971.112 -1.45937 0.595003 0
M  V30 10630 C 972.075 -2.2888 -0.121102 0
M  V30 10631 C 973.075 -1.39075 -0.807149 0
M  V30 10632 O 974.265 -1.61326 -0.657228 0
M  V30 10633 C 971.397 -3.19778 -1.1813 0
M  V30 10634 H 972.59 -2.93673 0.607968 0
M  V30 10635 H 970.143 -1.5225 0.353495 0
M  V30 10636 H 970.878 -2.59759 -1.94154 0
M  V30 10637 H 970.663 -3.85914 -0.693724 0
M  V30 10638 H 972.153 -3.82176 -1.68319 0
M  V30 10639 N 972.59 -0.333456 -1.54032 0
M  V30 10640 C 973.54 0.543745 -2.21421 0
M  V30 10641 C 974.524 1.07396 -1.19812 0
M  V30 10642 O 975.716 1.00934 -1.45401 0
M  V30 10643 C 972.845 1.69925 -2.98296 0
M  V30 10644 C 971.931 1.18345 -4.07253 0
M  V30 10645 N 972.322 0.388098 -5.04309 0
M  V30 10646 C 970.62 1.46128 -4.21382 0
M  V30 10647 C 971.321 0.109383 -5.81597 0
M  V30 10648 N 970.297 0.69825 -5.39097 0
M  V30 10649 H 974.099 -0.0711018 -2.93814 0
M  V30 10650 H 971.613 -0.139807 -1.61797 0
M  V30 10651 H 973.61 2.33954 -3.45067 0
M  V30 10652 H 972.27 2.31747 -2.27428 0
M  V30 10653 H 973.281 0.0300645 -5.17891 0
M  V30 10654 H 969.958 2.08463 -3.61731 0
M  V30 10655 H 971.348 -0.531554 -6.69794 0
M  V30 10656 N 974.068 1.57479 -0.061844 0
M  V30 10657 C 975.015 2.12152 0.908862 0
M  V30 10658 C 975.985 1.03152 1.30188 0
M  V30 10659 O 977.17 1.3076 1.38948 0
M  V30 10660 C 974.31 2.6796 2.17465 0
M  V30 10661 C 973.423 3.91083 1.83517 0
M  V30 10662 C 972.558 4.35169 3.04633 0
M  V30 10663 C 971.597 5.50964 2.66655 0
M  V30 10664 N 970.734 5.90055 3.80499 0
M  V30 10665 H 975.574 2.94797 0.435743 0
M  V30 10666 H 973.111 1.45686 0.203445 0
M  V30 10667 H 975.069 2.98421 2.91548 0
M  V30 10668 H 973.699 1.88096 2.62335 0
M  V30 10669 H 972.751 3.67146 0.995381 0
M  V30 10670 H 974.063 4.75214 1.51569 0
M  V30 10671 H 973.217 4.67239 3.87005 0
M  V30 10672 H 971.956 3.49871 3.39767 0
M  V30 10673 H 970.961 5.18556 1.82703 0
M  V30 10674 H 972.186 6.37986 2.32702 0
M  V30 10675 H 970.132 5.07708 4.15414 0
M  V30 10676 H 970.049 6.68903 3.52285 0
M  V30 10677 H 971.317 6.26744 4.63479 0
M  V30 10678 N 975.546 -0.211634 1.56173 0
M  V30 10679 C 976.793 -0.93455 1.79645 0
M  V30 10680 C 977.121 -1.83936 0.632294 0
M  V30 10681 O 976.376 -1.91919 -0.382841 0
M  V30 10682 C 976.675 -1.79657 3.08963 0
M  V30 10683 C 976.341 -1.04415 4.38644 0
M  V30 10684 C 975.003 -0.836351 4.73876 0
M  V30 10685 C 977.355 -0.51355 5.18664 0
M  V30 10686 C 974.683 -0.0861976 5.86637 0
M  V30 10687 C 977.035 0.223309 6.32206 0
M  V30 10688 C 975.699 0.442279 6.66033 0
M  V30 10689 H 974.969 -0.341976 0.657368 0
M  V30 10690 H 977.616 -0.202024 1.90431 0
M  V30 10691 H 975.921 -2.59726 2.93342 0
M  V30 10692 H 977.618 -2.35823 3.24328 0
M  V30 10693 H 974.208 -1.21611 4.10985 0
M  V30 10694 H 978.392 -0.661541 4.91871 0
M  V30 10695 H 973.648 0.0935866 6.11328 0
M  V30 10696 H 977.822 0.641917 6.93435 0
M  V30 10697 H 975.449 1.02547 7.53252 0
M  V30 10698 N 977.024 -1.50153 -0.478725 0
M  V30 10699 C 978.27 -1.60998 -1.23318 0
M  V30 10700 C 978.603 -0.305868 -1.91776 0
M  V30 10701 O 977.878 0.692158 -1.81767 0
M  V30 10702 C 978.161 -2.78495 -2.28282 0
M  V30 10703 C 978.014 -4.18767 -1.64178 0
M  V30 10704 C 979.333 -2.91569 -3.2966 0
M  V30 10705 H 976.452 -0.585983 -0.446982 0
M  V30 10706 H 979.094 -1.82514 -0.528063 0
M  V30 10707 H 977.244 -2.60281 -2.8842 0
M  V30 10708 H 978.916 -4.48552 -1.07696 0
M  V30 10709 H 977.159 -4.23379 -0.94514 0
M  V30 10710 H 977.83 -4.96894 -2.40417 0
M  V30 10711 H 980.306 -3.08219 -2.79536 0
M  V30 10712 H 979.182 -3.75419 -4.0044 0
M  V30 10713 H 979.443 -2.01859 -3.93326 0
M  V30 10714 N 978.502 0.731368 -1.39602 0
M  V30 10715 C 979.412 1.87579 -1.40894 0
M  V30 10716 C 980.428 1.71336 -0.303319 0
M  V30 10717 O 981.604 1.93875 -0.545377 0
M  V30 10718 C 978.669 3.23211 -1.25442 0
M  V30 10719 C 977.73 3.51822 -2.46008 0
M  V30 10720 C 976.963 4.80982 -2.31284 0
M  V30 10721 O 977.186 5.54958 -1.31824 0
M  V30 10722 O 976.12 5.09574 -3.20341 0
M  V30 10723 H 979.946 1.89444 -2.3737 0
M  V30 10724 H 977.531 0.879675 -1.20756 0
M  V30 10725 H 979.413 4.04257 -1.18972 0
M  V30 10726 H 978.088 3.22108 -0.320637 0
M  V30 10727 H 976.995 2.70847 -2.58055 0
M  V30 10728 H 978.328 3.57707 -3.38093 0
M  V30 10729 N 979.98 1.24838 0.961938 0
M  V30 10730 C 981.257 0.99939 1.68141 0
M  V30 10731 C 981.637 -0.476588 2.0565 0
M  V30 10732 O 980.985 -1.45224 1.76415 0
M  V30 10733 C 981.195 1.92797 2.90913 0
M  V30 10734 C 982.543 2.20219 3.63027 0
M  V30 10735 O 983.567 1.90496 3.00981 0
M  V30 10736 O 982.426 2.70725 4.74731 0
M  V30 10737 H 979.52 0.37842 0.735342 0
M  V30 10738 H 982.066 1.35961 1.01551 0
M  V30 10739 H 980.838 2.92492 2.59931 0
M  V30 10740 H 980.461 1.57127 3.65235 0
M  V30 10741 N 981.458 -1.16348 1.06306 0
M  V30 10742 C 982.707 -1.8622 0.774909 0
M  V30 10743 C 983.02 -1.82598 -0.701245 0
M  V30 10744 O 984.226 -2.48051 -1.10377 0
M  V30 10745 C 982.682 -3.34182 1.33604 0
M  V30 10746 C 982.29 -3.46279 2.84245 0
M  V30 10747 C 984.034 -4.09309 1.12544 0
M  V30 10748 C 981.941 -4.88327 3.33602 0
M  V30 10749 H 980.871 -0.697574 0.286194 0
M  V30 10750 H 983.522 -1.31311 1.28179 0
M  V30 10751 H 981.904 -3.88698 0.756937 0
M  V30 10752 H 983.078 -3.01923 3.48108 0
M  V30 10753 H 981.393 -2.84585 3.03974 0
M  V30 10754 H 983.99 -5.14123 1.46909 0
M  V30 10755 H 984.333 -4.16251 0.0638129 0
M  V30 10756 H 984.866 -3.61032 1.67034 0
M  V30 10757 H 981.605 -4.86565 4.39244 0
M  V30 10758 H 981.125 -5.33307 2.74487 0
M  V30 10759 H 982.804 -5.57144 3.28937 0
M  V30 10760 N 982.937 -0.845659 -1.3299 0
M  V30 10761 C 983.869 -0.241097 -2.27928 0
M  V30 10762 C 984.882 0.582048 -1.5204 0
M  V30 10763 O 986.071 0.408008 -1.73774 0
M  V30 10764 C 983.171 0.678652 -3.32035 0
M  V30 10765 C 982.344 -0.106652 -4.3727 0
M  V30 10766 C 981.403 0.737478 -5.21006 0
M  V30 10767 O 980.429 0.174231 -5.68933 0
M  V30 10768 N 981.631 2.05372 -5.42957 0
M  V30 10769 H 984.396 -1.05685 -2.80448 0
M  V30 10770 H 981.957 -0.704771 -1.45755 0
M  V30 10771 H 983.949 1.24849 -3.84961 0
M  V30 10772 H 982.519 1.3951 -2.79742 0
M  V30 10773 H 981.739 -0.857897 -3.84752 0
M  V30 10774 H 983.027 -0.646386 -5.04677 0
M  V30 10775 H 982.425 2.53478 -5.05733 0
M  V30 10776 H 980.982 2.5719 -5.98913 0
M  V30 10777 N 984.415 1.45619 -0.602734 0
M  V30 10778 C 985.365 2.27568 0.140264 0
M  V30 10779 C 986.349 1.3704 0.84314 0
M  V30 10780 O 987.541 1.61067 0.733931 0
M  V30 10781 C 984.67 3.23812 1.14019 0
M  V30 10782 C 983.756 4.21828 0.438406 0
M  V30 10783 N 984.147 5.03148 -0.517245 0
M  V30 10784 C 982.445 4.40684 0.686588 0
M  V30 10785 C 983.146 5.74229 -0.929291 0
M  V30 10786 N 982.122 5.42909 -0.274086 0
M  V30 10787 H 985.924 2.87839 -0.5938 0
M  V30 10788 H 983.438 1.56712 -0.426033 0
M  V30 10789 H 985.435 3.8125 1.68684 0
M  V30 10790 H 984.095 2.65102 1.87486 0
M  V30 10791 H 985.106 5.1013 -0.893758 0
M  V30 10792 H 981.783 3.93102 1.4063 0
M  V30 10793 H 983.173 6.49586 -1.7172 0
M  V30 10794 N 985.893 0.34162 1.53853 0
M  V30 10795 C 987.17 -0.310664 1.93117 0
M  V30 10796 C 987.55 -1.68398 1.273 0
M  V30 10797 O 986.898 -2.24546 0.423225 0
M  V30 10798 C 987.108 -0.384867 3.46871 0
M  V30 10799 C 988.456 -0.636621 4.198 0
M  V30 10800 O 989.48 -0.467061 3.53125 0
M  V30 10801 O 988.339 -0.964962 5.37913 0
M  V30 10802 H 985.433 -0.180881 0.806977 0
M  V30 10803 H 987.979 0.392656 1.65095 0
M  V30 10804 H 986.751 0.57894 3.86994 0
M  V30 10805 H 986.374 -1.13505 3.81054 0
M  V30 10806 N 987.371 -1.57444 0.0701946 0
M  V30 10807 C 988.301 -2.15659 -0.895176 0
M  V30 10808 C 989.282 -1.08321 -1.31151 0
M  V30 10809 O 990.467 -1.36349 -1.38284 0
M  V30 10810 C 987.597 -2.71693 -2.16334 0
M  V30 10811 C 986.551 -3.84183 -1.88645 0
M  V30 10812 C 985.877 -4.26814 -3.22078 0
M  V30 10813 C 987.177 -5.08493 -1.19299 0
M  V30 10814 H 988.871 -2.96576 -0.410217 0
M  V30 10815 H 986.417 -1.42662 -0.195872 0
M  V30 10816 H 988.37 -3.11064 -2.84284 0
M  V30 10817 H 987.094 -1.87994 -2.67069 0
M  V30 10818 H 985.753 -3.45314 -1.23101 0
M  V30 10819 H 985.401 -3.40039 -3.70651 0
M  V30 10820 H 985.101 -5.02642 -3.04344 0
M  V30 10821 H 986.625 -4.68799 -3.91228 0
M  V30 10822 H 988.039 -5.4519 -1.77316 0
M  V30 10823 H 986.436 -5.89588 -1.11828 0
M  V30 10824 H 987.506 -4.84595 -0.171839 0
M  V30 10825 N 988.849 0.203349 -1.56283 0
M  V30 10826 C 990.077 0.941426 -1.84241 0
M  V30 10827 C 990.492 1.77197 -0.651658 0
M  V30 10828 O 989.849 1.78506 0.379713 0
M  V30 10829 C 989.9 1.84429 -3.10915 0
M  V30 10830 O 989.621 1.04729 -4.25398 0
M  V30 10831 C 991.122 2.69474 -3.51993 0
M  V30 10832 H 988.342 0.27507 -0.612027 0
M  V30 10833 H 990.886 0.213088 -2.03387 0
M  V30 10834 H 989.041 2.52635 -2.93691 0
M  V30 10835 H 989.455 1.66179 -4.97478 0
M  V30 10836 H 990.929 3.28495 -4.43616 0
M  V30 10837 H 991.406 3.42775 -2.74594 0
M  V30 10838 H 992.012 2.06652 -3.71719 0
M  V30 10839 N 990.327 1.50405 0.470755 0
M  V30 10840 C 991.557 1.64928 1.24428 0
M  V30 10841 C 991.965 0.332139 1.86262 0
M  V30 10842 O 991.308 -0.695919 1.70008 0
M  V30 10843 C 991.37 2.6829 2.39293 0
M  V30 10844 C 991.034 4.11835 1.98093 0
M  V30 10845 C 992.031 4.97693 1.50326 0
M  V30 10846 C 989.716 4.57753 2.06803 0
M  V30 10847 C 991.71 6.27516 1.11813 0
M  V30 10848 C 989.397 5.87582 1.67902 0
M  V30 10849 C 990.395 6.72289 1.20485 0
M  V30 10850 O 990.083 7.99694 0.821219 0
M  V30 10851 H 989.815 0.557418 0.382442 0
M  V30 10852 H 992.369 1.97382 0.568292 0
M  V30 10853 H 990.599 2.31079 3.10063 0
M  V30 10854 H 992.288 2.7203 3.01255 0
M  V30 10855 H 993.054 4.63434 1.43018 0
M  V30 10856 H 988.933 3.91966 2.42659 0
M  V30 10857 H 992.477 6.93586 0.747317 0
M  V30 10858 H 988.374 6.21362 1.74869 0
M  V30 10859 H 989.142 8.12968 0.950038 0
M  V30 10860 N 991.805 -0.723954 1.39988 0
M  V30 10861 C 992.753 -1.85938 1.39749 0
M  V30 10862 C 993.747 -1.67085 0.279112 0
M  V30 10863 O 994.953 -1.74291 0.44972 0
M  V30 10864 H 991.328 -0.612246 0.436644 0
M  V30 10865 H 993.299 -1.83255 2.355 0
M  V30 10866 C 992.048 -3.23726 1.26874 0
M  V30 10867 H 991.371 -3.38835 2.12206 0
M  V30 10868 H 992.811 -4.03332 1.30765 0
M  V30 10869 C 991.27 -3.36893 -0.0218317 0
M  V30 10870 O 991.8 -3.89363 -0.987905 0
M  V30 10871 N 990.006 -2.90465 -0.0885618 0
M  V30 10872 H 989.553 -2.47954 0.698314 0
M  V30 10873 H 989.511 -2.99654 -0.951557 0
M  V30 10874 N 993.283 -1.25346 -0.955304 0
M  V30 10875 C 994.213 -1.08152 -2.06943 0
M  V30 10876 C 995.194 0.00922598 -1.70097 0
M  V30 10877 O 996.379 -0.160181 -1.93538 0
M  V30 10878 C 993.509 -0.698745 -3.40198 0
M  V30 10879 C 992.463 -1.73965 -3.9105 0
M  V30 10880 C 991.789 -1.21158 -5.20792 0
M  V30 10881 C 993.089 -3.13829 -4.17503 0
M  V30 10882 H 994.783 -2.01345 -2.21586 0
M  V30 10883 H 992.329 -0.969459 -1.06478 0
M  V30 10884 H 994.282 -0.565394 -4.1759 0
M  V30 10885 H 993.006 0.268892 -3.25491 0
M  V30 10886 H 991.665 -1.86143 -3.15827 0
M  V30 10887 H 991.313 -0.234193 -5.02455 0
M  V30 10888 H 991.013 -1.90728 -5.55785 0
M  V30 10889 H 992.537 -1.09061 -6.00781 0
M  V30 10890 H 993.951 -3.04809 -4.85556 0
M  V30 10891 H 992.348 -3.80863 -4.63749 0
M  V30 10892 H 993.418 -3.6094 -3.23806 0
M  V30 10893 N 994.761 1.15782 -1.06922 0
M  V30 10894 C 996.177 1.38454 -0.793896 0
M  V30 10895 C 996.377 1.92238 0.603875 0
M  V30 10896 O 995.433 2.1253 1.36335 0
M  V30 10897 C 996.746 2.3595 -1.86408 0
M  V30 10898 C 998.294 2.49622 -1.88833 0
M  V30 10899 C 998.769 3.50406 -2.94923 0
M  V30 10900 N 1000.26 3.57938 -2.93997 0
M  V30 10901 C 1001 4.35728 -3.72731 0
M  V30 10902 N 1000.49 5.16888 -4.61301 0
M  V30 10903 N 1002.28 4.30774 -3.61096 0
M  V30 10904 H 994.435 0.792101 -1.97077 0
M  V30 10905 H 996.698 0.410779 -0.85438 0
M  V30 10906 H 996.404 2.03537 -2.86819 0
M  V30 10907 H 996.278 3.35677 -1.72049 0
M  V30 10908 H 998.665 2.81335 -0.890759 0
M  V30 10909 H 998.746 1.49909 -2.0727 0
M  V30 10910 H 998.39 3.19429 -3.94877 0
M  V30 10911 H 998.32 4.49864 -2.73734 0
M  V30 10912 H 1000.81 3.00007 -2.29791 0
M  V30 10913 H 1001.12 5.73477 -5.18019 0
M  V30 10914 H 999.469 5.16209 -4.65353 0
M  V30 10915 H 1002.66 3.66432 -2.91282 0
M  V30 10916 H 1002.83 4.91151 -4.22699 0
M  V30 10917 N 996.239 0.8527 1.3254 0
M  V30 10918 C 997.149 0.298744 2.3269 0
M  V30 10919 C 998.165 -0.582418 1.63963 0
M  V30 10920 O 999.341 -0.483253 1.95516 0
M  V30 10921 C 996.406 -0.505453 3.42996 0
M  V30 10922 C 995.467 0.401618 4.27417 0
M  V30 10923 C 994.7 -0.364294 5.32455 0
M  V30 10924 O 994.923 -1.59448 5.47661 0
M  V30 10925 O 993.857 0.268892 6.01299 0
M  V30 10926 H 997.683 1.12843 2.81958 0
M  V30 10927 H 995.268 0.615584 1.36128 0
M  V30 10928 H 997.15 -0.961974 4.10273 0
M  V30 10929 H 995.825 -1.31197 2.95921 0
M  V30 10930 H 994.732 0.906274 3.62957 0
M  V30 10931 H 996.065 1.17327 4.78012 0
M  V30 10932 N 997.718 -1.45297 0.610449 0
M  V30 10933 C 998.966 -2.01819 0.106548 0
M  V30 10934 C 999.287 -1.48102 -1.26849 0
M  V30 10935 O 998.557 -0.676411 -1.83852 0
M  V30 10936 H 997.137 -0.746113 0.0363982 0
M  V30 10937 H 999.799 -1.78061 0.792491 0
M  V30 10938 H 998.895 -3.12045 0.0585 0
M  V30 10939 N 999.196 -0.349774 -1.5367 0
M  V30 10940 C 1000.15 0.52023 -2.21986 0
M  V30 10941 C 1001.13 1.06119 -1.20944 0
M  V30 10942 O 1002.32 0.993857 -1.46463 0
M  V30 10943 C 999.451 1.66751 -3.00082 0
M  V30 10944 C 998.537 1.14019 -4.08486 0
M  V30 10945 N 998.928 0.334588 -5.04692 0
M  V30 10946 C 997.226 1.4165 -4.22908 0
M  V30 10947 C 997.927 0.0476906 -5.8168 0
M  V30 10948 N 996.903 0.641032 -5.39807 0
M  V30 10949 H 1000.7 -0.102261 -2.93722 0
M  V30 10950 H 998.219 -0.15696 -1.6164 0
M  V30 10951 H 1000.22 2.30281 -3.47529 0
M  V30 10952 H 998.876 2.29322 -2.29873 0
M  V30 10953 H 999.887 -0.0248665 -5.17894 0
M  V30 10954 H 996.564 2.04615 -3.63922 0
M  V30 10955 H 997.954 -0.602565 -6.69193 0
M  V30 10956 N 1000.67 1.57404 -0.0785433 0
M  V30 10957 C 1001.58 2.16612 0.900902 0
M  V30 10958 C 1002.6 1.13109 1.32221 0
M  V30 10959 O 1003.78 1.45406 1.39352 0
M  V30 10960 C 1000.84 2.7215 2.14791 0
M  V30 10961 C 999.902 3.90551 1.78237 0
M  V30 10962 C 999.135 4.43431 2.96993 0
M  V30 10963 O 999.358 3.95292 4.11218 0
M  V30 10964 O 998.292 5.34674 2.76418 0
M  V30 10965 H 1002.12 3.0068 0.427227 0
M  V30 10966 H 999.703 1.48696 0.144902 0
M  V30 10967 H 1001.58 3.07718 2.87902 0
M  V30 10968 H 1000.26 1.91139 2.61243 0
M  V30 10969 H 999.167 3.59825 1.02357 0
M  V30 10970 H 1000.5 4.72876 1.36562 0
M  V30 10971 N 1002.15 -0.195058 1.56388 0
M  V30 10972 C 1003.38 -0.935745 1.85091 0
M  V30 10973 C 1003.8 -1.76061 0.662118 0
M  V30 10974 O 1003.16 -1.77076 -0.389083 0
M  V30 10975 C 1003.21 -1.80764 3.1202 0
M  V30 10976 O 1002.31 -2.90643 2.92575 0
M  V30 10977 H 1001.65 -0.26351 0.609474 0
M  V30 10978 H 1004.18 -0.200362 2.03617 0
M  V30 10979 H 1004.19 -2.21229 3.42815 0
M  V30 10980 H 1002.87 -1.20157 3.98165 0
M  V30 10981 H 1001.44 -2.53934 2.73079 0
M  V30 10982 N 1003.63 -1.50653 -0.462772 0
M  V30 10983 C 1004.91 -1.5258 -1.22387 0
M  V30 10984 C 1005.29 -0.275263 -2.09298 0
M  V30 10985 O 1004.63 0.740943 -2.16153 0
M  V30 10986 C 1004.84 -2.82611 -2.04773 0
M  V30 10987 C 1006.19 -3.33592 -2.62681 0
M  V30 10988 O 1007.22 -2.83989 -2.15008 0
M  V30 10989 O 1006.08 -4.20081 -3.49563 0
M  V30 10990 H 1003.17 -0.612367 -0.55582 0
M  V30 10991 H 1005.72 -1.62948 -0.473914 0
M  V30 10992 H 1004.49 -3.65098 -1.40781 0
M  V30 10993 H 1004.11 -2.75286 -2.86886 0
M  V30 10994 N 1005.11 0.71652 -1.4037 0
M  V30 10995 C 1006.35 1.47857 -1.38803 0
M  V30 10996 C 1006.69 1.94197 0.0100536 0
M  V30 10997 O 1005.96 1.68093 0.978521 0
M  V30 10998 C 1006.25 2.7053 -2.37667 0
M  V30 10999 C 1006.1 2.3009 -3.86496 0
M  V30 11000 C 1007.42 3.72684 -2.34082 0
M  V30 11001 H 1004.54 0.53632 -0.505499 0
M  V30 11002 H 1007.18 0.817824 -1.71498 0
M  V30 11003 H 1005.33 3.26906 -2.09916 0
M  V30 11004 H 1007 1.79202 -4.2507 0
M  V30 11005 H 1005.24 1.62102 -4.02375 0
M  V30 11006 H 1005.91 3.18018 -4.51186 0
M  V30 11007 H 1008.39 3.25935 -2.58661 0
M  V30 11008 H 1007.27 4.56157 -3.05306 0
M  V30 11009 H 1007.53 4.20916 -1.35213 0
M  V30 11010 N 1006.59 1.25851 0.948643 0
M  V30 11011 C 1007.84 1.10347 1.68838 0
M  V30 11012 C 1008.15 -0.354262 1.92365 0
M  V30 11013 O 1009.35 -0.629847 2.64093 0
M  V30 11014 C 1007.81 1.92659 3.03991 0
M  V30 11015 C 1007.42 3.42962 2.88238 0
M  V30 11016 C 1009.16 1.85743 3.81707 0
M  V30 11017 C 1007.07 4.17547 4.18818 0
M  V30 11018 H 1006 0.409342 0.63321 0
M  V30 11019 H 1008.65 1.50098 1.05559 0
M  V30 11020 H 1007.03 1.45736 3.68208 0
M  V30 11021 H 1008.21 3.97601 2.32917 0
M  V30 11022 H 1006.52 3.51035 2.23972 0
M  V30 11023 H 1009.12 2.38758 4.78434 0
M  V30 11024 H 1009.46 0.826568 4.08012 0
M  V30 11025 H 1009.99 2.30449 3.2425 0
M  V30 11026 H 1006.73 5.21072 3.97699 0
M  V30 11027 H 1006.25 3.6769 4.73882 0
M  V30 11028 H 1007.93 4.25589 4.87322 0
M  V30 11029 N 1008.06 -1.15214 1.07534 0
M  V30 11030 C 1009.29 -1.90463 0.820883 0
M  V30 11031 C 1009.71 -1.77578 -0.620305 0
M  V30 11032 O 1009.07 -1.10976 -1.43366 0
M  V30 11033 C 1009.12 -3.38746 1.23627 0
M  V30 11034 O 1008.22 -4.1062 0.382715 0
M  V30 11035 H 1007.57 -0.59292 0.298901 0
M  V30 11036 H 1010.1 -1.45893 1.43445 0
M  V30 11037 H 1010.11 -3.89543 1.21327 0
M  V30 11038 H 1008.78 -3.47443 2.28596 0
M  V30 11039 H 1007.36 -3.69947 0.468374 0
M  V30 11040 N 1009.54 -0.859717 -1.32086 0
M  V30 11041 C 1010.96 -0.55025 -1.49815 0
M  V30 11042 C 1011.16 0.917966 -1.79376 0
M  V30 11043 O 1010.21 1.70073 -1.86632 0
M  V30 11044 C 1011.53 -1.44161 -2.6389 0
M  V30 11045 C 1013.08 -1.44257 -2.77775 0
M  V30 11046 C 1013.55 -2.31926 -3.94936 0
M  V30 11047 N 1015.04 -2.2975 -4.02206 0
M  V30 11048 C 1015.78 -2.9431 -4.92107 0
M  V30 11049 N 1015.27 -3.68001 -5.86981 0
M  V30 11050 N 1017.07 -2.83671 -4.8527 0
M  V30 11051 H 1009.22 -1.80987 -1.11164 0
M  V30 11052 H 1011.48 -0.773313 -0.548353 0
M  V30 11053 H 1011.19 -2.48588 -2.4879 0
M  V30 11054 H 1011.06 -1.13268 -3.59792 0
M  V30 11055 H 1013.45 -0.405923 -2.92295 0
M  V30 11056 H 1013.53 -1.79169 -1.82571 0
M  V30 11057 H 1013.17 -3.35661 -3.81174 0
M  V30 11058 H 1013.1 -1.94344 -4.89426 0
M  V30 11059 H 1015.59 -1.76177 -3.3432 0
M  V30 11060 H 1015.91 -4.14417 -6.52287 0
M  V30 11061 H 1014.25 -3.72109 -5.86992 0
M  V30 11062 H 1017.44 -2.25647 -4.10123 0
M  V30 11063 H 1017.61 -3.34267 -5.5513 0
M  V30 11064 N 1011.02 1.44971 -0.618145 0
M  V30 11065 C 1011.95 2.33357 0.0815955 0
M  V30 11066 C 1012.93 1.47451 0.848072 0
M  V30 11067 O 1014.12 1.762 0.816532 0
M  V30 11068 C 1011.25 3.30324 1.07253 0
M  V30 11069 C 1010.2 4.25948 0.418563 0
M  V30 11070 C 1009.53 5.12685 1.51849 0
M  V30 11071 C 1010.83 5.18024 -0.66697 0
M  V30 11072 H 1012.52 2.92115 -0.656442 0
M  V30 11073 H 1010.07 1.40465 -0.317129 0
M  V30 11074 H 1012.02 3.91033 1.57069 0
M  V30 11075 H 1010.74 2.69748 1.8413 0
M  V30 11076 H 1009.4 3.66553 -0.0588308 0
M  V30 11077 H 1009.05 4.4847 2.2778 0
M  V30 11078 H 1008.75 5.7747 1.08637 0
M  V30 11079 H 1010.27 5.76264 2.01871 0
M  V30 11080 H 1011.69 5.72744 -0.252448 0
M  V30 11081 H 1010.09 5.91343 -1.02146 0
M  V30 11082 H 1011.16 4.59817 -1.53936 0
M  V30 11083 N 1012.5 0.357919 1.53482 0
M  V30 11084 C 1013.72 -0.237769 2.06033 0
M  V30 11085 C 1014.15 -1.42292 1.23023 0
M  V30 11086 O 1013.51 -1.79604 0.247427 0
M  V30 11087 C 1013.55 -0.616806 3.55286 0
M  V30 11088 O 1012.66 -1.71503 3.75047 0
M  V30 11089 H 1012 -0.0364322 0.663 0
M  V30 11090 H 1014.53 0.516301 1.97979 0
M  V30 11091 H 1014.54 -0.88996 3.98175 0
M  V30 11092 H 1013.21 0.249825 4.15149 0
M  V30 11093 H 1011.79 -1.43803 3.44057 0
M  V30 11094 N 1013.98 -1.5736 0.0868897 0
M  V30 11095 C 1014.92 -2.14793 -0.892571 0
M  V30 11096 C 1015.92 -1.08866 -1.29787 0
M  V30 11097 O 1017.12 -1.27223 -1.27335 0
M  V30 11098 H 1013.5 -0.686998 -0.305838 0
M  V30 11099 H 1015.47 -2.95927 -0.383393 0
M  V30 11100 C 1014.22 -2.73646 -2.14507 0
M  V30 11101 H 1013.54 -3.54835 -1.84207 0
M  V30 11102 H 1014.98 -3.17409 -2.81118 0
M  V30 11103 C 1013.44 -1.69138 -2.91366 0
M  V30 11104 O 1013.97 -1.12539 -3.85614 0
M  V30 11105 N 1012.18 -1.3982 -2.54752 0
M  V30 11106 H 1011.72 -1.86035 -1.78182 0
M  V30 11107 H 1011.68 -0.701316 -3.06478 0
M  V30 11108 N 1015.45 0.186762 -1.56489 0
M  V30 11109 C 1016.4 1.23141 -1.95205 0
M  V30 11110 C 1017.37 1.44799 -0.81378 0
M  V30 11111 O 1018.56 1.57795 -1.07263 0
M  V30 11112 C 1015.7 2.56926 -2.30397 0
M  V30 11113 C 1014.81 2.42777 -3.57328 0
M  V30 11114 C 1013.94 3.69323 -3.81804 0
M  V30 11115 C 1012.98 3.50041 -5.02133 0
M  V30 11116 N 1012.12 4.68619 -5.2282 0
M  V30 11117 H 1016.96 0.894256 -2.84266 0
M  V30 11118 H 1014.5 0.430187 -1.40669 0
M  V30 11119 H 1016.46 3.3488 -2.4882 0
M  V30 11120 H 1015.09 2.88668 -1.44466 0
M  V30 11121 H 1014.14 1.56078 -3.46906 0
M  V30 11122 H 1015.45 2.24468 -4.45439 0
M  V30 11123 H 1014.6 4.55715 -4.00511 0
M  V30 11124 H 1013.34 3.90595 -2.92039 0
M  V30 11125 H 1012.35 2.62034 -4.8334 0
M  V30 11126 H 1013.57 3.30206 -5.93414 0
M  V30 11127 H 1011.52 4.90139 -4.36005 0
M  V30 11128 H 1011.44 4.53165 -6.05126 0
M  V30 11129 H 1012.7 5.56338 -5.45993 0
M  V30 11130 N 1016.93 1.50896 0.454776 0
M  V30 11131 C 1018.16 1.66759 1.23313 0
M  V30 11132 C 1018.58 0.35722 1.84677 0
M  V30 11133 O 1017.94 -0.680771 1.68033 0
M  V30 11134 C 1017.99 2.77254 2.3057 0
M  V30 11135 O 1017.09 2.39642 3.35627 0
M  V30 11136 H 1016.43 0.556599 0.362068 0
M  V30 11137 H 1018.96 1.97365 0.539274 0
M  V30 11138 H 1018.97 3.0082 2.75629 0
M  V30 11139 H 1017.65 3.72349 1.85281 0
M  V30 11140 H 1016.23 2.26584 2.96165 0
M  V30 11141 N 1018.41 -0.709066 1.40748 0
M  V30 11142 C 1019.34 -1.83293 1.35937 0
M  V30 11143 C 1020.32 -1.60983 0.22871 0
M  V30 11144 O 1021.51 -1.8391 0.413435 0
M  V30 11145 C 1018.63 -3.19746 1.11714 0
M  V30 11146 C 1017.68 -3.60872 2.27319 0
M  V30 11147 S 1018.51 -3.67233 3.89743 0
M  V30 11148 C 1019.67 -5.06434 3.67797 0
M  V30 11149 H 1019.9 -1.87095 2.31047 0
M  V30 11150 H 1017.43 -0.876479 1.27111 0
M  V30 11151 H 1019.39 -3.98526 0.984245 0
M  V30 11152 H 1018.05 -3.1357 0.182472 0
M  V30 11153 H 1017.25 -4.59965 2.06029 0
M  V30 11154 H 1016.85 -2.89366 2.36946 0
M  V30 11155 H 1019.14 -5.93544 3.26668 0
M  V30 11156 H 1020.08 -5.32761 4.66445 0
M  V30 11157 H 1020.49 -4.77336 3.01348 0
M  V30 11158 N 1019.89 -1.26353 -0.941956 0
M  V30 11159 C 1021.14 -1.12017 -1.69056 0
M  V30 11160 C 1021.47 0.335856 -1.91274 0
M  V30 11161 O 1020.74 1.24677 -1.49285 0
M  V30 11162 C 1021.03 -1.88889 -3.06583 0
M  V30 11163 C 1020.88 -3.42394 -2.91696 0
M  V30 11164 C 1022.2 -1.68209 -4.06686 0
M  V30 11165 H 1019.32 -0.408311 -0.613556 0
M  V30 11166 H 1021.96 -1.55339 -1.09407 0
M  V30 11167 H 1020.11 -1.5207 -3.57501 0
M  V30 11168 H 1021.78 -3.88962 -2.48005 0
M  V30 11169 H 1020.02 -3.69459 -2.27338 0
M  V30 11170 H 1020.7 -3.91408 -3.89235 0
M  V30 11171 H 1023.17 -2.00286 -3.64726 0
M  V30 11172 H 1022.05 -2.24412 -5.00929 0
M  V30 11173 H 1022.31 -0.626474 -4.37639 0
M  V30 11174 N 1021.37 1.14642 -1.08144 0
M  V30 11175 C 1022.59 1.90025 -0.830972 0
M  V30 11176 C 1023.02 1.77904 0.610879 0
M  V30 11177 O 1022.38 1.11735 1.42776 0
M  V30 11178 C 1022.42 3.38085 -1.25422 0
M  V30 11179 O 1021.53 4.10412 -0.404486 0
M  V30 11180 H 1020.87 0.591327 -0.302041 0
M  V30 11181 H 1023.4 1.4513 -1.44216 0
M  V30 11182 H 1023.41 3.88894 -1.23391 0
M  V30 11183 H 1022.08 3.46226 -2.30435 0
M  V30 11184 H 1020.66 3.69693 -0.487987 0
M  V30 11185 N 1022.85 0.866709 1.31628 0
M  V30 11186 C 1023.78 0.277328 2.27516 0
M  V30 11187 C 1024.79 -0.557786 1.52946 0
M  V30 11188 O 1025.98 -0.38031 1.74402 0
M  V30 11189 C 1023.08 -0.625742 3.33073 0
M  V30 11190 C 1022.25 0.176204 4.37045 0
M  V30 11191 C 1021.31 -0.654497 5.22114 0
M  V30 11192 O 1020.34 -0.0836961 5.69138 0
M  V30 11193 N 1021.54 -1.96708 5.46156 0
M  V30 11194 H 1024.3 1.10133 2.78731 0
M  V30 11195 H 1021.87 0.72787 1.44616 0
M  V30 11196 H 1023.86 -1.18709 3.86898 0
M  V30 11197 H 1022.43 -1.35042 2.81926 0
M  V30 11198 H 1021.65 0.918999 3.83338 0
M  V30 11199 H 1022.94 0.726594 5.03585 0
M  V30 11200 H 1022.33 -2.454 5.09701 0
M  V30 11201 H 1020.89 -2.47629 6.02929 0
M  V30 11202 N 1024.32 -1.44642 0.625825 0
M  V30 11203 C 1025.55 -2.06971 0.133373 0
M  V30 11204 C 1025.97 -1.46421 -1.18078 0
M  V30 11205 O 1025.33 -0.563676 -1.72315 0
M  V30 11206 C 1025.38 -3.6059 0.0265097 0
M  V30 11207 O 1024.48 -3.99615 -1.01889 0
M  V30 11208 H 1023.82 -0.658873 0.0823568 0
M  V30 11209 H 1026.35 -1.85601 0.861002 0
M  V30 11210 H 1026.36 -4.07663 -0.1658 0
M  V30 11211 H 1025.04 -4.04043 0.985986 0
M  V30 11212 H 1023.62 -3.64183 -0.801577 0
M  V30 11213 N 1025.8 -0.366053 -1.5329 0
M  V30 11214 C 1026.71 0.488111 -2.29466 0
M  V30 11215 C 1027.73 1.09219 -1.35452 0
M  V30 11216 O 1028.9 1.10303 -1.68509 0
M  V30 11217 C 1025.97 1.61202 -3.06944 0
M  V30 11218 C 1025.03 1.03543 -4.16626 0
M  V30 11219 C 1024.26 2.10578 -4.904 0
M  V30 11220 O 1024.49 3.31697 -4.6404 0
M  V30 11221 O 1023.42 1.73609 -5.76319 0
M  V30 11222 H 1027.25 -0.131789 -3.03414 0
M  V30 11223 H 1024.83 -0.130421 -1.4883 0
M  V30 11224 H 1026.71 2.26546 -3.55324 0
M  V30 11225 H 1025.39 2.21732 -2.35832 0
M  V30 11226 H 1024.29 0.345892 -3.72498 0
M  V30 11227 H 1025.63 0.474687 -4.89906 0
M  V30 11228 N 1027.28 1.57312 -0.0952337 0
M  V30 11229 C 1028.69 1.81589 0.433875 0
M  V30 11230 C 1029.04 1.01086 1.68155 0
M  V30 11231 O 1028.17 0.240272 2.15062 0
M  V30 11232 C 1028.76 3.29366 0.793931 0
M  V30 11233 C 1027.32 3.54407 1.26778 0
M  V30 11234 C 1026.47 2.76035 0.264518 0
M  V30 11235 H 1029.42 1.55426 -0.320675 0
M  V30 11236 H 1029.44 3.42697 1.65345 0
M  V30 11237 H 1028.95 3.87932 -0.114334 0
M  V30 11238 H 1027.05 3.01173 2.19376 0
M  V30 11239 H 1027.17 4.63055 1.22952 0
M  V30 11240 H 1025.53 2.43509 0.746691 0
M  V30 11241 H 1026.31 3.37349 -0.636429 0
M  V30 11242 N 1028.76 -0.17846 1.56586 0
M  V30 11243 C 1029.7 -1.22104 1.95855 0
M  V30 11244 C 1030.67 -1.44366 0.821447 0
M  V30 11245 O 1031.86 -1.57224 1.08098 0
M  V30 11246 C 1029 -2.55701 2.31757 0
M  V30 11247 C 1028.11 -2.40879 3.5861 0
M  V30 11248 C 1027.25 -3.67293 3.83757 0
M  V30 11249 C 1026.29 -3.47373 5.03982 0
M  V30 11250 N 1025.42 -4.65839 5.25298 0
M  V30 11251 H 1030.26 -0.879168 2.84736 0
M  V30 11252 H 1027.8 -0.422721 1.40895 0
M  V30 11253 H 1029.76 -3.33556 2.50592 0
M  V30 11254 H 1028.39 -2.87898 1.45995 0
M  V30 11255 H 1027.44 -1.54236 3.47729 0
M  V30 11256 H 1028.75 -2.22102 4.46623 0
M  V30 11257 H 1027.91 -4.53584 4.02922 0
M  V30 11258 H 1026.65 -3.89041 2.94107 0
M  V30 11259 H 1025.65 -2.59467 4.84723 0
M  V30 11260 H 1026.88 -3.27055 5.95157 0
M  V30 11261 H 1024.82 -4.8782 4.38598 0
M  V30 11262 H 1024.74 -4.4995 6.0752 0
M  V30 11263 H 1026.01 -5.53435 5.48936 0
M  V30 11264 N 1030.24 -1.51135 -0.446768 0
M  V30 11265 C 1031.48 -1.63013 -1.19461 0
M  V30 11266 C 1031.8 -0.344067 -1.91941 0
M  V30 11267 O 1031.07 0.639666 -1.85162 0
M  V30 11268 H 1029.65 -0.600757 -0.443959 0
M  V30 11269 H 1032.32 -1.88024 -0.513137 0
M  V30 11270 H 1031.41 -2.45322 -1.92933 0
M  V30 11271 N 1031.71 0.701592 -1.41122 0
M  V30 11272 C 1032.66 1.83691 -1.4269 0
M  V30 11273 C 1033.66 1.6662 -0.305658 0
M  V30 11274 O 1034.86 1.73554 -0.477392 0
M  V30 11275 H 1031.24 0.605222 -0.44633 0
M  V30 11276 H 1033.21 1.79485 -2.38386 0
M  V30 11277 C 1031.96 3.21666 -1.32008 0
M  V30 11278 H 1031.28 3.35416 -2.17569 0
M  V30 11279 H 1032.72 4.012 -1.37165 0
M  V30 11280 C 1031.18 3.36885 -0.0317678 0
M  V30 11281 O 1031.71 3.90885 0.925836 0
M  V30 11282 N 1029.91 2.90569 0.0423401 0
M  V30 11283 H 1029.46 2.46812 -0.737673 0
M  V30 11284 H 1029.42 3.0113 0.903764 0
M  V30 11285 N 1033.19 1.2685 0.935242 0
M  V30 11286 C 1034.44 1.12522 1.67878 0
M  V30 11287 C 1034.76 -0.330894 1.92172 0
M  V30 11288 O 1034.03 -1.23259 1.52263 0
M  V30 11289 H 1032.61 0.413418 0.622169 0
M  V30 11290 H 1035.27 1.59267 1.12339 0
M  V30 11291 H 1034.37 1.64853 2.65009 0
M  V30 11292 N 1034.67 -1.14067 1.0875 0
M  V30 11293 C 1035.62 -2.21332 0.715195 0
M  V30 11294 C 1036.61 -1.67059 -0.280679 0
M  V30 11295 O 1037.82 -1.79432 -0.142874 0
M  V30 11296 H 1034.19 -0.721126 0.213264 0
M  V30 11297 H 1036.16 -2.50002 1.62916 0
M  V30 11298 C 1034.91 -3.474 0.144401 0
M  V30 11299 H 1034.24 -3.89495 0.901884 0
M  V30 11300 H 1035.68 -4.23928 -0.0782564 0
M  V30 11301 C 1034.14 -3.17787 -1.11862 0
M  V30 11302 O 1034.67 -3.35906 -2.20295 0
M  V30 11303 N 1032.87 -2.71719 -1.03039 0
M  V30 11304 H 1032.42 -2.57175 -0.14793 0
M  V30 11305 H 1032.38 -2.52281 -1.87621 0
M  V30 11306 N 1036.15 -0.873678 -1.31166 0
M  V30 11307 C 1037.4 -0.482577 -1.95842 0
M  V30 11308 C 1037.71 0.970881 -1.69804 0
M  V30 11309 O 1038.92 1.4683 -2.28371 0
M  V30 11310 C 1037.37 -0.812074 -3.50619 0
M  V30 11311 C 1036.98 -2.28254 -3.85492 0
M  V30 11312 C 1038.72 -0.489624 -4.21667 0
M  V30 11313 C 1036.63 -2.55426 -5.33396 0
M  V30 11314 H 1035.56 -0.176736 -0.732994 0
M  V30 11315 H 1038.21 -1.06709 -1.49283 0
M  V30 11316 H 1036.59 -0.156769 -3.9569 0
M  V30 11317 H 1037.77 -2.98122 -3.51369 0
M  V30 11318 H 1036.08 -2.5714 -3.27518 0
M  V30 11319 H 1038.68 -0.669811 -5.30488 0
M  V30 11320 H 1039.02 0.570204 -4.12376 0
M  V30 11321 H 1039.56 -1.10163 -3.82242 0
M  V30 11322 H 1036.3 -3.60106 -5.47726 0
M  V30 11323 H 1035.82 -1.90156 -5.68859 0
M  V30 11324 H 1037.49 -2.40345 -6.00702 0
M  V30 11325 N 1037.63 1.44308 -0.633487 0
M  V30 11326 C 1038.57 2.32455 0.0821956 0
M  V30 11327 C 1039.57 1.47482 0.833388 0
M  V30 11328 O 1040.77 1.63812 0.746021 0
M  V30 11329 H 1037.15 0.750631 0.045352 0
M  V30 11330 H 1039.12 2.90566 -0.679282 0
M  V30 11331 C 1037.87 3.31512 1.04858 0
M  V30 11332 H 1037.19 3.96908 0.479979 0
M  V30 11333 H 1038.63 3.95865 1.51879 0
M  V30 11334 C 1037.09 2.60615 2.13498 0
M  V30 11335 O 1037.62 2.40682 3.21613 0
M  V30 11336 N 1035.83 2.20315 1.89499 0
M  V30 11337 H 1035.37 2.36726 1.01581 0
M  V30 11338 H 1035.33 1.73205 2.62388 0
M  V30 11339 N 1039.1 0.374177 1.53094 0
M  V30 11340 C 1040.05 -0.468226 2.26001 0
M  V30 11341 C 1041.02 -1.07041 1.27009 0
M  V30 11342 O 1042.21 -1.10129 1.55809 0
M  V30 11343 C 1039.35 -1.59754 3.05896 0
M  V30 11344 C 1038.46 -1.01969 4.19793 0
M  V30 11345 C 1037.59 -2.11882 4.87113 0
M  V30 11346 C 1036.63 -1.51607 5.93028 0
M  V30 11347 N 1035.77 -2.55388 6.54004 0
M  V30 11348 H 1040.61 0.159983 2.9757 0
M  V30 11349 H 1038.15 0.0907196 1.4682 0
M  V30 11350 H 1040.11 -2.26288 3.50499 0
M  V30 11351 H 1038.74 -2.19628 2.36565 0
M  V30 11352 H 1037.79 -0.244386 3.79614 0
M  V30 11353 H 1039.1 -0.539089 4.95878 0
M  V30 11354 H 1038.25 -2.86218 5.34943 0
M  V30 11355 H 1036.99 -2.63297 4.10519 0
M  V30 11356 H 1036 -0.757891 5.44551 0
M  V30 11357 H 1037.22 -1.01006 6.71546 0
M  V30 11358 H 1035.17 -3.06 5.80258 0
M  V30 11359 H 1035.09 -2.12039 7.25655 0
M  V30 11360 H 1036.35 -3.294 7.06481 0
M  V30 11361 N 1040.58 -1.57259 0.103575 0
M  V30 11362 C 1042 -1.57581 -0.253062 0
M  V30 11363 C 1042.2 -1.11531 -1.67819 0
M  V30 11364 O 1041.25 -0.795632 -2.39637 0
M  V30 11365 C 1042.57 -3.00681 -0.0337753 0
M  V30 11366 C 1044.12 -3.12837 -0.10087 0
M  V30 11367 C 1044.59 -4.57911 0.0905295 0
M  V30 11368 N 1046.08 -4.63186 0.0359789 0
M  V30 11369 C 1046.82 -5.73179 0.159199 0
M  V30 11370 N 1046.31 -6.91976 0.337728 0
M  V30 11371 N 1048.11 -5.62011 0.0998662 0
M  V30 11372 H 1040.26 -1.85499 1.0346 0
M  V30 11373 H 1042.52 -0.856584 0.406163 0
M  V30 11374 H 1042.23 -3.38602 0.950858 0
M  V30 11375 H 1042.1 -3.69207 -0.772406 0
M  V30 11376 H 1044.49 -2.74783 -1.07601 0
M  V30 11377 H 1044.57 -2.46886 0.66939 0
M  V30 11378 H 1044.21 -4.9666 1.06258 0
M  V30 11379 H 1044.14 -5.21933 -0.699528 0
M  V30 11380 H 1046.63 -3.7777 -0.099121 0
M  V30 11381 H 1046.95 -7.71641 0.423032 0
M  V30 11382 H 1045.29 -6.93996 0.373504 0
M  V30 11383 H 1048.48 -4.68084 -0.0385356 0
M  V30 11384 H 1048.65 -6.47693 0.199342 0
M  V30 11385 N 1042.06 0.170153 -1.56679 0
M  V30 11386 C 1042.99 1.21285 -1.9953 0
M  V30 11387 C 1043.97 1.46104 -0.871071 0
M  V30 11388 O 1045.16 1.57419 -1.13724 0
M  V30 11389 C 1042.29 2.5515 -2.35618 0
M  V30 11390 C 1041.24 2.44898 -3.51011 0
M  V30 11391 C 1040.57 3.83263 -3.72845 0
M  V30 11392 C 1041.87 1.95271 -4.84424 0
M  V30 11393 H 1043.56 0.856646 -2.86883 0
M  V30 11394 H 1041.11 0.410634 -1.38021 0
M  V30 11395 H 1043.06 3.28299 -2.64193 0
M  V30 11396 H 1041.78 2.92561 -1.45175 0
M  V30 11397 H 1040.44 1.74203 -3.22566 0
M  V30 11398 H 1040.09 4.18069 -2.79691 0
M  V30 11399 H 1039.79 3.77272 -4.50488 0
M  V30 11400 H 1041.31 4.57996 -4.03822 0
M  V30 11401 H 1042.73 2.58195 -5.11867 0
M  V30 11402 H 1041.13 2.00225 -5.65712 0
M  V30 11403 H 1042.2 0.90709 -4.7634 0
M  V30 11404 N 1043.54 1.5137 0.438746 0
M  V30 11405 C 1044.95 1.56462 1.01866 0
M  V30 11406 C 1045.3 0.387244 1.9234 0
M  V30 11407 O 1044.43 -0.496131 2.10636 0
M  V30 11408 C 1045.02 2.83557 1.85421 0
M  V30 11409 C 1043.58 2.91224 2.38464 0
M  V30 11410 C 1042.73 2.51109 1.17641 0
M  V30 11411 H 1045.68 1.57167 0.220072 0
M  V30 11412 H 1045.7 2.6724 2.70857 0
M  V30 11413 H 1045.21 3.69229 1.19546 0
M  V30 11414 H 1043.31 2.09979 3.07798 0
M  V30 11415 H 1043.42 3.94844 2.71358 0
M  V30 11416 H 1041.79 2.04276 1.5213 0
M  V30 11417 H 1042.57 3.39125 0.533785 0
M  V30 11418 N 1045.02 -0.694098 1.41492 0
M  V30 11419 C 1046.24 -1.48789 1.44488 0
M  V30 11420 C 1046.67 -1.88028 0.0521588 0
M  V30 11421 O 1046.02 -1.54727 -0.944952 0
M  V30 11422 C 1046.07 -2.72586 2.3607 0
M  V30 11423 O 1045.18 -3.70128 1.81876 0
M  V30 11424 H 1044.52 -0.447758 0.490315 0
M  V30 11425 H 1047.05 -0.853036 1.85969 0
M  V30 11426 H 1047.06 -3.20877 2.51995 0
M  V30 11427 H 1045.73 -2.43363 3.37264 0
M  V30 11428 H 1044.31 -3.29069 1.75408 0
M  V30 11429 N 1046.49 -1.27344 -0.928501 0
M  V30 11430 C 1047.74 -1.13019 -1.67061 0
M  V30 11431 C 1048.06 0.323614 -1.92904 0
M  V30 11432 O 1049.26 0.587752 -2.65062 0
M  V30 11433 C 1047.72 -1.97471 -3.00887 0
M  V30 11434 C 1047.33 -3.47504 -2.82746 0
M  V30 11435 C 1049.07 -1.91792 -3.78703 0
M  V30 11436 C 1046.98 -4.24158 -4.12122 0
M  V30 11437 H 1045.91 -0.419364 -0.626618 0
M  V30 11438 H 1048.56 -1.51759 -1.03158 0
M  V30 11439 H 1046.94 -1.51576 -3.65843 0
M  V30 11440 H 1048.11 -4.01256 -2.26562 0
M  V30 11441 H 1046.43 -3.54554 -2.18359 0
M  V30 11442 H 1049.03 -2.46339 -4.74575 0
M  V30 11443 H 1049.37 -0.891375 -4.06645 0
M  V30 11444 H 1049.9 -2.35578 -3.20543 0
M  V30 11445 H 1046.64 -5.27333 -3.89359 0
M  V30 11446 H 1046.16 -3.75183 -4.67972 0
M  V30 11447 H 1047.84 -4.33288 -4.80489 0
M  V30 11448 N 1047.97 1.13488 -1.09353 0
M  V30 11449 C 1049.22 1.85022 -0.830354 0
M  V30 11450 C 1049.55 1.83266 0.64242 0
M  V30 11451 O 1048.83 1.27024 1.47293 0
M  V30 11452 C 1049.11 3.33218 -1.36521 0
M  V30 11453 C 1048.96 3.43491 -2.90404 0
M  V30 11454 C 1050.28 4.28626 -0.998381 0
M  V30 11455 H 1047.4 0.671786 -0.303105 0
M  V30 11456 H 1050.04 1.33211 -1.3548 0
M  V30 11457 H 1048.19 3.77471 -0.919117 0
M  V30 11458 H 1049.86 3.07954 -3.43456 0
M  V30 11459 H 1048.11 2.84391 -3.27573 0
M  V30 11460 H 1048.78 4.47702 -3.22905 0
M  V30 11461 H 1051.25 3.9244 -1.38311 0
M  V30 11462 H 1050.13 5.30754 -1.39968 0
M  V30 11463 H 1050.39 4.42001 0.093517 0
M  V30 11464 N 1049.45 0.880621 1.30701 0
M  V30 11465 C 1050.36 0.348034 2.32004 0
M  V30 11466 C 1051.38 -0.547508 1.65162 0
M  V30 11467 O 1052.55 -0.441673 1.96497 0
M  V30 11468 C 1049.62 -0.432585 3.43991 0
M  V30 11469 C 1048.68 0.492189 4.26469 0
M  V30 11470 C 1047.91 -0.25127 5.33108 0
M  V30 11471 O 1048.14 -1.47795 5.5092 0
M  V30 11472 O 1047.07 0.396376 6.00593 0
M  V30 11473 H 1050.9 1.18798 2.79501 0
M  V30 11474 H 1048.48 0.64432 1.34792 0
M  V30 11475 H 1050.36 -0.874733 4.12221 0
M  V30 11476 H 1049.04 -1.2489 2.98637 0
M  V30 11477 H 1047.94 0.983058 3.60953 0
M  V30 11478 H 1049.28 1.27439 4.75416 0
M  V30 11479 N 1050.93 -1.4397 0.641131 0
M  V30 11480 C 1052.21 -1.95436 0.0800918 0
M  V30 11481 C 1052.59 -1.58282 -1.39678 0
M  V30 11482 O 1051.93 -0.861867 -2.11623 0
M  V30 11483 C 1052.14 -3.47589 0.313531 0
M  V30 11484 C 1053.49 -4.2407 0.212034 0
M  V30 11485 O 1054.52 -3.55353 0.245434 0
M  V30 11486 O 1053.38 -5.46356 0.125455 0
M  V30 11487 H 1050.47 -0.826834 -0.0165735 0
M  V30 11488 H 1053.02 -1.5397 0.71353 0
M  V30 11489 H 1051.79 -3.67716 1.33793 0
M  V30 11490 H 1051.41 -3.96025 -0.353563 0
M  V30 11491 N 1052.41 -0.382291 -1.52893 0
M  V30 11492 C 1053.32 0.463745 -2.29971 0
M  V30 11493 C 1054.33 1.07777 -1.36602 0
M  V30 11494 O 1055.51 1.0851 -1.69669 0
M  V30 11495 C 1052.57 1.57938 -3.08637 0
M  V30 11496 C 1051.64 0.991182 -4.17701 0
M  V30 11497 C 1050.87 2.05365 -4.92606 0
M  V30 11498 O 1051.09 3.26757 -4.67532 0
M  V30 11499 O 1050.03 1.67487 -5.78128 0
M  V30 11500 H 1053.85 -0.163962 -3.03257 0
M  V30 11501 H 1051.44 -0.146199 -1.48683 0
M  V30 11502 H 1053.32 2.22765 -3.57706 0
M  V30 11503 H 1051.99 2.19218 -2.3817 0
M  V30 11504 H 1050.9 0.306364 -3.72843 0
M  V30 11505 H 1052.23 0.422699 -4.90382 0
M  V30 11506 N 1053.89 1.57202 -0.111913 0
M  V30 11507 C 1054.8 2.18475 0.854753 0
M  V30 11508 C 1055.81 1.15888 1.29792 0
M  V30 11509 O 1056.99 1.48329 1.36237 0
M  V30 11510 C 1054.05 2.76645 2.0897 0
M  V30 11511 C 1053.11 3.94244 1.69913 0
M  V30 11512 C 1052.35 4.49631 2.8752 0
M  V30 11513 O 1052.57 4.03926 4.02741 0
M  V30 11514 O 1051.5 5.40417 2.65015 0
M  V30 11515 H 1055.33 3.01519 0.363352 0
M  V30 11516 H 1052.91 1.4897 0.113329 0
M  V30 11517 H 1054.8 3.13755 2.81311 0
M  V30 11518 H 1053.47 1.96637 2.5713 0
M  V30 11519 H 1052.38 3.61915 0.947013 0
M  V30 11520 H 1053.71 4.75666 1.26501 0
M  V30 11521 N 1055.36 -0.161842 1.56767 0
M  V30 11522 C 1056.27 -1.21996 2.00385 0
M  V30 11523 C 1057.29 -1.4789 0.916768 0
M  V30 11524 O 1058.47 -1.59852 1.22513 0
M  V30 11525 C 1055.53 -2.53695 2.36305 0
M  V30 11526 C 1054.59 -2.3558 3.58888 0
M  V30 11527 C 1053.82 -3.60998 3.93085 0
M  V30 11528 O 1054.05 -4.6657 3.28129 0
M  V30 11529 O 1052.98 -3.54544 4.86397 0
M  V30 11530 H 1056.81 -0.879701 2.9068 0
M  V30 11531 H 1054.39 -0.369437 1.4476 0
M  V30 11532 H 1056.27 -3.31366 2.60335 0
M  V30 11533 H 1054.95 -2.87281 1.49169 0
M  V30 11534 H 1053.86 -1.55908 3.40064 0
M  V30 11535 H 1055.19 -2.06915 4.46595 0
M  V30 11536 N 1056.84 -1.516 -0.430713 0
M  V30 11537 C 1057.75 -1.76247 -1.54836 0
M  V30 11538 C 1058.77 -0.646985 -1.61524 0
M  V30 11539 O 1059.94 -0.929987 -1.78643 0
M  V30 11540 C 1057.01 -1.88833 -2.90763 0
M  V30 11541 C 1056.07 -3.12701 -2.94137 0
M  V30 11542 C 1055.3 -3.24676 -4.23581 0
M  V30 11543 O 1055.53 -2.42429 -5.16318 0
M  V30 11544 O 1054.46 -4.17697 -4.33374 0
M  V30 11545 H 1058.29 -2.71069 -1.3695 0
M  V30 11546 H 1055.87 -1.36182 -0.614396 0
M  V30 11547 H 1057.75 -1.99057 -3.71422 0
M  V30 11548 H 1056.43 -0.971987 -3.08762 0
M  V30 11549 H 1055.33 -3.0795 -2.1241 0
M  V30 11550 H 1056.67 -4.04045 -2.81084 0
M  V30 11551 N 1058.32 0.686584 -1.41858 0
M  V30 11552 C 1059.23 1.83002 -1.46791 0
M  V30 11553 C 1060.25 1.70284 -0.357675 0
M  V30 11554 O 1061.42 1.92042 -0.606781 0
M  V30 11555 C 1058.49 3.19056 -1.35661 0
M  V30 11556 C 1057.55 3.43817 -2.57077 0
M  V30 11557 C 1056.78 4.7338 -2.46469 0
M  V30 11558 O 1057 5.50483 -1.49413 0
M  V30 11559 O 1055.94 4.99124 -3.36391 0
M  V30 11560 H 1059.76 1.81797 -2.43277 0
M  V30 11561 H 1057.35 0.840812 -1.23494 0
M  V30 11562 H 1059.23 4.00267 -1.31773 0
M  V30 11563 H 1057.91 3.20925 -0.422951 0
M  V30 11564 H 1056.81 2.625 -2.66541 0
M  V30 11565 H 1058.15 3.4677 -3.49302 0
M  V30 11566 N 1059.8 1.27835 0.921735 0
M  V30 11567 C 1060.71 1.12904 2.05645 0
M  V30 11568 C 1061.72 0.0575704 1.73905 0
M  V30 11569 O 1062.9 0.265261 1.99645 0
M  V30 11570 C 1059.96 0.783957 3.3772 0
M  V30 11571 C 1059.03 1.93694 3.8312 0
M  V30 11572 C 1058.26 1.60823 5.08893 0
M  V30 11573 O 1058.48 0.518873 5.68035 0
M  V30 11574 O 1057.42 2.44932 5.49811 0
M  V30 11575 H 1061.24 2.08143 2.21157 0
M  V30 11576 H 1058.83 1.07078 1.04185 0
M  V30 11577 H 1060.71 0.605107 4.17033 0
M  V30 11578 H 1059.38 -0.138849 3.23402 0
M  V30 11579 H 1058.29 2.17089 3.04669 0
M  V30 11580 H 1059.62 2.84016 4.0199 0
M  V30 11581 N 1061.28 -1.12907 1.09954 0
M  V30 11582 C 1062.52 -1.83941 0.837255 0
M  V30 11583 C 1062.84 -1.84234 -0.638984 0
M  V30 11584 O 1062.11 -1.30193 -1.46378 0
M  V30 11585 H 1060.69 -0.681115 0.306743 0
M  V30 11586 H 1063.36 -1.36743 1.38879 0
M  V30 11587 H 1062.45 -2.88289 1.19565 0
M  V30 11588 N 1062.75 -0.88754 -1.30232 0
M  V30 11589 C 1063.66 -0.360333 -2.31816 0
M  V30 11590 C 1064.68 0.538741 -1.6545 0
M  V30 11591 O 1065.86 0.431246 -1.96729 0
M  V30 11592 C 1062.92 0.414336 -3.44215 0
M  V30 11593 C 1061.98 -0.514799 -4.26202 0
M  V30 11594 C 1061.21 0.222994 -5.33234 0
M  V30 11595 O 1061.44 1.44871 -5.51696 0
M  V30 11596 O 1060.37 -0.428221 -6.00375 0
M  V30 11597 H 1064.2 -1.20279 -2.78867 0
M  V30 11598 H 1061.78 -0.651459 -1.34448 0
M  V30 11599 H 1063.66 0.852859 -4.12679 0
M  V30 11600 H 1062.34 1.23305 -2.99295 0
M  V30 11601 H 1061.25 -1.00219 -3.60426 0
M  V30 11602 H 1062.58 -1.29959 -4.74733 0
M  V30 11603 N 1064.23 1.43628 -0.648757 0
M  V30 11604 C 1065.14 2.34554 0.0463037 0
M  V30 11605 C 1066.16 1.53629 0.816952 0
M  V30 11606 O 1067.33 1.86297 0.765212 0
M  V30 11607 C 1064.4 3.3185 1.00381 0
M  V30 11608 C 1063.46 4.2868 0.230589 0
M  V30 11609 C 1062.69 5.21328 1.14249 0
M  V30 11610 O 1062.92 5.18298 2.38166 0
M  V30 11611 O 1061.85 5.98726 0.617296 0
M  V30 11612 H 1065.68 2.95475 -0.702008 0
M  V30 11613 H 1063.26 1.43694 -0.408942 0
M  V30 11614 H 1065.14 3.91692 1.5542 0
M  V30 11615 H 1063.82 2.73439 1.73243 0
M  V30 11616 H 1062.73 3.72332 -0.363282 0
M  V30 11617 H 1064.06 4.90061 -0.458368 0
M  V30 11618 N 1065.71 0.390394 1.52688 0
M  V30 11619 C 1066.62 -0.451543 2.30213 0
M  V30 11620 C 1067.64 -1.07051 1.37172 0
M  V30 11621 O 1068.81 -1.07609 1.70242 0
M  V30 11622 C 1065.88 -1.56299 3.0947 0
M  V30 11623 C 1064.94 -0.969017 4.18221 0
M  V30 11624 C 1064.17 -2.0275 4.93688 0
M  V30 11625 O 1064.39 -3.24273 4.69258 0
M  V30 11626 O 1063.33 -1.64418 5.79008 0
M  V30 11627 H 1067.15 0.180042 3.03166 0
M  V30 11628 H 1064.74 0.154082 1.48603 0
M  V30 11629 H 1066.62 -2.20864 3.58883 0
M  V30 11630 H 1065.3 -2.17952 2.3933 0
M  V30 11631 H 1064.2 -0.286587 3.73001 0
M  V30 11632 H 1065.54 -0.396687 4.90599 0
M  V30 11633 N 1067.19 -1.57141 0.120249 0
M  V30 11634 C 1068.1 -2.18925 -0.843155 0
M  V30 11635 C 1069.11 -1.16575 -1.29175 0
M  V30 11636 O 1070.29 -1.4905 -1.35448 0
M  V30 11637 C 1067.36 -2.7775 -2.075 0
M  V30 11638 C 1066.42 -3.95139 -1.6782 0
M  V30 11639 C 1065.65 -4.51149 -2.85132 0
M  V30 11640 O 1065.87 -4.06056 -4.00593 0
M  V30 11641 O 1064.81 -5.41815 -2.62145 0
M  V30 11642 H 1068.63 -3.01707 -0.347357 0
M  V30 11643 H 1066.22 -1.49028 -0.105427 0
M  V30 11644 H 1068.1 -3.15243 -2.79643 0
M  V30 11645 H 1066.77 -1.97998 -2.56083 0
M  V30 11646 H 1065.68 -3.62412 -0.927807 0
M  V30 11647 H 1067.01 -4.7633 -1.23977 0
M  V30 11648 N 1068.67 0.153526 -1.5685 0
M  V30 11649 C 1069.63 1.17362 -1.96873 0
M  V30 11650 C 1070.63 1.36219 -0.854456 0
M  V30 11651 O 1071.82 1.33322 -1.1212 0
M  V30 11652 C 1068.95 2.53523 -2.27901 0
M  V30 11653 H 1070.14 0.830432 -2.88173 0
M  V30 11654 H 1067.7 0.396633 -1.51184 0
M  V30 11655 H 1068.43 2.92824 -1.39371 0
M  V30 11656 H 1068.22 2.41198 -3.09137 0
M  V30 11657 H 1069.71 3.27006 -2.59725 0
M  V30 11658 N 1070.14 1.51827 0.422667 0
M  V30 11659 C 1071.39 1.65464 1.17258 0
M  V30 11660 C 1071.72 0.376834 1.90509 0
M  V30 11661 O 1071 -0.624219 1.84211 0
M  V30 11662 C 1071.28 2.86776 2.17788 0
M  V30 11663 C 1071.13 4.24571 1.48523 0
M  V30 11664 C 1072.45 3.03603 3.18611 0
M  V30 11665 H 1069.57 0.602169 0.424925 0
M  V30 11666 H 1072.21 1.84349 0.45996 0
M  V30 11667 H 1070.36 2.70806 2.78561 0
M  V30 11668 H 1072.04 4.5224 0.909739 0
M  V30 11669 H 1070.28 4.26595 0.787354 0
M  V30 11670 H 1070.95 5.05475 2.2181 0
M  V30 11671 H 1073.43 3.18381 2.67904 0
M  V30 11672 H 1072.3 3.90022 3.8623 0
M  V30 11673 H 1072.56 2.16318 3.85563 0
M  V30 11674 N 1071.62 -0.679052 1.4222 0
M  V30 11675 C 1072.85 -1.47248 1.46058 0
M  V30 11676 C 1073.27 -1.87962 0.0720987 0
M  V30 11677 O 1072.63 -1.5572 -0.928488 0
M  V30 11678 C 1072.68 -2.70067 2.38948 0
M  V30 11679 O 1071.78 -3.68178 1.85791 0
M  V30 11680 H 1071.12 -0.442533 0.495036 0
M  V30 11681 H 1073.65 -0.833263 1.86863 0
M  V30 11682 H 1073.66 -3.18187 2.55385 0
M  V30 11683 H 1072.34 -2.39773 3.39826 0
M  V30 11684 H 1070.92 -3.2719 1.78889 0
M  V30 11685 N 1073.1 -1.28322 -0.914942 0
M  V30 11686 C 1074.03 -1.14681 -2.03398 0
M  V30 11687 C 1075.01 -0.0448939 -1.70041 0
M  V30 11688 O 1076.2 -0.221672 -1.92931 0
M  V30 11689 C 1073.33 -0.806623 -3.37803 0
M  V30 11690 C 1072.28 -1.86318 -3.85318 0
M  V30 11691 C 1071.61 -1.37665 -5.16674 0
M  V30 11692 C 1072.91 -3.26953 -4.07307 0
M  V30 11693 H 1074.6 -2.08293 -2.15068 0
M  V30 11694 H 1072.15 -1.00284 -1.03339 0
M  V30 11695 H 1074.1 -0.69796 -4.1558 0
M  V30 11696 H 1072.82 0.165203 -3.26182 0
M  V30 11697 H 1071.48 -1.96096 -3.09745 0
M  V30 11698 H 1071.13 -0.393927 -5.01455 0
M  V30 11699 H 1070.83 -2.08313 -5.49435 0
M  V30 11700 H 1072.35 -1.28119 -5.97007 0
M  V30 11701 H 1073.77 -3.20102 -4.75613 0
M  V30 11702 H 1072.17 -3.95424 -4.51398 0
M  V30 11703 H 1073.24 -3.71059 -3.12159 0
M  V30 11704 N 1074.58 1.12322 -1.10551 0
M  V30 11705 C 1075.8 1.8822 -0.871093 0
M  V30 11706 C 1076.23 1.7916 0.573005 0
M  V30 11707 O 1075.59 1.14738 1.40374 0
M  V30 11708 C 1075.63 3.35349 -1.32565 0
M  V30 11709 O 1074.74 4.09461 -0.49145 0
M  V30 11710 H 1074.08 0.584787 -0.314516 0
M  V30 11711 H 1076.61 1.42039 -1.47262 0
M  V30 11712 H 1076.62 3.86189 -1.31612 0
M  V30 11713 H 1075.29 3.4126 -2.37728 0
M  V30 11714 H 1073.87 3.68575 -0.566294 0
M  V30 11715 N 1076.06 0.894434 1.2976 0
M  V30 11716 C 1077.47 0.566892 1.77885 0
M  V30 11717 C 1077.82 -0.917289 1.73437 0
M  V30 11718 O 1076.94 -1.71707 1.31703 0
M  V30 11719 C 1077.54 1.02227 3.2301 0
M  V30 11720 C 1076.1 0.745978 3.68934 0
M  V30 11721 C 1075.24 1.19993 2.49994 0
M  V30 11722 H 1078.2 1.0777 1.16496 0
M  V30 11723 H 1078.22 0.355281 3.78838 0
M  V30 11724 H 1077.73 2.1025 3.26215 0
M  V30 11725 H 1075.83 -0.321866 3.71207 0
M  V30 11726 H 1075.94 1.34017 4.59974 0
M  V30 11727 H 1074.31 0.619047 2.47063 0
M  V30 11728 H 1075.09 2.28811 2.55931 0
M  V30 11729 N 1077.53 -1.43282 0.656365 0
M  V30 11730 C 1078.78 -2.00996 0.168354 0
M  V30 11731 C 1079.1 -1.52408 -1.22601 0
M  V30 11732 O 1080.3 -2.02417 -1.80941 0
M  V30 11733 C 1078.76 -3.5903 0.250161 0
M  V30 11734 C 1078.37 -4.1661 1.64742 0
M  V30 11735 C 1080.11 -4.24118 -0.180084 0
M  V30 11736 C 1078.02 -5.66948 1.68299 0
M  V30 11737 H 1076.95 -0.751674 0.0591769 0
M  V30 11738 H 1079.6 -1.64216 0.818859 0
M  V30 11739 H 1077.98 -3.93226 -0.467908 0
M  V30 11740 H 1079.15 -3.93908 2.3911 0
M  V30 11741 H 1077.47 -3.63905 2.02391 0
M  V30 11742 H 1080.07 -5.34419 -0.173401 0
M  V30 11743 H 1080.41 -3.98264 -1.21208 0
M  V30 11744 H 1080.94 -3.94816 0.486343 0
M  V30 11745 H 1077.68 -5.97573 2.69419 0
M  V30 11746 H 1077.2 -5.91697 0.98261 0
M  V30 11747 H 1078.88 -6.31041 1.42813 0
M  V30 11748 N 1079.01 -0.398486 -1.52479 0
M  V30 11749 C 1080.25 0.180412 -2.03602 0
M  V30 11750 C 1080.62 1.43276 -1.27812 0
M  V30 11751 O 1081.82 2.08941 -1.69107 0
M  V30 11752 C 1080.09 0.432744 -3.5477 0
M  V30 11753 S 1081.65 0.980612 -4.27703 0
M  V30 11754 H 1078.47 0.0499981 -0.70924 0
M  V30 11755 H 1081.07 -0.548952 -1.87635 0
M  V30 11756 H 1079.77 -0.48568 -4.07516 0
M  V30 11757 H 1079.3 1.19028 -3.74961 0
M  V30 11758 H 1081.32 2.26216 -4.41634 0
M  V30 11759 N 1080.49 1.57075 -0.12858 0
M  V30 11760 C 1081.72 1.99876 0.534544 0
M  V30 11761 C 1082.13 1.00843 1.59612 0
M  V30 11762 O 1081.49 0.00268947 1.825 0
M  V30 11763 C 1081.54 3.42654 1.15198 0
M  V30 11764 O 1081.26 4.37899 0.132823 0
M  V30 11765 C 1082.76 4.00637 1.8975 0
M  V30 11766 H 1079.98 0.656073 0.140744 0
M  V30 11767 H 1082.53 2.03337 -0.217742 0
M  V30 11768 H 1080.68 3.40101 1.85499 0
M  V30 11769 H 1081.1 5.21253 0.582682 0
M  V30 11770 H 1082.57 5.02592 2.28266 0
M  V30 11771 H 1083.05 3.40313 2.7764 0
M  V30 11772 H 1083.65 4.06764 1.2419 0
M  V30 11773 N 1081.97 -0.145205 1.5693 0
M  V30 11774 C 1083.39 -0.497905 1.51635 0
M  V30 11775 C 1083.59 -1.8328 0.837301 0
M  V30 11776 O 1082.64 -2.49172 0.408584 0
M  V30 11777 C 1083.95 -0.506557 2.96403 0
M  V30 11778 C 1085.5 -0.591947 3.07352 0
M  V30 11779 C 1085.98 -0.631244 4.53629 0
M  V30 11780 N 1087.47 -0.693417 4.5798 0
M  V30 11781 C 1088.2 -0.744836 5.68542 0
M  V30 11782 N 1087.7 -0.755492 6.88668 0
M  V30 11783 N 1089.49 -0.785854 5.5658 0
M  V30 11784 H 1081.64 0.729779 1.99469 0
M  V30 11785 H 1083.91 0.266295 0.90983 0
M  V30 11786 H 1083.61 0.406127 3.49347 0
M  V30 11787 H 1083.49 -1.34383 3.5245 0
M  V30 11788 H 1085.87 -1.49505 2.54425 0
M  V30 11789 H 1085.95 0.272507 2.54344 0
M  V30 11790 H 1085.6 0.26771 5.07194 0
M  V30 11791 H 1085.53 -1.51221 5.0442 0
M  V30 11792 H 1088.02 -0.692408 3.71503 0
M  V30 11793 H 1088.33 -0.796624 7.68683 0
M  V30 11794 H 1086.68 -0.723339 6.91226 0
M  V30 11795 H 1089.87 -0.774712 4.61645 0
M  V30 11796 H 1090.04 -0.822461 6.42759 0
M  V30 11797 N 1083.45 -1.52049 -0.414609 0
M  V30 11798 C 1084.7 -1.65511 -1.15977 0
M  V30 11799 C 1085.02 -0.384703 -1.91168 0
M  V30 11800 O 1084.29 0.600247 -1.86477 0
M  V30 11801 H 1082.87 -0.610039 -0.431116 0
M  V30 11802 H 1085.53 -1.8907 -0.473139 0
M  V30 11803 H 1084.62 -2.4936 -1.87686 0
M  V30 11804 N 1084.93 0.6715 -1.42579 0
M  V30 11805 C 1086.15 1.46471 -1.46836 0
M  V30 11806 C 1086.58 1.87921 -0.0820658 0
M  V30 11807 O 1085.93 1.5621 0.920217 0
M  V30 11808 C 1085.98 2.68796 -2.40377 0
M  V30 11809 O 1085.09 3.67188 -1.87741 0
M  V30 11810 H 1084.43 0.439901 -0.497376 0
M  V30 11811 H 1086.96 0.823342 -1.87303 0
M  V30 11812 H 1086.97 3.16828 -2.57068 0
M  V30 11813 H 1085.64 2.37967 -3.41093 0
M  V30 11814 H 1084.22 3.26237 -1.80621 0
M  V30 11815 N 1086.4 1.28806 0.908124 0
M  V30 11816 C 1087.63 1.19271 1.69674 0
M  V30 11817 C 1088.05 -0.244403 1.86505 0
M  V30 11818 O 1087.41 -1.17668 1.37927 0
M  V30 11819 C 1087.46 1.9023 3.06341 0
M  V30 11820 O 1086.56 1.2136 3.94139 0
M  V30 11821 H 1085.9 0.413738 0.519343 0
M  V30 11822 H 1088.43 1.70227 1.13508 0
M  V30 11823 H 1088.44 1.98356 3.56537 0
M  V30 11824 H 1087.12 2.94762 2.93408 0
M  V30 11825 H 1085.7 1.21435 3.52573 0
M  V30 11826 N 1087.88 -1.11734 1.11145 0
M  V30 11827 C 1089.11 -1.87755 0.881062 0
M  V30 11828 C 1089.53 -1.79461 -0.563496 0
M  V30 11829 O 1088.89 -1.15481 -1.39763 0
M  V30 11830 C 1088.94 -3.34641 1.34342 0
M  V30 11831 O 1088.04 -4.09195 0.513157 0
M  V30 11832 H 1087.38 -0.583111 0.317613 0
M  V30 11833 H 1089.91 -1.41256 1.48013 0
M  V30 11834 H 1089.92 -3.85486 1.33658 0
M  V30 11835 H 1088.6 -3.39994 2.39534 0
M  V30 11836 H 1087.17 -3.68269 0.585833 0
M  V30 11837 N 1089.36 -0.901303 -1.29284 0
M  V30 11838 C 1090.78 -0.597634 -1.47988 0
M  V30 11839 C 1090.98 0.860434 -1.82205 0
M  V30 11840 O 1090.03 1.64049 -1.91948 0
M  V30 11841 C 1091.34 -1.52484 -2.5917 0
M  V30 11842 C 1092.89 -1.53021 -2.73045 0
M  V30 11843 C 1093.37 -2.44373 -3.87357 0
M  V30 11844 N 1094.86 -2.42429 -3.94693 0
M  V30 11845 C 1095.59 -3.09817 -4.82495 0
M  V30 11846 N 1095.09 -3.86489 -5.74976 0
M  V30 11847 N 1096.88 -2.98966 -4.76 0
M  V30 11848 H 1089.03 -1.84432 -1.0535 0
M  V30 11849 H 1091.3 -0.790367 -0.523473 0
M  V30 11850 H 1091 -2.56378 -2.40756 0
M  V30 11851 H 1090.88 -1.24657 -3.56006 0
M  V30 11852 H 1093.26 -0.498709 -2.90855 0
M  V30 11853 H 1093.34 -1.84886 -1.76779 0
M  V30 11854 H 1092.99 -3.47618 -3.70302 0
M  V30 11855 H 1092.92 -2.09817 -4.82995 0
M  V30 11856 H 1095.41 -1.86724 -3.28546 0
M  V30 11857 H 1095.72 -4.34959 -6.38773 0
M  V30 11858 H 1094.07 -3.90596 -5.74857 0
M  V30 11859 H 1097.26 -2.38581 -4.02737 0
M  V30 11860 H 1097.43 -3.51758 -5.44215 0
M  V30 11861 N 1090.84 1.42931 -0.663954 0
M  V30 11862 C 1091.79 2.32577 0.03287 0
M  V30 11863 C 1092.78 1.49217 0.801918 0
M  V30 11864 O 1093.99 1.65358 0.711106 0
M  V30 11865 H 1090.36 0.751424 0.0294198 0
M  V30 11866 H 1092.33 2.89059 -0.740763 0
M  V30 11867 C 1091.08 3.33661 0.978025 0
M  V30 11868 H 1090.4 3.97837 0.395681 0
M  V30 11869 H 1091.84 3.98997 1.43448 0
M  V30 11870 C 1090.3 2.65085 2.07922 0
M  V30 11871 O 1090.83 2.4745 3.16435 0
M  V30 11872 N 1089.04 2.24285 1.84783 0
M  V30 11873 H 1088.59 2.38827 0.965368 0
M  V30 11874 H 1088.54 1.78732 2.58655 0
M  V30 11875 N 1092.32 0.406567 1.52266 0
M  V30 11876 C 1093.26 -0.420182 2.26943 0
M  V30 11877 C 1094.23 -1.04323 1.29251 0
M  V30 11878 O 1095.42 -1.06799 1.5811 0
M  V30 11879 C 1092.56 -1.5323 3.09216 0
M  V30 11880 C 1091.67 -0.930419 4.21862 0
M  V30 11881 C 1090.81 -2.01502 4.91498 0
M  V30 11882 C 1089.84 -1.38994 5.9611 0
M  V30 11883 N 1088.98 -2.41458 6.59274 0
M  V30 11884 H 1093.82 0.223066 2.97164 0
M  V30 11885 H 1091.36 0.121842 1.46595 0
M  V30 11886 H 1093.32 -2.18803 3.5522 0
M  V30 11887 H 1091.95 -2.14561 2.41171 0
M  V30 11888 H 1091 -0.163809 3.80047 0
M  V30 11889 H 1092.31 -0.433785 4.9691 0
M  V30 11890 H 1091.46 -2.74807 5.40894 0
M  V30 11891 H 1090.2 -2.5453 4.16012 0
M  V30 11892 H 1089.21 -0.642213 5.46036 0
M  V30 11893 H 1090.43 -0.867386 6.73538 0
M  V30 11894 H 1088.38 -2.93623 5.86619 0
M  V30 11895 H 1088.3 -1.96599 7.2999 0
M  V30 11896 H 1089.56 -3.14341 7.13309 0
M  V30 11897 N 1093.79 -1.57004 0.136909 0
M  V30 11898 C 1094.74 -2.16246 -0.806607 0
M  V30 11899 C 1095.71 -1.09246 -1.25118 0
M  V30 11900 O 1096.9 -1.3724 -1.32551 0
M  V30 11901 C 1094.04 -2.78031 -2.04433 0
M  V30 11902 C 1093.15 -3.99393 -1.64649 0
M  V30 11903 C 1092.28 -4.49208 -2.83524 0
M  V30 11904 C 1091.32 -5.63059 -2.40064 0
M  V30 11905 N 1090.46 -6.07537 -3.51913 0
M  V30 11906 H 1095.3 -2.9654 -0.294596 0
M  V30 11907 H 1092.84 -1.46491 -0.133705 0
M  V30 11908 H 1094.8 -3.11992 -2.76978 0
M  V30 11909 H 1093.43 -2.00398 -2.53062 0
M  V30 11910 H 1092.48 -3.71477 -0.819077 0
M  V30 11911 H 1093.79 -4.81904 -1.28723 0
M  V30 11912 H 1092.94 -4.85171 -3.64271 0
M  V30 11913 H 1091.68 -3.65683 -3.22688 0
M  V30 11914 H 1090.69 -5.26682 -1.57754 0
M  V30 11915 H 1091.91 -6.48362 -2.01997 0
M  V30 11916 H 1089.86 -5.2695 -3.90717 0
M  V30 11917 H 1089.78 -6.84949 -3.1997 0
M  V30 11918 H 1091.04 -6.48143 -4.33048 0
M  V30 11919 N 1095.27 0.136881 -1.57004 0
M  V30 11920 C 1096.52 0.849031 -1.84172 0
M  V30 11921 C 1096.85 1.80359 -0.720027 0
M  V30 11922 O 1096.13 1.92538 0.275584 0
M  V30 11923 C 1096.41 1.61465 -3.21871 0
M  V30 11924 C 1096.26 0.680902 -4.44616 0
M  V30 11925 C 1097.58 2.57488 -3.56914 0
M  V30 11926 H 1094.7 0.307209 -0.669919 0
M  V30 11927 H 1097.34 0.113862 -1.89659 0
M  V30 11928 H 1095.49 2.24137 -3.17325 0
M  V30 11929 H 1097.16 0.0644094 -4.61255 0
M  V30 11930 H 1095.41 -0.00883629 -4.33799 0
M  V30 11931 H 1096.08 1.25286 -5.37594 0
M  V30 11932 H 1098.55 2.0493 -3.62136 0
M  V30 11933 H 1097.43 3.08101 -4.54274 0
M  V30 11934 H 1097.69 3.39321 -2.83397 0
M  V30 11935 N 1096.75 1.52266 0.40654 0
M  V30 11936 C 1098 1.66123 1.15097 0
M  V30 11937 C 1098.32 0.394836 1.90961 0
M  V30 11938 O 1097.59 -0.590349 1.86793 0
M  V30 11939 H 1096.17 0.612317 0.427875 0
M  V30 11940 H 1098.83 1.89318 0.463106 0
M  V30 11941 H 1097.93 2.50351 1.86361 0
M  V30 11942 N 1098.23 -0.663929 1.42933 0
M  V30 11943 C 1099.45 -1.45691 1.47611 0
M  V30 11944 C 1099.88 -1.87875 0.0920305 0
M  V30 11945 O 1099.24 -1.56696 -0.91192 0
M  V30 11946 C 1099.28 -2.67517 2.41799 0
M  V30 11947 O 1098.39 -3.66187 1.89686 0
M  V30 11948 H 1097.73 -0.437257 0.499702 0
M  V30 11949 H 1100.26 -0.813397 1.87737 0
M  V30 11950 H 1100.27 -3.1546 2.58745 0
M  V30 11951 H 1098.94 -2.36155 3.4235 0
M  V30 11952 H 1097.52 -3.25274 1.82349 0
M  V30 11953 N 1099.71 -1.29285 -0.901281 0
M  V30 11954 C 1100.65 -1.14159 -2.02659 0
M  V30 11955 C 1101.65 -0.0575887 -1.69302 0
M  V30 11956 O 1102.85 -0.217273 -1.78684 0
M  V30 11957 H 1099.23 -0.352584 -0.66422 0
M  V30 11958 H 1101.2 -2.09434 -2.12555 0
M  V30 11959 C 1099.95 -0.833253 -3.37568 0
M  V30 11960 H 1099.27 -1.65939 -3.63737 0
M  V30 11961 H 1100.71 -0.767436 -4.16997 0
M  V30 11962 C 1099.17 0.46344 -3.33697 0
M  V30 11963 O 1099.7 1.48998 -3.73045 0
M  V30 11964 N 1097.91 0.468709 -2.86795 0
M  V30 11965 H 1097.45 -0.36712 -2.54971 0
M  V30 11966 H 1097.41 1.3363 -2.84588 0
M  V30 11967 N 1101.18 1.11143 -1.11736 0
M  V30 11968 C 1102.13 2.17274 -0.778513 0
M  V30 11969 C 1103.1 1.64186 0.251405 0
M  V30 11970 O 1104.29 1.90373 0.127629 0
M  V30 11971 C 1101.43 3.44324 -0.231246 0
M  V30 11972 C 1100.54 4.114 -1.31809 0
M  V30 11973 C 1099.67 5.26146 -0.73104 0
M  V30 11974 C 1098.71 5.85112 -1.79752 0
M  V30 11975 N 1097.85 6.91247 -1.22973 0
M  V30 11976 H 1102.69 2.45603 -1.68769 0
M  V30 11977 H 1100.23 1.20565 -0.842759 0
M  V30 11978 H 1102.19 4.1707 0.104045 0
M  V30 11979 H 1100.82 3.16369 0.641119 0
M  V30 11980 H 1099.87 3.36697 -1.77029 0
M  V30 11981 H 1101.18 4.51278 -2.12485 0
M  V30 11982 H 1100.33 6.05713 -0.345987 0
M  V30 11983 H 1099.07 4.87583 0.107 0
M  V30 11984 H 1098.08 5.0422 -2.19185 0
M  V30 11985 H 1099.3 6.25741 -2.63865 0
M  V30 11986 H 1097.25 6.54696 -0.41339 0
M  V30 11987 H 1097.17 7.29796 -1.97316 0
M  V30 11988 H 1098.43 7.74611 -0.87167 0
M  V30 11989 N 1102.66 0.908147 1.28804 0
M  V30 11990 C 1103.63 0.397058 2.25735 0
M  V30 11991 C 1104.63 -0.473483 1.53671 0
M  V30 11992 O 1105.82 -0.277335 1.71978 0
M  V30 11993 C 1102.95 -0.431392 3.38159 0
M  V30 11994 H 1104.14 1.25323 2.72459 0
M  V30 11995 H 1101.69 0.687041 1.4039 0
M  V30 11996 H 1102.43 -1.3072 2.96787 0
M  V30 11997 H 1102.21 0.192502 3.91627 0
M  V30 11998 H 1103.7 -0.78 4.10251 0
M  V30 11999 N 1104.14 -1.42577 0.671525 0
M  V30 12000 C 1105.37 -2.05625 0.20044 0
M  V30 12001 C 1105.78 -1.50524 -1.14626 0
M  V30 12002 O 1105.12 -0.638468 -1.72248 0
M  V30 12003 C 1105.18 -3.59459 0.0545385 0
M  V30 12004 C 1104.85 -4.37236 1.32943 0
M  V30 12005 C 1105.84 -4.68104 2.26219 0
M  V30 12006 C 1103.53 -4.76932 1.57612 0
M  V30 12007 C 1105.52 -5.37599 3.42442 0
M  V30 12008 C 1103.21 -5.46167 2.74125 0
M  V30 12009 C 1104.21 -5.76425 3.66364 0
M  V30 12010 O 1103.9 -6.44242 4.8084 0
M  V30 12011 H 1103.63 -0.66918 0.0957843 0
M  V30 12012 H 1106.18 -1.83759 0.917701 0
M  V30 12013 H 1104.41 -3.79971 -0.718271 0
M  V30 12014 H 1106.1 -4.04152 -0.376251 0
M  V30 12015 H 1106.87 -4.37939 2.08409 0
M  V30 12016 H 1102.75 -4.52776 0.866887 0
M  V30 12017 H 1106.29 -5.61133 4.14458 0
M  V30 12018 H 1102.19 -5.75749 2.91861 0
M  V30 12019 H 1102.96 -6.62732 4.80342 0
M  V30 12020 N 1105.62 -0.414636 -1.52048 0
M  V30 12021 C 1106.55 0.399119 -2.30064 0
M  V30 12022 C 1107.53 1.04126 -1.34506 0
M  V30 12023 O 1108.71 1.04923 -1.63416 0
M  V30 12024 C 1105.84 1.51305 -3.12608 0
M  V30 12025 C 1104.8 0.995621 -4.16259 0
M  V30 12026 C 1104.12 2.20357 -4.87183 0
M  V30 12027 C 1105.42 0.0458178 -5.2228 0
M  V30 12028 H 1107.12 -0.251879 -2.98339 0
M  V30 12029 H 1104.66 -0.122579 -1.43477 0
M  V30 12030 H 1106.62 2.08936 -3.65956 0
M  V30 12031 H 1105.34 2.19201 -2.42113 0
M  V30 12032 H 1104 0.441676 -3.6393 0
M  V30 12033 H 1103.65 2.8682 -4.13211 0
M  V30 12034 H 1103.35 1.86385 -5.57256 0
M  V30 12035 H 1104.87 2.78584 -5.43345 0
M  V30 12036 H 1106.29 0.531102 -5.70835 0
M  V30 12037 H 1104.68 -0.20536 -5.99749 0
M  V30 12038 H 1105.75 -0.897807 -4.76516 0
M  V30 12039 N 1107.1 1.56929 -0.145233 0
M  V30 12040 C 1108.34 1.95681 0.50532 0
M  V30 12041 C 1108.67 1.03098 1.65516 0
M  V30 12042 O 1107.94 0.0921961 1.95683 0
M  V30 12043 H 1106.52 0.72252 0.189668 0
M  V30 12044 H 1109.18 1.93651 -0.220318 0
M  V30 12045 H 1108.27 2.99359 0.882631 0
M  V30 12046 N 1108.58 -0.128553 1.57075 0
M  V30 12047 C 1109.51 -1.15953 2.02675 0
M  V30 12048 C 1110.49 -1.43743 0.909501 0
M  V30 12049 O 1111.67 -1.54348 1.17857 0
M  V30 12050 C 1108.8 -2.48813 2.423 0
M  V30 12051 C 1107.76 -2.35506 3.57381 0
M  V30 12052 C 1107.08 -3.73243 3.82875 0
M  V30 12053 C 1108.38 -1.82359 4.89431 0
M  V30 12054 H 1110.08 -0.780283 2.89054 0
M  V30 12055 H 1107.62 -0.373896 1.39061 0
M  V30 12056 H 1109.57 -3.21179 2.72804 0
M  V30 12057 H 1108.3 -2.88609 1.52881 0
M  V30 12058 H 1106.96 -1.6559 3.27071 0
M  V30 12059 H 1106.61 -4.10507 2.90677 0
M  V30 12060 H 1106.31 -3.65195 4.60333 0
M  V30 12061 H 1107.83 -4.47128 4.15823 0
M  V30 12062 H 1109.24 -2.44533 5.18533 0
M  V30 12063 H 1107.64 -1.85156 5.70822 0
M  V30 12064 H 1108.71 -0.780478 4.78578 0
M  V30 12065 N 1110.05 -1.5248 -0.398459 0
M  V30 12066 C 1111.28 -1.71221 -1.17039 0
M  V30 12067 C 1111.7 -0.425515 -1.83224 0
M  V30 12068 O 1111.06 0.617938 -1.70444 0
M  V30 12069 C 1111.11 -2.8562 -2.20121 0
M  V30 12070 O 1110.21 -2.51934 -3.26501 0
M  V30 12071 H 1109.55 -0.569654 -0.34116 0
M  V30 12072 H 1112.08 -1.99231 -0.465652 0
M  V30 12073 H 1112.09 -3.10842 -2.64275 0
M  V30 12074 H 1110.77 -3.78969 -1.71334 0
M  V30 12075 H 1109.35 -2.3742 -2.87552 0
M  V30 12076 N 1111.53 0.65634 -1.43283 0
M  V30 12077 C 1112.46 1.78101 -1.51004 0
M  V30 12078 C 1113.44 1.66138 -0.36498 0
M  V30 12079 O 1114.63 1.85281 -0.581778 0
M  V30 12080 C 1111.76 3.16511 -1.42961 0
M  V30 12081 C 1110.71 3.43233 -2.55685 0
M  V30 12082 C 1110.04 4.81411 -2.32696 0
M  V30 12083 C 1111.34 3.38288 -3.97943 0
M  V30 12084 H 1113.03 1.71896 -2.45137 0
M  V30 12085 H 1110.58 0.825575 -1.17984 0
M  V30 12086 H 1112.53 3.94941 -1.46968 0
M  V30 12087 H 1111.25 3.23439 -0.45332 0
M  V30 12088 H 1109.91 2.67173 -2.51026 0
M  V30 12089 H 1109.56 4.85011 -1.33317 0
M  V30 12090 H 1109.26 5.00251 -3.08257 0
M  V30 12091 H 1110.79 5.62102 -2.38481 0
M  V30 12092 H 1112.2 4.06659 -4.04106 0
M  V30 12093 H 1110.6 3.68664 -4.73505 0
M  V30 12094 H 1111.67 2.36525 -4.23301 0
M  V30 12095 N 1113.01 1.29761 0.894412 0
M  V30 12096 C 1113.96 1.15341 1.99912 0
M  V30 12097 C 1114.93 0.0453488 1.66038 0
M  V30 12098 O 1116.11 0.213829 1.89598 0
M  V30 12099 C 1113.25 0.841432 3.34685 0
M  V30 12100 C 1112.36 2.03046 3.81309 0
M  V30 12101 C 1111.5 1.65739 5.04682 0
M  V30 12102 C 1110.54 2.81191 5.43689 0
M  V30 12103 N 1109.68 2.44244 6.58247 0
M  V30 12104 H 1114.52 2.09854 2.11578 0
M  V30 12105 H 1112.05 1.04421 1.03608 0
M  V30 12106 H 1114.01 0.641211 4.12243 0
M  V30 12107 H 1112.64 -0.066797 3.22731 0
M  V30 12108 H 1111.69 2.34222 2.9974 0
M  V30 12109 H 1113 2.89538 4.06164 0
M  V30 12110 H 1112.16 1.42036 5.8984 0
M  V30 12111 H 1110.9 0.764019 4.81678 0
M  V30 12112 H 1109.9 3.0557 4.57064 0
M  V30 12113 H 1111.13 3.712 5.68672 0
M  V30 12114 H 1109.07 1.57402 6.36837 0
M  V30 12115 H 1108.99 3.24269 6.82924 0
M  V30 12116 H 1110.26 2.23875 7.46659 0
M  V30 12117 N 1114.49 -1.10549 1.12324 0
M  V30 12118 C 1115.42 -2.16657 0.747826 0
M  V30 12119 C 1116.43 -1.61238 -0.224981 0
M  V30 12120 O 1117.62 -1.78499 -0.00649408 0
M  V30 12121 C 1114.72 -3.38791 0.0859421 0
M  V30 12122 C 1113.89 -4.23655 1.08792 0
M  V30 12123 C 1112.95 -5.24239 0.453871 0
M  V30 12124 O 1111.98 -5.58262 1.11052 0
M  V30 12125 N 1113.18 -5.75246 -0.779215 0
M  V30 12126 H 1115.95 -2.49472 1.66084 0
M  V30 12127 H 1113.51 -1.26157 1.01469 0
M  V30 12128 H 1115.5 -4.03182 -0.350186 0
M  V30 12129 H 1114.07 -3.03961 -0.729807 0
M  V30 12130 H 1113.29 -3.55578 1.70171 0
M  V30 12131 H 1114.58 -4.77187 1.76549 0
M  V30 12132 H 1113.98 -5.49802 -1.3317 0
M  V30 12133 H 1112.53 -6.41428 -1.15818 0
M  V30 12134 N 1115.97 -0.914965 -1.28321 0
M  V30 12135 C 1116.9 -0.421292 -2.29668 0
M  V30 12136 C 1117.88 0.511743 -1.6222 0
M  V30 12137 O 1119.06 0.419218 -1.89621 0
M  V30 12138 C 1116.19 0.338364 -3.45648 0
M  V30 12139 C 1115.15 -0.505646 -4.25003 0
M  V30 12140 C 1114.47 0.382421 -5.33331 0
M  V30 12141 C 1115.77 -1.76354 -4.91626 0
M  V30 12142 H 1117.47 -1.26826 -2.71211 0
M  V30 12143 H 1115.01 -0.611291 -1.30381 0
M  V30 12144 H 1116.96 0.694578 -4.15636 0
M  V30 12145 H 1115.69 1.21925 -3.02988 0
M  V30 12146 H 1114.35 -0.844395 -3.56743 0
M  V30 12147 H 1114 1.26189 -4.86914 0
M  V30 12148 H 1113.7 -0.17871 -5.87328 0
M  V30 12149 H 1115.22 0.73449 -6.06166 0
M  V30 12150 H 1116.63 -1.47616 -5.5397 0
M  V30 12151 H 1115.03 -2.26717 -5.55625 0
M  V30 12152 H 1116.1 -2.49063 -4.16048 0
M  V30 12153 N 1117.44 1.42219 -0.679077 0
M  V30 12154 C 1118.41 2.29197 -0.0125475 0
M  V30 12155 C 1119.41 1.43544 0.724691 0
M  V30 12156 O 1120.6 1.64884 0.562052 0
M  V30 12157 C 1117.73 3.26122 0.992846 0
M  V30 12158 H 1118.92 2.89629 -0.778154 0
M  V30 12159 H 1116.47 1.4993 -0.44166 0
M  V30 12160 H 1117.21 2.70637 1.78679 0
M  V30 12161 H 1116.99 3.89302 0.467544 0
M  V30 12162 H 1118.48 3.91339 1.45751 0
M  V30 12163 N 1118.92 0.422693 1.51826 0
M  V30 12164 C 1120.15 -0.15017 2.06856 0
M  V30 12165 C 1120.57 -1.36946 1.28948 0
M  V30 12166 O 1119.93 -1.78393 0.32338 0
M  V30 12167 C 1119.98 -0.465563 3.57582 0
M  V30 12168 O 1119.08 -1.55442 3.81984 0
M  V30 12169 H 1118.42 -0.00827931 0.663948 0
M  V30 12170 H 1120.95 0.599806 1.95611 0
M  V30 12171 H 1120.96 -0.720279 4.01592 0
M  V30 12172 H 1119.64 0.425679 4.13716 0
M  V30 12173 H 1118.21 -1.29081 3.49846 0
M  V30 12174 N 1120.4 -1.5685 0.153553 0
M  V30 12175 C 1121.65 -1.95946 -0.494936 0
M  V30 12176 C 1121.97 -1.03975 -1.64967 0
M  V30 12177 O 1121.24 -0.102572 -1.95631 0
M  V30 12178 H 1119.82 -0.723516 -0.185833 0
M  V30 12179 H 1122.48 -1.93531 0.230585 0
M  V30 12180 H 1121.58 -2.99823 -0.866743 0
M  V30 12181 N 1121.88 0.120221 -1.57141 0
M  V30 12182 C 1123.11 0.842441 -1.88972 0
M  V30 12183 C 1123.52 1.73494 -0.744671 0
M  V30 12184 O 1122.88 1.80268 0.284557 0
M  V30 12185 C 1122.93 1.67688 -3.20254 0
M  V30 12186 O 1122.65 0.820319 -4.30351 0
M  V30 12187 C 1124.15 2.50436 -3.65782 0
M  V30 12188 H 1121.37 0.242241 -0.625748 0
M  V30 12189 H 1123.91 0.104978 -2.0423 0
M  V30 12190 H 1122.07 2.36712 -3.0667 0
M  V30 12191 H 1122.48 1.39575 -5.05588 0
M  V30 12192 H 1123.96 3.04518 -4.60405 0
M  V30 12193 H 1124.43 3.27737 -2.92378 0
M  V30 12194 H 1125.04 1.86657 -3.82151 0
M  V30 12195 N 1123.36 1.52689 0.390367 0
M  V30 12196 C 1124.6 1.67914 1.13722 0
M  V30 12197 C 1124.94 0.417159 1.89667 0
M  V30 12198 O 1124.21 -0.585005 1.85494 0
M  V30 12199 C 1124.49 2.91331 2.11656 0
M  V30 12200 C 1124.35 4.27626 1.39484 0
M  V30 12201 C 1125.67 3.10293 3.12099 0
M  V30 12202 H 1122.78 0.611047 0.412057 0
M  V30 12203 H 1125.43 1.85283 0.420753 0
M  V30 12204 H 1123.58 2.76654 2.72754 0
M  V30 12205 H 1125.25 4.54068 0.813607 0
M  V30 12206 H 1123.49 4.28169 0.69669 0
M  V30 12207 H 1124.16 5.10066 2.11038 0
M  V30 12208 H 1126.64 3.23992 2.6109 0
M  V30 12209 H 1125.51 3.98127 3.7787 0
M  V30 12210 H 1125.78 2.24448 3.80888 0
M  V30 12211 N 1124.83 -0.648732 1.43629 0
M  V30 12212 C 1126.25 -1.23001 1.40455 0
M  V30 12213 C 1126.6 -1.95886 0.110897 0
M  V30 12214 O 1125.72 -2.01485 -0.789487 0
M  V30 12215 C 1126.32 -2.23716 2.54434 0
M  V30 12216 C 1124.88 -2.77311 2.54511 0
M  V30 12217 C 1124.02 -1.52024 2.31914 0
M  V30 12218 H 1126.97 -0.440473 1.52465 0
M  V30 12219 H 1126.99 -3.05979 2.26179 0
M  V30 12220 H 1126.51 -1.7064 3.48574 0
M  V30 12221 H 1124.61 -3.34437 1.64263 0
M  V30 12222 H 1124.72 -3.2455 3.52426 0
M  V30 12223 H 1123.08 -1.79531 1.80667 0
M  V30 12224 H 1123.87 -1.00876 3.28145 0
M  V30 12225 N 1126.31 -1.30234 -0.887518 0
M  V30 12226 C 1127.56 -1.1891 -1.6391 0
M  V30 12227 C 1127.89 0.256749 -1.92798 0
M  V30 12228 O 1127.14 1.20047 -1.54555 0
M  V30 12229 C 1127.44 -1.96046 -2.98832 0
M  V30 12230 C 1127.11 -3.45683 -2.89507 0
M  V30 12231 C 1125.77 -3.86489 -2.8667 0
M  V30 12232 C 1128.12 -4.40983 -2.7782 0
M  V30 12233 C 1125.45 -5.2089 -2.69982 0
M  V30 12234 C 1127.8 -5.75489 -2.6267 0
M  V30 12235 C 1126.47 -6.15537 -2.58207 0
M  V30 12236 H 1125.74 -0.435123 -0.599791 0
M  V30 12237 H 1128.38 -1.61308 -1.03209 0
M  V30 12238 H 1126.69 -1.46275 -3.6347 0
M  V30 12239 H 1128.38 -1.84678 -3.55942 0
M  V30 12240 H 1124.97 -3.13255 -2.92523 0
M  V30 12241 H 1129.16 -4.10401 -2.79079 0
M  V30 12242 H 1124.41 -5.51014 -2.6494 0
M  V30 12243 H 1128.59 -6.48973 -2.526 0
M  V30 12244 H 1126.22 -7.19627 -2.45034 0
M  V30 12245 N 1127.79 1.09952 -1.12909 0
M  V30 12246 C 1128.74 2.14591 -0.77037 0
M  V30 12247 C 1129.72 1.59204 0.233021 0
M  V30 12248 O 1130.92 1.7696 0.0377599 0
M  V30 12249 C 1128.05 3.42514 -0.232117 0
M  V30 12250 C 1127.13 4.04823 -1.26409 0
M  V30 12251 N 1127.52 4.41763 -2.46331 0
M  V30 12252 C 1125.82 4.31951 -1.11062 0
M  V30 12253 C 1126.52 4.90778 -3.12269 0
M  V30 12254 N 1125.5 4.87896 -2.39704 0
M  V30 12255 H 1129.3 2.40951 -1.68285 0
M  V30 12256 H 1126.81 1.27125 -1.0106 0
M  V30 12257 H 1128.81 4.16878 0.0430853 0
M  V30 12258 H 1127.47 3.17612 0.674757 0
M  V30 12259 H 1128.48 4.33299 -2.83677 0
M  V30 12260 H 1125.16 4.16681 -0.261456 0
M  V30 12261 H 1126.55 5.28868 -4.14425 0
M  V30 12262 N 1129.27 0.921757 1.27833 0
M  V30 12263 C 1130.49 0.574599 1.99281 0
M  V30 12264 C 1130.92 -0.838905 1.68357 0
M  V30 12265 O 1130.28 -1.56196 0.920468 0
M  V30 12266 C 1130.32 0.800027 3.51613 0
M  V30 12267 O 1129.43 -0.137215 4.12172 0
M  V30 12268 H 1128.77 0.221887 0.625829 0
M  V30 12269 H 1131.3 1.23939 1.62789 0
M  V30 12270 H 1131.31 0.71326 4.01717 0
M  V30 12271 H 1129.98 1.83042 3.73455 0
M  V30 12272 H 1128.56 -0.00103872 3.729 0
M  V30 12273 N 1130.75 -1.41857 0.686609 0
M  V30 12274 C 1132.16 -1.84439 0.289662 0
M  V30 12275 C 1132.51 -1.57462 -1.17047 0
M  V30 12276 O 1131.63 -1.04046 -1.89745 0
M  V30 12277 C 1132.23 -3.34802 0.518948 0
M  V30 12278 C 1130.79 -3.75988 0.176007 0
M  V30 12279 C 1129.93 -2.65339 0.805632 0
M  V30 12280 H 1132.89 -1.31536 0.88792 0
M  V30 12281 H 1132.91 -3.79833 -0.225209 0
M  V30 12282 H 1132.42 -3.54405 1.58173 0
M  V30 12283 H 1130.52 -3.61989 -0.882865 0
M  V30 12284 H 1130.63 -4.75009 0.624772 0
M  V30 12285 H 1129 -2.53605 0.235966 0
M  V30 12286 H 1129.78 -2.87762 1.8721 0
M  V30 12287 N 1132.22 -0.430739 -1.51599 0
M  V30 12288 C 1133.47 0.139396 -2.01218 0
M  V30 12289 C 1133.79 1.44361 -1.31982 0
M  V30 12290 O 1134.99 2.0963 -1.72533 0
M  V30 12291 C 1133.45 0.298969 -3.58656 0
M  V30 12292 C 1133.06 -0.994424 -4.36824 0
M  V30 12293 C 1134.8 0.82323 -4.16441 0
M  V30 12294 C 1132.71 -0.800855 -5.85952 0
M  V30 12295 H 1131.64 0.0558698 -0.751927 0
M  V30 12296 H 1134.29 -0.559493 -1.74762 0
M  V30 12297 H 1132.67 1.06071 -3.8153 0
M  V30 12298 H 1133.84 -1.76398 -4.257 0
M  V30 12299 H 1132.16 -1.44672 -3.9046 0
M  V30 12300 H 1134.76 0.984434 -5.2556 0
M  V30 12301 H 1135.1 1.80388 -3.75188 0
M  V30 12302 H 1135.63 0.119982 -3.97619 0
M  V30 12303 H 1132.37 -1.75369 -6.31606 0
M  V30 12304 H 1131.89 -0.0709793 -5.99758 0
M  V30 12305 H 1133.57 -0.451459 -6.45423 0
M  V30 12306 N 1133.7 1.56767 -0.161869 0
M  V30 12307 C 1135.12 1.58412 0.194403 0
M  V30 12308 C 1135.32 1.17682 1.63564 0
M  V30 12309 O 1134.37 0.884024 2.36519 0
M  V30 12310 C 1135.69 3.00599 -0.0778438 0
M  V30 12311 C 1137.24 3.12996 -0.015307 0
M  V30 12312 C 1137.71 4.57259 -0.260418 0
M  V30 12313 N 1139.2 4.62733 -0.207863 0
M  V30 12314 C 1139.94 5.72193 -0.371821 0
M  V30 12315 N 1139.43 6.90246 -0.594318 0
M  V30 12316 N 1141.23 5.61253 -0.308384 0
M  V30 12317 H 1133.38 1.81531 -1.10274 0
M  V30 12318 H 1135.64 0.840919 -0.437675 0
M  V30 12319 H 1135.35 3.3484 -1.07587 0
M  V30 12320 H 1135.22 3.71819 0.634845 0
M  V30 12321 H 1137.61 2.78588 0.97329 0
M  V30 12322 H 1137.69 2.44232 -0.760559 0
M  V30 12323 H 1137.33 4.92375 -1.24618 0
M  V30 12324 H 1137.26 5.2417 0.505334 0
M  V30 12325 H 1139.75 3.77878 -0.0411541 0
M  V30 12326 H 1140.07 7.6954 -0.70913 0
M  V30 12327 H 1138.41 6.92131 -0.630819 0
M  V30 12328 H 1141.6 4.67905 -0.135217 0
M  V30 12329 H 1141.77 6.46507 -0.439592 0
M  V30 12330 N 1135.18 -0.111886 1.57202 0
M  V30 12331 C 1136.43 -0.819623 1.85499 0
M  V30 12332 C 1136.76 -1.7919 0.748629 0
M  V30 12333 O 1136.03 -1.92952 -0.244918 0
M  V30 12334 C 1136.32 -1.56324 3.24399 0
M  V30 12335 C 1136.17 -0.610081 4.45643 0
M  V30 12336 C 1137.49 -2.51777 3.60966 0
M  V30 12337 H 1134.61 -0.296512 0.674722 0
M  V30 12338 H 1137.25 -0.0836741 1.89816 0
M  V30 12339 H 1135.4 -2.1906 3.2085 0
M  V30 12340 H 1137.07 0.00898038 4.61299 0
M  V30 12341 H 1135.32 0.0778488 4.3373 0
M  V30 12342 H 1135.99 -1.16718 5.39519 0
M  V30 12343 H 1138.46 -1.99143 3.65351 0
M  V30 12344 H 1137.34 -3.00835 4.59118 0
M  V30 12345 H 1137.6 -3.34769 2.8876 0
M  V30 12346 N 1136.66 -1.52894 -0.382264 0
M  V30 12347 C 1137.88 -1.72453 -1.15216 0
M  V30 12348 C 1138.31 -0.444925 -1.82762 0
M  V30 12349 O 1137.67 0.599825 -1.7109 0
M  V30 12350 C 1137.71 -2.87939 -2.17079 0
M  V30 12351 O 1136.82 -2.55383 -3.23811 0
M  V30 12352 H 1136.16 -0.57324 -0.335099 0
M  V30 12353 H 1138.69 -1.99713 -0.444495 0
M  V30 12354 H 1138.7 -3.13628 -2.60963 0
M  V30 12355 H 1137.37 -3.80765 -1.67305 0
M  V30 12356 H 1135.95 -2.40457 -2.85018 0
M  V30 12357 N 1138.14 0.641106 -1.43971 0
M  V30 12358 C 1139.55 0.958161 -1.27638 0
M  V30 12359 C 1139.75 2.00456 -0.204885 0
M  V30 12360 O 1138.81 2.49106 0.412606 0
M  V30 12361 C 1140.12 1.43091 -2.64472 0
M  V30 12362 C 1141.67 1.54692 -2.72102 0
M  V30 12363 C 1142.15 2.05353 -4.09382 0
M  V30 12364 N 1143.64 2.12638 -4.11509 0
M  V30 12365 C 1144.37 2.52987 -5.14573 0
M  V30 12366 N 1143.87 2.92544 -6.28005 0
M  V30 12367 N 1145.66 2.53033 -5.01927 0
M  V30 12368 H 1137.81 -0.0510973 -2.12339 0
M  V30 12369 H 1140.07 0.039748 -0.947166 0
M  V30 12370 H 1139.78 0.736389 -3.43904 0
M  V30 12371 H 1139.65 2.40375 -2.90688 0
M  V30 12372 H 1142.04 2.23242 -1.92994 0
M  V30 12373 H 1142.12 0.558083 -2.49638 0
M  V30 12374 H 1141.77 1.37401 -4.88962 0
M  V30 12375 H 1141.7 3.0509 -4.29218 0
M  V30 12376 H 1144.19 1.84792 -3.29636 0
M  V30 12377 H 1144.5 3.22116 -7.02468 0
M  V30 12378 H 1142.85 2.90319 -6.31458 0
M  V30 12379 H 1146.04 2.21514 -4.1237 0
M  V30 12380 H 1146.21 2.84155 -5.82375 0
M  V30 12381 N 1139.62 1.30703 0.880598 0
M  V30 12382 C 1140.84 1.22843 1.67106 0
M  V30 12383 C 1141.27 -0.204788 1.86982 0
M  V30 12384 O 1140.62 -1.14716 1.40392 0
M  V30 12385 C 1140.67 1.96685 3.02237 0
M  V30 12386 O 1139.78 1.29693 3.91476 0
M  V30 12387 H 1139.12 0.424661 0.51045 0
M  V30 12388 H 1141.65 1.72596 1.09871 0
M  V30 12389 H 1141.66 2.05874 3.52249 0
M  V30 12390 H 1140.33 3.00919 2.8709 0
M  V30 12391 H 1138.91 1.28886 3.49918 0
M  V30 12392 N 1141.09 -1.09351 1.1349 0
M  V30 12393 C 1142.04 -2.18099 0.808426 0
M  V30 12394 C 1143.04 -1.68099 -0.209571 0
M  V30 12395 O 1144.24 -1.79877 -0.0666417 0
M  V30 12396 H 1140.62 -0.711432 0.243658 0
M  V30 12397 H 1142.59 -2.42867 1.73373 0
M  V30 12398 C 1141.34 -3.46475 0.291615 0
M  V30 12399 H 1140.66 -3.85319 1.06627 0
M  V30 12400 H 1142.1 -4.23878 0.101616 0
M  V30 12401 C 1140.56 -3.22245 -0.982827 0
M  V30 12402 O 1141.09 -3.44947 -2.0585 0
M  V30 12403 N 1139.29 -2.75845 -0.914218 0
M  V30 12404 H 1138.84 -2.57571 -0.03872 0
M  V30 12405 H 1138.8 -2.60011 -1.76753 0
M  V30 12406 N 1142.57 -0.928524 -1.27343 0
M  V30 12407 C 1143.8 -0.58516 -1.98974 0
M  V30 12408 C 1144.22 0.829964 -1.68799 0
M  V30 12409 O 1143.58 1.55705 -0.928738 0
M  V30 12410 C 1143.63 -0.818662 -3.51184 0
M  V30 12411 O 1142.73 0.115355 -4.12239 0
M  V30 12412 H 1142.07 -0.225203 -0.624644 0
M  V30 12413 H 1144.6 -1.248 -1.6213 0
M  V30 12414 H 1144.61 -0.734554 -4.01333 0
M  V30 12415 H 1143.29 -1.8502 -3.72479 0
M  V30 12416 H 1141.86 -0.0187371 -3.72895 0
M  V30 12417 N 1144.05 1.41491 -0.694123 0
M  V30 12418 C 1145.46 1.84283 -0.299439 0
M  V30 12419 C 1145.81 1.58081 1.16211 0
M  V30 12420 O 1144.94 1.05051 1.89191 0
M  V30 12421 C 1145.53 3.34522 -0.536696 0
M  V30 12422 C 1144.09 3.7589 -0.195944 0
M  V30 12423 C 1143.24 2.64908 -0.819692 0
M  V30 12424 H 1146.19 1.31063 -0.894884 0
M  V30 12425 H 1146.21 3.79947 0.205062 0
M  V30 12426 H 1145.72 3.53561 -1.6005 0
M  V30 12427 H 1143.82 3.62452 0.863655 0
M  V30 12428 H 1143.94 4.74671 -0.649954 0
M  V30 12429 H 1142.3 2.53476 -0.249412 0
M  V30 12430 H 1143.08 2.86765 -1.88734 0
M  V30 12431 N 1145.53 0.438773 1.51369 0
M  V30 12432 C 1146.47 -0.37195 2.27783 0
M  V30 12433 C 1147.44 -1.01558 1.31435 0
M  V30 12434 O 1148.63 -1.03421 1.60339 0
M  V30 12435 C 1145.77 -1.46636 3.12397 0
M  V30 12436 C 1144.88 -0.840727 4.2374 0
M  V30 12437 C 1144.02 -1.91031 4.95662 0
M  V30 12438 C 1143.06 -1.26318 5.98924 0
M  V30 12439 N 1142.19 -2.27419 6.64248 0
M  V30 12440 H 1147.03 0.286048 2.96624 0
M  V30 12441 H 1144.57 0.152909 1.46303 0
M  V30 12442 H 1146.53 -2.11219 3.59781 0
M  V30 12443 H 1145.16 -2.09397 2.45668 0
M  V30 12444 H 1144.21 -0.0831588 3.80309 0
M  V30 12445 H 1145.52 -0.328285 4.97719 0
M  V30 12446 H 1144.68 -2.63272 5.46601 0
M  V30 12447 H 1143.42 -2.45649 4.21317 0
M  V30 12448 H 1142.42 -0.526246 5.47276 0
M  V30 12449 H 1143.65 -0.724324 6.75226 0
M  V30 12450 H 1141.59 -2.81114 5.92715 0
M  V30 12451 H 1141.51 -1.81071 7.33996 0
M  V30 12452 H 1142.78 -2.99139 7.19817 0
M  V30 12453 N 1147.01 -1.56678 0.170181 0
M  V30 12454 C 1148.23 -2.01223 -0.481362 0
M  V30 12455 C 1148.65 -1.05039 -1.56883 0
M  V30 12456 O 1148.01 -0.0510751 -1.82429 0
M  V30 12457 C 1148.06 -3.45588 -1.06073 0
M  V30 12458 O 1147.78 -4.38097 -0.0166754 0
M  V30 12459 C 1149.28 -4.05527 -1.79061 0
M  V30 12460 H 1146.5 -0.659574 -0.1233 0
M  V30 12461 H 1149.04 -2.02689 0.271576 0
M  V30 12462 H 1147.2 -3.449 -1.76417 0
M  V30 12463 H 1147.61 -5.22615 -0.444276 0
M  V30 12464 H 1149.09 -5.08467 -2.1486 0
M  V30 12465 H 1149.56 -3.47554 -2.68519 0
M  V30 12466 H 1150.17 -4.09914 -1.13361 0
M  V30 12467 N 1148.48 0.103547 -1.57259 0
M  V30 12468 C 1149.43 1.12621 -2.01458 0
M  V30 12469 C 1150.4 1.40282 -0.889391 0
M  V30 12470 O 1151.59 1.51887 -1.15477 0
M  V30 12471 C 1148.73 2.44352 -2.43692 0
M  V30 12472 C 1147.84 2.23495 -3.69695 0
M  V30 12473 C 1146.97 3.48565 -4.00844 0
M  V30 12474 C 1146.01 3.22932 -5.19982 0
M  V30 12475 N 1145.15 4.40246 -5.46926 0
M  V30 12476 H 1149.99 0.742315 -2.88606 0
M  V30 12477 H 1147.53 0.355016 -1.42752 0
M  V30 12478 H 1149.48 3.2122 -2.66221 0
M  V30 12479 H 1148.11 2.80605 -1.59565 0
M  V30 12480 H 1147.17 1.3747 -3.54692 0
M  V30 12481 H 1148.48 2.0054 -4.56711 0
M  V30 12482 H 1147.63 4.33844 -4.24104 0
M  V30 12483 H 1146.37 3.74565 -3.12333 0
M  V30 12484 H 1145.38 2.36045 -4.96551 0
M  V30 12485 H 1146.6 2.98286 -6.10084 0
M  V30 12486 H 1144.55 4.66338 -4.61373 0
M  V30 12487 H 1144.46 4.20452 -6.28296 0
M  V30 12488 H 1145.73 5.26614 -5.74716 0
M  V30 12489 N 1149.96 1.53094 0.37415 0
M  V30 12490 C 1150.89 1.75199 1.47776 0
M  V30 12491 C 1151.91 0.632627 1.50006 0
M  V30 12492 O 1153.1 0.908688 1.5364 0
M  V30 12493 C 1150.2 1.80909 2.86575 0
M  V30 12494 C 1149.37 3.10432 3.08141 0
M  V30 12495 C 1148.43 3.07495 4.27005 0
M  V30 12496 O 1147.45 3.81319 4.22592 0
M  V30 12497 N 1148.66 2.27715 5.33972 0
M  V30 12498 H 1151.42 2.70423 1.29196 0
M  V30 12499 H 1148.98 1.51766 0.563802 0
M  V30 12500 H 1150.97 1.76432 3.64217 0
M  V30 12501 H 1149.54 0.930074 2.98443 0
M  V30 12502 H 1148.76 3.2828 2.18233 0
M  V30 12503 H 1150.05 3.96047 3.19413 0
M  V30 12504 H 1149.45 1.67231 5.40417 0
M  V30 12505 H 1148.01 2.29065 6.10223 0
M  V30 12506 N 1151.44 -0.633461 1.44309 0
M  V30 12507 C 1152.35 -1.77428 1.53481 0
M  V30 12508 C 1153.37 -1.68839 0.420628 0
M  V30 12509 O 1154.54 -1.89658 0.677638 0
M  V30 12510 C 1151.61 -3.13801 1.47409 0
M  V30 12511 C 1150.67 -3.34039 2.6966 0
M  V30 12512 C 1149.9 -4.63907 2.63868 0
M  V30 12513 O 1150.12 -5.44559 1.69741 0
M  V30 12514 O 1149.06 -4.86295 3.54684 0
M  V30 12515 H 1152.88 -1.72642 2.49857 0
M  V30 12516 H 1150.47 -0.794399 1.26529 0
M  V30 12517 H 1152.35 -3.95101 1.46537 0
M  V30 12518 H 1151.03 -3.19134 0.541769 0
M  V30 12519 H 1149.93 -2.52427 2.761 0
M  V30 12520 H 1151.27 -3.33566 3.61931 0
M  V30 12521 N 1152.92 -1.31168 -0.873655 0
M  V30 12522 C 1154.17 -1.20003 -1.62118 0
M  V30 12523 C 1154.48 0.241505 -1.94103 0
M  V30 12524 O 1155.69 0.474801 -2.67316 0
M  V30 12525 C 1154.14 -2.10055 -2.92241 0
M  V30 12526 C 1153.75 -3.59183 -2.67752 0
M  V30 12527 C 1155.49 -2.07681 -3.70228 0
M  V30 12528 C 1153.4 -4.41255 -3.93761 0
M  V30 12529 H 1152.33 -0.445564 -0.608267 0
M  V30 12530 H 1154.98 -1.55997 -0.966287 0
M  V30 12531 H 1153.36 -1.66956 -3.59085 0
M  V30 12532 H 1154.54 -4.10504 -2.09339 0
M  V30 12533 H 1152.85 -3.63496 -2.03125 0
M  V30 12534 H 1155.45 -2.66246 -4.637 0
M  V30 12535 H 1155.79 -1.06304 -4.02499 0
M  V30 12536 H 1156.33 -2.48961 -3.10263 0
M  V30 12537 H 1153.07 -5.43372 -3.66643 0
M  V30 12538 H 1152.59 -3.94694 -4.51638 0
M  V30 12539 H 1154.26 -4.53278 -4.6168 0
M  V30 12540 N 1154.4 1.08748 -1.14068 0
M  V30 12541 C 1155.67 1.7769 -0.81766 0
M  V30 12542 C 1156.05 1.99522 0.689501 0
M  V30 12543 O 1155.4 1.60222 1.62914 0
M  V30 12544 C 1155.61 3.09517 -1.61245 0
M  V30 12545 C 1156.96 3.84108 -1.80958 0
M  V30 12546 O 1157.98 3.19289 -1.57902 0
M  V30 12547 O 1156.84 5.00491 -2.19479 0
M  V30 12548 H 1153.94 0.770953 -0.299265 0
M  V30 12549 H 1156.48 1.15242 -1.24569 0
M  V30 12550 H 1155.25 2.89155 -2.63638 0
M  V30 12551 H 1154.88 3.79692 -1.17982 0
M  V30 12552 N 1155.87 0.935264 1.26849 0
M  V30 12553 C 1157.29 0.623198 1.75992 0
M  V30 12554 C 1157.64 -0.861647 1.76267 0
M  V30 12555 O 1156.76 -1.6743 1.37099 0
M  V30 12556 C 1157.36 1.12451 3.19594 0
M  V30 12557 C 1155.92 0.862974 3.66374 0
M  V30 12558 C 1155.06 1.27886 2.4605 0
M  V30 12559 H 1158.01 1.11422 1.13008 0
M  V30 12560 H 1158.03 0.475626 3.77516 0
M  V30 12561 H 1157.55 2.20522 3.19361 0
M  V30 12562 H 1155.65 -0.203606 3.72043 0
M  V30 12563 H 1155.76 1.48582 4.55478 0
M  V30 12564 H 1154.12 0.697335 2.44968 0
M  V30 12565 H 1154.91 2.36837 2.48522 0
M  V30 12566 N 1157.35 -1.41121 0.701616 0
M  V30 12567 C 1158.76 -1.84122 0.309208 0
M  V30 12568 C 1159.11 -1.58695 -1.15371 0
M  V30 12569 O 1158.24 -1.06053 -1.88631 0
M  V30 12570 C 1158.83 -3.34233 0.554429 0
M  V30 12571 C 1157.39 -3.7578 0.215876 0
M  V30 12572 C 1156.54 -2.6447 0.833729 0
M  V30 12573 H 1159.49 -1.30587 0.901822 0
M  V30 12574 H 1159.51 -3.8005 -0.18491 0
M  V30 12575 H 1159.02 -3.52707 1.61923 0
M  V30 12576 H 1157.13 -3.62905 -0.844421 0
M  V30 12577 H 1157.24 -4.74319 0.675118 0
M  V30 12578 H 1155.6 -2.5334 0.262851 0
M  V30 12579 H 1156.39 -2.85761 1.90252 0
M  V30 12580 N 1158.83 -0.446794 -1.51134 0
M  V30 12581 C 1159.78 0.374154 -2.29571 0
M  V30 12582 C 1160.77 1.01241 -1.35818 0
M  V30 12583 O 1161.98 0.946293 -1.53119 0
M  V30 12584 H 1158.35 0.13948 -0.738951 0
M  V30 12585 H 1160.32 -0.308117 -2.96805 0
M  V30 12586 C 1159.07 1.45754 -3.15675 0
M  V30 12587 H 1158.4 0.975787 -3.87709 0
M  V30 12588 H 1159.84 2.00502 -3.73597 0
M  V30 12589 C 1158.3 2.44606 -2.31667 0
M  V30 12590 O 1158.83 3.49352 -1.98284 0
M  V30 12591 N 1157.03 2.15725 -1.94708 0
M  V30 12592 H 1156.58 1.30572 -2.22056 0
M  V30 12593 H 1156.54 2.82103 -1.38798 0
M  V30 12594 N 1160.31 1.56586 -0.178487 0
M  V30 12595 C 1161.26 2.1491 0.761432 0
M  V30 12596 C 1162.24 1.08528 1.18788 0
M  V30 12597 O 1163.43 1.34633 1.14904 0
M  V30 12598 C 1160.56 2.79902 1.98771 0
M  V30 12599 C 1159.65 3.93452 1.58293 0
M  V30 12600 N 1160.04 4.97942 0.888124 0
M  V30 12601 C 1158.34 4.04745 1.87343 0
M  V30 12602 C 1159.04 5.7762 0.68772 0
M  V30 12603 N 1158.02 5.2947 1.23136 0
M  V30 12604 H 1161.82 2.93063 0.221693 0
M  V30 12605 H 1159.33 1.62385 0.0219283 0
M  V30 12606 H 1161.33 3.20067 2.67138 0
M  V30 12607 H 1159.99 2.03232 2.53233 0
M  V30 12608 H 1161 5.1502 0.545387 0
M  V30 12609 H 1157.68 3.39186 2.43432 0
M  V30 12610 H 1159.07 6.71759 0.13775 0
M  V30 12611 N 1161.79 -0.095206 1.57312 0
M  V30 12612 C 1162.73 -1.13438 2.03063 0
M  V30 12613 C 1163.73 -1.41478 0.931679 0
M  V30 12614 O 1164.93 -1.41161 1.11686 0
M  V30 12615 H 1161.31 -0.383042 0.647134 0
M  V30 12616 H 1163.28 -0.722186 2.89529 0
M  V30 12617 C 1162.03 -2.44641 2.47075 0
M  V30 12618 H 1161.35 -2.23908 3.31218 0
M  V30 12619 H 1162.79 -3.15855 2.82863 0
M  V30 12620 C 1161.25 -3.08931 1.34399 0
M  V30 12621 O 1161.78 -3.96021 0.673071 0
M  V30 12622 N 1159.99 -2.6918 1.09501 0
M  V30 12623 H 1159.53 -1.98451 1.6424 0
M  V30 12624 H 1159.49 -3.12522 0.34311 0
M  V30 12625 N 1163.26 -1.53291 -0.366026 0
M  V30 12626 C 1164.21 -1.79697 -1.44836 0
M  V30 12627 C 1165.18 -0.641321 -1.5322 0
M  V30 12628 O 1166.37 -0.883453 -1.69115 0
M  V30 12629 C 1163.51 -1.99223 -2.81788 0
M  V30 12630 C 1162.62 -3.26938 -2.82375 0
M  V30 12631 C 1161.75 -3.36654 -4.10898 0
M  V30 12632 C 1160.79 -4.58404 -4.05626 0
M  V30 12633 N 1159.93 -4.65275 -5.25798 0
M  V30 12634 H 1164.77 -2.72053 -1.21619 0
M  V30 12635 H 1162.31 -1.34768 -0.589577 0
M  V30 12636 H 1164.27 -2.0853 -3.61346 0
M  V30 12637 H 1162.9 -1.10204 -3.03406 0
M  V30 12638 H 1161.95 -3.26587 -1.95052 0
M  V30 12639 H 1163.26 -4.16573 -2.74351 0
M  V30 12640 H 1162.41 -3.4527 -4.98872 0
M  V30 12641 H 1161.15 -2.45035 -4.21674 0
M  V30 12642 H 1160.16 -4.49888 -3.16039 0
M  V30 12643 H 1161.38 -5.51364 -3.96453 0
M  V30 12644 H 1159.33 -3.76557 -5.3716 0
M  V30 12645 H 1159.25 -5.48814 -5.19942 0
M  V30 12646 H 1160.51 -4.78175 -6.15605 0
M  V30 12647 N 1164.74 0.6258 -1.44643 0
M  V30 12648 C 1166.16 0.944569 -1.28647 0
M  V30 12649 C 1166.36 2.00227 -0.226134 0
M  V30 12650 O 1165.41 2.4953 0.386161 0
M  V30 12651 C 1166.73 1.40278 -2.65975 0
M  V30 12652 C 1168.28 1.51797 -2.73727 0
M  V30 12653 C 1168.75 2.01 -4.11537 0
M  V30 12654 N 1170.24 2.08262 -4.13741 0
M  V30 12655 C 1170.98 2.47515 -5.17227 0
M  V30 12656 N 1170.47 2.85867 -6.31072 0
M  V30 12657 N 1172.27 2.47695 -5.04583 0
M  V30 12658 H 1164.42 -0.0736157 -2.12272 0
M  V30 12659 H 1166.68 0.0296998 -0.947535 0
M  V30 12660 H 1166.39 0.699871 -3.44666 0
M  V30 12661 H 1166.26 2.37279 -2.93221 0
M  V30 12662 H 1168.65 2.21183 -1.95351 0
M  V30 12663 H 1168.73 0.531574 -2.50216 0
M  V30 12664 H 1168.37 1.32207 -4.90391 0
M  V30 12665 H 1168.3 3.0052 -4.32429 0
M  V30 12666 H 1170.79 1.81286 -3.31578 0
M  V30 12667 H 1171.11 3.14647 -7.05845 0
M  V30 12668 H 1169.45 2.83605 -6.34502 0
M  V30 12669 H 1172.64 2.17127 -4.14697 0
M  V30 12670 H 1172.81 2.77962 -5.85356 0
M  V30 12671 N 1166.22 1.31629 0.866686 0
M  V30 12672 C 1167.17 1.19556 1.97421 0
M  V30 12673 C 1168.14 0.0805578 1.65905 0
M  V30 12674 O 1169.32 0.253997 1.89102 0
M  V30 12675 C 1166.46 0.912234 3.32825 0
M  V30 12676 C 1165.58 2.11088 3.76916 0
M  V30 12677 C 1164.71 1.76406 5.01053 0
M  V30 12678 C 1163.75 2.9266 5.37602 0
M  V30 12679 N 1162.89 2.58152 6.52918 0
M  V30 12680 H 1167.73 2.14294 2.0708 0
M  V30 12681 H 1165.26 1.06595 1.0137 0
M  V30 12682 H 1167.22 0.72851 4.1079 0
M  V30 12683 H 1165.85 0.00167404 3.228 0
M  V30 12684 H 1164.9 2.40527 2.94705 0
M  V30 12685 H 1166.22 2.98089 3.99931 0
M  V30 12686 H 1165.37 1.54515 5.86694 0
M  V30 12687 H 1164.11 0.866018 4.79949 0
M  V30 12688 H 1163.11 3.15196 4.50479 0
M  V30 12689 H 1164.34 3.83179 5.6067 0
M  V30 12690 H 1162.28 1.70874 6.33355 0
M  V30 12691 H 1162.2 3.38682 6.75892 0
M  V30 12692 H 1163.47 2.39662 7.41743 0
M  V30 12693 N 1167.7 -1.08142 1.14644 0
M  V30 12694 C 1168.61 -2.18675 0.849607 0
M  V30 12695 C 1169.63 -1.73158 -0.170983 0
M  V30 12696 O 1170.8 -2.014 0.0011579 0
M  V30 12697 C 1167.87 -3.45084 0.334305 0
M  V30 12698 C 1166.93 -4.05213 1.41779 0
M  V30 12699 C 1166.16 -5.25588 0.926981 0
M  V30 12700 O 1166.38 -5.69934 -0.230522 0
M  V30 12701 O 1165.32 -5.77183 1.70715 0
M  V30 12702 H 1169.14 -2.46542 1.77343 0
M  V30 12703 H 1166.73 -1.17328 0.924911 0
M  V30 12704 H 1168.61 -4.21367 0.0529893 0
M  V30 12705 H 1167.29 -3.18788 -0.561755 0
M  V30 12706 H 1166.19 -3.30507 1.7526 0
M  V30 12707 H 1167.53 -4.35764 2.28847 0
M  V30 12708 N 1169.18 -0.941978 -1.26351 0
M  V30 12709 C 1170.12 -0.450906 -2.26353 0
M  V30 12710 C 1171.09 0.489857 -1.58712 0
M  V30 12711 O 1172.28 0.40589 -1.86433 0
M  V30 12712 C 1169.42 0.277054 -3.43986 0
M  V30 12713 C 1168.53 -0.699474 -4.263 0
M  V30 12714 C 1167.67 0.0497661 -5.31177 0
M  V30 12715 C 1166.71 -0.918531 -6.05169 0
M  V30 12716 N 1165.84 -0.200993 -7.01812 0
M  V30 12717 H 1170.68 -1.30861 -2.6773 0
M  V30 12718 H 1168.22 -0.656514 -1.31637 0
M  V30 12719 H 1170.18 0.715567 -4.11018 0
M  V30 12720 H 1168.81 1.09889 -3.0352 0
M  V30 12721 H 1167.86 -1.2565 -3.59049 0
M  V30 12722 H 1169.17 -1.4389 -4.77595 0
M  V30 12723 H 1168.33 0.547521 -6.04224 0
M  V30 12724 H 1167.07 0.822068 -4.80722 0
M  V30 12725 H 1166.07 -1.4274 -5.30947 0
M  V30 12726 H 1167.3 -1.69085 -6.57713 0
M  V30 12727 H 1165.24 0.552803 -6.53667 0
M  V30 12728 H 1165.16 -0.879735 -7.50864 0
M  V30 12729 H 1166.43 0.275642 -7.79012 0
M  V30 12730 N 1170.66 1.40747 -0.709091 0
M  V30 12731 C 1171.6 2.32564 -0.0411392 0
M  V30 12732 C 1172.6 1.51692 0.75404 0
M  V30 12733 O 1173.8 1.67537 0.658139 0
M  V30 12734 H 1170.18 0.75198 0.00549889 0
M  V30 12735 H 1172.15 2.86556 -0.83235 0
M  V30 12736 C 1170.9 3.36604 0.871378 0
M  V30 12737 H 1170.22 3.98895 0.268912 0
M  V30 12738 H 1171.66 4.03359 1.30682 0
M  V30 12739 C 1170.12 2.71566 1.99384 0
M  V30 12740 O 1170.65 2.57392 3.08403 0
M  V30 12741 N 1168.86 2.3005 1.77554 0
M  V30 12742 H 1168.4 2.41778 0.888898 0
M  V30 12743 H 1168.36 1.8687 2.52838 0
M  V30 12744 N 1172.13 0.454803 1.50895 0
M  V30 12745 C 1173.06 -0.337982 2.31041 0
M  V30 12746 C 1174.04 -1.00523 1.37219 0
M  V30 12747 O 1175.23 -1.00553 1.66141 0
M  V30 12748 C 1172.36 -1.42964 3.1651 0
M  V30 12749 C 1171.31 -0.884907 4.18752 0
M  V30 12750 C 1170.64 -2.07363 4.92854 0
M  V30 12751 C 1171.94 0.0926716 5.22218 0
M  V30 12752 H 1173.63 0.33089 2.97566 0
M  V30 12753 H 1171.18 0.160577 1.43102 0
M  V30 12754 H 1173.13 -1.9916 3.71367 0
M  V30 12755 H 1171.86 -2.12705 2.47839 0
M  V30 12756 H 1170.52 -0.345031 3.64973 0
M  V30 12757 H 1170.16 -2.75764 4.2067 0
M  V30 12758 H 1169.86 -1.71545 5.62002 0
M  V30 12759 H 1171.39 -2.6408 5.5054 0
M  V30 12760 H 1172.8 -0.379568 5.72042 0
M  V30 12761 H 1171.2 0.3643 5.98993 0
M  V30 12762 H 1172.27 1.02383 4.73968 0
M  V30 12763 N 1173.61 -1.56489 0.186789 0
M  V30 12764 C 1174.56 -2.18703 -0.737402 0
M  V30 12765 C 1175.53 -1.13171 -1.21579 0
M  V30 12766 O 1176.71 -1.41388 -1.28118 0
M  V30 12767 C 1173.85 -2.84394 -1.95484 0
M  V30 12768 C 1172.97 -4.04429 -1.51859 0
M  V30 12769 C 1172.1 -4.58001 -2.69089 0
M  V30 12770 C 1171.14 -5.70412 -2.22029 0
M  V30 12771 N 1170.28 -6.18425 -3.32407 0
M  V30 12772 H 1175.12 -2.97327 -0.200105 0
M  V30 12773 H 1172.65 -1.46842 -0.087032 0
M  V30 12774 H 1174.61 -3.20646 -2.66912 0
M  V30 12775 H 1173.24 -2.08347 -2.46559 0
M  V30 12776 H 1172.29 -3.73895 -0.70048 0
M  V30 12777 H 1173.61 -4.85756 -1.13327 0
M  V30 12778 H 1172.76 -4.96515 -3.48652 0
M  V30 12779 H 1171.5 -3.75764 -3.1089 0
M  V30 12780 H 1170.5 -5.31434 -1.40918 0
M  V30 12781 H 1171.73 -6.54461 -1.81268 0
M  V30 12782 H 1169.68 -5.39113 -3.73755 0
M  V30 12783 H 1169.59 -6.94782 -2.98017 0
M  V30 12784 H 1170.86 -6.61592 -4.12209 0
M  V30 12785 N 1175.09 0.086862 -1.5736 0
M  V30 12786 C 1176.02 1.10538 -2.05678 0
M  V30 12787 C 1177 1.41281 -0.947293 0
M  V30 12788 O 1178.19 1.51169 -1.21908 0
M  V30 12789 C 1175.32 2.42302 -2.48812 0
M  V30 12790 C 1174.27 2.25948 -3.63499 0
M  V30 12791 C 1173.6 3.62961 -3.92637 0
M  V30 12792 C 1174.9 1.69319 -4.94094 0
M  V30 12793 H 1176.59 0.703371 -2.91021 0
M  V30 12794 H 1174.14 0.336895 -1.40004 0
M  V30 12795 H 1176.09 3.13833 -2.81224 0
M  V30 12796 H 1174.81 2.84454 -1.60479 0
M  V30 12797 H 1173.47 1.5686 -3.31347 0
M  V30 12798 H 1173.12 4.02656 -3.01459 0
M  V30 12799 H 1172.82 3.52862 -4.69853 0
M  V30 12800 H 1174.34 4.35946 -4.27531 0
M  V30 12801 H 1175.76 2.30699 -5.24834 0
M  V30 12802 H 1174.15 1.69957 -5.7553 0
M  V30 12803 H 1175.22 0.653318 -4.80479 0
M  V30 12804 N 1176.57 1.53483 0.357892 0
M  V30 12805 C 1177.5 1.76757 1.4591 0
M  V30 12806 C 1178.51 0.648502 1.49326 0
M  V30 12807 O 1179.7 0.924932 1.52667 0
M  V30 12808 C 1176.8 1.83938 2.8464 0
M  V30 12809 C 1175.97 3.13683 3.04831 0
M  V30 12810 C 1175.03 3.12007 4.23719 0
M  V30 12811 O 1174.06 3.8578 4.18524 0
M  V30 12812 N 1175.26 2.33366 5.31527 0
M  V30 12813 H 1178.03 2.71778 1.2632 0
M  V30 12814 H 1175.59 1.52355 0.547673 0
M  V30 12815 H 1177.58 1.80285 3.62325 0
M  V30 12816 H 1176.15 0.961675 2.9744 0
M  V30 12817 H 1175.37 3.30576 2.14739 0
M  V30 12818 H 1176.66 3.99412 3.15194 0
M  V30 12819 H 1176.06 1.72954 5.38613 0
M  V30 12820 H 1174.61 2.35524 6.07759 0
M  V30 12821 N 1178.05 -0.61812 1.44973 0
M  V30 12822 C 1178.98 -1.74035 1.55673 0
M  V30 12823 C 1179.96 -1.65112 0.4089 0
M  V30 12824 O 1181.14 -1.83673 0.630698 0
M  V30 12825 C 1178.27 -3.1261 1.51303 0
M  V30 12826 C 1177.23 -3.36334 2.64696 0
M  V30 12827 C 1176.55 -4.75072 2.45378 0
M  V30 12828 C 1177.85 -3.27618 4.06772 0
M  V30 12829 H 1179.55 -1.65336 2.49608 0
M  V30 12830 H 1177.09 -0.794003 1.20132 0
M  V30 12831 H 1179.04 -3.90906 1.57388 0
M  V30 12832 H 1177.77 -3.22123 0.538914 0
M  V30 12833 H 1176.43 -2.60423 2.58022 0
M  V30 12834 H 1176.08 -4.81306 1.46129 0
M  V30 12835 H 1175.78 -4.91903 3.21412 0
M  V30 12836 H 1177.3 -5.55582 2.53301 0
M  V30 12837 H 1178.71 -3.95802 4.14746 0
M  V30 12838 H 1177.11 -3.55981 4.83113 0
M  V30 12839 H 1178.18 -2.25219 4.29423 0
M  V30 12840 N 1179.52 -1.32087 -0.859693 0
M  V30 12841 C 1180.75 -1.25486 -1.6513 0
M  V30 12842 C 1181.17 0.175015 -1.87284 0
M  V30 12843 O 1180.53 1.12468 -1.42199 0
M  V30 12844 C 1180.58 -2.01469 -2.9907 0
M  V30 12845 O 1179.68 -1.35904 -3.89363 0
M  V30 12846 H 1179.02 -0.432728 -0.503629 0
M  V30 12847 H 1181.55 -1.74322 -1.07112 0
M  V30 12848 H 1181.56 -2.11452 -3.4893 0
M  V30 12849 H 1180.24 -3.05448 -2.82266 0
M  V30 12850 H 1178.82 -1.34437 -3.47823 0
M  V30 12851 N 1181 1.07532 -1.15215 0
M  V30 12852 C 1182.23 1.83817 -0.949687 0
M  V30 12853 C 1182.64 1.82004 0.501991 0
M  V30 12854 O 1182 1.23014 1.34811 0
M  V30 12855 C 1182.05 3.30978 -1.45382 0
M  V30 12856 O 1181.77 3.32844 -2.84863 0
M  V30 12857 C 1183.27 4.24037 -1.29257 0
M  V30 12858 H 1180.49 0.58 -0.337404 0
M  V30 12859 H 1183.04 1.35752 -1.52944 0
M  V30 12860 H 1181.19 3.76399 -0.916638 0
M  V30 12861 H 1181.61 4.24773 -3.07682 0
M  V30 12862 H 1183.08 5.25371 -1.69379 0
M  V30 12863 H 1183.56 4.38563 -0.236519 0
M  V30 12864 H 1184.16 3.8445 -1.81874 0
M  V30 12865 N 1182.48 0.948665 1.2585 0
M  V30 12866 C 1183.41 0.482036 2.2847 0
M  V30 12867 C 1184.39 -0.468553 1.63519 0
M  V30 12868 O 1185.58 -0.368796 1.90666 0
M  V30 12869 C 1182.71 -0.246603 3.46423 0
M  V30 12870 C 1181.66 0.61815 4.23513 0
M  V30 12871 C 1180.99 -0.240884 5.34157 0
M  V30 12872 C 1182.29 1.89327 4.86778 0
M  V30 12873 H 1183.98 1.33973 2.67753 0
M  V30 12874 H 1181.53 0.645645 1.28715 0
M  V30 12875 H 1183.48 -0.584135 4.17332 0
M  V30 12876 H 1182.2 -1.13849 3.06114 0
M  V30 12877 H 1180.86 0.938682 3.54379 0
M  V30 12878 H 1180.51 -1.13235 4.90089 0
M  V30 12879 H 1180.21 0.334367 5.86648 0
M  V30 12880 H 1181.73 -0.573517 6.07901 0
M  V30 12881 H 1183.15 1.62252 5.49861 0
M  V30 12882 H 1181.55 2.41369 5.49419 0
M  V30 12883 H 1182.62 2.60006 4.09298 0
M  V30 12884 N 1183.96 -1.40369 0.716545 0
M  V30 12885 C 1184.91 -2.32539 0.053472 0
M  V30 12886 C 1185.9 -1.5209 -0.745984 0
M  V30 12887 O 1187.11 -1.67883 -0.649245 0
M  V30 12888 H 1183.48 -0.751998 -0.00151088 0
M  V30 12889 H 1185.45 -2.86111 0.847535 0
M  V30 12890 C 1184.2 -3.37061 -0.853515 0
M  V30 12891 H 1183.52 -3.99032 -0.247754 0
M  V30 12892 H 1184.96 -4.04046 -1.28541 0
M  V30 12893 C 1183.42 -2.72619 -1.97941 0
M  V30 12894 O 1183.95 -2.59024 -3.07033 0
M  V30 12895 N 1182.16 -2.30988 -1.76332 0
M  V30 12896 H 1181.71 -2.42246 -0.876063 0
M  V30 12897 H 1181.66 -1.88209 -2.51843 0
M  V30 12898 N 1185.44 -0.462799 -1.50652 0
M  V30 12899 C 1186.38 0.349784 -2.29955 0
M  V30 12900 C 1187.38 0.997947 -1.36885 0
M  V30 12901 O 1188.58 0.93 -1.54114 0
M  V30 12902 H 1184.96 0.131635 -0.740389 0
M  V30 12903 H 1186.93 -0.33958 -2.96461 0
M  V30 12904 C 1185.68 1.42398 -3.17204 0
M  V30 12905 H 1185 0.934611 -3.88722 0
M  V30 12906 H 1186.44 1.96528 -3.75703 0
M  V30 12907 C 1184.9 2.42135 -2.34248 0
M  V30 12908 O 1185.43 3.47229 -2.01978 0
M  V30 12909 N 1183.64 2.13647 -1.96985 0
M  V30 12910 H 1183.18 1.28209 -2.23428 0
M  V30 12911 H 1183.14 2.80615 -1.41783 0
M  V30 12912 N 1186.91 1.56388 -0.195085 0
M  V30 12913 C 1187.88 2.17859 0.712053 0
M  V30 12914 C 1188.88 1.13304 1.141 0
M  V30 12915 O 1190.07 1.38689 1.05409 0
M  V30 12916 C 1187.2 2.78065 1.97213 0
M  V30 12917 H 1188.39 2.9938 0.176529 0
M  V30 12918 H 1185.95 1.56205 0.0545322 0
M  V30 12919 H 1186.68 2.00342 2.55017 0
M  V30 12920 H 1186.47 3.54603 1.67329 0
M  V30 12921 H 1187.96 3.25266 2.619 0
M  V30 12922 N 1188.39 -0.0785156 1.57404 0
M  V30 12923 C 1189.64 -0.777399 1.8655 0
M  V30 12924 C 1189.96 -1.78451 0.786142 0
M  V30 12925 O 1189.23 -1.95016 -0.185911 0
M  V30 12926 H 1187.81 -0.290097 0.688369 0
M  V30 12927 H 1190.47 -0.0562017 1.94819 0
M  V30 12928 H 1189.57 -1.29776 2.83839 0
M  V30 12929 N 1189.87 -1.5367 -0.349747 0
M  V30 12930 C 1191.28 -1.62135 -0.925704 0
M  V30 12931 C 1191.63 -0.498725 -1.89756 0
M  V30 12932 O 1190.76 0.372481 -2.1317 0
M  V30 12933 C 1191.35 -2.93885 -1.68573 0
M  V30 12934 C 1189.91 -3.04632 -2.2108 0
M  V30 12935 C 1189.06 -2.57541 -1.02801 0
M  V30 12936 H 1192.01 -1.58182 -0.128065 0
M  V30 12937 H 1192.03 -2.82577 -2.54815 0
M  V30 12938 H 1191.54 -3.75571 -0.978153 0
M  V30 12939 H 1189.64 -2.27567 -2.95032 0
M  V30 12940 H 1189.76 -4.09993 -2.47876 0
M  V30 12941 H 1188.12 -2.12798 -1.39962 0
M  V30 12942 H 1188.9 -3.4166 -0.335157 0
M  V30 12943 N 1191.35 0.610423 -1.45298 0
M  V30 12944 C 1192.76 1.19234 -1.43667 0
M  V30 12945 C 1193.11 1.95523 -0.162794 0
M  V30 12946 O 1192.24 2.03507 0.735789 0
M  V30 12947 C 1192.83 2.16892 -2.60276 0
M  V30 12948 C 1191.39 2.70465 -2.61774 0
M  V30 12949 C 1190.54 1.45821 -2.35863 0
M  V30 12950 H 1193.49 0.399895 -1.53579 0
M  V30 12951 H 1193.51 2.99875 -2.34212 0
M  V30 12952 H 1193.02 1.61339 -3.52975 0
M  V30 12953 H 1191.12 3.29965 -1.73072 0
M  V30 12954 H 1191.23 3.15092 -3.60907 0
M  V30 12955 H 1189.6 1.74678 -1.85364 0
M  V30 12956 H 1190.38 0.921403 -3.30704 0
M  V30 12957 N 1192.83 1.32541 0.852676 0
M  V30 12958 C 1194.1 1.1383 1.59067 0
M  V30 12959 C 1194.48 -0.300584 2.08949 0
M  V30 12960 O 1193.83 -1.29751 1.88088 0
M  V30 12961 C 1194.04 2.16758 2.73527 0
M  V30 12962 C 1195.39 2.50194 3.43057 0
M  V30 12963 O 1196.41 2.15319 2.83754 0
M  V30 12964 O 1195.27 3.09985 4.50079 0
M  V30 12965 H 1192.37 0.439379 0.700625 0
M  V30 12966 H 1194.91 1.44078 0.896632 0
M  V30 12967 H 1193.68 3.13469 2.34207 0
M  V30 12968 H 1193.31 1.87515 3.50605 0
M  V30 12969 N 1194.3 -1.0692 1.15784 0
M  V30 12970 C 1195.23 -2.16216 0.881649 0
M  V30 12971 C 1196.22 -1.69253 -0.16951 0
M  V30 12972 O 1197.4 -1.94186 -0.0229511 0
M  V30 12973 C 1194.53 -3.4527 0.374982 0
M  V30 12974 C 1193.48 -4.05706 1.36332 0
M  V30 12975 C 1192.81 -5.29894 0.715317 0
M  V30 12976 C 1194.11 -4.45224 2.7308 0
M  V30 12977 H 1195.8 -2.39577 1.79563 0
M  V30 12978 H 1193.35 -1.15141 0.864784 0
M  V30 12979 H 1195.3 -4.2106 0.169279 0
M  V30 12980 H 1194.03 -3.21508 -0.574485 0
M  V30 12981 H 1192.69 -3.31965 1.55546 0
M  V30 12982 H 1192.33 -5.02425 -0.240436 0
M  V30 12983 H 1192.03 -5.71287 1.37494 0
M  V30 12984 H 1193.56 -6.08386 0.519489 0
M  V30 12985 H 1194.97 -5.12124 2.57686 0
M  V30 12986 H 1193.37 -4.97583 3.35457 0
M  V30 12987 H 1194.44 -3.56384 3.28813 0
M  V30 12988 N 1195.78 -0.955326 -1.25345 0
M  V30 12989 C 1197.01 -0.627233 -1.97688 0
M  V30 12990 C 1197.43 0.793973 -1.70522 0
M  V30 12991 O 1196.79 1.537 -0.961556 0
M  V30 12992 C 1196.84 -0.892969 -3.49369 0
M  V30 12993 O 1195.94 0.0278871 -4.12391 0
M  V30 12994 H 1195.28 -0.238402 -0.619726 0
M  V30 12995 H 1197.81 -1.28211 -1.59446 0
M  V30 12996 H 1197.82 -0.819517 -3.99685 0
M  V30 12997 H 1196.5 -1.92879 -3.6847 0
M  V30 12998 H 1195.08 -0.0978295 -3.72772 0
M  V30 12999 N 1197.26 1.39987 -0.723979 0
M  V30 13000 C 1198.67 1.83606 -0.338461 0
M  V30 13001 C 1199.02 1.6051 1.12831 0
M  V30 13002 O 1198.15 1.09041 1.8692 0
M  V30 13003 C 1198.74 3.33308 -0.607533 0
M  V30 13004 C 1197.3 3.75389 -0.275632 0
M  V30 13005 C 1196.45 2.6311 -0.875699 0
M  V30 13006 H 1199.4 1.29135 -0.922483 0
M  V30 13007 H 1199.42 3.80297 0.124424 0
M  V30 13008 H 1198.93 3.50087 -1.67514 0
M  V30 13009 H 1197.03 3.64203 0.786579 0
M  V30 13010 H 1197.15 4.73185 -0.750492 0
M  V30 13011 H 1195.51 2.5289 -0.303122 0
M  V30 13012 H 1196.29 2.82698 -1.94774 0
M  V30 13013 N 1198.74 0.470782 1.50404 0
M  V30 13014 C 1200.16 0.124919 1.5911 0
M  V30 13015 C 1200.36 -1.36855 1.47895 0
M  V30 13016 O 1199.41 -2.1418 1.33728 0
M  V30 13017 C 1200.72 0.674839 2.9303 0
M  V30 13018 C 1202.27 0.638239 3.06424 0
M  V30 13019 C 1202.75 1.1657 4.42917 0
M  V30 13020 N 1204.24 1.1251 4.49328 0
M  V30 13021 C 1204.97 1.50373 5.53331 0
M  V30 13022 N 1204.47 1.95684 6.6459 0
M  V30 13023 N 1206.26 1.41978 5.43874 0
M  V30 13024 H 1198.41 1.44212 1.55938 0
M  V30 13025 H 1200.68 0.596354 0.73693 0
M  V30 13026 H 1200.38 1.72106 3.06712 0
M  V30 13027 H 1200.26 0.118234 3.77015 0
M  V30 13028 H 1202.64 -0.399075 2.92389 0
M  V30 13029 H 1202.72 1.23164 2.24197 0
M  V30 13030 H 1202.37 2.20164 4.57701 0
M  V30 13031 H 1202.3 0.548513 5.23736 0
M  V30 13032 H 1204.79 0.79276 3.69491 0
M  V30 13033 H 1205.1 2.22724 7.40009 0
M  V30 13034 H 1203.45 1.99636 6.65711 0
M  V30 13035 H 1206.64 1.0642 4.55842 0
M  V30 13036 H 1206.81 1.71812 6.24808 0
M  V30 13037 N 1200.22 -1.56282 0.203376 0
M  V30 13038 C 1201.47 -1.96987 -0.433461 0
M  V30 13039 C 1201.78 -1.09344 -1.62183 0
M  V30 13040 O 1202.99 -1.39868 -2.327 0
M  V30 13041 C 1201.44 -3.50374 -0.82257 0
M  V30 13042 C 1201.05 -4.46693 0.341969 0
M  V30 13043 C 1202.79 -3.99831 -1.42603 0
M  V30 13044 C 1200.7 -5.9136 -0.0685608 0
M  V30 13045 H 1199.63 -0.735564 -0.165717 0
M  V30 13046 H 1202.28 -1.81085 0.296708 0
M  V30 13047 H 1200.66 -3.6181 -1.60964 0
M  V30 13048 H 1201.84 -4.46994 1.11952 0
M  V30 13049 H 1200.15 -4.07476 0.857463 0
M  V30 13050 H 1202.75 -5.05398 -1.74577 0
M  V30 13051 H 1203.09 -3.4462 -2.33544 0
M  V30 13052 H 1203.63 -3.91543 -0.702758 0
M  V30 13053 H 1200.36 -6.50515 0.80688 0
M  V30 13054 H 1199.88 -5.94295 -0.810798 0
M  V30 13055 H 1201.56 -6.45053 -0.501525 0
M  V30 13056 N 1201.7 0.070167 -1.57444 0
M  V30 13057 C 1202.94 0.770153 -1.87607 0
M  V30 13058 C 1203.27 1.77143 -0.795875 0
M  V30 13059 O 1202.55 1.93533 0.193674 0
M  V30 13060 C 1202.83 1.47668 -3.2843 0
M  V30 13061 C 1202.69 0.491712 -4.47104 0
M  V30 13062 C 1204 2.42118 -3.67514 0
M  V30 13063 H 1201.12 0.278519 -0.682346 0
M  V30 13064 H 1203.77 0.0333184 -1.89971 0
M  V30 13065 H 1201.92 2.10476 -3.26546 0
M  V30 13066 H 1203.59 -0.131283 -4.61113 0
M  V30 13067 H 1201.83 -0.192817 -4.33371 0
M  V30 13068 H 1202.5 1.02372 -5.42424 0
M  V30 13069 H 1204.98 1.89387 -3.70502 0
M  V30 13070 H 1203.85 2.88556 -4.66933 0
M  V30 13071 H 1204.11 3.26995 -2.97534 0
M  V30 13072 N 1203.17 1.53854 0.341593 0
M  V30 13073 C 1204.45 1.61823 1.09875 0
M  V30 13074 C 1204.83 0.440711 2.06448 0
M  V30 13075 O 1204.18 -0.566833 2.21358 0
M  V30 13076 C 1204.39 2.9799 1.81668 0
M  V30 13077 C 1205.74 3.53411 2.35341 0
M  V30 13078 O 1206.76 3.00177 1.91761 0
M  V30 13079 O 1205.62 4.4653 3.15076 0
M  V30 13080 H 1202.71 0.654599 0.5054 0
M  V30 13081 H 1205.26 1.66199 0.342929 0
M  V30 13082 H 1204.03 3.7513 1.11323 0
M  V30 13083 H 1203.65 2.97213 2.64103 0
M  V30 13084 N 1204.65 -0.602709 1.4562 0
M  V30 13085 C 1205.9 -1.35889 1.49595 0
M  V30 13086 C 1206.22 -1.9449 0.141002 0
M  V30 13087 O 1205.49 -1.77438 -0.830209 0
M  V30 13088 H 1204.07 -0.504478 0.550918 0
M  V30 13089 H 1206.73 -0.707376 1.8161 0
M  V30 13090 H 1205.83 -2.17583 2.2375 0
M  V30 13091 N 1206.13 -1.32992 -0.845635 0
M  V30 13092 C 1207.38 -1.23415 -1.59536 0
M  V30 13093 C 1207.69 0.200278 -1.94572 0
M  V30 13094 O 1208.9 0.417993 -2.68263 0
M  V30 13095 C 1207.35 -2.16207 -2.8772 0
M  V30 13096 C 1206.96 -3.64782 -2.60073 0
M  V30 13097 C 1208.71 -2.15488 -3.65739 0
M  V30 13098 C 1206.61 -4.49508 -3.84313 0
M  V30 13099 H 1205.54 -0.458366 -0.598679 0
M  V30 13100 H 1208.19 -1.58012 -0.932981 0
M  V30 13101 H 1206.58 -1.74535 -3.55462 0
M  V30 13102 H 1207.75 -4.14852 -2.00585 0
M  V30 13103 H 1206.06 -3.67723 -1.95369 0
M  V30 13104 H 1208.66 -2.76021 -4.57948 0
M  V30 13105 H 1209 -1.14818 -4.00153 0
M  V30 13106 H 1209.54 -2.55487 -3.04912 0
M  V30 13107 H 1206.28 -5.51027 -3.55035 0
M  V30 13108 H 1205.8 -4.04185 -4.43165 0
M  V30 13109 H 1207.48 -4.62969 -4.51961 0
M  V30 13110 N 1207.61 1.06304 -1.1635 0
M  V30 13111 C 1208.52 2.17296 -0.884289 0
M  V30 13112 C 1209.53 1.73408 0.143414 0
M  V30 13113 O 1210.71 2.01373 -0.0331987 0
M  V30 13114 C 1207.77 3.44509 -0.389163 0
M  V30 13115 C 1206.84 4.02906 -1.48208 0
M  V30 13116 C 1206.07 5.24047 -1.01048 0
M  V30 13117 O 1206.29 5.70229 0.139821 0
M  V30 13118 O 1205.23 5.74394 -1.79876 0
M  V30 13119 H 1209.05 2.4369 -1.81243 0
M  V30 13120 H 1206.64 1.15841 -0.943459 0
M  V30 13121 H 1208.52 4.21229 -0.120018 0
M  V30 13122 H 1207.19 3.19642 0.510968 0
M  V30 13123 H 1206.1 3.27677 -1.80496 0
M  V30 13124 H 1207.43 4.32068 -2.35751 0
M  V30 13125 N 1209.09 0.96196 1.24836 0
M  V30 13126 C 1210.36 0.537809 1.88061 0
M  V30 13127 C 1210.74 -0.985023 1.8671 0
M  V30 13128 O 1210.09 -1.85394 1.33572 0
M  V30 13129 C 1210.3 1.12279 3.30446 0
M  V30 13130 C 1211.65 1.20414 4.07168 0
M  V30 13131 O 1212.67 1.07488 3.39595 0
M  V30 13132 O 1211.53 1.4078 5.28056 0
M  V30 13133 H 1208.63 0.178491 0.807509 0
M  V30 13134 H 1211.17 1.05586 1.32852 0
M  V30 13135 H 1209.94 2.16578 3.25898 0
M  V30 13136 H 1209.57 0.58843 3.93222 0
M  V30 13137 N 1210.56 -1.39601 0.731392 0
M  V30 13138 C 1211.81 -2.0019 0.277208 0
M  V30 13139 C 1212.13 -1.5832 -1.13841 0
M  V30 13140 O 1211.4 -0.829793 -1.77458 0
M  V30 13141 H 1209.98 -0.740344 0.0995006 0
M  V30 13142 H 1212.64 -1.70704 0.940547 0
M  V30 13143 H 1211.74 -3.10427 0.322749 0
M  V30 13144 N 1212.04 -0.478751 -1.50152 0
M  V30 13145 C 1212.99 0.325375 -2.30313 0
M  V30 13146 C 1213.98 0.983372 -1.37935 0
M  V30 13147 O 1215.19 0.913601 -1.55091 0
M  V30 13148 H 1211.57 0.123775 -0.741744 0
M  V30 13149 H 1213.54 -0.371004 -2.96085 0
M  V30 13150 C 1212.29 1.39026 -3.18696 0
M  V30 13151 H 1211.61 0.893329 -3.89692 0
M  V30 13152 H 1213.05 1.92533 -3.77766 0
M  V30 13153 C 1211.51 2.39637 -2.36803 0
M  V30 13154 O 1212.04 3.45067 -2.05649 0
M  V30 13155 N 1210.24 2.11546 -1.9924 0
M  V30 13156 H 1209.79 1.25832 -2.24775 0
M  V30 13157 H 1209.75 2.79096 -1.44751 0
M  V30 13158 N 1213.52 1.56172 -0.211661 0
M  V30 13159 C 1214.75 2.02874 0.430905 0
M  V30 13160 C 1215.17 1.09064 1.53254 0
M  V30 13161 O 1214.53 0.0770408 1.81136 0
M  V30 13162 C 1214.58 3.4789 0.948933 0
M  V30 13163 O 1213.68 3.57213 2.0609 0
M  V30 13164 H 1213.02 0.656614 0.0987607 0
M  V30 13165 H 1215.55 2.01964 -0.327399 0
M  V30 13166 H 1215.56 3.88015 1.2613 0
M  V30 13167 H 1214.24 4.15656 0.142584 0
M  V30 13168 H 1212.81 3.28971 1.75592 0
M  V30 13169 N 1215 -0.0618163 1.57479 0
M  V30 13170 C 1216.22 -0.775513 1.92355 0
M  V30 13171 C 1216.65 -1.69816 0.808949 0
M  V30 13172 O 1216.01 -1.79736 -0.23761 0
M  V30 13173 C 1216.05 -1.5367 3.26218 0
M  V30 13174 O 1215.16 -2.64802 3.16155 0
M  V30 13175 H 1214.5 -0.210909 0.629614 0
M  V30 13176 H 1217.03 -0.0270752 2.04582 0
M  V30 13177 H 1217.04 -1.91379 3.6033 0
M  V30 13178 H 1215.71 -0.859798 4.06916 0
M  V30 13179 H 1214.29 -2.29876 2.93618 0
M  V30 13180 N 1216.48 -1.54033 -0.333429 0
M  V30 13181 C 1217.39 -1.85737 -1.43314 0
M  V30 13182 C 1218.4 -0.748398 -1.57083 0
M  V30 13183 O 1219.58 -1.04171 -1.72367 0
M  V30 13184 C 1216.64 -2.06942 -2.78165 0
M  V30 13185 C 1215.7 -3.30774 -2.73655 0
M  V30 13186 C 1214.94 -3.50957 -4.02075 0
M  V30 13187 O 1215.16 -2.74774 -4.99855 0
M  V30 13188 O 1214.09 -4.44412 -4.05933 0
M  V30 13189 H 1217.92 -2.7923 -1.19434 0
M  V30 13190 H 1215.51 -1.39814 -0.526546 0
M  V30 13191 H 1217.39 -2.22276 -3.58011 0
M  V30 13192 H 1216.06 -1.16638 -3.01956 0
M  V30 13193 H 1214.97 -3.20835 -1.92395 0
M  V30 13194 H 1216.3 -4.21103 -2.54819 0
M  V30 13195 N 1217.95 0.594978 -1.45938 0
M  V30 13196 C 1218.86 1.73296 -1.58132 0
M  V30 13197 C 1219.88 1.67665 -0.465245 0
M  V30 13198 O 1221.06 1.87794 -0.727684 0
M  V30 13199 C 1218.12 3.09783 -1.55677 0
M  V30 13200 C 1217.18 3.26772 -2.78422 0
M  V30 13201 C 1216.42 4.56748 -2.76075 0
M  V30 13202 O 1216.64 5.39867 -1.84119 0
M  V30 13203 O 1215.57 4.76721 -3.67452 0
M  V30 13204 H 1219.4 1.65957 -2.54346 0
M  V30 13205 H 1216.98 0.760572 -1.28591 0
M  V30 13206 H 1218.87 3.91077 -1.56961 0
M  V30 13207 H 1217.54 3.17585 -0.626191 0
M  V30 13208 H 1216.45 2.45018 -2.82696 0
M  V30 13209 H 1217.78 3.23853 -3.70648 0
M  V30 13210 N 1219.43 1.33438 0.838571 0
M  V30 13211 C 1220.66 1.28097 1.63113 0
M  V30 13212 C 1221.08 -0.145197 1.87539 0
M  V30 13213 O 1220.44 -1.10191 1.43971 0
M  V30 13214 C 1220.49 2.06201 2.95827 0
M  V30 13215 O 1219.59 1.42082 3.87152 0
M  V30 13216 H 1218.93 0.440685 0.496681 0
M  V30 13217 H 1221.46 1.76004 1.04325 0
M  V30 13218 H 1221.47 2.16977 3.45521 0
M  V30 13219 H 1220.15 3.099 2.77371 0
M  V30 13220 H 1218.73 1.39953 3.45641 0
M  V30 13221 N 1220.91 -1.05686 1.16912 0
M  V30 13222 C 1221.84 -2.1329 0.839044 0
M  V30 13223 C 1222.86 -1.62047 -0.156392 0
M  V30 13224 O 1224.04 -1.78366 0.0692192 0
M  V30 13225 C 1221.14 -3.38122 0.229558 0
M  V30 13226 C 1220.32 -4.18659 1.26662 0
M  V30 13227 C 1219.38 -5.21842 0.675811 0
M  V30 13228 O 1218.4 -5.53049 1.3463 0
M  V30 13229 N 1219.6 -5.78034 -0.534532 0
M  V30 13230 H 1222.37 -2.42203 1.76515 0
M  V30 13231 H 1219.93 -1.2174 1.06729 0
M  V30 13232 H 1221.92 -4.04305 -0.178868 0
M  V30 13233 H 1220.49 -3.06783 -0.60023 0
M  V30 13234 H 1219.71 -3.4804 1.85099 0
M  V30 13235 H 1221 -4.6927 1.9663 0
M  V30 13236 H 1220.4 -5.54955 -1.09731 0
M  V30 13237 H 1218.96 -6.45763 -0.885087 0
M  V30 13238 N 1222.39 -0.968567 -1.24324 0
M  V30 13239 C 1223.62 -0.648568 -1.96472 0
M  V30 13240 C 1224.03 0.782168 -1.71836 0
M  V30 13241 O 1223.39 1.5249 -1.00265 0
M  V30 13242 C 1223.44 -0.91482 -3.49733 0
M  V30 13243 O 1223.16 -2.28931 -3.73527 0
M  V30 13244 C 1224.66 -0.609131 -4.39095 0
M  V30 13245 H 1221.88 -0.241921 -0.625872 0
M  V30 13246 H 1224.43 -1.29673 -1.5813 0
M  V30 13247 H 1222.58 -0.31285 -3.86135 0
M  V30 13248 H 1222.99 -2.36998 -4.67902 0
M  V30 13249 H 1224.47 -0.845875 -5.4548 0
M  V30 13250 H 1224.95 0.456625 -4.3682 0
M  V30 13251 H 1225.55 -1.19105 -4.08282 0
M  V30 13252 N 1223.87 1.39211 -0.738786 0
M  V30 13253 C 1225.11 2.00436 -0.28839 0
M  V30 13254 C 1225.44 1.58626 1.12552 0
M  V30 13255 O 1224.7 0.808154 1.78234 0
M  V30 13256 C 1225 3.55758 -0.342224 0
M  V30 13257 C 1224.66 4.1723 -1.70968 0
M  V30 13258 C 1223.32 4.33734 -2.08395 0
M  V30 13259 C 1225.68 4.51294 -2.60736 0
M  V30 13260 C 1223 4.81592 -3.35091 0
M  V30 13261 C 1225.36 5.00562 -3.86808 0
M  V30 13262 C 1224.02 5.15274 -4.24322 0
M  V30 13263 H 1223.29 0.733447 -0.105529 0
M  V30 13264 H 1225.94 1.66481 -0.94637 0
M  V30 13265 H 1224.24 3.8976 0.399331 0
M  V30 13266 H 1225.94 4.00993 0.0244582 0
M  V30 13267 H 1222.53 4.04788 -1.4087 0
M  V30 13268 H 1226.71 4.38158 -2.3309 0
M  V30 13269 H 1221.97 4.91167 -3.64095 0
M  V30 13270 H 1226.14 5.25892 -4.5652 0
M  V30 13271 H 1223.77 5.52119 -5.2256 0
M  V30 13272 N 1225.34 0.486708 1.49896 0
M  V30 13273 C 1226.62 -0.125183 1.95199 0
M  V30 13274 C 1227 -1.55498 1.42771 0
M  V30 13275 O 1226.35 -2.1949 0.635322 0
M  V30 13276 C 1226.56 -0.0524982 3.48961 0
M  V30 13277 C 1227.91 -0.233595 4.23957 0
M  V30 13278 O 1228.93 -0.128357 3.55969 0
M  V30 13279 O 1227.79 -0.447862 5.44662 0
M  V30 13280 H 1224.88 -0.103141 0.820543 0
M  V30 13281 H 1227.43 0.548226 1.60601 0
M  V30 13282 H 1226.2 0.945163 3.79714 0
M  V30 13283 H 1225.83 -0.766683 3.90138 0
M  V30 13284 N 1226.82 -1.56058 0.219941 0
M  V30 13285 C 1228.07 -1.9826 -0.412197 0
M  V30 13286 C 1228.4 -1.10754 -1.59887 0
M  V30 13287 O 1227.65 -0.15212 -1.95108 0
M  V30 13288 C 1227.95 -3.46113 -0.8911 0
M  V30 13289 C 1227.62 -4.50521 0.184877 0
M  V30 13290 C 1226.28 -4.78795 0.480462 0
M  V30 13291 C 1228.63 -5.13147 0.912652 0
M  V30 13292 C 1225.96 -5.66979 1.50837 0
M  V30 13293 C 1228.31 -6.02444 1.92988 0
M  V30 13294 C 1226.98 -6.29063 2.2324 0
M  V30 13295 H 1226.25 -0.725486 -0.150834 0
M  V30 13296 H 1228.89 -1.88771 0.322122 0
M  V30 13297 H 1227.2 -3.52797 -1.70415 0
M  V30 13298 H 1228.9 -3.76137 -1.39003 0
M  V30 13299 H 1225.49 -4.28564 -0.0556594 0
M  V30 13300 H 1229.67 -4.91374 0.697532 0
M  V30 13301 H 1224.93 -5.85868 1.74839 0
M  V30 13302 H 1229.1 -6.50022 2.49889 0
M  V30 13303 H 1226.73 -6.97191 3.03032 0
M  V30 13304 N 1228.3 0.053464 -1.57509 0
M  V30 13305 C 1229.55 0.747622 -1.87763 0
M  V30 13306 C 1229.87 1.77178 -0.814433 0
M  V30 13307 O 1229.14 1.95287 0.154862 0
M  V30 13308 H 1227.72 0.279109 -0.692898 0
M  V30 13309 H 1230.38 0.0252006 -1.94884 0
M  V30 13310 H 1229.48 1.25244 -2.85868 0
M  V30 13311 N 1229.78 1.54207 0.325255 0
M  V30 13312 C 1231 1.7661 1.08736 0
M  V30 13313 C 1231.43 0.512449 1.80985 0
M  V30 13314 O 1230.79 -0.535913 1.73198 0
M  V30 13315 C 1230.84 2.95797 2.06243 0
M  V30 13316 O 1229.94 2.67225 3.14109 0
M  V30 13317 H 1229.28 0.585282 0.313593 0
M  V30 13318 H 1231.81 2.01225 0.370066 0
M  V30 13319 H 1231.82 3.23097 2.49143 0
M  V30 13320 H 1230.5 3.86712 1.53058 0
M  V30 13321 H 1229.07 2.50869 2.75897 0
M  V30 13322 N 1231.26 -0.58723 1.46251 0
M  V30 13323 C 1232.17 -1.72455 1.59048 0
M  V30 13324 C 1233.18 -1.67416 0.47413 0
M  V30 13325 O 1234.36 -1.87406 0.737633 0
M  V30 13326 C 1231.42 -3.08953 1.57318 0
M  V30 13327 C 1230.49 -3.25291 2.80151 0
M  V30 13328 C 1229.72 -4.55277 2.78493 0
M  V30 13329 O 1229.94 -5.38883 1.8698 0
M  V30 13330 O 1228.88 -4.74765 3.69975 0
M  V30 13331 H 1232.7 -1.64606 2.55223 0
M  V30 13332 H 1230.29 -0.753742 1.28993 0
M  V30 13333 H 1232.17 -3.90239 1.59033 0
M  V30 13334 H 1230.84 -3.17249 0.643025 0
M  V30 13335 H 1229.75 -2.43515 2.83991 0
M  V30 13336 H 1231.08 -3.21883 3.7236 0
M  V30 13337 N 1232.74 -1.33881 -0.831482 0
M  V30 13338 C 1234.15 -1.13376 -1.1233 0
M  V30 13339 C 1234.35 0.0704402 -2.01377 0
M  V30 13340 O 1233.41 0.748516 -2.4115 0
M  V30 13341 C 1234.72 -2.42484 -1.77826 0
M  V30 13342 C 1236.27 -2.4846 -1.90359 0
M  V30 13343 C 1236.74 -3.77548 -2.59272 0
M  V30 13344 N 1238.23 -3.7866 -2.66778 0
M  V30 13345 C 1238.97 -4.75258 -3.20807 0
M  V30 13346 N 1238.47 -5.82234 -3.75466 0
M  V30 13347 N 1240.26 -4.62724 -3.19128 0
M  V30 13348 H 1232.41 -2.11051 -0.238998 0
M  V30 13349 H 1234.67 -0.932893 -0.168565 0
M  V30 13350 H 1234.38 -3.30647 -1.19857 0
M  V30 13351 H 1234.25 -2.55186 -2.77777 0
M  V30 13352 H 1236.64 -1.60742 -2.47479 0
M  V30 13353 H 1236.72 -2.39693 -0.893359 0
M  V30 13354 H 1236.36 -4.65651 -2.02808 0
M  V30 13355 H 1236.29 -3.83594 -3.60781 0
M  V30 13356 H 1238.79 -3.01351 -2.28026 0
M  V30 13357 H 1239.1 -6.51968 -4.14918 0
M  V30 13358 H 1237.44 -5.85959 -3.73733 0
M  V30 13359 H 1240.63 -3.78303 -2.75688 0
M  V30 13360 H 1240.81 -5.38175 -3.60932 0
M  V30 13361 N 1234.21 1.05064 -1.1747 0
M  V30 13362 C 1235.46 1.77481 -0.958301 0
M  V30 13363 C 1235.78 1.88725 0.51401 0
M  V30 13364 O 1236.98 2.57895 0.848657 0
M  V30 13365 C 1235.44 3.19048 -1.66543 0
M  V30 13366 C 1235.05 3.1593 -3.17636 0
M  V30 13367 C 1236.79 3.95912 -1.53146 0
M  V30 13368 C 1234.7 4.52293 -3.81032 0
M  V30 13369 H 1233.63 0.665247 -0.354913 0
M  V30 13370 H 1236.28 1.17751 -1.40737 0
M  V30 13371 H 1234.66 3.79113 -1.1441 0
M  V30 13372 H 1235.83 2.65375 -3.76713 0
M  V30 13373 H 1234.15 2.52564 -3.31059 0
M  V30 13374 H 1236.75 4.96737 -1.9788 0
M  V30 13375 H 1237.09 4.13498 -0.482203 0
M  V30 13376 H 1237.62 3.42399 -2.02504 0
M  V30 13377 H 1234.36 4.39913 -4.8596 0
M  V30 13378 H 1233.88 5.02991 -3.26741 0
M  V30 13379 H 1235.56 5.2123 -3.83312 0
M  V30 13380 N 1235.69 0.975146 1.23809 0
M  V30 13381 C 1237.11 0.682899 1.44252 0
M  V30 13382 C 1237.31 -0.752739 1.86912 0
M  V30 13383 O 1236.36 -1.52579 2.01186 0
M  V30 13384 C 1237.68 1.67335 2.49839 0
M  V30 13385 C 1239.22 1.6868 2.63659 0
M  V30 13386 C 1239.7 2.66542 3.72451 0
M  V30 13387 N 1241.19 2.65028 3.79887 0
M  V30 13388 C 1241.93 3.37421 4.63611 0
M  V30 13389 N 1241.42 4.19355 5.51465 0
M  V30 13390 N 1243.21 3.2621 4.57759 0
M  V30 13391 H 1235.37 1.9026 0.94418 0
M  V30 13392 H 1237.63 0.819543 0.476502 0
M  V30 13393 H 1237.33 2.69978 2.25399 0
M  V30 13394 H 1237.21 1.45201 3.48133 0
M  V30 13395 H 1239.6 0.667438 2.87453 0
M  V30 13396 H 1239.68 1.94878 1.65699 0
M  V30 13397 H 1239.32 3.68617 3.49405 0
M  V30 13398 H 1239.25 2.3762 4.69941 0
M  V30 13399 H 1241.74 2.05562 3.171 0
M  V30 13400 H 1242.05 4.71461 6.12327 0
M  V30 13401 H 1240.4 4.23447 5.51106 0
M  V30 13402 H 1243.59 2.61656 3.88142 0
M  V30 13403 H 1243.76 3.82889 5.22781 0
M  V30 13404 N 1237.17 -1.38817 0.746158 0
M  V30 13405 C 1238.39 -2.05096 0.308302 0
M  V30 13406 C 1238.82 -1.55902 -1.05244 0
M  V30 13407 O 1238.18 -0.707685 -1.66918 0
M  V30 13408 C 1238.23 -3.59068 0.332016 0
M  V30 13409 O 1237.33 -4.06813 -0.676547 0
M  V30 13410 H 1236.67 -0.649523 0.1379 0
M  V30 13411 H 1239.2 -1.77637 1.0152 0
M  V30 13412 H 1239.21 -4.07601 0.180293 0
M  V30 13413 H 1237.89 -3.94234 1.32487 0
M  V30 13414 H 1236.46 -3.69666 -0.490046 0
M  V30 13415 N 1238.65 -0.49465 -1.49636 0
M  V30 13416 C 1239.56 0.291881 -2.32777 0
M  V30 13417 C 1240.57 0.973468 -1.44221 0
M  V30 13418 O 1241.75 0.956252 -1.77251 0
M  V30 13419 C 1238.81 1.34609 -3.19502 0
M  V30 13420 C 1237.88 0.678611 -4.23903 0
M  V30 13421 C 1237.11 1.68259 -5.06483 0
M  V30 13422 O 1237.33 2.91176 -4.90482 0
M  V30 13423 O 1236.27 1.24141 -5.88959 0
M  V30 13424 H 1240.09 -0.388459 -3.01205 0
M  V30 13425 H 1237.68 -0.256086 -1.47189 0
M  V30 13426 H 1239.56 1.95617 -3.73245 0
M  V30 13427 H 1238.23 2.00947 -2.53775 0
M  V30 13428 H 1237.14 0.0289541 -3.74089 0
M  V30 13429 H 1238.47 0.0577817 -4.92166 0
M  V30 13430 N 1240.13 1.55939 -0.228214 0
M  V30 13431 C 1241.54 1.84612 0.278417 0
M  V30 13432 C 1241.89 1.14973 1.58983 0
M  V30 13433 O 1241.01 0.421673 2.12252 0
M  V30 13434 C 1241.61 3.3491 0.511935 0
M  V30 13435 C 1240.17 3.63876 0.962861 0
M  V30 13436 C 1239.31 2.77284 0.0296246 0
M  V30 13437 H 1242.26 1.52149 -0.451245 0
M  V30 13438 H 1242.29 3.55477 1.35707 0
M  V30 13439 H 1241.8 3.85567 -0.442697 0
M  V30 13440 H 1239.9 3.18682 1.93062 0
M  V30 13441 H 1240.01 4.71809 0.832659 0
M  V30 13442 H 1238.38 2.48961 0.53763 0
M  V30 13443 H 1239.16 3.30742 -0.920044 0
M  V30 13444 N 1241.6 -0.0451101 1.57535 0
M  V30 13445 C 1243.02 -0.400463 1.54494 0
M  V30 13446 C 1243.22 -1.77584 0.952166 0
M  V30 13447 O 1242.28 -2.46069 0.566221 0
M  V30 13448 C 1243.59 -0.31703 2.99024 0
M  V30 13449 C 1245.14 -0.395284 3.10494 0
M  V30 13450 C 1245.61 -0.341475 4.56725 0
M  V30 13451 N 1247.1 -0.400755 4.61463 0
M  V30 13452 C 1247.84 -0.381757 5.72128 0
M  V30 13453 N 1247.33 -0.315995 6.92079 0
M  V30 13454 N 1249.13 -0.4303 5.60451 0
M  V30 13455 H 1241.28 0.855156 1.94424 0
M  V30 13456 H 1243.54 0.323618 0.891053 0
M  V30 13457 H 1243.25 0.627477 3.46057 0
M  V30 13458 H 1243.12 -1.11696 3.60283 0
M  V30 13459 H 1245.51 -1.33022 2.63418 0
M  V30 13460 H 1245.59 0.433709 2.52096 0
M  V30 13461 H 1245.23 0.589725 5.04465 0
M  V30 13462 H 1245.16 -1.18836 5.13016 0
M  V30 13463 H 1247.65 -0.454745 3.75154 0
M  V30 13464 H 1247.97 -0.306158 7.72193 0
M  V30 13465 H 1246.31 -0.282281 6.94427 0
M  V30 13466 H 1249.5 -0.479555 4.65637 0
M  V30 13467 H 1249.68 -0.412025 6.46689 0
M  V30 13468 N 1243.08 -1.54377 -0.317073 0
M  V30 13469 C 1244.33 -1.72105 -1.0518 0
M  V30 13470 C 1244.64 -0.505166 -1.88964 0
M  V30 13471 O 1245.85 -0.563912 -2.65579 0
M  V30 13472 C 1244.31 -3.04435 -1.91957 0
M  V30 13473 C 1243.91 -4.33449 -1.13253 0
M  V30 13474 C 1245.66 -3.31524 -2.65127 0
M  V30 13475 C 1243.57 -5.56837 -1.99214 0
M  V30 13476 H 1242.5 -0.641392 -0.396399 0
M  V30 13477 H 1245.15 -1.80868 -0.309673 0
M  V30 13478 H 1243.53 -2.89595 -2.70094 0
M  V30 13479 H 1244.7 -4.59074 -0.39842 0
M  V30 13480 H 1243.02 -4.13173 -0.517372 0
M  V30 13481 H 1245.61 -4.20906 -3.29761 0
M  V30 13482 H 1245.96 -2.49688 -3.33109 0
M  V30 13483 H 1246.49 -3.47261 -1.94048 0
M  V30 13484 H 1243.23 -6.41294 -1.35729 0
M  V30 13485 H 1242.75 -5.35421 -2.70341 0
M  V30 13486 H 1244.43 -5.93488 -2.57646 0
M  V30 13487 N 1244.56 0.579466 -1.4656 0
M  V30 13488 C 1245.79 1.36837 -1.55854 0
M  V30 13489 C 1246.21 1.87019 -0.20141 0
M  V30 13490 O 1245.57 1.61746 0.81901 0
M  V30 13491 C 1245.62 2.52965 -2.56985 0
M  V30 13492 O 1244.72 3.54505 -2.10713 0
M  V30 13493 H 1244.06 0.407379 -0.524345 0
M  V30 13494 H 1246.59 0.702558 -1.9216 0
M  V30 13495 H 1246.6 2.99838 -2.76697 0
M  V30 13496 H 1245.28 2.15793 -3.55536 0
M  V30 13497 H 1243.85 3.14089 -2.01003 0
M  V30 13498 N 1246.04 1.3432 0.824371 0
M  V30 13499 C 1247.45 1.23855 1.39703 0
M  V30 13500 C 1247.8 -0.136566 1.95724 0
M  V30 13501 O 1246.93 -1.03683 1.89944 0
M  V30 13502 C 1247.52 2.24249 2.53965 0
M  V30 13503 C 1246.08 2.17578 3.07143 0
M  V30 13504 C 1245.23 2.10933 1.80008 0
M  V30 13505 H 1248.18 1.45707 0.628891 0
M  V30 13506 H 1248.2 1.85864 3.32016 0
M  V30 13507 H 1247.71 3.24321 2.13161 0
M  V30 13508 H 1245.81 1.20858 3.52455 0
M  V30 13509 H 1245.92 3.08769 3.66331 0
M  V30 13510 H 1244.29 1.56631 2.00845 0
M  V30 13511 H 1245.07 3.12836 1.4138 0
M  V30 13512 N 1247.52 -1.0444 1.18026 0
M  V30 13513 C 1248.93 -1.5903 0.978076 0
M  V30 13514 C 1249.28 -1.90407 -0.473241 0
M  V30 13515 O 1248.4 -1.69133 -1.34992 0
M  V30 13516 C 1249 -2.88942 1.76912 0
M  V30 13517 C 1247.56 -3.40164 1.61139 0
M  V30 13518 C 1246.7 -2.13797 1.76596 0
M  V30 13519 H 1249.66 -0.871574 1.32625 0
M  V30 13520 H 1249.68 -3.59173 1.25598 0
M  V30 13521 H 1249.19 -2.66074 2.82535 0
M  V30 13522 H 1247.29 -3.68053 0.580353 0
M  V30 13523 H 1247.4 -4.14241 2.40709 0
M  V30 13524 H 1245.77 -2.24922 1.19507 0
M  V30 13525 H 1246.55 -1.93389 2.83647 0
M  V30 13526 N 1248.99 -0.981699 -1.2329 0
M  V30 13527 C 1249.92 -0.542441 -2.27112 0
M  V30 13528 C 1250.91 0.425034 -1.64704 0
M  V30 13529 O 1252.09 0.318114 -1.91577 0
M  V30 13530 C 1249.22 0.154668 -3.46955 0
M  V30 13531 C 1248.17 -0.73022 -4.21725 0
M  V30 13532 C 1247.5 0.0991766 -5.34608 0
M  V30 13533 C 1248.8 -2.02166 -4.81587 0
M  V30 13534 H 1250.49 -1.41024 -2.64107 0
M  V30 13535 H 1248.04 -0.679544 -1.26957 0
M  V30 13536 H 1249.99 0.473281 -4.18734 0
M  V30 13537 H 1248.72 1.05693 -3.09025 0
M  V30 13538 H 1247.38 -1.03231 -3.51765 0
M  V30 13539 H 1247.02 1.00201 -4.92919 0
M  V30 13540 H 1246.72 -0.489788 -5.85555 0
M  V30 13541 H 1248.25 0.412141 -6.09207 0
M  V30 13542 H 1249.66 -1.76773 -5.45366 0
M  V30 13543 H 1248.06 -2.55851 -5.42826 0
M  V30 13544 H 1249.13 -2.70766 -4.02261 0
M  V30 13545 N 1250.47 1.3842 -0.753509 0
M  V30 13546 C 1251.72 1.99723 -0.309021 0
M  V30 13547 C 1252.04 1.60111 1.11308 0
M  V30 13548 O 1251.31 0.85792 1.76115 0
M  V30 13549 H 1249.89 0.738667 -0.111266 0
M  V30 13550 H 1252.55 1.69186 -0.967586 0
M  V30 13551 H 1251.65 3.09874 -0.372095 0
M  V30 13552 N 1251.95 0.502579 1.49372 0
M  V30 13553 C 1253.23 -0.104472 1.95321 0
M  V30 13554 C 1253.61 -1.53975 1.44412 0
M  V30 13555 O 1252.96 -2.18804 0.658566 0
M  V30 13556 C 1253.17 -0.0154833 3.48997 0
M  V30 13557 C 1254.51 -0.188615 4.24181 0
M  V30 13558 O 1255.54 -0.090595 3.56085 0
M  V30 13559 O 1254.4 -0.390068 5.45106 0
M  V30 13560 H 1251.49 -0.0944325 0.821591 0
M  V30 13561 H 1254.04 0.565229 1.6001 0
M  V30 13562 H 1252.81 0.985383 3.7869 0
M  V30 13563 H 1252.43 -0.72526 3.90929 0
M  V30 13564 N 1253.43 -1.55816 0.23648 0
M  V30 13565 C 1254.84 -1.84757 -0.268622 0
M  V30 13566 C 1255.19 -1.15815 -1.58371 0
M  V30 13567 O 1254.32 -0.432923 -2.12025 0
M  V30 13568 C 1254.91 -3.35177 -0.494167 0
M  V30 13569 C 1253.47 -3.64382 -0.943551 0
M  V30 13570 C 1252.62 -2.77296 -0.0149191 0
M  V30 13571 H 1255.57 -1.51908 0.459308 0
M  V30 13572 H 1255.59 -3.56192 -1.3382 0
M  V30 13573 H 1255.1 -3.85327 0.463138 0
M  V30 13574 H 1253.2 -3.19701 -1.91369 0
M  V30 13575 H 1253.31 -4.72244 -0.807626 0
M  V30 13576 H 1251.68 -2.49243 -0.524419 0
M  V30 13577 H 1252.46 -3.30249 0.937571 0
M  V30 13578 N 1254.91 0.036755 -1.57557 0
M  V30 13579 C 1255.82 1.05687 -2.09446 0
M  V30 13580 C 1256.83 1.40137 -1.03139 0
M  V30 13581 O 1258.01 1.49611 -1.34828 0
M  V30 13582 C 1255.07 2.34114 -2.55717 0
M  V30 13583 C 1254.13 2.06316 -3.76473 0
M  V30 13584 C 1253.37 3.2862 -4.20529 0
M  V30 13585 O 1253.59 4.3902 -3.64167 0
M  V30 13586 O 1252.52 3.14772 -5.13033 0
M  V30 13587 H 1256.35 0.64593 -2.96751 0
M  V30 13588 H 1253.94 0.253235 -1.47238 0
M  V30 13589 H 1255.82 3.09631 -2.85844 0
M  V30 13590 H 1254.49 2.74519 -1.71526 0
M  V30 13591 H 1253.4 1.28392 -3.51378 0
M  V30 13592 H 1254.73 1.70772 -4.61625 0
M  V30 13593 N 1256.39 1.54543 0.308881 0
M  V30 13594 C 1257.63 1.7266 1.04266 0
M  V30 13595 C 1257.95 0.51518 1.88694 0
M  V30 13596 O 1259.15 0.577988 2.65276 0
M  V30 13597 C 1257.61 3.05448 1.9034 0
M  V30 13598 C 1257.22 4.34043 1.10953 0
M  V30 13599 C 1258.96 3.32925 2.63365 0
M  V30 13600 C 1256.87 5.57886 1.96258 0
M  V30 13601 H 1255.8 0.643485 0.392992 0
M  V30 13602 H 1258.45 1.8103 0.300077 0
M  V30 13603 H 1256.83 2.91023 2.68555 0
M  V30 13604 H 1258.01 4.59279 0.374069 0
M  V30 13605 H 1256.32 4.13442 0.495453 0
M  V30 13606 H 1258.92 4.22649 3.27524 0
M  V30 13607 H 1259.26 2.51451 3.3178 0
M  V30 13608 H 1259.79 3.48285 1.92204 0
M  V30 13609 H 1256.53 6.42005 1.32326 0
M  V30 13610 H 1256.05 5.36847 2.67498 0
M  V30 13611 H 1257.73 5.94846 2.54494 0
M  V30 13612 N 1257.86 -0.571685 1.46866 0
M  V30 13613 C 1259.11 -1.32685 1.52444 0
M  V30 13614 C 1259.43 -1.94147 0.182225 0
M  V30 13615 O 1258.7 -1.79159 -0.792385 0
M  V30 13616 H 1257.28 -0.492679 0.561495 0
M  V30 13617 H 1259.94 -0.668694 1.8307 0
M  V30 13618 H 1259.04 -2.12788 2.28315 0
M  V30 13619 N 1259.34 -1.34755 -0.817236 0
M  V30 13620 C 1260.3 -1.26687 -1.91006 0
M  V30 13621 C 1261.3 -0.180745 -1.59781 0
M  V30 13622 O 1262.49 -0.433748 -1.68714 0
M  V30 13623 C 1259.63 -0.957293 -3.27183 0
M  V30 13624 H 1260.82 -2.23846 -1.99582 0
M  V30 13625 H 1258.37 -1.19125 -1.01187 0
M  V30 13626 H 1259.11 0.0108917 -3.24298 0
M  V30 13627 H 1258.89 -1.74297 -3.5123 0
M  V30 13628 H 1260.38 -0.926161 -4.072 0
M  V30 13629 N 1260.82 1.03812 -1.18578 0
M  V30 13630 C 1261.78 2.10049 -0.91718 0
M  V30 13631 C 1262.78 1.60498 0.0985122 0
M  V30 13632 O 1263.97 1.73674 -0.135213 0
M  V30 13633 C 1261.1 3.38813 -0.376599 0
M  V30 13634 H 1262.3 2.3531 -1.85927 0
M  V30 13635 H 1259.85 1.20277 -0.998156 0
M  V30 13636 H 1260.59 3.19216 0.571983 0
M  V30 13637 H 1260.37 3.76096 -1.10881 0
M  V30 13638 H 1261.86 4.17084 -0.207453 0
M  V30 13639 N 1262.3 0.988223 1.22768 0
M  V30 13640 C 1263.54 0.662441 1.91676 0
M  V30 13641 C 1263.88 -0.802931 1.76824 0
M  V30 13642 O 1263.15 -1.58011 1.13415 0
M  V30 13643 C 1263.43 1.06332 3.44043 0
M  V30 13644 C 1263.29 2.5869 3.67967 0
M  V30 13645 C 1264.61 0.613058 4.35809 0
M  V30 13646 H 1261.73 0.242132 0.69609 0
M  V30 13647 H 1264.37 1.23091 1.44736 0
M  V30 13648 H 1262.52 0.579623 3.84152 0
M  V30 13649 H 1264.19 3.14694 3.37291 0
M  V30 13650 H 1262.43 3.00971 3.12408 0
M  V30 13651 H 1263.1 2.8179 4.74656 0
M  V30 13652 H 1265.58 1.02846 4.0319 0
M  V30 13653 H 1264.46 0.921901 5.41103 0
M  V30 13654 H 1264.72 -0.48641 4.39416 0
M  V30 13655 N 1263.78 -1.38018 0.760839 0
M  V30 13656 C 1264.71 -2.32995 0.153557 0
M  V30 13657 C 1265.69 -1.55234 -0.695448 0
M  V30 13658 O 1266.87 -1.8352 -0.635148 0
M  V30 13659 C 1264 -3.39437 -0.734811 0
M  V30 13660 C 1262.96 -4.27998 0.0120287 0
M  V30 13661 C 1262.28 -5.25359 -0.995067 0
M  V30 13662 C 1263.58 -5.08687 1.18468 0
M  V30 13663 H 1265.28 -2.8403 0.946956 0
M  V30 13664 H 1262.82 -1.36562 0.456816 0
M  V30 13665 H 1264.77 -4.0485 -1.16938 0
M  V30 13666 H 1263.5 -2.86901 -1.56061 0
M  V30 13667 H 1262.16 -3.64102 0.427254 0
M  V30 13668 H 1261.81 -4.69108 -1.81512 0
M  V30 13669 H 1261.51 -5.85469 -0.499969 0
M  V30 13670 H 1263.03 -5.93648 -1.4288 0
M  V30 13671 H 1264.44 -5.67299 0.8273 0
M  V30 13672 H 1262.84 -5.78068 1.61112 0
M  V30 13673 H 1263.91 -4.42 1.99409 0
M  V30 13674 N 1265.25 -0.510493 -1.49103 0
M  V30 13675 C 1266.5 0.0306436 -2.02477 0
M  V30 13676 C 1266.83 1.36113 -1.38937 0
M  V30 13677 O 1266.08 1.88731 -0.517584 0
M  V30 13678 C 1266.38 0.221921 -3.5671 0
M  V30 13679 C 1266.05 -1.03176 -4.38937 0
M  V30 13680 C 1264.71 -1.37539 -4.61125 0
M  V30 13681 C 1267.06 -1.86464 -4.86704 0
M  V30 13682 C 1264.39 -2.55124 -5.28326 0
M  V30 13683 C 1266.74 -3.03211 -5.55199 0
M  V30 13684 C 1265.41 -3.37943 -5.75631 0
M  V30 13685 H 1264.68 0.0112133 -0.740915 0
M  V30 13686 H 1267.32 -0.672574 -1.79301 0
M  V30 13687 H 1265.63 1.00775 -3.78618 0
M  V30 13688 H 1267.33 0.655223 -3.95611 0
M  V30 13689 H 1263.92 -0.754105 -4.21914 0
M  V30 13690 H 1268.1 -1.61229 -4.69381 0
M  V30 13691 H 1263.36 -2.8226 -5.42346 0
M  V30 13692 H 1267.53 -3.68068 -5.91185 0
M  V30 13693 H 1265.16 -4.29158 -6.27477 0
M  V30 13694 N 1266.73 1.55688 -0.24474 0
M  V30 13695 C 1267.98 1.98067 0.381081 0
M  V30 13696 C 1268.29 1.13606 1.59227 0
M  V30 13697 O 1269.5 1.45988 2.2891 0
M  V30 13698 C 1267.96 3.52432 0.729385 0
M  V30 13699 C 1267.56 4.45629 -0.460282 0
M  V30 13700 C 1269.31 4.03471 1.31952 0
M  V30 13701 C 1267.21 5.91334 -0.088252 0
M  V30 13702 H 1266.14 0.739699 0.146157 0
M  V30 13703 H 1268.8 1.80235 -0.344615 0
M  V30 13704 H 1267.18 3.65951 1.51315 0
M  V30 13705 H 1268.35 4.43868 -1.23764 0
M  V30 13706 H 1266.67 4.05059 -0.965197 0
M  V30 13707 H 1269.26 5.09849 1.61116 0
M  V30 13708 H 1269.61 3.50691 2.24325 0
M  V30 13709 H 1270.14 3.93269 0.5987 0
M  V30 13710 H 1266.88 6.48147 -0.979069 0
M  V30 13711 H 1266.4 5.96235 0.652947 0
M  V30 13712 H 1268.08 6.46156 0.330324 0
M  V30 13713 N 1268.21 -0.0283989 1.57574 0
M  V30 13714 C 1269.16 -1.02881 2.06601 0
M  V30 13715 C 1270.13 -1.35879 0.955308 0
M  V30 13716 O 1271.31 -1.46205 1.22592 0
M  V30 13717 C 1268.45 -2.32447 2.55073 0
M  V30 13718 C 1267.56 -2.05602 3.79937 0
M  V30 13719 C 1266.7 -3.29043 4.17018 0
M  V30 13720 C 1265.74 -2.97755 5.34797 0
M  V30 13721 N 1264.88 -4.1365 5.67308 0
M  V30 13722 H 1269.72 -0.603772 2.91819 0
M  V30 13723 H 1267.25 -0.286503 1.44283 0
M  V30 13724 H 1269.21 -3.08152 2.81244 0
M  V30 13725 H 1267.84 -2.72672 1.72771 0
M  V30 13726 H 1266.89 -1.2039 3.60847 0
M  V30 13727 H 1268.2 -1.78522 4.65759 0
M  V30 13728 H 1267.36 -4.13115 4.4432 0
M  V30 13729 H 1266.1 -3.59237 3.29849 0
M  V30 13730 H 1265.1 -2.12085 5.07247 0
M  V30 13731 H 1266.33 -2.68839 6.23621 0
M  V30 13732 H 1264.27 -4.43794 4.83097 0
M  V30 13733 H 1264.19 -3.89996 6.47641 0
M  V30 13734 H 1265.46 -4.98594 5.99186 0
M  V30 13735 N 1269.69 -1.54705 -0.300681 0
M  V30 13736 C 1270.65 -1.84934 -1.35395 0
M  V30 13737 C 1271.65 -0.72226 -1.43666 0
M  V30 13738 O 1272.84 -0.990543 -1.43296 0
M  V30 13739 C 1269.97 -2.02991 -2.73875 0
M  V30 13740 H 1271.17 -2.79063 -1.09835 0
M  V30 13741 H 1268.72 -1.46772 -0.537365 0
M  V30 13742 H 1269.45 -1.11151 -3.04657 0
M  V30 13743 H 1269.24 -2.85027 -2.69262 0
M  V30 13744 H 1270.73 -2.27747 -3.5003 0
M  V30 13745 N 1271.17 0.563888 -1.47167 0
M  V30 13746 C 1272.08 1.69903 -1.61772 0
M  V30 13747 C 1273.09 1.6664 -0.500705 0
M  V30 13748 O 1274.27 1.86209 -0.767354 0
M  V30 13749 C 1271.33 3.06411 -1.62213 0
M  V30 13750 C 1270.39 3.20793 -2.8529 0
M  V30 13751 C 1269.63 4.50789 -2.85701 0
M  V30 13752 O 1269.85 5.3584 -1.95529 0
M  V30 13753 O 1268.78 4.68819 -3.77481 0
M  V30 13754 H 1272.61 1.60525 -2.57809 0
M  V30 13755 H 1270.2 0.733125 -1.30175 0
M  V30 13756 H 1272.08 3.87659 -1.65221 0
M  V30 13757 H 1270.75 3.16186 -0.693415 0
M  V30 13758 H 1269.66 2.38967 -2.87829 0
M  V30 13759 H 1270.99 3.15918 -3.77434 0
M  V30 13760 N 1272.64 1.35187 0.810078 0
M  V30 13761 C 1273.55 1.29926 1.95337 0
M  V30 13762 C 1274.57 0.204748 1.72791 0
M  V30 13763 O 1275.75 0.433507 1.96679 0
M  V30 13764 C 1272.81 1.06736 3.29861 0
M  V30 13765 C 1271.87 2.25466 3.65326 0
M  V30 13766 C 1271.11 2.03373 4.93432 0
M  V30 13767 O 1271.33 0.998419 5.61594 0
M  V30 13768 O 1270.26 2.90648 5.27075 0
M  V30 13769 H 1274.09 2.26137 2.02721 0
M  V30 13770 H 1271.67 1.15523 0.947354 0
M  V30 13771 H 1273.56 0.956367 4.10404 0
M  V30 13772 H 1272.23 0.135735 3.23415 0
M  V30 13773 H 1271.14 2.42129 2.85175 0
M  V30 13774 H 1272.47 3.17063 3.76473 0
M  V30 13775 N 1274.12 -1.03182 1.19127 0
M  V30 13776 C 1275.35 -1.80165 1.01726 0
M  V30 13777 C 1275.77 -1.83742 -0.434095 0
M  V30 13778 O 1275.12 -1.27932 -1.30152 0
M  V30 13779 C 1275.17 -3.25354 1.57566 0
M  V30 13780 O 1274.89 -3.22042 2.9702 0
M  V30 13781 C 1276.4 -4.18948 1.44906 0
M  V30 13782 H 1273.62 -0.567078 0.358698 0
M  V30 13783 H 1276.16 -1.29982 1.57877 0
M  V30 13784 H 1274.31 -3.72738 1.0557 0
M  V30 13785 H 1274.73 -4.13061 3.23235 0
M  V30 13786 H 1276.2 -5.18723 1.88762 0
M  V30 13787 H 1276.68 -4.37383 0.399125 0
M  V30 13788 H 1277.29 -3.77435 1.96018 0
M  V30 13789 N 1275.6 -0.99472 -1.22242 0
M  V30 13790 C 1276.55 -0.546504 -2.24236 0
M  V30 13791 C 1277.52 0.422101 -1.60647 0
M  V30 13792 O 1278.7 0.326452 -1.87987 0
M  V30 13793 C 1275.84 0.130909 -3.44852 0
M  V30 13794 C 1274.96 -0.879653 -4.22949 0
M  V30 13795 C 1274.09 -0.175569 -5.3091 0
M  V30 13796 C 1273.13 -1.17438 -6.00729 0
M  V30 13797 N 1272.27 -0.498474 -7.00328 0
M  V30 13798 H 1277.11 -1.42099 -2.61939 0
M  V30 13799 H 1274.64 -0.711755 -1.28734 0
M  V30 13800 H 1276.6 0.540596 -4.13683 0
M  V30 13801 H 1275.23 0.96917 -3.07907 0
M  V30 13802 H 1274.28 -1.40765 -3.53397 0
M  V30 13803 H 1275.6 -1.64017 -4.71062 0
M  V30 13804 H 1274.75 0.290756 -6.06003 0
M  V30 13805 H 1273.49 0.617438 -4.83776 0
M  V30 13806 H 1272.49 -1.65131 -5.24416 0
M  V30 13807 H 1273.72 -1.96829 -6.4995 0
M  V30 13808 H 1271.66 0.275063 -6.55423 0
M  V30 13809 H 1271.58 -1.19741 -7.46457 0
M  V30 13810 H 1272.85 -0.0550119 -7.79481 0
M  V30 13811 N 1277.08 1.37613 -0.768148 0
M  V30 13812 C 1278.01 2.28935 -0.110234 0
M  V30 13813 C 1279.02 1.48459 0.668122 0
M  V30 13814 O 1280.21 1.71154 0.506808 0
M  V30 13815 C 1277.31 3.27606 0.867598 0
M  V30 13816 C 1276.49 4.37163 0.143819 0
M  V30 13817 C 1275.54 5.15931 1.03449 0
M  V30 13818 O 1274.57 5.67003 0.499605 0
M  V30 13819 N 1275.77 5.30311 2.36114 0
M  V30 13820 H 1278.54 2.86037 -0.894585 0
M  V30 13821 H 1276.1 1.4955 -0.620185 0
M  V30 13822 H 1278.09 3.77183 1.4668 0
M  V30 13823 H 1276.66 2.71298 1.55294 0
M  V30 13824 H 1275.88 3.89031 -0.636257 0
M  V30 13825 H 1277.17 5.0755 -0.356446 0
M  V30 13826 H 1276.57 4.90394 2.82011 0
M  V30 13827 H 1275.12 5.83209 2.9105 0
M  V30 13828 N 1278.56 0.518393 1.4883 0
M  V30 13829 C 1279.49 -0.287642 2.27388 0
M  V30 13830 C 1280.5 -0.914974 1.34655 0
M  V30 13831 O 1281.69 -0.795373 1.598 0
M  V30 13832 C 1278.79 -1.42149 3.07647 0
M  V30 13833 C 1277.96 -0.898238 4.28078 0
M  V30 13834 C 1277.02 -1.91179 4.90242 0
M  V30 13835 O 1276.05 -1.47337 5.498 0
M  V30 13836 N 1277.25 -3.24331 4.81445 0
M  V30 13837 H 1280.02 0.386047 2.97203 0
M  V30 13838 H 1277.58 0.352002 1.58027 0
M  V30 13839 H 1279.57 -2.09745 3.46106 0
M  V30 13840 H 1278.14 -1.99903 2.40328 0
M  V30 13841 H 1277.36 -0.0466326 3.94172 0
M  V30 13842 H 1278.65 -0.527338 5.0606 0
M  V30 13843 H 1278.04 -3.62627 4.34187 0
M  V30 13844 H 1276.6 -3.87593 5.24037 0
M  V30 13845 N 1280.03 -1.55556 0.252993 0
M  V30 13846 C 1281.28 -1.98267 -0.370571 0
M  V30 13847 C 1281.6 -1.14449 -1.58622 0
M  V30 13848 O 1282.8 -1.472 -2.28132 0
M  V30 13849 C 1281.26 -3.52813 -0.710685 0
M  V30 13850 C 1280.87 -4.45379 0.483908 0
M  V30 13851 C 1282.61 -4.04165 -1.2981 0
M  V30 13852 C 1280.52 -5.91279 0.119611 0
M  V30 13853 H 1279.45 -0.740463 -0.142232 0
M  V30 13854 H 1282.1 -1.8005 0.354169 0
M  V30 13855 H 1280.48 -3.66748 -1.49372 0
M  V30 13856 H 1281.65 -4.43206 1.26116 0
M  V30 13857 H 1279.97 -4.04542 0.986664 0
M  V30 13858 H 1282.57 -5.10696 -1.5841 0
M  V30 13859 H 1282.91 -3.51875 -2.22462 0
M  V30 13860 H 1283.44 -3.93581 -0.577836 0
M  V30 13861 H 1280.18 -6.47619 1.01343 0
M  V30 13862 H 1279.7 -5.96573 -0.621318 0
M  V30 13863 H 1281.38 -6.46322 -0.296052 0
M  V30 13864 N 1281.51 0.0200419 -1.57587 0
M  V30 13865 C 1282.46 1.0362 -2.08244 0
M  V30 13866 C 1283.45 1.36872 -0.998119 0
M  V30 13867 O 1284.66 1.35671 -1.18293 0
M  V30 13868 H 1281.04 0.351731 -0.664673 0
M  V30 13869 H 1283.01 0.583226 -2.92645 0
M  V30 13870 C 1281.76 2.32574 -2.58466 0
M  V30 13871 H 1281.08 2.0785 -3.41523 0
M  V30 13872 H 1282.52 3.02 -2.97611 0
M  V30 13873 C 1280.98 3.02167 -1.48986 0
M  V30 13874 O 1281.51 3.92359 -0.861251 0
M  V30 13875 N 1279.71 2.63649 -1.22219 0
M  V30 13876 H 1279.26 1.90389 -1.73521 0
M  V30 13877 H 1279.22 3.10529 -0.491828 0
M  V30 13878 N 1282.99 1.54862 0.292472 0
M  V30 13879 C 1283.94 1.86403 1.36098 0
M  V30 13880 C 1284.91 0.713694 1.49985 0
M  V30 13881 O 1286.09 0.963134 1.64707 0
M  V30 13882 C 1283.23 2.1244 2.71962 0
M  V30 13883 C 1282.35 3.40038 2.66454 0
M  V30 13884 C 1281.48 3.55875 3.94368 0
M  V30 13885 C 1280.52 4.77235 3.83293 0
M  V30 13886 N 1279.66 4.89832 5.03 0
M  V30 13887 H 1284.5 2.77546 1.085 0
M  V30 13888 H 1282.03 1.37427 0.524607 0
M  V30 13889 H 1283.99 2.25533 3.50985 0
M  V30 13890 H 1282.62 1.24554 2.97802 0
M  V30 13891 H 1281.67 3.35521 1.79248 0
M  V30 13892 H 1282.99 4.29188 2.54163 0
M  V30 13893 H 1282.14 3.68679 4.8183 0
M  V30 13894 H 1280.88 2.64874 4.09503 0
M  V30 13895 H 1279.88 4.64455 2.94214 0
M  V30 13896 H 1281.11 5.69651 3.69695 0
M  V30 13897 H 1279.05 4.01756 5.18582 0
M  V30 13898 H 1278.97 5.72996 4.93165 0
M  V30 13899 H 1280.24 5.07001 5.92089 0
M  V30 13900 N 1284.47 -0.556076 1.47464 0
M  V30 13901 C 1285.4 -1.67275 1.62915 0
M  V30 13902 C 1286.38 -1.63229 0.478562 0
M  V30 13903 O 1287.56 -1.80833 0.708032 0
M  V30 13904 C 1284.69 -3.05911 1.64426 0
M  V30 13905 C 1283.65 -3.24804 2.78722 0
M  V30 13906 C 1282.97 -4.64238 2.65307 0
M  V30 13907 C 1284.27 -3.10071 4.20302 0
M  V30 13908 H 1285.97 -1.54601 2.56396 0
M  V30 13909 H 1283.51 -0.742337 1.23391 0
M  V30 13910 H 1285.47 -3.83878 1.73826 0
M  V30 13911 H 1284.19 -3.19547 0.675053 0
M  V30 13912 H 1282.85 -2.49246 2.68835 0
M  V30 13913 H 1282.5 -4.74675 1.66412 0
M  V30 13914 H 1282.2 -4.77828 3.41986 0
M  V30 13915 H 1283.72 -5.44339 2.76637 0
M  V30 13916 H 1285.14 -3.77855 4.3116 0
M  V30 13917 H 1283.53 -3.3517 4.97776 0
M  V30 13918 H 1284.6 -2.06803 4.38589 0
M  V30 13919 N 1285.95 -1.35615 -0.802897 0
M  V30 13920 C 1286.9 -1.28877 -1.93632 0
M  V30 13921 C 1287.89 -0.183014 -1.68408 0
M  V30 13922 O 1289.1 -0.349218 -1.7658 0
M  V30 13923 H 1285.47 -0.400883 -0.636236 0
M  V30 13924 H 1287.44 -2.24624 -1.96435 0
M  V30 13925 C 1286.19 -1.08136 -3.30457 0
M  V30 13926 H 1285.51 -1.92463 -3.50426 0
M  V30 13927 H 1286.95 -1.07464 -4.10155 0
M  V30 13928 C 1285.41 0.214635 -3.36216 0
M  V30 13929 O 1285.94 1.20916 -3.8307 0
M  V30 13930 N 1284.15 0.25468 -2.89482 0
M  V30 13931 H 1283.7 -0.555239 -2.51545 0
M  V30 13932 H 1283.65 1.12152 -2.93716 0
M  V30 13933 N 1287.43 1.02549 -1.19673 0
M  V30 13934 C 1288.65 1.8016 -1.02748 0
M  V30 13935 C 1289.08 1.83372 0.419105 0
M  V30 13936 O 1288.43 1.26222 1.30144 0
M  V30 13937 C 1288.48 3.22907 -1.60509 0
M  V30 13938 O 1287.59 4.03823 -0.836702 0
M  V30 13939 H 1286.93 0.556027 -0.362946 0
M  V30 13940 H 1289.46 1.29047 -1.5877 0
M  V30 13941 H 1289.47 3.73646 -1.63868 0
M  V30 13942 H 1288.14 3.19885 -2.65794 0
M  V30 13943 H 1286.72 3.6245 -0.876626 0
M  V30 13944 N 1288.9 1.00119 1.21713 0
M  V30 13945 C 1289.81 0.567582 2.27631 0
M  V30 13946 C 1290.83 -0.387593 1.69628 0
M  V30 13947 O 1292.01 -0.252372 1.99813 0
M  V30 13948 C 1289.07 -0.102745 3.46548 0
M  V30 13949 C 1288.13 0.896433 4.19836 0
M  V30 13950 C 1287.36 0.258 5.33076 0
M  V30 13951 O 1287.59 -0.946118 5.62499 0
M  V30 13952 O 1286.52 0.967021 5.94081 0
M  V30 13953 H 1290.35 1.44898 2.66905 0
M  V30 13954 H 1287.93 0.769862 1.28037 0
M  V30 13955 H 1289.81 -0.477846 4.18682 0
M  V30 13956 H 1288.49 -0.958576 3.09181 0
M  V30 13957 H 1287.4 1.32262 3.49939 0
M  V30 13958 H 1288.73 1.72173 4.61104 0
M  V30 13959 N 1290.38 -1.37203 0.775435 0
M  V30 13960 C 1291.63 -1.99897 0.341936 0
M  V30 13961 C 1291.96 -1.61414 -1.07978 0
M  V30 13962 O 1291.24 -0.862108 -1.7435 0
M  V30 13963 C 1291.52 -3.56755 0.489715 0
M  V30 13964 C 1291.37 -4.05135 1.95411 0
M  V30 13965 C 1292.69 -4.39978 -0.103779 0
M  V30 13966 H 1289.81 -0.726199 0.125717 0
M  V30 13967 H 1292.45 -1.62826 0.979167 0
M  V30 13968 H 1290.6 -3.88464 -0.0527684 0
M  V30 13969 H 1292.27 -3.83975 2.55658 0
M  V30 13970 H 1290.52 -3.57192 2.46164 0
M  V30 13971 H 1291.19 -5.14161 2.00855 0
M  V30 13972 H 1293.66 -4.14547 0.359134 0
M  V30 13973 H 1292.54 -5.48892 0.0297337 0
M  V30 13974 H 1292.8 -4.25658 -1.19448 0
M  V30 13975 N 1291.86 -0.526279 -1.48553 0
M  V30 13976 C 1293.09 0.0052277 -2.06899 0
M  V30 13977 C 1293.5 1.2849 -1.38332 0
M  V30 13978 O 1292.86 1.76354 -0.469648 0
M  V30 13979 C 1292.91 0.236709 -3.60724 0
M  V30 13980 O 1292.63 -0.992256 -4.26715 0
M  V30 13981 C 1294.13 0.809014 -4.35855 0
M  V30 13982 H 1291.35 -0.0318426 -0.670244 0
M  V30 13983 H 1293.9 -0.730865 -1.90994 0
M  V30 13984 H 1292.05 0.922842 -3.76248 0
M  V30 13985 H 1292.47 -0.770697 -5.18807 0
M  V30 13986 H 1293.94 0.920428 -5.44272 0
M  V30 13987 H 1294.42 1.81302 -4.00033 0
M  V30 13988 H 1295.02 0.159564 -4.25001 0
M  V30 13989 N 1293.34 1.5542 -0.261239 0
M  V30 13990 C 1294.57 2.03687 0.363225 0
M  V30 13991 C 1294.98 1.14007 1.50492 0
M  V30 13992 O 1294.34 0.157349 1.8182 0
M  V30 13993 C 1294.39 3.51184 0.857435 0
M  V30 13994 O 1294.11 4.37449 -0.238776 0
M  V30 13995 C 1295.61 4.15277 1.55113 0
M  V30 13996 H 1292.83 0.665641 0.0846356 0
M  V30 13997 H 1295.37 2.00761 -0.389288 0
M  V30 13998 H 1293.53 3.54599 1.56008 0
M  V30 13999 H 1293.94 5.24316 0.138821 0
M  V30 14000 H 1295.42 5.20129 1.8485 0
M  V30 14001 H 1295.89 3.62619 2.47799 0
M  V30 14002 H 1296.5 4.15826 0.892695 0
M  V30 14003 N 1294.82 -0.0116844 1.57596 0
M  V30 14004 C 1295.75 -1.00599 2.10718 0
M  V30 14005 C 1296.73 -1.36601 1.01362 0
M  V30 14006 O 1297.91 -1.4518 1.28982 0
M  V30 14007 C 1295.04 -2.30155 2.60089 0
M  V30 14008 C 1294 -2.08347 3.73866 0
M  V30 14009 C 1293.32 -3.43814 4.09507 0
M  V30 14010 C 1294.62 -1.45552 5.01609 0
M  V30 14011 H 1296.32 -0.563721 2.94045 0
M  V30 14012 H 1293.86 -0.269714 1.41452 0
M  V30 14013 H 1295.81 -3.00058 2.95877 0
M  V30 14014 H 1294.54 -2.76473 1.73868 0
M  V30 14015 H 1293.2 -1.40872 3.38453 0
M  V30 14016 H 1292.85 -3.87814 3.20326 0
M  V30 14017 H 1292.55 -3.30043 4.86154 0
M  V30 14018 H 1294.07 -4.15052 4.47844 0
M  V30 14019 H 1295.48 -2.05396 5.35243 0
M  V30 14020 H 1293.88 -1.42304 5.82983 0
M  V30 14021 H 1294.95 -0.423331 4.83049 0
M  V30 14022 N 1296.29 -1.55015 -0.284256 0
M  V30 14023 C 1297.52 -1.79102 -1.03586 0
M  V30 14024 C 1297.94 -0.558733 -1.80343 0
M  V30 14025 O 1297.29 0.471925 -1.76293 0
M  V30 14026 C 1297.34 -3.00915 -2.0033 0
M  V30 14027 O 1297.07 -4.19384 -1.26685 0
M  V30 14028 C 1298.57 -3.3752 -2.87394 0
M  V30 14029 H 1295.79 -0.596912 -0.306491 0
M  V30 14030 H 1298.33 -2.02005 -0.31845 0
M  V30 14031 H 1296.49 -2.80171 -2.67549 0
M  V30 14032 H 1296.9 -4.88175 -1.91796 0
M  V30 14033 H 1298.37 -4.25953 -3.51095 0
M  V30 14034 H 1298.85 -2.56418 -3.56576 0
M  V30 14035 H 1299.46 -3.60483 -2.25682 0
M  V30 14036 N 1297.77 0.548248 -1.47757 0
M  V30 14037 C 1298.7 1.66999 -1.56984 0
M  V30 14038 C 1299.72 1.56302 -0.455372 0
M  V30 14039 O 1300.91 1.63096 -0.725399 0
M  V30 14040 C 1298.01 3.0553 -1.46645 0
M  V30 14041 C 1297.18 3.41892 -2.72816 0
M  V30 14042 C 1296.24 4.59624 -2.56187 0
M  V30 14043 O 1295.26 4.63757 -3.30028 0
M  V30 14044 N 1296.47 5.56675 -1.64601 0
M  V30 14045 H 1299.23 1.59527 -2.53715 0
M  V30 14046 H 1296.79 0.735101 -1.44249 0
M  V30 14047 H 1298.78 3.82137 -1.33242 0
M  V30 14048 H 1297.35 3.0718 -0.57961 0
M  V30 14049 H 1296.57 2.54644 -3.00916 0
M  V30 14050 H 1297.86 3.62965 -3.56559 0
M  V30 14051 H 1297.26 5.561 -1.03778 0
M  V30 14052 H 1295.82 6.32573 -1.57146 0
M  V30 14053 N 1299.25 1.36039 0.795694 0
M  V30 14054 C 1300.16 1.31991 1.93948 0
M  V30 14055 C 1301.18 0.223064 1.72564 0
M  V30 14056 O 1302.35 0.454344 1.96208 0
M  V30 14057 C 1299.42 1.10228 3.28711 0
M  V30 14058 C 1298.48 2.29328 3.62914 0
M  V30 14059 C 1297.71 2.08595 4.91247 0
M  V30 14060 O 1297.93 1.05793 5.60503 0
M  V30 14061 O 1296.87 2.96222 5.23962 0
M  V30 14062 H 1300.69 2.28274 2.00311 0
M  V30 14063 H 1298.28 1.16521 0.935048 0
M  V30 14064 H 1300.16 0.999842 4.09367 0
M  V30 14065 H 1298.84 0.17003 3.23253 0
M  V30 14066 H 1297.74 2.4514 2.8259 0
M  V30 14067 H 1299.08 3.21038 3.73089 0
M  V30 14068 N 1300.73 -1.01913 1.20215 0
M  V30 14069 C 1301.97 -1.7573 1.01226 0
M  V30 14070 C 1302.31 -1.88799 -0.45481 0
M  V30 14071 O 1301.58 -1.41196 -1.33768 0
M  V30 14072 C 1301.87 -3.17795 1.69348 0
M  V30 14073 C 1301.72 -3.12536 3.23483 0
M  V30 14074 C 1303.04 -4.16409 1.42448 0
M  V30 14075 H 1300.16 -0.637889 0.369144 0
M  V30 14076 H 1302.8 -1.18907 1.48193 0
M  V30 14077 H 1300.95 -3.66311 1.29416 0
M  V30 14078 H 1302.62 -2.71843 3.72692 0
M  V30 14079 H 1300.86 -2.49997 3.54519 0
M  V30 14080 H 1301.53 -4.12949 3.66302 0
M  V30 14081 H 1304.01 -3.76537 1.77086 0
M  V30 14082 H 1302.89 -5.13983 1.92648 0
M  V30 14083 H 1303.15 -4.407 0.351574 0
M  V30 14084 N 1302.21 -1.00763 -1.2118 0
M  V30 14085 C 1303.43 -0.710515 -1.9485 0
M  V30 14086 C 1303.86 0.720934 -1.73736 0
M  V30 14087 O 1303.21 1.49484 -1.02588 0
M  V30 14088 C 1303.26 -1.04035 -3.45267 0
M  V30 14089 O 1302.37 -0.147047 -4.12138 0
M  V30 14090 H 1301.71 -0.264472 -0.609057 0
M  V30 14091 H 1304.24 -1.34858 -1.53865 0
M  V30 14092 H 1304.25 -0.9883 -3.95849 0
M  V30 14093 H 1302.92 -2.08334 -3.59958 0
M  V30 14094 H 1301.5 -0.255847 -3.72021 0
M  V30 14095 N 1303.68 1.3679 -0.7827 0
M  V30 14096 C 1304.62 2.28805 -0.13451 0
M  V30 14097 C 1305.63 1.49159 0.652338 0
M  V30 14098 O 1306.82 1.71682 0.488626 0
M  V30 14099 C 1303.92 3.28508 0.832802 0
M  V30 14100 C 1303.09 4.37291 0.0974435 0
M  V30 14101 C 1302.15 5.16999 0.979715 0
M  V30 14102 O 1301.18 5.67501 0.439439 0
M  V30 14103 N 1302.38 5.32786 2.30477 0
M  V30 14104 H 1305.14 2.85072 -0.924873 0
M  V30 14105 H 1302.7 1.48884 -0.636012 0
M  V30 14106 H 1304.7 3.78718 1.42671 0
M  V30 14107 H 1303.27 2.7293 1.52408 0
M  V30 14108 H 1302.49 3.88335 -0.677483 0
M  V30 14109 H 1303.77 5.07143 -0.410259 0
M  V30 14110 H 1303.17 4.93358 2.76793 0
M  V30 14111 H 1301.73 5.86264 2.84848 0
M  V30 14112 N 1305.16 0.53415 1.48272 0
M  V30 14113 C 1306.09 -0.215037 2.32508 0
M  V30 14114 C 1307.07 -0.931083 1.42355 0
M  V30 14115 O 1308.26 -0.916051 1.71237 0
M  V30 14116 C 1305.39 -1.25985 3.23643 0
M  V30 14117 C 1304.34 -0.661692 4.22854 0
M  V30 14118 C 1303.67 -1.80946 5.03153 0
M  V30 14119 C 1304.97 0.369358 5.20992 0
M  V30 14120 H 1306.66 0.488158 2.95394 0
M  V30 14121 H 1304.21 0.236206 1.4205 0
M  V30 14122 H 1306.16 -1.79195 3.81402 0
M  V30 14123 H 1304.89 -1.99268 2.58766 0
M  V30 14124 H 1303.54 -0.151082 3.66289 0
M  V30 14125 H 1303.19 -2.53077 4.34696 0
M  V30 14126 H 1302.89 -1.41513 5.70305 0
M  V30 14127 H 1304.42 -2.34526 5.63764 0
M  V30 14128 H 1305.83 -0.0758076 5.7325 0
M  V30 14129 H 1304.23 0.681301 5.9622 0
M  V30 14130 H 1305.3 1.27363 4.67875 0
M  V30 14131 N 1306.64 -1.55279 0.269478 0
M  V30 14132 C 1307.89 -1.99077 -0.348224 0
M  V30 14133 C 1308.21 -1.15925 -1.568 0
M  V30 14134 O 1307.48 -0.247404 -1.94331 0
M  V30 14135 H 1306.06 -0.735307 -0.131653 0
M  V30 14136 H 1308.72 -1.91288 0.373506 0
M  V30 14137 H 1307.82 -3.05427 -0.641953 0
M  V30 14138 N 1308.12 0.00332656 -1.576 0
M  V30 14139 C 1309.07 0.99581 -2.08212 0
M  V30 14140 C 1310.04 1.34342 -0.976804 0
M  V30 14141 O 1311.22 1.44236 -1.24902 0
M  V30 14142 C 1308.36 2.2836 -2.58739 0
M  V30 14143 C 1307.47 1.99531 -3.8316 0
M  V30 14144 C 1306.61 3.22367 -4.222 0
M  V30 14145 C 1305.65 2.89209 -5.39467 0
M  V30 14146 N 1304.78 4.04572 -5.73817 0
M  V30 14147 H 1309.62 0.55727 -2.92743 0
M  V30 14148 H 1307.16 0.263513 -1.4472 0
M  V30 14149 H 1309.12 3.03639 -2.86111 0
M  V30 14150 H 1307.75 2.69889 -1.77087 0
M  V30 14151 H 1306.8 1.14634 -3.62716 0
M  V30 14152 H 1308.11 1.71089 -4.6854 0
M  V30 14153 H 1307.27 4.05994 -4.50837 0
M  V30 14154 H 1306.01 3.53944 -3.35522 0
M  V30 14155 H 1305.01 2.03989 -5.10557 0
M  V30 14156 H 1306.24 2.58883 -6.27819 0
M  V30 14157 H 1304.18 4.36052 -4.90096 0
M  V30 14158 H 1304.1 3.79643 -6.53764 0
M  V30 14159 H 1305.37 4.88998 -6.07043 0
M  V30 14160 N 1309.6 1.55164 0.276031 0
M  V30 14161 C 1310.87 1.66338 1.02913 0
M  V30 14162 C 1311.25 0.527876 2.04393 0
M  V30 14163 O 1310.6 -0.472437 2.23563 0
M  V30 14164 C 1310.81 3.05427 1.68865 0
M  V30 14165 C 1312.16 3.63075 2.2014 0
M  V30 14166 O 1313.18 3.0804 1.78857 0
M  V30 14167 O 1312.04 4.59492 2.95854 0
M  V30 14168 H 1309.14 0.675446 0.477181 0
M  V30 14169 H 1311.68 1.67504 0.272129 0
M  V30 14170 H 1310.45 3.79514 0.953125 0
M  V30 14171 H 1310.08 3.08147 2.5126 0
M  V30 14172 N 1311.07 -0.540404 1.48045 0
M  V30 14173 C 1312.01 -1.66223 1.56349 0
M  V30 14174 C 1312.99 -1.57227 0.414552 0
M  V30 14175 O 1314.17 -1.77847 0.624709 0
M  V30 14176 C 1311.3 -3.04568 1.48176 0
M  V30 14177 C 1310.34 -3.31957 2.67781 0
M  V30 14178 S 1311.18 -3.19368 4.29842 0
M  V30 14179 C 1312.33 -4.60177 4.2425 0
M  V30 14180 H 1312.56 -1.58927 2.51256 0
M  V30 14181 H 1310.1 -0.722554 1.3645 0
M  V30 14182 H 1312.06 -3.84359 1.44147 0
M  V30 14183 H 1310.72 -3.09314 0.54625 0
M  V30 14184 H 1309.91 -4.32855 2.58172 0
M  V30 14185 H 1309.51 -2.59817 2.69019 0
M  V30 14186 H 1311.8 -5.51482 3.9354 0
M  V30 14187 H 1312.75 -4.74842 5.25291 0
M  V30 14188 H 1313.15 -4.39011 3.54865 0
M  V30 14189 N 1312.55 -1.36459 -0.788468 0
M  V30 14190 C 1313.97 -1.16893 -1.08666 0
M  V30 14191 C 1314.17 0.00633808 -2.01499 0
M  V30 14192 O 1313.22 0.671417 -2.4341 0
M  V30 14193 C 1314.54 -2.48018 -1.70022 0
M  V30 14194 C 1316.09 -2.5439 -1.82358 0
M  V30 14195 C 1316.56 -3.85605 -2.47129 0
M  V30 14196 N 1318.05 -3.86956 -2.54597 0
M  V30 14197 C 1318.79 -4.85224 -3.05525 0
M  V30 14198 N 1318.28 -5.93885 -3.56753 0
M  V30 14199 N 1320.08 -4.72643 -3.04246 0
M  V30 14200 H 1312.23 -2.11705 -0.171733 0
M  V30 14201 H 1314.49 -0.937784 -0.1388 0
M  V30 14202 H 1314.2 -3.34292 -1.09277 0
M  V30 14203 H 1314.07 -2.63894 -2.69518 0
M  V30 14204 H 1316.46 -1.68534 -2.4224 0
M  V30 14205 H 1316.54 -2.42414 -0.816651 0
M  V30 14206 H 1316.18 -4.71868 -1.87891 0
M  V30 14207 H 1316.11 -3.94878 -3.48395 0
M  V30 14208 H 1318.6 -3.08453 -2.18323 0
M  V30 14209 H 1318.92 -6.64839 -3.93966 0
M  V30 14210 H 1317.26 -5.97553 -3.54902 0
M  V30 14211 H 1320.45 -3.86883 -2.63513 0
M  V30 14212 H 1320.62 -5.49385 -3.43627 0
M  V30 14213 N 1314.03 1.01274 -1.20754 0
M  V30 14214 C 1314.98 2.12012 -0.95675 0
M  V30 14215 C 1315.97 1.69143 0.0932738 0
M  V30 14216 O 1317.18 1.79908 -0.0574298 0
M  V30 14217 H 1313.55 0.692956 -0.292088 0
M  V30 14218 H 1315.52 2.30347 -1.89692 0
M  V30 14219 C 1314.27 3.43643 -0.529602 0
M  V30 14220 H 1313.6 3.77058 -1.32918 0
M  V30 14221 H 1315.04 4.22171 -0.393376 0
M  V30 14222 C 1313.5 3.2825 0.758505 0
M  V30 14223 O 1314.03 3.58309 1.81598 0
M  V30 14224 N 1312.23 2.81487 0.722022 0
M  V30 14225 H 1311.78 2.57226 -0.138807 0
M  V30 14226 H 1311.74 2.7157 1.58421 0
M  V30 14227 N 1315.51 1.01404 1.20644 0
M  V30 14228 C 1316.76 0.702949 1.90227 0
M  V30 14229 C 1317.09 -0.765243 1.78487 0
M  V30 14230 O 1316.36 -1.55569 1.16741 0
M  V30 14231 C 1316.65 1.13606 3.4171 0
M  V30 14232 C 1316.5 2.66437 3.62397 0
M  V30 14233 C 1317.82 0.705361 4.34411 0
M  V30 14234 H 1314.94 0.256842 0.690797 0
M  V30 14235 H 1317.58 1.26133 1.42093 0
M  V30 14236 H 1315.73 0.660977 3.82836 0
M  V30 14237 H 1317.4 3.21778 3.3054 0
M  V30 14238 H 1315.64 3.0753 3.05954 0
M  V30 14239 H 1316.32 2.91795 4.68572 0
M  V30 14240 H 1318.79 1.11375 4.00918 0
M  V30 14241 H 1317.67 1.03647 5.39026 0
M  V30 14242 H 1317.93 -0.393094 4.40349 0
M  V30 14243 N 1316.99 -1.36373 0.789944 0
M  V30 14244 C 1318.24 -1.98476 0.359165 0
M  V30 14245 C 1318.55 -1.634 -1.07517 0
M  V30 14246 O 1319.76 -2.18742 -1.60824 0
M  V30 14247 C 1318.21 -3.55011 0.591228 0
M  V30 14248 C 1317.82 -3.99011 2.03701 0
M  V30 14249 C 1319.56 -4.23903 0.224979 0
M  V30 14250 C 1317.47 -5.48325 2.2157 0
M  V30 14251 H 1316.4 -0.742612 0.130552 0
M  V30 14252 H 1319.05 -1.55664 0.971652 0
M  V30 14253 H 1317.43 -3.95895 -0.0909788 0
M  V30 14254 H 1318.61 -3.69324 2.75566 0
M  V30 14255 H 1316.92 -3.42957 2.36155 0
M  V30 14256 H 1319.52 -5.33638 0.336764 0
M  V30 14257 H 1319.86 -4.08004 -0.826964 0
M  V30 14258 H 1320.4 -3.88383 0.860443 0
M  V30 14259 H 1317.13 -5.69173 3.25149 0
M  V30 14260 H 1316.65 -5.79637 1.54211 0
M  V30 14261 H 1318.33 -6.14556 2.0231 0
M  V30 14262 N 1318.47 -0.542005 -1.47987 0
M  V30 14263 C 1319.4 0.25143 -2.27817 0
M  V30 14264 C 1320.41 0.893436 -1.36094 0
M  V30 14265 O 1321.6 0.769849 -1.61045 0
M  V30 14266 C 1318.7 1.37236 -3.0987 0
M  V30 14267 C 1317.87 0.830021 -4.29452 0
M  V30 14268 C 1316.93 1.83356 -4.93221 0
M  V30 14269 O 1315.96 1.38571 -5.52075 0
M  V30 14270 N 1317.16 3.16631 -4.86544 0
M  V30 14271 H 1319.92 -0.433281 -2.96551 0
M  V30 14272 H 1317.49 -0.377099 -1.57447 0
M  V30 14273 H 1319.48 2.04212 -3.49399 0
M  V30 14274 H 1318.05 1.96055 -2.43478 0
M  V30 14275 H 1317.27 -0.0160827 -3.94197 0
M  V30 14276 H 1318.56 0.446762 -5.06835 0
M  V30 14277 H 1317.95 3.55673 -4.39901 0
M  V30 14278 H 1316.51 3.79207 -5.30137 0
M  V30 14279 N 1319.94 1.55134 -0.277709 0
M  V30 14280 C 1320.87 2.256 0.602232 0
M  V30 14281 C 1321.85 1.24708 1.15681 0
M  V30 14282 O 1323.04 1.53433 1.19046 0
M  V30 14283 C 1320.17 2.97907 1.78519 0
M  V30 14284 C 1319.12 4.0575 1.36203 0
M  V30 14285 C 1318.45 4.65644 2.62829 0
M  V30 14286 C 1319.75 5.19801 0.510327 0
M  V30 14287 H 1321.44 2.99396 0.0145622 0
M  V30 14288 H 1318.99 1.43999 0.00556389 0
M  V30 14289 H 1320.94 3.45915 2.40668 0
M  V30 14290 H 1319.67 2.21649 2.39873 0
M  V30 14291 H 1318.33 3.58557 0.763726 0
M  V30 14292 H 1317.97 3.86053 3.22447 0
M  V30 14293 H 1317.67 5.38463 2.35227 0
M  V30 14294 H 1319.2 5.16403 3.25823 0
M  V30 14295 H 1320.61 5.63845 1.03689 0
M  V30 14296 H 1319.01 5.99197 0.329073 0
M  V30 14297 H 1320.08 4.82614 -0.470273 0
M  V30 14298 N 1321.42 0.00503138 1.57599 0
M  V30 14299 C 1322.35 -0.983586 2.11773 0
M  V30 14300 C 1323.33 -1.35518 1.02805 0
M  V30 14301 O 1324.52 -1.43804 1.30514 0
M  V30 14302 C 1321.65 -2.27383 2.62515 0
M  V30 14303 C 1320.6 -2.0437 3.76054 0
M  V30 14304 C 1319.93 -3.39451 4.1313 0
M  V30 14305 C 1321.23 -1.40223 5.03125 0
M  V30 14306 H 1322.92 -0.532501 2.94627 0
M  V30 14307 H 1320.47 -0.254696 1.4173 0
M  V30 14308 H 1322.42 -2.96903 2.99043 0
M  V30 14309 H 1321.14 -2.74614 1.7679 0
M  V30 14310 H 1319.8 -1.37275 3.39928 0
M  V30 14311 H 1319.45 -3.84395 3.24422 0
M  V30 14312 H 1319.15 -3.24868 4.89627 0
M  V30 14313 H 1320.68 -4.10279 4.52221 0
M  V30 14314 H 1322.09 -1.99708 5.37392 0
M  V30 14315 H 1320.49 -1.36112 5.8446 0
M  V30 14316 H 1321.56 -0.372073 4.8347 0
M  V30 14317 N 1322.9 -1.55308 -0.267798 0
M  V30 14318 C 1323.81 -1.91649 -1.35307 0
M  V30 14319 C 1324.83 -0.814349 -1.53767 0
M  V30 14320 O 1326 -1.11388 -1.67793 0
M  V30 14321 C 1323.07 -2.18553 -2.69138 0
M  V30 14322 C 1322.13 -3.42083 -2.5938 0
M  V30 14323 C 1321.36 -3.67695 -3.86828 0
M  V30 14324 O 1321.58 -2.95728 -4.87751 0
M  V30 14325 O 1320.52 -4.61229 -3.86718 0
M  V30 14326 H 1324.34 -2.84044 -1.07483 0
M  V30 14327 H 1321.93 -1.41921 -0.466772 0
M  V30 14328 H 1323.81 -2.3726 -3.48261 0
M  V30 14329 H 1322.49 -1.2934 -2.96737 0
M  V30 14330 H 1321.39 -3.28706 -1.78614 0
M  V30 14331 H 1322.73 -4.31532 -2.36729 0
M  V30 14332 N 1324.38 0.532545 -1.4833 0
M  V30 14333 C 1325.33 1.65832 -1.63103 0
M  V30 14334 C 1326.32 1.61929 -0.497538 0
M  V30 14335 O 1327.53 1.66817 -0.676176 0
M  V30 14336 H 1323.9 0.549152 -0.513748 0
M  V30 14337 H 1325.87 1.50515 -2.57658 0
M  V30 14338 C 1324.62 3.04113 -1.68555 0
M  V30 14339 H 1323.94 3.07809 -2.55135 0
M  V30 14340 H 1325.38 3.82506 -1.82936 0
M  V30 14341 C 1323.84 3.34225 -0.423711 0
M  V30 14342 O 1324.37 3.99005 0.464523 0
M  V30 14343 N 1322.58 2.89087 -0.296192 0
M  V30 14344 H 1322.13 2.36547 -1.01997 0
M  V30 14345 H 1322.08 3.09604 0.547082 0
M  V30 14346 N 1325.86 1.36875 0.78122 0
M  V30 14347 C 1327.1 1.31754 1.54171 0
M  V30 14348 C 1327.43 -0.100632 1.93939 0
M  V30 14349 O 1326.71 -1.05587 1.63345 0
M  V30 14350 C 1326.99 2.24789 2.81322 0
M  V30 14351 C 1326.85 3.75342 2.47868 0
M  V30 14352 C 1328.16 2.16442 3.83198 0
M  V30 14353 H 1325.28 0.479931 0.559317 0
M  V30 14354 H 1327.93 1.67497 0.896935 0
M  V30 14355 H 1326.08 1.94438 3.36342 0
M  V30 14356 H 1327.75 4.16247 1.98836 0
M  V30 14357 H 1325.99 3.94375 1.80696 0
M  V30 14358 H 1326.66 4.3586 3.38719 0
M  V30 14359 H 1329.14 2.43175 3.37647 0
M  V30 14360 H 1328.01 2.83695 4.69903 0
M  V30 14361 H 1328.27 1.15431 4.26765 0
M  V30 14362 N 1327.33 -1.00632 1.21289 0
M  V30 14363 C 1328.26 -2.11238 0.995021 0
M  V30 14364 C 1329.24 -1.69914 -0.0795537 0
M  V30 14365 O 1330.43 -1.94035 0.0800152 0
M  V30 14366 C 1327.56 -3.42797 0.557475 0
M  V30 14367 C 1326.51 -3.97909 1.57646 0
M  V30 14368 C 1325.84 -5.25357 0.995197 0
M  V30 14369 C 1327.14 -4.30123 2.96297 0
M  V30 14370 H 1328.83 -2.29722 1.9201 0
M  V30 14371 H 1326.38 -1.10395 0.924602 0
M  V30 14372 H 1328.33 -4.19571 0.392236 0
M  V30 14373 H 1327.06 -3.24101 -0.403253 0
M  V30 14374 H 1325.72 -3.23254 1.72924 0
M  V30 14375 H 1325.36 -5.02993 0.026227 0
M  V30 14376 H 1325.06 -5.63196 1.67583 0
M  V30 14377 H 1326.59 -6.04777 0.841251 0
M  V30 14378 H 1328 -4.97744 2.8447 0
M  V30 14379 H 1326.4 -4.79101 3.61361 0
M  V30 14380 H 1327.47 -3.38454 3.47242 0
M  V30 14381 N 1328.81 -1.02043 -1.20104 0
M  V30 14382 C 1330.04 -0.731142 -1.94085 0
M  V30 14383 C 1330.46 0.702467 -1.74491 0
M  V30 14384 O 1329.82 1.48387 -1.04168 0
M  V30 14385 C 1329.87 -1.07691 -3.44144 0
M  V30 14386 O 1328.97 -0.190751 -4.11959 0
M  V30 14387 H 1328.31 -0.270917 -0.606218 0
M  V30 14388 H 1330.84 -1.36483 -1.52426 0
M  V30 14389 H 1330.85 -1.03023 -3.94779 0
M  V30 14390 H 1329.53 -2.1214 -3.57728 0
M  V30 14391 H 1328.1 -0.29529 -3.71729 0
M  V30 14392 N 1330.29 1.35952 -0.797165 0
M  V30 14393 C 1331.7 1.81554 -0.435311 0
M  V30 14394 C 1332.05 1.66266 1.04164 0
M  V30 14395 O 1331.18 1.18796 1.80877 0
M  V30 14396 C 1331.77 3.29619 -0.783358 0
M  V30 14397 C 1330.33 3.73401 -0.47423 0
M  V30 14398 C 1329.48 2.58098 -1.01394 0
M  V30 14399 H 1332.43 1.24064 -0.989638 0
M  V30 14400 H 1332.45 3.80421 -0.0773381 0
M  V30 14401 H 1331.96 3.40715 -1.85836 0
M  V30 14402 H 1330.06 3.6786 0.592418 0
M  V30 14403 H 1330.18 4.68542 -1.00026 0
M  V30 14404 H 1328.54 2.50927 -0.436747 0
M  V30 14405 H 1329.32 2.71976 -2.09485 0
M  V30 14406 N 1331.77 0.549846 1.47697 0
M  V30 14407 C 1332.7 -0.239345 2.27947 0
M  V30 14408 C 1333.71 -0.886206 1.36566 0
M  V30 14409 O 1334.9 -0.761298 1.61451 0
M  V30 14410 C 1332 -1.35591 3.10593 0
M  V30 14411 C 1331.18 -0.807234 4.29887 0
M  V30 14412 C 1330.23 -1.80738 4.94187 0
M  V30 14413 O 1329.26 -1.35641 5.52802 0
M  V30 14414 N 1330.46 -3.14046 4.88216 0
M  V30 14415 H 1333.23 0.449001 2.96318 0
M  V30 14416 H 1330.79 0.385443 1.57245 0
M  V30 14417 H 1332.78 -2.02356 3.50477 0
M  V30 14418 H 1331.35 -1.94761 2.44514 0
M  V30 14419 H 1330.57 0.0369877 3.94183 0
M  V30 14420 H 1331.86 -0.419877 5.07065 0
M  V30 14421 H 1331.26 -3.53335 4.41781 0
M  V30 14422 H 1329.81 -3.7639 5.32141 0
M  V30 14423 N 1333.25 -1.54984 0.285932 0
M  V30 14424 C 1334.18 -2.20365 -0.630236 0
M  V30 14425 C 1335.19 -1.19168 -1.10918 0
M  V30 14426 O 1336.38 -1.45839 -1.02923 0
M  V30 14427 C 1333.48 -2.8244 -1.87299 0
M  V30 14428 C 1332.65 -4.09429 -1.53905 0
M  V30 14429 C 1331.71 -4.55449 -2.63538 0
M  V30 14430 O 1330.74 -5.20985 -2.29267 0
M  V30 14431 N 1331.94 -4.26498 -3.93802 0
M  V30 14432 H 1334.71 -2.99617 -0.0706044 0
M  V30 14433 H 1332.27 -1.61543 0.107486 0
M  V30 14434 H 1334.26 -3.10167 -2.59959 0
M  V30 14435 H 1332.83 -2.07117 -2.34139 0
M  V30 14436 H 1332.05 -3.88875 -0.645774 0
M  V30 14437 H 1333.34 -4.92146 -1.29111 0
M  V30 14438 H 1332.73 -3.73964 -4.24461 0
M  V30 14439 H 1331.29 -4.5897 -4.62807 0
M  V30 14440 N 1334.72 -0.0133892 -1.57594 0
M  V30 14441 C 1336.14 0.527615 -1.7909 0
M  V30 14442 C 1336.49 1.73179 -0.922142 0
M  V30 14443 O 1335.61 2.1602 -0.128233 0
M  V30 14444 C 1336.21 0.963949 -3.24798 0
M  V30 14445 C 1334.77 1.45017 -3.47343 0
M  V30 14446 C 1333.91 0.407548 -2.74289 0
M  V30 14447 H 1336.86 -0.239505 -1.56882 0
M  V30 14448 H 1336.88 1.82924 -3.33645 0
M  V30 14449 H 1336.4 0.0873315 -3.88002 0
M  V30 14450 H 1334.5 2.34724 -2.89371 0
M  V30 14451 H 1334.61 1.4684 -4.56043 0
M  V30 14452 H 1332.97 0.872174 -2.39301 0
M  V30 14453 H 1333.76 -0.460333 -3.402 0
M  V30 14454 N 1336.2 1.55448 0.259558 0
M  V30 14455 C 1337.43 1.81063 1.01148 0
M  V30 14456 C 1337.85 0.58875 1.78649 0
M  V30 14457 O 1337.21 -0.461971 1.75315 0
M  V30 14458 C 1337.26 3.04279 1.93512 0
M  V30 14459 O 1336.36 2.80307 3.02493 0
M  V30 14460 H 1335.7 0.598056 0.288487 0
M  V30 14461 H 1338.23 2.02614 0.284387 0
M  V30 14462 H 1338.24 3.33373 2.35215 0
M  V30 14463 H 1336.92 3.92856 1.36518 0
M  V30 14464 H 1335.5 2.62345 2.65008 0
M  V30 14465 N 1337.68 -0.524672 1.4861 0
M  V30 14466 C 1339.1 -0.853703 1.34848 0
M  V30 14467 C 1339.3 -1.98194 0.363529 0
M  V30 14468 O 1338.35 -2.51597 -0.213348 0
M  V30 14469 C 1339.67 -1.21622 2.75006 0
M  V30 14470 C 1341.21 -1.3258 2.83534 0
M  V30 14471 C 1341.69 -1.72172 4.24406 0
M  V30 14472 N 1343.18 -1.79265 4.27105 0
M  V30 14473 C 1343.91 -2.11296 5.33049 0
M  V30 14474 N 1343.41 -2.41714 6.49266 0
M  V30 14475 N 1345.2 -2.12347 5.20447 0
M  V30 14476 H 1337.35 0.219671 2.11261 0
M  V30 14477 H 1339.62 0.0356444 0.94733 0
M  V30 14478 H 1339.32 -0.460776 3.48669 0
M  V30 14479 H 1339.2 -2.16516 3.0887 0
M  V30 14480 H 1341.58 -2.072 2.10124 0
M  V30 14481 H 1341.67 -0.357943 2.53283 0
M  V30 14482 H 1341.31 -0.981108 4.98334 0
M  V30 14483 H 1341.24 -2.70017 4.52104 0
M  V30 14484 H 1343.73 -1.58013 3.43279 0
M  V30 14485 H 1344.04 -2.65276 7.25843 0
M  V30 14486 H 1342.39 -2.39222 6.52532 0
M  V30 14487 H 1345.58 -1.88044 4.28669 0
M  V30 14488 H 1345.75 -2.36978 6.03113 0
M  V30 14489 N 1339.16 -1.37287 -0.77395 0
M  V30 14490 C 1340.41 -1.32374 -1.53243 0
M  V30 14491 C 1340.73 0.0924284 -1.9428 0
M  V30 14492 O 1339.99 1.06517 -1.64173 0
M  V30 14493 C 1340.29 -2.20667 -2.81142 0
M  V30 14494 C 1339.95 -3.68975 -2.59168 0
M  V30 14495 C 1338.62 -4.09394 -2.52884 0
M  V30 14496 C 1340.97 -4.62941 -2.39447 0
M  V30 14497 C 1338.3 -5.41897 -2.24865 0
M  V30 14498 C 1340.65 -5.9568 -2.12952 0
M  V30 14499 C 1339.31 -6.35205 -2.05111 0
M  V30 14500 H 1338.58 -0.48439 -0.560756 0
M  V30 14501 H 1341.23 -1.69475 -0.891663 0
M  V30 14502 H 1339.53 -1.76553 -3.49766 0
M  V30 14503 H 1341.23 -2.1418 -3.3901 0
M  V30 14504 H 1337.82 -3.36919 -2.64922 0
M  V30 14505 H 1342 -4.32576 -2.43293 0
M  V30 14506 H 1337.26 -5.71486 -2.17288 0
M  V30 14507 H 1341.43 -6.68046 -1.9669 0
M  V30 14508 H 1339.06 -7.37804 -1.83163 0
M  V30 14509 N 1340.64 0.999871 -1.21821 0
M  V30 14510 C 1341.88 1.75366 -1.05005 0
M  V30 14511 C 1342.24 1.87601 0.408656 0
M  V30 14512 O 1343.44 2.59593 0.697479 0
M  V30 14513 C 1341.71 3.12525 -1.73387 0
M  V30 14514 S 1343.27 4.0373 -1.71894 0
M  V30 14515 H 1340.09 0.603334 -0.376177 0
M  V30 14516 H 1342.69 1.19598 -1.5465 0
M  V30 14517 H 1341.4 3.01258 -2.78697 0
M  V30 14518 H 1340.93 3.73365 -1.23944 0
M  V30 14519 H 1342.94 4.90288 -0.763668 0
M  V30 14520 N 1342.11 1.02678 1.19562 0
M  V30 14521 C 1343.34 0.741424 1.93695 0
M  V30 14522 C 1343.76 -0.693203 1.74861 0
M  V30 14523 O 1343.12 -1.47833 1.04953 0
M  V30 14524 C 1343.17 1.09514 3.43568 0
M  V30 14525 O 1342.27 0.212596 4.11852 0
M  V30 14526 H 1341.62 0.274128 0.604773 0
M  V30 14527 H 1344.15 1.37289 1.517 0
M  V30 14528 H 1344.16 1.05115 3.94227 0
M  V30 14529 H 1342.83 2.14034 3.56598 0
M  V30 14530 H 1341.41 0.315 3.71567 0
M  V30 14531 N 1343.59 -1.35528 0.804364 0
M  V30 14532 C 1344.52 -2.32388 0.227604 0
M  V30 14533 C 1345.5 -1.57368 -0.645709 0
M  V30 14534 O 1346.69 -1.85448 -0.576441 0
M  V30 14535 C 1343.82 -3.41603 -0.62645 0
M  V30 14536 C 1342.77 -4.27743 0.148187 0
M  V30 14537 C 1342.1 -5.28259 -0.827425 0
M  V30 14538 C 1343.4 -5.04661 1.34591 0
M  V30 14539 H 1345.09 -2.80874 1.03684 0
M  V30 14540 H 1342.64 -1.3504 0.500031 0
M  V30 14541 H 1344.59 -4.08365 -1.03999 0
M  V30 14542 H 1343.32 -2.91721 -1.46855 0
M  V30 14543 H 1341.97 -3.62558 0.542874 0
M  V30 14544 H 1341.62 -4.74645 -1.66496 0
M  V30 14545 H 1341.32 -5.86763 -0.313453 0
M  V30 14546 H 1342.85 -5.97893 -1.23921 0
M  V30 14547 H 1344.26 -5.6438 1.00736 0
M  V30 14548 H 1342.66 -5.7265 1.79422 0
M  V30 14549 H 1343.73 -4.35432 2.1337 0
M  V30 14550 N 1345.07 -0.557671 -1.47404 0
M  V30 14551 C 1346.02 0.210176 -2.27029 0
M  V30 14552 C 1347.01 0.884882 -1.34382 0
M  V30 14553 O 1348.2 0.783112 -1.58734 0
M  V30 14554 C 1345.33 1.23923 -3.20153 0
M  V30 14555 C 1344.41 0.567913 -4.2028 0
M  V30 14556 N 1344.8 -0.362279 -5.04501 0
M  V30 14557 C 1343.1 0.821776 -4.38364 0
M  V30 14558 C 1343.8 -0.752273 -5.76815 0
M  V30 14559 N 1342.78 -0.107008 -5.43495 0
M  V30 14560 H 1346.58 -0.505007 -2.89529 0
M  V30 14561 H 1344.09 -0.377642 -1.57948 0
M  V30 14562 H 1346.09 1.80328 -3.75882 0
M  V30 14563 H 1344.75 1.9555 -2.59211 0
M  V30 14564 H 1345.76 -0.736468 -5.12637 0
M  V30 14565 H 1342.44 1.52652 -3.88592 0
M  V30 14566 H 1343.83 -1.51664 -6.54559 0
M  V30 14567 N 1346.55 1.54831 -0.294147 0
M  V30 14568 C 1347.77 2.04873 0.32276 0
M  V30 14569 C 1348.2 1.17034 1.47257 0
M  V30 14570 O 1347.56 0.172949 1.80473 0
M  V30 14571 C 1347.61 3.52431 0.76319 0
M  V30 14572 O 1346.71 3.67635 1.86865 0
M  V30 14573 H 1346.05 0.660926 0.0638162 0
M  V30 14574 H 1348.58 1.99944 -0.433995 0
M  V30 14575 H 1348.59 3.94155 1.05385 0
M  V30 14576 H 1347.27 4.15827 -0.0779464 0
M  V30 14577 H 1345.84 3.37816 1.57907 0
M  V30 14578 N 1348.03 0.0217466 1.57585 0
M  V30 14579 C 1349.26 -0.668881 1.9579 0
M  V30 14580 C 1349.67 -1.66085 0.897849 0
M  V30 14581 O 1349.03 -1.82098 -0.121099 0
M  V30 14582 C 1349.08 -1.38174 3.34051 0
M  V30 14583 O 1348.8 -0.429527 4.35989 0
M  V30 14584 C 1350.3 -2.16487 3.86844 0
M  V30 14585 H 1347.52 -0.184919 0.645016 0
M  V30 14586 H 1350.06 0.0793241 2.04346 0
M  V30 14587 H 1348.22 -2.0814 3.26736 0
M  V30 14588 H 1348.63 -0.934887 5.16101 0
M  V30 14589 H 1350.11 -2.61829 4.85952 0
M  V30 14590 H 1350.58 -3.00082 3.20698 0
M  V30 14591 H 1351.19 -1.51493 3.97404 0
M  V30 14592 N 1349.51 -1.55583 -0.251311 0
M  V30 14593 C 1350.73 -1.81597 -1.00186 0
M  V30 14594 C 1351.16 -0.598216 -1.78334 0
M  V30 14595 O 1350.51 0.452667 -1.75558 0
M  V30 14596 C 1350.56 -3.05301 -1.91895 0
M  V30 14597 O 1349.67 -2.81907 -3.01002 0
M  V30 14598 H 1349.01 -0.599578 -0.285311 0
M  V30 14599 H 1351.54 -2.02762 -0.273638 0
M  V30 14600 H 1351.55 -3.34616 -2.33444 0
M  V30 14601 H 1350.22 -3.93574 -1.34433 0
M  V30 14602 H 1348.8 -2.63747 -2.63613 0
M  V30 14603 N 1350.98 0.516783 -1.48886 0
M  V30 14604 C 1352.23 1.27375 -1.57808 0
M  V30 14605 C 1352.56 1.92492 -0.256963 0
M  V30 14606 O 1351.84 1.79947 0.738193 0
M  V30 14607 C 1352.12 2.35295 -2.72595 0
M  V30 14608 C 1351.97 1.74783 -4.14453 0
M  V30 14609 C 1353.29 3.36973 -2.83085 0
M  V30 14610 H 1350.41 0.46175 -0.574418 0
M  V30 14611 H 1353.05 0.57434 -1.81111 0
M  V30 14612 H 1351.2 2.94951 -2.52857 0
M  V30 14613 H 1352.88 1.19076 -4.45666 0
M  V30 14614 H 1351.12 1.05258 -4.20836 0
M  V30 14615 H 1351.79 2.52985 -4.90615 0
M  V30 14616 H 1354.27 2.87289 -3.01005 0
M  V30 14617 H 1353.14 4.09864 -3.65106 0
M  V30 14618 H 1353.4 3.98336 -1.91784 0
M  V30 14619 N 1352.46 1.37696 0.766659 0
M  V30 14620 C 1353.7 1.34588 1.53836 0
M  V30 14621 C 1354.07 -0.0676384 1.91881 0
M  V30 14622 O 1355.27 -0.223479 2.67869 0
M  V30 14623 C 1353.54 2.26329 2.76604 0
M  V30 14624 S 1355.1 2.4112 3.66615 0
M  V30 14625 H 1351.91 0.477717 0.5266 0
M  V30 14626 H 1354.52 1.73495 0.901099 0
M  V30 14627 H 1353.22 3.27943 2.46742 0
M  V30 14628 H 1352.75 1.88525 3.45285 0
M  V30 14629 H 1354.77 1.62556 4.68818 0
M  V30 14630 N 1353.94 -0.993397 1.22349 0
M  V30 14631 C 1355.35 -1.54739 1.04465 0
M  V30 14632 C 1355.7 -1.92243 -0.392057 0
M  V30 14633 O 1354.83 -1.74707 -1.27697 0
M  V30 14634 C 1355.42 -2.81179 1.89007 0
M  V30 14635 C 1353.98 -3.33023 1.75421 0
M  V30 14636 C 1353.13 -2.06114 1.85505 0
M  V30 14637 H 1356.08 -0.814539 1.36202 0
M  V30 14638 H 1356.1 -3.53523 1.40718 0
M  V30 14639 H 1355.61 -2.53851 2.93566 0
M  V30 14640 H 1353.71 -3.6526 0.735935 0
M  V30 14641 H 1353.83 -4.03659 2.58062 0
M  V30 14642 H 1352.19 -2.19651 1.2894 0
M  V30 14643 H 1352.97 -1.81184 2.91594 0
M  V30 14644 N 1355.42 -1.03311 -1.19015 0
M  V30 14645 C 1356.64 -0.751686 -1.93299 0
M  V30 14646 C 1357.07 0.68392 -1.75226 0
M  V30 14647 O 1356.43 1.47274 -1.05736 0
M  V30 14648 C 1356.47 -1.11335 -3.42982 0
M  V30 14649 O 1355.58 -0.234434 -4.11733 0
M  V30 14650 H 1354.92 -0.277331 -0.60331 0
M  V30 14651 H 1357.45 -1.38092 -1.5097 0
M  V30 14652 H 1357.46 -1.07204 -3.93664 0
M  V30 14653 H 1356.13 -2.15922 -3.55458 0
M  V30 14654 H 1354.71 -0.3347 -3.71395 0
M  V30 14655 N 1356.9 1.35099 -0.81154 0
M  V30 14656 C 1358.31 1.51701 -0.495883 0
M  V30 14657 C 1358.51 1.7595 0.982035 0
M  V30 14658 O 1357.57 1.8038 1.7669 0
M  V30 14659 C 1358.88 2.68916 -1.34554 0
M  V30 14660 C 1360.43 2.82795 -1.34149 0
M  V30 14661 C 1360.9 4.0304 -2.17538 0
M  V30 14662 N 1362.39 4.10227 -2.151 0
M  V30 14663 C 1363.13 5.02397 -2.76377 0
M  V30 14664 N 1362.63 5.99866 -3.46601 0
M  V30 14665 N 1364.42 4.95181 -2.65992 0
M  V30 14666 H 1356.57 1.17617 -1.76862 0
M  V30 14667 H 1358.83 0.575875 -0.753042 0
M  V30 14668 H 1358.54 2.57591 -2.39458 0
M  V30 14669 H 1358.41 3.63641 -1.00223 0
M  V30 14670 H 1360.8 2.93568 -0.300285 0
M  V30 14671 H 1360.88 1.88912 -1.7247 0
M  V30 14672 H 1360.52 3.93027 -3.21702 0
M  V30 14673 H 1360.45 4.96114 -1.76574 0
M  V30 14674 H 1362.95 3.40454 -1.6401 0
M  V30 14675 H 1363.26 6.66803 -3.90632 0
M  V30 14676 H 1361.6 6.00025 -3.50706 0
M  V30 14677 H 1364.79 4.17991 -2.10715 0
M  V30 14678 H 1364.97 5.6682 -3.14036 0
M  V30 14679 N 1358.37 0.56548 1.47106 0
M  V30 14680 C 1359.28 -0.180488 2.33905 0
M  V30 14681 C 1360.3 -0.90355 1.48701 0
M  V30 14682 O 1361.48 -0.870595 1.81611 0
M  V30 14683 C 1358.54 -1.19212 3.2556 0
M  V30 14684 C 1357.6 -0.475589 4.26658 0
M  V30 14685 C 1356.83 -1.43902 5.13934 0
M  V30 14686 O 1357.06 -2.67443 5.03816 0
M  V30 14687 O 1355.99 -0.958998 5.94211 0
M  V30 14688 H 1359.82 0.531726 2.99009 0
M  V30 14689 H 1357.4 0.32602 1.45799 0
M  V30 14690 H 1359.28 -1.77586 3.82153 0
M  V30 14691 H 1357.96 -1.8861 2.63074 0
M  V30 14692 H 1356.87 0.149561 3.73801 0
M  V30 14693 H 1358.2 0.177103 4.91881 0
M  V30 14694 N 1359.85 -1.54672 0.302354 0
M  V30 14695 C 1361.08 -2.05041 -0.311891 0
M  V30 14696 C 1361.5 -1.17814 -1.46634 0
M  V30 14697 O 1360.86 -0.182517 -1.80379 0
M  V30 14698 C 1360.91 -3.52831 -0.744489 0
M  V30 14699 O 1360.01 -3.68621 -1.84913 0
M  V30 14700 H 1359.35 -0.661255 -0.0603102 0
M  V30 14701 H 1361.88 -1.99711 0.444593 0
M  V30 14702 H 1361.89 -3.94708 -1.03293 0
M  V30 14703 H 1360.57 -4.1578 0.0999976 0
M  V30 14704 H 1359.15 -3.38649 -1.56113 0
M  V30 14705 N 1361.33 -0.0301034 -1.57571 0
M  V30 14706 C 1362.26 0.94977 -2.13311 0
M  V30 14707 C 1363.24 1.33865 -1.04948 0
M  V30 14708 O 1364.43 1.4171 -1.32786 0
M  V30 14709 C 1361.56 2.23178 -2.66099 0
M  V30 14710 C 1360.51 1.98362 -3.79258 0
M  V30 14711 C 1359.84 3.32836 -4.18479 0
M  V30 14712 C 1361.14 1.32201 -5.05292 0
M  V30 14713 H 1362.83 0.485562 -2.95436 0
M  V30 14714 H 1360.38 0.232116 -1.42117 0
M  V30 14715 H 1362.33 2.92108 -3.03728 0
M  V30 14716 H 1361.05 2.71766 -1.81137 0
M  V30 14717 H 1359.71 1.31849 -3.42069 0
M  V30 14718 H 1359.36 3.79185 -3.30496 0
M  V30 14719 H 1359.06 3.17037 -4.94733 0
M  V30 14720 H 1360.58 4.03032 -4.58691 0
M  V30 14721 H 1362 1.91133 -5.40501 0
M  V30 14722 H 1360.4 1.26797 -5.86551 0
M  V30 14723 H 1361.47 0.29511 -4.84001 0
M  V30 14724 N 1362.81 1.55714 0.243056 0
M  V30 14725 C 1363.74 1.87093 1.32396 0
M  V30 14726 C 1364.75 0.757482 1.44104 0
M  V30 14727 O 1365.94 1.03563 1.45386 0
M  V30 14728 C 1363.04 2.04546 2.70212 0
M  V30 14729 C 1362.22 3.3543 2.80723 0
M  V30 14730 C 1361.27 3.42578 3.99408 0
M  V30 14731 O 1360.3 4.15762 3.88755 0
M  V30 14732 N 1361.5 2.7215 5.12752 0
M  V30 14733 H 1364.27 2.80399 1.05813 0
M  V30 14734 H 1361.83 1.55998 0.433151 0
M  V30 14735 H 1363.82 2.06665 3.47954 0
M  V30 14736 H 1362.39 1.17966 2.89487 0
M  V30 14737 H 1361.61 3.45594 1.89626 0
M  V30 14738 H 1362.9 4.21692 2.84698 0
M  V30 14739 H 1362.3 2.1243 5.24299 0
M  V30 14740 H 1360.85 2.79957 5.88615 0
M  V30 14741 N 1364.29 -0.50888 1.49158 0
M  V30 14742 C 1365.51 -1.28771 1.61943 0
M  V30 14743 C 1365.93 -1.86594 0.287759 0
M  V30 14744 O 1365.29 -1.67448 -0.725769 0
M  V30 14745 C 1365.34 -2.4236 2.68224 0
M  V30 14746 O 1365.06 -1.86915 3.96225 0
M  V30 14747 C 1366.56 -3.33856 2.91642 0
M  V30 14748 H 1363.78 -0.390849 0.545416 0
M  V30 14749 H 1366.32 -0.611729 1.95136 0
M  V30 14750 H 1364.48 -3.05803 2.37831 0
M  V30 14751 H 1364.89 -2.61426 4.54705 0
M  V30 14752 H 1366.37 -4.09856 3.69759 0
M  V30 14753 H 1366.84 -3.90374 2.01258 0
M  V30 14754 H 1367.45 -2.76187 3.23421 0
M  V30 14755 N 1365.76 -1.381 -0.759346 0
M  V30 14756 C 1367.18 -1.19171 -1.06162 0
M  V30 14757 C 1367.38 -0.0364043 -2.01467 0
M  V30 14758 O 1366.44 0.619635 -2.44779 0
M  V30 14759 C 1367.75 -2.51569 -1.64723 0
M  V30 14760 C 1369.3 -2.58201 -1.76921 0
M  V30 14761 C 1369.77 -3.9076 -2.38894 0
M  V30 14762 N 1371.26 -3.92269 -2.46331 0
M  V30 14763 C 1372 -4.91595 -2.95164 0
M  V30 14764 N 1371.49 -6.01318 -3.44075 0
M  V30 14765 N 1373.29 -4.7899 -2.94152 0
M  V30 14766 H 1365.44 -2.12021 -0.126788 0
M  V30 14767 H 1367.7 -0.940517 -0.118877 0
M  V30 14768 H 1367.41 -3.36535 -1.02162 0
M  V30 14769 H 1367.28 -2.69551 -2.6386 0
M  V30 14770 H 1369.67 -1.73634 -2.38611 0
M  V30 14771 H 1369.75 -2.44092 -0.765047 0
M  V30 14772 H 1369.39 -4.75747 -1.7784 0
M  V30 14773 H 1369.32 -4.02179 -3.39941 0
M  V30 14774 H 1371.81 -3.13015 -2.11731 0
M  V30 14775 H 1372.13 -6.73046 -3.79776 0
M  V30 14776 H 1370.47 -6.04946 -3.42148 0
M  V30 14777 H 1373.66 -3.92385 -2.55248 0
M  V30 14778 H 1373.84 -5.5655 -3.31897 0
M  V30 14779 N 1367.24 0.986894 -1.22875 0
M  V30 14780 C 1368.47 1.76266 -1.08342 0
M  V30 14781 C 1368.89 1.85226 0.365602 0
M  V30 14782 O 1368.24 1.32675 1.25314 0
M  V30 14783 C 1368.29 3.19282 -1.69533 0
M  V30 14784 O 1368.01 3.10796 -3.08768 0
M  V30 14785 C 1369.52 4.13281 -1.60355 0
M  V30 14786 H 1366.74 0.553374 -0.379497 0
M  V30 14787 H 1369.28 1.24033 -1.62592 0
M  V30 14788 H 1367.43 3.68563 -1.19332 0
M  V30 14789 H 1367.85 4.0078 -3.38343 0
M  V30 14790 H 1369.32 5.11359 -2.07884 0
M  V30 14791 H 1369.8 4.356 -0.561182 0
M  V30 14792 H 1370.41 3.699 -2.09891 0
M  V30 14793 N 1368.72 1.0394 1.18466 0
M  V30 14794 C 1369.95 0.761926 1.92897 0
M  V30 14795 C 1370.37 -0.674618 1.75586 0
M  V30 14796 O 1369.73 -1.46711 1.06515 0
M  V30 14797 C 1369.78 1.13152 3.42387 0
M  V30 14798 O 1368.88 0.256266 4.11603 0
M  V30 14799 H 1368.22 0.280527 0.601831 0
M  V30 14800 H 1370.75 1.3889 1.50235 0
M  V30 14801 H 1370.76 1.0929 3.9309 0
M  V30 14802 H 1369.44 2.17804 3.54308 0
M  V30 14803 H 1368.01 0.354392 3.71212 0
M  V30 14804 N 1370.2 -1.34667 0.818693 0
M  V30 14805 C 1371.44 -1.99131 0.414527 0
M  V30 14806 C 1371.8 -1.63747 -1.01018 0
M  V30 14807 O 1371.09 -0.896699 -1.69322 0
M  V30 14808 C 1371.29 -3.53157 0.549059 0
M  V30 14809 C 1371.12 -4.03505 1.98529 0
M  V30 14810 C 1369.89 -4.32296 2.61627 0
M  V30 14811 C 1372.08 -4.2118 2.95147 0
M  V30 14812 N 1370.07 -4.68651 3.96534 0
M  V30 14813 C 1371.44 -4.60668 4.14952 0
M  V30 14814 C 1373.49 -4.03418 2.91819 0
M  V30 14815 C 1372.19 -4.8425 5.31878 0
M  V30 14816 C 1374.22 -4.28164 4.07958 0
M  V30 14817 C 1373.58 -4.67934 5.26514 0
M  V30 14818 H 1369.68 -0.75607 0.199704 0
M  V30 14819 H 1372.27 -1.63154 1.0625 0
M  V30 14820 H 1370.44 -3.88339 -0.0689894 0
M  V30 14821 H 1372.17 -4.04527 0.118304 0
M  V30 14822 H 1368.92 -4.23051 2.12896 0
M  V30 14823 H 1369.35 -4.9107 4.66025 0
M  V30 14824 H 1373.99 -3.71802 2.01303 0
M  V30 14825 H 1371.71 -5.14734 6.22956 0
M  V30 14826 H 1375.29 -4.15961 4.06777 0
M  V30 14827 H 1374.17 -4.86707 6.14887 0
M  V30 14828 N 1371.68 -0.573274 -1.46804 0
M  V30 14829 C 1372.9 -0.0586717 -2.07317 0
M  V30 14830 C 1373.33 1.2328 -1.42069 0
M  V30 14831 O 1372.68 1.74235 -0.501188 0
M  V30 14832 C 1372.73 0.103503 -3.60451 0
M  V30 14833 O 1371.84 1.16229 -3.95682 0
M  V30 14834 H 1371.18 -0.0585504 -0.661414 0
M  V30 14835 H 1373.71 -0.793532 -1.88585 0
M  V30 14836 H 1373.72 0.312658 -4.068 0
M  V30 14837 H 1372.39 -0.839684 -4.07335 0
M  V30 14838 H 1370.97 0.932347 -3.61056 0
M  V30 14839 N 1373.15 1.5451 -0.310553 0
M  V30 14840 C 1374.12 2.2254 0.548489 0
M  V30 14841 C 1375.12 1.21456 1.05381 0
M  V30 14842 O 1376.31 1.46126 0.948311 0
M  V30 14843 C 1373.44 2.91927 1.76043 0
M  V30 14844 H 1374.63 2.99865 -0.0460306 0
M  V30 14845 H 1372.19 1.56179 -0.061487 0
M  V30 14846 H 1372.92 2.18706 2.39454 0
M  V30 14847 H 1372.71 3.66038 1.40564 0
M  V30 14848 H 1374.2 3.43797 2.37051 0
M  V30 14849 N 1374.63 0.0384594 1.57553 0
M  V30 14850 C 1375.58 -0.949625 2.07283 0
M  V30 14851 C 1376.57 -1.27973 0.975284 0
M  V30 14852 O 1377.76 -1.26428 1.23875 0
M  V30 14853 C 1374.89 -2.22887 2.61106 0
M  V30 14854 C 1373.97 -1.92672 3.77807 0
M  V30 14855 N 1374.37 -1.32764 4.88065 0
M  V30 14856 C 1372.66 -2.22612 3.86471 0
M  V30 14857 C 1373.36 -1.19892 5.69211 0
M  V30 14858 N 1372.34 -1.69757 5.16414 0
M  V30 14859 H 1376.14 -0.481562 2.89928 0
M  V30 14860 H 1373.66 -0.166321 1.61546 0
M  V30 14861 H 1375.65 -2.94556 2.9503 0
M  V30 14862 H 1374.31 -2.70311 1.79895 0
M  V30 14863 H 1375.32 -1.00146 5.08125 0
M  V30 14864 H 1372 -2.72645 3.16182 0
M  V30 14865 H 1373.39 -0.734892 6.67869 0
M  V30 14866 N 1376.11 -1.55841 -0.234795 0
M  V30 14867 C 1377.04 -1.87793 -1.31402 0
M  V30 14868 C 1378.06 -0.765113 -1.43701 0
M  V30 14869 O 1379.25 -1.04332 -1.44834 0
M  V30 14870 C 1376.35 -2.05976 -2.69123 0
M  V30 14871 C 1375.52 -3.36914 -2.7894 0
M  V30 14872 C 1374.58 -3.44691 -3.97586 0
M  V30 14873 O 1373.6 -4.17818 -3.86545 0
M  V30 14874 N 1374.81 -2.74866 -5.11301 0
M  V30 14875 H 1377.57 -2.80957 -1.04324 0
M  V30 14876 H 1375.13 -1.56226 -0.424872 0
M  V30 14877 H 1377.12 -2.08507 -3.46853 0
M  V30 14878 H 1375.69 -1.195 -2.88857 0
M  V30 14879 H 1374.91 -3.46595 -1.87791 0
M  V30 14880 H 1376.2 -4.23196 -2.82458 0
M  V30 14881 H 1375.6 -2.15208 -5.23165 0
M  V30 14882 H 1374.16 -2.83075 -5.87122 0
M  V30 14883 N 1377.59 0.500963 -1.49426 0
M  V30 14884 C 1379 1.08248 -1.52116 0
M  V30 14885 C 1379.35 1.93777 -0.30738 0
M  V30 14886 O 1378.48 2.08404 0.582805 0
M  V30 14887 C 1379.07 1.96988 -2.75647 0
M  V30 14888 C 1377.63 2.50303 -2.81115 0
M  V30 14889 C 1376.78 1.27924 -2.4603 0
M  V30 14890 H 1379.73 0.284872 -1.56122 0
M  V30 14891 H 1379.75 2.81675 -2.55811 0
M  V30 14892 H 1379.26 1.34711 -3.6397 0
M  V30 14893 H 1377.36 3.16218 -1.97072 0
M  V30 14894 H 1377.48 2.87453 -3.83286 0
M  V30 14895 H 1375.84 1.60447 -1.9781 0
M  V30 14896 H 1376.62 0.673557 -3.36628 0
M  V30 14897 N 1379.07 1.38501 0.752011 0
M  V30 14898 C 1380.31 1.36212 1.52399 0
M  V30 14899 C 1380.67 -0.0472831 1.91942 0
M  V30 14900 O 1381.87 -0.195055 2.68091 0
M  V30 14901 C 1380.14 2.2925 2.74188 0
M  V30 14902 S 1381.7 2.44995 3.64037 0
M  V30 14903 H 1378.52 0.483276 0.521503 0
M  V30 14904 H 1381.12 1.74441 0.882647 0
M  V30 14905 H 1379.83 3.30541 2.4325 0
M  V30 14906 H 1379.36 1.92176 3.43266 0
M  V30 14907 H 1381.37 1.67519 4.67067 0
M  V30 14908 N 1380.55 -0.980364 1.23396 0
M  V30 14909 C 1381.48 -2.0908 1.0396 0
M  V30 14910 C 1382.46 -1.70044 -0.0434946 0
M  V30 14911 O 1383.64 -1.93822 0.121155 0
M  V30 14912 C 1380.77 -3.41537 0.630061 0
M  V30 14913 C 1379.73 -3.94476 1.66051 0
M  V30 14914 C 1379.05 -5.23128 1.10641 0
M  V30 14915 C 1380.35 -4.23741 3.05354 0
M  V30 14916 H 1382.05 -2.25598 1.9684 0
M  V30 14917 H 1379.59 -1.08409 0.94781 0
M  V30 14918 H 1381.54 -4.18644 0.481145 0
M  V30 14919 H 1380.27 -3.24883 -0.334416 0
M  V30 14920 H 1378.93 -3.19513 1.79742 0
M  V30 14921 H 1378.58 -5.02824 0.132913 0
M  V30 14922 H 1378.28 -5.59515 1.79492 0
M  V30 14923 H 1379.8 -6.02857 0.969344 0
M  V30 14924 H 1381.21 -4.91598 2.94964 0
M  V30 14925 H 1379.61 -4.71329 3.71442 0
M  V30 14926 H 1380.68 -3.31012 3.54343 0
M  V30 14927 N 1382.02 -1.04567 -1.17913 0
M  V30 14928 C 1382.97 -0.611407 -2.19649 0
M  V30 14929 C 1383.96 0.348802 -1.57074 0
M  V30 14930 O 1385.15 0.167045 -1.7621 0
M  V30 14931 C 1382.28 0.0189379 -3.43295 0
M  V30 14932 C 1381.36 -0.96472 -4.12982 0
M  V30 14933 N 1381.76 -2.13371 -4.58592 0
M  V30 14934 C 1380.05 -0.791817 -4.38915 0
M  V30 14935 C 1380.75 -2.75549 -5.12296 0
M  V30 14936 N 1379.73 -2.0339 -5.04117 0
M  V30 14937 H 1383.53 -1.50217 -2.5261 0
M  V30 14938 H 1381.05 -0.914946 -1.34173 0
M  V30 14939 H 1383.04 0.347776 -4.15447 0
M  V30 14940 H 1381.7 0.905177 -3.11828 0
M  V30 14941 H 1382.71 -2.51236 -4.52881 0
M  V30 14942 H 1379.39 0.0439054 -4.17477 0
M  V30 14943 H 1380.78 -3.74647 -5.57754 0
M  V30 14944 N 1383.5 1.34231 -0.825823 0
M  V30 14945 C 1384.43 2.31997 -0.264546 0
M  V30 14946 C 1385.41 1.58375 0.620592 0
M  V30 14947 O 1386.6 1.86341 0.546865 0
M  V30 14948 C 1383.73 3.42557 0.572025 0
M  V30 14949 C 1382.68 4.27454 -0.216219 0
M  V30 14950 C 1382.01 5.29509 0.743279 0
M  V30 14951 C 1383.31 5.02456 -1.42603 0
M  V30 14952 H 1385 2.79189 -1.08139 0
M  V30 14953 H 1382.55 1.34227 -0.521451 0
M  V30 14954 H 1384.5 4.09968 0.974889 0
M  V30 14955 H 1383.22 2.94021 1.42195 0
M  V30 14956 H 1381.88 3.61649 -0.600485 0
M  V30 14957 H 1381.53 4.77234 1.58924 0
M  V30 14958 H 1381.23 5.87188 0.220064 0
M  V30 14959 H 1382.76 5.99789 1.14394 0
M  V30 14960 H 1384.17 5.62706 -1.09702 0
M  V30 14961 H 1382.57 5.69723 -1.88509 0
M  V30 14962 H 1383.64 4.31983 -2.2027 0
M  V30 14963 N 1384.98 0.581051 1.46498 0
M  V30 14964 C 1385.91 -0.19094 2.28403 0
M  V30 14965 C 1386.92 -0.857039 1.38415 0
M  V30 14966 O 1388.11 -0.726881 1.6303 0
M  V30 14967 C 1385.21 -1.28972 3.134 0
M  V30 14968 C 1384.39 -0.715867 4.31502 0
M  V30 14969 C 1383.45 -1.70215 4.97909 0
M  V30 14970 O 1382.47 -1.23885 5.55555 0
M  V30 14971 N 1383.67 -3.0362 4.94768 0
M  V30 14972 H 1386.44 0.511754 2.95298 0
M  V30 14973 H 1384 0.41871 1.56392 0
M  V30 14974 H 1385.99 -1.94877 3.5469 0
M  V30 14975 H 1384.56 -1.8953 2.4859 0
M  V30 14976 H 1383.78 0.120591 3.94016 0
M  V30 14977 H 1385.07 -0.312226 5.07841 0
M  V30 14978 H 1384.47 -3.43885 4.49177 0
M  V30 14979 H 1383.02 -3.65018 5.40005 0
M  V30 14980 N 1386.46 -1.54343 0.318742 0
M  V30 14981 C 1387.69 -2.04894 -0.287378 0
M  V30 14982 C 1388.1 -1.19514 -1.46157 0
M  V30 14983 O 1387.46 -0.224722 -1.81111 0
M  V30 14984 C 1387.51 -3.54124 -0.726505 0
M  V30 14985 O 1387.23 -4.36261 0.400968 0
M  V30 14986 C 1388.73 -4.20748 -1.39594 0
M  V30 14987 H 1385.95 -0.668323 -0.0598724 0
M  V30 14988 H 1388.49 -1.99177 0.463531 0
M  V30 14989 H 1386.65 -3.60145 -1.4274 0
M  V30 14990 H 1387.06 -5.2447 0.0558714 0
M  V30 14991 H 1388.54 -5.26632 -1.65418 0
M  V30 14992 H 1389.01 -3.71566 -2.3417 0
M  V30 14993 H 1389.62 -4.18852 -0.737749 0
M  V30 14994 N 1387.94 -0.0468143 -1.5753 0
M  V30 14995 C 1389.18 0.626699 -1.92138 0
M  V30 14996 C 1389.5 1.7164 -0.925463 0
M  V30 14997 O 1388.77 1.95876 0.0303531 0
M  V30 14998 H 1387.35 0.234479 -0.709245 0
M  V30 14999 H 1390.02 -0.0987892 -1.94649 0
M  V30 15000 H 1389.11 1.06811 -2.93254 0
M  V30 15001 N 1389.41 1.55964 0.226527 0
M  V30 15002 C 1390.66 1.78392 0.94977 0
M  V30 15003 C 1390.98 0.614444 1.85066 0
M  V30 15004 O 1390.25 -0.368894 1.92395 0
M  V30 15005 H 1388.83 0.657962 0.353688 0
M  V30 15006 H 1391.5 1.93422 0.239577 0
M  V30 15007 H 1390.59 2.70343 1.55952 0
M  V30 15008 N 1390.89 -0.493031 1.4969 0
M  V30 15009 C 1391.86 -1.57598 1.6642 0
M  V30 15010 C 1392.86 -1.51615 0.535668 0
M  V30 15011 O 1394.05 -1.54626 0.802283 0
M  V30 15012 C 1391.18 -2.97249 1.66901 0
M  V30 15013 H 1392.37 -1.4409 2.63017 0
M  V30 15014 H 1389.92 -0.717846 1.3884 0
M  V30 15015 H 1390.66 -3.16225 0.719164 0
M  V30 15016 H 1390.44 -3.02999 2.48865 0
M  V30 15017 H 1391.93 -3.75914 1.81874 0
M  V30 15018 N 1392.37 -1.38898 -0.744656 0
M  V30 15019 C 1393.33 -1.36633 -1.84022 0
M  V30 15020 C 1394.33 -0.265187 -1.58598 0
M  V30 15021 O 1395.52 -0.522569 -1.66177 0
M  V30 15022 C 1392.66 -1.12938 -3.21649 0
M  V30 15023 H 1393.85 -2.34111 -1.87435 0
M  V30 15024 H 1391.4 -1.24322 -0.947302 0
M  V30 15025 H 1392.14 -0.161027 -3.239 0
M  V30 15026 H 1391.92 -1.9267 -3.41498 0
M  V30 15027 H 1393.41 -1.14071 -4.01718 0
M  V30 15028 N 1393.85 0.973806 -1.23914 0
M  V30 15029 C 1395.08 1.74853 -1.10046 0
M  V30 15030 C 1395.49 1.85927 0.350388 0
M  V30 15031 O 1394.83 1.34252 1.25388 0
M  V30 15032 C 1394.89 3.18919 -1.65924 0
M  V30 15033 C 1394.56 3.31335 -3.14748 0
M  V30 15034 C 1395.55 3.17141 -4.11968 0
M  V30 15035 C 1393.24 3.55772 -3.54587 0
M  V30 15036 C 1395.23 3.27199 -5.47009 0
M  V30 15037 C 1392.92 3.65468 -4.89771 0
M  V30 15038 C 1393.92 3.51193 -5.85792 0
M  V30 15039 O 1393.6 3.60534 -7.18519 0
M  V30 15040 H 1393.34 0.555345 -0.385445 0
M  V30 15041 H 1395.89 1.23168 -1.64374 0
M  V30 15042 H 1394.12 3.71882 -1.06023 0
M  V30 15043 H 1395.81 3.78177 -1.47434 0
M  V30 15044 H 1396.58 2.98153 -3.82531 0
M  V30 15045 H 1392.45 3.65951 -2.80358 0
M  V30 15046 H 1396 3.15974 -6.21937 0
M  V30 15047 H 1391.9 3.83969 -5.18882 0
M  V30 15048 H 1392.66 3.77288 -7.26358 0
M  V30 15049 N 1395.33 1.05191 1.17357 0
M  V30 15050 C 1396.55 0.782373 1.91537 0
M  V30 15051 C 1396.97 -0.661935 1.76816 0
M  V30 15052 O 1396.33 -1.45221 1.10531 0
M  V30 15053 C 1396.38 1.15357 3.426 0
M  V30 15054 O 1396.1 2.54119 3.56869 0
M  V30 15055 C 1397.6 0.910167 4.33856 0
M  V30 15056 H 1394.82 0.284461 0.607719 0
M  V30 15057 H 1397.36 1.40259 1.48821 0
M  V30 15058 H 1395.52 0.578107 3.83062 0
M  V30 15059 H 1395.93 2.68668 4.50464 0
M  V30 15060 H 1397.41 1.21964 5.38358 0
M  V30 15061 H 1397.88 -0.154624 4.38928 0
M  V30 15062 H 1398.49 1.46947 3.99107 0
M  V30 15063 N 1396.8 -1.33791 0.83293 0
M  V30 15064 C 1397.74 -2.28148 0.219336 0
M  V30 15065 C 1398.75 -1.51477 -0.596529 0
M  V30 15066 O 1399.94 -1.73377 -0.424571 0
M  V30 15067 C 1397.04 -3.31373 -0.710305 0
M  V30 15068 C 1396.21 -4.37352 0.0649215 0
M  V30 15069 C 1395.27 -5.20279 -0.78716 0
M  V30 15070 O 1394.3 -5.68741 -0.228511 0
M  V30 15071 N 1395.5 -5.40973 -2.10544 0
M  V30 15072 H 1398.26 -2.81443 1.03004 0
M  V30 15073 H 1395.82 -1.46421 0.690831 0
M  V30 15074 H 1397.82 -3.83752 -1.28517 0
M  V30 15075 H 1396.39 -2.78398 -1.42173 0
M  V30 15076 H 1395.61 -3.85553 0.821144 0
M  V30 15077 H 1396.89 -5.05271 0.598199 0
M  V30 15078 H 1396.29 -5.03291 -2.58292 0
M  V30 15079 H 1394.85 -5.96432 -2.62893 0
M  V30 15080 N 1398.28 -0.588812 -1.46187 0
M  V30 15081 C 1399.25 0.130803 -2.28826 0
M  V30 15082 C 1400.25 0.813037 -1.38731 0
M  V30 15083 O 1401.44 0.664061 -1.61046 0
M  V30 15084 C 1398.57 1.19484 -3.19275 0
M  V30 15085 H 1399.76 -0.595514 -2.93928 0
M  V30 15086 H 1397.31 -0.347038 -1.52399 0
M  V30 15087 H 1398.05 1.95254 -2.58933 0
M  V30 15088 H 1397.83 0.710077 -3.85617 0
M  V30 15089 H 1399.32 1.69938 -3.81459 0
M  V30 15090 N 1399.76 1.54172 -0.326923 0
M  V30 15091 C 1400.69 2.21958 0.571588 0
M  V30 15092 C 1401.71 1.22067 1.0772 0
M  V30 15093 O 1402.89 1.48517 0.990202 0
M  V30 15094 C 1399.99 2.87307 1.79744 0
M  V30 15095 C 1399.17 4.13366 1.42995 0
M  V30 15096 C 1398.23 4.62276 2.5137 0
M  V30 15097 O 1397.25 5.2688 2.15373 0
M  V30 15098 N 1398.45 4.36789 3.82355 0
M  V30 15099 H 1401.22 2.99699 -0.00885848 0
M  V30 15100 H 1398.78 1.61201 -0.150279 0
M  V30 15101 H 1400.77 3.1695 2.51644 0
M  V30 15102 H 1399.34 2.13252 2.28566 0
M  V30 15103 H 1398.56 3.9045 0.542444 0
M  V30 15104 H 1399.85 4.95396 1.16017 0
M  V30 15105 H 1399.25 3.85086 4.14397 0
M  V30 15106 H 1397.81 4.71079 4.50475 0
M  V30 15107 N 1401.24 0.0551678 1.57503 0
M  V30 15108 C 1402.17 -0.915714 2.14795 0
M  V30 15109 C 1403.15 -1.32179 1.07065 0
M  V30 15110 O 1404.33 -1.39579 1.35023 0
M  V30 15111 C 1401.46 -2.18916 2.69616 0
M  V30 15112 C 1400.42 -1.92303 3.82366 0
M  V30 15113 C 1399.74 -3.26136 4.23721 0
M  V30 15114 C 1401.04 -1.24146 5.07331 0
M  V30 15115 H 1402.74 -0.438499 2.96171 0
M  V30 15116 H 1400.28 -0.209477 1.42468 0
M  V30 15117 H 1402.24 -2.87239 3.08337 0
M  V30 15118 H 1400.96 -2.6885 1.85437 0
M  V30 15119 H 1399.62 -1.26391 3.44123 0
M  V30 15120 H 1399.27 -3.73879 3.36487 0
M  V30 15121 H 1398.97 -3.09126 4.99715 0
M  V30 15122 H 1400.49 -3.95684 4.65045 0
M  V30 15123 H 1401.91 -1.8251 5.43473 0
M  V30 15124 H 1400.3 -1.17449 5.88494 0
M  V30 15125 H 1401.37 -0.218073 4.84409 0
M  V30 15126 N 1402.72 -1.56081 -0.218252 0
M  V30 15127 C 1403.96 -1.81024 -0.949188 0
M  V30 15128 C 1404.32 -0.629178 -1.81398 0
M  V30 15129 O 1405.52 -0.757982 -2.57892 0
M  V30 15130 C 1403.79 -3.10878 -1.76322 0
M  V30 15131 S 1405.35 -3.57147 -2.54934 0
M  V30 15132 H 1402.17 -0.635529 -0.318785 0
M  V30 15133 H 1404.77 -1.9432 -0.214484 0
M  V30 15134 H 1403.48 -3.94875 -1.11811 0
M  V30 15135 H 1403.01 -3.00399 -2.54016 0
M  V30 15136 H 1405.02 -3.20747 -3.78597 0
M  V30 15137 N 1404.2 0.485086 -1.49949 0
M  V30 15138 C 1405.42 1.26648 -1.64241 0
M  V30 15139 C 1405.85 1.85359 -0.319939 0
M  V30 15140 O 1405.2 1.66628 0.714487 0
M  V30 15141 C 1405.25 2.36109 -2.72552 0
M  V30 15142 O 1404.36 3.40387 -2.32832 0
M  V30 15143 H 1403.7 0.373208 -0.549192 0
M  V30 15144 H 1406.23 0.578929 -1.96239 0
M  V30 15145 H 1406.24 2.81634 -2.95205 0
M  V30 15146 H 1404.91 1.92745 -3.6854 0
M  V30 15147 H 1403.49 3.0067 -2.20571 0
M  V30 15148 N 1405.67 1.39291 0.737279 0
M  V30 15149 C 1406.9 1.39844 1.53162 0
M  V30 15150 C 1407.32 -0.00568546 1.88099 0
M  V30 15151 O 1406.68 -0.992085 1.51748 0
M  V30 15152 C 1406.73 2.27577 2.79716 0
M  V30 15153 O 1405.83 1.70408 3.75546 0
M  V30 15154 H 1405.17 0.476314 0.462624 0
M  V30 15155 H 1407.7 1.83258 0.909819 0
M  V30 15156 H 1407.71 2.42009 3.28475 0
M  V30 15157 H 1406.39 3.29621 2.53619 0
M  V30 15158 H 1404.97 1.65206 3.34307 0
M  V30 15159 N 1407.15 -0.967221 1.24429 0
M  V30 15160 C 1408.1 -2.08315 1.03478 0
M  V30 15161 C 1409.09 -1.69373 -0.0304332 0
M  V30 15162 O 1410.3 -1.79571 0.124162 0
M  V30 15163 H 1406.67 -0.681638 0.317605 0
M  V30 15164 H 1408.65 -2.23148 1.9811 0
M  V30 15165 C 1407.39 -3.41441 0.656778 0
M  V30 15166 H 1406.72 -3.71865 1.4682 0
M  V30 15167 H 1408.16 -4.2042 0.549791 0
M  V30 15168 C 1406.62 -3.30839 -0.636154 0
M  V30 15169 O 1407.15 -3.64802 -1.68175 0
M  V30 15170 N 1405.35 -2.83973 -0.617052 0
M  V30 15171 H 1404.9 -2.56533 0.234179 0
M  V30 15172 H 1404.86 -2.77262 -1.48233 0
M  V30 15173 N 1408.63 -1.05812 -1.16797 0
M  V30 15174 C 1409.88 -0.767008 -1.86547 0
M  V30 15175 C 1410.19 0.708979 -1.82299 0
M  V30 15176 O 1411.4 1.11428 -2.4758 0
M  V30 15177 C 1409.85 -1.32186 -3.34746 0
M  V30 15178 C 1409.46 -2.82774 -3.4748 0
M  V30 15179 C 1411.21 -1.10808 -4.09783 0
M  V30 15180 C 1409.11 -3.31529 -4.89737 0
M  V30 15181 H 1408.04 -0.283235 -0.698781 0
M  V30 15182 H 1410.69 -1.27621 -1.31853 0
M  V30 15183 H 1409.08 -0.740453 -3.89016 0
M  V30 15184 H 1410.25 -3.46825 -3.03396 0
M  V30 15185 H 1408.56 -3.02765 -2.85871 0
M  V30 15186 H 1411.16 -1.44728 -5.14741 0
M  V30 15187 H 1411.5 -0.046167 -4.16274 0
M  V30 15188 H 1412.04 -1.65502 -3.61737 0
M  V30 15189 H 1408.78 -4.37177 -4.88422 0
M  V30 15190 H 1408.3 -2.72224 -5.34466 0
M  V30 15191 H 1409.98 -3.26572 -5.58534 0
M  V30 15192 N 1410.11 1.33347 -0.840014 0
M  V30 15193 C 1411.34 2.01952 -0.449793 0
M  V30 15194 C 1411.75 1.63197 0.949317 0
M  V30 15195 O 1411.11 0.84589 1.61713 0
M  V30 15196 C 1411.16 3.57102 -0.562178 0
M  V30 15197 O 1410.88 3.94458 -1.90616 0
M  V30 15198 C 1412.38 4.42978 -0.169062 0
M  V30 15199 H 1409.6 0.646843 -0.178425 0
M  V30 15200 H 1412.14 1.70251 -1.1329 0
M  V30 15201 H 1410.3 3.87331 0.0730345 0
M  V30 15202 H 1410.71 4.89167 -1.8925 0
M  V30 15203 H 1412.19 5.51191 -0.298742 0
M  V30 15204 H 1412.66 4.30106 0.889137 0
M  V30 15205 H 1413.27 4.18109 -0.778756 0
M  V30 15206 N 1411.59 0.596556 1.45873 0
M  V30 15207 C 1412.81 0.0916466 2.07197 0
M  V30 15208 C 1413.24 -1.21004 1.44012 0
M  V30 15209 O 1412.59 -1.73415 0.528844 0
M  V30 15210 C 1412.64 -0.0461457 3.6057 0
M  V30 15211 O 1411.75 -1.09919 3.97481 0
M  V30 15212 H 1411.09 0.0690655 0.660398 0
M  V30 15213 H 1413.62 0.823434 1.87299 0
M  V30 15214 H 1413.63 -0.2479 4.07246 0
M  V30 15215 H 1412.3 0.904381 4.05948 0
M  V30 15216 H 1410.88 -0.874788 3.62494 0
M  V30 15217 N 1413.06 -1.53996 0.335095 0
M  V30 15218 C 1414.34 -1.92984 -0.318848 0
M  V30 15219 C 1414.72 -1.26585 -1.68936 0
M  V30 15220 O 1414.07 -0.413702 -2.24724 0
M  V30 15221 C 1414.28 -3.46705 -0.399568 0
M  V30 15222 C 1415.63 -4.19527 -0.654411 0
M  V30 15223 O 1416.65 -3.52923 -0.482026 0
M  V30 15224 O 1415.51 -5.37499 -0.987756 0
M  V30 15225 H 1412.6 -0.806202 -0.1843 0
M  V30 15226 H 1415.15 -1.6526 0.385653 0
M  V30 15227 H 1413.92 -3.87235 0.56253 0
M  V30 15228 H 1413.54 -3.8057 -1.15119 0
M  V30 15229 N 1414.54 -0.0635198 -1.57472 0
M  V30 15230 C 1415.79 0.607008 -1.92349 0
M  V30 15231 C 1416.1 1.71268 -0.944806 0
M  V30 15232 O 1417.31 2.44221 -1.18609 0
M  V30 15233 C 1415.77 1.13105 -3.41666 0
M  V30 15234 C 1415.37 0.0568256 -4.47964 0
M  V30 15235 C 1417.12 1.77611 -3.85557 0
M  V30 15236 C 1415.02 0.594443 -5.88405 0
M  V30 15237 H 1413.95 0.230506 -0.717902 0
M  V30 15238 H 1416.61 -0.134413 -1.83007 0
M  V30 15239 H 1414.99 1.92517 -3.46054 0
M  V30 15240 H 1416.16 -0.717371 -4.55182 0
M  V30 15241 H 1414.48 -0.491517 -4.13489 0
M  V30 15242 H 1417.07 2.18852 -4.87861 0
M  V30 15243 H 1417.42 2.6328 -3.22474 0
M  V30 15244 H 1417.95 1.04834 -3.83738 0
M  V30 15245 H 1414.69 -0.224893 -6.55114 0
M  V30 15246 H 1414.21 1.33635 -5.84724 0
M  V30 15247 H 1415.89 1.07346 -6.38033 0
M  V30 15248 N 1416.02 1.56195 0.209972 0
M  V30 15249 C 1417.27 1.80917 0.929554 0
M  V30 15250 C 1417.62 0.638305 1.81503 0
M  V30 15251 O 1416.91 -0.367181 1.88049 0
M  V30 15252 C 1417.11 3.09154 1.79328 0
M  V30 15253 C 1416.94 4.38602 0.99291 0
M  V30 15254 C 1415.71 5.0066 0.683231 0
M  V30 15255 C 1417.9 5.13089 0.352678 0
M  V30 15256 N 1415.89 6.13746 -0.137328 0
M  V30 15257 C 1417.26 6.19117 -0.330748 0
M  V30 15258 C 1419.31 4.97184 0.266887 0
M  V30 15259 C 1418.02 7.10966 -1.09177 0
M  V30 15260 C 1420.04 5.89443 -0.480701 0
M  V30 15261 C 1419.4 6.94906 -1.15263 0
M  V30 15262 H 1415.5 0.713515 0.320031 0
M  V30 15263 H 1418.09 1.93676 0.199467 0
M  V30 15264 H 1416.26 2.97657 2.49509 0
M  V30 15265 H 1417.99 3.22021 2.45121 0
M  V30 15266 H 1414.74 4.62834 1.00407 0
M  V30 15267 H 1415.17 6.74869 -0.536782 0
M  V30 15268 H 1419.81 4.15692 0.772025 0
M  V30 15269 H 1417.53 7.91932 -1.60839 0
M  V30 15270 H 1421.11 5.79211 -0.54824 0
M  V30 15271 H 1419.99 7.65063 -1.72185 0
M  V30 15272 N 1417.5 -0.477127 1.50204 0
M  V30 15273 C 1418.72 -1.25775 1.6491 0
M  V30 15274 C 1419.15 -1.85187 0.329765 0
M  V30 15275 O 1418.51 -1.67004 -0.705641 0
M  V30 15276 C 1418.55 -2.3466 2.73801 0
M  V30 15277 O 1417.66 -3.39147 2.34634 0
M  V30 15278 H 1417 -0.370291 0.551163 0
M  V30 15279 H 1419.53 -0.568514 1.96543 0
M  V30 15280 H 1419.54 -2.80065 2.96695 0
M  V30 15281 H 1418.21 -1.90788 3.69557 0
M  V30 15282 H 1416.79 -2.99496 2.22163 0
M  V30 15283 N 1418.98 -1.3968 -0.729882 0
M  V30 15284 C 1420.22 -1.37385 -1.49175 0
M  V30 15285 C 1420.56 0.0285839 -1.94179 0
M  V30 15286 O 1419.83 0.994516 -1.67152 0
M  V30 15287 C 1420.11 -2.35075 -2.72785 0
M  V30 15288 C 1419.97 -3.84282 -2.33767 0
M  V30 15289 C 1421.29 -2.30515 -3.74901 0
M  V30 15290 H 1418.4 -0.500359 -0.541119 0
M  V30 15291 H 1421.05 -1.7071 -0.834152 0
M  V30 15292 H 1419.2 -2.06787 -3.28894 0
M  V30 15293 H 1420.87 -4.2334 -1.8325 0
M  V30 15294 H 1419.11 -4.00809 -1.65935 0
M  V30 15295 H 1419.78 -4.48131 -3.22309 0
M  V30 15296 H 1422.26 -2.55539 -3.28389 0
M  V30 15297 H 1421.13 -3.00939 -4.5905 0
M  V30 15298 H 1421.4 -1.3119 -4.22187 0
M  V30 15299 N 1420.45 0.960609 -1.2494 0
M  V30 15300 C 1421.73 1.68035 -1.00118 0
M  V30 15301 C 1422.11 2.057 0.474399 0
M  V30 15302 O 1421.46 1.76569 1.45036 0
M  V30 15303 C 1421.67 2.90708 -1.93106 0
M  V30 15304 C 1423.02 3.62792 -2.20606 0
M  V30 15305 O 1424.04 3.00778 -1.90816 0
M  V30 15306 O 1422.9 4.74443 -2.71231 0
M  V30 15307 H 1419.99 0.734939 -0.379202 0
M  V30 15308 H 1422.54 1.01407 -1.36069 0
M  V30 15309 H 1421.31 2.59619 -2.92769 0
M  V30 15310 H 1420.94 3.65068 -1.57515 0
M  V30 15311 N 1421.93 1.0643 1.16234 0
M  V30 15312 C 1423.34 0.806012 1.68405 0
M  V30 15313 C 1423.69 -0.670197 1.84398 0
M  V30 15314 O 1422.82 -1.51975 1.54054 0
M  V30 15315 C 1423.41 1.45654 3.05893 0
M  V30 15316 C 1421.97 1.24599 3.55179 0
M  V30 15317 C 1421.12 1.53216 2.31128 0
M  V30 15318 H 1424.07 1.22759 1.00578 0
M  V30 15319 H 1424.09 0.872616 3.70359 0
M  V30 15320 H 1423.6 2.53092 2.94221 0
M  V30 15321 H 1421.71 0.191407 3.72108 0
M  V30 15322 H 1421.82 1.95967 4.37188 0
M  V30 15323 H 1420.18 0.952755 2.36209 0
M  V30 15324 H 1420.97 2.61816 2.22052 0
M  V30 15325 N 1423.41 -1.329 0.847073 0
M  V30 15326 C 1424.64 -2.02244 0.459588 0
M  V30 15327 C 1425.06 -1.63279 -0.933897 0
M  V30 15328 O 1424.42 -0.829551 -1.61208 0
M  V30 15329 C 1424.47 -3.55616 0.59745 0
M  V30 15330 O 1423.57 -4.1071 -0.372919 0
M  V30 15331 H 1422.91 -0.637504 0.1857 0
M  V30 15332 H 1425.44 -1.69617 1.14417 0
M  V30 15333 H 1425.45 -4.05141 0.482145 0
M  V30 15334 H 1424.13 -3.8332 1.61365 0
M  V30 15335 H 1422.7 -3.72283 -0.214487 0
M  V30 15336 N 1424.89 -0.604284 -1.45555 0
M  V30 15337 C 1426.11 -0.102634 -2.07146 0
M  V30 15338 C 1426.54 1.20239 -1.44652 0
M  V30 15339 O 1425.9 1.73133 -0.538033 0
M  V30 15340 C 1425.94 0.0270231 -3.6059 0
M  V30 15341 O 1425.05 1.0781 -3.98059 0
M  V30 15342 H 1424.39 -0.0725667 -0.660023 0
M  V30 15343 H 1426.92 -0.833355 -1.86859 0
M  V30 15344 H 1426.93 0.226299 -4.07372 0
M  V30 15345 H 1425.6 -0.925896 -4.05463 0
M  V30 15346 H 1424.18 0.855552 -3.62953 0
M  V30 15347 N 1426.37 1.53816 -0.343257 0
M  V30 15348 C 1427.61 2.01207 0.253721 0
M  V30 15349 C 1427.95 1.23069 1.50225 0
M  V30 15350 O 1427.22 0.31824 1.91879 0
M  V30 15351 C 1427.5 3.5559 0.56815 0
M  V30 15352 C 1427.36 4.44438 -0.692457 0
M  V30 15353 C 1428.68 4.17974 1.37788 0
M  V30 15354 H 1425.79 0.731392 0.0907427 0
M  V30 15355 H 1428.44 1.84254 -0.463736 0
M  V30 15356 H 1426.59 3.70166 1.17937 0
M  V30 15357 H 1428.26 4.41698 -1.33042 0
M  V30 15358 H 1426.5 4.13312 -1.3174 0
M  V30 15359 H 1427.17 5.5034 -0.427715 0
M  V30 15360 H 1429.65 4.07094 0.861043 0
M  V30 15361 H 1428.52 5.26068 1.56663 0
M  V30 15362 H 1428.79 3.72577 2.3799 0
M  V30 15363 N 1427.84 0.0718701 1.57436 0
M  V30 15364 C 1429.09 -0.596052 1.9311 0
M  V30 15365 C 1429.41 -1.70146 0.952652 0
M  V30 15366 O 1428.68 -1.959 0.000812941 0
M  V30 15367 H 1427.26 -0.223165 0.712886 0
M  V30 15368 H 1429.93 0.129744 1.94468 0
M  V30 15369 H 1429.02 -1.02132 2.94916 0
M  V30 15370 N 1429.32 -1.56304 -0.201686 0
M  V30 15371 C 1430.55 -1.84692 -0.943583 0
M  V30 15372 C 1430.97 -0.654649 -1.7634 0
M  V30 15373 O 1430.33 0.396586 -1.76909 0
M  V30 15374 C 1430.38 -3.11251 -1.82085 0
M  V30 15375 O 1429.48 -2.9134 -2.91881 0
M  V30 15376 H 1428.82 -0.608351 -0.266092 0
M  V30 15377 H 1431.35 -2.0353 -0.208992 0
M  V30 15378 H 1431.36 -3.41874 -2.2268 0
M  V30 15379 H 1430.04 -3.97652 -1.21844 0
M  V30 15380 H 1428.62 -2.72 -2.55089 0
M  V30 15381 N 1430.8 0.469154 -1.50455 0
M  V30 15382 C 1432.03 1.24899 -1.65575 0
M  V30 15383 C 1432.45 1.85009 -0.339581 0
M  V30 15384 O 1431.81 1.67376 0.696774 0
M  V30 15385 C 1431.86 2.33205 -2.75041 0
M  V30 15386 O 1430.96 3.37898 -2.36429 0
M  V30 15387 H 1430.3 0.367362 -0.553119 0
M  V30 15388 H 1432.83 0.558083 -1.96842 0
M  V30 15389 H 1432.84 2.78487 -2.98176 0
M  V30 15390 H 1431.52 1.88826 -3.70564 0
M  V30 15391 H 1430.09 2.98314 -2.23748 0
M  V30 15392 N 1432.28 1.40065 0.722464 0
M  V30 15393 C 1433.69 1.33876 1.30131 0
M  V30 15394 C 1434.04 0.00899369 1.96198 0
M  V30 15395 O 1433.17 -0.893082 1.97112 0
M  V30 15396 C 1433.76 2.42469 2.36631 0
M  V30 15397 C 1432.32 2.39762 2.90157 0
M  V30 15398 C 1431.47 2.23704 1.63865 0
M  V30 15399 H 1434.42 1.49971 0.519077 0
M  V30 15400 H 1434.44 2.0998 3.17315 0
M  V30 15401 H 1433.95 3.39239 1.88517 0
M  V30 15402 H 1432.05 1.46669 3.42519 0
M  V30 15403 H 1432.16 3.35092 3.42419 0
M  V30 15404 H 1430.53 1.71098 1.88674 0
M  V30 15405 H 1431.31 3.22462 1.17785 0
M  V30 15406 N 1433.76 -0.95397 1.25448 0
M  V30 15407 C 1434.69 -2.05412 1.01679 0
M  V30 15408 C 1435.7 -1.62789 -0.0184932 0
M  V30 15409 O 1436.89 -1.77137 0.220136 0
M  V30 15410 C 1433.99 -3.3496 0.515292 0
M  V30 15411 C 1433.16 -4.06418 1.61688 0
M  V30 15412 C 1432.22 -5.14237 1.11564 0
M  V30 15413 O 1431.25 -5.39649 1.81017 0
M  V30 15414 N 1432.45 -5.80484 -0.0427228 0
M  V30 15415 H 1435.22 -2.26372 1.96407 0
M  V30 15416 H 1432.78 -1.12257 1.16662 0
M  V30 15417 H 1434.77 -4.04366 0.164426 0
M  V30 15418 H 1433.34 -3.10767 -0.33807 0
M  V30 15419 H 1432.56 -3.31101 2.1393 0
M  V30 15420 H 1433.85 -4.50917 2.35693 0
M  V30 15421 H 1433.25 -5.62259 -0.623038 0
M  V30 15422 H 1431.8 -6.50941 -0.334615 0
M  V30 15423 N 1435.24 -1.07045 -1.15668 0
M  V30 15424 C 1436.65 -0.795369 -1.38369 0
M  V30 15425 C 1436.85 0.601829 -1.92303 0
M  V30 15426 O 1435.91 1.36109 -2.12675 0
M  V30 15427 C 1437.22 -1.86659 -2.35752 0
M  V30 15428 C 1438.77 -1.89098 -2.49421 0
M  V30 15429 C 1439.24 -2.95296 -3.50092 0
M  V30 15430 N 1440.73 -2.94378 -3.57625 0
M  V30 15431 C 1441.47 -3.73194 -4.35331 0
M  V30 15432 N 1440.97 -4.61851 -5.16397 0
M  V30 15433 N 1442.76 -3.61554 -4.30389 0
M  V30 15434 H 1434.91 -1.97162 -0.790004 0
M  V30 15435 H 1437.17 -0.854816 -0.40987 0
M  V30 15436 H 1436.88 -2.87036 -2.03232 0
M  V30 15437 H 1436.75 -1.72406 -3.35494 0
M  V30 15438 H 1439.14 -0.893752 -2.8124 0
M  V30 15439 H 1439.22 -2.07429 -1.49689 0
M  V30 15440 H 1438.86 -3.95217 -3.19008 0
M  V30 15441 H 1438.79 -2.74212 -4.49572 0
M  V30 15442 H 1441.29 -2.3011 -2.99763 0
M  V30 15443 H 1441.6 -5.18629 -5.72926 0
M  V30 15444 H 1439.94 -4.65902 -5.15714 0
M  V30 15445 H 1443.13 -2.91672 -3.66122 0
M  V30 15446 H 1443.31 -4.23221 -4.90701 0
M  V30 15447 N 1436.71 1.32449 -0.85411 0
M  V30 15448 C 1437.94 2.01463 -0.471188 0
M  V30 15449 C 1438.36 1.64195 0.931954 0
M  V30 15450 O 1437.71 0.862994 1.60806 0
M  V30 15451 C 1437.76 3.56486 -0.600022 0
M  V30 15452 O 1437.49 3.92414 -1.94789 0
M  V30 15453 C 1438.99 4.42773 -0.216036 0
M  V30 15454 H 1436.21 0.644914 -0.185275 0
M  V30 15455 H 1438.75 1.6904 -1.1509 0
M  V30 15456 H 1436.91 3.87387 0.0319488 0
M  V30 15457 H 1437.32 4.87133 -1.94427 0
M  V30 15458 H 1438.79 5.50843 -0.357186 0
M  V30 15459 H 1439.27 4.31025 0.843468 0
M  V30 15460 H 1439.88 4.1726 -0.823058 0
M  V30 15461 N 1438.19 0.611994 1.45232 0
M  V30 15462 C 1439.44 0.108696 2.01807 0
M  V30 15463 C 1439.76 -1.26692 1.48237 0
M  V30 15464 O 1439.03 -1.8378 0.678368 0
M  V30 15465 H 1437.61 0.0371921 0.746074 0
M  V30 15466 H 1440.27 0.794386 1.77976 0
M  V30 15467 H 1439.37 0.0618207 3.12039 0
M  V30 15468 N 1439.67 -1.53632 0.351409 0
M  V30 15469 C 1440.63 -2.23916 -0.489293 0
M  V30 15470 C 1441.63 -1.24207 -1.02124 0
M  V30 15471 O 1442.82 -1.48589 -0.909235 0
M  V30 15472 C 1439.95 -2.96492 -1.68242 0
M  V30 15473 H 1441.15 -2.99637 0.125518 0
M  V30 15474 H 1438.7 -1.55961 0.102874 0
M  V30 15475 H 1439.44 -2.24978 -2.33571 0
M  V30 15476 H 1439.22 -3.69637 -1.3081 0
M  V30 15477 H 1440.71 -3.49961 -2.27853 0
M  V30 15478 N 1441.15 -0.0802183 -1.57396 0
M  V30 15479 C 1442.1 0.894334 -2.09728 0
M  V30 15480 C 1443.08 1.25342 -1.00887 0
M  V30 15481 O 1444.27 1.23099 -1.27184 0
M  V30 15482 C 1441.4 2.15885 -2.66924 0
M  V30 15483 C 1440.49 1.82587 -3.82783 0
M  V30 15484 N 1440.88 1.19777 -4.91413 0
M  V30 15485 C 1439.18 2.12287 -3.92237 0
M  V30 15486 C 1439.88 1.04758 -5.72189 0
M  V30 15487 N 1438.85 1.56005 -5.20733 0
M  V30 15488 H 1442.66 0.404523 -2.91103 0
M  V30 15489 H 1440.17 0.123432 -1.6193 0
M  V30 15490 H 1442.17 2.8663 -3.02736 0
M  V30 15491 H 1440.83 2.65446 -1.86998 0
M  V30 15492 H 1441.84 0.866384 -5.10602 0
M  V30 15493 H 1438.52 2.64166 -3.23299 0
M  V30 15494 H 1439.91 0.55756 -6.69583 0
M  V30 15495 N 1442.63 1.56409 0.193394 0
M  V30 15496 C 1443.54 1.97886 1.26009 0
M  V30 15497 C 1444.55 0.886786 1.49707 0
M  V30 15498 O 1445.73 1.19267 1.62288 0
M  V30 15499 C 1442.79 2.31145 2.58404 0
M  V30 15500 C 1441.85 3.54069 2.42763 0
M  V30 15501 C 1441.09 3.85732 3.68845 0
M  V30 15502 O 1441.31 3.18662 4.73086 0
M  V30 15503 O 1440.24 4.79155 3.64272 0
M  V30 15504 H 1444.07 2.88849 0.938087 0
M  V30 15505 H 1441.65 1.43987 0.398528 0
M  V30 15506 H 1443.54 2.53606 3.36544 0
M  V30 15507 H 1442.21 1.4335 2.90228 0
M  V30 15508 H 1441.12 3.36854 1.62728 0
M  V30 15509 H 1442.45 4.42335 2.15871 0
M  V30 15510 N 1444.1 -0.461169 1.50702 0
M  V30 15511 C 1445.04 -1.57562 1.66453 0
M  V30 15512 C 1446.05 -1.53381 0.545726 0
M  V30 15513 O 1447.24 -1.58589 0.819254 0
M  V30 15514 C 1444.34 -2.9646 1.64209 0
M  V30 15515 C 1443.51 -3.25405 2.92285 0
M  V30 15516 C 1442.57 -4.43906 2.82549 0
M  V30 15517 O 1441.6 -4.43726 3.56505 0
M  V30 15518 N 1442.8 -5.46131 1.96777 0
M  V30 15519 H 1445.56 -1.44463 2.62584 0
M  V30 15520 H 1443.12 -0.649749 1.4829 0
M  V30 15521 H 1445.12 -3.73719 1.55295 0
M  V30 15522 H 1443.69 -3.03278 0.757718 0
M  V30 15523 H 1442.91 -2.36666 3.1525 0
M  V30 15524 H 1444.19 -3.41559 3.77114 0
M  V30 15525 H 1443.59 -5.49103 1.36023 0
M  V30 15526 H 1442.15 -6.22335 1.9376 0
M  V30 15527 N 1445.58 -1.40446 -0.715026 0
M  V30 15528 C 1446.53 -1.40931 -1.85044 0
M  V30 15529 C 1447.52 -0.289745 -1.66904 0
M  V30 15530 O 1448.73 -0.460809 -1.74002 0
M  V30 15531 H 1445.1 -0.440534 -0.609454 0
M  V30 15532 H 1447.08 -2.36662 -1.81752 0
M  V30 15533 C 1445.82 -1.28933 -3.22911 0
M  V30 15534 H 1445.15 -2.14359 -3.37476 0
M  V30 15535 H 1446.59 -1.33331 -4.02491 0
M  V30 15536 C 1445.05 0.000379936 -3.369 0
M  V30 15537 O 1445.58 0.963093 -3.89984 0
M  V30 15538 N 1443.78 0.0700649 -2.90516 0
M  V30 15539 H 1443.33 -0.714088 -2.47505 0
M  V30 15540 H 1443.29 0.932457 -3.00254 0
M  V30 15541 N 1447.06 0.947303 -1.25952 0
M  V30 15542 C 1448.47 1.50755 -1.10136 0
M  V30 15543 C 1448.82 1.93566 0.320437 0
M  V30 15544 O 1447.95 1.79326 1.21125 0
M  V30 15545 C 1448.54 2.7397 -1.99313 0
M  V30 15546 C 1447.1 3.26283 -1.8766 0
M  V30 15547 C 1446.25 1.99088 -1.93027 0
M  V30 15548 H 1449.2 0.763427 -1.39131 0
M  V30 15549 H 1449.22 3.48057 -1.53742 0
M  V30 15550 H 1448.73 2.42781 -3.02785 0
M  V30 15551 H 1446.83 3.62277 -0.870992 0
M  V30 15552 H 1446.95 3.93803 -2.72866 0
M  V30 15553 H 1445.31 2.14714 -1.37003 0
M  V30 15554 H 1446.09 1.70237 -2.98118 0
M  V30 15555 N 1448.54 1.07657 1.15099 0
M  V30 15556 C 1449.5 0.703558 2.18135 0
M  V30 15557 C 1450.5 -0.257771 1.5872 0
M  V30 15558 O 1451.69 -0.0383211 1.74158 0
M  V30 15559 C 1448.82 0.0374978 3.40879 0
M  V30 15560 H 1450.02 1.61583 2.52648 0
M  V30 15561 H 1447.57 0.873484 1.29615 0
M  V30 15562 H 1448.3 -0.886868 3.11938 0
M  V30 15563 H 1448.09 0.728961 3.85264 0
M  V30 15564 H 1449.58 -0.208714 4.17078 0
M  V30 15565 N 1450.02 -1.31994 0.861122 0
M  V30 15566 C 1451.29 -1.91699 0.388705 0
M  V30 15567 C 1451.67 -1.78412 -1.12838 0
M  V30 15568 O 1451.02 -1.18625 -1.95296 0
M  V30 15569 C 1451.23 -3.38232 0.860248 0
M  V30 15570 C 1452.58 -4.15355 0.881201 0
M  V30 15571 O 1453.6 -3.46977 0.805313 0
M  V30 15572 O 1452.46 -5.37468 0.98945 0
M  V30 15573 H 1449.56 -0.819017 0.114629 0
M  V30 15574 H 1452.1 -1.40721 0.94845 0
M  V30 15575 H 1450.87 -3.41876 1.9036 0
M  V30 15576 H 1450.5 -3.96625 0.278316 0
M  V30 15577 N 1451.49 -0.619688 -1.44906 0
M  V30 15578 C 1452.72 -0.124598 -2.07025 0
M  V30 15579 C 1453.14 1.18698 -1.45919 0
M  V30 15580 O 1452.5 1.72552 -0.556366 0
M  V30 15581 C 1452.55 -0.0112238 -3.60598 0
M  V30 15582 O 1451.65 1.03582 -3.9918 0
M  V30 15583 H 1451 -0.0795631 -0.659216 0
M  V30 15584 H 1453.53 -0.853127 -1.85965 0
M  V30 15585 H 1453.54 0.183079 -4.07589 0
M  V30 15586 H 1452.21 -0.968849 -4.04458 0
M  V30 15587 H 1450.79 0.817008 -3.6384 0
M  V30 15588 N 1452.97 1.53444 -0.359552 0
M  V30 15589 C 1453.88 2.29257 0.497834 0
M  V30 15590 C 1454.9 1.34987 1.09793 0
M  V30 15591 O 1456.07 1.68039 1.11017 0
M  V30 15592 C 1453.14 3.06258 1.62502 0
M  V30 15593 C 1452.2 4.16183 1.05308 0
M  V30 15594 C 1451.43 4.89503 2.12655 0
M  V30 15595 O 1451.66 4.6263 3.33661 0
M  V30 15596 O 1450.59 5.75578 1.76051 0
M  V30 15597 H 1454.42 3.03467 -0.118925 0
M  V30 15598 H 1452 1.48884 -0.124111 0
M  V30 15599 H 1453.88 3.5436 2.2805 0
M  V30 15600 H 1452.56 2.3489 2.22729 0
M  V30 15601 H 1451.47 3.72348 0.361679 0
M  V30 15602 H 1452.8 4.897 0.49545 0
M  V30 15603 N 1454.45 0.0885642 1.57351 0
M  V30 15604 C 1455.38 -0.869946 2.16689 0
M  V30 15605 C 1456.36 -1.29878 1.09844 0
M  V30 15606 O 1457.55 -1.36684 1.37954 0
M  V30 15607 C 1454.68 -2.13148 2.74199 0
M  V30 15608 C 1453.63 -1.84149 3.86359 0
M  V30 15609 C 1452.96 -3.17075 4.30543 0
M  V30 15610 C 1454.26 -1.13357 5.09851 0
M  V30 15611 H 1455.95 -0.375578 2.97035 0
M  V30 15612 H 1453.5 -0.17921 1.42881 0
M  V30 15613 H 1455.45 -2.80634 3.14361 0
M  V30 15614 H 1454.17 -2.64856 1.91098 0
M  V30 15615 H 1452.83 -1.19063 3.46727 0
M  V30 15616 H 1452.48 -3.66658 3.44342 0
M  V30 15617 H 1452.18 -2.98457 5.06159 0
M  V30 15618 H 1453.7 -3.85731 4.73333 0
M  V30 15619 H 1455.12 -1.70941 5.47222 0
M  V30 15620 H 1453.52 -1.0494 5.90853 0
M  V30 15621 H 1454.59 -0.115273 4.84763 0
M  V30 15622 N 1455.93 -1.56509 -0.185096 0
M  V30 15623 C 1457.16 -1.85058 -0.918527 0
M  V30 15624 C 1457.57 -0.670181 -1.76933 0
M  V30 15625 O 1456.91 0.370215 -1.79931 0
M  V30 15626 C 1456.97 -3.07843 -1.85669 0
M  V30 15627 C 1456.64 -4.41319 -1.18686 0
M  V30 15628 C 1457.63 -5.16887 -0.558946 0
M  V30 15629 C 1455.32 -4.88056 -1.18773 0
M  V30 15630 C 1457.31 -6.37373 0.0591595 0
M  V30 15631 C 1455 -6.08475 -0.565791 0
M  V30 15632 C 1456 -6.82977 0.0565621 0
M  V30 15633 O 1455.68 -8.01114 0.668726 0
M  V30 15634 H 1455.42 -0.618423 -0.273001 0
M  V30 15635 H 1457.97 -2.04479 -0.194261 0
M  V30 15636 H 1456.2 -2.84332 -2.62092 0
M  V30 15637 H 1457.89 -3.22954 -2.45877 0
M  V30 15638 H 1458.66 -4.81867 -0.550347 0
M  V30 15639 H 1454.53 -4.30016 -1.66154 0
M  V30 15640 H 1458.08 -6.95464 0.545534 0
M  V30 15641 H 1453.98 -6.42961 -0.571927 0
M  V30 15642 H 1454.74 -8.16536 0.566616 0
M  V30 15643 N 1457.41 0.45317 -1.50944 0
M  V30 15644 C 1458.36 1.54689 -1.67498 0
M  V30 15645 C 1459.34 1.51949 -0.529193 0
M  V30 15646 O 1460.53 1.58669 -0.784415 0
M  V30 15647 C 1457.66 2.93006 -1.78892 0
M  V30 15648 C 1456.75 3.00562 -2.99204 0
M  V30 15649 N 1457.14 2.77893 -4.22621 0
M  V30 15650 C 1455.44 3.31712 -2.98132 0
M  V30 15651 C 1456.14 2.90882 -5.03749 0
M  V30 15652 N 1455.11 3.21866 -4.38068 0
M  V30 15653 H 1458.92 1.35889 -2.60598 0
M  V30 15654 H 1456.43 0.660219 -1.48374 0
M  V30 15655 H 1458.43 3.71669 -1.88858 0
M  V30 15656 H 1457.09 3.12838 -0.869626 0
M  V30 15657 H 1458.1 2.53126 -4.51827 0
M  V30 15658 H 1454.77 3.57419 -2.15773 0
M  V30 15659 H 1456.16 2.77444 -6.11943 0
M  V30 15660 N 1458.88 1.40823 0.707568 0
M  V30 15661 C 1460.11 1.43061 1.50161 0
M  V30 15662 C 1460.53 0.0342144 1.88069 0
M  V30 15663 O 1459.89 -0.959674 1.53818 0
M  V30 15664 C 1459.94 2.33459 2.74826 0
M  V30 15665 O 1459.04 1.78336 3.71847 0
M  V30 15666 H 1458.39 0.48602 0.452417 0
M  V30 15667 H 1460.92 1.85147 0.870742 0
M  V30 15668 H 1460.93 2.48922 3.23267 0
M  V30 15669 H 1459.6 3.34927 2.46571 0
M  V30 15670 H 1458.18 1.7226 3.30728 0
M  V30 15671 N 1460.36 -0.94061 1.26453 0
M  V30 15672 C 1461.77 -1.50169 1.10934 0
M  V30 15673 C 1462.12 -1.93733 -0.310167 0
M  V30 15674 O 1461.25 -1.79966 -1.20172 0
M  V30 15675 C 1461.84 -2.7291 2.00763 0
M  V30 15676 C 1460.4 -3.25283 1.89388 0
M  V30 15677 C 1459.55 -1.98061 1.9408 0
M  V30 15678 H 1462.5 -0.756038 1.39534 0
M  V30 15679 H 1462.52 -3.47237 1.55586 0
M  V30 15680 H 1462.03 -2.41172 3.04069 0
M  V30 15681 H 1460.14 -3.6181 0.890192 0
M  V30 15682 H 1460.25 -3.92351 2.7495 0
M  V30 15683 H 1458.61 -2.13985 1.3814 0
M  V30 15684 H 1459.4 -1.68654 2.99016 0
M  V30 15685 N 1461.84 -1.08266 -1.14527 0
M  V30 15686 C 1463.07 -0.832994 -1.89937 0
M  V30 15687 C 1463.49 0.608985 -1.77969 0
M  V30 15688 O 1462.85 1.42657 -1.11887 0
M  V30 15689 C 1462.9 -1.25782 -3.37952 0
M  V30 15690 O 1462 -0.408853 -4.10368 0
M  V30 15691 H 1461.34 -0.30267 -0.591005 0
M  V30 15692 H 1463.87 -1.44371 -1.44977 0
M  V30 15693 H 1463.88 -1.23804 -3.88763 0
M  V30 15694 H 1462.56 -2.30804 -3.4598 0
M  V30 15695 H 1461.13 -0.49192 -3.69641 0
M  V30 15696 N 1463.32 1.31536 -0.86811 0
M  V30 15697 C 1464.25 2.31037 -0.33822 0
M  V30 15698 C 1465.23 1.60269 0.569892 0
M  V30 15699 O 1466.42 1.87987 0.487305 0
M  V30 15700 C 1463.55 3.44203 0.462753 0
M  V30 15701 C 1462.5 4.26549 -0.3521 0
M  V30 15702 C 1461.83 5.31605 0.574443 0
M  V30 15703 C 1463.13 4.97665 -1.58516 0
M  V30 15704 H 1464.82 2.75607 -1.16967 0
M  V30 15705 H 1462.37 1.325 -0.56389 0
M  V30 15706 H 1464.32 4.12862 0.843967 0
M  V30 15707 H 1463.04 2.98396 1.32769 0
M  V30 15708 H 1461.7 3.59555 -0.715237 0
M  V30 15709 H 1461.35 4.82048 1.43661 0
M  V30 15710 H 1461.05 5.87591 0.0331436 0
M  V30 15711 H 1462.57 6.03124 0.952541 0
M  V30 15712 H 1463.99 5.58931 -1.27549 0
M  V30 15713 H 1462.38 5.63437 -2.06539 0
M  V30 15714 H 1463.45 4.24756 -2.33902 0
M  V30 15715 N 1464.8 0.627364 1.44575 0
M  V30 15716 C 1466.07 0.0614392 1.95503 0
M  V30 15717 C 1466.45 -1.41182 1.56942 0
M  V30 15718 O 1465.8 -2.12435 0.841634 0
M  V30 15719 C 1466.01 0.280349 3.47872 0
M  V30 15720 C 1467.36 0.171559 4.24253 0
M  V30 15721 O 1468.38 0.211515 3.55571 0
M  V30 15722 O 1467.24 0.0733152 5.46451 0
M  V30 15723 H 1464.34 -0.0244626 0.826638 0
M  V30 15724 H 1466.88 0.698805 1.54644 0
M  V30 15725 H 1465.66 1.30278 3.68976 0
M  V30 15726 H 1465.28 -0.391336 3.95669 0
M  V30 15727 N 1466.28 -1.53251 0.367684 0
M  V30 15728 C 1467.51 -2.05407 -0.221725 0
M  V30 15729 C 1467.91 -1.24081 -1.4283 0
M  V30 15730 O 1467.26 -0.275005 -1.8163 0
M  V30 15731 C 1467.32 -3.53063 -0.677281 0
M  V30 15732 C 1466.98 -4.55131 0.412894 0
M  V30 15733 C 1467.98 -5.04315 1.26343 0
M  V30 15734 C 1465.66 -4.99013 0.573739 0
M  V30 15735 C 1467.66 -5.95984 2.26014 0
M  V30 15736 C 1465.35 -5.90487 1.57381 0
M  V30 15737 C 1466.34 -6.38863 2.41544 0
M  V30 15738 O 1466.03 -7.28533 3.39845 0
M  V30 15739 H 1465.76 -0.674679 -0.0422413 0
M  V30 15740 H 1468.32 -1.98577 0.52501 0
M  V30 15741 H 1466.55 -3.57437 -1.47565 0
M  V30 15742 H 1468.24 -3.88066 -1.18993 0
M  V30 15743 H 1469 -4.7116 1.15037 0
M  V30 15744 H 1464.88 -4.60944 -0.0715806 0
M  V30 15745 H 1468.43 -6.33666 2.91742 0
M  V30 15746 H 1464.32 -6.23056 1.68734 0
M  V30 15747 H 1465.09 -7.46536 3.35598 0
M  V30 15748 N 1467.75 -0.0969077 -1.57302 0
M  V30 15749 C 1468.98 0.578086 -1.99181 0
M  V30 15750 C 1469.4 1.60818 -0.975667 0
M  V30 15751 O 1468.76 1.81215 0.0556054 0
M  V30 15752 C 1468.81 1.20076 -3.40021 0
M  V30 15753 O 1467.91 2.31656 -3.41188 0
M  V30 15754 H 1467.25 0.146506 -0.647636 0
M  V30 15755 H 1469.78 -0.178855 -2.03817 0
M  V30 15756 H 1469.79 1.54162 -3.77754 0
M  V30 15757 H 1468.47 0.446114 -4.135 0
M  V30 15758 H 1467.05 1.99175 -3.15252 0
M  V30 15759 N 1469.23 1.56605 0.176793 0
M  V30 15760 C 1470.64 1.71418 0.739775 0
M  V30 15761 C 1470.99 0.706527 1.83037 0
M  V30 15762 O 1470.12 -0.133259 2.15989 0
M  V30 15763 C 1470.71 3.10799 1.34867 0
M  V30 15764 C 1469.27 3.27315 1.85854 0
M  V30 15765 C 1468.42 2.67371 0.73541 0
M  V30 15766 H 1471.37 1.58626 -0.0485305 0
M  V30 15767 H 1471.39 3.09146 2.21831 0
M  V30 15768 H 1470.9 3.84116 0.554688 0
M  V30 15769 H 1469 2.58947 2.67913 0
M  V30 15770 H 1469.12 4.35002 2.00774 0
M  V30 15771 H 1467.48 2.27035 1.15444 0
M  V30 15772 H 1468.26 3.43268 -0.0466351 0
M  V30 15773 N 1470.71 -0.445159 1.51182 0
M  V30 15774 C 1471.93 -1.22249 1.67541 0
M  V30 15775 C 1472.36 -1.84446 0.368972 0
M  V30 15776 O 1471.72 -1.68463 -0.670058 0
M  V30 15777 C 1471.77 -2.288 2.78717 0
M  V30 15778 O 1470.87 -3.34094 2.41775 0
M  V30 15779 H 1470.21 -0.358516 0.558894 0
M  V30 15780 H 1472.74 -0.526696 1.97704 0
M  V30 15781 H 1472.75 -2.73708 3.02569 0
M  V30 15782 H 1471.43 -1.82906 3.73521 0
M  V30 15783 H 1470 -2.94717 2.28466 0
M  V30 15784 N 1472.19 -1.41197 -0.700089 0
M  V30 15785 C 1473.14 -1.39158 -1.80607 0
M  V30 15786 C 1474.12 -0.266653 -1.58675 0
M  V30 15787 O 1475.31 -0.506973 -1.69584 0
M  V30 15788 C 1472.44 -1.27176 -3.18875 0
M  V30 15789 C 1471.53 -2.44513 -3.46517 0
M  V30 15790 N 1471.92 -3.69984 -3.44885 0
M  V30 15791 C 1470.22 -2.38228 -3.77046 0
M  V30 15792 C 1470.92 -4.4778 -3.71306 0
M  V30 15793 N 1469.89 -3.77831 -3.90826 0
M  V30 15794 H 1473.7 -2.34093 -1.77701 0
M  V30 15795 H 1471.21 -1.35188 -0.899887 0
M  V30 15796 H 1473.21 -1.23797 -3.98095 0
M  V30 15797 H 1471.87 -0.332215 -3.22996 0
M  V30 15798 H 1472.88 -4.02932 -3.25371 0
M  V30 15799 H 1469.56 -1.52722 -3.88564 0
M  V30 15800 H 1470.95 -5.56695 -3.76218 0
M  V30 15801 N 1473.67 0.933891 -1.2695 0
M  V30 15802 C 1474.9 1.71263 -1.15553 0
M  V30 15803 C 1475.3 1.86948 0.291059 0
M  V30 15804 O 1474.65 1.38173 1.21053 0
M  V30 15805 C 1474.71 3.13479 -1.75986 0
M  V30 15806 C 1474.37 3.21154 -3.2513 0
M  V30 15807 C 1475.37 3.03874 -4.21849 0
M  V30 15808 C 1473.05 3.44311 -3.65726 0
M  V30 15809 C 1475.05 3.09631 -5.57142 0
M  V30 15810 C 1472.74 3.49702 -5.01151 0
M  V30 15811 C 1473.73 3.32379 -5.96668 0
M  V30 15812 O 1473.42 3.37493 -7.29626 0
M  V30 15813 H 1473.15 0.542801 -0.402918 0
M  V30 15814 H 1475.71 1.17877 -1.68209 0
M  V30 15815 H 1473.94 3.6832 -1.178 0
M  V30 15816 H 1475.63 3.73295 -1.59391 0
M  V30 15817 H 1476.39 2.85832 -3.91823 0
M  V30 15818 H 1472.27 3.56847 -2.91859 0
M  V30 15819 H 1475.82 2.96028 -6.31675 0
M  V30 15820 H 1471.71 3.67267 -5.30835 0
M  V30 15821 H 1472.48 3.53988 -7.37994 0
M  V30 15822 N 1475.14 1.08871 1.13951 0
M  V30 15823 C 1476.08 0.680849 2.18854 0
M  V30 15824 C 1477.09 -0.274456 1.6047 0
M  V30 15825 O 1478.28 -0.0613804 1.78394 0
M  V30 15826 C 1475.38 -0.0182788 3.38895 0
M  V30 15827 C 1474.55 0.957125 4.268 0
M  V30 15828 C 1473.61 0.29245 5.25387 0
M  V30 15829 O 1472.64 0.938329 5.61413 0
M  V30 15830 N 1473.84 -0.955738 5.72578 0
M  V30 15831 H 1476.6 1.58334 2.54461 0
M  V30 15832 H 1474.16 0.975417 1.29218 0
M  V30 15833 H 1476.16 -0.474001 4.01915 0
M  V30 15834 H 1474.73 -0.822932 3.01574 0
M  V30 15835 H 1473.95 1.59156 3.60642 0
M  V30 15836 H 1475.23 1.61792 4.82391 0
M  V30 15837 H 1474.63 -1.50014 5.45447 0
M  V30 15838 H 1473.19 -1.35488 6.37563 0
M  V30 15839 N 1476.62 -1.31073 0.875073 0
M  V30 15840 C 1477.87 -1.96809 0.489273 0
M  V30 15841 C 1478.2 -1.68979 -0.957073 0
M  V30 15842 O 1477.48 -0.989061 -1.67475 0
M  V30 15843 C 1477.76 -3.52139 0.752998 0
M  V30 15844 C 1477.61 -3.89524 2.24925 0
M  V30 15845 C 1478.93 -4.39535 0.222871 0
M  V30 15846 H 1476.05 -0.714873 0.179238 0
M  V30 15847 H 1478.69 -1.55114 1.09725 0
M  V30 15848 H 1476.84 -3.87785 0.23553 0
M  V30 15849 H 1478.51 -3.63953 2.83436 0
M  V30 15850 H 1476.76 -3.37948 2.71981 0
M  V30 15851 H 1477.43 -4.97845 2.38441 0
M  V30 15852 H 1479.9 -4.10741 0.665645 0
M  V30 15853 H 1478.78 -5.47159 0.436806 0
M  V30 15854 H 1479.04 -4.33346 -0.875445 0
M  V30 15855 N 1478.1 -0.635022 -1.4424 0
M  V30 15856 C 1479.35 -0.141276 -2.02307 0
M  V30 15857 C 1479.68 1.23508 -1.49865 0
M  V30 15858 O 1478.95 1.82065 -0.684291 0
M  V30 15859 C 1479.24 -0.132196 -3.59857 0
M  V30 15860 C 1479.09 -1.54117 -4.22573 0
M  V30 15861 C 1480.41 0.541186 -4.3676 0
M  V30 15862 H 1477.53 -0.0528117 -0.735105 0
M  V30 15863 H 1480.17 -0.812239 -1.71763 0
M  V30 15864 H 1478.32 0.439156 -3.8601 0
M  V30 15865 H 1479.99 -2.16171 -4.07514 0
M  V30 15866 H 1478.24 -2.09389 -3.79919 0
M  V30 15867 H 1478.91 -1.48682 -5.31599 0
M  V30 15868 H 1481.38 0.0552603 -4.16063 0
M  V30 15869 H 1480.26 0.516742 -5.46462 0
M  V30 15870 H 1480.52 1.61222 -4.11655 0
M  V30 15871 N 1479.58 1.53054 -0.375806 0
M  V30 15872 C 1480.51 2.23664 0.500685 0
M  V30 15873 C 1481.52 1.25432 1.03782 0
M  V30 15874 O 1482.71 1.51592 0.942451 0
M  V30 15875 C 1479.81 2.9288 1.70513 0
M  V30 15876 C 1478.99 4.17706 1.29772 0
M  V30 15877 C 1478.04 4.7004 2.36536 0
M  V30 15878 O 1477.07 5.33466 1.98502 0
M  V30 15879 N 1478.27 4.48732 3.68266 0
M  V30 15880 H 1481.04 2.99519 -0.104201 0
M  V30 15881 H 1478.6 1.60641 -0.201488 0
M  V30 15882 H 1480.59 3.24795 2.41433 0
M  V30 15883 H 1479.16 2.20416 2.21665 0
M  V30 15884 H 1478.38 3.91978 0.41795 0
M  V30 15885 H 1479.67 4.98837 1.00197 0
M  V30 15886 H 1479.07 3.98075 4.01936 0
M  V30 15887 H 1477.62 4.85172 4.3526 0
M  V30 15888 N 1481.06 0.105248 1.57248 0
M  V30 15889 C 1481.97 -0.864007 2.1811 0
M  V30 15890 C 1482.98 -1.30282 1.15337 0
M  V30 15891 O 1484.16 -1.36864 1.4775 0
M  V30 15892 C 1481.22 -2.1014 2.75757 0
M  V30 15893 C 1480.28 -1.71583 3.9352 0
M  V30 15894 C 1479.52 -2.89424 4.48408 0
M  V30 15895 O 1479.74 -4.04449 4.02215 0
M  V30 15896 O 1478.67 -2.67303 5.39289 0
M  V30 15897 H 1482.5 -0.376131 3.01362 0
M  V30 15898 H 1480.09 -0.119643 1.4892 0
M  V30 15899 H 1481.97 -2.82638 3.1256 0
M  V30 15900 H 1480.64 -2.57961 1.95545 0
M  V30 15901 H 1479.55 -0.962347 3.6151 0
M  V30 15902 H 1480.88 -1.28517 4.75126 0
M  V30 15903 N 1482.53 -1.56697 -0.168486 0
M  V30 15904 C 1483.78 -1.81794 -0.882907 0
M  V30 15905 C 1484.1 -0.682707 -1.82658 0
M  V30 15906 O 1483.37 0.297234 -1.93632 0
M  V30 15907 H 1481.95 -0.670636 -0.329024 0
M  V30 15908 H 1484.62 -1.94178 -0.167625 0
M  V30 15909 H 1483.71 -2.75945 -1.45811 0
M  V30 15910 N 1484.01 0.437135 -1.51416 0
M  V30 15911 C 1484.96 1.52903 -1.69129 0
M  V30 15912 C 1485.95 1.51379 -0.54528 0
M  V30 15913 O 1487.14 1.57828 -0.8012 0
M  V30 15914 C 1484.27 2.91092 -1.8199 0
M  V30 15915 C 1483.35 2.97372 -3.02375 0
M  V30 15916 N 1483.74 2.73395 -4.25545 0
M  V30 15917 C 1482.04 3.28532 -3.01634 0
M  V30 15918 C 1482.74 2.85523 -5.06805 0
M  V30 15919 N 1481.72 3.17201 -4.41457 0
M  V30 15920 H 1485.52 1.33118 -2.62025 0
M  V30 15921 H 1483.04 0.644444 -1.49066 0
M  V30 15922 H 1485.03 3.69645 -1.9279 0
M  V30 15923 H 1483.69 3.11898 -0.902757 0
M  V30 15924 H 1484.7 2.4832 -4.54486 0
M  V30 15925 H 1481.38 3.5511 -2.19552 0
M  V30 15926 H 1482.77 2.70938 -6.14852 0
M  V30 15927 N 1485.49 1.41566 0.692592 0
M  V30 15928 C 1486.42 1.46423 1.81886 0
M  V30 15929 C 1487.4 0.32258 1.67013 0
M  V30 15930 O 1488.59 0.534437 1.86701 0
M  V30 15931 C 1485.72 1.3486 3.20047 0
M  V30 15932 C 1484.67 2.46867 3.49629 0
M  V30 15933 C 1484 2.20369 4.87177 0
M  V30 15934 C 1485.3 3.89205 3.48306 0
M  V30 15935 H 1486.99 2.40683 1.78079 0
M  V30 15936 H 1484.54 1.15845 0.855334 0
M  V30 15937 H 1486.49 1.36869 3.98553 0
M  V30 15938 H 1485.21 0.370859 3.24488 0
M  V30 15939 H 1483.87 2.44146 2.73475 0
M  V30 15940 H 1483.52 1.20931 4.88247 0
M  V30 15941 H 1483.22 2.95426 5.07934 0
M  V30 15942 H 1484.74 2.24099 5.6799 0
M  V30 15943 H 1486.16 3.93626 4.16811 0
M  V30 15944 H 1484.56 4.63969 3.80595 0
M  V30 15945 H 1485.63 4.17144 2.47222 0
M  V30 15946 N 1486.97 -0.927146 1.27443 0
M  V30 15947 C 1487.9 -2.03209 1.06013 0
M  V30 15948 C 1488.91 -1.62792 0.016041 0
M  V30 15949 O 1490.1 -1.76631 0.25766 0
M  V30 15950 C 1487.2 -3.33791 0.586225 0
M  V30 15951 C 1486.38 -4.02897 1.70273 0
M  V30 15952 C 1485.43 -5.11755 1.22447 0
M  V30 15953 O 1484.46 -5.35688 1.92423 0
M  V30 15954 N 1485.66 -5.80444 0.0804162 0
M  V30 15955 H 1488.43 -2.22155 2.01165 0
M  V30 15956 H 1485.99 -1.09757 1.19017 0
M  V30 15957 H 1487.98 -4.03926 0.250161 0
M  V30 15958 H 1486.55 -3.11414 -0.272076 0
M  V30 15959 H 1485.77 -3.26489 2.20905 0
M  V30 15960 H 1487.06 -4.45816 2.45205 0
M  V30 15961 H 1486.46 -5.63454 -0.503635 0
M  V30 15962 H 1485.01 -6.51504 -0.196466 0
M  V30 15963 N 1488.45 -1.09474 -1.13372 0
M  V30 15964 C 1489.69 -0.831091 -1.84659 0
M  V30 15965 C 1490.02 0.643294 -1.83554 0
M  V30 15966 O 1489.28 1.48958 -1.26925 0
M  V30 15967 C 1489.58 -1.31208 -3.32444 0
M  V30 15968 C 1489.24 -2.79617 -3.5373 0
M  V30 15969 C 1487.9 -3.20147 -3.59248 0
M  V30 15970 C 1490.26 -3.75303 -3.61659 0
M  V30 15971 C 1487.58 -4.55135 -3.70228 0
M  V30 15972 C 1489.94 -5.1008 -3.74167 0
M  V30 15973 C 1488.6 -5.50199 -3.77938 0
M  V30 15974 H 1487.87 -0.304118 -0.675717 0
M  V30 15975 H 1490.52 -1.36961 -1.33843 0
M  V30 15976 H 1488.82 -0.693379 -3.85616 0
M  V30 15977 H 1490.52 -1.08469 -3.86051 0
M  V30 15978 H 1487.11 -2.47253 -3.50091 0
M  V30 15979 H 1491.29 -3.45103 -3.56676 0
M  V30 15980 H 1486.55 -4.85656 -3.71414 0
M  V30 15981 H 1490.72 -5.84077 -3.79245 0
M  V30 15982 H 1488.35 -6.54794 -3.86198 0
M  V30 15983 N 1489.92 1.30607 -0.882012 0
M  V30 15984 C 1490.85 2.30666 -0.362706 0
M  V30 15985 C 1491.84 1.60865 0.552861 0
M  V30 15986 O 1493.02 1.88493 0.467339 0
M  V30 15987 C 1490.15 3.44675 0.42622 0
M  V30 15988 C 1489.1 4.26152 -0.397322 0
M  V30 15989 C 1488.43 5.32185 0.518027 0
M  V30 15990 C 1489.73 4.95955 -1.63785 0
M  V30 15991 H 1491.42 2.74351 -1.19883 0
M  V30 15992 H 1488.97 1.31895 -0.577912 0
M  V30 15993 H 1490.92 4.13734 0.80013 0
M  V30 15994 H 1489.65 2.99787 1.29597 0
M  V30 15995 H 1488.31 3.58776 -0.753332 0
M  V30 15996 H 1487.95 4.83545 1.3854 0
M  V30 15997 H 1487.65 5.87593 -0.0291802 0
M  V30 15998 H 1489.18 6.04101 0.888518 0
M  V30 15999 H 1490.59 5.57547 -1.3347 0
M  V30 16000 H 1488.99 5.61215 -2.12504 0
M  V30 16001 H 1490.06 4.22252 -2.38394 0
M  V30 16002 N 1491.4 0.642663 1.43901 0
M  V30 16003 C 1492.82 0.309286 1.56575 0
M  V30 16004 C 1493.02 -1.18709 1.6282 0
M  V30 16005 O 1492.07 -1.97157 1.57751 0
M  V30 16006 C 1493.39 1.01136 2.83182 0
M  V30 16007 C 1494.94 0.9906 2.96911 0
M  V30 16008 C 1495.41 1.67336 4.26336 0
M  V30 16009 N 1496.9 1.6405 4.33177 0
M  V30 16010 C 1497.64 2.13762 5.32065 0
M  V30 16011 N 1497.13 2.71716 6.37293 0
M  V30 16012 N 1498.93 2.04323 5.23649 0
M  V30 16013 H 1491.08 1.61384 1.38091 0
M  V30 16014 H 1493.34 0.678084 0.6625 0
M  V30 16015 H 1493.05 2.0664 2.84592 0
M  V30 16016 H 1492.92 0.556304 3.73075 0
M  V30 16017 H 1495.31 -0.0559997 2.95047 0
M  V30 16018 H 1495.39 1.48425 2.08335 0
M  V30 16019 H 1495.03 2.71947 4.2896 0
M  V30 16020 H 1494.96 1.15445 5.1379 0
M  V30 16021 H 1497.45 1.21749 3.57751 0
M  V30 16022 H 1497.77 3.07352 7.09052 0
M  V30 16023 H 1496.11 2.75772 6.37946 0
M  V30 16024 H 1499.3 1.5876 4.40355 0
M  V30 16025 H 1499.47 2.43376 6.0056 0
M  V30 16026 N 1492.88 -1.52852 0.383918 0
M  V30 16027 C 1494.12 -2.03421 -0.199832 0
M  V30 16028 C 1494.49 -1.26439 -1.44489 0
M  V30 16029 O 1495.69 -1.67105 -2.10545 0
M  V30 16030 C 1493.96 -3.54341 -0.466577 0
M  V30 16031 S 1495.52 -4.26747 -1.02138 0
M  V30 16032 H 1492.33 -0.70873 -0.0567636 0
M  V30 16033 H 1494.94 -1.8815 0.531022 0
M  V30 16034 H 1493.64 -4.07961 0.446772 0
M  V30 16035 H 1493.17 -3.73808 -1.226 0
M  V30 16036 H 1495.19 -4.39456 -2.3042 0
M  V30 16037 N 1494.36 -0.113586 -1.5719 0
M  V30 16038 C 1495.61 0.545507 -1.94183 0
M  V30 16039 C 1495.92 1.68176 -0.998816 0
M  V30 16040 O 1497.13 2.40324 -1.26319 0
M  V30 16041 C 1495.58 1.02178 -3.45091 0
M  V30 16042 C 1495.19 -0.0857195 -4.47918 0
M  V30 16043 C 1496.94 1.65255 -3.91013 0
M  V30 16044 C 1494.84 0.406946 -5.89998 0
M  V30 16045 H 1493.77 0.20755 -0.724872 0
M  V30 16046 H 1496.42 -0.192567 -1.82487 0
M  V30 16047 H 1494.81 1.81411 -3.52003 0
M  V30 16048 H 1495.98 -0.861821 -4.52669 0
M  V30 16049 H 1494.29 -0.622816 -4.11716 0
M  V30 16050 H 1496.89 2.0322 -4.94576 0
M  V30 16051 H 1497.23 2.52888 -3.30687 0
M  V30 16052 H 1497.77 0.925727 -3.86879 0
M  V30 16053 H 1494.51 -0.433199 -6.54067 0
M  V30 16054 H 1494.03 1.14965 -5.88679 0
M  V30 16055 H 1495.71 0.869934 -6.41125 0
M  V30 16056 N 1495.84 1.56784 0.160173 0
M  V30 16057 C 1497.06 1.87129 0.894283 0
M  V30 16058 C 1497.49 0.701172 1.74543 0
M  V30 16059 O 1496.85 -0.349542 1.77899 0
M  V30 16060 C 1496.89 3.15969 1.73769 0
M  V30 16061 O 1496 2.98977 2.84054 0
M  V30 16062 H 1495.34 0.615192 0.249869 0
M  V30 16063 H 1497.87 2.04012 0.154956 0
M  V30 16064 H 1497.88 3.47657 2.13538 0
M  V30 16065 H 1496.55 4.00742 1.11258 0
M  V30 16066 H 1495.13 2.78668 2.47788 0
M  V30 16067 N 1497.32 -0.429099 1.51646 0
M  V30 16068 C 1498.73 -1.00868 1.57107 0
M  V30 16069 C 1499.08 -1.9209 0.399483 0
M  V30 16070 O 1498.2 -2.10948 -0.482709 0
M  V30 16071 C 1498.8 -1.83612 2.84732 0
M  V30 16072 C 1497.36 -2.36605 2.92737 0
M  V30 16073 C 1496.5 -1.1604 2.51853 0
M  V30 16074 H 1499.45 -0.21006 1.57304 0
M  V30 16075 H 1499.48 -2.69149 2.68959 0
M  V30 16076 H 1498.99 -1.17192 3.69983 0
M  V30 16077 H 1497.09 -3.06455 2.11934 0
M  V30 16078 H 1497.2 -2.68838 3.96564 0
M  V30 16079 H 1495.57 -1.50826 2.0524 0
M  V30 16080 H 1496.35 -0.51218 3.39458 0
M  V30 16081 N 1498.79 -1.41931 -0.685074 0
M  V30 16082 C 1499.74 -1.41066 -1.79121 0
M  V30 16083 C 1500.73 -0.283467 -1.58383 0
M  V30 16084 O 1501.92 -0.524931 -1.69037 0
M  V30 16085 C 1499.05 -1.30551 -3.17508 0
M  V30 16086 C 1498.13 -2.48174 -3.43905 0
M  V30 16087 N 1498.53 -3.73621 -3.40941 0
M  V30 16088 C 1496.82 -2.42213 -3.74498 0
M  V30 16089 C 1497.52 -4.51693 -3.66536 0
M  V30 16090 N 1496.5 -3.81955 -3.86796 0
M  V30 16091 H 1500.3 -2.35965 -1.75208 0
M  V30 16092 H 1497.82 -1.36135 -0.885498 0
M  V30 16093 H 1499.81 -1.28013 -3.9676 0
M  V30 16094 H 1498.47 -0.366454 -3.22625 0
M  V30 16095 H 1499.48 -4.0636 -3.21079 0
M  V30 16096 H 1496.16 -1.56835 -3.86923 0
M  V30 16097 H 1497.55 -5.60654 -3.70292 0
M  V30 16098 N 1500.27 0.920374 -1.27933 0
M  V30 16099 C 1501.5 1.70804 -1.17647 0
M  V30 16100 C 1501.92 1.86264 0.262189 0
M  V30 16101 O 1501.28 1.36798 1.18979 0
M  V30 16102 C 1501.33 3.08142 -1.87298 0
M  V30 16103 O 1500.43 3.95279 -1.17593 0
M  V30 16104 H 1499.77 0.523267 -0.408763 0
M  V30 16105 H 1502.3 1.15127 -1.69136 0
M  V30 16106 H 1502.31 3.58414 -1.94945 0
M  V30 16107 H 1500.99 2.96208 -2.91948 0
M  V30 16108 H 1499.56 3.53716 -1.18065 0
M  V30 16109 N 1501.75 1.10074 1.1279 0
M  V30 16110 C 1503.03 0.753069 1.80522 0
M  V30 16111 C 1503.41 -0.760982 1.96907 0
M  V30 16112 O 1502.75 -1.68584 1.54245 0
M  V30 16113 C 1502.96 1.49982 3.15129 0
M  V30 16114 C 1504.31 1.66993 3.90382 0
M  V30 16115 O 1505.34 1.46289 3.24774 0
M  V30 16116 O 1504.2 2.01293 5.08078 0
M  V30 16117 H 1501.29 0.271277 0.781241 0
M  V30 16118 H 1503.84 1.20333 1.19658 0
M  V30 16119 H 1502.61 2.53043 2.98471 0
M  V30 16120 H 1502.23 1.04217 3.83699 0
M  V30 16121 N 1503.23 -1.30138 0.888926 0
M  V30 16122 C 1504.45 -2.00679 0.523697 0
M  V30 16123 C 1504.88 -1.66167 -0.881479 0
M  V30 16124 O 1504.24 -0.880418 -1.58488 0
M  V30 16125 C 1504.28 -3.53535 0.710284 0
M  V30 16126 O 1503.39 -4.11689 -0.242066 0
M  V30 16127 H 1502.73 -0.631273 0.205888 0
M  V30 16128 H 1505.26 -1.65891 1.19756 0
M  V30 16129 H 1505.27 -4.03402 0.610794 0
M  V30 16130 H 1503.94 -3.77992 1.73478 0
M  V30 16131 H 1502.52 -3.72777 -0.0959393 0
M  V30 16132 N 1504.71 -0.650285 -1.43559 0
M  V30 16133 C 1505.93 -0.170139 -2.06199 0
M  V30 16134 C 1506.35 1.16304 -1.48724 0
M  V30 16135 O 1505.71 1.71739 -0.617418 0
M  V30 16136 C 1505.76 -0.0698577 -3.61432 0
M  V30 16137 O 1505.48 -1.35033 -4.16771 0
M  V30 16138 C 1506.98 0.436714 -4.41144 0
M  V30 16139 H 1504.2 -0.0885316 -0.665134 0
M  V30 16140 H 1506.74 -0.890104 -1.84112 0
M  V30 16141 H 1504.9 0.60065 -3.82715 0
M  V30 16142 H 1505.31 -1.20762 -5.10409 0
M  V30 16143 H 1506.79 0.455843 -5.50115 0
M  V30 16144 H 1507.26 1.46747 -4.13959 0
M  V30 16145 H 1507.87 -0.201201 -4.24824 0
M  V30 16146 N 1506.18 1.52647 -0.392018 0
M  V30 16147 C 1507.11 2.29446 0.433228 0
M  V30 16148 C 1508.09 1.32945 1.06111 0
M  V30 16149 O 1509.28 1.61841 1.07337 0
M  V30 16150 C 1506.41 3.10328 1.55929 0
M  V30 16151 C 1505.36 4.14735 1.05731 0
M  V30 16152 C 1504.69 4.83858 2.27565 0
M  V30 16153 C 1505.99 5.22154 0.123346 0
M  V30 16154 H 1507.68 2.9868 -0.207563 0
M  V30 16155 H 1505.23 1.43643 -0.101266 0
M  V30 16156 H 1507.18 3.62814 2.14346 0
M  V30 16157 H 1505.91 2.38832 2.22771 0
M  V30 16158 H 1504.57 3.63234 0.495653 0
M  V30 16159 H 1504.21 4.08907 2.92923 0
M  V30 16160 H 1503.91 5.54428 1.94637 0
M  V30 16161 H 1505.44 5.39149 2.86619 0
M  V30 16162 H 1506.85 5.69983 0.615784 0
M  V30 16163 H 1505.25 5.99987 -0.116304 0
M  V30 16164 H 1506.32 4.77796 -0.826969 0
M  V30 16165 N 1507.66 0.121921 1.57128 0
M  V30 16166 C 1508.89 -0.543012 1.99647 0
M  V30 16167 C 1509.31 -1.60038 1.00165 0
M  V30 16168 O 1508.66 -1.82499 -0.00504688 0
M  V30 16169 C 1508.71 -1.1665 3.42162 0
M  V30 16170 O 1508.43 -0.151385 4.37838 0
M  V30 16171 C 1509.94 -1.91447 3.99829 0
M  V30 16172 H 1507.16 -0.143524 0.655471 0
M  V30 16173 H 1509.7 0.20912 2.03428 0
M  V30 16174 H 1507.85 -1.86939 3.39312 0
M  V30 16175 H 1508.27 -0.604773 5.21002 0
M  V30 16176 H 1509.74 -2.30394 5.0162 0
M  V30 16177 H 1510.22 -2.7908 3.39133 0
M  V30 16178 H 1510.83 -1.25913 4.06234 0
M  V30 16179 N 1509.14 -1.56867 -0.151857 0
M  V30 16180 C 1510.55 -1.72573 -0.712411 0
M  V30 16181 C 1510.9 -0.735557 -1.8189 0
M  V30 16182 O 1510.03 0.09888 -2.16174 0
M  V30 16183 C 1510.62 -3.12906 -1.29905 0
M  V30 16184 C 1509.18 -3.30231 -1.80623 0
M  V30 16185 C 1508.33 -2.68507 -0.692781 0
M  V30 16186 H 1511.28 -1.58528 0.0737603 0
M  V30 16187 H 1511.3 -3.12636 -2.16885 0
M  V30 16188 H 1510.81 -3.84949 -0.493509 0
M  V30 16189 H 1508.91 -2.63176 -2.6376 0
M  V30 16190 H 1509.03 -4.38141 -1.93828 0
M  V30 16191 H 1507.39 -2.28842 -1.11818 0
M  V30 16192 H 1508.17 -3.43151 0.10124 0
M  V30 16193 N 1510.62 0.421051 -1.51871 0
M  V30 16194 C 1511.55 1.51928 -1.77313 0
M  V30 16195 C 1512.53 1.58258 -0.623579 0
M  V30 16196 O 1513.71 1.73724 -0.867967 0
M  V30 16197 C 1510.84 2.89865 -1.913 0
M  V30 16198 C 1509.8 2.98391 -3.06834 0
M  V30 16199 C 1509.12 4.38466 -3.06026 0
M  V30 16200 C 1510.42 2.7097 -4.46511 0
M  V30 16201 H 1512.12 1.30889 -2.69274 0
M  V30 16202 H 1509.66 0.628229 -1.29573 0
M  V30 16203 H 1511.62 3.66669 -2.07682 0
M  V30 16204 H 1510.34 3.12172 -0.960011 0
M  V30 16205 H 1509 2.24029 -2.90184 0
M  V30 16206 H 1508.65 4.57764 -2.08472 0
M  V30 16207 H 1508.35 4.45097 -3.83618 0
M  V30 16208 H 1509.87 5.17221 -3.24522 0
M  V30 16209 H 1511.29 3.37501 -4.63428 0
M  V30 16210 H 1509.68 2.88992 -5.25931 0
M  V30 16211 H 1510.75 1.66476 -4.55427 0
M  V30 16212 N 1512.1 1.42293 0.677538 0
M  V30 16213 C 1513.03 1.41503 1.80304 0
M  V30 16214 C 1514.04 0.314499 1.59733 0
M  V30 16215 O 1515.23 0.57741 1.68903 0
M  V30 16216 C 1512.33 1.18879 3.17366 0
M  V30 16217 C 1511.5 2.41314 3.6481 0
M  V30 16218 C 1510.56 2.14277 4.80595 0
M  V30 16219 O 1509.59 2.87457 4.91281 0
M  V30 16220 N 1510.79 1.14419 5.69112 0
M  V30 16221 H 1513.56 2.38515 1.81468 0
M  V30 16222 H 1511.12 1.37137 0.860529 0
M  V30 16223 H 1513.11 0.987135 3.92476 0
M  V30 16224 H 1511.68 0.304002 3.11118 0
M  V30 16225 H 1510.9 2.77066 2.80407 0
M  V30 16226 H 1512.19 3.2285 3.9325 0
M  V30 16227 H 1511.58 0.53888 5.63127 0
M  V30 16228 H 1510.14 1.00241 6.44046 0
M  V30 16229 N 1513.57 -0.913576 1.28419 0
M  V30 16230 C 1514.8 -1.70178 1.18551 0
M  V30 16231 C 1515.22 -1.864 -0.252307 0
M  V30 16232 O 1514.58 -1.37427 -1.18252 0
M  V30 16233 C 1514.63 -3.07145 1.8893 0
M  V30 16234 O 1513.73 -3.9465 1.19688 0
M  V30 16235 H 1513.08 -0.521092 0.411533 0
M  V30 16236 H 1515.61 -1.14228 1.69744 0
M  V30 16237 H 1515.62 -3.57375 1.96843 0
M  V30 16238 H 1514.29 -2.94655 2.93515 0
M  V30 16239 H 1512.87 -3.53085 1.19939 0
M  V30 16240 N 1515.05 -1.1067 -1.12204 0
M  V30 16241 C 1516.3 -0.845439 -1.83126 0
M  V30 16242 C 1516.61 0.631022 -1.85142 0
M  V30 16243 O 1517.82 1.00827 -2.52084 0
M  V30 16244 C 1516.28 -1.46265 -3.28838 0
M  V30 16245 C 1515.88 -2.97258 -3.35174 0
M  V30 16246 C 1517.63 -1.28088 -4.04714 0
M  V30 16247 C 1515.54 -3.52002 -4.75235 0
M  V30 16248 H 1514.47 -0.312617 -0.686139 0
M  V30 16249 H 1517.12 -1.33098 -1.26321 0
M  V30 16250 H 1515.5 -0.904781 -3.85525 0
M  V30 16251 H 1516.67 -3.59381 -2.88413 0
M  V30 16252 H 1514.99 -3.14617 -2.72773 0
M  V30 16253 H 1517.58 -1.6643 -5.08139 0
M  V30 16254 H 1517.93 -0.222682 -4.15704 0
M  V30 16255 H 1518.46 -1.80696 -3.54392 0
M  V30 16256 H 1515.2 -4.57499 -4.69441 0
M  V30 16257 H 1514.72 -2.94648 -5.22439 0
M  V30 16258 H 1516.4 -3.49967 -5.4418 0
M  V30 16259 N 1516.53 1.29665 -0.895815 0
M  V30 16260 C 1517.76 2.00399 -0.534333 0
M  V30 16261 C 1518.18 1.66632 0.872654 0
M  V30 16262 O 1517.54 0.888811 1.58018 0
M  V30 16263 C 1517.59 3.53154 -0.729023 0
M  V30 16264 O 1516.69 4.11812 0.22023 0
M  V30 16265 H 1516.03 0.630173 -0.209233 0
M  V30 16266 H 1518.56 1.65253 -1.20634 0
M  V30 16267 H 1518.57 4.03073 -0.632179 0
M  V30 16268 H 1517.25 3.77067 -1.75481 0
M  V30 16269 H 1515.82 3.72822 0.0761687 0
M  V30 16270 N 1518.01 0.657889 1.43212 0
M  V30 16271 C 1518.97 -0.0214783 2.2919 0
M  V30 16272 C 1519.97 -0.745921 1.42452 0
M  V30 16273 O 1521.16 -0.586468 1.64031 0
M  V30 16274 C 1518.29 -1.04115 3.24612 0
M  V30 16275 H 1519.49 0.735072 2.90752 0
M  V30 16276 H 1517.04 0.419354 1.50569 0
M  V30 16277 H 1517.77 -1.82677 2.67954 0
M  V30 16278 H 1517.56 -0.525285 3.88566 0
M  V30 16279 H 1519.05 -1.51544 3.89132 0
M  V30 16280 N 1519.49 -1.52437 0.400108 0
M  V30 16281 C 1520.71 -2.0613 -0.178364 0
M  V30 16282 C 1521.13 -1.27094 -1.39616 0
M  V30 16283 O 1520.49 -0.320409 -1.79665 0
M  V30 16284 C 1520.54 -3.57478 -0.53777 0
M  V30 16285 O 1520.26 -4.33522 0.631657 0
M  V30 16286 C 1521.76 -4.27556 -1.17094 0
M  V30 16287 H 1518.98 -0.670558 -0.0243619 0
M  V30 16288 H 1521.52 -1.9644 0.568459 0
M  V30 16289 H 1519.68 -3.67205 -1.23449 0
M  V30 16290 H 1520.09 -5.23437 0.333803 0
M  V30 16291 H 1521.57 -5.3466 -1.3727 0
M  V30 16292 H 1522.04 -3.83456 -2.14145 0
M  V30 16293 H 1522.65 -4.22174 -0.514687 0
M  V30 16294 N 1520.96 -0.130252 -1.57061 0
M  V30 16295 C 1521.89 0.812189 -2.18919 0
M  V30 16296 C 1522.88 1.2692 -1.13249 0
M  V30 16297 O 1524.06 1.32978 -1.41529 0
M  V30 16298 C 1521.19 2.05803 -2.79754 0
M  V30 16299 C 1520.14 1.73841 -3.91105 0
M  V30 16300 C 1519.47 3.05549 -4.38799 0
M  V30 16301 C 1520.77 0.997991 -5.12677 0
M  V30 16302 H 1522.46 0.296692 -2.97926 0
M  V30 16303 H 1520.01 0.141265 -1.43305 0
M  V30 16304 H 1521.96 2.72201 -3.21691 0
M  V30 16305 H 1520.69 2.59697 -1.98053 0
M  V30 16306 H 1519.35 1.09828 -3.49762 0
M  V30 16307 H 1518.99 3.57399 -3.53942 0
M  V30 16308 H 1518.69 2.84932 -5.13894 0
M  V30 16309 H 1520.22 3.73045 -4.83394 0
M  V30 16310 H 1521.63 1.56372 -5.51562 0
M  V30 16311 H 1520.03 0.892378 -5.93428 0
M  V30 16312 H 1521.1 -0.0132936 -4.84898 0
M  V30 16313 N 1522.44 1.56945 0.143535 0
M  V30 16314 C 1523.67 1.88067 0.874385 0
M  V30 16315 C 1524.09 0.719645 1.73789 0
M  V30 16316 O 1523.45 -0.330654 1.78259 0
M  V30 16317 C 1523.5 3.17795 1.70408 0
M  V30 16318 O 1522.6 3.01973 2.80867 0
M  V30 16319 H 1521.94 0.617808 0.24333 0
M  V30 16320 H 1524.47 2.04165 0.133309 0
M  V30 16321 H 1524.48 3.49903 2.09838 0
M  V30 16322 H 1523.16 4.019 1.07001 0
M  V30 16323 H 1521.74 2.8128 2.44818 0
M  V30 16324 N 1523.92 -0.412991 1.52093 0
M  V30 16325 C 1525.15 -1.18667 1.70096 0
M  V30 16326 C 1525.57 -1.83622 0.408012 0
M  V30 16327 O 1524.93 -1.69847 -0.634174 0
M  V30 16328 C 1524.98 -2.22837 2.83507 0
M  V30 16329 O 1524.08 -3.2889 2.48807 0
M  V30 16330 H 1523.42 -0.346581 0.566373 0
M  V30 16331 H 1525.95 -0.484642 1.98777 0
M  V30 16332 H 1525.96 -2.67229 3.08306 0
M  V30 16333 H 1524.64 -1.74942 3.77317 0
M  V30 16334 H 1523.21 -2.89804 2.34665 0
M  V30 16335 N 1525.4 -1.4265 -0.669982 0
M  V30 16336 C 1526.62 -1.46992 -1.46315 0
M  V30 16337 C 1527.05 -0.0840655 -1.87912 0
M  V30 16338 O 1526.41 0.918554 -1.56308 0
M  V30 16339 C 1526.46 -2.40663 -2.6854 0
M  V30 16340 O 1525.56 -1.88132 -3.66988 0
M  V30 16341 H 1524.9 -0.497844 -0.439372 0
M  V30 16342 H 1527.43 -1.8739 -0.821348 0
M  V30 16343 H 1527.44 -2.57405 -3.16554 0
M  V30 16344 H 1526.12 -3.41346 -2.37604 0
M  V30 16345 H 1524.69 -1.80969 -3.26044 0
M  V30 16346 N 1526.88 0.906753 -1.28902 0
M  V30 16347 C 1528.12 1.65903 -1.16636 0
M  V30 16348 C 1528.46 1.92127 0.282981 0
M  V30 16349 O 1527.73 1.52666 1.20513 0
M  V30 16350 C 1528.01 3.01257 -1.97272 0
M  V30 16351 C 1527.87 2.82143 -3.50308 0
M  V30 16352 C 1529.19 4.01893 -1.7936 0
M  V30 16353 H 1526.31 0.602063 -0.425076 0
M  V30 16354 H 1528.95 1.05081 -1.58297 0
M  V30 16355 H 1527.1 3.53172 -1.61871 0
M  V30 16356 H 1528.77 2.37184 -3.95653 0
M  V30 16357 H 1527.01 2.17063 -3.75588 0
M  V30 16358 H 1527.68 3.78293 -4.01993 0
M  V30 16359 H 1530.16 3.59064 -2.10267 0
M  V30 16360 H 1529.04 4.9455 -2.38141 0
M  V30 16361 H 1529.3 4.35745 -0.746923 0
M  V30 16362 N 1528.36 1.11264 1.11616 0
M  V30 16363 C 1529.6 0.870286 1.84947 0
M  V30 16364 C 1529.96 -0.593351 1.82602 0
M  V30 16365 O 1531.16 -0.952396 2.51362 0
M  V30 16366 C 1529.43 1.4142 3.2823 0
M  V30 16367 S 1530.99 1.30856 4.18834 0
M  V30 16368 H 1527.81 0.314257 0.63778 0
M  V30 16369 H 1530.41 1.41978 1.34397 0
M  V30 16370 H 1529.11 2.47328 3.27501 0
M  V30 16371 H 1528.65 0.861661 3.83848 0
M  V30 16372 H 1530.66 0.271878 4.95455 0
M  V30 16373 N 1529.83 -1.29188 0.902679 0
M  V30 16374 C 1531.06 -2.00113 0.544953 0
M  V30 16375 C 1531.48 -1.67093 -0.863805 0
M  V30 16376 O 1530.84 -0.897179 -1.57545 0
M  V30 16377 C 1530.89 -3.52762 0.747741 0
M  V30 16378 O 1529.99 -4.11923 -0.198388 0
M  V30 16379 H 1529.33 -0.629054 0.212572 0
M  V30 16380 H 1531.86 -1.64611 1.21508 0
M  V30 16381 H 1531.87 -4.02732 0.653546 0
M  V30 16382 H 1530.55 -3.76131 1.77478 0
M  V30 16383 H 1529.13 -3.72857 -0.0563959 0
M  V30 16384 N 1531.31 -0.665475 -1.42861 0
M  V30 16385 C 1532.54 -0.190399 -2.06524 0
M  V30 16386 C 1532.96 1.13995 -1.49622 0
M  V30 16387 O 1532.32 1.70695 -0.610981 0
M  V30 16388 C 1532.37 -0.12594 -3.6038 0
M  V30 16389 O 1531.47 0.908299 -4.02273 0
M  V30 16390 H 1530.81 -0.100495 -0.656351 0
M  V30 16391 H 1533.34 -0.911858 -1.83156 0
M  V30 16392 H 1533.35 0.0533153 -4.07965 0
M  V30 16393 H 1532.03 -1.09703 -4.01171 0
M  V30 16394 H 1530.6 0.700841 -3.66255 0
M  V30 16395 N 1532.79 1.52222 -0.408187 0
M  V30 16396 C 1534.01 2.06703 0.169901 0
M  V30 16397 C 1534.44 1.27635 1.3817 0
M  V30 16398 O 1533.8 0.306343 1.78693 0
M  V30 16399 C 1533.85 3.57121 0.499663 0
M  V30 16400 O 1532.95 3.80483 1.5908 0
M  V30 16401 H 1532.29 0.663839 0.0146145 0
M  V30 16402 H 1534.82 1.96174 -0.581113 0
M  V30 16403 H 1534.83 4.00886 0.758567 0
M  V30 16404 H 1533.51 4.14103 -0.386182 0
M  V30 16405 H 1532.08 3.48599 1.32413 0
M  V30 16406 N 1534.27 0.138579 1.5699 0
M  V30 16407 C 1535.18 -0.817548 2.19894 0
M  V30 16408 C 1536.19 -1.27806 1.18075 0
M  V30 16409 O 1537.37 -1.33699 1.5062 0
M  V30 16410 C 1534.43 -2.04244 2.80152 0
M  V30 16411 C 1533.5 -1.63197 3.97071 0
M  V30 16412 C 1532.73 -2.79847 4.54446 0
M  V30 16413 O 1532.95 -3.95827 4.10703 0
M  V30 16414 O 1531.89 -2.55804 5.44838 0
M  V30 16415 H 1535.71 -0.312123 3.02092 0
M  V30 16416 H 1533.3 -0.0880281 1.4914 0
M  V30 16417 H 1535.18 -2.75945 3.18485 0
M  V30 16418 H 1533.85 -2.53755 2.00973 0
M  V30 16419 H 1532.76 -0.885448 3.6347 0
M  V30 16420 H 1534.09 -1.1841 4.77745 0
M  V30 16421 N 1535.75 -1.57019 -0.13521 0
M  V30 16422 C 1536.97 -1.8816 -0.860434 0
M  V30 16423 C 1537.39 -0.728081 -1.74196 0
M  V30 16424 O 1536.75 0.301745 -1.79988 0
M  V30 16425 C 1536.8 -3.1864 -1.70737 0
M  V30 16426 O 1536.52 -4.29549 -0.861347 0
M  V30 16427 C 1538.02 -3.63376 -2.53915 0
M  V30 16428 H 1535.24 -0.623408 -0.248201 0
M  V30 16429 H 1537.78 -2.04121 -0.124461 0
M  V30 16430 H 1535.94 -3.04397 -2.39627 0
M  V30 16431 H 1536.35 -5.04233 -1.44393 0
M  V30 16432 H 1537.83 -4.57478 -3.08897 0
M  V30 16433 H 1538.3 -2.89238 -3.30512 0
M  V30 16434 H 1538.91 -3.80352 -1.90296 0
M  V30 16435 N 1537.22 0.404919 -1.52309 0
M  V30 16436 C 1538.45 1.17764 -1.70723 0
M  V30 16437 C 1538.87 1.83403 -0.417744 0
M  V30 16438 O 1538.23 1.70181 0.625157 0
M  V30 16439 C 1538.28 2.2133 -2.84685 0
M  V30 16440 O 1537.38 3.27566 -2.50548 0
M  V30 16441 H 1536.73 0.343572 -0.568203 0
M  V30 16442 H 1539.26 0.474093 -1.99031 0
M  V30 16443 H 1539.27 2.6559 -3.09719 0
M  V30 16444 H 1537.94 1.72939 -3.78239 0
M  V30 16445 H 1536.52 2.88556 -2.36199 0
M  V30 16446 N 1538.7 1.43003 0.662408 0
M  V30 16447 C 1539.63 1.50248 1.78739 0
M  V30 16448 C 1540.61 0.357934 1.66291 0
M  V30 16449 O 1541.8 0.573919 1.85526 0
M  V30 16450 C 1538.93 1.41618 3.17114 0
M  V30 16451 C 1537.88 2.54228 3.44314 0
M  V30 16452 C 1537.21 2.30653 4.82393 0
M  V30 16453 C 1538.51 3.96505 3.39972 0
M  V30 16454 H 1540.2 2.44406 1.72934 0
M  V30 16455 H 1537.75 1.17633 0.830569 0
M  V30 16456 H 1539.7 1.45293 3.9556 0
M  V30 16457 H 1538.43 0.439605 3.23628 0
M  V30 16458 H 1537.08 2.49891 2.68235 0
M  V30 16459 H 1536.73 1.3126 4.85572 0
M  V30 16460 H 1536.43 3.06134 5.01554 0
M  V30 16461 H 1537.96 2.36096 5.63108 0
M  V30 16462 H 1539.37 4.02378 4.08368 0
M  V30 16463 H 1537.77 4.71937 3.70668 0
M  V30 16464 H 1538.84 4.22295 2.38318 0
M  V30 16465 N 1540.18 -0.899904 1.29381 0
M  V30 16466 C 1541.13 -1.9909 1.11119 0
M  V30 16467 C 1542.11 -1.60871 0.030676 0
M  V30 16468 O 1543.31 -1.75192 0.252365 0
M  V30 16469 C 1540.44 -3.34097 0.789552 0
M  V30 16470 C 1539.52 -3.78676 1.90959 0
M  V30 16471 N 1539.91 -3.95492 3.15309 0
M  V30 16472 C 1538.21 -4.0795 1.80258 0
M  V30 16473 C 1538.91 -4.33054 3.8838 0
M  V30 16474 N 1537.89 -4.42087 3.16322 0
M  V30 16475 H 1541.69 -2.1016 2.0545 0
M  V30 16476 H 1539.2 -1.08871 1.20503 0
M  V30 16477 H 1541.2 -4.11962 0.639765 0
M  V30 16478 H 1539.86 -3.24372 -0.14585 0
M  V30 16479 H 1540.87 -3.8103 3.50766 0
M  V30 16480 H 1537.55 -4.06783 0.939877 0
M  V30 16481 H 1538.94 -4.53912 4.95393 0
M  V30 16482 N 1541.66 -1.11854 -1.11024 0
M  V30 16483 C 1542.59 -0.803129 -2.19253 0
M  V30 16484 C 1543.57 0.230417 -1.68532 0
M  V30 16485 O 1544.75 0.0929421 -1.93977 0
M  V30 16486 C 1541.88 -0.250265 -3.46397 0
M  V30 16487 C 1540.84 -1.21617 -4.10357 0
M  V30 16488 C 1540.16 -0.523821 -5.32128 0
M  V30 16489 C 1541.46 -2.56852 -4.54779 0
M  V30 16490 H 1543.16 -1.7081 -2.45895 0
M  V30 16491 H 1540.7 -0.822712 -1.18184 0
M  V30 16492 H 1542.66 -0.0173732 -4.21396 0
M  V30 16493 H 1541.38 0.690018 -3.19228 0
M  V30 16494 H 1540.04 -1.43477 -3.37357 0
M  V30 16495 H 1539.69 0.421408 -5.01232 0
M  V30 16496 H 1539.39 -1.16809 -5.75873 0
M  V30 16497 H 1540.91 -0.299823 -6.09863 0
M  V30 16498 H 1542.33 -2.39056 -5.21081 0
M  V30 16499 H 1540.72 -3.17301 -5.09353 0
M  V30 16500 H 1541.79 -3.15751 -3.68007 0
M  V30 16501 N 1543.14 1.28707 -0.909517 0
M  V30 16502 C 1544.38 1.95443 -0.541281 0
M  V30 16503 C 1544.72 1.71457 0.911934 0
M  V30 16504 O 1543.99 1.03312 1.64794 0
M  V30 16505 C 1544.27 3.50019 -0.846097 0
M  V30 16506 C 1544.13 3.83423 -2.35173 0
M  V30 16507 C 1545.45 4.3879 -0.339328 0
M  V30 16508 H 1542.56 0.709869 -0.198128 0
M  V30 16509 H 1545.21 1.52151 -1.13799 0
M  V30 16510 H 1543.36 3.87025 -0.338262 0
M  V30 16511 H 1545.03 3.5631 -2.92986 0
M  V30 16512 H 1543.27 3.30618 -2.80846 0
M  V30 16513 H 1543.94 4.91348 -2.51557 0
M  V30 16514 H 1546.42 4.08832 -0.774312 0
M  V30 16515 H 1545.29 5.45809 -0.581722 0
M  V30 16516 H 1545.56 4.35514 0.760244 0
M  V30 16517 N 1544.61 0.673042 1.42506 0
M  V30 16518 C 1545.54 0.00755467 2.33499 0
M  V30 16519 C 1546.53 -0.791161 1.50581 0
M  V30 16520 O 1547.71 -0.748668 1.79189 0
M  V30 16521 C 1544.84 -0.945638 3.34178 0
M  V30 16522 C 1543.79 -0.25564 4.27236 0
M  V30 16523 C 1543.12 -1.32165 5.18109 0
M  V30 16524 C 1544.42 0.864254 5.151 0
M  V30 16525 H 1546.11 0.767487 2.89396 0
M  V30 16526 H 1543.66 0.370524 1.39151 0
M  V30 16527 H 1545.61 -1.42026 3.96745 0
M  V30 16528 H 1544.34 -1.73697 2.76581 0
M  V30 16529 H 1543 0.19873 3.66061 0
M  V30 16530 H 1542.64 -2.10492 4.56839 0
M  V30 16531 H 1542.34 -0.865109 5.81197 0
M  V30 16532 H 1543.87 -1.79724 5.83551 0
M  V30 16533 H 1545.28 0.470924 5.71363 0
M  V30 16534 H 1543.68 1.24648 5.87012 0
M  V30 16535 H 1544.75 1.71378 4.53605 0
M  V30 16536 N 1546.09 -1.52004 0.416254 0
M  V30 16537 C 1547.5 -1.86628 -0.0517247 0
M  V30 16538 C 1547.85 -1.33463 -1.43813 0
M  V30 16539 O 1546.98 -0.676793 -2.05544 0
M  V30 16540 C 1547.57 -3.38651 -0.100637 0
M  V30 16541 C 1546.13 -3.72888 -0.512969 0
M  V30 16542 C 1545.28 -2.75584 0.307975 0
M  V30 16543 H 1548.23 -1.45529 0.633018 0
M  V30 16544 H 1548.25 -3.69348 -0.914465 0
M  V30 16545 H 1547.76 -3.77316 0.908538 0
M  V30 16546 H 1545.87 -3.39804 -1.52852 0
M  V30 16547 H 1545.98 -4.78435 -0.252408 0
M  V30 16548 H 1544.34 -2.53653 -0.230717 0
M  V30 16549 H 1545.13 -3.1709 1.31563 0
M  V30 16550 N 1547.57 -0.146903 -1.56914 0
M  V30 16551 C 1548.8 0.514426 -2.00919 0
M  V30 16552 C 1549.22 1.57632 -1.02634 0
M  V30 16553 O 1548.58 1.813 -0.00207478 0
M  V30 16554 C 1548.63 1.09197 -3.43669 0
M  V30 16555 O 1547.73 2.20684 -3.48385 0
M  V30 16556 H 1547.07 0.125827 -0.651969 0
M  V30 16557 H 1549.6 -0.243607 -2.03145 0
M  V30 16558 H 1549.61 1.42066 -3.82467 0
M  V30 16559 H 1548.29 0.314336 -4.1471 0
M  V30 16560 H 1546.86 1.89045 -3.21429 0
M  V30 16561 N 1549.05 1.57088 0.126881 0
M  V30 16562 C 1550.46 1.52205 0.480175 0
M  V30 16563 C 1550.66 0.858634 1.8229 0
M  V30 16564 O 1549.72 0.437636 2.48679 0
M  V30 16565 C 1551.03 2.96974 0.471931 0
M  V30 16566 C 1552.58 3.08021 0.556037 0
M  V30 16567 C 1553.06 4.54335 0.57826 0
M  V30 16568 N 1554.55 4.58758 0.639922 0
M  V30 16569 C 1555.28 5.69372 0.678434 0
M  V30 16570 N 1554.78 6.89503 0.67507 0
M  V30 16571 N 1556.57 5.57459 0.720845 0
M  V30 16572 H 1548.72 1.98604 -0.753008 0
M  V30 16573 H 1550.99 0.90666 -0.276895 0
M  V30 16574 H 1550.69 3.48849 -0.44687 0
M  V30 16575 H 1550.57 3.53994 1.3026 0
M  V30 16576 H 1552.95 2.56153 1.46526 0
M  V30 16577 H 1553.03 2.54009 -0.302171 0
M  V30 16578 H 1552.68 5.06847 -0.326884 0
M  V30 16579 H 1552.61 5.06151 1.45324 0
M  V30 16580 H 1555.1 3.72285 0.649005 0
M  V30 16581 H 1555.41 7.6956 0.706862 0
M  V30 16582 H 1553.76 6.92023 0.64262 0
M  V30 16583 H 1556.95 4.62517 0.720783 0
M  V30 16584 H 1557.12 6.43675 0.747392 0
M  V30 16585 N 1550.53 -0.396836 1.52522 0
M  V30 16586 C 1551.75 -1.16857 1.71345 0
M  V30 16587 C 1552.18 -1.83178 0.427465 0
M  V30 16588 O 1551.53 -1.7051 -0.616123 0
M  V30 16589 C 1551.58 -2.19817 2.85855 0
M  V30 16590 O 1550.69 -3.26233 2.52281 0
M  V30 16591 H 1550.03 -0.340554 0.570017 0
M  V30 16592 H 1552.56 -0.463532 1.9928 0
M  V30 16593 H 1552.57 -2.63944 3.11123 0
M  V30 16594 H 1551.24 -1.70931 3.79151 0
M  V30 16595 H 1549.82 -2.87299 2.37726 0
M  V30 16596 N 1552.01 -1.43353 -0.654814 0
M  V30 16597 C 1552.92 -1.50831 -1.79687 0
M  V30 16598 C 1553.93 -0.395518 -1.69445 0
M  V30 16599 O 1555.11 -0.649408 -1.90643 0
M  V30 16600 C 1552.17 -1.42735 -3.15955 0
M  V30 16601 C 1551.23 -2.64671 -3.38005 0
M  V30 16602 C 1550.47 -2.56952 -4.67773 0
M  V30 16603 O 1550.69 -1.61638 -5.47019 0
M  V30 16604 O 1549.62 -3.47425 -4.91507 0
M  V30 16605 H 1553.45 -2.47266 -1.76333 0
M  V30 16606 H 1551.03 -1.25336 -0.813095 0
M  V30 16607 H 1552.92 -1.40656 -3.97233 0
M  V30 16608 H 1551.59 -0.494334 -3.19903 0
M  V30 16609 H 1550.5 -2.72323 -2.56498 0
M  V30 16610 H 1551.83 -3.5694 -3.38903 0
M  V30 16611 N 1553.48 0.89303 -1.29857 0
M  V30 16612 C 1554.39 2.03079 -1.17457 0
M  V30 16613 C 1555.41 1.73733 -0.0962941 0
M  V30 16614 O 1556.59 1.99005 -0.309667 0
M  V30 16615 C 1553.65 3.3589 -0.858991 0
M  V30 16616 C 1552.71 3.78711 -2.0218 0
M  V30 16617 C 1551.94 5.05184 -1.72118 0
M  V30 16618 O 1552.17 5.66738 -0.645276 0
M  V30 16619 O 1551.1 5.44218 -2.57119 0
M  V30 16620 H 1554.93 2.16465 -2.13017 0
M  V30 16621 H 1552.51 1.01774 -1.09373 0
M  V30 16622 H 1554.39 4.15582 -0.697852 0
M  V30 16623 H 1553.07 3.23631 0.0667756 0
M  V30 16624 H 1551.98 2.99758 -2.23822 0
M  V30 16625 H 1553.31 3.95563 -2.929 0
M  V30 16626 N 1554.96 1.12442 1.10429 0
M  V30 16627 C 1556.21 0.878021 1.82031 0
M  V30 16628 C 1556.53 -0.597787 1.85611 0
M  V30 16629 O 1555.8 -1.43442 1.33422 0
M  V30 16630 H 1554.38 0.321839 0.674113 0
M  V30 16631 H 1557.04 1.41891 1.33615 0
M  V30 16632 H 1556.14 1.25957 2.85554 0
M  V30 16633 N 1556.44 -1.28223 0.91633 0
M  V30 16634 C 1557.66 -1.99523 0.566147 0
M  V30 16635 C 1558.09 -1.68 -0.846034 0
M  V30 16636 O 1557.45 -0.913838 -1.56584 0
M  V30 16637 C 1557.5 -3.51949 0.785114 0
M  V30 16638 O 1556.6 -4.1211 -0.154686 0
M  V30 16639 H 1555.94 -0.626764 0.219232 0
M  V30 16640 H 1558.47 -1.63313 1.23247 0
M  V30 16641 H 1558.48 -4.02016 0.696224 0
M  V30 16642 H 1557.16 -3.74227 1.81457 0
M  V30 16643 H 1555.73 -3.72896 -0.0168463 0
M  V30 16644 N 1557.92 -0.68059 -1.42147 0
M  V30 16645 C 1559.16 -0.205263 -2.01457 0
M  V30 16646 C 1559.49 1.19015 -1.53837 0
M  V30 16647 O 1558.75 1.81423 -0.733763 0
M  V30 16648 C 1559.05 -0.194825 -3.56869 0
M  V30 16649 C 1558.71 -1.5357 -4.23942 0
M  V30 16650 C 1557.37 -1.90282 -4.4198 0
M  V30 16651 C 1559.73 -2.41852 -4.61689 0
M  V30 16652 C 1557.05 -3.14891 -4.95036 0
M  V30 16653 C 1559.41 -3.65779 -5.16129 0
M  V30 16654 C 1558.07 -4.02653 -5.32379 0
M  V30 16655 H 1557.34 -0.0751109 -0.737183 0
M  V30 16656 H 1559.99 -0.87672 -1.70252 0
M  V30 16657 H 1558.29 0.560155 -3.87775 0
M  V30 16658 H 1559.99 0.190248 -4.00548 0
M  V30 16659 H 1556.58 -1.24012 -4.10267 0
M  V30 16660 H 1560.76 -2.14773 -4.47422 0
M  V30 16661 H 1556.02 -3.43474 -5.05802 0
M  V30 16662 H 1560.19 -4.34384 -5.4432 0
M  V30 16663 H 1557.82 -4.99283 -5.73254 0
M  V30 16664 N 1559.4 1.51781 -0.424309 0
M  V30 16665 C 1560.62 2.06871 0.147968 0
M  V30 16666 C 1561.05 1.29093 1.36808 0
M  V30 16667 O 1560.4 0.325279 1.78358 0
M  V30 16668 C 1560.45 3.57631 0.461757 0
M  V30 16669 O 1559.56 3.82149 1.55035 0
M  V30 16670 H 1558.9 0.663957 0.00757275 0
M  V30 16671 H 1561.43 1.95547 -0.601888 0
M  V30 16672 H 1561.44 4.01668 0.716005 0
M  V30 16673 H 1560.11 4.1367 -0.430081 0
M  V30 16674 H 1558.69 3.49984 1.28709 0
M  V30 16675 N 1560.87 0.155222 1.56834 0
M  V30 16676 C 1561.81 -0.812448 2.14317 0
M  V30 16677 C 1562.82 -1.20502 1.09467 0
M  V30 16678 O 1564.01 -1.14767 1.36714 0
M  V30 16679 C 1561.11 -2.10279 2.65774 0
M  V30 16680 C 1560.28 -1.8763 3.95112 0
M  V30 16681 C 1559.34 -3.0073 4.31796 0
M  V30 16682 O 1558.37 -2.72064 4.9997 0
M  V30 16683 N 1559.57 -4.28114 3.92044 0
M  V30 16684 H 1562.33 -0.321106 2.97975 0
M  V30 16685 H 1559.89 -0.0280861 1.61876 0
M  V30 16686 H 1561.89 -2.85005 2.87323 0
M  V30 16687 H 1560.46 -2.50652 1.86796 0
M  V30 16688 H 1559.68 -0.968958 3.82106 0
M  V30 16689 H 1560.96 -1.69845 4.79614 0
M  V30 16690 H 1560.36 -4.54269 3.37129 0
M  V30 16691 H 1558.92 -4.99594 4.18627 0
M  V30 16692 N 1562.35 -1.57153 -0.118549 0
M  V30 16693 C 1563.6 -1.84511 -0.824623 0
M  V30 16694 C 1563.92 -0.740473 -1.80394 0
M  V30 16695 O 1563.19 0.235481 -1.9448 0
M  V30 16696 H 1561.77 -0.680764 -0.307522 0
M  V30 16697 H 1564.43 -1.94613 -0.105764 0
M  V30 16698 H 1563.53 -2.80444 -1.36958 0
M  V30 16699 N 1563.83 0.388742 -1.5273 0
M  V30 16700 C 1565.06 1.15495 -1.71664 0
M  V30 16701 C 1565.47 1.83717 -0.435127 0
M  V30 16702 O 1564.83 1.72686 0.590411 0
M  V30 16703 C 1564.88 2.20279 -2.86635 0
M  V30 16704 O 1564.6 1.54838 -4.09825 0
M  V30 16705 C 1566.1 3.09625 -3.1725 0
M  V30 16706 H 1563.32 0.346271 -0.57475 0
M  V30 16707 H 1565.87 0.454729 -1.9938 0
M  V30 16708 H 1564.02 2.85936 -2.61379 0
M  V30 16709 H 1564.44 2.24466 -4.74042 0
M  V30 16710 H 1565.91 3.79177 -4.01159 0
M  V30 16711 H 1566.39 3.73147 -2.31643 0
M  V30 16712 H 1566.99 2.49612 -3.44345 0
M  V30 16713 N 1565.31 1.43698 0.647203 0
M  V30 16714 C 1566.55 1.45849 1.40911 0
M  V30 16715 C 1566.89 0.0846767 1.94015 0
M  V30 16716 O 1566.16 -0.89537 1.72665 0
M  V30 16717 C 1566.44 2.50579 2.58616 0
M  V30 16718 C 1566.3 3.97258 2.10965 0
M  V30 16719 C 1567.62 2.51981 3.60824 0
M  V30 16720 H 1564.74 0.531056 0.511027 0
M  V30 16721 H 1567.38 1.75283 0.733204 0
M  V30 16722 H 1565.53 2.25611 3.16278 0
M  V30 16723 H 1567.2 4.33304 1.58257 0
M  V30 16724 H 1565.44 4.09802 1.42284 0
M  V30 16725 H 1566.11 4.6616 2.95633 0
M  V30 16726 H 1568.59 2.7425 3.12932 0
M  V30 16727 H 1567.47 3.27191 4.40723 0
M  V30 16728 H 1567.73 1.55582 4.1382 0
M  V30 16729 N 1566.79 -0.886131 1.30328 0
M  V30 16730 C 1568.01 -1.67625 1.22134 0
M  V30 16731 C 1568.44 -1.86893 -0.212712 0
M  V30 16732 O 1567.79 -1.39905 -1.1531 0
M  V30 16733 C 1567.84 -3.03068 1.95402 0
M  V30 16734 O 1566.95 -3.92022 1.28032 0
M  V30 16735 H 1566.29 -0.512246 0.422493 0
M  V30 16736 H 1568.82 -1.10602 1.72129 0
M  V30 16737 H 1568.83 -3.53119 2.04379 0
M  V30 16738 H 1567.5 -2.88363 2.99699 0
M  V30 16739 H 1566.08 -3.50461 1.27402 0
M  V30 16740 N 1568.26 -1.13026 -1.09832 0
M  V30 16741 C 1569.49 -0.912803 -1.86233 0
M  V30 16742 C 1569.91 0.532955 -1.80392 0
M  V30 16743 O 1569.27 1.37783 -1.17837 0
M  V30 16744 C 1569.32 -1.40002 -3.32313 0
M  V30 16745 O 1568.42 -0.582537 -4.08265 0
M  V30 16746 H 1567.77 -0.327464 -0.577636 0
M  V30 16747 H 1570.3 -1.5039 -1.38723 0
M  V30 16748 H 1570.31 -1.40182 -3.83162 0
M  V30 16749 H 1568.98 -2.4527 -3.3588 0
M  V30 16750 H 1567.56 -0.648255 -3.67222 0
M  V30 16751 N 1569.74 1.27735 -0.923117 0
M  V30 16752 C 1570.99 1.9457 -0.561149 0
M  V30 16753 C 1571.32 1.72591 0.896805 0
M  V30 16754 O 1570.57 1.04546 1.65434 0
M  V30 16755 C 1570.87 3.47677 -0.827959 0
M  V30 16756 C 1570.54 3.8977 -2.26693 0
M  V30 16757 C 1569.2 4.00973 -2.66033 0
M  V30 16758 C 1571.55 4.11173 -3.20291 0
M  V30 16759 C 1568.88 4.30963 -3.98105 0
M  V30 16760 C 1571.23 4.42645 -4.51938 0
M  V30 16761 C 1569.9 4.52061 -4.91119 0
M  V30 16762 H 1569.17 0.711981 -0.205339 0
M  V30 16763 H 1571.81 1.51894 -1.16621 0
M  V30 16764 H 1570.12 3.91549 -0.140178 0
M  V30 16765 H 1571.81 3.97523 -0.526932 0
M  V30 16766 H 1568.4 3.81584 -1.95171 0
M  V30 16767 H 1572.59 4.01962 -2.91102 0
M  V30 16768 H 1567.84 4.36461 -4.28149 0
M  V30 16769 H 1572.02 4.58153 -5.2447 0
M  V30 16770 H 1569.65 4.75053 -5.93488 0
M  V30 16771 N 1571.22 0.688118 1.41784 0
M  V30 16772 C 1572.45 0.223231 2.06195 0
M  V30 16773 C 1572.87 -1.11601 1.51416 0
M  V30 16774 O 1572.23 -1.69701 0.638059 0
M  V30 16775 C 1572.28 0.183257 3.60134 0
M  V30 16776 O 1571.38 -0.844186 4.03667 0
M  V30 16777 H 1570.72 0.110925 0.654669 0
M  V30 16778 H 1573.25 0.940882 1.81683 0
M  V30 16779 H 1573.26 0.0115951 4.07998 0
M  V30 16780 H 1571.94 1.16072 3.99375 0
M  V30 16781 H 1570.51 -0.642484 3.67323 0
M  V30 16782 N 1572.7 -1.51554 0.432352 0
M  V30 16783 C 1573.63 -2.30514 -0.372243 0
M  V30 16784 C 1574.61 -1.35712 -1.02549 0
M  V30 16785 O 1575.79 -1.6463 -1.03009 0
M  V30 16786 C 1572.92 -3.14353 -1.47646 0
M  V30 16787 C 1571.88 -4.17392 -0.946974 0
M  V30 16788 C 1571.2 -4.89721 -2.14656 0
M  V30 16789 C 1572.5 -5.22298 0.0151377 0
M  V30 16790 H 1574.2 -2.98024 0.28668 0
M  V30 16791 H 1571.74 -1.43325 0.139315 0
M  V30 16792 H 1573.7 -3.68369 -2.04651 0
M  V30 16793 H 1572.42 -2.44654 -2.1636 0
M  V30 16794 H 1571.08 -3.6442 -0.399174 0
M  V30 16795 H 1570.73 -4.1653 -2.81978 0
M  V30 16796 H 1570.43 -5.59393 -1.79869 0
M  V30 16797 H 1571.95 -5.46559 -2.72224 0
M  V30 16798 H 1573.37 -5.71416 -0.464447 0
M  V30 16799 H 1571.76 -5.99468 0.275339 0
M  V30 16800 H 1572.83 -4.75436 0.953357 0
M  V30 16801 N 1574.18 -0.163538 -1.56749 0
M  V30 16802 C 1575.09 0.782461 -2.21167 0
M  V30 16803 C 1576.1 1.25911 -1.20093 0
M  V30 16804 O 1577.28 1.31286 -1.52728 0
M  V30 16805 C 1574.34 1.99761 -2.83366 0
M  V30 16806 C 1573.4 1.56859 -3.99617 0
M  V30 16807 C 1572.64 2.72582 -4.58841 0
M  V30 16808 O 1572.86 3.89243 -4.16949 0
M  V30 16809 O 1571.79 2.47104 -5.48838 0
M  V30 16810 H 1575.62 0.264023 -3.0255 0
M  V30 16811 H 1573.21 0.06429 -1.49262 0
M  V30 16812 H 1575.09 2.70843 -3.22835 0
M  V30 16813 H 1573.76 2.50526 -2.04984 0
M  V30 16814 H 1572.67 0.827511 -3.64833 0
M  V30 16815 H 1574 1.10794 -4.79568 0
M  V30 16816 N 1575.65 1.57214 0.110213 0
M  V30 16817 C 1576.6 2.01971 1.1537 0
M  V30 16818 C 1577.6 0.918137 1.42361 0
M  V30 16819 O 1578.8 1.10334 1.4222 0
M  V30 16820 H 1575.18 0.64345 0.3892 0
M  V30 16821 H 1577.15 2.88827 0.749781 0
M  V30 16822 C 1575.9 2.4473 2.46987 0
M  V30 16823 H 1575.22 3.29066 2.27059 0
M  V30 16824 H 1576.66 2.79836 3.1854 0
M  V30 16825 C 1575.12 1.31445 3.10199 0
M  V30 16826 O 1575.65 0.635251 3.96645 0
M  V30 16827 N 1573.86 1.06927 2.70213 0
M  V30 16828 H 1573.4 1.62339 2.0001 0
M  V30 16829 H 1573.36 0.313273 3.12835 0
M  V30 16830 N 1577.13 -0.380637 1.52934 0
M  V30 16831 C 1578.06 -1.47174 1.81279 0
M  V30 16832 C 1579.04 -1.56549 0.665319 0
M  V30 16833 O 1580.23 -1.71362 0.913722 0
M  V30 16834 C 1577.36 -2.84691 1.98918 0
M  V30 16835 C 1576.31 -2.90151 3.14637 0
M  V30 16836 C 1575.64 -4.30198 3.17544 0
M  V30 16837 C 1576.94 -2.59037 4.53539 0
M  V30 16838 H 1578.63 -1.23703 2.7265 0
M  V30 16839 H 1576.18 -0.593654 1.31194 0
M  V30 16840 H 1578.13 -3.61034 2.1733 0
M  V30 16841 H 1576.86 -3.09517 1.04244 0
M  V30 16842 H 1575.51 -2.16257 2.96021 0
M  V30 16843 H 1575.16 -4.52076 2.20536 0
M  V30 16844 H 1574.86 -4.3477 3.95284 0
M  V30 16845 H 1576.39 -5.08435 3.38121 0
M  V30 16846 H 1577.8 -3.25096 4.72214 0
M  V30 16847 H 1576.2 -2.74946 5.33408 0
M  V30 16848 H 1577.27 -1.54342 4.59681 0
M  V30 16849 N 1578.61 -1.44039 -0.639573 0
M  V30 16850 C 1580.02 -1.41236 -1.22104 0
M  V30 16851 C 1580.37 -0.123367 -1.95812 0
M  V30 16852 O 1579.5 0.776641 -2.01983 0
M  V30 16853 C 1580.09 -2.55853 -2.22092 0
M  V30 16854 C 1578.65 -2.56271 -2.75685 0
M  V30 16855 C 1577.8 -2.32877 -1.50544 0
M  V30 16856 H 1580.75 -1.52742 -0.430756 0
M  V30 16857 H 1580.77 -2.28123 -3.04533 0
M  V30 16858 H 1580.28 -3.49653 -1.68417 0
M  V30 16859 H 1578.38 -1.66389 -3.33385 0
M  V30 16860 H 1578.5 -3.54486 -3.22299 0
M  V30 16861 H 1576.86 -1.81807 -1.78377 0
M  V30 16862 H 1577.64 -3.2878 -0.987845 0
M  V30 16863 N 1580.09 0.879207 -1.30796 0
M  V30 16864 C 1581.34 1.62828 -1.19715 0
M  V30 16865 C 1581.66 1.93429 0.247031 0
M  V30 16866 O 1580.93 1.57478 1.16522 0
M  V30 16867 H 1579.51 0.603607 -0.440077 0
M  V30 16868 H 1582.17 1.05309 -1.64 0
M  V30 16869 H 1581.27 2.57591 -1.76219 0
M  V30 16870 N 1581.57 1.13606 1.09231 0
M  V30 16871 C 1582.79 0.922667 1.85746 0
M  V30 16872 C 1583.22 -0.523381 1.80672 0
M  V30 16873 O 1582.58 -1.37156 1.18566 0
M  V30 16874 C 1582.62 1.41762 3.31566 0
M  V30 16875 O 1581.73 0.60418 4.0795 0
M  V30 16876 H 1581.07 0.330523 0.575891 0
M  V30 16877 H 1583.6 1.51123 1.37924 0
M  V30 16878 H 1583.61 1.42212 3.82413 0
M  V30 16879 H 1582.28 2.47048 3.34574 0
M  V30 16880 H 1580.86 0.667721 3.66873 0
M  V30 16881 N 1583.05 -1.27244 0.929878 0
M  V30 16882 C 1584.29 -1.94902 0.5818 0
M  V30 16883 C 1584.65 -1.71719 -0.867768 0
M  V30 16884 O 1583.94 -1.03697 -1.61113 0
M  V30 16885 C 1584.13 -3.47233 0.846386 0
M  V30 16886 C 1583.96 -3.85228 2.32012 0
M  V30 16887 C 1582.73 -4.08567 2.97323 0
M  V30 16888 C 1584.93 -3.94651 3.2978 0
M  V30 16889 N 1582.91 -4.33358 4.34826 0
M  V30 16890 C 1584.28 -4.23843 4.52501 0
M  V30 16891 C 1586.34 -3.77235 3.24959 0
M  V30 16892 C 1585.04 -4.37431 5.71005 0
M  V30 16893 C 1587.07 -3.92049 4.42777 0
M  V30 16894 C 1586.43 -4.21629 5.64277 0
M  V30 16895 H 1582.53 -0.736425 0.263063 0
M  V30 16896 H 1585.11 -1.53562 1.19695 0
M  V30 16897 H 1583.28 -3.87526 0.260378 0
M  V30 16898 H 1585.02 -4.02069 0.460717 0
M  V30 16899 H 1581.77 -4.03486 2.47984 0
M  V30 16900 H 1582.19 -4.49807 5.05967 0
M  V30 16901 H 1586.84 -3.53404 2.32089 0
M  V30 16902 H 1584.55 -4.60087 6.64339 0
M  V30 16903 H 1588.14 -3.7999 4.40567 0
M  V30 16904 H 1587.02 -4.32843 6.53924 0
M  V30 16905 N 1584.52 -0.695628 -1.41417 0
M  V30 16906 C 1585.47 -0.0189456 -2.32592 0
M  V30 16907 C 1586.47 0.76848 -1.50966 0
M  V30 16908 O 1587.67 0.674096 -1.66901 0
M  V30 16909 H 1584.05 0.0126742 -0.751893 0
M  V30 16910 H 1586.02 -0.804968 -2.87337 0
M  V30 16911 C 1584.77 0.903458 -3.35757 0
M  V30 16912 H 1584.09 0.306963 -3.9862 0
M  V30 16913 H 1585.53 1.34525 -4.02093 0
M  V30 16914 C 1583.99 2.01966 -2.69651 0
M  V30 16915 O 1584.52 3.10845 -2.54438 0
M  V30 16916 N 1582.72 1.79741 -2.28345 0
M  V30 16917 H 1582.27 0.911929 -2.40918 0
M  V30 16918 H 1582.23 2.54609 -1.84449 0
M  V30 16919 N 1586 1.51322 -0.440383 0
M  V30 16920 C 1586.93 2.25587 0.40537 0
M  V30 16921 C 1587.95 1.29721 0.983686 0
M  V30 16922 O 1589.14 1.55453 0.877308 0
M  V30 16923 C 1586.24 2.99848 1.57938 0
M  V30 16924 C 1585.41 4.22834 1.11939 0
M  V30 16925 C 1584.47 4.79649 2.16387 0
M  V30 16926 O 1583.49 5.41405 1.75697 0
M  V30 16927 N 1584.7 4.63948 3.48902 0
M  V30 16928 H 1587.46 2.98807 -0.231143 0
M  V30 16929 H 1585.02 1.59642 -0.26944 0
M  V30 16930 H 1587.01 3.34743 2.2744 0
M  V30 16931 H 1585.58 2.29619 2.12117 0
M  V30 16932 H 1584.8 3.93398 0.251323 0
M  V30 16933 H 1586.09 5.02637 0.7895 0
M  V30 16934 H 1585.49 4.14764 3.84691 0
M  V30 16935 H 1584.05 5.03196 4.14291 0
M  V30 16936 N 1587.48 0.171848 1.5666 0
M  V30 16937 C 1588.39 -0.770721 2.21579 0
M  V30 16938 C 1589.41 -1.25273 1.20759 0
M  V30 16939 O 1590.58 -1.30474 1.53422 0
M  V30 16940 C 1587.65 -1.98256 2.84422 0
M  V30 16941 C 1586.71 -1.54738 4.00443 0
M  V30 16942 C 1585.94 -2.70145 4.6028 0
M  V30 16943 O 1586.16 -3.87026 4.19007 0
M  V30 16944 O 1585.1 -2.44189 5.50141 0
M  V30 16945 H 1588.92 -0.247974 3.02686 0
M  V30 16946 H 1586.51 -0.0563734 1.49294 0
M  V30 16947 H 1588.39 -2.69127 3.24266 0
M  V30 16948 H 1587.07 -2.49435 2.0631 0
M  V30 16949 H 1585.97 -0.808152 3.65267 0
M  V30 16950 H 1587.31 -1.08249 4.80149 0
M  V30 16951 N 1588.96 -1.5727 -0.101874 0
M  V30 16952 C 1590.21 -1.85375 -0.805007 0
M  V30 16953 C 1590.53 -0.759564 -1.79599 0
M  V30 16954 O 1589.8 0.21484 -1.94718 0
M  V30 16955 H 1588.38 -0.683987 -0.300284 0
M  V30 16956 H 1591.04 -1.94714 -0.0851166 0
M  V30 16957 H 1590.13 -2.81881 -1.33976 0
M  V30 16958 N 1590.44 0.372521 -1.53134 0
M  V30 16959 C 1591.37 1.47817 -1.73855 0
M  V30 16960 C 1592.35 1.51645 -0.586723 0
M  V30 16961 O 1593.53 1.69803 -0.818496 0
M  V30 16962 C 1590.66 2.86213 -1.81107 0
M  V30 16963 C 1589.7 3.00139 -3.03016 0
M  V30 16964 S 1590.54 2.69617 -4.62674 0
M  V30 16965 C 1591.69 4.10176 -4.72765 0
M  V30 16966 H 1591.93 1.30019 -2.67362 0
M  V30 16967 H 1589.46 0.566429 -1.43635 0
M  V30 16968 H 1591.42 3.65958 -1.85971 0
M  V30 16969 H 1590.08 3.01326 -0.886632 0
M  V30 16970 H 1589.27 4.0148 -3.0468 0
M  V30 16971 H 1588.87 2.28309 -2.96228 0
M  V30 16972 H 1591.16 5.04328 -4.52393 0
M  V30 16973 H 1592.11 4.1352 -5.7481 0
M  V30 16974 H 1592.52 3.96853 -4.01458 0
M  V30 16975 N 1591.91 1.44376 0.631925 0
M  V30 16976 C 1592.88 1.50825 1.72582 0
M  V30 16977 C 1593.88 0.390379 1.55989 0
M  V30 16978 O 1595.07 0.65297 1.61499 0
M  V30 16979 C 1592.2 1.38141 3.11657 0
M  V30 16980 H 1593.39 2.48265 1.68239 0
M  V30 16981 H 1590.94 1.31456 0.845514 0
M  V30 16982 H 1591.68 0.417905 3.21596 0
M  V30 16983 H 1591.46 2.19198 3.25107 0
M  V30 16984 H 1592.95 1.45633 3.91383 0
M  V30 16985 N 1593.39 -0.872258 1.31261 0
M  V30 16986 C 1594.62 -1.6632 1.23905 0
M  V30 16987 C 1595.04 -1.87109 -0.192878 0
M  V30 16988 O 1594.4 -1.4112 -1.1382 0
M  V30 16989 C 1594.45 -3.00979 1.98606 0
M  V30 16990 O 1593.55 -3.90642 1.32183 0
M  V30 16991 H 1592.89 -0.507736 0.427902 0
M  V30 16992 H 1595.42 -1.0877 1.73292 0
M  V30 16993 H 1595.43 -3.50931 2.08113 0
M  V30 16994 H 1594.11 -2.85168 3.02741 0
M  V30 16995 H 1592.68 -3.4909 1.31112 0
M  V30 16996 N 1594.87 -1.14184 -1.08627 0
M  V30 16997 C 1595.83 -0.82954 -2.13662 0
M  V30 16998 C 1596.83 0.164794 -1.59953 0
M  V30 16999 O 1598.02 -0.0632831 -1.74085 0
M  V30 17000 C 1595.15 -0.236176 -3.40081 0
M  V30 17001 H 1596.35 -1.76038 -2.42797 0
M  V30 17002 H 1593.9 -0.947568 -1.24301 0
M  V30 17003 H 1594.64 0.70349 -3.16578 0
M  V30 17004 H 1594.42 -0.952341 -3.80359 0
M  V30 17005 H 1595.91 -0.03481 -4.17585 0
M  V30 17006 N 1596.35 1.26749 -0.936613 0
M  V30 17007 C 1597.57 1.98597 -0.597817 0
M  V30 17008 C 1598 1.69324 0.8192 0
M  V30 17009 O 1597.36 0.938634 1.55111 0
M  V30 17010 C 1597.4 3.50656 -0.841007 0
M  V30 17011 O 1596.51 4.12304 0.0891038 0
M  V30 17012 H 1595.85 0.623197 -0.229176 0
M  V30 17013 H 1598.38 1.61332 -1.2583 0
M  V30 17014 H 1598.39 4.00857 -0.760093 0
M  V30 17015 H 1597.06 3.71293 -1.87388 0
M  V30 17016 H 1595.64 3.72876 -0.0424804 0
M  V30 17017 N 1597.83 0.703118 1.41046 0
M  V30 17018 C 1599.05 0.246552 2.05426 0
M  V30 17019 C 1599.47 -1.10704 1.52938 0
M  V30 17020 O 1598.83 -1.69329 0.680733 0
M  V30 17021 C 1598.88 0.203953 3.60924 0
M  V30 17022 O 1598.6 1.50408 4.11472 0
M  V30 17023 C 1600.1 -0.272686 4.42461 0
M  V30 17024 H 1597.32 0.113157 0.66139 0
M  V30 17025 H 1599.86 0.957823 1.80682 0
M  V30 17026 H 1598.02 -0.458194 3.84681 0
M  V30 17027 H 1598.43 1.39622 5.05575 0
M  V30 17028 H 1599.91 -0.251357 5.51427 0
M  V30 17029 H 1600.38 -1.31282 4.1912 0
M  V30 17030 H 1600.99 0.358733 4.23784 0
M  V30 17031 N 1599.3 -1.51086 0.448402 0
M  V30 17032 C 1600.25 -2.28015 -0.357438 0
M  V30 17033 C 1601.22 -1.32079 -1.00719 0
M  V30 17034 O 1602.41 -1.60995 -1.02398 0
M  V30 17035 C 1599.55 -3.13324 -1.44644 0
M  V30 17036 C 1598.66 -4.24267 -0.813729 0
M  V30 17037 C 1597.79 -4.96868 -1.87871 0
M  V30 17038 C 1596.83 -5.99716 -1.22502 0
M  V30 17039 N 1595.97 -6.65682 -2.23185 0
M  V30 17040 H 1600.81 -2.96436 0.30493 0
M  V30 17041 H 1598.35 -1.46203 0.162222 0
M  V30 17042 H 1600.31 -3.61119 -2.08924 0
M  V30 17043 H 1598.94 -2.46996 -2.07829 0
M  V30 17044 H 1597.99 -3.80354 -0.0589414 0
M  V30 17045 H 1599.3 -4.97917 -0.296587 0
M  V30 17046 H 1598.45 -5.48266 -2.59786 0
M  V30 17047 H 1597.19 -4.22873 -2.42961 0
M  V30 17048 H 1596.2 -5.476 -0.491388 0
M  V30 17049 H 1597.42 -6.75674 -0.681315 0
M  V30 17050 H 1595.37 -5.94493 -2.77334 0
M  V30 17051 H 1595.29 -7.35134 -1.76393 0
M  V30 17052 H 1596.55 -7.21707 -2.9455 0
M  V30 17053 N 1600.78 -0.180154 -1.56567 0
M  V30 17054 C 1602.19 0.335054 -1.83669 0
M  V30 17055 C 1602.54 1.62443 -1.1003 0
M  V30 17056 O 1601.67 2.13448 -0.356205 0
M  V30 17057 C 1602.26 0.61468 -3.33177 0
M  V30 17058 C 1600.82 1.0743 -3.60743 0
M  V30 17059 C 1599.97 0.114877 -2.77062 0
M  V30 17060 H 1602.92 -0.404245 -1.53465 0
M  V30 17061 H 1602.94 1.46574 -3.51136 0
M  V30 17062 H 1602.45 -0.323923 -3.86746 0
M  V30 17063 H 1600.56 2.0277 -3.12594 0
M  V30 17064 H 1600.67 0.977349 -4.69025 0
M  V30 17065 H 1599.03 0.613933 -2.4719 0
M  V30 17066 H 1599.82 -0.817904 -3.33414 0
M  V30 17067 N 1602.26 1.57322 0.0935319 0
M  V30 17068 C 1603.19 2.05208 1.11409 0
M  V30 17069 C 1604.17 0.941295 1.41681 0
M  V30 17070 O 1605.36 1.21266 1.51684 0
M  V30 17071 C 1602.49 2.47782 2.43354 0
M  V30 17072 C 1601.44 3.62538 2.27486 0
M  V30 17073 C 1600.77 3.91095 3.64622 0
M  V30 17074 C 1602.07 4.93371 1.71412 0
M  V30 17075 H 1603.76 2.9072 0.715702 0
M  V30 17076 H 1601.31 1.3986 0.342827 0
M  V30 17077 H 1603.26 2.79891 3.15022 0
M  V30 17078 H 1601.98 1.59272 2.85132 0
M  V30 17079 H 1600.64 3.30679 1.58263 0
M  V30 17080 H 1600.29 2.99749 4.0393 0
M  V30 17081 H 1599.99 4.68353 3.5485 0
M  V30 17082 H 1601.51 4.25679 4.37755 0
M  V30 17083 H 1602.93 5.23851 2.32922 0
M  V30 17084 H 1601.33 5.74804 1.72395 0
M  V30 17085 H 1602.4 4.80197 0.67368 0
M  V30 17086 N 1603.74 -0.364395 1.53329 0
M  V30 17087 C 1604.65 -1.47027 1.82812 0
M  V30 17088 C 1605.66 -1.58559 0.716598 0
M  V30 17089 O 1606.84 -1.7443 1.00678 0
M  V30 17090 C 1603.91 -2.82278 2.01295 0
M  V30 17091 C 1602.97 -2.80264 3.25193 0
M  V30 17092 C 1602.2 -4.09065 3.42785 0
M  V30 17093 O 1602.42 -5.0529 2.64648 0
M  V30 17094 O 1601.36 -4.14804 4.36144 0
M  V30 17095 H 1605.18 -1.25035 2.76767 0
M  V30 17096 H 1602.77 -0.554608 1.38724 0
M  V30 17097 H 1604.65 -3.62416 2.15017 0
M  V30 17098 H 1603.32 -3.04244 1.10531 0
M  V30 17099 H 1602.23 -1.9882 3.16893 0
M  V30 17100 H 1603.56 -2.63252 4.15884 0
M  V30 17101 N 1605.22 -1.44709 -0.62426 0
M  V30 17102 C 1606.16 -1.52413 -1.75707 0
M  V30 17103 C 1607.16 -0.395303 -1.64723 0
M  V30 17104 O 1608.36 -0.570535 -1.70719 0
M  V30 17105 H 1604.74 -0.478401 -0.580204 0
M  V30 17106 H 1606.71 -2.47742 -1.66333 0
M  V30 17107 C 1605.46 -1.49208 -3.14058 0
M  V30 17108 H 1604.78 -2.35387 -3.23161 0
M  V30 17109 H 1606.22 -1.58658 -3.93197 0
M  V30 17110 C 1604.68 -0.213877 -3.3622 0
M  V30 17111 O 1605.21 0.713128 -3.95319 0
M  V30 17112 N 1603.42 -0.114834 -2.90373 0
M  V30 17113 H 1602.96 -0.870047 -2.42462 0
M  V30 17114 H 1602.92 0.739619 -3.05576 0
M  V30 17115 N 1606.69 0.865285 -1.31722 0
M  V30 17116 C 1607.62 1.98871 -1.22362 0
M  V30 17117 C 1608.61 1.69745 -0.109779 0
M  V30 17118 O 1609.79 1.91944 -0.295167 0
M  V30 17119 C 1606.92 3.34477 -0.935 0
M  V30 17120 C 1605.87 3.77924 -2.00892 0
M  V30 17121 C 1605.2 5.11042 -1.57291 0
M  V30 17122 C 1606.5 3.94528 -3.42264 0
M  V30 17123 H 1608.19 2.06959 -2.16352 0
M  V30 17124 H 1605.74 0.994355 -1.04157 0
M  V30 17125 H 1607.69 4.12612 -0.856111 0
M  V30 17126 H 1606.42 3.26575 0.0405536 0
M  V30 17127 H 1605.08 3.02032 -2.07779 0
M  V30 17128 H 1604.72 4.99586 -0.585084 0
M  V30 17129 H 1604.42 5.41082 -2.29138 0
M  V30 17130 H 1605.95 5.91681 -1.50818 0
M  V30 17131 H 1607.36 4.63045 -3.38027 0
M  V30 17132 H 1605.76 4.35972 -4.12369 0
M  V30 17133 H 1606.83 2.97765 -3.82706 0
M  V30 17134 N 1608.17 1.14759 1.0802 0
M  V30 17135 C 1609.58 0.928711 1.61963 0
M  V30 17136 C 1609.93 -0.531568 1.88862 0
M  V30 17137 O 1609.06 -1.40129 1.64902 0
M  V30 17138 C 1609.65 1.67943 2.94246 0
M  V30 17139 C 1608.21 1.50602 3.44958 0
M  V30 17140 C 1607.36 1.69938 2.19126 0
M  V30 17141 H 1610.31 1.29882 0.911945 0
M  V30 17142 H 1610.33 1.14493 3.62866 0
M  V30 17143 H 1609.84 2.7422 2.74636 0
M  V30 17144 H 1607.95 0.466901 3.69663 0
M  V30 17145 H 1608.06 2.27857 4.21447 0
M  V30 17146 H 1606.42 1.12534 2.28491 0
M  V30 17147 H 1607.21 2.77566 2.0202 0
M  V30 17148 N 1609.65 -1.26251 0.943322 0
M  V30 17149 C 1610.58 -2.28673 0.472347 0
M  V30 17150 C 1611.56 -1.63319 -0.475481 0
M  V30 17151 O 1612.75 -1.90508 -0.376875 0
M  V30 17152 C 1609.88 -3.46316 -0.261286 0
M  V30 17153 C 1608.83 -4.23771 0.600192 0
M  V30 17154 C 1608.16 -5.3405 -0.263525 0
M  V30 17155 C 1609.46 -4.87576 1.87262 0
M  V30 17156 H 1611.15 -2.68319 1.32836 0
M  V30 17157 H 1608.7 -1.28987 0.640182 0
M  V30 17158 H 1610.65 -4.1708 -0.601821 0
M  V30 17159 H 1609.37 -3.05629 -1.15146 0
M  V30 17160 H 1608.03 -3.54774 0.923651 0
M  V30 17161 H 1607.68 -4.89604 -1.15312 0
M  V30 17162 H 1607.38 -5.86784 0.309495 0
M  V30 17163 H 1608.9 -6.07652 -0.599281 0
M  V30 17164 H 1610.32 -5.50544 1.59919 0
M  V30 17165 H 1608.72 -5.50437 2.39038 0
M  V30 17166 H 1609.79 -4.10397 2.58268 0
M  V30 17167 N 1611.13 -0.710588 -1.40671 0
M  V30 17168 C 1612.04 -0.0557164 -2.34534 0
M  V30 17169 C 1613.06 0.749387 -1.57036 0
M  V30 17170 O 1614.23 0.683493 -1.89447 0
M  V30 17171 C 1611.3 0.858583 -3.35901 0
M  V30 17172 C 1610.36 0.043995 -4.29277 0
M  V30 17173 C 1609.59 0.91475 -5.25802 0
M  V30 17174 O 1609.81 2.15407 -5.28163 0
M  V30 17175 O 1608.75 0.356407 -6.00844 0
M  V30 17176 H 1612.57 -0.829807 -2.92144 0
M  V30 17177 H 1610.16 -0.471028 -1.4178 0
M  V30 17178 H 1612.04 1.38244 -3.98079 0
M  V30 17179 H 1610.72 1.61191 -2.80712 0
M  V30 17180 H 1609.62 -0.524815 -3.704 0
M  V30 17181 H 1610.96 -0.670996 -4.87605 0
M  V30 17182 N 1612.61 1.50847 -0.456408 0
M  V30 17183 C 1613.85 2.02534 0.103772 0
M  V30 17184 C 1614.19 1.33874 1.40682 0
M  V30 17185 O 1613.46 0.459695 1.8899 0
M  V30 17186 C 1613.74 3.58825 0.302817 0
M  V30 17187 C 1613.6 4.38077 -1.02022 0
M  V30 17188 C 1614.92 4.27044 1.06404 0
M  V30 17189 H 1612.04 0.736108 0.0362398 0
M  V30 17190 H 1614.68 1.80306 -0.599134 0
M  V30 17191 H 1612.83 3.77895 0.901542 0
M  V30 17192 H 1614.5 4.30613 -1.6544 0
M  V30 17193 H 1612.74 4.02401 -1.62036 0
M  V30 17194 H 1613.41 5.45652 -0.834766 0
M  V30 17195 H 1615.89 4.12359 0.556698 0
M  V30 17196 H 1614.77 5.3624 1.17209 0
M  V30 17197 H 1615.03 3.89204 2.09697 0
M  V30 17198 N 1614.09 0.188454 1.56469 0
M  V30 17199 C 1615.33 -0.452728 1.97682 0
M  V30 17200 C 1615.66 -1.61729 1.07506 0
M  V30 17201 O 1614.94 -1.94094 0.125677 0
M  V30 17202 C 1615.22 -0.919257 3.48169 0
M  V30 17203 C 1615.08 0.246656 4.49123 0
M  V30 17204 C 1616.39 -1.78706 4.02184 0
M  V30 17205 H 1613.51 -0.16309 0.718729 0
M  V30 17206 H 1616.16 0.27804 1.87955 0
M  V30 17207 H 1614.31 -1.54195 3.5659 0
M  V30 17208 H 1615.98 0.884178 4.52747 0
M  V30 17209 H 1614.22 0.89948 4.24372 0
M  V30 17210 H 1614.89 -0.122179 5.51865 0
M  V30 17211 H 1617.37 -1.26196 3.96502 0
M  V30 17212 H 1616.24 -2.08247 5.07863 0
M  V30 17213 H 1616.5 -2.73891 3.47039 0
M  V30 17214 N 1615.56 -1.5737 -0.0851874 0
M  V30 17215 C 1616.79 -1.90802 -0.800137 0
M  V30 17216 C 1617.21 -0.783132 -1.71792 0
M  V30 17217 O 1616.56 0.244331 -1.80857 0
M  V30 17218 C 1616.61 -3.2391 -1.60513 0
M  V30 17219 O 1616.34 -4.32072 -0.724253 0
M  V30 17220 C 1617.84 -3.7127 -2.42226 0
M  V30 17221 H 1615.06 -0.630988 -0.228242 0
M  V30 17222 H 1617.6 -2.04414 -0.0594587 0
M  V30 17223 H 1615.76 -3.11867 -2.29822 0
M  V30 17224 H 1616.17 -5.08571 -1.28279 0
M  V30 17225 H 1617.64 -4.67074 -2.94187 0
M  V30 17226 H 1618.12 -2.99606 -3.21143 0
M  V30 17227 H 1618.73 -3.86214 -1.78099 0
M  V30 17228 N 1617.04 0.356258 -1.53521 0
M  V30 17229 C 1618.27 1.12273 -1.74383 0
M  V30 17230 C 1618.69 1.81981 -0.475881 0
M  V30 17231 O 1618.05 1.72083 0.570699 0
M  V30 17232 C 1618.1 2.12161 -2.91582 0
M  V30 17233 O 1617.2 3.1943 -2.60842 0
M  V30 17234 H 1616.54 0.325321 -0.578845 0
M  V30 17235 H 1619.07 0.410533 -2.00439 0
M  V30 17236 H 1619.08 2.55602 -3.18012 0
M  V30 17237 H 1617.76 1.60818 -3.8355 0
M  V30 17238 H 1616.33 2.80895 -2.4526 0
M  V30 17239 N 1618.52 1.45038 0.616577 0
M  V30 17240 C 1619.75 1.52094 1.40267 0
M  V30 17241 C 1620.16 0.150558 1.88199 0
M  V30 17242 O 1619.52 -0.846258 1.61693 0
M  V30 17243 C 1619.57 2.49786 2.61322 0
M  V30 17244 O 1619.29 3.81498 2.15385 0
M  V30 17245 C 1620.79 2.66451 3.54286 0
M  V30 17246 H 1618.01 0.515378 0.429681 0
M  V30 17247 H 1620.56 1.90141 0.752768 0
M  V30 17248 H 1618.71 2.14835 3.22373 0
M  V30 17249 H 1619.13 4.34374 2.93972 0
M  V30 17250 H 1620.6 3.38802 4.35795 0
M  V30 17251 H 1621.08 1.72177 4.04044 0
M  V30 17252 H 1621.68 3.02362 2.99095 0
M  V30 17253 N 1620 -0.858287 1.32179 0
M  V30 17254 C 1620.96 -1.94811 1.20753 0
M  V30 17255 C 1621.96 -1.60261 0.131526 0
M  V30 17256 O 1623.15 -1.69968 0.381662 0
M  V30 17257 C 1620.28 -3.29972 0.856229 0
M  V30 17258 H 1621.48 -2.06371 2.17603 0
M  V30 17259 H 1619.03 -1.04802 1.15958 0
M  V30 17260 H 1619.76 -3.24111 -0.11061 0
M  V30 17261 H 1619.55 -3.56424 1.63414 0
M  V30 17262 H 1621.04 -4.09856 0.800507 0
M  V30 17263 N 1621.48 -1.1533 -1.07409 0
M  V30 17264 C 1622.39 -0.863514 -2.1813 0
M  V30 17265 C 1623.4 0.159954 -1.73263 0
M  V30 17266 O 1624.58 -0.0139818 -2.01395 0
M  V30 17267 C 1621.64 -0.356271 -3.44865 0
M  V30 17268 C 1620.7 -1.44356 -4.04302 0
M  V30 17269 C 1619.94 -0.960429 -5.24987 0
M  V30 17270 O 1620.16 0.194227 -5.70069 0
M  V30 17271 O 1619.09 -1.74387 -5.76084 0
M  V30 17272 H 1622.92 -1.78909 -2.45408 0
M  V30 17273 H 1620.5 -0.932362 -1.16736 0
M  V30 17274 H 1622.39 -0.0798183 -4.21324 0
M  V30 17275 H 1621.06 0.541445 -3.1914 0
M  V30 17276 H 1619.97 -1.77361 -3.29384 0
M  V30 17277 H 1621.3 -2.31617 -4.34298 0
M  V30 17278 N 1622.95 1.25748 -0.950004 0
M  V30 17279 C 1624.2 1.93622 -0.603186 0
M  V30 17280 C 1624.53 1.74271 0.856925 0
M  V30 17281 O 1623.81 1.08502 1.61423 0
M  V30 17282 C 1624.09 3.4715 -0.957024 0
M  V30 17283 C 1623.94 3.75747 -2.47253 0
M  V30 17284 C 1625.26 4.37488 -0.478754 0
M  V30 17285 H 1622.38 0.703206 -0.220612 0
M  V30 17286 H 1625.02 1.48453 -1.18582 0
M  V30 17287 H 1623.17 3.85753 -0.46122 0
M  V30 17288 H 1624.85 3.46808 -3.04174 0
M  V30 17289 H 1623.09 3.21516 -2.91222 0
M  V30 17290 H 1623.76 4.83097 -2.67061 0
M  V30 17291 H 1626.24 4.06162 -0.903987 0
M  V30 17292 H 1625.11 5.43682 -0.755073 0
M  V30 17293 H 1625.37 4.37712 0.621303 0
M  V30 17294 N 1624.43 0.718038 1.40292 0
M  V30 17295 C 1625.38 0.0670495 2.30703 0
M  V30 17296 C 1626.35 -0.747716 1.48319 0
M  V30 17297 O 1627.53 -0.711161 1.77051 0
M  V30 17298 C 1624.67 -0.846918 3.34546 0
M  V30 17299 C 1623.79 -0.0213622 4.31995 0
M  V30 17300 C 1622.92 -0.935035 5.22906 0
M  V30 17301 C 1621.96 -0.103715 6.12012 0
M  V30 17302 N 1621.1 -0.972397 6.95334 0
M  V30 17303 H 1625.94 0.843724 2.85806 0
M  V30 17304 H 1623.47 0.427756 1.40743 0
M  V30 17305 H 1625.43 -1.39109 3.93325 0
M  V30 17306 H 1624.06 -1.58975 2.80939 0
M  V30 17307 H 1623.11 0.640026 3.74977 0
M  V30 17308 H 1624.43 0.62215 4.94905 0
M  V30 17309 H 1623.58 -1.54766 5.86628 0
M  V30 17310 H 1622.32 -1.61236 4.60276 0
M  V30 17311 H 1621.32 0.521826 5.47318 0
M  V30 17312 H 1622.55 0.570146 6.76702 0
M  V30 17313 H 1620.5 -1.63533 6.3529 0
M  V30 17314 H 1620.41 -0.384977 7.55019 0
M  V30 17315 H 1621.68 -1.57112 7.63503 0
M  V30 17316 N 1625.91 -1.50602 0.464402 0
M  V30 17317 C 1627.19 -1.94992 -0.154146 0
M  V30 17318 C 1627.57 -1.40447 -1.57601 0
M  V30 17319 O 1626.92 -0.602668 -2.20409 0
M  V30 17320 C 1627.13 -3.48844 -0.104296 0
M  V30 17321 C 1628.47 -4.23563 -0.296506 0
M  V30 17322 O 1629.5 -3.55739 -0.181187 0
M  V30 17323 O 1628.36 -5.43937 -0.528668 0
M  V30 17324 H 1625.45 -0.818921 -0.115311 0
M  V30 17325 H 1628 -1.61397 0.524324 0
M  V30 17326 H 1626.77 -3.81075 0.88869 0
M  V30 17327 H 1626.39 -3.88957 -0.824514 0
M  V30 17328 N 1627.39 -0.19675 -1.56367 0
M  V30 17329 C 1628.34 0.740138 -2.2051 0
M  V30 17330 C 1629.33 1.21854 -1.17677 0
M  V30 17331 O 1630.54 1.18124 -1.35819 0
M  V30 17332 H 1626.91 0.257034 -0.706709 0
M  V30 17333 H 1628.88 0.175454 -2.97884 0
M  V30 17334 C 1627.63 1.94841 -2.8798 0
M  V30 17335 H 1626.95 1.58936 -3.66851 0
M  V30 17336 H 1628.39 2.58227 -3.36296 0
M  V30 17337 C 1626.85 2.78821 -1.89104 0
M  V30 17338 O 1627.38 3.76797 -1.39237 0
M  V30 17339 N 1625.59 2.44348 -1.57297 0
M  V30 17340 H 1625.14 1.64732 -1.98043 0
M  V30 17341 H 1625.09 3.00822 -0.913978 0
M  V30 17342 N 1628.87 1.57413 0.0768405 0
M  V30 17343 C 1629.81 2.0334 1.09185 0
M  V30 17344 C 1630.78 0.913073 1.38752 0
M  V30 17345 O 1631.97 1.18038 1.49906 0
M  V30 17346 C 1629.11 2.47805 2.40181 0
M  V30 17347 C 1628.22 3.73435 2.17188 0
M  V30 17348 C 1627.36 4.06703 3.41711 0
M  V30 17349 C 1626.4 5.25388 3.1406 0
M  V30 17350 N 1625.53 5.54319 4.309 0
M  V30 17351 H 1630.37 2.89825 0.693223 0
M  V30 17352 H 1627.91 1.43334 0.330736 0
M  V30 17353 H 1629.87 2.71635 3.16655 0
M  V30 17354 H 1628.5 1.64305 2.77856 0
M  V30 17355 H 1627.55 3.56974 1.3143 0
M  V30 17356 H 1628.86 4.60049 1.9276 0
M  V30 17357 H 1628.02 4.31407 4.26583 0
M  V30 17358 H 1626.75 3.18646 3.6921 0
M  V30 17359 H 1625.76 5.00486 2.27583 0
M  V30 17360 H 1626.98 6.15059 2.87888 0
M  V30 17361 H 1624.93 4.69222 4.5844 0
M  V30 17362 H 1624.85 6.35342 4.09727 0
M  V30 17363 H 1626.12 5.83571 5.16783 0
M  V30 17364 N 1630.34 -0.348112 1.53707 0
M  V30 17365 C 1631.31 -1.41018 1.80683 0
M  V30 17366 C 1632.31 -1.4582 0.67774 0
M  V30 17367 O 1633.5 -1.46275 0.94601 0
M  V30 17368 C 1630.63 -2.79988 1.94473 0
M  V30 17369 H 1631.82 -1.18365 2.75554 0
M  V30 17370 H 1629.38 -0.582244 1.4505 0
M  V30 17371 H 1630.11 -3.07931 1.0173 0
M  V30 17372 H 1629.9 -2.77899 2.76612 0
M  V30 17373 H 1631.39 -3.56868 2.16876 0
M  V30 17374 N 1631.82 -1.45363 -0.608876 0
M  V30 17375 C 1633.07 -1.48586 -1.364 0
M  V30 17376 C 1633.38 -0.131213 -1.95159 0
M  V30 17377 O 1634.59 -0.0410845 -2.71469 0
M  V30 17378 C 1633.05 -2.61694 -2.47071 0
M  V30 17379 C 1632.65 -4.03466 -1.94729 0
M  V30 17380 C 1634.4 -2.74162 -3.24091 0
M  V30 17381 C 1632.31 -5.07958 -3.02874 0
M  V30 17382 H 1631.24 -0.552893 -0.512665 0
M  V30 17383 H 1633.89 -1.71499 -0.65271 0
M  V30 17384 H 1632.27 -2.32062 -3.20879 0
M  V30 17385 H 1633.44 -4.4277 -1.27638 0
M  V30 17386 H 1631.76 -3.95436 -1.30457 0
M  V30 17387 H 1634.35 -3.494 -4.04752 0
M  V30 17388 H 1634.7 -1.80751 -3.75013 0
M  V30 17389 H 1635.23 -3.03313 -2.57383 0
M  V30 17390 H 1631.97 -6.03073 -2.56871 0
M  V30 17391 H 1631.49 -4.73225 -3.68535 0
M  V30 17392 H 1633.17 -5.3265 -3.67277 0
M  V30 17393 N 1633.3 0.851265 -1.32632 0
M  V30 17394 C 1634.25 1.98152 -1.21813 0
M  V30 17395 C 1635.24 1.68959 -0.122182 0
M  V30 17396 O 1636.45 1.77724 -0.285332 0
M  V30 17397 H 1632.82 0.650275 -0.377686 0
M  V30 17398 H 1634.79 2.04405 -2.17397 0
M  V30 17399 C 1633.54 3.34141 -0.961521 0
M  V30 17400 H 1632.87 3.57136 -1.79704 0
M  V30 17401 H 1634.31 4.13763 -0.926077 0
M  V30 17402 C 1632.77 3.35223 0.335704 0
M  V30 17403 O 1633.3 3.78461 1.34647 0
M  V30 17404 N 1631.5 2.88376 0.358875 0
M  V30 17405 H 1631.05 2.53383 -0.464194 0
M  V30 17406 H 1631.01 2.89482 1.22668 0
M  V30 17407 N 1634.78 1.15898 1.06796 0
M  V30 17408 C 1636.02 0.938728 1.79766 0
M  V30 17409 C 1636.36 -0.53249 1.86757 0
M  V30 17410 O 1635.63 -1.39492 1.35544 0
M  V30 17411 C 1635.92 1.56062 3.24525 0
M  V30 17412 C 1635.77 3.10283 3.25645 0
M  V30 17413 C 1637.09 1.25108 4.21943 0
M  V30 17414 H 1634.21 0.342451 0.652607 0
M  V30 17415 H 1636.85 1.4315 1.24933 0
M  V30 17416 H 1635 1.14158 3.71349 0
M  V30 17417 H 1636.67 3.61132 2.87021 0
M  V30 17418 H 1634.91 3.43879 2.64443 0
M  V30 17419 H 1635.58 3.48913 4.27743 0
M  V30 17420 H 1638.06 1.61364 3.83537 0
M  V30 17421 H 1636.94 1.7123 5.21509 0
M  V30 17422 H 1637.2 0.169043 4.41777 0
M  V30 17423 O 1636.3 -1.19476 1.08664 0
M  V30 17424 H 1636.99 -1.77333 0.77928 0
M  V30 END ATOM
M  V30 BEGIN BOND
M  V30 END BOND
M  V30 END CTAB
M  END
$$$$
