drugbank_target|C6KT50 Pyridoxal 5'-phosphate synthase subunit Pdx1 (DB11638)
 OpenBabel12092121123D

  0  0  0     0  0            999 V3000
M  V30 BEGIN CTAB
M  V30 COUNTS 4677 4709 0 0 0
M  V30 BEGIN ATOM
M  V30 1 H -0.908 1.98254 -0.117106 0
M  V30 2 N 0 1.576 0 0
M  V30 3 C 0.933 2.03868 1.02534 0
M  V30 4 C 1.911 0.928543 1.3348 0
M  V30 5 O 3.095 1.19667 1.45644 0
M  V30 6 C 0.222 2.43627 2.35294 0
M  V30 7 C -0.732 3.65373 2.2001 0
M  V30 8 S 0.101 5.13292 1.52614 0
M  V30 9 C 1.257 5.56322 2.86805 0
M  V30 10 H 1.49 2.90518 0.631377 0
M  V30 11 H -0.977 1.52953 0.210867 0
M  V30 12 H 0.981 2.67203 3.11629 0
M  V30 13 H -0.358 1.57376 2.7183 0
M  V30 14 H -1.165 3.90944 3.18086 0
M  V30 15 H -1.563 3.418 1.51819 0
M  V30 16 H 0.729 5.58782 3.83104 0
M  V30 17 H 1.672 6.56266 2.65933 0
M  V30 18 H 2.08 4.83886 2.90714 0
M  V30 19 N 1.4781 -0.272755 1.55222 0
M  V30 20 C 2.3881 -1.35918 1.91216 0
M  V30 21 C 3.4041 -1.54026 0.809436 0
M  V30 22 O 4.5801 -1.68148 1.10852 0
M  V30 23 C 1.6451 -2.69834 2.17693 0
M  V30 24 C 0.7061 -2.6047 3.41253 0
M  V30 25 C -0.0609 -3.88 3.66458 0
M  V30 26 O 0.1621 -4.88693 2.94169 0
M  V30 27 O -0.9039 -3.88189 4.59992 0
M  V30 28 H 2.9221 -1.0839 2.83699 0
M  V30 29 H 0.5071 -0.471301 1.41771 0
M  V30 30 H 2.3891 -3.49017 2.36147 0
M  V30 31 H 1.0641 -2.97148 1.28392 0
M  V30 32 H -0.0289 -1.79663 3.28134 0
M  V30 33 H 1.3041 -2.38106 4.30774 0
M  V30 34 N 2.9562 -1.48159 -0.537278 0
M  V30 35 C 3.9042 -1.62573 -1.66352 0
M  V30 36 C 4.8982 -0.492366 -1.62087 0
M  V30 37 O 6.1042 -0.670847 -1.67032 0
M  V30 38 H 2.4792 -0.511992 -0.550789 0
M  V30 39 H 4.4502 -2.57176 -1.51337 0
M  V30 40 C 3.1992 -1.67583 -3.04649 0
M  V30 41 H 2.5222 -2.54151 -3.08622 0
M  V30 42 H 3.9622 -1.81713 -3.83088 0
M  V30 43 C 2.4212 -0.413039 -3.34358 0
M  V30 44 O 2.9512 0.477259 -3.98855 0
M  V30 45 N 1.1572 -0.286961 -2.8918 0
M  V30 46 H 0.7042 -1.01241 -2.36871 0
M  V30 47 H 0.6622 0.556963 -3.09427 0
M  V30 48 N 4.4343 0.785586 -1.36625 0
M  V30 49 C 5.3843 1.88822 -1.27789 0
M  V30 50 C 6.3683 1.60014 -0.168579 0
M  V30 51 O 7.5603 1.72381 -0.401737 0
M  V30 52 C 4.6893 3.26092 -1.07327 0
M  V30 53 C 3.7753 3.60897 -2.22743 0
M  V30 54 N 4.1663 3.66982 -3.48077 0
M  V30 55 C 2.4643 3.90981 -2.14593 0
M  V30 56 C 3.1653 3.98137 -4.24101 0
M  V30 57 N 2.1413 4.13319 -3.53084 0
M  V30 58 H 5.9433 1.91759 -2.22723 0
M  V30 59 H 3.4573 0.981311 -1.29399 0
M  V30 60 H 5.4543 4.04954 -0.990842 0
M  V30 61 H 4.1143 3.24428 -0.132977 0
M  V30 62 H 5.1253 3.49531 -3.82163 0
M  V30 63 H 1.8023 3.9722 -1.2854 0
M  V30 64 H 3.1923 4.09737 -5.32509 0
M  V30 65 N 5.9124 1.20967 1.01018 0
M  V30 66 C 6.8594 0.964281 2.09691 0
M  V30 67 C 7.8294 -0.107853 1.65749 0
M  V30 68 O 9.0144 0.0381987 1.90762 0
M  V30 69 C 6.1544 0.52943 3.41015 0
M  V30 70 C 5.2674 1.67043 3.98398 0
M  V30 71 C 4.4024 1.18525 5.17808 0
M  V30 72 C 3.4414 2.29892 5.67288 0
M  V30 73 N 2.5784 1.82546 6.77954 0
M  V30 74 H 7.4184 1.89463 2.30017 0
M  V30 75 H 4.9554 0.944289 1.1279 0
M  V30 76 H 6.9134 0.258588 4.16398 0
M  V30 77 H 5.5434 -0.363919 3.20742 0
M  V30 78 H 4.5954 2.05603 3.20049 0
M  V30 79 H 5.9074 2.50877 4.31117 0
M  V30 80 H 5.0614 0.870762 6.00419 0
M  V30 81 H 3.8004 0.316887 4.86669 0
M  V30 82 H 2.8054 2.6215 4.83278 0
M  V30 83 H 4.0304 3.17216 6.00459 0
M  V30 84 H 1.9764 0.980454 6.48632 0
M  V30 85 H 1.8934 2.59956 7.09901 0
M  V30 86 H 3.1614 1.54115 7.64113 0
M  V30 87 N 7.3905 -1.2043 1.01659 0
M  V30 88 C 8.6675 -1.8548 0.621004 0
M  V30 89 C 9.0475 -1.9091 -0.900919 0
M  V30 90 O 8.3955 -1.41694 -1.79263 0
M  V30 91 C 8.6055 -3.25119 1.2688 0
M  V30 92 C 9.9535 -4.01403 1.38423 0
M  V30 93 O 10.9775 -3.34473 1.22501 0
M  V30 94 O 9.8365 -5.21265 1.64151 0
M  V30 95 H 6.9305 -0.798761 0.214266 0
M  V30 96 H 9.4765 -1.28019 1.11396 0
M  V30 97 H 8.2485 -3.15932 2.30873 0
M  V30 98 H 7.8715 -3.90212 0.762917 0
M  V30 99 N 8.8686 -0.792821 -1.36206 0
M  V30 100 C 10.1456 -0.290627 -1.93429 0
M  V30 101 C 10.5256 1.21773 -1.72437 0
M  V30 102 O 9.8736 2.0108 -1.08531 0
M  V30 103 C 10.0836 -0.686973 -3.42172 0
M  V30 104 C 11.4316 -0.668643 -4.19302 0
M  V30 105 O 12.4556 -0.627658 -3.50626 0
M  V30 106 O 11.3146 -0.714597 -5.41808 0
M  V30 107 H 8.4086 -0.0727927 -0.82379 0
M  V30 108 H 10.9546 -0.875593 -1.45367 0
M  V30 109 H 9.7266 -1.72711 -3.51122 0
M  V30 110 H 9.3496 -0.0760733 -3.97527 0
M  V30 111 N 10.3467 1.47872 -0.545128 0
M  V30 112 C 11.3097 2.28337 0.198717 0
M  V30 113 C 12.3097 1.36255 0.853888 0
M  V30 114 O 13.4997 1.59003 0.711606 0
M  V30 115 C 10.6317 3.15585 1.28915 0
M  V30 116 H 11.8247 2.95567 -0.507941 0
M  V30 117 H 9.3777 1.53362 -0.301616 0
M  V30 118 H 10.1127 2.53019 2.02859 0
M  V30 119 H 9.8977 3.83337 0.824309 0
M  V30 120 H 11.3877 3.76243 1.81194 0
M  V30 121 N 11.8248 0.280983 1.55075 0
M  V30 122 C 13.0708 -0.33461 2.00021 0
M  V30 123 C 13.4038 -1.55063 1.16915 0
M  V30 124 O 12.6788 -1.93006 0.240646 0
M  V30 125 C 12.9618 -0.711007 3.53011 0
M  V30 126 C 12.8148 0.512766 4.46868 0
M  V30 127 C 14.1338 -1.54522 4.12081 0
M  V30 128 H 11.2528 -0.120147 0.727141 0
M  V30 129 H 13.8948 0.389097 1.85973 0
M  V30 130 H 12.0448 -1.32761 3.65112 0
M  V30 131 H 13.7168 1.15131 4.46702 0
M  V30 132 H 11.9598 1.14975 4.18286 0
M  V30 133 H 12.6308 0.205556 5.51617 0
M  V30 134 H 15.1068 -1.02442 4.03293 0
M  V30 135 H 13.9828 -1.77739 5.19327 0
M  V30 136 H 14.2438 -2.52813 3.62682 0
M  V30 137 N 13.3029 -1.57598 0.00835791 0
M  V30 138 C 14.2329 -2.1198 -0.979113 0
M  V30 139 C 15.2139 -1.03091 -1.35301 0
M  V30 140 O 16.3989 -1.30818 -1.43528 0
M  V30 141 C 13.5289 -2.62995 -2.26828 0
M  V30 142 C 12.4829 -3.76485 -2.03576 0
M  V30 143 C 11.8089 -4.13846 -3.38579 0
M  V30 144 C 13.1089 -5.0342 -1.39161 0
M  V30 145 H 14.8029 -2.94738 -0.526281 0
M  V30 146 H 12.3489 -1.41783 -0.251704 0
M  V30 147 H 14.3019 -2.99669 -2.96271 0
M  V30 148 H 13.0259 -1.7737 -2.7424 0
M  V30 149 H 11.6849 -3.40217 -1.36557 0
M  V30 150 H 11.3329 -3.25232 -3.83709 0
M  V30 151 H 11.0329 -4.90312 -3.23834 0
M  V30 152 H 12.5569 -4.53086 -4.09323 0
M  V30 153 H 13.9709 -5.37812 -1.98573 0
M  V30 154 H 12.3679 -5.84746 -1.34878 0
M  V30 155 H 13.4379 -4.83548 -0.361868 0
M  V30 156 N 14.781 0.264519 -1.55364 0
M  V30 157 C 15.711 1.33121 -1.91836 0
M  V30 158 C 16.692 1.51101 -0.781192 0
M  V30 159 O 17.877 1.64003 -1.04003 0
M  V30 160 C 15.007 2.68921 -2.19769 0
M  V30 161 C 13.961 2.65661 -3.35571 0
M  V30 162 C 13.287 4.05093 -3.49004 0
M  V30 163 C 14.587 2.24187 -4.71739 0
M  V30 164 H 16.281 1.02844 -2.81182 0
M  V30 165 H 13.827 0.493286 -1.35287 0
M  V30 166 H 15.78 3.43663 -2.43872 0
M  V30 167 H 14.504 3.00799 -1.27231 0
M  V30 168 H 13.163 1.93377 -3.1145 0
M  V30 169 H 12.811 4.34206 -2.53917 0
M  V30 170 H 12.511 4.03804 -4.26868 0
M  V30 171 H 14.035 4.81561 -3.75408 0
M  V30 172 H 15.449 2.88654 -4.9533 0
M  V30 173 H 13.846 2.34044 -5.52579 0
M  V30 174 H 14.916 1.19327 -4.69988 0
M  V30 175 N 16.2591 1.48442 0.529413 0
M  V30 176 C 17.2061 1.63007 1.63394 0
M  V30 177 C 18.1761 0.47212 1.59249 0
M  V30 178 O 19.3611 0.695673 1.77666 0
M  V30 179 C 16.5011 1.6763 3.01653 0
M  V30 180 C 15.6141 2.94535 3.16027 0
M  V30 181 C 14.7491 2.90316 4.44849 0
M  V30 182 C 13.7881 4.11923 4.52754 0
M  V30 183 N 12.9251 4.05777 5.72965 0
M  V30 184 H 17.7651 2.5733 1.50285 0
M  V30 185 H 15.3021 1.27613 0.731656 0
M  V30 186 H 17.2601 1.68292 3.81751 0
M  V30 187 H 15.8901 0.76797 3.13532 0
M  V30 188 H 14.9421 3.03615 2.29177 0
M  V30 189 H 16.2541 3.84512 3.17729 0
M  V30 190 H 15.4081 2.89382 5.33238 0
M  V30 191 H 14.1471 1.98068 4.45668 0
M  V30 192 H 13.1521 4.13131 3.62771 0
M  V30 193 H 14.3771 5.0533 4.53672 0
M  V30 194 H 12.3231 3.16351 5.74681 0
M  V30 195 H 12.2401 4.8946 5.76164 0
M  V30 196 H 13.5081 4.08904 6.6364 0
M  V30 197 N 17.7372 -0.778329 1.37039 0
M  V30 198 C 18.6872 -1.88142 1.28789 0
M  V30 199 C 19.6712 -1.59923 0.177063 0
M  V30 200 O 20.8632 -1.72165 0.410873 0
M  V30 201 C 17.9922 -3.25518 1.09055 0
M  V30 202 C 17.0782 -3.5971 2.24654 0
M  V30 203 N 17.4692 -3.65131 3.50018 0
M  V30 204 C 15.7672 -3.89837 2.16663 0
M  V30 205 C 16.4682 -3.95882 4.26207 0
M  V30 206 N 15.4442 -4.11441 3.55271 0
M  V30 207 H 19.2462 -1.90575 2.23737 0
M  V30 208 H 16.7602 -0.974435 1.29917 0
M  V30 209 H 18.7572 -4.04423 1.0123 0
M  V30 210 H 17.4172 -3.24353 0.15018 0
M  V30 211 H 18.4282 -3.475 3.84011 0
M  V30 212 H 15.1052 -3.96533 1.30645 0
M  V30 213 H 16.4952 -4.06907 5.34674 0
M  V30 214 N 19.2153 -1.21501 -1.00376 0
M  V30 215 C 20.4633 -1.03095 -1.73827 0
M  V30 216 C 20.7843 0.436341 -1.90055 0
M  V30 217 O 20.0543 1.31466 -1.45236 0
M  V30 218 H 18.6343 -0.378487 -0.644016 0
M  V30 219 H 21.2963 -1.52831 -1.20949 0
M  V30 220 H 20.3923 -1.49991 -2.73695 0
M  V30 221 N 20.6934 1.19889 -1.02296 0
M  V30 222 C 21.9394 1.89973 -0.726759 0
M  V30 223 C 22.2944 1.7776 0.73614 0
M  V30 224 O 21.5874 1.15523 1.52856 0
M  V30 225 C 21.7814 3.39883 -1.10518 0
M  V30 226 C 21.6104 3.66684 -2.60332 0
M  V30 227 C 20.3804 3.85045 -3.27213 0
M  V30 228 C 22.5784 3.68727 -3.58532 0
M  V30 229 N 20.5604 3.99422 -4.66192 0
M  V30 230 C 21.9314 3.88604 -4.83101 0
M  V30 231 C 23.9864 3.51722 -3.52414 0
M  V30 232 C 22.6894 3.9324 -6.02292 0
M  V30 233 C 24.7154 3.57632 -4.71013 0
M  V30 234 C 24.0774 3.77988 -5.94394 0
M  V30 235 H 20.1764 0.714551 -0.317712 0
M  V30 236 H 22.7604 1.44123 -1.30907 0
M  V30 237 H 20.9314 3.8447 -0.551142 0
M  V30 238 H 22.6634 3.97464 -0.761853 0
M  V30 239 H 19.4184 3.83689 -2.77632 0
M  V30 240 H 19.8424 4.10473 -5.38368 0
M  V30 241 H 24.4844 3.34945 -2.58015 0
M  V30 242 H 22.2024 4.08811 -6.97065 0
M  V30 243 H 25.7884 3.45773 -4.67902 0
M  V30 244 H 24.6684 3.82428 -6.8463 0
M  V30 245 N 22.1715 0.800033 1.35784 0
M  V30 246 C 23.4115 0.382891 2.00782 0
M  V30 247 C 23.7755 -1.02891 1.62103 0
M  V30 248 O 24.9765 -1.54771 2.19771 0
M  V30 249 C 23.2475 0.553299 3.53091 0
M  V30 250 S 24.8065 0.225608 4.3822 0
M  V30 251 H 21.6245 0.145737 0.695904 0
M  V30 252 H 24.2265 1.04085 1.65489 0
M  V30 253 H 22.9305 1.58091 3.78729 0
M  V30 254 H 22.4615 -0.120214 3.93216 0
M  V30 255 H 24.4765 -0.969074 4.86645 0
M  V30 256 N 23.6496 -1.47581 0.552962 0
M  V30 257 C 24.5596 -2.33743 -0.200353 0
M  V30 258 C 25.5756 -1.47928 -0.916151 0
M  V30 259 O 26.7516 -1.80865 -0.885993 0
M  V30 260 C 23.8166 -3.24536 -1.21973 0
M  V30 261 C 22.8776 -4.26238 -0.511819 0
M  V30 262 C 22.1106 -5.12693 -1.48263 0
M  V30 263 O 22.3336 -5.01525 -2.71714 0
M  V30 264 O 21.2676 -5.93375 -1.00945 0
M  V30 265 H 25.0936 -2.9945 0.506304 0
M  V30 266 H 22.6786 -1.46071 0.313622 0
M  V30 267 H 24.5606 -3.80631 -1.80827 0
M  V30 268 H 23.2356 -2.61462 -1.90839 0
M  V30 269 H 22.1426 -3.73914 0.117799 0
M  V30 270 H 23.4756 -4.92014 0.135308 0
M  V30 271 N 25.1277 -0.289203 -1.54924 0
M  V30 272 C 26.0607 0.633823 -2.19221 0
M  V30 273 C 27.0387 1.14174 -1.15772 0
M  V30 274 O 28.2227 1.21211 -1.44361 0
M  V30 275 C 25.3497 1.86592 -2.82668 0
M  V30 276 C 24.3957 1.49227 -3.99542 0
M  V30 277 S 25.2287 0.558312 -5.32582 0
M  V30 278 C 26.3847 1.79847 -5.99505 0
M  V30 279 H 26.6177 0.0875416 -2.97171 0
M  V30 280 H 24.1507 -0.0733899 -1.54225 0
M  V30 281 H 26.1087 2.57305 -3.19851 0
M  V30 282 H 24.7697 2.38335 -2.04585 0
M  V30 283 H 23.9627 2.40945 -4.42676 0
M  V30 284 H 23.5647 0.865193 -3.63855 0
M  V30 285 H 25.8567 2.7406 -6.19595 0
M  V30 286 H 26.7997 1.4099 -6.93922 0
M  V30 287 H 27.2077 1.96982 -5.29016 0
M  V30 288 N 26.6058 1.57591 -0.0167156 0
M  V30 289 C 27.5358 2.12496 0.967858 0
M  V30 290 C 28.5168 1.03807 1.34752 0
M  V30 291 O 29.7018 1.31577 1.42833 0
M  V30 292 C 26.8318 2.64194 2.25431 0
M  V30 293 C 25.7858 3.77559 2.01576 0
M  V30 294 C 25.1118 4.15636 3.36379 0
M  V30 295 C 26.4118 5.04151 1.36489 0
M  V30 296 H 28.1058 2.95013 0.510643 0
M  V30 297 H 25.6518 1.41915 0.244181 0
M  V30 298 H 27.6048 3.01236 2.94678 0
M  V30 299 H 26.3288 1.78821 2.73296 0
M  V30 300 H 24.9878 3.40937 1.34751 0
M  V30 301 H 24.6358 3.27263 3.81979 0
M  V30 302 H 24.3358 4.92022 3.21229 0
M  V30 303 H 25.8598 4.5525 4.06915 0
M  V30 304 H 27.2738 5.38857 1.95718 0
M  V30 305 H 25.6708 5.85453 1.31776 0
M  V30 306 H 26.7408 4.83733 0.336219 0
M  V30 307 N 28.0839 -0.256276 1.55502 0
M  V30 308 C 29.0309 -1.31714 1.89526 0
M  V30 309 C 30.0009 -1.4828 0.748479 0
M  V30 310 O 31.1859 -1.62416 1.00128 0
M  V30 311 C 28.3259 -2.66933 2.18725 0
M  V30 312 C 27.4389 -2.58452 3.4616 0
M  V30 313 C 26.5739 -3.85961 3.64976 0
M  V30 314 C 25.6129 -3.72059 4.86044 0
M  V30 315 N 24.7499 -4.9144 5.01429 0
M  V30 316 H 29.5899 -1.01998 2.80001 0
M  V30 317 H 27.1269 -0.492413 1.38613 0
M  V30 318 H 29.0849 -3.4563 2.33657 0
M  V30 319 H 27.7149 -2.94816 1.31466 0
M  V30 320 H 26.7669 -1.71374 3.3961 0
M  V30 321 H 28.0789 -2.44085 4.34999 0
M  V30 322 H 27.2329 -4.73101 3.79816 0
M  V30 323 H 25.9719 -4.03215 2.74353 0
M  V30 324 H 24.9769 -2.83302 4.7119 0
M  V30 325 H 26.2019 -3.56309 5.78118 0
M  V30 326 H 24.1479 -5.09072 4.13741 0
M  V30 327 H 24.0649 -4.79668 5.84341 0
M  V30 328 H 25.3329 -5.80104 5.20672 0
M  V30 329 N 29.562 -1.4872 -0.521534 0
M  V30 330 C 30.81 -1.56857 -1.27437 0
M  V30 331 C 31.131 -0.247982 -1.93417 0
M  V30 332 O 30.401 0.731151 -1.81744 0
M  V30 333 H 28.981 -0.577885 -0.473347 0
M  V30 334 H 31.643 -1.85233 -0.606205 0
M  V30 335 H 30.739 -2.35402 -2.0492 0
M  V30 336 N 31.0401 0.771051 -1.3745 0
M  V30 337 C 32.2881 1.52661 -1.32435 0
M  V30 338 C 32.6091 1.9479 0.0905024 0
M  V30 339 O 31.8791 1.66348 1.03466 0
M  V30 340 H 30.4591 0.566218 -0.487244 0
M  V30 341 H 33.1211 0.917636 -1.71946 0
M  V30 342 H 32.2171 2.42568 -1.96385 0
M  V30 343 N 32.5182 1.22032 0.997298 0
M  V30 344 C 33.7642 1.04376 1.73878 0
M  V30 345 C 34.0972 -0.420716 1.89588 0
M  V30 346 O 33.3722 -1.31202 1.43583 0
M  V30 347 C 33.6552 1.75047 3.14691 0
M  V30 348 C 33.5082 3.29062 3.06656 0
M  V30 349 C 34.8272 1.49928 4.13775 0
M  V30 350 H 31.9462 0.380578 0.631133 0
M  V30 351 H 34.5882 1.50312 1.16217 0
M  V30 352 H 32.7382 1.35996 3.63919 0
M  V30 353 H 34.4102 3.7753 2.65083 0
M  V30 354 H 32.6532 3.58967 2.43568 0
M  V30 355 H 33.3242 3.73683 4.06282 0
M  V30 356 H 35.8002 1.83842 3.73285 0
M  V30 357 H 34.6762 2.01878 5.10428 0
M  V30 358 H 34.9372 0.430929 4.39995 0
M  V30 359 N 33.9963 -1.19345 1.0293 0
M  V30 360 C 35.2453 -1.88363 0.721256 0
M  V30 361 C 35.5583 -1.80514 -0.753254 0
M  V30 362 O 36.7643 -2.44788 -1.17436 0
M  V30 363 C 35.2203 -3.37872 1.23978 0
M  V30 364 C 34.8283 -3.54278 2.74211 0
M  V30 365 C 36.5723 -4.12365 1.00775 0
M  V30 366 C 34.4793 -4.97682 3.19479 0
M  V30 367 H 33.4093 -0.705484 0.266098 0
M  V30 368 H 36.0603 -1.34928 1.24365 0
M  V30 369 H 34.4423 -3.90707 0.6453 0
M  V30 370 H 35.6163 -3.11769 3.39318 0
M  V30 371 H 33.9313 -2.93174 2.95699 0
M  V30 372 H 36.5283 -5.18119 1.32123 0
M  V30 373 H 36.8713 -4.16263 -0.0554308 0
M  V30 374 H 37.4043 -3.65668 1.56625 0
M  V30 375 H 34.1433 -4.98945 4.25128 0
M  V30 376 H 33.6633 -5.4095 2.591 0
M  V30 377 H 35.3423 -5.66337 3.12845 0
M  V30 378 N 35.4744 -0.807222 -1.35358 0
M  V30 379 C 36.4074 -0.163572 -2.27613 0
M  V30 380 C 37.3854 0.670817 -1.48118 0
M  V30 381 O 38.5694 0.63796 -1.77376 0
M  V30 382 C 35.6964 0.773015 -3.29761 0
M  V30 383 C 34.7424 0.0181653 -4.26496 0
M  V30 384 S 35.5754 -1.31831 -5.19019 0
M  V30 385 C 36.7314 -0.38619 -6.24707 0
M  V30 386 H 36.9644 -0.945757 -2.81856 0
M  V30 387 H 34.4974 -0.602315 -1.42167 0
M  V30 388 H 36.4554 1.30788 -3.89108 0
M  V30 389 H 35.1164 1.52859 -2.74396 0
M  V30 390 H 34.3094 0.729534 -4.98692 0
M  V30 391 H 33.9114 -0.446761 -3.71322 0
M  V30 392 H 36.2034 0.428295 -6.76145 0
M  V30 393 H 37.1464 -1.07736 -6.99856 0
M  V30 394 H 37.5544 0.018398 -5.64497 0
M  V30 395 N 36.9525 1.47285 -0.560781 0
M  V30 396 C 38.2295 1.9558 0.0277798 0
M  V30 397 C 38.6095 1.5034 1.48192 0
M  V30 398 O 37.9575 0.743882 2.16052 0
M  V30 399 C 38.1675 3.48789 -0.121418 0
M  V30 400 C 39.5155 4.24594 0.0220912 0
M  V30 401 O 40.5395 3.56166 -0.0491439 0
M  V30 402 O 39.3985 5.46217 0.175958 0
M  V30 403 H 36.4925 0.824663 0.0621342 0
M  V30 404 H 39.0385 1.5767 -0.627556 0
M  V30 405 H 37.8105 3.74533 -1.13316 0
M  V30 406 H 37.4335 3.93473 0.571366 0
M  V30 407 N 38.4306 0.297415 1.54768 0
M  V30 408 C 39.6766 -0.313376 2.00364 0
M  V30 409 C 40.0096 -1.53815 1.18553 0
M  V30 410 O 39.2846 -1.92739 0.261103 0
M  V30 411 C 39.5676 -0.673525 3.53745 0
M  V30 412 C 39.4206 0.560133 4.46299 0
M  V30 413 C 40.7396 -1.50143 4.13697 0
M  V30 414 H 37.8586 -0.112428 0.728374 0
M  V30 415 H 40.5006 0.4088 1.8555 0
M  V30 416 H 38.6506 -1.28881 3.665 0
M  V30 417 H 40.3226 1.19863 4.45455 0
M  V30 418 H 38.5656 1.19405 4.17043 0
M  V30 419 H 39.2366 0.26405 5.51368 0
M  V30 420 H 41.7126 -0.981588 4.04356 0
M  V30 421 H 40.5886 -1.72221 5.21182 0
M  V30 422 H 40.8496 -2.48952 3.65343 0
M  V30 423 N 39.9087 -1.5758 0.0250728 0
M  V30 424 C 40.8557 -2.09973 -0.958129 0
M  V30 425 C 41.8257 -1.00085 -1.3256 0
M  V30 426 O 43.0107 -1.27481 -1.41962 0
M  V30 427 C 40.1507 -2.62812 -2.2366 0
M  V30 428 C 39.2637 -3.86693 -1.92594 0
M  V30 429 C 38.3987 -4.27941 -3.14707 0
M  V30 430 C 37.4377 -5.44591 -2.79442 0
M  V30 431 N 36.5747 -5.81014 -3.94167 0
M  V30 432 H 41.4147 -2.937 -0.504428 0
M  V30 433 H 38.9517 -1.45172 -0.237392 0
M  V30 434 H 40.9097 -2.91536 -2.98434 0
M  V30 435 H 39.5397 -1.81922 -2.66654 0
M  V30 436 H 38.5917 -3.64723 -1.0808 0
M  V30 437 H 39.9037 -4.71547 -1.62619 0
M  V30 438 H 39.0577 -4.58079 -3.97804 0
M  V30 439 H 37.7967 -3.41845 -3.4784 0
M  V30 440 H 36.8017 -5.1415 -1.94755 0
M  V30 441 H 38.0267 -6.32382 -2.47528 0
M  V30 442 H 35.9727 -4.97874 -4.2715 0
M  V30 443 H 35.8897 -6.60498 -3.67801 0
M  V30 444 H 37.1577 -6.15756 -4.7798 0
M  V30 445 N 41.3868 0.248026 -1.55636 0
M  V30 446 C 42.6118 0.998028 -1.81808 0
M  V30 447 C 43.0368 1.78207 -0.601979 0
M  V30 448 O 42.3948 1.75653 0.448961 0
M  V30 449 C 42.4428 1.9125 -3.05705 0
M  V30 450 O 41.5468 3.00406 -2.82542 0
M  V30 451 H 40.8878 0.284045 -0.600179 0
M  V30 452 H 43.4178 0.269357 -2.02819 0
M  V30 453 H 43.4278 2.32737 -3.35108 0
M  V30 454 H 42.1028 1.33602 -3.93857 0
M  V30 455 H 40.6798 2.63056 -2.64303 0
M  V30 456 N 42.8649 1.48995 0.513639 0
M  V30 457 C 44.1109 1.58076 1.27042 0
M  V30 458 C 44.4439 0.261026 1.92438 0
M  V30 459 O 43.7189 -0.734393 1.80103 0
M  V30 460 C 44.0019 2.73091 2.34719 0
M  V30 461 C 43.8549 4.14821 1.73907 0
M  V30 462 C 45.1739 2.83796 3.36375 0
M  V30 463 H 42.2929 0.575391 0.460536 0
M  V30 464 H 44.9349 1.81232 0.570516 0
M  V30 465 H 43.0849 2.53479 2.94416 0
M  V30 466 H 44.7569 4.45917 1.18135 0
M  V30 467 H 42.9999 4.21058 1.0437 0
M  V30 468 H 43.6709 4.91147 2.51949 0
M  V30 469 H 46.1469 3.01611 2.86653 0
M  V30 470 H 45.0229 3.65971 4.09093 0
M  V30 471 H 45.2839 1.92624 3.9793 0
M  V30 472 N 44.343 -0.763751 1.37857 0
M  V30 473 C 45.253 -1.90817 1.36478 0
M  V30 474 C 46.269 -1.71997 0.263248 0
M  V30 475 O 47.445 -1.95095 0.499979 0
M  V30 476 C 44.51 -3.2605 1.17864 0
M  V30 477 C 43.571 -3.57467 2.3773 0
M  V30 478 C 42.804 -4.86249 2.19995 0
M  V30 479 O 43.027 -5.57884 1.18836 0
M  V30 480 O 41.961 -5.16911 3.08361 0
M  V30 481 H 45.787 -1.94933 2.32884 0
M  V30 482 H 43.372 -0.907619 1.1867 0
M  V30 483 H 45.254 -4.06924 1.09504 0
M  V30 484 H 43.929 -3.22769 0.245372 0
M  V30 485 H 42.836 -2.76796 2.51664 0
M  V30 486 H 44.169 -3.655 3.29652 0
M  V30 487 N 45.8211 -1.22559 -0.990812 0
M  V30 488 C 46.7531 -0.955325 -2.08342 0
M  V30 489 C 47.7661 0.0668408 -1.62663 0
M  V30 490 O 48.9551 -0.167421 -1.77713 0
M  V30 491 C 46.0551 -0.415566 -3.36342 0
M  V30 492 C 45.2281 -1.49544 -4.11042 0
M  V30 493 C 44.2871 -0.962399 -5.17324 0
M  V30 494 O 43.3131 -1.64907 -5.44788 0
M  V30 495 N 44.5151 0.215134 -5.80101 0
M  V30 496 H 47.2801 -1.89596 -2.32106 0
M  V30 497 H 44.8411 -1.13276 -1.15673 0
M  V30 498 H 46.8331 -0.0442386 -4.04676 0
M  V30 499 H 45.4031 0.430232 -3.09625 0
M  V30 500 H 44.6231 -2.04 -3.37309 0
M  V30 501 H 45.9111 -2.22195 -4.57719 0
M  V30 502 H 45.3091 0.789779 -5.6016 0
M  V30 503 H 43.8661 0.527826 -6.49659 0
M  V30 504 N 47.2992 1.18797 -1.03562 0
M  V30 505 C 48.2622 2.20464 -0.626769 0
M  V30 506 C 49.2622 1.57721 0.313173 0
M  V30 507 O 50.4522 1.73917 0.0992615 0
M  V30 508 C 47.5842 3.40802 0.0818498 0
M  V30 509 H 48.7772 2.58149 -1.5264 0
M  V30 510 H 46.3302 1.32593 -0.827578 0
M  V30 511 H 47.0652 3.08642 0.995518 0
M  V30 512 H 46.8502 3.8758 -0.593652 0
M  V30 513 H 48.3402 4.16092 0.354584 0
M  V30 514 N 48.7773 0.814389 1.34928 0
M  V30 515 C 49.7243 0.22822 2.29669 0
M  V30 516 C 50.6943 -0.642164 1.53184 0
M  V30 517 O 51.8793 -0.585605 1.81591 0
M  V30 518 C 49.0193 -0.61089 3.3965 0
M  V30 519 C 48.1323 0.280792 4.31086 0
M  V30 520 C 47.2673 -0.567067 5.28165 0
M  V30 521 C 46.3063 0.324531 6.11239 0
M  V30 522 N 45.4433 -0.483756 7.00431 0
M  V30 523 H 50.2833 1.04153 2.79206 0
M  V30 524 H 47.8203 0.525133 1.37407 0
M  V30 525 H 49.7783 -1.11263 4.0209 0
M  V30 526 H 48.4083 -1.38939 2.91369 0
M  V30 527 H 47.4603 0.900688 3.69583 0
M  V30 528 H 48.7723 0.966723 4.89342 0
M  V30 529 H 47.9263 -1.13363 5.96015 0
M  V30 530 H 46.6653 -1.28654 4.70425 0
M  V30 531 H 45.6703 0.903298 5.42329 0
M  V30 532 H 46.8953 1.04198 6.71059 0
M  V30 533 H 44.8413 -1.18706 6.45171 0
M  V30 534 H 44.7583 0.143965 7.55863 0
M  V30 535 H 46.0263 -1.03334 7.7262 0
M  V30 536 N 50.2554 -1.46986 0.568584 0
M  V30 537 C 51.5044 -2.01646 0.0465894 0
M  V30 538 C 51.8174 -1.44721 -1.31587 0
M  V30 539 O 53.0234 -1.91113 -1.92842 0
M  V30 540 C 51.4794 -3.59885 0.032752 0
M  V30 541 C 51.0874 -4.25804 1.39266 0
M  V30 542 C 52.8314 -4.22255 -0.436038 0
M  V30 543 C 50.7384 -5.76081 1.33732 0
M  V30 544 H 49.6684 -0.753876 0.013647 0
M  V30 545 H 52.3194 -1.68864 0.718131 0
M  V30 546 H 50.7014 -3.8968 -0.704669 0
M  V30 547 H 51.8754 -4.07637 2.1487 0
M  V30 548 H 50.1904 -3.7547 1.80032 0
M  V30 549 H 52.7874 -5.32394 -0.49602 0
M  V30 550 H 53.1304 -3.90212 -1.45053 0
M  V30 551 H 53.6634 -3.97033 0.246877 0
M  V30 552 H 50.4024 -6.12761 2.32817 0
M  V30 553 H 49.9224 -5.96553 0.623267 0
M  V30 554 H 51.6014 -6.38518 1.0442 0
M  V30 555 N 51.7335 -0.305618 -1.54608 0
M  V30 556 C 52.6965 0.555591 -2.22364 0
M  V30 557 C 53.6965 1.05768 -1.21119 0
M  V30 558 O 54.8865 0.952972 -1.45822 0
M  V30 559 C 52.0185 1.76974 -2.91364 0
M  V30 560 H 53.2115 -0.0364572 -2.99878 0
M  V30 561 H 50.7645 -0.0565007 -1.56198 0
M  V30 562 H 51.4995 2.40151 -2.17941 0
M  V30 563 H 51.2845 1.41732 -3.65588 0
M  V30 564 H 52.7745 2.38148 -3.43038 0
M  V30 565 N 53.2116 1.57565 -0.0334293 0
M  V30 566 C 54.1216 2.13943 0.962572 0
M  V30 567 C 55.1376 1.09276 1.35406 0
M  V30 568 O 56.3136 1.41355 1.4346 0
M  V30 569 C 53.3786 2.65887 2.22497 0
M  V30 570 C 52.4396 3.85286 1.8935 0
M  V30 571 C 51.6726 4.34743 3.09571 0
M  V30 572 O 51.8956 3.83352 4.22371 0
M  V30 573 O 50.8296 5.26538 2.91618 0
M  V30 574 H 54.6556 2.99333 0.513169 0
M  V30 575 H 52.2406 1.4822 0.18743 0
M  V30 576 H 54.1226 2.99346 2.96598 0
M  V30 577 H 52.7976 1.83578 2.6661 0
M  V30 578 H 51.7046 3.56746 1.1262 0
M  V30 579 H 53.0376 4.68771 1.5005 0
M  V30 580 N 54.6897 -0.239769 1.55765 0
M  V30 581 C 55.5997 -1.31831 1.94056 0
M  V30 582 C 56.6157 -1.52275 0.841925 0
M  V30 583 O 57.7917 -1.65759 1.14394 0
M  V30 584 C 54.8567 -2.65156 2.23368 0
M  V30 585 C 53.9177 -2.53173 3.46701 0
M  V30 586 C 53.1507 -3.8014 3.74606 0
M  V30 587 O 53.3737 -4.82343 3.04469 0
M  V30 588 O 52.3077 -3.78344 4.68123 0
M  V30 589 H 56.1337 -1.02347 2.85935 0
M  V30 590 H 53.7187 -0.441123 1.42739 0
M  V30 591 H 55.6007 -3.43929 2.43497 0
M  V30 592 H 54.2757 -2.94358 1.34666 0
M  V30 593 H 53.1827 -1.72662 3.31871 0
M  V30 594 H 54.5157 -2.28915 4.35728 0
M  V30 595 N 56.1678 -1.49265 -0.50573 0
M  V30 596 C 57.1308 -1.65075 -1.59006 0
M  V30 597 C 58.1308 -0.522768 -1.52065 0
M  V30 598 O 59.3208 -0.789117 -1.55302 0
M  V30 599 C 56.4528 -1.64369 -2.98656 0
M  V30 600 H 57.6458 -2.61784 -1.46319 0
M  V30 601 H 55.1988 -1.38226 -0.729616 0
M  V30 602 H 55.9338 -0.692272 -3.16825 0
M  V30 603 H 55.7188 -2.46282 -3.05103 0
M  V30 604 H 57.2088 -1.78674 -3.77446 0
M  V30 605 N 57.6459 0.756429 -1.3826 0
M  V30 606 C 58.8939 1.51248 -1.34047 0
M  V30 607 C 59.2149 1.94875 0.0698372 0
M  V30 608 O 58.4849 1.67436 1.01696 0
M  V30 609 H 57.0649 0.561018 -0.493222 0
M  V30 610 H 59.7269 0.899347 -1.7291 0
M  V30 611 H 58.8229 2.40472 -1.98947 0
M  V30 612 N 59.124 1.23083 0.984299 0
M  V30 613 C 60.087 1.00979 2.05757 0
M  V30 614 C 61.087 -0.0269573 1.60777 0
M  V30 615 O 62.277 0.212403 1.729 0
M  V30 616 C 59.409 0.527072 3.36801 0
M  V30 617 H 60.602 1.9622 2.26799 0
M  V30 618 H 58.155 1.05072 1.15714 0
M  V30 619 H 58.89 -0.429294 3.21446 0
M  V30 620 H 58.675 1.27515 3.70786 0
M  V30 621 H 60.165 0.392942 4.15747 0
M  V30 622 N 60.6021 -1.18246 1.0419 0
M  V30 623 C 61.8511 -1.87588 0.741194 0
M  V30 624 C 62.1641 -1.81303 -0.734066 0
M  V30 625 O 63.3701 -2.46019 -1.14834 0
M  V30 626 C 61.8261 -3.36538 1.27555 0
M  V30 627 C 61.4341 -3.51349 2.77953 0
M  V30 628 C 63.1781 -4.11273 1.05143 0
M  V30 629 C 61.0851 -4.94265 3.2474 0
M  V30 630 H 60.0151 -0.702622 0.273565 0
M  V30 631 H 62.6661 -1.33601 1.25789 0
M  V30 632 H 61.0481 -3.9 0.686703 0
M  V30 633 H 62.2221 -3.08153 3.42605 0
M  V30 634 H 60.5371 -2.90022 2.98791 0
M  V30 635 H 63.1341 -5.16689 1.37611 0
M  V30 636 H 63.4771 -4.16298 -0.0112774 0
M  V30 637 H 64.0101 -3.63987 1.60495 0
M  V30 638 H 60.7491 -4.94408 4.30396 0
M  V30 639 H 60.2691 -5.38172 2.64823 0
M  V30 640 H 61.9481 -5.62987 3.18834 0
M  V30 641 N 62.0802 -0.821533 -1.34494 0
M  V30 642 C 63.3282 -0.408139 -1.97936 0
M  V30 643 C 63.6492 1.03193 -1.65457 0
M  V30 644 O 62.9192 1.71622 -0.944595 0
M  V30 645 H 61.4992 -0.147928 -0.732206 0
M  V30 646 H 64.1612 -1.05067 -1.64155 0
M  V30 647 H 63.2572 -0.52601 -3.07635 0
M  V30 648 N 63.5583 1.46682 -0.576371 0
M  V30 649 C 64.8043 2.02712 -0.0596221 0
M  V30 650 C 65.1373 1.44765 1.29448 0
M  V30 651 O 64.4123 0.610355 1.84675 0
M  V30 652 C 64.6953 3.60098 0.0129503 0
M  V30 653 C 64.5483 4.28441 -1.3696 0
M  V30 654 C 65.8673 4.34224 0.71678 0
M  V30 655 H 62.9863 0.736637 -0.0231407 0
M  V30 656 H 65.6283 1.74898 -0.742351 0
M  V30 657 H 63.7783 3.83926 0.594378 0
M  V30 658 H 65.4503 4.15896 -1.9957 0
M  V30 659 H 63.6933 3.8805 -1.93907 0
M  V30 660 H 64.3643 5.3716 -1.27135 0
M  V30 661 H 66.8403 4.15503 0.222908 0
M  V30 662 H 65.7163 5.43936 0.73657 0
M  V30 663 H 65.9773 4.04823 1.77682 0
M  V30 664 N 65.0364 0.313813 1.54444 0
M  V30 665 C 65.9694 -0.598866 2.20202 0
M  V30 666 C 66.9474 -1.12318 1.17573 0
M  V30 667 O 68.1314 -1.18899 1.46271 0
M  V30 668 C 65.2584 -1.82071 2.85601 0
M  V30 669 C 64.3044 -1.42851 4.01865 0
M  V30 670 S 65.1374 -0.473512 5.33402 0
M  V30 671 C 66.2934 -1.70286 6.0229 0
M  V30 672 H 66.5264 -0.0402532 2.97273 0
M  V30 673 H 64.0594 0.0979165 1.54089 0
M  V30 674 H 66.0174 -2.52184 3.23904 0
M  V30 675 H 64.6784 -2.3505 2.08351 0
M  V30 676 H 63.8714 -2.33871 4.46453 0
M  V30 677 H 63.4734 -0.807198 3.65185 0
M  V30 678 H 65.7654 -2.64168 6.23876 0
M  V30 679 H 66.7084 -1.29932 6.96077 0
M  V30 680 H 67.1164 -1.88541 5.32083 0
M  V30 681 N 66.5145 -1.57545 0.0417849 0
M  V30 682 C 67.7605 -1.92601 -0.635021 0
M  V30 683 C 68.0935 -0.919627 -1.71045 0
M  V30 684 O 67.3685 0.0557892 -1.9442 0
M  V30 685 C 67.6515 -3.38085 -1.23979 0
M  V30 686 C 67.5045 -4.49467 -0.173057 0
M  V30 687 C 68.8235 -3.83776 -2.15416 0
M  V30 688 H 65.9425 -0.700397 -0.229374 0
M  V30 689 H 68.5845 -1.89728 0.101633 0
M  V30 690 H 66.7345 -3.40664 -1.86762 0
M  V30 691 H 68.4065 -4.59018 0.458312 0
M  V30 692 H 66.6495 -4.30909 0.499996 0
M  V30 693 H 67.3205 -5.48323 -0.636054 0
M  V30 694 H 69.7965 -3.83013 -1.62605 0
M  V30 695 H 68.6725 -4.8624 -2.54679 0
M  V30 696 H 68.9335 -3.19998 -3.05047 0
M  V30 697 N 67.9926 0.231505 -1.5589 0
M  V30 698 C 68.9226 1.29022 -1.94617 0
M  V30 699 C 69.9036 1.4941 -0.813067 0
M  V30 700 O 71.0886 1.6176 -1.07459 0
M  V30 701 C 68.2186 2.64199 -2.25424 0
M  V30 702 C 67.1726 2.58484 -3.41131 0
M  V30 703 C 66.4986 3.97599 -3.57518 0
M  V30 704 C 67.7986 2.1413 -4.76388 0
M  V30 705 H 69.4926 0.968563 -2.83301 0
M  V30 706 H 67.0386 0.464479 -1.36303 0
M  V30 707 H 68.9916 3.38413 -2.51107 0
M  V30 708 H 67.7156 2.98032 -1.33583 0
M  V30 709 H 66.3746 1.86727 -3.15481 0
M  V30 710 H 66.0226 4.28723 -2.6307 0
M  V30 711 H 65.7226 3.94659 -4.35337 0
M  V30 712 H 67.2466 4.7349 -3.85538 0
M  V30 713 H 68.6606 2.78083 -5.01341 0
M  V30 714 H 67.0576 2.2227 -5.57419 0
M  V30 715 H 68.1276 1.09331 -4.72414 0
M  V30 716 N 69.4707 1.49531 0.497807 0
M  V30 717 C 70.3807 1.69176 1.62532 0
M  V30 718 C 71.3967 0.5744 1.64246 0
M  V30 719 O 72.5727 0.849497 1.82608 0
M  V30 720 C 69.6377 1.75695 2.98885 0
M  V30 721 C 68.6987 2.9929 3.07773 0
M  V30 722 C 67.9317 3.05488 4.37622 0
M  V30 723 O 68.1547 2.19192 5.26603 0
M  V30 724 O 67.0887 3.9798 4.51548 0
M  V30 725 H 70.9147 2.647 1.48887 0
M  V30 726 H 68.4997 1.3331 0.674441 0
M  V30 727 H 70.3817 1.82317 3.79919 0
M  V30 728 H 69.0567 0.8335 3.12785 0
M  V30 729 H 67.9637 2.98183 2.25915 0
M  V30 730 H 69.2967 3.91125 2.98801 0
M  V30 731 N 70.9488 -0.749086 1.3866 0
M  V30 732 C 71.8968 -1.88428 1.36373 0
M  V30 733 C 72.8908 -1.67561 0.248929 0
M  V30 734 O 74.0968 -1.75074 0.41821 0
M  V30 735 H 70.4718 -0.620023 0.42553 0
M  V30 736 H 72.4428 -1.87473 2.32156 0
M  V30 737 C 71.1918 -3.25961 1.21014 0
M  V30 738 H 70.5148 -3.42607 2.06059 0
M  V30 739 H 71.9548 -4.05625 1.23469 0
M  V30 740 C 70.4138 -3.36799 -0.0825941 0
M  V30 741 O 70.9438 -3.87517 -1.05797 0
M  V30 742 N 69.1498 -2.90258 -0.140939 0
M  V30 743 H 68.6968 -2.49174 0.653477 0
M  V30 744 H 68.6548 -2.97889 -1.00545 0
M  V30 745 N 72.4269 -1.23603 -0.977757 0
M  V30 746 C 73.6759 -1.06377 -1.71368 0
M  V30 747 C 73.9889 0.399062 -1.91486 0
M  V30 748 O 75.1949 0.691312 -2.62551 0
M  V30 749 C 73.6509 -1.85512 -3.08404 0
M  V30 750 C 73.2589 -3.36141 -2.96164 0
M  V30 751 C 75.0029 -1.76783 -3.85938 0
M  V30 752 C 72.9099 -4.07659 -4.28449 0
M  V30 753 H 71.8399 -0.394452 -0.642591 0
M  V30 754 H 74.4909 -1.47594 -1.09034 0
M  V30 755 H 72.8729 -1.37103 -3.71509 0
M  V30 756 H 74.0469 -3.92056 -2.42133 0
M  V30 757 H 72.3619 -3.45712 -2.32104 0
M  V30 758 H 74.9589 -2.27526 -4.83876 0
M  V30 759 H 75.3019 -0.731116 -4.0983 0
M  V30 760 H 75.8349 -2.22818 -3.2954 0
M  V30 761 H 72.5739 -5.11648 -4.09752 0
M  V30 762 H 72.0939 -3.5653 -4.82334 0
M  V30 763 H 73.7729 -4.141 -4.97122 0
M  V30 764 N 73.905 1.17692 -1.04816 0
M  V30 765 C 75.316 1.69501 -0.782698 0
M  V30 766 C 75.667 1.83456 0.695577 0
M  V30 767 O 74.792 1.51942 1.54086 0
M  V30 768 C 75.387 3.07874 -1.41419 0
M  V30 769 C 73.946 3.56864 -1.19686 0
M  V30 770 C 73.093 2.3322 -1.50012 0
M  V30 771 H 76.044 1.02262 -1.2136 0
M  V30 772 H 76.065 3.71528 -0.821428 0
M  V30 773 H 75.577 2.97685 -2.49009 0
M  V30 774 H 73.678 3.72337 -0.140043 0
M  V30 775 H 73.791 4.39851 -1.89916 0
M  V30 776 H 72.155 2.37501 -0.920071 0
M  V30 777 H 72.938 2.25644 -2.58727 0
M  V30 778 N 75.3831 0.828654 1.34056 0
M  V30 779 C 76.6081 0.431637 2.02859 0
M  V30 780 C 77.0331 -0.956339 1.61975 0
M  V30 781 O 76.3911 -1.62338 0.807228 0
M  V30 782 C 76.4391 0.548323 3.56407 0
M  V30 783 O 75.5431 -0.429556 4.10157 0
M  V30 784 H 74.8841 0.176886 0.640006 0
M  V30 785 H 77.4141 1.12066 1.71179 0
M  V30 786 H 77.4241 0.426196 4.05768 0
M  V30 787 H 76.0991 1.5606 3.8551 0
M  V30 788 H 74.6761 -0.265836 3.71951 0
M  V30 789 N 76.8612 -1.46375 0.584142 0
M  V30 790 C 77.7712 -2.34115 -0.150728 0
M  V30 791 C 78.7872 -1.49838 -0.884567 0
M  V30 792 O 79.9632 -1.82704 -0.847429 0
M  V30 793 C 77.0282 -3.2705 -1.15062 0
M  V30 794 C 76.0892 -4.27228 -0.421293 0
M  V30 795 C 75.3222 -5.15722 -1.37355 0
M  V30 796 O 75.5452 -5.07176 -2.61014 0
M  V30 797 O 74.4792 -5.95383 -0.883355 0
M  V30 798 H 78.3052 -2.98309 0.569708 0
M  V30 799 H 75.8902 -1.45373 0.344535 0
M  V30 800 H 77.7722 -3.84381 -1.72712 0
M  V30 801 H 76.4472 -2.65451 -1.8525 0
M  V30 802 H 75.3542 -3.7358 0.197085 0
M  V30 803 H 76.6872 -4.91616 0.239641 0
M  V30 804 N 78.3393 -0.321999 -1.54275 0
M  V30 805 C 79.2693 0.537411 -2.27231 0
M  V30 806 C 80.2503 1.12064 -1.27968 0
M  V30 807 O 81.4353 1.14606 -1.56777 0
M  V30 808 C 78.5653 1.69919 -3.02894 0
M  V30 809 C 77.5193 1.24534 -4.09482 0
M  V30 810 C 76.8453 2.49394 -4.72977 0
M  V30 811 C 78.1453 0.361335 -5.21049 0
M  V30 812 H 79.8393 -0.0711406 -2.99315 0
M  V30 813 H 77.3853 -0.0356555 -1.43956 0
M  V30 814 H 79.3383 2.30668 -3.52662 0
M  V30 815 H 78.0623 2.33431 -2.28424 0
M  V30 816 H 76.7213 0.660782 -3.60596 0
M  V30 817 H 76.3693 3.11265 -3.95124 0
M  V30 818 H 76.0693 2.19718 -5.44975 0
M  V30 819 H 77.5933 3.10908 -5.25517 0
M  V30 820 H 79.0073 0.875072 -5.66582 0
M  V30 821 H 77.4043 0.157428 -5.99893 0
M  V30 822 H 78.4743 -0.60822 -4.8107 0
M  V30 823 N 79.8174 1.5752 -0.0501392 0
M  V30 824 C 81.2334 1.56631 0.306402 0
M  V30 825 C 81.4334 1.0577 1.71508 0
M  V30 826 O 80.4894 0.713837 2.422 0
M  V30 827 C 81.8024 3.00393 0.135811 0
M  V30 828 C 83.3504 3.12315 0.206993 0
M  V30 829 C 83.8254 4.57954 0.064944 0
M  V30 830 N 85.3164 4.63041 0.121254 0
M  V30 831 C 86.0514 5.73389 0.0354381 0
M  V30 832 N 85.5474 6.92724 -0.102666 0
M  V30 833 N 87.3404 5.62026 0.090946 0
M  V30 834 H 79.4914 1.88903 -0.971046 0
M  V30 835 H 81.7544 0.869876 -0.376855 0
M  V30 836 H 81.4604 3.41635 -0.835384 0
M  V30 837 H 81.3344 3.66373 0.897275 0
M  V30 838 H 83.7214 2.70973 1.16866 0
M  V30 839 H 83.8024 2.49016 -0.585208 0
M  V30 840 H 83.4464 4.99981 -0.893394 0
M  V30 841 H 83.3764 5.19258 0.876277 0
M  V30 842 H 85.8674 3.77216 0.227284 0
M  V30 843 H 86.1804 7.72633 -0.160882 0
M  V30 844 H 84.5254 6.94864 -0.137737 0
M  V30 845 H 87.7164 4.67684 0.197388 0
M  V30 846 H 87.8894 6.47997 0.0206089 0
M  V30 847 N 81.2955 -0.223234 1.56011 0
M  V30 848 C 82.2435 -1.29627 1.93131 0
M  V30 849 C 83.2375 -1.48608 0.813146 0
M  V30 850 O 84.4435 -1.49802 0.997966 0
M  V30 851 H 80.8185 -0.434563 0.613726 0
M  V30 852 H 82.7895 -0.955995 2.82672 0
M  V30 853 C 81.5385 -2.63983 2.26292 0
M  V30 854 H 80.8615 -2.50185 3.11846 0
M  V30 855 H 82.3015 -3.3788 2.56151 0
M  V30 856 C 80.7605 -3.18866 1.08747 0
M  V30 857 O 81.2905 -4.00192 0.347727 0
M  V30 858 N 79.4965 -2.77217 0.871743 0
M  V30 859 H 79.0435 -2.1119 1.47501 0
M  V30 860 H 79.0015 -3.1428 0.0869905 0
M  V30 861 N 82.7736 -1.49793 -0.48987 0
M  V30 862 C 83.7206 -1.67281 -1.59014 0
M  V30 863 C 84.6906 -0.514177 -1.57941 0
M  V30 864 O 85.8756 -0.742533 -1.75759 0
M  V30 865 C 83.0156 -1.75569 -2.97102 0
M  V30 866 C 82.1286 -3.0281 -3.08107 0
M  V30 867 C 81.2636 -3.02008 -4.36995 0
M  V30 868 C 80.3026 -4.23782 -4.41673 0
M  V30 869 N 79.4396 -4.20826 -5.62005 0
M  V30 870 H 84.2796 -2.61224 -1.43409 0
M  V30 871 H 81.8166 -1.29508 -0.697565 0
M  V30 872 H 83.7746 -1.78354 -3.77155 0
M  V30 873 H 82.4046 -0.850827 -3.11385 0
M  V30 874 H 81.4566 -3.09584 -2.21047 0
M  V30 875 H 82.7686 -3.92801 -3.07423 0
M  V30 876 H 81.9226 -3.03418 -5.25378 0
M  V30 877 H 80.6616 -2.09815 -4.4026 0
M  V30 878 H 79.6666 -4.22604 -3.5169 0
M  V30 879 H 80.8916 -5.17181 -4.40115 0
M  V30 880 H 78.8376 -3.31476 -5.66091 0
M  V30 881 H 78.7546 -5.04564 -5.62984 0
M  V30 882 H 80.0226 -4.26355 -6.52565 0
M  V30 883 N 84.2517 0.741722 -1.39055 0
M  V30 884 C 85.1617 1.88621 -1.39496 0
M  V30 885 C 86.1777 1.71557 -0.290578 0
M  V30 886 O 87.3537 1.94275 -0.530954 0
M  V30 887 C 84.4187 3.24134 -1.23037 0
M  V30 888 C 83.4797 3.5364 -2.43387 0
M  V30 889 C 82.7127 4.82687 -2.27703 0
M  V30 890 O 82.9357 5.55922 -1.27696 0
M  V30 891 O 81.8697 5.1194 -3.16545 0
M  V30 892 H 85.6957 1.91203 -2.35956 0
M  V30 893 H 83.2807 0.888625 -1.20099 0
M  V30 894 H 85.1627 4.0513 -1.15964 0
M  V30 895 H 83.8377 3.22337 -0.296691 0
M  V30 896 H 82.7447 2.72758 -2.56035 0
M  V30 897 H 84.0777 3.60209 -3.35425 0
M  V30 898 N 85.7298 1.2412 0.971189 0
M  V30 899 C 86.9778 1.07668 1.71032 0
M  V30 900 C 87.2988 -0.385797 1.91146 0
M  V30 901 O 86.5688 -1.27569 1.4867 0
M  V30 902 H 85.1488 0.395429 0.633755 0
M  V30 903 H 87.8108 1.55984 1.16855 0
M  V30 904 H 86.9068 1.57195 2.69622 0
M  V30 905 N 87.2079 -1.17134 1.05439 0
M  V30 906 C 88.4539 -1.87733 0.767077 0
M  V30 907 C 88.7869 -1.8098 -0.704253 0
M  V30 908 O 88.0619 -1.21951 -1.5152 0
M  V30 909 C 88.3449 -3.37659 1.25133 0
M  V30 910 C 88.1979 -3.53149 2.78578 0
M  V30 911 C 89.5169 -4.31768 0.852324 0
M  V30 912 H 86.6359 -0.681687 0.280129 0
M  V30 913 H 89.2779 -1.37732 1.30881 0
M  V30 914 H 87.4279 -3.80373 0.790469 0
M  V30 915 H 89.0999 -3.19434 3.32806 0
M  V30 916 H 87.3429 -2.95345 3.17732 0
M  V30 917 H 88.0139 -4.58403 3.07523 0
M  V30 918 H 90.4899 -3.96909 1.24911 0
M  V30 919 H 89.3659 -5.35199 1.21873 0
M  V30 920 H 89.6269 -4.41429 -0.243485 0
M  V30 921 N 88.686 -0.835752 -1.33615 0
M  V30 922 C 89.649 -0.272 -2.2758 0
M  V30 923 C 90.649 0.557487 -1.50827 0
M  V30 924 O 91.839 0.37173 -1.70188 0
M  V30 925 C 88.971 0.617173 -3.35267 0
M  V30 926 H 90.164 -1.10111 -2.78954 0
M  V30 927 H 87.717 -0.608594 -1.43965 0
M  V30 928 H 88.452 1.46884 -2.89129 0
M  V30 929 H 88.237 0.0237066 -3.92093 0
M  V30 930 H 89.727 1.005 -4.05326 0
M  V30 931 N 90.1641 1.46063 -0.591896 0
M  V30 932 C 91.5801 1.57561 -0.254288 0
M  V30 933 C 91.7801 1.58565 1.24336 0
M  V30 934 O 90.8361 1.50753 2.02558 0
M  V30 935 C 92.1491 2.86549 -0.911611 0
M  V30 936 C 93.6971 3.00197 -0.886059 0
M  V30 937 C 94.1721 4.31933 -1.5231 0
M  V30 938 N 95.6631 4.38654 -1.48786 0
M  V30 939 C 96.3981 5.39222 -1.95006 0
M  V30 940 N 95.8941 6.46414 -2.49241 0
M  V30 941 N 97.6871 5.3048 -1.85868 0
M  V30 942 H 89.8381 1.43655 -1.56451 0
M  V30 943 H 92.1011 0.68583 -0.654478 0
M  V30 944 H 91.8071 2.91651 -1.96551 0
M  V30 945 H 91.6811 3.74794 -0.425368 0
M  V30 946 H 94.0681 2.9467 0.159246 0
M  V30 947 H 94.1491 2.13403 -1.41041 0
M  V30 948 H 93.7931 4.38217 -2.56765 0
M  V30 949 H 93.7231 5.17516 -0.973891 0
M  V30 950 H 96.2141 3.61793 -1.09151 0
M  V30 951 H 96.5271 7.19376 -2.82344 0
M  V30 952 H 94.8721 6.47208 -2.53272 0
M  V30 953 H 98.0631 4.45643 -1.43248 0
M  V30 954 H 98.2361 6.08711 -2.22204 0
M  V30 955 N 91.6422 0.330177 1.54103 0
M  V30 956 C 92.8672 -0.274893 2.0557 0
M  V30 957 C 93.2922 -1.44487 1.20437 0
M  V30 958 O 92.6502 -1.80021 0.214991 0
M  V30 959 C 92.6982 -0.68079 3.54115 0
M  V30 960 O 91.8022 -1.7824 3.71893 0
M  V30 961 H 91.1432 -0.0483849 0.662235 0
M  V30 962 H 93.6732 0.480508 1.98878 0
M  V30 963 H 93.6832 -0.961635 3.96505 0
M  V30 964 H 92.3582 0.174903 4.15532 0
M  V30 965 H 90.9352 -1.49985 3.41407 0
M  V30 966 N 93.1203 -1.57491 0.0584922 0
M  V30 967 C 94.3663 -1.93264 -0.614558 0
M  V30 968 C 94.6993 -0.937717 -1.7006 0
M  V30 969 O 93.9743 0.0351652 -1.94468 0
M  V30 970 C 94.2573 -3.3938 -1.20386 0
M  V30 971 C 94.1103 -4.49625 -0.125375 0
M  V30 972 C 95.4293 -3.86039 -2.11334 0
M  V30 973 H 92.5483 -0.702791 -0.221933 0
M  V30 974 H 95.1903 -1.8961 0.12175 0
M  V30 975 H 93.3403 -3.42626 -1.83139 0
M  V30 976 H 95.0123 -4.58506 0.506971 0
M  V30 977 H 93.2553 -4.30354 0.545672 0
M  V30 978 H 93.9263 -5.48967 -0.577861 0
M  V30 979 H 96.4023 -3.84716 -1.58534 0
M  V30 980 H 95.2783 -4.88914 -2.49507 0
M  V30 981 H 95.5393 -3.23215 -3.01636 0
M  V30 982 N 94.5984 0.214957 -1.56127 0
M  V30 983 C 95.8754 0.963093 -1.70247 0
M  V30 984 C 96.2554 2.02166 -0.60764 0
M  V30 985 O 95.6034 2.25244 0.384385 0
M  V30 986 C 95.8134 1.56756 -3.11815 0
M  V30 987 C 97.1614 2.0573 -3.7143 0
M  V30 988 O 98.1854 1.66637 -3.14818 0
M  V30 989 O 97.0444 2.77603 -4.70743 0
M  V30 990 H 94.1384 0.450321 -0.693643 0
M  V30 991 H 96.6844 0.206219 -1.68442 0
M  V30 992 H 95.4564 0.803533 -3.82961 0
M  V30 993 H 95.0794 2.3898 -3.17765 0
M  V30 994 N 96.0765 1.50051 0.48192 0
M  V30 995 C 97.4875 1.5348 1.06305 0
M  V30 996 C 97.8385 0.331997 1.93371 0
M  V30 997 O 96.9635 -0.556256 2.09129 0
M  V30 998 C 97.5585 2.7813 1.93466 0
M  V30 999 C 96.1175 2.84275 2.46707 0
M  V30 1000 C 95.2645 2.47637 1.24785 0
M  V30 1001 H 98.2155 1.56472 0.264995 0
M  V30 1002 H 98.2365 2.59372 2.78399 0
M  V30 1003 H 97.7485 3.65654 1.30072 0
M  V30 1004 H 95.8495 2.01077 3.13686 0
M  V30 1005 H 95.9625 3.8691 2.82555 0
M  V30 1006 H 94.3265 1.99835 1.57918 0
M  V30 1007 H 95.1095 3.37457 0.630694 0
M  V30 1008 N 97.5546 -0.734337 1.39446 0
M  V30 1009 C 98.7796 -1.52866 1.40167 0
M  V30 1010 C 99.2046 -1.881 -0.00171513 0
M  V30 1011 O 98.5626 -1.51957 -0.988879 0
M  V30 1012 C 98.6106 -2.79235 2.28167 0
M  V30 1013 O 97.7146 -3.75185 1.71201 0
M  V30 1014 H 97.0556 -0.461618 0.477289 0
M  V30 1015 H 99.5856 -0.905949 1.8345 0
M  V30 1016 H 99.5956 -3.27963 2.42702 0
M  V30 1017 H 98.2706 -2.52923 3.30156 0
M  V30 1018 H 96.8476 -3.33958 1.65912 0
M  V30 1019 N 99.0327 -1.24633 -0.964593 0
M  V30 1020 C 99.9797 -1.04144 -2.05968 0
M  V30 1021 C 100.95 0.046262 -1.66036 0
M  V30 1022 O 102.135 -0.108972 -1.90489 0
M  V30 1023 C 99.2747 -0.65563 -3.38815 0
M  V30 1024 C 98.3877 -1.81714 -3.91923 0
M  V30 1025 C 97.5227 -1.37662 -5.13052 0
M  V30 1026 C 96.5617 -2.50788 -5.58365 0
M  V30 1027 N 95.6987 -2.07582 -6.70712 0
M  V30 1028 H 100.539 -1.9787 -2.22827 0
M  V30 1029 H 98.0757 -0.9855 -1.09208 0
M  V30 1030 H 100.034 -0.412954 -4.15151 0
M  V30 1031 H 98.6637 0.244627 -3.21872 0
M  V30 1032 H 97.7157 -2.1734 -3.12198 0
M  V30 1033 H 99.0277 -2.66705 -4.21509 0
M  V30 1034 H 98.1817 -1.093 -5.96773 0
M  V30 1035 H 96.9207 -0.497293 -4.85158 0
M  V30 1036 H 95.9257 -2.79906 -4.73215 0
M  V30 1037 H 97.1507 -3.39283 -5.88272 0
M  V30 1038 H 95.0967 -1.22051 -6.44546 0
M  V30 1039 H 95.0137 -2.86125 -6.99763 0
M  V30 1040 H 96.2817 -1.82369 -7.57867 0
M  V30 1041 N 100.511 1.16574 -1.06058 0
M  V30 1042 C 101.757 1.87324 -0.777022 0
M  V30 1043 C 102.09 1.81351 0.694645 0
M  V30 1044 O 101.365 1.22753 1.50871 0
M  V30 1045 C 101.648 3.36991 -1.26922 0
M  V30 1046 C 101.501 3.51667 -2.80447 0
M  V30 1047 C 102.82 4.3131 -0.87521 0
M  V30 1048 H 99.9388 0.680191 -0.28374 0
M  V30 1049 H 102.581 1.37036 -1.3161 0
M  V30 1050 H 100.731 3.79949 -0.81063 0
M  V30 1051 H 102.403 3.17664 -3.34495 0
M  V30 1052 H 100.646 2.93656 -3.19294 0
M  V30 1053 H 101.317 4.56766 -3.0995 0
M  V30 1054 H 103.793 3.9624 -1.27014 0
M  V30 1055 H 102.669 5.34545 -1.2471 0
M  V30 1056 H 102.93 4.41552 0.220071 0
M  V30 1057 N 101.989 0.842826 1.3317 0
M  V30 1058 C 102.899 0.281444 2.32906 0
M  V30 1059 C 103.915 -0.594587 1.63526 0
M  V30 1060 O 105.091 -0.49777 1.95152 0
M  V30 1061 C 102.156 -0.530929 3.42611 0
M  V30 1062 C 101.217 0.369843 4.27704 0
M  V30 1063 C 100.45 -0.403853 5.3217 0
M  V30 1064 O 100.673 -1.63513 5.46461 0
M  V30 1065 O 99.6069 0.224199 6.01482 0
M  V30 1066 H 103.433 1.10744 2.82789 0
M  V30 1067 H 101.018 0.60545 1.36582 0
M  V30 1068 H 102.9 -0.992437 4.09547 0
M  V30 1069 H 101.575 -1.33392 2.94938 0
M  V30 1070 H 100.482 0.879275 3.6362 0
M  V30 1071 H 101.815 1.13771 4.78871 0
M  V30 1072 N 103.467 -1.45747 0.599634 0
M  V30 1073 C 104.377 -2.34262 -0.125888 0
M  V30 1074 C 105.393 -1.50768 -0.868625 0
M  V30 1075 O 106.569 -1.83592 -0.828003 0
M  V30 1076 C 103.634 -3.28252 -1.11587 0
M  V30 1077 C 102.695 -4.27651 -0.375956 0
M  V30 1078 C 101.928 -5.1715 -1.31877 0
M  V30 1079 O 102.151 -5.09916 -2.55621 0
M  V30 1080 O 101.085 -5.96286 -0.820157 0
M  V30 1081 H 104.911 -2.97688 0.601315 0
M  V30 1082 H 102.496 -1.44999 0.359934 0
M  V30 1083 H 104.378 -3.86191 -1.68626 0
M  V30 1084 H 103.053 -2.67401 -1.82424 0
M  V30 1085 H 101.96 -3.7335 0.236698 0
M  V30 1086 H 103.293 -4.91334 0.29177 0
M  V30 1087 N 104.945 -0.338344 -1.53925 0
M  V30 1088 C 106.194 0.260732 -2.00008 0
M  V30 1089 C 106.507 1.52073 -1.23017 0
M  V30 1090 O 107.713 2.19672 -1.5955 0
M  V30 1091 C 106.169 0.51515 -3.56194 0
M  V30 1092 C 105.777 -0.728645 -4.42035 0
M  V30 1093 C 107.521 1.07337 -4.10706 0
M  V30 1094 C 105.428 -0.445315 -5.89721 0
M  V30 1095 H 104.358 0.101205 -0.747177 0
M  V30 1096 H 107.009 -0.452866 -1.77824 0
M  V30 1097 H 105.391 1.28932 -3.74423 0
M  V30 1098 H 106.565 -1.50352 -4.35581 0
M  V30 1099 H 104.88 -1.20813 -3.98489 0
M  V30 1100 H 107.477 1.30022 -5.18651 0
M  V30 1101 H 107.82 2.0273 -3.63602 0
M  V30 1102 H 108.353 0.360034 -3.96167 0
M  V30 1103 H 105.092 -1.36883 -6.41049 0
M  V30 1104 H 104.612 0.291569 -5.99091 0
M  V30 1105 H 106.291 -0.0606218 -6.46972 0
M  V30 1106 N 106.423 1.57458 -0.0668435 0
M  V30 1107 C 107.37 2.12439 0.902122 0
M  V30 1108 C 108.34 1.03565 1.2986 0
M  V30 1109 O 109.525 1.312 1.38532 0
M  V30 1110 C 106.665 2.6865 2.16614 0
M  V30 1111 C 105.778 3.91663 1.82274 0
M  V30 1112 C 104.913 4.36134 3.0325 0
M  V30 1113 C 103.952 5.51808 2.64904 0
M  V30 1114 N 103.089 5.9126 3.78624 0
M  V30 1115 H 107.929 2.94934 0.426382 0
M  V30 1116 H 105.466 1.4575 0.198819 0
M  V30 1117 H 107.424 2.99346 2.90599 0
M  V30 1118 H 106.054 1.88928 2.61737 0
M  V30 1119 H 105.106 3.6746 0.983719 0
M  V30 1120 H 106.418 4.75693 1.50059 0
M  V30 1121 H 105.572 4.68465 3.85519 0
M  V30 1122 H 104.311 3.50948 3.38655 0
M  V30 1123 H 103.316 5.19133 1.81055 0
M  V30 1124 H 104.541 6.38722 2.30675 0
M  V30 1125 H 102.487 5.09024 4.138 0
M  V30 1126 H 102.404 6.70018 3.5016 0
M  V30 1127 H 103.672 6.28212 4.61486 0
M  V30 1128 N 107.901 -0.206675 1.56239 0
M  V30 1129 C 108.848 -1.25617 1.93621 0
M  V30 1130 C 109.818 -1.45824 0.795274 0
M  V30 1131 O 111.003 -1.59148 1.05245 0
M  V30 1132 C 108.143 -2.59839 2.27107 0
M  V30 1133 C 107.256 -2.47308 3.54207 0
M  V30 1134 C 106.391 -3.74155 3.7707 0
M  V30 1135 C 105.43 -3.56407 4.97635 0
M  V30 1136 N 104.567 -4.75238 5.1681 0
M  V30 1137 H 109.407 -0.930383 2.83104 0
M  V30 1138 H 106.944 -0.448065 1.4011 0
M  V30 1139 H 108.902 -3.38021 2.44535 0
M  V30 1140 H 107.532 -2.90485 1.40778 0
M  V30 1141 H 106.584 -1.60483 3.4489 0
M  V30 1142 H 107.896 -2.30122 4.42544 0
M  V30 1143 H 107.05 -4.60778 3.94675 0
M  V30 1144 H 105.789 -3.94282 2.87042 0
M  V30 1145 H 104.794 -2.68168 4.79964 0
M  V30 1146 H 106.019 -3.37736 5.89161 0
M  V30 1147 H 103.965 -4.95651 4.29728 0
M  V30 1148 H 103.882 -4.60835 5.99306 0
M  V30 1149 H 105.15 -5.63246 5.38864 0
M  V30 1150 N 109.379 -1.50304 -0.473955 0
M  V30 1151 C 110.619 -1.62786 -1.23612 0
M  V30 1152 C 110.983 -0.319786 -1.89318 0
M  V30 1153 O 112.184 -0.320012 -2.66888 0
M  V30 1154 C 110.455 -2.77351 -2.25414 0
M  V30 1155 S 112.014 -3.09948 -3.10608 0
M  V30 1156 H 108.832 -0.573895 -0.419721 0
M  V30 1157 H 111.434 -1.88076 -0.533623 0
M  V30 1158 H 110.138 -3.70879 -1.75719 0
M  V30 1159 H 109.669 -2.54137 -3.00296 0
M  V30 1160 H 111.684 -2.53553 -4.26527 0
M  V30 1161 N 110.857 0.726932 -1.39834 0
M  V30 1162 C 112.103 1.48884 -1.377 0
M  V30 1163 C 112.436 1.94185 0.0244852 0
M  V30 1164 O 111.711 1.67361 0.990986 0
M  V30 1165 C 111.994 2.72288 -2.3565 0
M  V30 1166 C 111.847 2.32956 -3.84775 0
M  V30 1167 C 113.166 3.74414 -2.31306 0
M  V30 1168 H 110.285 0.540062 -0.5015 0
M  V30 1169 H 112.927 0.830547 -1.70886 0
M  V30 1170 H 111.077 3.28457 -2.07481 0
M  V30 1171 H 112.749 1.82356 -4.23726 0
M  V30 1172 H 110.992 1.65088 -4.01159 0
M  V30 1173 H 111.663 3.21362 -4.4881 0
M  V30 1174 H 114.139 3.27849 -2.56231 0
M  V30 1175 H 113.015 4.58414 -3.01907 0
M  V30 1176 H 113.276 4.21909 -1.32081 0
M  V30 1177 N 112.336 1.25143 0.95797 0
M  V30 1178 C 113.561 1.12521 1.74223 0
M  V30 1179 C 113.986 -0.317402 1.85403 0
M  V30 1180 O 113.344 -1.2299 1.33204 0
M  V30 1181 C 113.392 1.78062 3.1357 0
M  V30 1182 O 112.496 1.058 3.98598 0
M  V30 1183 H 111.837 0.39304 0.535178 0
M  V30 1184 H 114.367 1.65641 1.201 0
M  V30 1185 H 114.377 1.84213 3.64046 0
M  V30 1186 H 113.052 2.83021 3.04749 0
M  V30 1187 H 111.629 1.07506 3.57067 0
M  V30 1188 N 113.814 -1.1601 1.06675 0
M  V30 1189 C 115.063 -1.85973 0.780818 0
M  V30 1190 C 115.376 -1.82819 -0.695444 0
M  V30 1191 O 116.582 -2.484 -1.09589 0
M  V30 1192 C 115.038 -3.33757 1.34665 0
M  V30 1193 C 114.646 -3.45374 2.85343 0
M  V30 1194 C 116.39 -4.0895 1.13843 0
M  V30 1195 C 114.297 -4.87266 3.35151 0
M  V30 1196 H 113.227 -0.696661 0.288407 0
M  V30 1197 H 115.878 -1.30903 1.28595 0
M  V30 1198 H 114.26 -3.88456 0.769274 0
M  V30 1199 H 115.434 -3.00816 3.49065 0
M  V30 1200 H 113.749 -2.83619 3.04876 0
M  V30 1201 H 116.346 -5.13654 1.4854 0
M  V30 1202 H 116.689 -4.16229 0.0770282 0
M  V30 1203 H 117.222 -3.605 1.68179 0
M  V30 1204 H 113.961 -4.85168 4.40786 0
M  V30 1205 H 113.481 -5.32433 2.76179 0
M  V30 1206 H 115.16 -5.56097 3.30704 0
M  V30 1207 N 115.292 -0.849877 -1.32721 0
M  V30 1208 C 116.24 -0.279745 -2.30912 0
M  V30 1209 C 117.234 0.594278 -1.58634 0
M  V30 1210 O 118.44 0.482613 -1.73409 0
M  V30 1211 H 114.815 -0.0717521 -0.748569 0
M  V30 1212 H 116.786 -1.12222 -2.76494 0
M  V30 1213 C 115.535 0.521108 -3.43773 0
M  V30 1214 H 114.858 -0.142141 -3.99547 0
M  V30 1215 H 116.298 0.885693 -4.14646 0
M  V30 1216 C 114.757 1.70442 -2.90605 0
M  V30 1217 O 115.287 2.8034 -2.87702 0
M  V30 1218 N 113.493 1.52991 -2.47067 0
M  V30 1219 H 113.04 0.635914 -2.49628 0
M  V30 1220 H 112.998 2.32311 -2.11847 0
M  V30 1221 N 116.77 1.45427 -0.607355 0
M  V30 1222 C 118.016 2.0254 -0.102607 0
M  V30 1223 C 118.349 1.47478 1.26348 0
M  V30 1224 O 117.624 0.64939 1.83339 0
M  V30 1225 C 117.907 3.60044 -0.0634347 0
M  V30 1226 C 117.76 4.2544 -1.46017 0
M  V30 1227 C 119.079 4.35646 0.624514 0
M  V30 1228 H 116.198 0.73598 -0.0387607 0
M  V30 1229 H 118.84 1.73284 -0.779282 0
M  V30 1230 H 116.99 3.85101 0.512808 0
M  V30 1231 H 118.662 4.11569 -2.08347 0
M  V30 1232 H 116.905 3.83849 -2.02094 0
M  V30 1233 H 117.576 5.34342 -1.385 0
M  V30 1234 H 120.052 4.15882 0.134723 0
M  V30 1235 H 118.928 5.45376 0.621028 0
M  V30 1236 H 119.189 4.08501 1.69055 0
M  V30 1237 N 118.248 0.346503 1.53744 0
M  V30 1238 C 119.178 -0.501193 2.28058 0
M  V30 1239 C 120.159 -1.10014 1.29734 0
M  V30 1240 O 121.344 -1.12097 1.58581 0
M  V30 1241 C 118.474 -1.65078 3.05559 0
M  V30 1242 C 117.428 -1.18003 4.11411 0
M  V30 1243 C 116.754 -2.41837 4.76884 0
M  V30 1244 C 118.054 -0.278394 5.21558 0
M  V30 1245 H 119.748 0.11875 2.99164 0
M  V30 1246 H 117.294 0.0585531 1.43881 0
M  V30 1247 H 119.247 -2.25028 3.56287 0
M  V30 1248 H 117.971 -2.29767 2.32109 0
M  V30 1249 H 116.63 -0.603331 3.61601 0
M  V30 1250 H 116.278 -3.0494 4.00026 0
M  V30 1251 H 115.978 -2.1102 5.48402 0
M  V30 1252 H 117.502 -3.02508 5.30397 0
M  V30 1253 H 118.916 -0.784823 5.67903 0
M  V30 1254 H 117.313 -0.0619707 6.00068 0
M  V30 1255 H 118.383 0.684677 4.80042 0
M  V30 1256 N 119.726 -1.57421 0.075193 0
M  V30 1257 C 120.689 -2.11791 -0.876203 0
M  V30 1258 C 121.689 -1.04268 -1.22412 0
M  V30 1259 O 122.879 -1.30242 -1.15684 0
M  V30 1260 C 120.011 -2.62207 -2.17854 0
M  V30 1261 H 121.204 -2.9716 -0.40444 0
M  V30 1262 H 118.757 -1.55333 -0.173557 0
M  V30 1263 H 119.492 -1.803 -2.6956 0
M  V30 1264 H 119.277 -3.40802 -1.93897 0
M  V30 1265 H 120.767 -3.04335 -2.85955 0
M  V30 1266 N 121.204 0.198386 -1.56346 0
M  V30 1267 C 122.151 1.24589 -1.94284 0
M  V30 1268 C 123.121 1.454 -0.802997 0
M  V30 1269 O 124.306 1.58588 -1.06087 0
M  V30 1270 C 121.446 2.58631 -2.28482 0
M  V30 1271 C 120.559 2.45426 -3.55514 0
M  V30 1272 C 119.694 3.7215 -3.79049 0
M  V30 1273 C 118.733 3.53763 -4.99518 0
M  V30 1274 N 117.87 4.72491 -5.19323 0
M  V30 1275 H 122.71 0.915356 -2.83593 0
M  V30 1276 H 120.247 0.440629 -1.40346 0
M  V30 1277 H 122.205 3.3672 -2.46324 0
M  V30 1278 H 120.835 2.89734 -1.42317 0
M  V30 1279 H 119.887 1.58652 -3.45737 0
M  V30 1280 H 121.199 2.27772 -4.43758 0
M  V30 1281 H 120.353 4.58679 -3.97113 0
M  V30 1282 H 119.092 3.92754 -2.89129 0
M  V30 1283 H 118.097 2.65619 -4.8138 0
M  V30 1284 H 119.322 3.34607 -5.90944 0
M  V30 1285 H 117.268 4.93365 -4.3235 0
M  V30 1286 H 117.185 4.5765 -6.01741 0
M  V30 1287 H 118.453 5.6038 -5.41843 0
M  V30 1288 N 122.682 1.50554 0.465978 0
M  V30 1289 C 123.928 1.62038 1.21949 0
M  V30 1290 C 124.261 0.322116 1.9151 0
M  V30 1291 O 123.536 -0.676723 1.82348 0
M  V30 1292 C 123.819 2.80421 2.25912 0
M  V30 1293 C 123.672 4.20144 1.60622 0
M  V30 1294 C 124.991 2.94354 3.27176 0
M  V30 1295 H 122.11 0.589752 0.441998 0
M  V30 1296 H 124.752 1.82956 0.51257 0
M  V30 1297 H 122.902 2.62717 2.86203 0
M  V30 1298 H 124.574 4.49449 1.03889 0
M  V30 1299 H 122.817 4.24165 0.909211 0
M  V30 1300 H 123.488 4.98914 2.36196 0
M  V30 1301 H 125.964 3.10578 2.76913 0
M  V30 1302 H 124.84 3.788 3.97242 0
M  V30 1303 H 125.101 2.05186 3.916 0
M  V30 1304 N 124.16 -0.719506 1.40217 0
M  V30 1305 C 125.576 -1.02707 1.22161 0
M  V30 1306 C 125.776 -2.0128 0.0940557 0
M  V30 1307 O 124.832 -2.46452 -0.549318 0
M  V30 1308 C 126.145 -1.57454 2.56181 0
M  V30 1309 C 127.693 -1.69458 2.63159 0
M  V30 1310 C 128.168 -2.27611 3.97438 0
M  V30 1311 N 129.659 -2.35002 3.99159 0
M  V30 1312 C 130.394 -2.80972 4.99842 0
M  V30 1313 N 129.89 -3.26723 6.10921 0
M  V30 1314 N 131.683 -2.80321 4.87213 0
M  V30 1315 H 123.834 -0.0660492 2.12297 0
M  V30 1316 H 126.097 -0.0919077 0.943534 0
M  V30 1317 H 125.803 -0.924873 3.39321 0
M  V30 1318 H 125.677 -2.56036 2.76993 0
M  V30 1319 H 128.064 -2.33543 1.80393 0
M  V30 1320 H 128.145 -0.694867 2.46181 0
M  V30 1321 H 127.789 -1.6415 4.80643 0
M  V30 1322 H 127.719 -3.2829 4.11744 0
M  V30 1323 H 130.21 -2.02685 3.18947 0
M  V30 1324 H 130.523 -3.60355 6.8364 0
M  V30 1325 H 128.868 -3.24692 6.14492 0
M  V30 1326 H 132.059 -2.43912 3.9953 0
M  V30 1327 H 132.232 -3.15831 5.65822 0
M  V30 1328 N 125.638 -1.25649 -0.95132 0
M  V30 1329 C 126.887 -1.09988 -1.69073 0
M  V30 1330 C 127.2 0.358355 -1.92289 0
M  V30 1331 O 128.406 0.635466 -2.63958 0
M  V30 1332 C 126.862 -1.92012 -3.044 0
M  V30 1333 C 126.47 -3.42347 -2.88968 0
M  V30 1334 C 128.214 -1.8493 -3.82101 0
M  V30 1335 C 126.121 -4.16655 -4.19705 0
M  V30 1336 H 125.051 -0.407993 -0.63408 0
M  V30 1337 H 127.702 -1.49873 -1.05879 0
M  V30 1338 H 126.084 -1.44952 -3.68517 0
M  V30 1339 H 127.258 -3.97104 -2.33762 0
M  V30 1340 H 125.573 -3.50557 -2.24719 0
M  V30 1341 H 128.17 -2.37739 -4.78941 0
M  V30 1342 H 128.513 -0.817883 -4.08187 0
M  V30 1343 H 129.046 -2.29758 -3.2474 0
M  V30 1344 H 125.785 -5.20224 -3.98807 0
M  V30 1345 H 125.305 -3.66681 -4.74663 0
M  V30 1346 H 126.984 -4.24551 -4.88227 0
M  V30 1347 N 127.117 1.15442 -1.07289 0
M  V30 1348 C 128.365 1.85845 -0.794096 0
M  V30 1349 C 128.686 1.82692 0.681809 0
M  V30 1350 O 127.956 1.26741 1.49377 0
M  V30 1351 H 126.536 0.688089 -0.290763 0
M  V30 1352 H 129.198 1.39947 -1.3565 0
M  V30 1353 H 128.294 2.91001 -1.12804 0
M  V30 1354 N 128.595 0.856903 1.32268 0
M  V30 1355 C 129.545 0.274899 2.26337 0
M  V30 1356 C 130.529 -0.580543 1.50062 0
M  V30 1357 O 131.721 -0.429559 1.71708 0
M  V30 1358 C 128.85 -0.533841 3.39124 0
M  V30 1359 C 127.936 0.334114 4.22782 0
M  V30 1360 N 128.327 1.42143 4.85416 0
M  V30 1361 C 126.625 0.124256 4.45827 0
M  V30 1362 C 127.326 1.95559 5.47843 0
M  V30 1363 N 126.302 1.25444 5.28928 0
M  V30 1364 H 130.104 1.10612 2.72291 0
M  V30 1365 H 127.618 0.703258 1.46383 0
M  V30 1366 H 129.615 -0.96722 4.05525 0
M  V30 1367 H 128.275 -1.36283 2.94715 0
M  V30 1368 H 129.286 1.80436 4.85451 0
M  V30 1369 H 125.963 -0.669837 4.12092 0
M  V30 1370 H 127.353 2.86714 6.07655 0
M  V30 1371 N 130.073 -1.45103 0.615059 0
M  V30 1372 C 131.32 -2.02183 0.113179 0
M  V30 1373 C 131.648 -1.48249 -1.25906 0
M  V30 1374 O 130.903 -0.650265 -1.84581 0
M  V30 1375 C 131.202 -3.57386 0.0318797 0
M  V30 1376 C 130.868 -4.30505 1.34077 0
M  V30 1377 C 129.53 -4.50197 1.69929 0
M  V30 1378 C 131.882 -4.72238 2.20546 0
M  V30 1379 C 129.21 -5.08881 2.91988 0
M  V30 1380 C 131.562 -5.32272 3.41861 0
M  V30 1381 C 130.226 -5.50187 3.77956 0
M  V30 1382 H 129.496 -0.739842 0.0414151 0
M  V30 1383 H 132.143 -1.74073 0.798168 0
M  V30 1384 H 130.448 -3.84817 -0.736409 0
M  V30 1385 H 132.145 -3.99264 -0.372712 0
M  V30 1386 H 128.735 -4.15496 1.05173 0
M  V30 1387 H 132.919 -4.56751 1.94146 0
M  V30 1388 H 128.175 -5.20939 3.2005 0
M  V30 1389 H 132.349 -5.63563 4.09109 0
M  V30 1390 H 129.976 -5.95427 4.72622 0
M  V30 1391 N 131.551 -0.354651 -1.53558 0
M  V30 1392 C 132.797 0.238797 -2.01389 0
M  V30 1393 C 133.13 1.49309 -1.2418 0
M  V30 1394 O 132.405 1.91638 -0.332457 0
M  V30 1395 C 132.688 0.541771 -3.56001 0
M  V30 1396 C 132.541 -0.725388 -4.43912 0
M  V30 1397 C 133.86 1.34685 -4.18984 0
M  V30 1398 H 130.979 0.0853177 -0.732045 0
M  V30 1399 H 133.621 -0.477384 -1.83905 0
M  V30 1400 H 131.771 1.15189 -3.71031 0
M  V30 1401 H 133.443 -1.36313 -4.407 0
M  V30 1402 H 131.686 -1.34801 -4.12324 0
M  V30 1403 H 132.357 -0.468505 -5.50008 0
M  V30 1404 H 134.833 0.830837 -4.07721 0
M  V30 1405 H 133.709 1.52759 -5.27215 0
M  V30 1406 H 133.97 2.35221 -3.74331 0
M  V30 1407 N 133.029 1.57378 -0.0835403 0
M  V30 1408 C 133.939 2.16897 0.894021 0
M  V30 1409 C 134.955 1.13528 1.31861 0
M  V30 1410 O 136.131 1.45848 1.3889 0
M  V30 1411 C 133.196 2.72831 2.13925 0
M  V30 1412 C 132.257 3.91115 1.76997 0
M  V30 1413 C 131.49 4.44371 2.95584 0
M  V30 1414 O 131.713 3.96596 4.09961 0
M  V30 1415 O 130.647 5.35549 2.74719 0
M  V30 1416 H 134.473 3.00814 0.417679 0
M  V30 1417 H 132.058 1.48741 0.140181 0
M  V30 1418 H 133.94 3.0863 2.86924 0
M  V30 1419 H 132.615 1.91967 2.60635 0
M  V30 1420 H 131.522 3.60148 1.01214 0
M  V30 1421 H 132.855 4.73307 1.3506 0
M  V30 1422 N 134.507 -0.190092 1.56449 0
M  V30 1423 C 135.47 -1.21925 1.9408 0
M  V30 1424 C 136.47 -1.38176 0.822431 0
M  V30 1425 O 137.66 -1.35903 1.08977 0
M  V30 1426 C 134.792 -2.58773 2.21922 0
M  V30 1427 H 135.985 -0.897464 2.86157 0
M  V30 1428 H 133.538 -0.43181 1.50217 0
M  V30 1429 H 134.273 -2.95998 1.32499 0
M  V30 1430 H 134.058 -2.48348 3.03424 0
M  V30 1431 H 135.548 -3.32978 2.52022 0
M  V30 1432 N 135.985 -1.50799 -0.457987 0
M  V30 1433 C 136.917 -1.66786 -1.57211 0
M  V30 1434 C 137.93 -0.548962 -1.53265 0
M  V30 1435 O 139.119 -0.8226 -1.58416 0
M  V30 1436 C 136.219 -1.64834 -2.96113 0
M  V30 1437 C 135.392 -2.92971 -3.24787 0
M  V30 1438 C 134.451 -2.83485 -4.43309 0
M  V30 1439 O 133.477 -3.5744 -4.42973 0
M  V30 1440 N 134.679 -1.97929 -5.45714 0
M  V30 1441 H 137.444 -2.62889 -1.43909 0
M  V30 1442 H 135.005 -1.48427 -0.646617 0
M  V30 1443 H 136.997 -1.56084 -3.7339 0
M  V30 1444 H 135.567 -0.764118 -3.03117 0
M  V30 1445 H 134.787 -3.15749 -2.36 0
M  V30 1446 H 136.075 -3.77834 -3.40762 0
M  V30 1447 H 135.473 -1.37182 -5.48815 0
M  V30 1448 H 134.03 -1.95073 -6.21924 0
M  V30 1449 N 137.463 0.71206 -1.40597 0
M  V30 1450 C 138.712 1.46754 -1.38369 0
M  V30 1451 C 139.025 1.95598 0.0097839 0
M  V30 1452 O 140.231 2.71059 0.154677 0
M  V30 1453 C 138.687 2.65289 -2.43207 0
M  V30 1454 C 138.295 2.23301 -3.88382 0
M  V30 1455 C 140.039 3.43008 -2.50091 0
M  V30 1456 C 137.946 3.38696 -4.84808 0
M  V30 1457 H 136.876 0.55118 -0.514506 0
M  V30 1458 H 139.527 0.774616 -1.66349 0
M  V30 1459 H 137.909 3.36769 -2.08332 0
M  V30 1460 H 139.083 1.59218 -4.32419 0
M  V30 1461 H 137.398 1.58618 -3.85006 0
M  V30 1462 H 139.995 4.28881 -3.1932 0
M  V30 1463 H 140.338 3.87065 -1.53253 0
M  V30 1464 H 140.871 2.78574 -2.83974 0
M  V30 1465 H 137.61 2.99668 -5.82992 0
M  V30 1466 H 137.13 4.01683 -4.45433 0
M  V30 1467 H 138.809 4.04712 -5.04794 0
M  V30 1468 N 138.941 1.26152 0.944643 0
M  V30 1469 C 139.871 1.09902 2.06019 0
M  V30 1470 C 140.852 0.00519538 1.70099 0
M  V30 1471 O 142.037 0.176583 1.93396 0
M  V30 1472 C 139.167 0.727562 3.39594 0
M  V30 1473 C 138.121 1.77274 3.89561 0
M  V30 1474 C 137.447 1.25569 5.19747 0
M  V30 1475 C 138.747 3.17357 4.14827 0
M  V30 1476 H 140.441 2.03217 2.19871 0
M  V30 1477 H 137.987 0.978452 1.05652 0
M  V30 1478 H 139.94 0.600777 4.17095 0
M  V30 1479 H 138.664 -0.241287 3.25707 0
M  V30 1480 H 137.323 1.88814 3.14237 0
M  V30 1481 H 136.971 0.276783 5.02238 0
M  V30 1482 H 136.671 1.95433 5.54148 0
M  V30 1483 H 138.195 1.1415 5.99835 0
M  V30 1484 H 139.609 3.08914 4.82954 0
M  V30 1485 H 138.006 3.84781 4.60504 0
M  V30 1486 H 139.076 3.63673 3.20734 0
M  V30 1487 N 140.419 -1.14872 1.07899 0
M  V30 1488 C 141.329 -2.2341 0.715915 0
M  V30 1489 C 142.345 -1.71808 -0.275306 0
M  V30 1490 O 143.521 -2.01039 -0.120545 0
M  V30 1491 C 140.586 -3.46474 0.125168 0
M  V30 1492 C 139.647 -4.13039 1.17034 0
M  V30 1493 C 138.88 -5.30229 0.607688 0
M  V30 1494 O 139.103 -5.675 -0.574497 0
M  V30 1495 O 138.037 -5.86444 1.35526 0
M  V30 1496 H 141.863 -2.56808 1.62121 0
M  V30 1497 H 139.448 -1.22702 0.852322 0
M  V30 1498 H 141.33 -4.20917 -0.201729 0
M  V30 1499 H 140.005 -3.14811 -0.753364 0
M  V30 1500 H 138.912 -3.40493 1.54968 0
M  V30 1501 H 140.245 -4.48796 2.02097 0
M  V30 1502 N 141.898 -0.863906 -1.31812 0
M  V30 1503 C 142.808 -0.318461 -2.32428 0
M  V30 1504 C 143.824 0.568496 -1.64451 0
M  V30 1505 O 145 0.46666 -1.95919 0
M  V30 1506 C 142.065 0.476355 -3.43412 0
M  V30 1507 C 141.126 -0.43784 -4.27061 0
M  V30 1508 C 140.359 0.319138 -5.32745 0
M  V30 1509 O 140.582 1.54799 -5.48993 0
M  V30 1510 O 139.516 -0.319861 -6.01049 0
M  V30 1511 H 143.342 -1.15229 -2.80991 0
M  V30 1512 H 140.927 -0.627103 -1.35602 0
M  V30 1513 H 142.809 0.927156 -4.11074 0
M  V30 1514 H 141.484 1.28683 -2.97022 0
M  V30 1515 H 140.391 -0.937013 -3.62175 0
M  V30 1516 H 141.724 -1.21375 -4.77 0
M  V30 1517 N 143.376 1.44774 -0.622745 0
M  V30 1518 C 144.306 2.33382 0.0741861 0
M  V30 1519 C 145.287 1.47719 0.843387 0
M  V30 1520 O 146.472 1.76458 0.810934 0
M  V30 1521 C 143.602 3.30663 1.06204 0
M  V30 1522 C 142.556 4.26079 0.405037 0
M  V30 1523 C 141.882 5.13165 1.5022 0
M  V30 1524 C 143.182 5.1781 -0.683414 0
M  V30 1525 H 144.876 2.91905 -0.665713 0
M  V30 1526 H 142.422 1.40363 -0.321587 0
M  V30 1527 H 144.375 3.9153 1.55827 0
M  V30 1528 H 143.099 2.70331 1.83272 0
M  V30 1529 H 141.758 3.66532 -0.0704683 0
M  V30 1530 H 141.406 4.49191 2.26355 0
M  V30 1531 H 141.106 5.77812 1.06803 0
M  V30 1532 H 142.63 5.76902 2.00041 0
M  V30 1533 H 144.044 5.72661 -0.270631 0
M  V30 1534 H 142.441 5.91015 -1.04023 0
M  V30 1535 H 143.511 4.59326 -1.55395 0
M  V30 1536 N 144.854 0.36279 1.53368 0
M  V30 1537 C 145.801 -0.485008 2.25646 0
M  V30 1538 C 146.771 -1.07982 1.2621 0
M  V30 1539 O 147.956 -1.11284 1.54986 0
M  V30 1540 C 145.096 -1.62023 3.04701 0
M  V30 1541 C 144.209 -1.05086 4.19024 0
M  V30 1542 C 143.344 -2.15496 4.85525 0
M  V30 1543 C 142.383 -1.5601 5.91884 0
M  V30 1544 N 141.52 -2.60241 6.52088 0
M  V30 1545 H 146.36 0.137864 2.97681 0
M  V30 1546 H 143.897 0.0798061 1.46883 0
M  V30 1547 H 145.855 -2.28887 3.48807 0
M  V30 1548 H 144.485 -2.2138 2.34927 0
M  V30 1549 H 143.537 -0.27259 3.79422 0
M  V30 1550 H 144.849 -0.575926 4.95464 0
M  V30 1551 H 144.003 -2.90186 5.32801 0
M  V30 1552 H 142.742 -2.66341 4.08551 0
M  V30 1553 H 141.747 -0.798338 5.43973 0
M  V30 1554 H 142.972 -1.05994 6.70777 0
M  V30 1555 H 140.918 -3.10304 5.77968 0
M  V30 1556 H 140.835 -2.17426 7.24059 0
M  V30 1557 H 142.103 -3.34641 7.04014 0
M  V30 1558 N 146.332 -1.57332 0.0918853 0
M  V30 1559 C 147.581 -1.93412 -0.572249 0
M  V30 1560 C 147.894 -0.975515 -1.69538 0
M  V30 1561 O 149.1 -1.22991 -2.42045 0
M  V30 1562 C 147.556 -3.43648 -1.0693 0
M  V30 1563 C 147.164 -4.47994 0.0239049 0
M  V30 1564 C 148.908 -3.88695 -1.70635 0
M  V30 1565 C 146.815 -5.89381 -0.488319 0
M  V30 1566 H 145.745 -0.721939 -0.217532 0
M  V30 1567 H 148.396 -1.82735 0.167369 0
M  V30 1568 H 146.778 -3.49466 -1.8625 0
M  V30 1569 H 147.952 -4.53815 0.799277 0
M  V30 1570 H 146.267 -4.12536 0.565946 0
M  V30 1571 H 148.864 -4.91725 -2.10025 0
M  V30 1572 H 149.207 -3.27166 -2.57426 0
M  V30 1573 H 149.74 -3.85564 -0.979023 0
M  V30 1574 H 146.479 -6.54602 0.342906 0
M  V30 1575 H 145.999 -5.87037 -1.23077 0
M  V30 1576 H 147.678 -6.39863 -0.958317 0
M  V30 1577 N 147.81 0.181792 -1.56548 0
M  V30 1578 C 149.087 0.926765 -1.72251 0
M  V30 1579 C 149.467 2.00831 -0.650386 0
M  V30 1580 O 148.815 2.26008 0.336521 0
M  V30 1581 C 149.025 1.50106 -3.1507 0
M  V30 1582 C 150.373 1.97805 -3.75711 0
M  V30 1583 O 151.397 1.59922 -3.18282 0
M  V30 1584 O 150.256 2.67555 -4.76525 0
M  V30 1585 H 147.35 0.435506 -0.703039 0
M  V30 1586 H 149.896 0.170443 -1.68842 0
M  V30 1587 H 148.668 0.72212 -3.84579 0
M  V30 1588 H 148.291 2.32186 -3.22763 0
M  V30 1589 N 149.288 1.51039 0.449983 0
M  V30 1590 C 150.221 1.66105 1.56474 0
M  V30 1591 C 151.199 0.508776 1.54435 0
M  V30 1592 O 152.383 0.731005 1.73749 0
M  V30 1593 C 149.51 1.66304 2.9506 0
M  V30 1594 C 148.556 2.87346 3.15174 0
M  V30 1595 S 149.389 4.4835 2.92818 0
M  V30 1596 C 150.545 4.51274 4.33708 0
M  V30 1597 H 150.778 2.60397 1.43459 0
M  V30 1598 H 148.311 1.40565 0.638805 0
M  V30 1599 H 150.269 1.67103 3.74949 0
M  V30 1600 H 148.93 0.732108 3.05449 0
M  V30 1601 H 148.123 2.83849 4.16468 0
M  V30 1602 H 147.725 2.84223 2.43091 0
M  V30 1603 H 150.017 4.26136 5.26701 0
M  V30 1604 H 150.96 5.53017 4.42242 0
M  V30 1605 H 151.368 3.80738 4.16772 0
M  V30 1606 N 150.766 -0.704594 1.40972 0
M  V30 1607 C 152.015 -1.46018 1.39146 0
M  V30 1608 C 152.328 -1.956 0.000589254 0
M  V30 1609 O 153.534 -2.71137 -0.1403 0
M  V30 1610 C 151.99 -2.63996 2.4461 0
M  V30 1611 C 151.598 -2.21238 3.89561 0
M  V30 1612 C 153.342 -3.41677 2.51907 0
M  V30 1613 C 151.249 -3.3612 4.86598 0
M  V30 1614 H 150.179 -0.548444 0.517422 0
M  V30 1615 H 152.83 -0.765784 1.66757 0
M  V30 1616 H 151.212 -3.3566 2.10115 0
M  V30 1617 H 152.386 -1.56923 4.33257 0
M  V30 1618 H 150.701 -1.56574 3.85841 0
M  V30 1619 H 153.298 -4.27182 3.2159 0
M  V30 1620 H 153.641 -3.86247 1.55303 0
M  V30 1621 H 154.174 -2.77064 2.85448 0
M  V30 1622 H 150.913 -2.96572 5.84573 0
M  V30 1623 H 150.433 -3.99315 4.47557 0
M  V30 1624 H 152.112 -4.02029 5.06934 0
M  V30 1625 N 152.244 -1.26651 -0.937939 0
M  V30 1626 C 153.521 -1.0313 -1.66204 0
M  V30 1627 C 153.901 0.437256 -2.06522 0
M  V30 1628 O 153.249 1.41831 -1.79154 0
M  V30 1629 C 153.459 -1.98314 -2.87181 0
M  V30 1630 C 154.807 -2.27107 -3.58758 0
M  V30 1631 O 155.831 -1.96205 -2.97291 0
M  V30 1632 O 154.69 -2.79736 -4.69479 0
M  V30 1633 H 151.784 -0.392384 -0.727986 0
M  V30 1634 H 154.33 -1.37874 -0.989382 0
M  V30 1635 H 153.102 -2.97399 -2.54302 0
M  V30 1636 H 152.725 -1.64068 -3.6217 0
M  V30 1637 N 153.722 1.14298 -1.08507 0
M  V30 1638 C 154.632 2.23027 -0.727753 0
M  V30 1639 C 155.648 1.71952 0.26619 0
M  V30 1640 O 156.824 2.011 0.109882 0
M  V30 1641 C 153.889 3.46403 -0.143541 0
M  V30 1642 C 152.95 4.12413 -1.19223 0
M  V30 1643 C 152.183 5.29899 -0.635798 0
M  V30 1644 O 152.406 5.67796 0.544393 0
M  V30 1645 O 151.34 5.85717 -1.38634 0
M  V30 1646 H 155.166 2.55945 -1.63481 0
M  V30 1647 H 152.751 1.22248 -0.858817 0
M  V30 1648 H 154.633 4.21018 0.179404 0
M  V30 1649 H 153.308 3.15206 0.736659 0
M  V30 1650 H 152.215 3.39667 -1.56772 0
M  V30 1651 H 153.548 4.47718 -2.04474 0
M  V30 1652 N 155.201 0.870884 1.31352 0
M  V30 1653 C 156.426 0.495957 2.01383 0
M  V30 1654 C 156.851 -0.904324 1.64935 0
M  V30 1655 O 156.209 -1.59687 0.858466 0
M  V30 1656 C 156.257 0.661433 3.54482 0
M  V30 1657 O 155.361 -0.298851 4.11316 0
M  V30 1658 H 154.702 0.197158 0.634054 0
M  V30 1659 H 157.232 1.17455 1.67527 0
M  V30 1660 H 157.242 0.555072 4.04207 0
M  V30 1661 H 155.917 1.68246 3.8035 0
M  V30 1662 H 154.494 -0.147368 3.72609 0
M  V30 1663 N 156.679 -1.44442 0.630414 0
M  V30 1664 C 157.589 -2.34476 -0.0761693 0
M  V30 1665 C 158.605 -1.52576 -0.836449 0
M  V30 1666 O 159.781 -1.85307 -0.788874 0
M  V30 1667 C 156.846 -3.30545 -1.04599 0
M  V30 1668 C 155.907 -4.28352 -0.28516 0
M  V30 1669 C 155.14 -5.19831 -1.20878 0
M  V30 1670 O 155.363 -5.15223 -2.44747 0
M  V30 1671 O 154.297 -5.97892 -0.693491 0
M  V30 1672 H 158.123 -2.96345 0.664324 0
M  V30 1673 H 155.708 -1.44203 0.39061 0
M  V30 1674 H 157.59 -3.89681 -1.60396 0
M  V30 1675 H 156.265 -2.7121 -1.76711 0
M  V30 1676 H 155.172 -3.72764 0.315837 0
M  V30 1677 H 156.505 -4.90605 0.395924 0
M  V30 1678 N 158.157 -0.370918 -1.53173 0
M  V30 1679 C 159.403 0.217423 -2.01631 0
M  V30 1680 C 159.736 1.47983 -1.25756 0
M  V30 1681 O 159.011 1.91274 -0.352764 0
M  V30 1682 C 159.294 0.503982 -3.56556 0
M  V30 1683 C 159.147 -0.77243 -4.43118 0
M  V30 1684 C 160.466 1.30234 -4.20389 0
M  V30 1685 H 157.585 0.0775486 -0.732909 0
M  V30 1686 H 160.227 -0.496863 -1.83388 0
M  V30 1687 H 158.377 1.11248 -3.72231 0
M  V30 1688 H 160.049 -1.4098 -4.39229 0
M  V30 1689 H 158.292 -1.39167 -4.10871 0
M  V30 1690 H 158.963 -0.526815 -5.4948 0
M  V30 1691 H 161.439 0.787546 -4.08579 0
M  V30 1692 H 160.315 1.47158 -5.28806 0
M  V30 1693 H 160.576 2.31237 -3.76805 0
M  V30 1694 N 159.635 1.57281 -0.100228 0
M  V30 1695 C 160.565 2.17328 0.853857 0
M  V30 1696 C 161.546 1.10804 1.2906 0
M  V30 1697 O 162.731 1.38963 1.35657 0
M  V30 1698 C 159.861 2.75772 2.11109 0
M  V30 1699 C 158.815 3.87713 1.81279 0
M  V30 1700 C 158.141 4.32882 3.13874 0
M  V30 1701 C 159.441 5.10677 1.09574 0
M  V30 1702 H 161.135 2.97305 0.353545 0
M  V30 1703 H 158.681 1.43009 0.168612 0
M  V30 1704 H 160.634 3.16433 2.78296 0
M  V30 1705 H 159.358 1.93057 2.63432 0
M  V30 1706 H 158.017 3.476 1.16489 0
M  V30 1707 H 157.665 3.47051 3.64095 0
M  V30 1708 H 157.365 5.08358 2.94696 0
M  V30 1709 H 158.889 4.7618 3.82211 0
M  V30 1710 H 160.303 5.48474 1.66879 0
M  V30 1711 H 158.7 5.91615 1.00557 0
M  V30 1712 H 159.77 4.84835 0.0793299 0
M  V30 1713 N 161.113 -0.173488 1.56642 0
M  V30 1714 C 162.341 -0.906095 1.86004 0
M  V30 1715 C 162.756 -1.75921 0.685355 0
M  V30 1716 O 162.113 -1.79198 -0.345578 0
M  V30 1717 C 162.164 -1.78462 3.14378 0
M  V30 1718 O 161.885 -0.965914 4.27319 0
M  V30 1719 C 163.386 -2.62707 3.57071 0
M  V30 1720 H 160.606 -0.263341 0.617165 0
M  V30 1721 H 163.15 -0.174236 2.03756 0
M  V30 1722 H 161.305 -2.46984 2.98459 0
M  V30 1723 H 161.719 -1.56655 5.00559 0
M  V30 1724 H 163.193 -3.19969 4.49804 0
M  V30 1725 H 163.67 -3.37472 2.81086 0
M  V30 1726 H 164.276 -1.99521 3.75595 0
M  V30 1727 N 162.591 -1.51276 -0.441967 0
M  V30 1728 C 163.84 -1.6295 -1.18871 0
M  V30 1729 C 164.153 -0.349312 -1.92456 0
M  V30 1730 O 165.359 -0.345355 -2.69295 0
M  V30 1731 C 163.815 -2.87759 -2.16155 0
M  V30 1732 C 163.423 -4.22764 -1.48239 0
M  V30 1733 C 165.167 -3.08788 -2.91291 0
M  V30 1734 C 163.074 -5.38728 -2.4398 0
M  V30 1735 H 162.004 -0.606913 -0.447406 0
M  V30 1736 H 164.655 -1.77739 -0.456205 0
M  V30 1737 H 163.037 -2.66593 -2.92821 0
M  V30 1738 H 164.211 -4.54293 -0.771635 0
M  V30 1739 H 162.526 -4.07575 -0.852741 0
M  V30 1740 H 165.123 -3.92599 -3.63002 0
M  V30 1741 H 165.466 -2.21679 -3.5237 0
M  V30 1742 H 165.999 -3.30272 -2.21733 0
M  V30 1743 H 162.738 -6.28082 -1.87598 0
M  V30 1744 H 162.258 -5.1158 -3.13123 0
M  V30 1745 H 163.937 -5.70489 -3.05207 0
M  V30 1746 N 164.069 0.697108 -1.41344 0
M  V30 1747 C 165.032 1.79281 -1.42797 0
M  V30 1748 C 166.032 1.57607 -0.318837 0
M  V30 1749 O 167.222 1.64309 -0.578642 0
M  V30 1750 C 164.354 3.17632 -1.23785 0
M  V30 1751 H 165.547 1.79385 -2.40335 0
M  V30 1752 H 163.1 0.904582 -1.27464 0
M  V30 1753 H 163.835 3.23167 -0.270814 0
M  V30 1754 H 163.62 3.34765 -2.04144 0
M  V30 1755 H 165.11 3.97617 -1.27633 0
M  V30 1756 N 165.547 1.27147 0.931209 0
M  V30 1757 C 166.824 1.0401 1.65654 0
M  V30 1758 C 167.204 -0.426297 2.06751 0
M  V30 1759 O 166.552 -1.40879 1.79904 0
M  V30 1760 C 166.762 1.99834 2.86125 0
M  V30 1761 C 168.11 2.29007 3.57549 0
M  V30 1762 O 169.134 1.97779 2.96246 0
M  V30 1763 O 167.993 2.82222 4.67989 0
M  V30 1764 H 165.087 0.396239 0.725895 0
M  V30 1765 H 167.633 1.38397 0.982056 0
M  V30 1766 H 166.405 2.98744 2.52721 0
M  V30 1767 H 166.028 1.65987 3.61295 0
M  V30 1768 N 167.025 -1.13721 1.09112 0
M  V30 1769 C 167.935 -2.22638 0.73957 0
M  V30 1770 C 168.951 -1.72091 -0.257068 0
M  V30 1771 O 170.127 -2.01155 -0.0992154 0
M  V30 1772 C 167.192 -3.46322 0.16191 0
M  V30 1773 C 166.253 -4.11775 1.21408 0
M  V30 1774 C 165.486 -5.29555 0.663891 0
M  V30 1775 O 165.709 -5.68077 -0.514274 0
M  V30 1776 O 164.643 -5.84973 1.41738 0
M  V30 1777 H 168.469 -2.55074 1.64836 0
M  V30 1778 H 166.054 -1.21791 0.865289 0
M  V30 1779 H 167.936 -4.21107 -0.157073 0
M  V30 1780 H 166.611 -3.15593 -0.719932 0
M  V30 1781 H 165.518 -3.3883 1.58571 0
M  V30 1782 H 166.851 -4.46627 2.06845 0
M  V30 1783 N 168.503 -0.877838 -1.30888 0
M  V30 1784 C 169.436 -0.283995 -2.26426 0
M  V30 1785 C 170.414 0.591361 -1.51465 0
M  V30 1786 O 171.598 0.54304 -1.80509 0
M  V30 1787 C 168.725 0.597129 -3.33395 0
M  V30 1788 C 167.771 -0.207937 -4.25993 0
M  V30 1789 S 168.604 -1.59158 -5.11301 0
M  V30 1790 C 169.76 -0.716791 -6.21782 0
M  V30 1791 H 169.993 -1.09383 -2.76446 0
M  V30 1792 H 167.526 -0.676828 -1.38775 0
M  V30 1793 H 169.484 1.09978 -3.95493 0
M  V30 1794 H 168.145 1.38099 -2.82113 0
M  V30 1795 H 167.338 0.464163 -5.01858 0
M  V30 1796 H 166.94 -0.642963 -3.68432 0
M  V30 1797 H 169.232 0.0692833 -6.77465 0
M  V30 1798 H 170.175 -1.44682 -6.93161 0
M  V30 1799 H 170.583 -0.280855 -5.63801 0
M  V30 1800 N 169.982 1.44106 -0.638065 0
M  V30 1801 C 170.932 2.27843 0.0847285 0
M  V30 1802 C 171.916 1.39055 0.809471 0
M  V30 1803 O 173.108 1.62808 0.694435 0
M  V30 1804 C 170.237 3.26497 1.06089 0
M  V30 1805 C 169.323 4.22772 0.33541 0
M  V30 1806 N 169.714 5.01737 -0.639787 0
M  V30 1807 C 168.012 4.42227 0.578921 0
M  V30 1808 C 168.713 5.71792 -1.06904 0
M  V30 1809 N 167.689 5.42079 -0.406395 0
M  V30 1810 H 171.491 2.86305 -0.663814 0
M  V30 1811 H 169.005 1.55627 -0.464122 0
M  V30 1812 H 171.002 3.8525 1.59337 0
M  V30 1813 H 169.662 2.69595 1.80966 0
M  V30 1814 H 170.673 5.07799 -1.01789 0
M  V30 1815 H 167.35 3.96415 1.31003 0
M  V30 1816 H 168.74 6.45205 -1.8751 0
M  V30 1817 N 171.46 0.379036 1.52974 0
M  V30 1818 C 172.41 -0.477772 2.22938 0
M  V30 1819 C 173.394 -1.03792 1.22948 0
M  V30 1820 O 174.586 -0.965725 1.48333 0
M  V30 1821 C 171.715 -1.60994 3.03209 0
M  V30 1822 C 170.801 -1.06203 4.10587 0
M  V30 1823 N 171.192 -0.238214 5.05239 0
M  V30 1824 C 169.49 -1.33554 4.25534 0
M  V30 1825 C 170.191 0.0633235 5.81666 0
M  V30 1826 N 169.167 -0.537901 5.40932 0
M  V30 1827 H 172.969 0.158295 2.93473 0
M  V30 1828 H 170.483 0.187778 1.61311 0
M  V30 1829 H 172.48 -2.23607 3.5186 0
M  V30 1830 H 171.14 -2.24893 2.34207 0
M  V30 1831 H 172.151 0.123695 5.17752 0
M  V30 1832 H 168.828 -1.97632 3.6776 0
M  V30 1833 H 170.218 0.730161 6.67921 0
M  V30 1834 N 172.938 -1.57226 0.108567 0
M  V30 1835 C 174.187 -1.94008 -0.551703 0
M  V30 1836 C 174.5 -0.993442 -1.68494 0
M  V30 1837 O 175.706 -1.25551 -2.40726 0
M  V30 1838 C 174.162 -3.44763 -1.03279 0
M  V30 1839 C 173.77 -4.47943 0.0714193 0
M  V30 1840 C 175.514 -3.90483 -1.66503 0
M  V30 1841 C 173.421 -5.89865 -0.425779 0
M  V30 1842 H 172.351 -0.724206 -0.209863 0
M  V30 1843 H 175.002 -1.82547 0.186741 0
M  V30 1844 H 173.384 -3.51422 -1.82533 0
M  V30 1845 H 174.558 -4.52942 0.847365 0
M  V30 1846 H 172.873 -4.11913 0.609669 0
M  V30 1847 H 175.47 -4.93925 -2.04798 0
M  V30 1848 H 175.813 -3.29877 -2.53942 0
M  V30 1849 H 176.346 -3.86581 -0.938074 0
M  V30 1850 H 173.085 -6.54202 0.412316 0
M  V30 1851 H 172.605 -5.88309 -1.16843 0
M  V30 1852 H 174.284 -6.40844 -0.890397 0
M  V30 1853 N 174.416 0.165178 -1.56732 0
M  V30 1854 C 175.693 0.908443 -1.73224 0
M  V30 1855 C 176.073 2.0013 -0.67165 0
M  V30 1856 O 175.421 2.26353 0.31253 0
M  V30 1857 C 175.631 1.46756 -3.16644 0
M  V30 1858 C 176.979 1.93809 -3.77787 0
M  V30 1859 O 178.003 1.56537 -3.1996 0
M  V30 1860 O 176.862 2.62486 -4.79336 0
M  V30 1861 H 173.956 0.428025 -0.707618 0
M  V30 1862 H 176.502 0.152526 -1.69013 0
M  V30 1863 H 175.274 0.68129 -3.85323 0
M  V30 1864 H 174.897 2.28749 -3.25207 0
M  V30 1865 N 175.894 1.51508 0.433938 0
M  V30 1866 C 176.841 1.73068 1.52696 0
M  V30 1867 C 177.811 0.572441 1.55924 0
M  V30 1868 O 178.996 0.807253 1.72882 0
M  V30 1869 C 176.136 1.86474 2.90381 0
M  V30 1870 C 175.249 3.14037 2.96656 0
M  V30 1871 C 174.384 3.18019 4.25485 0
M  V30 1872 C 173.423 4.39882 4.2564 0
M  V30 1873 N 172.56 4.41394 5.45999 0
M  V30 1874 H 177.4 2.66366 1.33615 0
M  V30 1875 H 174.937 1.32008 0.649018 0
M  V30 1876 H 176.895 1.92229 3.70275 0
M  V30 1877 H 175.525 0.965809 3.08013 0
M  V30 1878 H 174.577 3.17575 2.09404 0
M  V30 1879 H 175.889 4.0394 2.92633 0
M  V30 1880 H 175.043 3.22708 5.13755 0
M  V30 1881 H 173.782 2.2601 4.3217 0
M  V30 1882 H 172.787 4.35366 3.35763 0
M  V30 1883 H 174.012 5.33159 4.20617 0
M  V30 1884 H 171.958 3.52258 5.53399 0
M  V30 1885 H 171.875 5.25111 5.4387 0
M  V30 1886 H 173.143 4.50281 6.36292 0
M  V30 1887 N 177.372 -0.689602 1.41712 0
M  V30 1888 C 178.322 -1.79571 1.40493 0
M  V30 1889 C 179.306 -1.58473 0.278409 0
M  V30 1890 O 180.498 -1.69204 0.519532 0
M  V30 1891 C 177.627 -3.17923 1.29536 0
M  V30 1892 C 176.713 -3.44695 2.47075 0
M  V30 1893 N 177.104 -3.42132 3.72531 0
M  V30 1894 C 175.402 -3.75269 2.41017 0
M  V30 1895 C 176.103 -3.67976 4.50521 0
M  V30 1896 N 175.079 -3.88014 3.80718 0
M  V30 1897 H 178.881 -1.75961 2.35404 0
M  V30 1898 H 176.395 -0.889839 1.35851 0
M  V30 1899 H 178.392 -3.97167 1.26745 0
M  V30 1900 H 177.052 -3.22741 0.356153 0
M  V30 1901 H 178.063 -3.22375 4.05333 0
M  V30 1902 H 174.74 -3.87421 1.55599 0
M  V30 1903 H 176.13 -3.7208 5.59469 0
M  V30 1904 N 178.85 -1.27639 -0.924453 0
M  V30 1905 C 179.797 -1.10644 -2.0255 0
M  V30 1906 C 180.767 -0.00658438 -1.66099 0
M  V30 1907 O 181.952 -0.16952 -1.90045 0
M  V30 1908 C 179.092 -0.76309 -3.36557 0
M  V30 1909 C 178.205 -1.94091 -3.85944 0
M  V30 1910 C 177.34 -1.53914 -5.08413 0
M  V30 1911 C 176.379 -2.68425 -5.50104 0
M  V30 1912 N 175.516 -2.28815 -6.63768 0
M  V30 1913 H 180.356 -2.04858 -2.16419 0
M  V30 1914 H 177.893 -1.01974 -1.06017 0
M  V30 1915 H 179.851 -0.544822 -4.13627 0
M  V30 1916 H 178.481 0.142102 -3.22487 0
M  V30 1917 H 177.533 -2.27162 -3.05125 0
M  V30 1918 H 178.845 -2.7998 -4.12811 0
M  V30 1919 H 177.999 -1.28231 -5.92994 0
M  V30 1920 H 176.738 -0.651391 -4.8333 0
M  V30 1921 H 175.743 -2.94819 -4.64071 0
M  V30 1922 H 176.968 -3.57826 -5.7718 0
M  V30 1923 H 174.914 -1.42495 -6.40337 0
M  V30 1924 H 174.831 -3.08242 -6.90306 0
M  V30 1925 H 176.099 -2.06387 -7.51681 0
M  V30 1926 N 180.328 1.1314 -1.09713 0
M  V30 1927 C 181.575 1.84484 -0.834987 0
M  V30 1928 C 181.903 1.83689 0.639418 0
M  V30 1929 O 181.158 1.2724 1.4869 0
M  V30 1930 C 181.457 3.32167 -1.3191 0
M  V30 1931 C 181.123 3.53139 -2.80363 0
M  V30 1932 C 179.785 3.58571 -3.20905 0
M  V30 1933 C 182.137 3.60866 -3.76065 0
M  V30 1934 C 179.465 3.69267 -4.55916 0
M  V30 1935 C 181.817 3.73089 -5.10869 0
M  V30 1936 C 180.481 3.76775 -5.50996 0
M  V30 1937 H 179.751 0.675073 -0.305544 0
M  V30 1938 H 182.398 1.33554 -1.37243 0
M  V30 1939 H 180.703 3.85469 -0.701517 0
M  V30 1940 H 182.4 3.85821 -1.09284 0
M  V30 1941 H 178.99 3.49569 -2.47991 0
M  V30 1942 H 183.174 3.55946 -3.45855 0
M  V30 1943 H 178.43 3.70388 -4.86438 0
M  V30 1944 H 182.604 3.78011 -5.84877 0
M  V30 1945 H 180.231 3.84815 -6.55608 0
M  V30 1946 N 181.806 0.884767 1.30421 0
M  V30 1947 C 182.753 0.349642 2.28136 0
M  V30 1948 C 183.723 -0.560061 1.56373 0
M  V30 1949 O 184.908 -0.488524 1.8444 0
M  V30 1950 C 182.048 -0.42999 3.42411 0
M  V30 1951 C 181.161 0.508907 4.28992 0
M  V30 1952 C 180.296 -0.286301 5.30428 0
M  V30 1953 C 179.335 0.648079 6.08659 0
M  V30 1954 N 178.472 -0.111792 7.02011 0
M  V30 1955 H 183.312 1.18807 2.73293 0
M  V30 1956 H 180.849 0.597231 1.3443 0
M  V30 1957 H 182.807 -0.897923 4.07423 0
M  V30 1958 H 181.437 -1.23299 2.98324 0
M  V30 1959 H 180.489 1.09533 3.64289 0
M  V30 1960 H 181.801 1.22475 4.8353 0
M  V30 1961 H 180.955 -0.816098 6.01186 0
M  V30 1962 H 179.694 -1.03536 4.76583 0
M  V30 1963 H 178.699 1.18951 5.36778 0
M  V30 1964 H 179.924 1.39623 6.64592 0
M  V30 1965 H 177.87 -0.843395 6.50556 0
M  V30 1966 H 177.787 0.544429 7.54037 0
M  V30 1967 H 179.055 -0.622339 7.77012 0
M  V30 1968 N 183.284 -1.43765 0.645699 0
M  V30 1969 C 184.512 -2.06253 0.163556 0
M  V30 1970 C 184.927 -1.48352 -1.16778 0
M  V30 1971 O 184.284 -0.611932 -1.71935 0
M  V30 1972 C 184.335 -3.61453 0.0583186 0
M  V30 1973 O 184.056 -4.172 1.33702 0
M  V30 1974 C 185.557 -4.41002 -0.450795 0
M  V30 1975 H 182.777 -0.665413 0.0864077 0
M  V30 1976 H 185.321 -1.84396 0.884222 0
M  V30 1977 H 183.476 -3.82522 -0.612865 0
M  V30 1978 H 183.89 -5.10791 1.19131 0
M  V30 1979 H 185.364 -5.49966 -0.473403 0
M  V30 1980 H 185.841 -4.13488 -1.48068 0
M  V30 1981 H 186.447 -4.24886 0.187637 0
M  V30 1982 N 184.763 -0.387143 -1.52771 0
M  V30 1983 C 186.174 0.0873634 -1.86495 0
M  V30 1984 C 186.525 1.46336 -1.30691 0
M  V30 1985 O 185.65 2.068 -0.637409 0
M  V30 1986 C 186.245 0.165305 -3.38396 0
M  V30 1987 C 184.804 0.584101 -3.7184 0
M  V30 1988 C 183.951 -0.255279 -2.76122 0
M  V30 1989 H 186.902 -0.605104 -1.46711 0
M  V30 1990 H 186.923 0.984848 -3.67534 0
M  V30 1991 H 186.435 -0.836301 -3.78982 0
M  V30 1992 H 184.536 1.59315 -3.36823 0
M  V30 1993 H 184.649 0.343749 -4.77865 0
M  V30 1994 H 183.013 0.279126 -2.53166 0
M  V30 1995 H 183.796 -1.25482 -3.19545 0
M  V30 1996 N 186.241 1.57166 -0.116904 0
M  V30 1997 C 187.488 1.95123 0.541603 0
M  V30 1998 C 187.816 1.00006 1.6682 0
M  V30 1999 O 187.071 0.0235658 1.95686 0
M  V30 2000 C 187.37 3.39508 1.11664 0
M  V30 2001 C 187.036 4.50762 0.111606 0
M  V30 2002 C 185.698 4.80918 -0.164758 0
M  V30 2003 C 188.05 5.18036 -0.573438 0
M  V30 2004 C 185.378 5.75666 -1.13249 0
M  V30 2005 C 187.73 6.13824 -1.52978 0
M  V30 2006 C 186.394 6.42374 -1.81415 0
M  V30 2007 H 185.664 0.714005 0.198187 0
M  V30 2008 H 188.311 1.9048 -0.197365 0
M  V30 2009 H 186.616 3.40835 1.93232 0
M  V30 2010 H 188.313 3.66189 1.63422 0
M  V30 2011 H 184.903 4.27272 0.337192 0
M  V30 2012 H 189.087 4.94896 -0.373092 0
M  V30 2013 H 184.343 5.96092 -1.35958 0
M  V30 2014 H 188.517 6.65039 -2.06629 0
M  V30 2015 H 186.144 7.15599 -2.56557 0
M  V30 2016 N 187.719 -0.156864 1.56817 0
M  V30 2017 C 188.965 -0.872416 1.83076 0
M  V30 2018 C 189.298 -1.81261 0.697001 0
M  V30 2019 O 188.573 -1.92171 -0.30008 0
M  V30 2020 C 188.856 -1.65551 3.19789 0
M  V30 2021 C 188.709 -0.737467 4.43713 0
M  V30 2022 C 190.028 -2.62012 3.53606 0
M  V30 2023 H 187.147 -0.315715 0.665953 0
M  V30 2024 H 189.789 -0.138004 1.89498 0
M  V30 2025 H 187.939 -2.28159 3.14445 0
M  V30 2026 H 189.611 -0.123143 4.61136 0
M  V30 2027 H 187.854 -0.0464067 4.33775 0
M  V30 2028 H 188.525 -1.32122 5.35955 0
M  V30 2029 H 191.001 -2.09525 3.59497 0
M  V30 2030 H 189.877 -3.13861 4.50314 0
M  V30 2031 H 190.138 -3.42902 2.79053 0
M  V30 2032 N 189.197 -1.51736 -0.425897 0
M  V30 2033 C 190.437 -1.66636 -1.18371 0
M  V30 2034 C 190.801 -0.379854 -1.88205 0
M  V30 2035 O 192.002 -0.404758 -2.65735 0
M  V30 2036 C 190.273 -2.84382 -2.16476 0
M  V30 2037 S 191.832 -3.19673 -3.0059 0
M  V30 2038 H 188.65 -0.586957 -0.40125 0
M  V30 2039 H 191.252 -1.89679 -0.473518 0
M  V30 2040 H 189.956 -3.76281 -1.63831 0
M  V30 2041 H 189.487 -2.63562 -2.92059 0
M  V30 2042 H 191.502 -2.66994 -4.18245 0
M  V30 2043 N 190.675 0.682077 -1.42076 0
M  V30 2044 C 191.923 1.4393 -1.41876 0
M  V30 2045 C 192.244 1.94971 -0.0335599 0
M  V30 2046 O 191.514 1.72591 0.926773 0
M  V30 2047 H 190.094 0.534085 -0.522267 0
M  V30 2048 H 192.756 0.806427 -1.77434 0
M  V30 2049 H 191.852 2.29588 -2.11414 0
M  V30 2050 N 192.153 1.28127 0.917671 0
M  V30 2051 C 193.393 1.163 1.68088 0
M  V30 2052 C 193.757 -0.284515 1.8988 0
M  V30 2053 O 194.958 -0.525413 2.63615 0
M  V30 2054 C 193.229 1.93546 3.00457 0
M  V30 2055 S 194.788 1.98048 3.91564 0
M  V30 2056 H 191.606 0.415005 0.577315 0
M  V30 2057 H 194.208 1.62173 1.09179 0
M  V30 2058 H 192.912 2.97888 2.82295 0
M  V30 2059 H 192.443 1.48207 3.64415 0
M  V30 2060 H 194.458 1.08415 4.84211 0
M  V30 2061 N 193.631 -1.12557 1.10312 0
M  V30 2062 C 194.859 -1.87864 0.866873 0
M  V30 2063 C 195.274 -1.79588 -0.582557 0
M  V30 2064 O 194.631 -1.16887 -1.40156 0
M  V30 2065 C 194.682 -3.37125 1.30496 0
M  V30 2066 O 194.403 -3.45201 2.69755 0
M  V30 2067 C 195.904 -4.29373 1.10243 0
M  V30 2068 H 193.124 -0.594452 0.311236 0
M  V30 2069 H 195.668 -1.42429 1.46745 0
M  V30 2070 H 193.823 -3.80109 0.748081 0
M  V30 2071 H 194.237 -4.38056 2.88457 0
M  V30 2072 H 195.711 -5.32394 1.45811 0
M  V30 2073 H 196.188 -4.39181 0.0409492 0
M  V30 2074 H 196.794 -3.92169 1.64571 0
M  V30 2075 N 195.109 -0.891671 -1.2995 0
M  V30 2076 C 196.057 -0.353066 -2.29905 0
M  V30 2077 C 197.051 0.543509 -1.60444 0
M  V30 2078 O 198.257 0.4272 -1.74857 0
M  V30 2079 H 194.632 -0.095531 -0.745907 0
M  V30 2080 H 196.603 -1.20961 -2.72784 0
M  V30 2081 C 195.352 0.411475 -3.45257 0
M  V30 2082 H 194.675 -0.269182 -3.98893 0
M  V30 2083 H 196.115 0.753328 -4.17254 0
M  V30 2084 C 194.574 1.6111 -2.9588 0
M  V30 2085 O 195.104 2.71045 -2.96475 0
M  V30 2086 N 193.31 1.45054 -2.51809 0
M  V30 2087 H 192.857 0.556175 -2.51524 0
M  V30 2088 H 192.815 2.25453 -2.1913 0
M  V30 2089 N 196.587 1.43421 -0.653314 0
M  V30 2090 C 197.517 2.33487 0.0246656 0
M  V30 2091 C 198.498 1.49475 0.811863 0
M  V30 2092 O 199.683 1.78139 0.773322 0
M  V30 2093 C 196.813 3.32841 0.99166 0
M  V30 2094 C 195.767 4.26842 0.314568 0
M  V30 2095 C 195.093 5.16236 1.39302 0
M  V30 2096 C 196.393 5.16243 -0.793095 0
M  V30 2097 H 198.087 2.90427 -0.727481 0
M  V30 2098 H 195.633 1.39649 -0.351287 0
M  V30 2099 H 197.586 3.94747 1.47487 0
M  V30 2100 H 196.31 2.74158 1.77497 0
M  V30 2101 H 194.969 3.663 -0.148199 0
M  V30 2102 H 194.617 4.53891 2.16776 0
M  V30 2103 H 194.317 5.79948 0.945223 0
M  V30 2104 H 195.841 5.81015 1.87759 0
M  V30 2105 H 197.255 5.71958 -0.392039 0
M  V30 2106 H 195.652 5.88676 -1.16536 0
M  V30 2107 H 196.722 4.55927 -1.65103 0
M  V30 2108 N 198.065 0.39524 1.52563 0
M  V30 2109 C 199.313 -0.184678 2.01254 0
M  V30 2110 C 199.634 -1.46822 1.28329 0
M  V30 2111 O 198.904 -1.91666 0.405094 0
M  V30 2112 H 197.484 -0.0712355 0.743596 0
M  V30 2113 H 200.146 0.528293 1.87603 0
M  V30 2114 H 199.242 -0.390681 3.09645 0
M  V30 2115 N 199.544 -1.57102 0.125237 0
M  V30 2116 C 200.454 -2.19191 -0.8362 0
M  V30 2117 C 201.47 -1.16985 -1.28805 0
M  V30 2118 O 202.646 -1.49479 -1.34974 0
M  V30 2119 C 199.711 -2.78407 -2.06617 0
M  V30 2120 C 198.772 -3.9567 -1.66565 0
M  V30 2121 C 198.005 -4.52052 -2.83698 0
M  V30 2122 O 198.228 -4.07326 -3.99302 0
M  V30 2123 O 197.162 -5.42645 -2.60423 0
M  V30 2124 H 200.988 -3.01816 -0.337776 0
M  V30 2125 H 198.573 -1.4906 -0.100695 0
M  V30 2126 H 200.455 -3.16129 -2.7864 0
M  V30 2127 H 199.13 -1.9881 -2.55453 0
M  V30 2128 H 198.037 -3.62705 -0.916296 0
M  V30 2129 H 199.37 -4.76722 -1.22464 0
M  V30 2130 N 201.022 0.148545 -1.56898 0
M  V30 2131 C 201.985 1.16736 -1.97244 0
M  V30 2132 C 202.985 1.35947 -0.858777 0
M  V30 2133 O 204.175 1.32966 -1.12542 0
M  V30 2134 C 201.307 2.52798 -2.28705 0
M  V30 2135 H 202.5 0.821279 -2.88435 0
M  V30 2136 H 200.053 0.391831 -1.51309 0
M  V30 2137 H 200.788 2.92381 -1.403 0
M  V30 2138 H 200.573 2.40216 -3.09901 0
M  V30 2139 H 202.063 3.26179 -2.60762 0
M  V30 2140 N 202.5 1.5196 0.417844 0
M  V30 2141 C 203.43 1.77634 1.51554 0
M  V30 2142 C 204.411 0.626918 1.58126 0
M  V30 2143 O 205.596 0.871632 1.7354 0
M  V30 2144 C 202.726 1.91911 2.8946 0
M  V30 2145 C 201.68 3.07463 2.97743 0
M  V30 2146 C 201.006 3.06951 4.37819 0
M  V30 2147 C 202.306 4.47082 2.70027 0
M  V30 2148 H 204 2.6955 1.3032 0
M  V30 2149 H 201.546 1.29706 0.625492 0
M  V30 2150 H 203.499 2.08455 3.6623 0
M  V30 2151 H 202.223 0.966598 3.11969 0
M  V30 2152 H 200.882 2.90656 2.23416 0
M  V30 2153 H 200.53 2.09438 4.57323 0
M  V30 2154 H 200.23 3.84556 4.44286 0
M  V30 2155 H 201.754 3.25613 5.16535 0
M  V30 2156 H 203.168 4.6414 3.36522 0
M  V30 2157 H 201.565 5.2654 2.87881 0
M  V30 2158 H 202.635 4.55777 1.65514 0
M  V30 2159 N 203.978 -0.674533 1.42435 0
M  V30 2160 C 205.394 -0.98769 1.25367 0
M  V30 2161 C 205.594 -2.00879 0.158044 0
M  V30 2162 O 204.65 -2.48075 -0.470633 0
M  V30 2163 C 205.963 -1.49224 2.6106 0
M  V30 2164 C 207.511 -1.61 2.68417 0
M  V30 2165 C 207.986 -2.14852 4.04478 0
M  V30 2166 N 209.477 -2.22185 4.06434 0
M  V30 2167 C 210.212 -2.64928 5.08528 0
M  V30 2168 N 209.708 -3.07121 6.21006 0
M  V30 2169 N 211.501 -2.64679 4.95885 0
M  V30 2170 H 203.652 0.00152503 2.124 0
M  V30 2171 H 205.915 -0.0618434 0.945981 0
M  V30 2172 H 205.621 -0.816453 3.42092 0
M  V30 2173 H 205.495 -2.47094 2.84999 0
M  V30 2174 H 207.882 -2.27686 1.87732 0
M  V30 2175 H 207.963 -0.616195 2.48267 0
M  V30 2176 H 207.607 -1.48775 4.85622 0
M  V30 2177 H 207.537 -3.15024 4.2198 0
M  V30 2178 H 210.028 -1.92435 3.25234 0
M  V30 2179 H 210.341 -3.38423 6.94759 0
M  V30 2180 H 208.686 -3.04978 6.24511 0
M  V30 2181 H 211.877 -2.31078 4.07088 0
M  V30 2182 H 212.05 -2.9767 5.75584 0
M  V30 2183 N 205.456 -1.28612 -0.910864 0
M  V30 2184 C 206.872 -1.06381 -1.18976 0
M  V30 2185 C 207.072 0.191998 -2.00583 0
M  V30 2186 O 206.128 0.892869 -2.36187 0
M  V30 2187 C 207.441 -2.31295 -1.92154 0
M  V30 2188 C 208.989 -2.36503 -2.05025 0
M  V30 2189 C 209.464 -3.61191 -2.81612 0
M  V30 2190 N 210.955 -3.61847 -2.89172 0
M  V30 2191 C 211.69 -4.55004 -3.4894 0
M  V30 2192 N 211.186 -5.58482 -4.09963 0
M  V30 2193 N 212.979 -4.42594 -3.46506 0
M  V30 2194 H 205.13 -2.09221 -0.366094 0
M  V30 2195 H 207.393 -0.921003 -0.224629 0
M  V30 2196 H 207.099 -3.228 -1.39618 0
M  V30 2197 H 206.973 -2.37934 -2.9269 0
M  V30 2198 H 209.36 -1.45494 -2.5674 0
M  V30 2199 H 209.441 -2.33857 -1.03657 0
M  V30 2200 H 209.085 -4.52545 -2.30576 0
M  V30 2201 H 209.015 -3.61092 -3.83302 0
M  V30 2202 H 211.506 -2.87022 -2.45819 0
M  V30 2203 H 211.819 -6.25704 -4.53557 0
M  V30 2204 H 210.164 -5.62305 -4.08459 0
M  V30 2205 H 213.355 -3.60953 -2.98045 0
M  V30 2206 H 213.528 -5.15381 -3.92793 0
M  V30 2207 N 206.934 1.1197 -1.10907 0
M  V30 2208 C 208.183 1.82947 -0.849302 0
M  V30 2209 C 208.496 1.85275 0.627112 0
M  V30 2210 O 209.702 2.52296 1.00295 0
M  V30 2211 C 208.158 3.28529 -1.46959 0
M  V30 2212 C 207.766 3.34546 -2.97965 0
M  V30 2213 C 209.51 4.04443 -1.28942 0
M  V30 2214 C 207.417 4.74491 -3.53004 0
M  V30 2215 H 206.347 0.685477 -0.314065 0
M  V30 2216 H 208.998 1.2604 -1.33365 0
M  V30 2217 H 207.38 3.85333 -0.912917 0
M  V30 2218 H 208.554 2.87654 -3.59989 0
M  V30 2219 H 206.869 2.72108 -3.15192 0
M  V30 2220 H 209.466 5.07787 -1.67502 0
M  V30 2221 H 209.809 4.15656 -0.231456 0
M  V30 2222 H 210.342 3.5401 -1.81443 0
M  V30 2223 H 207.081 4.68474 -4.58489 0
M  V30 2224 H 206.601 5.21816 -2.9575 0
M  V30 2225 H 208.28 5.4344 -3.51115 0
M  V30 2226 N 208.412 0.89855 1.29475 0
M  V30 2227 C 209.637 0.538561 2.00285 0
M  V30 2228 C 210.062 -0.869135 1.66816 0
M  V30 2229 O 209.42 -1.57831 0.892145 0
M  V30 2230 C 209.468 0.736475 3.52999 0
M  V30 2231 O 208.572 -0.211537 4.11857 0
M  V30 2232 H 207.913 0.210563 0.62973 0
M  V30 2233 H 210.443 1.20982 1.64998 0
M  V30 2234 H 210.453 0.640685 4.02938 0
M  V30 2235 H 209.128 1.76276 3.76696 0
M  V30 2236 H 207.705 -0.0682991 3.72837 0
M  V30 2237 N 209.89 -1.43072 0.660911 0
M  V30 2238 C 210.8 -2.34585 -0.0264163 0
M  V30 2239 C 211.816 -1.54316 -0.803898 0
M  V30 2240 O 212.992 -1.86939 -0.749391 0
M  V30 2241 C 210.057 -3.32689 -0.975639 0
M  V30 2242 C 209.118 -4.2886 -0.194236 0
M  V30 2243 C 208.351 -5.22278 -1.09825 0
M  V30 2244 O 208.574 -5.20299 -2.33763 0
M  V30 2245 O 207.508 -5.99228 -0.566513 0
M  V30 2246 H 211.334 -2.94869 0.727034 0
M  V30 2247 H 208.919 -1.43342 0.42111 0
M  V30 2248 H 210.801 -3.92995 -1.52094 0
M  V30 2249 H 209.476 -2.74898 -1.70918 0
M  V30 2250 H 208.383 -3.72011 0.394835 0
M  V30 2251 H 209.716 -4.89655 0.499899 0
M  V30 2252 N 211.368 -0.403325 -1.52352 0
M  V30 2253 C 212.616 0.174003 -2.0135 0
M  V30 2254 C 212.937 1.46139 -1.29106 0
M  V30 2255 O 212.207 1.91448 -0.415253 0
M  V30 2256 H 210.787 0.0672911 -0.743963 0
M  V30 2257 H 213.449 -0.538235 -1.87321 0
M  V30 2258 H 212.545 0.374254 -3.09848 0
M  V30 2259 N 212.846 1.57033 -0.133567 0
M  V30 2260 C 213.809 2.14897 0.796995 0
M  V30 2261 C 214.809 1.0874 1.18458 0
M  V30 2262 O 215.999 1.34446 1.1077 0
M  V30 2263 C 213.131 2.70112 2.07973 0
M  V30 2264 H 214.324 2.98457 0.293873 0
M  V30 2265 H 211.877 1.55871 0.115787 0
M  V30 2266 H 212.612 1.9018 2.62682 0
M  V30 2267 H 212.397 3.47764 1.81115 0
M  V30 2268 H 213.887 3.14738 2.74462 0
M  V30 2269 N 214.325 -0.140222 1.56975 0
M  V30 2270 C 215.55 -0.870414 1.88251 0
M  V30 2271 C 215.975 -1.73637 0.723312 0
M  V30 2272 O 215.333 -1.78329 -0.32689 0
M  V30 2273 C 215.381 -1.69737 3.18154 0
M  V30 2274 O 214.485 -2.80229 3.02565 0
M  V30 2275 H 213.826 -0.242025 0.61832 0
M  V30 2276 H 216.356 -0.128999 2.04193 0
M  V30 2277 H 216.366 -2.09099 3.50345 0
M  V30 2278 H 215.041 -1.06152 4.02125 0
M  V30 2279 H 213.618 -2.44224 2.81796 0
M  V30 2280 N 215.803 -1.52179 -0.40978 0
M  V30 2281 C 216.736 -1.70196 -1.52015 0
M  V30 2282 C 217.714 -0.549542 -1.53032 0
M  V30 2283 O 218.898 -0.776815 -1.71749 0
M  V30 2284 C 216.025 -1.74069 -2.90547 0
M  V30 2285 C 215.071 -2.95601 -3.07445 0
M  V30 2286 S 215.904 -4.55956 -2.80827 0
M  V30 2287 C 217.06 -4.62614 -4.21591 0
M  V30 2288 H 217.293 -2.64109 -1.36504 0
M  V30 2289 H 214.826 -1.4221 -0.601312 0
M  V30 2290 H 216.784 -1.76985 -3.70387 0
M  V30 2291 H 215.445 -0.812835 -3.034 0
M  V30 2292 H 214.638 -2.94791 -4.08796 0
M  V30 2293 H 214.24 -2.90569 -2.35469 0
M  V30 2294 H 216.532 -4.39951 -5.15218 0
M  V30 2295 H 217.475 -5.64548 -4.27424 0
M  V30 2296 H 217.883 -3.91654 -4.06531 0
M  V30 2297 N 217.281 0.66697 -1.42791 0
M  V30 2298 C 218.53 1.42278 -1.42968 0
M  V30 2299 C 218.843 1.9553 -0.0524489 0
M  V30 2300 O 220.049 2.71414 0.068363 0
M  V30 2301 C 218.505 2.57418 -2.51524 0
M  V30 2302 C 218.113 2.10832 -3.9529 0
M  V30 2303 C 219.857 3.34878 -2.60877 0
M  V30 2304 C 217.764 3.23101 -4.95338 0
M  V30 2305 H 216.694 0.534533 -0.531781 0
M  V30 2306 H 219.345 0.721302 -1.68729 0
M  V30 2307 H 217.727 3.29971 -2.18941 0
M  V30 2308 H 218.901 1.4538 -4.37266 0
M  V30 2309 H 217.216 1.46289 -3.89857 0
M  V30 2310 H 219.813 4.18505 -3.32802 0
M  V30 2311 H 220.156 3.81993 -1.6549 0
M  V30 2312 H 220.689 2.69398 -2.92693 0
M  V30 2313 H 217.428 2.80969 -5.9223 0
M  V30 2314 H 216.948 3.87309 -4.57987 0
M  V30 2315 H 218.627 3.88447 -5.17415 0
M  V30 2316 N 218.759 1.29093 0.90403 0
M  V30 2317 C 220.175 1.07011 1.1841 0
M  V30 2318 C 220.375 -0.181358 2.00682 0
M  V30 2319 O 219.431 -0.880331 2.36657 0
M  V30 2320 C 220.744 2.32311 1.90924 0
M  V30 2321 C 222.292 2.37587 2.03768 0
M  V30 2322 C 222.767 3.62679 2.79693 0
M  V30 2323 N 224.258 3.63376 2.87249 0
M  V30 2324 C 224.993 4.56848 3.46522 0
M  V30 2325 N 224.489 5.60648 4.06996 0
M  V30 2326 N 226.282 4.44426 3.44154 0
M  V30 2327 H 218.433 2.09412 0.354993 0
M  V30 2328 H 220.696 0.922181 0.219742 0
M  V30 2329 H 220.402 3.23536 1.37905 0
M  V30 2330 H 220.276 2.39483 2.91424 0
M  V30 2331 H 222.663 1.46853 2.55965 0
M  V30 2332 H 222.744 2.34403 1.02415 0
M  V30 2333 H 222.388 4.53762 2.28173 0
M  V30 2334 H 222.318 3.63119 3.81381 0
M  V30 2335 H 224.809 2.88321 2.44293 0
M  V30 2336 H 225.122 6.28101 4.50232 0
M  V30 2337 H 223.467 5.64463 4.05471 0
M  V30 2338 H 226.658 3.62529 2.96126 0
M  V30 2339 H 226.831 5.17457 3.90054 0
M  V30 2340 N 220.237 -1.11381 1.11499 0
M  V30 2341 C 221.465 -1.86934 0.88675 0
M  V30 2342 C 221.88 -1.80195 -0.563476 0
M  V30 2343 O 221.237 -1.18367 -1.38908 0
M  V30 2344 C 221.288 -3.35722 1.34064 0
M  V30 2345 O 221.009 -3.4232 2.73401 0
M  V30 2346 C 222.51 -4.2818 1.14791 0
M  V30 2347 H 219.73 -0.591117 0.317523 0
M  V30 2348 H 222.274 -1.40865 1.48248 0
M  V30 2349 H 220.429 -3.79294 0.788355 0
M  V30 2350 H 220.843 -4.34971 2.93087 0
M  V30 2351 H 222.317 -5.30817 1.5145 0
M  V30 2352 H 222.794 -4.39113 0.0875279 0
M  V30 2353 H 223.4 -3.90402 1.68721 0
M  V30 2354 N 221.715 -0.905404 -1.28997 0
M  V30 2355 C 222.662 -0.385892 -2.27551 0
M  V30 2356 C 223.632 0.535113 -1.57244 0
M  V30 2357 O 224.817 0.459119 -1.85194 0
M  V30 2358 C 221.957 0.375461 -3.43051 0
M  V30 2359 C 221.07 -0.577092 -4.28128 0
M  V30 2360 C 220.205 0.201879 -5.30816 0
M  V30 2361 C 219.244 -0.744829 -6.07551 0
M  V30 2362 N 218.381 9.42587e-05 -7.021 0
M  V30 2363 H 223.221 -1.23139 -2.71368 0
M  V30 2364 H 220.758 -0.618542 -1.33463 0
M  V30 2365 H 222.716 0.832992 -4.088 0
M  V30 2366 H 221.346 1.18537 -3.00248 0
M  V30 2367 H 220.398 -1.15315 -3.62501 0
M  V30 2368 H 221.71 -1.30152 -4.8152 0
M  V30 2369 H 220.864 0.720351 -6.02408 0
M  V30 2370 H 219.603 0.959413 -4.7817 0
M  V30 2371 H 218.608 -1.27475 -5.34818 0
M  V30 2372 H 219.833 -1.50178 -6.62286 0
M  V30 2373 H 217.779 0.739791 -6.51815 0
M  V30 2374 H 217.696 -0.664321 -7.53076 0
M  V30 2375 H 218.964 0.498644 -7.77903 0
M  V30 2376 N 223.193 1.4272 -0.668489 0
M  V30 2377 C 224.441 2.01226 -0.187769 0
M  V30 2378 C 224.762 1.53092 1.2078 0
M  V30 2379 O 224.032 0.74993 1.80977 0
M  V30 2380 H 222.612 0.744041 -0.0664272 0
M  V30 2381 H 225.274 1.74723 -0.863583 0
M  V30 2382 H 224.37 3.11556 -0.184166 0
M  V30 2383 N 224.671 0.411399 1.52136 0
M  V30 2384 C 225.581 -0.419774 2.30814 0
M  V30 2385 C 226.597 -1.0515 1.38634 0
M  V30 2386 O 227.773 -1.05252 1.71709 0
M  V30 2387 C 224.838 -1.52019 3.11594 0
M  V30 2388 C 223.899 -0.91129 4.19516 0
M  V30 2389 C 223.132 -1.95927 4.96436 0
M  V30 2390 O 223.355 -3.17775 4.73683 0
M  V30 2391 O 222.289 -1.56423 5.81219 0
M  V30 2392 H 226.115 0.221805 3.02889 0
M  V30 2393 H 223.7 0.174547 1.48377 0
M  V30 2394 H 225.582 -2.15898 3.61892 0
M  V30 2395 H 224.257 -2.14633 2.42311 0
M  V30 2396 H 223.164 -0.235157 3.7336 0
M  V30 2397 H 224.497 -0.32904 4.91099 0
M  V30 2398 N 226.149 -1.5696 0.141893 0
M  V30 2399 C 227.112 -2.15316 -0.785587 0
M  V30 2400 C 228.112 -1.09366 -1.1788 0
M  V30 2401 O 229.302 -1.35031 -1.10056 0
M  V30 2402 C 226.434 -2.71211 -2.06537 0
M  V30 2403 H 227.627 -2.98608 -0.278041 0
M  V30 2404 H 225.18 -1.5593 -0.107519 0
M  V30 2405 H 225.915 -1.91571 -2.6167 0
M  V30 2406 H 225.7 -3.4872 -1.79268 0
M  V30 2407 H 227.19 -3.16189 -2.72789 0
M  V30 2408 N 227.627 0.131896 -1.57047 0
M  V30 2409 C 228.875 0.840269 -1.83804 0
M  V30 2410 C 229.196 1.81017 -0.72512 0
M  V30 2411 O 228.466 1.94272 0.251995 0
M  V30 2412 H 227.046 0.313294 -0.678127 0
M  V30 2413 H 229.708 0.122294 -1.94516 0
M  V30 2414 H 228.804 1.39335 -2.79271 0
M  V30 2415 N 229.106 1.52395 0.401703 0
M  V30 2416 C 230.334 1.70676 1.16949 0
M  V30 2417 C 230.749 0.419503 1.8408 0
M  V30 2418 O 230.106 -0.605061 1.72178 0
M  V30 2419 C 230.157 2.84753 2.22706 0
M  V30 2420 O 229.878 4.08495 1.58314 0
M  V30 2421 C 231.379 3.14608 3.12309 0
M  V30 2422 H 228.599 0.571787 0.351142 0
M  V30 2423 H 231.143 1.98987 0.471652 0
M  V30 2424 H 229.298 2.58941 2.88147 0
M  V30 2425 H 229.712 4.72117 2.28485 0
M  V30 2426 H 231.186 3.97923 3.82572 0
M  V30 2427 H 231.663 2.28464 3.75101 0
M  V30 2428 H 232.269 3.42212 2.52529 0
M  V30 2429 N 230.584 -0.659388 1.43143 0
M  V30 2430 C 231.832 -1.41654 1.44147 0
M  V30 2431 C 232.153 -1.94893 0.0645739 0
M  V30 2432 O 231.423 -1.74044 -0.899198 0
M  V30 2433 H 230.003 -0.525708 0.530697 0
M  V30 2434 H 232.665 -0.778097 1.78694 0
M  V30 2435 H 231.761 -2.26195 2.1504 0
M  V30 2436 N 232.062 -1.29571 -0.897171 0
M  V30 2437 C 233.01 -1.14802 -2.02295 0
M  V30 2438 C 234.004 -0.0629637 -1.69283 0
M  V30 2439 O 235.21 -0.222945 -1.78614 0
M  V30 2440 H 231.585 -0.354692 -0.663097 0
M  V30 2441 H 233.556 -2.10108 -2.11889 0
M  V30 2442 C 232.305 -0.843966 -3.37302 0
M  V30 2443 H 231.628 -1.67093 -3.63208 0
M  V30 2444 H 233.068 -0.780672 -4.16751 0
M  V30 2445 C 231.527 0.452843 -3.33843 0
M  V30 2446 O 232.057 1.47813 -3.73516 0
M  V30 2447 N 230.263 0.459601 -2.86943 0
M  V30 2448 H 229.81 -0.375213 -2.54853 0
M  V30 2449 H 229.768 1.32726 -2.85011 0
M  V30 2450 N 233.54 1.10788 -1.12088 0
M  V30 2451 C 234.789 1.82036 -0.868659 0
M  V30 2452 C 235.102 1.85929 0.607426 0
M  V30 2453 O 236.308 2.53346 0.97613 0
M  V30 2454 C 234.764 3.26951 -1.50435 0
M  V30 2455 C 234.372 3.31367 -3.01496 0
M  V30 2456 C 236.116 4.03053 -1.33225 0
M  V30 2457 C 234.023 4.7072 -3.58017 0
M  V30 2458 H 232.953 0.682108 -0.321318 0
M  V30 2459 H 235.604 1.24618 -1.34694 0
M  V30 2460 H 233.986 3.84343 -0.953735 0
M  V30 2461 H 235.16 2.83819 -3.6302 0
M  V30 2462 H 233.475 2.6875 -3.18061 0
M  V30 2463 H 236.072 5.05981 -1.72878 0
M  V30 2464 H 236.415 4.15387 -0.275529 0
M  V30 2465 H 236.948 3.52066 -1.85188 0
M  V30 2466 H 233.687 4.63585 -4.63432 0
M  V30 2467 H 233.207 5.1865 -3.01268 0
M  V30 2468 H 234.886 5.39685 -3.56859 0
M  V30 2469 N 235.018 0.912232 1.28515 0
M  V30 2470 C 236.267 0.540504 1.94323 0
M  V30 2471 C 236.58 -0.920044 1.72611 0
M  V30 2472 O 237.786 -1.39986 2.32629 0
M  V30 2473 C 236.242 0.915803 3.48053 0
M  V30 2474 C 235.85 2.39598 3.78546 0
M  V30 2475 C 237.594 0.614588 4.20027 0
M  V30 2476 C 235.501 2.71148 5.25578 0
M  V30 2477 H 234.431 0.198418 0.727424 0
M  V30 2478 H 237.082 1.11094 1.46049 0
M  V30 2479 H 235.464 0.274168 3.9505 0
M  V30 2480 H 236.638 3.08422 3.42364 0
M  V30 2481 H 234.953 2.66749 3.1974 0
M  V30 2482 H 237.55 0.827002 5.28266 0
M  V30 2483 H 237.893 -0.447531 4.13887 0
M  V30 2484 H 238.426 1.21462 3.78803 0
M  V30 2485 H 235.165 3.76207 5.36794 0
M  V30 2486 H 234.685 2.0696 5.62963 0
M  V30 2487 H 236.364 2.58072 5.93302 0
M  V30 2488 N 236.496 -1.42363 0.676048 0
M  V30 2489 C 237.406 -2.346 -0.00153389 0
M  V30 2490 C 238.422 -1.5516 -0.787485 0
M  V30 2491 O 239.598 -1.87723 -0.729521 0
M  V30 2492 C 236.663 -3.33705 -0.940298 0
M  V30 2493 C 235.724 -4.29042 -0.148739 0
M  V30 2494 C 234.957 -5.23413 -1.04279 0
M  V30 2495 O 235.18 -5.22749 -2.28232 0
M  V30 2496 O 234.114 -5.99795 -0.502925 0
M  V30 2497 H 237.94 -2.94082 0.758268 0
M  V30 2498 H 235.525 -1.42888 0.436289 0
M  V30 2499 H 237.407 -3.94586 -1.47917 0
M  V30 2500 H 236.082 -2.76695 -1.67993 0
M  V30 2501 H 234.989 -3.71571 0.43427 0
M  V30 2502 H 236.322 -4.89097 0.551805 0
M  V30 2503 N 237.974 -0.419461 -1.51915 0
M  V30 2504 C 238.937 0.389116 -2.25873 0
M  V30 2505 C 239.937 0.964924 -1.28631 0
M  V30 2506 O 241.127 0.842179 -1.52489 0
M  V30 2507 C 238.259 1.54874 -3.03689 0
M  V30 2508 H 239.452 -0.258799 -2.98781 0
M  V30 2509 H 237.005 -0.172209 -1.55348 0
M  V30 2510 H 237.74 2.23323 -2.35154 0
M  V30 2511 H 237.525 1.14223 -3.75094 0
M  V30 2512 H 239.015 2.12046 -3.59759 0
M  V30 2513 N 239.452 1.56882 -0.150215 0
M  V30 2514 C 240.701 1.95403 0.500071 0
M  V30 2515 C 241.014 1.03777 1.658 0
M  V30 2516 O 242.22 1.31889 2.37313 0
M  V30 2517 C 240.676 3.4738 0.941018 0
M  V30 2518 C 240.284 4.47596 -0.190158 0
M  V30 2519 C 242.028 3.9476 1.56091 0
M  V30 2520 C 239.935 5.90787 0.269237 0
M  V30 2521 H 238.865 0.729515 0.190588 0
M  V30 2522 H 241.516 1.81988 -0.235074 0
M  V30 2523 H 239.898 3.56138 1.73152 0
M  V30 2524 H 241.072 4.50536 -0.967157 0
M  V30 2525 H 239.387 4.10151 -0.718666 0
M  V30 2526 H 241.984 4.99181 1.9163 0
M  V30 2527 H 242.327 3.36494 2.45107 0
M  V30 2528 H 242.86 3.88932 0.835249 0
M  V30 2529 H 239.599 6.52879 -0.585621 0
M  V30 2530 H 239.119 5.912 1.01204 0
M  V30 2531 H 240.798 6.42979 0.720176 0
M  V30 2532 N 240.93 -0.123565 1.57115 0
M  V30 2533 C 241.877 -1.15177 2.00007 0
M  V30 2534 C 242.847 -1.41403 0.871454 0
M  V30 2535 O 244.032 -1.53346 1.13533 0
M  V30 2536 C 241.172 -2.47436 2.40561 0
M  V30 2537 C 240.285 -2.28184 3.66819 0
M  V30 2538 C 239.42 -3.53641 3.96373 0
M  V30 2539 C 238.459 -3.29528 5.15827 0
M  V30 2540 N 237.596 -4.47175 5.41275 0
M  V30 2541 H 242.436 -0.779008 2.87638 0
M  V30 2542 H 239.973 -0.373166 1.42288 0
M  V30 2543 H 241.931 -3.24584 2.62109 0
M  V30 2544 H 240.561 -2.82614 1.55978 0
M  V30 2545 H 239.613 -1.41976 3.52912 0
M  V30 2546 H 240.925 -2.0634 4.5412 0
M  V30 2547 H 240.079 -4.39209 4.18545 0
M  V30 2548 H 238.818 -3.78512 3.07538 0
M  V30 2549 H 237.823 -2.42349 4.93505 0
M  V30 2550 H 239.048 -3.06031 6.06236 0
M  V30 2551 H 236.994 -4.72175 4.55397 0
M  V30 2552 H 236.911 -4.28419 6.22891 0
M  V30 2553 H 238.179 -5.3389 5.67963 0
M  V30 2554 N 242.408 -1.52605 -0.393616 0
M  V30 2555 C 243.358 -1.73436 -1.48 0
M  V30 2556 C 244.342 -0.588386 -1.49756 0
M  V30 2557 O 245.534 -0.846047 -1.5547 0
M  V30 2558 C 242.663 -1.90247 -2.85764 0
M  V30 2559 C 241.749 -3.10763 -2.88595 0
M  V30 2560 N 242.14 -4.33196 -2.61103 0
M  V30 2561 C 240.438 -3.10914 -3.19763 0
M  V30 2562 C 241.139 -5.1477 -2.70899 0
M  V30 2563 N 240.115 -4.50356 -3.04435 0
M  V30 2564 H 243.917 -2.65727 -1.25563 0
M  V30 2565 H 241.431 -1.5085 -0.601513 0
M  V30 2566 H 243.428 -2.03291 -3.63976 0
M  V30 2567 H 242.088 -0.991663 -3.09186 0
M  V30 2568 H 243.099 -4.61408 -2.35209 0
M  V30 2569 H 239.776 -2.29626 -3.4868 0
M  V30 2570 H 241.166 -6.22355 -2.53227 0
M  V30 2571 N 243.887 0.651787 -1.4349 0
M  V30 2572 C 245.136 1.40754 -1.44469 0
M  V30 2573 C 245.449 1.95463 -0.0731845 0
M  V30 2574 O 246.655 2.71471 0.0395721 0
M  V30 2575 C 245.111 2.54735 -2.5424 0
M  V30 2576 C 244.719 2.06628 -3.97504 0
M  V30 2577 C 246.463 3.32092 -2.64414 0
M  V30 2578 C 244.37 3.17829 -4.98737 0
M  V30 2579 H 243.3 0.528862 -0.53742 0
M  V30 2580 H 245.951 0.703365 -1.69485 0
M  V30 2581 H 244.333 3.2763 -2.22428 0
M  V30 2582 H 245.507 1.40734 -4.38783 0
M  V30 2583 H 243.822 1.42146 -3.91387 0
M  V30 2584 H 246.419 4.14952 -3.37223 0
M  V30 2585 H 246.762 3.80217 -1.69532 0
M  V30 2586 H 247.295 2.66279 -2.95534 0
M  V30 2587 H 244.034 2.74671 -5.95177 0
M  V30 2588 H 243.554 3.82429 -4.62069 0
M  V30 2589 H 245.233 3.82937 -5.21505 0
M  V30 2590 N 245.365 1.30045 0.890287 0
M  V30 2591 C 246.781 1.08261 1.17268 0
M  V30 2592 C 246.981 -0.160063 2.00863 0
M  V30 2593 O 246.037 -0.855181 2.37577 0
M  V30 2594 C 247.35 2.34323 1.8845 0
M  V30 2595 C 248.898 2.39735 2.01237 0
M  V30 2596 C 249.373 3.65625 2.7583 0
M  V30 2597 N 250.864 3.66402 2.83379 0
M  V30 2598 C 251.599 4.60498 3.41657 0
M  V30 2599 N 251.095 5.64933 4.01026 0
M  V30 2600 N 252.888 4.48051 3.39421 0
M  V30 2601 H 245.039 2.09777 0.332762 0
M  V30 2602 H 247.302 0.92446 0.209948 0
M  V30 2603 H 247.008 3.2498 1.34465 0
M  V30 2604 H 246.882 2.4256 2.88867 0
M  V30 2605 H 249.269 1.4956 2.54393 0
M  V30 2606 H 249.35 2.35476 0.999232 0
M  V30 2607 H 248.994 4.56156 2.23347 0
M  V30 2608 H 248.924 3.67144 3.77509 0
M  V30 2609 H 251.415 2.90896 2.41222 0
M  V30 2610 H 251.728 6.32841 4.43545 0
M  V30 2611 H 250.073 5.68732 3.99461 0
M  V30 2612 H 253.264 3.65649 2.92264 0
M  V30 2613 H 253.437 5.21565 3.84544 0
M  V30 2614 N 246.843 -1.10192 1.12674 0
M  V30 2615 C 248.071 -1.85983 0.906527 0
M  V30 2616 C 248.486 -1.80783 -0.544333 0
M  V30 2617 O 247.843 -1.19834 -1.37645 0
M  V30 2618 C 247.894 -3.34281 1.37618 0
M  V30 2619 O 247.615 -3.39401 2.77017 0
M  V30 2620 C 249.116 -4.26938 1.19325 0
M  V30 2621 H 246.336 -0.587716 0.323775 0
M  V30 2622 H 248.88 -1.39284 1.49734 0
M  V30 2623 H 247.035 -3.78436 0.828539 0
M  V30 2624 H 247.449 -4.31838 2.97684 0
M  V30 2625 H 248.923 -5.29181 1.57071 0
M  V30 2626 H 249.4 -4.38995 0.134097 0
M  V30 2627 H 250.006 -3.8859 1.72852 0
M  V30 2628 N 248.321 -0.919034 -1.28029 0
M  V30 2629 C 249.567 -0.555757 -1.95036 0
M  V30 2630 C 249.9 0.899198 -1.72128 0
M  V30 2631 O 249.175 1.64023 -1.04531 0
M  V30 2632 C 249.458 -0.872024 -3.49382 0
M  V30 2633 C 249.311 -2.3801 -3.81669 0
M  V30 2634 C 250.63 -0.37185 -4.38526 0
M  V30 2635 H 247.749 -0.203386 -0.708381 0
M  V30 2636 H 250.391 -1.14924 -1.51303 0
M  V30 2637 H 248.541 -0.366946 -3.86763 0
M  V30 2638 H 250.213 -2.9562 -3.54128 0
M  V30 2639 H 248.456 -2.83289 -3.28526 0
M  V30 2640 H 249.127 -2.55192 -4.8947 0
M  V30 2641 H 251.603 -0.804602 -4.08247 0
M  V30 2642 H 250.479 -0.622173 -5.45362 0
M  V30 2643 H 250.74 0.727934 -4.36066 0
M  V30 2644 N 249.799 1.42003 -0.683588 0
M  V30 2645 C 250.747 2.326 0.000815408 0
M  V30 2646 C 251.741 1.50308 0.781278 0
M  V30 2647 O 252.947 1.66322 0.688251 0
M  V30 2648 H 249.322 0.751758 0.0190616 0
M  V30 2649 H 251.293 2.88011 -0.780528 0
M  V30 2650 C 250.042 3.34978 0.93195 0
M  V30 2651 H 249.365 3.98345 0.340817 0
M  V30 2652 H 250.805 4.00936 1.37936 0
M  V30 2653 C 249.264 2.67925 2.04249 0
M  V30 2654 O 249.794 2.51788 3.12995 0
M  V30 2655 N 248 2.2681 1.81675 0
M  V30 2656 H 247.547 2.40135 0.932363 0
M  V30 2657 H 247.505 1.8228 2.56167 0
M  V30 2658 N 251.277 0.427512 1.51691 0
M  V30 2659 C 252.225 -0.403359 2.29076 0
M  V30 2660 C 253.219 -1.02962 1.34518 0
M  V30 2661 O 254.425 -0.965715 1.51901 0
M  V30 2662 H 250.8 -0.148879 0.737115 0
M  V30 2663 H 252.771 0.270295 2.97173 0
M  V30 2664 C 251.52 -1.49763 3.13794 0
M  V30 2665 H 250.843 -1.02508 3.86435 0
M  V30 2666 H 252.283 -2.05244 3.71014 0
M  V30 2667 C 250.742 -2.47536 2.28533 0
M  V30 2668 O 251.272 -3.51848 1.93819 0
M  V30 2669 N 249.478 -2.18187 1.91945 0
M  V30 2670 H 249.025 -1.33389 2.20375 0
M  V30 2671 H 248.983 -2.83848 1.35195 0
M  V30 2672 N 252.755 -1.56801 0.158532 0
M  V30 2673 C 253.665 -2.20916 -0.789518 0
M  V30 2674 C 254.681 -1.1969 -1.26294 0
M  V30 2675 O 255.857 -1.52308 -1.31773 0
M  V30 2676 C 252.922 -2.82727 -2.00665 0
M  V30 2677 C 251.983 -3.99114 -1.58134 0
M  V30 2678 C 251.216 -4.57968 -2.74045 0
M  V30 2679 O 251.439 -4.15704 -3.90572 0
M  V30 2680 O 250.373 -5.48047 -2.48855 0
M  V30 2681 H 254.199 -3.02464 -0.273681 0
M  V30 2682 H 251.784 -1.4924 -0.0690548 0
M  V30 2683 H 253.666 -3.21968 -2.71872 0
M  V30 2684 H 252.341 -2.04184 -2.51179 0
M  V30 2685 H 251.248 -3.64567 -0.839155 0
M  V30 2686 H 252.581 -4.79212 -1.12325 0
M  V30 2687 N 254.233 0.115231 -1.57178 0
M  V30 2688 C 255.482 0.820945 -1.84237 0
M  V30 2689 C 255.795 1.80866 -0.744761 0
M  V30 2690 O 257.001 2.56083 -0.901871 0
M  V30 2691 C 255.457 1.51072 -3.26658 0
M  V30 2692 C 255.065 0.563795 -4.44438 0
M  V30 2693 C 256.809 2.20134 -3.62962 0
M  V30 2694 C 254.716 1.25701 -5.77887 0
M  V30 2695 H 253.646 0.310328 -0.687177 0
M  V30 2696 H 256.297 0.0737134 -1.83352 0
M  V30 2697 H 254.679 2.30471 -3.22024 0
M  V30 2698 H 255.853 -0.197247 -4.60378 0
M  V30 2699 H 254.168 -0.0200638 -4.16395 0
M  V30 2700 H 256.765 2.72696 -4.59936 0
M  V30 2701 H 257.108 2.98107 -2.90582 0
M  V30 2702 H 257.641 1.47619 -3.69396 0
M  V30 2703 H 254.38 0.518493 -6.53446 0
M  V30 2704 H 253.9 1.98997 -5.65827 0
M  V30 2705 H 255.579 1.78915 -6.2177 0
M  V30 2706 N 255.711 1.52812 0.385517 0
M  V30 2707 C 256.658 1.77838 1.47113 0
M  V30 2708 C 257.628 0.621757 1.54024 0
M  V30 2709 O 258.813 0.861846 1.70226 0
M  V30 2710 C 255.953 1.95618 2.84302 0
M  V30 2711 C 255.066 3.23316 2.86515 0
M  V30 2712 C 254.201 3.31394 4.15152 0
M  V30 2713 C 253.24 4.53201 4.1143 0
M  V30 2714 N 252.377 4.58542 5.3168 0
M  V30 2715 H 257.217 2.70482 1.25073 0
M  V30 2716 H 254.754 1.34006 0.606692 0
M  V30 2717 H 256.712 2.03912 3.63972 0
M  V30 2718 H 255.342 1.06331 3.04784 0
M  V30 2719 H 254.394 3.24076 1.99195 0
M  V30 2720 H 255.706 4.13045 2.79634 0
M  V30 2721 H 254.86 3.3889 5.03228 0
M  V30 2722 H 253.599 2.39645 4.24761 0
M  V30 2723 H 252.604 4.45827 3.21742 0
M  V30 2724 H 253.829 5.46271 4.03442 0
M  V30 2725 H 251.775 3.69686 5.41912 0
M  V30 2726 H 251.692 5.42148 5.26889 0
M  V30 2727 H 252.96 4.70296 6.21644 0
M  V30 2728 N 257.189 -0.644168 1.43834 0
M  V30 2729 C 258.419 -1.42939 1.49171 0
M  V30 2730 C 258.827 -1.88874 0.111048 0
M  V30 2731 O 258.17 -1.60656 -0.8908 0
M  V30 2732 C 258.232 -2.69151 2.38324 0
M  V30 2733 C 257.896 -2.45097 3.85715 0
M  V30 2734 C 258.893 -2.07747 4.76589 0
M  V30 2735 C 256.578 -2.59141 4.30292 0
M  V30 2736 C 258.572 -1.8475 6.10038 0
M  V30 2737 C 256.259 -2.35759 5.63792 0
M  V30 2738 C 257.257 -1.9862 6.53482 0
M  V30 2739 O 256.945 -1.75489 7.84512 0
M  V30 2740 H 256.677 -0.445271 0.508635 0
M  V30 2741 H 259.231 -0.79621 1.8934 0
M  V30 2742 H 257.461 -3.3506 1.93058 0
M  V30 2743 H 259.15 -3.31123 2.3476 0
M  V30 2744 H 259.916 -1.96465 4.43426 0
M  V30 2745 H 255.795 -2.87022 3.60749 0
M  V30 2746 H 259.339 -1.55686 6.80006 0
M  V30 2747 H 255.236 -2.46646 5.9652 0
M  V30 2748 H 256.004 -1.89841 7.9618 0
M  V30 2749 N 258.668 -1.30515 -0.883378 0
M  V30 2750 C 259.598 -1.19607 -2.00541 0
M  V30 2751 C 260.579 -0.086346 -1.69881 0
M  V30 2752 O 261.764 -0.268654 -1.92333 0
M  V30 2753 C 258.894 -0.888758 -3.35736 0
M  V30 2754 C 257.848 -1.95659 -3.8066 0
M  V30 2755 C 257.174 -1.50224 -5.13164 0
M  V30 2756 C 258.474 -3.36788 -3.99213 0
M  V30 2757 H 260.168 -2.13476 -2.09925 0
M  V30 2758 H 257.714 -1.02775 -1.00863 0
M  V30 2759 H 259.667 -0.799094 -4.13754 0
M  V30 2760 H 258.391 0.0856125 -3.26488 0
M  V30 2761 H 257.05 -2.03591 -3.04871 0
M  V30 2762 H 256.698 -0.516092 -5.00345 0
M  V30 2763 H 256.398 -2.2165 -5.44192 0
M  V30 2764 H 257.922 -1.42639 -5.93706 0
M  V30 2765 H 259.336 -3.31605 -4.67665 0
M  V30 2766 H 257.733 -4.06314 -4.41621 0
M  V30 2767 H 258.803 -3.78561 -3.03017 0
M  V30 2768 N 260.146 1.09593 -1.13257 0
M  V30 2769 C 261.386 1.83349 -0.903472 0
M  V30 2770 C 261.75 1.83641 0.560351 0
M  V30 2771 O 262.951 2.53037 0.906947 0
M  V30 2772 C 261.222 3.25629 -1.47311 0
M  V30 2773 S 262.781 4.16408 -1.38382 0
M  V30 2774 H 259.599 0.632014 -0.325699 0
M  V30 2775 H 262.201 1.31817 -1.44376 0
M  V30 2776 H 260.905 3.22991 -2.53189 0
M  V30 2777 H 260.436 3.82233 -0.930689 0
M  V30 2778 H 262.451 4.94884 -0.361113 0
M  V30 2779 N 261.624 0.925811 1.2754 0
M  V30 2780 C 262.849 0.580924 1.99098 0
M  V30 2781 C 263.274 -0.833555 1.68622 0
M  V30 2782 O 262.632 -1.55903 0.925422 0
M  V30 2783 C 262.68 0.811186 3.51358 0
M  V30 2784 O 261.784 -0.124129 4.12213 0
M  V30 2785 H 261.125 0.223873 0.625122 0
M  V30 2786 H 263.655 1.24455 1.62395 0
M  V30 2787 H 263.665 0.72601 4.01489 0
M  V30 2788 H 262.34 1.84227 3.72872 0
M  V30 2789 H 260.917 0.0108006 3.72898 0
M  V30 2790 N 263.102 -1.41638 0.69111 0
M  V30 2791 C 264.032 -2.3347 0.037248 0
M  V30 2792 C 265.013 -1.51575 -0.771947 0
M  V30 2793 O 266.198 -1.80126 -0.72582 0
M  V30 2794 C 263.328 -3.35354 -0.903064 0
M  V30 2795 C 262.282 -4.27526 -0.201288 0
M  V30 2796 C 261.608 -5.19747 -1.25565 0
M  V30 2797 C 262.908 -5.13959 0.929689 0
M  V30 2798 H 264.602 -2.88397 0.804227 0
M  V30 2799 H 262.148 -1.38669 0.388189 0
M  V30 2800 H 264.101 -3.98519 -1.36969 0
M  V30 2801 H 262.825 -2.78767 -1.70166 0
M  V30 2802 H 261.484 -3.65779 0.245265 0
M  V30 2803 H 261.132 -4.59479 -2.04666 0
M  V30 2804 H 260.832 -5.8225 -0.791128 0
M  V30 2805 H 262.356 -5.85789 -1.72288 0
M  V30 2806 H 263.77 -5.70718 0.543546 0
M  V30 2807 H 262.167 -5.85379 1.32103 0
M  V30 2808 H 263.237 -4.51389 1.77133 0
M  V30 2809 N 264.58 -0.43555 -1.51462 0
M  V30 2810 C 265.805 0.132627 -2.06976 0
M  V30 2811 C 266.23 1.35848 -1.30104 0
M  V30 2812 O 265.588 1.78112 -0.338493 0
M  V30 2813 C 265.636 0.43523 -3.57964 0
M  V30 2814 O 264.74 1.52198 -3.83288 0
M  V30 2815 H 264.081 0.00265 -0.663995 0
M  V30 2816 H 266.611 -0.616369 -1.95095 0
M  V30 2817 H 266.621 0.686206 -4.02188 0
M  V30 2818 H 265.296 -0.460739 -4.1334 0
M  V30 2819 H 263.873 1.2611 -3.50928 0
M  V30 2820 N 266.058 1.56714 -0.166846 0
M  V30 2821 C 267.335 1.88412 0.525373 0
M  V30 2822 C 267.715 1.07602 1.81618 0
M  V30 2823 O 267.063 0.168621 2.27877 0
M  V30 2824 C 267.273 3.40363 0.771613 0
M  V30 2825 C 268.621 4.10007 1.1036 0
M  V30 2826 O 269.645 3.45655 0.860304 0
M  V30 2827 O 268.504 5.2369 1.56239 0
M  V30 2828 H 265.598 0.781587 0.270278 0
M  V30 2829 H 268.144 1.68458 -0.204946 0
M  V30 2830 H 266.916 3.91046 -0.141093 0
M  V30 2831 H 266.539 3.65914 1.55541 0
M  V30 2832 N 267.536 -0.106894 1.57237 0
M  V30 2833 C 268.761 -0.830287 1.90055 0
M  V30 2834 C 269.186 -1.72064 0.75998 0
M  V30 2835 O 268.544 -1.78982 -0.288991 0
M  V30 2836 C 268.592 -1.6295 3.21683 0
M  V30 2837 O 267.696 -2.73748 3.08441 0
M  V30 2838 H 267.037 -0.228855 0.623315 0
M  V30 2839 H 269.567 -0.085658 2.04421 0
M  V30 2840 H 269.577 -2.01621 3.54701 0
M  V30 2841 H 268.252 -0.975989 4.04286 0
M  V30 2842 H 266.829 -2.38192 2.86913 0
M  V30 2843 N 269.014 -1.53014 -0.377408 0
M  V30 2844 C 269.924 -1.81557 -1.48574 0
M  V30 2845 C 270.94 -0.703102 -1.59162 0
M  V30 2846 O 272.116 -0.99192 -1.75279 0
M  V30 2847 C 269.181 -1.9889 -2.83978 0
M  V30 2848 C 268.242 -3.22801 -2.83016 0
M  V30 2849 C 267.475 -3.39298 -4.11962 0
M  V30 2850 O 267.698 -2.60345 -5.0752 0
M  V30 2851 O 266.632 -4.32604 -4.18494 0
M  V30 2852 H 270.458 -2.75695 -1.27382 0
M  V30 2853 H 268.043 -1.38248 -0.566373 0
M  V30 2854 H 269.925 -2.11931 -3.6423 0
M  V30 2855 H 268.6 -1.07942 -3.05172 0
M  V30 2856 H 267.507 -3.15193 -2.01505 0
M  V30 2857 H 268.84 -4.13632 -2.66775 0
M  V30 2858 N 270.492 0.636531 -1.44174 0
M  V30 2859 C 271.738 1.39826 -1.4689 0
M  V30 2860 C 272.071 1.93947 -0.0990585 0
M  V30 2861 O 271.346 1.73325 0.882544 0
M  V30 2862 C 271.629 2.56751 -2.5249 0
M  V30 2863 C 271.482 2.08014 -3.98811 0
M  V30 2864 C 272.801 3.58946 -2.54649 0
M  V30 2865 H 269.92 0.507075 -0.53483 0
M  V30 2866 H 272.562 0.720188 -1.75822 0
M  V30 2867 H 270.712 3.14597 -2.2795 0
M  V30 2868 H 272.384 1.5504 -4.34466 0
M  V30 2869 H 270.627 1.39242 -4.10846 0
M  V30 2870 H 271.298 2.92169 -4.68339 0
M  V30 2871 H 273.774 3.1089 -2.76563 0
M  V30 2872 H 272.65 4.38286 -3.3045 0
M  V30 2873 H 272.911 4.12655 -1.58646 0
M  V30 2874 N 271.97 1.30982 0.876444 0
M  V30 2875 C 273.2 1.23063 1.65949 0
M  V30 2876 C 273.608 -0.207537 1.88058 0
M  V30 2877 O 272.951 -1.14781 1.43426 0
M  V30 2878 C 273.013 1.89768 3.05333 0
M  V30 2879 C 272.677 3.39106 3.0636 0
M  V30 2880 C 273.674 4.3496 2.84791 0
M  V30 2881 C 271.359 3.80693 3.27686 0
M  V30 2882 C 273.353 5.70375 2.84519 0
M  V30 2883 C 271.04 5.16223 3.27043 0
M  V30 2884 C 272.038 6.10875 3.05485 0
M  V30 2885 O 271.726 7.43928 3.04674 0
M  V30 2886 H 271.458 0.426685 0.524324 0
M  V30 2887 H 274.012 1.7329 1.10271 0
M  V30 2888 H 272.242 1.34082 3.6271 0
M  V30 2889 H 273.931 1.75853 3.65829 0
M  V30 2890 H 274.697 4.0416 2.68103 0
M  V30 2891 H 270.576 3.07457 3.43499 0
M  V30 2892 H 274.12 6.44228 2.67611 0
M  V30 2893 H 270.017 5.4666 3.43269 0
M  V30 2894 H 270.785 7.53022 3.2078 0
M  V30 2895 N 273.449 -1.08991 1.13837 0
M  V30 2896 C 274.399 -2.1393 0.788535 0
M  V30 2897 C 275.383 -1.59396 -0.219516 0
M  V30 2898 O 276.575 -1.76985 -0.0227557 0
M  V30 2899 C 273.704 -3.42305 0.261147 0
M  V30 2900 C 272.79 -4.03736 1.29837 0
M  V30 2901 N 273.181 -4.39659 2.50067 0
M  V30 2902 C 271.479 -4.30993 1.1472 0
M  V30 2903 C 272.18 -4.88113 3.16419 0
M  V30 2904 N 271.156 -4.85846 2.43832 0
M  V30 2905 H 274.958 -2.39516 1.70322 0
M  V30 2906 H 272.472 -1.26263 1.02134 0
M  V30 2907 H 274.469 -4.16899 -0.0077405 0
M  V30 2908 H 273.129 -3.18172 -0.647805 0
M  V30 2909 H 274.14 -4.30878 2.8734 0
M  V30 2910 H 270.817 -4.16444 0.296773 0
M  V30 2911 H 272.207 -5.25336 4.18894 0
M  V30 2912 N 274.927 -0.932562 -1.27047 0
M  V30 2913 C 276.174 -0.575559 -1.94148 0
M  V30 2914 C 276.502 0.883984 -1.73251 0
M  V30 2915 O 275.757 1.64655 -1.0577 0
M  V30 2916 C 276.056 -0.853713 -3.47054 0
M  V30 2917 C 275.722 -2.29577 -3.88079 0
M  V30 2918 C 274.384 -2.68999 -3.9899 0
M  V30 2919 C 276.736 -3.23331 -4.08787 0
M  V30 2920 C 274.064 -4.01289 -4.28 0
M  V30 2921 C 276.416 -4.55207 -4.39282 0
M  V30 2922 C 275.08 -4.94457 -4.48407 0
M  V30 2923 H 274.35 -0.210612 -0.710439 0
M  V30 2924 H 276.997 -1.17744 -1.51025 0
M  V30 2925 H 275.302 -0.169204 -3.91434 0
M  V30 2926 H 276.999 -0.55639 -3.97121 0
M  V30 2927 H 273.589 -1.97994 -3.80127 0
M  V30 2928 H 277.773 -2.94074 -3.99793 0
M  V30 2929 H 273.029 -4.31374 -4.33275 0
M  V30 2930 H 277.203 -5.27852 -4.54252 0
M  V30 2931 H 274.83 -5.96994 -4.7064 0
M  V30 2932 N 276.405 1.4127 -0.698611 0
M  V30 2933 C 277.368 2.29158 -0.044132 0
M  V30 2934 C 278.368 1.44529 0.704841 0
M  V30 2935 O 279.558 1.65643 0.539276 0
M  V30 2936 C 276.69 3.27459 0.947809 0
M  V30 2937 H 277.883 2.88529 -0.817994 0
M  V30 2938 H 275.436 1.49307 -0.46228 0
M  V30 2939 H 276.171 2.73073 1.74933 0
M  V30 2940 H 275.956 3.8991 0.41385 0
M  V30 2941 H 277.446 3.93311 1.40344 0
M  V30 2942 N 277.883 0.443576 1.51229 0
M  V30 2943 C 278.83 -0.364716 2.279 0
M  V30 2944 C 279.8 -1.0114 1.31757 0
M  V30 2945 O 280.985 -1.02912 1.60667 0
M  V30 2946 C 278.125 -1.45644 3.12861 0
M  V30 2947 C 277.238 -0.827269 4.24005 0
M  V30 2948 C 276.373 -1.89456 4.96266 0
M  V30 2949 C 275.412 -1.24416 5.99322 0
M  V30 2950 N 274.549 -2.25309 6.64966 0
M  V30 2951 H 279.389 0.295464 2.96532 0
M  V30 2952 H 276.926 0.157554 1.46254 0
M  V30 2953 H 278.884 -2.10076 3.6045 0
M  V30 2954 H 277.514 -2.08616 2.46331 0
M  V30 2955 H 276.566 -0.0710839 3.80334 0
M  V30 2956 H 277.878 -0.312481 4.9782 0
M  V30 2957 H 277.032 -2.61535 5.47434 0
M  V30 2958 H 275.771 -2.4431 4.22095 0
M  V30 2959 H 274.776 -0.508868 5.4744 0
M  V30 2960 H 276.001 -0.702882 6.75453 0
M  V30 2961 H 273.947 -2.79231 5.93604 0
M  V30 2962 H 273.864 -1.78739 7.34567 0
M  V30 2963 H 275.132 -2.96853 7.20763 0
M  V30 2964 N 279.361 -1.56624 0.175154 0
M  V30 2965 C 280.308 -2.18149 -0.753634 0
M  V30 2966 C 281.278 -1.12265 -1.22417 0
M  V30 2967 O 282.463 -1.40432 -1.29165 0
M  V30 2968 C 279.603 -2.82933 -1.97592 0
M  V30 2969 C 278.716 -4.03289 -1.5486 0
M  V30 2970 C 277.851 -4.55988 -2.72485 0
M  V30 2971 C 276.89 -5.68746 -2.26262 0
M  V30 2972 N 276.027 -6.15938 -3.36994 0
M  V30 2973 H 280.867 -2.9717 -0.222195 0
M  V30 2974 H 278.404 -1.46774 -0.0979422 0
M  V30 2975 H 280.362 -3.18653 -2.69288 0
M  V30 2976 H 278.992 -2.06509 -2.481 0
M  V30 2977 H 278.044 -3.73364 -0.728246 0
M  V30 2978 H 279.356 -4.849 -1.16933 0
M  V30 2979 H 278.51 -4.9391 -3.52332 0
M  V30 2980 H 277.249 -3.73443 -3.13674 0
M  V30 2981 H 276.254 -5.30372 -1.44863 0
M  V30 2982 H 277.479 -6.53095 -1.86127 0
M  V30 2983 H 275.425 -5.36321 -3.77751 0
M  V30 2984 H 275.342 -6.92548 -3.03172 0
M  V30 2985 H 276.61 -6.58511 -4.17114 0
M  V30 2986 N 280.839 0.0985539 -1.57292 0
M  V30 2987 C 282.088 0.801358 -1.85098 0
M  V30 2988 C 282.401 1.80066 -0.763902 0
M  V30 2989 O 283.607 2.55112 -0.928981 0
M  V30 2990 C 282.063 1.47599 -3.28242 0
M  V30 2991 C 281.671 0.516624 -4.45011 0
M  V30 2992 C 283.415 2.16272 -3.65276 0
M  V30 2993 C 281.322 1.19564 -5.79188 0
M  V30 2994 H 280.252 0.303022 -0.69043 0
M  V30 2995 H 282.903 0.0542623 -1.8342 0
M  V30 2996 H 281.285 2.27042 -3.2445 0
M  V30 2997 H 282.459 -0.246065 -4.60143 0
M  V30 2998 H 280.774 -0.064227 -4.1635 0
M  V30 2999 H 283.371 2.67802 -4.62803 0
M  V30 3000 H 283.714 2.95009 -2.93727 0
M  V30 3001 H 284.247 1.43693 -3.70941 0
M  V30 3002 H 280.986 0.449157 -6.53959 0
M  V30 3003 H 280.506 1.92984 -5.67906 0
M  V30 3004 H 282.185 1.7231 -6.23633 0
M  V30 3005 N 282.317 1.53212 0.369288 0
M  V30 3006 C 283.265 1.80054 1.47253 0
M  V30 3007 C 284.259 0.669456 1.55611 0
M  V30 3008 O 285.465 0.852328 1.58541 0
M  V30 3009 H 281.84 0.570034 0.490475 0
M  V30 3010 H 283.811 2.72403 1.21817 0
M  V30 3011 C 282.56 2.00403 2.84137 0
M  V30 3012 H 281.883 2.86876 2.78464 0
M  V30 3013 H 283.323 2.23164 3.60519 0
M  V30 3014 C 281.782 0.782081 3.27697 0
M  V30 3015 O 282.312 -0.0310205 4.01688 0
M  V30 3016 N 280.518 0.606573 2.84199 0
M  V30 3017 H 280.065 1.26939 2.24152 0
M  V30 3018 H 280.023 -0.20962 3.137 0
M  V30 3019 N 283.795 -0.628877 1.44509 0
M  V30 3020 C 284.758 -1.72263 1.51188 0
M  V30 3021 C 285.758 -1.55907 0.39367 0
M  V30 3022 O 286.948 -1.61361 0.656377 0
M  V30 3023 C 284.08 -3.11365 1.38798 0
M  V30 3024 H 285.273 -1.67714 2.4862 0
M  V30 3025 H 282.826 -0.842737 1.31634 0
M  V30 3026 H 283.561 -3.21507 0.424693 0
M  V30 3027 H 283.346 -3.24644 2.19884 0
M  V30 3028 H 284.836 -3.91075 1.46458 0
M  V30 3029 N 285.273 -1.31445 -0.869486 0
M  V30 3030 C 286.684 -1.19042 -1.43826 0
M  V30 3031 C 287.035 0.202919 -1.95148 0
M  V30 3032 O 286.16 1.10071 -1.86315 0
M  V30 3033 C 286.755 -2.15499 -2.6143 0
M  V30 3034 C 285.314 -2.07028 -3.14351 0
M  V30 3035 C 284.461 -2.04701 -1.87063 0
M  V30 3036 H 287.412 -1.43489 -0.677984 0
M  V30 3037 H 287.433 -1.74488 -3.38134 0
M  V30 3038 H 286.945 -3.16899 -2.24046 0
M  V30 3039 H 285.046 -1.08825 -3.56354 0
M  V30 3040 H 285.159 -2.96157 -3.766 0
M  V30 3041 H 283.523 -1.49724 -2.06046 0
M  V30 3042 H 284.306 -3.07857 -1.51917 0
M  V30 3043 N 286.751 1.08385 -1.14413 0
M  V30 3044 C 288 1.80153 -0.907076 0
M  V30 3045 C 288.313 1.87176 0.567851 0
M  V30 3046 O 289.519 2.55359 0.922172 0
M  V30 3047 C 287.975 3.23687 -1.57336 0
M  V30 3048 C 287.583 3.24897 -3.08457 0
M  V30 3049 C 289.327 4.00136 -1.41744 0
M  V30 3050 C 287.234 4.6302 -3.67921 0
M  V30 3051 H 286.164 0.675139 -0.335714 0
M  V30 3052 H 288.815 1.21733 -1.37307 0
M  V30 3053 H 287.197 3.82234 -1.03505 0
M  V30 3054 H 288.371 2.76055 -3.68958 0
M  V30 3055 H 286.686 2.61943 -3.2369 0
M  V30 3056 H 289.283 5.02201 -1.83572 0
M  V30 3057 H 289.626 4.14709 -0.363576 0
M  V30 3058 H 290.159 3.48058 -1.92614 0
M  V30 3059 H 286.898 4.5365 -4.73161 0
M  V30 3060 H 286.418 5.12143 -3.12201 0
M  V30 3061 H 288.097 5.31994 -3.68227 0
M  V30 3062 N 288.23 0.939286 1.26551 0
M  V30 3063 C 289.507 0.5038 1.89001 0
M  V30 3064 C 289.887 -1.01854 1.84903 0
M  V30 3065 O 289.235 -1.87773 1.30206 0
M  V30 3066 C 289.445 1.063 3.32417 0
M  V30 3067 C 290.793 1.13051 4.09273 0
M  V30 3068 O 291.817 1.01345 3.41479 0
M  V30 3069 O 290.676 1.31233 5.30509 0
M  V30 3070 H 287.77 0.163897 0.810597 0
M  V30 3071 H 290.316 1.03173 1.34735 0
M  V30 3072 H 289.088 2.10665 3.29752 0
M  V30 3073 H 288.711 0.517408 3.94219 0
M  V30 3074 N 289.708 -1.40897 0.706093 0
M  V30 3075 C 290.638 -2.33418 0.0620085 0
M  V30 3076 C 291.619 -1.52385 -0.755827 0
M  V30 3077 O 292.804 -1.80886 -0.706674 0
M  V30 3078 C 289.934 -3.36293 -0.867445 0
M  V30 3079 C 288.888 -4.27716 -0.155932 0
M  V30 3080 C 288.214 -5.2105 -1.20046 0
M  V30 3081 C 289.514 -5.12944 0.984149 0
M  V30 3082 H 291.208 -2.87527 0.83477 0
M  V30 3083 H 288.754 -1.38249 0.402875 0
M  V30 3084 H 290.707 -3.99949 -1.32735 0
M  V30 3085 H 289.431 -2.80556 -1.67199 0
M  V30 3086 H 288.09 -3.65498 0.284047 0
M  V30 3087 H 287.738 -4.61624 -1.99781 0
M  V30 3088 H 287.438 -5.83056 -0.729328 0
M  V30 3089 H 288.962 -5.87584 -1.66066 0
M  V30 3090 H 290.376 -5.70109 0.604048 0
M  V30 3091 H 288.773 -5.83945 1.38304 0
M  V30 3092 H 289.843 -4.49485 1.81911 0
M  V30 3093 N 291.186 -0.45159 -1.50991 0
M  V30 3094 C 292.432 0.110237 -2.025 0
M  V30 3095 C 292.765 1.41109 -1.33424 0
M  V30 3096 O 292.04 1.89135 -0.453659 0
M  V30 3097 C 292.323 0.314271 -3.58726 0
M  V30 3098 C 292.176 -1.00623 -4.38401 0
M  V30 3099 C 293.495 1.07767 -4.26702 0
M  V30 3100 H 290.614 0.0385897 -0.735989 0
M  V30 3101 H 293.256 -0.593374 -1.80497 0
M  V30 3102 H 291.406 0.913601 -3.77605 0
M  V30 3103 H 293.078 -1.64064 -4.31139 0
M  V30 3104 H 291.321 -1.6075 -4.02917 0
M  V30 3105 H 291.992 -0.817341 -5.45915 0
M  V30 3106 H 294.468 0.56986 -4.12179 0
M  V30 3107 H 293.344 1.18921 -5.35863 0
M  V30 3108 H 293.605 2.10939 -3.88532 0
M  V30 3109 N 292.664 1.56529 -0.183458 0
M  V30 3110 C 293.594 2.21549 0.737456 0
M  V30 3111 C 294.575 1.17489 1.23005 0
M  V30 3112 O 295.76 1.45959 1.281 0
M  V30 3113 C 292.89 2.86575 1.96194 0
M  V30 3114 C 291.844 3.96778 1.60473 0
M  V30 3115 C 291.17 4.48911 2.90487 0
M  V30 3116 C 292.47 5.15767 0.823497 0
M  V30 3117 H 294.164 2.98761 0.195453 0
M  V30 3118 H 291.71 1.43702 0.0925686 0
M  V30 3119 H 293.663 3.30739 2.61131 0
M  V30 3120 H 292.387 2.06749 2.52828 0
M  V30 3121 H 291.046 3.53286 0.978997 0
M  V30 3122 H 290.694 3.65862 3.45186 0
M  V30 3123 H 290.394 5.23265 2.67335 0
M  V30 3124 H 291.918 4.95771 3.56432 0
M  V30 3125 H 293.332 5.56549 1.37571 0
M  V30 3126 H 291.729 5.96114 0.690551 0
M  V30 3127 H 292.799 4.84574 -0.177782 0
M  V30 3128 N 294.142 -0.090211 1.57342 0
M  V30 3129 C 295.072 -1.10976 2.05443 0
M  V30 3130 C 296.053 -1.41482 0.944284 0
M  V30 3131 O 297.238 -1.51428 1.21586 0
M  V30 3132 C 294.368 -2.42831 2.48295 0
M  V30 3133 C 293.322 -2.26721 3.63018 0
M  V30 3134 C 292.648 -3.63796 3.91863 0
M  V30 3135 C 293.948 -1.7037 4.93732 0
M  V30 3136 H 295.642 -0.709564 2.9087 0
M  V30 3137 H 293.188 -0.339874 1.39932 0
M  V30 3138 H 295.141 -3.14431 2.80555 0
M  V30 3139 H 293.865 -2.84795 1.59873 0
M  V30 3140 H 292.524 -1.57565 3.31012 0
M  V30 3141 H 292.172 -4.03297 3.00601 0
M  V30 3142 H 291.872 -3.53861 4.69101 0
M  V30 3143 H 293.396 -4.36855 4.26603 0
M  V30 3144 H 294.81 -2.31816 5.24342 0
M  V30 3145 H 293.207 -1.71181 5.75167 0
M  V30 3146 H 294.277 -0.663542 4.80339 0
M  V30 3147 N 295.62 -1.53406 -0.361157 0
M  V30 3148 C 296.848 -1.73717 -1.12383 0
M  V30 3149 C 297.263 -0.468161 -1.82904 0
M  V30 3150 O 296.62 0.559198 -1.73722 0
M  V30 3151 C 296.671 -2.90558 -2.15078 0
M  V30 3152 O 296.392 -4.12549 -1.47428 0
M  V30 3153 C 297.893 -3.22777 -3.03858 0
M  V30 3154 H 295.113 -0.580896 -0.335858 0
M  V30 3155 H 297.657 -2.00167 -0.418728 0
M  V30 3156 H 295.812 -2.66489 -2.8118 0
M  V30 3157 H 296.226 -4.78009 -2.15887 0
M  V30 3158 H 297.7 -4.07927 -3.71887 0
M  V30 3159 H 298.177 -2.38329 -3.68912 0
M  V30 3160 H 298.783 -3.48787 -2.43367 0
M  V30 3161 N 297.098 0.621204 -1.44841 0
M  V30 3162 C 298.045 1.73267 -1.5247 0
M  V30 3163 C 299.015 1.6189 -0.371611 0
M  V30 3164 O 300.2 1.81668 -0.58321 0
M  V30 3165 C 297.34 3.11545 -1.48438 0
M  V30 3166 C 296.453 3.33827 -2.74196 0
M  V30 3167 C 295.588 4.62133 -2.61929 0
M  V30 3168 C 294.627 4.77627 -3.82804 0
M  V30 3169 N 293.764 5.97219 -3.69153 0
M  V30 3170 H 298.604 1.66082 -2.47428 0
M  V30 3171 H 296.141 0.810026 -1.22788 0
M  V30 3172 H 298.099 3.91528 -1.4409 0
M  V30 3173 H 296.729 3.1772 -0.570402 0
M  V30 3174 H 295.781 2.47715 -2.88689 0
M  V30 3175 H 297.093 3.41153 -3.6389 0
M  V30 3176 H 296.247 5.50291 -2.5547 0
M  V30 3177 H 294.986 4.57182 -1.69811 0
M  V30 3178 H 293.991 3.87896 -3.89637 0
M  V30 3179 H 295.216 4.84385 -4.75971 0
M  V30 3180 H 293.162 5.93339 -2.79794 0
M  V30 3181 H 293.079 6.05644 -4.52472 0
M  V30 3182 H 294.347 6.87912 -3.66603 0
M  V30 3183 N 298.576 1.31904 0.862503 0
M  V30 3184 C 299.523 1.20182 1.9704 0
M  V30 3185 C 300.493 0.0858247 1.65878 0
M  V30 3186 O 301.678 0.26 1.8902 0
M  V30 3187 C 298.818 0.922797 3.32533 0
M  V30 3188 C 297.931 2.12284 3.76244 0
M  V30 3189 C 297.066 1.77996 5.00491 0
M  V30 3190 C 296.105 2.94366 5.36671 0
M  V30 3191 N 295.242 2.60223 6.52095 0
M  V30 3192 H 300.082 2.14951 2.06398 0
M  V30 3193 H 297.619 1.06917 1.01031 0
M  V30 3194 H 299.577 0.741548 4.10557 0
M  V30 3195 H 298.207 0.0119227 3.22798 0
M  V30 3196 H 297.259 2.41461 2.9394 0
M  V30 3197 H 298.571 2.99357 3.98982 0
M  V30 3198 H 297.725 1.56377 5.862 0
M  V30 3199 H 296.464 0.881252 4.79672 0
M  V30 3200 H 295.469 3.16625 4.49476 0
M  V30 3201 H 296.694 3.84957 5.59451 0
M  V30 3202 H 294.64 1.72884 6.32809 0
M  V30 3203 H 294.557 3.40827 6.74814 0
M  V30 3204 H 295.825 2.42016 7.40978 0
M  V30 3205 N 300.054 -1.07777 1.14986 0
M  V30 3206 C 300.984 -2.16865 0.865557 0
M  V30 3207 C 301.965 -1.69123 -0.182083 0
M  V30 3208 O 303.15 -1.94164 -0.0373815 0
M  V30 3209 C 300.28 -3.45539 0.349313 0
M  V30 3210 C 299.234 -4.06708 1.33313 0
M  V30 3211 C 298.56 -5.30411 0.675918 0
M  V30 3212 C 299.86 -4.47241 2.69764 0
M  V30 3213 H 301.554 -2.40905 1.77778 0
M  V30 3214 H 299.1 -1.15781 0.856203 0
M  V30 3215 H 301.053 -4.21174 0.137983 0
M  V30 3216 H 299.777 -3.21072 -0.598362 0
M  V30 3217 H 298.436 -3.33112 1.53075 0
M  V30 3218 H 298.084 -5.02232 -0.277767 0
M  V30 3219 H 297.784 -5.72293 1.33244 0
M  V30 3220 H 299.308 -6.08755 0.474262 0
M  V30 3221 H 300.722 -5.14025 2.53873 0
M  V30 3222 H 299.119 -5.00062 3.3175 0
M  V30 3223 H 300.189 -3.58818 3.26156 0
M  V30 3224 N 301.532 -0.945985 -1.26051 0
M  V30 3225 C 302.479 -0.45809 -2.26208 0
M  V30 3226 C 303.449 0.484816 -1.58867 0
M  V30 3227 O 304.634 0.399969 -1.86561 0
M  V30 3228 C 301.774 0.266131 -3.44072 0
M  V30 3229 C 300.887 -0.713005 -4.26075 0
M  V30 3230 C 300.022 0.0329013 -5.3119 0
M  V30 3231 C 299.061 -0.93774 -6.04874 0
M  V30 3232 N 298.198 -0.223274 -7.01745 0
M  V30 3233 H 303.038 -1.3171 -2.67313 0
M  V30 3234 H 300.575 -0.66069 -1.31428 0
M  V30 3235 H 302.533 0.702514 -4.11243 0
M  V30 3236 H 301.163 1.08925 -3.03867 0
M  V30 3237 H 300.215 -1.26789 -3.58648 0
M  V30 3238 H 301.527 -1.45406 -4.77136 0
M  V30 3239 H 300.681 0.528335 -6.04395 0
M  V30 3240 H 299.42 0.806801 -4.8098 0
M  V30 3241 H 298.425 -1.44425 -5.30492 0
M  V30 3242 H 299.65 -1.71172 -6.57173 0
M  V30 3243 H 297.596 0.532046 -6.53839 0
M  V30 3244 H 297.513 -0.90357 -7.50581 0
M  V30 3245 H 298.781 0.250907 -7.79096 0
M  V30 3246 N 303.011 1.40521 -0.713556 0
M  V30 3247 C 304.427 1.54839 -0.386907 0
M  V30 3248 C 304.627 1.68532 1.1045 0
M  V30 3249 O 303.683 1.67377 1.89053 0
M  V30 3250 C 304.996 2.77792 -1.15118 0
M  V30 3251 C 306.544 2.91607 -1.13729 0
M  V30 3252 C 307.019 4.1747 -1.88368 0
M  V30 3253 N 308.51 4.24466 -1.85427 0
M  V30 3254 C 309.245 5.20755 -2.40004 0
M  V30 3255 N 308.741 6.22965 -3.03129 0
M  V30 3256 N 310.534 5.1282 -2.30158 0
M  V30 3257 H 302.685 1.29879 -1.68063 0
M  V30 3258 H 304.948 0.627896 -0.710247 0
M  V30 3259 H 304.654 2.73944 -2.20561 0
M  V30 3260 H 304.528 3.6984 -0.741477 0
M  V30 3261 H 306.915 2.94959 -0.0910608 0
M  V30 3262 H 306.996 2.00682 -1.5862 0
M  V30 3263 H 306.64 4.1488 -2.9298 0
M  V30 3264 H 306.57 5.074 -1.40898 0
M  V30 3265 H 309.061 3.51241 -1.3942 0
M  V30 3266 H 309.374 6.92859 -3.42295 0
M  V30 3267 H 307.719 6.23415 -3.07212 0
M  V30 3268 H 310.91 4.31899 -1.80501 0
M  V30 3269 H 311.083 5.87689 -2.72993 0
M  V30 3270 N 304.489 0.459591 1.5075 0
M  V30 3271 C 305.419 -0.330644 2.31147 0
M  V30 3272 C 306.4 -1.00087 1.37538 0
M  V30 3273 O 307.585 -1.00025 1.66459 0
M  V30 3274 C 304.715 -1.41958 3.16962 0
M  V30 3275 C 303.669 -0.871608 4.19031 0
M  V30 3276 C 302.995 -2.05797 4.9351 0
M  V30 3277 C 304.295 0.109251 5.22186 0
M  V30 3278 H 305.989 0.340336 2.97459 0
M  V30 3279 H 303.535 0.165119 1.4305 0
M  V30 3280 H 305.488 -1.9798 3.71997 0
M  V30 3281 H 304.212 -2.11917 2.48513 0
M  V30 3282 H 302.871 -0.333442 3.6508 0
M  V30 3283 H 302.519 -2.74427 4.21544 0
M  V30 3284 H 302.219 -1.6976 5.62544 0
M  V30 3285 H 303.743 -2.62331 5.51375 0
M  V30 3286 H 305.157 -0.361405 5.7216 0
M  V30 3287 H 303.554 0.383316 5.98875 0
M  V30 3288 H 304.624 1.03887 4.73641 0
M  V30 3289 N 305.967 -1.56429 0.191757 0
M  V30 3290 C 307.378 -1.83912 -0.321428 0
M  V30 3291 C 307.729 -1.11231 -1.61623 0
M  V30 3292 O 306.854 -0.37202 -2.13178 0
M  V30 3293 C 307.449 -3.33624 -0.589961 0
M  V30 3294 C 306.008 -3.6153 -1.04753 0
M  V30 3295 C 305.155 -2.7714 -0.0943327 0
M  V30 3296 H 308.106 -1.53161 0.415612 0
M  V30 3297 H 308.127 -3.52213 -1.43966 0
M  V30 3298 H 307.639 -3.86495 0.352588 0
M  V30 3299 H 305.74 -3.14089 -2.00447 0
M  V30 3300 H 305.853 -4.69737 -0.942549 0
M  V30 3301 H 304.217 -2.47638 -0.595589 0
M  V30 3302 H 305 -3.32799 0.842601 0
M  V30 3303 N 307.445 0.0818655 -1.57387 0
M  V30 3304 C 308.691 0.784074 -1.8703 0
M  V30 3305 C 309.024 1.77729 -0.782689 0
M  V30 3306 O 308.299 1.93384 0.208051 0
M  V30 3307 C 308.582 1.50105 -3.27323 0
M  V30 3308 C 308.435 0.524925 -4.46727 0
M  V30 3309 C 309.754 2.44843 -3.65705 0
M  V30 3310 H 306.873 0.283582 -0.680257 0
M  V30 3311 H 309.515 0.0474352 -1.89941 0
M  V30 3312 H 307.665 2.12897 -3.24972 0
M  V30 3313 H 309.337 -0.0970111 -4.61198 0
M  V30 3314 H 307.58 -0.160606 -4.33503 0
M  V30 3315 H 308.251 1.064 -5.41648 0
M  V30 3316 H 310.727 1.92135 -3.69085 0
M  V30 3317 H 309.603 2.92018 -4.64776 0
M  V30 3318 H 309.864 3.29197 -2.95096 0
M  V30 3319 N 308.923 1.53595 0.353017 0
M  V30 3320 C 310.169 1.70638 1.09593 0
M  V30 3321 C 310.502 0.463286 1.88593 0
M  V30 3322 O 309.777 -0.539597 1.86865 0
M  V30 3323 C 310.06 2.96406 2.04489 0
M  V30 3324 C 309.913 4.30901 1.29014 0
M  V30 3325 C 311.232 3.17812 3.0444 0
M  V30 3326 H 308.351 0.620913 0.397034 0
M  V30 3327 H 310.993 1.86254 0.375446 0
M  V30 3328 H 309.143 2.83223 2.65927 0
M  V30 3329 H 310.815 4.55917 0.702638 0
M  V30 3330 H 309.058 4.29741 0.592071 0
M  V30 3331 H 309.729 5.1506 1.98537 0
M  V30 3332 H 312.205 3.30263 2.53112 0
M  V30 3333 H 311.081 4.07223 3.6805 0
M  V30 3334 H 311.342 2.33669 3.75301 0
M  V30 3335 N 310.401 -0.613514 1.45168 0
M  V30 3336 C 311.349 -1.74572 1.53712 0
M  V30 3337 C 312.343 -1.64426 0.407505 0
M  V30 3338 O 313.549 -1.70291 0.583176 0
M  V30 3339 H 309.924 -0.576641 0.48269 0
M  V30 3340 H 311.895 -1.64492 2.48968 0
M  V30 3341 C 310.644 -3.12943 1.51532 0
M  V30 3342 H 309.967 -3.21407 2.37776 0
M  V30 3343 H 311.407 -3.9201 1.61569 0
M  V30 3344 C 309.866 -3.36053 0.238798 0
M  V30 3345 O 310.396 -3.95837 -0.6838 0
M  V30 3346 N 308.602 -2.9028 0.136359 0
M  V30 3347 H 308.149 -2.41811 0.887999 0
M  V30 3348 H 308.107 -3.06116 -0.716944 0
M  V30 3349 N 311.879 -1.3236 -0.855495 0
M  V30 3350 C 313.126 -1.22872 -1.60962 0
M  V30 3351 C 313.454 0.209658 -1.93367 0
M  V30 3352 O 312.709 1.16243 -1.57436 0
M  V30 3353 C 313.008 -2.03275 -2.93963 0
M  V30 3354 C 312.674 -3.5264 -2.80991 0
M  V30 3355 C 311.336 -3.93364 -2.7716 0
M  V30 3356 C 313.688 -4.47626 -2.66983 0
M  V30 3357 C 311.016 -5.27319 -2.572 0
M  V30 3358 C 313.368 -5.81723 -2.48558 0
M  V30 3359 C 312.032 -6.2165 -2.4312 0
M  V30 3360 H 311.302 -0.44962 -0.589001 0
M  V30 3361 H 313.949 -1.63777 -0.992442 0
M  V30 3362 H 312.254 -1.55095 -3.59795 0
M  V30 3363 H 313.951 -1.93303 -3.51333 0
M  V30 3364 H 310.541 -3.20295 -2.84797 0
M  V30 3365 H 314.725 -4.17084 -2.68988 0
M  V30 3366 H 309.981 -5.57311 -2.51424 0
M  V30 3367 H 314.155 -6.5494 -2.36699 0
M  V30 3368 H 311.782 -7.25388 -2.27412 0
M  V30 3369 N 313.357 1.07166 -1.15556 0
M  V30 3370 C 314.32 2.12589 -0.856644 0
M  V30 3371 C 315.32 1.6015 0.14444 0
M  V30 3372 O 316.51 1.7399 -0.0854163 0
M  V30 3373 C 313.642 3.39753 -0.279405 0
M  V30 3374 H 314.835 2.40539 -1.79112 0
M  V30 3375 H 312.388 1.23086 -0.963298 0
M  V30 3376 H 313.123 3.17447 0.663174 0
M  V30 3377 H 312.908 3.79117 -1.00063 0
M  V30 3378 H 314.398 4.17507 -0.0879113 0
M  V30 3379 N 314.835 0.952656 1.25548 0
M  V30 3380 C 315.798 0.475794 2.24207 0
M  V30 3381 C 316.798 -0.419428 1.55234 0
M  V30 3382 O 317.988 -0.216994 1.72843 0
M  V30 3383 C 315.12 -0.312814 3.39462 0
M  V30 3384 H 316.313 1.34779 2.67908 0
M  V30 3385 H 313.866 0.735739 1.37901 0
M  V30 3386 H 314.601 -1.20257 3.01179 0
M  V30 3387 H 314.386 0.329404 3.90714 0
M  V30 3388 H 315.876 -0.635986 4.12729 0
M  V30 3389 N 316.313 -1.40141 0.720998 0
M  V30 3390 C 317.561 -2.0039 0.262323 0
M  V30 3391 C 317.882 -1.57469 -1.15015 0
M  V30 3392 O 317.152 -0.816582 -1.78069 0
M  V30 3393 H 315.732 -0.741063 0.093996 0
M  V30 3394 H 318.394 -1.71398 0.927835 0
M  V30 3395 H 317.49 -3.10658 0.299671 0
M  V30 3396 N 317.792 -0.46758 -1.50504 0
M  V30 3397 C 319.04 0.0884469 -2.01906 0
M  V30 3398 C 319.361 1.40532 -1.35188 0
M  V30 3399 O 318.631 1.89515 -0.496079 0
M  V30 3400 H 317.211 0.0356765 -0.746148 0
M  V30 3401 H 319.873 -0.6172 -1.84869 0
M  V30 3402 H 318.969 0.2425 -3.11156 0
M  V30 3403 N 319.27 1.56325 -0.20005 0
M  V30 3404 C 320.516 1.98012 0.438059 0
M  V30 3405 C 320.849 1.08702 1.60927 0
M  V30 3406 O 320.124 0.140064 1.93995 0
M  V30 3407 C 320.407 3.48841 0.893419 0
M  V30 3408 C 320.26 4.48928 -0.279947 0
M  V30 3409 C 321.579 4.03498 1.75719 0
M  V30 3410 H 318.698 0.719918 0.157757 0
M  V30 3411 H 321.34 1.87743 -0.291968 0
M  V30 3412 H 319.49 3.57723 1.51547 0
M  V30 3413 H 321.162 4.52079 -0.91772 0
M  V30 3414 H 319.405 4.23694 -0.930919 0
M  V30 3415 H 320.076 5.5194 0.0812601 0
M  V30 3416 H 322.552 3.97427 1.23253 0
M  V30 3417 H 321.428 5.09393 2.04476 0
M  V30 3418 H 321.689 3.4906 2.71311 0
M  V30 3419 N 320.748 -0.0735177 1.57428 0
M  V30 3420 C 321.711 -1.07192 2.02589 0
M  V30 3421 C 322.711 -1.31695 0.922661 0
M  V30 3422 O 323.901 -1.27445 1.18758 0
M  V30 3423 C 321.033 -2.41599 2.40506 0
M  V30 3424 H 322.226 -0.682727 2.92025 0
M  V30 3425 H 319.779 -0.319193 1.53006 0
M  V30 3426 H 320.514 -2.85354 1.5409 0
M  V30 3427 H 320.299 -2.25156 3.21009 0
M  V30 3428 H 321.789 -3.13367 2.76027 0
M  V30 3429 N 322.226 -1.5378 -0.344866 0
M  V30 3430 C 323.454 -1.74899 -1.10534 0
M  V30 3431 C 323.869 -0.487534 -1.82397 0
M  V30 3432 O 323.226 0.540741 -1.74305 0
M  V30 3433 C 323.277 -2.92822 -2.11984 0
M  V30 3434 O 322.998 -4.14089 -1.43044 0
M  V30 3435 C 324.499 -3.25982 -3.00417 0
M  V30 3436 H 321.719 -0.584426 -0.329678 0
M  V30 3437 H 324.263 -2.006 -0.397474 0
M  V30 3438 H 322.418 -2.69457 -2.78338 0
M  V30 3439 H 322.832 -4.80272 -2.10805 0
M  V30 3440 H 324.306 -4.11848 -3.67539 0
M  V30 3441 H 324.783 -2.42228 -3.66363 0
M  V30 3442 H 325.389 -3.51349 -2.39654 0
M  V30 3443 N 323.704 0.605807 -1.45491 0
M  V30 3444 C 325.115 1.18777 -1.44045 0
M  V30 3445 C 325.466 1.95471 -0.169001 0
M  V30 3446 O 324.591 2.0374 0.729324 0
M  V30 3447 C 325.186 2.16064 -2.60963 0
M  V30 3448 C 323.745 2.69633 -2.62631 0
M  V30 3449 C 322.892 1.45072 -2.36325 0
M  V30 3450 H 325.843 0.395017 -1.53705 0
M  V30 3451 H 325.864 2.9913 -2.35163 0
M  V30 3452 H 325.376 1.60217 -3.53486 0
M  V30 3453 H 323.477 3.29414 -1.74119 0
M  V30 3454 H 323.59 3.13944 -3.61906 0
M  V30 3455 H 321.954 1.74089 -1.85917 0
M  V30 3456 H 322.737 0.910899 -3.30995 0
M  V30 3457 N 325.182 1.32811 0.848464 0
M  V30 3458 C 326.145 1.22194 1.9391 0
M  V30 3459 C 327.145 0.143404 1.60159 0
M  V30 3460 O 328.335 0.394253 1.6968 0
M  V30 3461 C 325.467 0.88067 3.29328 0
M  V30 3462 H 326.66 2.19127 2.04752 0
M  V30 3463 H 324.213 1.16731 1.0394 0
M  V30 3464 H 324.948 -0.0865776 3.24184 0
M  V30 3465 H 324.733 1.66052 3.55203 0
M  V30 3466 H 326.223 0.830871 4.09251 0
M  V30 3467 N 326.66 -1.06551 1.16123 0
M  V30 3468 C 327.937 -1.76097 0.85142 0
M  V30 3469 C 328.317 -2.00802 -0.6513 0
M  V30 3470 O 327.665 -1.63302 -1.59827 0
M  V30 3471 C 327.875 -3.06384 1.67122 0
M  V30 3472 C 329.223 -3.80585 1.88255 0
M  V30 3473 O 330.247 -3.16218 1.63966 0
M  V30 3474 O 329.106 -4.96212 2.2899 0
M  V30 3475 H 326.2 -0.765102 0.313923 0
M  V30 3476 H 328.746 -1.12844 1.26745 0
M  V30 3477 H 327.518 -2.84071 2.69108 0
M  V30 3478 H 327.141 -3.77371 1.25206 0
M  V30 3479 N 328.138 -0.959301 -1.25041 0
M  V30 3480 C 329.101 -0.487677 -2.23952 0
M  V30 3481 C 330.101 0.41119 -1.55454 0
M  V30 3482 O 331.291 0.207825 -1.72956 0
M  V30 3483 C 328.423 0.294807 -3.39623 0
M  V30 3484 H 329.616 -1.36198 -2.67189 0
M  V30 3485 H 327.169 -0.743042 -1.37508 0
M  V30 3486 H 327.904 1.18658 -3.01813 0
M  V30 3487 H 327.689 -0.35012 -3.90534 0
M  V30 3488 H 329.179 0.614089 -4.1306 0
M  V30 3489 N 329.616 1.39756 -0.72842 0
M  V30 3490 C 330.579 2.29012 -0.0927297 0
M  V30 3491 C 331.579 1.45992 0.674025 0
M  V30 3492 O 332.769 1.66749 0.50402 0
M  V30 3493 C 329.901 3.29396 0.878137 0
M  V30 3494 H 331.094 2.86729 -0.879011 0
M  V30 3495 H 328.647 1.48293 -0.493847 0
M  V30 3496 H 329.382 2.76722 1.69101 0
M  V30 3497 H 329.167 3.907 0.331051 0
M  V30 3498 H 330.657 3.96199 1.3197 0
M  V30 3499 N 331.094 0.475555 1.50254 0
M  V30 3500 C 332.027 -0.362381 2.25304 0
M  V30 3501 C 333.005 -0.992393 1.28803 0
M  V30 3502 O 334.189 -1.02746 1.58036 0
M  V30 3503 C 331.316 -1.50813 3.03271 0
M  V30 3504 C 330.362 -0.995044 4.1473 0
M  V30 3505 S 331.195 0.0938436 5.35418 0
M  V30 3506 C 332.351 -1.05567 6.16933 0
M  V30 3507 H 332.584 0.274686 2.96028 0
M  V30 3508 H 330.117 0.260495 1.52187 0
M  V30 3509 H 332.075 -2.16476 3.48781 0
M  V30 3510 H 330.736 -2.11672 2.32064 0
M  V30 3511 H 329.929 -1.85293 4.68703 0
M  V30 3512 H 329.531 -0.416052 3.71679 0
M  V30 3513 H 331.823 -1.96636 6.48337 0
M  V30 3514 H 332.766 -0.555109 7.05921 0
M  V30 3515 H 333.174 -1.31151 5.49053 0
M  V30 3516 N 332.573 -1.56217 0.208337 0
M  V30 3517 C 333.813 -1.99849 -0.428927 0
M  V30 3518 C 334.177 -1.09262 -1.57879 0
M  V30 3519 O 335.378 -1.42185 -2.28116 0
M  V30 3520 C 333.649 -3.46777 -0.864879 0
M  V30 3521 S 335.208 -4.12434 -1.49811 0
M  V30 3522 H 332.026 -0.697742 -0.136665 0
M  V30 3523 H 334.628 -1.92953 0.314519 0
M  V30 3524 H 333.332 -4.10396 -0.0181326 0
M  V30 3525 H 332.863 -3.57518 -1.64147 0
M  V30 3526 H 334.878 -4.10532 -2.78707 0
M  V30 3527 N 334.051 0.0651679 -1.57465 0
M  V30 3528 C 334.984 1.10876 -1.99453 0
M  V30 3529 C 335.962 1.37205 -0.872555 0
M  V30 3530 O 337.146 1.50468 -1.13542 0
M  V30 3531 C 334.273 2.45167 -2.3369 0
M  V30 3532 C 333.319 2.3493 -3.55964 0
M  V30 3533 S 334.152 1.73708 -5.06543 0
M  V30 3534 C 335.308 3.09563 -5.43987 0
M  V30 3535 H 335.541 0.750967 -2.87659 0
M  V30 3536 H 333.074 0.273933 -1.51951 0
M  V30 3537 H 335.032 3.22412 -2.54088 0
M  V30 3538 H 333.693 2.78105 -1.46001 0
M  V30 3539 H 332.886 3.3398 -3.77457 0
M  V30 3540 H 332.488 1.65823 -3.3523 0
M  V30 3541 H 334.78 4.05882 -5.42463 0
M  V30 3542 H 335.723 2.92843 -6.44708 0
M  V30 3543 H 336.131 3.10474 -4.71451 0
M  V30 3544 N 335.529 1.53961 0.336706 0
M  V30 3545 C 336.461 1.78751 1.4346 0
M  V30 3546 C 337.474 0.669019 1.48418 0
M  V30 3547 O 338.663 0.945884 1.51378 0
M  V30 3548 C 335.763 1.87844 2.82078 0
M  V30 3549 C 334.936 3.17854 3.00479 0
M  V30 3550 C 333.995 3.17816 4.19379 0
M  V30 3551 O 333.021 3.91511 4.13168 0
M  V30 3552 N 334.223 2.40669 5.2826 0
M  V30 3553 H 336.988 2.73493 1.22563 0
M  V30 3554 H 334.549 1.53096 0.526625 0
M  V30 3555 H 336.541 1.85261 3.59806 0
M  V30 3556 H 335.111 1.00257 2.96086 0
M  V30 3557 H 334.331 3.33504 2.10163 0
M  V30 3558 H 335.619 4.03718 3.0966 0
M  V30 3559 H 335.017 1.8036 5.36178 0
M  V30 3560 H 333.574 2.43877 6.04456 0
M  V30 3561 N 337.007 -0.598083 1.45811 0
M  V30 3562 C 337.937 -1.71873 1.58057 0
M  V30 3563 C 338.918 -1.64533 0.431615 0
M  V30 3564 O 340.103 -1.82787 0.65595 0
M  V30 3565 C 337.233 -3.10495 1.55597 0
M  V30 3566 C 336.187 -3.32654 2.69305 0
M  V30 3567 C 335.513 -4.71646 2.51902 0
M  V30 3568 C 336.813 -3.21981 4.11248 0
M  V30 3569 H 338.507 -1.61881 2.51863 0
M  V30 3570 H 336.053 -0.777372 1.21214 0
M  V30 3571 H 338.006 -3.88699 1.6276 0
M  V30 3572 H 336.73 -3.2135 0.583255 0
M  V30 3573 H 335.389 -2.56843 2.61586 0
M  V30 3574 H 335.037 -4.79246 1.52748 0
M  V30 3575 H 334.737 -4.87426 3.2816 0
M  V30 3576 H 336.261 -5.52038 2.60933 0
M  V30 3577 H 337.675 -3.90049 4.20161 0
M  V30 3578 H 336.072 -3.49289 4.87972 0
M  V30 3579 H 337.142 -2.1928 4.32486 0
M  V30 3580 N 338.485 -1.33259 -0.841409 0
M  V30 3581 C 339.733 -1.24326 -1.59334 0
M  V30 3582 C 340.054 0.191564 -1.94057 0
M  V30 3583 O 339.324 1.11967 -1.60749 0
M  V30 3584 H 337.904 -0.457174 -0.590763 0
M  V30 3585 H 340.566 -1.66947 -1.00571 0
M  V30 3586 H 339.662 -1.8352 -2.52442 0
M  V30 3587 N 339.963 1.05934 -1.16686 0
M  V30 3588 C 340.896 2.1295 -0.820225 0
M  V30 3589 C 341.874 1.61242 0.209722 0
M  V30 3590 O 343.058 1.88271 0.0929688 0
M  V30 3591 C 340.185 3.3797 -0.22223 0
M  V30 3592 C 339.231 4.08488 -1.22637 0
M  V30 3593 S 340.064 4.58015 -2.77457 0
M  V30 3594 C 341.22 5.86292 -2.19117 0
M  V30 3595 H 341.453 2.42025 -1.72659 0
M  V30 3596 H 338.986 1.18423 -0.990722 0
M  V30 3597 H 340.944 4.10335 0.116322 0
M  V30 3598 H 339.605 3.07045 0.66196 0
M  V30 3599 H 338.798 4.98291 -0.756455 0
M  V30 3600 H 338.4 3.42154 -1.51019 0
M  V30 3601 H 340.692 6.59246 -1.56209 0
M  V30 3602 H 341.635 6.38019 -3.07144 0
M  V30 3603 H 342.043 5.40497 -1.62858 0
M  V30 3604 N 341.441 0.965919 1.2453 0
M  V30 3605 C 342.718 0.543777 1.87889 0
M  V30 3606 C 343.098 -0.97909 1.87021 0
M  V30 3607 O 342.446 -1.84969 1.3416 0
M  V30 3608 C 342.656 1.13327 3.30088 0
M  V30 3609 C 344.004 1.21707 4.06783 0
M  V30 3610 O 345.028 1.08566 3.39252 0
M  V30 3611 O 343.887 1.42456 5.27606 0
M  V30 3612 H 340.981 0.181054 0.806938 0
M  V30 3613 H 343.527 1.06007 1.32516 0
M  V30 3614 H 342.299 2.17612 3.25209 0
M  V30 3615 H 341.922 0.600911 3.93033 0
M  V30 3616 N 342.919 -1.39368 0.735821 0
M  V30 3617 C 344.167 -2.00101 0.283562 0
M  V30 3618 C 344.488 -1.5868 -1.13338 0
M  V30 3619 O 343.758 -0.835423 -1.77193 0
M  V30 3620 H 342.338 -0.740024 0.101851 0
M  V30 3621 H 345 -1.70404 0.945962 0
M  V30 3622 H 344.096 -3.10323 0.332604 0
M  V30 3623 N 344.397 -0.483516 -1.5 0
M  V30 3624 C 345.643 0.0672592 -2.02688 0
M  V30 3625 C 345.976 1.38247 -1.36387 0
M  V30 3626 O 345.251 1.88131 -0.493675 0
M  V30 3627 C 345.534 0.238109 -3.59312 0
M  V30 3628 C 345.387 -1.099 -4.36168 0
M  V30 3629 C 346.706 0.986916 -4.28892 0
M  V30 3630 H 343.825 0.0229696 -0.736642 0
M  V30 3631 H 346.467 -0.631527 -1.79197 0
M  V30 3632 H 344.617 0.8333 -3.79458 0
M  V30 3633 H 346.289 -1.73172 -4.27562 0
M  V30 3634 H 344.532 -1.69261 -3.99416 0
M  V30 3635 H 345.203 -0.932954 -5.44059 0
M  V30 3636 H 347.679 0.482302 -4.13295 0
M  V30 3637 H 346.555 1.07527 -5.38265 0
M  V30 3638 H 346.816 2.0265 -3.92919 0
M  V30 3639 N 345.875 1.56104 -0.216619 0
M  V30 3640 C 347.122 1.98172 0.416416 0
M  V30 3641 C 347.45 1.10413 1.60122 0
M  V30 3642 O 346.705 0.147967 1.9514 0
M  V30 3643 C 347.004 3.45923 0.898464 0
M  V30 3644 C 346.67 4.50559 -0.175288 0
M  V30 3645 C 345.332 4.78897 -0.470271 0
M  V30 3646 C 347.684 5.1334 -0.901728 0
M  V30 3647 C 345.012 5.67299 -1.4963 0
M  V30 3648 C 347.364 6.02853 -1.91705 0
M  V30 3649 C 346.028 6.29537 -2.21901 0
M  V30 3650 H 345.298 0.725164 0.152377 0
M  V30 3651 H 347.945 1.88839 -0.318103 0
M  V30 3652 H 346.25 3.52434 1.71165 0
M  V30 3653 H 347.947 3.75841 1.39803 0
M  V30 3654 H 344.537 4.28551 0.0647806 0
M  V30 3655 H 348.721 4.91521 -0.687072 0
M  V30 3656 H 343.977 5.86239 -1.73592 0
M  V30 3657 H 348.151 6.50552 -2.48505 0
M  V30 3658 H 345.778 6.97835 -3.01548 0
M  V30 3659 N 347.353 -0.0568162 1.57498 0
M  V30 3660 C 348.599 -0.75422 1.88253 0
M  V30 3661 C 348.932 -1.76461 0.810865 0
M  V30 3662 O 348.207 -1.93691 -0.177259 0
M  V30 3663 C 348.49 -1.44878 3.2967 0
M  V30 3664 C 348.343 -0.453789 4.47505 0
M  V30 3665 C 349.662 -2.38994 3.69554 0
M  V30 3666 H 346.781 -0.272724 0.684683 0
M  V30 3667 H 349.423 -0.0172113 1.89992 0
M  V30 3668 H 347.573 -2.077 3.28318 0
M  V30 3669 H 349.245 0.170371 4.60985 0
M  V30 3670 H 347.488 0.229552 4.33192 0
M  V30 3671 H 348.159 -0.977699 5.43273 0
M  V30 3672 H 350.635 -1.86239 3.72095 0
M  V30 3673 H 349.511 -2.84587 4.69363 0
M  V30 3674 H 349.772 -3.24461 3.00296 0
M  V30 3675 N 348.832 -1.54138 -0.328536 0
M  V30 3676 C 350.08 -1.71765 -1.06496 0
M  V30 3677 C 350.401 -0.49149 -1.88704 0
M  V30 3678 O 349.671 0.494539 -1.89555 0
M  V30 3679 H 348.251 -0.633295 -0.396164 0
M  V30 3680 H 350.913 -1.91429 -0.366176 0
M  V30 3681 H 350.009 -2.5951 -1.73381 0
M  V30 3682 N 350.31 0.590341 -1.46126 0
M  V30 3683 C 351.535 1.37991 -1.54833 0
M  V30 3684 C 351.96 1.87163 -0.187506 0
M  V30 3685 O 351.318 1.61133 0.831008 0
M  V30 3686 C 351.366 2.54867 -2.55098 0
M  V30 3687 O 350.47 3.56061 -2.08073 0
M  V30 3688 H 349.811 0.411265 -0.521303 0
M  V30 3689 H 352.341 0.716819 -1.91632 0
M  V30 3690 H 352.351 3.01886 -2.74461 0
M  V30 3691 H 351.026 2.18429 -3.53923 0
M  V30 3692 H 349.603 3.15574 -1.98664 0
M  V30 3693 N 351.788 1.33704 0.83433 0
M  V30 3694 C 353.036 1.25169 1.58673 0
M  V30 3695 C 353.357 -0.18127 1.94156 0
M  V30 3696 O 352.627 -1.11113 1.6134 0
M  V30 3697 H 351.207 0.4603 0.58833 0
M  V30 3698 H 353.869 1.67478 0.996847 0
M  V30 3699 H 352.965 1.84856 2.51465 0
M  V30 3700 N 353.266 -1.05314 1.17247 0
M  V30 3701 C 354.515 -1.77685 0.954521 0
M  V30 3702 C 354.828 -1.88616 -0.518025 0
M  V30 3703 O 356.034 -2.57714 -0.854144 0
M  V30 3704 C 354.49 -3.19402 1.65863 0
M  V30 3705 C 354.098 -3.16605 3.16963 0
M  V30 3706 C 355.842 -3.96237 1.52303 0
M  V30 3707 C 353.749 -4.53103 3.80068 0
M  V30 3708 H 352.679 -0.666 0.353496 0
M  V30 3709 H 355.33 -1.1805 1.40486 0
M  V30 3710 H 353.712 -3.79355 1.13602 0
M  V30 3711 H 354.886 -2.66176 3.76148 0
M  V30 3712 H 353.201 -2.53268 3.30521 0
M  V30 3713 H 355.798 -4.97157 1.96822 0
M  V30 3714 H 356.141 -4.136 0.473401 0
M  V30 3715 H 356.674 -3.42829 2.01775 0
M  V30 3716 H 353.413 -4.40946 4.85023 0
M  V30 3717 H 352.933 -5.03686 3.2567 0
M  V30 3718 H 354.612 -5.22045 3.82202 0
M  V30 3719 N 354.744 -0.972509 -1.24016 0
M  V30 3720 C 355.991 -0.637034 -1.92219 0
M  V30 3721 C 356.319 0.828418 -1.75976 0
M  V30 3722 O 355.574 1.61206 -1.10955 0
M  V30 3723 C 355.873 -0.963694 -3.44162 0
M  V30 3724 C 355.539 -2.41807 -3.80579 0
M  V30 3725 C 354.201 -2.81556 -3.9023 0
M  V30 3726 C 356.553 -3.36172 -3.98293 0
M  V30 3727 C 353.881 -4.14702 -4.15017 0
M  V30 3728 C 356.233 -4.68952 -4.24578 0
M  V30 3729 C 354.897 -5.08472 -4.32449 0
M  V30 3730 H 354.167 -0.233107 -0.703379 0
M  V30 3731 H 356.814 -1.2249 -1.47202 0
M  V30 3732 H 355.119 -0.29365 -3.90698 0
M  V30 3733 H 356.816 -0.682449 -3.9515 0
M  V30 3734 H 353.406 -2.09988 -3.73635 0
M  V30 3735 H 357.59 -3.06644 -3.90234 0
M  V30 3736 H 352.846 -4.4494 -4.19331 0
M  V30 3737 H 357.02 -5.42037 -4.37229 0
M  V30 3738 H 354.647 -6.11665 -4.51409 0
M  V30 3739 N 356.222 1.38976 -0.743202 0
M  V30 3740 C 357.132 2.3434 -0.110399 0
M  V30 3741 C 358.148 1.58741 0.712559 0
M  V30 3742 O 359.324 1.9099 0.639125 0
M  V30 3743 C 356.389 3.37812 0.780012 0
M  V30 3744 C 355.45 4.29263 -0.0561319 0
M  V30 3745 C 354.683 5.27793 0.791875 0
M  V30 3746 O 354.906 5.33043 2.03031 0
M  V30 3747 O 353.84 6.01512 0.216183 0
M  V30 3748 H 357.666 2.90129 -0.897714 0
M  V30 3749 H 355.251 1.40643 -0.503966 0
M  V30 3750 H 357.133 4.01194 1.28923 0
M  V30 3751 H 355.808 2.84395 1.546 0
M  V30 3752 H 354.715 3.69076 -0.611056 0
M  V30 3753 H 356.048 4.85907 -0.784531 0
M  V30 3754 N 357.7 0.491464 1.49741 0
M  V30 3755 C 358.925 -0.0557177 2.07325 0
M  V30 3756 C 359.35 -1.30925 1.35056 0
M  V30 3757 O 358.708 -1.76733 0.404365 0
M  V30 3758 C 358.756 -0.302074 3.59333 0
M  V30 3759 O 357.86 -1.37868 3.88672 0
M  V30 3760 H 357.201 0.0219956 0.663636 0
M  V30 3761 H 359.731 0.688352 1.92673 0
M  V30 3762 H 359.741 -0.536464 4.04458 0
M  V30 3763 H 358.416 0.61383 4.11345 0
M  V30 3764 H 356.993 -1.12999 3.55367 0
M  V30 3765 N 359.178 -1.55987 0.224894 0
M  V30 3766 C 360.088 -2.24066 -0.69511 0
M  V30 3767 C 361.104 -1.24939 -1.21104 0
M  V30 3768 O 362.28 -1.5776 -1.25195 0
M  V30 3769 C 359.345 -2.90983 -1.88493 0
M  V30 3770 C 358.406 -4.05462 -1.41064 0
M  V30 3771 C 357.639 -4.69179 -2.54375 0
M  V30 3772 O 357.862 -4.31895 -3.72589 0
M  V30 3773 O 356.796 -5.58108 -2.25386 0
M  V30 3774 H 360.622 -3.03353 -0.145149 0
M  V30 3775 H 358.207 -1.49399 -0.00569476 0
M  V30 3776 H 360.089 -3.33209 -2.57972 0
M  V30 3777 H 358.764 -2.14653 -2.42293 0
M  V30 3778 H 357.671 -3.67798 -0.683774 0
M  V30 3779 H 359.004 -4.83545 -0.918985 0
M  V30 3780 N 360.656 0.0484629 -1.57525 0
M  V30 3781 C 361.604 1.07359 -2.06341 0
M  V30 3782 C 362.598 1.3865 -0.973269 0
M  V30 3783 O 363.804 1.37783 -1.15827 0
M  V30 3784 H 360.179 0.363662 -0.65822 0
M  V30 3785 H 362.15 0.635916 -2.91545 0
M  V30 3786 C 360.899 2.37198 -2.54229 0
M  V30 3787 H 360.222 2.13977 -3.37719 0
M  V30 3788 H 361.662 3.07319 -2.92115 0
M  V30 3789 C 360.121 3.04805 -1.43511 0
M  V30 3790 O 360.651 3.93848 -0.79034 0
M  V30 3791 N 358.857 2.65811 -1.17444 0
M  V30 3792 H 358.404 1.93488 -1.70059 0
M  V30 3793 H 358.362 3.11366 -0.435737 0
M  V30 3794 N 362.134 1.5431 0.320358 0
M  V30 3795 C 363.545 1.63872 0.894594 0
M  V30 3796 C 363.896 0.534847 1.88769 0
M  V30 3797 O 363.021 -0.331732 2.13842 0
M  V30 3798 C 363.616 2.97049 1.62934 0
M  V30 3799 C 362.175 3.08796 2.15226 0
M  V30 3800 C 361.322 2.59456 0.978671 0
M  V30 3801 H 364.273 1.58398 0.0978544 0
M  V30 3802 H 364.294 2.87388 2.49376 0
M  V30 3803 H 363.806 3.7737 0.906302 0
M  V30 3804 H 361.907 2.33156 2.90636 0
M  V30 3805 H 362.02 4.14649 2.40006 0
M  V30 3806 H 360.384 2.1543 1.35875 0
M  V30 3807 H 361.167 3.42237 0.269895 0
M  V30 3808 N 363.613 -0.582584 1.46437 0
M  V30 3809 C 365.029 -0.905962 1.31394 0
M  V30 3810 C 365.229 -1.99468 0.285476 0
M  V30 3811 O 364.285 -2.50566 -0.311914 0
M  V30 3812 C 365.598 -1.3232 2.70022 0
M  V30 3813 C 367.146 -1.43604 2.78113 0
M  V30 3814 C 367.621 -1.88694 4.17323 0
M  V30 3815 N 369.112 -1.95887 4.19741 0
M  V30 3816 C 369.847 -2.32051 5.24347 0
M  V30 3817 N 369.343 -2.67006 6.39281 0
M  V30 3818 N 371.136 -2.32606 5.11713 0
M  V30 3819 H 363.287 0.1366 2.1196 0
M  V30 3820 H 365.55 -0.00155736 0.947999 0
M  V30 3821 H 365.256 -0.597242 3.46592 0
M  V30 3822 H 365.13 -2.28469 3.00136 0
M  V30 3823 H 367.517 -2.15286 2.01832 0
M  V30 3824 H 367.598 -0.457059 2.51684 0
M  V30 3825 H 367.242 -1.1759 4.941 0
M  V30 3826 H 367.172 -2.8755 4.4116 0
M  V30 3827 H 369.663 -1.71362 3.36814 0
M  V30 3828 H 369.976 -2.93554 7.14875 0
M  V30 3829 H 368.321 -2.64644 6.42642 0
M  V30 3830 H 371.512 -2.04721 4.2096 0
M  V30 3831 H 371.685 -2.60462 5.93349 0
M  V30 3832 N 365.091 -1.34144 -0.827227 0
M  V30 3833 C 366.038 -1.25364 -1.93785 0
M  V30 3834 C 367.008 -0.129774 -1.65592 0
M  V30 3835 O 368.193 -0.310024 -1.88264 0
M  V30 3836 C 365.333 -1.01064 -3.2997 0
M  V30 3837 C 364.446 -2.22185 -3.70484 0
M  V30 3838 C 363.581 -1.91203 -4.95595 0
M  V30 3839 C 362.62 -3.08491 -5.28677 0
M  V30 3840 N 361.757 -2.77421 -6.44967 0
M  V30 3841 H 366.597 -2.20347 -2.00627 0
M  V30 3842 H 364.134 -1.09558 -0.981608 0
M  V30 3843 H 366.092 -0.850139 -4.08446 0
M  V30 3844 H 364.722 -0.0975026 -3.22653 0
M  V30 3845 H 363.774 -2.4917 -2.87434 0
M  V30 3846 H 365.086 -3.0983 -3.90905 0
M  V30 3847 H 364.24 -1.71864 -5.81848 0
M  V30 3848 H 362.979 -1.00812 -4.77167 0
M  V30 3849 H 361.984 -3.28431 -4.40923 0
M  V30 3850 H 363.209 -3.99655 -5.49047 0
M  V30 3851 H 361.155 -1.89601 -6.28003 0
M  V30 3852 H 361.072 -3.58598 -6.6554 0
M  V30 3853 H 362.34 -2.61577 -7.34301 0
M  V30 3854 N 366.569 1.04691 -1.17803 0
M  V30 3855 C 367.502 2.12068 -0.842765 0
M  V30 3856 C 368.48 1.61455 0.192608 0
M  V30 3857 O 369.664 1.88359 0.072995 0
M  V30 3858 C 366.791 3.37715 -0.258063 0
M  V30 3859 C 365.837 4.07164 -1.26962 0
M  V30 3860 S 366.67 4.55047 -2.82299 0
M  V30 3861 C 367.826 5.83935 -2.25323 0
M  V30 3862 H 368.059 2.4018 -1.75217 0
M  V30 3863 H 365.592 1.17366 -1.00323 0
M  V30 3864 H 367.55 4.10435 0.0727935 0
M  V30 3865 H 366.211 3.0773 0.629357 0
M  V30 3866 H 365.404 4.9746 -0.809263 0
M  V30 3867 H 365.006 3.40533 -1.54639 0
M  V30 3868 H 367.298 6.57552 -1.63192 0
M  V30 3869 H 368.241 6.34725 -3.13894 0
M  V30 3870 H 368.649 5.3874 -1.68582 0
M  V30 3871 N 368.047 0.979072 1.23499 0
M  V30 3872 C 369.01 0.523244 2.23147 0
M  V30 3873 C 370.01 -0.386406 1.56088 0
M  V30 3874 O 371.2 -0.180283 1.73265 0
M  V30 3875 C 368.332 -0.240739 3.40049 0
M  V30 3876 H 369.525 1.40432 2.64989 0
M  V30 3877 H 367.078 0.764824 1.36309 0
M  V30 3878 H 367.813 -1.13841 3.03662 0
M  V30 3879 H 367.598 0.412207 3.89927 0
M  V30 3880 H 369.088 -0.548297 4.13985 0
M  V30 3881 N 369.525 -1.3858 0.750561 0
M  V30 3882 C 370.488 -2.28836 0.129152 0
M  V30 3883 C 371.488 -1.47045 -0.650714 0
M  V30 3884 O 372.678 -1.6753 -0.477428 0
M  V30 3885 C 369.81 -3.30751 -0.825622 0
M  V30 3886 H 371.003 -2.85294 0.924516 0
M  V30 3887 H 368.556 -1.47489 0.517376 0
M  V30 3888 H 369.291 -2.79378 -1.64677 0
M  V30 3889 H 369.076 -3.91177 -0.268852 0
M  V30 3890 H 370.566 -3.98249 -1.2565 0
M  V30 3891 N 371.003 -0.499398 -1.49478 0
M  V30 3892 C 372.228 0.044722 -2.07352 0
M  V30 3893 C 372.653 1.30207 -1.35749 0
M  V30 3894 O 372.011 1.76516 -0.413732 0
M  V30 3895 C 372.059 0.283013 -3.59488 0
M  V30 3896 O 371.163 1.35804 -3.89398 0
M  V30 3897 H 370.504 -0.0255147 -0.66351 0
M  V30 3898 H 373.034 -0.698561 -1.92305 0
M  V30 3899 H 373.044 0.515007 -4.04737 0
M  V30 3900 H 371.719 -0.635636 -4.11014 0
M  V30 3901 H 370.296 1.11113 -3.55961 0
M  V30 3902 N 372.481 1.55866 -0.233164 0
M  V30 3903 C 373.73 1.97779 0.39579 0
M  V30 3904 C 374.043 1.12419 1.60066 0
M  V30 3905 O 375.249 1.44283 2.29988 0
M  V30 3906 C 373.705 3.5188 0.755556 0
M  V30 3907 C 373.313 4.45959 -0.427152 0
M  V30 3908 C 375.057 4.02479 1.34946 0
M  V30 3909 C 372.964 5.91383 -0.0443043 0
M  V30 3910 H 371.894 0.738592 0.15165 0
M  V30 3911 H 374.545 1.80486 -0.331212 0
M  V30 3912 H 372.927 3.64816 1.5403 0
M  V30 3913 H 374.101 4.44776 -1.20462 0
M  V30 3914 H 372.416 4.05765 -0.935068 0
M  V30 3915 H 375.013 5.08637 1.649 0
M  V30 3916 H 375.356 3.49014 2.26925 0
M  V30 3917 H 375.889 3.92813 0.62791 0
M  V30 3918 H 372.628 6.48857 -0.930874 0
M  V30 3919 H 372.148 5.95734 0.697238 0
M  V30 3920 H 373.827 6.45893 0.378334 0
M  V30 3921 N 373.959 -0.0401083 1.57549 0
M  V30 3922 C 375.205 -0.734211 1.89043 0
M  V30 3923 C 375.538 -1.75591 0.829535 0
M  V30 3924 O 374.813 -1.93868 -0.156706 0
M  V30 3925 C 375.096 -1.41374 3.31188 0
M  V30 3926 C 374.949 -0.406299 4.47961 0
M  V30 3927 C 376.268 -2.35061 3.72068 0
M  V30 3928 H 373.387 -0.265447 0.687537 0
M  V30 3929 H 376.029 0.00294087 1.9 0
M  V30 3930 H 374.179 -2.04206 3.30503 0
M  V30 3931 H 375.851 0.219255 4.60779 0
M  V30 3932 H 374.094 0.275485 4.32924 0
M  V30 3933 H 374.765 -0.920022 5.44279 0
M  V30 3934 H 377.241 -1.82282 3.74049 0
M  V30 3935 H 376.117 -2.79593 4.72355 0
M  V30 3936 H 376.378 -3.21258 3.0372 0
M  V30 3937 N 375.437 -1.54477 -0.31217 0
M  V30 3938 C 376.662 -1.77526 -1.07235 0
M  V30 3939 C 377.087 -0.527775 -1.80544 0
M  V30 3940 O 376.445 0.52121 -1.73646 0
M  V30 3941 C 376.493 -2.97535 -2.03728 0
M  V30 3942 O 375.597 -2.69878 -3.11833 0
M  V30 3943 H 374.938 -0.58792 -0.30862 0
M  V30 3944 H 377.468 -2.01532 -0.352993 0
M  V30 3945 H 377.478 -3.25198 -2.46395 0
M  V30 3946 H 376.153 -3.87996 -1.49774 0
M  V30 3947 H 374.73 -2.53199 -2.7376 0
M  V30 3948 N 376.915 0.57481 -1.46744 0
M  V30 3949 C 377.878 1.66533 -1.57478 0
M  V30 3950 C 378.878 1.54338 -0.451263 0
M  V30 3951 O 380.068 1.58814 -0.715813 0
M  V30 3952 C 377.2 3.05999 -1.50259 0
M  V30 3953 H 378.393 1.58372 -2.54673 0
M  V30 3954 H 375.946 0.793301 -1.34672 0
M  V30 3955 H 376.681 3.19709 -0.543725 0
M  V30 3956 H 376.466 3.16259 -2.31781 0
M  V30 3957 H 377.956 3.8537 -1.60872 0
M  V30 3958 N 378.394 1.34581 0.820102 0
M  V30 3959 C 379.64 1.27285 1.57881 0
M  V30 3960 C 379.973 -0.156137 1.93571 0
M  V30 3961 O 379.248 -1.10222 1.60254 0
M  V30 3962 C 379.531 2.16639 2.87645 0
M  V30 3963 C 379.384 3.68088 2.58517 0
M  V30 3964 C 380.703 2.05378 3.8924 0
M  V30 3965 H 377.822 0.463714 0.572833 0
M  V30 3966 H 380.464 1.64859 0.944539 0
M  V30 3967 H 378.614 1.84725 3.41773 0
M  V30 3968 H 380.286 4.10382 2.10676 0
M  V30 3969 H 378.529 3.89038 1.91917 0
M  V30 3970 H 379.2 4.2598 3.51063 0
M  V30 3971 H 381.676 2.33404 3.44473 0
M  V30 3972 H 380.552 2.7012 4.77835 0
M  V30 3973 H 380.813 1.0316 4.29896 0
M  V30 3974 N 379.872 -1.04064 1.18357 0
M  V30 3975 C 381.097 -1.81454 1.00445 0
M  V30 3976 C 381.522 -1.82823 -0.442423 0
M  V30 3977 O 380.88 -1.24555 -1.31741 0
M  V30 3978 C 380.928 -3.24925 1.56384 0
M  V30 3979 O 380.032 -4.04856 0.785209 0
M  V30 3980 H 379.373 -0.560604 0.355835 0
M  V30 3981 H 381.903 -1.31059 1.57114 0
M  V30 3982 H 381.913 -3.75702 1.59097 0
M  V30 3983 H 380.588 -3.23244 2.61699 0
M  V30 3984 H 379.165 -3.63537 0.830399 0
M  V30 3985 N 381.35 -0.985608 -1.22978 0
M  V30 3986 C 382.298 -0.522631 -2.26652 0
M  V30 3987 C 383.292 0.422998 -1.64034 0
M  V30 3988 O 384.498 0.296319 -1.77544 0
M  V30 3989 H 380.873 -0.150597 -0.736766 0
M  V30 3990 H 382.844 -1.40863 -2.63059 0
M  V30 3991 C 381.593 0.154238 -3.47358 0
M  V30 3992 H 380.916 -0.564329 -3.95797 0
M  V30 3993 H 382.356 0.441744 -4.21693 0
M  V30 3994 C 380.815 1.38719 -3.07016 0
M  V30 3995 O 381.345 2.48307 -3.15764 0
M  V30 3996 N 379.551 1.25975 -2.61875 0
M  V30 3997 H 379.098 0.368068 -2.54957 0
M  V30 3998 H 379.056 2.08578 -2.3525 0
M  V30 3999 N 382.828 1.3818 -0.7579 0
M  V30 4000 C 384.075 2.00019 -0.315985 0
M  V30 4001 C 384.403 1.60163 1.10355 0
M  V30 4002 O 383.658 0.83264 1.77103 0
M  V30 4003 C 383.957 3.55252 -0.391218 0
M  V30 4004 C 383.623 4.14834 -1.76702 0
M  V30 4005 C 382.285 4.30821 -2.14353 0
M  V30 4006 C 384.637 4.47658 -2.66931 0
M  V30 4007 C 381.965 4.76928 -3.41696 0
M  V30 4008 C 384.317 4.95184 -3.93669 0
M  V30 4009 C 382.981 5.09377 -4.31383 0
M  V30 4010 H 382.251 0.731923 -0.115627 0
M  V30 4011 H 384.898 1.65161 -0.969223 0
M  V30 4012 H 383.203 3.90273 0.34558 0
M  V30 4013 H 384.9 4.00988 -0.030805 0
M  V30 4014 H 381.49 4.02808 -1.46435 0
M  V30 4015 H 385.674 4.34904 -2.39106 0
M  V30 4016 H 380.93 4.86103 -3.70829 0
M  V30 4017 H 385.104 5.19551 -4.63724 0
M  V30 4018 H 382.731 5.44865 -5.30119 0
M  V30 4019 N 384.306 0.507319 1.49211 0
M  V30 4020 C 385.254 -0.281364 2.30892 0
M  V30 4021 C 386.248 -0.95687 1.39787 0
M  V30 4022 O 387.454 -0.883838 1.56807 0
M  V30 4023 H 383.829 -0.109597 0.743971 0
M  V30 4024 H 385.8 0.42744 2.95323 0
M  V30 4025 C 384.549 -1.32918 3.21291 0
M  V30 4026 H 383.872 -0.818799 3.91326 0
M  V30 4027 H 385.312 -1.85288 3.81372 0
M  V30 4028 C 383.771 -2.35074 2.41333 0
M  V30 4029 O 384.301 -3.4108 2.12197 0
M  V30 4030 N 382.507 -2.07705 2.03241 0
M  V30 4031 H 382.054 -1.2152 2.27136 0
M  V30 4032 H 382.012 -2.76283 1.50051 0
M  V30 4033 N 385.784 -1.5574 0.241426 0
M  V30 4034 C 386.732 -2.22538 -0.676718 0
M  V30 4035 C 387.726 -1.21117 -1.18436 0
M  V30 4036 O 388.932 -1.39144 -1.14188 0
M  V30 4037 H 385.307 -0.713776 -0.236701 0
M  V30 4038 H 387.278 -2.98264 -0.0901187 0
M  V30 4039 C 386.027 -2.93439 -1.86518 0
M  V30 4040 H 385.35 -3.7125 -1.4837 0
M  V30 4041 H 386.79 -3.43549 -2.48495 0
M  V30 4042 C 385.249 -1.97008 -2.73294 0
M  V30 4043 O 385.779 -1.49965 -3.72657 0
M  V30 4044 N 383.985 -1.64227 -2.39745 0
M  V30 4045 H 383.532 -2.02677 -1.58996 0
M  V30 4046 H 383.49 -0.999708 -2.98083 0
M  V30 4047 N 387.262 0.0317525 -1.57568 0
M  V30 4048 C 388.673 0.578692 -1.77505 0
M  V30 4049 C 389.024 1.75749 -0.872164 0
M  V30 4050 O 388.149 2.16298 -0.0663106 0
M  V30 4051 C 388.744 1.05658 -3.21904 0
M  V30 4052 C 387.303 1.54906 -3.43047 0
M  V30 4053 C 386.45 0.485939 -2.73009 0
M  V30 4054 H 389.401 -0.194475 -1.57504 0
M  V30 4055 H 389.422 1.92404 -3.28269 0
M  V30 4056 H 388.934 0.198422 -3.87592 0
M  V30 4057 H 387.035 2.42915 -2.82529 0
M  V30 4058 H 387.148 1.59841 -4.5165 0
M  V30 4059 H 385.512 0.940354 -2.36705 0
M  V30 4060 H 386.295 -0.362709 -3.41379 0
M  V30 4061 N 388.74 1.54641 0.303973 0
M  V30 4062 C 389.687 1.85386 1.37479 0
M  V30 4063 C 390.657 0.702528 1.50512 0
M  V30 4064 O 391.842 0.950867 1.65418 0
M  V30 4065 C 388.982 2.10413 2.73533 0
M  V30 4066 C 388.095 3.38049 2.68974 0
M  V30 4067 C 387.23 3.52934 3.97002 0
M  V30 4068 C 386.269 4.74373 3.86829 0
M  V30 4069 N 385.406 4.8608 5.06627 0
M  V30 4070 H 390.246 2.76732 1.1056 0
M  V30 4071 H 387.783 1.37034 0.534805 0
M  V30 4072 H 389.741 2.22919 3.52652 0
M  V30 4073 H 388.371 1.22338 2.98719 0
M  V30 4074 H 387.423 3.3418 1.81736 0
M  V30 4075 H 388.735 4.27288 2.57346 0
M  V30 4076 H 387.889 3.65088 4.84557 0
M  V30 4077 H 386.628 2.61824 4.1146 0
M  V30 4078 H 385.633 4.62255 2.97658 0
M  V30 4079 H 386.858 5.66888 3.73918 0
M  V30 4080 H 384.804 3.97891 5.21554 0
M  V30 4081 H 384.721 5.69315 4.9741 0
M  V30 4082 H 385.989 5.02587 5.95841 0
M  V30 4083 N 390.218 -0.567019 1.47046 0
M  V30 4084 C 391.467 -1.32091 1.5243 0
M  V30 4085 C 391.78 -1.94704 0.187021 0
M  V30 4086 O 392.986 -2.7124 0.118771 0
M  V30 4087 C 391.442 -2.39479 2.68659 0
M  V30 4088 C 391.05 -1.831 4.08874 0
M  V30 4089 C 392.794 -3.16111 2.83327 0
M  V30 4090 C 390.701 -2.8821 5.16419 0
M  V30 4091 H 389.631 -0.496629 0.56734 0
M  V30 4092 H 392.282 -0.603354 1.73297 0
M  V30 4093 H 390.664 -3.14105 2.41152 0
M  V30 4094 H 391.838 -1.14913 4.46242 0
M  V30 4095 H 390.153 -1.19085 3.99008 0
M  V30 4096 H 392.75 -3.94585 3.60842 0
M  V30 4097 H 393.093 -3.69686 1.91411 0
M  V30 4098 H 393.626 -2.48595 3.10556 0
M  V30 4099 H 390.365 -2.39504 6.10179 0
M  V30 4100 H 389.885 -3.54839 4.8358 0
M  V30 4101 H 391.564 -3.51881 5.42945 0
M  V30 4102 N 391.696 -1.35014 -0.812953 0
M  V30 4103 C 392.626 -1.30069 -1.93919 0
M  V30 4104 C 393.607 -0.176275 -1.69184 0
M  V30 4105 O 394.792 -0.370227 -1.90638 0
M  V30 4106 C 391.922 -1.06547 -3.30552 0
M  V30 4107 C 390.876 -2.15561 -3.69753 0
M  V30 4108 C 390.202 -1.77214 -5.04479 0
M  V30 4109 C 391.502 -3.57476 -3.808 0
M  V30 4110 H 393.196 -2.24303 -1.98314 0
M  V30 4111 H 390.742 -1.07977 -0.952736 0
M  V30 4112 H 392.695 -1.01729 -4.08937 0
M  V30 4113 H 391.419 -0.0875719 -3.26483 0
M  V30 4114 H 390.078 -2.19466 -2.9365 0
M  V30 4115 H 389.726 -0.780589 -4.96906 0
M  V30 4116 H 389.426 -2.50184 -5.31678 0
M  V30 4117 H 390.95 -1.7391 -5.8531 0
M  V30 4118 H 392.364 -3.55929 -4.4943 0
M  V30 4119 H 390.761 -4.29152 -4.19462 0
M  V30 4120 H 391.831 -3.94091 -2.82525 0
M  V30 4121 N 393.175 1.03435 -1.18907 0
M  V30 4122 C 394.105 2.13503 -0.945448 0
M  V30 4123 C 395.086 1.69682 0.119189 0
M  V30 4124 O 396.271 1.94169 -0.034707 0
M  V30 4125 C 393.401 3.44004 -0.477316 0
M  V30 4126 C 392.355 4.0148 -1.48316 0
M  V30 4127 C 391.681 5.27537 -0.872311 0
M  V30 4128 C 392.981 4.36921 -2.86177 0
M  V30 4129 H 394.675 2.34141 -1.86597 0
M  V30 4130 H 392.221 1.12523 -0.898584 0
M  V30 4131 H 394.174 4.20372 -0.294204 0
M  V30 4132 H 392.898 3.23072 0.478786 0
M  V30 4133 H 391.557 3.27201 -1.65332 0
M  V30 4134 H 391.205 5.02917 0.0911752 0
M  V30 4135 H 390.905 5.66954 -1.54393 0
M  V30 4136 H 392.429 6.06576 -0.699871 0
M  V30 4137 H 393.843 5.04248 -2.72776 0
M  V30 4138 H 392.24 4.87405 -3.50081 0
M  V30 4139 H 393.31 3.46466 -3.39248 0
M  V30 4140 N 394.653 0.992116 1.22453 0
M  V30 4141 C 395.93 0.583508 1.86694 0
M  V30 4142 C 396.31 -0.9392 1.89056 0
M  V30 4143 O 395.658 -1.82081 1.38053 0
M  V30 4144 C 395.868 1.20304 3.2761 0
M  V30 4145 C 397.216 1.30308 4.0411 0
M  V30 4146 O 398.24 1.15737 3.36873 0
M  V30 4147 O 397.099 1.53615 5.24466 0
M  V30 4148 H 394.193 0.198129 0.802916 0
M  V30 4149 H 396.739 1.08794 1.30238 0
M  V30 4150 H 395.511 2.24461 3.2052 0
M  V30 4151 H 395.134 0.684144 3.9167 0
M  V30 4152 N 396.131 -1.37776 0.765217 0
M  V30 4153 C 397.377 -2.00145 0.327072 0
M  V30 4154 C 397.71 -1.60607 -1.09175 0
M  V30 4155 O 396.985 -0.849127 -1.74986 0
M  V30 4156 C 397.268 -3.57109 0.46319 0
M  V30 4157 C 397.121 -4.06576 1.92395 0
M  V30 4158 C 398.44 -4.39888 -0.136473 0
M  V30 4159 H 395.559 -0.727113 0.120316 0
M  V30 4160 H 398.201 -1.63549 0.967039 0
M  V30 4161 H 396.351 -3.88414 -0.0816358 0
M  V30 4162 H 398.023 -3.85864 2.52798 0
M  V30 4163 H 396.266 -3.59011 2.43503 0
M  V30 4164 H 396.937 -5.15639 1.97028 0
M  V30 4165 H 399.413 -4.14803 0.328317 0
M  V30 4166 H 398.289 -5.48899 -0.0110582 0
M  V30 4167 H 398.55 -4.24758 -1.22608 0
M  V30 4168 N 397.609 -0.515225 -1.4894 0
M  V30 4169 C 398.834 0.022727 -2.07388 0
M  V30 4170 C 399.259 1.2876 -1.37122 0
M  V30 4171 O 398.617 1.76067 -0.432431 0
M  V30 4172 C 398.665 0.244869 -3.59768 0
M  V30 4173 O 397.769 1.31667 -3.90817 0
M  V30 4174 H 397.11 -0.0325506 -0.663202 0
M  V30 4175 H 399.64 -0.718918 -1.91553 0
M  V30 4176 H 399.65 0.47205 -4.0526 0
M  V30 4177 H 398.325 -0.679194 -4.10317 0
M  V30 4178 H 396.902 1.07331 -3.5712 0
M  V30 4179 N 399.087 1.5561 -0.249682 0
M  V30 4180 C 400.02 2.17537 0.689408 0
M  V30 4181 C 400.998 1.12829 1.17083 0
M  V30 4182 O 402.182 1.41229 1.24846 0
M  V30 4183 C 399.309 2.77828 1.93725 0
M  V30 4184 C 398.355 3.95615 1.59346 0
M  V30 4185 S 399.188 5.30988 0.69367 0
M  V30 4186 C 400.344 5.94734 1.95046 0
M  V30 4187 H 400.577 2.96852 0.163142 0
M  V30 4188 H 398.11 1.54362 -0.0341166 0
M  V30 4189 H 400.068 3.13199 2.65361 0
M  V30 4190 H 398.729 1.98454 2.43465 0
M  V30 4191 H 397.922 4.364 2.52132 0
M  V30 4192 H 397.524 3.61535 0.957512 0
M  V30 4193 H 399.816 6.12419 2.89739 0
M  V30 4194 H 400.759 6.90109 1.58604 0
M  V30 4195 H 401.167 5.23832 2.10381 0
M  V30 4196 N 400.565 -0.0233959 1.57583 0
M  V30 4197 C 401.513 -1.04063 2.08023 0
M  V30 4198 C 402.507 -1.37084 0.995204 0
M  V30 4199 O 403.713 -1.35923 1.18004 0
M  V30 4200 H 400.088 -0.353144 0.663922 0
M  V30 4201 H 402.059 -0.589453 2.9252 0
M  V30 4202 C 400.808 -2.33123 2.57971 0
M  V30 4203 H 400.131 -2.08577 3.4108 0
M  V30 4204 H 401.571 -3.02632 2.96967 0
M  V30 4205 C 400.03 -3.02483 1.48342 0
M  V30 4206 O 400.56 -3.92541 0.852898 0
M  V30 4207 N 398.766 -2.63909 1.21658 0
M  V30 4208 H 398.313 -1.90758 1.73116 0
M  V30 4209 H 398.271 -3.10633 0.485218 0
M  V30 4210 N 402.043 -1.548 -0.295768 0
M  V30 4211 C 402.973 -1.89115 -1.36959 0
M  V30 4212 C 403.954 -0.75059 -1.52644 0
M  V30 4213 O 405.139 -1.00678 -1.66065 0
M  V30 4214 C 402.269 -2.14307 -2.73295 0
M  V30 4215 C 401.223 -3.30151 -2.72368 0
M  V30 4216 C 400.549 -3.40772 -4.12042 0
M  V30 4217 C 401.849 -4.67126 -2.33646 0
M  V30 4218 H 403.543 -2.79053 -1.08488 0
M  V30 4219 H 401.089 -1.34266 -0.520443 0
M  V30 4220 H 403.042 -2.36898 -3.48507 0
M  V30 4221 H 401.766 -1.21145 -3.03301 0
M  V30 4222 H 400.425 -3.0749 -1.99613 0
M  V30 4223 H 400.073 -2.45117 -4.39234 0
M  V30 4224 H 399.773 -4.18645 -4.12322 0
M  V30 4225 H 401.297 -3.6563 -4.89027 0
M  V30 4226 H 402.711 -4.89414 -2.98575 0
M  V30 4227 H 401.108 -5.47751 -2.45129 0
M  V30 4228 H 402.178 -4.67489 -1.28772 0
M  V30 4229 N 403.521 0.559213 -1.47345 0
M  V30 4230 C 404.769 1.31388 -1.53563 0
M  V30 4231 C 405.09 1.93985 -0.198678 0
M  V30 4232 O 404.36 1.79825 0.777167 0
M  V30 4233 H 402.94 0.487901 -0.565652 0
M  V30 4234 H 405.602 0.65315 -1.8363 0
M  V30 4235 H 404.698 2.10844 -2.30111 0
M  V30 4236 N 404.999 1.35443 0.805782 0
M  V30 4237 C 405.946 1.28431 1.91766 0
M  V30 4238 C 406.916 0.156102 1.65365 0
M  V30 4239 O 408.101 0.339936 1.87747 0
M  V30 4240 C 405.241 1.06301 3.2832 0
M  V30 4241 C 404.354 2.2805 3.66902 0
M  V30 4242 C 403.489 1.99064 4.92491 0
M  V30 4243 C 402.528 3.16863 5.23703 0
M  V30 4244 N 401.665 2.87647 6.40471 0
M  V30 4245 H 406.505 2.23511 1.97096 0
M  V30 4246 H 404.042 1.11105 0.964054 0
M  V30 4247 H 406 0.915012 4.07042 0
M  V30 4248 H 404.63 0.148822 3.22457 0
M  V30 4249 H 403.682 2.53711 2.83434 0
M  V30 4250 H 404.994 3.1601 3.85927 0
M  V30 4251 H 404.148 1.81099 5.7904 0
M  V30 4252 H 402.887 1.0839 4.75503 0
M  V30 4253 H 401.892 3.35404 4.35642 0
M  V30 4254 H 403.117 4.08339 5.4262 0
M  V30 4255 H 401.063 1.99568 6.24907 0
M  V30 4256 H 400.98 3.69141 6.59751 0
M  V30 4257 H 402.248 2.73226 7.30047 0
M  V30 4258 N 406.477 -1.02803 1.19454 0
M  V30 4259 C 407.44 -2.09264 0.934955 0
M  V30 4260 C 408.44 -1.60576 -0.0849015 0
M  V30 4261 O 409.63 -1.73554 0.149933 0
M  V30 4262 C 406.762 -3.38482 0.40531 0
M  V30 4263 H 407.955 -2.33726 1.87916 0
M  V30 4264 H 405.508 -1.19426 1.00832 0
M  V30 4265 H 406.243 -3.19689 -0.544899 0
M  V30 4266 H 406.028 -3.75142 1.14065 0
M  V30 4267 H 407.518 -4.16894 0.242806 0
M  V30 4268 N 407.956 -0.998596 -1.21925 0
M  V30 4269 C 408.889 -0.498517 -2.22688 0
M  V30 4270 C 409.867 0.444301 -1.56412 0
M  V30 4271 O 411.051 0.368518 -1.84863 0
M  V30 4272 C 408.178 0.276639 -3.37568 0
M  V30 4273 C 407.224 -0.61302 -4.22071 0
M  V30 4274 S 408.057 -2.07168 -4.93803 0
M  V30 4275 C 409.213 -1.30617 -6.12119 0
M  V30 4276 H 409.446 -1.35234 -2.64762 0
M  V30 4277 H 406.979 -0.806018 -1.31692 0
M  V30 4278 H 408.937 0.717817 -4.04175 0
M  V30 4279 H 407.598 1.10581 -2.93991 0
M  V30 4280 H 406.791 -0.0162909 -5.03997 0
M  V30 4281 H 406.393 -0.991202 -3.60626 0
M  V30 4282 H 408.685 -0.57675 -6.75041 0
M  V30 4283 H 409.628 -2.10091 -6.76215 0
M  V30 4284 H 410.036 -0.816957 -5.58557 0
M  V30 4285 N 409.434 1.37368 -0.772513 0
M  V30 4286 C 410.674 2.01512 -0.342361 0
M  V30 4287 C 411.038 1.59997 1.06136 0
M  V30 4288 O 412.239 2.16609 1.59167 0
M  V30 4289 C 410.51 3.54134 -0.482048 0
M  V30 4290 S 412.069 4.38585 -0.137272 0
M  V30 4291 H 408.887 0.698699 -0.131686 0
M  V30 4292 H 411.489 1.67552 -1.0073 0
M  V30 4293 H 410.193 3.81837 -1.50428 0
M  V30 4294 H 409.724 3.92894 0.199413 0
M  V30 4295 H 411.739 4.84594 1.06692 0
M  V30 4296 N 410.912 0.523116 1.48665 0
M  V30 4297 C 412.16 -0.0134497 2.02096 0
M  V30 4298 C 412.481 -1.35418 1.40311 0
M  V30 4299 O 411.751 -1.87543 0.566074 0
M  V30 4300 H 410.331 -0.00795915 0.746958 0
M  V30 4301 H 412.993 0.685388 1.82451 0
M  V30 4302 H 412.089 -0.126849 3.11842 0
M  V30 4303 N 412.39 -1.55475 0.257931 0
M  V30 4304 C 413.615 -2.04064 -0.370488 0
M  V30 4305 C 414.04 -1.13565 -1.49948 0
M  V30 4306 O 413.398 -0.130781 -1.80828 0
M  V30 4307 C 413.446 -3.50554 -0.845237 0
M  V30 4308 O 412.55 -3.63173 -1.95394 0
M  V30 4309 H 411.891 -0.659257 -0.0792243 0
M  V30 4310 H 414.421 -2.00903 0.387212 0
M  V30 4311 H 414.431 -3.91588 -1.14555 0
M  V30 4312 H 413.106 -4.15896 -0.0191259 0
M  V30 4313 H 411.683 -3.34039 -1.65748 0
M  V30 4314 N 413.868 0.0150385 -1.57593 0
M  V30 4315 C 415.096 0.714395 -1.94175 0
M  V30 4316 C 415.511 1.68135 -0.858841 0
M  V30 4317 O 414.868 1.81766 0.163567 0
M  V30 4318 C 414.919 1.45933 -3.30735 0
M  V30 4319 O 414.64 0.531167 -4.34868 0
M  V30 4320 C 416.141 2.25456 -3.81686 0
M  V30 4321 H 413.361 0.199923 -0.640525 0
M  V30 4322 H 415.905 -0.0316096 -2.04476 0
M  V30 4323 H 414.06 2.15709 -3.21789 0
M  V30 4324 H 414.474 1.05509 -5.13778 0
M  V30 4325 H 415.948 2.731 -4.79709 0
M  V30 4326 H 416.425 3.07485 -3.13607 0
M  V30 4327 H 417.031 1.60727 -3.9376 0
M  V30 4328 N 415.346 1.54954 0.287554 0
M  V30 4329 C 416.762 1.46469 0.633964 0
M  V30 4330 C 416.962 0.666865 1.90145 0
M  V30 4331 O 416.018 0.179906 2.51858 0
M  V30 4332 C 417.331 2.90556 0.774454 0
M  V30 4333 C 418.879 3.00681 0.869462 0
M  V30 4334 C 419.354 4.45993 1.04184 0
M  V30 4335 N 420.845 4.4976 1.10772 0
M  V30 4336 C 421.58 5.59393 1.25964 0
M  V30 4337 N 421.076 6.78923 1.37968 0
M  V30 4338 N 422.869 5.47107 1.28959 0
M  V30 4339 H 415.02 2.05288 -0.545041 0
M  V30 4340 H 417.283 0.930305 -0.182308 0
M  V30 4341 H 416.989 3.51594 -0.086207 0
M  V30 4342 H 416.863 3.38743 1.6593 0
M  V30 4343 H 419.25 2.39749 1.7206 0
M  V30 4344 H 419.331 2.55769 -0.0396831 0
M  V30 4345 H 418.975 5.07524 0.195422 0
M  V30 4346 H 418.905 4.88548 1.96542 0
M  V30 4347 H 421.396 3.63651 1.02794 0
M  V30 4348 H 421.709 7.58231 1.49353 0
M  V30 4349 H 420.054 6.81763 1.34999 0
M  V30 4350 H 423.245 4.52668 1.19202 0
M  V30 4351 H 423.418 6.32595 1.40455 0
M  V30 4352 N 416.824 -0.551391 1.4764 0
M  V30 4353 C 418.07 -1.31024 1.54792 0
M  V30 4354 C 418.403 -1.9304 0.211967 0
M  V30 4355 O 417.678 -1.78175 -0.77999 0
M  V30 4356 C 417.961 -2.41593 2.67029 0
M  V30 4357 C 417.814 -1.84408 4.10261 0
M  V30 4358 C 419.133 -3.43488 2.75143 0
M  V30 4359 H 416.252 -0.475031 0.563485 0
M  V30 4360 H 418.894 -0.616454 1.79722 0
M  V30 4361 H 417.044 -3.00772 2.45904 0
M  V30 4362 H 418.716 -1.29445 4.42766 0
M  V30 4363 H 416.959 -1.15051 4.18265 0
M  V30 4364 H 417.63 -2.64367 4.84576 0
M  V30 4365 H 420.106 -2.94236 2.94218 0
M  V30 4366 H 418.982 -4.18274 3.55441 0
M  V30 4367 H 419.243 -4.02703 1.82435 0
M  V30 4368 N 418.302 -1.35869 -0.798587 0
M  V30 4369 C 419.527 -1.32883 -1.59238 0
M  V30 4370 C 419.952 0.0894587 -1.87887 0
M  V30 4371 O 419.31 1.05869 -1.47178 0
M  V30 4372 C 419.358 -2.14892 -2.89575 0
M  V30 4373 O 418.462 -1.53512 -3.82763 0
M  V30 4374 H 417.803 -0.455236 -0.48338 0
M  V30 4375 H 420.333 -1.79024 -0.990539 0
M  V30 4376 H 420.343 -2.27139 -3.38928 0
M  V30 4377 H 419.018 -3.17998 -2.68049 0
M  V30 4378 H 417.595 -1.50153 -3.41334 0
M  V30 4379 N 419.78 1.02168 -1.19998 0
M  V30 4380 C 421.057 1.72816 -0.916191 0
M  V30 4381 C 421.437 2.03081 0.576325 0
M  V30 4382 O 420.785 1.69122 1.53656 0
M  V30 4383 C 420.995 2.9997 -1.78378 0
M  V30 4384 C 422.343 3.73336 -2.02251 0
M  V30 4385 O 423.367 3.09914 -1.75589 0
M  V30 4386 O 422.226 4.87371 -2.47249 0
M  V30 4387 H 419.32 0.752924 -0.342103 0
M  V30 4388 H 421.866 1.08062 -1.30846 0
M  V30 4389 H 420.638 2.73888 -2.79466 0
M  V30 4390 H 420.261 3.72464 -1.39126 0
M  V30 4391 N 421.258 1.00505 1.21394 0
M  V30 4392 C 422.205 0.565496 2.23765 0
M  V30 4393 C 423.175 -0.408466 1.60999 0
M  V30 4394 O 424.36 -0.310503 1.88257 0
M  V30 4395 C 421.5 -0.101667 3.4495 0
M  V30 4396 C 420.613 0.915479 4.22188 0
M  V30 4397 C 419.748 0.220574 5.30742 0
M  V30 4398 C 418.787 1.22527 5.99711 0
M  V30 4399 N 417.924 0.557831 6.9988 0
M  V30 4400 H 422.764 1.44314 2.60725 0
M  V30 4401 H 420.301 0.722643 1.28126 0
M  V30 4402 H 422.259 -0.505504 4.14126 0
M  V30 4403 H 420.889 -0.94303 3.08718 0
M  V30 4404 H 419.941 1.43756 3.52191 0
M  V30 4405 H 421.253 1.68005 4.69655 0
M  V30 4406 H 420.407 -0.239368 6.06228 0
M  V30 4407 H 419.146 -0.576401 4.84282 0
M  V30 4408 H 418.151 1.69571 5.22997 0
M  V30 4409 H 419.376 2.02332 6.48258 0
M  V30 4410 H 417.322 -0.219486 6.55633 0
M  V30 4411 H 417.239 1.26065 7.45415 0
M  V30 4412 H 418.507 0.121095 7.79406 0
M  V30 4413 N 422.737 -1.36956 0.779787 0
M  V30 4414 C 423.983 -2.00237 0.357324 0
M  V30 4415 C 424.338 -1.60787 -1.05666 0
M  V30 4416 O 423.631 -0.847836 -1.71821 0
M  V30 4417 C 423.825 -3.54585 0.447686 0
M  V30 4418 C 423.654 -4.09025 1.86891 0
M  V30 4419 C 422.424 -4.39612 2.49138 0
M  V30 4420 C 424.622 -4.29461 2.82963 0
M  V30 4421 N 422.604 -4.79816 3.82949 0
M  V30 4422 C 423.975 -4.72363 4.01588 0
M  V30 4423 C 426.03 -4.1161 2.80145 0
M  V30 4424 C 424.733 -4.99284 5.17791 0
M  V30 4425 C 426.759 -4.39672 3.95528 0
M  V30 4426 C 426.121 -4.82822 5.12896 0
M  V30 4427 H 422.22 -0.76148 0.177968 0
M  V30 4428 H 424.804 -1.6613 1.01533 0
M  V30 4429 H 422.975 -3.87982 -0.180184 0
M  V30 4430 H 424.707 -4.047 0.0023955 0
M  V30 4431 H 421.462 -4.28975 2.00693 0
M  V30 4432 H 421.886 -5.04216 4.51769 0
M  V30 4433 H 426.528 -3.77415 1.90572 0
M  V30 4434 H 424.246 -5.32365 6.07958 0
M  V30 4435 H 427.832 -4.27441 3.94697 0
M  V30 4436 H 426.712 -5.04118 6.00695 0
M  V30 4437 N 424.215 -0.530993 -1.48385 0
M  V30 4438 C 425.162 0.231223 -2.29639 0
M  V30 4439 C 426.132 0.932864 -1.37429 0
M  V30 4440 O 427.317 0.933692 -1.66394 0
M  V30 4441 C 424.457 1.27155 -3.2082 0
M  V30 4442 C 423.57 0.578655 -4.28107 0
M  V30 4443 C 422.705 1.602 -5.06467 0
M  V30 4444 C 421.744 0.892625 -6.05556 0
M  V30 4445 N 420.881 1.86157 -6.76971 0
M  V30 4446 H 425.721 -0.467848 -2.94305 0
M  V30 4447 H 423.258 -0.242556 -1.45086 0
M  V30 4448 H 425.216 1.88703 -3.72085 0
M  V30 4449 H 423.846 1.939 -2.58075 0
M  V30 4450 H 422.898 -0.150782 -3.80101 0
M  V30 4451 H 424.21 0.0217065 -4.98795 0
M  V30 4452 H 423.364 2.29173 -5.61751 0
M  V30 4453 H 422.103 2.19285 -4.35621 0
M  V30 4454 H 421.108 0.188829 -5.49476 0
M  V30 4455 H 422.333 0.307878 -6.78402 0
M  V30 4456 H 420.279 2.44147 -6.08875 0
M  V30 4457 H 420.196 1.35608 -7.43738 0
M  V30 4458 H 421.464 2.54325 -7.36844 0
M  V30 4459 N 425.693 1.55336 -0.266172 0
M  V30 4460 C 426.641 2.23587 0.641228 0
M  V30 4461 C 427.635 1.22986 1.16494 0
M  V30 4462 O 428.841 1.40943 1.1196 0
M  V30 4463 H 425.216 0.717452 0.225315 0
M  V30 4464 H 427.187 2.9837 0.0426561 0
M  V30 4465 C 425.936 2.96369 1.81826 0
M  V30 4466 H 425.259 3.73563 1.42445 0
M  V30 4467 H 426.699 3.47459 2.42998 0
M  V30 4468 C 425.158 2.0133 2.70125 0
M  V30 4469 O 425.688 1.55875 3.70224 0
M  V30 4470 N 423.894 1.6802 2.37102 0
M  V30 4471 H 423.441 2.05181 1.55751 0
M  V30 4472 H 423.399 1.047 2.96454 0
M  V30 4473 N 427.171 -0.0066808 1.57599 0
M  V30 4474 C 428.118 -1.00024 2.08 0
M  V30 4475 C 429.088 -1.34549 0.973943 0
M  V30 4476 O 430.273 -1.44502 1.24595 0
M  V30 4477 C 427.413 -2.2891 2.58252 0
M  V30 4478 C 426.526 -2.00346 3.82734 0
M  V30 4479 C 425.661 -3.23265 4.21513 0
M  V30 4480 C 424.7 -2.90357 5.3885 0
M  V30 4481 N 423.837 -4.05793 5.72954 0
M  V30 4482 H 428.677 -0.563499 2.92624 0
M  V30 4483 H 426.214 -0.266592 1.44664 0
M  V30 4484 H 428.172 -3.04247 2.85464 0
M  V30 4485 H 426.802 -2.70265 1.76512 0
M  V30 4486 H 425.854 -1.15406 3.62471 0
M  V30 4487 H 427.166 -1.72086 4.68175 0
M  V30 4488 H 426.32 -4.06953 4.49971 0
M  V30 4489 H 425.059 -3.54657 3.34768 0
M  V30 4490 H 424.064 -2.05075 5.10122 0
M  V30 4491 H 425.289 -2.60219 6.27266 0
M  V30 4492 H 423.235 -4.37094 4.89167 0
M  V30 4493 H 423.152 -3.81034 6.52954 0
M  V30 4494 H 424.42 -4.90289 6.06001 0
M  V30 4495 N 428.649 -1.55105 -0.279332 0
M  V30 4496 C 429.597 -1.88333 -1.36505 0
M  V30 4497 C 430.591 -0.759043 -1.51443 0
M  V30 4498 O 431.797 -0.943312 -1.53302 0
M  V30 4499 H 428.172 -0.59766 -0.456406 0
M  V30 4500 H 430.143 -2.79041 -1.05728 0
M  V30 4501 C 428.892 -2.16628 -2.7197 0
M  V30 4502 H 428.215 -3.02624 -2.61264 0
M  V30 4503 H 429.655 -2.43803 -3.46895 0
M  V30 4504 C 428.114 -0.971807 -3.22579 0
M  V30 4505 O 428.644 -0.203228 -4.01186 0
M  V30 4506 N 426.85 -0.771238 -2.80179 0
M  V30 4507 H 426.397 -1.39792 -2.1637 0
M  V30 4508 H 426.355 0.0263667 -3.14389 0
M  V30 4509 N 430.127 0.543554 -1.4793 0
M  V30 4510 C 431.037 1.67657 -1.64098 0
M  V30 4511 C 432.053 1.65934 -0.523622 0
M  V30 4512 O 433.229 1.85133 -0.792943 0
M  V30 4513 C 430.294 3.04146 -1.66421 0
M  V30 4514 C 429.355 3.16831 -2.89684 0
M  V30 4515 C 428.588 4.46809 -2.91886 0
M  V30 4516 O 428.811 5.33095 -2.02895 0
M  V30 4517 O 427.745 4.63573 -3.83906 0
M  V30 4518 H 431.571 1.56957 -2.59997 0
M  V30 4519 H 429.156 0.715116 -1.31173 0
M  V30 4520 H 431.038 3.85346 -1.70548 0
M  V30 4521 H 429.713 3.152 -0.736923 0
M  V30 4522 H 428.62 2.34977 -2.91095 0
M  V30 4523 H 429.953 3.10687 -3.81752 0
M  V30 4524 N 431.605 1.3629 0.791371 0
M  V30 4525 C 432.515 1.32606 1.93527 0
M  V30 4526 C 433.531 0.228541 1.72493 0
M  V30 4527 O 434.707 0.460571 1.96063 0
M  V30 4528 C 431.772 1.11271 3.28359 0
M  V30 4529 C 430.833 2.3048 3.62185 0
M  V30 4530 C 430.066 2.10154 4.90583 0
M  V30 4531 O 430.289 1.07572 5.60165 0
M  V30 4532 O 429.223 2.97884 5.23019 0
M  V30 4533 H 433.049 2.28909 1.99585 0
M  V30 4534 H 430.634 1.16818 0.931344 0
M  V30 4535 H 432.516 1.01283 4.09047 0
M  V30 4536 H 431.191 0.180292 3.23198 0
M  V30 4537 H 430.098 2.46036 2.81811 0
M  V30 4538 H 431.431 3.22221 3.72068 0
M  V30 4539 N 433.083 -1.0153 1.20538 0
M  V30 4540 C 434.033 -2.08482 0.922991 0
M  V30 4541 C 435.017 -1.60469 -0.117702 0
M  V30 4542 O 436.209 -1.76772 0.0898465 0
M  V30 4543 C 433.338 -3.39952 0.478312 0
M  V30 4544 C 432.424 -3.94662 1.5525 0
M  V30 4545 N 432.815 -4.22866 2.77521 0
M  V30 4546 C 431.113 -4.22825 1.41897 0
M  V30 4547 C 431.814 -4.67002 3.4682 0
M  V30 4548 N 430.79 -4.69356 2.74237 0
M  V30 4549 H 434.592 -2.28199 1.85209 0
M  V30 4550 H 432.106 -1.19512 1.09957 0
M  V30 4551 H 434.103 -4.16105 0.257408 0
M  V30 4552 H 432.763 -3.21648 -0.444148 0
M  V30 4553 H 433.774 -4.11732 3.1416 0
M  V30 4554 H 430.451 -4.13714 0.561015 0
M  V30 4555 H 431.841 -4.97632 4.51455 0
M  V30 4556 N 434.561 -1.01147 -1.20859 0
M  V30 4557 C 435.789 -0.716911 -1.94082 0
M  V30 4558 C 436.204 0.721568 -1.74467 0
M  V30 4559 O 435.561 1.48889 -1.05539 0
M  V30 4560 C 435.612 -1.03662 -3.46318 0
M  V30 4561 O 435.333 -2.4186 -3.65288 0
M  V30 4562 C 436.834 -0.762386 -4.36695 0
M  V30 4563 H 434.054 -0.26367 -0.617024 0
M  V30 4564 H 436.598 -1.35127 -1.53496 0
M  V30 4565 H 434.753 -0.447757 -3.84804 0
M  V30 4566 H 435.167 -2.53224 -4.59323 0
M  V30 4567 H 436.641 -1.03621 -5.42187 0
M  V30 4568 H 437.118 0.303514 -4.3815 0
M  V30 4569 H 437.724 -1.33316 -4.03865 0
M  V30 4570 N 436.039 1.36541 -0.78704 0
M  V30 4571 C 436.986 2.30082 -0.181901 0
M  V30 4572 C 437.956 1.5186 0.672896 0
M  V30 4573 O 439.141 1.80374 0.622072 0
M  V30 4574 C 436.281 3.3835 0.679197 0
M  V30 4575 C 435.394 4.31565 -0.193882 0
M  V30 4576 C 434.529 5.26915 0.673364 0
M  V30 4577 C 433.568 6.11769 -0.201315 0
M  V30 4578 N 432.705 6.99315 0.624777 0
M  V30 4579 H 437.545 2.81248 -0.985064 0
M  V30 4580 H 435.082 1.38437 -0.497342 0
M  V30 4581 H 437.04 3.99767 1.19341 0
M  V30 4582 H 435.67 2.8851 1.44781 0
M  V30 4583 H 434.722 3.71323 -0.826044 0
M  V30 4584 H 436.034 4.91191 -0.867937 0
M  V30 4585 H 435.188 5.9361 1.25348 0
M  V30 4586 H 433.927 4.67737 1.38105 0
M  V30 4587 H 432.932 5.44039 -0.793849 0
M  V30 4588 H 434.157 6.73022 -0.906568 0
M  V30 4589 H 432.103 6.42648 1.3168 0
M  V30 4590 H 432.02 7.56 0.00835237 0
M  V30 4591 H 433.288 7.70382 1.18879 0
M  V30 4592 N 437.518 0.538854 1.48102 0
M  V30 4593 C 438.765 0.0080018 2.02498 0
M  V30 4594 C 439.093 -1.33437 1.41509 0
M  V30 4595 O 438.348 -1.87709 0.553507 0
M  V30 4596 C 438.647 -0.153808 3.57069 0
M  V30 4597 C 438.313 1.11533 4.36888 0
M  V30 4598 C 436.975 1.46314 4.58417 0
M  V30 4599 C 439.327 1.95718 4.83057 0
M  V30 4600 C 436.655 2.6516 5.23361 0
M  V30 4601 C 439.007 3.13751 5.49312 0
M  V30 4602 C 437.671 3.48866 5.69077 0
M  V30 4603 H 436.941 0.00292807 0.740994 0
M  V30 4604 H 439.588 0.706668 1.77984 0
M  V30 4605 H 437.893 -0.935309 3.80472 0
M  V30 4606 H 439.59 -0.579607 3.96789 0
M  V30 4607 H 436.18 0.834484 4.20398 0
M  V30 4608 H 440.364 1.70158 4.66219 0
M  V30 4609 H 435.62 2.92558 5.36861 0
M  V30 4610 H 439.794 3.79282 5.84053 0
M  V30 4611 H 437.421 4.41054 6.19173 0
M  V30 4612 N 438.996 -1.55193 0.274407 0
M  V30 4613 C 439.926 -2.25471 -0.607032 0
M  V30 4614 C 440.907 -1.24461 -1.15946 0
M  V30 4615 O 442.092 -1.53179 -1.19373 0
M  V30 4616 C 439.222 -2.97526 -1.79153 0
M  V30 4617 C 438.176 -4.05459 -1.37067 0
M  V30 4618 C 437.502 -4.65084 -2.6382 0
M  V30 4619 C 438.802 -5.19691 -0.521389 0
M  V30 4620 H 440.496 -2.99393 -0.0209343 0
M  V30 4621 H 438.042 -1.43997 -0.00862866 0
M  V30 4622 H 439.995 -3.45402 -2.41404 0
M  V30 4623 H 438.719 -2.21138 -2.40344 0
M  V30 4624 H 437.378 -3.58393 -0.771355 0
M  V30 4625 H 437.026 -3.85365 -3.23268 0
M  V30 4626 H 436.726 -5.37961 -2.36372 0
M  V30 4627 H 438.25 -5.15708 -3.26921 0
M  V30 4628 H 439.664 -5.63623 -1.04889 0
M  V30 4629 H 438.061 -5.99126 -0.341825 0
M  V30 4630 H 439.131 -4.82713 0.46 0
M  V30 4631 N 440.474 -0.00167713 -1.576 0
M  V30 4632 C 441.702 0.693759 -1.94922 0
M  V30 4633 C 442.117 1.67215 -0.876626 0
M  V30 4634 O 441.474 1.81929 0.144279 0
M  V30 4635 C 441.525 1.42416 -3.32265 0
M  V30 4636 O 441.246 0.485014 -4.35407 0
M  V30 4637 C 442.747 2.21395 -3.84056 0
M  V30 4638 H 439.967 0.193118 -0.642609 0
M  V30 4639 H 442.511 -0.0532952 -2.04431 0
M  V30 4640 H 440.666 2.12284 -3.24059 0
M  V30 4641 H 441.08 1.00053 -5.14868 0
M  V30 4642 H 442.554 2.67996 -4.82578 0
M  V30 4643 H 443.031 3.04142 -3.16851 0
M  V30 4644 H 443.637 1.56542 -3.95443 0
M  V30 4645 N 441.952 1.55251 0.271103 0
M  V30 4646 C 443.363 1.66635 0.842007 0
M  V30 4647 C 443.714 0.594631 1.86972 0
M  V30 4648 O 442.839 -0.263532 2.14789 0
M  V30 4649 C 443.434 3.02082 1.53401 0
M  V30 4650 C 441.993 3.15487 2.05293 0
M  V30 4651 C 441.14 2.62438 0.895631 0
M  V30 4652 H 444.091 1.58629 0.0474117 0
M  V30 4653 H 444.112 2.95176 2.40107 0
M  V30 4654 H 443.624 3.80062 0.785786 0
M  V30 4655 H 441.725 2.42284 2.83071 0
M  V30 4656 H 441.838 4.22075 2.26693 0
M  V30 4657 H 440.202 2.19644 1.28953 0
M  V30 4658 H 440.985 3.42923 0.160878 0
M  V30 4659 N 443.43 -0.535701 1.48216 0
M  V30 4660 C 444.362 -1.65662 1.58394 0
M  V30 4661 C 445.375 -1.5591 0.468607 0
M  V30 4662 O 446.564 -1.62475 0.7392 0
M  V30 4663 C 443.664 -3.04276 1.4923 0
M  V30 4664 C 442.837 -3.39567 2.75705 0
M  V30 4665 C 441.896 -4.57436 2.60075 0
M  V30 4666 O 440.922 -4.60942 3.33948 0
M  V30 4667 N 442.124 -5.55259 1.69315 0
M  V30 4668 H 444.889 -1.5737 2.55058 0
M  V30 4669 H 442.45 -0.722845 1.44867 0
M  V30 4670 H 444.442 -3.80994 1.36477 0
M  V30 4671 H 443.012 -3.06677 0.605632 0
M  V30 4672 H 442.232 -2.52083 3.03064 0
M  V30 4673 H 443.52 -3.59929 3.59623 0
M  V30 4674 H 442.918 -5.552 1.08489 0
M  V30 4675 H 441.475 -6.31218 1.62504 0
M  V30 4676 O 444.947 -1.46458 -0.680617 0
M  V30 4677 H 445.638 -1.40531 -1.33307 0
M  V30 END ATOM
M  V30 BEGIN BOND
M  V30 END BOND
M  V30 END CTAB
M  END
$$$$
