drugbank_target|Q59334 Delta-aminolevulinic acid dehydratase (DB04560)
 OpenBabel12092120033D

  0  0  0     0  0            999 V3000
M  V30 BEGIN CTAB
M  V30 COUNTS 5082 5129 0 0 0
M  V30 BEGIN ATOM
M  V30 1 H -0.908 1.98254 -0.117106 0
M  V30 2 N 0 1.576 0 0
M  V30 3 C 0.933 2.03868 1.02534 0
M  V30 4 C 1.911 0.928543 1.3348 0
M  V30 5 O 3.095 1.19667 1.45644 0
M  V30 6 C 0.222 2.43627 2.35294 0
M  V30 7 C -0.732 3.65373 2.2001 0
M  V30 8 S 0.101 5.13292 1.52614 0
M  V30 9 C 1.257 5.56322 2.86805 0
M  V30 10 H 1.49 2.90518 0.631377 0
M  V30 11 H -0.977 1.52953 0.210867 0
M  V30 12 H 0.981 2.67203 3.11629 0
M  V30 13 H -0.358 1.57376 2.7183 0
M  V30 14 H -1.165 3.90944 3.18086 0
M  V30 15 H -1.563 3.418 1.51819 0
M  V30 16 H 0.729 5.58782 3.83104 0
M  V30 17 H 1.672 6.56266 2.65933 0
M  V30 18 H 2.08 4.83886 2.90714 0
M  V30 19 N 1.4781 -0.272755 1.55222 0
M  V30 20 C 2.7031 -1.02683 1.80197 0
M  V30 21 C 3.1281 -1.79142 0.573551 0
M  V30 22 O 2.4861 -1.74917 -0.476849 0
M  V30 23 C 2.5341 -1.9609 3.02624 0
M  V30 24 O 1.6381 -3.04863 2.77727 0
M  V30 25 H 0.9791 -0.293557 0.595584 0
M  V30 26 H 3.5091 -0.30159 2.02365 0
M  V30 27 H 3.5191 -2.38039 3.31363 0
M  V30 28 H 2.1941 -1.39851 3.91682 0
M  V30 29 H 0.7711 -2.67228 2.60084 0
M  V30 30 N 2.9562 -1.48159 -0.537278 0
M  V30 31 C 3.8882 -1.58218 -1.65831 0
M  V30 32 C 4.9012 -0.466948 -1.5596 0
M  V30 33 O 6.0902 -0.73747 -1.62553 0
M  V30 34 C 3.1902 -1.48906 -3.04434 0
M  V30 35 C 2.3632 -2.75343 -3.3986 0
M  V30 36 C 1.4222 -2.59588 -4.57712 0
M  V30 37 O 0.4482 -3.33457 -4.61297 0
M  V30 38 N 1.6502 -1.68724 -5.55439 0
M  V30 39 H 4.4152 -2.54891 -1.57641 0
M  V30 40 H 1.9762 -1.4479 -0.724386 0
M  V30 41 H 3.9682 -1.36072 -3.81139 0
M  V30 42 H 2.5382 -0.602368 -3.06741 0
M  V30 43 H 1.7582 -3.02795 -2.52406 0
M  V30 44 H 3.0462 -3.5924 -3.60311 0
M  V30 45 H 2.4442 -1.07898 -5.55315 0
M  V30 46 H 1.0012 -1.61832 -6.3139 0
M  V30 47 N 4.4343 0.785586 -1.36625 0
M  V30 48 C 5.3643 1.91259 -1.33949 0
M  V30 49 C 6.3453 1.68795 -0.210325 0
M  V30 50 O 7.5303 1.89854 -0.408561 0
M  V30 51 C 4.6603 3.28339 -1.13186 0
M  V30 52 C 3.6143 3.65335 -2.22967 0
M  V30 53 C 2.9403 5.00806 -1.87342 0
M  V30 54 C 4.2403 3.7352 -3.65075 0
M  V30 55 H 5.9343 1.93755 -2.28253 0
M  V30 56 H 3.4803 0.930788 -1.09874 0
M  V30 57 H 5.4333 4.06804 -1.09948 0
M  V30 58 H 4.1573 3.2624 -0.153332 0
M  V30 59 H 2.8163 2.89169 -2.25337 0
M  V30 60 H 2.4643 4.95233 -0.880545 0
M  V30 61 H 2.1643 5.26529 -2.60846 0
M  V30 62 H 3.6883 5.81687 -1.85667 0
M  V30 63 H 5.1023 4.42168 -3.64911 0
M  V30 64 H 3.4993 4.10731 -4.37516 0
M  V30 65 H 4.5693 2.74527 -3.99703 0
M  V30 66 N 5.9124 1.20967 1.01018 0
M  V30 67 C 7.1894 0.93264 1.71934 0
M  V30 68 C 7.5694 -0.55692 2.03621 0
M  V30 69 O 6.9174 -1.52035 1.7058 0
M  V30 70 C 7.1274 1.81233 2.98254 0
M  V30 71 C 8.4754 2.05804 3.71389 0
M  V30 72 O 9.4994 1.78539 3.08225 0
M  V30 73 O 8.3584 2.51888 4.84989 0
M  V30 74 H 5.4524 0.349272 0.749625 0
M  V30 75 H 7.9984 1.31871 1.06808 0
M  V30 76 H 6.7704 2.82067 2.71208 0
M  V30 77 H 6.3934 1.42674 3.7112 0
M  V30 78 N 7.3905 -1.2043 1.01659 0
M  V30 79 C 8.3205 -2.25466 0.607226 0
M  V30 80 C 9.3015 -1.65853 -0.377716 0
M  V30 81 O 10.4865 -1.92409 -0.263149 0
M  V30 82 C 7.6165 -3.47256 -0.0552949 0
M  V30 83 C 6.5705 -4.19462 0.850632 0
M  V30 84 C 5.8965 -5.34673 0.0538859 0
M  V30 85 C 7.1965 -4.75603 2.15868 0
M  V30 86 H 8.8905 -2.59962 1.48526 0
M  V30 87 H 6.4365 -1.2496 0.715605 0
M  V30 88 H 8.3895 -4.19917 -0.353233 0
M  V30 89 H 7.1135 -3.11924 -0.968045 0
M  V30 90 H 5.7725 -3.48667 1.13257 0
M  V30 91 H 5.4205 -4.95585 -0.860514 0
M  V30 92 H 5.1205 -5.83913 0.657192 0
M  V30 93 H 6.6445 -6.10138 -0.237598 0
M  V30 94 H 8.0585 -5.40083 1.92311 0
M  V30 95 H 6.4555 -5.3528 2.71284 0
M  V30 96 H 7.5255 -3.94346 2.82169 0
M  V30 97 N 8.8686 -0.792821 -1.36206 0
M  V30 98 C 9.7986 -0.207853 -2.32573 0
M  V30 99 C 10.7796 0.659055 -1.56813 0
M  V30 100 O 11.9646 0.592176 -1.84951 0
M  V30 101 C 9.0946 0.655449 -3.41059 0
M  V30 102 C 8.0486 -0.111842 -4.27854 0
M  V30 103 C 7.3746 0.872274 -5.27537 0
M  V30 104 C 8.6746 -1.30299 -5.05786 0
M  V30 105 H 10.3686 -1.01294 -2.81744 0
M  V30 106 H 7.9146 -0.48854 -1.3546 0
M  V30 107 H 9.8676 1.07464 -4.07467 0
M  V30 108 H 8.5916 1.49328 -2.90463 0
M  V30 109 H 7.2506 -0.512053 -3.63006 0
M  V30 110 H 6.8986 1.70523 -4.73214 0
M  V30 111 H 6.5986 0.363291 -5.86476 0
M  V30 112 H 8.1226 1.28996 -5.96818 0
M  V30 113 H 9.5366 -0.959379 -5.65216 0
M  V30 114 H 7.9336 -1.7455 -5.74154 0
M  V30 115 H 9.0036 -2.09663 -4.37229 0
M  V30 116 N 10.3467 1.47872 -0.545128 0
M  V30 117 C 11.2947 2.31533 0.222512 0
M  V30 118 C 12.2887 1.42177 0.920985 0
M  V30 119 O 13.4947 1.59005 0.843645 0
M  V30 120 H 9.8697 0.746519 0.0906278 0
M  V30 121 H 11.8407 2.94139 -0.50246 0
M  V30 122 C 10.5897 3.2457 1.24699 0
M  V30 123 H 9.9127 3.93283 0.718944 0
M  V30 124 H 11.3527 3.85963 1.75523 0
M  V30 125 C 9.8117 2.47237 2.28856 0
M  V30 126 O 10.3417 2.20808 3.35569 0
M  V30 127 N 8.5477 2.08461 2.02466 0
M  V30 128 H 8.0947 2.30155 1.157 0
M  V30 129 H 8.0527 1.57033 2.72375 0
M  V30 130 N 11.8248 0.280983 1.55075 0
M  V30 131 C 13.0738 -0.334784 1.98902 0
M  V30 132 C 13.3868 -1.56534 1.17288 0
M  V30 133 O 14.5928 -2.25443 1.51287 0
M  V30 134 C 13.0488 -0.646994 3.54037 0
M  V30 135 C 12.6568 0.564085 4.44435 0
M  V30 136 C 14.4008 -1.22506 4.06439 0
M  V30 137 C 12.3078 0.226137 5.90967 0
M  V30 138 H 11.2378 -0.128866 0.742906 0
M  V30 139 H 13.8888 0.386556 1.79382 0
M  V30 140 H 12.2708 -1.42739 3.6938 0
M  V30 141 H 13.4448 1.34082 4.40861 0
M  V30 142 H 11.7598 1.0594 4.02698 0
M  V30 143 H 14.3568 -1.49182 5.13468 0
M  V30 144 H 14.6998 -2.16085 3.55827 0
M  V30 145 H 15.2328 -0.50682 3.94558 0
M  V30 146 H 11.9718 1.12996 6.45687 0
M  V30 147 H 11.4918 -0.513717 5.97596 0
M  V30 148 H 13.1708 -0.179539 6.46751 0
M  V30 149 N 13.3029 -1.57598 0.00835791 0
M  V30 150 C 14.5489 -1.91211 -0.675732 0
M  V30 151 C 14.8819 -0.883139 -1.72958 0
M  V30 152 O 14.1569 0.097016 -1.94258 0
M  V30 153 C 14.4399 -3.35379 -1.31123 0
M  V30 154 C 14.2929 -4.48999 -0.268356 0
M  V30 155 C 15.6119 -3.7912 -2.23508 0
M  V30 156 H 12.7309 -0.695374 -0.244179 0
M  V30 157 H 15.3729 -1.89901 0.0613655 0
M  V30 158 H 13.5229 -3.36626 -1.93946 0
M  V30 159 H 15.1949 -4.59887 0.360844 0
M  V30 160 H 13.4379 -4.31873 0.408482 0
M  V30 161 H 14.1089 -5.46851 -0.752218 0
M  V30 162 H 16.5849 -3.79477 -1.70693 0
M  V30 163 H 15.4609 -4.80729 -2.64936 0
M  V30 164 H 15.7219 -3.13455 -3.11766 0
M  V30 165 N 14.781 0.264519 -1.55364 0
M  V30 166 C 15.731 1.32966 -1.85214 0
M  V30 167 C 16.715 1.44306 -0.711653 0
M  V30 168 O 17.907 1.47844 -0.973192 0
M  V30 169 C 15.036 2.68839 -2.13495 0
M  V30 170 C 14.122 2.61575 -3.33825 0
M  V30 171 N 14.513 2.23933 -4.53528 0
M  V30 172 C 12.811 2.92621 -3.36584 0
M  V30 173 C 13.512 2.26868 -5.35636 0
M  V30 174 N 12.488 2.65677 -4.74254 0
M  V30 175 H 16.29 1.02884 -2.75304 0
M  V30 176 H 13.804 0.473157 -1.55354 0
M  V30 177 H 15.801 3.45685 -2.33039 0
M  V30 178 H 14.461 2.99802 -1.24694 0
M  V30 179 H 15.472 1.95769 -4.79474 0
M  V30 180 H 12.149 3.2824 -2.58002 0
M  V30 181 H 13.539 2.00254 -6.41364 0
M  V30 182 N 16.2591 1.48442 0.529413 0
M  V30 183 C 17.6751 1.34575 0.858004 0
M  V30 184 C 17.8751 0.3572 1.98309 0
M  V30 185 O 16.9311 -0.221379 2.51528 0
M  V30 186 C 18.2441 2.74617 1.22499 0
M  V30 187 C 19.7921 2.83109 1.33484 0
M  V30 188 C 20.2671 4.23854 1.73526 0
M  V30 189 N 21.7581 4.2653 1.80628 0
M  V30 190 C 22.4931 5.32372 2.12997 0
M  V30 191 N 21.9891 6.48491 2.43786 0
M  V30 192 N 23.7821 5.19766 2.14008 0
M  V30 193 H 15.9331 2.1133 -0.212925 0
M  V30 194 H 18.1961 0.947439 -0.0326199 0
M  V30 195 H 17.9021 3.4852 0.471905 0
M  V30 196 H 17.7761 3.08177 2.17501 0
M  V30 197 H 20.1631 2.09462 2.0787 0
M  V30 198 H 20.2441 2.53168 0.366027 0
M  V30 199 H 19.8881 4.98018 0.997013 0
M  V30 200 H 19.8181 4.5124 2.71459 0
M  V30 201 H 22.3091 3.42772 1.59108 0
M  V30 202 H 22.6221 7.24993 2.67592 0
M  V30 203 H 20.9671 6.51765 2.41304 0
M  V30 204 H 24.1581 4.28066 1.89412 0
M  V30 205 H 24.3311 6.02354 2.38902 0
M  V30 206 N 17.7372 -0.778329 1.37039 0
M  V30 207 C 19.1482 -1.35421 1.28523 0
M  V30 208 C 19.4992 -1.96075 -0.0700901 0
M  V30 209 O 18.6242 -1.93352 -0.971801 0
M  V30 210 C 19.2192 -2.46211 2.32735 0
M  V30 211 C 17.7782 -2.99585 2.27873 0
M  V30 212 C 16.9252 -1.72748 2.16918 0
M  V30 213 H 19.8762 -0.5791 1.47757 0
M  V30 214 H 19.8972 -3.2552 1.9702 0
M  V30 215 H 19.4092 -2.02036 3.31365 0
M  V30 216 H 17.5102 -3.48152 1.32745 0
M  V30 217 H 17.6232 -3.55646 3.21018 0
M  V30 218 H 15.9872 -1.95416 1.63354 0
M  V30 219 H 16.7702 -1.30686 3.17452 0
M  V30 220 N 19.2153 -1.21501 -1.00376 0
M  V30 221 C 20.6313 -0.972629 -1.26539 0
M  V30 222 C 20.8313 0.340257 -1.98606 0
M  V30 223 O 19.8873 1.06561 -2.28913 0
M  V30 224 C 21.2003 -2.16404 -2.08781 0
M  V30 225 C 22.7483 -2.20643 -2.22004 0
M  V30 226 C 23.2233 -3.39306 -3.07629 0
M  V30 227 N 24.7143 -3.39401 -3.15217 0
M  V30 228 C 25.4493 -4.27867 -3.81729 0
M  V30 229 N 24.9453 -5.26533 -4.5026 0
M  V30 230 N 26.7383 -4.15672 -3.78382 0
M  V30 231 H 18.8893 -2.05929 -0.520281 0
M  V30 232 H 21.1523 -0.901803 -0.292328 0
M  V30 233 H 20.8583 -3.11554 -1.63178 0
M  V30 234 H 20.7323 -2.15567 -3.09533 0
M  V30 235 H 23.1193 -1.26048 -2.66825 0
M  V30 236 H 23.2003 -2.25523 -1.20718 0
M  V30 237 H 22.8443 -4.34195 -2.63509 0
M  V30 238 H 22.7743 -3.31665 -4.09031 0
M  V30 239 H 25.2653 -2.67997 -2.66432 0
M  V30 240 H 25.5783 -5.90337 -4.98721 0
M  V30 241 H 23.9233 -5.30457 -4.49044 0
M  V30 242 H 27.1143 -3.3785 -3.23998 0
M  V30 243 H 27.2873 -4.84825 -4.2994 0
M  V30 244 N 20.6934 1.19889 -1.02296 0
M  V30 245 C 22.1094 1.41462 -0.738954 0
M  V30 246 C 22.3094 1.89721 0.678846 0
M  V30 247 O 21.3654 2.07016 1.4457 0
M  V30 248 C 22.6784 2.43083 -1.77005 0
M  V30 249 C 24.2264 2.5684 -1.78892 0
M  V30 250 C 24.7014 3.61709 -2.80945 0
M  V30 251 N 26.1924 3.69199 -2.79725 0
M  V30 252 C 26.9274 4.50019 -3.55345 0
M  V30 253 N 26.4234 5.34592 -4.40662 0
M  V30 254 N 28.2164 4.44612 -3.43914 0
M  V30 255 H 20.3674 0.868827 -1.93817 0
M  V30 256 H 22.6304 0.44399 -0.837602 0
M  V30 257 H 22.3364 2.14636 -2.78612 0
M  V30 258 H 22.2104 3.4217 -1.58744 0
M  V30 259 H 24.5974 2.84614 -0.779674 0
M  V30 260 H 24.6784 1.57927 -2.01228 0
M  V30 261 H 24.3224 3.34678 -3.82038 0
M  V30 262 H 24.2524 4.60259 -2.5587 0
M  V30 263 H 26.7434 3.08794 -2.17842 0
M  V30 264 H 27.0564 5.93363 -4.95116 0
M  V30 265 H 25.4014 5.34073 -4.44737 0
M  V30 266 H 28.5924 3.7758 -2.76679 0
M  V30 267 H 28.7654 5.0736 -4.031 0
M  V30 268 N 22.1715 0.800033 1.35784 0
M  V30 269 C 23.1015 0.220184 2.3246 0
M  V30 270 C 24.0825 -0.65073 1.57161 0
M  V30 271 O 25.2675 -0.582359 1.85263 0
M  V30 272 C 22.3975 -0.637353 3.41402 0
M  V30 273 C 21.3515 0.134531 4.27789 0
M  V30 274 C 20.6775 -0.844285 5.27992 0
M  V30 275 C 21.9775 1.32979 5.05088 0
M  V30 276 H 23.6715 1.02787 2.81203 0
M  V30 277 H 21.2175 0.495717 1.35199 0
M  V30 278 H 23.1705 -1.05302 4.08031 0
M  V30 279 H 21.8945 -1.47785 2.91251 0
M  V30 280 H 20.5535 0.531296 3.6273 0
M  V30 281 H 20.2015 -1.68011 4.74111 0
M  V30 282 H 19.9015 -0.332184 5.8666 0
M  V30 283 H 21.4255 -1.2583 5.97494 0
M  V30 284 H 22.8395 0.98934 5.64699 0
M  V30 285 H 21.2365 1.77593 5.7322 0
M  V30 286 H 22.3065 2.11978 4.36111 0
M  V30 287 N 23.6496 -1.47581 0.552962 0
M  V30 288 C 25.0656 -1.5818 0.212424 0
M  V30 289 C 25.2656 -1.55213 -1.28496 0
M  V30 290 O 24.3216 -1.45329 -2.06484 0
M  V30 291 C 25.6346 -2.88865 0.835318 0
M  V30 292 C 27.1826 -3.0244 0.806156 0
M  V30 293 C 27.6576 -4.35819 1.40804 0
M  V30 294 N 29.1486 -4.42444 1.37103 0
M  V30 295 C 29.8836 -5.44202 1.80641 0
M  V30 296 N 29.3796 -6.52795 2.32015 0
M  V30 297 N 31.1726 -5.35222 1.71738 0
M  V30 298 H 23.3236 -1.47753 1.52587 0
M  V30 299 H 25.5866 -0.702941 0.636064 0
M  V30 300 H 25.2926 -2.9676 1.88749 0
M  V30 301 H 25.1666 -3.7579 0.325848 0
M  V30 302 H 27.5536 -2.94144 -0.237317 0
M  V30 303 H 27.6346 -2.17068 1.35334 0
M  V30 304 H 27.2786 -4.44871 2.45056 0
M  V30 305 H 27.2086 -5.19916 0.836338 0
M  V30 306 H 29.6996 -3.6456 0.995202 0
M  V30 307 H 30.0126 -7.26609 2.63171 0
M  V30 308 H 28.3576 -6.53696 2.36023 0
M  V30 309 H 31.5486 -4.49284 1.31382 0
M  V30 310 H 31.7216 -6.14389 2.05987 0
M  V30 311 N 25.1277 -0.289203 -1.54924 0
M  V30 312 C 26.5437 0.0645403 -1.59469 0
M  V30 313 C 26.7437 1.53419 -1.30632 0
M  V30 314 O 25.7997 2.2852 -1.074 0
M  V30 315 C 27.1127 -0.32278 -2.98963 0
M  V30 316 C 28.6607 -0.270564 -3.11828 0
M  V30 317 C 29.1357 -0.632532 -4.53611 0
M  V30 318 N 30.6267 -0.584617 -4.59496 0
M  V30 319 C 31.3617 -0.837314 -5.67254 0
M  V30 320 N 30.8577 -1.15536 -6.83098 0
M  V30 321 N 32.6507 -0.765166 -5.56868 0
M  V30 322 H 24.8017 -1.24714 -1.71931 0
M  V30 323 H 27.0647 -0.504809 -0.802416 0
M  V30 324 H 26.7707 -1.34541 -3.24948 0
M  V30 325 H 26.6447 0.32944 -3.75759 0
M  V30 326 H 29.0317 0.742805 -2.85598 0
M  V30 327 H 29.1127 -0.957242 -2.37214 0
M  V30 328 H 28.7567 -1.64365 -4.80569 0
M  V30 329 H 28.6867 0.07609 -5.26545 0
M  V30 330 H 31.1777 -0.349248 -3.76283 0
M  V30 331 H 31.4907 -1.33447 -7.61191 0
M  V30 332 H 29.8357 -1.19328 -6.84679 0
M  V30 333 H 33.0267 -0.516432 -4.65243 0
M  V30 334 H 33.1997 -0.965477 -6.40767 0
M  V30 335 N 26.6058 1.57591 -0.0167156 0
M  V30 336 C 27.8338 1.95575 0.675128 0
M  V30 337 C 28.2488 0.892542 1.6637 0
M  V30 338 O 27.6058 -0.126912 1.82058 0
M  V30 339 C 27.6568 3.33608 1.39239 0
M  V30 340 O 27.3778 4.3585 0.443444 0
M  V30 341 C 28.8788 3.86151 2.17721 0
M  V30 342 H 26.0988 0.644423 0.186978 0
M  V30 343 H 28.6428 2.0437 -0.0728 0
M  V30 344 H 26.7978 3.2607 2.09182 0
M  V30 345 H 27.2118 5.158 0.951358 0
M  V30 346 H 28.6858 4.85114 2.63379 0
M  V30 347 H 29.1628 3.19738 3.01105 0
M  V30 348 H 29.7688 3.96918 1.52761 0
M  V30 349 N 28.0839 -0.256276 1.55502 0
M  V30 350 C 29.0469 -1.30047 1.88734 0
M  V30 351 C 30.0469 -1.4154 0.763086 0
M  V30 352 O 31.2369 -1.40403 1.03115 0
M  V30 353 C 28.3689 -2.67953 2.10747 0
M  V30 354 H 29.5619 -1.01802 2.82093 0
M  V30 355 H 27.1149 -0.495134 1.4825 0
M  V30 356 H 27.8499 -3.01351 1.19825 0
M  V30 357 H 27.6349 -2.60993 2.92617 0
M  V30 358 H 29.1249 -3.43368 2.37673 0
M  V30 359 N 29.562 -1.4872 -0.521534 0
M  V30 360 C 30.525 -1.63379 -1.60748 0
M  V30 361 C 31.525 -0.50661 -1.52611 0
M  V30 362 O 32.715 -0.772601 -1.5613 0
M  V30 363 C 29.847 -1.61192 -3.00383 0
M  V30 364 H 31.04 -2.60217 -1.49087 0
M  V30 365 H 28.593 -1.37444 -0.744235 0
M  V30 366 H 29.328 -0.65863 -3.17541 0
M  V30 367 H 29.113 -2.43032 -3.07698 0
M  V30 368 H 30.603 -1.7466 -3.7932 0
M  V30 369 N 31.0401 0.771051 -1.3745 0
M  V30 370 C 31.9701 1.89827 -1.3597 0
M  V30 371 C 32.9511 1.68562 -0.228216 0
M  V30 372 O 34.1361 1.8941 -0.428675 0
M  V30 373 C 31.2661 3.2712 -1.16662 0
M  V30 374 C 30.2201 3.6295 -2.2683 0
M  V30 375 C 29.5461 4.98791 -1.92644 0
M  V30 376 C 30.8461 3.69627 -3.69017 0
M  V30 377 H 32.5401 1.91323 -2.30295 0
M  V30 378 H 30.0861 0.919082 -1.10855 0
M  V30 379 H 32.0391 4.05615 -1.14256 0
M  V30 380 H 30.7631 3.26059 -0.187926 0
M  V30 381 H 29.4221 2.86763 -2.28392 0
M  V30 382 H 29.0701 4.94271 -0.933021 0
M  V30 383 H 28.7701 5.23733 -2.66416 0
M  V30 384 H 30.2941 5.79685 -1.91826 0
M  V30 385 H 31.7081 4.38273 -3.69581 0
M  V30 386 H 30.1051 4.06067 -4.41848 0
M  V30 387 H 31.1751 2.70273 -4.02592 0
M  V30 388 N 32.5182 1.22032 0.997298 0
M  V30 389 C 33.9342 0.979326 1.26021 0
M  V30 390 C 34.1342 -0.32972 1.98784 0
M  V30 391 O 33.1902 -1.05345 2.29475 0
M  V30 392 C 34.5032 2.17509 2.07631 0
M  V30 393 C 36.0512 2.21817 2.2083 0
M  V30 394 C 36.5262 3.40933 3.05825 0
M  V30 395 N 38.0172 3.41067 3.13412 0
M  V30 396 C 38.7522 4.29885 3.79455 0
M  V30 397 N 38.2482 5.28914 4.47462 0
M  V30 398 N 40.0412 4.17673 3.76173 0
M  V30 399 H 32.1922 2.06202 0.509352 0
M  V30 400 H 34.4552 0.90334 0.287541 0
M  V30 401 H 34.1612 3.12415 1.61524 0
M  V30 402 H 34.0352 2.17206 3.08385 0
M  V30 403 H 36.4222 1.27462 2.66153 0
M  V30 404 H 36.5032 2.2616 1.1952 0
M  V30 405 H 36.1472 4.35586 2.61203 0
M  V30 406 H 36.0772 3.33829 4.07266 0
M  V30 407 H 38.5682 2.69406 2.65007 0
M  V30 408 H 38.8812 5.92973 4.95583 0
M  V30 409 H 37.2262 5.32831 4.46224 0
M  V30 410 H 40.4172 3.39564 3.22202 0
M  V30 411 H 40.5902 4.87098 4.27363 0
M  V30 412 N 33.9963 -1.19345 1.0293 0
M  V30 413 C 34.9443 -2.24621 0.604001 0
M  V30 414 C 35.9383 -1.65452 -0.363587 0
M  V30 415 O 37.1443 -1.78497 -0.23212 0
M  V30 416 H 33.5193 -0.730858 0.177061 0
M  V30 417 H 35.4903 -2.5781 1.50255 0
M  V30 418 C 34.2393 -3.47688 -0.0289127 0
M  V30 419 H 33.5623 -3.93505 0.706651 0
M  V30 420 H 35.0023 -4.23011 -0.289432 0
M  V30 421 C 33.4613 -3.11817 -1.2756 0
M  V30 422 O 33.9913 -3.2451 -2.36762 0
M  V30 423 N 32.1973 -2.66246 -1.16453 0
M  V30 424 H 31.7443 -2.56118 -0.275914 0
M  V30 425 H 31.7023 -2.42617 -1.99961 0
M  V30 426 N 35.4744 -0.807222 -1.35358 0
M  V30 427 C 36.4044 -0.232509 -2.3234 0
M  V30 428 C 37.3854 0.642386 -1.57504 0
M  V30 429 O 38.5704 0.572526 -1.85569 0
M  V30 430 C 35.7004 0.619238 -3.41735 0
M  V30 431 C 34.6544 -0.157215 -4.27711 0
M  V30 432 C 33.9804 0.816273 -5.28433 0
M  V30 433 C 35.2804 -1.35656 -5.04376 0
M  V30 434 H 36.9744 -1.04276 -2.80654 0
M  V30 435 H 34.5204 -0.50288 -1.34934 0
M  V30 436 H 36.4734 1.03137 -4.08584 0
M  V30 437 H 35.1974 1.46239 -2.92031 0
M  V30 438 H 33.8564 -0.550525 -3.62443 0
M  V30 439 H 33.5044 1.65494 -4.74996 0
M  V30 440 H 33.2044 0.301067 -5.86828 0
M  V30 441 H 34.7284 1.22659 -5.98153 0
M  V30 442 H 36.1424 -1.01927 -5.64166 0
M  V30 443 H 34.5394 -1.8063 -5.7227 0
M  V30 444 H 35.6094 -2.14288 -4.34981 0
M  V30 445 N 36.9525 1.47285 -0.560781 0
M  V30 446 C 38.1985 2.02764 -0.0381184 0
M  V30 447 C 38.5315 1.43384 1.30976 0
M  V30 448 O 37.8065 0.590733 1.85312 0
M  V30 449 C 38.0895 3.60064 0.0511427 0
M  V30 450 C 37.9425 4.2987 -1.32408 0
M  V30 451 C 39.2615 4.33439 0.762795 0
M  V30 452 H 36.3805 0.736841 -0.0153264 0
M  V30 453 H 39.0225 1.75675 -0.723759 0
M  V30 454 H 37.1725 3.83274 0.635065 0
M  V30 455 H 38.8445 4.17989 -1.95148 0
M  V30 456 H 37.0875 3.90085 -1.8978 0
M  V30 457 H 37.7585 5.38478 -1.21431 0
M  V30 458 H 40.2345 4.15243 0.266965 0
M  V30 459 H 39.1105 5.43124 0.794221 0
M  V30 460 H 39.3715 4.02915 1.81966 0
M  V30 461 N 38.4306 0.297415 1.54768 0
M  V30 462 C 39.3626 -0.613881 2.20826 0
M  V30 463 C 40.3756 -1.10032 1.19987 0
M  V30 464 O 41.5646 -1.01839 1.46598 0
M  V30 465 C 38.6646 -1.852 2.83821 0
M  V30 466 C 37.8376 -1.50865 4.10559 0
M  V30 467 C 36.8966 -2.60154 4.57391 0
M  V30 468 O 35.9226 -2.25398 5.2267 0
M  V30 469 N 37.1246 -3.90629 4.29406 0
M  V30 470 H 39.8896 -0.048389 2.99661 0
M  V30 471 H 37.4506 0.11946 1.61459 0
M  V30 472 H 39.4426 -2.57652 3.12086 0
M  V30 473 H 38.0126 -2.32597 2.08847 0
M  V30 474 H 37.2326 -0.616925 3.89343 0
M  V30 475 H 38.5206 -1.25458 4.9309 0
M  V30 476 H 37.9186 -4.21677 3.77101 0
M  V30 477 H 36.4756 -4.59391 4.62388 0
M  V30 478 N 39.9087 -1.5758 0.0250728 0
M  V30 479 C 40.8187 -2.1343 -0.973905 0
M  V30 480 C 41.8347 -1.08556 -1.35984 0
M  V30 481 O 43.0107 -1.40592 -1.44207 0
M  V30 482 C 40.0757 -2.64703 -2.23904 0
M  V30 483 C 39.1367 -3.84276 -1.91391 0
M  V30 484 C 38.3697 -4.33095 -3.11873 0
M  V30 485 O 38.5927 -3.81107 -4.24398 0
M  V30 486 O 37.5267 -5.24984 -2.94406 0
M  V30 487 H 41.3527 -2.99057 -0.529036 0
M  V30 488 H 38.9377 -1.48118 -0.195288 0
M  V30 489 H 40.8197 -2.97769 -2.98181 0
M  V30 490 H 39.4947 -1.82161 -2.6758 0
M  V30 491 H 38.4017 -3.56143 -1.14511 0
M  V30 492 H 39.7347 -4.67968 -1.52534 0
M  V30 493 N 41.3868 0.248026 -1.55636 0
M  V30 494 C 42.3348 1.32683 -1.91045 0
M  V30 495 C 43.3288 1.49883 -0.789401 0
M  V30 496 O 44.5348 1.51371 -0.974007 0
M  V30 497 H 40.9098 0.444272 -0.606734 0
M  V30 498 H 42.8808 1.00085 -2.81115 0
M  V30 499 C 41.6298 2.6755 -2.22064 0
M  V30 500 H 40.9528 2.55114 -3.07826 0
M  V30 501 H 42.3928 3.41912 -2.50743 0
M  V30 502 C 40.8518 3.20556 -1.0366 0
M  V30 503 O 41.3818 4.00695 -0.284016 0
M  V30 504 N 39.5878 2.78568 -0.82753 0
M  V30 505 H 39.1348 2.1351 -1.44123 0
M  V30 506 H 39.0928 3.14378 -0.0369803 0
M  V30 507 N 42.8649 1.48995 0.513639 0
M  V30 508 C 44.0929 1.61531 1.29288 0
M  V30 509 C 44.5079 0.281801 1.86685 0
M  V30 510 O 43.8649 -0.731111 1.67215 0
M  V30 511 C 43.9159 2.67449 2.43215 0
M  V30 512 O 43.6369 3.95626 1.88179 0
M  V30 513 C 45.1379 2.90575 3.34785 0
M  V30 514 H 42.3579 0.544165 0.392588 0
M  V30 515 H 44.9019 1.9494 0.617956 0
M  V30 516 H 43.0569 2.36853 3.0656 0
M  V30 517 H 43.4709 4.53868 2.62876 0
M  V30 518 H 44.9449 3.68449 4.11035 0
M  V30 519 H 45.4219 2.00011 3.91015 0
M  V30 520 H 46.0279 3.22538 2.77218 0
M  V30 521 N 44.343 -0.763751 1.37857 0
M  V30 522 C 45.273 -1.89103 1.36975 0
M  V30 523 C 46.254 -1.68439 0.237152 0
M  V30 524 O 47.439 -1.8918 0.438713 0
M  V30 525 C 44.569 -3.26496 1.18395 0
M  V30 526 C 43.523 -3.61741 2.28751 0
M  V30 527 C 42.849 -4.97762 1.95286 0
M  V30 528 C 44.149 -3.67665 3.70972 0
M  V30 529 H 45.843 -1.90099 2.31307 0
M  V30 530 H 43.389 -0.91319 1.11341 0
M  V30 531 H 45.342 -4.05003 1.16406 0
M  V30 532 H 44.066 -3.25955 0.205215 0
M  V30 533 H 42.725 -2.85547 2.29909 0
M  V30 534 H 42.373 -4.93769 0.959221 0
M  V30 535 H 42.073 -5.22313 2.69189 0
M  V30 536 H 43.597 -5.7866 1.94898 0
M  V30 537 H 45.011 -4.36307 3.719 0
M  V30 538 H 43.408 -4.03718 4.43995 0
M  V30 539 H 44.478 -2.68134 4.0402 0
M  V30 540 N 45.8211 -1.22559 -0.990812 0
M  V30 541 C 47.0491 -1.07779 -1.76611 0
M  V30 542 C 47.4641 0.371513 -1.85109 0
M  V30 543 O 46.8211 1.25737 -1.32274 0
M  V30 544 C 46.8721 -1.68512 -3.19822 0
M  V30 545 O 46.5931 -3.07774 -3.1178 0
M  V30 546 C 48.0941 -1.59035 -4.13791 0
M  V30 547 H 45.3141 -0.377729 -0.554583 0
M  V30 548 H 47.8581 -1.62195 -1.24551 0
M  V30 549 H 46.0131 -1.18154 -3.68942 0
M  V30 550 H 46.4271 -3.37062 -4.01858 0
M  V30 551 H 47.9011 -2.0625 -5.1202 0
M  V30 552 H 48.3781 -0.547273 -4.35777 0
M  V30 553 H 48.9841 -2.08709 -3.70568 0
M  V30 554 N 47.2992 1.18797 -1.03562 0
M  V30 555 C 48.5452 1.8893 -0.737113 0
M  V30 556 C 48.8782 1.79837 0.732956 0
M  V30 557 O 48.1532 1.19525 1.5344 0
M  V30 558 C 48.4362 3.39607 -1.19745 0
M  V30 559 C 48.2892 3.57537 -2.72924 0
M  V30 560 C 49.6082 4.33069 -0.783526 0
M  V30 561 H 46.7272 0.686057 -0.269249 0
M  V30 562 H 49.3692 1.39797 -1.28673 0
M  V30 563 H 47.5192 3.81583 -0.729855 0
M  V30 564 H 49.1912 3.24688 -3.27682 0
M  V30 565 H 47.4342 3.00363 -3.12993 0
M  V30 566 H 48.1052 4.63238 -3.00191 0
M  V30 567 H 50.5812 3.98846 -1.18581 0
M  V30 568 H 49.4572 5.3707 -1.13343 0
M  V30 569 H 49.7182 4.40986 0.313681 0
M  V30 570 N 48.7773 0.814389 1.34928 0
M  V30 571 C 49.7253 0.218424 2.31572 0
M  V30 572 C 50.7193 -0.636128 1.57002 0
M  V30 573 O 51.9253 -0.52842 1.72069 0
M  V30 574 H 48.3003 0.0518799 0.750208 0
M  V30 575 H 50.2713 1.04852 2.79372 0
M  V30 576 C 49.0203 -0.61207 3.4227 0
M  V30 577 H 48.3433 0.0361578 3.99784 0
M  V30 578 H 49.7833 -0.995317 4.12152 0
M  V30 579 C 48.2423 -1.78087 2.85984 0
M  V30 580 O 48.7723 -2.8787 2.80168 0
M  V30 581 N 46.9783 -1.59488 2.42924 0
M  V30 582 H 46.5253 -0.701874 2.47854 0
M  V30 583 H 46.4833 -2.37846 2.05613 0
M  V30 584 N 50.2554 -1.46986 0.568584 0
M  V30 585 C 51.5324 -1.95592 -0.0174074 0
M  V30 586 C 51.9124 -1.51124 -1.47393 0
M  V30 587 O 51.2604 -0.755329 -2.15655 0
M  V30 588 C 51.4704 -3.48719 0.139913 0
M  V30 589 C 52.8184 -4.246 0.000426376 0
M  V30 590 O 53.8424 -3.56135 0.0680316 0
M  V30 591 O 52.7014 -5.46302 -0.146988 0
M  V30 592 H 49.7954 -0.82498 -0.0577599 0
M  V30 593 H 52.3414 -1.57335 0.635909 0
M  V30 594 H 51.1134 -3.73927 1.15301 0
M  V30 595 H 50.7364 -3.93771 -0.550491 0
M  V30 596 N 51.7335 -0.305618 -1.54608 0
M  V30 597 C 52.6635 0.561482 -2.26649 0
M  V30 598 C 53.6445 1.13415 -1.26772 0
M  V30 599 O 54.8295 1.16262 -1.55553 0
M  V30 600 C 51.9595 1.73122 -3.01075 0
M  V30 601 C 50.9135 1.2887 -4.08138 0
M  V30 602 C 50.2395 2.54396 -4.70305 0
M  V30 603 C 51.5395 0.416578 -5.20636 0
M  V30 604 H 53.2335 -0.0393902 -2.99374 0
M  V30 605 H 50.7795 -0.020385 -1.43986 0
M  V30 606 H 52.7325 2.34396 -3.50195 0
M  V30 607 H 51.4565 2.3584 -2.25936 0
M  V30 608 H 50.1155 0.698991 -3.59875 0
M  V30 609 H 49.7635 3.15439 -3.918 0
M  V30 610 H 49.4635 2.25486 -5.42614 0
M  V30 611 H 50.9875 3.16464 -5.2219 0
M  V30 612 H 52.4015 0.935116 -5.65622 0
M  V30 613 H 50.7985 0.221046 -5.99693 0
M  V30 614 H 51.8685 -0.557162 -4.81688 0
M  V30 615 N 53.2116 1.57565 -0.0334293 0
M  V30 616 C 54.4576 1.92262 0.645226 0
M  V30 617 C 54.7906 0.910543 1.71531 0
M  V30 618 O 54.0656 -0.066099 1.94388 0
M  V30 619 C 54.3486 3.37422 1.2577 0
M  V30 620 C 54.2016 4.49369 0.196891 0
M  V30 621 C 55.5206 3.82628 2.17449 0
M  V30 622 H 52.6396 0.699171 0.233085 0
M  V30 623 H 55.2816 1.89779 -0.0915694 0
M  V30 624 H 53.4316 3.39669 1.88566 0
M  V30 625 H 55.1036 4.59254 -0.433962 0
M  V30 626 H 53.3466 4.31168 -0.477137 0
M  V30 627 H 54.0176 5.47978 0.665124 0
M  V30 628 H 56.4936 3.82145 1.64634 0
M  V30 629 H 55.3696 4.84883 2.57254 0
M  V30 630 H 55.6306 3.18376 3.0674 0
M  V30 631 N 54.6897 -0.239769 1.55765 0
M  V30 632 C 55.9367 -0.966801 1.7793 0
M  V30 633 C 56.2647 -1.85046 0.599015 0
M  V30 634 O 55.5197 -1.91197 -0.417395 0
M  V30 635 C 55.8187 -1.852 3.05672 0
M  V30 636 C 55.4847 -1.1231 4.36689 0
M  V30 637 C 54.1467 -0.921689 4.72291 0
M  V30 638 C 56.4987 -0.607019 5.17653 0
M  V30 639 C 53.8267 -0.191996 5.86386 0
M  V30 640 C 56.1787 0.109241 6.32506 0
M  V30 641 C 54.8427 0.322073 6.66723 0
M  V30 642 H 54.1127 -0.353778 0.651093 0
M  V30 643 H 56.7597 -0.23634 1.90036 0
M  V30 644 H 55.0647 -2.64975 2.8861 0
M  V30 645 H 56.7617 -2.41635 3.20021 0
M  V30 646 H 53.3517 -1.29004 4.08725 0
M  V30 647 H 57.5357 -0.750153 4.90598 0
M  V30 648 H 52.7917 -0.0166949 6.11398 0
M  V30 649 H 56.9657 0.516737 6.9448 0
M  V30 650 H 54.5927 0.88944 7.54979 0
M  V30 651 N 56.1678 -1.49265 -0.50573 0
M  V30 652 C 57.5788 -1.51769 -1.08734 0
M  V30 653 C 57.9298 -0.301192 -1.93874 0
M  V30 654 O 57.0548 0.589456 -2.08217 0
M  V30 655 C 57.6498 -2.75017 -1.97867 0
M  V30 656 C 56.2088 -2.80314 -2.51199 0
M  V30 657 C 55.3558 -2.4562 -1.28709 0
M  V30 658 H 58.3068 -1.56031 -0.289855 0
M  V30 659 H 58.3278 -2.5491 -2.82491 0
M  V30 660 H 57.8398 -3.63539 -1.35873 0
M  V30 661 H 55.9408 -1.96061 -3.16845 0
M  V30 662 H 56.0538 -3.82366 -2.88675 0
M  V30 663 H 54.4178 -1.97297 -1.61078 0
M  V30 664 H 55.2008 -3.36411 -0.6843 0
M  V30 665 N 57.6459 0.756429 -1.3826 0
M  V30 666 C 58.5759 1.88374 -1.37976 0
M  V30 667 C 59.5569 1.68311 -0.246082 0
M  V30 668 O 60.7419 1.88944 -0.44874 0
M  V30 669 C 57.8719 3.25864 -1.20125 0
M  V30 670 C 56.8259 3.60523 -2.30666 0
M  V30 671 C 56.1519 4.9672 -1.97923 0
M  V30 672 C 57.4519 3.65692 -3.72916 0
M  V30 673 H 59.1459 1.88869 -2.32312 0
M  V30 674 H 56.6919 0.907272 -1.11824 0
M  V30 675 H 58.6449 4.0438 -1.18552 0
M  V30 676 H 57.3689 3.25841 -0.222498 0
M  V30 677 H 56.0279 2.84324 -2.3142 0
M  V30 678 H 55.6759 4.93253 -0.985393 0
M  V30 679 H 55.3759 5.20878 -2.71955 0
M  V30 680 H 56.8999 5.77618 -1.97964 0
M  V30 681 H 58.3139 4.34328 -3.74208 0
M  V30 682 H 56.7109 4.01358 -4.4613 0
M  V30 683 H 57.7809 2.65987 -4.05436 0
M  V30 684 N 59.124 1.23083 0.984299 0
M  V30 685 C 60.371 1.06057 1.72505 0
M  V30 686 C 60.699 -0.403105 1.90277 0
M  V30 687 O 59.954 -1.3149 1.44944 0
M  V30 688 C 60.253 1.72673 3.1292 0
M  V30 689 C 59.919 3.22586 3.15038 0
M  V30 690 C 58.581 3.63489 3.15324 0
M  V30 691 C 60.933 4.185 3.10657 0
M  V30 692 C 58.261 4.98772 3.08939 0
M  V30 693 C 60.613 5.53769 3.05814 0
M  V30 694 C 59.277 5.94041 3.04419 0
M  V30 695 H 58.547 0.388091 0.631242 0
M  V30 696 H 61.194 1.52963 1.15215 0
M  V30 697 H 59.499 1.18116 3.73572 0
M  V30 698 H 61.196 1.56982 3.68996 0
M  V30 699 H 57.786 2.90022 3.15571 0
M  V30 700 H 61.97 3.87911 3.09579 0
M  V30 701 H 57.226 5.29193 3.0621 0
M  V30 702 H 61.4 6.27808 3.0138 0
M  V30 703 H 59.027 6.98833 2.99227 0
M  V30 704 N 60.6021 -1.18246 1.0419 0
M  V30 705 C 61.8481 -1.88536 0.747122 0
M  V30 706 C 62.1811 -1.80223 -0.723409 0
M  V30 707 O 61.4561 -1.20337 -1.52804 0
M  V30 708 C 61.7391 -3.38968 1.21544 0
M  V30 709 C 61.5921 -3.56084 2.74816 0
M  V30 710 C 62.9111 -4.32648 0.806482 0
M  V30 711 H 60.0301 -0.684619 0.272883 0
M  V30 712 H 62.6721 -1.39113 1.29413 0
M  V30 713 H 60.8221 -3.8119 0.750081 0
M  V30 714 H 62.4941 -3.22946 3.29399 0
M  V30 715 H 60.7371 -2.98699 3.14582 0
M  V30 716 H 61.4081 -4.61639 3.02644 0
M  V30 717 H 63.8841 -3.98211 1.20695 0
M  V30 718 H 62.7601 -5.36462 1.1619 0
M  V30 719 H 63.0211 -4.41146 -0.29029 0
M  V30 720 N 62.0802 -0.821533 -1.34494 0
M  V30 721 C 63.0132 -0.187704 -2.27427 0
M  V30 722 C 63.9912 0.65507 -1.48821 0
M  V30 723 O 65.1752 0.619111 -1.78043 0
M  V30 724 C 62.3022 0.737996 -3.30562 0
M  V30 725 C 61.3482 -0.0270713 -4.26491 0
M  V30 726 S 62.1812 -1.37329 -5.17592 0
M  V30 727 C 63.3372 -0.452427 -6.24263 0
M  V30 728 H 63.5702 -0.975598 -2.80837 0
M  V30 729 H 61.1032 -0.61736 -1.4152 0
M  V30 730 H 63.0612 1.26654 -3.90473 0
M  V30 731 H 61.7222 1.4994 -2.76001 0
M  V30 732 H 60.9152 0.6766 -4.99438 0
M  V30 733 H 60.5172 -0.48612 -3.70827 0
M  V30 734 H 62.8092 0.356557 -6.76561 0
M  V30 735 H 63.7522 -1.15153 -6.98674 0
M  V30 736 H 64.1602 -0.0414755 -5.64485 0
M  V30 737 N 63.5583 1.46682 -0.576371 0
M  V30 738 C 64.9693 1.86112 -0.148091 0
M  V30 739 C 65.3203 1.48073 1.2872 0
M  V30 740 O 64.4453 0.892656 1.97131 0
M  V30 741 C 65.0403 3.37786 -0.261982 0
M  V30 742 C 63.5993 3.76235 0.111384 0
M  V30 743 C 62.7463 2.70713 -0.60083 0
M  V30 744 H 65.6973 1.37927 -0.78497 0
M  V30 745 H 65.7183 3.77007 0.514364 0
M  V30 746 H 65.2303 3.6544 -1.30671 0
M  V30 747 H 63.3313 3.54198 1.15649 0
M  V30 748 H 63.4443 4.78391 -0.26052 0
M  V30 749 H 61.8083 2.54666 -0.0417783 0
M  V30 750 H 62.5913 3.01208 -1.64708 0
M  V30 751 N 65.0364 0.313813 1.54444 0
M  V30 752 C 66.2844 -0.291099 1.99993 0
M  V30 753 C 66.6054 -1.53418 1.20366 0
M  V30 754 O 65.8754 -1.93544 0.302927 0
M  V30 755 H 64.4554 -0.110552 0.738774 0
M  V30 756 H 67.1174 0.428106 1.9014 0
M  V30 757 H 66.2134 -0.554268 3.07139 0
M  V30 758 N 66.5145 -1.57545 0.0417849 0
M  V30 759 C 67.7425 -1.96624 -0.643928 0
M  V30 760 C 68.1575 -0.918897 -1.64929 0
M  V30 761 O 67.5145 0.0979323 -1.82237 0
M  V30 762 C 67.5655 -3.35781 -1.33914 0
M  V30 763 O 67.2865 -4.365 -0.374048 0
M  V30 764 C 68.7875 -3.89566 -2.1155 0
M  V30 765 H 66.0075 -0.647316 -0.176702 0
M  V30 766 H 68.5515 -2.04229 0.105304 0
M  V30 767 H 66.7065 -3.29357 -2.03968 0
M  V30 768 H 67.1205 -5.17248 -0.869179 0
M  V30 769 H 68.5945 -4.89242 -2.55628 0
M  V30 770 H 69.0715 -3.24488 -2.9598 0
M  V30 771 H 69.6775 -3.99298 -1.46427 0
M  V30 772 N 67.9926 0.231505 -1.5589 0
M  V30 773 C 68.9406 1.30649 -1.92441 0
M  V30 774 C 69.9346 1.49037 -0.805254 0
M  V30 775 O 71.1406 1.50329 -0.990007 0
M  V30 776 H 67.5156 0.437812 -0.611412 0
M  V30 777 H 69.4866 0.970973 -2.82161 0
M  V30 778 C 68.2356 2.65179 -2.24889 0
M  V30 779 H 67.5586 2.51835 -3.10514 0
M  V30 780 H 68.9986 3.39234 -2.54355 0
M  V30 781 C 67.4576 3.19439 -1.07054 0
M  V30 782 O 67.9876 4.00371 -0.326499 0
M  V30 783 N 66.1936 2.77675 -0.85703 0
M  V30 784 H 65.7406 2.11969 -1.46379 0
M  V30 785 H 65.6986 3.14321 -0.0703223 0
M  V30 786 N 69.4707 1.49531 0.497807 0
M  V30 787 C 70.4337 1.65916 1.58128 0
M  V30 788 C 71.4337 0.530825 1.51786 0
M  V30 789 O 72.6237 0.797342 1.54881 0
M  V30 790 C 69.7557 1.65951 2.9778 0
M  V30 791 H 70.9487 2.62556 1.44929 0
M  V30 792 H 68.5017 1.38611 0.722275 0
M  V30 793 H 69.2367 0.709065 3.16453 0
M  V30 794 H 69.0217 2.47897 3.03792 0
M  V30 795 H 70.5117 1.80673 3.76493 0
M  V30 796 N 70.9488 -0.749086 1.3866 0
M  V30 797 C 72.1948 -1.51056 1.35314 0
M  V30 798 C 72.5278 -1.94121 -0.0553751 0
M  V30 799 O 71.8028 -1.65763 -1.01749 0
M  V30 800 C 72.0858 -2.76003 2.31288 0
M  V30 801 C 71.9388 -2.39047 3.8102 0
M  V30 802 C 73.2578 -3.78046 2.2532 0
M  V30 803 H 70.3768 -0.547972 0.492844 0
M  V30 804 H 73.0188 -0.857628 1.69543 0
M  V30 805 H 71.1688 -3.31716 2.02229 0
M  V30 806 H 72.8408 -1.89074 4.20771 0
M  V30 807 H 71.0838 -1.71449 3.98482 0
M  V30 808 H 71.7548 -3.28462 4.4364 0
M  V30 809 H 74.2308 -3.31884 2.50983 0
M  V30 810 H 73.1068 -4.63159 2.94576 0
M  V30 811 H 73.3678 -4.23957 1.25352 0
M  V30 812 N 72.4269 -1.23603 -0.977757 0
M  V30 813 C 73.3369 -1.03632 -2.1047 0
M  V30 814 C 74.3529 0.0199435 -1.73989 0
M  V30 815 O 75.5289 -0.176076 -2.00629 0
M  V30 816 C 72.5939 -0.63276 -3.40877 0
M  V30 817 C 71.6549 -1.76437 -3.91367 0
M  V30 818 C 70.8879 -1.37997 -5.15551 0
M  V30 819 O 71.1109 -0.265357 -5.69782 0
M  V30 820 O 70.0449 -2.20201 -5.60174 0
M  V30 821 H 73.8709 -1.98086 -2.30208 0
M  V30 822 H 71.4559 -1.02332 -1.08851 0
M  V30 823 H 73.3379 -0.418761 -4.19314 0
M  V30 824 H 72.0129 0.282754 -3.22463 0
M  V30 825 H 70.9199 -2.03304 -3.14036 0
M  V30 826 H 72.2529 -2.6583 -4.14241 0
M  V30 827 N 73.905 1.17692 -1.04816 0
M  V30 828 C 74.815 2.25229 -0.65643 0
M  V30 829 C 75.831 1.71018 0.320761 0
M  V30 830 O 77.007 2.00649 0.173805 0
M  V30 831 C 74.072 3.46684 -0.0332629 0
M  V30 832 C 73.133 4.15997 -1.06042 0
M  V30 833 C 72.366 5.31654 -0.466893 0
M  V30 834 O 72.589 5.65777 0.724758 0
M  V30 835 O 71.523 5.89831 -1.1993 0
M  V30 836 H 75.349 2.61016 -1.55255 0
M  V30 837 H 72.934 1.24919 -0.81949 0
M  V30 838 H 74.816 4.20234 0.313256 0
M  V30 839 H 73.491 3.12703 0.836566 0
M  V30 840 H 72.398 3.44482 -1.45886 0
M  V30 841 H 73.731 4.53996 -1.90127 0
M  V30 842 N 75.3831 0.828654 1.34056 0
M  V30 843 C 76.6291 0.42008 1.98402 0
M  V30 844 C 76.9621 -1.01564 1.65525 0
M  V30 845 O 76.2371 -1.70834 0.929831 0
M  V30 846 C 76.5201 0.62927 3.54559 0
M  V30 847 C 76.3731 2.11152 3.97159 0
M  V30 848 C 77.6921 0.0688756 4.40046 0
M  V30 849 H 74.8111 0.154104 0.720709 0
M  V30 850 H 77.4531 1.04228 1.5886 0
M  V30 851 H 75.6031 0.0996418 3.88372 0
M  V30 852 H 77.2751 2.70522 3.73651 0
M  V30 853 H 75.5181 2.59985 3.47261 0
M  V30 854 H 76.1891 2.20868 5.05887 0
M  V30 855 H 78.6651 0.521458 4.1282 0
M  V30 856 H 77.5411 0.245006 5.48353 0
M  V30 857 H 77.8021 -1.0266 4.30015 0
M  V30 858 N 76.8612 -1.46375 0.584142 0
M  V30 859 C 78.0862 -2.07268 0.0740405 0
M  V30 860 C 78.5112 -1.42979 -1.22223 0
M  V30 861 O 77.8692 -0.514092 -1.73859 0
M  V30 862 C 77.9172 -3.60518 -0.0767769 0
M  V30 863 O 77.0212 -3.96533 -1.13292 0
M  V30 864 H 76.3622 -0.660961 0.0634524 0
M  V30 865 H 78.8922 -1.87991 0.807492 0
M  V30 866 H 78.9022 -4.07021 -0.282489 0
M  V30 867 H 77.5772 -4.06702 0.86986 0
M  V30 868 H 76.1542 -3.61738 -0.905553 0
M  V30 869 N 78.3393 -0.321999 -1.54275 0
M  V30 870 C 79.5643 0.285791 -2.05422 0
M  V30 871 C 79.9893 1.45124 -1.19669 0
M  V30 872 O 79.3473 1.80132 -0.205441 0
M  V30 873 C 79.3953 0.69956 -3.53749 0
M  V30 874 O 78.4993 1.8021 -3.70942 0
M  V30 875 H 77.8403 0.0518962 -0.661969 0
M  V30 876 H 80.3703 -0.469954 -1.9913 0
M  V30 877 H 80.3803 0.982649 -3.9599 0
M  V30 878 H 79.0553 -0.152864 -4.15619 0
M  V30 879 H 77.6323 1.51794 -3.40607 0
M  V30 880 N 79.8174 1.5752 -0.0501392 0
M  V30 881 C 80.7504 2.07026 0.959962 0
M  V30 882 C 81.7284 0.970539 1.30458 0
M  V30 883 O 82.9124 1.2424 1.41763 0
M  V30 884 C 80.0394 2.5099 2.27424 0
M  V30 885 C 79.0854 3.72188 2.08275 0
M  V30 886 S 79.9184 5.17888 1.36207 0
M  V30 887 C 81.0744 5.65165 2.6896 0
M  V30 888 H 81.3074 2.9238 0.538631 0
M  V30 889 H 78.8404 1.53547 0.162099 0
M  V30 890 H 80.7984 2.76982 3.02971 0
M  V30 891 H 79.4594 1.65944 2.66686 0
M  V30 892 H 78.6524 4.00866 3.05487 0
M  V30 893 H 78.2544 3.46457 1.40868 0
M  V30 894 H 80.5464 5.70687 3.65133 0
M  V30 895 H 81.4894 6.64394 2.4492 0
M  V30 896 H 81.8974 4.9289 2.75172 0
M  V30 897 N 81.2955 -0.223234 1.56011 0
M  V30 898 C 82.7065 -0.790368 1.69145 0
M  V30 899 C 83.0575 -1.85055 0.651845 0
M  V30 900 O 82.1825 -2.15498 -0.197359 0
M  V30 901 C 82.7775 -1.4404 3.06656 0
M  V30 902 C 81.3365 -1.95494 3.2165 0
M  V30 903 C 80.4835 -0.814506 2.65068 0
M  V30 904 H 83.4345 0.00139011 1.587 0
M  V30 905 H 83.4555 -2.30916 3.0242 0
M  V30 906 H 82.9675 -0.668543 3.82298 0
M  V30 907 H 81.0685 -2.75487 2.50874 0
M  V30 908 H 81.1815 -2.13607 4.28846 0
M  V30 909 H 79.5455 -1.22137 2.23505 0
M  V30 910 H 80.3285 -0.0553515 3.43255 0
M  V30 911 N 82.7736 -1.49793 -0.48987 0
M  V30 912 C 84.0216 -1.59525 -1.24081 0
M  V30 913 C 84.3426 -0.288953 -1.92847 0
M  V30 914 O 83.6126 0.692436 -1.83254 0
M  V30 915 H 82.1926 -0.587796 -0.460983 0
M  V30 916 H 84.8546 -1.86477 -0.566778 0
M  V30 917 H 83.9506 -2.39696 -1.99881 0
M  V30 918 N 84.2517 0.741722 -1.39055 0
M  V30 919 C 85.4767 1.53607 -1.39354 0
M  V30 920 C 85.9017 1.88096 0.0116905 0
M  V30 921 O 85.2597 1.5143 0.996924 0
M  V30 922 C 85.3077 2.80441 -2.26682 0
M  V30 923 O 84.4117 3.76088 -1.69208 0
M  V30 924 H 83.7527 0.464142 -0.474835 0
M  V30 925 H 86.2827 0.915665 -1.82967 0
M  V30 926 H 86.2927 3.29246 -2.40959 0
M  V30 927 H 84.9677 2.5467 -3.2881 0
M  V30 928 H 83.5447 3.34833 -1.64138 0
M  V30 929 N 85.7298 1.2412 0.971189 0
M  V30 930 C 86.9768 1.07881 1.71371 0
M  V30 931 C 87.3048 -0.382901 1.90694 0
M  V30 932 O 86.5598 -1.29945 1.46331 0
M  V30 933 C 86.8588 1.75983 3.11071 0
M  V30 934 C 86.5248 3.25909 3.11599 0
M  V30 935 C 85.1868 3.66813 3.11451 0
M  V30 936 C 87.5388 4.21771 3.062 0
M  V30 937 C 84.8668 5.02021 3.03631 0
M  V30 938 C 87.2188 5.56982 2.99923 0
M  V30 939 C 85.8828 5.97237 2.98102 0
M  V30 940 H 85.1528 0.394764 0.62709 0
M  V30 941 H 87.7998 1.54176 1.13587 0
M  V30 942 H 86.1048 1.22072 3.72298 0
M  V30 943 H 87.8018 1.60887 3.6731 0
M  V30 944 H 84.3918 2.93353 3.12477 0
M  V30 945 H 88.5758 3.91172 3.05447 0
M  V30 946 H 83.8318 5.32411 3.0058 0
M  V30 947 H 88.0058 6.30969 2.94704 0
M  V30 948 H 85.6328 7.01967 2.91798 0
M  V30 949 N 87.2079 -1.17134 1.05439 0
M  V30 950 C 88.6239 -1.39454 0.776201 0
M  V30 951 C 88.8239 -1.91454 -0.628307 0
M  V30 952 O 87.8799 -2.10777 -1.39031 0
M  V30 953 C 89.1929 -2.38305 1.83388 0
M  V30 954 C 90.7409 -2.52006 1.85639 0
M  V30 955 C 91.2159 -3.54133 2.90437 0
M  V30 956 N 92.7069 -3.61653 2.89415 0
M  V30 957 C 93.4419 -4.4044 3.67152 0
M  V30 958 N 92.9379 -5.22721 4.54681 0
M  V30 959 N 94.7309 -4.35337 3.55581 0
M  V30 960 H 86.8819 -0.817134 1.96053 0
M  V30 961 H 89.1449 -0.421626 0.849079 0
M  V30 962 H 88.8509 -2.07173 2.84204 0
M  V30 963 H 88.7249 -3.37841 1.67761 0
M  V30 964 H 91.1119 -2.82447 0.85486 0
M  V30 965 H 91.1929 -1.52537 2.05344 0
M  V30 966 H 90.8369 -3.24431 3.90777 0
M  V30 967 H 90.7669 -4.53313 2.67983 0
M  V30 968 H 93.2579 -3.02909 2.25952 0
M  V30 969 H 93.5709 -5.80027 5.10674 0
M  V30 970 H 91.9159 -5.22093 4.58741 0
M  V30 971 H 95.1069 -3.70112 2.86592 0
M  V30 972 H 95.2799 -4.96494 4.1641 0
M  V30 973 N 88.686 -0.835752 -1.33615 0
M  V30 974 C 89.933 -0.429959 -1.97883 0
M  V30 975 C 90.261 1.01006 -1.66217 0
M  V30 976 O 89.516 1.72047 -0.93265 0
M  V30 977 C 89.815 -0.593925 -3.52431 0
M  V30 978 C 89.481 -2.00158 -4.04039 0
M  V30 979 C 88.143 -2.38662 -4.17844 0
M  V30 980 C 90.495 -2.92117 -4.31644 0
M  V30 981 C 87.823 -3.68435 -4.56588 0
M  V30 982 C 90.175 -4.21368 -4.71838 0
M  V30 983 C 88.839 -4.59833 -4.83849 0
M  V30 984 H 88.109 -0.157333 -0.724104 0
M  V30 985 H 90.756 -1.06217 -1.59343 0
M  V30 986 H 89.061 0.121619 -3.91611 0
M  V30 987 H 90.758 -0.260282 -4.00154 0
M  V30 988 H 87.348 -1.69252 -3.93766 0
M  V30 989 H 91.532 -2.63608 -4.20505 0
M  V30 990 H 86.788 -3.98046 -4.64079 0
M  V30 991 H 90.962 -4.92703 -4.92155 0
M  V30 992 H 88.589 -5.60438 -5.13627 0
M  V30 993 N 90.1641 1.46063 -0.591896 0
M  V30 994 C 91.3921 2.06717 -0.0868936 0
M  V30 995 C 91.8071 1.43916 1.22203 0
M  V30 996 O 91.1641 0.547698 1.74088 0
M  V30 997 C 91.2151 3.6142 0.0758725 0
M  V30 998 O 90.9361 4.21874 -1.18126 0
M  V30 999 C 92.4371 4.39025 0.61416 0
M  V30 1000 H 89.6571 0.668162 -0.0616518 0
M  V30 1001 H 92.2011 1.8755 -0.815175 0
M  V30 1002 H 90.3561 3.79983 0.754413 0
M  V30 1003 H 90.7701 5.14861 -1.00092 0
M  V30 1004 H 92.2441 5.4783 0.677193 0
M  V30 1005 H 92.7211 4.07708 1.63312 0
M  V30 1006 H 93.3271 4.2529 -0.0298142 0
M  V30 1007 N 91.6422 0.330177 1.54103 0
M  V30 1008 C 92.8912 -0.271336 1.99867 0
M  V30 1009 C 93.2042 -1.52723 1.22209 0
M  V30 1010 O 94.4102 -2.20515 1.58383 0
M  V30 1011 C 92.8662 -0.534032 3.55916 0
M  V30 1012 C 92.4742 0.705193 4.42415 0
M  V30 1013 C 94.2182 -1.09514 4.1013 0
M  V30 1014 C 92.1252 0.414035 5.89949 0
M  V30 1015 H 91.0552 -0.105166 0.74663 0
M  V30 1016 H 93.7062 0.443429 1.78062 0
M  V30 1017 H 92.0882 -1.30915 3.73734 0
M  V30 1018 H 93.2622 1.4804 4.36372 0
M  V30 1019 H 91.5772 1.18698 3.99124 0
M  V30 1020 H 94.1742 -1.3277 5.17954 0
M  V30 1021 H 94.5172 -2.04656 3.62521 0
M  V30 1022 H 95.0502 -0.381038 3.95971 0
M  V30 1023 H 91.7892 1.33481 6.41766 0
M  V30 1024 H 91.3092 -0.323336 5.98928 0
M  V30 1025 H 92.9882 0.0263105 6.46995 0
M  V30 1026 N 93.1203 -1.57491 0.0584922 0
M  V30 1027 C 94.3973 -1.84346 -0.653918 0
M  V30 1028 C 94.7773 -0.948355 -1.88599 0
M  V30 1029 O 94.1253 -0.0112403 -2.28497 0
M  V30 1030 C 94.3353 -3.34239 -1.00425 0
M  V30 1031 C 95.6833 -4.01431 -1.38342 0
M  V30 1032 O 96.7073 -3.38907 -1.09637 0
M  V30 1033 O 95.5663 -5.11683 -1.91943 0
M  V30 1034 H 92.6603 -0.761112 -0.323478 0
M  V30 1035 H 95.2063 -1.6947 0.0884125 0
M  V30 1036 H 93.9783 -3.91089 -0.128625 0
M  V30 1037 H 93.6013 -3.54329 -1.80378 0
M  V30 1038 N 94.5984 0.214957 -1.56127 0
M  V30 1039 C 96.0144 0.564948 -1.49267 0
M  V30 1040 C 96.2144 1.86827 -0.754838 0
M  V30 1041 O 95.2704 2.50745 -0.297198 0
M  V30 1042 C 96.5834 0.638071 -2.93852 0
M  V30 1043 C 98.1314 0.728253 -3.0441 0
M  V30 1044 C 98.6064 0.832663 -4.50367 0
M  V30 1045 N 100.097 0.896712 -4.54437 0
M  V30 1046 C 100.832 0.997324 -5.6466 0
M  V30 1047 N 100.328 1.06147 -6.8462 0
M  V30 1048 N 102.121 1.03297 -5.52527 0
M  V30 1049 H 94.2724 -0.640211 -2.02522 0
M  V30 1050 H 96.5354 -0.225507 -0.920788 0
M  V30 1051 H 96.2414 -0.250126 -3.50809 0
M  V30 1052 H 96.1154 1.49947 -3.46115 0
M  V30 1053 H 98.5024 1.60689 -2.47514 0
M  V30 1054 H 98.5834 -0.158952 -2.55306 0
M  V30 1055 H 98.2274 -0.0415417 -5.07883 0
M  V30 1056 H 98.1574 1.73538 -4.97184 0
M  V30 1057 H 100.648 0.857188 -3.6805 0
M  V30 1058 H 100.961 1.1382 -7.64372 0
M  V30 1059 H 99.3064 1.03049 -6.87318 0
M  V30 1060 H 102.497 0.979558 -4.57736 0
M  V30 1061 H 102.67 1.10793 -6.38458 0
M  V30 1062 N 96.0765 1.50051 0.48192 0
M  V30 1063 C 97.0395 1.67584 1.5636 0
M  V30 1064 C 98.0395 0.546894 1.51214 0
M  V30 1065 O 99.2295 0.813725 1.54026 0
M  V30 1066 C 96.3615 1.691 2.96003 0
M  V30 1067 H 97.5545 2.64078 1.42136 0
M  V30 1068 H 95.1075 1.39369 0.707533 0
M  V30 1069 H 95.8425 0.742589 3.15684 0
M  V30 1070 H 95.6275 2.51105 3.01146 0
M  V30 1071 H 97.1175 1.84656 3.74556 0
M  V30 1072 N 97.5546 -0.734337 1.39446 0
M  V30 1073 C 98.8006 -1.49613 1.36908 0
M  V30 1074 C 99.1336 -1.94169 -0.0347829 0
M  V30 1075 O 98.4086 -1.66833 -0.999847 0
M  V30 1076 C 98.6916 -2.73534 2.34203 0
M  V30 1077 C 98.5446 -2.34993 3.83534 0
M  V30 1078 C 99.8636 -3.75635 2.29317 0
M  V30 1079 H 96.9826 -0.542714 0.498629 0
M  V30 1080 H 99.6246 -0.839597 1.70443 0
M  V30 1081 H 97.7746 -3.29553 2.05736 0
M  V30 1082 H 99.4466 -1.84601 4.22753 0
M  V30 1083 H 97.6896 -1.67213 4.00278 0
M  V30 1084 H 98.3606 -3.23738 4.47099 0
M  V30 1085 H 100.837 -3.29203 2.54489 0
M  V30 1086 H 99.7126 -4.60008 2.99472 0
M  V30 1087 H 99.9736 -4.22603 1.29842 0
M  V30 1088 N 99.0327 -1.24633 -0.964593 0
M  V30 1089 C 99.9427 -1.05859 -2.09359 0
M  V30 1090 C 100.959 0.00148855 -1.74 0
M  V30 1091 O 102.135 -0.197346 -2.00431 0
M  V30 1092 C 99.1997 -0.668879 -3.40187 0
M  V30 1093 C 98.2607 -1.80578 -3.89474 0
M  V30 1094 C 97.4937 -1.43457 -5.14058 0
M  V30 1095 O 97.7167 -0.325775 -5.69469 0
M  V30 1096 O 96.6507 -2.2613 -5.57807 0
M  V30 1097 H 100.477 -2.00516 -2.28094 0
M  V30 1098 H 98.0617 -1.03481 -1.0776 0
M  V30 1099 H 99.9437 -0.463211 -4.18846 0
M  V30 1100 H 98.6187 0.248536 -3.22744 0
M  V30 1101 H 97.5257 -2.06623 -3.11862 0
M  V30 1102 H 98.8587 -2.70208 -4.11398 0
M  V30 1103 N 100.511 1.16574 -1.06058 0
M  V30 1104 C 101.421 2.2452 -0.680282 0
M  V30 1105 C 102.437 1.71348 0.302604 0
M  V30 1106 O 103.613 2.00822 0.152513 0
M  V30 1107 C 100.678 3.46629 -0.0700315 0
M  V30 1108 C 99.7388 4.14849 -1.10448 0
M  V30 1109 C 98.9718 5.31129 -0.523256 0
M  V30 1110 O 99.1948 5.66514 0.664709 0
M  V30 1111 O 98.1288 5.88526 -1.26179 0
M  V30 1112 H 101.955 2.59355 -1.58015 0
M  V30 1113 H 99.5398 1.24043 -0.832694 0
M  V30 1114 H 101.422 4.20543 0.268667 0
M  V30 1115 H 100.097 3.13573 0.803353 0
M  V30 1116 H 99.0038 3.42916 -1.49532 0
M  V30 1117 H 100.337 4.51954 -1.94931 0
M  V30 1118 N 101.989 0.842826 1.3317 0
M  V30 1119 C 103.229 0.446574 1.99462 0
M  V30 1120 C 103.593 -0.976818 1.65295 0
M  V30 1121 O 104.794 -1.477 2.24584 0
M  V30 1122 C 103.065 0.665353 3.51152 0
M  V30 1123 S 104.624 0.364911 4.3728 0
M  V30 1124 H 101.442 0.167803 0.690915 0
M  V30 1125 H 104.044 1.09297 1.62094 0
M  V30 1126 H 102.748 1.7006 3.73507 0
M  V30 1127 H 102.279 0.00494568 3.934 0
M  V30 1128 H 104.294 -0.813761 4.89482 0
M  V30 1129 N 103.467 -1.45747 0.599634 0
M  V30 1130 C 104.414 -2.30467 -0.123849 0
M  V30 1131 C 105.384 -1.41632 -0.86774 0
M  V30 1132 O 106.569 -1.70568 -0.855056 0
M  V30 1133 C 103.709 -3.26402 -1.12051 0
M  V30 1134 C 102.822 -4.3034 -0.37832 0
M  V30 1135 C 101.957 -5.13389 -1.364 0
M  V30 1136 C 100.996 -6.09061 -0.609171 0
M  V30 1137 N 100.133 -6.84918 -1.54374 0
M  V30 1138 H 104.973 -2.91802 0.604627 0
M  V30 1139 H 102.51 -1.43797 0.309972 0
M  V30 1140 H 104.468 -3.80482 -1.7114 0
M  V30 1141 H 103.098 -2.66839 -1.8165 0
M  V30 1142 H 102.15 -3.78984 0.327929 0
M  V30 1143 H 103.462 -4.98354 0.210997 0
M  V30 1144 H 102.616 -5.7183 -2.02719 0
M  V30 1145 H 101.355 -4.45376 -1.98725 0
M  V30 1146 H 100.36 -5.49758 0.0676979 0
M  V30 1147 H 101.585 -6.79099 0.00891991 0
M  V30 1148 H 99.531 -6.19601 -2.15478 0
M  V30 1149 H 99.448 -7.49254 -1.00766 0
M  V30 1150 H 100.716 -7.47906 -2.19676 0
M  V30 1151 N 104.945 -0.338344 -1.53925 0
M  V30 1152 C 105.855 0.529421 -2.28548 0
M  V30 1153 C 106.871 1.11645 -1.3346 0
M  V30 1154 O 108.047 1.13325 -1.66492 0
M  V30 1155 C 105.112 1.66713 -3.03987 0
M  V30 1156 C 104.173 1.11041 -4.14691 0
M  V30 1157 C 103.406 2.19389 -4.86522 0
M  V30 1158 O 103.629 3.40013 -4.57982 0
M  V30 1159 O 102.563 1.83976 -5.73094 0
M  V30 1160 H 106.389 -0.0770399 -3.03602 0
M  V30 1161 H 103.974 -0.103555 -1.49041 0
M  V30 1162 H 105.856 2.32918 -3.5118 0
M  V30 1163 H 104.531 2.25949 -2.31794 0
M  V30 1164 H 103.438 0.413024 -3.71813 0
M  V30 1165 H 104.771 0.562975 -4.8897 0
M  V30 1166 N 106.423 1.57458 -0.0668435 0
M  V30 1167 C 107.353 2.15468 0.899764 0
M  V30 1168 C 108.334 1.08042 1.31381 0
M  V30 1169 O 109.519 1.36054 1.38574 0
M  V30 1170 C 106.649 2.71232 2.16911 0
M  V30 1171 C 105.603 3.83781 1.89463 0
M  V30 1172 C 104.929 4.26127 3.22986 0
M  V30 1173 C 106.229 5.08238 1.20381 0
M  V30 1174 H 107.923 2.96488 0.416529 0
M  V30 1175 H 105.469 1.4262 0.198908 0
M  V30 1176 H 107.422 3.10458 2.84945 0
M  V30 1177 H 106.146 1.87426 2.67468 0
M  V30 1178 H 104.805 3.45051 1.23836 0
M  V30 1179 H 104.453 3.39249 3.71374 0
M  V30 1180 H 104.153 5.01993 3.05413 0
M  V30 1181 H 105.677 4.67966 3.92225 0
M  V30 1182 H 107.091 5.44811 1.78475 0
M  V30 1183 H 105.488 5.89349 1.13083 0
M  V30 1184 H 106.558 4.84558 0.182153 0
M  V30 1185 N 107.901 -0.206675 1.56239 0
M  V30 1186 C 109.131 -0.943975 1.83773 0
M  V30 1187 C 109.539 -1.77841 0.645703 0
M  V30 1188 O 108.882 -1.79403 -0.395008 0
M  V30 1189 C 108.944 -1.899 3.05251 0
M  V30 1190 C 108.608 -1.24764 4.39639 0
M  V30 1191 C 109.605 -0.630216 5.16066 0
M  V30 1192 C 107.29 -1.25496 4.8637 0
M  V30 1193 C 109.284 -0.0287946 6.37393 0
M  V30 1194 C 106.971 -0.649698 6.07637 0
M  V30 1195 C 107.969 -0.0376845 6.8299 0
M  V30 1196 O 107.657 0.55812 8.0196 0
M  V30 1197 H 107.389 -0.281508 0.614597 0
M  V30 1198 H 109.943 -0.222458 2.04192 0
M  V30 1199 H 108.173 -2.6599 2.80689 0
M  V30 1200 H 109.862 -2.5031 3.1953 0
M  V30 1201 H 110.628 -0.616785 4.81062 0
M  V30 1202 H 106.507 -1.72072 4.27683 0
M  V30 1203 H 110.051 0.449518 6.9615 0
M  V30 1204 H 105.948 -0.660592 6.42111 0
M  V30 1205 H 106.716 0.453891 8.17241 0
M  V30 1206 N 109.379 -1.50304 -0.473955 0
M  V30 1207 C 110.656 -1.51667 -1.23518 0
M  V30 1208 C 111.036 -0.259701 -2.09496 0
M  V30 1209 O 110.384 0.756986 -2.15597 0
M  V30 1210 C 110.594 -2.81082 -2.06868 0
M  V30 1211 C 111.942 -3.31631 -2.65153 0
M  V30 1212 O 112.966 -2.82384 -2.17113 0
M  V30 1213 O 111.825 -4.17471 -3.52675 0
M  V30 1214 H 108.919 -0.60822 -0.560355 0
M  V30 1215 H 111.465 -1.62592 -0.486011 0
M  V30 1216 H 110.237 -3.64041 -1.4349 0
M  V30 1217 H 109.86 -2.73146 -2.88924 0
M  V30 1218 N 110.857 0.726932 -1.39834 0
M  V30 1219 C 111.787 1.85405 -1.41941 0
M  V30 1220 C 112.768 1.67751 -0.281728 0
M  V30 1221 O 113.953 1.8795 -0.488717 0
M  V30 1222 C 111.083 3.23243 -1.2701 0
M  V30 1223 C 110.037 3.55549 -2.38262 0
M  V30 1224 C 109.363 4.9241 -2.08415 0
M  V30 1225 C 110.663 3.577 -3.80589 0
M  V30 1226 H 112.357 1.83899 -2.36266 0
M  V30 1227 H 109.903 0.883349 -1.13723 0
M  V30 1228 H 111.856 4.01775 -1.27103 0
M  V30 1229 H 110.58 3.25296 -0.291564 0
M  V30 1230 H 109.239 2.79351 -2.37399 0
M  V30 1231 H 108.887 4.91052 -1.0898 0
M  V30 1232 H 108.587 5.14992 -2.82943 0
M  V30 1233 H 110.111 5.73289 -2.10171 0
M  V30 1234 H 111.525 4.26293 -3.83337 0
M  V30 1235 H 109.922 3.91804 -4.54543 0
M  V30 1236 H 110.992 2.57328 -4.10987 0
M  V30 1237 N 112.336 1.25143 0.95797 0
M  V30 1238 C 113.584 1.09476 1.69881 0
M  V30 1239 C 113.905 -0.365502 1.91544 0
M  V30 1240 O 113.175 -1.25985 1.50015 0
M  V30 1241 H 111.755 0.402128 0.629525 0
M  V30 1242 H 114.417 1.57214 1.15194 0
M  V30 1243 H 113.513 1.60046 2.6794 0
M  V30 1244 N 113.814 -1.1601 1.06675 0
M  V30 1245 C 115.063 -1.85973 0.780818 0
M  V30 1246 C 115.376 -1.82819 -0.695444 0
M  V30 1247 O 116.582 -2.484 -1.09589 0
M  V30 1248 C 115.038 -3.33757 1.34665 0
M  V30 1249 C 114.646 -3.45374 2.85343 0
M  V30 1250 C 116.39 -4.0895 1.13843 0
M  V30 1251 C 114.297 -4.87266 3.35151 0
M  V30 1252 H 113.227 -0.696661 0.288407 0
M  V30 1253 H 115.878 -1.30903 1.28595 0
M  V30 1254 H 114.26 -3.88456 0.769274 0
M  V30 1255 H 115.434 -3.00816 3.49065 0
M  V30 1256 H 113.749 -2.83619 3.04876 0
M  V30 1257 H 116.346 -5.13654 1.4854 0
M  V30 1258 H 116.689 -4.16229 0.0770282 0
M  V30 1259 H 117.222 -3.605 1.68179 0
M  V30 1260 H 113.961 -4.85168 4.40786 0
M  V30 1261 H 113.481 -5.32433 2.76179 0
M  V30 1262 H 115.16 -5.56097 3.30704 0
M  V30 1263 N 115.292 -0.849877 -1.32721 0
M  V30 1264 C 116.224 -0.248332 -2.27851 0
M  V30 1265 C 117.237 0.577218 -1.52224 0
M  V30 1266 O 118.426 0.402489 -1.73903 0
M  V30 1267 C 115.526 0.668107 -3.32249 0
M  V30 1268 C 114.699 -0.120534 -4.37234 0
M  V30 1269 C 113.758 0.720932 -5.21238 0
M  V30 1270 O 112.784 0.156166 -5.68986 0
M  V30 1271 N 113.986 2.03647 -5.43607 0
M  V30 1272 H 116.751 -1.06575 -2.80111 0
M  V30 1273 H 114.312 -0.709395 -1.45531 0
M  V30 1274 H 116.304 1.23627 -3.85355 0
M  V30 1275 H 114.874 1.38621 -2.80184 0
M  V30 1276 H 114.094 -0.870108 -3.84477 0
M  V30 1277 H 115.382 -0.662406 -5.0447 0
M  V30 1278 H 114.78 2.51871 -5.06535 0
M  V30 1279 H 113.337 2.55287 -5.99727 0
M  V30 1280 N 116.77 1.45427 -0.607355 0
M  V30 1281 C 118.018 2.01841 -0.102253 0
M  V30 1282 C 118.339 1.47832 1.27164 0
M  V30 1283 O 117.609 0.672497 1.83995 0
M  V30 1284 H 116.189 0.746188 -0.0348101 0
M  V30 1285 H 118.851 1.78229 -0.7887 0
M  V30 1286 H 117.947 3.12057 -0.0518585 0
M  V30 1287 N 118.248 0.346503 1.53744 0
M  V30 1288 C 119.497 -0.250122 2.00143 0
M  V30 1289 C 119.81 -1.51418 1.23822 0
M  V30 1290 O 121.016 -2.18823 1.60713 0
M  V30 1291 C 119.472 -0.496252 3.56462 0
M  V30 1292 C 119.08 0.752077 4.41642 0
M  V30 1293 C 120.824 -1.05157 4.11269 0
M  V30 1294 C 118.731 0.476583 5.89477 0
M  V30 1295 H 117.661 -0.0972409 0.747703 0
M  V30 1296 H 120.312 0.46229 1.77581 0
M  V30 1297 H 118.694 -1.26944 3.75102 0
M  V30 1298 H 119.868 1.5266 4.34778 0
M  V30 1299 H 118.183 1.22925 3.97842 0
M  V30 1300 H 120.78 -1.27269 5.19333 0
M  V30 1301 H 121.123 -2.00799 3.64672 0
M  V30 1302 H 121.656 -0.339019 3.96353 0
M  V30 1303 H 118.395 1.4028 6.40314 0
M  V30 1304 H 117.915 -0.259794 5.99237 0
M  V30 1305 H 119.594 0.0949315 6.4693 0
M  V30 1306 N 119.726 -1.57421 0.075193 0
M  V30 1307 C 121.003 -1.85029 -0.634329 0
M  V30 1308 C 121.383 -0.968305 -1.87582 0
M  V30 1309 O 120.731 -0.0354749 -2.28472 0
M  V30 1310 C 120.941 -3.35286 -0.968742 0
M  V30 1311 C 122.289 -4.02875 -1.34077 0
M  V30 1312 O 123.313 -3.40051 -1.06037 0
M  V30 1313 O 122.172 -5.13691 -1.86506 0
M  V30 1314 H 119.266 -0.7645 -0.315387 0
M  V30 1315 H 121.812 -1.69366 0.106382 0
M  V30 1316 H 120.584 -3.91203 -0.0871376 0
M  V30 1317 H 120.207 -3.56223 -1.7661 0
M  V30 1318 N 121.204 0.198386 -1.56346 0
M  V30 1319 C 122.134 1.24865 -1.9731 0
M  V30 1320 C 123.115 1.47651 -0.844576 0
M  V30 1321 O 124.3 1.59444 -1.10866 0
M  V30 1322 C 121.43 2.59358 -2.30977 0
M  V30 1323 C 120.384 2.5119 -3.46537 0
M  V30 1324 C 119.71 3.89926 -3.65871 0
M  V30 1325 C 121.01 2.03977 -4.80823 0
M  V30 1326 H 122.704 0.908252 -2.85291 0
M  V30 1327 H 120.25 0.435462 -1.37258 0
M  V30 1328 H 122.203 3.33011 -2.58228 0
M  V30 1329 H 120.927 2.95132 -1.39874 0
M  V30 1330 H 119.586 1.79993 -3.19371 0
M  V30 1331 H 119.234 4.23046 -2.72105 0
M  V30 1332 H 118.934 3.85336 -4.4361 0
M  V30 1333 H 120.458 4.65205 -3.95495 0
M  V30 1334 H 121.872 2.67386 -5.07127 0
M  V30 1335 H 120.269 2.10397 -5.62008 0
M  V30 1336 H 121.339 0.992861 -4.74626 0
M  V30 1337 N 122.682 1.50554 0.465978 0
M  V30 1338 C 123.929 1.61798 1.21768 0
M  V30 1339 C 124.257 0.320696 1.91838 0
M  V30 1340 O 123.512 -0.693724 1.82992 0
M  V30 1341 C 123.811 2.75152 2.28093 0
M  V30 1342 C 123.477 4.15454 1.75239 0
M  V30 1343 C 122.139 4.53628 1.60546 0
M  V30 1344 C 124.491 5.03121 1.36083 0
M  V30 1345 C 121.819 5.77204 1.05128 0
M  V30 1346 C 124.171 6.27249 0.821056 0
M  V30 1347 C 122.835 6.64221 0.660795 0
M  V30 1348 H 122.105 0.592063 0.445582 0
M  V30 1349 H 124.752 1.84503 0.512927 0
M  V30 1350 H 123.057 2.46556 3.04496 0
M  V30 1351 H 124.754 2.81055 2.86023 0
M  V30 1352 H 121.344 3.85341 1.87644 0
M  V30 1353 H 125.528 4.74257 1.46267 0
M  V30 1354 H 120.784 6.0452 0.91462 0
M  V30 1355 H 124.958 6.94537 0.509018 0
M  V30 1356 H 122.585 7.59854 0.229226 0
M  V30 1357 N 124.16 -0.719506 1.40217 0
M  V30 1358 C 125.408 -1.47641 1.3801 0
M  V30 1359 C 125.729 -1.94992 -0.018145 0
M  V30 1360 O 124.999 -1.70073 -0.972207 0
M  V30 1361 H 123.579 -0.547744 0.507923 0
M  V30 1362 H 126.241 -0.853187 1.75233 0
M  V30 1363 H 125.337 -2.35112 2.05253 0
M  V30 1364 N 125.638 -1.25649 -0.95132 0
M  V30 1365 C 126.887 -1.09988 -1.69073 0
M  V30 1366 C 127.2 0.358355 -1.92289 0
M  V30 1367 O 128.406 0.635466 -2.63958 0
M  V30 1368 C 126.862 -1.92012 -3.044 0
M  V30 1369 C 126.47 -3.42347 -2.88968 0
M  V30 1370 C 128.214 -1.8493 -3.82101 0
M  V30 1371 C 126.121 -4.16655 -4.19705 0
M  V30 1372 H 125.051 -0.407993 -0.63408 0
M  V30 1373 H 127.702 -1.49873 -1.05879 0
M  V30 1374 H 126.084 -1.44952 -3.68517 0
M  V30 1375 H 127.258 -3.97104 -2.33762 0
M  V30 1376 H 125.573 -3.50557 -2.24719 0
M  V30 1377 H 128.17 -2.37739 -4.78941 0
M  V30 1378 H 128.513 -0.817883 -4.08187 0
M  V30 1379 H 129.046 -2.29758 -3.2474 0
M  V30 1380 H 125.785 -5.20224 -3.98807 0
M  V30 1381 H 125.305 -3.66681 -4.74663 0
M  V30 1382 H 126.984 -4.24551 -4.88227 0
M  V30 1383 N 127.117 1.15442 -1.07289 0
M  V30 1384 C 128.528 1.67803 -0.818475 0
M  V30 1385 C 128.879 1.8489 0.656507 0
M  V30 1386 O 128.004 1.55176 1.50829 0
M  V30 1387 C 128.599 3.04805 -1.47917 0
M  V30 1388 C 127.158 3.54245 -1.27229 0
M  V30 1389 C 126.305 2.29986 -1.54925 0
M  V30 1390 H 129.256 0.996646 -1.23502 0
M  V30 1391 H 129.277 3.69702 -0.90005 0
M  V30 1392 H 128.789 2.92336 -2.55267 0
M  V30 1393 H 126.89 3.71956 -0.21899 0
M  V30 1394 H 127.003 4.35723 -1.99203 0
M  V30 1395 H 125.367 2.35496 -0.970242 0
M  V30 1396 H 126.15 2.20105 -2.63455 0
M  V30 1397 N 128.595 0.856903 1.32268 0
M  V30 1398 C 129.505 0.306131 2.32594 0
M  V30 1399 C 130.521 -0.577209 1.64147 0
M  V30 1400 O 131.697 -0.477043 1.95669 0
M  V30 1401 C 128.762 -0.494561 3.43154 0
M  V30 1402 C 127.823 0.415186 4.27288 0
M  V30 1403 C 127.056 -0.347387 5.32568 0
M  V30 1404 O 127.279 -1.57708 5.48165 0
M  V30 1405 O 126.213 0.287982 6.01211 0
M  V30 1406 H 130.039 1.13737 2.81598 0
M  V30 1407 H 127.624 0.619902 1.35932 0
M  V30 1408 H 129.506 -0.948944 4.10576 0
M  V30 1409 H 128.181 -1.30257 2.96336 0
M  V30 1410 H 127.088 0.917793 3.62667 0
M  V30 1411 H 128.421 1.18844 4.77637 0
M  V30 1412 N 130.073 -1.45103 0.615059 0
M  V30 1413 C 131.005 -2.28786 -0.13762 0
M  V30 1414 C 132.018 -1.40376 -0.824525 0
M  V30 1415 O 133.207 -1.64681 -0.688662 0
M  V30 1416 C 130.307 -3.16322 -1.21628 0
M  V30 1417 C 129.48 -4.33054 -0.615039 0
M  V30 1418 C 128.539 -5.01743 -1.58556 0
M  V30 1419 O 127.565 -5.58293 -1.10895 0
M  V30 1420 N 128.767 -5.01714 -2.91998 0
M  V30 1421 H 131.532 -2.94025 0.580483 0
M  V30 1422 H 129.093 -1.55373 0.45507 0
M  V30 1423 H 131.085 -3.59139 -1.86552 0
M  V30 1424 H 129.655 -2.52943 -1.83681 0
M  V30 1425 H 128.875 -3.93627 0.21245 0
M  V30 1426 H 130.163 -5.08431 -0.193704 0
M  V30 1427 H 129.561 -4.57075 -3.33316 0
M  V30 1428 H 128.118 -5.48371 -3.52325 0
M  V30 1429 N 131.551 -0.354651 -1.53558 0
M  V30 1430 C 132.498 0.496968 -2.25386 0
M  V30 1431 C 133.468 1.0865 -1.25636 0
M  V30 1432 O 134.653 1.12104 -1.54394 0
M  V30 1433 C 131.793 1.63637 -3.03837 0
M  V30 1434 C 130.906 1.07307 -4.18461 0
M  V30 1435 C 130.041 2.18068 -4.84376 0
M  V30 1436 C 129.08 1.59147 -5.91049 0
M  V30 1437 N 128.217 2.63695 -6.50699 0
M  V30 1438 H 133.057 -0.122075 -2.9775 0
M  V30 1439 H 130.594 -0.0720154 -1.46924 0
M  V30 1440 H 132.552 2.30734 -3.47589 0
M  V30 1441 H 131.182 2.22623 -2.33749 0
M  V30 1442 H 130.234 0.292708 -3.79272 0
M  V30 1443 H 131.546 0.602193 -4.95152 0
M  V30 1444 H 130.7 2.93007 -5.31255 0
M  V30 1445 H 129.439 2.68504 -4.07133 0
M  V30 1446 H 128.444 0.827175 -5.43542 0
M  V30 1447 H 129.669 1.09549 -6.70206 0
M  V30 1448 H 127.615 3.13365 -5.76315 0
M  V30 1449 H 127.532 2.21263 -7.22896 0
M  V30 1450 H 128.8 3.3837 -7.02229 0
M  V30 1451 N 133.029 1.57378 -0.0835403 0
M  V30 1452 C 134.257 1.98263 0.59157 0
M  V30 1453 C 134.672 0.962302 1.62435 0
M  V30 1454 O 134.029 -0.049581 1.82433 0
M  V30 1455 C 134.08 3.39214 1.24965 0
M  V30 1456 O 133.801 4.37339 0.258186 0
M  V30 1457 C 135.302 3.95038 2.01147 0
M  V30 1458 H 132.522 0.651773 0.159477 0
M  V30 1459 H 135.066 2.03878 -0.159415 0
M  V30 1460 H 133.221 3.34649 1.95164 0
M  V30 1461 H 133.635 5.19371 0.731734 0
M  V30 1462 H 135.109 4.95848 2.42567 0
M  V30 1463 H 135.586 3.32222 2.87272 0
M  V30 1464 H 136.192 4.0304 1.35789 0
M  V30 1465 N 134.507 -0.190092 1.56449 0
M  V30 1466 C 135.417 -1.25591 1.98152 0
M  V30 1467 C 136.433 -1.49519 0.889944 0
M  V30 1468 O 137.609 -1.62036 1.19609 0
M  V30 1469 C 134.674 -2.57916 2.3169 0
M  V30 1470 C 133.735 -2.42015 3.5458 0
M  V30 1471 C 132.968 -3.6803 3.8651 0
M  V30 1472 O 133.191 -4.72413 3.1966 0
M  V30 1473 O 132.125 -3.6326 4.79923 0
M  V30 1474 H 135.951 -0.931988 2.89046 0
M  V30 1475 H 133.536 -0.395488 1.4407 0
M  V30 1476 H 135.418 -3.36008 2.54316 0
M  V30 1477 H 134.093 -2.89925 1.43963 0
M  V30 1478 H 133 -1.62017 3.37196 0
M  V30 1479 H 134.333 -2.14937 4.4279 0
M  V30 1480 N 135.985 -1.50799 -0.457987 0
M  V30 1481 C 137.262 -1.52968 -1.21902 0
M  V30 1482 C 137.642 -0.281906 -2.09209 0
M  V30 1483 O 136.99 0.734076 -2.16388 0
M  V30 1484 C 137.2 -2.8326 -2.03875 0
M  V30 1485 C 138.548 -3.34425 -2.6162 0
M  V30 1486 O 139.572 -2.8467 -2.14106 0
M  V30 1487 O 138.431 -4.21188 -3.48228 0
M  V30 1488 H 135.525 -0.614129 -0.553873 0
M  V30 1489 H 138.071 -1.63098 -0.468739 0
M  V30 1490 H 136.843 -3.65543 -1.39621 0
M  V30 1491 H 136.466 -2.76195 -2.8601 0
M  V30 1492 N 137.463 0.71206 -1.40597 0
M  V30 1493 C 138.711 1.46907 -1.38791 0
M  V30 1494 C 139.032 1.94998 0.00780391 0
M  V30 1495 O 138.302 1.70587 0.963174 0
M  V30 1496 H 136.882 0.545043 -0.51082 0
M  V30 1497 H 139.544 0.843882 -1.75683 0
M  V30 1498 H 138.64 2.34021 -2.06496 0
M  V30 1499 N 138.941 1.26152 0.944643 0
M  V30 1500 C 140.166 1.14363 1.7302 0
M  V30 1501 C 140.591 -0.29772 1.85729 0
M  V30 1502 O 139.949 -1.2157 1.34501 0
M  V30 1503 C 139.997 1.81378 3.11664 0
M  V30 1504 O 139.101 1.10022 3.97453 0
M  V30 1505 H 138.442 0.398694 0.53098 0
M  V30 1506 H 140.972 1.66906 1.18337 0
M  V30 1507 H 140.982 1.88064 3.62072 0
M  V30 1508 H 139.657 2.86237 3.0173 0
M  V30 1509 H 138.234 1.11287 3.55907 0
M  V30 1510 N 140.419 -1.14872 1.07899 0
M  V30 1511 C 141.329 -2.2341 0.715915 0
M  V30 1512 C 142.345 -1.71808 -0.275306 0
M  V30 1513 O 143.521 -2.01039 -0.120545 0
M  V30 1514 C 140.586 -3.46474 0.125168 0
M  V30 1515 C 139.647 -4.13039 1.17034 0
M  V30 1516 C 138.88 -5.30229 0.607688 0
M  V30 1517 O 139.103 -5.675 -0.574497 0
M  V30 1518 O 138.037 -5.86444 1.35526 0
M  V30 1519 H 141.863 -2.56808 1.62121 0
M  V30 1520 H 139.448 -1.22702 0.852322 0
M  V30 1521 H 141.33 -4.20917 -0.201729 0
M  V30 1522 H 140.005 -3.14811 -0.753364 0
M  V30 1523 H 138.912 -3.40493 1.54968 0
M  V30 1524 H 140.245 -4.48796 2.02097 0
M  V30 1525 N 141.898 -0.863906 -1.31812 0
M  V30 1526 C 142.861 -0.320212 -2.26952 0
M  V30 1527 C 143.861 0.525369 -1.51975 0
M  V30 1528 O 145.051 0.335547 -1.70938 0
M  V30 1529 C 142.183 0.545919 -3.365 0
M  V30 1530 H 143.376 -1.16004 -2.76556 0
M  V30 1531 H 140.929 -0.638995 -1.42641 0
M  V30 1532 H 141.664 1.40718 -2.92179 0
M  V30 1533 H 141.449 -0.0594674 -3.92055 0
M  V30 1534 H 142.939 0.918796 -4.07367 0
M  V30 1535 N 143.376 1.44774 -0.622745 0
M  V30 1536 C 144.606 2.06187 -0.130532 0
M  V30 1537 C 145.014 1.46547 1.19669 0
M  V30 1538 O 144.357 0.579636 1.74316 0
M  V30 1539 C 144.419 3.59437 0.0674983 0
M  V30 1540 C 144.083 4.41496 -1.18026 0
M  V30 1541 C 145.08 4.75512 -2.102 0
M  V30 1542 C 142.765 4.82007 -1.41333 0
M  V30 1543 C 144.759 5.48912 -3.23998 0
M  V30 1544 C 142.446 5.55157 -2.55429 0
M  V30 1545 C 143.444 5.88528 -3.46589 0
M  V30 1546 O 143.132 6.60191 -4.58697 0
M  V30 1547 H 142.864 0.672045 -0.0730162 0
M  V30 1548 H 145.418 1.86768 -0.854802 0
M  V30 1549 H 143.648 3.77314 0.846825 0
M  V30 1550 H 145.337 4.02642 0.513209 0
M  V30 1551 H 146.103 4.4476 -1.93425 0
M  V30 1552 H 141.982 4.55457 -0.712709 0
M  V30 1553 H 145.526 5.74877 -3.95174 0
M  V30 1554 H 141.423 5.85324 -2.72151 0
M  V30 1555 H 142.191 6.78654 -4.57571 0
M  V30 1556 N 144.854 0.36279 1.53368 0
M  V30 1557 C 145.802 -0.500155 2.27159 0
M  V30 1558 C 146.796 -1.08575 1.3003 0
M  V30 1559 O 148.002 -1.02927 1.47668 0
M  V30 1560 H 144.377 -0.180009 0.730138 0
M  V30 1561 H 146.348 0.14401 2.98052 0
M  V30 1562 C 145.097 -1.62937 3.07159 0
M  V30 1563 H 144.42 -1.18806 3.8174 0
M  V30 1564 H 145.86 -2.20795 3.61975 0
M  V30 1565 C 144.319 -2.57007 2.17829 0
M  V30 1566 O 144.849 -3.59752 1.78721 0
M  V30 1567 N 143.055 -2.26131 1.82518 0
M  V30 1568 H 142.602 -1.42616 2.14519 0
M  V30 1569 H 142.56 -2.89327 1.23034 0
M  V30 1570 N 146.332 -1.57332 0.0918853 0
M  V30 1571 C 147.609 -1.85691 -0.614668 0
M  V30 1572 C 147.989 -0.988146 -1.86545 0
M  V30 1573 O 147.337 -0.0597055 -2.28422 0
M  V30 1574 C 147.547 -3.36294 -0.933126 0
M  V30 1575 C 148.895 -4.04275 -1.29796 0
M  V30 1576 O 149.919 -3.41157 -1.02424 0
M  V30 1577 O 148.778 -5.1564 -1.81047 0
M  V30 1578 H 145.872 -0.767802 -0.307261 0
M  V30 1579 H 148.418 -1.69244 0.12434 0
M  V30 1580 H 147.19 -3.91273 -0.0456404 0
M  V30 1581 H 146.813 -3.58076 -1.72822 0
M  V30 1582 N 147.81 0.181792 -1.56548 0
M  V30 1583 C 148.758 1.24461 -1.965 0
M  V30 1584 C 149.752 1.464 -0.852261 0
M  V30 1585 O 150.958 1.47103 -1.03733 0
M  V30 1586 H 147.333 0.418138 -0.625031 0
M  V30 1587 H 149.304 0.880714 -2.85107 0
M  V30 1588 C 148.053 2.57891 -2.33212 0
M  V30 1589 H 147.376 2.41829 -3.18369 0
M  V30 1590 H 148.816 3.3097 -2.65019 0
M  V30 1591 C 147.275 3.15871 -1.17163 0
M  V30 1592 O 147.805 3.9913 -0.453708 0
M  V30 1593 N 146.011 2.74808 -0.944936 0
M  V30 1594 H 145.558 2.07205 -1.53049 0
M  V30 1595 H 145.516 3.13939 -0.170286 0
M  V30 1596 N 149.288 1.51039 0.449983 0
M  V30 1597 C 150.536 1.62759 1.19808 0
M  V30 1598 C 150.857 0.339981 1.92013 0
M  V30 1599 O 150.127 -0.643606 1.85026 0
M  V30 1600 H 148.707 0.599811 0.445237 0
M  V30 1601 H 151.369 1.87914 0.517138 0
M  V30 1602 H 150.465 2.44911 1.93455 0
M  V30 1603 N 150.766 -0.704594 1.40972 0
M  V30 1604 C 152.015 -1.46018 1.39146 0
M  V30 1605 C 152.328 -1.956 0.000589254 0
M  V30 1606 O 153.534 -2.71137 -0.1403 0
M  V30 1607 C 151.99 -2.63996 2.4461 0
M  V30 1608 C 151.598 -2.21238 3.89561 0
M  V30 1609 C 153.342 -3.41677 2.51907 0
M  V30 1610 C 151.249 -3.3612 4.86598 0
M  V30 1611 H 150.179 -0.548444 0.517422 0
M  V30 1612 H 152.83 -0.765784 1.66757 0
M  V30 1613 H 151.212 -3.3566 2.10115 0
M  V30 1614 H 152.386 -1.56923 4.33257 0
M  V30 1615 H 150.701 -1.56574 3.85841 0
M  V30 1616 H 153.298 -4.27182 3.2159 0
M  V30 1617 H 153.641 -3.86247 1.55303 0
M  V30 1618 H 154.174 -2.77064 2.85448 0
M  V30 1619 H 150.913 -2.96572 5.84573 0
M  V30 1620 H 150.433 -3.99315 4.47557 0
M  V30 1621 H 152.112 -4.02029 5.06934 0
M  V30 1622 N 152.244 -1.26651 -0.937939 0
M  V30 1623 C 153.174 -1.10993 -2.05433 0
M  V30 1624 C 154.155 -0.0142161 -1.70094 0
M  V30 1625 O 155.34 -0.186837 -1.93299 0
M  V30 1626 C 152.47 -0.745561 -3.39203 0
M  V30 1627 C 151.424 -1.79337 -3.88616 0
M  V30 1628 C 150.75 -1.28324 -5.19073 0
M  V30 1629 C 152.05 -3.19553 -4.13138 0
M  V30 1630 H 153.744 -2.0438 -2.1879 0
M  V30 1631 H 151.29 -0.984041 -1.05131 0
M  V30 1632 H 153.243 -0.622888 -4.16771 0
M  V30 1633 H 151.967 0.22401 -3.25831 0
M  V30 1634 H 150.626 -1.90477 -3.13231 0
M  V30 1635 H 150.274 -0.303414 -5.02084 0
M  V30 1636 H 149.974 -1.98369 -5.53103 0
M  V30 1637 H 151.498 -1.1733 -5.99221 0
M  V30 1638 H 152.912 -3.11471 -4.81309 0
M  V30 1639 H 151.309 -3.87218 -4.58457 0
M  V30 1640 H 152.379 -3.65368 -3.18801 0
M  V30 1641 N 153.722 1.14298 -1.08507 0
M  V30 1642 C 154.654 2.1907 -0.673859 0
M  V30 1643 C 155.667 1.60381 0.279577 0
M  V30 1644 O 156.856 1.78374 0.0670754 0
M  V30 1645 C 153.956 3.38888 0.0290979 0
M  V30 1646 C 153.129 4.27103 -0.943494 0
M  V30 1647 C 152.188 5.25477 -0.275676 0
M  V30 1648 O 151.214 5.61709 -0.920401 0
M  V30 1649 N 152.416 5.7227 0.974013 0
M  V30 1650 H 155.181 2.54965 -1.57521 0
M  V30 1651 H 152.742 1.29528 -0.971287 0
M  V30 1652 H 154.734 4.01761 0.48683 0
M  V30 1653 H 153.304 3.01309 0.832555 0
M  V30 1654 H 152.524 3.61149 -1.58004 0
M  V30 1655 H 153.812 4.82905 -1.60251 0
M  V30 1656 H 153.21 5.44965 1.51755 0
M  V30 1657 H 151.767 6.37127 1.37522 0
M  V30 1658 N 155.201 0.870884 1.31352 0
M  V30 1659 C 156.133 0.28455 2.27427 0
M  V30 1660 C 157.146 -0.552927 1.53123 0
M  V30 1661 O 158.335 -0.374771 1.74521 0
M  V30 1662 C 155.435 -0.615164 3.3327 0
M  V30 1663 C 154.608 0.190079 4.36987 0
M  V30 1664 C 153.667 -0.637917 5.22319 0
M  V30 1665 O 152.693 -0.065626 5.69162 0
M  V30 1666 N 153.895 -1.94973 5.46778 0
M  V30 1667 H 156.66 1.11017 2.7838 0
M  V30 1668 H 154.221 0.732458 1.44384 0
M  V30 1669 H 156.213 -1.1748 3.87273 0
M  V30 1670 H 154.783 -1.34146 2.82354 0
M  V30 1671 H 154.003 0.931165 3.83044 0
M  V30 1672 H 155.291 0.742579 5.03352 0
M  V30 1673 H 154.689 -2.4378 5.10478 0
M  V30 1674 H 153.246 -2.45713 6.03712 0
M  V30 1675 N 156.679 -1.44442 0.630414 0
M  V30 1676 C 157.642 -2.29107 -0.0652523 0
M  V30 1677 C 158.642 -1.41002 -0.772995 0
M  V30 1678 O 159.832 -1.62881 -0.617692 0
M  V30 1679 C 156.964 -3.22564 -1.10296 0
M  V30 1680 H 158.157 -2.92103 0.679401 0
M  V30 1681 H 155.71 -1.51343 0.390517 0
M  V30 1682 H 156.445 -2.64416 -1.87762 0
M  V30 1683 H 156.23 -3.87491 -0.59941 0
M  V30 1684 H 157.72 -3.86167 -1.5895 0
M  V30 1685 N 158.157 -0.370918 -1.53173 0
M  V30 1686 C 159.406 0.218249 -2.00516 0
M  V30 1687 C 159.719 1.49429 -1.26215 0
M  V30 1688 O 160.925 2.16239 -1.64174 0
M  V30 1689 C 159.381 0.43948 -3.57207 0
M  V30 1690 C 158.989 -0.822244 -4.4039 0
M  V30 1691 C 160.733 0.986012 -4.1289 0
M  V30 1692 C 158.64 -0.570304 -5.88644 0
M  V30 1693 H 157.57 0.0853333 -0.749156 0
M  V30 1694 H 160.221 -0.490483 -1.76823 0
M  V30 1695 H 158.603 1.20961 -3.77074 0
M  V30 1696 H 159.777 -1.59557 -4.32294 0
M  V30 1697 H 158.092 -1.29238 -3.95836 0
M  V30 1698 H 160.689 1.18991 -5.21292 0
M  V30 1699 H 161.032 1.94972 -3.6782 0
M  V30 1700 H 161.565 0.27592 -3.96842 0
M  V30 1701 H 158.304 -1.50449 -6.38001 0
M  V30 1702 H 157.824 0.164427 -5.99575 0
M  V30 1703 H 159.503 -0.19784 -6.46697 0
M  V30 1704 N 159.635 1.57281 -0.100228 0
M  V30 1705 C 161.051 1.57527 0.256416 0
M  V30 1706 C 161.251 1.11173 1.68056 0
M  V30 1707 O 160.307 0.79053 2.39806 0
M  V30 1708 C 161.62 3.00673 0.0401747 0
M  V30 1709 C 163.168 3.12815 0.107528 0
M  V30 1710 C 163.643 4.57929 -0.0807834 0
M  V30 1711 N 165.134 4.63193 -0.0261207 0
M  V30 1712 C 165.869 5.73212 -0.146999 0
M  V30 1713 N 165.365 6.92047 -0.322999 0
M  V30 1714 N 167.158 5.62031 -0.0879044 0
M  V30 1715 H 159.309 1.85718 -1.03065 0
M  V30 1716 H 161.572 0.857446 -0.404339 0
M  V30 1717 H 161.278 3.38804 -0.943649 0
M  V30 1718 H 161.152 3.69042 0.780262 0
M  V30 1719 H 163.539 2.74554 1.08186 0
M  V30 1720 H 163.62 2.47028 -0.664134 0
M  V30 1721 H 163.264 4.96886 -1.05201 0
M  V30 1722 H 163.194 5.21783 0.710635 0
M  V30 1723 H 165.685 3.77748 0.107161 0
M  V30 1724 H 165.998 7.7173 -0.406608 0
M  V30 1725 H 164.343 6.94074 -0.358733 0
M  V30 1726 H 167.534 4.68075 0.048498 0
M  V30 1727 H 167.707 6.47734 -0.185557 0
M  V30 1728 N 161.113 -0.173488 1.56642 0
M  V30 1729 C 162.076 -1.19859 1.95362 0
M  V30 1730 C 163.076 -1.37296 0.83704 0
M  V30 1731 O 164.266 -1.34739 1.10413 0
M  V30 1732 C 161.398 -2.56405 2.24654 0
M  V30 1733 H 162.591 -0.867062 2.87092 0
M  V30 1734 H 160.144 -0.415853 1.50666 0
M  V30 1735 H 160.879 -2.94576 1.35631 0
M  V30 1736 H 160.664 -2.45115 3.06041 0
M  V30 1737 H 162.154 -3.30287 2.5554 0
M  V30 1738 N 162.591 -1.51276 -0.441967 0
M  V30 1739 C 163.84 -1.6295 -1.18871 0
M  V30 1740 C 164.153 -0.349312 -1.92456 0
M  V30 1741 O 165.359 -0.345355 -2.69295 0
M  V30 1742 C 163.815 -2.87759 -2.16155 0
M  V30 1743 C 163.423 -4.22764 -1.48239 0
M  V30 1744 C 165.167 -3.08788 -2.91291 0
M  V30 1745 C 163.074 -5.38728 -2.4398 0
M  V30 1746 H 162.004 -0.606913 -0.447406 0
M  V30 1747 H 164.655 -1.77739 -0.456205 0
M  V30 1748 H 163.037 -2.66593 -2.92821 0
M  V30 1749 H 164.211 -4.54293 -0.771635 0
M  V30 1750 H 162.526 -4.07575 -0.852741 0
M  V30 1751 H 165.123 -3.92599 -3.63002 0
M  V30 1752 H 165.466 -2.21679 -3.5237 0
M  V30 1753 H 165.999 -3.30272 -2.21733 0
M  V30 1754 H 162.738 -6.28082 -1.87598 0
M  V30 1755 H 162.258 -5.1158 -3.13123 0
M  V30 1756 H 163.937 -5.70489 -3.05207 0
M  V30 1757 N 164.069 0.697108 -1.41344 0
M  V30 1758 C 165.016 1.81106 -1.43071 0
M  V30 1759 C 165.986 1.63632 -0.285275 0
M  V30 1760 O 167.171 1.84504 -0.486091 0
M  V30 1761 C 164.311 3.18975 -1.31715 0
M  V30 1762 C 163.424 3.47892 -2.56115 0
M  V30 1763 C 162.559 4.75367 -2.37064 0
M  V30 1764 C 161.598 4.97247 -3.56948 0
M  V30 1765 N 160.735 6.15947 -3.36977 0
M  V30 1766 H 165.575 1.78965 -2.38276 0
M  V30 1767 H 163.112 0.873975 -1.18322 0
M  V30 1768 H 165.07 3.98615 -1.23133 0
M  V30 1769 H 163.7 3.20297 -0.401183 0
M  V30 1770 H 162.752 2.62669 -2.75153 0
M  V30 1771 H 164.064 3.59962 -3.45295 0
M  V30 1772 H 163.218 5.63059 -2.25941 0
M  V30 1773 H 161.957 4.65541 -1.45338 0
M  V30 1774 H 160.962 4.08004 -3.68527 0
M  V30 1775 H 162.187 5.08934 -4.49626 0
M  V30 1776 H 160.133 6.07336 -2.47949 0
M  V30 1777 H 160.05 6.28777 -4.19732 0
M  V30 1778 H 161.318 7.06377 -3.29623 0
M  V30 1779 N 165.547 1.27147 0.931209 0
M  V30 1780 C 166.494 1.09568 2.03134 0
M  V30 1781 C 167.464 -0.00222433 1.661 0
M  V30 1782 O 168.649 0.159439 1.90133 0
M  V30 1783 C 165.789 0.745231 3.36957 0
M  V30 1784 C 164.902 1.92041 3.86968 0
M  V30 1785 C 164.037 1.51216 5.09222 0
M  V30 1786 C 163.076 2.65504 5.5152 0
M  V30 1787 N 162.213 2.25291 6.64972 0
M  V30 1788 H 167.053 2.03708 2.17502 0
M  V30 1789 H 164.59 1.01411 1.06556 0
M  V30 1790 H 166.548 0.522878 4.1391 0
M  V30 1791 H 165.178 -0.159202 3.22407 0
M  V30 1792 H 164.23 2.25541 3.06326 0
M  V30 1793 H 165.542 2.77787 4.1429 0
M  V30 1794 H 164.696 1.25084 5.93666 0
M  V30 1795 H 163.435 0.625749 4.83669 0
M  V30 1796 H 162.44 2.92354 4.65628 0
M  V30 1797 H 163.665 3.54761 5.7907 0
M  V30 1798 H 161.611 1.39098 6.41083 0
M  V30 1799 H 161.528 3.04577 6.91931 0
M  V30 1800 H 162.796 2.02398 7.52765 0
M  V30 1801 N 167.025 -1.13721 1.09112 0
M  V30 1802 C 167.988 -2.17222 0.731241 0
M  V30 1803 C 168.988 -1.59035 -0.237566 0
M  V30 1804 O 170.178 -1.74192 -0.0161704 0
M  V30 1805 C 167.31 -3.40804 0.0808443 0
M  V30 1806 H 168.503 -2.50573 1.64783 0
M  V30 1807 H 166.056 -1.28493 0.889897 0
M  V30 1808 H 166.791 -3.1304 -0.847127 0
M  V30 1809 H 166.576 -3.84306 0.777896 0
M  V30 1810 H 168.066 -4.1731 -0.155657 0
M  V30 1811 N 168.503 -0.877838 -1.30888 0
M  V30 1812 C 169.749 -0.493426 -1.96706 0
M  V30 1813 C 170.082 0.953504 -1.6918 0
M  V30 1814 O 169.357 1.67266 -0.992594 0
M  V30 1815 C 169.64 -0.760429 -3.51979 0
M  V30 1816 C 169.493 -2.25747 -3.89048 0
M  V30 1817 C 170.812 -0.232148 -4.39487 0
M  V30 1818 H 167.931 -0.180746 -0.714493 0
M  V30 1819 H 170.573 -1.10052 -1.54882 0
M  V30 1820 H 168.723 -0.243715 -3.87735 0
M  V30 1821 H 170.395 -2.84204 -3.63354 0
M  V30 1822 H 168.638 -2.72694 -3.37373 0
M  V30 1823 H 169.309 -2.39491 -4.97341 0
M  V30 1824 H 171.785 -0.674314 -4.106 0
M  V30 1825 H 170.661 -0.448355 -5.47066 0
M  V30 1826 H 170.922 0.866297 -4.33529 0
M  V30 1827 N 169.982 1.44106 -0.638065 0
M  V30 1828 C 171.393 1.85316 -0.226894 0
M  V30 1829 C 171.744 1.53399 1.22324 0
M  V30 1830 O 170.869 0.975463 1.93167 0
M  V30 1831 C 171.464 3.3637 -0.405013 0
M  V30 1832 C 170.023 3.76369 -0.0482902 0
M  V30 1833 C 169.17 2.67921 -0.715108 0
M  V30 1834 H 172.121 1.34474 -0.842764 0
M  V30 1835 H 172.142 3.7885 0.354 0
M  V30 1836 H 171.654 3.59569 -1.46053 0
M  V30 1837 H 169.755 3.58784 1.00522 0
M  V30 1838 H 169.868 4.76856 -0.463187 0
M  V30 1839 H 168.232 2.54259 -0.149753 0
M  V30 1840 H 169.015 2.93951 -1.77335 0
M  V30 1841 N 171.46 0.379036 1.52974 0
M  V30 1842 C 172.37 -0.468639 2.29872 0
M  V30 1843 C 173.386 -1.08067 1.36373 0
M  V30 1844 O 174.562 -1.08871 1.69438 0
M  V30 1845 C 171.627 -1.58594 3.083 0
M  V30 1846 C 170.688 -1.00007 4.17489 0
M  V30 1847 C 169.921 -2.06413 4.92168 0
M  V30 1848 O 170.144 -3.27751 4.66835 0
M  V30 1849 O 169.078 -1.68717 5.7777 0
M  V30 1850 H 172.904 0.157508 3.03291 0
M  V30 1851 H 170.489 0.143035 1.48714 0
M  V30 1852 H 172.371 -2.23525 3.57232 0
M  V30 1853 H 171.046 -2.19724 2.37703 0
M  V30 1854 H 169.953 -0.314299 3.72777 0
M  V30 1855 H 171.286 -0.433135 4.90291 0
M  V30 1856 N 172.938 -1.57226 0.108567 0
M  V30 1857 C 173.868 -2.17778 -0.84232 0
M  V30 1858 C 174.849 -1.11487 -1.2847 0
M  V30 1859 O 176.034 -1.39681 -1.34918 0
M  V30 1860 C 173.164 -2.76888 -2.09644 0
M  V30 1861 C 172.118 -3.88669 -1.79221 0
M  V30 1862 C 171.444 -4.34541 -3.11574 0
M  V30 1863 C 172.744 -5.11251 -1.06864 0
M  V30 1864 H 174.438 -2.97489 -0.337774 0
M  V30 1865 H 171.984 -1.43097 -0.161025 0
M  V30 1866 H 173.937 -3.17904 -2.76614 0
M  V30 1867 H 172.661 -1.94451 -2.62405 0
M  V30 1868 H 171.32 -3.48213 -1.14644 0
M  V30 1869 H 170.968 -3.48977 -3.62249 0
M  V30 1870 H 170.668 -5.09914 -2.91996 0
M  V30 1871 H 172.192 -4.782 -3.7968 0
M  V30 1872 H 173.606 -5.49352 -1.63968 0
M  V30 1873 H 172.003 -5.9214 -0.974178 0
M  V30 1874 H 173.073 -4.8487 -0.0536168 0
M  V30 1875 N 174.416 0.165178 -1.56732 0
M  V30 1876 C 175.656 0.887231 -1.8414 0
M  V30 1877 C 176.02 1.79159 -0.690353 0
M  V30 1878 O 177.221 2.55172 -0.845032 0
M  V30 1879 C 175.492 1.65674 -3.16681 0
M  V30 1880 S 177.051 2.42671 -3.6559 0
M  V30 1881 H 173.869 0.297042 -0.645978 0
M  V30 1882 H 176.471 0.148439 -1.94936 0
M  V30 1883 H 175.175 0.983507 -3.98441 0
M  V30 1884 H 174.706 2.43679 -3.08843 0
M  V30 1885 H 176.721 3.67499 -3.33406 0
M  V30 1886 N 175.894 1.51508 0.433938 0
M  V30 1887 C 177.143 1.63578 1.18005 0
M  V30 1888 C 177.456 0.359514 1.92268 0
M  V30 1889 O 178.662 0.359632 2.69108 0
M  V30 1890 C 177.118 2.88901 2.14626 0
M  V30 1891 C 176.726 4.23544 1.45995 0
M  V30 1892 C 178.47 3.10328 2.89649 0
M  V30 1893 C 176.377 5.40014 2.4112 0
M  V30 1894 H 175.307 0.609277 0.444182 0
M  V30 1895 H 177.958 1.77978 0.446773 0
M  V30 1896 H 176.34 2.68142 2.91403 0
M  V30 1897 H 177.514 4.54696 0.747532 0
M  V30 1898 H 175.829 4.08021 0.831115 0
M  V30 1899 H 178.426 3.94518 3.60915 0
M  V30 1900 H 178.769 2.23544 3.51189 0
M  V30 1901 H 179.302 3.31443 2.19978 0
M  V30 1902 H 176.041 6.29068 1.84264 0
M  V30 1903 H 175.561 5.13233 3.10406 0
M  V30 1904 H 177.24 5.72099 3.02177 0
M  V30 1905 N 177.372 -0.689602 1.41712 0
M  V30 1906 C 178.305 -1.81403 1.3845 0
M  V30 1907 C 179.283 -1.60653 0.250874 0
M  V30 1908 O 180.467 -1.83323 0.43874 0
M  V30 1909 C 177.594 -3.18176 1.1611 0
M  V30 1910 C 176.64 -3.57705 2.3227 0
M  V30 1911 S 177.473 -3.61827 3.94767 0
M  V30 1912 C 178.629 -5.01318 3.74742 0
M  V30 1913 H 178.862 -1.83893 2.33603 0
M  V30 1914 H 176.395 -0.858878 1.28307 0
M  V30 1915 H 178.353 -3.97132 1.03907 0
M  V30 1916 H 177.014 -3.13288 0.225668 0
M  V30 1917 H 176.207 -4.57082 2.12349 0
M  V30 1918 H 175.809 -2.86073 2.40911 0
M  V30 1919 H 178.101 -5.88986 3.34817 0
M  V30 1920 H 179.044 -5.26283 4.73743 0
M  V30 1921 H 179.452 -4.73138 3.07898 0
M  V30 1922 N 178.85 -1.27639 -0.924453 0
M  V30 1923 C 180.078 -1.16989 -1.70649 0
M  V30 1924 C 180.493 0.272869 -1.86818 0
M  V30 1925 O 179.85 1.18549 -1.38753 0
M  V30 1926 C 179.901 -1.85229 -3.10439 0
M  V30 1927 O 179.622 -3.23868 -2.95028 0
M  V30 1928 C 181.123 -1.80746 -4.04779 0
M  V30 1929 H 178.343 -0.406595 -0.53378 0
M  V30 1930 H 180.887 -1.68569 -1.15778 0
M  V30 1931 H 179.042 -1.37545 -3.6216 0
M  V30 1932 H 179.456 -3.57889 -3.83426 0
M  V30 1933 H 180.93 -2.33101 -5.00368 0
M  V30 1934 H 181.407 -0.777499 -4.32263 0
M  V30 1935 H 182.013 -2.28059 -3.58984 0
M  V30 1936 N 180.328 1.1314 -1.09713 0
M  V30 1937 C 181.605 1.80762 -0.747302 0
M  V30 1938 C 181.985 1.96663 0.767265 0
M  V30 1939 O 181.333 1.53706 1.69076 0
M  V30 1940 C 181.543 3.15606 -1.48975 0
M  V30 1941 C 182.891 3.90914 -1.65746 0
M  V30 1942 O 183.915 3.25239 -1.45251 0
M  V30 1943 O 182.774 5.08718 -1.9967 0
M  V30 1944 H 179.868 0.782103 -0.268782 0
M  V30 1945 H 182.414 1.20041 -1.19951 0
M  V30 1946 H 181.186 2.99278 -2.52088 0
M  V30 1947 H 180.809 3.84029 -1.02991 0
M  V30 1948 N 181.806 0.884767 1.30421 0
M  V30 1949 C 183.052 0.503851 1.96441 0
M  V30 1950 C 183.385 -0.944518 1.69684 0
M  V30 1951 O 182.66 -1.66737 1.00145 0
M  V30 1952 C 182.943 0.779085 3.51571 0
M  V30 1953 C 182.796 2.27807 3.87846 0
M  V30 1954 C 184.115 0.255452 4.39358 0
M  V30 1955 H 181.234 0.184533 0.713524 0
M  V30 1956 H 183.876 1.10872 1.54297 0
M  V30 1957 H 182.026 0.264274 3.876 0
M  V30 1958 H 183.698 2.86127 3.61841 0
M  V30 1959 H 181.941 2.74479 3.35922 0
M  V30 1960 H 182.612 2.42125 4.96064 0
M  V30 1961 H 185.088 0.696079 4.10236 0
M  V30 1962 H 183.964 0.477361 5.4682 0
M  V30 1963 H 184.225 -0.843293 4.33983 0
M  V30 1964 N 183.284 -1.43765 0.645699 0
M  V30 1965 C 184.247 -2.29163 -0.0409488 0
M  V30 1966 C 185.247 -1.41813 -0.757996 0
M  V30 1967 O 186.437 -1.63527 -0.600382 0
M  V30 1968 C 183.569 -3.23716 -1.06869 0
M  V30 1969 H 184.762 -2.91366 0.710345 0
M  V30 1970 H 182.315 -1.5092 0.406547 0
M  V30 1971 H 183.05 -2.66393 -1.84947 0
M  V30 1972 H 182.835 -3.88105 -0.558277 0
M  V30 1973 H 184.325 -3.87831 -1.54845 0
M  V30 1974 N 184.763 -0.387143 -1.52771 0
M  V30 1975 C 185.693 0.440551 -2.29306 0
M  V30 1976 C 186.674 1.06535 -1.32606 0
M  V30 1977 O 187.859 1.07853 -1.61497 0
M  V30 1978 C 184.989 1.56919 -3.09829 0
M  V30 1979 C 183.943 1.07054 -4.14395 0
M  V30 1980 C 183.269 2.29109 -4.83129 0
M  V30 1981 C 184.569 0.140015 -5.22112 0
M  V30 1982 H 186.263 -0.198026 -2.98744 0
M  V30 1983 H 183.809 -0.09668 -1.43675 0
M  V30 1984 H 185.762 2.15503 -3.62128 0
M  V30 1985 H 184.486 2.23532 -2.3812 0
M  V30 1986 H 183.145 0.507247 -3.63074 0
M  V30 1987 H 182.793 2.94227 -4.0797 0
M  V30 1988 H 182.493 1.96406 -5.53804 0
M  V30 1989 H 184.017 2.88339 -5.38231 0
M  V30 1990 H 185.431 0.633978 -5.69784 0
M  V30 1991 H 183.828 -0.0971485 -6.00021 0
M  V30 1992 H 184.898 -0.811711 -4.78058 0
M  V30 1993 N 186.241 1.57166 -0.116904 0
M  V30 1994 C 187.518 1.86645 0.585049 0
M  V30 1995 C 187.898 1.0177 1.84949 0
M  V30 1996 O 187.246 0.0960379 2.28298 0
M  V30 1997 C 187.456 3.37736 0.879507 0
M  V30 1998 C 188.804 4.06289 1.23348 0
M  V30 1999 O 189.828 3.42743 0.969836 0
M  V30 2000 O 188.687 5.18455 1.7282 0
M  V30 2001 H 185.781 0.772593 0.295007 0
M  V30 2002 H 188.327 1.69025 -0.151249 0
M  V30 2003 H 187.099 3.91296 -0.0166136 0
M  V30 2004 H 186.722 3.6078 1.67103 0
M  V30 2005 N 187.719 -0.156864 1.56817 0
M  V30 2006 C 189.13 -0.717916 1.72345 0
M  V30 2007 C 189.481 -1.82124 0.729747 0
M  V30 2008 O 188.606 -2.16141 -0.105781 0
M  V30 2009 C 189.201 -1.30904 3.12489 0
M  V30 2010 C 187.76 -1.81676 3.29653 0
M  V30 2011 C 186.907 -0.701349 2.68284 0
M  V30 2012 H 189.858 0.0686989 1.58551 0
M  V30 2013 H 189.879 -2.17882 3.11942 0
M  V30 2014 H 189.391 -0.505796 3.8479 0
M  V30 2015 H 187.492 -2.64598 2.62333 0
M  V30 2016 H 187.605 -1.95226 4.3752 0
M  V30 2017 H 185.969 -1.12548 2.28484 0
M  V30 2018 H 186.752 0.0902846 3.43181 0
M  V30 2019 N 189.197 -1.51736 -0.425897 0
M  V30 2020 C 190.444 -1.6497 -1.17436 0
M  V30 2021 C 190.772 -0.371445 -1.9092 0
M  V30 2022 O 190.027 0.644963 -1.84767 0
M  V30 2023 C 190.326 -2.81103 -2.20717 0
M  V30 2024 C 189.992 -4.19954 -1.64162 0
M  V30 2025 C 188.654 -4.57725 -1.48462 0
M  V30 2026 C 191.006 -5.06552 -1.22696 0
M  V30 2027 C 188.334 -5.79789 -0.897873 0
M  V30 2028 C 190.686 -6.29205 -0.654464 0
M  V30 2029 C 189.35 -6.6574 -0.484456 0
M  V30 2030 H 188.62 -0.603668 -0.429727 0
M  V30 2031 H 191.267 -1.85798 -0.463829 0
M  V30 2032 H 189.572 -2.54542 -2.97852 0
M  V30 2033 H 191.269 -2.8854 -2.78471 0
M  V30 2034 H 187.859 -3.90181 -1.77361 0
M  V30 2035 H 192.043 -4.77968 -1.33642 0
M  V30 2036 H 187.299 -6.06733 -0.75402 0
M  V30 2037 H 191.473 -6.95643 -0.324694 0
M  V30 2038 H 189.1 -7.60195 -0.0276833 0
M  V30 2039 N 190.675 0.682077 -1.42076 0
M  V30 2040 C 191.903 1.47057 -1.4554 0
M  V30 2041 C 192.318 1.8869 -0.0645779 0
M  V30 2042 O 191.675 1.57666 0.919115 0
M  V30 2043 C 191.726 2.72442 -2.37609 0
M  V30 2044 O 191.447 2.32559 -3.71279 0
M  V30 2045 C 192.948 3.66069 -2.50017 0
M  V30 2046 H 190.168 0.452737 -0.495248 0
M  V30 2047 H 192.712 0.838695 -1.8651 0
M  V30 2048 H 190.867 3.31835 -1.9991 0
M  V30 2049 H 191.281 3.13475 -4.20516 0
M  V30 2050 H 192.755 4.50792 -3.18576 0
M  V30 2051 H 193.232 4.11476 -1.53572 0
M  V30 2052 H 193.838 3.12572 -2.88407 0
M  V30 2053 N 192.153 1.28127 0.917671 0
M  V30 2054 C 193.564 1.13622 1.48145 0
M  V30 2055 C 193.915 -0.275207 1.9426 0
M  V30 2056 O 193.04 -1.1691 1.82102 0
M  V30 2057 C 193.635 2.05648 2.69248 0
M  V30 2058 C 192.194 1.95219 3.21818 0
M  V30 2059 C 191.341 1.97618 1.94532 0
M  V30 2060 H 194.292 1.40874 0.730772 0
M  V30 2061 H 194.313 1.61818 3.44377 0
M  V30 2062 H 193.825 3.08365 2.35653 0
M  V30 2063 H 191.926 0.955244 3.60147 0
M  V30 2064 H 192.039 2.81976 3.87333 0
M  V30 2065 H 190.403 1.41973 2.11461 0
M  V30 2066 H 191.186 3.02007 1.63238 0
M  V30 2067 N 193.631 -1.12557 1.10312 0
M  V30 2068 C 194.878 -1.84038 0.844759 0
M  V30 2069 C 195.206 -1.84026 -0.629668 0
M  V30 2070 O 194.461 -1.28026 -1.48013 0
M  V30 2071 C 194.76 -3.31462 1.33669 0
M  V30 2072 C 194.426 -3.51647 2.82232 0
M  V30 2073 C 193.088 -3.56864 3.22802 0
M  V30 2074 C 195.44 -3.58867 3.77974 0
M  V30 2075 C 192.768 -3.66844 4.57867 0
M  V30 2076 C 195.12 -3.70375 5.1284 0
M  V30 2077 C 193.784 -3.73848 5.52986 0
M  V30 2078 H 193.054 -0.673444 0.309119 0
M  V30 2079 H 195.701 -1.32824 1.37949 0
M  V30 2080 H 194.006 -3.85091 0.721949 0
M  V30 2081 H 195.703 -3.85236 1.11329 0
M  V30 2082 H 192.293 -3.48249 2.49842 0
M  V30 2083 H 196.477 -3.54107 3.47738 0
M  V30 2084 H 191.733 -3.67804 4.88396 0
M  V30 2085 H 195.907 -3.74904 5.86873 0
M  V30 2086 H 193.534 -3.81333 6.57639 0
M  V30 2087 N 195.109 -0.891671 -1.2995 0
M  V30 2088 C 196.357 -0.512486 -1.95494 0
M  V30 2089 C 196.678 0.942776 -1.70695 0
M  V30 2090 O 195.948 1.66374 -1.03424 0
M  V30 2091 H 194.528 -0.186533 -0.723336 0
M  V30 2092 H 197.19 -1.13621 -1.58355 0
M  V30 2093 H 196.286 -0.688342 -3.04415 0
M  V30 2094 N 196.587 1.43421 -0.653314 0
M  V30 2095 C 197.537 2.2792 0.060558 0
M  V30 2096 C 198.521 1.39906 0.794677 0
M  V30 2097 O 199.713 1.63536 0.677128 0
M  V30 2098 C 196.842 3.27603 1.0262 0
M  V30 2099 C 195.928 4.23104 0.290551 0
M  V30 2100 N 196.319 5.01031 -0.692967 0
M  V30 2101 C 194.617 4.42816 0.531984 0
M  V30 2102 C 195.318 5.70626 -1.12963 0
M  V30 2103 N 194.294 5.41617 -0.463867 0
M  V30 2104 H 198.096 2.85585 -0.694143 0
M  V30 2105 H 195.61 1.55126 -0.480602 0
M  V30 2106 H 197.607 3.86918 1.55242 0
M  V30 2107 H 196.267 2.71499 1.78096 0
M  V30 2108 H 197.278 5.0669 -1.07169 0
M  V30 2109 H 193.955 3.97782 1.26791 0
M  V30 2110 H 195.345 6.4318 -1.94343 0
M  V30 2111 N 198.065 0.39524 1.52563 0
M  V30 2112 C 199.342 -0.242908 1.94086 0
M  V30 2113 C 199.722 -1.63841 1.33114 0
M  V30 2114 O 199.07 -2.22928 0.501529 0
M  V30 2115 C 199.28 -0.26327 3.48006 0
M  V30 2116 C 200.628 -0.489354 4.21771 0
M  V30 2117 O 201.652 -0.343226 3.54543 0
M  V30 2118 O 200.511 -0.776169 5.4096 0
M  V30 2119 H 197.605 -0.152536 0.812811 0
M  V30 2120 H 200.151 0.450178 1.6362 0
M  V30 2121 H 198.923 0.713985 3.84731 0
M  V30 2122 H 198.546 -1.00103 3.84792 0
M  V30 2123 N 199.544 -1.57102 0.125237 0
M  V30 2124 C 200.792 -1.95021 -0.530198 0
M  V30 2125 C 201.113 -1.00982 -1.66816 0
M  V30 2126 O 200.383 -0.0672693 -1.95784 0
M  V30 2127 H 198.963 -0.720046 -0.198853 0
M  V30 2128 H 201.625 -1.93916 0.19564 0
M  V30 2129 H 200.721 -2.98211 -0.920681 0
M  V30 2130 N 201.022 0.148545 -1.56898 0
M  V30 2131 C 201.952 1.18524 -2.01182 0
M  V30 2132 C 202.933 1.4489 -0.891123 0
M  V30 2133 O 204.118 1.55836 -1.15882 0
M  V30 2134 C 201.248 2.51879 -2.39112 0
M  V30 2135 C 200.202 2.40038 -3.54353 0
M  V30 2136 C 199.528 3.78089 -3.78091 0
M  V30 2137 C 200.828 1.88577 -4.87069 0
M  V30 2138 H 202.522 0.817029 -2.88036 0
M  V30 2139 H 200.068 0.391575 -1.38574 0
M  V30 2140 H 202.021 3.24627 -2.68692 0
M  V30 2141 H 200.745 2.90532 -1.49193 0
M  V30 2142 H 199.404 1.69742 -3.24936 0
M  V30 2143 H 199.052 4.14175 -2.85426 0
M  V30 2144 H 198.752 3.71028 -4.55645 0
M  V30 2145 H 200.276 4.52387 -4.10095 0
M  V30 2146 H 201.69 2.51117 -5.15377 0
M  V30 2147 H 200.087 1.9241 -5.68417 0
M  V30 2148 H 201.157 0.84136 -4.77545 0
M  V30 2149 N 202.5 1.5196 0.417844 0
M  V30 2150 C 203.746 1.65836 1.16732 0
M  V30 2151 C 204.079 0.382881 1.90388 0
M  V30 2152 O 203.354 -0.618368 1.84408 0
M  V30 2153 C 203.637 2.87466 2.16876 0
M  V30 2154 C 203.49 4.25041 1.47174 0
M  V30 2155 C 204.809 3.04613 3.17646 0
M  V30 2156 H 201.928 0.603515 0.423011 0
M  V30 2157 H 204.57 1.84494 0.454105 0
M  V30 2158 H 202.72 2.71689 2.777 0
M  V30 2159 H 204.392 4.52527 0.895376 0
M  V30 2160 H 202.635 4.26843 0.773806 0
M  V30 2161 H 203.306 5.06176 2.20204 0
M  V30 2162 H 205.782 3.1923 2.66892 0
M  V30 2163 H 204.658 3.91247 3.8499 0
M  V30 2164 H 204.919 2.17541 3.84874 0
M  V30 2165 N 203.978 -0.674533 1.42435 0
M  V30 2166 C 204.925 -1.78807 1.45934 0
M  V30 2167 C 205.895 -1.63157 0.311271 0
M  V30 2168 O 207.08 -1.83707 0.515383 0
M  V30 2169 C 204.22 -3.16839 1.36773 0
M  V30 2170 C 203.333 -3.43774 2.61617 0
M  V30 2171 C 202.468 -4.71536 2.44597 0
M  V30 2172 C 201.507 -4.91505 3.64814 0
M  V30 2173 N 200.644 -6.10508 3.46734 0
M  V30 2174 H 205.484 -1.75151 2.41093 0
M  V30 2175 H 203.021 -0.85504 1.19697 0
M  V30 2176 H 204.979 -3.96606 1.29459 0
M  V30 2177 H 203.609 -3.19619 0.452089 0
M  V30 2178 H 202.661 -2.58259 2.79297 0
M  V30 2179 H 203.973 -3.54423 3.50978 0
M  V30 2180 H 203.127 -5.59393 2.3487 0
M  V30 2181 H 201.866 -4.6317 1.52726 0
M  V30 2182 H 200.871 -4.0209 3.74972 0
M  V30 2183 H 202.096 -5.01716 4.57665 0
M  V30 2184 H 200.042 -6.03315 2.5758 0
M  V30 2185 H 199.959 -6.2202 4.29682 0
M  V30 2186 H 201.227 -7.01044 3.40819 0
M  V30 2187 N 205.456 -1.28612 -0.910864 0
M  V30 2188 C 206.733 -1.06632 -1.63979 0
M  V30 2189 C 207.113 0.393351 -2.07403 0
M  V30 2190 O 206.461 1.37999 -1.82122 0
M  V30 2191 C 206.671 -2.0436 -2.8291 0
M  V30 2192 C 208.019 -2.34666 -3.5386 0
M  V30 2193 O 209.043 -2.02467 -2.93062 0
M  V30 2194 O 207.902 -2.89631 -4.63439 0
M  V30 2195 H 204.996 -0.407737 -0.7195 0
M  V30 2196 H 207.542 -1.39942 -0.959914 0
M  V30 2197 H 206.314 -3.02727 -2.47936 0
M  V30 2198 H 205.937 -1.71714 -3.58609 0
M  V30 2199 N 206.934 1.1197 -1.10907 0
M  V30 2200 C 208.182 1.83225 -0.852819 0
M  V30 2201 C 208.503 1.84769 0.623341 0
M  V30 2202 O 207.773 1.3143 1.45269 0
M  V30 2203 H 206.353 0.67849 -0.312507 0
M  V30 2204 H 209.015 1.3556 -1.40033 0
M  V30 2205 H 208.111 2.87265 -1.22005 0
M  V30 2206 N 208.412 0.89855 1.29475 0
M  V30 2207 C 209.661 0.519863 1.94885 0
M  V30 2208 C 209.974 -0.9383 1.71625 0
M  V30 2209 O 211.18 -1.42445 2.31131 0
M  V30 2210 C 209.636 0.878836 3.49005 0
M  V30 2211 C 209.244 2.35569 3.81066 0
M  V30 2212 C 210.988 0.570004 4.20656 0
M  V30 2213 C 208.895 2.65558 5.28425 0
M  V30 2214 H 207.825 0.190692 0.729488 0
M  V30 2215 H 210.476 1.09539 1.47219 0
M  V30 2216 H 208.858 0.232253 3.95318 0
M  V30 2217 H 210.032 3.04773 3.45616 0
M  V30 2218 H 208.347 2.63343 3.22552 0
M  V30 2219 H 210.944 0.770925 5.29113 0
M  V30 2220 H 211.287 -0.491404 4.1339 0
M  V30 2221 H 211.82 1.17438 3.8007 0
M  V30 2222 H 208.559 3.70493 5.40754 0
M  V30 2223 H 208.079 2.00977 5.65127 0
M  V30 2224 H 209.758 2.51765 5.96006 0
M  V30 2225 N 209.89 -1.43072 0.660911 0
M  V30 2226 C 211.139 -2.00942 0.174735 0
M  V30 2227 C 211.452 -1.52797 -1.22117 0
M  V30 2228 O 212.658 -2.02991 -1.80297 0
M  V30 2229 C 211.114 -3.58948 0.261559 0
M  V30 2230 C 210.722 -4.16085 1.66064 0
M  V30 2231 C 212.466 -4.24173 -0.166617 0
M  V30 2232 C 210.373 -5.6641 1.70098 0
M  V30 2233 H 209.303 -0.751483 0.0615631 0
M  V30 2234 H 211.954 -1.63955 0.824069 0
M  V30 2235 H 210.336 -3.93372 -0.455421 0
M  V30 2236 H 211.51 -3.93147 2.40359 0
M  V30 2237 H 209.825 -3.6326 2.03546 0
M  V30 2238 H 212.422 -5.34471 -0.156433 0
M  V30 2239 H 212.765 -3.98647 -1.19943 0
M  V30 2240 H 213.298 -3.94659 0.498875 0
M  V30 2241 H 210.037 -5.96715 2.71315 0
M  V30 2242 H 209.557 -5.91382 1.00139 0
M  V30 2243 H 211.236 -6.30585 1.44816 0
M  V30 2244 N 211.368 -0.403325 -1.52352 0
M  V30 2245 C 212.298 0.416205 -2.29761 0
M  V30 2246 C 213.279 1.05123 -1.33728 0
M  V30 2247 O 214.464 1.06134 -1.62632 0
M  V30 2248 C 211.594 1.53624 -3.11475 0
M  V30 2249 C 210.548 1.02653 -4.15507 0
M  V30 2250 C 209.874 2.23971 -4.85532 0
M  V30 2251 C 211.174 0.08463 -5.22231 0
M  V30 2252 H 212.868 -0.229701 -2.98518 0
M  V30 2253 H 210.414 -0.111913 -1.43564 0
M  V30 2254 H 212.367 2.1165 -3.64393 0
M  V30 2255 H 211.091 2.20994 -2.40477 0
M  V30 2256 H 209.75 0.46871 -3.63591 0
M  V30 2257 H 209.398 2.89883 -4.11068 0
M  V30 2258 H 209.098 1.90521 -5.55856 0
M  V30 2259 H 210.622 2.82614 -5.41259 0
M  V30 2260 H 212.036 0.573509 -5.70424 0
M  V30 2261 H 210.433 -0.160783 -5.99885 0
M  V30 2262 H 211.503 -0.86237 -4.7717 0
M  V30 2263 N 212.846 1.57033 -0.133567 0
M  V30 2264 C 213.794 2.17348 0.828412 0
M  V30 2265 C 214.788 1.12671 1.26498 0
M  V30 2266 O 215.994 1.30947 1.23502 0
M  V30 2267 H 212.369 0.695775 0.285309 0
M  V30 2268 H 214.34 2.96935 0.295372 0
M  V30 2269 C 213.089 2.79893 2.06289 0
M  V30 2270 H 212.412 3.60147 1.73592 0
M  V30 2271 H 213.852 3.25615 2.71572 0
M  V30 2272 C 212.311 1.77713 2.86216 0
M  V30 2273 O 212.841 1.23937 3.82103 0
M  V30 2274 N 211.047 1.47321 2.50489 0
M  V30 2275 H 210.594 1.91243 1.7258 0
M  V30 2276 H 210.552 0.79199 3.04261 0
M  V30 2277 N 214.325 -0.140222 1.56975 0
M  V30 2278 C 215.602 -0.880769 1.74648 0
M  V30 2279 C 215.982 -1.99036 0.703404 0
M  V30 2280 O 215.33 -2.26821 -0.27648 0
M  V30 2281 C 215.54 -1.417 3.18939 0
M  V30 2282 C 216.888 -1.87774 3.80823 0
M  V30 2283 O 217.912 -1.51427 3.2241 0
M  V30 2284 O 216.771 -2.54827 4.83452 0
M  V30 2285 H 213.865 -0.416713 0.714338 0
M  V30 2286 H 216.411 -0.125618 1.69234 0
M  V30 2287 H 215.183 -0.619902 3.86359 0
M  V30 2288 H 214.806 -2.23546 3.28805 0
M  V30 2289 N 215.803 -1.52179 -0.40978 0
M  V30 2290 C 216.713 -1.78364 -1.52392 0
M  V30 2291 C 217.729 -0.669183 -1.60617 0
M  V30 2292 O 218.905 -0.954518 -1.77344 0
M  V30 2293 C 215.97 -1.92822 -2.88133 0
M  V30 2294 C 215.031 -3.16725 -2.898 0
M  V30 2295 C 214.264 -3.30483 -4.19067 0
M  V30 2296 O 214.487 -2.49522 -5.12928 0
M  V30 2297 O 213.421 -4.2363 -4.27576 0
M  V30 2298 H 217.247 -2.72931 -1.33201 0
M  V30 2299 H 214.832 -1.37016 -0.59557 0
M  V30 2300 H 216.714 -2.04157 -3.68643 0
M  V30 2301 H 215.389 -1.01444 -3.07393 0
M  V30 2302 H 214.296 -3.10848 -2.08146 0
M  V30 2303 H 215.629 -4.07881 -2.75489 0
M  V30 2304 N 217.281 0.66697 -1.42791 0
M  V30 2305 C 218.509 1.45505 -1.47091 0
M  V30 2306 C 218.924 1.8861 -0.0845873 0
M  V30 2307 O 218.281 1.58632 0.90234 0
M  V30 2308 C 218.332 2.69906 -2.40485 0
M  V30 2309 O 218.053 2.28608 -3.73725 0
M  V30 2310 C 219.554 3.63396 -2.53886 0
M  V30 2311 H 216.774 0.447459 -0.500022 0
M  V30 2312 H 219.318 0.818866 -1.8739 0
M  V30 2313 H 217.473 3.29696 -2.03419 0
M  V30 2314 H 217.887 3.08997 -4.23817 0
M  V30 2315 H 219.361 4.47387 -3.2334 0
M  V30 2316 H 219.838 4.09824 -1.57927 0
M  V30 2317 H 220.444 3.09495 -2.91706 0
M  V30 2318 N 218.759 1.29093 0.90403 0
M  V30 2319 C 220.005 1.16986 1.65656 0
M  V30 2320 C 220.338 -0.278925 1.92186 0
M  V30 2321 O 219.613 -1.2019 1.5292 0
M  V30 2322 C 219.896 1.97908 3.0084 0
M  V30 2323 C 219.749 3.50903 2.81403 0
M  V30 2324 C 221.068 1.80208 4.01513 0
M  V30 2325 H 218.187 0.426346 0.601164 0
M  V30 2326 H 220.829 1.58518 1.04747 0
M  V30 2327 H 218.979 1.62616 3.52829 0
M  V30 2328 H 220.651 3.96153 2.36348 0
M  V30 2329 H 218.894 3.76045 2.1627 0
M  V30 2330 H 219.565 4.02791 3.77443 0
M  V30 2331 H 222.041 2.11025 3.58619 0
M  V30 2332 H 220.917 2.39184 4.94047 0
M  V30 2333 H 221.178 0.756119 4.35586 0
M  V30 2334 N 220.237 -1.11381 1.11499 0
M  V30 2335 C 221.147 -2.21019 0.786628 0
M  V30 2336 C 222.163 -1.72597 -0.220507 0
M  V30 2337 O 223.339 -2.01321 -0.0565251 0
M  V30 2338 C 220.404 -3.459 0.235333 0
M  V30 2339 C 219.465 -4.09107 1.30115 0
M  V30 2340 C 218.698 -5.28027 0.776068 0
M  V30 2341 O 218.921 -5.6904 -0.393661 0
M  V30 2342 O 217.855 -5.81835 1.54114 0
M  V30 2343 H 221.681 -2.51521 1.70209 0
M  V30 2344 H 219.266 -1.19928 0.890928 0
M  V30 2345 H 221.148 -4.21346 -0.067715 0
M  V30 2346 H 219.823 -3.17049 -0.652828 0
M  V30 2347 H 218.73 -3.35391 1.65722 0
M  V30 2348 H 220.063 -4.42139 2.16273 0
M  V30 2349 N 221.715 -0.905404 -1.28997 0
M  V30 2350 C 222.961 -0.535039 -1.95615 0
M  V30 2351 C 223.294 0.917404 -1.71165 0
M  V30 2352 O 222.569 1.65123 -1.02785 0
M  V30 2353 C 222.852 -0.834918 -3.50287 0
M  V30 2354 C 222.705 -2.33948 -3.84172 0
M  V30 2355 C 224.024 -0.325318 -4.38896 0
M  V30 2356 H 221.143 -0.195861 -0.710498 0
M  V30 2357 H 223.785 -1.13313 -1.52513 0
M  V30 2358 H 221.935 -0.325904 -3.87131 0
M  V30 2359 H 223.607 -2.91847 -3.57243 0
M  V30 2360 H 221.85 -2.79789 -3.31513 0
M  V30 2361 H 222.521 -2.49987 -4.92149 0
M  V30 2362 H 224.997 -0.761256 -4.09077 0
M  V30 2363 H 223.873 -0.564295 -5.45992 0
M  V30 2364 H 224.134 0.774144 -4.35269 0
M  V30 2365 N 223.193 1.4272 -0.668489 0
M  V30 2366 C 224.123 2.335 -0.000100175 0
M  V30 2367 C 225.104 1.50328 0.795964 0
M  V30 2368 O 226.289 1.78949 0.754385 0
M  V30 2369 C 223.419 3.33874 0.956302 0
M  V30 2370 C 222.373 4.27152 0.269278 0
M  V30 2371 C 221.699 5.17684 1.33818 0
M  V30 2372 C 222.999 5.15373 -0.847805 0
M  V30 2373 H 224.693 2.89639 -0.758244 0
M  V30 2374 H 222.239 1.39269 -0.366079 0
M  V30 2375 H 224.192 3.9629 1.43292 0
M  V30 2376 H 222.916 2.76025 1.74579 0
M  V30 2377 H 221.575 3.66123 -0.187042 0
M  V30 2378 H 221.223 4.56165 2.1195 0
M  V30 2379 H 220.923 5.80918 0.883659 0
M  V30 2380 H 222.447 5.82974 1.81586 0
M  V30 2381 H 223.861 5.7151 -0.452681 0
M  V30 2382 H 222.258 5.87407 -1.22773 0
M  V30 2383 H 223.328 4.5415 -1.69929 0
M  V30 2384 N 224.671 0.411399 1.52136 0
M  V30 2385 C 225.603 -0.448386 2.24771 0
M  V30 2386 C 226.616 -1.00828 1.27818 0
M  V30 2387 O 227.805 -0.906841 1.53749 0
M  V30 2388 C 224.905 -1.63636 2.96777 0
M  V30 2389 C 224.078 -1.19995 4.20618 0
M  V30 2390 C 223.137 -2.25509 4.75428 0
M  V30 2391 O 222.163 -1.86007 5.3795 0
M  V30 2392 N 223.365 -3.577 4.57199 0
M  V30 2393 H 226.13 0.174025 2.99194 0
M  V30 2394 H 223.691 0.238897 1.60128 0
M  V30 2395 H 225.683 -2.33793 3.30338 0
M  V30 2396 H 224.253 -2.16465 2.25526 0
M  V30 2397 H 223.473 -0.326421 3.92846 0
M  V30 2398 H 224.761 -0.885365 5.01038 0
M  V30 2399 H 224.159 -3.92543 4.07341 0
M  V30 2400 H 222.716 -4.23827 4.95191 0
M  V30 2401 N 226.149 -1.5696 0.141893 0
M  V30 2402 C 227.096 -2.16501 -0.799737 0
M  V30 2403 C 228.066 -1.09643 -1.24771 0
M  V30 2404 O 229.251 -1.3766 -1.32115 0
M  V30 2405 C 226.391 -2.78679 -2.03549 0
M  V30 2406 C 225.504 -3.99914 -1.6338 0
M  V30 2407 C 224.639 -4.50106 -2.82096 0
M  V30 2408 C 223.678 -5.63819 -2.38275 0
M  V30 2409 N 222.815 -6.08651 -3.49983 0
M  V30 2410 H 227.655 -2.96632 -0.285179 0
M  V30 2411 H 225.192 -1.46533 -0.129053 0
M  V30 2412 H 227.15 -3.1287 -2.75986 0
M  V30 2413 H 225.78 -2.012 -2.52425 0
M  V30 2414 H 224.832 -3.71735 -0.807279 0
M  V30 2415 H 226.144 -4.82311 -1.27192 0
M  V30 2416 H 225.298 -4.86325 -3.62729 0
M  V30 2417 H 224.037 -3.66706 -3.21525 0
M  V30 2418 H 223.042 -5.2718 -1.56081 0
M  V30 2419 H 224.267 -6.49 -1.99938 0
M  V30 2420 H 222.213 -5.28188 -3.89042 0
M  V30 2421 H 222.13 -6.85961 -3.17794 0
M  V30 2422 H 223.398 -6.49515 -4.30988 0
M  V30 2423 N 227.627 0.131896 -1.57047 0
M  V30 2424 C 228.56 1.19236 -1.94571 0
M  V30 2425 C 229.538 1.40782 -0.813576 0
M  V30 2426 O 230.722 1.55148 -1.07058 0
M  V30 2427 C 227.849 2.54858 -2.23081 0
M  V30 2428 C 226.895 2.49817 -3.45679 0
M  V30 2429 S 227.728 1.95036 -4.98719 0
M  V30 2430 C 228.884 3.32357 -5.30367 0
M  V30 2431 H 229.117 0.872297 -2.84215 0
M  V30 2432 H 226.65 0.338134 -1.50652 0
M  V30 2433 H 228.608 3.32898 -2.40185 0
M  V30 2434 H 227.269 2.84047 -1.34074 0
M  V30 2435 H 226.462 3.49688 -3.62952 0
M  V30 2436 H 226.064 1.79892 -3.27895 0
M  V30 2437 H 228.356 4.28525 -5.2476 0
M  V30 2438 H 229.299 3.19923 -6.31708 0
M  V30 2439 H 229.707 3.3019 -4.57859 0
M  V30 2440 N 229.106 1.52395 0.401703 0
M  V30 2441 C 230.069 1.75636 1.47257 0
M  V30 2442 C 231.069 0.62628 1.48103 0
M  V30 2443 O 232.259 0.894227 1.49497 0
M  V30 2444 C 229.391 1.84553 2.86624 0
M  V30 2445 H 230.584 2.71241 1.27938 0
M  V30 2446 H 228.137 1.42923 0.632662 0
M  V30 2447 H 228.872 0.908882 3.11303 0
M  V30 2448 H 228.657 2.66715 2.87412 0
M  V30 2449 H 230.147 2.04251 3.64241 0
M  V30 2450 N 230.584 -0.659388 1.43143 0
M  V30 2451 C 231.83 -1.42145 1.44647 0
M  V30 2452 C 232.163 -1.9408 0.0681907 0
M  V30 2453 O 231.438 -1.71899 -0.910007 0
M  V30 2454 C 231.721 -2.60735 2.48373 0
M  V30 2455 C 231.574 -2.14332 3.95451 0
M  V30 2456 C 232.893 -3.62951 2.48906 0
M  V30 2457 H 230.012 -0.51552 0.526696 0
M  V30 2458 H 232.654 -0.748069 1.74654 0
M  V30 2459 H 230.804 -3.18184 2.22916 0
M  V30 2460 H 232.476 -1.61932 4.31944 0
M  V30 2461 H 230.719 -1.4576 4.08578 0
M  V30 2462 H 231.39 -2.99583 4.63631 0
M  V30 2463 H 233.866 -3.1525 2.71582 0
M  V30 2464 H 232.742 -4.43487 3.23435 0
M  V30 2465 H 233.003 -4.15126 1.52061 0
M  V30 2466 N 232.062 -1.29571 -0.897171 0
M  V30 2467 C 233.287 -1.20705 -1.68656 0
M  V30 2468 C 233.712 0.228582 -1.86706 0
M  V30 2469 O 233.07 1.16494 -1.3892 0
M  V30 2470 C 233.118 -1.9282 -3.04717 0
M  V30 2471 O 232.222 -1.24697 -3.93096 0
M  V30 2472 H 231.563 -0.418126 -0.515816 0
M  V30 2473 H 234.093 -1.71183 -1.12061 0
M  V30 2474 H 234.103 -2.01372 -3.54843 0
M  V30 2475 H 232.778 -2.97239 -2.90899 0
M  V30 2476 H 231.355 -1.2442 -3.51531 0
M  V30 2477 N 233.54 1.10788 -1.12088 0
M  V30 2478 C 234.49 2.15158 -0.754401 0
M  V30 2479 C 235.474 1.59026 0.244846 0
M  V30 2480 O 236.666 1.76927 0.0509097 0
M  V30 2481 C 233.795 3.42677 -0.206657 0
M  V30 2482 C 232.881 4.05751 -1.23398 0
M  V30 2483 N 233.272 4.43582 -2.43041 0
M  V30 2484 C 231.57 4.32764 -1.07848 0
M  V30 2485 C 232.271 4.93085 -3.08613 0
M  V30 2486 N 231.247 4.89664 -2.36072 0
M  V30 2487 H 235.049 2.42195 -1.6649 0
M  V30 2488 H 232.563 1.27872 -1.00112 0
M  V30 2489 H 234.56 4.16834 0.0740646 0
M  V30 2490 H 233.22 3.17101 0.698342 0
M  V30 2491 H 234.231 4.35395 -2.80449 0
M  V30 2492 H 230.908 4.16863 -0.230483 0
M  V30 2493 H 232.298 5.31933 -4.10483 0
M  V30 2494 N 235.018 0.912232 1.28515 0
M  V30 2495 C 235.981 0.404223 2.25607 0
M  V30 2496 C 236.981 -0.468602 1.53821 0
M  V30 2497 O 238.171 -0.271873 1.72065 0
M  V30 2498 C 235.303 -0.420653 3.38295 0
M  V30 2499 H 236.496 1.26188 2.7206 0
M  V30 2500 H 234.049 0.691495 1.40171 0
M  V30 2501 H 234.784 -1.29777 2.97201 0
M  V30 2502 H 234.569 0.204935 3.91564 0
M  V30 2503 H 236.059 -0.766971 4.10496 0
M  V30 2504 N 236.496 -1.42363 0.676048 0
M  V30 2505 C 237.406 -2.346 -0.00153389 0
M  V30 2506 C 238.422 -1.5516 -0.787485 0
M  V30 2507 O 239.598 -1.87723 -0.729521 0
M  V30 2508 C 236.663 -3.33705 -0.940298 0
M  V30 2509 C 235.724 -4.29042 -0.148739 0
M  V30 2510 C 234.957 -5.23413 -1.04279 0
M  V30 2511 O 235.18 -5.22749 -2.28232 0
M  V30 2512 O 234.114 -5.99795 -0.502925 0
M  V30 2513 H 237.94 -2.94082 0.758268 0
M  V30 2514 H 235.525 -1.42888 0.436289 0
M  V30 2515 H 237.407 -3.94586 -1.47917 0
M  V30 2516 H 236.082 -2.76695 -1.67993 0
M  V30 2517 H 234.989 -3.71571 0.43427 0
M  V30 2518 H 236.322 -4.89097 0.551805 0
M  V30 2519 N 237.974 -0.419461 -1.51915 0
M  V30 2520 C 238.937 0.389116 -2.25873 0
M  V30 2521 C 239.937 0.964924 -1.28631 0
M  V30 2522 O 241.127 0.842179 -1.52489 0
M  V30 2523 C 238.259 1.54874 -3.03689 0
M  V30 2524 H 239.452 -0.258799 -2.98781 0
M  V30 2525 H 237.005 -0.172209 -1.55348 0
M  V30 2526 H 237.74 2.23323 -2.35154 0
M  V30 2527 H 237.525 1.14223 -3.75094 0
M  V30 2528 H 239.015 2.12046 -3.59759 0
M  V30 2529 N 239.452 1.56882 -0.150215 0
M  V30 2530 C 240.7 1.9584 0.499105 0
M  V30 2531 C 241.021 1.03623 1.65188 0
M  V30 2532 O 240.291 0.0984084 1.95653 0
M  V30 2533 H 238.871 0.723119 0.187373 0
M  V30 2534 H 241.533 1.9358 -0.226466 0
M  V30 2535 H 240.629 2.99638 0.873122 0
M  V30 2536 N 240.93 -0.123565 1.57115 0
M  V30 2537 C 241.893 -1.13583 1.99076 0
M  V30 2538 C 242.893 -1.34564 0.880296 0
M  V30 2539 O 244.083 -1.31158 1.14644 0
M  V30 2540 C 241.215 -2.49128 2.32698 0
M  V30 2541 H 242.408 -0.775287 2.89706 0
M  V30 2542 H 239.961 -0.36771 1.51913 0
M  V30 2543 H 240.696 -2.90111 1.44934 0
M  V30 2544 H 240.481 -2.35255 3.13684 0
M  V30 2545 H 241.971 -3.2199 2.65918 0
M  V30 2546 N 242.408 -1.52605 -0.393616 0
M  V30 2547 C 243.685 -1.58001 -1.15304 0
M  V30 2548 C 244.065 -0.370385 -2.07825 0
M  V30 2549 O 243.413 0.641638 -2.19306 0
M  V30 2550 C 243.623 -2.91652 -1.91677 0
M  V30 2551 C 244.971 -3.4522 -2.47201 0
M  V30 2552 O 245.995 -2.93495 -2.01839 0
M  V30 2553 O 244.854 -4.35579 -3.3005 0
M  V30 2554 H 241.948 -0.637068 -0.527327 0
M  V30 2555 H 244.494 -1.64939 -0.399141 0
M  V30 2556 H 243.266 -3.71136 -1.23992 0
M  V30 2557 H 242.889 -2.88077 -2.74039 0
M  V30 2558 N 243.887 0.651787 -1.4349 0
M  V30 2559 C 245.134 1.41167 -1.45183 0
M  V30 2560 C 245.462 1.94349 -0.0766601 0
M  V30 2561 O 244.717 1.72804 0.918555 0
M  V30 2562 C 245.016 2.60914 -2.44251 0
M  V30 2563 C 244.682 2.26142 -3.9009 0
M  V30 2564 C 243.344 2.16371 -4.2981 0
M  V30 2565 C 245.696 1.98334 -4.81989 0
M  V30 2566 C 243.024 1.7695 -5.5938 0
M  V30 2567 C 245.376 1.6041 -6.11924 0
M  V30 2568 C 244.04 1.49166 -6.5062 0
M  V30 2569 H 243.31 0.516566 -0.531263 0
M  V30 2570 H 245.957 0.741099 -1.76579 0
M  V30 2571 H 244.262 3.3311 -2.06265 0
M  V30 2572 H 245.959 3.19127 -2.42815 0
M  V30 2573 H 242.549 2.34658 -3.58655 0
M  V30 2574 H 246.733 2.04803 -4.52072 0
M  V30 2575 H 241.989 1.66831 -5.88198 0
M  V30 2576 H 246.163 1.37925 -6.82605 0
M  V30 2577 H 243.79 1.1839 -7.50925 0
M  V30 2578 N 245.365 1.30045 0.890287 0
M  V30 2579 C 246.611 1.18737 1.64406 0
M  V30 2580 C 246.944 -0.258525 1.92472 0
M  V30 2581 O 246.219 -1.18562 1.54186 0
M  V30 2582 C 246.502 2.01087 2.98724 0
M  V30 2583 C 246.355 3.53867 2.77665 0
M  V30 2584 C 247.674 1.84457 3.9958 0
M  V30 2585 H 244.793 0.432698 0.596608 0
M  V30 2586 H 247.435 1.5962 1.0306 0
M  V30 2587 H 245.585 1.66349 3.51084 0
M  V30 2588 H 247.257 3.98637 2.32133 0
M  V30 2589 H 245.5 3.78318 2.12269 0
M  V30 2590 H 246.171 4.06772 3.7315 0
M  V30 2591 H 248.647 2.14817 3.56361 0
M  V30 2592 H 247.523 2.44411 4.91482 0
M  V30 2593 H 247.784 0.802276 4.3476 0
M  V30 2594 N 246.843 -1.10192 1.12674 0
M  V30 2595 C 248.068 -1.86523 0.906853 0
M  V30 2596 C 248.493 -1.80221 -0.538711 0
M  V30 2597 O 247.851 -1.17396 -1.38158 0
M  V30 2598 C 247.899 -3.32758 1.3894 0
M  V30 2599 O 247.003 -4.08449 0.5695 0
M  V30 2600 H 246.344 -0.578678 0.325619 0
M  V30 2601 H 248.874 -1.39203 1.49946 0
M  V30 2602 H 248.884 -3.83608 1.38958 0
M  V30 2603 H 247.559 -3.36661 2.44197 0
M  V30 2604 H 246.136 -3.67427 0.636528 0
M  V30 2605 N 248.321 -0.919034 -1.28029 0
M  V30 2606 C 249.732 -0.600735 -1.76771 0
M  V30 2607 C 250.083 0.884024 -1.75156 0
M  V30 2608 O 249.208 1.69163 -1.34956 0
M  V30 2609 C 249.803 -1.08372 -3.21 0
M  V30 2610 C 248.362 -0.816248 -3.67443 0
M  V30 2611 C 247.509 -1.24742 -2.47658 0
M  V30 2612 H 250.46 -1.09974 -1.14418 0
M  V30 2613 H 250.481 -0.427512 -3.78091 0
M  V30 2614 H 249.993 -2.16437 -3.22144 0
M  V30 2615 H 248.094 0.250968 -3.71754 0
M  V30 2616 H 248.207 -1.4277 -4.57333 0
M  V30 2617 H 246.571 -0.666083 -2.45836 0
M  V30 2618 H 247.354 -2.33653 -2.51518 0
M  V30 2619 N 249.799 1.42003 -0.683588 0
M  V30 2620 C 251.024 2.06265 -0.216647 0
M  V30 2621 C 251.449 1.51059 1.12083 0
M  V30 2622 O 250.807 0.632638 1.69904 0
M  V30 2623 C 250.855 3.60191 -0.171759 0
M  V30 2624 O 249.959 4.03396 0.857069 0
M  V30 2625 H 249.3 0.65502 -0.108834 0
M  V30 2626 H 251.83 1.81982 -0.935077 0
M  V30 2627 H 251.84 4.08 0.0014303 0
M  V30 2628 H 250.515 3.99743 -1.14796 0
M  V30 2629 H 249.092 3.67117 0.654208 0
M  V30 2630 N 251.277 0.427512 1.51691 0
M  V30 2631 C 252.554 -0.201684 1.94557 0
M  V30 2632 C 252.934 -1.60981 1.36559 0
M  V30 2633 O 252.282 -2.21814 0.548702 0
M  V30 2634 C 252.492 -0.189394 3.48486 0
M  V30 2635 C 253.84 -0.39978 4.22714 0
M  V30 2636 O 254.864 -0.267945 3.55191 0
M  V30 2637 O 253.723 -0.661249 5.42485 0
M  V30 2638 H 250.817 -0.135261 0.815864 0
M  V30 2639 H 253.363 0.484782 1.62628 0
M  V30 2640 H 252.135 0.795431 3.8313 0
M  V30 2641 H 251.758 -0.919187 3.86829 0
M  V30 2642 N 252.755 -1.56801 0.158532 0
M  V30 2643 C 253.688 -2.13148 -0.815065 0
M  V30 2644 C 254.666 -1.0581 -1.23462 0
M  V30 2645 O 255.85 -1.3371 -1.32868 0
M  V30 2646 C 252.977 -2.6606 -2.09594 0
M  V30 2647 C 252.023 -3.85651 -1.82141 0
M  V30 2648 S 252.856 -5.26041 -1.00207 0
M  V30 2649 C 254.012 -5.8235 -2.29389 0
M  V30 2650 H 254.245 -2.95396 -0.335937 0
M  V30 2651 H 251.778 -1.54299 -0.0559391 0
M  V30 2652 H 253.736 -2.97195 -2.8317 0
M  V30 2653 H 252.397 -1.83921 -2.54621 0
M  V30 2654 H 251.59 -4.20958 -2.77147 0
M  V30 2655 H 251.192 -3.55338 -1.16667 0
M  V30 2656 H 253.484 -5.94485 -3.24952 0
M  V30 2657 H 254.427 -6.79688 -1.9857 0
M  V30 2658 H 254.835 -5.10675 -2.40564 0
M  V30 2659 N 254.233 0.115231 -1.57178 0
M  V30 2660 C 255.166 1.17166 -1.95825 0
M  V30 2661 C 256.144 1.39912 -0.828463 0
M  V30 2662 O 257.328 1.54004 -1.08697 0
M  V30 2663 C 254.455 2.52478 -2.25771 0
M  V30 2664 C 253.501 2.46136 -3.48309 0
M  V30 2665 S 254.334 1.89736 -5.0076 0
M  V30 2666 C 255.49 3.26713 -5.33863 0
M  V30 2667 H 255.723 0.842103 -2.85124 0
M  V30 2668 H 253.256 0.322136 -1.51002 0
M  V30 2669 H 255.214 3.30332 -2.43702 0
M  V30 2670 H 253.875 2.82609 -1.37079 0
M  V30 2671 H 253.068 3.45819 -3.66641 0
M  V30 2672 H 252.67 1.76404 -3.29784 0
M  V30 2673 H 254.962 4.22935 -5.29275 0
M  V30 2674 H 255.905 3.13205 -6.35065 0
M  V30 2675 H 256.313 3.25316 -4.61335 0
M  V30 2676 N 255.711 1.52812 0.385517 0
M  V30 2677 C 256.988 1.5861 1.14465 0
M  V30 2678 C 257.368 0.381402 2.07626 0
M  V30 2679 O 256.716 -0.629999 2.19643 0
M  V30 2680 C 256.926 2.92664 1.90128 0
M  V30 2681 C 258.274 3.46526 2.45367 0
M  V30 2682 O 259.298 2.94562 2.0028 0
M  V30 2683 O 258.157 4.37323 3.27736 0
M  V30 2684 H 255.251 0.639855 0.523941 0
M  V30 2685 H 257.797 1.65149 0.390389 0
M  V30 2686 H 256.569 3.71788 1.22022 0
M  V30 2687 H 256.192 2.89527 2.72507 0
M  V30 2688 N 257.189 -0.644168 1.43834 0
M  V30 2689 C 258.437 -1.40117 1.45642 0
M  V30 2690 C 258.758 -1.94814 0.0852413 0
M  V30 2691 O 258.028 -1.74988 -0.880688 0
M  V30 2692 H 256.608 -0.52005 0.536243 0
M  V30 2693 H 259.27 -0.7591 1.7951 0
M  V30 2694 H 258.366 -2.23902 2.17427 0
M  V30 2695 N 258.668 -1.30515 -0.883378 0
M  V30 2696 C 260.084 -1.08881 -1.16692 0
M  V30 2697 C 260.284 0.149409 -2.00945 0
M  V30 2698 O 259.34 0.84257 -2.38027 0
M  V30 2699 C 260.653 -2.35319 -1.87204 0
M  V30 2700 C 262.201 -2.40799 -1.99962 0
M  V30 2701 C 262.676 -3.67083 -2.73887 0
M  V30 2702 N 264.167 -3.679 -2.81432 0
M  V30 2703 C 264.902 -4.62303 -3.3921 0
M  V30 2704 N 264.398 -5.67052 -3.98025 0
M  V30 2705 N 266.191 -4.49845 -3.3704 0
M  V30 2706 H 258.342 -2.09951 -0.321633 0
M  V30 2707 H 260.605 -0.92556 -0.205043 0
M  V30 2708 H 260.311 -3.25689 -1.3274 0
M  V30 2709 H 260.185 -2.44089 -2.87577 0
M  V30 2710 H 262.572 -1.50907 -2.53597 0
M  V30 2711 H 262.653 -2.36003 -0.98673 0
M  V30 2712 H 262.297 -4.57334 -2.20925 0
M  V30 2713 H 262.227 -3.69141 -3.75556 0
M  V30 2714 H 264.718 -2.92171 -2.39676 0
M  V30 2715 H 265.031 -6.35184 -4.40183 0
M  V30 2716 H 263.376 -5.70842 -3.96439 0
M  V30 2717 H 266.567 -3.67194 -2.90321 0
M  V30 2718 H 266.74 -5.23597 -3.81772 0
M  V30 2719 N 260.146 1.09593 -1.13257 0
M  V30 2720 C 261.395 1.81105 -0.887917 0
M  V30 2721 C 261.708 1.86563 0.587672 0
M  V30 2722 O 262.914 2.54367 0.949204 0
M  V30 2723 C 261.37 3.25338 -1.53895 0
M  V30 2724 C 260.978 3.28151 -3.04994 0
M  V30 2725 C 262.722 4.01617 -1.37492 0
M  V30 2726 C 260.629 4.66897 -3.6299 0
M  V30 2727 H 259.559 0.678661 -0.328534 0
M  V30 2728 H 262.21 1.23183 -1.36008 0
M  V30 2729 H 260.592 3.8331 -0.994446 0
M  V30 2730 H 261.766 2.79953 -3.66009 0
M  V30 2731 H 260.081 2.65361 -3.20893 0
M  V30 2732 H 262.678 5.04119 -1.78235 0
M  V30 2733 H 263.021 4.15072 -0.31957 0
M  V30 2734 H 263.554 3.50082 -1.88912 0
M  V30 2735 H 260.293 4.58643 -4.68323 0
M  V30 2736 H 259.813 5.15426 -3.06752 0
M  V30 2737 H 261.492 5.3587 -3.62563 0
M  V30 2738 N 261.624 0.925811 1.2754 0
M  V30 2739 C 262.872 0.564138 1.94067 0
M  V30 2740 C 263.193 -0.897188 1.73134 0
M  V30 2741 O 262.463 -1.63573 1.07799 0
M  V30 2742 H 261.043 0.205645 0.718136 0
M  V30 2743 H 263.705 1.1778 1.55287 0
M  V30 2744 H 262.801 0.76881 3.02483 0
M  V30 2745 N 263.102 -1.41638 0.69111 0
M  V30 2746 C 264.065 -2.29178 0.0319786 0
M  V30 2747 C 265.065 -1.44153 -0.712496 0
M  V30 2748 O 266.255 -1.65354 -0.548053 0
M  V30 2749 C 263.387 -3.26952 -0.965161 0
M  V30 2750 H 264.58 -2.88959 0.802681 0
M  V30 2751 H 262.133 -1.4955 0.454356 0
M  V30 2752 H 262.868 -2.72142 -1.76378 0
M  V30 2753 H 262.653 -3.89685 -0.434522 0
M  V30 2754 H 264.143 -3.92561 -1.42428 0
M  V30 2755 N 264.58 -0.43555 -1.51462 0
M  V30 2756 C 265.829 0.133007 -2.01261 0
M  V30 2757 C 266.142 1.43942 -1.32439 0
M  V30 2758 O 267.348 2.09081 -1.73198 0
M  V30 2759 C 265.804 0.287581 -3.58749 0
M  V30 2760 C 265.412 -1.00829 -4.36506 0
M  V30 2761 C 267.156 0.810004 -4.167 0
M  V30 2762 C 265.063 -0.819454 -5.85695 0
M  V30 2763 H 263.993 0.0534822 -0.752101 0
M  V30 2764 H 266.644 -0.565038 -1.74584 0
M  V30 2765 H 265.026 1.04859 -3.81865 0
M  V30 2766 H 266.2 -1.77749 -4.25138 0
M  V30 2767 H 264.515 -1.45911 -3.89999 0
M  V30 2768 H 267.112 0.967743 -5.2587 0
M  V30 2769 H 267.455 1.79196 -3.75758 0
M  V30 2770 H 267.988 0.107357 -3.97655 0
M  V30 2771 H 264.727 -1.77374 -6.31046 0
M  V30 2772 H 264.247 -0.0900208 -5.99732 0
M  V30 2773 H 265.926 -0.471949 -6.45276 0
M  V30 2774 N 266.058 1.56714 -0.166846 0
M  V30 2775 C 267.474 1.58473 0.189372 0
M  V30 2776 C 267.674 1.18201 1.63189 0
M  V30 2777 O 266.73 0.891528 2.36237 0
M  V30 2778 C 268.043 3.00573 -0.0873872 0
M  V30 2779 C 269.591 3.1299 -0.0252443 0
M  V30 2780 C 270.066 4.57174 -0.274934 0
M  V30 2781 N 271.557 4.62665 -0.222553 0
M  V30 2782 C 272.292 5.72072 -0.389985 0
M  V30 2783 N 271.788 6.90054 -0.616229 0
M  V30 2784 N 273.581 5.61153 -0.326202 0
M  V30 2785 H 265.732 1.8118 -1.10849 0
M  V30 2786 H 267.995 0.839525 -0.440342 0
M  V30 2787 H 267.701 3.34497 -1.0865 0
M  V30 2788 H 267.575 3.72019 0.623037 0
M  V30 2789 H 269.962 2.78895 0.96444 0
M  V30 2790 H 270.043 2.43989 -0.768309 0
M  V30 2791 H 269.687 4.91976 -1.26181 0
M  V30 2792 H 269.617 5.24328 0.48869 0
M  V30 2793 H 272.108 3.77863 -0.0531512 0
M  V30 2794 H 272.421 7.69311 -0.733559 0
M  V30 2795 H 270.766 6.91927 -0.652791 0
M  V30 2796 H 273.957 4.67859 -0.150072 0
M  V30 2797 H 274.13 6.46364 -0.460116 0
M  V30 2798 N 267.536 -0.106894 1.57237 0
M  V30 2799 C 268.446 -1.14911 2.0453 0
M  V30 2800 C 269.462 -1.44592 0.96795 0
M  V30 2801 O 270.638 -1.55468 1.2803 0
M  V30 2802 C 267.703 -2.45272 2.45036 0
M  V30 2803 C 266.764 -2.22879 3.66911 0
M  V30 2804 C 265.997 -3.47024 4.05475 0
M  V30 2805 O 266.22 -4.54804 3.44252 0
M  V30 2806 O 265.154 -3.3731 4.98504 0
M  V30 2807 H 268.98 -0.777461 2.9358 0
M  V30 2808 H 266.565 -0.318563 1.45964 0
M  V30 2809 H 268.447 -3.22055 2.71769 0
M  V30 2810 H 267.122 -2.81886 1.59129 0
M  V30 2811 H 266.029 -1.43915 3.45311 0
M  V30 2812 H 267.362 -1.91163 4.53561 0
M  V30 2813 N 269.014 -1.53014 -0.377408 0
M  V30 2814 C 269.977 -1.77957 -1.44444 0
M  V30 2815 C 270.977 -0.649763 -1.47087 0
M  V30 2816 O 272.167 -0.917897 -1.48055 0
M  V30 2817 C 269.299 -1.89089 -2.83651 0
M  V30 2818 H 270.492 -2.73243 -1.23606 0
M  V30 2819 H 268.045 -1.43912 -0.609844 0
M  V30 2820 H 268.78 -0.958293 -3.09818 0
M  V30 2821 H 268.565 -2.71254 -2.83132 0
M  V30 2822 H 270.055 -2.1002 -3.60945 0
M  V30 2823 N 270.492 0.636531 -1.44174 0
M  V30 2824 C 271.422 1.76003 -1.53444 0
M  V30 2825 C 272.403 1.65619 -0.387841 0
M  V30 2826 O 273.588 1.84461 -0.607257 0
M  V30 2827 C 270.718 3.14511 -1.4731 0
M  V30 2828 C 269.672 3.39677 -2.60391 0
M  V30 2829 C 268.998 4.78159 -2.39308 0
M  V30 2830 C 270.298 3.32772 -4.02567 0
M  V30 2831 H 271.992 1.68501 -2.47483 0
M  V30 2832 H 269.538 0.809237 -1.19111 0
M  V30 2833 H 271.491 3.92878 -1.52397 0
M  V30 2834 H 270.215 3.22783 -0.49785 0
M  V30 2835 H 268.874 2.63688 -2.54684 0
M  V30 2836 H 268.522 4.83128 -1.39988 0
M  V30 2837 H 268.222 4.95956 -3.15122 0
M  V30 2838 H 269.746 5.58762 -2.46205 0
M  V30 2839 H 271.16 4.01051 -4.09672 0
M  V30 2840 H 269.557 3.62104 -4.7854 0
M  V30 2841 H 270.627 2.30669 -4.2652 0
M  V30 2842 N 271.97 1.30982 0.876444 0
M  V30 2843 C 273.247 1.10942 1.61094 0
M  V30 2844 C 273.627 -0.338223 2.08373 0
M  V30 2845 O 272.975 -1.33122 1.85717 0
M  V30 2846 C 273.185 2.11789 2.77392 0
M  V30 2847 C 274.533 2.43965 3.47514 0
M  V30 2848 O 275.557 2.10166 2.87591 0
M  V30 2849 O 274.416 3.01817 4.55597 0
M  V30 2850 H 271.51 0.42667 0.708436 0
M  V30 2851 H 274.056 1.42438 0.922474 0
M  V30 2852 H 272.828 3.09194 2.39823 0
M  V30 2853 H 272.451 1.81161 3.5393 0
M  V30 2854 N 273.449 -1.08991 1.13837 0
M  V30 2855 C 274.359 -2.19301 0.833333 0
M  V30 2856 C 275.375 -1.73026 -0.183847 0
M  V30 2857 O 276.551 -2.01395 -0.0138092 0
M  V30 2858 C 273.616 -3.45323 0.308651 0
M  V30 2859 C 272.677 -4.06255 1.38764 0
M  V30 2860 C 271.91 -5.26262 0.887896 0
M  V30 2861 O 272.133 -5.69747 -0.27287 0
M  V30 2862 O 271.067 -5.78435 1.66421 0
M  V30 2863 H 274.893 -2.47854 1.75506 0
M  V30 2864 H 272.478 -1.18012 0.916166 0
M  V30 2865 H 274.36 -4.21394 0.0216739 0
M  V30 2866 H 273.035 -3.18362 -0.585431 0
M  V30 2867 H 271.942 -3.318 1.72799 0
M  V30 2868 H 273.275 -4.37452 2.25602 0
M  V30 2869 N 274.927 -0.932562 -1.27047 0
M  V30 2870 C 276.155 -0.592031 -1.98249 0
M  V30 2871 C 276.57 0.831062 -1.69525 0
M  V30 2872 O 275.927 1.55299 -0.958561 0
M  V30 2873 C 275.978 -0.814279 -3.5221 0
M  V30 2874 O 275.699 -2.18139 -3.7993 0
M  V30 2875 C 277.2 -0.483121 -4.4066 0
M  V30 2876 H 274.42 -0.223896 -0.632544 0
M  V30 2877 H 276.964 -1.25091 -1.61779 0
M  V30 2878 H 275.119 -0.20213 -3.86872 0
M  V30 2879 H 275.533 -2.235 -4.74498 0
M  V30 2880 H 277.007 -0.689298 -5.47679 0
M  V30 2881 H 277.484 0.581546 -4.35333 0
M  V30 2882 H 278.09 -1.07362 -4.11526 0
M  V30 2883 N 276.405 1.4127 -0.698611 0
M  V30 2884 C 277.682 1.94955 -0.158762 0
M  V30 2885 C 278.062 1.63781 1.33188 0
M  V30 2886 O 277.41 0.946423 2.07979 0
M  V30 2887 C 277.62 3.46044 -0.453309 0
M  V30 2888 C 278.968 4.22872 -0.382707 0
M  V30 2889 O 279.992 3.54076 -0.388396 0
M  V30 2890 O 278.851 5.45407 -0.345463 0
M  V30 2891 H 275.945 0.82683 -0.0167505 0
M  V30 2892 H 278.491 1.50971 -0.77498 0
M  V30 2893 H 277.263 3.62028 -1.48498 0
M  V30 2894 H 276.886 3.97128 0.19373 0
M  V30 2895 N 277.883 0.443576 1.51229 0
M  V30 2896 C 278.833 -0.382787 2.24764 0
M  V30 2897 C 279.817 -0.984836 1.27239 0
M  V30 2898 O 281.009 -0.901943 1.52296 0
M  V30 2899 C 278.138 -1.47989 3.09765 0
M  V30 2900 C 277.224 -0.886931 4.14722 0
M  V30 2901 N 277.615 -0.0237103 5.05794 0
M  V30 2902 C 275.913 -1.15385 4.30816 0
M  V30 2903 C 276.614 0.309971 5.80874 0
M  V30 2904 N 275.59 -0.307989 5.42727 0
M  V30 2905 H 279.392 0.282624 2.92538 0
M  V30 2906 H 276.906 0.256027 1.60369 0
M  V30 2907 H 278.903 -2.08482 3.61027 0
M  V30 2908 H 277.563 -2.14758 2.43535 0
M  V30 2909 H 278.574 0.34318 5.16762 0
M  V30 2910 H 275.251 -1.81857 3.75812 0
M  V30 2911 H 276.641 1.01279 6.64223 0
M  V30 2912 N 279.361 -1.56624 0.175154 0
M  V30 2913 C 280.586 -2.01813 -0.478137 0
M  V30 2914 C 281.011 -1.05457 -1.55757 0
M  V30 2915 O 280.369 -0.0347439 -1.81267 0
M  V30 2916 C 280.417 -3.45581 -1.02987 0
M  V30 2917 O 279.521 -3.52305 -2.14371 0
M  V30 2918 H 278.862 -0.65413 -0.114059 0
M  V30 2919 H 281.392 -2.02673 0.280173 0
M  V30 2920 H 281.402 -3.84965 -1.35151 0
M  V30 2921 H 280.077 -4.1521 -0.239556 0
M  V30 2922 H 278.654 -3.24783 -1.83222 0
M  V30 2923 N 280.839 0.0985539 -1.57292 0
M  V30 2924 C 282.116 0.834155 -1.76921 0
M  V30 2925 C 282.496 1.97101 -0.755928 0
M  V30 2926 O 281.844 2.27474 0.216245 0
M  V30 2927 C 282.054 1.33194 -3.22584 0
M  V30 2928 C 283.402 1.77611 -3.85668 0
M  V30 2929 O 284.426 1.42825 -3.26312 0
M  V30 2930 O 283.285 2.4192 -4.90038 0
M  V30 2931 H 280.379 0.397628 -0.725135 0
M  V30 2932 H 282.925 0.0807044 -1.69508 0
M  V30 2933 H 281.697 0.517248 -3.87866 0
M  V30 2934 H 281.32 2.1475 -3.34616 0
M  V30 2935 N 282.317 1.53212 0.369288 0
M  V30 2936 C 283.563 1.69466 1.11397 0
M  V30 2937 C 283.896 0.443257 1.89074 0
M  V30 2938 O 283.171 -0.559386 1.86282 0
M  V30 2939 C 283.454 2.9422 2.07621 0
M  V30 2940 C 283.307 4.29508 1.33577 0
M  V30 2941 C 284.626 3.14565 3.07794 0
M  V30 2942 H 281.745 0.616667 0.403597 0
M  V30 2943 H 284.387 1.85845 0.395179 0
M  V30 2944 H 282.537 2.80387 2.68916 0
M  V30 2945 H 284.209 4.55147 0.750955 0
M  V30 2946 H 282.452 4.29088 0.637618 0
M  V30 2947 H 283.123 5.12926 2.03989 0
M  V30 2948 H 285.599 3.2756 2.56601 0
M  V30 2949 H 284.475 4.03297 3.72348 0
M  V30 2950 H 284.736 2.29675 3.77759 0
M  V30 2951 N 283.795 -0.628877 1.44509 0
M  V30 2952 C 285.043 -1.38565 1.4712 0
M  V30 2953 C 285.364 -1.94712 0.105899 0
M  V30 2954 O 284.634 -1.75912 -0.862079 0
M  V30 2955 H 283.214 -0.514333 0.541729 0
M  V30 2956 H 285.876 -0.740018 1.80305 0
M  V30 2957 H 284.972 -2.21583 2.19789 0
M  V30 2958 N 285.273 -1.31445 -0.869486 0
M  V30 2959 C 286.522 -1.20517 -1.61736 0
M  V30 2960 C 286.835 0.235341 -1.94179 0
M  V30 2961 O 288.041 0.466312 -2.67465 0
M  V30 2962 C 286.497 -2.10982 -2.91573 0
M  V30 2963 C 286.105 -3.60032 -2.66611 0
M  V30 2964 C 287.849 -2.08856 -3.69567 0
M  V30 2965 C 285.756 -4.42503 -3.92358 0
M  V30 2966 H 284.686 -0.447493 -0.606849 0
M  V30 2967 H 287.337 -1.56303 -0.96133 0
M  V30 2968 H 285.719 -1.68095 -3.58553 0
M  V30 2969 H 286.893 -4.11167 -2.08035 0
M  V30 2970 H 285.208 -3.64139 -2.0197 0
M  V30 2971 H 287.805 -2.67716 -4.62852 0
M  V30 2972 H 288.148 -1.07582 -4.02159 0
M  V30 2973 H 288.681 -2.49945 -3.09471 0
M  V30 2974 H 285.42 -5.44533 -3.64916 0
M  V30 2975 H 284.94 -3.96125 -4.50383 0
M  V30 2976 H 286.619 -4.54741 -4.60238 0
M  V30 2977 N 286.751 1.08385 -1.14413 0
M  V30 2978 C 287.681 2.17321 -0.854044 0
M  V30 2979 C 288.662 1.69024 0.191049 0
M  V30 2980 O 289.847 1.94141 0.0476779 0
M  V30 2981 C 286.977 3.45719 -0.330983 0
M  V30 2982 C 285.931 4.07409 -1.31155 0
M  V30 2983 C 285.257 5.30762 -0.64778 0
M  V30 2984 C 286.557 4.48665 -2.67388 0
M  V30 2985 H 288.251 2.41845 -1.76498 0
M  V30 2986 H 285.797 1.16233 -0.850051 0
M  V30 2987 H 287.75 4.21241 -0.115645 0
M  V30 2988 H 286.474 3.2075 0.615381 0
M  V30 2989 H 285.133 3.33919 -1.51306 0
M  V30 2990 H 284.781 5.02078 0.304398 0
M  V30 2991 H 284.481 5.72992 -1.30207 0
M  V30 2992 H 286.005 6.08998 -0.441972 0
M  V30 2993 H 287.419 5.15364 -2.51143 0
M  V30 2994 H 285.816 5.01814 -3.29093 0
M  V30 2995 H 286.886 3.60543 -3.24248 0
M  V30 2996 N 288.23 0.939286 1.26551 0
M  V30 2997 C 289.455 0.602008 1.98471 0
M  V30 2998 C 289.88 -0.815624 1.69497 0
M  V30 2999 O 289.238 -1.54912 0.941905 0
M  V30 3000 C 289.286 0.848407 3.50477 0
M  V30 3001 O 288.39 -0.0804009 4.12322 0
M  V30 3002 H 287.731 0.23049 0.622712 0
M  V30 3003 H 290.261 1.2617 1.61066 0
M  V30 3004 H 290.271 0.768553 4.00696 0
M  V30 3005 H 288.946 1.88171 3.70897 0
M  V30 3006 H 287.523 0.0503508 3.72866 0
M  V30 3007 N 289.708 -1.40897 0.706093 0
M  V30 3008 C 290.938 -2.05075 0.250523 0
M  V30 3009 C 291.346 -1.53275 -1.10921 0
M  V30 3010 O 290.689 -0.680281 -1.7064 0
M  V30 3011 C 290.751 -3.59219 0.142178 0
M  V30 3012 C 290.415 -4.33864 1.43566 0
M  V30 3013 C 291.412 -4.62448 2.37566 0
M  V30 3014 C 289.097 -4.72946 1.69195 0
M  V30 3015 C 291.091 -5.29088 3.5545 0
M  V30 3016 C 288.778 -5.3932 2.87362 0
M  V30 3017 C 289.776 -5.6732 3.80312 0
M  V30 3018 O 289.464 -6.32325 4.96408 0
M  V30 3019 H 289.196 -0.666645 0.112074 0
M  V30 3020 H 291.75 -1.81467 0.962239 0
M  V30 3021 H 289.98 -3.81609 -0.6254 0
M  V30 3022 H 291.669 -4.0495 -0.277584 0
M  V30 3023 H 292.435 -4.32727 2.19027 0
M  V30 3024 H 288.314 -4.50527 0.977042 0
M  V30 3025 H 291.858 -5.50859 4.28018 0
M  V30 3026 H 287.755 -5.68461 3.05814 0
M  V30 3027 H 288.523 -6.50821 4.9636 0
M  V30 3028 N 291.186 -0.45159 -1.50991 0
M  V30 3029 C 292.149 0.341117 -2.26647 0
M  V30 3030 C 293.149 0.937422 -1.30649 0
M  V30 3031 O 294.339 0.809644 -1.54241 0
M  V30 3032 C 291.471 1.48398 -3.06905 0
M  V30 3033 H 292.664 -0.322117 -2.98165 0
M  V30 3034 H 290.217 -0.205122 -1.54948 0
M  V30 3035 H 290.952 2.18284 -2.39838 0
M  V30 3036 H 290.737 1.06241 -3.77432 0
M  V30 3037 H 292.227 2.04367 -3.64176 0
M  V30 3038 N 292.664 1.56529 -0.183458 0
M  V30 3039 C 293.627 2.17324 0.728223 0
M  V30 3040 C 294.627 1.12453 1.14939 0
M  V30 3041 O 295.817 1.37902 1.06437 0
M  V30 3042 C 292.949 2.76591 1.99274 0
M  V30 3043 H 294.142 2.99241 0.198772 0
M  V30 3044 H 291.695 1.5616 0.0661391 0
M  V30 3045 H 292.43 1.98441 2.56499 0
M  V30 3046 H 292.215 3.5335 1.69959 0
M  V30 3047 H 293.705 3.23311 2.6431 0
M  V30 3048 N 294.142 -0.090211 1.57342 0
M  V30 3049 C 295.089 -1.10909 2.02405 0
M  V30 3050 C 296.059 -1.39523 0.901252 0
M  V30 3051 O 297.244 -1.50903 1.1676 0
M  V30 3052 C 294.384 -2.42277 2.45755 0
M  V30 3053 C 293.497 -2.20352 3.71576 0
M  V30 3054 C 292.632 -3.45154 4.03785 0
M  V30 3055 C 291.671 -3.18512 5.22701 0
M  V30 3056 N 290.808 -4.35593 5.50639 0
M  V30 3057 H 295.648 -0.71782 2.89225 0
M  V30 3058 H 293.185 -0.342901 1.43048 0
M  V30 3059 H 295.143 -3.18951 2.68935 0
M  V30 3060 H 293.773 -2.79242 1.61938 0
M  V30 3061 H 292.825 -1.34458 3.55844 0
M  V30 3062 H 294.137 -1.96661 4.58395 0
M  V30 3063 H 293.291 -4.30233 4.27767 0
M  V30 3064 H 292.03 -3.71904 3.15498 0
M  V30 3065 H 291.035 -2.31827 4.98534 0
M  V30 3066 H 292.26 -2.93103 6.12591 0
M  V30 3067 H 290.206 -4.6241 4.6531 0
M  V30 3068 H 290.123 -4.1511 6.31838 0
M  V30 3069 H 291.391 -5.21723 5.7916 0
M  V30 3070 N 295.62 -1.53406 -0.361157 0
M  V30 3071 C 296.85 -1.73465 -1.1222 0
M  V30 3072 C 297.258 -0.465486 -1.83384 0
M  V30 3073 O 296.601 0.571611 -1.7458 0
M  V30 3074 C 296.663 -2.84834 -2.19339 0
M  V30 3075 C 296.327 -4.25038 -1.67903 0
M  V30 3076 C 297.324 -5.07231 -1.14074 0
M  V30 3077 C 295.009 -4.71464 -1.73282 0
M  V30 3078 C 297.003 -6.33942 -0.663068 0
M  V30 3079 C 294.69 -5.98153 -1.25127 0
M  V30 3080 C 295.688 -6.79223 -0.717296 0
M  V30 3081 O 295.376 -8.03533 -0.242865 0
M  V30 3082 H 295.108 -0.583526 -0.341283 0
M  V30 3083 H 297.662 -2.00964 -0.424591 0
M  V30 3084 H 295.892 -2.5282 -2.92607 0
M  V30 3085 H 297.581 -2.9303 -2.80871 0
M  V30 3086 H 298.347 -4.72534 -1.09254 0
M  V30 3087 H 294.226 -4.08432 -2.13786 0
M  V30 3088 H 297.77 -6.97167 -0.245612 0
M  V30 3089 H 293.667 -6.32347 -1.29642 0
M  V30 3090 H 294.435 -8.177 -0.361786 0
M  V30 3091 N 297.098 0.621204 -1.44841 0
M  V30 3092 C 298.061 1.71459 -1.521 0
M  V30 3093 C 299.061 1.55696 -0.401933 0
M  V30 3094 O 300.251 1.61011 -0.664925 0
M  V30 3095 C 297.383 3.10624 -1.40447 0
M  V30 3096 H 298.576 1.66394 -2.49506 0
M  V30 3097 H 296.129 0.835745 -1.3208 0
M  V30 3098 H 296.864 3.21277 -0.441737 0
M  V30 3099 H 296.649 3.23473 -2.21602 0
M  V30 3100 H 298.139 3.90293 -1.4853 0
M  V30 3101 N 298.576 1.31904 0.862503 0
M  V30 3102 C 299.801 1.25135 1.65397 0
M  V30 3103 C 300.226 -0.179 1.87246 0
M  V30 3104 O 299.584 -1.1277 1.4196 0
M  V30 3105 C 299.632 2.00832 2.99498 0
M  V30 3106 O 298.736 1.35075 3.89652 0
M  V30 3107 H 298.077 0.431655 0.504549 0
M  V30 3108 H 300.607 1.74094 1.07483 0
M  V30 3109 H 300.617 2.10709 3.49379 0
M  V30 3110 H 299.292 3.04847 2.82916 0
M  V30 3111 H 297.869 1.33696 3.48109 0
M  V30 3112 N 300.054 -1.07777 1.14986 0
M  V30 3113 C 301.279 -1.84558 0.946213 0
M  V30 3114 C 301.704 -1.81323 -0.500362 0
M  V30 3115 O 301.062 -1.20301 -1.35637 0
M  V30 3116 C 301.11 -3.29736 1.45968 0
M  V30 3117 O 300.214 -4.07149 0.65601 0
M  V30 3118 H 299.555 -0.571641 0.33782 0
M  V30 3119 H 302.085 -1.35991 1.52865 0
M  V30 3120 H 302.095 -3.80574 1.47063 0
M  V30 3121 H 300.77 -3.31406 2.51283 0
M  V30 3122 H 299.347 -3.65994 0.714322 0
M  V30 3123 N 301.532 -0.945985 -1.26051 0
M  V30 3124 C 302.779 -0.596118 -1.93527 0
M  V30 3125 C 303.107 0.865559 -1.74179 0
M  V30 3126 O 302.362 1.63524 -1.0751 0
M  V30 3127 C 302.661 -0.890475 -3.46129 0
M  V30 3128 C 302.327 -2.3368 -3.85622 0
M  V30 3129 C 300.989 -2.73216 -3.96114 0
M  V30 3130 C 303.341 -3.27648 -4.05334 0
M  V30 3131 C 300.669 -4.05806 -4.2372 0
M  V30 3132 C 303.021 -4.59841 -4.3443 0
M  V30 3133 C 301.685 -4.99185 -4.43137 0
M  V30 3134 H 300.955 -0.218135 -0.708165 0
M  V30 3135 H 303.602 -1.1934 -1.49768 0
M  V30 3136 H 301.907 -0.210711 -3.91233 0
M  V30 3137 H 303.604 -0.598478 -3.96509 0
M  V30 3138 H 300.194 -2.02015 -3.78005 0
M  V30 3139 H 304.378 -2.98298 -3.96651 0
M  V30 3140 H 299.634 -4.35945 -4.28675 0
M  V30 3141 H 303.808 -5.32641 -4.48628 0
M  V30 3142 H 301.435 -6.01952 -4.64282 0
M  V30 3143 N 303.011 1.40521 -0.713556 0
M  V30 3144 C 304.241 2.0494 -0.261395 0
M  V30 3145 C 304.649 1.53861 1.10107 0
M  V30 3146 O 303.992 0.689321 1.70276 0
M  V30 3147 C 304.054 3.59138 -0.161227 0
M  V30 3148 C 303.718 4.33096 -1.45865 0
M  V30 3149 C 304.715 4.61182 -2.40016 0
M  V30 3150 C 302.4 4.72043 -1.71701 0
M  V30 3151 C 304.394 5.27196 -3.58251 0
M  V30 3152 C 302.081 5.37789 -2.90218 0
M  V30 3153 C 303.079 5.65295 -3.83315 0
M  V30 3154 O 302.767 6.29683 -4.99754 0
M  V30 3155 H 302.499 0.666041 -0.115608 0
M  V30 3156 H 305.053 1.80954 -0.971849 0
M  V30 3157 H 303.283 3.81936 0.605153 0
M  V30 3158 H 304.972 4.05091 0.256105 0
M  V30 3159 H 305.738 4.31559 -2.21318 0
M  V30 3160 H 301.617 4.50003 -1.00092 0
M  V30 3161 H 305.161 5.48582 -4.30934 0
M  V30 3162 H 301.058 5.66831 -3.08825 0
M  V30 3163 H 301.826 6.4818 -4.99805 0
M  V30 3164 N 304.489 0.459591 1.5075 0
M  V30 3165 C 305.737 -0.0991532 2.01857 0
M  V30 3166 C 306.058 -1.41247 1.34441 0
M  V30 3167 O 305.328 -1.89775 0.486022 0
M  V30 3168 H 303.908 -0.039633 0.745948 0
M  V30 3169 H 306.57 0.607387 1.85194 0
M  V30 3170 H 305.666 -0.258998 3.11023 0
M  V30 3171 N 305.967 -1.56429 0.191757 0
M  V30 3172 C 307.378 -1.83912 -0.321428 0
M  V30 3173 C 307.729 -1.11231 -1.61623 0
M  V30 3174 O 306.854 -0.37202 -2.13178 0
M  V30 3175 C 307.449 -3.33624 -0.589961 0
M  V30 3176 C 306.008 -3.6153 -1.04753 0
M  V30 3177 C 305.155 -2.7714 -0.0943327 0
M  V30 3178 H 308.106 -1.53161 0.415612 0
M  V30 3179 H 308.127 -3.52213 -1.43966 0
M  V30 3180 H 307.639 -3.86495 0.352588 0
M  V30 3181 H 305.74 -3.14089 -2.00447 0
M  V30 3182 H 305.853 -4.69737 -0.942549 0
M  V30 3183 H 304.217 -2.47638 -0.595589 0
M  V30 3184 H 305 -3.32799 0.842601 0
M  V30 3185 N 307.445 0.0818655 -1.57387 0
M  V30 3186 C 308.692 0.782914 -1.86753 0
M  V30 3187 C 309.02 1.78082 -0.782118 0
M  V30 3188 O 308.275 1.94426 0.22295 0
M  V30 3189 C 308.574 1.53513 -3.22752 0
M  V30 3190 C 308.24 0.678134 -4.45771 0
M  V30 3191 C 306.902 0.441929 -4.79166 0
M  V30 3192 C 309.254 0.0832243 -5.21134 0
M  V30 3193 C 306.582 -0.398833 -5.85343 0
M  V30 3194 C 308.934 -0.744935 -6.28199 0
M  V30 3195 C 307.598 -0.991107 -6.60101 0
M  V30 3196 H 306.868 0.286489 -0.683378 0
M  V30 3197 H 309.515 0.0439808 -1.91449 0
M  V30 3198 H 307.82 2.34599 -3.138 0
M  V30 3199 H 309.517 2.08218 -3.42705 0
M  V30 3200 H 306.107 0.872357 -4.19628 0
M  V30 3201 H 310.291 0.252847 -4.95655 0
M  V30 3202 H 305.547 -0.598405 -6.08465 0
M  V30 3203 H 309.721 -1.21271 -6.8576 0
M  V30 3204 H 307.348 -1.64437 -7.42202 0
M  V30 3205 N 308.923 1.53595 0.353017 0
M  V30 3206 C 310.339 1.43648 0.695516 0
M  V30 3207 C 310.539 0.585617 1.92802 0
M  V30 3208 O 309.595 0.0729223 2.52395 0
M  V30 3209 C 310.908 2.8701 0.896991 0
M  V30 3210 C 312.456 2.96723 0.996209 0
M  V30 3211 C 312.931 4.41173 1.23007 0
M  V30 3212 N 314.422 4.44657 1.29749 0
M  V30 3213 C 315.157 5.53547 1.49577 0
M  V30 3214 N 314.653 6.72461 1.66639 0
M  V30 3215 N 316.446 5.41145 1.52048 0
M  V30 3216 H 308.597 2.07415 -0.457481 0
M  V30 3217 H 310.86 0.9372 -0.142687 0
M  V30 3218 H 310.566 3.51644 0.0629938 0
M  V30 3219 H 310.44 3.31401 1.80148 0
M  V30 3220 H 312.827 2.32235 1.82074 0
M  V30 3221 H 312.908 2.55707 0.0688331 0
M  V30 3222 H 312.552 5.06238 0.410505 0
M  V30 3223 H 312.482 4.79772 2.17086 0
M  V30 3224 H 314.973 3.58963 1.18126 0
M  V30 3225 H 315.286 7.51214 1.81378 0
M  V30 3226 H 313.631 6.75423 1.63794 0
M  V30 3227 H 316.822 4.47205 1.38294 0
M  V30 3228 H 316.995 6.26068 1.67159 0
M  V30 3229 N 310.401 -0.613514 1.45168 0
M  V30 3230 C 311.678 -1.37263 1.39349 0
M  V30 3231 C 312.058 -2.11012 0.0610848 0
M  V30 3232 O 311.406 -2.07502 -0.956825 0
M  V30 3233 C 311.616 -2.3244 2.60332 0
M  V30 3234 C 312.964 -2.9523 3.05163 0
M  V30 3235 O 313.988 -2.42762 2.60663 0
M  V30 3236 O 312.847 -3.90454 3.82372 0
M  V30 3237 H 309.941 -0.615188 0.552696 0
M  V30 3238 H 312.487 -0.637097 1.57287 0
M  V30 3239 H 311.259 -1.77164 3.48896 0
M  V30 3240 H 310.882 -3.13383 2.44698 0
M  V30 3241 N 311.879 -1.3236 -0.855495 0
M  V30 3242 C 312.842 -1.21164 -1.94556 0
M  V30 3243 C 313.842 -0.134908 -1.60233 0
M  V30 3244 O 315.032 -0.385249 -1.69887 0
M  V30 3245 C 312.164 -0.863192 -3.29791 0
M  V30 3246 H 313.357 -2.18038 -2.05911 0
M  V30 3247 H 310.91 -1.16179 -1.04557 0
M  V30 3248 H 311.645 0.103769 -3.24134 0
M  V30 3249 H 311.43 -1.64166 -3.56078 0
M  V30 3250 H 312.92 -0.809156 -4.09686 0
M  V30 3251 N 313.357 1.07166 -1.15556 0
M  V30 3252 C 314.287 2.16403 -0.877046 0
M  V30 3253 C 315.268 1.69217 0.173111 0
M  V30 3254 O 316.453 1.94181 0.027084 0
M  V30 3255 C 313.583 3.45349 -0.367632 0
M  V30 3256 C 312.537 4.05995 -1.35468 0
M  V30 3257 C 311.863 5.30045 -0.704038 0
M  V30 3258 C 313.163 4.45804 -2.72132 0
M  V30 3259 H 314.857 2.39959 -1.79053 0
M  V30 3260 H 312.403 1.15325 -0.862331 0
M  V30 3261 H 314.356 4.21095 -0.160317 0
M  V30 3262 H 313.08 3.21385 0.581326 0
M  V30 3263 H 311.739 3.32296 -1.54839 0
M  V30 3264 H 311.387 5.02373 0.251128 0
M  V30 3265 H 311.087 5.71579 -1.36277 0
M  V30 3266 H 312.611 6.08495 -0.50654 0
M  V30 3267 H 314.025 5.12671 -2.56595 0
M  V30 3268 H 312.422 4.98296 -3.34397 0
M  V30 3269 H 313.492 3.57083 -3.28054 0
M  V30 3270 N 314.835 0.952656 1.25548 0
M  V30 3271 C 315.785 0.442033 2.23674 0
M  V30 3272 C 316.769 -0.467632 1.53955 0
M  V30 3273 O 317.961 -0.301006 1.74422 0
M  V30 3274 C 315.09 -0.280816 3.4215 0
M  V30 3275 C 314.176 0.646803 4.19139 0
M  V30 3276 N 314.567 1.77759 4.73535 0
M  V30 3277 C 312.865 0.454617 4.43677 0
M  V30 3278 C 313.566 2.35658 5.31827 0
M  V30 3279 N 312.542 1.64333 5.18166 0
M  V30 3280 H 316.344 1.30505 2.63336 0
M  V30 3281 H 313.858 0.809904 1.40763 0
M  V30 3282 H 315.855 -0.663747 4.11582 0
M  V30 3283 H 314.515 -1.14046 3.04012 0
M  V30 3284 H 315.526 2.15949 4.7073 0
M  V30 3285 H 312.203 -0.362312 4.15925 0
M  V30 3286 H 313.593 3.30998 5.84713 0
M  V30 3287 N 316.313 -1.40141 0.720998 0
M  V30 3288 C 317.538 -2.05618 0.271258 0
M  V30 3289 C 317.963 -1.53978 -1.08039 0
M  V30 3290 O 317.321 -0.677463 -1.68167 0
M  V30 3291 C 317.369 -3.59609 0.267197 0
M  V30 3292 O 316.473 -4.05526 -0.749814 0
M  V30 3293 H 315.814 -0.651904 0.126162 0
M  V30 3294 H 318.344 -1.79439 0.982997 0
M  V30 3295 H 318.354 -4.0786 0.106744 0
M  V30 3296 H 317.029 -3.96559 1.25354 0
M  V30 3297 H 315.606 -3.68722 -0.556644 0
M  V30 3298 N 317.792 -0.46758 -1.50504 0
M  V30 3299 C 318.755 0.317059 -2.26996 0
M  V30 3300 C 319.755 0.923513 -1.31635 0
M  V30 3301 O 320.945 0.793239 -1.55091 0
M  V30 3302 C 318.077 1.45134 -3.08462 0
M  V30 3303 H 319.27 -0.353723 -2.97807 0
M  V30 3304 H 316.823 -0.221545 -1.54722 0
M  V30 3305 H 317.558 2.15728 -2.4214 0
M  V30 3306 H 317.343 1.02232 -3.78538 0
M  V30 3307 H 318.833 2.00493 -3.66323 0
M  V30 3308 N 319.27 1.56325 -0.20005 0
M  V30 3309 C 320.681 1.8408 0.31167 0
M  V30 3310 C 321.032 1.12087 1.61031 0
M  V30 3311 O 320.157 0.38332 2.12978 0
M  V30 3312 C 320.752 3.33932 0.57226 0
M  V30 3313 C 319.311 3.6208 1.02834 0
M  V30 3314 C 318.458 2.77186 0.079634 0
M  V30 3315 H 321.409 1.52939 -0.423729 0
M  V30 3316 H 321.43 3.52971 1.42096 0
M  V30 3317 H 320.942 3.86303 -0.37308 0
M  V30 3318 H 319.043 3.15147 1.98778 0
M  V30 3319 H 319.156 4.7023 0.917624 0
M  V30 3320 H 317.52 2.47951 0.582448 0
M  V30 3321 H 318.303 3.32347 -0.860238 0
M  V30 3322 N 320.748 -0.0735177 1.57428 0
M  V30 3323 C 321.68 -1.11423 2.00294 0
M  V30 3324 C 322.693 -1.35084 0.908637 0
M  V30 3325 O 323.882 -1.33355 1.18654 0
M  V30 3326 C 320.982 -2.46548 2.32523 0
M  V30 3327 C 320.155 -2.42867 3.63778 0
M  V30 3328 C 319.214 -3.60087 3.83697 0
M  V30 3329 O 318.24 -3.41595 4.55304 0
M  V30 3330 N 319.442 -4.80372 3.25919 0
M  V30 3331 H 322.207 -0.749206 2.90184 0
M  V30 3332 H 319.768 -0.262195 1.59763 0
M  V30 3333 H 321.76 -3.23607 2.43024 0
M  V30 3334 H 320.33 -2.75059 1.48531 0
M  V30 3335 H 319.55 -1.51206 3.64047 0
M  V30 3336 H 320.838 -2.37506 4.49965 0
M  V30 3337 H 320.236 -4.983 2.67795 0
M  V30 3338 H 318.793 -5.54948 3.41871 0
M  V30 3339 N 322.226 -1.5378 -0.344866 0
M  V30 3340 C 323.473 -1.70963 -1.08526 0
M  V30 3341 C 323.801 -0.472126 -1.88683 0
M  V30 3342 O 323.056 0.546116 -1.87926 0
M  V30 3343 C 323.355 -2.92407 -2.05506 0
M  V30 3344 C 323.021 -4.28066 -1.41671 0
M  V30 3345 C 321.683 -4.64951 -1.2399 0
M  V30 3346 C 324.035 -5.12344 -0.956726 0
M  V30 3347 C 321.363 -5.83733 -0.589277 0
M  V30 3348 C 323.715 -6.3179 -0.320015 0
M  V30 3349 C 322.379 -6.67372 -0.130881 0
M  V30 3350 H 321.649 -0.625598 -0.397124 0
M  V30 3351 H 324.296 -1.87995 -0.36469 0
M  V30 3352 H 322.601 -2.69973 -2.8394 0
M  V30 3353 H 324.298 -3.02895 -2.62784 0
M  V30 3354 H 320.888 -3.99034 -1.56429 0
M  V30 3355 H 325.072 -4.8438 -1.08118 0
M  V30 3356 H 320.328 -6.09877 -0.431344 0
M  V30 3357 H 324.502 -6.96386 0.0445072 0
M  V30 3358 H 322.129 -7.59273 0.375318 0
M  V30 3359 N 323.704 0.605807 -1.45491 0
M  V30 3360 C 324.952 1.36207 -1.49305 0
M  V30 3361 C 325.273 1.94519 -0.136863 0
M  V30 3362 O 324.543 1.77261 0.833983 0
M  V30 3363 H 323.123 0.50565 -0.549843 0
M  V30 3364 H 325.785 0.711239 -1.81459 0
M  V30 3365 H 324.881 2.18058 -2.23287 0
M  V30 3366 N 325.182 1.32811 0.848464 0
M  V30 3367 C 326.459 1.14334 1.58704 0
M  V30 3368 C 326.839 -0.293948 2.09043 0
M  V30 3369 O 326.187 -1.29153 1.88499 0
M  V30 3370 C 326.397 2.17626 2.72837 0
M  V30 3371 C 327.745 2.51282 3.42261 0
M  V30 3372 O 328.769 2.16219 2.83068 0
M  V30 3373 O 327.628 3.11413 4.49093 0
M  V30 3374 H 324.722 0.441601 0.699226 0
M  V30 3375 H 327.268 1.44362 0.892053 0
M  V30 3376 H 326.04 3.14211 2.3321 0
M  V30 3377 H 325.663 1.88628 3.50008 0
M  V30 3378 N 326.66 -1.06551 1.16123 0
M  V30 3379 C 327.607 -2.13961 0.865414 0
M  V30 3380 C 328.577 -1.65066 -0.185055 0
M  V30 3381 O 329.762 -1.90732 -0.05083 0
M  V30 3382 C 326.902 -3.43113 0.369776 0
M  V30 3383 C 326.015 -4.05756 1.48276 0
M  V30 3384 C 325.15 -5.22773 0.942414 0
M  V30 3385 C 324.189 -5.77395 2.03179 0
M  V30 3386 N 323.326 -6.85731 1.50721 0
M  V30 3387 H 328.166 -2.38605 1.78527 0
M  V30 3388 H 325.703 -1.17072 0.890646 0
M  V30 3389 H 327.661 -4.17151 0.0640643 0
M  V30 3390 H 326.291 -3.18695 -0.513143 0
M  V30 3391 H 325.343 -3.29292 1.9045 0
M  V30 3392 H 326.655 -4.42351 2.30493 0
M  V30 3393 H 325.809 -6.03827 0.589729 0
M  V30 3394 H 324.548 -4.87618 0.0895191 0
M  V30 3395 H 323.553 -4.94981 2.3932 0
M  V30 3396 H 324.778 -6.14603 2.8886 0
M  V30 3397 H 322.724 -6.52499 0.676811 0
M  V30 3398 H 322.641 -7.21254 2.26557 0
M  V30 3399 H 323.909 -7.7047 1.18303 0
M  V30 3400 N 328.138 -0.959301 -1.25041 0
M  V30 3401 C 329.363 -0.633507 -1.97488 0
M  V30 3402 C 329.788 0.788555 -1.70773 0
M  V30 3403 O 329.146 1.53394 -0.966431 0
M  V30 3404 C 329.194 -0.904057 -3.49083 0
M  V30 3405 O 328.298 0.0147939 -4.12397 0
M  V30 3406 H 327.639 -0.240368 -0.618966 0
M  V30 3407 H 330.169 -1.28717 -1.59038 0
M  V30 3408 H 330.179 -0.832203 -3.99423 0
M  V30 3409 H 328.854 -1.94048 -3.67856 0
M  V30 3410 H 327.431 -0.109664 -3.72739 0
M  V30 3411 N 329.616 1.39756 -0.72842 0
M  V30 3412 C 330.844 2.04948 -0.283528 0
M  V30 3413 C 331.259 1.54908 1.0793 0
M  V30 3414 O 330.616 0.711135 1.68075 0
M  V30 3415 C 330.667 3.60498 -0.268957 0
M  V30 3416 O 330.388 4.08695 -1.57798 0
M  V30 3417 C 331.889 4.4288 0.192912 0
M  V30 3418 H 329.109 0.659243 -0.125056 0
M  V30 3419 H 331.653 1.78927 -0.990226 0
M  V30 3420 H 329.808 3.85444 0.388801 0
M  V30 3421 H 330.222 5.02977 -1.48709 0
M  V30 3422 H 331.696 5.51791 0.151952 0
M  V30 3423 H 332.173 4.21418 1.23708 0
M  V30 3424 H 332.779 4.23069 -0.435039 0
M  V30 3425 N 331.094 0.475555 1.50254 0
M  V30 3426 C 332.324 -0.0753399 2.06463 0
M  V30 3427 C 332.732 -1.33661 1.33908 0
M  V30 3428 O 332.075 -1.79219 0.403257 0
M  V30 3429 C 332.137 -0.424921 3.5698 0
M  V30 3430 C 331.801 0.734965 4.51051 0
M  V30 3431 C 332.798 1.61827 4.94073 0
M  V30 3432 C 330.483 0.926557 4.9368 0
M  V30 3433 C 332.477 2.67754 5.78434 0
M  V30 3434 C 330.164 1.98904 5.77824 0
M  V30 3435 C 331.162 2.8629 6.20103 0
M  V30 3436 O 330.85 3.90708 7.02568 0
M  V30 3437 H 330.582 0.00576308 0.675975 0
M  V30 3438 H 333.136 0.664662 1.94349 0
M  V30 3439 H 331.366 -1.21817 3.67012 0
M  V30 3440 H 333.055 -0.911422 3.95535 0
M  V30 3441 H 333.821 1.48196 4.61804 0
M  V30 3442 H 329.7 0.25584 4.6029 0
M  V30 3443 H 333.244 3.35992 6.11355 0
M  V30 3444 H 329.141 2.12541 6.09505 0
M  V30 3445 H 329.909 3.87751 7.20827 0
M  V30 3446 N 332.573 -1.56217 0.208337 0
M  V30 3447 C 333.505 -2.1695 -0.739276 0
M  V30 3448 C 334.518 -1.13492 -1.1672 0
M  V30 3449 O 335.707 -1.40529 -1.10063 0
M  V30 3450 C 332.807 -2.72755 -2.01142 0
M  V30 3451 C 331.98 -4.0125 -1.74118 0
M  V30 3452 C 331.039 -4.41749 -2.85909 0
M  V30 3453 O 330.065 -5.08912 -2.54946 0
M  V30 3454 N 331.267 -4.06342 -4.14568 0
M  V30 3455 H 334.032 -2.98893 -0.219837 0
M  V30 3456 H 331.593 -1.61878 0.0268445 0
M  V30 3457 H 333.585 -2.96826 -2.75094 0
M  V30 3458 H 332.155 -1.95191 -2.4417 0
M  V30 3459 H 331.375 -3.85173 -0.838775 0
M  V30 3460 H 332.663 -4.851 -1.53477 0
M  V30 3461 H 332.061 -3.52345 -4.42571 0
M  V30 3462 H 330.618 -4.35335 -4.85105 0
M  V30 3463 N 334.051 0.0651679 -1.57465 0
M  V30 3464 C 334.984 1.10876 -1.99453 0
M  V30 3465 C 335.962 1.37205 -0.872555 0
M  V30 3466 O 337.146 1.50468 -1.13542 0
M  V30 3467 C 334.273 2.45167 -2.3369 0
M  V30 3468 C 333.319 2.3493 -3.55964 0
M  V30 3469 S 334.152 1.73708 -5.06543 0
M  V30 3470 C 335.308 3.09563 -5.43987 0
M  V30 3471 H 335.541 0.750967 -2.87659 0
M  V30 3472 H 333.074 0.273933 -1.51951 0
M  V30 3473 H 335.032 3.22412 -2.54088 0
M  V30 3474 H 333.693 2.78105 -1.46001 0
M  V30 3475 H 332.886 3.3398 -3.77457 0
M  V30 3476 H 332.488 1.65823 -3.3523 0
M  V30 3477 H 334.78 4.05882 -5.42463 0
M  V30 3478 H 335.723 2.92843 -6.44708 0
M  V30 3479 H 336.131 3.10474 -4.71451 0
M  V30 3480 N 335.529 1.53961 0.336706 0
M  V30 3481 C 336.477 1.83136 1.43401 0
M  V30 3482 C 337.471 0.702313 1.54156 0
M  V30 3483 O 338.677 0.885765 1.56698 0
M  V30 3484 H 335.052 0.580309 0.478273 0
M  V30 3485 H 337.023 2.74925 1.16012 0
M  V30 3486 C 335.772 2.06385 2.79822 0
M  V30 3487 H 335.095 2.92718 2.72316 0
M  V30 3488 H 336.535 2.30761 3.55704 0
M  V30 3489 C 334.994 0.851414 3.25964 0
M  V30 3490 O 335.524 0.0541904 4.01663 0
M  V30 3491 N 333.73 0.66672 2.82848 0
M  V30 3492 H 333.277 1.31665 2.21409 0
M  V30 3493 H 333.235 -0.143032 3.14074 0
M  V30 3494 N 337.007 -0.598083 1.45811 0
M  V30 3495 C 338.418 -1.18011 1.44673 0
M  V30 3496 C 338.769 -1.95378 0.179364 0
M  V30 3497 O 337.894 -2.04124 -0.718509 0
M  V30 3498 C 338.489 -2.14677 2.62105 0
M  V30 3499 C 337.048 -2.68236 2.64057 0
M  V30 3500 C 336.195 -1.43816 2.37091 0
M  V30 3501 H 339.146 -0.38686 1.53913 0
M  V30 3502 H 339.167 -2.97878 2.36746 0
M  V30 3503 H 338.679 -1.5834 3.5433 0
M  V30 3504 H 336.78 -3.28486 1.75864 0
M  V30 3505 H 336.893 -3.12021 3.63566 0
M  V30 3506 H 335.257 -1.731 1.86838 0
M  V30 3507 H 336.04 -0.893333 3.31473 0
M  V30 3508 N 338.485 -1.33259 -0.841409 0
M  V30 3509 C 339.448 -1.23221 -1.9326 0
M  V30 3510 C 340.448 -0.151895 -1.60081 0
M  V30 3511 O 341.638 -0.403246 -1.69468 0
M  V30 3512 C 338.77 -0.898123 -3.28856 0
M  V30 3513 H 339.963 -2.2021 -2.03587 0
M  V30 3514 H 337.516 -1.17281 -1.03319 0
M  V30 3515 H 338.251 0.0693841 -3.24226 0
M  V30 3516 H 338.036 -1.67934 -3.54317 0
M  V30 3517 H 339.526 -0.852563 -4.08805 0
M  V30 3518 N 339.963 1.05934 -1.16686 0
M  V30 3519 C 340.911 2.15603 -0.872817 0
M  V30 3520 C 341.905 1.68647 0.159576 0
M  V30 3521 O 343.111 1.79995 0.0132125 0
M  V30 3522 H 339.486 0.703885 -0.264671 0
M  V30 3523 H 341.457 2.37613 -1.80507 0
M  V30 3524 C 340.206 3.45457 -0.394344 0
M  V30 3525 H 339.529 3.81984 -1.18019 0
M  V30 3526 H 340.969 4.2339 -0.227408 0
M  V30 3527 C 339.428 3.25021 0.88673 0
M  V30 3528 O 339.958 3.50906 1.95519 0
M  V30 3529 N 338.164 2.78437 0.831925 0
M  V30 3530 H 337.711 2.57572 -0.0377619 0
M  V30 3531 H 337.669 2.65144 1.68956 0
M  V30 3532 N 341.441 0.965919 1.2453 0
M  V30 3533 C 342.669 0.644385 1.96609 0
M  V30 3534 C 343.084 -0.785823 1.71669 0
M  V30 3535 O 342.441 -1.52703 0.999399 0
M  V30 3536 C 342.492 0.907375 3.49927 0
M  V30 3537 O 342.213 2.28136 3.74013 0
M  V30 3538 C 343.714 0.599784 4.39224 0
M  V30 3539 H 340.934 0.240588 0.626385 0
M  V30 3540 H 343.478 1.29337 1.58405 0
M  V30 3541 H 341.633 0.304631 3.862 0
M  V30 3542 H 342.047 2.36002 4.68405 0
M  V30 3543 H 343.521 0.834263 5.45659 0
M  V30 3544 H 343.998 -0.465921 4.36722 0
M  V30 3545 H 344.604 1.18235 4.08535 0
M  V30 3546 N 342.919 -1.39368 0.735821 0
M  V30 3547 C 343.829 -2.34395 0.0979693 0
M  V30 3548 C 344.845 -1.58361 -0.720968 0
M  V30 3549 O 346.021 -1.90648 -0.649245 0
M  V30 3550 C 343.086 -3.37393 -0.797916 0
M  V30 3551 C 342.147 -4.29287 0.0333662 0
M  V30 3552 C 341.38 -5.27365 -0.819854 0
M  V30 3553 O 341.603 -5.31959 -2.05855 0
M  V30 3554 O 340.537 -6.01389 -0.248079 0
M  V30 3555 H 344.363 -2.90601 0.882315 0
M  V30 3556 H 341.948 -1.40909 0.4965 0
M  V30 3557 H 343.83 -4.00505 -1.31048 0
M  V30 3558 H 342.505 -2.83571 -1.56106 0
M  V30 3559 H 341.412 -3.69395 0.591475 0
M  V30 3560 H 342.745 -4.86317 0.758752 0
M  V30 3561 N 344.397 -0.483516 -1.5 0
M  V30 3562 C 345.307 0.309172 -2.32554 0
M  V30 3563 C 346.323 0.984159 -1.43493 0
M  V30 3564 O 347.499 0.969399 -1.76535 0
M  V30 3565 C 344.564 1.36979 -3.18493 0
M  V30 3566 C 343.625 0.710095 -4.23387 0
M  V30 3567 C 342.858 1.72018 -5.05218 0
M  V30 3568 O 343.081 2.94813 -4.88305 0
M  V30 3569 O 342.015 1.28515 -5.8802 0
M  V30 3570 H 345.841 -0.366064 -3.01486 0
M  V30 3571 H 343.426 -0.24514 -1.47375 0
M  V30 3572 H 345.308 1.98385 -3.71781 0
M  V30 3573 H 343.983 2.02828 -2.52275 0
M  V30 3574 H 342.89 0.0567539 -3.74057 0
M  V30 3575 H 344.223 0.0943557 -4.9211 0
M  V30 3576 N 345.875 1.56104 -0.216619 0
M  V30 3577 C 346.838 2.18819 0.681962 0
M  V30 3578 C 347.838 1.14866 1.12528 0
M  V30 3579 O 349.028 1.40128 1.03488 0
M  V30 3580 C 346.16 2.80756 1.93362 0
M  V30 3581 H 347.353 2.99595 0.135254 0
M  V30 3582 H 344.906 1.56265 0.0330003 0
M  V30 3583 H 345.641 2.03837 2.52232 0
M  V30 3584 H 345.426 3.56876 1.62426 0
M  V30 3585 H 346.916 3.28844 2.57393 0
M  V30 3586 N 347.353 -0.0568162 1.57498 0
M  V30 3587 C 348.286 -1.09817 2.00039 0
M  V30 3588 C 349.264 -1.3674 0.879819 0
M  V30 3589 O 350.448 -1.49863 1.14338 0
M  V30 3590 C 347.575 -2.43924 2.34986 0
M  V30 3591 C 346.621 -2.33039 3.57204 0
M  V30 3592 S 347.454 -1.7102 5.07457 0
M  V30 3593 C 348.61 -3.06674 5.45621 0
M  V30 3594 H 348.843 -0.735701 2.88053 0
M  V30 3595 H 346.376 -0.265871 1.52094 0
M  V30 3596 H 348.334 -3.2106 2.55795 0
M  V30 3597 H 346.995 -2.77327 1.47474 0
M  V30 3598 H 346.188 -3.31973 3.79223 0
M  V30 3599 H 345.79 -1.64043 3.36104 0
M  V30 3600 H 348.082 -4.03 5.44608 0
M  V30 3601 H 349.025 -2.8942 6.46252 0
M  V30 3602 H 349.433 -3.07969 4.73091 0
M  V30 3603 N 348.832 -1.54138 -0.328536 0
M  V30 3604 C 349.779 -1.83176 -1.40411 0
M  V30 3605 C 350.749 -0.678494 -1.5161 0
M  V30 3606 O 351.934 -0.92443 -1.6691 0
M  V30 3607 C 349.074 -2.06035 -2.76846 0
M  V30 3608 C 348.187 -3.33727 -2.74318 0
M  V30 3609 C 347.322 -3.46574 -4.02567 0
M  V30 3610 C 346.361 -4.68159 -3.94327 0
M  V30 3611 N 345.498 -4.77959 -5.14296 0
M  V30 3612 H 350.338 -2.74938 -1.14948 0
M  V30 3613 H 347.875 -1.36166 -0.556538 0
M  V30 3614 H 349.833 -2.1728 -3.56153 0
M  V30 3615 H 348.463 -1.1757 -3.00628 0
M  V30 3616 H 347.515 -3.31246 -1.8703 0
M  V30 3617 H 348.827 -4.23139 -2.64111 0
M  V30 3618 H 347.981 -3.57333 -4.90304 0
M  V30 3619 H 346.72 -2.55245 -4.15574 0
M  V30 3620 H 345.725 -4.57461 -3.04974 0
M  V30 3621 H 346.95 -5.60868 -3.82889 0
M  V30 3622 H 344.896 -3.89544 -5.27818 0
M  V30 3623 H 344.813 -5.6133 -5.06404 0
M  V30 3624 H 346.081 -4.93044 -6.03761 0
M  V30 3625 N 350.31 0.590341 -1.46126 0
M  V30 3626 C 351.22 1.72793 -1.58681 0
M  V30 3627 C 352.236 1.67516 -0.470566 0
M  V30 3628 O 353.412 1.87562 -0.733642 0
M  V30 3629 C 350.477 3.09287 -1.5666 0
M  V30 3630 C 349.538 3.25886 -2.79458 0
M  V30 3631 C 348.771 4.55869 -2.77524 0
M  V30 3632 O 348.994 5.3928 -1.85832 0
M  V30 3633 O 347.928 4.75552 -3.68964 0
M  V30 3634 H 351.754 1.65149 -2.54872 0
M  V30 3635 H 349.339 0.756486 -1.28832 0
M  V30 3636 H 351.221 3.90577 -1.58202 0
M  V30 3637 H 349.896 3.17385 -0.636271 0
M  V30 3638 H 348.803 2.44119 -2.83472 0
M  V30 3639 H 350.136 3.22675 -3.71674 0
M  V30 3640 N 351.788 1.33704 0.83433 0
M  V30 3641 C 353.034 1.25603 1.59222 0
M  V30 3642 C 353.367 -0.176659 1.93395 0
M  V30 3643 O 352.642 -1.11915 1.59076 0
M  V30 3644 C 352.925 2.13576 2.89926 0
M  V30 3645 C 352.778 3.65326 2.62406 0
M  V30 3646 C 354.097 2.01238 3.91397 0
M  V30 3647 H 351.216 0.457613 0.577719 0
M  V30 3648 H 353.858 1.63848 0.961972 0
M  V30 3649 H 352.008 1.8109 3.43713 0
M  V30 3650 H 353.68 4.08124 2.15017 0
M  V30 3651 H 351.923 3.8698 1.96033 0
M  V30 3652 H 352.594 4.22232 3.55562 0
M  V30 3653 H 355.07 2.29738 3.46929 0
M  V30 3654 H 353.946 2.65036 4.80673 0
M  V30 3655 H 354.207 0.985951 4.30966 0
M  V30 3656 N 353.266 -1.05314 1.17247 0
M  V30 3657 C 354.176 -2.16538 0.90268 0
M  V30 3658 C 355.192 -1.73523 -0.128707 0
M  V30 3659 O 356.368 -2.01337 0.0502701 0
M  V30 3660 C 353.433 -3.44167 0.418356 0
M  V30 3661 C 352.494 -4.01635 1.51618 0
M  V30 3662 C 351.727 -5.23171 1.05487 0
M  V30 3663 O 351.95 -5.70327 -0.0914715 0
M  V30 3664 O 350.884 -5.72848 1.8474 0
M  V30 3665 H 354.71 -2.42145 1.83302 0
M  V30 3666 H 352.295 -1.15037 0.953246 0
M  V30 3667 H 354.177 -4.21112 0.155726 0
M  V30 3668 H 352.852 -3.20063 -0.48385 0
M  V30 3669 H 351.759 -3.26135 1.83268 0
M  V30 3670 H 353.092 -4.30053 2.39405 0
M  V30 3671 N 354.744 -0.972509 -1.24016 0
M  V30 3672 C 355.674 -0.525548 -2.27509 0
M  V30 3673 C 356.655 0.437262 -1.64384 0
M  V30 3674 O 357.84 0.332343 -1.91335 0
M  V30 3675 C 354.97 0.180448 -3.46831 0
M  V30 3676 C 353.924 -0.698859 -4.22256 0
M  V30 3677 C 353.25 0.138903 -5.3452 0
M  V30 3678 C 354.55 -1.98582 -4.83076 0
M  V30 3679 H 356.244 -1.39058 -2.65148 0
M  V30 3680 H 353.79 -0.67009 -1.27459 0
M  V30 3681 H 355.743 0.504387 -4.18371 0
M  V30 3682 H 354.467 1.07987 -3.08231 0
M  V30 3683 H 353.126 -1.00614 -3.52523 0
M  V30 3684 H 352.774 1.03862 -4.9216 0
M  V30 3685 H 352.474 -0.446259 -5.85903 0
M  V30 3686 H 353.998 0.457404 -6.08884 0
M  V30 3687 H 355.412 -1.72715 -5.46665 0
M  V30 3688 H 353.809 -2.5181 -5.44713 0
M  V30 3689 H 354.879 -2.67769 -4.04262 0
M  V30 3690 N 356.222 1.38976 -0.743202 0
M  V30 3691 C 357.499 1.94351 -0.220705 0
M  V30 3692 C 357.879 1.67935 1.2791 0
M  V30 3693 O 357.227 1.01211 2.04862 0
M  V30 3694 C 357.437 3.44426 -0.563171 0
M  V30 3695 C 358.785 4.2144 -0.517046 0
M  V30 3696 O 359.809 3.52661 -0.500846 0
M  V30 3697 O 358.668 5.44032 -0.518806 0
M  V30 3698 H 355.762 0.825879 -0.043047 0
M  V30 3699 H 358.308 1.48429 -0.822618 0
M  V30 3700 H 357.08 3.5712 -1.59941 0
M  V30 3701 H 356.703 3.97543 0.0672883 0
M  V30 3702 N 357.7 0.491464 1.49741 0
M  V30 3703 C 358.949 -0.0582189 2.01616 0
M  V30 3704 C 359.262 -1.38927 1.3769 0
M  V30 3705 O 360.468 -2.02509 1.80838 0
M  V30 3706 C 358.924 -0.154235 3.59569 0
M  V30 3707 C 358.532 1.1696 4.32463 0
M  V30 3708 C 360.276 -0.65479 4.1942 0
M  V30 3709 C 358.183 1.03627 5.8225 0
M  V30 3710 H 357.113 -0.0255317 0.753568 0
M  V30 3711 H 359.764 0.629445 1.72367 0
M  V30 3712 H 358.146 -0.906138 3.85493 0
M  V30 3713 H 359.32 1.93405 4.18248 0
M  V30 3714 H 357.635 1.60285 3.84315 0
M  V30 3715 H 360.232 -0.771903 5.29099 0
M  V30 3716 H 360.575 -1.65127 3.8215 0
M  V30 3717 H 361.108 0.040304 3.9778 0
M  V30 3718 H 357.847 2.00672 6.24028 0
M  V30 3719 H 357.367 0.312546 5.98985 0
M  V30 3720 H 359.046 0.711114 6.4308 0
M  V30 3721 N 359.178 -1.55987 0.224894 0
M  V30 3722 C 360.424 -1.98684 -0.406502 0
M  V30 3723 C 360.757 -1.11248 -1.59177 0
M  V30 3724 O 360.032 -0.170909 -1.93748 0
M  V30 3725 C 360.315 -3.50218 -0.837808 0
M  V30 3726 C 360.168 -4.48426 0.351332 0
M  V30 3727 C 361.487 -4.06243 -1.69278 0
M  V30 3728 H 358.606 -0.722337 -0.146283 0
M  V30 3729 H 361.248 -1.87255 0.321799 0
M  V30 3730 H 359.398 -3.60089 -1.45837 0
M  V30 3731 H 361.07 -4.50562 0.989526 0
M  V30 3732 H 359.313 -4.22159 0.998207 0
M  V30 3733 H 359.984 -5.52 0.00655905 0
M  V30 3734 H 362.46 -3.99337 -1.16914 0
M  V30 3735 H 361.336 -5.12581 -1.96346 0
M  V30 3736 H 361.597 -3.53332 -2.65723 0
M  V30 3737 N 360.656 0.0484629 -1.57525 0
M  V30 3738 C 361.566 1.07241 -2.08654 0
M  V30 3739 C 362.582 1.409 -1.02095 0
M  V30 3740 O 363.758 1.50609 -1.33712 0
M  V30 3741 C 360.823 2.36008 -2.5397 0
M  V30 3742 C 359.884 2.09108 -3.7493 0
M  V30 3743 C 359.117 3.31736 -4.18075 0
M  V30 3744 O 359.34 4.41714 -3.60895 0
M  V30 3745 O 358.274 3.18576 -5.10679 0
M  V30 3746 H 362.1 0.667965 -2.96263 0
M  V30 3747 H 359.685 0.26417 -1.47046 0
M  V30 3748 H 361.567 3.11747 -2.83535 0
M  V30 3749 H 360.242 2.75786 -1.69481 0
M  V30 3750 H 359.149 1.31 -3.50414 0
M  V30 3751 H 360.482 1.74198 -4.60343 0
M  V30 3752 N 362.134 1.5431 0.320358 0
M  V30 3753 C 363.382 1.72327 1.05583 0
M  V30 3754 C 363.703 0.50149 1.88441 0
M  V30 3755 O 362.973 -0.48448 1.89815 0
M  V30 3756 H 361.553 0.635387 0.3928 0
M  V30 3757 H 364.215 1.91621 0.356019 0
M  V30 3758 H 363.311 2.60426 1.72003 0
M  V30 3759 N 363.613 -0.582584 1.46437 0
M  V30 3760 C 364.576 -1.67366 1.56592 0
M  V30 3761 C 365.576 -1.54575 0.443072 0
M  V30 3762 O 366.766 -1.59191 0.707381 0
M  V30 3763 C 363.898 -3.06791 1.48634 0
M  V30 3764 H 365.091 -1.5972 2.5383 0
M  V30 3765 H 362.644 -0.800432 1.34249 0
M  V30 3766 H 363.379 -3.19993 0.526763 0
M  V30 3767 H 363.164 -3.17484 2.30101 0
M  V30 3768 H 364.654 -3.86218 1.58826 0
M  V30 3769 N 365.091 -1.34144 -0.827227 0
M  V30 3770 C 366.368 -1.16844 -1.56865 0
M  V30 3771 C 366.748 0.260654 -2.09485 0
M  V30 3772 O 366.096 1.26138 -1.9053 0
M  V30 3773 C 366.306 -2.21939 -2.6934 0
M  V30 3774 C 367.654 -2.56695 -3.3822 0
M  V30 3775 O 368.678 -2.20695 -2.79593 0
M  V30 3776 O 367.537 -3.18518 -4.44082 0
M  V30 3777 H 364.631 -0.452669 -0.692112 0
M  V30 3778 H 367.177 -1.45763 -0.868973 0
M  V30 3779 H 365.949 -3.17882 -2.28182 0
M  V30 3780 H 365.572 -1.94172 -3.46962 0
M  V30 3781 N 366.569 1.04691 -1.17803 0
M  V30 3782 C 367.818 1.77176 -0.963931 0
M  V30 3783 C 368.131 1.88888 0.508015 0
M  V30 3784 O 369.337 2.58164 0.840465 0
M  V30 3785 C 367.793 3.18518 -1.67555 0
M  V30 3786 C 367.401 3.14919 -3.18637 0
M  V30 3787 C 369.145 3.95424 -1.54402 0
M  V30 3788 C 367.052 4.51081 -3.82466 0
M  V30 3789 H 365.982 0.664116 -0.357023 0
M  V30 3790 H 368.633 1.17303 -1.4111 0
M  V30 3791 H 367.015 3.78748 -1.15613 0
M  V30 3792 H 368.189 2.64178 -3.77554 0
M  V30 3793 H 366.504 2.51512 -3.31859 0
M  V30 3794 H 369.101 4.96106 -1.99456 0
M  V30 3795 H 369.444 4.13343 -0.495329 0
M  V30 3796 H 369.977 3.41754 -2.0359 0
M  V30 3797 H 366.716 4.38368 -4.87354 0
M  V30 3798 H 366.236 5.01951 -3.28337 0
M  V30 3799 H 367.915 5.2001 -3.84965 0
M  V30 3800 N 368.047 0.979072 1.23499 0
M  V30 3801 C 369.293 0.648178 1.92163 0
M  V30 3802 C 369.626 -0.816049 1.76222 0
M  V30 3803 O 368.901 -1.58849 1.12237 0
M  V30 3804 C 369.184 1.03773 3.44824 0
M  V30 3805 C 369.037 2.55948 3.69879 0
M  V30 3806 C 370.356 0.580653 4.36253 0
M  V30 3807 H 367.475 0.236952 0.69787 0
M  V30 3808 H 370.117 1.22012 1.45647 0
M  V30 3809 H 368.267 0.551058 3.84572 0
M  V30 3810 H 369.939 3.12179 3.3962 0
M  V30 3811 H 368.182 2.98641 3.14636 0
M  V30 3812 H 368.853 2.78255 4.76737 0
M  V30 3813 H 371.329 0.998465 4.03943 0
M  V30 3814 H 370.205 0.881663 5.41773 0
M  V30 3815 H 370.466 -0.519052 4.39042 0
M  V30 3816 N 369.525 -1.3858 0.750561 0
M  V30 3817 C 370.458 -2.28095 0.0693139 0
M  V30 3818 C 371.436 -1.45217 -0.731491 0
M  V30 3819 O 372.62 -1.74587 -0.71076 0
M  V30 3820 C 369.747 -3.26282 -0.90871 0
M  V30 3821 C 368.793 -4.26056 -0.194507 0
M  V30 3822 S 369.626 -5.24026 1.10257 0
M  V30 3823 C 370.782 -6.2577 0.127542 0
M  V30 3824 H 371.015 -2.85526 0.8284 0
M  V30 3825 H 368.548 -1.44536 0.543014 0
M  V30 3826 H 370.506 -3.83367 -1.46766 0
M  V30 3827 H 369.167 -2.6784 -1.64075 0
M  V30 3828 H 368.36 -4.95249 -0.93512 0
M  V30 3829 H 367.962 -3.72852 0.292837 0
M  V30 3830 H 370.254 -6.73796 -0.707516 0
M  V30 3831 H 371.197 -7.03712 0.787044 0
M  V30 3832 H 371.605 -5.63938 -0.251803 0
M  V30 3833 N 371.003 -0.499398 -1.49478 0
M  V30 3834 C 372.249 0.0457576 -2.02748 0
M  V30 3835 C 372.582 1.36793 -1.37846 0
M  V30 3836 O 371.857 1.87596 -0.513601 0
M  V30 3837 C 372.14 0.199986 -3.59544 0
M  V30 3838 C 371.993 -1.1452 -4.34977 0
M  V30 3839 C 373.312 0.94137 -4.29914 0
M  V30 3840 H 370.431 0.0151552 -0.736844 0
M  V30 3841 H 373.073 -0.650498 -1.78518 0
M  V30 3842 H 371.223 0.793007 -3.8032 0
M  V30 3843 H 372.895 -1.77697 -4.25701 0
M  V30 3844 H 371.138 -1.73488 -3.97598 0
M  V30 3845 H 371.809 -0.990607 -5.43039 0
M  V30 3846 H 374.285 0.43844 -4.13784 0
M  V30 3847 H 373.161 1.01812 -5.39375 0
M  V30 3848 H 373.422 1.98471 -3.95046 0
M  V30 3849 N 372.481 1.55866 -0.233164 0
M  V30 3850 C 373.428 2.20796 0.67215 0
M  V30 3851 C 374.398 1.16731 1.18166 0
M  V30 3852 O 375.583 1.45129 1.23864 0
M  V30 3853 C 372.723 2.90072 1.86955 0
M  V30 3854 C 371.836 4.08759 1.39786 0
M  V30 3855 C 370.971 4.65787 2.55374 0
M  V30 3856 C 370.01 5.76752 2.04998 0
M  V30 3857 N 369.147 6.28021 3.13901 0
M  V30 3858 H 373.987 2.9779 0.111749 0
M  V30 3859 H 371.524 1.47036 0.0434007 0
M  V30 3860 H 373.482 3.28428 2.57276 0
M  V30 3861 H 372.112 2.15575 2.40265 0
M  V30 3862 H 371.164 3.7581 0.589173 0
M  V30 3863 H 372.476 4.88906 0.98856 0
M  V30 3864 H 371.63 5.06646 3.33758 0
M  V30 3865 H 370.369 3.84828 2.99598 0
M  V30 3866 H 369.374 5.35383 1.25079 0
M  V30 3867 H 370.599 6.59553 1.61759 0
M  V30 3868 H 368.545 5.49971 3.57586 0
M  V30 3869 H 368.462 7.03323 2.7726 0
M  V30 3870 H 369.73 6.73538 3.92386 0
M  V30 3871 N 373.959 -0.0401083 1.57549 0
M  V30 3872 C 375.37 -0.588097 1.77196 0
M  V30 3873 C 375.721 -1.76209 0.862832 0
M  V30 3874 O 374.846 -2.16331 0.0548389 0
M  V30 3875 C 375.441 -1.07363 3.21339 0
M  V30 3876 C 374 -1.56723 3.42221 0
M  V30 3877 C 373.147 -0.50041 2.72747 0
M  V30 3878 H 376.098 0.186119 1.57605 0
M  V30 3879 H 376.119 -1.94143 3.27244 0
M  V30 3880 H 375.631 -0.218975 3.87482 0
M  V30 3881 H 373.732 -2.4441 2.81237 0
M  V30 3882 H 373.845 -1.62234 4.50796 0
M  V30 3883 H 372.209 -0.952894 2.36203 0
M  V30 3884 H 372.992 0.344599 3.41566 0
M  V30 3885 N 375.437 -1.54477 -0.31217 0
M  V30 3886 C 376.685 -1.72884 -1.04668 0
M  V30 3887 C 377.006 -0.511477 -1.88173 0
M  V30 3888 O 376.276 0.474407 -1.90069 0
M  V30 3889 H 374.856 -0.637461 -0.389425 0
M  V30 3890 H 377.518 -1.91807 -0.345852 0
M  V30 3891 H 376.614 -2.61334 -1.70619 0
M  V30 3892 N 376.915 0.57481 -1.46744 0
M  V30 3893 C 377.845 1.69337 -1.60771 0
M  V30 3894 C 378.826 1.63825 -0.457736 0
M  V30 3895 O 380.011 1.8172 -0.684947 0
M  V30 3896 C 377.141 3.0798 -1.60517 0
M  V30 3897 C 376.095 3.28327 -2.74564 0
M  V30 3898 C 375.421 4.67578 -2.59373 0
M  V30 3899 C 376.721 3.15398 -4.16319 0
M  V30 3900 H 378.415 1.57853 -2.54407 0
M  V30 3901 H 375.961 0.75799 -1.22436 0
M  V30 3902 H 377.914 3.86061 -1.68923 0
M  V30 3903 H 376.638 3.20381 -0.634305 0
M  V30 3904 H 375.297 2.52649 -2.65639 0
M  V30 3905 H 374.945 4.76755 -1.60353 0
M  V30 3906 H 374.645 4.82144 -3.35873 0
M  V30 3907 H 376.169 5.47817 -2.69682 0
M  V30 3908 H 377.583 3.83315 -4.26313 0
M  V30 3909 H 375.98 3.41482 -4.93468 0
M  V30 3910 H 377.05 2.12372 -4.3592 0
M  V30 3911 N 378.394 1.34581 0.820102 0
M  V30 3912 C 379.357 1.2628 1.91275 0
M  V30 3913 C 380.357 0.177344 1.59819 0
M  V30 3914 O 381.547 0.430156 1.68806 0
M  V30 3915 C 378.679 0.950327 3.27386 0
M  V30 3916 H 379.872 2.23421 2.00057 0
M  V30 3917 H 377.425 1.1891 1.0144 0
M  V30 3918 H 378.16 -0.0177938 3.24295 0
M  V30 3919 H 377.945 1.73549 3.51601 0
M  V30 3920 H 379.435 0.917492 4.07396 0
M  V30 3921 N 379.872 -1.04064 1.18357 0
M  V30 3922 C 381.102 -1.80654 1.00238 0
M  V30 3923 C 381.51 -1.83713 -0.452362 0
M  V30 3924 O 380.853 -1.27135 -1.32599 0
M  V30 3925 C 380.915 -3.27582 1.48088 0
M  V30 3926 C 380.579 -3.48184 2.96002 0
M  V30 3927 C 381.576 -3.39372 3.93856 0
M  V30 3928 C 379.261 -3.7478 3.34433 0
M  V30 3929 C 381.255 -3.5686 5.28138 0
M  V30 3930 C 378.942 -3.91915 4.68877 0
M  V30 3931 C 379.94 -3.82956 5.65539 0
M  V30 3932 O 379.628 -3.996 6.97549 0
M  V30 3933 H 379.36 -0.575751 0.354241 0
M  V30 3934 H 381.914 -1.32044 1.57333 0
M  V30 3935 H 380.144 -3.77161 0.853588 0
M  V30 3936 H 381.833 -3.8573 1.2636 0
M  V30 3937 H 382.599 -3.18789 3.65511 0
M  V30 3938 H 378.478 -3.80852 2.59756 0
M  V30 3939 H 382.022 -3.49783 6.03571 0
M  V30 3940 H 377.919 -4.11992 4.96923 0
M  V30 3941 H 378.687 -4.1676 7.04452 0
M  V30 3942 N 381.35 -0.985608 -1.22978 0
M  V30 3943 C 382.28 -0.549649 -2.26939 0
M  V30 3944 C 383.261 0.419803 -1.64838 0
M  V30 3945 O 384.446 0.31203 -1.91677 0
M  V30 3946 C 381.576 0.143652 -3.47003 0
M  V30 3947 C 380.53 -0.743606 -4.21491 0
M  V30 3948 C 379.856 0.0822027 -5.34637 0
M  V30 3949 C 381.156 -2.03694 -4.80943 0
M  V30 3950 H 382.85 -1.41862 -2.63658 0
M  V30 3951 H 380.396 -0.683571 -1.26741 0
M  V30 3952 H 382.349 0.459985 -4.18882 0
M  V30 3953 H 381.073 1.04711 -3.09359 0
M  V30 3954 H 379.732 -1.04347 -3.51436 0
M  V30 3955 H 379.38 0.986359 -4.93234 0
M  V30 3956 H 379.08 -0.508377 -5.85397 0
M  V30 3957 H 380.604 0.392797 -6.09335 0
M  V30 3958 H 382.018 -1.78504 -5.44802 0
M  V30 3959 H 380.415 -2.57573 -5.42011 0
M  V30 3960 H 381.485 -2.72042 -4.01399 0
M  V30 3961 N 382.828 1.3818 -0.7579 0
M  V30 3962 C 384.105 1.94106 -0.241306 0
M  V30 3963 C 384.485 1.69282 1.26122 0
M  V30 3964 O 383.833 1.03378 2.03777 0
M  V30 3965 C 384.043 3.43809 -0.59967 0
M  V30 3966 C 385.391 4.20868 -0.561717 0
M  V30 3967 O 386.415 3.5211 -0.538222 0
M  V30 3968 O 385.274 5.43451 -0.576478 0
M  V30 3969 H 382.368 0.825376 -0.0518042 0
M  V30 3970 H 384.914 1.47548 -0.838315 0
M  V30 3971 H 383.686 3.55403 -1.6372 0
M  V30 3972 H 383.309 3.97592 0.0251197 0
M  V30 3973 N 384.306 0.507319 1.49211 0
M  V30 3974 C 385.555 -0.0368315 2.01666 0
M  V30 3975 C 385.868 -1.37459 1.39156 0
M  V30 3976 O 387.074 -2.00579 1.82976 0
M  V30 3977 C 385.53 -0.116089 3.59713 0
M  V30 3978 C 385.138 1.2154 4.31198 0
M  V30 3979 C 386.882 -0.610268 4.2009 0
M  V30 3980 C 384.789 1.09796 5.81119 0
M  V30 3981 H 383.719 -0.0175376 0.753796 0
M  V30 3982 H 386.37 0.647691 1.71689 0
M  V30 3983 H 384.752 -0.8652 3.86433 0
M  V30 3984 H 385.926 1.9783 4.16173 0
M  V30 3985 H 384.241 1.64352 3.82593 0
M  V30 3986 H 386.838 -0.715742 5.29888 0
M  V30 3987 H 387.181 -1.61064 3.8388 0
M  V30 3988 H 387.714 0.0824916 3.97714 0
M  V30 3989 H 384.453 2.0728 6.21864 0
M  V30 3990 H 383.973 0.376058 5.9862 0
M  V30 3991 H 385.652 0.779281 6.4229 0
M  V30 3992 N 385.784 -1.5574 0.241426 0
M  V30 3993 C 387.03 -1.99104 -0.385406 0
M  V30 3994 C 387.363 -1.1293 -1.57988 0
M  V30 3995 O 386.638 -0.191449 -1.93555 0
M  V30 3996 C 386.921 -3.51087 -0.800616 0
M  V30 3997 C 386.774 -4.48028 0.398874 0
M  V30 3998 C 388.093 -4.08015 -1.64959 0
M  V30 3999 H 385.212 -0.723848 -0.138614 0
M  V30 4000 H 387.854 -1.86903 0.341642 0
M  V30 4001 H 386.004 -3.61615 -1.4201 0
M  V30 4002 H 387.676 -4.49487 1.03726 0
M  V30 4003 H 385.919 -4.21077 1.04293 0
M  V30 4004 H 386.59 -5.51962 0.0651056 0
M  V30 4005 H 389.066 -4.00555 -1.12672 0
M  V30 4006 H 387.942 -5.14635 -1.90898 0
M  V30 4007 H 388.203 -3.56131 -2.61961 0
M  V30 4008 N 387.262 0.0317525 -1.57568 0
M  V30 4009 C 388.508 0.718712 -1.90279 0
M  V30 4010 C 388.863 1.73108 -0.839727 0
M  V30 4011 O 388.156 1.90997 0.15188 0
M  V30 4012 C 388.35 1.43167 -3.27472 0
M  V30 4013 C 388.179 0.489869 -4.47024 0
M  V30 4014 C 386.949 0.111909 -5.05176 0
M  V30 4015 C 389.147 -0.230592 -5.13783 0
M  V30 4016 N 387.129 -0.831427 -6.08244 0
M  V30 4017 C 388.5 -1.02968 -6.1139 0
M  V30 4018 C 390.555 -0.297821 -4.97008 0
M  V30 4019 C 389.258 -1.88982 -6.9403 0
M  V30 4020 C 391.284 -1.14507 -5.80209 0
M  V30 4021 C 390.646 -1.9321 -6.77384 0
M  V30 4022 H 386.745 0.237177 -0.745165 0
M  V30 4023 H 389.329 -0.0211267 -1.94689 0
M  V30 4024 H 387.5 2.14199 -3.23996 0
M  V30 4025 H 389.232 2.0708 -3.47707 0
M  V30 4026 H 385.987 0.473513 -4.71227 0
M  V30 4027 H 386.411 -1.29752 -6.6445 0
M  V30 4028 H 391.053 0.296346 -4.2176 0
M  V30 4029 H 388.771 -2.4948 -7.68626 0
M  V30 4030 H 392.357 -1.20059 -5.69278 0
M  V30 4031 H 391.237 -2.57711 -7.40645 0
M  V30 4032 N 388.74 1.54641 0.303973 0
M  V30 4033 C 390.156 1.45788 0.649463 0
M  V30 4034 C 390.356 0.64666 1.90842 0
M  V30 4035 O 389.412 0.153183 2.52035 0
M  V30 4036 C 390.725 2.89718 0.805227 0
M  V30 4037 C 392.273 2.99742 0.901305 0
M  V30 4038 C 392.748 4.44863 1.08909 0
M  V30 4039 N 394.239 4.48559 1.15536 0
M  V30 4040 C 394.974 5.58026 1.3189 0
M  V30 4041 N 394.47 6.77422 1.45161 0
M  V30 4042 N 396.263 5.45708 1.34755 0
M  V30 4043 H 388.414 2.05854 -0.523237 0
M  V30 4044 H 390.677 0.932186 -0.172431 0
M  V30 4045 H 390.383 3.51666 -0.0489108 0
M  V30 4046 H 390.257 3.36964 1.69513 0
M  V30 4047 H 392.644 2.3791 1.74593 0
M  V30 4048 H 392.725 2.55797 -0.0125531 0
M  V30 4049 H 392.369 5.07288 0.249241 0
M  V30 4050 H 392.299 4.86436 2.01713 0
M  V30 4051 H 394.79 3.6254 1.06646 0
M  V30 4052 H 395.103 7.56604 1.57387 0
M  V30 4053 H 393.448 6.80292 1.42223 0
M  V30 4054 H 396.639 4.51378 1.23996 0
M  V30 4055 H 396.812 6.3107 1.47157 0
M  V30 4056 N 390.218 -0.567019 1.47046 0
M  V30 4057 C 391.446 -1.35027 1.56765 0
M  V30 4058 C 391.861 -1.8758 0.214316 0
M  V30 4059 O 391.218 -1.64471 -0.790919 0
M  V30 4060 C 391.269 -2.52698 2.58507 0
M  V30 4061 O 390.99 -2.0232 3.88585 0
M  V30 4062 C 392.491 -3.45043 2.78316 0
M  V30 4063 H 389.711 -0.41195 0.529658 0
M  V30 4064 H 392.255 -0.687832 1.92585 0
M  V30 4065 H 390.41 -3.149 2.25648 0
M  V30 4066 H 390.824 -2.79068 4.44096 0
M  V30 4067 H 392.298 -4.2405 3.53391 0
M  V30 4068 H 392.775 -3.97971 1.85784 0
M  V30 4069 H 393.381 -2.88665 3.12334 0
M  V30 4070 N 391.696 -1.35014 -0.812953 0
M  V30 4071 C 392.643 -1.27412 -1.92444 0
M  V30 4072 C 393.613 -0.14733 -1.65445 0
M  V30 4073 O 394.798 -0.329974 -1.87925 0
M  V30 4074 C 391.938 -1.04558 -3.28879 0
M  V30 4075 C 391.051 -2.26101 -3.68106 0
M  V30 4076 C 390.186 -1.96449 -4.9354 0
M  V30 4077 C 389.225 -3.14081 -5.25376 0
M  V30 4078 N 388.362 -2.84246 -6.41988 0
M  V30 4079 H 393.202 -2.22463 -1.98278 0
M  V30 4080 H 390.739 -1.10593 -0.969933 0
M  V30 4081 H 392.697 -0.893413 -4.07522 0
M  V30 4082 H 391.327 -0.131719 -3.22531 0
M  V30 4083 H 390.379 -2.52204 -2.84775 0
M  V30 4084 H 391.691 -3.13959 -3.87597 0
M  V30 4085 H 390.845 -1.78026 -5.79993 0
M  V30 4086 H 389.584 -1.05867 -4.76071 0
M  V30 4087 H 388.589 -3.33089 -4.37415 0
M  V30 4088 H 389.814 -4.05455 -5.44778 0
M  V30 4089 H 387.76 -1.96252 -6.25956 0
M  V30 4090 H 387.677 -3.65637 -6.61699 0
M  V30 4091 H 388.945 -2.6935 -7.31485 0
M  V30 4092 N 393.175 1.03435 -1.18907 0
M  V30 4093 C 394.085 2.15075 -0.937015 0
M  V30 4094 C 395.101 1.73706 0.101085 0
M  V30 4095 O 396.277 2.01232 -0.0822948 0
M  V30 4096 C 393.342 3.43458 -0.473057 0
M  V30 4097 C 392.403 3.99172 -1.57989 0
M  V30 4098 C 391.636 5.21427 -1.13797 0
M  V30 4099 O 391.859 5.704 0.000725941 0
M  V30 4100 O 390.793 5.69837 -1.9383 0
M  V30 4101 H 394.619 2.39198 -1.87131 0
M  V30 4102 H 392.204 1.13506 -0.971427 0
M  V30 4103 H 394.086 4.20811 -0.222702 0
M  V30 4104 H 392.761 3.20793 0.432869 0
M  V30 4105 H 391.668 3.23178 -1.88433 0
M  V30 4106 H 393.001 4.2619 -2.46217 0
M  V30 4107 N 394.653 0.992116 1.22453 0
M  V30 4108 C 396.069 0.702713 1.43297 0
M  V30 4109 C 396.269 -0.726909 1.87932 0
M  V30 4110 O 395.325 -1.49792 2.0327 0
M  V30 4111 C 396.638 1.70762 2.47509 0
M  V30 4112 C 398.186 1.72298 2.61309 0
M  V30 4113 C 398.661 2.71649 3.68742 0
M  V30 4114 N 400.152 2.70239 3.76199 0
M  V30 4115 C 400.887 3.43778 4.58917 0
M  V30 4116 N 400.383 4.26914 5.45633 0
M  V30 4117 N 402.176 3.32487 4.5322 0
M  V30 4118 H 394.327 1.91543 0.917871 0
M  V30 4119 H 396.59 0.826031 0.465162 0
M  V30 4120 H 396.296 2.73059 2.21657 0
M  V30 4121 H 396.17 1.49985 3.46099 0
M  V30 4122 H 398.557 0.706989 2.86506 0
M  V30 4123 H 398.638 1.97143 1.62997 0
M  V30 4124 H 398.282 3.73397 3.44292 0
M  V30 4125 H 398.212 2.44074 4.66622 0
M  V30 4126 H 400.703 2.09912 3.14237 0
M  V30 4127 H 401.016 4.79855 6.05771 0
M  V30 4128 H 399.361 4.31002 5.45218 0
M  V30 4129 H 402.552 2.6698 3.84499 0
M  V30 4130 H 402.725 3.90058 5.17454 0
M  V30 4131 N 396.131 -1.37776 0.765217 0
M  V30 4132 C 397.378 -1.99849 0.326588 0
M  V30 4133 C 397.706 -1.60746 -1.09504 0
M  V30 4134 O 396.961 -0.84202 -1.76659 0
M  V30 4135 C 397.26 -3.5504 0.410053 0
M  V30 4136 C 396.926 -4.13891 1.78899 0
M  V30 4137 C 395.588 -4.29678 2.16635 0
M  V30 4138 C 397.94 -4.46236 2.69301 0
M  V30 4139 C 395.268 -4.7511 3.44221 0
M  V30 4140 C 397.62 -4.93089 3.9629 0
M  V30 4141 C 396.284 -5.07082 4.34078 0
M  V30 4142 H 395.554 -0.7313 0.119507 0
M  V30 4143 H 398.201 -1.64645 0.977968 0
M  V30 4144 H 396.506 -3.90451 -0.324878 0
M  V30 4145 H 398.203 -4.00966 0.0520699 0
M  V30 4146 H 394.793 -4.02026 1.48569 0
M  V30 4147 H 398.977 -4.3363 2.41409 0
M  V30 4148 H 394.233 -4.84129 3.73402 0
M  V30 4149 H 398.407 -5.17084 4.66472 0
M  V30 4150 H 396.034 -5.42046 5.33001 0
M  V30 4151 N 397.609 -0.515225 -1.4894 0
M  V30 4152 C 398.886 0.0879088 -1.95402 0
M  V30 4153 C 399.266 1.52745 -1.45712 0
M  V30 4154 O 398.614 2.18238 -0.677093 0
M  V30 4155 C 398.824 -0.0141055 -3.48997 0
M  V30 4156 C 400.172 0.152646 -4.24326 0
M  V30 4157 O 401.196 0.0604025 -3.56149 0
M  V30 4158 O 400.055 0.34384 -5.45417 0
M  V30 4159 H 397.149 0.0874636 -0.822362 0
M  V30 4160 H 399.695 -0.578775 -1.59525 0
M  V30 4161 H 398.467 -1.01745 -3.77841 0
M  V30 4162 H 398.09 0.692091 -3.9153 0
M  V30 4163 N 399.087 1.5561 -0.249682 0
M  V30 4164 C 400.333 1.99306 0.374841 0
M  V30 4165 C 400.666 1.13767 1.57387 0
M  V30 4166 O 399.941 0.201711 1.93451 0
M  V30 4167 C 400.224 3.51507 0.781986 0
M  V30 4168 C 400.077 4.4781 -0.422629 0
M  V30 4169 C 401.396 4.08884 1.62793 0
M  V30 4170 H 398.515 0.724572 0.134773 0
M  V30 4171 H 401.157 1.86719 -0.351549 0
M  V30 4172 H 399.307 3.62363 1.4009 0
M  V30 4173 H 400.979 4.48931 -1.06108 0
M  V30 4174 H 399.222 4.20518 -1.06524 0
M  V30 4175 H 399.893 5.51919 -0.0943766 0
M  V30 4176 H 402.369 4.01147 1.10547 0
M  V30 4177 H 401.245 5.1564 1.88166 0
M  V30 4178 H 401.506 3.57515 2.60068 0
M  V30 4179 N 400.565 -0.0233959 1.57583 0
M  V30 4180 C 401.976 -0.56927 1.77809 0
M  V30 4181 C 402.327 -1.75284 0.881472 0
M  V30 4182 O 401.452 -2.1626 0.0777805 0
M  V30 4183 C 402.047 -1.03949 3.22459 0
M  V30 4184 C 400.606 -1.53084 3.43864 0
M  V30 4185 C 399.753 -0.471454 2.73263 0
M  V30 4186 H 402.704 0.202825 1.57399 0
M  V30 4187 H 402.725 -1.90661 3.29285 0
M  V30 4188 H 402.237 -0.177865 3.87692 0
M  V30 4189 H 400.338 -2.41414 2.83814 0
M  V30 4190 H 400.451 -1.57443 4.52491 0
M  V30 4191 H 398.815 -0.927788 2.37201 0
M  V30 4192 H 399.598 0.380808 3.41181 0
M  V30 4193 N 402.043 -1.548 -0.295768 0
M  V30 4194 C 403.289 -1.74588 -1.03184 0
M  V30 4195 C 403.622 -0.532962 -1.86744 0
M  V30 4196 O 402.897 0.469872 -1.88739 0
M  V30 4197 C 403.18 -3.03791 -1.93347 0
M  V30 4198 C 403.033 -4.35392 -1.12933 0
M  V30 4199 C 404.352 -3.28892 -2.92435 0
M  V30 4200 H 401.471 -0.635221 -0.373715 0
M  V30 4201 H 404.113 -1.87519 -0.30606 0
M  V30 4202 H 402.263 -2.92898 -2.55232 0
M  V30 4203 H 403.935 -4.58211 -0.532943 0
M  V30 4204 H 402.178 -4.31642 -0.432168 0
M  V30 4205 H 402.849 -5.22074 -1.79284 0
M  V30 4206 H 405.325 -3.39429 -2.4068 0
M  V30 4207 H 404.201 -4.20603 -3.52682 0
M  V30 4208 H 404.462 -2.47437 -3.6637 0
M  V30 4209 N 403.521 0.559213 -1.47345 0
M  V30 4210 C 404.484 1.64854 -1.59235 0
M  V30 4211 C 405.484 1.53851 -0.467607 0
M  V30 4212 O 406.674 1.58045 -0.732617 0
M  V30 4213 C 403.806 3.04388 -1.53496 0
M  V30 4214 H 404.999 1.55662 -2.56339 0
M  V30 4215 H 402.552 0.778973 -1.35505 0
M  V30 4216 H 403.287 3.19115 -0.577604 0
M  V30 4217 H 403.072 3.13783 -2.35123 0
M  V30 4218 H 404.562 3.83642 -1.6495 0
M  V30 4219 N 404.999 1.35443 0.805782 0
M  V30 4220 C 406.248 1.28097 1.55801 0
M  V30 4221 C 406.561 -0.142428 1.95081 0
M  V30 4222 O 407.767 -0.33817 2.69386 0
M  V30 4223 C 406.223 2.24653 2.81174 0
M  V30 4224 C 405.831 3.72342 2.49129 0
M  V30 4225 C 407.575 2.2625 3.59181 0
M  V30 4226 C 405.482 4.60719 3.70799 0
M  V30 4227 H 404.412 0.475937 0.584808 0
M  V30 4228 H 407.063 1.60712 0.885661 0
M  V30 4229 H 405.445 1.85011 3.50124 0
M  V30 4230 H 406.619 4.20624 1.88181 0
M  V30 4231 H 404.934 3.73361 1.84366 0
M  V30 4232 H 407.531 2.89495 4.49552 0
M  V30 4233 H 407.874 1.26647 3.96568 0
M  V30 4234 H 408.407 2.64426 2.97193 0
M  V30 4235 H 405.146 5.61324 3.3852 0
M  V30 4236 H 404.666 4.17163 4.3097 0
M  V30 4237 H 406.345 4.76182 4.38018 0
M  V30 4238 N 406.477 -1.02803 1.19454 0
M  V30 4239 C 407.707 -1.79581 1.02149 0
M  V30 4240 C 408.115 -1.84182 -0.432851 0
M  V30 4241 O 407.458 -1.28534 -1.31243 0
M  V30 4242 C 407.52 -3.25993 1.51554 0
M  V30 4243 C 407.184 -3.45025 2.99678 0
M  V30 4244 C 408.181 -3.35175 3.97434 0
M  V30 4245 C 405.866 -3.71212 3.38389 0
M  V30 4246 C 407.86 -3.51238 5.31893 0
M  V30 4247 C 405.547 -3.8692 4.73008 0
M  V30 4248 C 406.545 -3.76936 5.69569 0
M  V30 4249 O 406.233 -3.92179 7.01748 0
M  V30 4250 H 405.965 -0.571962 0.360327 0
M  V30 4251 H 408.519 -1.30367 1.58725 0
M  V30 4252 H 406.749 -3.76235 0.893543 0
M  V30 4253 H 408.438 -3.84368 1.30444 0
M  V30 4254 H 409.204 -3.14895 3.68872 0
M  V30 4255 H 405.083 -3.78075 2.6378 0
M  V30 4256 H 408.627 -3.43362 6.07247 0
M  V30 4257 H 404.524 -4.06699 5.01265 0
M  V30 4258 H 405.292 -4.09265 7.08833 0
M  V30 4259 N 407.956 -0.998596 -1.21925 0
M  V30 4260 C 408.906 -0.524743 -2.21879 0
M  V30 4261 C 409.89 0.41017 -1.55584 0
M  V30 4262 O 411.082 0.236063 -1.75419 0
M  V30 4263 C 408.211 0.153636 -3.42956 0
M  V30 4264 C 407.297 -0.801918 -4.16449 0
M  V30 4265 N 407.688 -1.95211 -4.66611 0
M  V30 4266 C 405.986 -0.618972 -4.41684 0
M  V30 4267 C 406.687 -2.55234 -5.22715 0
M  V30 4268 N 405.663 -1.83451 -5.1171 0
M  V30 4269 H 409.465 -1.40189 -2.58311 0
M  V30 4270 H 406.979 -0.86159 -1.3766 0
M  V30 4271 H 408.976 0.510534 -4.13762 0
M  V30 4272 H 407.636 1.02684 -3.08036 0
M  V30 4273 H 408.647 -2.33271 -4.62391 0
M  V30 4274 H 405.324 0.207694 -4.16983 0
M  V30 4275 H 406.714 -3.52471 -5.72026 0
M  V30 4276 N 409.434 1.37368 -0.772513 0
M  V30 4277 C 410.68 1.99969 -0.337681 0
M  V30 4278 C 411.013 1.61184 1.08321 0
M  V30 4279 O 410.288 0.858395 1.74533 0
M  V30 4280 C 410.571 3.56858 -0.482121 0
M  V30 4281 C 410.424 4.0555 -1.94549 0
M  V30 4282 C 411.743 4.39955 0.113143 0
M  V30 4283 H 408.862 0.726464 -0.124171 0
M  V30 4284 H 411.504 1.63034 -0.975699 0
M  V30 4285 H 409.654 3.88452 0.0610361 0
M  V30 4286 H 411.326 3.84518 -2.54841 0
M  V30 4287 H 409.569 3.57715 -2.45403 0
M  V30 4288 H 410.24 5.14587 -1.9976 0
M  V30 4289 H 412.716 4.14623 -0.35031 0
M  V30 4290 H 411.592 5.48897 -0.0180514 0
M  V30 4291 H 411.853 4.25403 1.20354 0
M  V30 4292 N 410.912 0.523116 1.48665 0
M  V30 4293 C 412.137 -0.0117284 2.07397 0
M  V30 4294 C 412.562 -1.28031 1.37803 0
M  V30 4295 O 411.92 -1.75836 0.441762 0
M  V30 4296 C 411.968 -0.225786 3.59892 0
M  V30 4297 O 411.072 -1.29592 3.91509 0
M  V30 4298 H 410.413 0.0360673 0.66302 0
M  V30 4299 H 412.943 0.729066 1.9117 0
M  V30 4300 H 412.953 -0.450552 4.05505 0
M  V30 4301 H 411.628 0.700944 4.09951 0
M  V30 4302 H 410.205 -1.05436 3.57684 0
M  V30 4303 N 412.39 -1.55475 0.257931 0
M  V30 4304 C 413.638 -1.98813 -0.363009 0
M  V30 4305 C 413.959 -1.14757 -1.57657 0
M  V30 4306 O 413.229 -0.232956 -1.9451 0
M  V30 4307 H 411.809 -0.734308 -0.137113 0
M  V30 4308 H 414.471 -1.9156 0.359281 0
M  V30 4309 H 413.567 -3.04941 -0.664634 0
M  V30 4310 N 413.868 0.0150385 -1.57593 0
M  V30 4311 C 414.778 1.02791 -2.10882 0
M  V30 4312 C 415.794 1.38702 -1.0506 0
M  V30 4313 O 416.97 1.47739 -1.36877 0
M  V30 4314 C 414.035 2.30568 -2.58919 0
M  V30 4315 C 413.096 2.01108 -3.79281 0
M  V30 4316 C 412.329 3.22794 -4.25018 0
M  V30 4317 O 412.552 4.33959 -3.70183 0
M  V30 4318 O 411.486 3.07672 -5.17322 0
M  V30 4319 H 415.312 0.604973 -2.97613 0
M  V30 4320 H 412.897 0.23292 -1.47573 0
M  V30 4321 H 414.779 3.05662 -2.90084 0
M  V30 4322 H 413.454 2.72129 -1.75293 0
M  V30 4323 H 412.361 1.23537 -3.53114 0
M  V30 4324 H 413.694 1.64394 -4.63935 0
M  V30 4325 N 415.346 1.54954 0.287554 0
M  V30 4326 C 416.576 1.78622 1.03816 0
M  V30 4327 C 416.984 0.552451 1.80955 0
M  V30 4328 O 416.327 -0.487665 1.77109 0
M  V30 4329 C 416.389 2.94975 2.055 0
M  V30 4330 C 416.053 4.32565 1.47433 0
M  V30 4331 C 417.05 5.12096 0.897436 0
M  V30 4332 C 414.735 4.79195 1.50591 0
M  V30 4333 C 416.729 6.36383 0.359851 0
M  V30 4334 C 414.416 6.03441 0.964459 0
M  V30 4335 C 415.414 6.81872 0.392413 0
M  V30 4336 O 415.102 8.03777 -0.140788 0
M  V30 4337 H 414.834 0.599144 0.313053 0
M  V30 4338 H 417.388 2.02761 0.328225 0
M  V30 4339 H 415.618 2.66493 2.80211 0
M  V30 4340 H 417.307 3.06097 2.6657 0
M  V30 4341 H 418.073 4.77209 0.865841 0
M  V30 4342 H 413.952 4.18167 1.94055 0
M  V30 4343 H 417.496 6.97545 -0.0872951 0
M  V30 4344 H 413.393 6.37813 0.993246 0
M  V30 4345 H 414.161 8.18495 -0.0287617 0
M  V30 4346 N 416.824 -0.551391 1.4764 0
M  V30 4347 C 417.787 -1.64007 1.60107 0
M  V30 4348 C 418.787 -1.53601 0.47576 0
M  V30 4349 O 419.977 -1.57655 0.740988 0
M  V30 4350 C 417.109 -3.03569 1.55108 0
M  V30 4351 H 418.302 -1.543 2.57161 0
M  V30 4352 H 415.855 -0.771776 1.35917 0
M  V30 4353 H 416.59 -3.18804 0.594519 0
M  V30 4354 H 416.375 -3.12532 2.36783 0
M  V30 4355 H 417.865 -3.82762 1.66982 0
M  V30 4356 N 418.302 -1.35869 -0.798587 0
M  V30 4357 C 419.235 -1.23801 -1.91699 0
M  V30 4358 C 420.213 -0.124143 -1.62125 0
M  V30 4359 O 421.397 -0.293656 -1.86199 0
M  V30 4360 C 418.524 -0.908063 -3.263 0
M  V30 4361 C 417.57 -2.0351 -3.74815 0
M  V30 4362 S 418.403 -3.65183 -3.91665 0
M  V30 4363 C 419.559 -3.34283 -5.29156 0
M  V30 4364 H 419.792 -2.18466 -2.01643 0
M  V30 4365 H 417.325 -1.21178 -0.956833 0
M  V30 4366 H 419.283 -0.724506 -4.04056 0
M  V30 4367 H 417.944 0.0206584 -3.14093 0
M  V30 4368 H 417.137 -1.75858 -4.72324 0
M  V30 4369 H 416.739 -2.1774 -3.04081 0
M  V30 4370 H 419.031 -2.87607 -6.13424 0
M  V30 4371 H 419.974 -4.31022 -5.61806 0
M  V30 4372 H 420.382 -2.69854 -4.95822 0
M  V30 4373 N 419.78 1.02168 -1.19998 0
M  V30 4374 C 421.026 1.75945 -1.00852 0
M  V30 4375 C 421.359 1.88702 0.458828 0
M  V30 4376 O 420.634 1.40911 1.34069 0
M  V30 4377 C 420.917 3.18154 -1.68671 0
M  V30 4378 C 420.77 3.13224 -3.22817 0
M  V30 4379 C 422.089 4.16711 -1.41561 0
M  V30 4380 H 419.208 0.638673 -0.367785 0
M  V30 4381 H 421.85 1.19222 -1.4794 0
M  V30 4382 H 420 3.66586 -1.28636 0
M  V30 4383 H 421.672 2.72635 -3.72112 0
M  V30 4384 H 419.915 2.50751 -3.53986 0
M  V30 4385 H 420.586 4.13728 -3.65422 0
M  V30 4386 H 423.062 3.76913 -1.76284 0
M  V30 4387 H 421.938 5.14391 -1.91553 0
M  V30 4388 H 422.199 4.40774 -0.342193 0
M  V30 4389 N 421.258 1.00505 1.21394 0
M  V30 4390 C 422.205 0.565496 2.23765 0
M  V30 4391 C 423.175 -0.408466 1.60999 0
M  V30 4392 O 424.36 -0.310503 1.88257 0
M  V30 4393 C 421.5 -0.101667 3.4495 0
M  V30 4394 C 420.613 0.915479 4.22188 0
M  V30 4395 C 419.748 0.220574 5.30742 0
M  V30 4396 C 418.787 1.22527 5.99711 0
M  V30 4397 N 417.924 0.557831 6.9988 0
M  V30 4398 H 422.764 1.44314 2.60725 0
M  V30 4399 H 420.301 0.722643 1.28126 0
M  V30 4400 H 422.259 -0.505504 4.14126 0
M  V30 4401 H 420.889 -0.94303 3.08718 0
M  V30 4402 H 419.941 1.43756 3.52191 0
M  V30 4403 H 421.253 1.68005 4.69655 0
M  V30 4404 H 420.407 -0.239368 6.06228 0
M  V30 4405 H 419.146 -0.576401 4.84282 0
M  V30 4406 H 418.151 1.69571 5.22997 0
M  V30 4407 H 419.376 2.02332 6.48258 0
M  V30 4408 H 417.322 -0.219486 6.55633 0
M  V30 4409 H 417.239 1.26065 7.45415 0
M  V30 4410 H 418.507 0.121095 7.79406 0
M  V30 4411 N 422.737 -1.36956 0.779787 0
M  V30 4412 C 423.7 -2.2851 0.177662 0
M  V30 4413 C 424.7 -1.48393 -0.619377 0
M  V30 4414 O 425.89 -1.68505 -0.441785 0
M  V30 4415 C 423.022 -3.32428 -0.755279 0
M  V30 4416 H 424.215 -2.83269 0.984823 0
M  V30 4417 H 421.768 -1.46358 0.548544 0
M  V30 4418 H 422.503 -2.82808 -1.58714 0
M  V30 4419 H 422.288 -3.91659 -0.185817 0
M  V30 4420 H 423.778 -4.00824 -1.17174 0
M  V30 4421 N 424.215 -0.530993 -1.48385 0
M  V30 4422 C 425.178 0.220497 -2.28137 0
M  V30 4423 C 426.178 0.866851 -1.35434 0
M  V30 4424 O 427.368 0.726746 -1.58316 0
M  V30 4425 C 424.5 1.31921 -3.1434 0
M  V30 4426 H 425.693 -0.479714 -2.96038 0
M  V30 4427 H 423.246 -0.286968 -1.53643 0
M  V30 4428 H 423.981 2.05264 -2.51072 0
M  V30 4429 H 423.766 0.86085 -3.82533 0
M  V30 4430 H 425.256 1.84776 -3.74497 0
M  V30 4431 N 425.693 1.55336 -0.266172 0
M  V30 4432 C 426.656 2.20878 0.612001 0
M  V30 4433 C 427.656 1.18388 1.08816 0
M  V30 4434 O 428.846 1.4335 0.989774 0
M  V30 4435 C 425.978 2.86765 1.84332 0
M  V30 4436 H 427.171 2.99873 0.0398718 0
M  V30 4437 H 424.724 1.56291 -0.0167309 0
M  V30 4438 H 425.459 2.11759 2.45619 0
M  V30 4439 H 425.244 3.61862 1.5099 0
M  V30 4440 H 426.734 3.36867 2.46801 0
M  V30 4441 N 427.171 -0.0066808 1.57599 0
M  V30 4442 C 428.134 -0.985035 2.06953 0
M  V30 4443 C 429.134 -1.27663 0.977687 0
M  V30 4444 O 430.324 -1.22293 1.24057 0
M  V30 4445 C 427.456 -2.3118 2.50536 0
M  V30 4446 H 428.649 -0.558255 2.94658 0
M  V30 4447 H 426.202 -0.254011 1.54222 0
M  V30 4448 H 426.937 -2.78561 1.66054 0
M  V30 4449 H 426.722 -2.11338 3.3027 0
M  V30 4450 H 428.212 -3.01377 2.8907 0
M  V30 4451 N 428.649 -1.55105 -0.279332 0
M  V30 4452 C 429.596 -1.8755 -1.34513 0
M  V30 4453 C 430.566 -0.726384 -1.49375 0
M  V30 4454 O 431.751 -0.977063 -1.63884 0
M  V30 4455 C 428.891 -2.14738 -2.70151 0
M  V30 4456 C 428.004 -3.42285 -2.63562 0
M  V30 4457 C 427.139 -3.59206 -3.91337 0
M  V30 4458 C 426.178 -4.80467 -3.79233 0
M  V30 4459 N 425.315 -4.94079 -4.98829 0
M  V30 4460 H 430.155 -2.78456 -1.06143 0
M  V30 4461 H 427.692 -1.37867 -0.512936 0
M  V30 4462 H 429.65 -2.28501 -3.49061 0
M  V30 4463 H 428.28 -1.27075 -2.96735 0
M  V30 4464 H 427.332 -3.37029 -1.76397 0
M  V30 4465 H 428.644 -4.31328 -2.50515 0
M  V30 4466 H 427.798 -3.72751 -4.78687 0
M  V30 4467 H 426.537 -2.68337 -4.07243 0
M  V30 4468 H 425.542 -4.66932 -2.90266 0
M  V30 4469 H 426.767 -5.72765 -3.64852 0
M  V30 4470 H 424.713 -4.06139 -5.15158 0
M  V30 4471 H 424.63 -5.77156 -4.8829 0
M  V30 4472 H 425.898 -5.12003 -5.8777 0
M  V30 4473 N 430.127 0.543554 -1.4793 0
M  V30 4474 C 431.375 1.29752 -1.54948 0
M  V30 4475 C 431.696 1.93764 -0.219242 0
M  V30 4476 O 430.966 1.80639 0.75805 0
M  V30 4477 H 429.546 0.481874 -0.570795 0
M  V30 4478 H 432.208 0.633636 -1.84312 0
M  V30 4479 H 431.304 2.08392 -2.32334 0
M  V30 4480 N 431.605 1.3629 0.791371 0
M  V30 4481 C 432.851 1.31613 1.5508 0
M  V30 4482 C 433.206 -0.104372 1.92117 0
M  V30 4483 O 432.499 -1.05845 1.5971 0
M  V30 4484 C 432.693 2.17068 2.8393 0
M  V30 4485 C 432.522 3.67285 2.59484 0
M  V30 4486 C 431.292 4.36469 2.54604 0
M  V30 4487 C 433.49 4.60595 2.28816 0
M  V30 4488 N 431.472 5.7234 2.22036 0
M  V30 4489 C 432.843 5.847 2.06218 0
M  V30 4490 C 434.898 4.4918 2.14806 0
M  V30 4491 C 433.601 6.98671 1.71028 0
M  V30 4492 C 435.627 5.63017 1.81014 0
M  V30 4493 C 434.989 6.86159 1.59263 0
M  V30 4494 H 431.088 0.536878 0.568582 0
M  V30 4495 H 433.672 1.71323 0.925007 0
M  V30 4496 H 431.843 1.79605 3.44378 0
M  V30 4497 H 433.575 2.03795 3.49642 0
M  V30 4498 H 430.33 3.89249 2.69782 0
M  V30 4499 H 430.754 6.44093 2.08503 0
M  V30 4500 H 435.396 3.54564 2.30313 0
M  V30 4501 H 433.114 7.9324 1.54259 0
M  V30 4502 H 436.7 5.56146 1.70861 0
M  V30 4503 H 435.58 7.72753 1.335 0
M  V30 4504 N 433.083 -1.0153 1.20538 0
M  V30 4505 C 434.332 -1.74558 1.01057 0
M  V30 4506 C 434.645 -1.90168 -0.457756 0
M  V30 4507 O 435.851 -2.60301 -0.771722 0
M  V30 4508 C 434.307 -3.13963 1.75941 0
M  V30 4509 C 433.915 -3.06361 3.26875 0
M  V30 4510 C 435.659 -3.91191 1.64832 0
M  V30 4511 C 433.566 -4.40782 3.94291 0
M  V30 4512 H 432.496 -0.654417 0.374505 0
M  V30 4513 H 435.147 -1.13521 1.44171 0
M  V30 4514 H 433.529 -3.75549 1.25614 0
M  V30 4515 H 434.703 -2.54074 3.84425 0
M  V30 4516 H 433.018 -2.42625 3.38411 0
M  V30 4517 H 435.615 -4.90644 2.12539 0
M  V30 4518 H 435.958 -4.11884 0.604745 0
M  V30 4519 H 436.491 -3.36236 2.12579 0
M  V30 4520 H 433.23 -4.25292 4.98805 0
M  V30 4521 H 432.75 -4.9307 3.41529 0
M  V30 4522 H 434.429 -5.09621 3.98617 0
M  V30 4523 N 434.561 -1.01147 -1.20859 0
M  V30 4524 C 435.838 -0.613136 -1.85742 0
M  V30 4525 C 436.218 0.909004 -1.90526 0
M  V30 4526 O 435.566 1.79862 -1.40932 0
M  V30 4527 C 435.776 -1.255 -3.25654 0
M  V30 4528 C 437.124 -1.3672 -4.01986 0
M  V30 4529 O 438.148 -1.21082 -3.34989 0
M  V30 4530 O 437.007 -1.6194 -5.21956 0
M  V30 4531 H 434.101 -0.210878 -0.799662 0
M  V30 4532 H 436.647 -1.10853 -1.2849 0
M  V30 4533 H 435.419 -2.29532 -3.16908 0
M  V30 4534 H 435.042 -0.746369 -3.90532 0
M  V30 4535 N 436.039 1.36541 -0.78704 0
M  V30 4536 C 436.949 2.3387 -0.184896 0
M  V30 4537 C 437.965 1.60927 0.661697 0
M  V30 4538 O 439.141 1.92927 0.57804 0
M  V30 4539 C 436.206 3.40122 0.672145 0
M  V30 4540 C 435.267 4.28867 -0.19267 0
M  V30 4541 C 434.5 5.30045 0.623561 0
M  V30 4542 O 434.723 5.39232 1.8597 0
M  V30 4543 O 433.657 6.01895 0.0247068 0
M  V30 4544 H 437.483 2.87126 -0.989562 0
M  V30 4545 H 435.068 1.38969 -0.548455 0
M  V30 4546 H 436.95 4.05093 1.16094 0
M  V30 4547 H 435.625 2.89169 1.45474 0
M  V30 4548 H 434.532 3.66945 -0.728166 0
M  V30 4549 H 435.865 4.83165 -0.938722 0
M  V30 4550 N 437.518 0.538854 1.48102 0
M  V30 4551 C 438.795 -0.0568108 1.95517 0
M  V30 4552 C 439.175 -1.50408 1.48124 0
M  V30 4553 O 438.523 -2.17133 0.711727 0
M  V30 4554 C 438.733 0.0696262 3.48931 0
M  V30 4555 C 440.081 -0.0851202 4.24515 0
M  V30 4556 O 441.105 -0.0037347 3.562 0
M  V30 4557 O 439.964 -0.257025 5.45895 0
M  V30 4558 H 437.058 -0.0743695 0.823649 0
M  V30 4559 H 439.604 0.604081 1.58584 0
M  V30 4560 H 438.376 1.07744 3.76174 0
M  V30 4561 H 437.999 -0.629714 3.92582 0
M  V30 4562 N 438.996 -1.55193 0.274407 0
M  V30 4563 C 440.412 -1.59401 -0.0797543 0
M  V30 4564 C 440.612 -1.29162 -1.54659 0
M  V30 4565 O 439.668 -1.05215 -2.29534 0
M  V30 4566 C 440.981 -2.99257 0.294238 0
M  V30 4567 C 442.529 -3.12072 0.240796 0
M  V30 4568 C 443.004 -4.54194 0.589218 0
M  V30 4569 N 444.495 -4.60033 0.540744 0
M  V30 4570 C 445.23 -5.68027 0.783147 0
M  V30 4571 N 444.726 -6.8417 1.09013 0
M  V30 4572 N 446.519 -5.57572 0.711993 0
M  V30 4573 H 438.67 -1.73113 1.23067 0
M  V30 4574 H 440.933 -0.807197 0.497129 0
M  V30 4575 H 440.639 -3.26217 1.31435 0
M  V30 4576 H 440.513 -3.75427 -0.365281 0
M  V30 4577 H 442.9 -2.84877 -0.770024 0
M  V30 4578 H 442.981 -2.38117 0.934563 0
M  V30 4579 H 442.625 -4.82115 1.59772 0
M  V30 4580 H 442.555 -5.26448 -0.126331 0
M  V30 4581 H 445.046 -3.76599 0.313327 0
M  V30 4582 H 445.359 -7.6243 1.26178 0
M  V30 4583 H 443.704 -6.85787 1.12789 0
M  V30 4584 H 446.895 -4.65714 0.472014 0
M  V30 4585 H 447.068 -6.41659 0.90429 0
M  V30 4586 N 440.474 -0.00167713 -1.576 0
M  V30 4587 C 441.72 0.683832 -1.90923 0
M  V30 4588 C 442.053 1.7333 -0.875799 0
M  V30 4589 O 441.328 1.94215 0.10525 0
M  V30 4590 C 441.611 1.32543 -3.3482 0
M  V30 4591 C 441.464 0.287387 -4.48881 0
M  V30 4592 C 442.783 2.25114 -3.78169 0
M  V30 4593 H 439.902 0.247125 -0.694333 0
M  V30 4594 H 442.544 -0.0533149 -1.89925 0
M  V30 4595 H 440.694 1.95372 -3.35801 0
M  V30 4596 H 442.366 -0.341346 -4.60035 0
M  V30 4597 H 440.609 -0.39017 -4.32042 0
M  V30 4598 H 441.28 0.775393 -5.46527 0
M  V30 4599 H 443.756 1.723 -3.7875 0
M  V30 4600 H 442.632 2.66971 -4.79602 0
M  V30 4601 H 442.893 3.13092 -3.12131 0
M  V30 4602 N 441.952 1.55251 0.271103 0
M  V30 4603 C 442.885 1.83191 1.36075 0
M  V30 4604 C 443.863 0.685091 1.47463 0
M  V30 4605 O 445.047 0.928292 1.64058 0
M  V30 4606 C 442.174 1.99521 2.73696 0
M  V30 4607 C 441.22 3.22081 2.79582 0
M  V30 4608 S 442.053 4.79388 2.38636 0
M  V30 4609 C 443.209 4.98693 3.78228 0
M  V30 4610 H 443.442 2.75327 1.12171 0
M  V30 4611 H 440.975 1.47046 0.470833 0
M  V30 4612 H 442.933 2.09613 3.52948 0
M  V30 4613 H 441.594 1.0827 2.9485 0
M  V30 4614 H 440.787 3.304 3.80594 0
M  V30 4615 H 440.389 3.10589 2.08352 0
M  V30 4616 H 442.681 4.84551 4.73515 0
M  V30 4617 H 443.624 6.00738 3.7486 0
M  V30 4618 H 444.032 4.26665 3.69618 0
M  V30 4619 N 443.43 -0.535701 1.48216 0
M  V30 4620 C 444.363 -1.65726 1.56876 0
M  V30 4621 C 445.341 -1.57094 0.419542 0
M  V30 4622 O 446.525 -1.77648 0.630352 0
M  V30 4623 C 443.652 -3.04096 1.49142 0
M  V30 4624 C 442.698 -3.31105 2.68834 0
M  V30 4625 S 443.531 -3.18001 4.30854 0
M  V30 4626 C 444.687 -4.58828 4.25709 0
M  V30 4627 H 444.92 -1.58129 2.51759 0
M  V30 4628 H 442.453 -0.718218 1.36678 0
M  V30 4629 H 444.411 -3.839 1.45366 0
M  V30 4630 H 443.072 -3.09139 0.556067 0
M  V30 4631 H 442.265 -4.32033 2.59545 0
M  V30 4632 H 441.867 -2.58961 2.69843 0
M  V30 4633 H 444.159 -5.5023 3.95289 0
M  V30 4634 H 445.102 -4.73172 5.26796 0
M  V30 4635 H 445.51 -4.37883 3.56257 0
M  V30 4636 N 444.908 -1.36708 -0.784132 0
M  V30 4637 C 445.818 -1.3363 -1.92822 0
M  V30 4638 C 446.834 -0.237686 -1.72369 0
M  V30 4639 O 448.01 -0.470962 -1.95816 0
M  V30 4640 C 445.075 -1.13011 -3.27764 0
M  V30 4641 C 444.136 -2.32397 -3.60957 0
M  V30 4642 C 443.369 -2.12752 -4.89461 0
M  V30 4643 O 443.592 -1.10541 -5.59586 0
M  V30 4644 O 442.526 -3.00653 -5.21432 0
M  V30 4645 H 446.352 -2.29964 -1.98369 0
M  V30 4646 H 443.937 -1.1731 -0.925136 0
M  V30 4647 H 445.819 -1.03451 -4.08504 0
M  V30 4648 H 444.494 -0.19743 -3.23097 0
M  V30 4649 H 443.401 -2.47527 -2.80502 0
M  V30 4650 H 444.734 -3.2419 -3.70354 0
M  V30 4651 N 446.386 1.0089 -1.21074 0
M  V30 4652 C 447.611 1.78727 -1.05221 0
M  V30 4653 C 448.036 1.83932 0.393795 0
M  V30 4654 O 447.394 1.28004 1.28393 0
M  V30 4655 C 447.442 3.20665 -1.64944 0
M  V30 4656 O 446.546 4.02632 -0.892273 0
M  V30 4657 H 445.887 0.550973 -0.370574 0
M  V30 4658 H 448.417 1.26847 -1.60534 0
M  V30 4659 H 448.427 3.71352 -1.69002 0
M  V30 4660 H 447.102 3.16191 -2.70177 0
M  V30 4661 H 445.679 3.61207 -0.926492 0
M  V30 4662 N 447.864 1.01787 1.20321 0
M  V30 4663 C 448.794 0.609625 2.25401 0
M  V30 4664 C 449.775 -0.375951 1.65893 0
M  V30 4665 O 450.96 -0.261101 1.92437 0
M  V30 4666 C 448.09 -0.0515995 3.47262 0
M  V30 4667 C 447.044 0.855095 4.19371 0
M  V30 4668 C 446.37 0.0595757 5.34667 0
M  V30 4669 C 447.67 2.16374 4.75373 0
M  V30 4670 H 449.364 1.48803 2.59804 0
M  V30 4671 H 446.91 0.716934 1.24884 0
M  V30 4672 H 448.863 -0.348764 4.19954 0
M  V30 4673 H 447.587 -0.964726 3.12027 0
M  V30 4674 H 446.246 1.13628 3.48546 0
M  V30 4675 H 445.894 -0.85524 4.95676 0
M  V30 4676 H 445.594 0.663406 5.83843 0
M  V30 4677 H 447.118 -0.231105 6.10162 0
M  V30 4678 H 448.532 1.92885 5.39878 0
M  V30 4679 H 446.929 2.71853 5.34991 0
M  V30 4680 H 447.999 2.82589 3.94045 0
M  V30 4681 N 449.342 -1.36122 0.79427 0
M  V30 4682 C 450.272 -2.32551 0.210328 0
M  V30 4683 C 451.253 -1.56884 -0.657386 0
M  V30 4684 O 452.438 -1.85014 -0.590207 0
M  V30 4685 C 449.568 -3.41128 -0.651819 0
M  V30 4686 C 448.522 -4.27842 0.116395 0
M  V30 4687 C 447.848 -5.2763 -0.86666 0
M  V30 4688 C 449.148 -5.05647 1.30837 0
M  V30 4689 H 450.842 -2.81636 1.01594 0
M  V30 4690 H 448.388 -1.35407 0.489981 0
M  V30 4691 H 450.341 -4.07581 -1.07031 0
M  V30 4692 H 449.065 -2.90622 -1.49019 0
M  V30 4693 H 447.724 -3.62952 0.515915 0
M  V30 4694 H 447.372 -4.73395 -1.70019 0
M  V30 4695 H 447.072 -5.86514 -0.35705 0
M  V30 4696 H 448.596 -5.96955 -1.28361 0
M  V30 4697 H 450.01 -5.65113 0.965393 0
M  V30 4698 H 448.407 -5.73967 1.75161 0
M  V30 4699 H 449.477 -4.37006 2.10128 0
M  V30 4700 N 450.82 -0.546701 -1.47814 0
M  V30 4701 C 452.06 -0.0209604 -2.04389 0
M  V30 4702 C 452.424 1.29993 -1.413 0
M  V30 4703 O 453.625 1.91273 -1.8886 0
M  V30 4704 C 451.896 0.0812844 -3.57308 0
M  V30 4705 S 453.455 0.55467 -4.3528 0
M  V30 4706 H 450.273 -0.0200865 -0.710716 0
M  V30 4707 H 452.875 -0.731055 -1.81317 0
M  V30 4708 H 451.579 -0.884616 -4.00753 0
M  V30 4709 H 451.11 0.815253 -3.8486 0
M  V30 4710 H 453.125 1.81627 -4.61764 0
M  V30 4711 N 452.299 1.55045 -0.282633 0
M  V30 4712 C 453.232 2.18951 0.64311 0
M  V30 4713 C 454.21 1.15287 1.14664 0
M  V30 4714 O 455.394 1.43846 1.21822 0
M  V30 4715 C 452.521 2.81874 1.87789 0
M  V30 4716 C 451.567 3.98906 1.50919 0
M  V30 4717 S 452.4 5.3234 0.580884 0
M  V30 4718 C 453.556 5.98737 1.82387 0
M  V30 4719 H 453.789 2.97131 0.100138 0
M  V30 4720 H 451.322 1.54255 -0.0668514 0
M  V30 4721 H 453.28 3.18757 2.58658 0
M  V30 4722 H 451.941 2.03573 2.392 0
M  V30 4723 H 451.134 4.4165 2.42819 0
M  V30 4724 H 450.736 3.63485 0.88061 0
M  V30 4725 H 453.028 6.18427 2.76684 0
M  V30 4726 H 453.971 6.93318 1.4393 0
M  V30 4727 H 454.379 5.28177 1.99223 0
M  V30 4728 N 453.777 0.010035 1.57597 0
M  V30 4729 C 454.724 -0.978122 2.09049 0
M  V30 4730 C 455.694 -1.33509 0.988159 0
M  V30 4731 O 456.879 -1.43172 1.26121 0
M  V30 4732 C 454.019 -2.26158 2.60666 0
M  V30 4733 C 453.132 -1.96275 3.84838 0
M  V30 4734 C 452.267 -3.18776 4.24918 0
M  V30 4735 C 451.306 -2.84625 5.41899 0
M  V30 4736 N 450.443 -3.99693 5.77226 0
M  V30 4737 H 455.283 -0.532431 2.93205 0
M  V30 4738 H 452.82 -0.251234 1.44939 0
M  V30 4739 H 454.778 -3.01202 2.88675 0
M  V30 4740 H 453.408 -2.68378 1.79369 0
M  V30 4741 H 452.46 -1.11555 3.63675 0
M  V30 4742 H 453.772 -1.67111 4.69974 0
M  V30 4743 H 452.926 -4.02157 4.54262 0
M  V30 4744 H 451.665 -3.51087 3.38511 0
M  V30 4745 H 450.67 -1.99653 5.12268 0
M  V30 4746 H 451.895 -2.53551 6.29991 0
M  V30 4747 H 449.841 -4.31882 4.93776 0
M  V30 4748 H 449.758 -3.74087 6.56959 0
M  V30 4749 H 451.026 -4.83834 6.11167 0
M  V30 4750 N 455.255 -1.55392 -0.262866 0
M  V30 4751 C 456.671 -1.47459 -0.610582 0
M  V30 4752 C 456.871 -0.697031 -1.8906 0
M  V30 4753 O 455.927 -0.219952 -2.5154 0
M  V30 4754 C 457.24 -2.91751 -0.728131 0
M  V30 4755 C 458.788 -3.02027 -0.821517 0
M  V30 4756 C 459.263 -4.47594 -0.97076 0
M  V30 4757 N 460.754 -4.51465 -1.03603 0
M  V30 4758 C 461.489 -5.61326 -1.17049 0
M  V30 4759 N 460.985 -6.81032 -1.2715 0
M  V30 4760 N 462.778 -5.49089 -1.20239 0
M  V30 4761 H 454.929 -2.04395 0.577632 0
M  V30 4762 H 457.192 -0.927287 0.197086 0
M  V30 4763 H 456.898 -3.51413 0.142132 0
M  V30 4764 H 456.772 -3.4134 -1.6052 0
M  V30 4765 H 459.159 -2.42456 -1.68224 0
M  V30 4766 H 459.24 -2.55674 0.0803688 0
M  V30 4767 H 458.884 -5.07771 -0.114655 0
M  V30 4768 H 458.814 -4.91613 -1.88745 0
M  V30 4769 H 461.305 -3.6524 -0.96996 0
M  V30 4770 H 461.618 -7.60511 -1.37271 0
M  V30 4771 H 459.963 -6.83824 -1.24136 0
M  V30 4772 H 463.154 -4.54507 -1.11985 0
M  V30 4773 H 463.327 -6.34749 -1.30373 0
M  V30 4774 N 456.733 0.527833 -1.48498 0
M  V30 4775 C 457.696 1.61439 -1.62696 0
M  V30 4776 C 458.696 1.52824 -0.500136 0
M  V30 4777 O 459.886 1.56456 -0.765976 0
M  V30 4778 C 457.018 3.01063 -1.59918 0
M  V30 4779 H 458.211 1.50189 -2.59583 0
M  V30 4780 H 455.764 0.750055 -1.37127 0
M  V30 4781 H 456.499 3.17818 -0.645163 0
M  V30 4782 H 456.284 3.08725 -2.41726 0
M  V30 4783 H 457.774 3.80057 -1.73051 0
M  V30 4784 N 458.211 1.37122 0.776871 0
M  V30 4785 C 459.459 1.31787 1.53221 0
M  V30 4786 C 459.78 -0.0987589 1.9475 0
M  V30 4787 O 459.05 -1.0417 1.65908 0
M  V30 4788 H 457.63 0.484839 0.568278 0
M  V30 4789 H 460.292 1.71556 0.924917 0
M  V30 4790 H 459.388 1.95355 2.43398 0
M  V30 4791 N 459.689 -1.00246 1.21608 0
M  V30 4792 C 460.652 -2.07233 0.979133 0
M  V30 4793 C 461.652 -1.6072 -0.0508219 0
M  V30 4794 O 462.842 -1.73196 0.186712 0
M  V30 4795 C 459.974 -3.37546 0.477016 0
M  V30 4796 H 461.167 -2.29687 1.92831 0
M  V30 4797 H 458.72 -1.17261 1.03342 0
M  V30 4798 H 459.455 -3.20773 -0.476966 0
M  V30 4799 H 459.24 -3.72638 1.21997 0
M  V30 4800 H 460.73 -4.16285 0.331181 0
M  V30 4801 N 461.167 -1.02423 -1.1978 0
M  V30 4802 C 462.444 -0.632802 -1.85081 0
M  V30 4803 C 462.824 0.888745 -1.9148 0
M  V30 4804 O 462.172 1.78357 -1.42832 0
M  V30 4805 C 462.382 -1.28947 -3.24305 0
M  V30 4806 C 463.73 -1.40976 -4.00513 0
M  V30 4807 O 464.754 -1.24628 -3.33686 0
M  V30 4808 O 463.613 -1.67467 -5.20209 0
M  V30 4809 H 460.707 -0.219348 -0.79738 0
M  V30 4810 H 463.253 -1.12209 -1.27307 0
M  V30 4811 H 462.025 -2.3288 -3.14456 0
M  V30 4812 H 461.648 -0.787748 -3.89718 0
M  V30 4813 N 462.645 1.35699 -0.801477 0
M  V30 4814 C 463.894 1.98165 -0.375979 0
M  V30 4815 C 464.207 1.64306 1.06127 0
M  V30 4816 O 465.413 2.20097 1.58964 0
M  V30 4817 C 463.869 3.54497 -0.621305 0
M  V30 4818 C 463.477 3.9727 -2.07076 0
M  V30 4819 C 465.221 4.23697 -0.26091 0
M  V30 4820 C 463.128 5.46427 -2.26211 0
M  V30 4821 H 462.058 0.741478 -0.136844 0
M  V30 4822 H 464.709 1.54834 -0.984814 0
M  V30 4823 H 463.091 3.95958 0.0574112 0
M  V30 4824 H 464.265 3.66974 -2.78687 0
M  V30 4825 H 462.58 3.40943 -2.39054 0
M  V30 4826 H 465.177 5.33334 -0.381994 0
M  V30 4827 H 465.52 4.0869 0.792344 0
M  V30 4828 H 466.053 3.87639 -0.893339 0
M  V30 4829 H 462.792 5.66396 -3.29963 0
M  V30 4830 H 462.312 5.78309 -1.59119 0
M  V30 4831 H 463.991 6.12819 -2.07513 0
M  V30 4832 N 464.123 0.554532 1.47522 0
M  V30 4833 C 465.372 0.0273458 2.01681 0
M  V30 4834 C 465.685 -1.32962 1.43459 0
M  V30 4835 O 466.891 -1.94657 1.89265 0
M  V30 4836 C 465.347 -0.00159057 3.599 0
M  V30 4837 C 464.955 1.35197 4.27113 0
M  V30 4838 C 466.699 -0.476311 4.21819 0
M  V30 4839 C 464.606 1.28229 5.77331 0
M  V30 4840 H 463.536 0.00645269 0.753972 0
M  V30 4841 H 466.187 0.701985 1.69542 0
M  V30 4842 H 464.569 -0.741821 3.8899 0
M  V30 4843 H 465.743 2.1097 4.09668 0
M  V30 4844 H 464.058 1.76441 3.77171 0
M  V30 4845 H 466.655 -0.5468 5.31897 0
M  V30 4846 H 466.998 -1.4877 3.8881 0
M  V30 4847 H 467.531 0.20898 3.97251 0
M  V30 4848 H 464.27 2.26959 6.14955 0
M  V30 4849 H 463.79 0.566314 5.97121 0
M  V30 4850 H 465.469 0.983226 6.39485 0
M  V30 4851 N 465.601 -1.54893 0.290851 0
M  V30 4852 C 466.848 -1.99933 -0.321391 0
M  V30 4853 C 467.176 -1.17927 -1.54672 0
M  V30 4854 O 466.431 -0.240902 -1.94212 0
M  V30 4855 C 466.73 -3.49815 -0.732397 0
M  V30 4856 C 466.396 -4.4921 0.390056 0
M  V30 4857 C 465.058 -4.76107 0.698223 0
M  V30 4858 C 467.41 -5.08453 1.14562 0
M  V30 4859 C 464.738 -5.59514 1.76526 0
M  V30 4860 C 467.09 -5.9302 2.2025 0
M  V30 4861 C 465.754 -6.18232 2.51684 0
M  V30 4862 H 465.024 -0.731608 -0.117605 0
M  V30 4863 H 467.671 -1.87107 0.407839 0
M  V30 4864 H 465.976 -3.60199 -1.54155 0
M  V30 4865 H 467.673 -3.82083 -1.21712 0
M  V30 4866 H 464.263 -4.28372 0.13976 0
M  V30 4867 H 468.447 -4.87683 0.920801 0
M  V30 4868 H 463.703 -5.77289 2.01364 0
M  V30 4869 H 467.877 -6.37955 2.7926 0
M  V30 4870 H 465.504 -6.82653 3.34499 0
M  V30 4871 N 467.08 -0.0183926 -1.57589 0
M  V30 4872 C 468.308 0.673046 -1.95647 0
M  V30 4873 C 468.723 1.66275 -0.894312 0
M  V30 4874 O 468.08 1.82072 0.124975 0
M  V30 4875 C 468.131 1.38884 -3.33756 0
M  V30 4876 O 467.852 0.438806 -4.35897 0
M  V30 4877 C 469.353 2.1731 -3.86383 0
M  V30 4878 H 466.573 0.186292 -0.644621 0
M  V30 4879 H 469.117 -0.0749748 -2.04363 0
M  V30 4880 H 467.272 2.08835 -3.26293 0
M  V30 4881 H 467.686 0.945869 -5.15901 0
M  V30 4882 H 469.16 2.62863 -4.85394 0
M  V30 4883 H 469.637 3.00764 -3.20059 0
M  V30 4884 H 470.243 1.52339 -3.97081 0
M  V30 4885 N 468.558 1.5553 0.254621 0
M  V30 4886 C 469.788 1.80784 1.00004 0
M  V30 4887 C 470.196 0.59071 1.79742 0
M  V30 4888 O 469.539 -0.449988 1.78103 0
M  V30 4889 C 469.601 2.99268 1.99196 0
M  V30 4890 C 469.265 4.35595 1.38224 0
M  V30 4891 C 470.262 5.13884 0.788611 0
M  V30 4892 C 467.947 4.82281 1.40393 0
M  V30 4893 C 469.941 6.37004 0.224783 0
M  V30 4894 C 467.628 6.05351 0.836243 0
M  V30 4895 C 468.626 6.82551 0.24769 0
M  V30 4896 O 468.314 8.03297 -0.311249 0
M  V30 4897 H 468.046 0.60565 0.300274 0
M  V30 4898 H 470.6 2.03411 0.285143 0
M  V30 4899 H 468.83 2.72377 2.74496 0
M  V30 4900 H 470.519 3.11682 2.60018 0
M  V30 4901 H 471.285 4.78938 0.764423 0
M  V30 4902 H 467.164 4.22189 1.85142 0
M  V30 4903 H 470.708 6.97203 -0.235235 0
M  V30 4904 H 466.605 6.39776 0.857733 0
M  V30 4905 H 467.373 8.1825 -0.20237 0
M  V30 4906 N 470.036 -0.519951 1.48776 0
M  V30 4907 C 471.266 -1.29783 1.60748 0
M  V30 4908 C 471.674 -1.87253 0.27072 0
M  V30 4909 O 471.017 -1.67628 -0.751438 0
M  V30 4910 C 471.079 -2.47984 2.60277 0
M  V30 4911 C 470.743 -2.11526 4.051 0
M  V30 4912 C 471.74 -1.66608 4.92481 0
M  V30 4913 C 469.425 -2.21742 4.50706 0
M  V30 4914 C 471.419 -1.32384 6.23501 0
M  V30 4915 C 469.106 -1.87129 5.81744 0
M  V30 4916 C 470.104 -1.42523 6.67964 0
M  V30 4917 O 469.792 -1.0837 7.96562 0
M  V30 4918 H 469.524 -0.400562 0.544542 0
M  V30 4919 H 472.078 -0.632879 1.95407 0
M  V30 4920 H 470.308 -3.17493 2.2076 0
M  V30 4921 H 471.997 -3.10036 2.61978 0
M  V30 4922 H 472.763 -1.58178 4.58481 0
M  V30 4923 H 468.642 -2.55415 3.83776 0
M  V30 4924 H 472.186 -0.974949 6.90754 0
M  V30 4925 H 468.083 -1.95204 6.15277 0
M  V30 4926 H 468.851 -1.21681 8.09405 0
M  V30 4927 N 471.514 -1.37532 -0.769588 0
M  V30 4928 C 472.477 -1.33292 -1.86456 0
M  V30 4929 C 473.477 -0.236537 -1.59051 0
M  V30 4930 O 474.667 -0.492511 -1.67093 0
M  V30 4931 C 471.799 -1.07118 -3.23633 0
M  V30 4932 H 472.992 -2.30692 -1.91628 0
M  V30 4933 H 470.545 -1.22593 -0.969572 0
M  V30 4934 H 471.28 -0.102578 -3.24138 0
M  V30 4935 H 471.065 -1.86479 -3.44917 0
M  V30 4936 H 472.555 -1.06806 -4.03711 0
M  V30 4937 N 472.992 0.995999 -1.22138 0
M  V30 4938 C 473.939 2.08551 -0.988687 0
M  V30 4939 C 474.909 1.65864 0.0885021 0
M  V30 4940 O 476.094 1.90704 -0.0604589 0
M  V30 4941 C 473.234 3.40374 -0.569191 0
M  V30 4942 C 472.347 3.96421 -1.71681 0
M  V30 4943 C 471.482 5.1639 -1.2456 0
M  V30 4944 C 470.521 5.64567 -2.36497 0
M  V30 4945 N 469.658 6.75777 -1.90445 0
M  V30 4946 H 474.498 2.2779 -1.92135 0
M  V30 4947 H 472.035 1.1168 -0.957388 0
M  V30 4948 H 473.993 4.16068 -0.307166 0
M  V30 4949 H 472.623 3.21145 0.326462 0
M  V30 4950 H 471.675 3.17628 -2.09324 0
M  V30 4951 H 472.987 4.2816 -2.55891 0
M  V30 4952 H 472.141 5.99362 -0.940774 0
M  V30 4953 H 470.88 4.86266 -0.373662 0
M  V30 4954 H 469.885 4.80185 -2.67772 0
M  V30 4955 H 471.11 5.96716 -3.24202 0
M  V30 4956 H 469.056 6.47443 -1.05609 0
M  V30 4957 H 468.973 7.06818 -2.68223 0
M  V30 4958 H 470.241 7.62262 -1.63022 0
M  V30 4959 N 474.47 1.03057 1.19235 0
M  V30 4960 C 475.38 0.622922 2.26179 0
M  V30 4961 C 476.396 -0.346113 1.70523 0
M  V30 4962 O 477.572 -0.203572 2.00369 0
M  V30 4963 C 474.637 -0.0182063 3.46695 0
M  V30 4964 C 473.698 0.998546 4.17526 0
M  V30 4965 C 472.931 0.387917 5.32288 0
M  V30 4966 O 473.154 -0.808668 5.64639 0
M  V30 4967 O 472.088 1.1116 5.91546 0
M  V30 4968 H 475.914 1.51363 2.63292 0
M  V30 4969 H 473.499 0.800856 1.26122 0
M  V30 4970 H 475.381 -0.375606 4.19723 0
M  V30 4971 H 474.056 -0.882895 3.11427 0
M  V30 4972 H 472.963 1.40756 3.4661 0
M  V30 4973 H 474.296 1.83366 4.56769 0
M  V30 4974 N 475.948 -1.35272 0.808662 0
M  V30 4975 C 476.911 -2.28082 0.226093 0
M  V30 4976 C 477.911 -1.49673 -0.587762 0
M  V30 4977 O 479.101 -1.69404 -0.405943 0
M  V30 4978 C 476.233 -3.33955 -0.684596 0
M  V30 4979 H 477.426 -2.81116 1.04469 0
M  V30 4980 H 474.979 -1.45162 0.579466 0
M  V30 4981 H 475.714 -2.86111 -1.5268 0
M  V30 4982 H 475.499 -3.91965 -0.102699 0
M  V30 4983 H 476.989 -4.03219 -1.08646 0
M  V30 4984 N 477.426 -0.562348 -1.47226 0
M  V30 4985 C 478.389 0.172056 -2.28553 0
M  V30 4986 C 479.389 0.837928 -1.37242 0
M  V30 4987 O 480.579 0.693001 -1.59822 0
M  V30 4988 C 477.711 1.25223 -3.17068 0
M  V30 4989 H 478.904 -0.542401 -2.94954 0
M  V30 4990 H 476.457 -0.319493 -1.53 0
M  V30 4991 H 477.192 1.99892 -2.55369 0
M  V30 4992 H 476.977 0.779515 -3.84273 0
M  V30 4993 H 478.467 1.76791 -3.78332 0
M  V30 4994 N 478.904 1.54736 -0.299062 0
M  V30 4995 C 479.851 2.23448 0.577899 0
M  V30 4996 C 480.821 1.21637 1.13109 0
M  V30 4997 O 482.006 1.50252 1.17597 0
M  V30 4998 C 479.146 2.9774 1.74484 0
M  V30 4999 C 478.259 4.1432 1.22323 0
M  V30 5000 C 477.394 4.76199 2.35388 0
M  V30 5001 C 476.433 5.84927 1.80351 0
M  V30 5002 N 475.57 6.4077 2.86982 0
M  V30 5003 H 480.41 2.97996 -0.0146545 0
M  V30 5004 H 477.947 1.47088 -0.0190013 0
M  V30 5005 H 479.905 3.39045 2.43114 0
M  V30 5006 H 478.535 2.25572 2.30905 0
M  V30 5007 H 477.587 3.7797 0.429249 0
M  V30 5008 H 478.899 4.92659 0.780309 0
M  V30 5009 H 478.053 5.20346 3.11969 0
M  V30 5010 H 476.792 3.97188 2.83006 0
M  V30 5011 H 475.797 5.40207 1.02259 0
M  V30 5012 H 477.022 6.65821 1.3364 0
M  V30 5013 H 474.968 5.64643 3.33938 0
M  V30 5014 H 474.885 7.1445 2.4718 0
M  V30 5015 H 476.153 6.89574 3.63466 0
M  V30 5016 N 480.382 0.0267497 1.57577 0
M  V30 5017 C 481.329 -0.955894 2.10075 0
M  V30 5018 C 482.299 -1.32453 1.00226 0
M  V30 5019 O 483.484 -1.41826 1.27632 0
M  V30 5020 C 480.624 -2.2338 2.6305 0
M  V30 5021 C 479.737 -1.92183 3.86898 0
M  V30 5022 C 478.872 -3.14251 4.28275 0
M  V30 5023 C 477.911 -2.78862 5.44888 0
M  V30 5024 N 477.048 -3.93548 5.81433 0
M  V30 5025 H 481.888 -0.501303 2.93753 0
M  V30 5026 H 479.425 -0.235847 1.45197 0
M  V30 5027 H 481.383 -2.98124 2.91853 0
M  V30 5028 H 480.013 -2.6646 1.82205 0
M  V30 5029 H 479.065 -1.07692 3.64838 0
M  V30 5030 H 480.377 -1.62117 4.7172 0
M  V30 5031 H 479.531 -3.97317 4.58502 0
M  V30 5032 H 478.27 -3.47476 3.42215 0
M  V30 5033 H 477.275 -1.94208 5.14357 0
M  V30 5034 H 478.5 -2.46855 6.32645 0
M  V30 5035 H 476.446 -4.2662 4.98328 0
M  V30 5036 H 476.363 -3.67098 6.6089 0
M  V30 5037 H 477.631 -4.77325 6.16264 0
M  V30 5038 N 481.861 -1.55662 -0.24637 0
M  V30 5039 C 482.791 -1.93377 -1.30873 0
M  V30 5040 C 483.772 -0.798773 -1.50179 0
M  V30 5041 O 484.957 -1.0591 -1.62778 0
M  V30 5042 C 482.087 -2.22893 -2.66338 0
M  V30 5043 C 481.041 -3.38649 -2.61727 0
M  V30 5044 C 480.367 -3.53708 -4.00992 0
M  V30 5045 C 481.667 -4.74323 -2.18666 0
M  V30 5046 H 483.361 -2.82363 -0.995552 0
M  V30 5047 H 480.907 -1.35854 -0.477464 0
M  V30 5048 H 482.86 -2.47866 -3.40794 0
M  V30 5049 H 481.584 -1.30733 -2.99293 0
M  V30 5050 H 480.243 -3.13685 -1.89729 0
M  V30 5051 H 479.891 -2.58967 -4.31214 0
M  V30 5052 H 479.591 -4.31551 -3.98795 0
M  V30 5053 H 481.115 -3.81003 -4.77147 0
M  V30 5054 H 482.529 -4.98665 -2.82854 0
M  V30 5055 H 480.926 -5.55273 -2.27579 0
M  V30 5056 H 481.996 -4.71349 -1.13834 0
M  V30 5057 N 483.339 0.512053 -1.4905 0
M  V30 5058 C 484.755 0.84224 -1.35567 0
M  V30 5059 C 484.955 1.97878 -0.380319 0
M  V30 5060 O 484.011 2.51769 0.19201 0
M  V30 5061 C 485.324 1.19286 -2.76028 0
M  V30 5062 C 486.872 1.30171 -2.84648 0
M  V30 5063 C 487.347 1.68568 -4.25851 0
M  V30 5064 N 488.838 1.75638 -4.28609 0
M  V30 5065 C 489.573 2.06769 -5.34821 0
M  V30 5066 N 489.069 2.36201 -6.51292 0
M  V30 5067 N 490.862 2.07927 -5.22229 0
M  V30 5068 H 483.013 -0.237574 -2.11067 0
M  V30 5069 H 485.276 -0.0436747 -0.946993 0
M  V30 5070 H 484.982 0.431199 -3.49047 0
M  V30 5071 H 484.856 2.13889 -3.10695 0
M  V30 5072 H 487.243 2.05411 -2.11873 0
M  V30 5073 H 487.324 0.336457 -2.53578 0
M  V30 5074 H 486.968 0.938824 -4.99148 0
M  V30 5075 H 486.898 2.66174 -4.54377 0
M  V30 5076 H 489.389 1.55097 -3.44606 0
M  V30 5077 H 489.702 2.59112 -7.28066 0
M  V30 5078 H 488.047 2.33681 -6.54536 0
M  V30 5079 H 491.238 1.84403 -4.30248 0
M  V30 5080 H 491.411 2.31856 -6.05101 0
M  V30 5081 O 484.856 1.47522 0.657231 0
M  V30 5082 H 485.547 1.42634 1.31055 0
M  V30 END ATOM
M  V30 BEGIN BOND
M  V30 END BOND
M  V30 END CTAB
M  END
$$$$
