drugbank_target|P48066 Sodium- and chloride-dependent GABA transporter 3 (DB08848)
 OpenBabel12092120583D

  0  0  0     0  0            999 V3000
M  V30 BEGIN CTAB
M  V30 COUNTS 9917 10062 0 0 0
M  V30 BEGIN ATOM
M  V30 1 H -0.908 1.98254 -0.117106 0
M  V30 2 N 0 1.576 0 0
M  V30 3 C 0.933 2.03868 1.02534 0
M  V30 4 C 1.911 0.928543 1.3348 0
M  V30 5 O 3.095 1.19667 1.45644 0
M  V30 6 C 0.222 2.43627 2.35294 0
M  V30 7 C -0.732 3.65373 2.2001 0
M  V30 8 S 0.101 5.13292 1.52614 0
M  V30 9 C 1.257 5.56322 2.86805 0
M  V30 10 H 1.49 2.90518 0.631377 0
M  V30 11 H -0.977 1.52953 0.210867 0
M  V30 12 H 0.981 2.67203 3.11629 0
M  V30 13 H -0.358 1.57376 2.7183 0
M  V30 14 H -1.165 3.90944 3.18086 0
M  V30 15 H -1.563 3.418 1.51819 0
M  V30 16 H 0.729 5.58782 3.83104 0
M  V30 17 H 1.672 6.56266 2.65933 0
M  V30 18 H 2.08 4.83886 2.90714 0
M  V30 19 N 1.4781 -0.272755 1.55222 0
M  V30 20 C 2.7061 -1.02255 1.79865 0
M  V30 21 C 3.1211 -1.79924 0.572088 0
M  V30 22 O 2.4781 -1.76638 -0.458842 0
M  V30 23 C 2.5291 -1.98094 3.02392 0
M  V30 24 O 2.2501 -1.23572 4.20311 0
M  V30 25 C 3.7511 -2.84884 3.39641 0
M  V30 26 H 0.9711 -0.302057 0.599168 0
M  V30 27 H 3.5151 -0.303465 2.02236 0
M  V30 28 H 1.6701 -2.65465 2.82147 0
M  V30 29 H 2.0841 -1.88172 4.89583 0
M  V30 30 H 3.5581 -3.47927 4.28545 0
M  V30 31 H 4.0351 -3.54665 2.59055 0
M  V30 32 H 4.6411 -2.23003 3.62146 0
M  V30 33 N 2.9562 -1.48159 -0.537278 0
M  V30 34 C 3.9192 -1.61665 -1.62472 0
M  V30 35 C 4.9192 -0.490395 -1.5314 0
M  V30 36 O 6.1092 -0.755998 -1.5694 0
M  V30 37 C 3.2412 -1.57997 -3.02076 0
M  V30 38 H 4.4342 -2.58621 -1.51839 0
M  V30 39 H 1.9872 -1.36647 -0.758771 0
M  V30 40 H 2.7222 -0.624913 -3.18222 0
M  V30 41 H 2.5072 -2.39755 -3.10258 0
M  V30 42 H 3.9972 -1.70627 -3.81151 0
M  V30 43 N 4.4343 0.785586 -1.36625 0
M  V30 44 C 5.3443 1.92964 -1.33425 0
M  V30 45 C 6.3603 1.72394 -0.235851 0
M  V30 46 O 7.5363 1.95866 -0.468878 0
M  V30 47 C 4.6013 3.27884 -1.12662 0
M  V30 48 C 3.6623 3.61204 -2.32013 0
M  V30 49 C 2.8953 4.89687 -2.12231 0
M  V30 50 O 3.1183 5.59704 -1.09945 0
M  V30 51 O 2.0523 5.21752 -3.00098 0
M  V30 52 H 5.8783 1.98613 -2.29753 0
M  V30 53 H 3.4633 0.926384 -1.17211 0
M  V30 54 H 5.3453 4.08614 -1.03016 0
M  V30 55 H 4.0203 3.23118 -0.193991 0
M  V30 56 H 2.9273 2.80765 -2.47228 0
M  V30 57 H 4.2603 3.70698 -3.23796 0
M  V30 58 N 5.9124 1.20967 1.01018 0
M  V30 59 C 6.8594 0.964281 2.09691 0
M  V30 60 C 7.8294 -0.107853 1.65749 0
M  V30 61 O 9.0144 0.0381987 1.90762 0
M  V30 62 C 6.1544 0.52943 3.41015 0
M  V30 63 C 5.2674 1.67043 3.98398 0
M  V30 64 C 4.4024 1.18525 5.17808 0
M  V30 65 C 3.4414 2.29892 5.67288 0
M  V30 66 N 2.5784 1.82546 6.77954 0
M  V30 67 H 7.4184 1.89463 2.30017 0
M  V30 68 H 4.9554 0.944289 1.1279 0
M  V30 69 H 6.9134 0.258588 4.16398 0
M  V30 70 H 5.5434 -0.363919 3.20742 0
M  V30 71 H 4.5954 2.05603 3.20049 0
M  V30 72 H 5.9074 2.50877 4.31117 0
M  V30 73 H 5.0614 0.870762 6.00419 0
M  V30 74 H 3.8004 0.316887 4.86669 0
M  V30 75 H 2.8054 2.6215 4.83278 0
M  V30 76 H 4.0304 3.17216 6.00459 0
M  V30 77 H 1.9764 0.980454 6.48632 0
M  V30 78 H 1.8934 2.59956 7.09901 0
M  V30 79 H 3.1614 1.54115 7.64113 0
M  V30 80 N 7.3905 -1.2043 1.01659 0
M  V30 81 C 8.3535 -2.21433 0.591616 0
M  V30 82 C 9.3535 -1.57203 -0.338226 0
M  V30 83 O 10.5435 -1.73737 -0.126918 0
M  V30 84 C 7.6755 -3.40628 -0.136058 0
M  V30 85 H 8.8685 -2.60545 1.48514 0
M  V30 86 H 6.4215 -1.33893 0.806379 0
M  V30 87 H 7.1565 -3.07019 -1.04449 0
M  V30 88 H 6.9415 -3.88475 0.531917 0
M  V30 89 H 8.4315 -4.15475 -0.420735 0
M  V30 90 N 8.8686 -0.792821 -1.36206 0
M  V30 91 C 9.7986 -0.207853 -2.32573 0
M  V30 92 C 10.7796 0.659055 -1.56813 0
M  V30 93 O 11.9646 0.592176 -1.84951 0
M  V30 94 C 9.0946 0.655449 -3.41059 0
M  V30 95 C 8.0486 -0.111842 -4.27854 0
M  V30 96 C 7.3746 0.872274 -5.27537 0
M  V30 97 C 8.6746 -1.30299 -5.05786 0
M  V30 98 H 10.3686 -1.01294 -2.81744 0
M  V30 99 H 7.9146 -0.48854 -1.3546 0
M  V30 100 H 9.8676 1.07464 -4.07467 0
M  V30 101 H 8.5916 1.49328 -2.90463 0
M  V30 102 H 7.2506 -0.512053 -3.63006 0
M  V30 103 H 6.8986 1.70523 -4.73214 0
M  V30 104 H 6.5986 0.363291 -5.86476 0
M  V30 105 H 8.1226 1.28996 -5.96818 0
M  V30 106 H 9.5366 -0.959379 -5.65216 0
M  V30 107 H 7.9336 -1.7455 -5.74154 0
M  V30 108 H 9.0036 -2.09663 -4.37229 0
M  V30 109 N 10.3467 1.47872 -0.545128 0
M  V30 110 C 11.7577 1.86384 -0.108581 0
M  V30 111 C 12.1087 1.45309 1.31832 0
M  V30 112 O 11.2337 0.850641 1.9898 0
M  V30 113 C 11.8287 3.38265 -0.190274 0
M  V30 114 C 10.3877 3.75914 0.191164 0
M  V30 115 C 9.5347 2.71926 -0.543273 0
M  V30 116 H 12.4857 1.39561 -0.755537 0
M  V30 117 H 12.5067 3.75831 0.594217 0
M  V30 118 H 12.0187 3.6813 -1.2289 0
M  V30 119 H 10.1197 3.51665 1.23136 0
M  V30 120 H 10.2327 4.78836 -0.158987 0
M  V30 121 H 8.5967 2.54697 0.0122495 0
M  V30 122 H 9.3797 3.04634 -1.58282 0
M  V30 123 N 11.8248 0.280983 1.55075 0
M  V30 124 C 12.7548 -0.597469 2.25727 0
M  V30 125 C 13.7358 -1.15417 1.24952 0
M  V30 126 O 14.9208 -1.18722 1.53684 0
M  V30 127 C 12.0508 -1.7789 2.98283 0
M  V30 128 C 11.0048 -1.35347 4.06036 0
M  V30 129 C 10.3308 -2.61846 4.66198 0
M  V30 130 C 11.6308 -0.499354 5.19907 0
M  V30 131 H 13.3248 -0.00824265 2.99399 0
M  V30 132 H 10.8708 -0.0025244 1.44 0
M  V30 133 H 12.8238 -2.39937 3.46422 0
M  V30 134 H 11.5478 -2.39405 2.22155 0
M  V30 135 H 10.2068 -0.756156 3.58717 0
M  V30 136 H 9.8548 -3.21632 3.86732 0
M  V30 137 H 9.5548 -2.3409 5.38958 0
M  V30 138 H 11.0788 -3.24732 5.1709 0
M  V30 139 H 12.4928 -1.02498 5.64063 0
M  V30 140 H 10.8898 -0.316424 5.99265 0
M  V30 141 H 11.9598 0.480459 4.82514 0
M  V30 142 N 13.3029 -1.57598 0.00835791 0
M  V30 143 C 14.5509 -1.90551 -0.6734 0
M  V30 144 C 14.8719 -0.883301 -1.73847 0
M  V30 145 O 14.1419 0.0781442 -1.95744 0
M  V30 146 H 12.7219 -0.703312 -0.251717 0
M  V30 147 H 15.3839 -1.94833 0.0512592 0
M  V30 148 H 14.4799 -2.9056 -1.13935 0
M  V30 149 N 14.781 0.264519 -1.55364 0
M  V30 150 C 15.729 1.34702 -1.89626 0
M  V30 151 C 16.723 1.50712 -0.773459 0
M  V30 152 O 17.929 1.52395 -0.957897 0
M  V30 153 H 14.304 0.450682 -0.601988 0
M  V30 154 H 16.275 1.0306 -2.80038 0
M  V30 155 C 15.024 2.6989 -2.19214 0
M  V30 156 H 14.347 2.58365 -3.05103 0
M  V30 157 H 15.787 3.44553 -2.47102 0
M  V30 158 C 14.246 3.21637 -1.00254 0
M  V30 159 O 14.776 4.00973 -0.241501 0
M  V30 160 N 12.982 2.7943 -0.797938 0
M  V30 161 H 12.529 2.15026 -1.4185 0
M  V30 162 H 12.487 3.144 -0.00363422 0
M  V30 163 N 16.2591 1.48442 0.529413 0
M  V30 164 C 17.5071 1.56179 1.28267 0
M  V30 165 C 17.8281 0.237721 1.93546 0
M  V30 166 O 17.0981 -0.740779 1.81354 0
M  V30 167 H 15.6781 0.575367 0.476405 0
M  V30 168 H 18.3401 1.84909 0.61602 0
M  V30 169 H 17.4361 2.34312 2.06165 0
M  V30 170 N 17.7372 -0.778329 1.37039 0
M  V30 171 C 18.6842 -1.89139 1.32269 0
M  V30 172 C 19.6542 -1.65017 0.189387 0
M  V30 173 O 20.8392 -1.87024 0.377693 0
M  V30 174 C 17.9792 -3.26112 1.12894 0
M  V30 175 C 17.0922 -3.62233 2.35396 0
M  V30 176 C 16.2272 -4.8838 2.08946 0
M  V30 177 C 15.2662 -5.17212 3.2735 0
M  V30 178 N 14.4032 -6.34546 3.00492 0
M  V30 179 H 19.2432 -1.92552 2.27437 0
M  V30 180 H 16.7802 -0.941473 1.13025 0
M  V30 181 H 18.7382 -4.05116 0.996835 0
M  V30 182 H 17.3682 -3.22091 0.213758 0
M  V30 183 H 16.4202 -2.78265 2.5937 0
M  V30 184 H 17.7322 -3.79481 3.23721 0
M  V30 185 H 16.8862 -5.75274 1.92729 0
M  V30 186 H 15.6252 -4.73222 1.17949 0
M  V30 187 H 14.6302 -4.28796 3.44113 0
M  V30 188 H 15.8552 -5.34283 4.19188 0
M  V30 189 H 13.8012 -6.20759 2.12118 0
M  V30 190 H 13.7182 -6.52179 3.82358 0
M  V30 191 H 14.9862 -7.24394 2.87879 0
M  V30 192 N 19.2153 -1.21501 -1.00376 0
M  V30 193 C 20.1783 -0.976927 -2.07337 0
M  V30 194 C 21.1783 0.0525322 -1.60714 0
M  V30 195 O 22.3683 -0.184869 -1.73216 0
M  V30 196 C 19.5003 -0.473423 -3.37597 0
M  V30 197 H 20.6933 -1.92587 -2.29892 0
M  V30 198 H 18.2463 -1.03217 -1.17371 0
M  V30 199 H 18.9813 0.480379 -3.20722 0
M  V30 200 H 18.7663 -1.216 -3.72768 0
M  V30 201 H 20.2563 -0.32675 -4.1632 0
M  V30 202 N 20.6934 1.19889 -1.02296 0
M  V30 203 C 21.6564 2.21116 -0.603351 0
M  V30 204 C 22.6564 1.5738 0.329884 0
M  V30 205 O 23.8464 1.73802 0.117702 0
M  V30 206 C 20.9784 3.40696 0.117992 0
M  V30 207 H 22.1714 2.59754 -1.49893 0
M  V30 208 H 19.7244 1.33463 -0.813468 0
M  V30 209 H 20.4594 3.07569 1.0282 0
M  V30 210 H 20.2444 3.88188 -0.552511 0
M  V30 211 H 21.7344 4.15692 0.398696 0
M  V30 212 N 22.1715 0.800033 1.35784 0
M  V30 213 C 23.0815 0.207204 2.33683 0
M  V30 214 C 24.0975 -0.64631 1.61551 0
M  V30 215 O 25.2735 -0.559604 1.93469 0
M  V30 216 C 22.3385 -0.639659 3.40748 0
M  V30 217 C 21.3995 0.233585 4.28664 0
M  V30 218 C 20.6325 -0.572954 5.30616 0
M  V30 219 O 20.8555 -1.80816 5.40982 0
M  V30 220 O 19.7895 0.0327285 6.01891 0
M  V30 221 H 23.6155 1.01692 2.86169 0
M  V30 222 H 21.2005 0.561691 1.38439 0
M  V30 223 H 23.0825 -1.12223 4.06182 0
M  V30 224 H 21.7575 -1.42708 2.90544 0
M  V30 225 H 20.6645 0.763147 3.66233 0
M  V30 226 H 21.9975 0.984784 4.82248 0
M  V30 227 N 23.6496 -1.47581 0.552962 0
M  V30 228 C 24.5596 -2.33743 -0.200353 0
M  V30 229 C 25.5756 -1.47928 -0.916151 0
M  V30 230 O 26.7516 -1.80865 -0.885993 0
M  V30 231 C 23.8166 -3.24536 -1.21973 0
M  V30 232 C 22.8776 -4.26238 -0.511819 0
M  V30 233 C 22.1106 -5.12693 -1.48263 0
M  V30 234 O 22.3336 -5.01525 -2.71714 0
M  V30 235 O 21.2676 -5.93375 -1.00945 0
M  V30 236 H 25.0936 -2.9945 0.506304 0
M  V30 237 H 22.6786 -1.46071 0.313622 0
M  V30 238 H 24.5606 -3.80631 -1.80827 0
M  V30 239 H 23.2356 -2.61462 -1.90839 0
M  V30 240 H 22.1426 -3.73914 0.117799 0
M  V30 241 H 23.4756 -4.92014 0.135308 0
M  V30 242 N 25.1277 -0.289203 -1.54924 0
M  V30 243 C 26.0907 0.579144 -2.21762 0
M  V30 244 C 27.0907 1.07047 -1.1999 0
M  V30 245 O 28.2807 0.968384 -1.44803 0
M  V30 246 C 25.4127 1.80055 -2.8947 0
M  V30 247 H 26.6057 -0.00464908 -2.999 0
M  V30 248 H 24.1587 -0.0399306 -1.56249 0
M  V30 249 H 24.8937 2.42449 -2.15381 0
M  V30 250 H 24.6787 1.45602 -3.64064 0
M  V30 251 H 26.1687 2.41773 -3.40493 0
M  V30 252 N 26.6058 1.57591 -0.0167156 0
M  V30 253 C 28.0218 1.55946 0.339557 0
M  V30 254 C 28.2218 1.02109 1.73713 0
M  V30 255 O 27.2778 0.662303 2.43659 0
M  V30 256 C 28.5908 3.00037 0.199499 0
M  V30 257 C 30.1388 3.11805 0.273193 0
M  V30 258 C 30.6138 4.57713 0.162068 0
M  V30 259 N 32.1048 4.6268 0.219444 0
M  V30 260 C 32.8398 5.73185 0.157054 0
M  V30 261 N 32.3358 6.92786 0.0442936 0
M  V30 262 N 34.1288 5.61707 0.21014 0
M  V30 263 H 26.2798 1.90921 -0.930758 0
M  V30 264 H 28.5428 0.877674 -0.358319 0
M  V30 265 H 28.2488 3.4333 -0.76273 0
M  V30 266 H 28.1228 3.64387 0.974786 0
M  V30 267 H 30.5098 2.68433 1.22587 0
M  V30 268 H 30.5908 2.50201 -0.532256 0
M  V30 269 H 30.2348 5.01763 -0.78714 0
M  V30 270 H 30.1648 5.17283 0.986222 0
M  V30 271 H 32.6558 3.76649 0.307246 0
M  V30 272 H 32.9688 7.728 0.00304069 0
M  V30 273 H 31.3138 6.94999 0.00968457 0
M  V30 274 H 34.5048 4.6716 0.296546 0
M  V30 275 H 34.6778 6.47807 0.158054 0
M  V30 276 N 28.0839 -0.256276 1.55502 0
M  V30 277 C 28.9939 -1.33882 1.92647 0
M  V30 278 C 30.0099 -1.53159 0.825727 0
M  V30 279 O 31.1859 -1.66963 1.12629 0
M  V30 280 C 28.2509 -2.6751 2.20543 0
M  V30 281 C 27.3119 -2.56836 3.43997 0
M  V30 282 C 26.5449 -3.84092 3.70553 0
M  V30 283 O 26.7679 -4.85545 2.99336 0
M  V30 284 O 25.7019 -3.83288 4.64084 0
M  V30 285 H 29.5279 -1.05374 2.84833 0
M  V30 286 H 27.1129 -0.456237 1.42263 0
M  V30 287 H 28.9949 -3.46492 2.39835 0
M  V30 288 H 27.6699 -2.9577 1.31536 0
M  V30 289 H 26.5769 -1.76172 3.30021 0
M  V30 290 H 27.9099 -2.33523 4.33275 0
M  V30 291 N 29.562 -1.4872 -0.521534 0
M  V30 292 C 30.787 -1.61101 -1.30618 0
M  V30 293 C 31.212 -0.274611 -1.86085 0
M  V30 294 O 30.57 0.754937 -1.64834 0
M  V30 295 C 30.618 -2.66709 -2.4269 0
M  V30 296 O 29.722 -2.24456 -3.45967 0
M  V30 297 H 29.063 -0.539921 -0.386499 0
M  V30 298 H 31.593 -1.94767 -0.626645 0
M  V30 299 H 31.603 -2.88245 -2.88754 0
M  V30 300 H 30.278 -3.63727 -2.01682 0
M  V30 301 H 28.855 -2.13168 -3.05964 0
M  V30 302 N 31.0401 0.771051 -1.3745 0
M  V30 303 C 31.9501 1.91538 -1.35464 0
M  V30 304 C 32.9661 1.72134 -0.254123 0
M  V30 305 O 34.1421 1.95358 -0.489626 0
M  V30 306 C 31.2071 3.26671 -1.16134 0
M  V30 307 C 30.2681 3.58723 -2.35831 0
M  V30 308 C 29.5011 4.87409 -2.17413 0
M  V30 309 O 29.7241 5.58506 -1.15876 0
M  V30 310 O 28.6581 5.18539 -3.05615 0
M  V30 311 H 32.4841 1.96165 -2.31847 0
M  V30 312 H 30.0691 0.9139 -1.18187 0
M  V30 313 H 31.9511 4.07499 -1.07345 0
M  V30 314 H 30.6261 3.22894 -0.228251 0
M  V30 315 H 29.5331 2.78127 -2.50192 0
M  V30 316 H 30.8661 3.67243 -3.27709 0
M  V30 317 N 32.5182 1.22032 0.997298 0
M  V30 318 C 33.4812 0.987909 2.06816 0
M  V30 319 C 34.4812 -0.0440084 1.6074 0
M  V30 320 O 35.6712 0.194053 1.73116 0
M  V30 321 C 32.8032 0.49132 3.37341 0
M  V30 322 H 33.9962 1.93803 2.28868 0
M  V30 323 H 31.5492 1.03838 1.16822 0
M  V30 324 H 32.2842 -0.463364 3.20973 0
M  V30 325 H 32.0692 1.23575 3.72118 0
M  V30 326 H 33.5592 0.348824 4.16141 0
M  V30 327 N 33.9963 -1.19345 1.0293 0
M  V30 328 C 35.4073 -1.70725 0.755633 0
M  V30 329 C 35.7583 -1.82326 -0.724676 0
M  V30 330 O 34.8833 -1.49471 -1.56484 0
M  V30 331 C 35.4783 -3.10084 1.36503 0
M  V30 332 C 34.0373 -3.58723 1.13994 0
M  V30 333 C 33.1843 -2.35577 1.46283 0
M  V30 334 H 36.1353 -1.0418 1.19718 0
M  V30 335 H 36.1563 -3.72787 0.762217 0
M  V30 336 H 35.6683 -3.01609 2.44241 0
M  V30 337 H 33.7693 -3.72512 0.0807901 0
M  V30 338 H 33.8823 -4.42816 1.82894 0
M  V30 339 H 32.2463 -2.38935 0.88217 0
M  V30 340 H 33.0293 -2.29731 2.55105 0
M  V30 341 N 35.4744 -0.807222 -1.35358 0
M  V30 342 C 36.7224 -0.387122 -1.98358 0
M  V30 343 C 37.0434 1.04942 -1.64354 0
M  V30 344 O 36.3134 1.72615 -0.926339 0
M  V30 345 H 34.8934 -0.140154 -0.733734 0
M  V30 346 H 37.5554 -1.0332 -1.6526 0
M  V30 347 H 36.6514 -0.493352 -3.08176 0
M  V30 348 N 36.9525 1.47285 -0.560781 0
M  V30 349 C 38.2005 2.02064 -0.0379868 0
M  V30 350 C 38.5215 1.43711 1.31803 0
M  V30 351 O 37.7915 0.61362 1.86042 0
M  V30 352 H 36.3715 0.746918 -0.0110531 0
M  V30 353 H 39.0335 1.80648 -0.731598 0
M  V30 354 H 38.1295 3.12064 0.0474463 0
M  V30 355 N 38.4306 0.297415 1.54768 0
M  V30 356 C 39.6786 -0.312295 1.99673 0
M  V30 357 C 39.9996 -1.54686 1.18732 0
M  V30 358 O 39.2696 -1.93854 0.282382 0
M  V30 359 H 37.8496 -0.118381 0.73756 0
M  V30 360 H 40.5116 0.407915 1.90583 0
M  V30 361 H 39.6076 -0.586813 3.06534 0
M  V30 362 N 39.9087 -1.5758 0.0250728 0
M  V30 363 C 41.1487 -1.93497 -0.65865 0
M  V30 364 C 41.5127 -0.901409 -1.69525 0
M  V30 365 O 42.7137 -1.14664 -2.43116 0
M  V30 366 C 40.9847 -3.34352 -1.26267 0
M  V30 367 S 42.5437 -3.92191 -1.96803 0
M  V30 368 H 39.3617 -0.67709 -0.216958 0
M  V30 369 H 41.9637 -1.95303 0.0877692 0
M  V30 370 H 40.6677 -4.07395 -0.495741 0
M  V30 371 H 40.1987 -3.3598 -2.04648 0
M  V30 372 H 42.2137 -3.75298 -3.24601 0
M  V30 373 N 41.3868 0.248026 -1.55636 0
M  V30 374 C 42.6118 0.998028 -1.81808 0
M  V30 375 C 43.0368 1.78207 -0.601979 0
M  V30 376 O 42.3948 1.75653 0.448961 0
M  V30 377 C 42.4428 1.9125 -3.05705 0
M  V30 378 O 41.5468 3.00406 -2.82542 0
M  V30 379 H 40.8878 0.284045 -0.600179 0
M  V30 380 H 43.4178 0.269357 -2.02819 0
M  V30 381 H 43.4278 2.32737 -3.35108 0
M  V30 382 H 42.1028 1.33602 -3.93857 0
M  V30 383 H 40.6798 2.63056 -2.64303 0
M  V30 384 N 42.8649 1.48995 0.513639 0
M  V30 385 C 44.0899 1.61792 1.29762 0
M  V30 386 C 44.5149 0.284475 1.85936 0
M  V30 387 O 43.8729 -0.746185 1.65232 0
M  V30 388 C 43.9209 2.67993 2.41272 0
M  V30 389 O 43.0249 2.26287 3.44772 0
M  V30 390 H 42.3659 0.541963 0.38363 0
M  V30 391 H 44.8959 1.95097 0.616307 0
M  V30 392 H 44.9059 2.89772 2.87221 0
M  V30 393 H 43.5809 3.64791 1.9975 0
M  V30 394 H 42.1579 2.14788 3.04829 0
M  V30 395 N 44.343 -0.763751 1.37857 0
M  V30 396 C 45.591 -1.51957 1.33243 0
M  V30 397 C 45.912 -1.94835 -0.0801709 0
M  V30 398 O 45.182 -1.66894 -1.02582 0
M  V30 399 H 43.762 -0.563626 0.49024 0
M  V30 400 H 46.424 -0.908504 1.7243 0
M  V30 401 H 45.52 -2.41523 1.97669 0
M  V30 402 N 45.8211 -1.22559 -0.990812 0
M  V30 403 C 47.0691 -1.04933 -1.72724 0
M  V30 404 C 47.3901 0.416158 -1.90508 0
M  V30 405 O 46.6601 1.29918 -1.46622 0
M  V30 406 H 45.2401 -0.385296 -0.639965 0
M  V30 407 H 47.9021 -1.54105 -1.19322 0
M  V30 408 H 46.9981 -1.52886 -2.72089 0
M  V30 409 N 47.2992 1.18797 -1.03562 0
M  V30 410 C 48.2622 2.20464 -0.626769 0
M  V30 411 C 49.2622 1.57721 0.313173 0
M  V30 412 O 50.4522 1.73917 0.0992615 0
M  V30 413 C 47.5842 3.40802 0.0818498 0
M  V30 414 H 48.7772 2.58149 -1.5264 0
M  V30 415 H 46.3302 1.32593 -0.827578 0
M  V30 416 H 47.0652 3.08642 0.995518 0
M  V30 417 H 46.8502 3.8758 -0.593652 0
M  V30 418 H 48.3402 4.16092 0.354584 0
M  V30 419 N 48.7773 0.814389 1.34928 0
M  V30 420 C 49.7403 0.235759 2.27984 0
M  V30 421 C 50.7403 -0.581412 1.49921 0
M  V30 422 O 51.9303 -0.398758 1.69575 0
M  V30 423 C 49.0623 -0.670433 3.34242 0
M  V30 424 H 50.2553 1.05659 2.80671 0
M  V30 425 H 47.8083 0.585614 1.44915 0
M  V30 426 H 48.5433 -1.51466 2.86755 0
M  V30 427 H 48.3283 -0.0860822 3.92005 0
M  V30 428 H 49.8183 -1.06935 4.03676 0
M  V30 429 N 50.2554 -1.46986 0.568584 0
M  V30 430 C 51.6664 -1.86188 0.138219 0
M  V30 431 C 52.0174 -1.47388 -1.29504 0
M  V30 432 O 51.1424 -0.88219 -1.97602 0
M  V30 433 C 51.7374 -3.3792 0.244065 0
M  V30 434 C 50.2964 -3.76171 -0.131335 0
M  V30 435 C 49.4434 -2.71027 0.586465 0
M  V30 436 H 52.3944 -1.38342 0.777645 0
M  V30 437 H 52.4154 -3.76729 -0.534351 0
M  V30 438 H 51.9274 -3.66128 1.28731 0
M  V30 439 H 50.0284 -3.5358 -1.17526 0
M  V30 440 H 50.1414 -4.78523 0.235146 0
M  V30 441 H 48.5054 -2.54684 0.0282722 0
M  V30 442 H 49.2884 -3.02077 1.63109 0
M  V30 443 N 51.7335 -0.305618 -1.54608 0
M  V30 444 C 52.6965 0.555591 -2.22364 0
M  V30 445 C 53.6965 1.05768 -1.21119 0
M  V30 446 O 54.8865 0.952972 -1.45822 0
M  V30 447 C 52.0185 1.76974 -2.91364 0
M  V30 448 H 53.2115 -0.0364572 -2.99878 0
M  V30 449 H 50.7645 -0.0565007 -1.56198 0
M  V30 450 H 51.4995 2.40151 -2.17941 0
M  V30 451 H 51.2845 1.41732 -3.65588 0
M  V30 452 H 52.7745 2.38148 -3.43038 0
M  V30 453 N 53.2116 1.57565 -0.0334293 0
M  V30 454 C 54.6276 1.56297 0.322997 0
M  V30 455 C 54.8276 1.03945 1.7262 0
M  V30 456 O 53.8836 0.688109 2.42943 0
M  V30 457 C 55.1966 3.00232 0.167664 0
M  V30 458 C 56.7446 3.12078 0.240107 0
M  V30 459 C 57.2196 4.57859 0.113513 0
M  V30 460 N 58.7106 4.62887 0.170359 0
M  V30 461 C 59.4456 5.73319 0.0962517 0
M  V30 462 N 58.9416 6.92794 -0.0291881 0
M  V30 463 N 60.7346 5.61898 0.150551 0
M  V30 464 H 52.8856 1.89923 -0.950956 0
M  V30 465 H 55.1486 0.873824 -0.367608 0
M  V30 466 H 54.8546 3.42501 -0.799102 0
M  V30 467 H 54.7286 3.654 0.936083 0
M  V30 468 H 57.1156 2.69718 1.19733 0
M  V30 469 H 57.1966 2.49623 -0.558763 0
M  V30 470 H 56.8406 5.009 -0.840314 0
M  V30 471 H 56.7706 5.18299 0.931302 0
M  V30 472 H 59.2616 3.76954 0.26728 0
M  V30 473 H 59.5746 7.7276 -0.0789252 0
M  V30 474 H 57.9196 6.94971 -0.0640299 0
M  V30 475 H 61.1106 4.67448 0.246981 0
M  V30 476 H 61.2836 6.47938 0.0893365 0
M  V30 477 N 54.6897 -0.239769 1.55765 0
M  V30 478 C 55.6397 -1.30002 1.87306 0
M  V30 479 C 56.6237 -1.43156 0.73452 0
M  V30 480 O 57.8157 -1.46277 0.99659 0
M  V30 481 C 54.9447 -2.65409 2.17745 0
M  V30 482 C 54.0307 -2.56231 3.37945 0
M  V30 483 N 54.4217 -2.16689 4.57033 0
M  V30 484 C 52.7197 -2.87229 3.41197 0
M  V30 485 C 53.4207 -2.18318 5.39177 0
M  V30 486 N 52.3967 -2.58098 4.78421 0
M  V30 487 H 56.1987 -0.984912 2.76906 0
M  V30 488 H 53.7127 -0.448381 1.56087 0
M  V30 489 H 55.7097 -3.41934 2.38509 0
M  V30 490 H 54.3697 -2.97781 1.29448 0
M  V30 491 H 55.3807 -1.88116 4.82528 0
M  V30 492 H 52.0577 -3.24094 2.63191 0
M  V30 493 H 53.4477 -1.90025 6.44469 0
M  V30 494 N 56.1678 -1.49265 -0.50573 0
M  V30 495 C 57.5788 -1.51769 -1.08734 0
M  V30 496 C 57.9298 -0.301192 -1.93874 0
M  V30 497 O 57.0548 0.589456 -2.08217 0
M  V30 498 C 57.6498 -2.75017 -1.97867 0
M  V30 499 C 56.2088 -2.80314 -2.51199 0
M  V30 500 C 55.3558 -2.4562 -1.28709 0
M  V30 501 H 58.3068 -1.56031 -0.289855 0
M  V30 502 H 58.3278 -2.5491 -2.82491 0
M  V30 503 H 57.8398 -3.63539 -1.35873 0
M  V30 504 H 55.9408 -1.96061 -3.16845 0
M  V30 505 H 56.0538 -3.82366 -2.88675 0
M  V30 506 H 54.4178 -1.97297 -1.61078 0
M  V30 507 H 55.2008 -3.36411 -0.6843 0
M  V30 508 N 57.6459 0.756429 -1.3826 0
M  V30 509 C 59.0619 1.0591 -1.19395 0
M  V30 510 C 59.2619 2.01459 -0.0406567 0
M  V30 511 O 58.3179 2.44909 0.614467 0
M  V30 512 C 59.6309 1.64191 -2.51916 0
M  V30 513 C 61.1789 1.76376 -2.58574 0
M  V30 514 C 61.6539 2.38069 -3.91264 0
M  V30 515 N 63.1449 2.45503 -3.92788 0
M  V30 516 C 63.8799 2.94126 -4.92217 0
M  V30 517 N 63.3759 3.42805 -6.02043 0
M  V30 518 N 65.1689 2.9314 -4.7961 0
M  V30 519 H 57.3199 0.122313 -2.12048 0
M  V30 520 H 59.5829 0.116892 -0.940766 0
M  V30 521 H 59.2889 1.01451 -3.3675 0
M  V30 522 H 59.1629 2.6329 -2.70108 0
M  V30 523 H 61.5499 2.38244 -1.74137 0
M  V30 524 H 61.6309 0.759894 -2.44252 0
M  V30 525 H 61.2749 1.76835 -4.76121 0
M  V30 526 H 61.2049 3.39091 -4.02895 0
M  V30 527 H 63.6959 2.1107 -3.13461 0
M  V30 528 H 64.0089 3.78354 -6.73846 0
M  V30 529 H 62.3539 3.4087 -6.05667 0
M  V30 530 H 65.5449 2.54419 -3.92923 0
M  V30 531 H 65.7179 3.30721 -5.5725 0
M  V30 532 N 59.124 1.23083 0.984299 0
M  V30 533 C 60.37 1.06214 1.72761 0
M  V30 534 C 60.703 -0.400584 1.90024 0
M  V30 535 O 59.978 -1.29672 1.44967 0
M  V30 536 C 60.261 1.78375 3.12817 0
M  V30 537 C 60.114 3.32296 3.03149 0
M  V30 538 C 61.433 1.54309 4.12161 0
M  V30 539 H 58.552 0.387251 0.627061 0
M  V30 540 H 61.194 1.51536 1.14616 0
M  V30 541 H 59.344 1.39848 3.62457 0
M  V30 542 H 61.016 3.8032 2.61064 0
M  V30 543 H 59.259 3.6153 2.39747 0
M  V30 544 H 59.93 3.77972 4.02295 0
M  V30 545 H 62.406 1.87791 3.71314 0
M  V30 546 H 61.282 2.07281 5.08258 0
M  V30 547 H 61.543 0.477572 4.39513 0
M  V30 548 N 60.6021 -1.18246 1.0419 0
M  V30 549 C 61.5491 -2.2192 0.634037 0
M  V30 550 C 62.5191 -1.62179 -0.358765 0
M  V30 551 O 63.7041 -1.89122 -0.252466 0
M  V30 552 C 60.8441 -3.451 0.00445535 0
M  V30 553 C 59.9571 -4.19174 1.04487 0
M  V30 554 C 59.0921 -5.29813 0.383676 0
M  V30 555 C 58.1311 -5.9566 1.4091 0
M  V30 556 N 57.2681 -6.97834 0.772784 0
M  V30 557 H 62.1081 -2.56164 1.52263 0
M  V30 558 H 59.6451 -1.25843 0.761701 0
M  V30 559 H 61.6031 -4.15485 -0.377919 0
M  V30 560 H 60.2331 -3.11472 -0.847652 0
M  V30 561 H 59.2851 -3.47604 1.54518 0
M  V30 562 H 60.5971 -4.64267 1.82368 0
M  V30 563 H 59.7511 -6.06677 -0.0528366 0
M  V30 564 H 58.4901 -4.85825 -0.427208 0
M  V30 565 H 57.4951 -5.17535 1.85574 0
M  V30 566 H 58.7201 -6.4173 2.22171 0
M  V30 567 H 56.6661 -6.55998 -0.0177708 0
M  V30 568 H 56.5831 -7.41186 1.48928 0
M  V30 569 H 57.8511 -7.78665 0.36071 0
M  V30 570 N 62.0802 -0.821533 -1.34494 0
M  V30 571 C 63.4962 -0.507117 -1.51329 0
M  V30 572 C 63.6962 0.968964 -1.76673 0
M  V30 573 O 62.7522 1.75348 -1.81685 0
M  V30 574 C 64.0652 -1.36544 -2.67911 0
M  V30 575 C 65.6132 -1.36242 -2.81793 0
M  V30 576 C 66.0882 -2.2052 -4.01416 0
M  V30 577 N 67.5792 -2.18136 -4.08621 0
M  V30 578 C 68.3142 -2.80095 -5.00334 0
M  V30 579 N 67.8102 -3.51039 -5.9728 0
M  V30 580 N 69.6032 -2.69656 -4.93196 0
M  V30 581 H 61.7542 -1.77729 -1.16302 0
M  V30 582 H 64.0172 -0.757291 -0.570276 0
M  V30 583 H 63.7232 -2.41361 -2.55808 0
M  V30 584 H 63.5972 -1.02917 -3.62888 0
M  V30 585 H 65.9842 -0.322041 -2.93338 0
M  V30 586 H 66.0652 -1.73866 -1.87628 0
M  V30 587 H 65.7092 -3.24607 -3.90631 0
M  V30 588 H 65.6392 -1.80247 -4.94791 0
M  V30 589 H 68.1302 -1.6653 -3.39229 0
M  V30 590 H 68.4432 -3.95565 -6.63889 0
M  V30 591 H 66.7882 -3.55145 -5.97409 0
M  V30 592 H 69.9792 -2.13808 -4.16418 0
M  V30 593 H 70.1522 -3.1823 -5.64476 0
M  V30 594 N 63.5583 1.46682 -0.576371 0
M  V30 595 C 64.8353 1.95599 0.00703437 0
M  V30 596 C 65.2153 1.51904 1.46589 0
M  V30 597 O 64.5633 0.766755 2.15251 0
M  V30 598 C 64.7733 3.4864 -0.158404 0
M  V30 599 C 66.1213 4.24594 -0.0229439 0
M  V30 600 O 67.1453 3.56094 -0.0869173 0
M  V30 601 O 66.0043 5.46373 0.118015 0
M  V30 602 H 63.0983 0.825275 0.053384 0
M  V30 603 H 65.6443 1.56996 -0.644244 0
M  V30 604 H 64.4163 3.7331 -1.17282 0
M  V30 605 H 64.0393 3.94057 0.5296 0
M  V30 606 N 65.0364 0.313813 1.54444 0
M  V30 607 C 65.9834 -0.55655 2.23989 0
M  V30 608 C 66.9534 -1.11943 1.22711 0
M  V30 609 O 68.1384 -1.16158 1.51367 0
M  V30 610 C 65.2784 -1.71635 2.99392 0
M  V30 611 C 64.3914 -1.18364 4.15468 0
M  V30 612 C 63.5264 -2.30834 4.78424 0
M  V30 613 C 62.5654 -1.74762 5.86622 0
M  V30 614 N 61.7024 -2.80855 6.43479 0
M  V30 615 H 66.5424 0.0430893 2.97969 0
M  V30 616 H 64.0794 0.0330359 1.47063 0
M  V30 617 H 66.0374 -2.39868 3.41349 0
M  V30 618 H 64.6674 -2.28742 2.27765 0
M  V30 619 H 63.7194 -0.393163 3.78363 0
M  V30 620 H 65.0314 -0.733262 4.93381 0
M  V30 621 H 64.1854 -3.0699 5.23299 0
M  V30 622 H 62.9244 -2.79204 3.99871 0
M  V30 623 H 61.9294 -0.970995 5.41158 0
M  V30 624 H 63.1544 -1.2728 6.67066 0
M  V30 625 H 61.1004 -3.28535 5.67804 0
M  V30 626 H 61.0174 -2.40351 7.16776 0
M  V30 627 H 62.2854 -3.5687 6.93011 0
M  V30 628 N 66.5145 -1.57545 0.0417849 0
M  V30 629 C 67.4775 -2.09885 -0.92093 0
M  V30 630 C 68.4775 -1.01648 -1.24596 0
M  V30 631 O 69.6675 -1.27759 -1.1842 0
M  V30 632 C 66.7995 -2.57527 -2.23367 0
M  V30 633 H 67.9925 -2.96236 -0.467382 0
M  V30 634 H 65.5455 -1.5493 -0.206467 0
M  V30 635 H 66.2805 -1.74542 -2.73323 0
M  V30 636 H 66.0655 -3.36613 -2.01083 0
M  V30 637 H 67.5555 -2.98201 -2.92346 0
M  V30 638 N 67.9926 0.231505 -1.5589 0
M  V30 639 C 69.2386 0.95877 -1.78705 0
M  V30 640 C 69.5716 1.8438 -0.609725 0
M  V30 641 O 68.8466 1.90521 0.391426 0
M  V30 642 C 69.1296 1.8062 -3.11526 0
M  V30 643 C 68.9826 0.948328 -4.39689 0
M  V30 644 C 70.3016 2.78585 -3.40703 0
M  V30 645 H 67.4206 0.347129 -0.650131 0
M  V30 646 H 70.0626 0.228259 -1.88624 0
M  V30 647 H 68.2126 2.42902 -3.03201 0
M  V30 648 H 69.8846 0.343016 -4.60023 0
M  V30 649 H 68.1276 0.253314 -4.3306 0
M  V30 650 H 68.7986 1.57543 -5.29041 0
M  V30 651 H 71.2746 2.26439 -3.49091 0
M  V30 652 H 70.1506 3.34988 -4.34826 0
M  V30 653 H 70.4116 3.55825 -2.62375 0
M  V30 654 N 69.4707 1.49531 0.497807 0
M  V30 655 C 70.4207 1.62829 1.59596 0
M  V30 656 C 71.4047 0.483824 1.53453 0
M  V30 657 O 72.5967 0.736937 1.60929 0
M  V30 658 C 69.7257 1.7011 2.98191 0
M  V30 659 C 68.8117 2.90144 3.09317 0
M  V30 660 N 69.2027 4.1418 2.90324 0
M  V30 661 C 67.5007 2.88148 3.40422 0
M  V30 662 C 68.2017 4.94886 3.05717 0
M  V30 663 N 67.1777 4.28314 3.34736 0
M  V30 664 H 70.9797 2.56446 1.4357 0
M  V30 665 H 68.4937 1.46347 0.704001 0
M  V30 666 H 70.4907 1.77735 3.77115 0
M  V30 667 H 69.1507 0.776315 3.15283 0
M  V30 668 H 70.1617 4.44109 2.66436 0
M  V30 669 H 66.8387 2.05061 3.63671 0
M  V30 670 H 68.2287 6.03432 2.95499 0
M  V30 671 N 70.9488 -0.749086 1.3866 0
M  V30 672 C 71.8588 -1.89358 1.38494 0
M  V30 673 C 72.8748 -1.71708 0.281476 0
M  V30 674 O 74.0508 -1.94554 0.520643 0
M  V30 675 C 71.1158 -3.24782 1.21316 0
M  V30 676 C 70.1768 -3.54926 2.41508 0
M  V30 677 C 69.4098 -4.83888 2.2514 0
M  V30 678 O 69.6328 -5.56592 1.24746 0
M  V30 679 O 68.5668 -5.13612 3.13826 0
M  V30 680 H 72.3928 -1.92452 2.34938 0
M  V30 681 H 69.9778 -0.894981 1.19626 0
M  V30 682 H 71.8598 -4.05739 1.13814 0
M  V30 683 H 70.5348 -3.2249 0.279592 0
M  V30 684 H 69.4418 -2.74112 2.54585 0
M  V30 685 H 70.7748 -3.61983 3.3351 0
M  V30 686 N 72.4269 -1.23603 -0.977757 0
M  V30 687 C 73.8429 -0.999251 -1.24447 0
M  V30 688 C 74.0429 0.298053 -1.99283 0
M  V30 689 O 73.0989 1.01681 -2.31122 0
M  V30 690 C 74.4119 -2.20784 -2.04144 0
M  V30 691 C 75.9599 -2.25303 -2.17273 0
M  V30 692 C 76.4349 -3.45755 -3.00362 0
M  V30 693 N 77.9259 -3.4601 -3.07947 0
M  V30 694 C 78.6609 -4.35868 -3.72568 0
M  V30 695 N 78.1569 -5.35966 -4.38991 0
M  V30 696 N 79.9499 -4.23605 -3.6948 0
M  V30 697 H 72.1009 -2.06986 -0.476483 0
M  V30 698 H 74.3639 -0.907801 -0.273134 0
M  V30 699 H 74.0699 -3.14945 -1.56533 0
M  V30 700 H 73.9439 -2.22085 -3.04891 0
M  V30 701 H 76.3309 -1.3168 -2.64092 0
M  V30 702 H 76.4119 -2.28033 -1.15907 0
M  V30 703 H 76.0559 -4.39687 -2.5424 0
M  V30 704 H 75.9859 -3.40266 -4.01904 0
M  V30 705 H 78.4769 -2.73588 -2.60688 0
M  V30 706 H 78.7899 -6.00783 -4.86086 0
M  V30 707 H 77.1349 -5.39863 -4.37691 0
M  V30 708 H 80.3259 -3.44647 -3.16759 0
M  V30 709 H 80.4989 -4.93836 -4.1956 0
M  V30 710 N 73.905 1.17692 -1.04816 0
M  V30 711 C 75.153 1.87488 -0.754497 0
M  V30 712 C 75.474 1.81205 0.720407 0
M  V30 713 O 74.744 1.23544 1.52032 0
M  V30 714 H 73.324 0.694101 -0.276102 0
M  V30 715 H 75.986 1.42793 -1.32651 0
M  V30 716 H 75.082 2.93328 -1.06606 0
M  V30 717 N 75.3831 0.828654 1.34056 0
M  V30 718 C 76.3331 0.226828 2.26869 0
M  V30 719 C 77.3171 -0.612243 1.48796 0
M  V30 720 O 78.5091 -0.465884 1.70759 0
M  V30 721 C 75.6381 -0.605654 3.37915 0
M  V30 722 C 74.7241 0.244361 4.23395 0
M  V30 723 N 75.1151 1.31815 4.88322 0
M  V30 724 C 73.4131 0.0296616 4.4599 0
M  V30 725 C 74.1141 1.83895 5.51867 0
M  V30 726 N 73.0901 1.14196 5.3147 0
M  V30 727 H 76.8921 1.04811 2.74576 0
M  V30 728 H 74.4061 0.67205 1.47842 0
M  V30 729 H 76.4031 -1.05302 4.03382 0
M  V30 730 H 75.0631 -1.42504 2.91758 0
M  V30 731 H 76.0741 1.70099 4.8917 0
M  V30 732 H 72.7511 -0.757097 4.10578 0
M  V30 733 H 74.1411 2.7376 6.136 0
M  V30 734 N 76.8612 -1.46375 0.584142 0
M  V30 735 C 78.1072 -2.03248 0.0787103 0
M  V30 736 C 78.4622 -1.44737 -1.26763 0
M  V30 737 O 77.7552 -0.603625 -1.81843 0
M  V30 738 C 77.9492 -3.57373 -0.0439342 0
M  V30 739 C 77.7782 -4.30831 1.28897 0
M  V30 740 C 76.5482 -4.69683 1.8635 0
M  V30 741 C 78.7462 -4.64278 2.21248 0
M  V30 742 N 76.7282 -5.27898 3.13365 0
M  V30 743 C 78.0992 -5.23078 3.32851 0
M  V30 744 C 80.1542 -4.46209 2.20911 0
M  V30 745 C 78.8572 -5.65715 4.44251 0
M  V30 746 C 80.8832 -4.89864 3.31341 0
M  V30 747 C 80.2452 -5.48736 4.41665 0
M  V30 748 H 76.3442 -0.778714 0.0716144 0
M  V30 749 H 78.9282 -1.78509 0.777355 0
M  V30 750 H 77.0992 -3.81823 -0.711749 0
M  V30 751 H 78.8312 -4.00892 -0.553881 0
M  V30 752 H 75.5862 -4.52488 1.39826 0
M  V30 753 H 76.0102 -5.61525 3.78178 0
M  V30 754 H 80.6522 -4.00027 1.36888 0
M  V30 755 H 78.3702 -6.10875 5.29015 0
M  V30 756 H 81.9562 -4.77634 3.322 0
M  V30 757 H 80.8362 -5.81898 5.25704 0
M  V30 758 N 78.3393 -0.321999 -1.54275 0
M  V30 759 C 79.2873 0.560206 -2.25753 0
M  V30 760 C 80.2813 1.11984 -1.27106 0
M  V30 761 O 81.4873 1.06806 -1.44888 0
M  V30 762 H 77.8623 0.199304 -0.725108 0
M  V30 763 H 79.8333 -0.0649365 -2.98329 0
M  V30 764 C 78.5823 1.71023 -3.02731 0
M  V30 765 H 77.9053 1.28885 -3.78456 0
M  V30 766 H 79.3453 2.30314 -3.55993 0
M  V30 767 C 77.8043 2.62692 -2.10938 0
M  V30 768 O 78.3343 3.64364 -1.6912 0
M  V30 769 N 76.5403 2.30891 -1.76459 0
M  V30 770 H 76.0873 1.48253 -2.10663 0
M  V30 771 H 76.0453 2.92487 -1.1532 0
M  V30 772 N 79.8174 1.5752 -0.0501392 0
M  V30 773 C 80.7654 2.12651 0.942459 0
M  V30 774 C 81.7594 1.05807 1.32292 0
M  V30 775 O 82.9654 1.24217 1.3027 0
M  V30 776 H 79.3404 0.679673 0.321789 0
M  V30 777 H 81.3114 2.94951 0.452356 0
M  V30 778 C 80.0604 2.68565 2.20836 0
M  V30 779 H 79.3834 3.50439 1.92439 0
M  V30 780 H 80.8234 3.10761 2.8845 0
M  V30 781 C 79.2824 1.62291 2.95234 0
M  V30 782 O 79.8124 1.03508 3.88135 0
M  V30 783 N 78.0184 1.33836 2.57946 0
M  V30 784 H 77.5654 1.81826 1.82475 0
M  V30 785 H 77.5234 0.629595 3.08032 0
M  V30 786 N 81.2955 -0.223234 1.56011 0
M  V30 787 C 82.2425 -1.27664 1.92277 0
M  V30 788 C 83.2125 -1.46659 0.779763 0
M  V30 789 O 84.3975 -1.60256 1.03551 0
M  V30 790 C 81.5375 -2.62234 2.24338 0
M  V30 791 C 80.6505 -2.51051 3.51564 0
M  V30 792 C 79.7855 -3.78133 3.7308 0
M  V30 793 C 78.8245 -3.61665 4.93827 0
M  V30 794 N 77.9615 -4.80693 5.11741 0
M  V30 795 H 82.8015 -0.960358 2.82101 0
M  V30 796 H 80.3385 -0.462901 1.39627 0
M  V30 797 H 82.2965 -3.40596 2.40936 0
M  V30 798 H 80.9265 -2.91961 1.3769 0
M  V30 799 H 79.9785 -1.64132 3.43169 0
M  V30 800 H 81.2905 -2.34803 4.40079 0
M  V30 801 H 80.4445 -4.64938 3.89766 0
M  V30 802 H 79.1835 -3.97304 2.82844 0
M  V30 803 H 78.1885 -2.73244 4.77093 0
M  V30 804 H 79.4135 -3.43966 5.85546 0
M  V30 805 H 77.3595 -5.00181 4.24446 0
M  V30 806 H 77.2765 -4.67165 5.94384 0
M  V30 807 H 78.5445 -5.6893 5.3286 0
M  V30 808 N 82.7736 -1.49793 -0.48987 0
M  V30 809 C 84.0196 -1.60078 -1.24511 0
M  V30 810 C 84.3526 -0.291608 -1.91998 0
M  V30 811 O 83.6276 0.705647 -1.81248 0
M  V30 812 C 83.9106 -2.76791 -2.30345 0
M  V30 813 C 83.7636 -4.17535 -1.67286 0
M  V30 814 C 85.0826 -2.89111 -3.31817 0
M  V30 815 H 82.2016 -0.582645 -0.451324 0
M  V30 816 H 84.8436 -1.82117 -0.541612 0
M  V30 817 H 82.9936 -2.5813 -2.90346 0
M  V30 818 H 84.6656 -4.4774 -1.11026 0
M  V30 819 H 82.9086 -4.22665 -0.976577 0
M  V30 820 H 83.5796 -4.95094 -2.44103 0
M  V30 821 H 86.0556 -3.06133 -2.81819 0
M  V30 822 H 84.9316 -3.72433 -4.03219 0
M  V30 823 H 85.1926 -1.9893 -3.94815 0
M  V30 824 N 84.2517 0.741722 -1.39055 0
M  V30 825 C 85.1617 1.88621 -1.39496 0
M  V30 826 C 86.1777 1.71557 -0.290578 0
M  V30 827 O 87.3537 1.94275 -0.530954 0
M  V30 828 C 84.4187 3.24134 -1.23037 0
M  V30 829 C 83.4797 3.5364 -2.43387 0
M  V30 830 C 82.7127 4.82687 -2.27703 0
M  V30 831 O 82.9357 5.55922 -1.27696 0
M  V30 832 O 81.8697 5.1194 -3.16545 0
M  V30 833 H 85.6957 1.91203 -2.35956 0
M  V30 834 H 83.2807 0.888625 -1.20099 0
M  V30 835 H 85.1627 4.0513 -1.15964 0
M  V30 836 H 83.8377 3.22337 -0.296691 0
M  V30 837 H 82.7447 2.72758 -2.56035 0
M  V30 838 H 84.0777 3.60209 -3.35425 0
M  V30 839 N 85.7298 1.2412 0.971189 0
M  V30 840 C 86.9768 1.07881 1.71371 0
M  V30 841 C 87.3048 -0.382901 1.90694 0
M  V30 842 O 86.5598 -1.29945 1.46331 0
M  V30 843 C 86.8588 1.75983 3.11071 0
M  V30 844 C 86.5248 3.25909 3.11599 0
M  V30 845 C 85.1868 3.66813 3.11451 0
M  V30 846 C 87.5388 4.21771 3.062 0
M  V30 847 C 84.8668 5.02021 3.03631 0
M  V30 848 C 87.2188 5.56982 2.99923 0
M  V30 849 C 85.8828 5.97237 2.98102 0
M  V30 850 H 85.1528 0.394764 0.62709 0
M  V30 851 H 87.7998 1.54176 1.13587 0
M  V30 852 H 86.1048 1.22072 3.72298 0
M  V30 853 H 87.8018 1.60887 3.6731 0
M  V30 854 H 84.3918 2.93353 3.12477 0
M  V30 855 H 88.5758 3.91172 3.05447 0
M  V30 856 H 83.8318 5.32411 3.0058 0
M  V30 857 H 88.0058 6.30969 2.94704 0
M  V30 858 H 85.6328 7.01967 2.91798 0
M  V30 859 N 87.2079 -1.17134 1.05439 0
M  V30 860 C 88.4539 -1.87733 0.767077 0
M  V30 861 C 88.7869 -1.8098 -0.704253 0
M  V30 862 O 88.0619 -1.21951 -1.5152 0
M  V30 863 C 88.3449 -3.37659 1.25133 0
M  V30 864 C 88.1979 -3.53149 2.78578 0
M  V30 865 C 89.5169 -4.31768 0.852324 0
M  V30 866 H 86.6359 -0.681687 0.280129 0
M  V30 867 H 89.2779 -1.37732 1.30881 0
M  V30 868 H 87.4279 -3.80373 0.790469 0
M  V30 869 H 89.0999 -3.19434 3.32806 0
M  V30 870 H 87.3429 -2.95345 3.17732 0
M  V30 871 H 88.0139 -4.58403 3.07523 0
M  V30 872 H 90.4899 -3.96909 1.24911 0
M  V30 873 H 89.3659 -5.35199 1.21873 0
M  V30 874 H 89.6269 -4.41429 -0.243485 0
M  V30 875 N 88.686 -0.835752 -1.33615 0
M  V30 876 C 89.616 -0.281739 -2.31794 0
M  V30 877 C 90.597 0.608833 -1.58831 0
M  V30 878 O 91.782 0.533035 -1.86741 0
M  V30 879 C 88.912 0.546612 -3.42971 0
M  V30 880 C 87.866 -0.247904 -4.27281 0
M  V30 881 C 87.192 0.704001 -5.30045 0
M  V30 882 C 88.492 -1.46324 -5.01385 0
M  V30 883 H 90.186 -1.10206 -2.78379 0
M  V30 884 H 87.732 -0.531388 -1.33837 0
M  V30 885 H 89.685 0.944467 -4.1068 0
M  V30 886 H 88.409 1.40011 -2.95067 0
M  V30 887 H 87.068 -0.627281 -3.61194 0
M  V30 888 H 86.716 1.55381 -4.78399 0
M  V30 889 H 86.416 0.176524 -5.87335 0
M  V30 890 H 87.94 1.09944 -6.0062 0
M  V30 891 H 89.354 -1.13871 -5.61877 0
M  V30 892 H 87.751 -1.92728 -5.6831 0
M  V30 893 H 88.821 -2.23467 -4.30338 0
M  V30 894 N 90.1641 1.46063 -0.591896 0
M  V30 895 C 91.3891 2.07226 -0.0850314 0
M  V30 896 C 91.8141 1.43625 1.21463 0
M  V30 897 O 91.1721 0.523305 1.73583 0
M  V30 898 C 91.2201 3.60554 0.0576567 0
M  V30 899 O 90.3241 3.97128 1.11188 0
M  V30 900 H 89.6651 0.660615 -0.0669568 0
M  V30 901 H 92.1951 1.8756 -0.81745 0
M  V30 902 H 92.2051 4.07165 0.2609 0
M  V30 903 H 90.8801 4.06235 -0.891416 0
M  V30 904 H 89.4571 3.62213 0.886356 0
M  V30 905 N 91.6422 0.330177 1.54103 0
M  V30 906 C 92.8882 -0.270806 2.00984 0
M  V30 907 C 93.2212 -1.51265 1.21789 0
M  V30 908 O 92.4962 -1.92142 0.301927 0
M  V30 909 C 92.7792 -0.598339 3.55094 0
M  V30 910 C 92.6322 0.654674 4.4501 0
M  V30 911 C 93.9512 -1.41334 4.16789 0
M  V30 912 H 91.0702 -0.0969531 0.730595 0
M  V30 913 H 93.7122 0.448066 1.84641 0
M  V30 914 H 91.8622 -1.21078 3.69151 0
M  V30 915 H 93.5342 1.29285 4.42813 0
M  V30 916 H 91.7772 1.28224 4.14416 0
M  V30 917 H 92.4482 0.380944 5.50684 0
M  V30 918 H 94.9242 -0.895597 4.06347 0
M  V30 919 H 93.8002 -1.61127 5.24718 0
M  V30 920 H 94.0612 -2.41146 3.70541 0
M  V30 921 N 93.1203 -1.57491 0.0584922 0
M  V30 922 C 94.0833 -2.1085 -0.898617 0
M  V30 923 C 95.0833 -1.02964 -1.23511 0
M  V30 924 O 96.2733 -1.29007 -1.17059 0
M  V30 925 C 93.4053 -2.59881 -2.20623 0
M  V30 926 H 94.5983 -2.96715 -0.435936 0
M  V30 927 H 92.1513 -1.55141 -0.190023 0
M  V30 928 H 92.8863 -1.77431 -2.71457 0
M  V30 929 H 92.6713 -3.38727 -1.97501 0
M  V30 930 H 94.1613 -3.01285 -2.89166 0
M  V30 931 N 94.5984 0.214957 -1.56127 0
M  V30 932 C 95.8464 0.936518 -1.79091 0
M  V30 933 C 96.1674 1.84606 -0.628148 0
M  V30 934 O 95.4374 1.92664 0.35462 0
M  V30 935 H 94.0174 0.3488 -0.660566 0
M  V30 936 H 96.6794 0.22523 -1.93594 0
M  V30 937 H 95.7754 1.53943 -2.71492 0
M  V30 938 N 96.0765 1.50051 0.48192 0
M  V30 939 C 96.9865 1.7089 1.60728 0
M  V30 940 C 98.0025 0.591788 1.63627 0
M  V30 941 O 99.1785 0.868817 1.81696 0
M  V30 942 C 96.2435 1.78855 2.97005 0
M  V30 943 C 95.3045 3.02537 3.04581 0
M  V30 944 C 94.5375 3.10112 4.34357 0
M  V30 945 O 94.7605 2.24765 5.24249 0
M  V30 946 O 93.6945 4.02747 4.47301 0
M  V30 947 H 97.5205 2.66264 1.46072 0
M  V30 948 H 95.1055 1.34018 0.660264 0
M  V30 949 H 96.9875 1.86336 3.77964 0
M  V30 950 H 95.6625 0.866628 3.11883 0
M  V30 951 H 94.5695 3.00563 2.22739 0
M  V30 952 H 95.9025 3.94272 2.94636 0
M  V30 953 N 97.5546 -0.734337 1.39446 0
M  V30 954 C 98.8036 -1.48937 1.36017 0
M  V30 955 C 99.1166 -1.95557 -0.0409005 0
M  V30 956 O 100.323 -2.70779 -0.19778 0
M  V30 957 C 98.7786 -2.69125 2.38955 0
M  V30 958 C 98.3866 -2.29452 3.8478 0
M  V30 959 C 100.131 -3.46944 2.44603 0
M  V30 960 C 98.0376 -3.46366 4.79358 0
M  V30 961 H 96.9676 -0.559296 0.505672 0
M  V30 962 H 99.6186 -0.800983 1.65095 0
M  V30 963 H 98.0006 -3.40041 2.02948 0
M  V30 964 H 99.1746 -1.66077 4.29831 0
M  V30 965 H 97.4896 -1.64723 3.82433 0
M  V30 966 H 100.087 -4.33907 3.12456 0
M  V30 967 H 100.43 -3.89454 1.47076 0
M  V30 968 H 100.963 -2.83056 2.79507 0
M  V30 969 H 97.7016 -3.08905 5.78151 0
M  V30 970 H 97.2216 -4.08719 4.38986 0
M  V30 971 H 98.9006 -4.12691 4.98292 0
M  V30 972 N 99.0327 -1.24633 -0.964593 0
M  V30 973 C 100.282 -1.08188 -1.7023 0
M  V30 974 C 100.595 0.37873 -1.91898 0
M  V30 975 O 101.801 0.663427 -2.6327 0
M  V30 976 C 100.257 -1.88773 -3.06419 0
M  V30 977 C 99.8647 -3.39263 -2.92582 0
M  V30 978 C 101.609 -1.80867 -3.84041 0
M  V30 979 C 99.5157 -4.1218 -4.24101 0
M  V30 980 H 98.4457 -0.401245 -0.638372 0
M  V30 981 H 101.097 -1.48742 -1.07462 0
M  V30 982 H 99.4787 -1.41035 -3.70034 0
M  V30 983 H 100.653 -3.94603 -2.37961 0
M  V30 984 H 98.9677 -3.48154 -2.28424 0
M  V30 985 H 101.565 -2.32646 -4.81435 0
M  V30 986 H 101.908 -0.774543 -4.09031 0
M  V30 987 H 102.441 -2.26301 -3.27159 0
M  V30 988 H 99.1797 -5.15965 -4.04303 0
M  V30 989 H 98.6997 -3.61626 -4.78526 0
M  V30 990 H 100.379 -4.19349 -4.92702 0
M  V30 991 N 100.511 1.16574 -1.06058 0
M  V30 992 C 101.759 1.86677 -0.77434 0
M  V30 993 C 102.08 1.81959 0.701147 0
M  V30 994 O 101.35 1.2515 1.50713 0
M  V30 995 H 99.9298 0.691134 -0.283449 0
M  V30 996 H 102.592 1.41378 -1.34158 0
M  V30 997 H 101.688 2.92181 -1.09711 0
M  V30 998 N 101.989 0.842826 1.3317 0
M  V30 999 C 102.919 0.294028 2.31641 0
M  V30 1000 C 103.9 -0.600401 1.59151 0
M  V30 1001 O 105.085 -0.523124 1.87022 0
M  V30 1002 C 102.215 -0.528416 3.43257 0
M  V30 1003 C 101.169 0.27056 4.27144 0
M  V30 1004 C 100.495 -0.675881 5.30411 0
M  V30 1005 C 101.795 1.48981 5.00602 0
M  V30 1006 H 103.489 1.11681 2.77791 0
M  V30 1007 H 101.035 0.538478 1.33553 0
M  V30 1008 H 102.988 -0.922674 4.11175 0
M  V30 1009 H 101.712 -1.38445 2.95805 0
M  V30 1010 H 100.371 0.646427 3.60856 0
M  V30 1011 H 100.019 -1.52842 4.79216 0
M  V30 1012 H 99.7189 -0.145374 5.8742 0
M  V30 1013 H 101.243 -1.06757 6.01195 0
M  V30 1014 H 102.657 1.16849 5.61266 0
M  V30 1015 H 101.054 1.95739 5.6728 0
M  V30 1016 H 102.124 2.25746 4.29147 0
M  V30 1017 N 103.467 -1.45747 0.599634 0
M  V30 1018 C 104.715 -2.01893 0.0915472 0
M  V30 1019 C 105.036 -1.47155 -1.27946 0
M  V30 1020 O 104.306 -0.66273 -1.84349 0
M  V30 1021 H 102.886 -0.746363 0.0308524 0
M  V30 1022 H 105.548 -1.78645 0.779237 0
M  V30 1023 H 104.644 -3.1208 0.0353086 0
M  V30 1024 N 104.945 -0.338344 -1.53925 0
M  V30 1025 C 105.893 0.536231 -2.26335 0
M  V30 1026 C 106.887 1.1063 -1.28286 0
M  V30 1027 O 108.093 1.05264 -1.46012 0
M  V30 1028 H 104.468 0.191602 -0.727181 0
M  V30 1029 H 106.439 -0.0965747 -2.98244 0
M  V30 1030 C 105.188 1.67803 -3.04528 0
M  V30 1031 H 104.511 1.24864 -3.79801 0
M  V30 1032 H 105.951 2.26526 -3.58416 0
M  V30 1033 C 104.41 2.60439 -2.13712 0
M  V30 1034 O 104.94 3.6255 -1.72975 0
M  V30 1035 N 103.146 2.29006 -1.78898 0
M  V30 1036 H 102.693 1.46011 -2.12223 0
M  V30 1037 H 102.651 2.91248 -1.18416 0
M  V30 1038 N 106.423 1.57458 -0.0668435 0
M  V30 1039 C 107.669 1.93587 0.6043 0
M  V30 1040 C 108.002 0.946722 1.69561 0
M  V30 1041 O 107.277 -0.0248516 1.94484 0
M  V30 1042 C 107.56 3.40014 1.18585 0
M  V30 1043 C 107.413 4.49685 0.101529 0
M  V30 1044 C 108.732 3.87154 2.09284 0
M  V30 1045 H 105.851 0.703958 0.218202 0
M  V30 1046 H 108.493 1.89542 -0.131804 0
M  V30 1047 H 106.643 3.43592 1.81319 0
M  V30 1048 H 108.315 4.5823 -0.531279 0
M  V30 1049 H 106.558 4.30059 -0.568487 0
M  V30 1050 H 107.229 5.49266 0.54874 0
M  V30 1051 H 109.705 3.85551 1.56491 0
M  V30 1052 H 108.581 4.90231 2.46911 0
M  V30 1053 H 108.842 3.2481 2.99918 0
M  V30 1054 N 107.901 -0.206675 1.56239 0
M  V30 1055 C 109.147 -0.925733 1.81113 0
M  V30 1056 C 109.502 -1.81368 0.642135 0
M  V30 1057 O 108.795 -1.88126 -0.363211 0
M  V30 1058 C 108.989 -1.78675 3.09532 0
M  V30 1059 C 108.818 -0.98365 4.3881 0
M  V30 1060 C 107.588 -0.672661 5.00803 0
M  V30 1061 C 109.786 -0.341847 5.13163 0
M  V30 1062 N 107.768 0.150283 6.13716 0
M  V30 1063 C 109.139 0.343815 6.19046 0
M  V30 1064 C 111.194 -0.256392 4.97239 0
M  V30 1065 C 109.897 1.10678 7.10734 0
M  V30 1066 C 111.923 0.493142 5.8934 0
M  V30 1067 C 111.285 1.16729 6.94661 0
M  V30 1068 H 107.384 -0.318524 0.714189 0
M  V30 1069 H 109.968 -0.195378 1.93717 0
M  V30 1070 H 108.139 -2.4888 2.98183 0
M  V30 1071 H 109.871 -2.44441 3.22538 0
M  V30 1072 H 106.626 -0.994294 4.63045 0
M  V30 1073 H 107.05 0.551026 6.74754 0
M  V30 1074 H 111.692 -0.763249 4.15854 0
M  V30 1075 H 109.41 1.6251 7.91591 0
M  V30 1076 H 112.996 0.560465 5.79094 0
M  V30 1077 H 111.876 1.738 7.64698 0
M  V30 1078 N 109.379 -1.50304 -0.473955 0
M  V30 1079 C 110.795 -1.37667 -0.807466 0
M  V30 1080 C 110.995 -0.430555 -1.96846 0
M  V30 1081 O 110.051 0.127874 -2.52176 0
M  V30 1082 C 111.364 -2.78974 -1.12223 0
M  V30 1083 C 112.912 -2.87868 -1.22885 0
M  V30 1084 C 113.387 -4.30003 -1.57676 0
M  V30 1085 N 114.878 -4.3294 -1.64673 0
M  V30 1086 C 115.613 -5.3991 -1.93091 0
M  V30 1087 N 115.109 -6.57092 -2.1955 0
M  V30 1088 N 116.902 -5.27351 -1.94569 0
M  V30 1089 H 109.053 -2.10394 0.291212 0
M  V30 1090 H 111.316 -0.945575 0.0677609 0
M  V30 1091 H 111.022 -3.50031 -0.342229 0
M  V30 1092 H 110.896 -3.16038 -2.05913 0
M  V30 1093 H 113.283 -2.17032 -1.99953 0
M  V30 1094 H 113.364 -2.54352 -0.271814 0
M  V30 1095 H 113.008 -5.01375 -0.81149 0
M  V30 1096 H 112.938 -4.61004 -2.54525 0
M  V30 1097 H 115.429 -3.48441 -1.46277 0
M  V30 1098 H 115.742 -7.34425 -2.405 0
M  V30 1099 H 114.087 -6.60272 -2.16948 0
M  V30 1100 H 117.278 -4.34801 -1.73394 0
M  V30 1101 H 117.451 -6.10805 -2.16381 0
M  V30 1102 N 110.857 0.726932 -1.39834 0
M  V30 1103 C 112.104 1.48664 -1.37496 0
M  V30 1104 C 112.432 1.94482 0.0264678 0
M  V30 1105 O 111.687 1.67692 1.00886 0
M  V30 1106 C 111.986 2.73495 -2.30077 0
M  V30 1107 C 111.652 2.46502 -3.77555 0
M  V30 1108 C 110.314 2.3885 -4.17737 0
M  V30 1109 C 112.666 2.23604 -4.70798 0
M  V30 1110 C 109.994 2.06352 -5.49214 0
M  V30 1111 C 112.346 1.92622 -6.02561 0
M  V30 1112 C 111.01 1.83444 -6.41798 0
M  V30 1113 H 110.28 0.544001 -0.503135 0
M  V30 1114 H 112.927 0.833657 -1.72402 0
M  V30 1115 H 111.232 3.43575 -1.88317 0
M  V30 1116 H 112.929 3.31549 -2.25558 0
M  V30 1117 H 109.519 2.5334 -3.45712 0
M  V30 1118 H 113.703 2.28479 -4.40581 0
M  V30 1119 H 108.959 1.97776 -5.78528 0
M  V30 1120 H 113.133 1.73914 -6.74334 0
M  V30 1121 H 110.76 1.58029 -7.43593 0
M  V30 1122 N 112.336 1.25143 0.95797 0
M  V30 1123 C 113.747 1.08851 1.51685 0
M  V30 1124 C 114.098 -0.33687 1.93286 0
M  V30 1125 O 113.223 -1.22644 1.7829 0
M  V30 1126 C 113.818 1.96978 2.75654 0
M  V30 1127 C 112.377 1.84881 3.27866 0
M  V30 1128 C 111.524 1.91329 2.0072 0
M  V30 1129 H 114.475 1.38478 0.77522 0
M  V30 1130 H 114.496 1.5078 3.4935 0
M  V30 1131 H 114.008 3.00712 2.45345 0
M  V30 1132 H 112.109 0.840182 3.63004 0
M  V30 1133 H 112.222 2.6951 3.96107 0
M  V30 1134 H 110.586 1.35174 2.15871 0
M  V30 1135 H 111.369 2.96661 1.72764 0
M  V30 1136 N 113.814 -1.1601 1.06675 0
M  V30 1137 C 115.044 -1.90251 0.805497 0
M  V30 1138 C 115.452 -1.77891 -0.64431 0
M  V30 1139 O 114.795 -1.12383 -1.45313 0
M  V30 1140 C 114.857 -3.41419 1.12576 0
M  V30 1141 C 114.521 -3.77564 2.57477 0
M  V30 1142 C 115.518 -3.79161 3.55715 0
M  V30 1143 C 113.203 -4.08079 2.92877 0
M  V30 1144 C 115.197 -4.10767 4.8739 0
M  V30 1145 C 112.884 -4.39351 4.24751 0
M  V30 1146 C 113.882 -4.40675 5.21818 0
M  V30 1147 O 113.57 -4.71202 6.51325 0
M  V30 1148 H 113.302 -0.610018 0.291297 0
M  V30 1149 H 115.856 -1.47958 1.4247 0
M  V30 1150 H 114.086 -3.84079 0.449503 0
M  V30 1151 H 115.775 -3.9694 0.84814 0
M  V30 1152 H 116.541 -3.55693 3.29708 0
M  V30 1153 H 112.42 -4.06211 2.17976 0
M  V30 1154 H 115.964 -4.11715 5.63148 0
M  V30 1155 H 111.861 -4.62285 4.50514 0
M  V30 1156 H 112.629 -4.88996 6.56373 0
M  V30 1157 N 115.292 -0.849877 -1.32721 0
M  V30 1158 C 116.222 -0.306308 -2.31482 0
M  V30 1159 C 117.203 0.591952 -1.59468 0
M  V30 1160 O 118.388 0.513199 -1.87296 0
M  V30 1161 C 115.518 0.510204 -3.43532 0
M  V30 1162 C 114.472 -0.293209 -4.26994 0
M  V30 1163 C 113.798 0.647743 -5.30762 0
M  V30 1164 C 115.098 -1.51634 -4.99804 0
M  V30 1165 H 116.792 -1.13153 -2.77195 0
M  V30 1166 H 114.338 -0.545553 -1.33266 0
M  V30 1167 H 116.291 0.900856 -4.11658 0
M  V30 1168 H 115.015 1.36874 -2.96535 0
M  V30 1169 H 113.674 -0.665555 -3.60508 0
M  V30 1170 H 113.322 1.50299 -4.8002 0
M  V30 1171 H 113.022 0.11422 -5.87489 0
M  V30 1172 H 114.546 1.03567 -6.01753 0
M  V30 1173 H 115.96 -1.19824 -5.60638 0
M  V30 1174 H 114.357 -1.98745 -5.66234 0
M  V30 1175 H 115.427 -2.28018 -4.27943 0
M  V30 1176 N 116.77 1.45427 -0.607355 0
M  V30 1177 C 118.01 2.04128 -0.105458 0
M  V30 1178 C 118.374 1.46555 1.24039 0
M  V30 1179 O 119.575 1.96608 1.833 0
M  V30 1180 C 117.846 3.57338 -0.0665324 0
M  V30 1181 S 119.405 4.37201 0.374207 0
M  V30 1182 H 116.223 0.709278 -0.0494575 0
M  V30 1183 H 118.825 1.78139 -0.805404 0
M  V30 1184 H 117.529 3.96752 -1.04957 0
M  V30 1185 H 117.06 3.87902 0.655415 0
M  V30 1186 H 119.075 4.6888 1.62377 0
M  V30 1187 N 118.248 0.346503 1.53744 0
M  V30 1188 C 119.478 -0.250047 2.05081 0
M  V30 1189 C 119.886 -1.44529 1.22098 0
M  V30 1190 O 119.229 -1.81992 0.249917 0
M  V30 1191 C 119.291 -0.725934 3.52094 0
M  V30 1192 C 118.955 0.350053 4.55657 0
M  V30 1193 C 119.952 1.19372 5.0601 0
M  V30 1194 C 117.637 0.504827 4.99757 0
M  V30 1195 C 119.631 2.17768 5.99046 0
M  V30 1196 C 117.318 1.49218 5.92602 0
M  V30 1197 C 118.316 2.32706 6.42135 0
M  V30 1198 O 118.004 3.2976 7.33153 0
M  V30 1199 H 117.736 -0.0515469 0.674032 0
M  V30 1200 H 120.29 0.497559 1.99282 0
M  V30 1201 H 118.52 -1.52483 3.55367 0
M  V30 1202 H 120.209 -1.24336 3.86388 0
M  V30 1203 H 120.975 1.08525 4.72702 0
M  V30 1204 H 116.854 -0.135178 4.60802 0
M  V30 1205 H 120.398 2.82971 6.37631 0
M  V30 1206 H 116.295 1.6012 6.25325 0
M  V30 1207 H 117.063 3.25265 7.51096 0
M  V30 1208 N 119.726 -1.57421 0.075193 0
M  V30 1209 C 120.673 -2.12915 -0.890843 0
M  V30 1210 C 121.643 -1.04252 -1.29309 0
M  V30 1211 O 122.828 -1.31933 -1.37834 0
M  V30 1212 C 119.968 -2.69795 -2.15186 0
M  V30 1213 C 119.081 -3.92624 -1.80194 0
M  V30 1214 C 118.216 -4.37736 -3.00933 0
M  V30 1215 C 117.255 -5.53205 -2.61974 0
M  V30 1216 N 116.392 -5.9326 -3.75483 0
M  V30 1217 H 121.232 -2.95156 -0.410735 0
M  V30 1218 H 118.769 -1.45854 -0.191086 0
M  V30 1219 H 120.727 -3.00883 -2.89008 0
M  V30 1220 H 119.357 -1.90313 -2.60731 0
M  V30 1221 H 118.409 -3.67977 -0.964218 0
M  V30 1222 H 119.721 -4.76482 -1.47534 0
M  V30 1223 H 118.875 -4.70503 -3.8303 0
M  V30 1224 H 117.614 -3.52739 -3.36789 0
M  V30 1225 H 116.619 -5.20086 -1.783 0
M  V30 1226 H 117.844 -6.39936 -2.27284 0
M  V30 1227 H 115.79 -5.11212 -4.11094 0
M  V30 1228 H 115.707 -6.71865 -3.46602 0
M  V30 1229 H 116.975 -6.30651 -4.58148 0
M  V30 1230 N 121.204 0.198386 -1.56346 0
M  V30 1231 C 122.152 1.26538 -1.95169 0
M  V30 1232 C 123.146 1.47295 -0.836685 0
M  V30 1233 O 124.352 1.48195 -1.02167 0
M  V30 1234 H 120.727 0.424744 -0.620561 0
M  V30 1235 H 122.698 0.910904 -2.84157 0
M  V30 1236 C 121.447 2.6035 -2.30463 0
M  V30 1237 H 120.77 2.45192 -3.15786 0
M  V30 1238 H 122.21 3.33762 -2.61494 0
M  V30 1239 C 120.669 3.17096 -1.13806 0
M  V30 1240 O 121.199 3.99588 -0.41135 0
M  V30 1241 N 119.405 2.75795 -0.915736 0
M  V30 1242 H 118.952 2.08816 -1.50843 0
M  V30 1243 H 118.91 3.14101 -0.136979 0
M  V30 1244 N 122.682 1.50554 0.465978 0
M  V30 1245 C 123.93 1.61479 1.21528 0
M  V30 1246 C 124.251 0.319596 1.92363 0
M  V30 1247 O 123.521 -0.663194 1.84333 0
M  V30 1248 H 122.101 0.595055 0.451573 0
M  V30 1249 H 124.763 1.87355 0.53704 0
M  V30 1250 H 123.859 2.42846 1.96042 0
M  V30 1251 N 124.16 -0.719506 1.40217 0
M  V30 1252 C 125.408 -1.47641 1.3801 0
M  V30 1253 C 125.729 -1.94992 -0.018145 0
M  V30 1254 O 124.999 -1.70073 -0.972207 0
M  V30 1255 H 123.579 -0.547744 0.507923 0
M  V30 1256 H 126.241 -0.853187 1.75233 0
M  V30 1257 H 125.337 -2.35112 2.05253 0
M  V30 1258 N 125.638 -1.25649 -0.95132 0
M  V30 1259 C 126.886 -1.10375 -1.69298 0
M  V30 1260 C 127.207 0.355339 -1.91735 0
M  V30 1261 O 126.477 1.25188 -1.50681 0
M  V30 1262 H 125.057 -0.405461 -0.627384 0
M  V30 1263 H 127.719 -1.57823 -1.14358 0
M  V30 1264 H 126.815 -1.61465 -2.67087 0
M  V30 1265 N 127.117 1.15442 -1.07289 0
M  V30 1266 C 128.08 2.18358 -0.696591 0
M  V30 1267 C 129.08 1.58637 0.262837 0
M  V30 1268 O 130.27 1.74145 0.0438809 0
M  V30 1269 C 127.402 3.4089 -0.0266151 0
M  V30 1270 H 128.595 2.53162 -1.60776 0
M  V30 1271 H 126.148 1.29893 -0.869342 0
M  V30 1272 H 126.883 3.11653 0.896822 0
M  V30 1273 H 126.668 3.85495 -0.716657 0
M  V30 1274 H 128.158 4.17009 0.222028 0
M  V30 1275 N 128.595 0.856903 1.32268 0
M  V30 1276 C 129.842 0.461386 1.97174 0
M  V30 1277 C 130.17 -0.983491 1.67803 0
M  V30 1278 O 129.425 -1.70541 0.959903 0
M  V30 1279 C 129.724 0.649919 3.51441 0
M  V30 1280 C 129.39 2.0656 4.00804 0
M  V30 1281 C 128.052 2.45279 4.13995 0
M  V30 1282 C 130.404 2.98947 4.26943 0
M  V30 1283 C 127.732 3.75653 4.50668 0
M  V30 1284 C 130.084 4.28822 4.65075 0
M  V30 1285 C 128.748 4.67472 4.76472 0
M  V30 1286 H 128.018 0.168833 0.72151 0
M  V30 1287 H 130.665 1.08739 1.57633 0
M  V30 1288 H 128.97 -0.0593018 3.91755 0
M  V30 1289 H 130.667 0.32391 3.9969 0
M  V30 1290 H 127.257 1.75495 3.91024 0
M  V30 1291 H 131.441 2.70265 4.16258 0
M  V30 1292 H 126.697 4.05379 4.57688 0
M  V30 1293 H 130.871 5.0047 4.84255 0
M  V30 1294 H 128.498 5.68539 5.04646 0
M  V30 1295 N 130.073 -1.45103 0.615059 0
M  V30 1296 C 131.003 -2.33339 -0.0865619 0
M  V30 1297 C 131.984 -1.4727 -0.851209 0
M  V30 1298 O 133.169 -1.76026 -0.820281 0
M  V30 1299 C 130.299 -3.30095 -1.07956 0
M  V30 1300 C 129.253 -4.25858 -0.427628 0
M  V30 1301 C 128.579 -5.12361 -1.5294 0
M  V30 1302 C 129.879 -5.18165 0.655944 0
M  V30 1303 H 131.573 -2.92254 0.650224 0
M  V30 1304 H 129.119 -1.40532 0.314138 0
M  V30 1305 H 131.072 -3.90698 -1.57901 0
M  V30 1306 H 129.796 -2.69355 -1.84703 0
M  V30 1307 H 128.455 -3.66564 0.0510292 0
M  V30 1308 H 128.103 -4.47984 -2.28734 0
M  V30 1309 H 127.803 -5.77238 -1.09865 0
M  V30 1310 H 129.327 -5.75833 -2.03098 0
M  V30 1311 H 130.741 -5.72796 0.240257 0
M  V30 1312 H 129.138 -5.91559 1.00888 0
M  V30 1313 H 130.208 -4.60144 1.52957 0
M  V30 1314 N 131.551 -0.354651 -1.53558 0
M  V30 1315 C 132.8 0.239504 -2.00273 0
M  V30 1316 C 133.113 1.50759 -1.24623 0
M  V30 1317 O 134.319 2.17968 -1.61871 0
M  V30 1318 C 132.775 0.477341 -3.5672 0
M  V30 1319 C 132.383 -0.775488 -4.41237 0
M  V30 1320 C 134.127 1.02975 -4.11821 0
M  V30 1321 C 132.034 -0.507838 -5.89216 0
M  V30 1322 H 130.964 0.0932743 -0.748208 0
M  V30 1323 H 133.615 -0.471701 -1.77334 0
M  V30 1324 H 131.997 1.24953 -3.7577 0
M  V30 1325 H 133.171 -1.54963 -4.33962 0
M  V30 1326 H 131.486 -1.25033 -3.97185 0
M  V30 1327 H 134.083 1.24513 -5.2 0
M  V30 1328 H 134.426 1.98862 -3.65731 0
M  V30 1329 H 134.959 0.317994 -3.96527 0
M  V30 1330 H 131.698 -1.43674 -6.39561 0
M  V30 1331 H 131.218 0.228011 -5.99366 0
M  V30 1332 H 132.897 -0.129238 -6.46871 0
M  V30 1333 N 133.029 1.57378 -0.0835403 0
M  V30 1334 C 134.44 1.81261 0.447358 0
M  V30 1335 C 134.791 0.998331 1.68902 0
M  V30 1336 O 133.916 0.224282 2.15235 0
M  V30 1337 C 134.511 3.28767 0.818386 0
M  V30 1338 C 133.07 3.53455 1.29409 0
M  V30 1339 C 132.217 2.75831 0.285024 0
M  V30 1340 H 135.168 1.5566 -0.309115 0
M  V30 1341 H 135.189 3.41459 1.67887 0
M  V30 1342 H 134.701 3.88006 -0.0855019 0
M  V30 1343 H 132.802 2.99534 2.21608 0
M  V30 1344 H 132.915 4.62128 1.2639 0
M  V30 1345 H 131.279 2.42947 0.764767 0
M  V30 1346 H 132.062 3.37813 -0.611341 0
M  V30 1347 N 134.507 -0.190092 1.56449 0
M  V30 1348 C 135.737 -0.92443 1.84764 0
M  V30 1349 C 136.145 -1.77146 0.664529 0
M  V30 1350 O 135.488 -1.79812 -0.375957 0
M  V30 1351 C 135.55 -1.86651 3.07248 0
M  V30 1352 C 135.214 -1.20094 4.40938 0
M  V30 1353 C 136.211 -0.575445 5.16706 0
M  V30 1354 C 133.896 -1.2033 4.87674 0
M  V30 1355 C 135.89 0.0388111 6.37388 0
M  V30 1356 C 133.577 -0.585214 6.08291 0
M  V30 1357 C 134.575 0.0347578 6.82991 0
M  V30 1358 O 134.263 0.643147 8.01323 0
M  V30 1359 H 133.995 -0.274974 0.617548 0
M  V30 1360 H 136.549 -0.200788 2.04416 0
M  V30 1361 H 134.779 -2.62998 2.83494 0
M  V30 1362 H 136.468 -2.46907 3.22167 0
M  V30 1363 H 137.234 -0.565728 4.81689 0
M  V30 1364 H 133.113 -1.67526 4.29484 0
M  V30 1365 H 136.657 0.523329 6.95634 0
M  V30 1366 H 132.554 -0.592451 6.42775 0
M  V30 1367 H 133.322 0.540545 8.16713 0
M  V30 1368 N 135.985 -1.50799 -0.457987 0
M  V30 1369 C 137.231 -1.62683 -1.21088 0
M  V30 1370 C 137.564 -0.332268 -1.91336 0
M  V30 1371 O 136.839 0.667043 -1.82704 0
M  V30 1372 C 137.122 -2.81615 -2.24422 0
M  V30 1373 C 136.975 -4.20989 -1.58392 0
M  V30 1374 C 138.294 -2.96085 -3.2561 0
M  V30 1375 H 135.413 -0.592087 -0.438864 0
M  V30 1376 H 138.055 -1.83225 -0.50286 0
M  V30 1377 H 136.205 -2.64231 -2.84806 0
M  V30 1378 H 137.877 -4.49994 -1.01504 0
M  V30 1379 H 136.12 -4.24641 -0.886704 0
M  V30 1380 H 136.791 -5.0016 -2.33547 0
M  V30 1381 H 139.267 -3.12042 -2.75262 0
M  V30 1382 H 138.143 -3.80902 -3.95228 0
M  V30 1383 H 138.404 -2.0726 -3.90507 0
M  V30 1384 N 137.463 0.71206 -1.40597 0
M  V30 1385 C 138.709 1.47416 -1.39271 0
M  V30 1386 C 139.042 1.942 0.00388791 0
M  V30 1387 O 138.317 1.68403 0.973179 0
M  V30 1388 C 138.6 2.69774 -2.38525 0
M  V30 1389 C 138.453 2.28861 -3.87224 0
M  V30 1390 C 139.772 3.71939 -2.35264 0
M  V30 1391 H 136.891 0.534713 -0.5072 0
M  V30 1392 H 139.533 0.812375 -1.71757 0
M  V30 1393 H 137.683 3.26238 -2.10953 0
M  V30 1394 H 139.355 1.77852 -4.25636 0
M  V30 1395 H 137.598 1.60824 -4.02887 0
M  V30 1396 H 138.269 3.16584 -4.52193 0
M  V30 1397 H 140.745 3.25113 -2.59694 0
M  V30 1398 H 139.621 4.55186 -3.06753 0
M  V30 1399 H 139.882 4.20484 -1.36549 0
M  V30 1400 N 138.941 1.26152 0.944643 0
M  V30 1401 C 140.188 1.11492 1.69044 0
M  V30 1402 C 140.516 -0.342366 1.91463 0
M  V30 1403 O 139.771 -1.26812 1.49054 0
M  V30 1404 C 140.07 1.82541 3.07268 0
M  V30 1405 C 139.736 3.32445 3.04616 0
M  V30 1406 C 138.398 3.73337 3.036 0
M  V30 1407 C 140.75 4.28171 2.97185 0
M  V30 1408 C 138.078 5.08348 2.92915 0
M  V30 1409 C 140.43 5.63218 2.88041 0
M  V30 1410 C 139.094 6.03426 2.85366 0
M  V30 1411 H 138.364 0.407977 0.618576 0
M  V30 1412 H 141.011 1.56551 1.10291 0
M  V30 1413 H 139.316 1.29941 3.69625 0
M  V30 1414 H 141.013 1.68642 3.63815 0
M  V30 1415 H 137.603 2.99915 3.06185 0
M  V30 1416 H 141.787 3.97563 2.97081 0
M  V30 1417 H 137.043 5.38667 2.89219 0
M  V30 1418 H 141.217 6.37078 2.81254 0
M  V30 1419 H 138.844 7.07999 2.76842 0
M  V30 1420 N 140.419 -1.14872 1.07899 0
M  V30 1421 C 141.666 -1.85789 0.805532 0
M  V30 1422 C 141.994 -1.82649 -0.668561 0
M  V30 1423 O 141.249 -1.24858 -1.50695 0
M  V30 1424 C 141.548 -3.34223 1.26609 0
M  V30 1425 C 141.214 -3.57555 2.74709 0
M  V30 1426 C 139.876 -3.63631 3.1516 0
M  V30 1427 C 142.228 -3.66803 3.70277 0
M  V30 1428 C 139.556 -3.76473 4.49983 0
M  V30 1429 C 141.908 -3.8117 5.04869 0
M  V30 1430 C 140.572 -3.85494 5.44932 0
M  V30 1431 H 139.842 -0.679849 0.294765 0
M  V30 1432 H 142.489 -1.3572 1.35101 0
M  V30 1433 H 140.794 -3.86536 0.640103 0
M  V30 1434 H 142.491 -3.87511 1.03132 0
M  V30 1435 H 139.081 -3.5347 2.42398 0
M  V30 1436 H 143.265 -3.61404 3.40149 0
M  V30 1437 H 138.521 -3.7808 4.80484 0
M  V30 1438 H 142.695 -3.87268 5.78789 0
M  V30 1439 H 140.322 -3.95197 6.49403 0
M  V30 1440 N 141.898 -0.863906 -1.31812 0
M  V30 1441 C 143.147 -0.46801 -1.96195 0
M  V30 1442 C 143.46 0.983474 -1.69077 0
M  V30 1443 O 144.666 1.48523 -2.27273 0
M  V30 1444 C 143.122 -0.785995 -3.51212 0
M  V30 1445 C 142.73 -2.25383 -3.87178 0
M  V30 1446 C 144.474 -0.458274 -4.22019 0
M  V30 1447 C 142.381 -2.51455 -5.3528 0
M  V30 1448 H 141.311 -0.171283 -0.734287 0
M  V30 1449 H 143.962 -1.05597 -1.50072 0
M  V30 1450 H 142.344 -0.127359 -3.95795 0
M  V30 1451 H 143.518 -2.95502 -3.53575 0
M  V30 1452 H 141.833 -2.54698 -3.2942 0
M  V30 1453 H 144.43 -0.630369 -5.30971 0
M  V30 1454 H 144.773 0.600834 -4.11941 0
M  V30 1455 H 145.306 -1.07319 -3.8305 0
M  V30 1456 H 142.045 -3.56025 -5.50387 0
M  V30 1457 H 141.565 -1.85923 -5.70257 0
M  V30 1458 H 143.244 -2.35874 -6.02472 0
M  V30 1459 N 143.376 1.44774 -0.622745 0
M  V30 1460 C 144.616 2.04004 -0.127102 0
M  V30 1461 C 144.98 1.47862 1.22478 0
M  V30 1462 O 146.181 1.98541 1.81204 0
M  V30 1463 C 144.452 3.57247 -0.104429 0
M  V30 1464 S 146.011 4.37574 0.327814 0
M  V30 1465 H 142.829 0.708713 -0.0569776 0
M  V30 1466 H 145.431 1.77275 -0.824253 0
M  V30 1467 H 144.135 3.95616 -1.09159 0
M  V30 1468 H 143.666 3.88575 0.614236 0
M  V30 1469 H 145.681 4.70575 1.57395 0
M  V30 1470 N 144.854 0.36279 1.53368 0
M  V30 1471 C 146.094 -0.227882 2.03126 0
M  V30 1472 C 146.458 -1.4622 1.24434 0
M  V30 1473 O 147.659 -2.12831 1.64184 0
M  V30 1474 C 145.93 -0.515427 3.53664 0
M  V30 1475 S 147.489 -1.08017 4.25297 0
M  V30 1476 H 144.307 -0.0665377 0.70788 0
M  V30 1477 H 146.909 0.50501 1.88865 0
M  V30 1478 H 145.613 0.390436 4.08539 0
M  V30 1479 H 145.144 -1.27747 3.72081 0
M  V30 1480 H 147.159 -2.36462 4.36234 0
M  V30 1481 N 146.332 -1.57332 0.0918853 0
M  V30 1482 C 147.58 -1.93853 -0.571446 0
M  V30 1483 C 147.901 -0.974212 -1.6892 0
M  V30 1484 O 147.171 -0.0257254 -1.95883 0
M  V30 1485 H 145.751 -0.715666 -0.214082 0
M  V30 1486 H 148.413 -1.94287 0.154464 0
M  V30 1487 H 147.509 -2.96191 -0.983729 0
M  V30 1488 N 147.81 0.181792 -1.56548 0
M  V30 1489 C 149.059 0.898348 -1.8059 0
M  V30 1490 C 149.372 1.83862 -0.667379 0
M  V30 1491 O 150.578 2.59678 -0.792446 0
M  V30 1492 C 149.034 1.64791 -3.19956 0
M  V30 1493 C 148.642 0.751789 -4.41647 0
M  V30 1494 C 150.386 2.35331 -3.53298 0
M  V30 1495 C 148.293 1.50098 -5.72035 0
M  V30 1496 H 147.223 0.339194 -0.673397 0
M  V30 1497 H 149.874 0.151413 -1.82874 0
M  V30 1498 H 148.256 2.43921 -3.11959 0
M  V30 1499 H 149.43 -0.0018076 -4.608 0
M  V30 1500 H 147.745 0.156562 -4.16106 0
M  V30 1501 H 150.342 2.91958 -4.47956 0
M  V30 1502 H 150.685 3.10164 -2.77676 0
M  V30 1503 H 151.218 1.63154 -3.62803 0
M  V30 1504 H 147.957 0.795175 -6.50659 0
M  V30 1505 H 147.477 2.22817 -5.56878 0
M  V30 1506 H 149.156 2.05125 -6.13622 0
M  V30 1507 N 149.288 1.51039 0.449983 0
M  V30 1508 C 150.699 1.557 1.03026 0
M  V30 1509 C 151.05 0.372939 1.92623 0
M  V30 1510 O 150.175 -0.511771 2.10261 0
M  V30 1511 C 150.77 2.82171 1.87523 0
M  V30 1512 C 149.329 2.89444 2.40622 0
M  V30 1513 C 148.476 2.50228 1.19504 0
M  V30 1514 H 151.427 1.56999 0.231745 0
M  V30 1515 H 151.448 2.65219 2.72835 0
M  V30 1516 H 150.96 3.68331 1.22286 0
M  V30 1517 H 149.061 2.07685 3.0935 0
M  V30 1518 H 149.174 3.92816 2.74285 0
M  V30 1519 H 147.538 2.03139 1.53644 0
M  V30 1520 H 148.321 3.38719 0.558972 0
M  V30 1521 N 150.766 -0.704594 1.40972 0
M  V30 1522 C 152.012 -1.46675 1.40051 0
M  V30 1523 C 152.345 -1.94199 0.00641102 0
M  V30 1524 O 151.62 -1.68916 -0.964235 0
M  V30 1525 C 151.903 -2.68505 2.39952 0
M  V30 1526 C 151.756 -2.26805 3.88432 0
M  V30 1527 C 153.075 -3.70686 2.37233 0
M  V30 1528 H 150.194 -0.532015 0.510028 0
M  V30 1529 H 152.836 -0.803255 1.72185 0
M  V30 1530 H 150.986 -3.25114 2.1268 0
M  V30 1531 H 152.658 -1.75592 4.26574 0
M  V30 1532 H 150.901 -1.58685 4.03734 0
M  V30 1533 H 151.572 -3.14181 4.53866 0
M  V30 1534 H 154.048 -3.23731 2.61415 0
M  V30 1535 H 152.924 -4.53553 3.09162 0
M  V30 1536 H 153.185 -4.19754 1.38777 0
M  V30 1537 N 152.244 -1.26651 -0.937939 0
M  V30 1538 C 153.491 -1.12387 -1.6845 0
M  V30 1539 C 153.819 0.332208 -1.91642 0
M  V30 1540 O 153.074 1.2602 -1.49725 0
M  V30 1541 C 153.373 -1.84168 -3.06295 0
M  V30 1542 C 153.039 -3.34056 -3.02849 0
M  V30 1543 C 151.701 -3.74942 -3.01616 0
M  V30 1544 C 154.053 -4.29741 -2.9491 0
M  V30 1545 C 151.381 -5.09894 -2.90215 0
M  V30 1546 C 153.733 -5.64738 -2.8505 0
M  V30 1547 C 152.397 -6.0493 -2.82162 0
M  V30 1548 H 151.667 -0.411252 -0.616403 0
M  V30 1549 H 154.314 -1.57134 -1.09459 0
M  V30 1550 H 152.619 -1.319 -3.6893 0
M  V30 1551 H 154.316 -1.70569 -3.62915 0
M  V30 1552 H 150.906 -3.01534 -3.0459 0
M  V30 1553 H 155.09 -3.99133 -2.94969 0
M  V30 1554 H 150.346 -5.40194 -2.86358 0
M  V30 1555 H 154.52 -6.38561 -2.77872 0
M  V30 1556 H 152.147 -7.09457 -2.73084 0
M  V30 1557 N 153.722 1.14298 -1.08507 0
M  V30 1558 C 154.969 1.85359 -0.815373 0
M  V30 1559 C 155.297 1.83001 0.658865 0
M  V30 1560 O 154.552 1.25655 1.50031 0
M  V30 1561 C 154.851 3.33547 -1.28379 0
M  V30 1562 C 154.517 3.56093 -2.76602 0
M  V30 1563 C 153.179 3.61955 -3.17084 0
M  V30 1564 C 155.531 3.64834 -3.72217 0
M  V30 1565 C 152.859 3.74082 -4.51973 0
M  V30 1566 C 155.211 3.78487 -5.06883 0
M  V30 1567 C 153.875 3.82598 -5.46969 0
M  V30 1568 H 153.145 0.678276 -0.298366 0
M  V30 1569 H 155.792 1.35002 -1.35819 0
M  V30 1570 H 154.097 3.86191 -0.660593 0
M  V30 1571 H 155.794 3.86959 -1.05186 0
M  V30 1572 H 152.384 3.52179 -2.4427 0
M  V30 1573 H 156.568 3.59595 -3.42061 0
M  V30 1574 H 151.824 3.75527 -4.82483 0
M  V30 1575 H 155.998 3.84193 -5.80834 0
M  V30 1576 H 153.625 3.91747 -6.51489 0
M  V30 1577 N 155.201 0.870884 1.31352 0
M  V30 1578 C 156.131 0.343096 2.30966 0
M  V30 1579 C 157.112 -0.566507 1.60389 0
M  V30 1580 O 158.297 -0.483336 1.88089 0
M  V30 1581 C 155.427 -0.455487 3.443 0
M  V30 1582 C 154.381 0.361103 4.26474 0
M  V30 1583 C 153.707 -0.563221 5.31725 0
M  V30 1584 C 155.007 1.59566 4.97329 0
M  V30 1585 H 156.701 1.17548 2.75359 0
M  V30 1586 H 154.247 0.566686 1.32381 0
M  V30 1587 H 156.2 -0.83525 4.13039 0
M  V30 1588 H 154.924 -1.32139 2.98675 0
M  V30 1589 H 153.583 0.722825 3.59403 0
M  V30 1590 H 153.231 -1.42643 4.82351 0
M  V30 1591 H 152.931 -0.0207409 5.87596 0
M  V30 1592 H 154.455 -0.939808 6.03324 0
M  V30 1593 H 155.869 1.28728 5.58661 0
M  V30 1594 H 154.266 2.07728 5.63 0
M  V30 1595 H 155.336 2.34798 4.24262 0
M  V30 1596 N 156.679 -1.44442 0.630414 0
M  V30 1597 C 157.589 -2.34476 -0.0761693 0
M  V30 1598 C 158.605 -1.52576 -0.836449 0
M  V30 1599 O 159.781 -1.85307 -0.788874 0
M  V30 1600 C 156.846 -3.30545 -1.04599 0
M  V30 1601 C 155.907 -4.28352 -0.28516 0
M  V30 1602 C 155.14 -5.19831 -1.20878 0
M  V30 1603 O 155.363 -5.15223 -2.44747 0
M  V30 1604 O 154.297 -5.97892 -0.693491 0
M  V30 1605 H 158.123 -2.96345 0.664324 0
M  V30 1606 H 155.708 -1.44203 0.39061 0
M  V30 1607 H 157.59 -3.89681 -1.60396 0
M  V30 1608 H 156.265 -2.7121 -1.76711 0
M  V30 1609 H 155.172 -3.72764 0.315837 0
M  V30 1610 H 156.505 -4.90605 0.395924 0
M  V30 1611 N 158.157 -0.370918 -1.53173 0
M  V30 1612 C 159.385 0.217704 -2.05751 0
M  V30 1613 C 159.8 1.42018 -1.24404 0
M  V30 1614 O 159.157 1.80245 -0.286033 0
M  V30 1615 C 159.208 0.605954 -3.56385 0
M  V30 1616 O 158.929 -0.548734 -4.3465 0
M  V30 1617 C 160.43 1.2524 -4.25241 0
M  V30 1618 H 157.65 0.0371659 -0.66997 0
M  V30 1619 H 160.194 -0.530832 -1.9749 0
M  V30 1620 H 158.349 1.3044 -3.6478 0
M  V30 1621 H 158.763 -0.23376 -5.23979 0
M  V30 1622 H 160.237 1.47458 -5.3194 0
M  V30 1623 H 160.714 2.2143 -3.79296 0
M  V30 1624 H 161.32 0.595233 -4.21114 0
M  V30 1625 N 159.635 1.57281 -0.100228 0
M  V30 1626 C 160.598 2.13158 0.842398 0
M  V30 1627 C 161.598 1.06202 1.20738 0
M  V30 1628 O 162.788 1.32066 1.13597 0
M  V30 1629 C 159.92 2.65639 2.13655 0
M  V30 1630 H 161.113 2.97766 0.357114 0
M  V30 1631 H 158.666 1.5559 0.148823 0
M  V30 1632 H 159.401 1.84566 2.66657 0
M  V30 1633 H 159.186 3.43844 1.88451 0
M  V30 1634 H 160.676 3.08846 2.81077 0
M  V30 1635 N 161.113 -0.173488 1.56642 0
M  V30 1636 C 162.043 -1.2171 1.99271 0
M  V30 1637 C 163.024 -1.46289 0.867959 0
M  V30 1638 O 164.209 -1.5766 1.13388 0
M  V30 1639 C 161.339 -2.55651 2.35074 0
M  V30 1640 C 160.293 -2.45645 3.50489 0
M  V30 1641 C 159.619 -3.84056 3.72028 0
M  V30 1642 C 160.919 -1.96302 4.84007 0
M  V30 1643 H 162.613 -0.86275 2.867 0
M  V30 1644 H 160.159 -0.413571 1.37933 0
M  V30 1645 H 162.112 -3.2886 2.63494 0
M  V30 1646 H 160.836 -2.92869 1.44552 0
M  V30 1647 H 159.495 -1.7489 3.22194 0
M  V30 1648 H 159.143 -4.18664 2.788 0
M  V30 1649 H 158.843 -3.7823 4.49684 0
M  V30 1650 H 160.367 -4.58854 4.02846 0
M  V30 1651 H 161.781 -2.59284 5.11317 0
M  V30 1652 H 160.178 -2.01429 5.65284 0
M  V30 1653 H 161.248 -0.917226 4.76146 0
M  V30 1654 N 162.591 -1.51276 -0.441967 0
M  V30 1655 C 163.839 -1.63392 -1.18943 0
M  V30 1656 C 164.16 -0.350159 -1.9183 0
M  V30 1657 O 163.43 0.633784 -1.85364 0
M  V30 1658 H 162.01 -0.602164 -0.442049 0
M  V30 1659 H 164.672 -1.88186 -0.507165 0
M  V30 1660 H 163.768 -2.45934 -1.92154 0
M  V30 1661 N 164.069 0.697108 -1.41344 0
M  V30 1662 C 165.001 1.8224 -1.39001 0
M  V30 1663 C 166.014 1.60152 -0.292428 0
M  V30 1664 O 167.203 1.69684 -0.554048 0
M  V30 1665 C 164.303 3.18976 -1.14489 0
M  V30 1666 C 163.476 3.68105 -2.36258 0
M  V30 1667 C 162.535 4.83506 -2.07625 0
M  V30 1668 O 161.561 4.95201 -2.8065 0
M  V30 1669 N 162.763 5.70637 -1.06555 0
M  V30 1670 H 165.528 1.84742 -2.35988 0
M  V30 1671 H 163.089 0.87937 -1.35936 0
M  V30 1672 H 165.081 3.93801 -0.932885 0
M  V30 1673 H 163.651 3.11508 -0.261043 0
M  V30 1674 H 162.871 2.84204 -2.7317 0
M  V30 1675 H 164.159 3.97667 -3.17393 0
M  V30 1676 H 163.557 5.63817 -0.461125 0
M  V30 1677 H 162.114 6.45368 -0.913444 0
M  V30 1678 N 165.547 1.27147 0.931209 0
M  V30 1679 C 166.794 1.13278 1.67852 0
M  V30 1680 C 167.122 -0.32204 1.91815 0
M  V30 1681 O 166.377 -1.25224 1.50391 0
M  V30 1682 C 166.676 1.8579 3.05314 0
M  V30 1683 C 166.342 3.35657 3.01073 0
M  V30 1684 C 165.004 3.76536 2.99623 0
M  V30 1685 C 167.356 4.31299 2.92627 0
M  V30 1686 C 164.684 5.11426 2.87506 0
M  V30 1687 C 167.036 5.66242 2.82051 0
M  V30 1688 C 165.7 6.06418 2.7895 0
M  V30 1689 H 164.97 0.414515 0.614214 0
M  V30 1690 H 167.617 1.57712 1.08624 0
M  V30 1691 H 165.922 1.33854 3.68226 0
M  V30 1692 H 167.619 1.72491 3.62005 0
M  V30 1693 H 164.209 3.03146 3.02986 0
M  V30 1694 H 168.393 4.00692 2.92848 0
M  V30 1695 H 163.649 5.41705 2.83489 0
M  V30 1696 H 167.823 6.40026 2.74481 0
M  V30 1697 H 165.45 7.10895 2.69318 0
M  V30 1698 N 167.025 -1.13721 1.09112 0
M  V30 1699 C 168.253 -1.88773 0.846899 0
M  V30 1700 C 168.668 -1.7896 -0.601572 0
M  V30 1701 O 168.025 -1.15394 -1.41388 0
M  V30 1702 C 168.076 -3.3849 1.26913 0
M  V30 1703 O 167.797 -3.48043 2.66079 0
M  V30 1704 C 169.298 -4.30518 1.05682 0
M  V30 1705 H 166.518 -0.59772 0.304914 0
M  V30 1706 H 169.062 -1.43977 1.45227 0
M  V30 1707 H 167.217 -3.80881 0.707723 0
M  V30 1708 H 167.631 -4.4109 2.83795 0
M  V30 1709 H 169.105 -5.3391 1.40156 0
M  V30 1710 H 169.582 -4.392 -0.00563416 0
M  V30 1711 H 170.188 -3.93893 1.60402 0
M  V30 1712 N 168.503 -0.877838 -1.30888 0
M  V30 1713 C 169.728 -0.506629 -2.01117 0
M  V30 1714 C 170.153 0.895564 -1.65412 0
M  V30 1715 O 169.511 1.5923 -0.866922 0
M  V30 1716 C 169.559 -0.680223 -3.54126 0
M  V30 1717 O 168.663 0.277033 -4.11468 0
M  V30 1718 H 168.004 -0.200518 -0.633 0
M  V30 1719 H 170.534 -1.18342 -1.66902 0
M  V30 1720 H 170.544 -0.5765 -4.03907 0
M  V30 1721 H 169.219 -1.70261 -3.79452 0
M  V30 1722 H 167.796 0.127606 -3.72682 0
M  V30 1723 N 169.982 1.44106 -0.638065 0
M  V30 1724 C 170.892 2.34513 0.0637334 0
M  V30 1725 C 171.908 1.53018 0.828346 0
M  V30 1726 O 173.084 1.85723 0.779036 0
M  V30 1727 C 170.149 3.31095 1.02844 0
M  V30 1728 C 169.21 4.28497 0.26244 0
M  V30 1729 C 168.443 5.20465 1.1812 0
M  V30 1730 O 168.666 5.16514 2.42011 0
M  V30 1731 O 167.6 5.98251 0.661774 0
M  V30 1732 H 171.426 2.95989 -0.68003 0
M  V30 1733 H 169.011 1.43994 -0.398252 0
M  V30 1734 H 170.893 3.90526 1.58327 0
M  V30 1735 H 169.568 2.72144 1.7527 0
M  V30 1736 H 168.475 3.72592 -0.335602 0
M  V30 1737 H 169.808 4.90388 -0.421936 0
M  V30 1738 N 171.46 0.379036 1.52974 0
M  V30 1739 C 172.708 -0.206014 2.01047 0
M  V30 1740 C 173.029 -1.48175 1.26765 0
M  V30 1741 O 172.299 -1.92085 0.384743 0
M  V30 1742 H 170.879 -0.0791184 0.742798 0
M  V30 1743 H 173.541 0.508366 1.88153 0
M  V30 1744 H 172.637 -0.423501 3.09213 0
M  V30 1745 N 172.938 -1.57226 0.108567 0
M  V30 1746 C 174.186 -1.94448 -0.550853 0
M  V30 1747 C 174.507 -0.992074 -1.67878 0
M  V30 1748 O 173.777 -0.0465 -1.95845 0
M  V30 1749 H 172.357 -0.717897 -0.206479 0
M  V30 1750 H 175.019 -1.94112 0.175062 0
M  V30 1751 H 174.115 -2.97218 -0.952259 0
M  V30 1752 N 174.416 0.165178 -1.56732 0
M  V30 1753 C 175.665 0.879143 -1.81532 0
M  V30 1754 C 175.978 1.83144 -0.686842 0
M  V30 1755 O 177.184 2.58823 -0.819944 0
M  V30 1756 C 175.64 1.61388 -3.21686 0
M  V30 1757 C 175.248 0.704904 -4.4242 0
M  V30 1758 C 176.992 2.3157 -3.55774 0
M  V30 1759 C 174.899 1.44022 -5.73595 0
M  V30 1760 H 173.829 0.332033 -0.676957 0
M  V30 1761 H 176.48 0.132008 -1.83025 0
M  V30 1762 H 174.862 2.40599 -3.14529 0
M  V30 1763 H 176.036 -0.0506815 -4.60772 0
M  V30 1764 H 174.351 0.112419 -4.16248 0
M  V30 1765 H 176.948 2.8719 -4.51028 0
M  V30 1766 H 177.291 3.07201 -2.8095 0
M  V30 1767 H 177.824 1.59297 -3.64513 0
M  V30 1768 H 174.563 0.72612 -6.51466 0
M  V30 1769 H 174.083 2.16898 -5.5921 0
M  V30 1770 H 175.762 1.98606 -6.15764 0
M  V30 1771 N 175.894 1.51508 0.433938 0
M  V30 1772 C 177.122 1.68157 1.20543 0
M  V30 1773 C 177.537 0.380362 1.84929 0
M  V30 1774 O 176.894 -0.641446 1.70856 0
M  V30 1775 C 176.945 2.79965 2.28696 0
M  V30 1776 O 176.666 4.05045 1.66943 0
M  V30 1777 C 178.167 3.07912 3.18912 0
M  V30 1778 H 175.387 0.56421 0.363191 0
M  V30 1779 H 177.931 1.97941 0.513754 0
M  V30 1780 H 176.086 2.5277 2.93574 0
M  V30 1781 H 176.5 4.67165 2.38448 0
M  V30 1782 H 177.974 3.89719 3.90926 0
M  V30 1783 H 178.451 2.20456 3.79863 0
M  V30 1784 H 179.057 3.36779 2.59731 0
M  V30 1785 N 177.372 -0.689602 1.41712 0
M  V30 1786 C 178.612 -1.46184 1.42862 0
M  V30 1787 C 178.976 -1.91962 0.0382204 0
M  V30 1788 O 180.177 -2.68694 -0.0755019 0
M  V30 1789 C 178.448 -2.6371 2.4123 0
M  V30 1790 S 180.007 -3.52768 2.6096 0
M  V30 1791 H 176.825 -0.49947 0.506015 0
M  V30 1792 H 179.427 -0.804107 1.78198 0
M  V30 1793 H 178.131 -2.28293 3.41044 0
M  V30 1794 H 177.662 -3.3437 2.07269 0
M  V30 1795 H 179.677 -4.59146 1.88148 0
M  V30 1796 N 178.85 -1.27639 -0.924453 0
M  V30 1797 C 180.096 -1.15345 -1.67532 0
M  V30 1798 C 180.451 0.297096 -1.90092 0
M  V30 1799 O 179.744 1.21374 -1.48253 0
M  V30 1800 C 179.938 -1.87407 -3.04325 0
M  V30 1801 C 179.767 -3.3932 -2.95114 0
M  V30 1802 C 178.537 -4.08644 -2.97218 0
M  V30 1803 C 180.735 -4.35242 -2.73987 0
M  V30 1804 N 178.717 -5.47102 -2.78482 0
M  V30 1805 C 180.088 -5.6099 -2.63988 0
M  V30 1806 C 182.143 -4.25294 -2.589 0
M  V30 1807 C 180.846 -6.77924 -2.40442 0
M  V30 1808 C 182.872 -5.41952 -2.36731 0
M  V30 1809 C 182.234 -6.66658 -2.27478 0
M  V30 1810 H 178.333 -0.47696 -0.619704 0
M  V30 1811 H 180.917 -1.6115 -1.09265 0
M  V30 1812 H 179.088 -1.44053 -3.60699 0
M  V30 1813 H 180.82 -1.6759 -3.68369 0
M  V30 1814 H 177.575 -3.60136 -3.07569 0
M  V30 1815 H 177.999 -6.19852 -2.72236 0
M  V30 1816 H 182.641 -3.29598 -2.64811 0
M  V30 1817 H 180.359 -7.73699 -2.3327 0
M  V30 1818 H 183.945 -5.36137 -2.25938 0
M  V30 1819 H 182.825 -7.55405 -2.10555 0
M  V30 1820 N 180.328 1.1314 -1.09713 0
M  V30 1821 C 181.744 1.36477 -0.827423 0
M  V30 1822 C 181.944 1.93654 0.556817 0
M  V30 1823 O 181 2.15791 1.31112 0
M  V30 1824 C 182.313 2.31334 -1.92106 0
M  V30 1825 C 183.861 2.44943 -1.94864 0
M  V30 1826 C 184.336 3.4311 -3.0338 0
M  V30 1827 N 185.827 3.50662 -3.02639 0
M  V30 1828 C 186.562 4.2651 -3.83246 0
M  V30 1829 N 186.058 5.05485 -4.73768 0
M  V30 1830 N 187.851 4.2184 -3.71493 0
M  V30 1831 H 180.002 0.743807 -1.9895 0
M  V30 1832 H 182.265 0.389823 -0.864143 0
M  V30 1833 H 181.971 1.96483 -2.91698 0
M  V30 1834 H 181.845 3.31381 -1.80184 0
M  V30 1835 H 184.232 2.79079 -0.959099 0
M  V30 1836 H 184.313 1.4481 -2.10864 0
M  V30 1837 H 183.957 3.09704 -4.02549 0
M  V30 1838 H 183.887 4.43055 -2.84622 0
M  V30 1839 H 186.378 2.94315 -2.37039 0
M  V30 1840 H 186.691 5.60675 -5.3185 0
M  V30 1841 H 185.036 5.04708 -4.77802 0
M  V30 1842 H 188.227 3.5922 -3.00131 0
M  V30 1843 H 188.4 4.80697 -4.3455 0
M  V30 1844 N 181.806 0.884767 1.30421 0
M  V30 1845 C 182.753 0.349642 2.28136 0
M  V30 1846 C 183.723 -0.560061 1.56373 0
M  V30 1847 O 184.908 -0.488524 1.8444 0
M  V30 1848 C 182.048 -0.42999 3.42411 0
M  V30 1849 C 181.161 0.508907 4.28992 0
M  V30 1850 C 180.296 -0.286301 5.30428 0
M  V30 1851 C 179.335 0.648079 6.08659 0
M  V30 1852 N 178.472 -0.111792 7.02011 0
M  V30 1853 H 183.312 1.18807 2.73293 0
M  V30 1854 H 180.849 0.597231 1.3443 0
M  V30 1855 H 182.807 -0.897923 4.07423 0
M  V30 1856 H 181.437 -1.23299 2.98324 0
M  V30 1857 H 180.489 1.09533 3.64289 0
M  V30 1858 H 181.801 1.22475 4.8353 0
M  V30 1859 H 180.955 -0.816098 6.01186 0
M  V30 1860 H 179.694 -1.03536 4.76583 0
M  V30 1861 H 178.699 1.18951 5.36778 0
M  V30 1862 H 179.924 1.39623 6.64592 0
M  V30 1863 H 177.87 -0.843395 6.50556 0
M  V30 1864 H 177.787 0.544429 7.54037 0
M  V30 1865 H 179.055 -0.622339 7.77012 0
M  V30 1866 N 183.284 -1.43765 0.645699 0
M  V30 1867 C 184.53 -2.02197 0.156271 0
M  V30 1868 C 184.863 -1.50776 -1.22393 0
M  V30 1869 O 184.138 -0.697771 -1.81553 0
M  V30 1870 C 184.421 -3.59749 0.158872 0
M  V30 1871 C 184.274 -4.21419 1.57245 0
M  V30 1872 C 185.593 -4.37149 -0.50879 0
M  V30 1873 H 182.712 -0.734694 0.0582602 0
M  V30 1874 H 185.354 -1.71157 0.824951 0
M  V30 1875 H 183.504 -3.86325 -0.410525 0
M  V30 1876 H 185.176 -4.059 2.19186 0
M  V30 1877 H 183.419 -3.78356 2.122 0
M  V30 1878 H 184.09 -5.30482 1.52619 0
M  V30 1879 H 186.566 -4.16093 -0.024412 0
M  V30 1880 H 185.442 -5.4683 -0.476213 0
M  V30 1881 H 185.703 -4.12839 -1.58165 0
M  V30 1882 N 184.763 -0.387143 -1.52771 0
M  V30 1883 C 186.003 0.195537 -2.03463 0
M  V30 1884 C 186.367 1.44222 -1.26744 0
M  V30 1885 O 187.568 2.10192 -1.67549 0
M  V30 1886 C 185.839 0.459097 -3.54439 0
M  V30 1887 S 187.398 1.01237 -4.26962 0
M  V30 1888 H 184.216 0.0552675 -0.708849 0
M  V30 1889 H 186.818 -0.534992 -1.88037 0
M  V30 1890 H 185.522 -0.455382 -4.07866 0
M  V30 1891 H 185.053 1.21811 -3.74066 0
M  V30 1892 H 187.068 2.29492 -4.39941 0
M  V30 1893 N 186.241 1.57166 -0.116904 0
M  V30 1894 C 187.652 1.82169 0.408809 0
M  V30 1895 C 188.003 1.03393 1.66746 0
M  V30 1896 O 187.128 0.269886 2.1471 0
M  V30 1897 C 187.723 3.30429 0.748466 0
M  V30 1898 C 186.282 3.5612 1.21882 0
M  V30 1899 C 185.429 2.76374 0.226452 0
M  V30 1900 H 188.38 1.5497 -0.342063 0
M  V30 1901 H 188.401 3.44943 1.60607 0
M  V30 1902 H 187.913 3.87737 -0.167784 0
M  V30 1903 H 186.014 3.04168 2.15204 0
M  V30 1904 H 186.127 4.64705 1.16559 0
M  V30 1905 H 184.491 2.44515 0.713063 0
M  V30 1906 H 185.274 3.3644 -0.682859 0
M  V30 1907 N 187.719 -0.156864 1.56817 0
M  V30 1908 C 188.649 -1.19589 2.00551 0
M  V30 1909 C 189.63 -1.4536 0.883426 0
M  V30 1910 O 190.815 -1.56449 1.15054 0
M  V30 1911 C 187.945 -2.53143 2.37773 0
M  V30 1912 C 186.899 -2.41913 3.53075 0
M  V30 1913 C 186.225 -3.80088 3.76081 0
M  V30 1914 C 187.525 -1.91157 4.86062 0
M  V30 1915 H 189.219 -0.832293 2.87599 0
M  V30 1916 H 186.765 -0.398918 1.38364 0
M  V30 1917 H 188.718 -3.26047 2.66967 0
M  V30 1918 H 187.442 -2.91319 1.4765 0
M  V30 1919 H 186.101 -1.71462 3.24031 0
M  V30 1920 H 185.749 -4.15683 2.83225 0
M  V30 1921 H 185.449 -3.73439 4.53671 0
M  V30 1922 H 186.973 -4.54556 4.0769 0
M  V30 1923 H 188.387 -2.53846 5.14038 0
M  V30 1924 H 186.784 -1.95422 5.67389 0
M  V30 1925 H 187.854 -0.866673 4.77092 0
M  V30 1926 N 189.197 -1.51736 -0.425897 0
M  V30 1927 C 190.444 -1.6497 -1.17436 0
M  V30 1928 C 190.772 -0.371445 -1.9092 0
M  V30 1929 O 190.027 0.644963 -1.84767 0
M  V30 1930 C 190.326 -2.81103 -2.20717 0
M  V30 1931 C 189.992 -4.19954 -1.64162 0
M  V30 1932 C 188.654 -4.57725 -1.48462 0
M  V30 1933 C 191.006 -5.06552 -1.22696 0
M  V30 1934 C 188.334 -5.79789 -0.897873 0
M  V30 1935 C 190.686 -6.29205 -0.654464 0
M  V30 1936 C 189.35 -6.6574 -0.484456 0
M  V30 1937 H 188.62 -0.603668 -0.429727 0
M  V30 1938 H 191.267 -1.85798 -0.463829 0
M  V30 1939 H 189.572 -2.54542 -2.97852 0
M  V30 1940 H 191.269 -2.8854 -2.78471 0
M  V30 1941 H 187.859 -3.90181 -1.77361 0
M  V30 1942 H 192.043 -4.77968 -1.33642 0
M  V30 1943 H 187.299 -6.06733 -0.75402 0
M  V30 1944 H 191.473 -6.95643 -0.324694 0
M  V30 1945 H 189.1 -7.60195 -0.0276833 0
M  V30 1946 N 190.675 0.682077 -1.42076 0
M  V30 1947 C 191.585 1.82535 -1.47371 0
M  V30 1948 C 192.601 1.7017 -0.363079 0
M  V30 1949 O 193.777 1.91848 -0.612875 0
M  V30 1950 C 190.842 3.18624 -1.36674 0
M  V30 1951 C 189.903 3.42999 -2.58167 0
M  V30 1952 C 189.136 4.72595 -2.4797 0
M  V30 1953 O 189.359 5.50006 -1.5116 0
M  V30 1954 O 188.293 4.98054 -3.37974 0
M  V30 1955 H 192.119 1.81023 -2.43853 0
M  V30 1956 H 189.704 0.836887 -1.2376 0
M  V30 1957 H 191.586 3.99847 -1.33043 0
M  V30 1958 H 190.261 3.20789 -0.433138 0
M  V30 1959 H 189.168 2.61653 -2.67373 0
M  V30 1960 H 190.501 3.45659 -3.50401 0
M  V30 1961 N 192.153 1.28127 0.917671 0
M  V30 1962 C 193.401 1.14825 1.66312 0
M  V30 1963 C 193.722 -0.304379 1.9261 0
M  V30 1964 O 192.992 -1.21149 1.53947 0
M  V30 1965 H 191.572 0.421953 0.616413 0
M  V30 1966 H 194.234 1.608 1.10134 0
M  V30 1967 H 193.33 1.68489 2.62712 0
M  V30 1968 N 193.631 -1.12557 1.10312 0
M  V30 1969 C 194.88 -1.83395 0.839588 0
M  V30 1970 C 195.193 -1.84939 -0.636929 0
M  V30 1971 O 196.399 -2.51761 -1.01631 0
M  V30 1972 C 194.855 -3.29303 1.45215 0
M  V30 1973 C 194.463 -3.36122 2.96186 0
M  V30 1974 C 196.207 -4.05121 1.26796 0
M  V30 1975 C 194.114 -4.76357 3.50483 0
M  V30 1976 H 193.044 -0.687133 0.310425 0
M  V30 1977 H 195.695 -1.26746 1.32694 0
M  V30 1978 H 194.077 -3.85812 0.892469 0
M  V30 1979 H 195.251 -2.89559 3.58458 0
M  V30 1980 H 193.566 -2.73776 3.13745 0
M  V30 1981 H 196.163 -5.08668 1.64806 0
M  V30 1982 H 196.506 -4.15773 0.209409 0
M  V30 1983 H 197.039 -3.54967 1.79563 0
M  V30 1984 H 193.778 -4.70899 4.55998 0
M  V30 1985 H 193.298 -5.23377 2.92978 0
M  V30 1986 H 194.977 -5.45294 3.48228 0
M  V30 1987 N 195.109 -0.891671 -1.2995 0
M  V30 1988 C 196.357 -0.512486 -1.95494 0
M  V30 1989 C 196.678 0.942776 -1.70695 0
M  V30 1990 O 195.948 1.66374 -1.03424 0
M  V30 1991 H 194.528 -0.186533 -0.723336 0
M  V30 1992 H 197.19 -1.13621 -1.58355 0
M  V30 1993 H 196.286 -0.688342 -3.04415 0
M  V30 1994 N 196.587 1.43421 -0.653314 0
M  V30 1995 C 197.817 2.05864 -0.174238 0
M  V30 1996 C 198.225 1.49052 1.16534 0
M  V30 1997 O 197.568 0.616481 1.73047 0
M  V30 1998 C 197.63 3.59499 -0.00875873 0
M  V30 1999 C 197.294 4.38893 -1.27364 0
M  V30 2000 C 198.291 4.70947 -2.20239 0
M  V30 2001 C 195.976 4.789 -1.51525 0
M  V30 2002 C 197.97 5.41916 -3.35568 0
M  V30 2003 C 195.657 5.49614 -2.67147 0
M  V30 2004 C 196.655 5.81044 -3.58994 0
M  V30 2005 O 196.343 6.50313 -4.72597 0
M  V30 2006 H 196.075 0.670345 -0.0872549 0
M  V30 2007 H 198.629 1.84913 -0.894226 0
M  V30 2008 H 196.859 3.79025 0.7666 0
M  V30 2009 H 198.548 4.0364 0.427687 0
M  V30 2010 H 199.314 4.40558 -2.02815 0
M  V30 2011 H 195.193 4.53843 -0.809158 0
M  V30 2012 H 198.737 5.66365 -4.07279 0
M  V30 2013 H 194.634 5.79419 -2.84505 0
M  V30 2014 H 195.402 6.68795 -4.71864 0
M  V30 2015 N 198.065 0.39524 1.52563 0
M  V30 2016 C 199.028 -0.425001 2.25225 0
M  V30 2017 C 200.028 -0.985266 1.27079 0
M  V30 2018 O 201.218 -0.866332 1.5113 0
M  V30 2019 C 198.35 -1.59686 3.01186 0
M  V30 2020 H 199.543 0.211233 2.99155 0
M  V30 2021 H 197.096 0.147472 1.55603 0
M  V30 2022 H 197.831 -2.27035 2.31572 0
M  V30 2023 H 197.616 -1.20176 3.73229 0
M  V30 2024 H 199.106 -2.17743 3.5634 0
M  V30 2025 N 199.544 -1.57102 0.125237 0
M  V30 2026 C 200.772 -1.99761 -0.538797 0
M  V30 2027 C 201.187 -1.00503 -1.59827 0
M  V30 2028 O 200.544 0.00119474 -1.825 0
M  V30 2029 C 200.595 -3.42408 -1.15927 0
M  V30 2030 O 200.316 -4.37869 -0.142143 0
M  V30 2031 C 201.817 -4.00232 -1.90602 0
M  V30 2032 H 199.037 -0.655772 -0.14214 0
M  V30 2033 H 201.581 -2.03383 0.213413 0
M  V30 2034 H 199.736 -3.39706 -1.86223 0
M  V30 2035 H 200.15 -5.21128 -0.593775 0
M  V30 2036 H 201.624 -5.02105 -2.29335 0
M  V30 2037 H 202.101 -3.39721 -2.78363 0
M  V30 2038 H 202.707 -4.06499 -1.25055 0
M  V30 2039 N 201.022 0.148545 -1.56898 0
M  V30 2040 C 201.954 1.20852 -1.9475 0
M  V30 2041 C 202.967 1.39265 -0.843152 0
M  V30 2042 O 204.156 1.38864 -1.12156 0
M  V30 2043 C 201.256 2.57362 -2.20495 0
M  V30 2044 C 200.429 2.59947 -3.51776 0
M  V30 2045 C 199.488 3.77984 -3.6608 0
M  V30 2046 O 198.514 3.62929 -4.38487 0
M  V30 2047 N 199.716 4.95375 -3.02629 0
M  V30 2048 H 202.481 0.886804 -2.86279 0
M  V30 2049 H 200.042 0.338121 -1.5833 0
M  V30 2050 H 202.034 3.34833 -2.27307 0
M  V30 2051 H 200.604 2.81832 -1.35238 0
M  V30 2052 H 199.824 1.68403 -3.56419 0
M  V30 2053 H 201.112 2.58704 -4.38121 0
M  V30 2054 H 200.51 5.10509 -2.43715 0
M  V30 2055 H 199.067 5.70627 -3.15004 0
M  V30 2056 N 202.5 1.5196 0.417844 0
M  V30 2057 C 203.746 1.65836 1.16732 0
M  V30 2058 C 204.079 0.382881 1.90388 0
M  V30 2059 O 203.354 -0.618368 1.84408 0
M  V30 2060 C 203.637 2.87466 2.16876 0
M  V30 2061 C 203.49 4.25041 1.47174 0
M  V30 2062 C 204.809 3.04613 3.17646 0
M  V30 2063 H 201.928 0.603515 0.423011 0
M  V30 2064 H 204.57 1.84494 0.454105 0
M  V30 2065 H 202.72 2.71689 2.777 0
M  V30 2066 H 204.392 4.52527 0.895376 0
M  V30 2067 H 202.635 4.26843 0.773806 0
M  V30 2068 H 203.306 5.06176 2.20204 0
M  V30 2069 H 205.782 3.1923 2.66892 0
M  V30 2070 H 204.658 3.91247 3.8499 0
M  V30 2071 H 204.919 2.17541 3.84874 0
M  V30 2072 N 203.978 -0.674533 1.42435 0
M  V30 2073 C 205.227 -1.43034 1.42212 0
M  V30 2074 C 205.54 -1.95555 0.0420788 0
M  V30 2075 O 206.746 -2.71374 -0.0827558 0
M  V30 2076 C 205.202 -2.58748 2.50155 0
M  V30 2077 C 204.81 -2.12925 3.94166 0
M  V30 2078 C 206.554 -3.36257 2.59098 0
M  V30 2079 C 204.461 -3.25723 4.93618 0
M  V30 2080 H 203.391 -0.537345 0.528939 0
M  V30 2081 H 206.042 -0.73024 1.68344 0
M  V30 2082 H 204.424 -3.31128 2.17188 0
M  V30 2083 H 205.598 -1.47697 4.36488 0
M  V30 2084 H 203.913 -1.48354 3.89076 0
M  V30 2085 H 206.51 -4.20264 3.30578 0
M  V30 2086 H 206.853 -3.82866 1.63461 0
M  V30 2087 H 207.386 -2.70947 2.9126 0
M  V30 2088 H 204.125 -2.84105 5.90732 0
M  V30 2089 H 203.645 -3.89732 4.55926 0
M  V30 2090 H 205.324 -3.91186 5.15347 0
M  V30 2091 N 205.456 -1.28612 -0.910864 0
M  V30 2092 C 206.366 -1.14643 -2.0468 0
M  V30 2093 C 207.382 -0.0723121 -1.7385 0
M  V30 2094 O 208.558 -0.282178 -1.99413 0
M  V30 2095 C 205.623 -0.812561 -3.37044 0
M  V30 2096 C 204.684 -1.96935 -3.81465 0
M  V30 2097 C 203.917 -1.65131 -5.07511 0
M  V30 2098 O 204.14 -0.567013 -5.67575 0
M  V30 2099 O 203.074 -2.49585 -5.47714 0
M  V30 2100 H 206.9 -2.1001 -2.19384 0
M  V30 2101 H 204.485 -1.07958 -1.03274 0
M  V30 2102 H 206.367 -0.640441 -4.16505 0
M  V30 2103 H 205.042 0.111426 -3.23508 0
M  V30 2104 H 203.949 -2.19664 -3.02818 0
M  V30 2105 H 205.282 -2.87414 -3.99567 0
M  V30 2106 N 206.934 1.1197 -1.10907 0
M  V30 2107 C 207.897 2.16031 -0.765707 0
M  V30 2108 C 208.897 1.59393 0.212235 0
M  V30 2109 O 210.087 1.74196 -0.0115441 0
M  V30 2110 C 207.219 3.40632 -0.135053 0
M  V30 2111 H 208.412 2.47919 -1.68748 0
M  V30 2112 H 205.965 1.27061 -0.910226 0
M  V30 2113 H 206.7 3.14348 0.797218 0
M  V30 2114 H 206.485 3.8302 -0.838937 0
M  V30 2115 H 207.975 4.17505 0.0892469 0
M  V30 2116 N 208.412 0.89855 1.29475 0
M  V30 2117 C 209.362 0.346767 2.25348 0
M  V30 2118 C 210.346 -0.532509 1.51833 0
M  V30 2119 O 211.538 -0.374714 1.72988 0
M  V30 2120 C 208.667 -0.425681 3.40651 0
M  V30 2121 C 207.753 0.46845 4.21505 0
M  V30 2122 N 208.144 1.57514 4.80648 0
M  V30 2123 C 206.442 0.26603 4.45206 0
M  V30 2124 C 207.143 2.12889 5.41344 0
M  V30 2125 N 206.119 1.42208 5.24669 0
M  V30 2126 H 209.921 1.19219 2.68634 0
M  V30 2127 H 207.435 0.749473 1.44072 0
M  V30 2128 H 209.432 -0.837716 4.08397 0
M  V30 2129 H 208.092 -1.26838 2.98902 0
M  V30 2130 H 209.103 1.95789 4.79465 0
M  V30 2131 H 205.78 -0.538394 4.14014 0
M  V30 2132 H 207.17 3.05901 5.98226 0
M  V30 2133 N 209.89 -1.43072 0.660911 0
M  V30 2134 C 210.82 -2.33497 -0.0122829 0
M  V30 2135 C 211.801 -1.49903 -0.803925 0
M  V30 2136 O 212.986 -1.78546 -0.763864 0
M  V30 2137 C 210.116 -3.33363 -0.973994 0
M  V30 2138 C 209.07 -4.27003 -0.291928 0
M  V30 2139 C 208.396 -5.16967 -1.36562 0
M  V30 2140 C 209.696 -5.15816 0.820462 0
M  V30 2141 H 211.39 -2.90038 0.742873 0
M  V30 2142 H 208.936 -1.39461 0.358688 0
M  V30 2143 H 210.889 -3.95524 -1.45392 0
M  V30 2144 H 209.613 -2.75095 -1.7604 0
M  V30 2145 H 208.272 -3.66217 0.167623 0
M  V30 2146 H 207.92 -4.55034 -2.14366 0
M  V30 2147 H 207.62 -5.80441 -0.914454 0
M  V30 2148 H 209.144 -5.82003 -1.84675 0
M  V30 2149 H 210.558 -5.71742 0.422366 0
M  V30 2150 H 208.955 -5.8805 1.19656 0
M  V30 2151 H 210.025 -4.55045 1.67518 0
M  V30 2152 N 211.368 -0.403325 -1.52352 0
M  V30 2153 C 212.316 0.439752 -2.28405 0
M  V30 2154 C 213.31 1.05089 -1.32863 0
M  V30 2155 O 214.516 0.989759 -1.50345 0
M  V30 2156 H 210.891 0.160587 -0.734653 0
M  V30 2157 H 212.862 -0.222983 -2.97566 0
M  V30 2158 C 211.611 1.54736 -3.11371 0
M  V30 2159 H 210.934 1.08643 -3.84755 0
M  V30 2160 H 212.374 2.1112 -3.67701 0
M  V30 2161 C 210.833 2.51141 -2.24566 0
M  V30 2162 O 211.363 3.54887 -1.88196 0
M  V30 2163 N 209.569 2.21213 -1.8845 0
M  V30 2164 H 209.116 1.36878 -2.18225 0
M  V30 2165 H 209.074 2.85963 -1.30662 0
M  V30 2166 N 212.846 1.57033 -0.133567 0
M  V30 2167 C 214.092 1.95976 0.521649 0
M  V30 2168 C 214.425 1.01779 1.65393 0
M  V30 2169 O 213.7 0.0576581 1.94415 0
M  V30 2170 C 213.983 3.44738 1.04057 0
M  V30 2171 C 213.836 4.49711 -0.0892897 0
M  V30 2172 C 215.155 3.95682 1.92675 0
M  V30 2173 H 212.274 0.712579 0.188149 0
M  V30 2174 H 214.916 1.88813 -0.212076 0
M  V30 2175 H 213.066 3.50973 1.66583 0
M  V30 2176 H 214.738 4.55565 -0.725152 0
M  V30 2177 H 212.981 4.27261 -0.750378 0
M  V30 2178 H 213.652 5.51099 0.315284 0
M  V30 2179 H 216.128 3.91841 1.39998 0
M  V30 2180 H 215.004 5.00262 2.25897 0
M  V30 2181 H 215.265 3.37239 2.85872 0
M  V30 2182 N 214.325 -0.140222 1.56975 0
M  V30 2183 C 215.555 -0.865181 1.87612 0
M  V30 2184 C 215.963 -1.74942 0.72055 0
M  V30 2185 O 215.306 -1.80917 -0.318561 0
M  V30 2186 C 215.368 -1.76782 3.13031 0
M  V30 2187 C 215.032 -1.06005 4.44536 0
M  V30 2188 C 216.029 -0.410768 5.18275 0
M  V30 2189 C 213.714 -1.04754 4.91255 0
M  V30 2190 C 215.708 0.241572 6.36942 0
M  V30 2191 C 213.395 -0.391394 6.09845 0
M  V30 2192 C 214.393 0.252029 6.82535 0
M  V30 2193 O 214.081 0.897757 7.98871 0
M  V30 2194 H 213.813 -0.255188 0.625983 0
M  V30 2195 H 216.367 -0.135653 2.04952 0
M  V30 2196 H 214.597 -2.53846 2.91718 0
M  V30 2197 H 216.286 -2.36533 3.29859 0
M  V30 2198 H 217.052 -0.412195 4.83245 0
M  V30 2199 H 212.931 -1.53777 4.34596 0
M  V30 2200 H 216.475 0.744375 6.93617 0
M  V30 2201 H 212.372 -0.387656 6.44335 0
M  V30 2202 H 213.14 0.800102 8.1458 0
M  V30 2203 N 215.803 -1.52179 -0.40978 0
M  V30 2204 C 217.033 -1.69807 -1.17682 0
M  V30 2205 C 217.441 -0.406908 -1.84773 0
M  V30 2206 O 216.784 0.626863 -1.72673 0
M  V30 2207 C 216.846 -2.77712 -2.2829 0
M  V30 2208 C 216.51 -4.19481 -1.81341 0
M  V30 2209 C 217.507 -5.03345 -1.30154 0
M  V30 2210 C 215.192 -4.65713 -1.88194 0
M  V30 2211 C 217.186 -6.31511 -0.864416 0
M  V30 2212 C 214.873 -5.93869 -1.44093 0
M  V30 2213 C 215.871 -6.76597 -0.933023 0
M  V30 2214 O 215.559 -8.02354 -0.49838 0
M  V30 2215 H 215.291 -0.572372 -0.359675 0
M  V30 2216 H 217.845 -1.99511 -0.488311 0
M  V30 2217 H 216.075 -2.43383 -3.00502 0
M  V30 2218 H 217.764 -2.83946 -2.90051 0
M  V30 2219 H 218.53 -4.68819 -1.24232 0
M  V30 2220 H 214.409 -4.01424 -2.26671 0
M  V30 2221 H 217.953 -6.96033 -0.467286 0
M  V30 2222 H 213.85 -6.27903 -1.49694 0
M  V30 2223 H 214.618 -8.16135 -0.621747 0
M  V30 2224 N 217.281 0.66697 -1.42791 0
M  V30 2225 C 218.53 1.42278 -1.42968 0
M  V30 2226 C 218.843 1.9553 -0.0524489 0
M  V30 2227 O 220.049 2.71414 0.068363 0
M  V30 2228 C 218.505 2.57418 -2.51524 0
M  V30 2229 C 218.113 2.10832 -3.9529 0
M  V30 2230 C 219.857 3.34878 -2.60877 0
M  V30 2231 C 217.764 3.23101 -4.95338 0
M  V30 2232 H 216.694 0.534533 -0.531781 0
M  V30 2233 H 219.345 0.721302 -1.68729 0
M  V30 2234 H 217.727 3.29971 -2.18941 0
M  V30 2235 H 218.901 1.4538 -4.37266 0
M  V30 2236 H 217.216 1.46289 -3.89857 0
M  V30 2237 H 219.813 4.18505 -3.32802 0
M  V30 2238 H 220.156 3.81993 -1.6549 0
M  V30 2239 H 220.689 2.69398 -2.92693 0
M  V30 2240 H 217.428 2.80969 -5.9223 0
M  V30 2241 H 216.948 3.87309 -4.57987 0
M  V30 2242 H 218.627 3.88447 -5.17415 0
M  V30 2243 N 218.759 1.29093 0.90403 0
M  V30 2244 C 220.008 1.16187 1.64874 0
M  V30 2245 C 220.321 -0.286742 1.93487 0
M  V30 2246 O 221.527 -0.537062 2.66135 0
M  V30 2247 C 219.983 2.03177 2.97064 0
M  V30 2248 C 219.591 3.52836 2.76062 0
M  V30 2249 C 221.335 1.98984 3.74974 0
M  V30 2250 C 219.242 4.31945 4.03952 0
M  V30 2251 H 218.172 0.431246 0.618501 0
M  V30 2252 H 220.823 1.53699 1.00243 0
M  V30 2253 H 219.205 1.5853 3.62883 0
M  V30 2254 H 220.379 4.05507 2.18863 0
M  V30 2255 H 218.694 3.58656 2.11553 0
M  V30 2256 H 221.291 2.55351 4.69787 0
M  V30 2257 H 221.634 0.968815 4.0487 0
M  V30 2258 H 222.167 2.41652 3.15989 0
M  V30 2259 H 218.906 5.34667 3.79225 0
M  V30 2260 H 218.426 3.84045 4.60727 0
M  V30 2261 H 220.105 4.42379 4.72133 0
M  V30 2262 N 220.237 -1.11381 1.11499 0
M  V30 2263 C 221.486 -1.82494 0.858993 0
M  V30 2264 C 221.799 -1.85605 -0.617278 0
M  V30 2265 O 223.005 -2.52824 -0.989552 0
M  V30 2266 C 221.461 -3.27745 1.48699 0
M  V30 2267 C 221.069 -3.32961 2.99735 0
M  V30 2268 C 222.813 -4.03754 1.31085 0
M  V30 2269 C 220.72 -4.72612 3.55516 0
M  V30 2270 H 219.65 -0.683802 0.317696 0
M  V30 2271 H 222.301 -1.25331 1.34031 0
M  V30 2272 H 220.683 -3.84844 0.933339 0
M  V30 2273 H 221.857 -2.85741 3.61509 0
M  V30 2274 H 220.172 -2.70433 3.16631 0
M  V30 2275 H 222.769 -5.06891 1.70192 0
M  V30 2276 H 223.112 -4.15527 0.253496 0
M  V30 2277 H 223.645 -3.53043 1.83318 0
M  V30 2278 H 220.384 -4.66036 4.60967 0
M  V30 2279 H 219.904 -5.2024 2.98513 0
M  V30 2280 H 221.583 -5.4157 3.53992 0
M  V30 2281 N 221.715 -0.905404 -1.28997 0
M  V30 2282 C 222.645 -0.404212 -2.29975 0
M  V30 2283 C 223.626 0.523784 -1.61835 0
M  V30 2284 O 224.811 0.433298 -1.89304 0
M  V30 2285 C 221.941 0.364042 -3.45387 0
M  V30 2286 C 220.895 -0.474048 -4.25367 0
M  V30 2287 C 220.221 0.422045 -5.33032 0
M  V30 2288 C 221.521 -1.72696 -4.92923 0
M  V30 2289 H 223.215 -1.24807 -2.72146 0
M  V30 2290 H 220.761 -0.601585 -1.30832 0
M  V30 2291 H 222.714 0.725447 -4.15109 0
M  V30 2292 H 221.438 1.24174 -3.02074 0
M  V30 2293 H 220.097 -0.81786 -3.57361 0
M  V30 2294 H 219.745 1.29804 -4.85963 0
M  V30 2295 H 219.445 -0.135057 -5.87445 0
M  V30 2296 H 220.969 0.779517 -6.05604 0
M  V30 2297 H 222.383 -1.43495 -5.55051 0
M  V30 2298 H 220.78 -2.22582 -5.57295 0
M  V30 2299 H 221.85 -2.45964 -4.17887 0
M  V30 2300 N 223.193 1.4272 -0.668489 0
M  V30 2301 C 224.156 2.292 0.00448567 0
M  V30 2302 C 225.156 1.43001 0.735339 0
M  V30 2303 O 226.346 1.64461 0.57429 0
M  V30 2304 C 223.478 3.25375 1.01705 0
M  V30 2305 H 224.671 2.90199 -0.756608 0
M  V30 2306 H 222.224 1.50254 -0.430506 0
M  V30 2307 H 222.959 2.69301 1.80686 0
M  V30 2308 H 222.744 3.88944 0.496463 0
M  V30 2309 H 224.234 3.90245 1.48655 0
M  V30 2310 N 224.671 0.411399 1.52136 0
M  V30 2311 C 225.917 -0.156262 2.02799 0
M  V30 2312 C 226.272 -1.42613 1.29149 0
M  V30 2313 O 225.565 -1.87592 0.389839 0
M  V30 2314 C 225.759 -0.455872 3.54481 0
M  V30 2315 C 225.588 0.783404 4.42824 0
M  V30 2316 C 224.358 1.30928 4.88043 0
M  V30 2317 C 226.556 1.66217 4.86699 0
M  V30 2318 N 224.538 2.5038 5.6052 0
M  V30 2319 C 225.909 2.70292 5.5798 0
M  V30 2320 C 227.964 1.67966 4.68713 0
M  V30 2321 C 226.667 3.7603 6.13184 0
M  V30 2322 C 228.693 2.72624 5.24815 0
M  V30 2323 C 228.055 3.7542 5.9602 0
M  V30 2324 H 224.154 -0.0186886 0.781777 0
M  V30 2325 H 226.738 0.566255 1.86284 0
M  V30 2326 H 224.909 -1.14743 3.71064 0
M  V30 2327 H 226.641 -1.01261 3.91827 0
M  V30 2328 H 223.396 0.866977 4.65597 0
M  V30 2329 H 223.82 3.10881 6.014 0
M  V30 2330 H 228.462 0.898312 4.13147 0
M  V30 2331 H 226.18 4.55019 6.6782 0
M  V30 2332 H 229.766 2.74887 5.12765 0
M  V30 2333 H 228.646 4.55073 6.38654 0
M  V30 2334 N 226.149 -1.5696 0.141893 0
M  V30 2335 C 227.112 -2.15316 -0.785587 0
M  V30 2336 C 228.112 -1.09366 -1.1788 0
M  V30 2337 O 229.302 -1.35031 -1.10056 0
M  V30 2338 C 226.434 -2.71211 -2.06537 0
M  V30 2339 H 227.627 -2.98608 -0.278041 0
M  V30 2340 H 225.18 -1.5593 -0.107519 0
M  V30 2341 H 225.915 -1.91571 -2.6167 0
M  V30 2342 H 225.7 -3.4872 -1.79268 0
M  V30 2343 H 227.19 -3.16189 -2.72789 0
M  V30 2344 N 227.627 0.131896 -1.57047 0
M  V30 2345 C 228.876 0.84044 -1.83356 0
M  V30 2346 C 229.189 1.81646 -0.725535 0
M  V30 2347 O 230.395 2.57025 -0.874659 0
M  V30 2348 C 228.851 1.54528 -3.25037 0
M  V30 2349 C 228.459 0.610902 -4.43815 0
M  V30 2350 C 230.203 2.23972 -3.60606 0
M  V30 2351 C 228.11 1.31823 -5.76521 0
M  V30 2352 H 227.04 0.317599 -0.683847 0
M  V30 2353 H 229.691 0.0931561 -1.83263 0
M  V30 2354 H 228.073 2.33873 -3.19561 0
M  V30 2355 H 229.247 -0.148407 -4.60561 0
M  V30 2356 H 227.562 0.0241016 -4.16393 0
M  V30 2357 H 230.159 2.77558 -4.57018 0
M  V30 2358 H 230.502 3.01173 -2.87403 0
M  V30 2359 H 231.035 1.51529 -3.6781 0
M  V30 2360 H 227.774 0.587771 -6.52859 0
M  V30 2361 H 227.294 2.04987 -5.63685 0
M  V30 2362 H 228.973 1.855 -6.19838 0
M  V30 2363 N 229.106 1.52395 0.401703 0
M  V30 2364 C 230.353 1.66817 1.14796 0
M  V30 2365 C 230.681 0.401772 1.90305 0
M  V30 2366 O 229.936 -0.615487 1.85769 0
M  V30 2367 C 230.235 2.84578 2.16217 0
M  V30 2368 C 229.901 4.22513 1.5746 0
M  V30 2369 C 228.563 4.60029 1.41161 0
M  V30 2370 C 230.915 5.0844 1.14622 0
M  V30 2371 C 228.243 5.81144 0.80552 0
M  V30 2372 C 230.595 6.30167 0.55428 0
M  V30 2373 C 229.259 6.66426 0.378482 0
M  V30 2374 H 228.529 0.610428 0.420069 0
M  V30 2375 H 231.176 1.86512 0.434212 0
M  V30 2376 H 229.481 2.59248 2.93764 0
M  V30 2377 H 231.178 2.92933 2.73845 0
M  V30 2378 H 227.768 3.92953 1.71132 0
M  V30 2379 H 231.952 4.80034 1.26021 0
M  V30 2380 H 227.208 6.07855 0.657399 0
M  V30 2381 H 231.382 6.96071 0.213983 0
M  V30 2382 H 229.009 7.60143 -0.0932606 0
M  V30 2383 N 230.584 -0.659388 1.43143 0
M  V30 2384 C 231.814 -1.44513 1.47646 0
M  V30 2385 C 232.222 -1.88981 0.0910095 0
M  V30 2386 O 231.565 -1.59702 -0.907789 0
M  V30 2387 C 231.627 -2.71663 2.35456 0
M  V30 2388 C 231.291 -2.49175 3.83094 0
M  V30 2389 C 232.288 -2.1279 4.74359 0
M  V30 2390 C 229.973 -2.63691 4.27519 0
M  V30 2391 C 231.967 -1.9121 6.08044 0
M  V30 2392 C 229.654 -2.41726 5.61259 0
M  V30 2393 C 230.652 -2.0554 6.51339 0
M  V30 2394 O 230.34 -1.838 7.82606 0
M  V30 2395 H 230.072 -0.45064 0.503884 0
M  V30 2396 H 232.626 -0.816248 1.88485 0
M  V30 2397 H 230.856 -3.37089 1.89493 0
M  V30 2398 H 232.545 -3.33595 2.31235 0
M  V30 2399 H 233.311 -2.01157 4.41317 0
M  V30 2400 H 229.19 -2.90832 3.57684 0
M  V30 2401 H 232.734 -1.62889 6.78316 0
M  V30 2402 H 228.631 -2.52959 5.9387 0
M  V30 2403 H 229.399 -1.98275 7.94122 0
M  V30 2404 N 232.062 -1.29571 -0.897171 0
M  V30 2405 C 232.992 -1.17473 -2.01798 0
M  V30 2406 C 233.973 -0.068323 -1.69963 0
M  V30 2407 O 235.158 -0.248239 -1.92607 0
M  V30 2408 C 232.288 -0.853099 -3.36659 0
M  V30 2409 C 231.242 -1.9161 -3.82713 0
M  V30 2410 C 230.568 -1.44773 -5.14728 0
M  V30 2411 C 231.868 -3.32535 -4.02763 0
M  V30 2412 H 233.562 -2.11237 -2.12177 0
M  V30 2413 H 231.108 -1.01699 -1.01948 0
M  V30 2414 H 233.061 -0.755165 -4.14578 0
M  V30 2415 H 231.785 0.120236 -3.26379 0
M  V30 2416 H 230.444 -2.00346 -3.07013 0
M  V30 2417 H 230.092 -0.462995 -5.00865 0
M  V30 2418 H 229.792 -2.15865 -5.46513 0
M  V30 2419 H 231.316 -1.36334 -5.95185 0
M  V30 2420 H 232.73 -3.26626 -4.71156 0
M  V30 2421 H 231.127 -4.01607 -4.45905 0
M  V30 2422 H 232.197 -3.75326 -3.07016 0
M  V30 2423 N 233.54 1.10788 -1.12088 0
M  V30 2424 C 234.765 1.87002 -0.896949 0
M  V30 2425 C 235.19 1.79933 0.548261 0
M  V30 2426 O 234.548 1.16662 1.38779 0
M  V30 2427 C 234.596 3.3349 -1.37174 0
M  V30 2428 O 233.7 4.08745 -0.547831 0
M  V30 2429 H 233.041 0.580397 -0.322545 0
M  V30 2430 H 235.571 1.39996 -1.49206 0
M  V30 2431 H 235.581 3.84339 -1.36922 0
M  V30 2432 H 234.256 3.37951 -2.42408 0
M  V30 2433 H 232.833 3.6776 -0.617034 0
M  V30 2434 N 235.018 0.912232 1.28515 0
M  V30 2435 C 235.966 0.389597 2.29314 0
M  V30 2436 C 236.96 -0.517915 1.61289 0
M  V30 2437 O 238.166 -0.399328 1.75515 0
M  V30 2438 H 234.541 0.107386 0.744293 0
M  V30 2439 H 236.512 1.25286 2.70825 0
M  V30 2440 C 235.261 -0.356496 3.45868 0
M  V30 2441 H 234.584 0.332608 3.98414 0
M  V30 2442 H 236.024 -0.686851 4.184 0
M  V30 2443 C 234.483 -1.56383 2.98406 0
M  V30 2444 O 235.013 -2.66294 3.00749 0
M  V30 2445 N 233.219 -1.41029 2.54085 0
M  V30 2446 H 232.766 -0.516089 2.52377 0
M  V30 2447 H 232.724 -2.21939 2.22689 0
M  V30 2448 N 236.496 -1.42363 0.676048 0
M  V30 2449 C 237.736 -2.03392 0.20273 0
M  V30 2450 C 238.1 -1.52306 -1.16906 0
M  V30 2451 O 239.301 -2.05129 -1.73711 0
M  V30 2452 C 237.572 -3.56614 0.236947 0
M  V30 2453 S 239.131 -4.38489 -0.165186 0
M  V30 2454 H 235.949 -0.70611 0.0832418 0
M  V30 2455 H 238.551 -1.74093 0.88948 0
M  V30 2456 H 237.255 -3.91293 1.23767 0
M  V30 2457 H 236.786 -3.90587 -0.469596 0
M  V30 2458 H 238.801 -4.76093 -1.39822 0
M  V30 2459 N 237.974 -0.419461 -1.51915 0
M  V30 2460 C 239.221 0.152939 -2.01922 0
M  V30 2461 C 239.549 1.4426 -1.30458 0
M  V30 2462 O 238.804 1.91514 -0.402593 0
M  V30 2463 C 239.103 0.437067 -3.54717 0
M  V30 2464 C 238.769 -0.764632 -4.44369 0
M  V30 2465 C 237.431 -1.09423 -4.68594 0
M  V30 2466 C 239.783 -1.56713 -4.97082 0
M  V30 2467 C 237.111 -2.22732 -5.42777 0
M  V30 2468 C 239.463 -2.69107 -5.72507 0
M  V30 2469 C 238.127 -3.02541 -5.95 0
M  V30 2470 H 237.397 0.0559644 -0.738884 0
M  V30 2471 H 240.044 -0.562998 -1.83037 0
M  V30 2472 H 238.349 1.23469 -3.71837 0
M  V30 2473 H 240.046 0.893083 -3.90928 0
M  V30 2474 H 236.636 -0.497775 -4.257 0
M  V30 2475 H 240.82 -1.32571 -4.78266 0
M  V30 2476 H 236.076 -2.48971 -5.58411 0
M  V30 2477 H 240.25 -3.31671 -6.12346 0
M  V30 2478 H 237.877 -3.90457 -6.52264 0
M  V30 2479 N 239.452 1.56882 -0.150215 0
M  V30 2480 C 240.68 2.00593 0.506948 0
M  V30 2481 C 241.095 1.03033 1.58208 0
M  V30 2482 O 240.452 0.0278396 1.82479 0
M  V30 2483 C 240.503 3.44209 1.10465 0
M  V30 2484 O 240.224 4.3804 0.0724636 0
M  V30 2485 C 241.725 4.03214 1.84211 0
M  V30 2486 H 238.945 0.65795 0.13169 0
M  V30 2487 H 241.489 2.03018 -0.245743 0
M  V30 2488 H 239.644 3.42625 1.80795 0
M  V30 2489 H 240.058 5.22007 0.510793 0
M  V30 2490 H 241.532 5.0569 2.21318 0
M  V30 2491 H 242.009 3.44107 2.72923 0
M  V30 2492 H 242.615 4.08437 1.18572 0
M  V30 2493 N 240.93 -0.123565 1.57115 0
M  V30 2494 C 242.158 -0.846461 1.88793 0
M  V30 2495 C 242.573 -1.73652 0.740976 0
M  V30 2496 O 241.93 -1.80207 -0.288393 0
M  V30 2497 C 241.981 -1.6837 3.19897 0
M  V30 2498 O 241.702 -0.829477 4.30176 0
M  V30 2499 C 243.203 -2.51214 3.65248 0
M  V30 2500 H 240.423 -0.243573 0.625231 0
M  V30 2501 H 242.967 -0.109324 2.04208 0
M  V30 2502 H 241.122 -2.37364 3.06165 0
M  V30 2503 H 241.536 -1.40651 5.0529 0
M  V30 2504 H 243.01 -3.05497 4.59756 0
M  V30 2505 H 243.487 -3.28359 2.9168 0
M  V30 2506 H 244.093 -1.8747 3.81752 0
M  V30 2507 N 242.408 -1.52605 -0.393616 0
M  V30 2508 C 243.318 -1.79971 -1.50492 0
M  V30 2509 C 244.334 -0.686181 -1.59899 0
M  V30 2510 O 245.51 -0.973274 -1.76322 0
M  V30 2511 C 242.575 -1.95867 -2.86072 0
M  V30 2512 C 241.636 -3.19781 -2.86424 0
M  V30 2513 C 240.869 -3.34909 -4.15538 0
M  V30 2514 O 241.092 -2.54948 -5.10253 0
M  V30 2515 O 240.026 -4.28141 -4.23059 0
M  V30 2516 H 243.852 -2.74328 -1.30299 0
M  V30 2517 H 241.437 -1.3764 -0.581005 0
M  V30 2518 H 243.319 -2.08056 -3.66457 0
M  V30 2519 H 241.994 -1.04699 -3.063 0
M  V30 2520 H 240.901 -3.13038 -2.04837 0
M  V30 2521 H 242.234 -4.1078 -2.71147 0
M  V30 2522 N 243.887 0.651787 -1.4349 0
M  V30 2523 C 244.817 1.77621 -1.51569 0
M  V30 2524 C 245.798 1.66022 -0.370253 0
M  V30 2525 O 246.983 1.85095 -0.587658 0
M  V30 2526 C 244.113 3.16056 -1.43966 0
M  V30 2527 C 243.067 3.4242 -2.56774 0
M  V30 2528 C 242.393 4.8067 -2.34223 0
M  V30 2529 C 243.693 3.37023 -3.99015 0
M  V30 2530 H 245.387 1.71117 -2.45681 0
M  V30 2531 H 242.933 0.821825 -1.18246 0
M  V30 2532 H 244.886 3.94472 -1.48221 0
M  V30 2533 H 243.61 3.23293 -0.463586 0
M  V30 2534 H 242.269 2.66375 -2.51873 0
M  V30 2535 H 241.917 4.84585 -1.34856 0
M  V30 2536 H 241.617 4.9927 -3.09844 0
M  V30 2537 H 243.141 5.61342 -2.40265 0
M  V30 2538 H 244.555 4.05374 -4.05395 0
M  V30 2539 H 242.952 3.67159 -4.74673 0
M  V30 2540 H 244.022 2.3518 -4.2405 0
M  V30 2541 N 245.365 1.30045 0.890287 0
M  V30 2542 C 246.776 1.16738 1.45702 0
M  V30 2543 C 247.127 -0.233939 1.948 0
M  V30 2544 O 246.252 -1.13021 1.84541 0
M  V30 2545 C 246.847 2.11313 2.64825 0
M  V30 2546 C 245.406 2.02001 3.17604 0
M  V30 2547 C 244.553 2.01699 1.90296 0
M  V30 2548 H 247.504 1.42392 0.700726 0
M  V30 2549 H 247.525 1.69086 3.40867 0
M  V30 2550 H 247.037 3.13294 2.2906 0
M  V30 2551 H 245.138 1.03142 3.5804 0
M  V30 2552 H 245.251 2.90128 3.81264 0
M  V30 2553 H 243.615 1.46427 2.08402 0
M  V30 2554 H 244.398 3.05402 1.56795 0
M  V30 2555 N 246.843 -1.10192 1.12674 0
M  V30 2556 C 248.089 -1.82658 0.894847 0
M  V30 2557 C 248.444 -1.83666 -0.573107 0
M  V30 2558 O 247.737 -1.28816 -1.41835 0
M  V30 2559 C 247.931 -3.28552 1.4067 0
M  V30 2560 C 247.76 -3.41756 2.92289 0
M  V30 2561 C 246.53 -3.54021 3.60551 0
M  V30 2562 C 248.728 -3.34949 3.90274 0
M  V30 2563 N 246.71 -3.55827 5.0026 0
M  V30 2564 C 248.081 -3.43531 5.16127 0
M  V30 2565 C 250.136 -3.18565 3.8265 0
M  V30 2566 C 248.839 -3.37416 6.3525 0
M  V30 2567 C 250.865 -3.13772 5.01299 0
M  V30 2568 C 250.227 -3.22938 6.26012 0
M  V30 2569 H 246.326 -0.683044 0.380756 0
M  V30 2570 H 248.91 -1.31752 1.43351 0
M  V30 2571 H 247.081 -3.77946 0.895055 0
M  V30 2572 H 248.813 -3.88991 1.11661 0
M  V30 2573 H 245.568 -3.57135 3.1105 0
M  V30 2574 H 245.992 -3.60335 5.73138 0
M  V30 2575 H 250.634 -3.10354 2.87124 0
M  V30 2576 H 248.352 -3.44391 7.3104 0
M  V30 2577 H 251.938 -3.02242 4.97133 0
M  V30 2578 H 250.818 -3.19235 7.16281 0
M  V30 2579 N 248.321 -0.919034 -1.28029 0
M  V30 2580 C 249.284 -0.416182 -2.2539 0
M  V30 2581 C 250.284 0.460438 -1.54067 0
M  V30 2582 O 251.474 0.262744 -1.72207 0
M  V30 2583 C 248.606 0.402707 -3.38513 0
M  V30 2584 H 249.799 -1.27629 -2.71387 0
M  V30 2585 H 247.352 -0.698919 -1.39803 0
M  V30 2586 H 248.087 1.282 -2.97885 0
M  V30 2587 H 247.872 -0.225698 -3.9145 0
M  V30 2588 H 249.362 0.745191 -4.10897 0
M  V30 2589 N 249.799 1.42003 -0.683588 0
M  V30 2590 C 251.027 2.05746 -0.218182 0
M  V30 2591 C 251.442 1.51396 1.12804 0
M  V30 2592 O 250.799 0.657303 1.70252 0
M  V30 2593 C 250.85 3.61171 -0.154131 0
M  V30 2594 O 250.571 4.13508 -1.44716 0
M  V30 2595 C 252.072 4.42042 0.333713 0
M  V30 2596 H 249.292 0.662888 -0.10402 0
M  V30 2597 H 251.836 1.81987 -0.9328 0
M  V30 2598 H 249.991 3.84012 0.511231 0
M  V30 2599 H 250.405 5.07453 -1.32632 0
M  V30 2600 H 251.879 5.51028 0.327423 0
M  V30 2601 H 252.356 4.17269 1.37053 0
M  V30 2602 H 252.962 4.24239 -0.300222 0
M  V30 2603 N 251.277 0.427512 1.51691 0
M  V30 2604 C 252.517 -0.141524 2.03909 0
M  V30 2605 C 252.881 -1.40811 1.30523 0
M  V30 2606 O 254.082 -2.05676 1.73063 0
M  V30 2607 C 252.353 -0.364962 3.55532 0
M  V30 2608 S 253.912 -0.898812 4.29496 0
M  V30 2609 H 250.73 -0.0364542 0.710065 0
M  V30 2610 H 253.332 0.584659 1.86553 0
M  V30 2611 H 252.036 0.56336 4.06515 0
M  V30 2612 H 251.567 -1.1185 3.77164 0
M  V30 2613 H 253.582 -2.17747 4.45871 0
M  V30 2614 N 252.755 -1.56801 0.158532 0
M  V30 2615 C 254.003 -1.96102 -0.488712 0
M  V30 2616 C 254.324 -1.04498 -1.64636 0
M  V30 2617 O 253.594 -0.108783 -1.95598 0
M  V30 2618 H 252.174 -0.724102 -0.183535 0
M  V30 2619 H 254.836 -1.93457 0.236728 0
M  V30 2620 H 253.932 -3.00097 -0.857219 0
M  V30 2621 N 254.233 0.115231 -1.57178 0
M  V30 2622 C 255.183 1.14707 -1.97044 0
M  V30 2623 C 256.167 1.36866 -0.845957 0
M  V30 2624 O 257.359 1.37895 -1.10968 0
M  V30 2625 C 254.488 2.47266 -2.38148 0
M  V30 2626 C 253.574 2.28566 -3.57237 0
M  V30 2627 N 253.965 1.79685 -4.72807 0
M  V30 2628 C 252.263 2.59208 -3.62943 0
M  V30 2629 C 252.964 1.74781 -5.54821 0
M  V30 2630 N 251.94 2.19264 -4.97417 0
M  V30 2631 H 255.742 0.761754 -2.83857 0
M  V30 2632 H 253.256 0.322928 -1.59157 0
M  V30 2633 H 255.253 3.219 -2.64927 0
M  V30 2634 H 253.913 2.86552 -1.52702 0
M  V30 2635 H 254.924 1.49177 -4.9595 0
M  V30 2636 H 251.601 3.02154 -2.88113 0
M  V30 2637 H 252.991 1.38212 -6.57531 0
M  V30 2638 N 255.711 1.52812 0.385517 0
M  V30 2639 C 256.621 1.80766 1.49535 0
M  V30 2640 C 257.637 0.694651 1.59532 0
M  V30 2641 O 258.813 0.982611 1.75803 0
M  V30 2642 C 255.878 1.97381 2.85029 0
M  V30 2643 C 254.939 3.21295 2.84724 0
M  V30 2644 C 254.172 3.37108 4.13756 0
M  V30 2645 O 254.395 2.5765 5.08893 0
M  V30 2646 O 253.329 4.30378 4.20783 0
M  V30 2647 H 257.155 2.75015 1.28842 0
M  V30 2648 H 254.74 1.37946 0.573697 0
M  V30 2649 H 256.622 2.09996 3.65349 0
M  V30 2650 H 255.297 1.06322 3.05741 0
M  V30 2651 H 254.204 3.1412 2.03174 0
M  V30 2652 H 255.537 4.12212 2.68965 0
M  V30 2653 N 257.189 -0.644168 1.43834 0
M  V30 2654 C 258.435 -1.40431 1.47141 0
M  V30 2655 C 258.79 -1.92153 0.0975577 0
M  V30 2656 O 258.083 -1.69924 -0.885232 0
M  V30 2657 C 258.277 -2.59615 2.45631 0
M  V30 2658 C 258.106 -2.1956 3.92458 0
M  V30 2659 C 256.876 -2.07456 4.60749 0
M  V30 2660 C 259.074 -1.79281 4.8204 0
M  V30 2661 N 257.056 -1.60827 5.92459 0
M  V30 2662 C 258.427 -1.43801 6.03093 0
M  V30 2663 C 260.482 -1.66545 4.6922 0
M  V30 2664 C 259.185 -0.968599 7.12749 0
M  V30 2665 C 261.211 -1.21008 5.78888 0
M  V30 2666 C 260.573 -0.864711 6.99072 0
M  V30 2667 H 256.672 -0.509182 0.593513 0
M  V30 2668 H 259.256 -0.740351 1.80075 0
M  V30 2669 H 257.427 -3.23658 2.1471 0
M  V30 2670 H 259.159 -3.26357 2.39318 0
M  V30 2671 H 255.914 -2.275 4.1538 0
M  V30 2672 H 256.338 -1.39848 6.62398 0
M  V30 2673 H 260.98 -1.91883 3.7675 0
M  V30 2674 H 258.698 -0.702715 8.05039 0
M  V30 2675 H 262.284 -1.11631 5.7099 0
M  V30 2676 H 261.164 -0.517736 7.82489 0
M  V30 2677 N 258.668 -1.30515 -0.883378 0
M  V30 2678 C 259.616 -1.16941 -2.01066 0
M  V30 2679 C 260.61 -0.0809148 -1.69207 0
M  V30 2680 O 261.816 -0.241877 -1.78367 0
M  V30 2681 H 258.191 -0.361705 -0.659298 0
M  V30 2682 H 260.162 -2.12344 -2.09649 0
M  V30 2683 C 258.911 -0.879694 -3.36388 0
M  V30 2684 H 258.234 -1.70936 -3.61415 0
M  V30 2685 H 259.674 -0.82483 -4.159 0
M  V30 2686 C 258.133 0.417409 -3.34304 0
M  V30 2687 O 258.663 1.43843 -3.75063 0
M  V30 2688 N 256.869 0.429141 -2.87414 0
M  V30 2689 H 256.416 -0.402222 -2.5444 0
M  V30 2690 H 256.374 1.29696 -2.86403 0
M  V30 2691 N 260.146 1.09593 -1.13257 0
M  V30 2692 C 261.374 1.855 -0.916378 0
M  V30 2693 C 261.789 1.81069 0.534738 0
M  V30 2694 O 261.146 1.20562 1.37007 0
M  V30 2695 C 261.197 3.33546 -1.39388 0
M  V30 2696 O 260.918 3.37927 -2.78813 0
M  V30 2697 C 262.419 4.26299 -1.21588 0
M  V30 2698 H 259.639 0.585991 -0.326887 0
M  V30 2699 H 262.183 1.38488 -1.5047 0
M  V30 2700 H 260.338 3.77992 -0.848597 0
M  V30 2701 H 260.752 4.30254 -2.9997 0
M  V30 2702 H 262.226 5.28341 -1.59876 0
M  V30 2703 H 262.703 4.38918 -0.157376 0
M  V30 2704 H 263.309 3.87668 -1.7491 0
M  V30 2705 N 261.624 0.925811 1.2754 0
M  V30 2706 C 262.534 0.428993 2.30644 0
M  V30 2707 C 263.55 -0.489387 1.66976 0
M  V30 2708 O 264.726 -0.372653 1.97922 0
M  V30 2709 C 261.791 -0.311967 3.45294 0
M  V30 2710 C 260.852 0.641098 4.24486 0
M  V30 2711 C 260.085 -0.0645955 5.33661 0
M  V30 2712 O 260.308 -1.28429 5.55754 0
M  V30 2713 O 259.242 0.606265 5.98839 0
M  V30 2714 H 263.068 1.28504 2.75173 0
M  V30 2715 H 260.653 0.691086 1.32455 0
M  V30 2716 H 262.535 -0.729972 4.15029 0
M  V30 2717 H 261.21 -1.14365 3.02824 0
M  V30 2718 H 260.117 1.10874 3.57292 0
M  V30 2719 H 261.45 1.43995 4.70666 0
M  V30 2720 N 263.102 -1.41638 0.69111 0
M  V30 2721 C 264.05 -2.32597 0.0115199 0
M  V30 2722 C 265.044 -1.5072 -0.773296 0
M  V30 2723 O 266.25 -1.66685 -0.67942 0
M  V30 2724 H 262.625 -0.751849 -0.0150746 0
M  V30 2725 H 264.596 -2.87593 0.795791 0
M  V30 2726 C 263.345 -3.35467 -0.914172 0
M  V30 2727 H 262.668 -3.9852 -0.319687 0
M  V30 2728 H 264.108 -4.01662 -1.35808 0
M  V30 2729 C 262.567 -2.69004 -2.02826 0
M  V30 2730 O 263.097 -2.53444 -3.11655 0
M  V30 2731 N 261.303 -2.2777 -1.80469 0
M  V30 2732 H 260.85 -2.40626 -0.919615 0
M  V30 2733 H 260.808 -1.83635 -2.55197 0
M  V30 2734 N 264.58 -0.43555 -1.51462 0
M  V30 2735 C 265.82 0.130708 -2.03982 0
M  V30 2736 C 266.184 1.40117 -1.31268 0
M  V30 2737 O 267.385 2.04755 -1.74152 0
M  V30 2738 C 265.656 0.346102 -3.5572 0
M  V30 2739 S 267.215 0.876022 -4.29967 0
M  V30 2740 H 264.033 0.0326881 -0.710248 0
M  V30 2741 H 266.635 -0.594544 -1.8624 0
M  V30 2742 H 265.339 -0.584911 -4.0621 0
M  V30 2743 H 264.87 1.09849 -3.77752 0
M  V30 2744 H 266.885 2.15379 -4.47019 0
M  V30 2745 N 266.058 1.56714 -0.166846 0
M  V30 2746 C 267.304 1.97039 0.479962 0
M  V30 2747 C 267.637 1.05264 1.63197 0
M  V30 2748 O 266.912 0.0988833 1.94248 0
M  V30 2749 C 267.195 3.46867 0.967212 0
M  V30 2750 C 267.048 4.49421 -0.18466 0
M  V30 2751 C 268.367 3.9968 1.84238 0
M  V30 2752 H 265.486 0.71641 0.172992 0
M  V30 2753 H 268.128 1.8832 -0.252079 0
M  V30 2754 H 266.278 3.54428 1.59101 0
M  V30 2755 H 267.95 4.53924 -0.821621 0
M  V30 2756 H 266.193 4.25573 -0.840837 0
M  V30 2757 H 266.864 5.51644 0.198317 0
M  V30 2758 H 269.34 3.94723 1.31655 0
M  V30 2759 H 268.216 5.04941 2.15234 0
M  V30 2760 H 268.477 3.43226 2.78654 0
M  V30 2761 N 267.536 -0.106894 1.57237 0
M  V30 2762 C 268.446 -1.14911 2.0453 0
M  V30 2763 C 269.462 -1.44592 0.96795 0
M  V30 2764 O 270.638 -1.55468 1.2803 0
M  V30 2765 C 267.703 -2.45272 2.45036 0
M  V30 2766 C 266.764 -2.22879 3.66911 0
M  V30 2767 C 265.997 -3.47024 4.05475 0
M  V30 2768 O 266.22 -4.54804 3.44252 0
M  V30 2769 O 265.154 -3.3731 4.98504 0
M  V30 2770 H 268.98 -0.777461 2.9358 0
M  V30 2771 H 266.565 -0.318563 1.45964 0
M  V30 2772 H 268.447 -3.22055 2.71769 0
M  V30 2773 H 267.122 -2.81886 1.59129 0
M  V30 2774 H 266.029 -1.43915 3.45311 0
M  V30 2775 H 267.362 -1.91163 4.53561 0
M  V30 2776 N 269.014 -1.53014 -0.377408 0
M  V30 2777 C 270.261 -1.68623 -1.12128 0
M  V30 2778 C 270.589 -0.431997 -1.89642 0
M  V30 2779 O 269.844 0.585855 -1.86725 0
M  V30 2780 C 270.143 -2.87982 -2.11663 0
M  V30 2781 C 269.809 -4.24964 -1.50719 0
M  V30 2782 C 268.471 -4.62217 -1.33825 0
M  V30 2783 C 270.823 -5.10199 -1.06519 0
M  V30 2784 C 268.151 -5.82352 -0.712963 0
M  V30 2785 C 270.503 -6.30969 -0.453955 0
M  V30 2786 C 269.167 -6.66944 -0.272411 0
M  V30 2787 H 268.437 -0.617034 -0.410305 0
M  V30 2788 H 271.084 -1.8718 -0.404484 0
M  V30 2789 H 269.389 -2.63889 -2.89603 0
M  V30 2790 H 271.086 -2.97253 -2.6915 0
M  V30 2791 H 267.676 -3.95626 -1.64858 0
M  V30 2792 H 271.86 -4.81978 -1.18368 0
M  V30 2793 H 267.116 -6.08824 -0.560611 0
M  V30 2794 H 271.29 -6.96324 -0.103217 0
M  V30 2795 H 268.917 -7.59898 0.214181 0
M  V30 2796 N 270.492 0.636531 -1.44174 0
M  V30 2797 C 271.424 1.7618 -1.46606 0
M  V30 2798 C 272.437 1.58768 -0.360091 0
M  V30 2799 O 273.626 1.67181 -0.625518 0
M  V30 2800 C 270.726 3.13833 -1.27915 0
M  V30 2801 C 269.899 3.57753 -2.51658 0
M  V30 2802 C 268.958 4.74265 -2.27945 0
M  V30 2803 O 267.984 4.82852 -3.01401 0
M  V30 2804 N 269.186 5.65604 -1.30662 0
M  V30 2805 H 271.951 1.74567 -2.43612 0
M  V30 2806 H 269.512 0.820924 -1.39544 0
M  V30 2807 H 271.504 3.8949 -1.09907 0
M  V30 2808 H 270.074 3.10121 -0.39293 0
M  V30 2809 H 269.294 2.72362 -2.84978 0
M  V30 2810 H 270.582 3.83847 -3.33974 0
M  V30 2811 H 269.98 5.61354 -0.699844 0
M  V30 2812 H 268.537 6.40913 -1.18634 0
M  V30 2813 N 271.97 1.30982 0.876444 0
M  V30 2814 C 272.917 1.18085 1.98304 0
M  V30 2815 C 273.887 0.0682263 1.6596 0
M  V30 2816 O 275.072 0.239937 1.89285 0
M  V30 2817 C 272.212 0.887475 3.33493 0
M  V30 2818 C 271.325 2.08281 3.78475 0
M  V30 2819 C 270.46 1.72678 5.0235 0
M  V30 2820 C 269.499 2.88657 5.39762 0
M  V30 2821 N 268.636 2.53292 6.54819 0
M  V30 2822 H 273.476 2.1275 2.08666 0
M  V30 2823 H 271.013 1.05839 1.02159 0
M  V30 2824 H 272.971 0.697961 4.1132 0
M  V30 2825 H 271.601 -0.022315 3.22792 0
M  V30 2826 H 270.653 2.3833 2.96484 0
M  V30 2827 H 271.965 2.95108 4.02135 0
M  V30 2828 H 271.119 1.50151 5.87826 0
M  V30 2829 H 269.858 0.830327 4.8058 0
M  V30 2830 H 268.863 3.1184 4.52809 0
M  V30 2831 H 270.088 3.79002 5.63502 0
M  V30 2832 H 268.034 1.66163 6.34607 0
M  V30 2833 H 267.951 3.3365 6.7839 0
M  V30 2834 H 269.219 2.34143 7.43503 0
M  V30 2835 N 273.449 -1.08991 1.13837 0
M  V30 2836 C 274.379 -2.17771 0.842507 0
M  V30 2837 C 275.36 -1.6892 -0.20001 0
M  V30 2838 O 276.545 -1.94113 -0.0579731 0
M  V30 2839 C 273.675 -3.4589 0.312644 0
M  V30 2840 C 272.629 -4.08099 1.28992 0
M  V30 2841 C 271.955 -5.31098 0.619623 0
M  V30 2842 C 273.255 -4.50077 2.65005 0
M  V30 2843 H 274.949 -2.42777 1.75213 0
M  V30 2844 H 272.495 -1.16682 0.843875 0
M  V30 2845 H 274.448 -4.21297 0.0933043 0
M  V30 2846 H 273.172 -3.20419 -0.632382 0
M  V30 2847 H 271.831 -3.34717 1.49533 0
M  V30 2848 H 271.479 -5.0191 -0.33102 0
M  V30 2849 H 271.179 -5.73674 1.27167 0
M  V30 2850 H 272.703 -6.09224 0.409669 0
M  V30 2851 H 274.117 -5.16688 2.48407 0
M  V30 2852 H 272.514 -5.03553 3.26427 0
M  V30 2853 H 273.584 -3.62257 3.22332 0
M  V30 2854 N 274.927 -0.932562 -1.27047 0
M  V30 2855 C 275.875 -0.42603 -2.28665 0
M  V30 2856 C 276.869 0.49219 -1.62092 0
M  V30 2857 O 278.075 0.371355 -1.76128 0
M  V30 2858 H 274.45 -0.119213 -0.742491 0
M  V30 2859 H 276.421 -1.29579 -2.68797 0
M  V30 2860 C 275.17 0.301426 -3.46391 0
M  V30 2861 H 274.493 -0.39595 -3.97834 0
M  V30 2862 H 275.933 0.6202 -4.1944 0
M  V30 2863 C 274.392 1.51616 -3.00856 0
M  V30 2864 O 274.922 2.61476 -3.04948 0
M  V30 2865 N 273.128 1.36969 -2.56296 0
M  V30 2866 H 272.675 0.475873 -2.53166 0
M  V30 2867 H 272.633 2.18368 -2.26192 0
M  V30 2868 N 276.405 1.4127 -0.698611 0
M  V30 2869 C 277.651 2.01478 -0.231207 0
M  V30 2870 C 277.984 1.55215 1.16713 0
M  V30 2871 O 277.259 0.764672 1.78838 0
M  V30 2872 C 277.542 3.58912 -0.292281 0
M  V30 2873 C 277.395 4.15293 -1.72778 0
M  V30 2874 C 278.714 4.38736 0.346194 0
M  V30 2875 H 275.833 0.732025 -0.0854878 0
M  V30 2876 H 278.475 1.67977 -0.887906 0
M  V30 2877 H 276.625 3.87582 0.26686 0
M  V30 2878 H 278.297 3.97486 -2.341 0
M  V30 2879 H 276.54 3.7022 -2.26096 0
M  V30 2880 H 277.211 5.24452 -1.72202 0
M  V30 2881 H 279.687 4.15897 -0.130035 0
M  V30 2882 H 278.563 5.48221 0.272932 0
M  V30 2883 H 278.824 4.18425 1.42734 0
M  V30 2884 N 277.883 0.443576 1.51229 0
M  V30 2885 C 279.108 -0.121648 2.07043 0
M  V30 2886 C 279.533 -1.35156 1.30823 0
M  V30 2887 O 278.891 -1.7793 0.347934 0
M  V30 2888 C 278.939 -0.41624 3.5819 0
M  V30 2889 O 278.043 -1.50163 3.8409 0
M  V30 2890 H 277.384 0.000871367 0.663999 0
M  V30 2891 H 279.914 0.626706 1.94765 0
M  V30 2892 H 279.924 -0.664867 4.02546 0
M  V30 2893 H 278.599 0.482653 4.1309 0
M  V30 2894 H 277.176 -1.24248 3.51592 0
M  V30 2895 N 279.361 -1.56624 0.175154 0
M  V30 2896 C 280.309 -2.19468 -0.770495 0
M  V30 2897 C 281.303 -1.15985 -1.23466 0
M  V30 2898 O 282.509 -1.34176 -1.19987 0
M  V30 2899 H 278.884 -0.703095 -0.266761 0
M  V30 2900 H 280.855 -2.97613 -0.216542 0
M  V30 2901 C 279.604 -2.85264 -1.98796 0
M  V30 2902 H 278.927 -3.64623 -1.63983 0
M  V30 2903 H 280.367 -3.327 -2.62843 0
M  V30 2904 C 278.826 -1.85239 -2.81404 0
M  V30 2905 O 279.356 -1.34024 -3.78682 0
M  V30 2906 N 277.562 -1.53911 -2.46495 0
M  V30 2907 H 277.109 -1.95751 -1.67449 0
M  V30 2908 H 277.067 -0.872382 -3.02054 0
M  V30 2909 N 280.839 0.0985539 -1.57292 0
M  V30 2910 C 282.069 0.815135 -1.8984 0
M  V30 2911 C 282.477 1.7297 -0.766679 0
M  V30 2912 O 281.82 1.81698 0.270483 0
M  V30 2913 C 281.882 1.6842 -3.17608 0
M  V30 2914 C 281.546 0.94182 -4.4719 0
M  V30 2915 C 282.543 0.273212 -5.19182 0
M  V30 2916 C 280.228 0.916927 -4.9386 0
M  V30 2917 C 282.222 -0.410361 -6.36078 0
M  V30 2918 C 279.909 0.229567 -6.10669 0
M  V30 2919 C 280.907 -0.432902 -6.81627 0
M  V30 2920 O 280.595 -1.10925 -7.9621 0
M  V30 2921 H 280.327 0.238501 -0.632529 0
M  V30 2922 H 282.881 0.0812659 -2.05239 0
M  V30 2923 H 281.111 2.46022 -2.98345 0
M  V30 2924 H 282.8 2.27704 -3.36015 0
M  V30 2925 H 283.566 0.283927 -4.84168 0
M  V30 2926 H 279.445 1.42201 -4.3852 0
M  V30 2927 H 282.989 -0.928013 -6.914 0
M  V30 2928 H 278.886 0.216686 -6.45136 0
M  V30 2929 H 279.654 -1.01579 -8.12172 0
M  V30 2930 N 282.317 1.53212 0.369288 0
M  V30 2931 C 283.542 1.73423 1.1375 0
M  V30 2932 C 283.967 0.460404 1.82378 0
M  V30 2933 O 283.325 -0.585298 1.71592 0
M  V30 2934 C 283.373 2.89769 2.1463 0
M  V30 2935 O 282.477 2.58119 3.21634 0
M  V30 2936 H 281.818 0.576061 0.330227 0
M  V30 2937 H 284.348 2.00083 0.427547 0
M  V30 2938 H 284.358 3.15829 2.58294 0
M  V30 2939 H 283.033 3.8217 1.64071 0
M  V30 2940 H 281.61 2.42864 2.82969 0
M  V30 2941 N 283.795 -0.628877 1.44509 0
M  V30 2942 C 284.745 -1.7345 1.47983 0
M  V30 2943 C 285.729 -1.5715 0.345373 0
M  V30 2944 O 286.921 -1.66848 0.590829 0
M  V30 2945 C 284.05 -3.12143 1.42904 0
M  V30 2946 C 283.136 -3.33906 2.61472 0
M  V30 2947 N 283.527 -3.26024 3.86706 0
M  V30 2948 C 281.825 -3.64709 2.56716 0
M  V30 2949 C 282.526 -3.48536 4.65722 0
M  V30 2950 N 281.502 -3.71517 3.96832 0
M  V30 2951 H 285.304 -1.65818 2.42655 0
M  V30 2952 H 282.818 -0.831419 1.39503 0
M  V30 2953 H 284.815 -3.91433 1.43476 0
M  V30 2954 H 283.475 -3.2094 0.492717 0
M  V30 2955 H 284.486 -3.04893 4.18641 0
M  V30 2956 H 281.163 -3.80473 1.71891 0
M  V30 2957 H 282.553 -3.48016 5.74747 0
M  V30 2958 N 285.273 -1.31445 -0.869486 0
M  V30 2959 C 286.519 -1.21337 -1.62496 0
M  V30 2960 C 286.852 0.227872 -1.92858 0
M  V30 2961 O 286.127 1.16094 -1.56053 0
M  V30 2962 C 286.41 -2.05814 -2.95487 0
M  V30 2963 C 286.263 -3.5824 -2.72 0
M  V30 2964 C 287.582 -1.9079 -3.96594 0
M  V30 2965 H 284.701 -0.442135 -0.589649 0
M  V30 2966 H 287.343 -1.6124 -1.00507 0
M  V30 2967 H 285.493 -1.71913 -3.48394 0
M  V30 2968 H 287.165 -4.0228 -2.25762 0
M  V30 2969 H 285.408 -3.81647 -2.06224 0
M  V30 2970 H 286.079 -4.12657 -3.66631 0
M  V30 2971 H 288.555 -2.20459 -3.52898 0
M  V30 2972 H 287.431 -2.52199 -4.87531 0
M  V30 2973 H 287.692 -0.871341 -4.33428 0
M  V30 2974 N 286.751 1.08385 -1.14413 0
M  V30 2975 C 287.976 1.85057 -0.936413 0
M  V30 2976 C 288.401 1.81055 0.509971 0
M  V30 2977 O 287.759 1.1958 1.36273 0
M  V30 2978 C 287.807 3.30505 -1.44217 0
M  V30 2979 O 286.911 4.07491 -0.634409 0
M  V30 2980 H 286.252 0.573425 -0.334784 0
M  V30 2981 H 288.782 1.36799 -1.52142 0
M  V30 2982 H 288.792 3.81348 -1.45043 0
M  V30 2983 H 287.467 3.32734 -2.49522 0
M  V30 2984 H 286.044 3.66368 -0.694902 0
M  V30 2985 N 288.23 0.939286 1.26551 0
M  V30 2986 C 289.16 0.465044 2.28822 0
M  V30 2987 C 290.141 -0.480692 1.63167 0
M  V30 2988 O 291.326 -0.382955 1.90387 0
M  V30 2989 C 288.456 -0.27234 3.46231 0
M  V30 2990 C 287.41 0.58666 4.2396 0
M  V30 2991 C 286.736 -0.280573 5.33963 0
M  V30 2992 C 288.036 1.85704 4.88171 0
M  V30 2993 H 289.73 1.31979 2.68741 0
M  V30 2994 H 287.276 0.636061 1.29191 0
M  V30 2995 H 289.229 -0.615133 4.16886 0
M  V30 2996 H 287.953 -1.16121 3.0526 0
M  V30 2997 H 286.612 0.91232 3.55067 0
M  V30 2998 H 286.26 -1.16874 4.89234 0
M  V30 2999 H 285.96 0.29076 5.8688 0
M  V30 3000 H 287.484 -0.618678 6.07458 0
M  V30 3001 H 288.898 1.58161 5.51052 0
M  V30 3002 H 287.295 2.37279 5.51197 0
M  V30 3003 H 288.365 2.56957 4.11219 0
M  V30 3004 N 289.708 -1.40897 0.706093 0
M  V30 3005 C 290.64 -2.29199 0.00815776 0
M  V30 3006 C 291.653 -1.45336 -0.733582 0
M  V30 3007 O 292.842 -1.68727 -0.582537 0
M  V30 3008 C 289.942 -3.23417 -1.01265 0
M  V30 3009 C 289.115 -4.36089 -0.338387 0
M  V30 3010 C 288.174 -5.10811 -1.26326 0
M  V30 3011 O 287.2 -5.64215 -0.751651 0
M  V30 3012 N 288.402 -5.19269 -2.595 0
M  V30 3013 H 291.167 -2.89738 0.766297 0
M  V30 3014 H 288.728 -1.52164 0.55296 0
M  V30 3015 H 290.72 -3.70276 -1.63334 0
M  V30 3016 H 289.29 -2.64112 -1.67223 0
M  V30 3017 H 288.51 -3.91479 0.462352 0
M  V30 3018 H 289.798 -5.08634 0.130031 0
M  V30 3019 H 289.196 -4.77347 -3.03573 0
M  V30 3020 H 287.753 -5.69667 -3.16737 0
M  V30 3021 N 291.186 -0.45159 -1.50991 0
M  V30 3022 C 292.134 0.366864 -2.29689 0
M  V30 3023 C 293.128 1.00809 -1.36139 0
M  V30 3024 O 294.334 0.941427 -1.53418 0
M  V30 3025 H 290.709 0.137133 -0.739391 0
M  V30 3026 H 292.68 -0.317538 -2.96706 0
M  V30 3027 C 291.429 1.44751 -3.16137 0
M  V30 3028 H 290.752 0.963473 -3.88017 0
M  V30 3029 H 292.192 1.99315 -3.74232 0
M  V30 3030 C 290.651 2.43869 -2.32442 0
M  V30 3031 O 291.181 3.4872 -1.99392 0
M  V30 3032 N 289.387 2.15105 -1.95392 0
M  V30 3033 H 288.934 1.29866 -2.22469 0
M  V30 3034 H 288.892 2.81661 -1.39693 0
M  V30 3035 N 292.664 1.56529 -0.183458 0
M  V30 3036 C 293.627 2.17324 0.728223 0
M  V30 3037 C 294.627 1.12453 1.14939 0
M  V30 3038 O 295.817 1.37902 1.06437 0
M  V30 3039 C 292.949 2.76591 1.99274 0
M  V30 3040 H 294.142 2.99241 0.198772 0
M  V30 3041 H 291.695 1.5616 0.0661391 0
M  V30 3042 H 292.43 1.98441 2.56499 0
M  V30 3043 H 292.215 3.5335 1.69959 0
M  V30 3044 H 293.705 3.23311 2.6431 0
M  V30 3045 N 294.142 -0.090211 1.57342 0
M  V30 3046 C 295.37 -0.806224 1.90546 0
M  V30 3047 C 295.785 -1.72041 0.777644 0
M  V30 3048 O 295.142 -1.80778 -0.250103 0
M  V30 3049 C 295.193 -1.61546 3.23396 0
M  V30 3050 O 294.914 -0.738043 4.31839 0
M  V30 3051 C 296.415 -2.4341 3.70495 0
M  V30 3052 H 293.635 -0.230256 0.630257 0
M  V30 3053 H 296.179 -0.0659843 2.04394 0
M  V30 3054 H 294.334 -2.30816 3.11131 0
M  V30 3055 H 294.748 -1.29901 5.08159 0
M  V30 3056 H 296.222 -2.95676 4.66133 0
M  V30 3057 H 296.699 -3.22098 2.98579 0
M  V30 3058 H 297.305 -1.79331 3.85643 0
M  V30 3059 N 295.62 -1.53406 -0.361157 0
M  V30 3060 C 296.845 -1.74024 -1.12829 0
M  V30 3061 C 297.27 -0.470069 -1.82132 0
M  V30 3062 O 296.628 0.57619 -1.719 0
M  V30 3063 C 296.676 -2.90903 -2.13091 0
M  V30 3064 O 295.78 -2.59821 -3.20261 0
M  V30 3065 H 295.121 -0.577804 -0.327168 0
M  V30 3066 H 297.651 -2.00307 -0.41693 0
M  V30 3067 H 297.661 -3.17194 -2.56616 0
M  V30 3068 H 296.336 -3.83034 -1.62042 0
M  V30 3069 H 294.913 -2.44362 -2.81677 0
M  V30 3070 N 297.098 0.621204 -1.44841 0
M  V30 3071 C 298.509 1.20298 -1.42777 0
M  V30 3072 C 298.86 1.95639 -0.148259 0
M  V30 3073 O 297.985 2.02955 0.750892 0
M  V30 3074 C 298.58 2.1882 -2.58657 0
M  V30 3075 C 297.139 2.72403 -2.59756 0
M  V30 3076 C 296.286 1.4757 -2.34773 0
M  V30 3077 H 299.237 0.411297 -1.53278 0
M  V30 3078 H 299.258 3.01607 -2.31977 0
M  V30 3079 H 298.77 1.63957 -3.51766 0
M  V30 3080 H 296.871 3.31242 -1.70615 0
M  V30 3081 H 296.984 3.17765 -3.58556 0
M  V30 3082 H 295.348 1.76051 -1.8406 0
M  V30 3083 H 296.131 0.945954 -3.3001 0
M  V30 3084 N 298.576 1.31904 0.862503 0
M  V30 3085 C 299.822 1.22197 1.61851 0
M  V30 3086 C 300.155 -0.217641 1.92977 0
M  V30 3087 O 299.43 -1.15264 1.56666 0
M  V30 3088 C 299.713 2.07378 2.94391 0
M  V30 3089 C 299.566 3.59678 2.70096 0
M  V30 3090 C 300.885 1.92891 3.95577 0
M  V30 3091 H 298.004 0.445255 0.587296 0
M  V30 3092 H 300.646 1.6177 0.99651 0
M  V30 3093 H 298.796 1.73758 3.47477 0
M  V30 3094 H 300.468 4.03472 2.23625 0
M  V30 3095 H 298.711 3.82735 2.04197 0
M  V30 3096 H 299.382 4.14595 3.64438 0
M  V30 3097 H 301.858 2.22327 3.51724 0
M  V30 3098 H 300.734 2.54781 4.86187 0
M  V30 3099 H 300.995 0.894315 4.3296 0
M  V30 3100 N 300.054 -1.07777 1.14986 0
M  V30 3101 C 300.987 -2.14228 0.786243 0
M  V30 3102 C 301.965 -1.60888 -0.235347 0
M  V30 3103 O 303.149 -1.88099 -0.122909 0
M  V30 3104 C 300.276 -3.38281 0.168433 0
M  V30 3105 C 299.322 -4.10387 1.16123 0
M  V30 3106 S 300.155 -4.62371 2.70135 0
M  V30 3107 C 301.311 -5.89704 2.09762 0
M  V30 3108 H 301.544 -2.44741 1.68787 0
M  V30 3109 H 299.077 -1.19984 0.971756 0
M  V30 3110 H 301.035 -4.10098 -0.181588 0
M  V30 3111 H 299.696 -3.05953 -0.710725 0
M  V30 3112 H 298.889 -4.99431 0.677086 0
M  V30 3113 H 298.491 -3.44513 1.45556 0
M  V30 3114 H 300.783 -6.61648 1.45701 0
M  V30 3115 H 301.726 -6.42824 2.96955 0
M  V30 3116 H 302.134 -5.4302 1.54239 0
M  V30 3117 N 301.532 -0.945985 -1.26051 0
M  V30 3118 C 302.442 -0.465633 -2.29933 0
M  V30 3119 C 303.458 0.462761 -1.67733 0
M  V30 3120 O 304.634 0.341118 -1.9849 0
M  V30 3121 C 301.699 0.256994 -3.45746 0
M  V30 3122 C 300.76 -0.708549 -4.23412 0
M  V30 3123 C 299.993 -0.0203135 -5.33696 0
M  V30 3124 O 300.216 1.19571 -5.57726 0
M  V30 3125 O 299.15 -0.701459 -5.97799 0
M  V30 3126 H 302.976 -1.32866 -2.73094 0
M  V30 3127 H 300.561 -0.712071 -1.31339 0
M  V30 3128 H 302.443 0.663852 -4.16138 0
M  V30 3129 H 301.118 1.09533 -3.04605 0
M  V30 3130 H 300.025 -1.16545 -3.55483 0
M  V30 3131 H 301.358 -1.51465 -4.68315 0
M  V30 3132 N 303.011 1.40521 -0.713556 0
M  V30 3133 C 304.258 2.00923 -0.25219 0
M  V30 3134 C 304.586 1.56571 1.15395 0
M  V30 3135 O 303.841 0.775874 1.79663 0
M  V30 3136 C 304.14 3.56317 -0.278 0
M  V30 3137 C 303.806 4.20246 -1.63415 0
M  V30 3138 C 302.468 4.37422 -2.00538 0
M  V30 3139 C 304.82 4.55923 -2.52554 0
M  V30 3140 C 302.148 4.87558 -3.2635 0
M  V30 3141 C 304.5 5.07458 -3.77716 0
M  V30 3142 C 303.164 5.22843 -4.14959 0
M  V30 3143 H 302.434 0.735231 -0.0922829 0
M  V30 3144 H 305.081 1.68161 -0.916188 0
M  V30 3145 H 303.386 3.88976 0.469567 0
M  V30 3146 H 305.083 4.00883 0.0967819 0
M  V30 3147 H 301.673 4.07263 -1.33546 0
M  V30 3148 H 305.857 4.42291 -2.25149 0
M  V30 3149 H 301.113 4.97654 -3.55176 0
M  V30 3150 H 305.287 5.34041 -4.4696 0
M  V30 3151 H 302.914 5.61454 -5.12516 0
M  V30 3152 N 304.489 0.459591 1.5075 0
M  V30 3153 C 305.735 -0.091664 2.03193 0
M  V30 3154 C 306.09 -1.38432 1.3362 0
M  V30 3155 O 305.383 -1.86257 0.449322 0
M  V30 3156 C 305.577 -0.342866 3.55752 0
M  V30 3157 C 305.406 0.923888 4.40107 0
M  V30 3158 C 304.176 1.46388 4.83631 0
M  V30 3159 C 306.374 1.81617 4.81165 0
M  V30 3160 N 304.356 2.68086 5.52271 0
M  V30 3161 C 305.727 2.87907 5.49099 0
M  V30 3162 C 307.782 1.82793 4.63132 0
M  V30 3163 C 306.485 3.95347 6.0091 0
M  V30 3164 C 308.511 2.89182 5.15876 0
M  V30 3165 C 307.873 3.94191 5.83774 0
M  V30 3166 H 303.972 0.00619247 0.781975 0
M  V30 3167 H 306.556 0.625233 1.84388 0
M  V30 3168 H 304.727 -1.0288 3.74527 0
M  V30 3169 H 306.459 -0.887445 3.9485 0
M  V30 3170 H 303.214 1.01466 4.62603 0
M  V30 3171 H 303.638 3.29857 5.91205 0
M  V30 3172 H 308.28 1.0293 4.1008 0
M  V30 3173 H 305.998 4.76035 6.53006 0
M  V30 3174 H 309.584 2.91061 5.0376 0
M  V30 3175 H 308.464 4.75161 6.23853 0
M  V30 3176 N 305.967 -1.56429 0.191757 0
M  V30 3177 C 306.877 -2.22541 -0.742481 0
M  V30 3178 C 307.893 -1.22342 -1.23727 0
M  V30 3179 O 309.069 -1.55069 -1.28513 0
M  V30 3180 C 306.134 -2.8692 -1.94623 0
M  V30 3181 C 305.195 -4.02378 -1.49633 0
M  V30 3182 C 304.428 -4.63678 -2.6427 0
M  V30 3183 O 304.651 -4.23895 -3.81666 0
M  V30 3184 O 303.585 -5.53202 -2.37174 0
M  V30 3185 H 307.411 -3.02977 -0.209462 0
M  V30 3186 H 304.996 -1.49353 -0.0373832 0
M  V30 3187 H 306.878 -3.27663 -2.64982 0
M  V30 3188 H 305.553 -2.09466 -2.46791 0
M  V30 3189 H 304.46 -3.66265 -0.761636 0
M  V30 3190 H 305.793 -4.81487 -1.02134 0
M  V30 3191 N 307.445 0.0818655 -1.57387 0
M  V30 3192 C 308.395 1.10501 -1.99433 0
M  V30 3193 C 309.379 1.35041 -0.874798 0
M  V30 3194 O 310.571 1.35511 -1.13868 0
M  V30 3195 C 307.7 2.42159 -2.43339 0
M  V30 3196 C 306.786 2.20937 -3.62005 0
M  V30 3197 N 307.177 1.69616 -4.76512 0
M  V30 3198 C 305.475 2.51451 -3.68359 0
M  V30 3199 C 306.176 1.62973 -5.58404 0
M  V30 3200 N 305.152 2.08664 -5.01956 0
M  V30 3201 H 308.954 0.701373 -2.85408 0
M  V30 3202 H 306.468 0.289096 -1.59806 0
M  V30 3203 H 308.465 3.16208 -2.71695 0
M  V30 3204 H 307.125 2.83249 -1.58746 0
M  V30 3205 H 308.136 1.38624 -4.99003 0
M  V30 3206 H 304.813 2.95975 -2.94457 0
M  V30 3207 H 306.203 1.24233 -6.60315 0
M  V30 3208 N 308.923 1.53595 0.353017 0
M  V30 3209 C 310.339 1.43648 0.695516 0
M  V30 3210 C 310.539 0.585617 1.92802 0
M  V30 3211 O 309.595 0.0729223 2.52395 0
M  V30 3212 C 310.908 2.8701 0.896991 0
M  V30 3213 C 312.456 2.96723 0.996209 0
M  V30 3214 C 312.931 4.41173 1.23007 0
M  V30 3215 N 314.422 4.44657 1.29749 0
M  V30 3216 C 315.157 5.53547 1.49577 0
M  V30 3217 N 314.653 6.72461 1.66639 0
M  V30 3218 N 316.446 5.41145 1.52048 0
M  V30 3219 H 308.597 2.07415 -0.457481 0
M  V30 3220 H 310.86 0.9372 -0.142687 0
M  V30 3221 H 310.566 3.51644 0.0629938 0
M  V30 3222 H 310.44 3.31401 1.80148 0
M  V30 3223 H 312.827 2.32235 1.82074 0
M  V30 3224 H 312.908 2.55707 0.0688331 0
M  V30 3225 H 312.552 5.06238 0.410505 0
M  V30 3226 H 312.482 4.79772 2.17086 0
M  V30 3227 H 314.973 3.58963 1.18126 0
M  V30 3228 H 315.286 7.51214 1.81378 0
M  V30 3229 H 313.631 6.75423 1.63794 0
M  V30 3230 H 316.822 4.47205 1.38294 0
M  V30 3231 H 316.995 6.26068 1.67159 0
M  V30 3232 N 310.401 -0.613514 1.45168 0
M  V30 3233 C 311.647 -1.37471 1.49096 0
M  V30 3234 C 311.98 -1.93765 0.129901 0
M  V30 3235 O 311.255 -1.74707 -0.854858 0
M  V30 3236 C 311.538 -2.52701 2.56542 0
M  V30 3237 C 311.391 -2.01643 4.0207 0
M  V30 3238 C 312.71 -3.54849 2.60327 0
M  V30 3239 H 309.829 -0.498502 0.54283 0
M  V30 3240 H 312.471 -0.692125 1.76945 0
M  V30 3241 H 310.621 -3.10931 2.32926 0
M  V30 3242 H 312.293 -1.48108 4.36877 0
M  V30 3243 H 310.536 -1.32688 4.13009 0
M  V30 3244 H 311.207 -2.84681 4.72928 0
M  V30 3245 H 313.683 -3.0645 2.81474 0
M  V30 3246 H 312.559 -4.32973 3.37381 0
M  V30 3247 H 312.82 -4.10079 1.6519 0
M  V30 3248 N 311.879 -1.3236 -0.855495 0
M  V30 3249 C 312.809 -1.23833 -1.97958 0
M  V30 3250 C 313.79 -0.122361 -1.69659 0
M  V30 3251 O 314.975 -0.30939 -1.9172 0
M  V30 3252 C 312.105 -0.959772 -3.33775 0
M  V30 3253 C 311.059 -2.03689 -3.76424 0
M  V30 3254 C 310.385 -1.61075 -5.09862 0
M  V30 3255 C 311.685 -3.4518 -3.9198 0
M  V30 3256 H 313.379 -2.1788 -2.0535 0
M  V30 3257 H 310.925 -1.04891 -0.986605 0
M  V30 3258 H 312.878 -0.886678 -4.11966 0
M  V30 3259 H 311.602 0.0163404 -3.26596 0
M  V30 3260 H 310.261 -2.10012 -3.00484 0
M  V30 3261 H 309.909 -0.622107 -4.99138 0
M  V30 3262 H 309.609 -2.33143 -5.39368 0
M  V30 3263 H 311.133 -1.55201 -5.90546 0
M  V30 3264 H 312.547 -3.4145 -4.60526 0
M  V30 3265 H 310.944 -4.1559 -4.32903 0
M  V30 3266 H 312.014 -3.84903 -2.94919 0
M  V30 3267 N 313.357 1.07166 -1.15556 0
M  V30 3268 C 314.32 2.12589 -0.856644 0
M  V30 3269 C 315.32 1.6015 0.14444 0
M  V30 3270 O 316.51 1.7399 -0.0854163 0
M  V30 3271 C 313.642 3.39753 -0.279405 0
M  V30 3272 H 314.835 2.40539 -1.79112 0
M  V30 3273 H 312.388 1.23086 -0.963298 0
M  V30 3274 H 313.123 3.17447 0.663174 0
M  V30 3275 H 312.908 3.79117 -1.00063 0
M  V30 3276 H 314.398 4.17507 -0.0879113 0
M  V30 3277 N 314.835 0.952656 1.25548 0
M  V30 3278 C 316.084 0.602053 1.92505 0
M  V30 3279 C 316.397 -0.864663 1.75451 0
M  V30 3280 O 317.603 -1.32514 2.36965 0
M  V30 3281 C 316.059 1.02607 3.44963 0
M  V30 3282 C 315.667 2.51519 3.70732 0
M  V30 3283 C 317.411 0.747905 4.1786 0
M  V30 3284 C 315.318 2.87732 5.16686 0
M  V30 3285 H 314.248 0.22146 0.720744 0
M  V30 3286 H 316.899 1.15684 1.42441 0
M  V30 3287 H 315.281 0.399712 3.93978 0
M  V30 3288 H 316.455 3.19157 3.32378 0
M  V30 3289 H 314.77 2.76786 3.11092 0
M  V30 3290 H 317.367 0.994647 5.25367 0
M  V30 3291 H 317.71 -0.315629 4.15102 0
M  V30 3292 H 318.243 1.33452 3.74747 0
M  V30 3293 H 314.982 3.93095 5.24554 0
M  V30 3294 H 314.502 2.24765 5.56094 0
M  V30 3295 H 316.181 2.76817 5.84792 0
M  V30 3296 N 316.313 -1.40141 0.720998 0
M  V30 3297 C 317.538 -2.05618 0.271258 0
M  V30 3298 C 317.963 -1.53978 -1.08039 0
M  V30 3299 O 317.321 -0.677463 -1.68167 0
M  V30 3300 C 317.369 -3.59609 0.267197 0
M  V30 3301 O 316.473 -4.05526 -0.749814 0
M  V30 3302 H 315.814 -0.651904 0.126162 0
M  V30 3303 H 318.344 -1.79439 0.982997 0
M  V30 3304 H 318.354 -4.0786 0.106744 0
M  V30 3305 H 317.029 -3.96559 1.25354 0
M  V30 3306 H 315.606 -3.68722 -0.556644 0
M  V30 3307 N 317.792 -0.46758 -1.50504 0
M  V30 3308 C 319.069 0.15003 -1.95024 0
M  V30 3309 C 319.449 1.57304 -1.40779 0
M  V30 3310 O 318.797 2.20281 -0.607319 0
M  V30 3311 C 319.007 0.0969324 -3.48865 0
M  V30 3312 C 320.355 0.287565 -4.23625 0
M  V30 3313 O 321.379 0.173678 -3.55776 0
M  V30 3314 O 320.238 0.517186 -5.44047 0
M  V30 3315 H 317.332 0.113582 -0.819163 0
M  V30 3316 H 319.878 -0.52773 -1.61286 0
M  V30 3317 H 318.65 -0.896732 -3.80886 0
M  V30 3318 H 318.273 0.816303 -3.8913 0
M  V30 3319 N 319.27 1.56325 -0.20005 0
M  V30 3320 C 320.518 1.97329 0.436547 0
M  V30 3321 C 320.839 1.08826 1.61808 0
M  V30 3322 O 320.109 0.160604 1.95241 0
M  V30 3323 H 318.689 0.728714 0.164272 0
M  V30 3324 H 321.351 1.92761 -0.287937 0
M  V30 3325 H 320.447 3.02264 0.777353 0
M  V30 3326 N 320.748 -0.0735177 1.57428 0
M  V30 3327 C 321.997 -0.771809 1.86349 0
M  V30 3328 C 322.31 -1.78828 0.792452 0
M  V30 3329 O 323.516 -2.53602 0.96945 0
M  V30 3330 C 321.972 -1.42358 3.30548 0
M  V30 3331 C 321.58 -0.445761 4.45777 0
M  V30 3332 C 323.324 -2.10434 3.6867 0
M  V30 3333 C 321.231 -1.10335 5.81016 0
M  V30 3334 H 320.161 -0.291999 0.695164 0
M  V30 3335 H 322.812 -0.0250749 1.83483 0
M  V30 3336 H 321.194 -2.21852 3.28021 0
M  V30 3337 H 322.368 0.319239 4.59693 0
M  V30 3338 H 320.683 0.130457 4.16196 0
M  V30 3339 H 323.28 -2.60405 4.67004 0
M  V30 3340 H 323.623 -2.90298 2.98383 0
M  V30 3341 H 324.156 -1.37773 3.7318 0
M  V30 3342 H 320.895 -0.345061 6.54591 0
M  V30 3343 H 320.415 -1.83925 5.70904 0
M  V30 3344 H 322.094 -1.62367 6.26295 0
M  V30 3345 N 322.226 -1.5378 -0.344866 0
M  V30 3346 C 323.136 -1.84667 -1.4469 0
M  V30 3347 C 324.152 -0.736704 -1.57635 0
M  V30 3348 O 325.328 -1.02888 -1.73136 0
M  V30 3349 C 322.393 -2.04869 -2.79696 0
M  V30 3350 C 321.454 -3.28731 -2.76106 0
M  V30 3351 C 320.687 -3.4796 -4.04673 0
M  V30 3352 O 320.91 -2.71052 -5.01883 0
M  V30 3353 O 319.844 -4.41383 -4.09224 0
M  V30 3354 H 323.67 -2.78334 -1.21506 0
M  V30 3355 H 321.255 -1.39418 -0.536921 0
M  V30 3356 H 323.137 -2.19609 -3.59652 0
M  V30 3357 H 321.812 -1.14391 -3.02814 0
M  V30 3358 H 320.719 -3.19396 -1.94774 0
M  V30 3359 H 322.052 -4.19198 -2.57941 0
M  V30 3360 N 323.704 0.605807 -1.45491 0
M  V30 3361 C 324.654 1.71074 -1.50724 0
M  V30 3362 C 325.638 1.5658 -0.37033 0
M  V30 3363 O 326.83 1.65887 -0.617299 0
M  V30 3364 C 323.959 3.0983 -1.47852 0
M  V30 3365 C 323.045 3.29704 -2.66751 0
M  V30 3366 N 323.436 3.19831 -3.91844 0
M  V30 3367 C 321.734 3.60579 -2.62486 0
M  V30 3368 C 322.435 3.41083 -4.71208 0
M  V30 3369 N 321.411 3.65157 -4.02693 0
M  V30 3370 H 325.213 1.61937 -2.45263 0
M  V30 3371 H 322.727 0.80912 -1.40808 0
M  V30 3372 H 324.724 3.89101 -1.49686 0
M  V30 3373 H 323.384 3.20115 -0.543714 0
M  V30 3374 H 324.395 2.98194 -4.23439 0
M  V30 3375 H 321.072 3.7769 -1.77922 0
M  V30 3376 H 322.462 3.38828 -5.80211 0
M  V30 3377 N 325.182 1.32811 0.848464 0
M  V30 3378 C 326.431 1.23075 1.59798 0
M  V30 3379 C 326.744 -0.204419 1.94529 0
M  V30 3380 O 327.95 -0.423701 2.68173 0
M  V30 3381 C 326.406 2.15594 2.88179 0
M  V30 3382 C 326.014 3.64228 2.60849 0
M  V30 3383 C 327.758 2.14709 3.66197 0
M  V30 3384 C 325.665 4.48689 3.85269 0
M  V30 3385 H 324.595 0.457091 0.599653 0
M  V30 3386 H 327.246 1.57813 0.936342 0
M  V30 3387 H 325.628 1.73778 3.55833 0
M  V30 3388 H 326.802 4.14424 2.01467 0
M  V30 3389 H 325.117 3.67306 1.96151 0
M  V30 3390 H 327.714 2.75046 4.58534 0
M  V30 3391 H 328.057 1.13966 4.00397 0
M  V30 3392 H 328.59 2.54837 3.05455 0
M  V30 3393 H 325.329 5.5027 3.56207 0
M  V30 3394 H 324.849 4.03241 4.44024 0
M  V30 3395 H 326.528 4.62006 4.52946 0
M  V30 3396 N 326.66 -1.06551 1.16123 0
M  V30 3397 C 327.908 -1.78947 0.939267 0
M  V30 3398 C 328.229 -1.87532 -0.534476 0
M  V30 3399 O 327.499 -1.38211 -1.38833 0
M  V30 3400 H 326.079 -0.662807 0.344523 0
M  V30 3401 H 328.741 -1.28725 1.46342 0
M  V30 3402 H 327.837 -2.81117 1.35572 0
M  V30 3403 N 328.138 -0.959301 -1.25041 0
M  V30 3404 C 329.086 -0.474437 -2.2771 0
M  V30 3405 C 330.08 0.457697 -1.631 0
M  V30 3406 O 331.286 0.333912 -1.76876 0
M  V30 3407 H 327.661 -0.134936 -0.739795 0
M  V30 3408 H 329.632 -1.35251 -2.65988 0
M  V30 3409 C 328.381 0.227884 -3.46952 0
M  V30 3410 H 327.704 -0.480248 -3.96905 0
M  V30 3411 H 329.144 0.531091 -4.20661 0
M  V30 3412 C 327.603 1.452 -3.04004 0
M  V30 3413 O 328.133 2.54949 -3.10426 0
M  V30 3414 N 326.339 1.31502 -2.59144 0
M  V30 3415 H 325.886 0.422065 -2.54119 0
M  V30 3416 H 325.844 2.13521 -2.30773 0
M  V30 3417 N 329.616 1.39756 -0.72842 0
M  V30 3418 C 330.546 2.33289 -0.0991354 0
M  V30 3419 C 331.527 1.53568 0.731489 0
M  V30 3420 O 332.712 1.81987 0.677807 0
M  V30 3421 C 329.842 3.3763 0.813834 0
M  V30 3422 C 328.796 4.2791 0.0878663 0
M  V30 3423 C 328.122 5.22894 1.11741 0
M  V30 3424 C 329.422 5.11314 -1.06563 0
M  V30 3425 H 331.116 2.86163 -0.880408 0
M  V30 3426 H 328.662 1.37591 -0.424819 0
M  V30 3427 H 330.615 4.0201 1.26355 0
M  V30 3428 H 329.339 2.83181 1.62715 0
M  V30 3429 H 327.998 3.65 -0.342159 0
M  V30 3430 H 327.646 4.64744 1.92412 0
M  V30 3431 H 327.346 5.84143 0.636477 0
M  V30 3432 H 328.87 5.90151 1.56697 0
M  V30 3433 H 330.284 5.69076 -0.694671 0
M  V30 3434 H 328.681 5.81671 -1.47577 0
M  V30 3435 H 329.751 4.46534 -1.89038 0
M  V30 3436 N 331.094 0.475555 1.50254 0
M  V30 3437 C 332.51 0.12997 1.5907 0
M  V30 3438 C 332.71 -1.36385 1.48328 0
M  V30 3439 O 331.766 -2.13754 1.34407 0
M  V30 3440 C 333.079 0.684139 2.92814 0
M  V30 3441 C 334.627 0.647965 3.0622 0
M  V30 3442 C 335.102 1.17975 4.42545 0
M  V30 3443 N 336.593 1.13936 4.48969 0
M  V30 3444 C 337.328 1.52129 5.52851 0
M  V30 3445 N 336.824 1.97793 6.63965 0
M  V30 3446 N 338.617 1.43704 5.4342 0
M  V30 3447 H 330.768 1.44706 1.55479 0
M  V30 3448 H 333.031 0.598691 0.735033 0
M  V30 3449 H 332.737 1.73079 3.06164 0
M  V30 3450 H 332.611 0.130204 3.76975 0
M  V30 3451 H 334.998 -0.38979 2.92514 0
M  V30 3452 H 335.079 1.23876 2.23805 0
M  V30 3453 H 334.723 2.21616 4.57 0
M  V30 3454 H 334.653 0.565138 5.23559 0
M  V30 3455 H 337.144 0.804488 3.69238 0
M  V30 3456 H 337.457 2.25072 7.39299 0
M  V30 3457 H 335.802 2.01749 6.65073 0
M  V30 3458 H 338.993 1.07867 4.55502 0
M  V30 3459 H 339.166 1.73794 6.24259 0
M  V30 3460 N 332.573 -1.56217 0.208337 0
M  V30 3461 C 333.819 -1.98998 -0.42086 0
M  V30 3462 C 334.174 -1.09331 -1.58317 0
M  V30 3463 O 333.467 -0.140466 -1.91084 0
M  V30 3464 C 333.661 -3.45441 -0.916797 0
M  V30 3465 C 333.49 -4.49273 0.195925 0
M  V30 3466 C 332.26 -5.00998 0.657956 0
M  V30 3467 C 334.458 -5.04294 1.00956 0
M  V30 3468 N 332.44 -5.88514 1.74712 0
M  V30 3469 C 333.811 -5.88607 1.94785 0
M  V30 3470 C 335.866 -4.86692 1.05049 0
M  V30 3471 C 334.569 -6.572 2.9237 0
M  V30 3472 C 336.595 -5.56034 2.01446 0
M  V30 3473 C 335.957 -6.40105 2.94016 0
M  V30 3474 H 332.056 -0.772574 -0.121048 0
M  V30 3475 H 334.64 -1.92101 0.317075 0
M  V30 3476 H 332.811 -3.52812 -1.62413 0
M  V30 3477 H 334.543 -3.75164 -1.51771 0
M  V30 3478 H 331.298 -4.72945 0.248912 0
M  V30 3479 H 331.722 -6.36975 2.2933 0
M  V30 3480 H 336.364 -4.21359 0.348759 0
M  V30 3481 H 334.082 -7.21723 3.63512 0
M  V30 3482 H 337.668 -5.44385 2.0527 0
M  V30 3483 H 336.548 -6.92816 3.6739 0
M  V30 3484 N 334.051 0.0651679 -1.57465 0
M  V30 3485 C 334.961 1.09448 -2.07505 0
M  V30 3486 C 335.977 1.41974 -1.00595 0
M  V30 3487 O 337.153 1.52018 -1.32107 0
M  V30 3488 C 334.218 2.38689 -2.51453 0
M  V30 3489 C 333.279 2.13073 -3.72691 0
M  V30 3490 C 332.512 3.36152 -4.14533 0
M  V30 3491 O 332.735 4.45517 -3.56189 0
M  V30 3492 O 331.669 3.23974 -5.07272 0
M  V30 3493 H 335.495 0.69935 -2.95538 0
M  V30 3494 H 333.08 0.279752 -1.46757 0
M  V30 3495 H 334.962 3.14736 -2.80212 0
M  V30 3496 H 333.637 2.77568 -1.66546 0
M  V30 3497 H 332.544 1.34709 -3.49005 0
M  V30 3498 H 333.877 1.79071 -4.5847 0
M  V30 3499 N 335.529 1.53961 0.336706 0
M  V30 3500 C 336.459 1.85417 1.41925 0
M  V30 3501 C 337.44 0.709856 1.5458 0
M  V30 3502 O 338.625 0.962396 1.68676 0
M  V30 3503 C 335.755 2.06985 2.78881 0
M  V30 3504 C 334.709 3.22813 2.81026 0
M  V30 3505 C 334.035 3.29727 4.20932 0
M  V30 3506 C 335.335 4.60767 2.45949 0
M  V30 3507 H 337.029 2.76079 1.15848 0
M  V30 3508 H 334.575 1.32839 0.555859 0
M  V30 3509 H 336.528 2.27575 3.54665 0
M  V30 3510 H 335.252 1.13061 3.06406 0
M  V30 3511 H 333.911 3.0209 2.07695 0
M  V30 3512 H 333.559 2.33385 4.45579 0
M  V30 3513 H 333.259 4.07566 4.23277 0
M  V30 3514 H 334.783 3.52536 4.98549 0
M  V30 3515 H 336.197 4.81325 3.11446 0
M  V30 3516 H 334.594 5.4106 2.59566 0
M  V30 3517 H 335.664 4.6391 1.41122 0
M  V30 3518 N 337.007 -0.598083 1.45811 0
M  V30 3519 C 337.97 -1.69018 1.54808 0
M  V30 3520 C 338.97 -1.55037 0.426652 0
M  V30 3521 O 340.16 -1.59932 0.690456 0
M  V30 3522 C 337.292 -3.0835 1.45371 0
M  V30 3523 H 338.485 -1.62403 2.52121 0
M  V30 3524 H 336.038 -0.814626 1.33392 0
M  V30 3525 H 336.773 -3.20534 0.492793 0
M  V30 3526 H 336.558 -3.19907 2.26721 0
M  V30 3527 H 338.048 -3.8788 1.54721 0
M  V30 3528 N 338.485 -1.33259 -0.841409 0
M  V30 3529 C 339.415 -1.25926 -1.96634 0
M  V30 3530 C 340.396 -0.140349 -1.6952 0
M  V30 3531 O 341.581 -0.329707 -1.91381 0
M  V30 3532 C 338.711 -0.99512 -3.32738 0
M  V30 3533 C 337.665 -2.0767 -3.74242 0
M  V30 3534 C 336.991 -1.66474 -5.08125 0
M  V30 3535 C 338.291 -3.49318 -3.88297 0
M  V30 3536 H 339.985 -2.20046 -2.03027 0
M  V30 3537 H 337.531 -1.05931 -0.975425 0
M  V30 3538 H 339.484 -0.930323 -4.11002 0
M  V30 3539 H 338.208 -0.0183004 -3.26595 0
M  V30 3540 H 336.867 -2.13187 -2.98239 0
M  V30 3541 H 336.515 -0.675012 -4.9845 0
M  V30 3542 H 336.215 -2.3885 -5.36865 0
M  V30 3543 H 337.739 -1.61455 -5.88867 0
M  V30 3544 H 339.153 -3.46316 -4.56879 0
M  V30 3545 H 337.55 -4.20158 -4.28471 0
M  V30 3546 H 338.62 -3.8801 -2.9082 0
M  V30 3547 N 339.963 1.05934 -1.16686 0
M  V30 3548 C 341.203 1.80382 -0.961345 0
M  V30 3549 C 341.567 1.85331 0.501643 0
M  V30 3550 O 342.768 2.55795 0.825986 0
M  V30 3551 C 341.039 3.20777 -1.57596 0
M  V30 3552 S 342.598 4.11795 -1.51559 0
M  V30 3553 H 339.416 0.621332 -0.345641 0
M  V30 3554 H 342.018 1.27157 -1.48497 0
M  V30 3555 H 340.722 3.14773 -2.63337 0
M  V30 3556 H 340.253 3.79078 -1.05182 0
M  V30 3557 H 342.268 4.93485 -0.518374 0
M  V30 3558 N 341.441 0.965919 1.2453 0
M  V30 3559 C 342.371 0.513476 2.27784 0
M  V30 3560 C 343.352 -0.445974 1.6415 0
M  V30 3561 O 344.537 -0.342485 1.91156 0
M  V30 3562 C 341.667 -0.198839 3.4673 0
M  V30 3563 C 340.621 0.676456 4.2262 0
M  V30 3564 C 339.947 -0.167248 5.34438 0
M  V30 3565 C 341.247 1.96017 4.84123 0
M  V30 3566 H 342.941 1.3765 2.65881 0
M  V30 3567 H 340.487 0.663321 1.27813 0
M  V30 3568 H 342.44 -0.526567 4.18097 0
M  V30 3569 H 341.164 -1.0962 3.07654 0
M  V30 3570 H 339.823 0.98743 3.53052 0
M  V30 3571 H 339.471 -1.0647 4.91603 0
M  V30 3572 H 339.171 0.415181 5.86131 0
M  V30 3573 H 340.695 -0.489688 6.08633 0
M  V30 3574 H 342.109 1.69814 5.47573 0
M  V30 3575 H 340.506 2.48918 5.4604 0
M  V30 3576 H 341.576 2.65622 4.05676 0
M  V30 3577 N 342.919 -1.39368 0.735821 0
M  V30 3578 C 343.849 -2.33234 0.111506 0
M  V30 3579 C 344.83 -1.53954 -0.723334 0
M  V30 3580 O 346.015 -1.82344 -0.668147 0
M  V30 3581 C 343.145 -3.38057 -0.795917 0
M  V30 3582 C 342.099 -4.2795 -0.065172 0
M  V30 3583 C 341.425 -5.23479 -1.08967 0
M  V30 3584 C 342.725 -5.10741 1.09273 0
M  V30 3585 H 344.419 -2.85692 0.895571 0
M  V30 3586 H 341.965 -1.37364 0.432109 0
M  V30 3587 H 343.918 -4.02675 -1.24221 0
M  V30 3588 H 342.642 -2.8404 -1.61211 0
M  V30 3589 H 341.301 -3.64813 0.361511 0
M  V30 3590 H 340.949 -4.65758 -1.89944 0
M  V30 3591 H 340.649 -5.84472 -0.605489 0
M  V30 3592 H 342.173 -5.90974 -1.53565 0
M  V30 3593 H 343.587 -5.68699 0.724841 0
M  V30 3594 H 341.984 -5.8088 1.50659 0
M  V30 3595 H 343.054 -4.45525 1.91404 0
M  V30 3596 N 344.397 -0.483516 -1.5 0
M  V30 3597 C 345.36 0.292965 -2.2732 0
M  V30 3598 C 346.36 0.909499 -1.32608 0
M  V30 3599 O 347.55 0.776745 -1.55924 0
M  V30 3600 C 344.682 1.41854 -3.09984 0
M  V30 3601 H 345.875 -0.385289 -2.97415 0
M  V30 3602 H 343.428 -0.237942 -1.54478 0
M  V30 3603 H 344.163 2.13148 -2.44414 0
M  V30 3604 H 343.948 0.982114 -3.79601 0
M  V30 3605 H 345.438 1.96597 -3.68429 0
M  V30 3606 N 345.875 1.56104 -0.216619 0
M  V30 3607 C 346.838 2.18819 0.681962 0
M  V30 3608 C 347.838 1.14866 1.12528 0
M  V30 3609 O 349.028 1.40128 1.03488 0
M  V30 3610 C 346.16 2.80756 1.93362 0
M  V30 3611 H 347.353 2.99595 0.135254 0
M  V30 3612 H 344.906 1.56265 0.0330003 0
M  V30 3613 H 345.641 2.03837 2.52232 0
M  V30 3614 H 345.426 3.56876 1.62426 0
M  V30 3615 H 346.916 3.28844 2.57393 0
M  V30 3616 N 347.353 -0.0568162 1.57498 0
M  V30 3617 C 348.599 -0.748893 1.89111 0
M  V30 3618 C 348.954 -1.74422 0.81208 0
M  V30 3619 O 348.247 -1.90731 -0.182247 0
M  V30 3620 C 348.441 -1.48359 3.25153 0
M  V30 3621 C 348.27 -0.560924 4.46188 0
M  V30 3622 C 347.04 -0.192264 5.04934 0
M  V30 3623 C 349.238 0.148824 5.14085 0
M  V30 3624 N 347.22 0.734555 6.0949 0
M  V30 3625 C 348.591 0.932286 6.12951 0
M  V30 3626 C 350.646 0.218713 4.97419 0
M  V30 3627 C 349.349 1.77917 6.96949 0
M  V30 3628 C 351.375 1.05262 5.81957 0
M  V30 3629 C 350.737 1.82409 6.80372 0
M  V30 3630 H 346.836 -0.249002 0.741298 0
M  V30 3631 H 349.42 -0.00984926 1.94698 0
M  V30 3632 H 347.591 -2.19326 3.20547 0
M  V30 3633 H 349.323 -2.12586 3.44368 0
M  V30 3634 H 346.078 -0.548421 4.70414 0
M  V30 3635 H 346.502 1.19165 6.6643 0
M  V30 3636 H 351.144 -0.363407 4.21235 0
M  V30 3637 H 348.862 2.3722 7.72497 0
M  V30 3638 H 352.448 1.10987 5.71116 0
M  V30 3639 H 351.328 2.45895 7.44651 0
M  V30 3640 N 348.832 -1.54138 -0.328536 0
M  V30 3641 C 350.06 -1.76062 -1.08673 0
M  V30 3642 C 350.475 -0.506852 -1.81869 0
M  V30 3643 O 349.832 0.522223 -1.74869 0
M  V30 3644 C 349.883 -2.95054 -2.08866 0
M  V30 3645 O 349.604 -4.15583 -1.38644 0
M  V30 3646 C 351.105 -3.2915 -2.96943 0
M  V30 3647 H 348.325 -0.587889 -0.323461 0
M  V30 3648 H 350.869 -2.0101 -0.376175 0
M  V30 3649 H 349.024 -2.72394 -2.75464 0
M  V30 3650 H 349.438 -4.82481 -2.05699 0
M  V30 3651 H 350.912 -4.15723 -3.63151 0
M  V30 3652 H 351.389 -2.461 -3.63774 0
M  V30 3653 H 351.995 -3.53871 -2.35914 0
M  V30 3654 N 350.31 0.590341 -1.46126 0
M  V30 3655 C 351.559 1.34499 -1.50309 0
M  V30 3656 C 351.872 1.94977 -0.156021 0
M  V30 3657 O 353.078 2.71395 -0.0756037 0
M  V30 3658 C 351.534 2.43723 -2.64815 0
M  V30 3659 C 351.142 1.89582 -4.0591 0
M  V30 3660 C 352.886 3.20579 -2.78262 0
M  V30 3661 C 350.793 2.9639 -5.11769 0
M  V30 3662 H 349.723 0.505593 -0.559368 0
M  V30 3663 H 352.374 0.630848 -1.72315 0
M  V30 3664 H 350.756 3.17902 -2.36124 0
M  V30 3665 H 351.93 1.21997 -4.44357 0
M  V30 3666 H 350.245 1.25418 -3.97063 0
M  V30 3667 H 352.842 4.00276 -3.54519 0
M  V30 3668 H 353.185 3.72684 -1.85505 0
M  V30 3669 H 353.718 2.53505 -3.06562 0
M  V30 3670 H 350.457 2.49181 -6.06291 0
M  V30 3671 H 349.977 3.62487 -4.77873 0
M  V30 3672 H 351.656 3.60474 -5.37278 0
M  V30 3673 N 351.788 1.33704 0.83433 0
M  V30 3674 C 353.028 1.26754 1.60352 0
M  V30 3675 C 353.392 -0.163182 1.91305 0
M  V30 3676 O 354.593 -0.3567 2.66423 0
M  V30 3677 C 352.864 2.12262 2.8754 0
M  V30 3678 S 354.423 2.22549 3.78176 0
M  V30 3679 H 351.241 0.450879 0.549753 0
M  V30 3680 H 353.843 1.68788 0.986444 0
M  V30 3681 H 352.547 3.15238 2.62779 0
M  V30 3682 H 352.078 1.71082 3.54252 0
M  V30 3683 H 354.093 1.3899 4.76336 0
M  V30 3684 N 353.266 -1.05314 1.17247 0
M  V30 3685 C 354.496 -1.81707 0.983166 0
M  V30 3686 C 354.904 -1.83222 -0.471822 0
M  V30 3687 O 354.247 -1.25721 -1.3394 0
M  V30 3688 C 354.309 -3.29134 1.44606 0
M  V30 3689 C 353.973 -3.51304 2.92292 0
M  V30 3690 C 354.97 -3.4353 3.90235 0
M  V30 3691 C 352.655 -3.78306 3.30439 0
M  V30 3692 C 354.649 -3.62442 5.24323 0
M  V30 3693 C 352.336 -3.96866 4.64694 0
M  V30 3694 C 353.334 -3.88933 5.61445 0
M  V30 3695 O 353.022 -4.06976 6.93272 0
M  V30 3696 H 352.754 -0.579476 0.348114 0
M  V30 3697 H 355.308 -1.33705 1.55924 0
M  V30 3698 H 353.538 -3.78046 0.813537 0
M  V30 3699 H 355.227 -3.87049 1.22262 0
M  V30 3700 H 355.993 -3.22648 3.62109 0
M  V30 3701 H 351.872 -3.83585 2.55702 0
M  V30 3702 H 355.416 -3.56165 5.99827 0
M  V30 3703 H 351.313 -4.1724 4.92525 0
M  V30 3704 H 352.081 -4.24209 6.99992 0
M  V30 3705 N 354.744 -0.972509 -1.24016 0
M  V30 3706 C 355.991 -0.637034 -1.92219 0
M  V30 3707 C 356.319 0.828418 -1.75976 0
M  V30 3708 O 355.574 1.61206 -1.10955 0
M  V30 3709 C 355.873 -0.963694 -3.44162 0
M  V30 3710 C 355.539 -2.41807 -3.80579 0
M  V30 3711 C 354.201 -2.81556 -3.9023 0
M  V30 3712 C 356.553 -3.36172 -3.98293 0
M  V30 3713 C 353.881 -4.14702 -4.15017 0
M  V30 3714 C 356.233 -4.68952 -4.24578 0
M  V30 3715 C 354.897 -5.08472 -4.32449 0
M  V30 3716 H 354.167 -0.233107 -0.703379 0
M  V30 3717 H 356.814 -1.2249 -1.47202 0
M  V30 3718 H 355.119 -0.29365 -3.90698 0
M  V30 3719 H 356.816 -0.682449 -3.9515 0
M  V30 3720 H 353.406 -2.09988 -3.73635 0
M  V30 3721 H 357.59 -3.06644 -3.90234 0
M  V30 3722 H 352.846 -4.4494 -4.19331 0
M  V30 3723 H 357.02 -5.42037 -4.37229 0
M  V30 3724 H 354.647 -6.11665 -4.51409 0
M  V30 3725 N 356.222 1.38976 -0.743202 0
M  V30 3726 C 357.462 2.02193 -0.29954 0
M  V30 3727 C 357.826 1.5771 1.09506 0
M  V30 3728 O 359.027 2.13184 1.63726 0
M  V30 3729 C 357.298 3.55077 -0.406822 0
M  V30 3730 S 358.857 4.38778 -0.0442109 0
M  V30 3731 H 355.675 0.701335 -0.116836 0
M  V30 3732 H 358.277 1.69651 -0.971529 0
M  V30 3733 H 356.981 3.84942 -1.42295 0
M  V30 3734 H 356.512 3.92383 0.282707 0
M  V30 3735 H 358.527 4.82222 1.16947 0
M  V30 3736 N 357.7 0.491464 1.49741 0
M  V30 3737 C 358.949 -0.0582189 2.01616 0
M  V30 3738 C 359.262 -1.38927 1.3769 0
M  V30 3739 O 360.468 -2.02509 1.80838 0
M  V30 3740 C 358.924 -0.154235 3.59569 0
M  V30 3741 C 358.532 1.1696 4.32463 0
M  V30 3742 C 360.276 -0.65479 4.1942 0
M  V30 3743 C 358.183 1.03627 5.8225 0
M  V30 3744 H 357.113 -0.0255317 0.753568 0
M  V30 3745 H 359.764 0.629445 1.72367 0
M  V30 3746 H 358.146 -0.906138 3.85493 0
M  V30 3747 H 359.32 1.93405 4.18248 0
M  V30 3748 H 357.635 1.60285 3.84315 0
M  V30 3749 H 360.232 -0.771903 5.29099 0
M  V30 3750 H 360.575 -1.65127 3.8215 0
M  V30 3751 H 361.108 0.040304 3.9778 0
M  V30 3752 H 357.847 2.00672 6.24028 0
M  V30 3753 H 357.367 0.312546 5.98985 0
M  V30 3754 H 359.046 0.711114 6.4308 0
M  V30 3755 N 359.178 -1.55987 0.224894 0
M  V30 3756 C 360.424 -1.99433 -0.39973 0
M  V30 3757 C 360.779 -1.11004 -1.57149 0
M  V30 3758 O 360.072 -0.160725 -1.90925 0
M  V30 3759 C 360.266 -3.46394 -0.880106 0
M  V30 3760 C 360.095 -4.4904 0.243565 0
M  V30 3761 C 358.865 -5.00272 0.711056 0
M  V30 3762 C 361.063 -5.03195 1.06299 0
M  V30 3763 N 359.045 -5.86628 1.80944 0
M  V30 3764 C 360.416 -5.86508 2.01017 0
M  V30 3765 C 362.471 -4.8555 1.10205 0
M  V30 3766 C 361.174 -6.54062 2.99324 0
M  V30 3767 C 363.2 -5.53866 2.07332 0
M  V30 3768 C 362.562 -6.3695 3.00789 0
M  V30 3769 H 358.661 -0.773815 -0.112847 0
M  V30 3770 H 361.245 -1.91754 0.337432 0
M  V30 3771 H 359.416 -3.54515 -1.58662 0
M  V30 3772 H 361.148 -3.76752 -1.47783 0
M  V30 3773 H 357.903 -4.72655 0.29906 0
M  V30 3774 H 358.327 -6.34507 2.36073 0
M  V30 3775 H 362.969 -4.20966 0.39343 0
M  V30 3776 H 360.687 -7.17827 3.71147 0
M  V30 3777 H 364.273 -5.42178 2.11032 0
M  V30 3778 H 363.153 -6.8888 3.74718 0
M  V30 3779 N 360.656 0.0484629 -1.57525 0
M  V30 3780 C 361.603 1.05504 -2.05275 0
M  V30 3781 C 362.573 1.37084 -0.937927 0
M  V30 3782 O 363.758 1.47754 -1.2072 0
M  V30 3783 C 360.898 2.35676 -2.52093 0
M  V30 3784 C 360.011 2.10423 -3.77288 0
M  V30 3785 C 359.146 3.34327 -4.12794 0
M  V30 3786 C 358.185 3.04542 -5.30962 0
M  V30 3787 N 357.322 4.20841 -5.61994 0
M  V30 3788 H 362.162 0.640885 -2.91027 0
M  V30 3789 H 359.699 0.304854 -1.43906 0
M  V30 3790 H 361.657 3.11709 -2.77297 0
M  V30 3791 H 360.287 2.7485 -1.69285 0
M  V30 3792 H 359.339 1.24976 -3.59284 0
M  V30 3793 H 360.651 1.84438 -4.63448 0
M  V30 3794 H 359.805 4.1874 -4.39024 0
M  V30 3795 H 358.544 3.63408 -3.25247 0
M  V30 3796 H 357.549 2.18528 -5.04505 0
M  V30 3797 H 358.774 2.76758 -6.20146 0
M  V30 3798 H 356.72 4.4991 -4.77406 0
M  V30 3799 H 356.637 3.98212 -6.42622 0
M  V30 3800 H 357.905 5.06184 -5.92789 0
M  V30 3801 N 362.134 1.5431 0.320358 0
M  V30 3802 C 363.382 1.72327 1.05583 0
M  V30 3803 C 363.703 0.50149 1.88441 0
M  V30 3804 O 362.973 -0.48448 1.89815 0
M  V30 3805 H 361.553 0.635387 0.3928 0
M  V30 3806 H 364.215 1.91621 0.356019 0
M  V30 3807 H 363.311 2.60426 1.72003 0
M  V30 3808 N 363.613 -0.582584 1.46437 0
M  V30 3809 C 364.841 -1.36682 1.55324 0
M  V30 3810 C 365.256 -1.87796 0.194409 0
M  V30 3811 O 364.613 -1.63623 -0.808318 0
M  V30 3812 C 364.664 -2.55426 2.55812 0
M  V30 3813 O 364.385 -2.0643 3.86417 0
M  V30 3814 C 365.886 -3.47976 2.74641 0
M  V30 3815 H 363.106 -0.417545 0.525259 0
M  V30 3816 H 365.65 -0.708219 1.91845 0
M  V30 3817 H 363.805 -3.17275 2.22295 0
M  V30 3818 H 364.219 -2.83762 4.41111 0
M  V30 3819 H 365.693 -4.27775 3.48874 0
M  V30 3820 H 366.17 -3.99919 1.81553 0
M  V30 3821 H 366.776 -2.91962 3.09255 0
M  V30 3822 N 365.091 -1.34144 -0.827227 0
M  V30 3823 C 366.038 -1.25364 -1.93785 0
M  V30 3824 C 367.008 -0.129774 -1.65592 0
M  V30 3825 O 368.193 -0.310024 -1.88264 0
M  V30 3826 C 365.333 -1.01064 -3.2997 0
M  V30 3827 C 364.446 -2.22185 -3.70484 0
M  V30 3828 C 363.581 -1.91203 -4.95595 0
M  V30 3829 C 362.62 -3.08491 -5.28677 0
M  V30 3830 N 361.757 -2.77421 -6.44967 0
M  V30 3831 H 366.597 -2.20347 -2.00627 0
M  V30 3832 H 364.134 -1.09558 -0.981608 0
M  V30 3833 H 366.092 -0.850139 -4.08446 0
M  V30 3834 H 364.722 -0.0975026 -3.22653 0
M  V30 3835 H 363.774 -2.4917 -2.87434 0
M  V30 3836 H 365.086 -3.0983 -3.90905 0
M  V30 3837 H 364.24 -1.71864 -5.81848 0
M  V30 3838 H 362.979 -1.00812 -4.77167 0
M  V30 3839 H 361.984 -3.28431 -4.40923 0
M  V30 3840 H 363.209 -3.99655 -5.49047 0
M  V30 3841 H 361.155 -1.89601 -6.28003 0
M  V30 3842 H 361.072 -3.58598 -6.6554 0
M  V30 3843 H 362.34 -2.61577 -7.34301 0
M  V30 3844 N 366.569 1.04691 -1.17803 0
M  V30 3845 C 367.794 1.81984 -0.994813 0
M  V30 3846 C 368.219 1.82586 0.452112 0
M  V30 3847 O 367.577 1.23854 1.324 0
M  V30 3848 C 367.625 3.2575 -1.54659 0
M  V30 3849 O 366.729 4.05267 -0.763728 0
M  V30 3850 H 366.07 0.562483 -0.352857 0
M  V30 3851 H 368.6 1.3189 -1.56417 0
M  V30 3852 H 368.61 3.76541 -1.57102 0
M  V30 3853 H 367.285 3.24627 -2.59981 0
M  V30 3854 H 365.862 3.63972 -0.811108 0
M  V30 3855 N 368.047 0.979072 1.23499 0
M  V30 3856 C 369.275 0.665202 1.95915 0
M  V30 3857 C 369.69 -0.767571 1.72493 0
M  V30 3858 O 369.047 -1.51635 1.01554 0
M  V30 3859 C 369.098 0.944438 3.48945 0
M  V30 3860 O 368.819 2.3209 3.71572 0
M  V30 3861 C 370.32 0.646336 4.38563 0
M  V30 3862 H 367.54 0.247218 0.623798 0
M  V30 3863 H 370.084 1.31009 1.57025 0
M  V30 3864 H 368.239 0.345575 3.85856 0
M  V30 3865 H 368.653 2.40957 4.65876 0
M  V30 3866 H 370.127 0.892091 5.44744 0
M  V30 3867 H 370.604 -0.419575 4.37191 0
M  V30 3868 H 371.21 1.22562 4.07258 0
M  V30 3869 N 369.525 -1.3858 0.750561 0
M  V30 3870 C 370.773 -1.99789 0.30477 0
M  V30 3871 C 371.094 -1.59874 -1.11649 0
M  V30 3872 O 370.364 -0.85417 -1.76297 0
M  V30 3873 H 368.944 -0.738902 0.109694 0
M  V30 3874 H 371.606 -1.69391 0.963983 0
M  V30 3875 H 370.702 -3.09952 0.365499 0
M  V30 3876 N 371.003 -0.499398 -1.49478 0
M  V30 3877 C 371.95 0.279881 -2.29097 0
M  V30 3878 C 372.92 0.961805 -1.3542 0
M  V30 3879 O 374.105 0.968777 -1.64376 0
M  V30 3880 C 371.245 1.33932 -3.18051 0
M  V30 3881 C 370.358 0.669333 -4.26783 0
M  V30 3882 C 369.493 1.70907 -5.02955 0
M  V30 3883 C 368.532 1.02087 -6.03527 0
M  V30 3884 N 367.669 2.00474 -6.7287 0
M  V30 3885 H 372.509 -0.405317 -2.95231 0
M  V30 3886 H 370.046 -0.211726 -1.45568 0
M  V30 3887 H 372.004 1.96553 -3.67998 0
M  V30 3888 H 370.634 1.9933 -2.53904 0
M  V30 3889 H 369.686 -0.0701234 -3.80335 0
M  V30 3890 H 370.998 0.127503 -4.98637 0
M  V30 3891 H 370.152 2.41037 -5.56764 0
M  V30 3892 H 368.891 2.28476 -4.30871 0
M  V30 3893 H 367.896 0.305338 -5.48951 0
M  V30 3894 H 369.121 0.451708 -6.77596 0
M  V30 3895 H 367.067 2.57007 -6.03559 0
M  V30 3896 H 366.984 1.51353 -7.40694 0
M  V30 3897 H 368.252 2.69897 -7.31284 0
M  V30 3898 N 372.481 1.55866 -0.233164 0
M  V30 3899 C 373.727 1.98897 0.395959 0
M  V30 3900 C 374.06 1.12091 1.58585 0
M  V30 3901 O 373.335 0.181182 1.93654 0
M  V30 3902 C 373.618 3.50658 0.819224 0
M  V30 3903 C 373.471 4.48233 -0.375109 0
M  V30 3904 C 374.79 4.07135 1.67121 0
M  V30 3905 H 371.909 0.723102 0.142451 0
M  V30 3906 H 374.551 1.87082 -0.331725 0
M  V30 3907 H 372.701 3.60857 1.43925 0
M  V30 3908 H 374.373 4.50031 -1.01341 0
M  V30 3909 H 372.616 4.21624 -1.02058 0
M  V30 3910 H 373.287 5.51988 -0.0358328 0
M  V30 3911 H 375.763 3.99952 1.14795 0
M  V30 3912 H 374.639 5.13615 1.93625 0
M  V30 3913 H 374.9 3.54736 2.63846 0
M  V30 3914 N 373.959 -0.0401083 1.57549 0
M  V30 3915 C 375.205 -0.734211 1.89043 0
M  V30 3916 C 375.538 -1.75591 0.829535 0
M  V30 3917 O 374.813 -1.93868 -0.156706 0
M  V30 3918 C 375.096 -1.41374 3.31188 0
M  V30 3919 C 374.949 -0.406299 4.47961 0
M  V30 3920 C 376.268 -2.35061 3.72068 0
M  V30 3921 H 373.387 -0.265447 0.687537 0
M  V30 3922 H 376.029 0.00294087 1.9 0
M  V30 3923 H 374.179 -2.04206 3.30503 0
M  V30 3924 H 375.851 0.219255 4.60779 0
M  V30 3925 H 374.094 0.275485 4.32924 0
M  V30 3926 H 374.765 -0.920022 5.44279 0
M  V30 3927 H 377.241 -1.82282 3.74049 0
M  V30 3928 H 376.117 -2.79593 4.72355 0
M  V30 3929 H 376.378 -3.21258 3.0372 0
M  V30 3930 N 375.437 -1.54477 -0.31217 0
M  V30 3931 C 376.667 -1.76948 -1.06645 0
M  V30 3932 C 377.075 -0.523593 -1.81811 0
M  V30 3933 O 376.418 0.51578 -1.76311 0
M  V30 3934 C 376.48 -2.91668 -2.10166 0
M  V30 3935 C 376.144 -4.30165 -1.54296 0
M  V30 3936 C 377.141 -5.10603 -0.978793 0
M  V30 3937 C 374.826 -4.76738 -1.58196 0
M  V30 3938 C 376.82 -6.3573 -0.461048 0
M  V30 3939 C 374.507 -6.01831 -1.06034 0
M  V30 3940 C 375.505 -6.81161 -0.500844 0
M  V30 3941 O 375.193 -8.03899 0.0128958 0
M  V30 3942 H 374.925 -0.594088 -0.322546 0
M  V30 3943 H 377.479 -2.02213 -0.360441 0
M  V30 3944 H 375.709 -2.62001 -2.84416 0
M  V30 3945 H 377.398 -3.01817 -2.71406 0
M  V30 3946 H 378.164 -4.75771 -0.941651 0
M  V30 3947 H 374.043 -4.15027 -2.00683 0
M  V30 3948 H 377.587 -6.97596 -0.0236894 0
M  V30 3949 H 373.484 -6.36152 -1.09459 0
M  V30 3950 H 374.252 -8.18437 -0.101457 0
M  V30 3951 N 376.915 0.57481 -1.46744 0
M  V30 3952 C 378.161 1.3347 -1.52688 0
M  V30 3953 C 378.494 1.93353 -0.181229 0
M  V30 3954 O 377.769 1.76912 0.808237 0
M  V30 3955 C 378.052 2.45811 -2.63152 0
M  V30 3956 C 377.905 1.90912 -4.07275 0
M  V30 3957 C 379.224 3.47822 -2.69644 0
M  V30 3958 H 376.343 0.483935 -0.555856 0
M  V30 3959 H 378.985 0.644968 -1.78718 0
M  V30 3960 H 377.135 3.04646 -2.41088 0
M  V30 3961 H 378.807 1.36473 -4.4065 0
M  V30 3962 H 377.05 1.21691 -4.16382 0
M  V30 3963 H 377.721 2.72042 -4.80309 0
M  V30 3964 H 380.197 2.9888 -2.895 0
M  V30 3965 H 379.073 4.23876 -3.48742 0
M  V30 3966 H 379.334 4.05555 -1.76005 0
M  V30 3967 N 378.394 1.34581 0.820102 0
M  V30 3968 C 379.622 1.3018 1.60813 0
M  V30 3969 C 380.037 -0.123551 1.88395 0
M  V30 3970 O 379.394 -1.07148 1.47735 0
M  V30 3971 C 379.445 2.09312 2.94739 0
M  V30 3972 O 379.166 3.46288 2.68358 0
M  V30 3973 C 380.667 2.1234 3.89136 0
M  V30 3974 H 377.887 0.447726 0.499782 0
M  V30 3975 H 380.431 1.77237 1.02017 0
M  V30 3976 H 378.586 1.65889 3.50085 0
M  V30 3977 H 379 3.87227 3.53774 0
M  V30 3978 H 380.474 2.72126 4.80262 0
M  V30 3979 H 380.951 1.11854 4.24718 0
M  V30 3980 H 381.557 2.55864 3.39726 0
M  V30 3981 N 379.872 -1.04064 1.18357 0
M  V30 3982 C 380.835 -2.10243 0.912707 0
M  V30 3983 C 381.835 -1.60477 -0.101928 0
M  V30 3984 O 383.025 -1.73703 0.131517 0
M  V30 3985 C 380.157 -3.38893 0.369387 0
M  V30 3986 H 381.35 -2.35706 1.85426 0
M  V30 3987 H 378.903 -1.20489 0.995594 0
M  V30 3988 H 379.638 -3.19094 -0.578776 0
M  V30 3989 H 379.423 -3.76331 1.1008 0
M  V30 3990 H 380.913 -4.17128 0.198575 0
M  V30 3991 N 381.35 -0.985608 -1.22978 0
M  V30 3992 C 382.578 -0.675582 -1.95559 0
M  V30 3993 C 382.993 0.758413 -1.72897 0
M  V30 3994 O 382.35 1.51094 -1.02357 0
M  V30 3995 C 382.401 -0.96293 -3.48439 0
M  V30 3996 O 382.122 -2.34057 -3.70336 0
M  V30 3997 C 383.623 -0.669585 -4.38214 0
M  V30 3998 H 380.843 -0.250523 -0.622478 0
M  V30 3999 H 383.387 -1.3184 -1.56328 0
M  V30 4000 H 381.542 -0.366033 -3.85667 0
M  V30 4001 H 381.956 -2.43424 -4.64591 0
M  V30 4002 H 383.43 -0.920967 -5.44263 0
M  V30 4003 H 383.907 0.396383 -4.37408 0
M  V30 4004 H 384.513 -1.2472 -4.06602 0
M  V30 4005 N 382.828 1.3818 -0.7579 0
M  V30 4006 C 384.075 2.00019 -0.315985 0
M  V30 4007 C 384.403 1.60163 1.10355 0
M  V30 4008 O 383.658 0.83264 1.77103 0
M  V30 4009 C 383.957 3.55252 -0.391218 0
M  V30 4010 C 383.623 4.14834 -1.76702 0
M  V30 4011 C 382.285 4.30821 -2.14353 0
M  V30 4012 C 384.637 4.47658 -2.66931 0
M  V30 4013 C 381.965 4.76928 -3.41696 0
M  V30 4014 C 384.317 4.95184 -3.93669 0
M  V30 4015 C 382.981 5.09377 -4.31383 0
M  V30 4016 H 382.251 0.731923 -0.115627 0
M  V30 4017 H 384.898 1.65161 -0.969223 0
M  V30 4018 H 383.203 3.90273 0.34558 0
M  V30 4019 H 384.9 4.00988 -0.030805 0
M  V30 4020 H 381.49 4.02808 -1.46435 0
M  V30 4021 H 385.674 4.34904 -2.39106 0
M  V30 4022 H 380.93 4.86103 -3.70829 0
M  V30 4023 H 385.104 5.19551 -4.63724 0
M  V30 4024 H 382.731 5.44865 -5.30119 0
M  V30 4025 N 384.306 0.507319 1.49211 0
M  V30 4026 C 385.717 0.0611118 1.866 0
M  V30 4027 C 386.068 -1.35488 1.41907 0
M  V30 4028 O 385.193 -2.0108 0.799726 0
M  V30 4029 C 385.788 0.104125 3.3864 0
M  V30 4030 C 384.347 -0.28677 3.75306 0
M  V30 4031 C 383.494 0.473893 2.73221 0
M  V30 4032 H 386.445 0.719775 1.41439 0
M  V30 4033 H 386.466 -0.689672 3.74198 0
M  V30 4034 H 385.978 1.13482 3.71138 0
M  V30 4035 H 384.079 -1.32046 3.48417 0
M  V30 4036 H 384.192 0.0370745 4.79086 0
M  V30 4037 H 382.556 -0.0770644 2.54583 0
M  V30 4038 H 383.339 1.50478 3.08563 0
M  V30 4039 N 385.784 -1.5574 0.241426 0
M  V30 4040 C 387.014 -2.02913 -0.38857 0
M  V30 4041 C 387.422 -1.12014 -1.52478 0
M  V30 4042 O 386.765 -0.125903 -1.83268 0
M  V30 4043 C 386.827 -3.4636 -0.963075 0
M  V30 4044 C 386.491 -4.56982 0.0401916 0
M  V30 4045 C 387.488 -5.12941 0.847766 0
M  V30 4046 C 385.173 -5.0203 0.164699 0
M  V30 4047 C 387.167 -6.12437 1.76636 0
M  V30 4048 C 384.854 -6.01358 1.0868 0
M  V30 4049 C 385.852 -6.5644 1.88616 0
M  V30 4050 O 385.54 -7.53831 2.79273 0
M  V30 4051 H 385.272 -0.668983 -0.0971452 0
M  V30 4052 H 387.826 -2.02198 0.361248 0
M  V30 4053 H 386.056 -3.44206 -1.76235 0
M  V30 4054 H 387.745 -3.77065 -1.50257 0
M  V30 4055 H 388.511 -4.78974 0.762133 0
M  V30 4056 H 384.39 -4.58824 -0.447411 0
M  V30 4057 H 387.934 -6.55355 2.39071 0
M  V30 4058 H 383.831 -6.34746 1.17338 0
M  V30 4059 H 384.599 -7.71428 2.73572 0
M  V30 4060 N 387.262 0.0317525 -1.57568 0
M  V30 4061 C 388.511 0.722131 -1.8833 0
M  V30 4062 C 388.824 1.76664 -0.839587 0
M  V30 4063 O 390.03 2.50942 -1.03635 0
M  V30 4064 C 388.486 1.33544 -3.34207 0
M  V30 4065 C 388.094 0.327415 -4.46802 0
M  V30 4066 C 389.838 2.00585 -3.7412 0
M  V30 4067 C 387.745 0.948915 -5.83738 0
M  V30 4068 H 386.675 0.273466 -0.702661 0
M  V30 4069 H 389.326 -0.0235811 -1.83485 0
M  V30 4070 H 387.708 2.13077 -3.33788 0
M  V30 4071 H 388.882 -0.441006 -4.58685 0
M  V30 4072 H 387.197 -0.240758 -4.15703 0
M  V30 4073 H 389.794 2.47932 -4.73744 0
M  V30 4074 H 390.137 2.82285 -3.05975 0
M  V30 4075 H 390.67 1.27831 -3.76702 0
M  V30 4076 H 387.409 0.171387 -6.55276 0
M  V30 4077 H 386.929 1.68724 -5.7558 0
M  V30 4078 H 388.608 1.45705 -6.3038 0
M  V30 4079 N 388.74 1.54641 0.303973 0
M  V30 4080 C 389.673 1.80263 1.3993 0
M  V30 4081 C 390.651 0.653657 1.48883 0
M  V30 4082 O 391.835 0.893284 1.6599 0
M  V30 4083 C 388.962 1.9367 2.77866 0
M  V30 4084 C 388.008 3.16078 2.86351 0
M  V30 4085 S 388.841 4.74219 2.4875 0
M  V30 4086 C 389.997 4.90558 3.88721 0
M  V30 4087 H 390.23 2.72886 1.17986 0
M  V30 4088 H 387.763 1.46014 0.501918 0
M  V30 4089 H 389.721 2.0208 3.57315 0
M  V30 4090 H 388.382 1.01991 2.9708 0
M  V30 4091 H 387.575 3.22252 3.87517 0
M  V30 4092 H 387.177 3.06099 2.14893 0
M  V30 4093 H 389.469 4.74398 4.83687 0
M  V30 4094 H 390.412 5.92651 3.87518 0
M  V30 4095 H 390.82 4.18728 3.78585 0
M  V30 4096 N 390.218 -0.567019 1.47046 0
M  V30 4097 C 391.148 -1.68482 1.61667 0
M  V30 4098 C 392.129 -1.6358 0.466418 0
M  V30 4099 O 393.314 -1.81354 0.694574 0
M  V30 4100 C 390.444 -3.07124 1.62148 0
M  V30 4101 C 389.398 -3.26867 2.76301 0
M  V30 4102 C 388.724 -4.66196 2.61849 0
M  V30 4103 C 390.024 -3.13186 4.17986 0
M  V30 4104 H 391.718 -1.56502 2.5524 0
M  V30 4105 H 389.264 -0.751486 1.22836 0
M  V30 4106 H 391.217 -3.8516 1.70968 0
M  V30 4107 H 389.941 -3.2004 0.651287 0
M  V30 4108 H 388.6 -2.51237 2.66975 0
M  V30 4109 H 388.248 -4.75898 1.62879 0
M  V30 4110 H 387.948 -4.80356 3.38425 0
M  V30 4111 H 389.472 -5.46379 2.72584 0
M  V30 4112 H 390.886 -3.81049 4.2834 0
M  V30 4113 H 389.283 -3.3886 4.95272 0
M  V30 4114 H 390.353 -2.10057 4.3704 0
M  V30 4115 N 391.696 -1.35014 -0.812953 0
M  V30 4116 C 392.626 -1.30069 -1.93919 0
M  V30 4117 C 393.607 -0.176275 -1.69184 0
M  V30 4118 O 394.792 -0.370227 -1.90638 0
M  V30 4119 C 391.922 -1.06547 -3.30552 0
M  V30 4120 C 390.876 -2.15561 -3.69753 0
M  V30 4121 C 390.202 -1.77214 -5.04479 0
M  V30 4122 C 391.502 -3.57476 -3.808 0
M  V30 4123 H 393.196 -2.24303 -1.98314 0
M  V30 4124 H 390.742 -1.07977 -0.952736 0
M  V30 4125 H 392.695 -1.01729 -4.08937 0
M  V30 4126 H 391.419 -0.0875719 -3.26483 0
M  V30 4127 H 390.078 -2.19466 -2.9365 0
M  V30 4128 H 389.726 -0.780589 -4.96906 0
M  V30 4129 H 389.426 -2.50184 -5.31678 0
M  V30 4130 H 390.95 -1.7391 -5.8531 0
M  V30 4131 H 392.364 -3.55929 -4.4943 0
M  V30 4132 H 390.761 -4.29152 -4.19462 0
M  V30 4133 H 391.831 -3.94091 -2.82525 0
M  V30 4134 N 393.175 1.03435 -1.18907 0
M  V30 4135 C 394.424 1.76143 -0.982669 0
M  V30 4136 C 394.737 1.89416 0.487953 0
M  V30 4137 O 395.943 2.59041 0.813036 0
M  V30 4138 C 394.399 3.16722 -1.70924 0
M  V30 4139 C 394.007 3.11522 -3.21959 0
M  V30 4140 C 395.751 3.93764 -1.58588 0
M  V30 4141 C 393.658 4.46999 -3.87228 0
M  V30 4142 H 392.588 0.660292 -0.364047 0
M  V30 4143 H 395.239 1.158 -1.42347 0
M  V30 4144 H 393.621 3.775 -1.19623 0
M  V30 4145 H 394.795 2.60158 -3.80335 0
M  V30 4146 H 393.11 2.47978 -3.34508 0
M  V30 4147 H 395.707 4.93963 -2.04707 0
M  V30 4148 H 396.05 4.12794 -0.539142 0
M  V30 4149 H 396.583 3.39576 -2.07203 0
M  V30 4150 H 393.322 4.33174 -4.91976 0
M  V30 4151 H 392.842 4.98441 -3.33642 0
M  V30 4152 H 394.521 5.15898 -3.90459 0
M  V30 4153 N 394.653 0.992116 1.22453 0
M  V30 4154 C 395.583 0.561677 2.26644 0
M  V30 4155 C 396.564 -0.411055 1.65059 0
M  V30 4156 O 397.749 -0.301861 1.9184 0
M  V30 4157 C 394.879 -0.125247 3.47074 0
M  V30 4158 C 393.833 0.765948 4.21091 0
M  V30 4159 C 393.159 -0.0538484 5.34673 0
M  V30 4160 C 394.459 2.06242 4.79856 0
M  V30 4161 H 396.153 1.43259 2.62902 0
M  V30 4162 H 393.699 0.690283 1.26377 0
M  V30 4163 H 395.652 -0.437764 4.1912 0
M  V30 4164 H 394.376 -1.03069 3.0991 0
M  V30 4165 H 393.035 1.0621 3.50878 0
M  V30 4166 H 392.683 -0.960188 4.9375 0
M  V30 4167 H 392.383 0.539415 5.85119 0
M  V30 4168 H 393.907 -0.360477 6.09535 0
M  V30 4169 H 395.321 1.8139 5.43848 0
M  V30 4170 H 393.718 2.60444 5.40638 0
M  V30 4171 H 394.788 2.74167 3.99951 0
M  V30 4172 N 396.131 -1.37776 0.765217 0
M  V30 4173 C 397.061 -2.32945 0.160953 0
M  V30 4174 C 398.042 -1.55454 -0.690516 0
M  V30 4175 O 399.227 -1.83721 -0.629318 0
M  V30 4176 C 396.357 -3.39669 -0.724031 0
M  V30 4177 C 395.311 -4.27992 0.0256173 0
M  V30 4178 C 394.637 -5.25673 -0.978383 0
M  V30 4179 C 395.937 -5.08309 1.20082 0
M  V30 4180 H 397.631 -2.83728 0.955969 0
M  V30 4181 H 395.177 -1.36416 0.461149 0
M  V30 4182 H 397.13 -4.05219 -1.15652 0
M  V30 4183 H 395.854 -2.87396 -1.5515 0
M  V30 4184 H 394.513 -3.63964 0.438812 0
M  V30 4185 H 394.161 -4.69682 -1.80022 0
M  V30 4186 H 393.861 -5.85625 -0.481378 0
M  V30 4187 H 395.385 -5.94098 -1.40995 0
M  V30 4188 H 396.799 -5.67034 0.845307 0
M  V30 4189 H 395.196 -5.77554 1.62947 0
M  V30 4190 H 396.266 -4.41365 2.00811 0
M  V30 4191 N 397.609 -0.515225 -1.4894 0
M  V30 4192 C 398.858 0.0261361 -2.01683 0
M  V30 4193 C 399.171 1.36719 -1.39883 0
M  V30 4194 O 400.377 1.99606 -1.84037 0
M  V30 4195 C 398.833 0.0970111 -3.59769 0
M  V30 4196 C 398.441 -1.23825 -4.30548 0
M  V30 4197 C 400.185 0.587981 -4.20408 0
M  V30 4198 C 398.092 -1.12877 -5.80528 0
M  V30 4199 H 397.022 0.0135398 -0.753878 0
M  V30 4200 H 399.673 -0.656787 -1.71343 0
M  V30 4201 H 398.055 0.844694 -3.86886 0
M  V30 4202 H 399.229 -2.00034 -4.15118 0
M  V30 4203 H 397.544 -1.66379 -3.81716 0
M  V30 4204 H 400.141 0.68763 -5.3026 0
M  V30 4205 H 400.484 1.59026 -3.84729 0
M  V30 4206 H 401.017 -0.103582 -3.97665 0
M  V30 4207 H 397.756 -2.10575 -6.20756 0
M  V30 4208 H 397.276 -0.407799 -5.98412 0
M  V30 4209 H 398.955 -0.813332 -6.41868 0
M  V30 4210 N 399.087 1.5561 -0.249682 0
M  V30 4211 C 400.503 1.59254 0.105103 0
M  V30 4212 C 400.703 1.26685 1.56694 0
M  V30 4213 O 399.759 1.0155 2.31179 0
M  V30 4214 C 401.072 2.99687 -0.246592 0
M  V30 4215 C 402.62 3.12416 -0.191118 0
M  V30 4216 C 403.095 4.55074 -0.516885 0
M  V30 4217 N 404.586 4.60835 -0.467489 0
M  V30 4218 C 405.321 5.69201 -0.69268 0
M  V30 4219 N 404.817 6.85817 -0.981146 0
M  V30 4220 N 406.61 5.58635 -0.623198 0
M  V30 4221 H 398.761 1.75049 -1.20298 0
M  V30 4222 H 401.024 0.815003 -0.484225 0
M  V30 4223 H 400.73 3.28267 -1.26228 0
M  V30 4224 H 400.604 3.74798 0.424962 0
M  V30 4225 H 402.991 2.83615 0.815247 0
M  V30 4226 H 403.072 2.39573 -0.896563 0
M  V30 4227 H 402.716 4.84596 -1.52082 0
M  V30 4228 H 402.646 5.26181 0.210068 0
M  V30 4229 H 405.137 3.7705 -0.253373 0
M  V30 4230 H 405.45 7.64341 -1.14032 0
M  V30 4231 H 403.795 6.87494 -1.01865 0
M  V30 4232 H 406.986 4.66406 -0.397863 0
M  V30 4233 H 407.159 6.43017 -0.802093 0
M  V30 4234 N 400.565 -0.0233959 1.57583 0
M  V30 4235 C 401.813 -0.711654 1.89156 0
M  V30 4236 C 402.134 -1.75591 0.848096 0
M  V30 4237 O 401.404 -1.95547 -0.117566 0
M  V30 4238 H 399.984 -0.265835 0.698098 0
M  V30 4239 H 402.646 0.0119948 1.94896 0
M  V30 4240 H 401.742 -1.19766 2.88206 0
M  V30 4241 N 402.043 -1.548 -0.295768 0
M  V30 4242 C 403.289 -1.74588 -1.03184 0
M  V30 4243 C 403.622 -0.532962 -1.86744 0
M  V30 4244 O 402.897 0.469872 -1.88739 0
M  V30 4245 C 403.18 -3.03791 -1.93347 0
M  V30 4246 C 403.033 -4.35392 -1.12933 0
M  V30 4247 C 404.352 -3.28892 -2.92435 0
M  V30 4248 H 401.471 -0.635221 -0.373715 0
M  V30 4249 H 404.113 -1.87519 -0.30606 0
M  V30 4250 H 402.263 -2.92898 -2.55232 0
M  V30 4251 H 403.935 -4.58211 -0.532943 0
M  V30 4252 H 402.178 -4.31642 -0.432168 0
M  V30 4253 H 402.849 -5.22074 -1.79284 0
M  V30 4254 H 405.325 -3.39429 -2.4068 0
M  V30 4255 H 404.201 -4.20603 -3.52682 0
M  V30 4256 H 404.462 -2.47437 -3.6637 0
M  V30 4257 N 403.521 0.559213 -1.47345 0
M  V30 4258 C 404.749 1.34194 -1.57479 0
M  V30 4259 C 405.164 1.87463 -0.224261 0
M  V30 4260 O 404.521 1.64888 0.782185 0
M  V30 4261 C 404.572 2.51324 -2.59843 0
M  V30 4262 O 404.293 2.00256 -3.89653 0
M  V30 4263 C 405.794 3.43563 -2.80142 0
M  V30 4264 H 403.014 0.409136 -0.531835 0
M  V30 4265 H 405.558 0.677609 -1.92947 0
M  V30 4266 H 403.713 3.13699 -2.27314 0
M  V30 4267 H 404.127 2.76708 -4.4557 0
M  V30 4268 H 405.601 4.2217 -3.55635 0
M  V30 4269 H 406.078 3.9698 -1.87892 0
M  V30 4270 H 406.684 2.87005 -3.1386 0
M  V30 4271 N 404.999 1.35443 0.805782 0
M  V30 4272 C 405.929 1.31095 1.93226 0
M  V30 4273 C 406.91 0.185244 1.69088 0
M  V30 4274 O 408.095 0.380332 1.90439 0
M  V30 4275 C 405.225 1.08299 3.29983 0
M  V30 4276 C 404.179 2.17519 3.68605 0
M  V30 4277 C 403.505 1.79887 5.03532 0
M  V30 4278 C 404.805 3.5949 3.78898 0
M  V30 4279 H 406.499 2.25352 1.97122 0
M  V30 4280 H 404.045 1.0848 0.946996 0
M  V30 4281 H 405.998 1.03897 4.08391 0
M  V30 4282 H 404.722 0.104885 3.26432 0
M  V30 4283 H 403.381 2.2102 2.92482 0
M  V30 4284 H 403.029 0.80693 4.96485 0
M  V30 4285 H 402.729 2.53001 5.30344 0
M  V30 4286 H 404.253 1.77011 5.84379 0
M  V30 4287 H 405.667 3.58307 4.47536 0
M  V30 4288 H 404.064 4.31371 4.1718 0
M  V30 4289 H 405.134 3.95584 2.80431 0
M  V30 4290 N 406.477 -1.02803 1.19454 0
M  V30 4291 C 407.888 -1.57667 0.999899 0
M  V30 4292 C 408.239 -1.91041 -0.446956 0
M  V30 4293 O 407.364 -1.70978 -1.32648 0
M  V30 4294 C 407.959 -2.86477 1.80877 0
M  V30 4295 C 406.518 -3.37911 1.65811 0
M  V30 4296 C 405.665 -2.11343 1.79526 0
M  V30 4297 H 408.616 -0.853214 1.33813 0
M  V30 4298 H 408.637 -3.57408 1.30536 0
M  V30 4299 H 408.149 -2.62155 2.86175 0
M  V30 4300 H 406.25 -3.67218 0.63102 0
M  V30 4301 H 406.363 -4.10885 2.46395 0
M  V30 4302 H 404.727 -2.23254 1.22596 0
M  V30 4303 H 405.51 -1.89461 2.86285 0
M  V30 4304 N 407.956 -0.998596 -1.21925 0
M  V30 4305 C 409.204 -0.676325 -1.90448 0
M  V30 4306 C 409.525 0.794719 -1.78071 0
M  V30 4307 O 408.795 1.5701 -1.17152 0
M  V30 4308 H 407.375 -0.247165 -0.704925 0
M  V30 4309 H 410.037 -1.26633 -1.48156 0
M  V30 4310 H 409.133 -0.943858 -2.97486 0
M  V30 4311 N 409.434 1.37368 -0.772513 0
M  V30 4312 C 410.397 2.28601 -0.165541 0
M  V30 4313 C 411.397 1.48062 0.627238 0
M  V30 4314 O 412.587 1.68268 0.450715 0
M  V30 4315 C 409.719 3.32023 0.772897 0
M  V30 4316 H 410.912 2.83787 -0.969787 0
M  V30 4317 H 408.465 1.46647 -0.540775 0
M  V30 4318 H 409.2 2.81962 1.60212 0
M  V30 4319 H 408.985 3.91555 0.206585 0
M  V30 4320 H 410.475 4.00197 1.19298 0
M  V30 4321 N 410.912 0.523116 1.48665 0
M  V30 4322 C 412.137 -0.0117284 2.07397 0
M  V30 4323 C 412.562 -1.28031 1.37803 0
M  V30 4324 O 411.92 -1.75836 0.441762 0
M  V30 4325 C 411.968 -0.225786 3.59892 0
M  V30 4326 O 411.072 -1.29592 3.91509 0
M  V30 4327 H 410.413 0.0360673 0.66302 0
M  V30 4328 H 412.943 0.729066 1.9117 0
M  V30 4329 H 412.953 -0.450552 4.05505 0
M  V30 4330 H 411.628 0.700944 4.09951 0
M  V30 4331 H 410.205 -1.05436 3.57684 0
M  V30 4332 N 412.39 -1.55475 0.257931 0
M  V30 4333 C 413.3 -2.2549 -0.647425 0
M  V30 4334 C 414.316 -1.2748 -1.18427 0
M  V30 4335 O 415.492 -1.6038 -1.2182 0
M  V30 4336 C 412.557 -2.94916 -1.82278 0
M  V30 4337 C 411.618 -4.08363 -1.32432 0
M  V30 4338 C 410.851 -4.74469 -2.44366 0
M  V30 4339 O 411.074 -4.39701 -3.63344 0
M  V30 4340 O 410.008 -5.62763 -2.13497 0
M  V30 4341 H 413.834 -3.03593 -0.0807707 0
M  V30 4342 H 411.419 -1.49377 0.0259962 0
M  V30 4343 H 413.301 -3.38606 -2.50846 0
M  V30 4344 H 411.976 -2.19744 -2.37685 0
M  V30 4345 H 410.883 -3.69166 -0.605605 0
M  V30 4346 H 412.216 -4.85385 -0.816211 0
M  V30 4347 N 413.868 0.0150385 -1.57593 0
M  V30 4348 C 415.116 0.701613 -1.8953 0
M  V30 4349 C 415.437 1.75139 -0.857396 0
M  V30 4350 O 414.707 1.95607 0.107194 0
M  V30 4351 H 413.287 0.26213 -0.699498 0
M  V30 4352 H 415.949 -0.0223304 -1.94887 0
M  V30 4353 H 415.045 1.18236 -2.88837 0
M  V30 4354 N 415.346 1.54954 0.287554 0
M  V30 4355 C 416.595 1.74081 1.01877 0
M  V30 4356 C 416.908 0.541135 1.87966 0
M  V30 4357 O 418.114 0.614491 2.64455 0
M  V30 4358 C 416.57 3.08042 1.86113 0
M  V30 4359 C 416.178 4.35531 1.04961 0
M  V30 4360 C 417.922 3.36523 2.58752 0
M  V30 4361 C 415.829 5.60538 1.88551 0
M  V30 4362 H 414.759 0.64884 0.384087 0
M  V30 4363 H 417.41 1.81426 0.275101 0
M  V30 4364 H 415.792 2.94696 2.64519 0
M  V30 4365 H 416.966 4.59751 0.31074 0
M  V30 4366 H 415.281 4.14085 0.43843 0
M  V30 4367 H 417.878 4.27122 3.21668 0
M  V30 4368 H 418.221 2.56 3.28283 0
M  V30 4369 H 418.754 3.50901 1.87386 0
M  V30 4370 H 415.493 6.43767 1.23466 0
M  V30 4371 H 415.013 5.40483 2.60074 0
M  V30 4372 H 416.692 5.98297 2.46273 0
M  V30 4373 N 416.824 -0.551391 1.4764 0
M  V30 4374 C 417.771 -1.65796 1.60563 0
M  V30 4375 C 418.741 -1.59932 0.448428 0
M  V30 4376 O 419.926 -1.78679 0.669222 0
M  V30 4377 C 417.066 -3.04108 1.63133 0
M  V30 4378 C 416.179 -3.20365 2.89811 0
M  V30 4379 C 415.314 -4.49109 2.8368 0
M  V30 4380 C 414.353 -4.58819 4.05156 0
M  V30 4381 N 413.49 -5.78926 3.97227 0
M  V30 4382 H 418.33 -1.54088 2.5507 0
M  V30 4383 H 415.867 -0.75052 1.26513 0
M  V30 4384 H 417.825 -3.84207 1.62606 0
M  V30 4385 H 416.455 -3.14637 0.721341 0
M  V30 4386 H 415.507 -2.33659 3.00179 0
M  V30 4387 H 416.819 -3.23402 3.79753 0
M  V30 4388 H 415.973 -5.37475 2.81434 0
M  V30 4389 H 414.712 -4.4856 1.91431 0
M  V30 4390 H 413.717 -3.68864 4.077 0
M  V30 4391 H 414.942 -4.61124 4.98539 0
M  V30 4392 H 412.888 -5.79314 3.07785 0
M  V30 4393 H 412.805 -5.83367 4.80853 0
M  V30 4394 H 414.073 -6.69637 3.99007 0
M  V30 4395 N 418.302 -1.35869 -0.798587 0
M  V30 4396 C 419.549 -1.29588 -1.55606 0
M  V30 4397 C 419.877 0.127456 -1.94082 0
M  V30 4398 O 419.132 1.09461 -1.62225 0
M  V30 4399 C 419.431 -2.1556 -2.85077 0
M  V30 4400 C 419.097 -3.6424 -2.65781 0
M  V30 4401 C 417.759 -4.04766 -2.60227 0
M  V30 4402 C 420.111 -4.58547 -2.47758 0
M  V30 4403 C 417.439 -5.37753 -2.34603 0
M  V30 4404 C 419.791 -5.91742 -2.23662 0
M  V30 4405 C 418.455 -6.31402 -2.16534 0
M  V30 4406 H 417.725 -0.474197 -0.569402 0
M  V30 4407 H 420.372 -1.67839 -0.922086 0
M  V30 4408 H 418.677 -1.70216 -3.52893 0
M  V30 4409 H 420.374 -2.08031 -3.42818 0
M  V30 4410 H 416.964 -3.32086 -2.70956 0
M  V30 4411 H 421.148 -4.28117 -2.51056 0
M  V30 4412 H 416.404 -5.67474 -2.2756 0
M  V30 4413 H 420.578 -6.6439 -2.08708 0
M  V30 4414 H 418.205 -7.34381 -1.96441 0
M  V30 4415 N 419.78 1.02168 -1.19998 0
M  V30 4416 C 421.01 1.79036 -1.031 0
M  V30 4417 C 421.418 1.84409 0.423078 0
M  V30 4418 O 420.761 1.29228 1.30559 0
M  V30 4419 C 420.823 3.25185 -1.53281 0
M  V30 4420 C 420.487 3.43431 -3.01503 0
M  V30 4421 C 421.484 3.33063 -3.99206 0
M  V30 4422 C 419.169 3.69412 -3.40353 0
M  V30 4423 C 421.163 3.48413 -5.33748 0
M  V30 4424 C 418.85 3.84406 -4.75053 0
M  V30 4425 C 419.848 3.7391 -5.71559 0
M  V30 4426 O 419.536 3.88452 -7.03818 0
M  V30 4427 H 419.268 0.570043 -0.363355 0
M  V30 4428 H 421.822 1.29524 -1.59414 0
M  V30 4429 H 420.052 3.75756 -0.913483 0
M  V30 4430 H 421.741 3.83671 -1.32481 0
M  V30 4431 H 422.507 3.12934 -3.70537 0
M  V30 4432 H 418.386 3.76671 -2.65782 0
M  V30 4433 H 421.93 3.40137 -6.09059 0
M  V30 4434 H 417.827 4.04035 -5.03415 0
M  V30 4435 H 418.595 4.055 -7.10993 0
M  V30 4436 N 421.258 1.00505 1.21394 0
M  V30 4437 C 422.188 0.585684 2.26035 0
M  V30 4438 C 423.169 -0.393525 1.65485 0
M  V30 4439 O 424.354 -0.281497 1.92149 0
M  V30 4440 C 421.484 -0.0884283 3.47187 0
M  V30 4441 C 420.438 0.810567 4.20254 0
M  V30 4442 C 419.764 0.00286382 5.347 0
M  V30 4443 C 421.064 2.1132 4.77641 0
M  V30 4444 H 422.758 1.46039 2.61368 0
M  V30 4445 H 420.304 0.703648 1.25638 0
M  V30 4446 H 422.257 -0.393286 4.19561 0
M  V30 4447 H 420.981 -0.997766 3.10986 0
M  V30 4448 H 419.64 1.09925 3.49731 0
M  V30 4449 H 419.288 -0.907765 4.94741 0
M  V30 4450 H 418.988 0.601444 5.84514 0
M  V30 4451 H 420.512 -0.295808 6.09883 0
M  V30 4452 H 421.926 1.87148 5.41893 0
M  V30 4453 H 420.323 2.66164 5.37845 0
M  V30 4454 H 421.393 2.78393 3.9702 0
M  V30 4455 N 422.737 -1.36956 0.779787 0
M  V30 4456 C 423.967 -2.03459 0.358877 0
M  V30 4457 C 424.375 -1.58939 -1.02641 0
M  V30 4458 O 423.718 -0.769777 -1.66794 0
M  V30 4459 C 423.78 -3.5796 0.332393 0
M  V30 4460 C 423.444 -4.25644 1.66362 0
M  V30 4461 C 424.441 -4.49205 2.61746 0
M  V30 4462 C 422.126 -4.63313 1.94027 0
M  V30 4463 C 424.12 -5.09503 3.82996 0
M  V30 4464 C 421.807 -5.2333 3.15546 0
M  V30 4465 C 422.805 -5.46363 4.0985 0
M  V30 4466 O 422.493 -6.05122 5.29228 0
M  V30 4467 H 422.225 -0.659767 0.147254 0
M  V30 4468 H 424.779 -1.76111 1.05708 0
M  V30 4469 H 423.009 -3.84388 -0.422237 0
M  V30 4470 H 424.698 -4.05852 -0.0625389 0
M  V30 4471 H 425.464 -4.20508 2.41657 0
M  V30 4472 H 421.343 -4.44715 1.21448 0
M  V30 4473 H 424.887 -5.27397 4.56617 0
M  V30 4474 H 420.784 -5.51451 3.35517 0
M  V30 4475 H 421.552 -6.23595 5.30161 0
M  V30 4476 N 424.215 -0.530993 -1.48385 0
M  V30 4477 C 425.626 -0.0907905 -1.86479 0
M  V30 4478 C 425.977 1.33213 -1.44044 0
M  V30 4479 O 425.102 1.99783 -0.831615 0
M  V30 4480 C 425.697 -0.157987 -3.38431 0
M  V30 4481 C 424.256 0.227026 -3.75715 0
M  V30 4482 C 423.403 -0.5173 -2.72432 0
M  V30 4483 H 426.354 -0.742186 -1.40276 0
M  V30 4484 H 426.375 0.630053 -3.75247 0
M  V30 4485 H 425.887 -1.19372 -3.69286 0
M  V30 4486 H 423.988 1.26486 -3.50474 0
M  V30 4487 H 424.101 -0.113288 -4.78966 0
M  V30 4488 H 422.465 0.0365527 -2.54674 0
M  V30 4489 H 423.248 -1.55368 -3.0613 0
M  V30 4490 N 425.693 1.55336 -0.266172 0
M  V30 4491 C 426.97 1.91372 0.404486 0
M  V30 4492 C 427.35 1.18935 1.74407 0
M  V30 4493 O 426.698 0.3132 2.26343 0
M  V30 4494 C 426.908 3.44581 0.553593 0
M  V30 4495 C 428.256 4.16196 0.840618 0
M  V30 4496 O 429.28 3.50426 0.638739 0
M  V30 4497 O 428.139 5.32567 1.22618 0
M  V30 4498 H 425.233 0.797194 0.220025 0
M  V30 4499 H 427.779 1.66813 -0.311664 0
M  V30 4500 H 426.551 3.89357 -0.389498 0
M  V30 4501 H 426.174 3.75065 1.31955 0
M  V30 4502 N 427.171 -0.0066808 1.57599 0
M  V30 4503 C 428.101 -0.999296 2.11036 0
M  V30 4504 C 429.082 -1.36278 1.01795 0
M  V30 4505 O 430.267 -1.4477 1.29442 0
M  V30 4506 C 427.397 -2.29328 2.60818 0
M  V30 4507 C 426.351 -2.07159 3.74525 0
M  V30 4508 C 425.677 -3.42512 4.10596 0
M  V30 4509 C 426.977 -1.43959 5.02069 0
M  V30 4510 H 428.671 -0.554382 2.94223 0
M  V30 4511 H 426.217 -0.265221 1.41536 0
M  V30 4512 H 428.17 -2.99117 2.96828 0
M  V30 4513 H 426.894 -2.7592 1.74745 0
M  V30 4514 H 425.553 -1.39797 3.38899 0
M  V30 4515 H 425.201 -3.86795 3.21556 0
M  V30 4516 H 424.901 -3.28498 4.87199 0
M  V30 4517 H 426.425 -4.13628 4.4916 0
M  V30 4518 H 427.839 -2.03696 5.35893 0
M  V30 4519 H 426.236 -1.40452 5.83432 0
M  V30 4520 H 427.306 -0.407992 4.83181 0
M  V30 4521 N 428.649 -1.55105 -0.279332 0
M  V30 4522 C 429.874 -1.7976 -1.03446 0
M  V30 4523 C 430.299 -0.565952 -1.79384 0
M  V30 4524 O 429.657 0.484259 -1.74713 0
M  V30 4525 C 429.705 -3.0179 -1.97371 0
M  V30 4526 O 428.809 -2.76432 -3.06038 0
M  V30 4527 H 428.15 -0.594334 -0.29608 0
M  V30 4528 H 430.68 -2.02235 -0.310165 0
M  V30 4529 H 430.69 -3.30351 -2.39441 0
M  V30 4530 H 429.365 -3.91085 -1.4151 0
M  V30 4531 H 427.942 -2.58949 -2.68328 0
M  V30 4532 N 430.127 0.543554 -1.4793 0
M  V30 4533 C 431.543 0.870806 -1.3375 0
M  V30 4534 C 431.743 1.9864 -0.338261 0
M  V30 4535 O 430.799 2.51305 0.245371 0
M  V30 4536 C 432.112 1.25114 -2.73435 0
M  V30 4537 C 433.66 1.3618 -2.81823 0
M  V30 4538 C 434.135 1.77563 -4.22179 0
M  V30 4539 N 435.626 1.8469 -4.24787 0
M  V30 4540 C 436.361 2.18067 -5.30315 0
M  V30 4541 N 435.857 2.49963 -6.46135 0
M  V30 4542 N 437.65 2.18958 -5.17701 0
M  V30 4543 H 429.801 -0.19275 -2.11524 0
M  V30 4544 H 432.064 -0.0235777 -0.947707 0
M  V30 4545 H 431.77 0.50514 -3.48053 0
M  V30 4546 H 431.644 2.20431 -3.06088 0
M  V30 4547 H 434.031 2.09859 -2.07468 0
M  V30 4548 H 434.112 0.390169 -2.52807 0
M  V30 4549 H 433.756 1.04449 -4.97044 0
M  V30 4550 H 433.686 2.75753 -4.48629 0
M  V30 4551 H 436.177 1.62372 -3.41239 0
M  V30 4552 H 436.49 2.74497 -7.22406 0
M  V30 4553 H 434.835 2.47513 -6.49432 0
M  V30 4554 H 438.026 1.93488 -4.2624 0
M  V30 4555 H 438.199 2.44639 -6.00047 0
M  V30 4556 N 431.605 1.3629 0.791371 0
M  V30 4557 C 432.535 1.33137 1.91825 0
M  V30 4558 C 433.516 0.203168 1.68882 0
M  V30 4559 O 434.701 0.400509 1.90025 0
M  V30 4560 C 431.831 1.11793 3.28816 0
M  V30 4561 C 430.785 2.21417 3.66277 0
M  V30 4562 C 430.111 1.85218 5.01596 0
M  V30 4563 C 431.411 3.63489 3.75064 0
M  V30 4564 H 433.105 2.2743 1.9472 0
M  V30 4565 H 430.651 1.09479 0.935437 0
M  V30 4566 H 432.604 1.08222 4.07266 0
M  V30 4567 H 431.328 0.139501 3.26302 0
M  V30 4568 H 429.987 2.2411 2.90121 0
M  V30 4569 H 429.635 0.859544 4.95602 0
M  V30 4570 H 429.335 2.58611 5.27631 0
M  V30 4571 H 430.859 1.832 5.82469 0
M  V30 4572 H 432.273 3.63034 4.43711 0
M  V30 4573 H 430.67 4.35771 4.12582 0
M  V30 4574 H 431.74 3.98536 2.76219 0
M  V30 4575 N 433.083 -1.0153 1.20538 0
M  V30 4576 C 434.308 -1.79283 1.04271 0
M  V30 4577 C 434.733 -1.8372 -0.403544 0
M  V30 4578 O 434.091 -1.27321 -1.2907 0
M  V30 4579 C 434.139 -3.21535 1.63241 0
M  V30 4580 O 433.243 -4.03099 0.870908 0
M  V30 4581 H 432.584 -0.55293 0.367647 0
M  V30 4582 H 435.114 -1.27696 1.59859 0
M  V30 4583 H 435.124 -3.72243 1.6703 0
M  V30 4584 H 433.799 -3.1762 2.68497 0
M  V30 4585 H 432.376 -3.61693 0.907323 0
M  V30 4586 N 434.561 -1.01147 -1.20859 0
M  V30 4587 C 435.838 -0.613136 -1.85742 0
M  V30 4588 C 436.218 0.909004 -1.90526 0
M  V30 4589 O 435.566 1.79862 -1.40932 0
M  V30 4590 C 435.776 -1.255 -3.25654 0
M  V30 4591 C 437.124 -1.3672 -4.01986 0
M  V30 4592 O 438.148 -1.21082 -3.34989 0
M  V30 4593 O 437.007 -1.6194 -5.21956 0
M  V30 4594 H 434.101 -0.210878 -0.799662 0
M  V30 4595 H 436.647 -1.10853 -1.2849 0
M  V30 4596 H 435.419 -2.29532 -3.16908 0
M  V30 4597 H 435.042 -0.746369 -3.90532 0
M  V30 4598 N 436.039 1.36541 -0.78704 0
M  V30 4599 C 437.45 1.81873 -0.421807 0
M  V30 4600 C 437.801 1.65487 1.05397 0
M  V30 4601 O 436.926 1.17448 1.81755 0
M  V30 4602 C 437.521 3.30192 -0.758841 0
M  V30 4603 C 436.08 3.73743 -0.446468 0
M  V30 4604 C 435.227 2.58844 -0.994728 0
M  V30 4605 H 438.178 1.24796 -0.98039 0
M  V30 4606 H 438.199 3.80468 -0.0490648 0
M  V30 4607 H 437.711 3.42087 -1.83299 0
M  V30 4608 H 435.812 3.6741 0.619739 0
M  V30 4609 H 435.925 4.69272 -0.965415 0
M  V30 4610 H 434.289 2.51245 -0.418087 0
M  V30 4611 H 435.072 2.73525 -2.07458 0
M  V30 4612 N 437.518 0.538854 1.48102 0
M  V30 4613 C 438.45 -0.256278 2.27763 0
M  V30 4614 C 439.463 -0.89633 1.35904 0
M  V30 4615 O 440.652 -0.773275 1.60881 0
M  V30 4616 C 437.752 -1.37896 3.09577 0
M  V30 4617 C 436.925 -0.839159 4.29275 0
M  V30 4618 C 435.984 -1.84405 4.9283 0
M  V30 4619 O 435.01 -1.39746 5.51779 0
M  V30 4620 N 436.212 -3.17666 4.85869 0
M  V30 4621 H 438.977 0.426968 2.96643 0
M  V30 4622 H 436.538 0.373747 1.57527 0
M  V30 4623 H 438.53 -2.04955 3.48963 0
M  V30 4624 H 437.1 -1.96572 2.4306 0
M  V30 4625 H 436.32 0.00769287 3.94199 0
M  V30 4626 H 437.608 -0.457548 5.06739 0
M  V30 4627 H 437.006 -3.56609 4.39143 0
M  V30 4628 H 435.563 -3.80334 5.29329 0
M  V30 4629 N 438.996 -1.55193 0.274407 0
M  V30 4630 C 440.242 -1.99877 -0.343086 0
M  V30 4631 C 440.575 -1.16256 -1.55558 0
M  V30 4632 O 439.85 -0.232462 -1.93106 0
M  V30 4633 C 440.133 -3.52706 -0.725965 0
M  V30 4634 C 439.986 -4.47081 0.493818 0
M  V30 4635 C 441.305 -4.11422 -1.56268 0
M  V30 4636 H 438.424 -0.726625 -0.123229 0
M  V30 4637 H 441.066 -1.86136 0.38121 0
M  V30 4638 H 439.216 -3.64546 -1.34307 0
M  V30 4639 H 440.888 -4.47186 1.13237 0
M  V30 4640 H 439.131 -4.1877 1.13201 0
M  V30 4641 H 439.802 -5.51699 0.18217 0
M  V30 4642 H 442.278 -4.02855 -1.04151 0
M  V30 4643 H 441.154 -5.18568 -1.79939 0
M  V30 4644 H 441.415 -3.61607 -2.54348 0
M  V30 4645 N 440.474 -0.00167713 -1.576 0
M  V30 4646 C 441.72 0.67819 -1.91761 0
M  V30 4647 C 442.075 1.71288 -0.876256 0
M  V30 4648 O 441.368 1.91276 0.111333 0
M  V30 4649 C 441.562 1.36189 -3.30435 0
M  V30 4650 C 441.391 0.394938 -4.47962 0
M  V30 4651 C 440.161 0.00472875 -5.053 0
M  V30 4652 C 442.359 -0.339521 -5.13178 0
M  V30 4653 N 440.341 -0.960257 -6.06343 0
M  V30 4654 C 441.712 -1.15914 -6.09068 0
M  V30 4655 C 443.767 -0.403177 -4.96265 0
M  V30 4656 C 442.47 -2.03661 -6.89866 0
M  V30 4657 C 444.496 -1.26788 -5.77649 0
M  V30 4658 C 443.858 -2.07535 -6.73134 0
M  V30 4659 H 439.957 0.221317 -0.750028 0
M  V30 4660 H 442.541 -0.0624182 -1.946 0
M  V30 4661 H 440.712 2.07278 -3.28467 0
M  V30 4662 H 442.444 1.99658 -3.52021 0
M  V30 4663 H 439.199 0.373452 -4.72125 0
M  V30 4664 H 439.623 -1.43817 -6.61548 0
M  V30 4665 H 444.265 0.206818 -4.22294 0
M  V30 4666 H 441.983 -2.65727 -7.63161 0
M  V30 4667 H 445.569 -1.32107 -5.66603 0
M  V30 4668 H 444.449 -2.73363 -7.35012 0
M  V30 4669 N 441.952 1.55251 0.271103 0
M  V30 4670 C 443.198 1.76207 1.00394 0
M  V30 4671 C 443.531 0.562604 1.85872 0
M  V30 4672 O 442.806 -0.439785 1.89463 0
M  V30 4673 C 443.089 3.06828 1.8849 0
M  V30 4674 C 442.942 4.37134 1.05992 0
M  V30 4675 C 444.261 3.33503 2.87165 0
M  V30 4676 H 441.38 0.641086 0.363562 0
M  V30 4677 H 444.022 1.87982 0.276189 0
M  V30 4678 H 442.172 2.96921 2.5054 0
M  V30 4679 H 443.844 4.59001 0.459978 0
M  V30 4680 H 442.087 4.32275 0.363443 0
M  V30 4681 H 442.758 5.2486 1.70955 0
M  V30 4682 H 445.234 3.43215 2.3525 0
M  V30 4683 H 444.11 4.2616 3.45946 0
M  V30 4684 H 444.371 2.53235 3.62387 0
M  V30 4685 N 443.43 -0.535701 1.48216 0
M  V30 4686 C 444.707 -1.29683 1.46429 0
M  V30 4687 C 445.087 -2.10391 0.172852 0
M  V30 4688 O 444.435 -2.12282 -0.845488 0
M  V30 4689 C 444.645 -2.18313 2.72287 0
M  V30 4690 C 445.993 -2.78639 3.20383 0
M  V30 4691 O 447.017 -2.28604 2.73164 0
M  V30 4692 O 445.876 -3.69636 4.02531 0
M  V30 4693 H 442.97 -0.585026 0.584529 0
M  V30 4694 H 445.516 -0.552827 1.60443 0
M  V30 4695 H 444.288 -1.58421 3.57797 0
M  V30 4696 H 443.911 -2.99971 2.60966 0
M  V30 4697 N 444.908 -1.36708 -0.784132 0
M  V30 4698 C 445.871 -1.31307 -1.87859 0
M  V30 4699 C 446.871 -0.219654 -1.59293 0
M  V30 4700 O 448.061 -0.47476 -1.67606 0
M  V30 4701 C 445.193 -1.03679 -3.24751 0
M  V30 4702 H 446.386 -2.28647 -1.94064 0
M  V30 4703 H 443.939 -1.21558 -0.98252 0
M  V30 4704 H 444.674 -0.0681936 -3.24228 0
M  V30 4705 H 444.459 -1.82811 -3.46876 0
M  V30 4706 H 445.949 -1.02518 -4.04821 0
M  V30 4707 N 446.386 1.0089 -1.21074 0
M  V30 4708 C 447.634 1.74262 -1.02358 0
M  V30 4709 C 447.955 1.89869 0.444393 0
M  V30 4710 O 447.225 1.44677 1.32081 0
M  V30 4711 H 445.805 0.645615 -0.375754 0
M  V30 4712 H 448.467 1.21596 -1.52317 0
M  V30 4713 H 447.563 2.74328 -1.4883 0
M  V30 4714 N 447.864 1.01787 1.20321 0
M  V30 4715 C 449.092 0.727194 1.937 0
M  V30 4716 C 449.507 -0.712305 1.74848 0
M  V30 4717 O 448.864 -1.48327 1.06327 0
M  V30 4718 C 448.915 1.05497 3.45764 0
M  V30 4719 O 448.636 2.43794 3.64 0
M  V30 4720 C 450.137 0.785534 4.36285 0
M  V30 4721 H 447.357 0.266939 0.615617 0
M  V30 4722 H 449.901 1.35939 1.52777 0
M  V30 4723 H 448.056 0.468158 3.84561 0
M  V30 4724 H 448.47 2.55656 4.57974 0
M  V30 4725 H 449.944 1.06495 5.4163 0
M  V30 4726 H 450.421 -0.280273 4.38305 0
M  V30 4727 H 451.027 1.35456 4.03152 0
M  V30 4728 N 449.342 -1.36122 0.79427 0
M  V30 4729 C 450.274 -2.28683 0.153903 0
M  V30 4730 C 451.287 -1.49707 -0.639669 0
M  V30 4731 O 452.476 -1.7209 -0.474054 0
M  V30 4732 C 449.576 -3.29202 -0.804921 0
M  V30 4733 C 448.749 -4.37358 -0.060366 0
M  V30 4734 C 447.808 -5.17811 -0.935849 0
M  V30 4735 O 446.834 -5.67853 -0.391309 0
M  V30 4736 N 448.036 -5.34721 -2.25951 0
M  V30 4737 H 450.801 -2.84278 0.949008 0
M  V30 4738 H 448.362 -1.4834 0.648611 0
M  V30 4739 H 450.354 -3.79914 -1.39455 0
M  V30 4740 H 448.924 -2.74212 -1.50088 0
M  V30 4741 H 448.144 -3.87746 0.710382 0
M  V30 4742 H 449.432 -5.06777 0.45324 0
M  V30 4743 H 448.83 -4.95687 -2.72601 0
M  V30 4744 H 447.387 -5.88657 -2.79867 0
M  V30 4745 N 450.82 -0.546701 -1.47814 0
M  V30 4746 C 452.069 -0.0166497 -2.01693 0
M  V30 4747 C 452.382 1.33721 -1.42752 0
M  V30 4748 O 453.588 1.95658 -1.8823 0
M  V30 4749 C 452.044 0.0206769 -3.59894 0
M  V30 4750 C 451.652 -1.3293 -4.27824 0
M  V30 4751 C 453.396 0.498674 -4.21561 0
M  V30 4752 C 451.303 -1.25165 -5.78003 0
M  V30 4753 H 450.233 -0.0024541 -0.753996 0
M  V30 4754 H 452.884 -0.692984 -1.69912 0
M  V30 4755 H 451.266 0.76244 -3.88591 0
M  V30 4756 H 452.44 -2.08795 -4.10781 0
M  V30 4757 H 450.755 -1.74438 -3.78101 0
M  V30 4758 H 453.352 0.575 -5.31599 0
M  V30 4759 H 453.695 1.5083 -3.88016 0
M  V30 4760 H 454.228 -0.18791 -3.97356 0
M  V30 4761 H 450.967 -2.23695 -6.1615 0
M  V30 4762 H 450.487 -0.53464 -5.97412 0
M  V30 4763 H 452.166 -0.949299 -6.39998 0
M  V30 4764 N 452.299 1.55045 -0.282633 0
M  V30 4765 C 453.546 1.9976 0.33199 0
M  V30 4766 C 453.874 1.17105 1.55295 0
M  V30 4767 O 453.129 0.230599 1.94337 0
M  V30 4768 C 453.428 3.49422 0.750938 0
M  V30 4769 C 453.094 4.4941 -0.366228 0
M  V30 4770 C 451.756 4.76471 -0.672964 0
M  V30 4771 C 454.108 5.09054 -1.11864 0
M  V30 4772 C 451.436 5.60442 -1.73556 0
M  V30 4773 C 453.788 5.9418 -2.17102 0
M  V30 4774 C 452.452 6.19558 -2.48402 0
M  V30 4775 H 451.722 0.730974 0.121484 0
M  V30 4776 H 454.369 1.8732 -0.39791 0
M  V30 4777 H 452.674 3.59377 1.56063 0
M  V30 4778 H 454.371 3.81432 1.23736 0
M  V30 4779 H 450.961 4.2844 -0.117041 0
M  V30 4780 H 455.145 4.88165 -0.894925 0
M  V30 4781 H 450.401 5.78349 -1.983 0
M  V30 4782 H 454.575 6.39427 -2.75873 0
M  V30 4783 H 452.202 6.84417 -3.30874 0
M  V30 4784 N 453.777 0.010035 1.57597 0
M  V30 4785 C 455.024 -0.6727 1.91 0
M  V30 4786 C 455.352 -1.73219 0.884614 0
M  V30 4787 O 454.607 -1.95395 -0.109215 0
M  V30 4788 C 454.906 -1.34434 3.31153 0
M  V30 4789 C 454.572 -0.417083 4.48967 0
M  V30 4790 C 453.234 -0.161809 4.80928 0
M  V30 4791 C 455.586 0.220753 5.20732 0
M  V30 4792 C 452.914 0.739426 5.82022 0
M  V30 4793 C 455.266 1.10993 6.22787 0
M  V30 4794 C 453.93 1.37428 6.532 0
M  V30 4795 H 453.2 -0.246158 0.698918 0
M  V30 4796 H 455.847 0.0677145 1.9138 0
M  V30 4797 H 454.152 -2.15905 3.26944 0
M  V30 4798 H 455.849 -1.87883 3.54261 0
M  V30 4799 H 452.439 -0.626217 4.24001 0
M  V30 4800 H 456.623 0.0365643 4.96287 0
M  V30 4801 H 451.879 0.952139 6.03941 0
M  V30 4802 H 456.053 1.61046 6.77523 0
M  V30 4803 H 453.68 2.0743 7.31353 0
M  V30 4804 N 455.255 -1.55392 -0.262866 0
M  V30 4805 C 456.48 -1.80847 -1.01533 0
M  V30 4806 C 456.905 -0.584946 -1.78774 0
M  V30 4807 O 456.263 0.465701 -1.75217 0
M  V30 4808 C 456.311 -3.03866 -1.94159 0
M  V30 4809 O 455.415 -2.79662 -3.03089 0
M  V30 4810 H 454.756 -0.597441 -0.289759 0
M  V30 4811 H 457.286 -2.02553 -0.288698 0
M  V30 4812 H 457.296 -3.32872 -2.35924 0
M  V30 4813 H 455.971 -3.92564 -1.37354 0
M  V30 4814 H 454.548 -2.61781 -2.65566 0
M  V30 4815 N 456.733 0.527833 -1.48498 0
M  V30 4816 C 457.963 1.30633 -1.60058 0
M  V30 4817 C 458.371 1.87394 -0.260786 0
M  V30 4818 O 457.714 1.67227 0.760317 0
M  V30 4819 C 457.776 2.49361 -2.58958 0
M  V30 4820 C 457.44 2.13671 -4.03972 0
M  V30 4821 C 458.437 1.69217 -4.91591 0
M  V30 4822 C 456.122 2.24129 -4.49524 0
M  V30 4823 C 458.116 1.35689 -6.2279 0
M  V30 4824 C 455.803 1.90212 -5.80743 0
M  V30 4825 C 456.801 1.46063 -6.67199 0
M  V30 4826 O 456.489 1.12593 -7.95976 0
M  V30 4827 H 456.221 0.403444 -0.54241 0
M  V30 4828 H 458.775 0.643233 -1.95068 0
M  V30 4829 H 457.005 3.18659 -2.19073 0
M  V30 4830 H 458.694 3.11421 -2.6033 0
M  V30 4831 H 459.46 1.60607 -4.57636 0
M  V30 4832 H 455.339 2.57447 -3.82416 0
M  V30 4833 H 458.883 1.01157 -6.90227 0
M  V30 4834 H 454.78 1.98464 -6.14233 0
M  V30 4835 H 455.548 1.25972 -8.08748 0
M  V30 4836 N 458.211 1.37122 0.776871 0
M  V30 4837 C 459.174 1.32301 1.8716 0
M  V30 4838 C 460.174 0.228099 1.59174 0
M  V30 4839 O 461.364 0.483642 1.67352 0
M  V30 4840 C 458.496 1.054 3.24197 0
M  V30 4841 H 459.689 2.29673 1.92848 0
M  V30 4842 H 457.242 1.22077 0.97606 0
M  V30 4843 H 457.977 0.0853872 3.24188 0
M  V30 4844 H 457.762 1.84648 3.45901 0
M  V30 4845 H 459.252 1.04664 4.04271 0
M  V30 4846 N 459.689 -1.00246 1.21608 0
M  V30 4847 C 460.938 -1.73476 1.02902 0
M  V30 4848 C 461.251 -1.90643 -0.437561 0
M  V30 4849 O 462.457 -2.61105 -0.74407 0
M  V30 4850 C 460.913 -3.12079 1.79261 0
M  V30 4851 C 460.521 -3.02877 3.30106 0
M  V30 4852 C 462.265 -3.89421 1.68972 0
M  V30 4853 C 460.172 -4.36575 3.98944 0
M  V30 4854 H 459.102 -0.650408 0.381425 0
M  V30 4855 H 461.753 -1.11985 1.45367 0
M  V30 4856 H 460.135 -3.74196 1.2959 0
M  V30 4857 H 461.309 -2.49983 3.87098 0
M  V30 4858 H 459.624 -2.39022 3.40965 0
M  V30 4859 H 462.221 -4.88362 2.17731 0
M  V30 4860 H 462.564 -4.1122 0.648397 0
M  V30 4861 H 463.097 -3.33963 2.16133 0
M  V30 4862 H 459.836 -4.19978 5.03288 0
M  V30 4863 H 459.356 -4.8942 3.4674 0
M  V30 4864 H 461.035 -5.05364 4.04 0
M  V30 4865 N 461.167 -1.02423 -1.1978 0
M  V30 4866 C 462.407 -0.726635 -1.91048 0
M  V30 4867 C 462.771 0.730947 -1.77542 0
M  V30 4868 O 463.972 1.14141 -2.43362 0
M  V30 4869 C 462.243 -1.15964 -3.38064 0
M  V30 4870 S 463.802 -0.985172 -4.27598 0
M  V30 4871 H 460.62 -0.264679 -0.659899 0
M  V30 4872 H 463.222 -1.31309 -1.44838 0
M  V30 4873 H 461.926 -2.21619 -3.45417 0
M  V30 4874 H 461.457 -0.566274 -3.89303 0
M  V30 4875 H 463.472 0.106946 -4.96085 0
M  V30 4876 N 462.645 1.35699 -0.801477 0
M  V30 4877 C 463.575 2.32436 -0.222658 0
M  V30 4878 C 464.556 1.5723 0.649057 0
M  V30 4879 O 465.741 1.85324 0.580387 0
M  V30 4880 C 462.871 3.41469 0.633719 0
M  V30 4881 C 461.825 4.27774 -0.139083 0
M  V30 4882 C 461.151 5.28082 0.838666 0
M  V30 4883 C 462.451 5.04946 -1.33517 0
M  V30 4884 H 464.145 2.81094 -1.03086 0
M  V30 4885 H 461.691 1.35146 -0.497155 0
M  V30 4886 H 463.644 4.08143 1.04868 0
M  V30 4887 H 462.368 2.91408 1.47475 0
M  V30 4888 H 461.027 3.62673 -0.535156 0
M  V30 4889 H 460.675 4.7429 1.67506 0
M  V30 4890 H 460.375 5.86695 0.32594 0
M  V30 4891 H 461.899 5.97628 1.25194 0
M  V30 4892 H 463.313 5.64593 -0.995349 0
M  V30 4893 H 461.71 5.7303 -1.78202 0
M  V30 4894 H 462.78 4.35886 -2.12442 0
M  V30 4895 N 464.123 0.554532 1.47522 0
M  V30 4896 C 465.371 0.0294208 2.02079 0
M  V30 4897 C 465.692 -1.32411 1.43151 0
M  V30 4898 O 464.962 -1.863 0.605728 0
M  V30 4899 H 463.542 0.00788672 0.746958 0
M  V30 4900 H 466.204 0.723934 1.80956 0
M  V30 4901 H 465.3 -0.0606745 3.12041 0
M  V30 4902 N 465.601 -1.54893 0.290851 0
M  V30 4903 C 466.841 -2.01842 -0.322388 0
M  V30 4904 C 467.205 -1.17477 -1.51865 0
M  V30 4905 O 468.406 -1.54077 -2.20258 0
M  V30 4906 C 466.677 -3.50874 -0.679844 0
M  V30 4907 S 468.236 -4.19796 -1.27739 0
M  V30 4908 H 465.054 -0.704005 -0.0994866 0
M  V30 4909 H 467.656 -1.91015 0.416358 0
M  V30 4910 H 466.36 -4.09915 0.199435 0
M  V30 4911 H 465.891 -3.65717 -1.44964 0
M  V30 4912 H 467.906 -4.24729 -2.56554 0
M  V30 4913 N 467.08 -0.0183926 -1.57589 0
M  V30 4914 C 468.01 0.965596 -2.12599 0
M  V30 4915 C 468.991 1.34641 -1.0395 0
M  V30 4916 O 470.176 1.42693 -1.31729 0
M  V30 4917 C 467.306 2.25149 -2.64434 0
M  V30 4918 C 466.26 2.01175 -3.77773 0
M  V30 4919 C 465.586 3.35937 -4.15994 0
M  V30 4920 C 466.886 1.35953 -5.04296 0
M  V30 4921 H 468.58 0.507504 -2.95067 0
M  V30 4922 H 466.126 0.242671 -1.41941 0
M  V30 4923 H 468.079 2.94357 -3.01549 0
M  V30 4924 H 466.803 2.73105 -1.79112 0
M  V30 4925 H 465.462 1.34388 -3.4108 0
M  V30 4926 H 465.11 3.81631 -3.27669 0
M  V30 4927 H 464.81 3.20705 -4.92364 0
M  V30 4928 H 466.334 4.0643 -4.55683 0
M  V30 4929 H 467.748 1.95144 -5.39065 0
M  V30 4930 H 466.145 1.31152 -5.85593 0
M  V30 4931 H 467.215 0.331071 -4.83768 0
M  V30 4932 N 468.558 1.5553 0.254621 0
M  V30 4933 C 469.786 1.81046 1.00149 0
M  V30 4934 C 470.201 0.593047 1.79244 0
M  V30 4935 O 469.558 -0.438196 1.77161 0
M  V30 4936 C 469.609 3.04684 1.94551 0
M  V30 4937 O 469.33 4.21725 1.18658 0
M  V30 4938 C 470.831 3.42943 2.80901 0
M  V30 4939 H 468.051 0.602653 0.295044 0
M  V30 4940 H 470.595 2.02576 0.279842 0
M  V30 4941 H 468.75 2.85226 2.62154 0
M  V30 4942 H 469.164 4.91746 1.82445 0
M  V30 4943 H 470.638 4.32576 3.42902 0
M  V30 4944 H 471.115 2.63176 3.51617 0
M  V30 4945 H 471.721 3.64724 2.18762 0
M  V30 4946 N 470.036 -0.519951 1.48776 0
M  V30 4947 C 470.999 -1.60574 1.6355 0
M  V30 4948 C 471.999 -1.52557 0.508234 0
M  V30 4949 O 473.189 -1.56047 0.774262 0
M  V30 4950 C 470.321 -3.00211 1.61512 0
M  V30 4951 H 471.514 -1.4881 2.60376 0
M  V30 4952 H 469.067 -0.742772 1.37523 0
M  V30 4953 H 469.802 -3.17471 0.662009 0
M  V30 4954 H 469.587 -3.07439 2.43359 0
M  V30 4955 H 471.077 -3.79134 1.75064 0
M  V30 4956 N 471.514 -1.37532 -0.769588 0
M  V30 4957 C 472.444 -1.36172 -1.89682 0
M  V30 4958 C 473.425 -0.23001 -1.68538 0
M  V30 4959 O 474.61 -0.43069 -1.89364 0
M  V30 4960 C 471.74 -1.1701 -3.26995 0
M  V30 4961 C 470.694 -2.27216 -3.62708 0
M  V30 4962 C 470.02 -1.93174 -4.98586 0
M  V30 4963 C 471.32 -3.6941 -3.69234 0
M  V30 4964 H 473.014 -2.30499 -1.91078 0
M  V30 4965 H 470.56 -1.10953 -0.917902 0
M  V30 4966 H 472.513 -1.14688 -4.05493 0
M  V30 4967 H 471.237 -0.191395 -3.26039 0
M  V30 4968 H 469.896 -2.28697 -2.86519 0
M  V30 4969 H 469.544 -0.938281 -4.94171 0
M  V30 4970 H 469.244 -2.66973 -5.23449 0
M  V30 4971 H 470.768 -1.92443 -5.79481 0
M  V30 4972 H 472.182 -3.70047 -4.37879 0
M  V30 4973 H 470.579 -4.4228 -4.05597 0
M  V30 4974 H 471.649 -4.0288 -2.69844 0
M  V30 4975 N 472.992 0.995999 -1.22138 0
M  V30 4976 C 474.24 1.73167 -1.042 0
M  V30 4977 C 474.561 1.90329 0.42423 0
M  V30 4978 O 473.831 1.4607 1.30539 0
M  V30 4979 H 472.411 0.641593 -0.38258 0
M  V30 4980 H 475.073 1.19974 -1.53598 0
M  V30 4981 H 474.169 2.72734 -1.51731 0
M  V30 4982 N 474.47 1.03057 1.19235 0
M  V30 4983 C 475.695 0.74757 1.93458 0
M  V30 4984 C 476.12 -0.687648 1.7508 0
M  V30 4985 O 475.478 -1.47499 1.05422 0
M  V30 4986 C 475.526 1.10604 3.43219 0
M  V30 4987 O 474.63 0.225671 4.11782 0
M  V30 4988 H 473.971 0.276047 0.603899 0
M  V30 4989 H 476.501 1.3777 1.51263 0
M  V30 4990 H 476.511 1.06366 3.93891 0
M  V30 4991 H 475.186 2.15165 3.55917 0
M  V30 4992 H 473.763 0.326795 3.71465 0
M  V30 4993 N 475.948 -1.35272 0.808662 0
M  V30 4994 C 477.178 -2.02652 0.401953 0
M  V30 4995 C 477.586 -1.6108 -0.992462 0
M  V30 4996 O 476.929 -0.804984 -1.65123 0
M  V30 4997 C 476.991 -3.57174 0.408246 0
M  V30 4998 C 476.655 -4.22019 1.75353 0
M  V30 4999 C 477.652 -4.43552 2.71215 0
M  V30 5000 C 475.337 -4.59093 2.03811 0
M  V30 5001 C 477.331 -5.01264 3.93717 0
M  V30 5002 C 475.018 -5.16519 3.26576 0
M  V30 5003 C 476.016 -5.37546 4.21347 0
M  V30 5004 O 475.704 -5.93761 5.41944 0
M  V30 5005 H 475.436 -0.656495 0.161216 0
M  V30 5006 H 477.99 -1.73829 1.0942 0
M  V30 5007 H 476.22 -3.85197 -0.340608 0
M  V30 5008 H 477.909 -4.05893 0.0235623 0
M  V30 5009 H 478.675 -4.15288 2.50522 0
M  V30 5010 H 474.554 -4.42039 1.30854 0
M  V30 5011 H 478.098 -5.17592 4.67701 0
M  V30 5012 H 473.995 -5.4421 3.47139 0
M  V30 5013 H 474.763 -6.1221 5.43269 0
M  V30 5014 N 477.426 -0.562348 -1.47226 0
M  V30 5015 C 478.374 0.195476 -2.31777 0
M  V30 5016 C 479.368 0.90433 -1.43242 0
M  V30 5017 O 480.574 0.825031 -1.59979 0
M  V30 5018 H 476.949 0.0819095 -0.747526 0
M  V30 5019 H 478.92 -0.536753 -2.93533 0
M  V30 5020 C 477.669 1.20902 -3.26003 0
M  V30 5021 H 476.992 0.672997 -3.94095 0
M  V30 5022 H 478.432 1.71006 -3.87986 0
M  V30 5023 C 476.891 2.25955 -2.49891 0
M  V30 5024 O 477.421 3.32969 -2.2471 0
M  V30 5025 N 475.627 2.00019 -2.1081 0
M  V30 5026 H 475.174 1.13006 -2.31489 0
M  V30 5027 H 475.132 2.70523 -1.60201 0
M  V30 5028 N 478.904 1.54736 -0.299062 0
M  V30 5029 C 479.852 2.24897 0.593658 0
M  V30 5030 C 480.846 1.25429 1.13859 0
M  V30 5031 O 482.052 1.43286 1.08945 0
M  V30 5032 H 478.427 0.72207 0.210046 0
M  V30 5033 H 480.398 2.98393 -0.0206421 0
M  V30 5034 C 479.147 3.00159 1.75499 0
M  V30 5035 H 478.47 3.76501 1.34489 0
M  V30 5036 H 479.91 3.52535 2.35574 0
M  V30 5037 C 478.369 2.07015 2.65794 0
M  V30 5038 O 478.899 1.63692 3.66835 0
M  V30 5039 N 477.105 1.73012 2.33485 0
M  V30 5040 H 476.652 2.08439 1.51364 0
M  V30 5041 H 476.61 1.10965 2.94167 0
M  V30 5042 N 480.382 0.0267497 1.57577 0
M  V30 5043 C 481.612 -0.6617 1.95717 0
M  V30 5044 C 482.02 -1.66331 0.901706 0
M  V30 5045 O 481.363 -1.83273 -0.125241 0
M  V30 5046 C 481.425 -1.42649 3.29987 0
M  V30 5047 C 481.089 -0.583482 4.5326 0
M  V30 5048 C 482.086 0.140221 5.19711 0
M  V30 5049 C 479.771 -0.521581 4.99585 0
M  V30 5050 C 481.765 0.914523 6.30805 0
M  V30 5051 C 479.452 0.256428 6.10562 0
M  V30 5052 C 480.45 0.973189 6.76031 0
M  V30 5053 O 480.138 1.73845 7.84878 0
M  V30 5054 H 479.87 -0.187483 0.649481 0
M  V30 5055 H 482.424 0.0820847 2.05236 0
M  V30 5056 H 480.654 -2.21536 3.16952 0
M  V30 5057 H 482.343 -2.00282 3.53047 0
M  V30 5058 H 483.109 0.101716 4.84893 0
M  V30 5059 H 478.988 -1.06904 4.48433 0
M  V30 5060 H 482.532 1.4745 6.81839 0
M  V30 5061 H 478.429 0.296657 6.44818 0
M  V30 5062 H 479.197 1.65797 8.01532 0
M  V30 5063 N 481.861 -1.55662 -0.24637 0
M  V30 5064 C 482.809 -1.91186 -1.3248 0
M  V30 5065 C 483.803 -0.790996 -1.49799 0
M  V30 5066 O 485.009 -0.975617 -1.51267 0
M  V30 5067 H 481.384 -0.607207 -0.443626 0
M  V30 5068 H 483.355 -2.81221 -0.997853 0
M  V30 5069 C 482.104 -2.22349 -2.67313 0
M  V30 5070 H 481.427 -3.08097 -2.54786 0
M  V30 5071 H 482.867 -2.51107 -3.41645 0
M  V30 5072 C 481.326 -1.04001 -3.20446 0
M  V30 5073 O 481.856 -0.28828 -4.00664 0
M  V30 5074 N 480.062 -0.830494 -2.7848 0
M  V30 5075 H 479.609 -1.4435 -2.13356 0
M  V30 5076 H 479.567 -0.0403258 -3.14374 0
M  V30 5077 N 483.339 0.512053 -1.4905 0
M  V30 5078 C 484.287 1.63568 -1.65373 0
M  V30 5079 C 485.281 1.61228 -0.519806 0
M  V30 5080 O 486.487 1.65869 -0.699101 0
M  V30 5081 H 482.862 0.542019 -0.521267 0
M  V30 5082 H 484.833 1.4695 -2.59708 0
M  V30 5083 C 483.582 3.01761 -1.7273 0
M  V30 5084 H 482.905 3.04263 -2.59353 0
M  V30 5085 H 484.345 3.79948 -1.8819 0
M  V30 5086 C 482.804 3.33609 -0.46973 0
M  V30 5087 O 483.334 3.99607 0.409492 0
M  V30 5088 N 481.54 2.88651 -0.336003 0
M  V30 5089 H 481.087 2.35119 -1.05247 0
M  V30 5090 H 481.045 3.10328 0.504363 0
M  V30 5091 N 484.817 1.37938 0.762283 0
M  V30 5092 C 485.765 1.34569 1.89721 0
M  V30 5093 C 486.759 0.232929 1.67791 0
M  V30 5094 O 487.965 0.401485 1.75465 0
M  V30 5095 H 484.34 0.419594 0.624055 0
M  V30 5096 H 486.311 2.30357 1.8968 0
M  V30 5097 C 485.06 1.17898 3.27101 0
M  V30 5098 H 484.383 2.02781 3.44558 0
M  V30 5099 H 485.823 1.19593 4.06784 0
M  V30 5100 C 484.282 -0.114728 3.36705 0
M  V30 5101 O 484.812 -1.0949 3.8649 0
M  V30 5102 N 483.018 -0.16863 2.9011 0
M  V30 5103 H 482.565 0.62967 2.49786 0
M  V30 5104 H 482.523 -1.03383 2.96916 0
M  V30 5105 N 486.295 -0.989507 1.22664 0
M  V30 5106 C 487.535 -1.7447 1.06488 0
M  V30 5107 C 487.899 -1.8794 -0.392737 0
M  V30 5108 O 489.1 -2.60175 -0.675446 0
M  V30 5109 C 487.371 -3.11043 1.76031 0
M  V30 5110 S 488.93 -4.02258 1.7531 0
M  V30 5111 H 485.748 -0.600123 0.381278 0
M  V30 5112 H 488.35 -1.18283 1.55658 0
M  V30 5113 H 487.054 -2.98884 2.81241 0
M  V30 5114 H 486.585 -3.72301 1.27105 0
M  V30 5115 H 488.6 -4.89623 0.805208 0
M  V30 5116 N 487.773 -1.03688 -1.18687 0
M  V30 5117 C 489.003 -0.756819 -1.92239 0
M  V30 5118 C 489.411 0.689374 -1.76194 0
M  V30 5119 O 488.754 1.48126 -1.08648 0
M  V30 5120 C 488.816 -1.03851 -3.44173 0
M  V30 5121 C 488.48 -2.47785 -3.83994 0
M  V30 5122 C 489.477 -3.4595 -3.88091 0
M  V30 5123 C 487.162 -2.82397 -4.154 0
M  V30 5124 C 489.156 -4.76779 -4.23038 0
M  V30 5125 C 486.843 -4.13433 -4.50018 0
M  V30 5126 C 487.841 -5.10434 -4.53813 0
M  V30 5127 O 487.529 -6.39122 -4.87625 0
M  V30 5128 H 487.261 -0.275678 -0.617234 0
M  V30 5129 H 489.815 -1.38658 -1.51536 0
M  V30 5130 H 488.045 -0.351612 -3.85098 0
M  V30 5131 H 489.734 -0.746846 -3.9897 0
M  V30 5132 H 490.5 -3.20549 -3.63969 0
M  V30 5133 H 486.379 -2.07568 -4.11627 0
M  V30 5134 H 489.923 -5.52488 -4.25914 0
M  V30 5135 H 485.82 -4.38604 -4.736 0
M  V30 5136 H 486.588 -6.43715 -5.05542 0
M  V30 5137 N 489.251 1.34841 -0.815825 0
M  V30 5138 C 490.667 1.51543 -0.500697 0
M  V30 5139 C 490.867 1.76261 0.976444 0
M  V30 5140 O 489.923 1.8094 1.76117 0
M  V30 5141 C 491.236 2.68487 -1.35407 0
M  V30 5142 C 492.784 2.82368 -1.35046 0
M  V30 5143 C 493.259 4.02347 -2.18816 0
M  V30 5144 N 494.75 4.09542 -2.16402 0
M  V30 5145 C 495.485 5.01517 -2.77971 0
M  V30 5146 N 494.981 5.98763 -3.48503 0
M  V30 5147 N 496.774 4.94334 -2.67563 0
M  V30 5148 H 488.925 1.17055 -1.77234 0
M  V30 5149 H 491.188 0.573481 -0.754866 0
M  V30 5150 H 490.894 2.56829 -2.40274 0
M  V30 5151 H 490.768 3.63321 -1.01377 0
M  V30 5152 H 493.155 2.93471 -0.309604 0
M  V30 5153 H 493.236 1.88363 -1.73069 0
M  V30 5154 H 492.88 3.92004 -3.22948 0
M  V30 5155 H 492.81 4.95551 -1.78148 0
M  V30 5156 H 495.301 3.39932 -1.65091 0
M  V30 5157 H 495.614 6.6556 -3.92747 0
M  V30 5158 H 493.959 5.98909 -3.52609 0
M  V30 5159 H 497.15 4.1732 -2.12041 0
M  V30 5160 H 497.323 5.6582 -3.15834 0
M  V30 5161 N 490.729 0.570148 1.46925 0
M  V30 5162 C 492.006 -0.0153259 1.95594 0
M  V30 5163 C 492.386 -1.47232 1.51281 0
M  V30 5164 O 491.734 -2.15574 0.757624 0
M  V30 5165 C 491.944 0.143624 3.48704 0
M  V30 5166 C 493.292 0.00494484 4.246 0
M  V30 5167 O 494.316 0.0718214 3.56128 0
M  V30 5168 O 493.175 -0.141175 5.46318 0
M  V30 5169 H 490.269 -0.0568819 0.825041 0
M  V30 5170 H 492.815 0.637583 1.57267 0
M  V30 5171 H 491.587 1.15699 3.73804 0
M  V30 5172 H 491.21 -0.5463 3.93829 0
M  V30 5173 N 492.207 -1.54576 0.307264 0
M  V30 5174 C 493.447 -2.02172 -0.300962 0
M  V30 5175 C 493.811 -1.19081 -1.50611 0
M  V30 5176 O 495.012 -1.56405 -2.18612 0
M  V30 5177 C 493.283 -3.51576 -0.642591 0
M  V30 5178 S 494.842 -4.21127 -1.23279 0
M  V30 5179 H 491.66 -0.705021 -0.0920141 0
M  V30 5180 H 494.262 -1.90563 0.436594 0
M  V30 5181 H 492.966 -4.09681 0.242901 0
M  V30 5182 H 492.497 -3.67234 -1.41077 0
M  V30 5183 H 494.512 -4.27426 -2.52034 0
M  V30 5184 N 493.685 -0.035106 -1.57561 0
M  V30 5185 C 494.934 0.641604 -1.91223 0
M  V30 5186 C 495.247 1.72944 -0.913761 0
M  V30 5187 O 496.453 2.46321 -1.14185 0
M  V30 5188 C 494.909 1.19249 -3.3957 0
M  V30 5189 C 494.517 0.137616 -4.47789 0
M  V30 5190 C 496.261 1.84537 -3.82291 0
M  V30 5191 C 494.168 0.700478 -5.87237 0
M  V30 5192 H 493.098 0.243417 -0.713627 0
M  V30 5193 H 495.749 -0.101382 -1.8322 0
M  V30 5194 H 494.131 1.98728 -3.42525 0
M  V30 5195 H 495.305 -0.635153 -4.56402 0
M  V30 5196 H 493.62 -0.416855 -4.14308 0
M  V30 5197 H 496.217 2.27616 -4.83834 0
M  V30 5198 H 496.56 2.69054 -3.17672 0
M  V30 5199 H 497.093 1.11739 -3.81784 0
M  V30 5200 H 493.832 -0.106693 -6.55413 0
M  V30 5201 H 493.352 1.4416 -5.82218 0
M  V30 5202 H 495.031 1.18837 -6.35993 0
M  V30 5203 N 495.163 1.55791 0.238111 0
M  V30 5204 C 496.096 1.86036 1.32158 0
M  V30 5205 C 497.074 0.716216 1.45976 0
M  V30 5206 O 498.258 0.962882 1.62052 0
M  V30 5207 C 495.385 2.05281 2.69402 0
M  V30 5208 C 494.431 3.27939 2.72687 0
M  V30 5209 S 495.264 4.84342 2.28413 0
M  V30 5210 C 496.42 5.06604 3.67565 0
M  V30 5211 H 496.653 2.77644 1.06306 0
M  V30 5212 H 494.186 1.48012 0.439537 0
M  V30 5213 H 496.144 2.17053 3.48423 0
M  V30 5214 H 494.805 1.14499 2.92487 0
M  V30 5215 H 493.998 3.38398 3.73501 0
M  V30 5216 H 493.6 3.14938 2.01717 0
M  V30 5217 H 495.892 4.94486 4.6313 0
M  V30 5218 H 496.835 6.08554 3.62033 0
M  V30 5219 H 497.243 4.34409 3.60485 0
M  V30 5220 N 496.642 -0.504142 1.49319 0
M  V30 5221 C 497.572 -1.61473 1.68667 0
M  V30 5222 C 498.553 -1.61455 0.535378 0
M  V30 5223 O 499.738 -1.78245 0.770868 0
M  V30 5224 C 496.868 -2.99971 1.75028 0
M  V30 5225 C 495.822 -3.14854 2.89916 0
M  V30 5226 C 495.148 -4.54671 2.81387 0
M  V30 5227 C 496.448 -2.95176 4.30893 0
M  V30 5228 H 498.142 -1.45535 2.61648 0
M  V30 5229 H 495.688 -0.698711 1.25913 0
M  V30 5230 H 497.641 -3.77562 1.8715 0
M  V30 5231 H 496.365 -3.1699 0.786441 0
M  V30 5232 H 495.024 -2.39687 2.77391 0
M  V30 5233 H 494.672 -4.68562 1.82917 0
M  V30 5234 H 494.372 -4.6557 3.58494 0
M  V30 5235 H 495.896 -5.34327 2.95512 0
M  V30 5236 H 497.31 -3.62538 4.44116 0
M  V30 5237 H 495.707 -3.17549 5.09198 0
M  V30 5238 H 496.777 -1.91332 4.45556 0
M  V30 5239 N 498.12 -1.38341 -0.754957 0
M  V30 5240 C 499.36 -1.35888 -1.52689 0
M  V30 5241 C 499.724 0.0513682 -1.91931 0
M  V30 5242 O 500.925 0.200761 -2.68049 0
M  V30 5243 C 499.196 -2.28666 -2.74676 0
M  V30 5244 S 500.755 -2.4422 -3.64558 0
M  V30 5245 H 497.573 -0.482165 -0.522531 0
M  V30 5246 H 500.175 -1.74253 -0.886358 0
M  V30 5247 H 498.879 -3.30023 -2.43953 0
M  V30 5248 H 498.41 -1.91445 -3.43675 0
M  V30 5249 H 500.425 -1.66525 -4.67423 0
M  V30 5250 N 499.598 0.982988 -1.23187 0
M  V30 5251 C 500.838 1.73903 -1.07412 0
M  V30 5252 C 501.202 1.88146 0.382764 0
M  V30 5253 O 502.403 2.6053 0.661638 0
M  V30 5254 C 500.674 3.10105 -1.77678 0
M  V30 5255 S 502.233 4.01323 -1.77441 0
M  V30 5256 H 499.051 0.598093 -0.384456 0
M  V30 5257 H 501.653 1.17456 -1.56283 0
M  V30 5258 H 500.357 2.97388 -2.82822 0
M  V30 5259 H 499.888 3.71622 -1.29077 0
M  V30 5260 H 501.903 4.89189 -0.831162 0
M  V30 5261 N 501.076 1.04316 1.18135 0
M  V30 5262 C 502.006 0.657299 2.24058 0
M  V30 5263 C 502.987 -0.340678 1.66654 0
M  V30 5264 O 504.172 -0.220223 1.92947 0
M  V30 5265 C 501.302 0.0220715 3.47293 0
M  V30 5266 C 500.256 0.943857 4.17463 0
M  V30 5267 C 499.582 0.172973 5.3442 0
M  V30 5268 C 500.882 2.26409 4.70677 0
M  V30 5269 H 502.576 1.5428 2.56589 0
M  V30 5270 H 500.122 0.743263 1.23335 0
M  V30 5271 H 502.075 -0.259607 4.206 0
M  V30 5272 H 500.799 -0.898323 3.14003 0
M  V30 5273 H 499.458 1.20996 3.46057 0
M  V30 5274 H 499.106 -0.749907 4.97379 0
M  V30 5275 H 498.806 0.787098 5.82304 0
M  V30 5276 H 500.33 -0.101628 6.10515 0
M  V30 5277 H 501.744 2.04294 5.35665 0
M  V30 5278 H 500.141 2.8314 5.29105 0
M  V30 5279 H 501.211 2.90883 3.87962 0
M  V30 5280 N 502.554 -1.34406 0.822964 0
M  V30 5281 C 503.502 -2.31428 0.233165 0
M  V30 5282 C 504.496 -1.57404 -0.626118 0
M  V30 5283 O 505.702 -1.72402 -0.517453 0
M  V30 5284 H 502.077 -0.749863 0.0566557 0
M  V30 5285 H 504.048 -2.78699 1.06628 0
M  V30 5286 C 502.797 -3.42653 -0.590264 0
M  V30 5287 H 502.12 -3.99753 0.0616129 0
M  V30 5288 H 503.56 -4.12778 -0.969054 0
M  V30 5289 C 502.019 -2.87112 -1.76262 0
M  V30 5290 O 502.549 -2.81995 -2.8608 0
M  V30 5291 N 500.755 -2.43934 -1.57938 0
M  V30 5292 H 500.302 -2.48296 -0.686078 0
M  V30 5293 H 500.26 -2.07123 -2.36532 0
M  V30 5294 N 504.032 -0.577932 -1.46621 0
M  V30 5295 C 505.257 -0.0652536 -2.07297 0
M  V30 5296 C 505.682 1.22828 -1.4246 0
M  V30 5297 O 505.04 1.74075 -0.506718 0
M  V30 5298 C 505.088 0.0920589 -3.60482 0
M  V30 5299 O 504.192 1.14972 -3.96049 0
M  V30 5300 H 503.533 -0.06065 -0.661224 0
M  V30 5301 H 506.063 -0.799515 -1.88332 0
M  V30 5302 H 506.073 0.299741 -4.06897 0
M  V30 5303 H 504.748 -0.852612 -4.07067 0
M  V30 5304 H 503.325 0.920879 -3.61351 0
M  V30 5305 N 505.51 1.54411 -0.315457 0
M  V30 5306 C 506.758 2.00023 0.288971 0
M  V30 5307 C 507.079 1.20529 1.5329 0
M  V30 5308 O 506.349 0.304986 1.93511 0
M  V30 5309 H 504.929 0.738891 0.109766 0
M  V30 5310 H 507.591 1.90094 -0.430129 0
M  V30 5311 H 506.687 3.07198 0.550999 0
M  V30 5312 N 506.988 0.0434614 1.5754 0
M  V30 5313 C 508.216 -0.641835 1.96693 0
M  V30 5314 C 508.631 -1.64832 0.920652 0
M  V30 5315 O 507.988 -1.82247 -0.095993 0
M  V30 5316 C 508.039 -1.33557 3.35924 0
M  V30 5317 O 507.76 -0.369403 4.3654 0
M  V30 5318 C 509.261 -2.11135 3.89791 0
M  V30 5319 H 506.481 -0.176013 0.647503 0
M  V30 5320 H 509.025 0.107478 2.04217 0
M  V30 5321 H 507.18 -2.03617 3.29574 0
M  V30 5322 H 507.594 -0.863674 5.1734 0
M  V30 5323 H 509.068 -2.55107 4.89514 0
M  V30 5324 H 509.545 -2.95634 3.24803 0
M  V30 5325 H 510.151 -1.46002 3.99454 0
M  V30 5326 N 508.466 -1.55915 -0.229846 0
M  V30 5327 C 509.691 -1.8296 -0.976743 0
M  V30 5328 C 510.116 -0.622735 -1.77493 0
M  V30 5329 O 509.474 0.428431 -1.76165 0
M  V30 5330 C 509.522 -3.07916 -1.8767 0
M  V30 5331 O 508.626 -2.86028 -2.97088 0
M  V30 5332 H 507.967 -0.603453 -0.277021 0
M  V30 5333 H 510.497 -2.0312 -0.245669 0
M  V30 5334 H 510.507 -3.37802 -2.2881 0
M  V30 5335 H 509.182 -3.95389 -1.28996 0
M  V30 5336 H 507.759 -2.67355 -2.59954 0
M  V30 5337 N 509.944 0.496216 -1.49584 0
M  V30 5338 C 511.191 1.25003 -1.59312 0
M  V30 5339 C 511.519 1.92445 -0.28198 0
M  V30 5340 O 510.774 1.81557 0.730452 0
M  V30 5341 C 511.073 2.3359 -2.705 0
M  V30 5342 C 510.739 1.83574 -4.11839 0
M  V30 5343 C 509.401 1.69653 -4.50302 0
M  V30 5344 C 511.753 1.46193 -5.00277 0
M  V30 5345 C 509.081 1.16736 -5.74969 0
M  V30 5346 C 511.433 0.947265 -6.25468 0
M  V30 5347 C 510.097 0.794485 -6.62755 0
M  V30 5348 H 509.367 0.45742 -0.582965 0
M  V30 5349 H 512.014 0.549996 -1.83432 0
M  V30 5350 H 510.319 3.09401 -2.40371 0
M  V30 5351 H 512.016 2.91627 -2.75235 0
M  V30 5352 H 508.606 1.9537 -3.81482 0
M  V30 5353 H 512.79 1.55793 -4.71214 0
M  V30 5354 H 508.046 1.03623 -6.02555 0
M  V30 5355 H 512.22 0.648846 -6.93371 0
M  V30 5356 H 509.847 0.382271 -7.59238 0
M  V30 5357 N 511.423 1.38739 0.74761 0
M  V30 5358 C 512.669 1.35475 1.50912 0
M  V30 5359 C 513.002 -0.0533093 1.94127 0
M  V30 5360 O 512.277 -1.01572 1.65871 0
M  V30 5361 C 512.56 2.31582 2.75757 0
M  V30 5362 C 512.413 3.81274 2.38642 0
M  V30 5363 C 513.732 2.25722 3.77806 0
M  V30 5364 H 510.851 0.493427 0.547447 0
M  V30 5365 H 513.493 1.69634 0.855823 0
M  V30 5366 H 511.643 2.02582 3.31501 0
M  V30 5367 H 513.315 4.20972 1.88626 0
M  V30 5368 H 511.558 3.98664 1.71025 0
M  V30 5369 H 512.229 4.4399 3.27989 0
M  V30 5370 H 514.705 2.51336 3.31616 0
M  V30 5371 H 513.581 2.95069 4.62845 0
M  V30 5372 H 513.842 1.25803 4.23823 0
M  V30 5373 N 512.901 -0.976442 1.23707 0
M  V30 5374 C 513.864 -2.0511 1.02287 0
M  V30 5375 C 514.864 -1.60791 -0.0167195 0
M  V30 5376 O 516.054 -1.72761 0.223408 0
M  V30 5377 C 513.186 -3.36458 0.548507 0
M  V30 5378 H 514.379 -2.25545 1.9766 0
M  V30 5379 H 511.932 -1.15042 1.05806 0
M  V30 5380 H 512.667 -3.21713 -0.408818 0
M  V30 5381 H 512.452 -3.69967 1.29874 0
M  V30 5382 H 513.942 -4.15489 0.419406 0
M  V30 5383 N 514.379 -1.04941 -1.1758 0
M  V30 5384 C 515.627 -0.756492 -1.87408 0
M  V30 5385 C 515.948 0.718478 -1.81281 0
M  V30 5386 O 515.218 1.519 -1.23706 0
M  V30 5387 H 513.798 -0.276841 -0.693807 0
M  V30 5388 H 516.46 -1.32803 -1.42652 0
M  V30 5389 H 515.556 -1.06918 -2.93215 0
M  V30 5390 N 515.857 1.33968 -0.830081 0
M  V30 5391 C 517.104 1.98063 -0.421566 0
M  V30 5392 C 517.432 1.65787 1.0171 0
M  V30 5393 O 516.687 0.925348 1.72441 0
M  V30 5394 C 516.986 3.52679 -0.57898 0
M  V30 5395 C 516.652 4.04884 -1.98443 0
M  V30 5396 C 515.314 4.18852 -2.36888 0
M  V30 5397 C 517.666 4.32879 -2.90285 0
M  V30 5398 C 514.994 4.58145 -3.66497 0
M  V30 5399 C 517.346 4.7362 -4.19364 0
M  V30 5400 C 516.01 4.85794 -4.57778 0
M  V30 5401 H 515.28 0.724765 -0.154262 0
M  V30 5402 H 517.927 1.59792 -1.05541 0
M  V30 5403 H 516.232 3.91556 0.138219 0
M  V30 5404 H 517.929 4.00261 -0.243317 0
M  V30 5405 H 514.519 3.9448 -1.67581 0
M  V30 5406 H 518.703 4.21619 -2.61823 0
M  V30 5407 H 513.959 4.65762 -3.96075 0
M  V30 5408 H 518.133 4.9424 -4.90612 0
M  V30 5409 H 515.76 5.15998 -5.58256 0
M  V30 5410 N 517.335 0.585699 1.46312 0
M  V30 5411 C 518.298 -0.135673 2.28798 0
M  V30 5412 C 519.298 -0.815988 1.38558 0
M  V30 5413 O 520.488 -0.667487 1.60904 0
M  V30 5414 C 517.62 -1.20163 3.1902 0
M  V30 5415 H 518.813 0.589257 2.94054 0
M  V30 5416 H 516.366 0.343794 1.52472 0
M  V30 5417 H 517.101 -1.95804 2.58517 0
M  V30 5418 H 516.886 -0.718282 3.85465 0
M  V30 5419 H 518.376 -1.70749 3.81096 0
M  V30 5420 N 518.813 -1.54241 0.323641 0
M  V30 5421 C 520.062 -1.9975 -0.279806 0
M  V30 5422 C 520.375 -1.2156 -1.5324 0
M  V30 5423 O 521.581 -1.57447 -2.21185 0
M  V30 5424 C 520.037 -3.55686 -0.549115 0
M  V30 5425 C 519.645 -4.4271 0.686432 0
M  V30 5426 C 521.389 -4.09663 -1.11251 0
M  V30 5427 C 519.296 -5.90119 0.389022 0
M  V30 5428 H 518.226 -0.746177 -0.10833 0
M  V30 5429 H 520.877 -1.78248 0.435877 0
M  V30 5430 H 519.259 -3.73176 -1.32499 0
M  V30 5431 H 520.433 -4.36996 1.46188 0
M  V30 5432 H 518.748 -3.99623 1.17005 0
M  V30 5433 H 521.345 -5.17386 -1.34965 0
M  V30 5434 H 521.688 -3.61651 -2.06191 0
M  V30 5435 H 522.221 -3.95806 -0.39782 0
M  V30 5436 H 518.96 -6.42326 1.30759 0
M  V30 5437 H 518.48 -5.98785 -0.348722 0
M  V30 5438 H 520.159 -6.47 -0.0011164 0
M  V30 5439 N 520.291 -0.0518155 -1.57515 0
M  V30 5440 C 521.538 0.621823 -1.92716 0
M  V30 5441 C 521.866 1.70813 -0.930229 0
M  V30 5442 O 521.121 1.95616 0.0573708 0
M  V30 5443 C 521.42 1.25607 -3.34601 0
M  V30 5444 C 521.086 0.297901 -4.49915 0
M  V30 5445 C 519.748 0.034243 -4.81188 0
M  V30 5446 C 522.1 -0.358738 -5.19964 0
M  V30 5447 C 519.428 -0.893479 -5.79857 0
M  V30 5448 C 521.78 -1.27466 -6.19625 0
M  V30 5449 C 520.444 -1.54698 -6.49326 0
M  V30 5450 H 519.714 0.227541 -0.705199 0
M  V30 5451 H 522.361 -0.118432 -1.91133 0
M  V30 5452 H 520.666 2.07161 -3.32553 0
M  V30 5453 H 522.363 1.78424 -3.59118 0
M  V30 5454 H 518.953 0.513581 -4.25512 0
M  V30 5455 H 523.137 -0.168133 -4.96015 0
M  V30 5456 H 518.393 -1.11193 -6.01204 0
M  V30 5457 H 522.567 -1.78953 -6.73015 0
M  V30 5458 H 520.194 -2.26748 -7.25596 0
M  V30 5459 N 521.769 1.56035 0.221574 0
M  V30 5460 C 522.994 1.83476 0.967026 0
M  V30 5461 C 523.419 0.632139 1.7716 0
M  V30 5462 O 522.777 -0.419082 1.7639 0
M  V30 5463 C 522.825 3.08907 1.86034 0
M  V30 5464 O 521.929 2.876 2.95567 0
M  V30 5465 H 521.27 0.604913 0.273817 0
M  V30 5466 H 523.8 2.03247 0.234893 0
M  V30 5467 H 523.81 3.3901 2.27016 0
M  V30 5468 H 522.485 3.96068 1.26898 0
M  V30 5469 H 521.062 2.6873 2.58532 0
M  V30 5470 N 523.247 -0.488276 1.49845 0
M  V30 5471 C 524.493 -1.24341 1.6021 0
M  V30 5472 C 524.826 -1.91967 0.293651 0
M  V30 5473 O 524.101 -1.81323 -0.703718 0
M  V30 5474 C 524.384 -2.3005 2.77036 0
M  V30 5475 C 524.237 -1.66842 4.17713 0
M  V30 5476 C 525.556 -3.31509 2.89464 0
M  V30 5477 H 522.675 -0.450704 0.583125 0
M  V30 5478 H 525.317 -0.539673 1.82174 0
M  V30 5479 H 523.467 -2.90071 2.58439 0
M  V30 5480 H 525.139 -1.1055 4.47858 0
M  V30 5481 H 523.382 -0.972079 4.22768 0
M  V30 5482 H 524.053 -2.43576 4.95353 0
M  V30 5483 H 526.529 -2.81493 3.06433 0
M  V30 5484 H 525.405 -4.02822 3.72861 0
M  V30 5485 H 525.666 -3.94603 1.99351 0
M  V30 5486 N 524.725 -1.39134 -0.740242 0
M  V30 5487 C 525.655 -1.40165 -1.86751 0
M  V30 5488 C 526.636 -0.265708 -1.68012 0
M  V30 5489 O 527.821 -0.47076 -1.88408 0
M  V30 5490 C 524.951 -1.2392 -3.2444 0
M  V30 5491 C 523.905 -2.34858 -3.57807 0
M  V30 5492 C 523.231 -2.03707 -4.94376 0
M  V30 5493 C 524.531 -3.77159 -3.61315 0
M  V30 5494 H 526.225 -2.345 -1.86145 0
M  V30 5495 H 523.771 -1.12875 -0.89416 0
M  V30 5496 H 525.724 -1.23263 -4.02969 0
M  V30 5497 H 524.448 -0.26051 -3.25559 0
M  V30 5498 H 523.107 -2.34723 -2.81604 0
M  V30 5499 H 522.755 -1.04289 -4.9207 0
M  V30 5500 H 522.455 -2.78016 -5.17669 0
M  V30 5501 H 523.979 -2.04691 -5.75268 0
M  V30 5502 H 525.393 -3.79252 -4.29931 0
M  V30 5503 H 523.79 -4.50784 -3.96124 0
M  V30 5504 H 524.86 -4.08513 -2.61238 0
M  V30 5505 N 526.204 0.969867 -1.24223 0
M  V30 5506 C 527.452 1.70918 -1.0785 0
M  V30 5507 C 527.773 1.91186 0.383763 0
M  V30 5508 O 527.043 1.48806 1.27411 0
M  V30 5509 H 525.623 0.633334 -0.396103 0
M  V30 5510 H 528.285 1.16689 -1.56108 0
M  V30 5511 H 527.381 2.69455 -1.57482 0
M  V30 5512 N 527.682 1.05563 1.17022 0
M  V30 5513 C 528.929 0.767937 1.87374 0
M  V30 5514 C 529.257 -0.705224 1.81265 0
M  V30 5515 O 528.512 -1.5318 1.21796 0
M  V30 5516 C 528.811 1.19849 3.36706 0
M  V30 5517 C 528.477 2.6745 3.63017 0
M  V30 5518 C 527.139 3.0777 3.69907 0
M  V30 5519 C 529.491 3.62811 3.74189 0
M  V30 5520 C 526.819 4.42307 3.85463 0
M  V30 5521 C 529.171 4.97087 3.91264 0
M  V30 5522 C 527.835 5.37055 3.96394 0
M  V30 5523 H 527.105 0.281008 0.68565 0
M  V30 5524 H 529.752 1.32339 1.38415 0
M  V30 5525 H 528.057 0.562096 3.87747 0
M  V30 5526 H 529.754 0.953038 3.8951 0
M  V30 5527 H 526.344 2.35228 3.58282 0
M  V30 5528 H 530.528 3.32798 3.68183 0
M  V30 5529 H 525.784 4.72769 3.87684 0
M  V30 5530 H 529.958 5.70869 3.9885 0
M  V30 5531 H 527.585 6.41308 4.082 0
M  V30 5532 N 529.16 -1.33526 0.837174 0
M  V30 5533 C 530.093 -2.27192 0.214233 0
M  V30 5534 C 531.071 -1.49575 -0.637657 0
M  V30 5535 O 532.255 -1.78753 -0.598291 0
M  V30 5536 C 529.382 -3.31401 -0.699367 0
M  V30 5537 C 528.428 -4.26431 0.0768429 0
M  V30 5538 S 529.261 -5.15954 1.4336 0
M  V30 5539 C 530.417 -6.23692 0.525251 0
M  V30 5540 H 530.65 -2.79679 1.00831 0
M  V30 5541 H 528.183 -1.4079 0.633834 0
M  V30 5542 H 530.141 -3.91924 -1.22088 0
M  V30 5543 H 528.802 -2.77732 -1.46709 0
M  V30 5544 H 527.995 -5.00193 -0.618268 0
M  V30 5545 H 527.597 -3.70235 0.529364 0
M  V30 5546 H 529.889 -6.76931 -0.277575 0
M  V30 5547 H 530.832 -6.97283 1.23299 0
M  V30 5548 H 531.24 -5.64398 0.107351 0
M  V30 5549 N 530.638 -0.59345 -1.46 0
M  V30 5550 C 531.601 0.123538 -2.28867 0
M  V30 5551 C 532.601 0.808628 -1.38989 0
M  V30 5552 O 533.791 0.658945 -1.61256 0
M  V30 5553 C 530.923 1.1847 -3.19653 0
M  V30 5554 H 532.116 -0.604843 -2.93737 0
M  V30 5555 H 529.669 -0.351875 -1.52288 0
M  V30 5556 H 530.404 1.94431 -2.59552 0
M  V30 5557 H 530.189 0.69783 -3.8584 0
M  V30 5558 H 531.679 1.68726 -3.81997 0
M  V30 5559 N 532.116 1.54067 -0.331816 0
M  V30 5560 C 533.346 2.04833 0.269605 0
M  V30 5561 C 533.754 1.20714 1.45687 0
M  V30 5562 O 533.097 0.232539 1.82222 0
M  V30 5563 C 533.159 3.51386 0.759499 0
M  V30 5564 C 532.823 4.55971 -0.306557 0
M  V30 5565 C 533.82 5.07126 -1.14538 0
M  V30 5566 C 531.505 5.00216 -0.457116 0
M  V30 5567 C 533.499 6.01096 -2.12042 0
M  V30 5568 C 531.186 5.93999 -1.43556 0
M  V30 5569 C 532.184 6.44326 -2.26568 0
M  V30 5570 O 531.872 7.36267 -3.22749 0
M  V30 5571 H 531.604 0.673509 0.0579763 0
M  V30 5572 H 534.158 1.99748 -0.478521 0
M  V30 5573 H 532.388 3.53896 1.55867 0
M  V30 5574 H 534.077 3.85184 1.28017 0
M  V30 5575 H 534.843 4.73716 -1.04009 0
M  V30 5576 H 530.722 4.60652 0.179142 0
M  V30 5577 H 534.266 6.40302 -2.76873 0
M  V30 5578 H 530.163 6.26825 -1.54146 0
M  V30 5579 H 530.931 7.54165 -3.18083 0
M  V30 5580 N 533.594 0.0601682 1.57485 0
M  V30 5581 C 534.504 -0.926121 2.15546 0
M  V30 5582 C 535.52 -1.33532 1.11558 0
M  V30 5583 O 536.696 -1.4104 1.4377 0
M  V30 5584 C 533.761 -2.17952 2.69625 0
M  V30 5585 C 532.822 -1.82783 3.88444 0
M  V30 5586 C 532.055 -3.02148 4.39935 0
M  V30 5587 O 532.278 -4.15803 3.90466 0
M  V30 5588 O 531.212 -2.82639 5.31412 0
M  V30 5589 H 535.038 -0.462289 3.00161 0
M  V30 5590 H 532.623 -0.162246 1.48516 0
M  V30 5591 H 534.505 -2.91474 3.04337 0
M  V30 5592 H 533.18 -2.63456 1.88077 0
M  V30 5593 H 532.087 -1.06549 3.58606 0
M  V30 5594 H 533.42 -1.42072 4.7125 0
M  V30 5595 N 535.072 -1.5615 -0.213296 0
M  V30 5596 C 536.004 -1.89586 -1.28802 0
M  V30 5597 C 537.017 -0.784844 -1.42633 0
M  V30 5598 O 538.206 -1.06319 -1.43383 0
M  V30 5599 C 535.306 -2.09665 -2.66259 0
M  V30 5600 C 534.479 -3.40726 -2.7427 0
M  V30 5601 C 533.538 -3.50137 -3.92798 0
M  V30 5602 O 532.564 -4.23105 -3.8075 0
M  V30 5603 N 533.766 -2.81886 -5.07465 0
M  V30 5604 H 536.531 -2.82368 -1.00442 0
M  V30 5605 H 534.092 -1.56796 -0.403302 0
M  V30 5606 H 536.084 -2.13268 -3.43946 0
M  V30 5607 H 534.654 -1.23469 -2.87183 0
M  V30 5608 H 533.874 -3.4915 -1.82997 0
M  V30 5609 H 535.162 -4.27048 -2.76599 0
M  V30 5610 H 534.56 -2.22397 -5.2015 0
M  V30 5611 H 533.117 -2.91139 -5.83165 0
M  V30 5612 N 536.55 0.480323 -1.50102 0
M  V30 5613 C 537.798 1.23063 -1.60312 0
M  V30 5614 C 538.119 1.92659 -0.301226 0
M  V30 5615 O 537.389 1.83691 0.680753 0
M  V30 5616 H 535.969 0.457231 -0.590719 0
M  V30 5617 H 538.631 0.554893 -1.86834 0
M  V30 5618 H 537.727 1.9835 -2.40964 0
M  V30 5619 N 538.028 1.39524 0.732853 0
M  V30 5620 C 539.274 1.37068 1.49467 0
M  V30 5621 C 539.607 -0.0327166 1.94172 0
M  V30 5622 O 538.882 -0.998071 1.66939 0
M  V30 5623 C 539.165 2.34494 2.73285 0
M  V30 5624 C 539.018 3.83784 2.34585 0
M  V30 5625 C 540.337 2.29717 3.75391 0
M  V30 5626 H 537.456 0.499206 0.542183 0
M  V30 5627 H 540.098 1.70532 0.837783 0
M  V30 5628 H 538.248 2.06087 3.29333 0
M  V30 5629 H 539.92 4.22949 1.84151 0
M  V30 5630 H 538.163 4.00455 1.66787 0
M  V30 5631 H 538.834 4.47444 3.23262 0
M  V30 5632 H 541.31 2.54839 3.28932 0
M  V30 5633 H 540.186 2.99962 4.59689 0
M  V30 5634 H 540.447 1.30291 4.22465 0
M  V30 5635 N 539.506 -0.963266 1.24736 0
M  V30 5636 C 540.917 -1.52145 1.08207 0
M  V30 5637 C 541.268 -1.93142 -0.345061 0
M  V30 5638 O 540.393 -1.77769 -1.23399 0
M  V30 5639 C 540.988 -2.76486 1.95808 0
M  V30 5640 C 539.547 -3.28646 1.8349 0
M  V30 5641 C 538.694 -2.01529 1.90476 0
M  V30 5642 H 541.645 -0.781083 1.38148 0
M  V30 5643 H 541.666 -3.49986 1.49297 0
M  V30 5644 H 541.178 -2.46617 2.99669 0
M  V30 5645 H 539.279 -3.63357 0.824787 0
M  V30 5646 H 539.392 -3.97246 2.67829 0
M  V30 5647 H 537.756 -2.16442 1.34258 0
M  V30 5648 H 538.539 -1.7402 2.95926 0
M  V30 5649 N 540.985 -1.06182 -1.16461 0
M  V30 5650 C 542.234 -0.772927 -1.86303 0
M  V30 5651 C 542.547 0.703187 -1.82523 0
M  V30 5652 O 543.753 1.10641 -2.47933 0
M  V30 5653 C 542.209 -1.33249 -3.34324 0
M  V30 5654 C 541.817 -2.83876 -3.46581 0
M  V30 5655 C 543.561 -1.12108 -4.09429 0
M  V30 5656 C 541.468 -3.33082 -4.88682 0
M  V30 5657 H 540.398 -0.285452 -0.697878 0
M  V30 5658 H 543.049 -1.28039 -1.31447 0
M  V30 5659 H 541.431 -0.7528 -3.88779 0
M  V30 5660 H 542.605 -3.47786 -3.02293 0
M  V30 5661 H 540.92 -3.03671 -2.84909 0
M  V30 5662 H 543.517 -1.46361 -5.14279 0
M  V30 5663 H 543.86 -0.0593832 -4.16258 0
M  V30 5664 H 544.393 -1.6665 -3.6121 0
M  V30 5665 H 541.132 -4.38726 -4.87032 0
M  V30 5666 H 540.652 -2.73919 -5.33599 0
M  V30 5667 H 542.331 -3.28344 -5.57494 0
M  V30 5668 N 542.463 1.3308 -0.844243 0
M  V30 5669 C 543.426 2.27403 -0.286485 0
M  V30 5670 C 544.426 1.51179 0.547872 0
M  V30 5671 O 545.616 1.70421 0.360886 0
M  V30 5672 C 542.748 3.35653 0.595813 0
M  V30 5673 H 543.941 2.78248 -1.11885 0
M  V30 5674 H 541.494 1.43574 -0.617749 0
M  V30 5675 H 542.229 2.90058 1.4504 0
M  V30 5676 H 542.014 3.921 -0.00125994 0
M  V30 5677 H 543.504 4.05958 0.979168 0
M  V30 5678 N 543.941 0.601185 1.45683 0
M  V30 5679 C 544.851 -0.123395 2.34275 0
M  V30 5680 C 545.867 -0.86702 1.5086 0
M  V30 5681 O 547.043 -0.826049 1.8368 0
M  V30 5682 C 544.108 -1.11237 3.2837 0
M  V30 5683 C 543.169 -0.371405 4.2769 0
M  V30 5684 C 542.402 -1.31327 5.1729 0
M  V30 5685 O 542.625 -2.55078 5.10188 0
M  V30 5686 O 541.559 -0.813811 5.96373 0
M  V30 5687 H 545.385 0.604483 2.97623 0
M  V30 5688 H 542.97 0.361477 1.44961 0
M  V30 5689 H 544.852 -1.68214 3.8637 0
M  V30 5690 H 543.527 -1.82139 2.67595 0
M  V30 5691 H 542.434 0.24067 3.73325 0
M  V30 5692 H 543.767 0.296998 4.91303 0
M  V30 5693 N 545.419 -1.53889 0.339982 0
M  V30 5694 C 546.665 -2.01152 -0.258003 0
M  V30 5695 C 546.998 -1.22749 -1.50487 0
M  V30 5696 O 546.273 -0.314156 -1.91946 0
M  V30 5697 C 546.556 -3.55468 -0.575717 0
M  V30 5698 C 546.409 -4.44584 0.682996 0
M  V30 5699 C 547.728 -4.1768 -1.38677 0
M  V30 5700 H 544.847 -0.731198 -0.0922992 0
M  V30 5701 H 547.489 -1.84352 0.459814 0
M  V30 5702 H 545.639 -3.69914 -1.18725 0
M  V30 5703 H 547.311 -4.41981 1.32102 0
M  V30 5704 H 545.554 -4.13592 1.3086 0
M  V30 5705 H 546.225 -5.5043 0.416001 0
M  V30 5706 H 548.701 -4.0691 -0.869705 0
M  V30 5707 H 547.577 -5.25734 -1.57783 0
M  V30 5708 H 547.838 -3.72069 -2.38782 0
M  V30 5709 N 546.897 -0.0685191 -1.57451 0
M  V30 5710 C 547.86 0.885173 -2.11417 0
M  V30 5711 C 548.86 1.22853 -1.03748 0
M  V30 5712 O 550.05 1.16235 -1.2975 0
M  V30 5713 C 547.182 2.18964 -2.61281 0
M  V30 5714 H 548.375 0.417034 -2.96986 0
M  V30 5715 H 545.928 0.18014 -1.55258 0
M  V30 5716 H 546.663 2.70321 -1.79156 0
M  V30 5717 H 546.448 1.9534 -3.39977 0
M  V30 5718 H 547.938 2.87242 -3.0312 0
M  V30 5719 N 548.375 1.56261 0.205012 0
M  V30 5720 C 549.285 1.96944 1.27476 0
M  V30 5721 C 550.301 0.875636 1.50362 0
M  V30 5722 O 551.477 1.18058 1.6317 0
M  V30 5723 C 548.542 2.29219 2.60115 0
M  V30 5724 C 547.603 3.52255 2.45387 0
M  V30 5725 C 546.836 3.8298 3.71701 0
M  V30 5726 O 547.059 3.15138 4.75441 0
M  V30 5727 O 545.993 4.76435 3.67823 0
M  V30 5728 H 549.819 2.88144 0.959527 0
M  V30 5729 H 547.404 1.43686 0.409217 0
M  V30 5730 H 549.286 2.51098 3.3842 0
M  V30 5731 H 547.961 1.4119 2.91285 0
M  V30 5732 H 546.868 3.35635 1.65227 0
M  V30 5733 H 548.201 4.40719 2.19152 0
M  V30 5734 N 549.853 -0.472356 1.50355 0
M  V30 5735 C 551.078 -1.25251 1.65309 0
M  V30 5736 C 551.503 -1.85081 0.335643 0
M  V30 5737 O 550.861 -1.67227 -0.700335 0
M  V30 5738 C 550.909 -2.3379 2.74544 0
M  V30 5739 O 550.013 -3.38401 2.35709 0
M  V30 5740 H 549.354 -0.368539 0.552336 0
M  V30 5741 H 551.884 -0.562271 1.96722 0
M  V30 5742 H 551.894 -2.79121 2.97583 0
M  V30 5743 H 550.569 -1.89614 3.70161 0
M  V30 5744 H 549.146 -2.9879 2.23112 0
M  V30 5745 N 551.331 -1.39911 -0.725443 0
M  V30 5746 C 552.579 -1.37382 -1.48224 0
M  V30 5747 C 552.9 0.0264107 -1.94982 0
M  V30 5748 O 552.17 0.979408 -1.6966 0
M  V30 5749 H 550.75 -0.505596 -0.549892 0
M  V30 5750 H 553.412 -1.7487 -0.860608 0
M  V30 5751 H 552.508 -2.04254 -2.3598 0
M  V30 5752 N 552.809 0.956637 -1.25245 0
M  V30 5753 C 554.22 1.51569 -1.09012 0
M  V30 5754 C 554.571 1.93322 0.334813 0
M  V30 5755 O 553.696 1.78421 1.22454 0
M  V30 5756 C 554.291 2.75444 -1.97271 0
M  V30 5757 C 552.85 3.27669 -1.8523 0
M  V30 5758 C 551.997 2.00517 -1.91542 0
M  V30 5759 H 554.948 0.773746 -1.3856 0
M  V30 5760 H 554.969 3.4919 -1.51151 0
M  V30 5761 H 554.481 2.45024 -3.00973 0
M  V30 5762 H 552.582 3.62914 -0.844045 0
M  V30 5763 H 552.695 3.9582 -2.69932 0
M  V30 5764 H 551.059 2.15727 -1.35404 0
M  V30 5765 H 551.842 1.72448 -2.96844 0
M  V30 5766 N 554.287 1.06798 1.15896 0
M  V30 5767 C 555.535 0.786211 1.8618 0
M  V30 5768 C 555.856 -0.689547 1.82401 0
M  V30 5769 O 555.126 -1.49913 1.26107 0
M  V30 5770 H 553.706 0.287843 0.689315 0
M  V30 5771 H 556.368 1.35055 1.40521 0
M  V30 5772 H 555.464 1.1157 2.91477 0
M  V30 5773 N 555.766 -1.3263 0.851289 0
M  V30 5774 C 556.696 -2.31449 0.308771 0
M  V30 5775 C 557.677 -1.59531 -0.590255 0
M  V30 5776 O 558.862 -1.87351 -0.511205 0
M  V30 5777 C 555.992 -3.43586 -0.506548 0
M  V30 5778 C 554.946 -4.26963 0.297753 0
M  V30 5779 C 554.272 -5.30831 -0.642094 0
M  V30 5780 C 555.572 -4.99643 1.52166 0
M  V30 5781 H 557.266 -2.77074 1.13447 0
M  V30 5782 H 554.812 -1.33207 0.546971 0
M  V30 5783 H 556.765 -4.11754 -0.896474 0
M  V30 5784 H 555.489 -2.96681 -1.36558 0
M  V30 5785 H 554.148 -3.60437 0.669391 0
M  V30 5786 H 553.796 -4.8018 -1.49788 0
M  V30 5787 H 553.496 -5.87501 -0.107968 0
M  V30 5788 H 555.02 -6.01862 -1.02927 0
M  V30 5789 H 556.434 -5.6051 1.20421 0
M  V30 5790 H 554.831 -5.66022 1.99347 0
M  V30 5791 H 555.901 -4.27701 2.28474 0
M  V30 5792 N 557.244 -0.608902 -1.45362 0
M  V30 5793 C 558.207 0.0992563 -2.28985 0
M  V30 5794 C 559.207 0.793841 -1.39838 0
M  V30 5795 O 560.397 0.641804 -1.61946 0
M  V30 5796 C 557.529 1.15073 -3.20891 0
M  V30 5797 H 558.722 -0.635964 -2.93079 0
M  V30 5798 H 556.275 -0.368007 -1.51906 0
M  V30 5799 H 557.01 1.91667 -2.616 0
M  V30 5800 H 556.795 0.656867 -3.86559 0
M  V30 5801 H 558.285 1.64665 -3.83765 0
M  V30 5802 N 558.722 1.53707 -0.348139 0
M  V30 5803 C 559.969 2.00988 0.246966 0
M  V30 5804 C 560.297 1.23586 1.50189 0
M  V30 5805 O 559.552 0.312817 1.93184 0
M  V30 5806 C 559.851 3.52292 0.602061 0
M  V30 5807 C 559.517 4.47453 -0.556509 0
M  V30 5808 C 558.179 4.73188 -0.874446 0
M  V30 5809 C 560.531 5.03851 -1.33354 0
M  V30 5810 C 557.859 5.52577 -1.9717 0
M  V30 5811 C 560.211 5.84437 -2.42108 0
M  V30 5812 C 558.875 6.08465 -2.74456 0
M  V30 5813 H 558.145 0.735469 0.0903712 0
M  V30 5814 H 560.792 1.85464 -0.477001 0
M  V30 5815 H 559.097 3.65672 1.40681 0
M  V30 5816 H 560.794 3.86337 1.07447 0
M  V30 5817 H 557.384 4.27558 -0.298652 0
M  V30 5818 H 561.568 4.8393 -1.10117 0
M  V30 5819 H 556.824 5.69418 -2.22651 0
M  V30 5820 H 560.998 6.27151 -3.02745 0
M  V30 5821 H 558.625 6.69768 -3.59604 0
M  V30 5822 N 560.2 0.0768682 1.57412 0
M  V30 5823 C 561.449 -0.590679 1.92857 0
M  V30 5824 C 561.762 -1.70461 0.959293 0
M  V30 5825 O 562.968 -2.43207 1.20675 0
M  V30 5826 C 561.424 -1.10204 3.42612 0
M  V30 5827 C 561.032 -0.0188447 4.47996 0
M  V30 5828 C 562.776 -1.74336 3.87049 0
M  V30 5829 C 560.683 -0.544536 5.88888 0
M  V30 5830 H 559.613 -0.224411 0.71983 0
M  V30 5831 H 562.264 0.149924 1.82887 0
M  V30 5832 H 560.646 -1.89577 3.47673 0
M  V30 5833 H 561.82 0.755936 4.54557 0
M  V30 5834 H 560.135 0.526555 4.13057 0
M  V30 5835 H 562.732 -2.14708 4.89699 0
M  V30 5836 H 563.075 -2.60537 3.24694 0
M  V30 5837 H 563.608 -1.01577 3.84613 0
M  V30 5838 H 560.347 0.280426 6.549 0
M  V30 5839 H 559.867 -1.28673 5.85836 0
M  V30 5840 H 561.546 -1.01933 6.3892 0
M  V30 5841 N 561.678 -1.56367 -0.196722 0
M  V30 5842 C 562.641 -1.93561 -1.22746 0
M  V30 5843 C 563.641 -0.816566 -1.38524 0
M  V30 5844 O 564.831 -1.084 -1.36363 0
M  V30 5845 C 561.963 -2.20823 -2.59712 0
M  V30 5846 H 563.156 -2.85774 -0.909586 0
M  V30 5847 H 560.709 -1.50032 -0.438174 0
M  V30 5848 H 561.444 -1.31243 -2.96557 0
M  V30 5849 H 561.229 -3.02368 -2.49632 0
M  V30 5850 H 562.719 -2.50608 -3.34044 0
M  V30 5851 N 563.156 0.464375 -1.50603 0
M  V30 5852 C 564.386 1.23727 -1.65454 0
M  V30 5853 C 564.794 1.86119 -0.340032 0
M  V30 5854 O 564.137 1.70301 0.688706 0
M  V30 5855 C 564.199 2.38153 -2.69301 0
M  V30 5856 C 563.863 1.96345 -4.12671 0
M  V30 5857 C 564.86 1.48215 -4.98326 0
M  V30 5858 C 562.545 2.04861 -4.58625 0
M  V30 5859 C 564.539 1.09152 -6.27985 0
M  V30 5860 C 562.226 1.65409 -5.88288 0
M  V30 5861 C 563.224 1.17634 -6.72794 0
M  V30 5862 O 562.912 0.787312 -8.00035 0
M  V30 5863 H 562.644 0.380075 -0.559034 0
M  V30 5864 H 565.198 0.559919 -1.97621 0
M  V30 5865 H 563.428 3.09081 -2.32392 0
M  V30 5866 H 565.117 3.00099 -2.73304 0
M  V30 5867 H 565.883 1.41052 -4.64036 0
M  V30 5868 H 561.762 2.40996 -3.92991 0
M  V30 5869 H 565.306 0.717909 -6.93896 0
M  V30 5870 H 561.203 1.72233 -6.22098 0
M  V30 5871 H 561.971 0.915567 -8.13363 0
M  V30 5872 N 564.634 1.40294 0.718013 0
M  V30 5873 C 566.045 1.34289 1.29705 0
M  V30 5874 C 566.396 0.0152228 1.96194 0
M  V30 5875 O 565.521 -0.88682 1.97394 0
M  V30 5876 C 566.116 2.43219 2.3586 0
M  V30 5877 C 564.675 2.40682 2.89394 0
M  V30 5878 C 563.822 2.24223 1.63154 0
M  V30 5879 H 566.773 1.50135 0.514312 0
M  V30 5880 H 566.794 2.10986 3.16647 0
M  V30 5881 H 566.306 3.39836 1.87439 0
M  V30 5882 H 564.407 1.47756 3.42051 0
M  V30 5883 H 564.52 3.36177 3.41353 0
M  V30 5884 H 562.884 1.71696 1.88129 0
M  V30 5885 H 563.667 3.22834 1.16761 0
M  V30 5886 N 566.112 -0.949982 1.2575 0
M  V30 5887 C 567.059 -2.04738 1.06541 0
M  V30 5888 C 568.029 -1.66078 -0.0268818 0
M  V30 5889 O 569.214 -1.90348 0.131196 0
M  V30 5890 C 566.354 -3.38027 0.695127 0
M  V30 5891 C 565.467 -3.89776 1.86276 0
M  V30 5892 C 564.602 -5.11411 1.4364 0
M  V30 5893 C 563.641 -5.554 2.57287 0
M  V30 5894 N 562.778 -6.68244 2.15395 0
M  V30 5895 H 567.618 -2.20502 2.00457 0
M  V30 5896 H 565.155 -1.0805 0.998178 0
M  V30 5897 H 567.113 -4.14641 0.461375 0
M  V30 5898 H 565.743 -3.22135 -0.207046 0
M  V30 5899 H 564.795 -3.0964 2.20969 0
M  V30 5900 H 566.107 -4.18368 2.71606 0
M  V30 5901 H 565.261 -5.95457 1.16257 0
M  V30 5902 H 564 -4.84545 0.553879 0
M  V30 5903 H 563.005 -4.69916 2.85409 0
M  V30 5904 H 564.23 -5.84272 3.46125 0
M  V30 5905 H 562.176 -6.43078 1.29565 0
M  V30 5906 H 562.093 -6.96377 2.94272 0
M  V30 5907 H 563.361 -7.55687 1.91201 0
M  V30 5908 N 567.59 -1.07411 -1.15328 0
M  V30 5909 C 568.553 -0.698914 -2.18284 0
M  V30 5910 C 569.553 0.261149 -1.58665 0
M  V30 5911 O 570.743 0.0420277 -1.74149 0
M  V30 5912 C 567.875 -0.0302427 -3.40887 0
M  V30 5913 H 569.068 -1.61045 -2.52991 0
M  V30 5914 H 566.621 -0.870724 -1.298 0
M  V30 5915 H 567.356 0.893505 -3.11748 0
M  V30 5916 H 567.141 -0.720759 -3.85419 0
M  V30 5917 H 568.631 0.21759 -4.17033 0
M  V30 5918 N 569.068 1.32177 -0.85831 0
M  V30 5919 C 570.314 1.97417 -0.46417 0
M  V30 5920 C 570.647 1.67746 0.978514 0
M  V30 5921 O 569.922 0.967654 1.68721 0
M  V30 5922 C 570.205 3.53069 -0.708094 0
M  V30 5923 C 570.058 3.92357 -2.19946 0
M  V30 5924 C 571.377 4.39783 -0.166881 0
M  V30 5925 H 568.496 0.717097 -0.17012 0
M  V30 5926 H 571.138 1.56499 -1.07741 0
M  V30 5927 H 569.288 3.88054 -0.186128 0
M  V30 5928 H 570.96 3.67533 -2.78779 0
M  V30 5929 H 569.203 3.41384 -2.67656 0
M  V30 5930 H 569.874 5.00841 -2.32082 0
M  V30 5931 H 572.35 4.11556 -0.613285 0
M  V30 5932 H 571.226 5.47671 -0.367093 0
M  V30 5933 H 571.487 4.32196 0.930559 0
M  V30 5934 N 570.547 0.616602 1.45037 0
M  V30 5935 C 571.775 0.121968 2.0654 0
M  V30 5936 C 572.19 -1.19743 1.45969 0
M  V30 5937 O 571.547 -1.73133 0.577168 0
M  V30 5938 C 571.598 -0.0145171 3.61497 0
M  V30 5939 O 571.319 1.25269 4.19809 0
M  V30 5940 C 572.82 -0.539555 4.40004 0
M  V30 5941 H 570.04 0.0729837 0.667019 0
M  V30 5942 H 572.584 0.846891 1.8614 0
M  V30 5943 H 570.739 -0.689809 3.81209 0
M  V30 5944 H 571.153 1.08816 5.13088 0
M  V30 5945 H 572.627 -0.584112 5.48901 0
M  V30 5946 H 573.104 -1.56368 4.10421 0
M  V30 5947 H 573.71 0.101995 4.25178 0
M  V30 5948 N 572.025 -1.5352 0.356285 0
M  V30 5949 C 572.958 -2.2177 -0.537913 0
M  V30 5950 C 573.936 -1.20626 -1.09033 0
M  V30 5951 O 575.12 -1.49494 -1.1482 0
M  V30 5952 C 572.247 -2.90513 -1.74126 0
M  V30 5953 C 571.293 -4.05652 -1.31715 0
M  V30 5954 S 572.126 -5.34505 -0.326236 0
M  V30 5955 C 573.282 -6.06757 -1.53612 0
M  V30 5956 H 573.515 -2.97271 0.0417411 0
M  V30 5957 H 571.048 -1.53761 0.140372 0
M  V30 5958 H 573.006 -3.30735 -2.43155 0
M  V30 5959 H 571.667 -2.14754 -2.29215 0
M  V30 5960 H 570.86 -4.52733 -2.21471 0
M  V30 5961 H 570.462 -3.67272 -0.706183 0
M  V30 5962 H 572.754 -6.30924 -2.46863 0
M  V30 5963 H 573.697 -6.99395 -1.10687 0
M  V30 5964 H 574.105 -5.3708 -1.73796 0
M  V30 5965 N 573.503 -0.0852151 -1.57369 0
M  V30 5966 C 574.436 0.913608 -2.09113 0
M  V30 5967 C 575.414 1.28264 -0.999358 0
M  V30 5968 O 576.598 1.3896 -1.27367 0
M  V30 5969 C 573.725 2.21777 -2.55993 0
M  V30 5970 C 572.771 1.99932 -3.76735 0
M  V30 5971 S 573.604 1.24637 -5.20794 0
M  V30 5972 C 574.76 2.56304 -5.71016 0
M  V30 5973 H 574.993 0.473369 -2.93507 0
M  V30 5974 H 572.526 0.127856 -1.5387 0
M  V30 5975 H 574.484 2.96726 -2.83662 0
M  V30 5976 H 573.145 2.62923 -1.71843 0
M  V30 5977 H 572.338 2.96482 -4.07571 0
M  V30 5978 H 571.94 1.33116 -3.49509 0
M  V30 5979 H 574.232 3.5233 -5.78679 0
M  V30 5980 H 575.175 2.3006 -6.69685 0
M  V30 5981 H 575.583 2.64125 -4.98897 0
M  V30 5982 N 574.981 1.5647 0.188427 0
M  V30 5983 C 576.392 1.70864 0.752494 0
M  V30 5984 C 576.743 0.692905 1.83557 0
M  V30 5985 O 575.868 -0.149307 2.15884 0
M  V30 5986 C 576.463 3.09789 1.37173 0
M  V30 5987 C 575.022 3.25925 1.88281 0
M  V30 5988 C 574.169 2.66817 0.755259 0
M  V30 5989 H 577.12 1.58657 -0.0367408 0
M  V30 5990 H 577.141 3.07489 2.24122 0
M  V30 5991 H 576.653 3.83693 0.583219 0
M  V30 5992 H 574.754 2.56948 2.6983 0
M  V30 5993 H 574.867 4.33498 2.04001 0
M  V30 5994 H 573.231 2.2617 1.17128 0
M  V30 5995 H 574.014 3.43294 -0.0211237 0
M  V30 5996 N 576.459 -0.456382 1.50847 0
M  V30 5997 C 577.389 -1.56025 1.73719 0
M  V30 5998 C 578.37 -1.5967 0.586473 0
M  V30 5999 O 579.555 -1.75702 0.827185 0
M  V30 6000 C 576.685 -2.94251 1.84483 0
M  V30 6001 C 575.639 -3.05471 2.99786 0
M  V30 6002 C 574.965 -4.45489 2.95709 0
M  V30 6003 C 576.265 -2.81318 4.40065 0
M  V30 6004 H 577.959 -1.37138 2.66146 0
M  V30 6005 H 575.505 -0.658299 1.28072 0
M  V30 6006 H 577.458 -3.71417 1.99067 0
M  V30 6007 H 576.182 -3.14328 0.886891 0
M  V30 6008 H 574.841 -2.30741 2.84876 0
M  V30 6009 H 574.489 -4.62505 1.97732 0
M  V30 6010 H 574.189 -4.53929 3.73125 0
M  V30 6011 H 575.713 -5.24655 3.12362 0
M  V30 6012 H 577.127 -3.48226 4.55425 0
M  V30 6013 H 575.524 -3.01188 5.19043 0
M  V30 6014 H 576.594 -1.7706 4.51418 0
M  V30 6015 N 577.937 -1.40673 -0.710563 0
M  V30 6016 C 579.162 -1.42741 -1.50465 0
M  V30 6017 C 579.587 -0.0302116 -1.88076 0
M  V30 6018 O 578.945 0.962945 -1.53613 0
M  V30 6019 C 578.993 -2.32873 -2.75322 0
M  V30 6020 O 578.097 -1.77544 -3.72226 0
M  V30 6021 H 577.438 -0.485056 -0.45345 0
M  V30 6022 H 579.968 -1.84961 -0.874681 0
M  V30 6023 H 579.978 -2.48233 -3.23797 0
M  V30 6024 H 578.653 -3.34401 -2.47283 0
M  V30 6025 H 577.23 -1.71556 -3.31093 0
M  V30 6026 N 579.415 0.9433 -1.26252 0
M  V30 6027 C 580.826 1.50404 -1.10614 0
M  V30 6028 C 581.177 1.93666 0.31429 0
M  V30 6029 O 580.302 1.79709 1.20555 0
M  V30 6030 C 580.897 2.73336 -2.00182 0
M  V30 6031 C 579.456 3.25686 -1.88695 0
M  V30 6032 C 578.603 1.98474 -1.93658 0
M  V30 6033 H 581.554 0.759006 -1.39373 0
M  V30 6034 H 581.575 3.47567 -1.54847 0
M  V30 6035 H 581.087 2.41818 -3.03555 0
M  V30 6036 H 579.188 3.61998 -0.882489 0
M  V30 6037 H 579.301 3.92935 -2.74115 0
M  V30 6038 H 577.665 2.14278 -1.37684 0
M  V30 6039 H 578.448 1.6929 -2.98657 0
M  V30 6040 N 580.893 1.08022 1.14757 0
M  V30 6041 C 581.823 0.728248 2.21853 0
M  V30 6042 C 582.804 -0.287486 1.67653 0
M  V30 6043 O 583.989 -0.158727 1.9355 0
M  V30 6044 C 581.119 0.132549 3.47047 0
M  V30 6045 C 580.073 1.07619 4.14249 0
M  V30 6046 C 579.399 0.342907 5.33599 0
M  V30 6047 C 580.699 2.41268 4.63235 0
M  V30 6048 H 582.393 1.62365 2.51551 0
M  V30 6049 H 579.939 0.782125 1.20908 0
M  V30 6050 H 581.892 -0.125665 4.21213 0
M  V30 6051 H 580.616 -0.797971 3.16702 0
M  V30 6052 H 579.275 1.31944 3.42033 0
M  V30 6053 H 578.923 -0.59129 4.99513 0
M  V30 6054 H 578.623 0.971955 5.79506 0
M  V30 6055 H 580.147 0.0926538 6.1053 0
M  V30 6056 H 581.561 2.21232 5.28894 0
M  V30 6057 H 579.958 2.9983 5.19829 0
M  V30 6058 H 581.028 3.03079 3.78512 0
M  V30 6059 N 582.371 -1.3172 0.865308 0
M  V30 6060 C 583.617 -1.97559 0.483944 0
M  V30 6061 C 583.972 -1.67181 -0.95227 0
M  V30 6062 O 583.265 -0.955392 -1.66081 0
M  V30 6063 C 583.459 -3.5102 0.672283 0
M  V30 6064 C 583.288 -3.96312 2.12525 0
M  V30 6065 C 582.058 -4.22877 2.76591 0
M  V30 6066 C 584.256 -4.10596 3.09702 0
M  V30 6067 N 582.238 -4.5449 4.12689 0
M  V30 6068 C 583.609 -4.45867 4.30816 0
M  V30 6069 C 585.664 -3.92961 3.05755 0
M  V30 6070 C 584.367 -4.65344 5.48495 0
M  V30 6071 C 586.393 -4.13628 4.22688 0
M  V30 6072 C 585.755 -4.49227 5.42563 0
M  V30 6073 H 581.854 -0.74862 0.226035 0
M  V30 6074 H 584.438 -1.59336 1.11893 0
M  V30 6075 H 582.609 -3.88342 0.0669224 0
M  V30 6076 H 584.341 -4.03865 0.259765 0
M  V30 6077 H 581.096 -4.15343 2.27567 0
M  V30 6078 H 581.52 -4.74464 4.82921 0
M  V30 6079 H 586.162 -3.64531 2.14188 0
M  V30 6080 H 583.88 -4.92624 6.40584 0
M  V30 6081 H 587.466 -4.01474 4.21082 0
M  V30 6082 H 586.346 -4.64895 6.31539 0
M  V30 6083 N 583.85 -0.624285 -1.44708 0
M  V30 6084 C 584.812 0.0749638 -2.29077 0
M  V30 6085 C 585.812 0.778965 -1.40673 0
M  V30 6086 O 587.003 0.624591 -1.62618 0
M  V30 6087 C 584.135 1.11663 -3.22094 0
M  V30 6088 H 585.327 -0.667013 -2.92388 0
M  V30 6089 H 582.88 -0.384098 -1.51507 0
M  V30 6090 H 583.615 1.88881 -2.63618 0
M  V30 6091 H 583.401 0.61583 -3.87234 0
M  V30 6092 H 584.891 1.60585 -3.8549 0
M  V30 6093 N 585.328 1.53329 -0.364422 0
M  V30 6094 C 586.556 2.05657 0.226424 0
M  V30 6095 C 586.971 1.23801 1.42544 0
M  V30 6096 O 586.328 0.27839 1.80364 0
M  V30 6097 C 586.379 3.56125 0.621056 0
M  V30 6098 O 586.1 4.34879 -0.530304 0
M  V30 6099 C 587.601 4.24706 1.27041 0
M  V30 6100 H 584.821 0.669806 0.0400056 0
M  V30 6101 H 587.365 1.97714 -0.522456 0
M  V30 6102 H 585.52 3.64223 1.31985 0
M  V30 6103 H 585.934 5.24073 -0.211546 0
M  V30 6104 H 587.408 5.3131 1.49711 0
M  V30 6105 H 587.885 3.78354 2.23036 0
M  V30 6106 H 588.491 4.20858 0.613079 0
M  V30 6107 N 586.806 0.0935595 1.57322 0
M  V30 6108 C 587.736 -0.863062 2.16964 0
M  V30 6109 C 588.717 -1.29528 1.10256 0
M  V30 6110 O 589.902 -1.36245 1.38387 0
M  V30 6111 C 587.032 -2.12276 2.74875 0
M  V30 6112 C 585.986 -1.82921 3.86942 0
M  V30 6113 C 585.312 -3.15707 4.31548 0
M  V30 6114 C 586.612 -1.11737 5.10208 0
M  V30 6115 H 588.306 -0.366145 2.97153 0
M  V30 6116 H 585.852 -0.174673 1.42937 0
M  V30 6117 H 587.805 -2.79634 3.1525 0
M  V30 6118 H 586.529 -2.64248 1.91938 0
M  V30 6119 H 585.188 -1.17961 3.47103 0
M  V30 6120 H 584.836 -3.65563 3.45504 0
M  V30 6121 H 584.536 -2.96849 5.07104 0
M  V30 6122 H 586.06 -3.84226 4.74555 0
M  V30 6123 H 587.474 -1.69203 5.47762 0
M  V30 6124 H 585.871 -1.03064 5.91183 0
M  V30 6125 H 586.941 -0.0998818 4.84797 0
M  V30 6126 N 588.284 -1.56567 -0.180126 0
M  V30 6127 C 589.531 -1.81492 -0.898167 0
M  V30 6128 C 589.859 -0.669225 -1.82624 0
M  V30 6129 O 589.114 0.344096 -1.92651 0
M  V30 6130 C 589.413 -3.1252 -1.73395 0
M  V30 6131 C 589.079 -4.40658 -0.955567 0
M  V30 6132 C 587.741 -4.75465 -0.740707 0
M  V30 6133 C 590.093 -5.19593 -0.408948 0
M  V30 6134 C 587.421 -5.86691 0.0320128 0
M  V30 6135 C 589.773 -6.31627 0.350638 0
M  V30 6136 C 588.437 -6.65007 0.576378 0
M  V30 6137 H 587.707 -0.664125 -0.328662 0
M  V30 6138 H 590.354 -1.908 -0.163616 0
M  V30 6139 H 588.659 -2.98515 -2.53763 0
M  V30 6140 H 590.356 -3.29013 -2.29241 0
M  V30 6141 H 586.946 -4.13352 -1.13306 0
M  V30 6142 H 591.13 -4.93104 -0.562307 0
M  V30 6143 H 586.386 -6.11016 0.216735 0
M  V30 6144 H 590.56 -6.92001 0.781497 0
M  V30 6145 H 588.187 -7.51033 1.17703 0
M  V30 6146 N 589.762 0.448376 -1.51087 0
M  V30 6147 C 591.009 1.19872 -1.63209 0
M  V30 6148 C 591.337 1.91451 -0.343062 0
M  V30 6149 O 590.592 1.83789 0.672321 0
M  V30 6150 C 590.891 2.24866 -2.77795 0
M  V30 6151 C 590.557 1.70378 -4.17471 0
M  V30 6152 C 589.219 1.55241 -4.55471 0
M  V30 6153 C 591.571 1.30203 -5.04675 0
M  V30 6154 C 588.899 0.983844 -5.78392 0
M  V30 6155 C 591.251 0.747798 -6.28165 0
M  V30 6156 C 589.915 0.583233 -6.64947 0
M  V30 6157 H 589.185 0.438642 -0.597222 0
M  V30 6158 H 591.832 0.49136 -1.85089 0
M  V30 6159 H 590.137 3.01598 -2.50092 0
M  V30 6160 H 591.834 2.82723 -2.84374 0
M  V30 6161 H 588.424 1.83134 -3.87505 0
M  V30 6162 H 592.608 1.40723 -4.75932 0
M  V30 6163 H 587.864 0.844007 -6.05546 0
M  V30 6164 H 592.038 0.427927 -6.95084 0
M  V30 6165 H 589.665 0.140532 -7.6007 0
M  V30 6166 N 591.24 1.41047 0.703093 0
M  V30 6167 C 592.173 1.36713 1.82715 0
M  V30 6168 C 593.151 0.235533 1.60885 0
M  V30 6169 O 594.335 0.421227 1.83733 0
M  V30 6170 C 591.462 1.13069 3.1927 0
M  V30 6171 C 590.508 2.28846 3.59905 0
M  V30 6172 S 591.341 3.91297 3.65578 0
M  V30 6173 C 592.497 3.69941 5.04871 0
M  V30 6174 H 592.73 2.31838 1.86114 0
M  V30 6175 H 590.263 1.27481 0.871083 0
M  V30 6176 H 592.221 1.00113 3.98105 0
M  V30 6177 H 590.882 0.195763 3.13489 0
M  V30 6178 H 590.075 2.07977 4.59088 0
M  V30 6179 H 589.677 2.3817 2.88359 0
M  V30 6180 H 591.969 3.29181 5.92154 0
M  V30 6181 H 592.912 4.68699 5.30779 0
M  V30 6182 H 593.32 3.03369 4.76054 0
M  V30 6183 N 592.718 -0.936591 1.26751 0
M  V30 6184 C 593.651 -2.03619 1.03027 0
M  V30 6185 C 594.629 -1.62534 -0.0464619 0
M  V30 6186 O 595.813 -1.88251 0.0968873 0
M  V30 6187 C 592.94 -3.3402 0.561072 0
M  V30 6188 C 591.986 -3.9408 1.63105 0
M  V30 6189 S 592.819 -4.27782 3.22122 0
M  V30 6190 C 593.975 -5.61277 2.76982 0
M  V30 6191 H 594.208 -2.23429 1.96129 0
M  V30 6192 H 591.741 -1.07857 1.10482 0
M  V30 6193 H 593.699 -4.09424 0.297031 0
M  V30 6194 H 592.36 -3.12147 -0.349741 0
M  V30 6195 H 591.553 -4.88154 1.25386 0
M  V30 6196 H 591.155 -3.25227 1.84671 0
M  V30 6197 H 593.447 -6.40189 2.21731 0
M  V30 6198 H 594.39 -6.03887 3.69766 0
M  V30 6199 H 594.798 -5.21374 2.16402 0
M  V30 6200 N 594.196 -1.08629 -1.14182 0
M  V30 6201 C 595.126 -0.740003 -2.21464 0
M  V30 6202 C 596.107 0.278591 -1.67803 0
M  V30 6203 O 597.292 0.148461 -1.93632 0
M  V30 6204 C 594.422 -0.150952 -3.46972 0
M  V30 6205 C 593.376 -1.09815 -4.13672 0
M  V30 6206 C 592.702 -0.3712 -5.3341 0
M  V30 6207 C 594.002 -2.43722 -4.61949 0
M  V30 6208 H 595.696 -1.63697 -2.50686 0
M  V30 6209 H 593.242 -0.788526 -1.20492 0
M  V30 6210 H 595.195 0.103325 -4.21273 0
M  V30 6211 H 593.919 0.781164 -3.1712 0
M  V30 6212 H 592.578 -1.33756 -3.41328 0
M  V30 6213 H 592.226 0.564792 -4.99819 0
M  V30 6214 H 591.926 -1.00267 -5.78982 0
M  V30 6215 H 593.45 -0.12503 -6.10472 0
M  V30 6216 H 594.864 -2.24034 -5.27714 0
M  V30 6217 H 593.261 -3.02582 -5.18232 0
M  V30 6218 H 594.331 -3.05082 -3.76899 0
M  V30 6219 N 595.674 1.31259 -0.872281 0
M  V30 6220 C 596.923 1.95893 -0.480493 0
M  V30 6221 C 597.236 1.697 0.972688 0
M  V30 6222 O 598.442 2.28214 1.47073 0
M  V30 6223 C 596.898 3.50705 -0.808342 0
M  V30 6224 C 596.506 3.85735 -2.27844 0
M  V30 6225 C 598.25 4.21719 -0.485136 0
M  V30 6226 C 596.157 5.33668 -2.54858 0
M  V30 6227 H 595.087 0.733182 -0.175955 0
M  V30 6228 H 597.738 1.49396 -1.0655 0
M  V30 6229 H 596.12 3.95706 -0.152558 0
M  V30 6230 H 597.294 3.51686 -2.97748 0
M  V30 6231 H 595.609 3.27792 -2.56791 0
M  V30 6232 H 598.206 5.30559 -0.664166 0
M  V30 6233 H 598.549 4.12316 0.574592 0
M  V30 6234 H 599.082 3.82359 -1.09756 0
M  V30 6235 H 595.821 5.48109 -3.59523 0
M  V30 6236 H 595.341 5.69061 -1.8955 0
M  V30 6237 H 597.02 6.00958 -2.39706 0
M  V30 6238 N 597.152 0.631951 1.44375 0
M  V30 6239 C 598.399 0.136767 2.02038 0
M  V30 6240 C 598.727 -1.24168 1.49709 0
M  V30 6241 O 597.982 -1.83809 0.671763 0
M  V30 6242 C 598.281 0.0735861 3.57324 0
M  V30 6243 C 597.947 1.39092 4.28911 0
M  V30 6244 C 596.609 1.75171 4.48184 0
M  V30 6245 C 598.961 2.26042 4.69632 0
M  V30 6246 C 596.289 2.97907 5.05439 0
M  V30 6247 C 598.641 3.4805 5.28246 0
M  V30 6248 C 597.305 3.84351 5.45738 0
M  V30 6249 H 596.575 0.0500466 0.739308 0
M  V30 6250 H 599.222 0.818429 1.7313 0
M  V30 6251 H 597.527 -0.691449 3.8565 0
M  V30 6252 H 599.224 -0.326091 3.99672 0
M  V30 6253 H 595.814 1.10015 4.1424 0
M  V30 6254 H 599.998 1.99463 4.54454 0
M  V30 6255 H 595.254 3.26108 5.17169 0
M  V30 6256 H 599.428 4.15658 5.5875 0
M  V30 6257 H 597.055 4.79538 5.8987 0
M  V30 6258 N 598.631 -1.53133 0.372548 0
M  V30 6259 C 599.561 -2.28876 -0.462412 0
M  V30 6260 C 600.542 -1.31583 -1.07796 0
M  V30 6261 O 601.727 -1.60461 -1.09389 0
M  V30 6262 C 598.857 -3.08317 -1.59868 0
M  V30 6263 C 597.811 -4.13355 -1.11003 0
M  V30 6264 C 597.137 -4.8092 -2.33708 0
M  V30 6265 C 598.437 -5.21955 -0.18983 0
M  V30 6266 H 600.131 -2.9892 0.169511 0
M  V30 6267 H 597.677 -1.43761 0.0829658 0
M  V30 6268 H 599.63 -3.60055 -2.18949 0
M  V30 6269 H 598.354 -2.35976 -2.25794 0
M  V30 6270 H 597.013 -3.62573 -0.541869 0
M  V30 6271 H 596.661 -4.05144 -2.98106 0
M  V30 6272 H 596.361 -5.51904 -2.01682 0
M  V30 6273 H 597.885 -5.35455 -2.93462 0
M  V30 6274 H 599.299 -5.69153 -0.688319 0
M  V30 6275 H 597.696 -6.00087 0.0398887 0
M  V30 6276 H 598.766 -4.78811 0.766057 0
M  V30 6277 N 600.109 -0.101901 -1.5727 0
M  V30 6278 C 601.357 0.559091 -1.94213 0
M  V30 6279 C 601.678 1.68297 -0.984948 0
M  V30 6280 O 600.948 1.95863 -0.0381975 0
M  V30 6281 H 599.528 0.20952 -0.717015 0
M  V30 6282 H 602.19 -0.166831 -1.94185 0
M  V30 6283 H 601.286 0.96485 -2.96811 0
M  V30 6284 N 601.587 1.56661 0.17182 0
M  V30 6285 C 602.517 1.99401 1.21498 0
M  V30 6286 C 603.498 0.869516 1.46197 0
M  V30 6287 O 604.683 1.13556 1.57539 0
M  V30 6288 C 601.813 2.35346 2.55401 0
M  V30 6289 C 600.767 3.5075 2.45272 0
M  V30 6290 C 600.093 3.72437 3.8366 0
M  V30 6291 C 601.393 4.84216 1.95787 0
M  V30 6292 H 603.087 2.86792 0.859699 0
M  V30 6293 H 600.633 1.37977 0.412103 0
M  V30 6294 H 602.586 2.63843 3.2858 0
M  V30 6295 H 601.31 1.44864 2.92715 0
M  V30 6296 H 599.969 3.2238 1.74547 0
M  V30 6297 H 599.617 2.79246 4.18367 0
M  V30 6298 H 599.317 4.50087 3.77751 0
M  V30 6299 H 600.841 4.03334 4.58426 0
M  V30 6300 H 602.255 5.11592 2.5874 0
M  V30 6301 H 600.652 5.65498 2.00827 0
M  V30 6302 H 601.722 4.76243 0.912159 0
M  V30 6303 N 603.065 -0.440357 1.51323 0
M  V30 6304 C 604.342 -1.20109 1.5438 0
M  V30 6305 C 604.722 -2.08866 0.306303 0
M  V30 6306 O 604.07 -2.1723 -0.708773 0
M  V30 6307 C 604.28 -2.00555 2.8562 0
M  V30 6308 C 605.628 -2.577 3.37455 0
M  V30 6309 O 606.652 -2.10769 2.8715 0
M  V30 6310 O 605.511 -3.43289 4.25224 0
M  V30 6311 H 602.605 -0.546668 0.620551 0
M  V30 6312 H 605.151 -0.449672 1.63634 0
M  V30 6313 H 603.923 -1.35346 3.67147 0
M  V30 6314 H 603.546 -2.82768 2.79514 0
M  V30 6315 N 604.543 -1.41418 -0.695603 0
M  V30 6316 C 605.768 -1.44329 -1.48942 0
M  V30 6317 C 606.193 -0.0501579 -1.88033 0
M  V30 6318 O 605.551 0.946598 -1.54626 0
M  V30 6319 C 605.599 -2.3578 -2.72837 0
M  V30 6320 O 604.703 -1.81482 -3.70322 0
M  V30 6321 H 604.044 -0.489838 -0.44828 0
M  V30 6322 H 606.574 -1.85878 -0.855014 0
M  V30 6323 H 606.584 -2.51654 -3.21145 0
M  V30 6324 H 605.259 -3.37005 -2.43722 0
M  V30 6325 H 603.836 -1.75058 -3.29255 0
M  V30 6326 N 606.021 0.929856 -1.27246 0
M  V30 6327 C 606.953 2.03434 -1.0558 0
M  V30 6328 C 607.966 1.62795 -0.0125762 0
M  V30 6329 O 609.155 1.76685 -0.2539 0
M  V30 6330 C 606.255 3.33915 -0.57912 0
M  V30 6331 C 605.428 4.03259 -1.69415 0
M  V30 6332 C 604.487 5.12014 -1.21357 0
M  V30 6333 O 603.513 5.36097 -1.91282 0
M  V30 6334 N 604.715 5.8046 -0.0680622 0
M  V30 6335 H 607.48 2.22583 -2.00691 0
M  V30 6336 H 605.041 1.1001 -1.18783 0
M  V30 6337 H 607.033 4.03978 -0.241563 0
M  V30 6338 H 605.603 3.11355 0.278703 0
M  V30 6339 H 604.823 3.26958 -2.20209 0
M  V30 6340 H 606.111 4.46337 -2.44255 0
M  V30 6341 H 605.509 5.63345 0.515626 0
M  V30 6342 H 604.066 6.51461 0.210332 0
M  V30 6343 N 607.499 1.09233 1.13605 0
M  V30 6344 C 608.746 0.827159 1.84836 0
M  V30 6345 C 609.074 -0.647199 1.83416 0
M  V30 6346 O 608.329 -1.49228 1.26608 0
M  V30 6347 C 608.628 1.305 3.32723 0
M  V30 6348 C 608.294 2.78864 3.54325 0
M  V30 6349 C 606.956 3.19382 3.59928 0
M  V30 6350 C 609.308 3.74532 3.62457 0
M  V30 6351 C 606.636 4.54346 3.71196 0
M  V30 6352 C 608.988 5.09283 3.75252 0
M  V30 6353 C 607.652 5.49394 3.79108 0
M  V30 6354 H 606.922 0.302679 0.676363 0
M  V30 6355 H 609.569 1.36676 1.34134 0
M  V30 6356 H 607.874 0.68517 3.85762 0
M  V30 6357 H 609.571 1.07648 3.86281 0
M  V30 6358 H 606.161 2.46507 3.50617 0
M  V30 6359 H 610.345 3.44343 3.57409 0
M  V30 6360 H 605.601 4.84864 3.72447 0
M  V30 6361 H 609.775 5.83269 3.80487 0
M  V30 6362 H 607.402 6.5397 3.87591 0
M  V30 6363 N 608.977 -1.30795 0.87923 0
M  V30 6364 C 610.223 -1.96653 0.495519 0
M  V30 6365 C 610.556 -1.69282 -0.951703 0
M  V30 6366 O 609.831 -0.994374 -1.6716 0
M  V30 6367 C 610.114 -3.51898 0.764174 0
M  V30 6368 C 609.967 -3.88808 2.2616 0
M  V30 6369 C 611.286 -4.39462 0.236825 0
M  V30 6370 H 608.405 -0.7143 0.181507 0
M  V30 6371 H 611.047 -1.54765 1.10217 0
M  V30 6372 H 609.197 -3.87709 0.247841 0
M  V30 6373 H 610.869 -3.63051 2.8459 0
M  V30 6374 H 609.112 -3.37082 2.73053 0
M  V30 6375 H 609.783 -4.97086 2.4002 0
M  V30 6376 H 612.259 -4.10528 0.678683 0
M  V30 6377 H 611.135 -5.47018 0.454176 0
M  V30 6378 H 611.396 -4.33621 -0.861683 0
M  V30 6379 N 610.455 -0.639598 -1.44038 0
M  V30 6380 C 611.695 -0.150902 -2.03842 0
M  V30 6381 C 612.059 1.20744 -1.49281 0
M  V30 6382 O 613.26 1.78875 -2.00642 0
M  V30 6383 C 611.531 -0.146114 -3.57101 0
M  V30 6384 S 613.09 0.276725 -4.37927 0
M  V30 6385 H 609.908 -0.0652447 -0.708 0
M  V30 6386 H 612.51 -0.844886 -1.76301 0
M  V30 6387 H 611.214 -1.13769 -3.94316 0
M  V30 6388 H 610.745 0.568846 -3.89266 0
M  V30 6389 H 612.76 1.51893 -4.7238 0
M  V30 6390 N 611.933 1.52934 -0.380664 0
M  V30 6391 C 613.179 2.01765 0.20458 0
M  V30 6392 C 613.512 1.26696 1.47179 0
M  V30 6393 O 612.787 0.364936 1.91046 0
M  V30 6394 C 613.07 3.56869 0.481269 0
M  V30 6395 C 612.923 4.42617 -0.800629 0
M  V30 6396 C 614.242 4.2121 1.27554 0
M  V30 6397 H 611.361 0.733388 0.0728803 0
M  V30 6398 H 614.003 1.83068 -0.50853 0
M  V30 6399 H 612.153 3.72932 1.08875 0
M  V30 6400 H 613.825 4.38323 -1.43773 0
M  V30 6401 H 612.068 4.09977 -1.4178 0
M  V30 6402 H 612.739 5.49134 -0.561791 0
M  V30 6403 H 615.215 4.09072 0.761514 0
M  V30 6404 H 614.091 5.29732 1.43788 0
M  V30 6405 H 614.352 3.78269 2.28833 0
M  V30 6406 N 613.412 0.11024 1.57214 0
M  V30 6407 C 614.322 -0.857077 2.18383 0
M  V30 6408 C 615.338 -1.29915 1.1575 0
M  V30 6409 O 616.514 -1.36394 1.48184 0
M  V30 6410 C 613.579 -2.09264 2.76423 0
M  V30 6411 C 612.64 -1.70333 3.94063 0
M  V30 6412 C 611.873 -2.87999 4.49324 0
M  V30 6413 O 612.096 -4.0317 4.03497 0
M  V30 6414 O 611.03 -2.6559 5.40135 0
M  V30 6415 H 614.856 -0.366561 3.0148 0
M  V30 6416 H 612.441 -0.114914 1.48957 0
M  V30 6417 H 614.323 -2.81644 3.13456 0
M  V30 6418 H 612.998 -2.57339 1.96363 0
M  V30 6419 H 611.905 -0.950864 3.61814 0
M  V30 6420 H 613.238 -1.27007 4.75531 0
M  V30 6421 N 614.89 -1.56749 -0.16351 0
M  V30 6422 C 616.115 -1.86938 -0.898264 0
M  V30 6423 C 616.54 -0.697456 -1.74692 0
M  V30 6424 O 615.898 0.353327 -1.77824 0
M  V30 6425 C 615.946 -3.15599 -1.74441 0
M  V30 6426 O 615.05 -2.98371 -2.8469 0
M  V30 6427 H 614.391 -0.614659 -0.251178 0
M  V30 6428 H 616.921 -2.03979 -0.159298 0
M  V30 6429 H 616.931 -3.47202 -2.14277 0
M  V30 6430 H 615.606 -4.00505 -1.1211 0
M  V30 6431 H 614.183 -2.7814 -2.4838 0
M  V30 6432 N 616.368 0.432326 -1.51554 0
M  V30 6433 C 617.298 1.53242 -1.76179 0
M  V30 6434 C 618.279 1.58717 -0.611801 0
M  V30 6435 O 619.464 1.74364 -0.855033 0
M  V30 6436 C 616.594 2.91278 -1.89141 0
M  V30 6437 C 615.548 3.00663 -3.04608 0
M  V30 6438 C 614.874 4.40728 -3.02759 0
M  V30 6439 C 616.174 2.74281 -4.44485 0
M  V30 6440 H 617.868 1.32886 -2.68294 0
M  V30 6441 H 615.414 0.637841 -1.29103 0
M  V30 6442 H 617.367 3.68203 -2.04951 0
M  V30 6443 H 616.091 3.12877 -0.936785 0
M  V30 6444 H 614.75 2.26179 -2.88511 0
M  V30 6445 H 614.398 4.59301 -2.05065 0
M  V30 6446 H 614.098 4.47936 -3.80299 0
M  V30 6447 H 615.622 5.19619 -3.20669 0
M  V30 6448 H 617.036 3.40936 -4.60907 0
M  V30 6449 H 615.433 2.92893 -5.23769 0
M  V30 6450 H 616.503 1.69856 -4.54177 0
M  V30 6451 N 617.846 1.41785 0.688094 0
M  V30 6452 C 619.092 1.41753 1.4503 0
M  V30 6453 C 619.425 0.0290745 1.94178 0
M  V30 6454 O 618.7 -0.944456 1.7003 0
M  V30 6455 C 618.983 2.43069 2.65686 0
M  V30 6456 C 618.836 3.91053 2.22256 0
M  V30 6457 C 620.155 2.41543 3.67893 0
M  V30 6458 H 617.274 0.516202 0.526027 0
M  V30 6459 H 619.916 1.73111 0.783105 0
M  V30 6460 H 618.066 2.1646 3.2261 0
M  V30 6461 H 619.738 4.28594 1.70602 0
M  V30 6462 H 617.981 4.05559 1.53963 0
M  V30 6463 H 618.652 4.57501 3.08863 0
M  V30 6464 H 621.128 2.65175 3.20658 0
M  V30 6465 H 620.004 3.14434 4.49914 0
M  V30 6466 H 620.265 1.43666 4.18106 0
M  V30 6467 N 619.324 -0.923095 1.27737 0
M  V30 6468 C 620.552 -1.70525 1.17171 0
M  V30 6469 C 620.967 -1.86847 -0.270881 0
M  V30 6470 O 620.324 -1.38879 -1.18401 0
M  V30 6471 C 620.375 -3.10242 1.85559 0
M  V30 6472 O 620.096 -2.94683 3.24182 0
M  V30 6473 C 621.597 -4.04586 1.81176 0
M  V30 6474 H 618.817 -0.533347 0.407163 0
M  V30 6475 H 621.361 -1.15599 1.68692 0
M  V30 6476 H 619.516 -3.62014 1.3793 0
M  V30 6477 H 619.93 -3.83045 3.58297 0
M  V30 6478 H 621.404 -5.00119 2.33633 0
M  V30 6479 H 621.881 -4.3218 0.782099 0
M  V30 6480 H 622.487 -3.58741 2.2844 0
M  V30 6481 N 620.802 -1.09834 -1.13024 0
M  V30 6482 C 621.765 -0.745058 -2.16752 0
M  V30 6483 C 622.765 0.227435 -1.59183 0
M  V30 6484 O 623.955 0.0050786 -1.74199 0
M  V30 6485 C 621.087 -0.102543 -3.40746 0
M  V30 6486 H 622.28 -1.66375 -2.49518 0
M  V30 6487 H 619.833 -0.898061 -1.27924 0
M  V30 6488 H 620.568 0.827177 -3.13573 0
M  V30 6489 H 620.353 -0.80235 -3.83803 0
M  V30 6490 H 621.843 0.129082 -4.174 0
M  V30 6491 N 622.28 1.30327 -0.886154 0
M  V30 6492 C 623.526 1.96388 -0.505941 0
M  V30 6493 C 623.859 1.69784 0.942712 0
M  V30 6494 O 623.134 1.00322 1.6663 0
M  V30 6495 C 623.417 3.51488 -0.782826 0
M  V30 6496 C 623.27 3.87603 -2.28219 0
M  V30 6497 C 624.589 4.39331 -0.260128 0
M  V30 6498 H 621.708 0.713327 -0.185292 0
M  V30 6499 H 624.35 1.54178 -1.11036 0
M  V30 6500 H 622.5 3.87572 -0.268399 0
M  V30 6501 H 624.172 3.61537 -2.86512 0
M  V30 6502 H 622.415 3.3563 -2.74837 0
M  V30 6503 H 623.086 4.95806 -2.42653 0
M  V30 6504 H 625.562 4.10162 -0.700444 0
M  V30 6505 H 624.438 5.46769 -0.483179 0
M  V30 6506 H 624.699 4.34072 0.838674 0
M  V30 6507 N 623.758 0.647228 1.43697 0
M  V30 6508 C 625.004 0.158422 2.0218 0
M  V30 6509 C 625.337 -1.22233 1.50907 0
M  V30 6510 O 624.612 -1.81478 0.699702 0
M  V30 6511 C 624.895 0.1627 3.59732 0
M  V30 6512 C 624.748 1.57694 4.21251 0
M  V30 6513 C 626.067 -0.504138 4.37203 0
M  V30 6514 H 623.186 0.059042 0.734631 0
M  V30 6515 H 625.828 0.826772 1.71069 0
M  V30 6516 H 623.978 -0.406414 3.86368 0
M  V30 6517 H 625.65 2.19618 4.05667 0
M  V30 6518 H 623.893 2.12603 3.7813 0
M  V30 6519 H 624.564 1.53183 5.3032 0
M  V30 6520 H 627.04 -0.0199841 4.16095 0
M  V30 6521 H 625.916 -0.470394 5.46881 0
M  V30 6522 H 626.177 -1.57726 4.13007 0
M  V30 6523 N 625.236 -1.5273 0.388769 0
M  V30 6524 C 626.513 -1.93981 -0.251133 0
M  V30 6525 C 626.893 -1.32418 -1.64404 0
M  V30 6526 O 626.241 -0.492074 -2.23139 0
M  V30 6527 C 626.451 -3.47891 -0.27802 0
M  V30 6528 C 627.799 -4.21559 -0.507229 0
M  V30 6529 O 628.823 -3.54394 -0.358252 0
M  V30 6530 O 627.682 -5.40626 -0.799094 0
M  V30 6531 H 624.776 -0.812157 -0.15598 0
M  V30 6532 H 627.322 -1.63809 0.443237 0
M  V30 6533 H 626.094 -3.8503 0.697669 0
M  V30 6534 H 625.717 -3.84364 -1.01733 0
M  V30 6535 N 626.714 -0.118576 -1.57153 0
M  V30 6536 C 627.647 0.869046 -2.11004 0
M  V30 6537 C 628.625 1.26115 -1.02634 0
M  V30 6538 O 629.809 1.36228 -1.30285 0
M  V30 6539 C 626.936 2.16297 -2.6064 0
M  V30 6540 C 625.982 1.91896 -3.80891 0
M  V30 6541 S 626.815 1.13562 -5.2332 0
M  V30 6542 C 627.971 2.44135 -5.76324 0
M  V30 6543 H 628.204 0.411005 -2.94445 0
M  V30 6544 H 625.737 0.0951891 -1.54106 0
M  V30 6545 H 627.695 2.90642 -2.89892 0
M  V30 6546 H 626.356 2.59219 -1.77382 0
M  V30 6547 H 625.549 2.8777 -4.13768 0
M  V30 6548 H 625.151 1.25672 -3.52253 0
M  V30 6549 H 627.443 3.39976 -5.86022 0
M  V30 6550 H 628.386 2.15803 -6.74414 0
M  V30 6551 H 628.794 2.53483 -5.04387 0
M  V30 6552 N 628.193 1.56834 0.155195 0
M  V30 6553 C 629.423 1.86778 0.883044 0
M  V30 6554 C 629.831 0.703824 1.75622 0
M  V30 6555 O 629.174 -0.33581 1.80605 0
M  V30 6556 C 629.236 3.1133 1.79761 0
M  V30 6557 C 628.9 4.43504 1.10242 0
M  V30 6558 C 629.897 5.17859 0.460204 0
M  V30 6559 C 627.582 4.90233 1.09437 0
M  V30 6560 C 629.576 6.37144 -0.180782 0
M  V30 6561 C 627.263 6.09444 0.449569 0
M  V30 6562 C 628.261 6.82744 -0.186888 0
M  V30 6563 O 627.949 7.99692 -0.821486 0
M  V30 6564 H 627.681 0.62352 0.261149 0
M  V30 6565 H 630.235 2.04813 0.155204 0
M  V30 6566 H 628.465 2.89282 2.56618 0
M  V30 6567 H 630.154 3.27587 2.39669 0
M  V30 6568 H 630.92 4.8283 0.458289 0
M  V30 6569 H 626.799 4.33109 1.57917 0
M  V30 6570 H 630.343 6.94296 -0.678154 0
M  V30 6571 H 626.24 6.43936 0.449123 0
M  V30 6572 H 627.008 8.15306 -0.722337 0
M  V30 6573 N 629.671 -0.424282 1.51781 0
M  V30 6574 C 631.082 -1.00368 1.57427 0
M  V30 6575 C 631.433 -1.91962 0.40558 0
M  V30 6576 O 630.558 -2.111 -0.47601 0
M  V30 6577 C 631.153 -1.82707 2.85313 0
M  V30 6578 C 629.712 -2.35675 2.93487 0
M  V30 6579 C 628.859 -1.1524 2.5222 0
M  V30 6580 H 631.81 -0.205064 1.5737 0
M  V30 6581 H 631.831 -2.68294 2.69812 0
M  V30 6582 H 631.343 -1.16017 3.70353 0
M  V30 6583 H 629.444 -3.05781 2.12906 0
M  V30 6584 H 629.557 -2.67578 3.97415 0
M  V30 6585 H 627.921 -1.50174 2.05718 0
M  V30 6586 H 628.704 -0.5014 3.39619 0
M  V30 6587 N 631.149 -1.42148 -0.680565 0
M  V30 6588 C 632.096 -1.45175 -1.79424 0
M  V30 6589 C 633.066 -0.304352 -1.63288 0
M  V30 6590 O 634.251 -0.507591 -1.83924 0
M  V30 6591 C 631.391 -1.35429 -3.17416 0
M  V30 6592 C 630.504 -2.60158 -3.4488 0
M  V30 6593 C 629.639 -2.42596 -4.72568 0
M  V30 6594 C 628.678 -3.62727 -4.93047 0
M  V30 6595 N 627.815 -3.44143 -6.11973 0
M  V30 6596 H 632.655 -2.40349 -1.76172 0
M  V30 6597 H 630.192 -1.19334 -0.860107 0
M  V30 6598 H 632.15 -1.27777 -3.97151 0
M  V30 6599 H 630.78 -0.438536 -3.19807 0
M  V30 6600 H 629.832 -2.78199 -2.5944 0
M  V30 6601 H 631.144 -3.49473 -3.55908 0
M  V30 6602 H 630.298 -2.32497 -5.60384 0
M  V30 6603 H 629.037 -1.50761 -4.63813 0
M  V30 6604 H 628.042 -3.73264 -4.03676 0
M  V30 6605 H 629.267 -4.55534 -5.03652 0
M  V30 6606 H 627.213 -2.5502 -6.04401 0
M  V30 6607 H 627.13 -4.27041 -6.23836 0
M  V30 6608 H 628.398 -3.37845 -7.02482 0
M  V30 6609 N 632.627 0.916307 -1.28225 0
M  V30 6610 C 633.873 1.66765 -1.154 0
M  V30 6611 C 634.206 1.91912 0.297251 0
M  V30 6612 O 633.481 1.51766 1.21644 0
M  V30 6613 C 633.764 3.02715 -1.95028 0
M  V30 6614 C 633.617 2.84738 -3.48201 0
M  V30 6615 C 634.936 4.03215 -1.76369 0
M  V30 6616 H 632.055 0.605205 -0.42059 0
M  V30 6617 H 634.697 1.06255 -1.57512 0
M  V30 6618 H 632.847 3.54365 -1.59242 0
M  V30 6619 H 634.519 2.40118 -3.9388 0
M  V30 6620 H 632.762 2.19848 -3.73964 0
M  V30 6621 H 633.433 3.8127 -3.99171 0
M  V30 6622 H 635.909 3.60617 -2.07593 0
M  V30 6623 H 634.785 4.96306 -2.34459 0
M  V30 6624 H 635.046 4.36288 -0.71452 0
M  V30 6625 N 634.105 1.10431 1.1244 0
M  V30 6626 C 635.352 0.846717 1.83948 0
M  V30 6627 C 635.68 -0.627709 1.84093 0
M  V30 6628 O 634.935 -1.47876 1.28184 0
M  V30 6629 C 635.234 1.34022 3.3132 0
M  V30 6630 C 634.9 2.82606 3.51347 0
M  V30 6631 C 633.562 3.23182 3.56521 0
M  V30 6632 C 635.914 3.78356 3.58464 0
M  V30 6633 C 633.242 4.58258 3.66356 0
M  V30 6634 C 635.594 5.13234 3.69829 0
M  V30 6635 C 634.258 5.53384 3.73259 0
M  V30 6636 H 633.528 0.309836 0.673114 0
M  V30 6637 H 636.175 1.38091 1.32677 0
M  V30 6638 H 634.48 0.726047 3.85014 0
M  V30 6639 H 636.177 1.11739 3.85118 0
M  V30 6640 H 632.767 2.50212 3.47983 0
M  V30 6641 H 636.951 3.48115 3.53737 0
M  V30 6642 H 632.207 4.88787 3.67284 0
M  V30 6643 H 636.381 5.87272 3.74279 0
M  V30 6644 H 634.008 6.58045 3.80633 0
M  V30 6645 N 635.583 -1.29855 0.893053 0
M  V30 6646 C 636.999 -1.48366 0.588199 0
M  V30 6647 C 637.199 -1.81654 -0.872018 0
M  V30 6648 O 636.255 -1.909 -1.65268 0
M  V30 6649 C 637.568 -2.60136 1.5083 0
M  V30 6650 C 639.116 -2.74014 1.51279 0
M  V30 6651 C 639.591 -3.88905 2.41902 0
M  V30 6652 N 641.082 -3.96228 2.39911 0
M  V30 6653 C 641.817 -4.84458 3.06738 0
M  V30 6654 N 641.313 -5.77426 3.8282 0
M  V30 6655 N 643.106 -4.77894 2.95929 0
M  V30 6656 H 635.257 -1.06522 1.83757 0
M  V30 6657 H 637.52 -0.528495 0.787018 0
M  V30 6658 H 637.226 -2.42383 2.54839 0
M  V30 6659 H 637.1 -3.56793 1.22388 0
M  V30 6660 H 639.487 -2.91167 0.480179 0
M  V30 6661 H 639.568 -1.77952 1.83757 0
M  V30 6662 H 639.212 -3.72508 3.45253 0
M  V30 6663 H 639.142 -4.84322 2.06737 0
M  V30 6664 H 641.633 -3.29728 1.84629 0
M  V30 6665 H 641.946 -6.41529 4.30883 0
M  V30 6666 H 640.291 -5.77332 3.86927 0
M  V30 6667 H 643.482 -4.04248 2.36012 0
M  V30 6668 H 643.655 -5.46444 3.48286 0
M  V30 6669 N 637.061 -0.65484 -1.43351 0
M  V30 6670 C 638.477 -0.32255 -1.56307 0
M  V30 6671 C 638.677 1.17324 -1.63821 0
M  V30 6672 O 637.733 1.95813 -1.59417 0
M  V30 6673 C 639.046 -1.03533 -2.82314 0
M  V30 6674 C 640.594 -1.01574 -2.9606 0
M  V30 6675 C 641.069 -1.70945 -4.24902 0
M  V30 6676 N 642.56 -1.67716 -4.3177 0
M  V30 6677 C 643.295 -2.18265 -5.30234 0
M  V30 6678 N 642.791 -2.7711 -6.34966 0
M  V30 6679 N 644.584 -2.08756 -5.21898 0
M  V30 6680 H 636.735 -1.62549 -1.36717 0
M  V30 6681 H 638.998 -0.683676 -0.656727 0
M  V30 6682 H 638.704 -2.09045 -2.8283 0
M  V30 6683 H 638.578 -0.587913 -3.7259 0
M  V30 6684 H 640.965 0.0309834 -2.95084 0
M  V30 6685 H 641.046 -1.50186 -2.07069 0
M  V30 6686 H 640.69 -2.75574 -4.26639 0
M  V30 6687 H 640.62 -1.19797 -5.12793 0
M  V30 6688 H 643.111 -1.24777 -3.56706 0
M  V30 6689 H 643.424 -3.13353 -7.06421 0
M  V30 6690 H 641.769 -2.81171 -6.35585 0
M  V30 6691 H 644.96 -1.62488 -4.38994 0
M  V30 6692 H 645.133 -2.48459 -5.98475 0
M  V30 6693 N 638.539 1.52521 -0.396863 0
M  V30 6694 C 639.787 2.01274 0.182536 0
M  V30 6695 C 640.108 1.28485 1.46685 0
M  V30 6696 O 639.378 0.407134 1.91623 0
M  V30 6697 H 637.958 0.743671 0.0704442 0
M  V30 6698 H 640.62 1.87547 -0.530289 0
M  V30 6699 H 639.716 3.09687 0.387385 0
M  V30 6700 N 640.017 0.126909 1.57088 0
M  V30 6701 C 641.247 -0.535892 1.99529 0
M  V30 6702 C 641.655 -1.60259 1.00566 0
M  V30 6703 O 640.998 -1.83698 -0.00843269 0
M  V30 6704 C 641.06 -1.21374 3.38391 0
M  V30 6705 C 640.724 -0.294044 4.56053 0
M  V30 6706 C 641.721 0.470454 5.17767 0
M  V30 6707 C 639.406 -0.202808 5.0189 0
M  V30 6708 C 641.4 1.31384 6.23712 0
M  V30 6709 C 639.087 0.644203 6.07695 0
M  V30 6710 C 640.085 1.40115 6.68473 0
M  V30 6711 O 639.773 2.23408 7.72233 0
M  V30 6712 H 639.505 -0.145799 0.66009 0
M  V30 6713 H 642.059 0.212441 2.04298 0
M  V30 6714 H 640.289 -2.00931 3.30399 0
M  V30 6715 H 641.978 -1.77424 3.65069 0
M  V30 6716 H 642.744 0.409884 4.83265 0
M  V30 6717 H 638.623 -0.781688 4.54324 0
M  V30 6718 H 642.167 1.90514 6.71081 0
M  V30 6719 H 638.064 0.706137 6.41626 0
M  V30 6720 H 638.832 2.16436 7.89365 0
M  V30 6721 N 641.495 -1.56914 -0.146875 0
M  V30 6722 C 642.911 -1.51582 -0.499518 0
M  V30 6723 C 643.111 -0.83535 -1.83369 0
M  V30 6724 O 642.167 -0.405932 -2.49216 0
M  V30 6725 C 643.48 -2.96349 -0.509711 0
M  V30 6726 C 645.028 -3.07288 -0.595217 0
M  V30 6727 C 645.503 -4.53562 -0.636071 0
M  V30 6728 N 646.994 -4.57906 -0.69829 0
M  V30 6729 C 647.729 -5.68462 -0.750886 0
M  V30 6730 N 647.225 -6.88588 -0.76282 0
M  V30 6731 N 649.018 -5.56496 -0.791777 0
M  V30 6732 H 641.169 -1.99547 0.727656 0
M  V30 6733 H 643.432 -0.910113 0.265327 0
M  V30 6734 H 643.138 -3.4939 0.402409 0
M  V30 6735 H 643.012 -3.52307 -1.34758 0
M  V30 6736 H 645.399 -2.54266 -1.49776 0
M  V30 6737 H 645.48 -2.54373 0.2698 0
M  V30 6738 H 645.124 -5.07222 0.262313 0
M  V30 6739 H 645.054 -5.04259 -1.51758 0
M  V30 6740 H 647.545 -3.71429 -0.696362 0
M  V30 6741 H 647.858 -7.68598 -0.804804 0
M  V30 6742 H 646.203 -6.91148 -0.730694 0
M  V30 6743 H 649.394 -4.61562 -0.779624 0
M  V30 6744 H 649.567 -6.42671 -0.829301 0
M  V30 6745 N 642.974 0.416227 -1.52004 0
M  V30 6746 C 644.39 0.754319 -1.40649 0
M  V30 6747 C 644.59 1.95059 -0.505392 0
M  V30 6748 O 643.646 2.5248 0.0315057 0
M  V30 6749 C 644.959 1.0149 -2.83055 0
M  V30 6750 C 646.507 1.11805 -2.9235 0
M  V30 6751 C 646.982 1.41144 -4.35709 0
M  V30 6752 N 648.473 1.48024 -4.38911 0
M  V30 6753 C 649.208 1.72338 -5.46889 0
M  V30 6754 N 648.704 1.94303 -6.64995 0
M  V30 6755 N 650.497 1.74294 -5.34395 0
M  V30 6756 H 642.648 -0.371324 -2.09129 0
M  V30 6757 H 644.911 -0.103811 -0.942299 0
M  V30 6758 H 644.617 0.208345 -3.51082 0
M  V30 6759 H 644.491 1.93697 -3.23668 0
M  V30 6760 H 646.878 1.91521 -2.24508 0
M  V30 6761 H 646.959 0.17451 -2.55204 0
M  V30 6762 H 646.603 0.619484 -5.04108 0
M  V30 6763 H 646.533 2.36739 -4.70385 0
M  V30 6764 H 649.024 1.32868 -3.53772 0
M  V30 6765 H 649.337 2.12286 -7.43071 0
M  V30 6766 H 647.682 1.91582 -6.68073 0
M  V30 6767 H 650.873 1.56667 -4.41104 0
M  V30 6768 H 651.046 1.92904 -6.18621 0
M  V30 6769 N 644.452 1.42507 0.673017 0
M  V30 6770 C 645.362 1.4853 1.81593 0
M  V30 6771 C 646.378 0.373907 1.69935 0
M  V30 6772 O 647.554 0.625078 1.91454 0
M  V30 6773 C 644.619 1.387 3.17747 0
M  V30 6774 C 643.68 2.60346 3.41348 0
M  V30 6775 C 642.913 2.50975 4.71007 0
M  V30 6776 O 643.136 1.54659 5.49033 0
M  V30 6777 O 642.07 3.41138 4.95892 0
M  V30 6778 H 645.896 2.45001 1.79467 0
M  V30 6779 H 643.481 1.2429 0.82899 0
M  V30 6780 H 645.363 1.35586 3.98992 0
M  V30 6781 H 644.038 0.453555 3.20507 0
M  V30 6782 H 642.945 2.69034 2.59945 0
M  V30 6783 H 644.278 3.52595 3.43421 0
M  V30 6784 N 645.93 -0.909495 1.28709 0
M  V30 6785 C 646.86 -2.0291 1.15542 0
M  V30 6786 C 647.841 -1.7002 0.0521017 0
M  V30 6787 O 649.026 -1.92835 0.229849 0
M  V30 6788 C 646.156 -3.37458 0.820935 0
M  V30 6789 C 645.11 -3.84524 1.87949 0
M  V30 6790 C 644.436 -5.16086 1.39854 0
M  V30 6791 C 645.736 -4.05918 3.28676 0
M  V30 6792 H 647.43 -2.14183 2.09203 0
M  V30 6793 H 644.976 -1.02913 1.00722 0
M  V30 6794 H 646.929 -4.1528 0.715571 0
M  V30 6795 H 645.653 -3.26249 -0.151374 0
M  V30 6796 H 644.312 -3.08911 1.97408 0
M  V30 6797 H 643.96 -5.01284 0.41518 0
M  V30 6798 H 643.66 -5.48547 2.1064 0
M  V30 6799 H 645.184 -5.96459 1.30649 0
M  V30 6800 H 646.598 -4.74252 3.22115 0
M  V30 6801 H 644.995 -4.49717 3.97334 0
M  V30 6802 H 646.065 -3.10583 3.72379 0
M  V30 6803 N 647.408 -1.11026 -1.11852 0
M  V30 6804 C 648.338 -0.786812 -2.19844 0
M  V30 6805 C 649.319 0.242935 -1.68356 0
M  V30 6806 O 650.504 0.107355 -1.93903 0
M  V30 6807 C 647.634 -0.224516 -3.46574 0
M  V30 6808 C 646.588 -1.18564 -4.1125 0
M  V30 6809 C 645.914 -0.484261 -5.32503 0
M  V30 6810 C 647.214 -2.53465 -4.56676 0
M  V30 6811 H 648.908 -1.68978 -2.47158 0
M  V30 6812 H 646.454 -0.813906 -1.18792 0
M  V30 6813 H 648.407 0.0139435 -4.21398 0
M  V30 6814 H 647.131 0.713722 -3.18706 0
M  V30 6815 H 645.79 -1.40966 -3.38414 0
M  V30 6816 H 645.438 0.458646 -5.00905 0
M  V30 6817 H 645.138 -1.12526 -5.76725 0
M  V30 6818 H 646.662 -0.254492 -6.10069 0
M  V30 6819 H 648.076 -2.35177 -5.22843 0
M  V30 6820 H 646.473 -3.13507 -5.11697 0
M  V30 6821 H 647.543 -3.13008 -3.70343 0
M  V30 6822 N 648.886 1.2938 -0.899927 0
M  V30 6823 C 650.135 1.9483 -0.521937 0
M  V30 6824 C 650.448 1.71725 0.936473 0
M  V30 6825 O 651.654 2.31282 1.42199 0
M  V30 6826 C 650.11 3.48911 -0.88255 0
M  V30 6827 C 649.718 3.80815 -2.35974 0
M  V30 6828 C 651.462 4.20595 -0.57448 0
M  V30 6829 C 649.369 5.28142 -2.66121 0
M  V30 6830 H 648.299 0.729285 -0.191468 0
M  V30 6831 H 650.95 1.47103 -1.09695 0
M  V30 6832 H 649.332 3.95293 -0.236459 0
M  V30 6833 H 650.506 3.45291 -3.05141 0
M  V30 6834 H 648.821 3.22271 -2.63686 0
M  V30 6835 H 651.418 5.29031 -0.776556 0
M  V30 6836 H 651.761 4.13442 0.487005 0
M  V30 6837 H 652.294 3.79945 -1.17842 0
M  V30 6838 H 649.033 5.4036 -3.71068 0
M  V30 6839 H 648.553 5.64913 -2.01578 0
M  V30 6840 H 650.232 5.95738 -2.52399 0
M  V30 6841 N 650.364 0.662433 1.43002 0
M  V30 6842 C 651.294 -0.00979809 2.33498 0
M  V30 6843 C 652.275 -0.802329 1.49989 0
M  V30 6844 O 653.46 -0.761964 1.78627 0
M  V30 6845 C 650.59 -0.970446 3.33466 0
M  V30 6846 C 649.544 -0.287383 4.27034 0
M  V30 6847 C 648.87 -1.36012 5.17112 0
M  V30 6848 C 650.17 0.82595 5.15728 0
M  V30 6849 H 651.864 0.745959 2.89958 0
M  V30 6850 H 649.41 0.360172 1.39423 0
M  V30 6851 H 651.363 -1.44971 3.95679 0
M  V30 6852 H 650.087 -1.75748 2.75282 0
M  V30 6853 H 648.746 0.17152 3.66199 0
M  V30 6854 H 648.394 -2.13882 4.55262 0
M  V30 6855 H 648.094 -0.908276 5.80538 0
M  V30 6856 H 649.618 -1.84056 5.82199 0
M  V30 6857 H 651.032 0.42845 5.71697 0
M  V30 6858 H 649.429 1.20282 5.87922 0
M  V30 6859 H 650.499 1.68003 4.54866 0
M  V30 6860 N 651.842 -1.52309 0.404946 0
M  V30 6861 C 652.805 -2.25491 -0.410651 0
M  V30 6862 C 653.805 -1.27704 -0.977154 0
M  V30 6863 O 654.995 -1.51679 -0.856691 0
M  V30 6864 C 652.127 -3.02197 -1.57765 0
M  V30 6865 H 653.32 -2.99015 0.230277 0
M  V30 6866 H 650.873 -1.55506 0.157377 0
M  V30 6867 H 651.608 -2.33013 -2.25556 0
M  V30 6868 H 651.393 -3.73987 -1.17797 0
M  V30 6869 H 652.883 -3.57719 -2.15469 0
M  V30 6870 N 653.32 -0.135238 -1.57019 0
M  V30 6871 C 654.25 0.805235 -2.19176 0
M  V30 6872 C 655.231 1.2656 -1.13651 0
M  V30 6873 O 656.416 1.32528 -1.4195 0
M  V30 6874 C 653.546 2.04914 -2.80406 0
M  V30 6875 C 652.5 1.72598 -3.91655 0
M  V30 6876 C 651.826 3.04154 -4.39766 0
M  V30 6877 C 653.126 0.981709 -5.12991 0
M  V30 6878 H 654.82 0.287232 -2.98019 0
M  V30 6879 H 652.366 0.136714 -1.4335 0
M  V30 6880 H 654.319 2.71178 -3.22553 0
M  V30 6881 H 653.043 2.59067 -1.98877 0
M  V30 6882 H 651.702 1.08717 -3.50109 0
M  V30 6883 H 651.35 3.56274 -3.55075 0
M  V30 6884 H 651.05 2.83299 -5.14796 0
M  V30 6885 H 652.574 3.71509 -4.84576 0
M  V30 6886 H 653.988 1.5462 -5.52056 0
M  V30 6887 H 652.385 0.873533 -5.93708 0
M  V30 6888 H 653.455 -0.0286887 -4.84892 0
M  V30 6889 N 654.798 1.5699 0.138552 0
M  V30 6890 C 656.023 1.88344 0.86841 0
M  V30 6891 C 656.448 0.725159 1.7356 0
M  V30 6892 O 655.806 -0.324992 1.78363 0
M  V30 6893 C 655.854 3.18334 1.69398 0
M  V30 6894 O 654.958 3.02863 2.79907 0
M  V30 6895 H 654.299 0.618577 0.241367 0
M  V30 6896 H 656.829 2.04207 0.126826 0
M  V30 6897 H 656.839 3.50567 2.08726 0
M  V30 6898 H 655.514 4.02238 1.05725 0
M  V30 6899 H 654.091 2.82056 2.43924 0
M  V30 6900 N 656.276 -0.40816 1.52223 0
M  V30 6901 C 657.522 -1.15673 1.66576 0
M  V30 6902 C 657.855 -1.90141 0.394996 0
M  V30 6903 O 657.13 -1.84798 -0.606613 0
M  V30 6904 C 657.413 -2.15042 2.88841 0
M  V30 6905 C 657.266 -1.44465 4.25969 0
M  V30 6906 C 658.585 -3.15699 3.0663 0
M  V30 6907 H 655.704 -0.41916 0.606196 0
M  V30 6908 H 658.346 -0.442348 1.84779 0
M  V30 6909 H 656.496 -2.75964 2.73452 0
M  V30 6910 H 658.168 -0.866544 4.53088 0
M  V30 6911 H 656.411 -0.746612 4.27327 0
M  V30 6912 H 657.082 -2.16976 5.07568 0
M  V30 6913 H 659.558 -2.64854 3.20923 0
M  V30 6914 H 658.434 -3.82491 3.9369 0
M  V30 6915 H 658.695 -3.83481 2.19987 0
M  V30 6916 N 657.755 -1.42862 -0.66545 0
M  V30 6917 C 659.004 -1.43119 -1.42126 0
M  V30 6918 C 659.317 -0.0545297 -1.95524 0
M  V30 6919 O 660.523 0.0654747 -2.71421 0
M  V30 6920 C 658.979 -2.51797 -2.5715 0
M  V30 6921 C 658.587 -3.95514 -2.10411 0
M  V30 6922 C 660.331 -2.61233 -3.346 0
M  V30 6923 C 658.238 -4.95682 -3.22573 0
M  V30 6924 H 657.168 -0.532349 -0.533966 0
M  V30 6925 H 659.819 -1.68806 -0.719506 0
M  V30 6926 H 658.201 -2.19292 -3.29738 0
M  V30 6927 H 659.375 -4.3742 -1.44915 0
M  V30 6928 H 657.69 -3.90012 -1.45874 0
M  V30 6929 H 660.287 -3.33248 -4.18151 0
M  V30 6930 H 660.63 -1.65896 -3.81817 0
M  V30 6931 H 661.163 -2.9298 -2.69087 0
M  V30 6932 H 657.902 -5.92529 -2.80338 0
M  V30 6933 H 657.422 -4.58399 -3.86821 0
M  V30 6934 H 659.101 -5.17828 -3.87896 0
M  V30 6935 N 659.233 0.902656 -1.29189 0
M  V30 6936 C 660.458 1.69167 -1.19989 0
M  V30 6937 C 660.883 1.86607 0.236495 0
M  V30 6938 O 660.241 1.38425 1.17082 0
M  V30 6939 C 660.289 3.05532 -1.91527 0
M  V30 6940 O 659.393 3.93621 -1.2303 0
M  V30 6941 H 658.734 0.517584 -0.415936 0
M  V30 6942 H 661.264 1.12785 -1.70706 0
M  V30 6943 H 661.274 3.55693 -1.99866 0
M  V30 6944 H 659.949 2.92156 -2.96003 0
M  V30 6945 H 658.526 3.52055 -1.22928 0
M  V30 6946 N 660.711 1.11618 1.11262 0
M  V30 6947 C 661.941 0.88745 1.86569 0
M  V30 6948 C 662.349 -0.56636 1.80524 0
M  V30 6949 O 661.692 -1.40289 1.18594 0
M  V30 6950 C 661.754 1.27313 3.36202 0
M  V30 6951 C 661.418 2.73649 3.66013 0
M  V30 6952 C 662.415 3.71863 3.63337 0
M  V30 6953 C 660.1 3.10342 3.9496 0
M  V30 6954 C 662.094 5.04788 3.89188 0
M  V30 6955 C 659.781 4.43451 4.20469 0
M  V30 6956 C 660.779 5.40484 4.17572 0
M  V30 6957 O 660.467 6.71195 4.42439 0
M  V30 6958 H 660.199 0.317543 0.596777 0
M  V30 6959 H 662.753 1.48768 1.41624 0
M  V30 6960 H 660.983 0.616062 3.81761 0
M  V30 6961 H 662.672 1.01991 3.92877 0
M  V30 6962 H 663.438 3.44861 3.41022 0
M  V30 6963 H 659.317 2.35431 3.9635 0
M  V30 6964 H 662.861 5.80516 3.86842 0
M  V30 6965 H 658.758 4.70187 4.42261 0
M  V30 6966 H 659.526 6.77012 4.59997 0
M  V30 6967 N 662.189 -1.289 0.906776 0
M  V30 6968 C 663.436 -1.95269 0.536326 0
M  V30 6969 C 663.764 -1.71435 -0.918711 0
M  V30 6970 O 663.019 -1.02431 -1.66752 0
M  V30 6971 C 663.318 -3.48704 0.783617 0
M  V30 6972 C 662.984 -3.92626 2.21711 0
M  V30 6973 C 661.646 -4.04329 2.60906 0
M  V30 6974 C 663.998 -4.15218 3.15029 0
M  V30 6975 C 661.326 -4.35998 3.92584 0
M  V30 6976 C 663.678 -4.48365 4.46264 0
M  V30 6977 C 662.342 -4.58278 4.85322 0
M  V30 6978 H 661.612 -0.714538 0.196256 0
M  V30 6979 H 664.259 -1.53366 1.14678 0
M  V30 6980 H 662.564 -3.91696 0.0903048 0
M  V30 6981 H 664.261 -3.98162 0.476267 0
M  V30 6982 H 660.851 -3.84038 1.90296 0
M  V30 6983 H 665.035 -4.05636 2.8596 0
M  V30 6984 H 660.291 -4.41878 4.22557 0
M  V30 6985 H 664.465 -4.64795 5.18593 0
M  V30 6986 H 662.092 -4.82573 5.87391 0
M  V30 6987 N 663.667 -0.670007 -1.42649 0
M  V30 6988 C 664.597 -0.00258501 -2.335 0
M  V30 6989 C 665.578 0.794364 -1.50412 0
M  V30 6990 O 666.763 0.75248 -1.79029 0
M  V30 6991 C 663.893 0.952748 -3.33976 0
M  V30 6992 C 662.847 0.264733 -4.2718 0
M  V30 6993 C 662.173 1.33267 -5.17826 0
M  V30 6994 C 663.473 -0.853289 -5.15283 0
M  V30 6995 H 665.167 -0.761326 -2.89559 0
M  V30 6996 H 662.713 -0.367561 -1.3923 0
M  V30 6997 H 664.666 1.4287 -3.96442 0
M  V30 6998 H 663.39 1.74285 -2.7621 0
M  V30 6999 H 662.049 -0.190938 -3.66102 0
M  V30 7000 H 661.697 2.11464 -4.5639 0
M  V30 7001 H 661.397 0.877476 -5.81011 0
M  V30 7002 H 662.921 1.80965 -5.83167 0
M  V30 7003 H 664.335 -0.458763 -5.71462 0
M  V30 7004 H 662.732 -1.23398 -5.87276 0
M  V30 7005 H 663.802 -1.70412 -4.53969 0
M  V30 7006 N 665.145 1.52092 -0.413018 0
M  V30 7007 C 666.393 2.01456 0.161178 0
M  V30 7008 C 666.714 1.30034 1.45314 0
M  V30 7009 O 665.984 0.427435 1.9118 0
M  V30 7010 H 664.564 0.744376 0.0625526 0
M  V30 7011 H 667.226 1.86974 -0.550151 0
M  V30 7012 H 666.322 3.1008 0.354517 0
M  V30 7013 N 666.623 0.143563 1.56945 0
M  V30 7014 C 667.553 -0.7936 2.196 0
M  V30 7015 C 668.534 -1.25955 1.14321 0
M  V30 7016 O 669.719 -1.31773 1.42651 0
M  V30 7017 C 666.849 -2.03424 2.81489 0
M  V30 7018 C 665.803 -1.70519 3.92565 0
M  V30 7019 C 665.129 -3.01817 4.41373 0
M  V30 7020 C 666.429 -0.95449 5.13504 0
M  V30 7021 H 668.123 -0.271423 2.98167 0
M  V30 7022 H 665.669 -0.12911 1.4342 0
M  V30 7023 H 667.622 -2.69463 3.23987 0
M  V30 7024 H 666.346 -2.58008 2.00248 0
M  V30 7025 H 665.005 -1.06859 3.5068 0
M  V30 7026 H 664.653 -3.54386 3.56959 0
M  V30 7027 H 664.353 -2.80565 5.16292 0
M  V30 7028 H 665.877 -3.68934 4.86539 0
M  V30 7029 H 667.291 -1.5169 5.52868 0
M  V30 7030 H 665.688 -0.842035 5.94163 0
M  V30 7031 H 666.758 0.0544033 4.84869 0
M  V30 7032 N 668.101 -1.57061 -0.130224 0
M  V30 7033 C 669.347 -1.8453 -0.841216 0
M  V30 7034 C 669.68 -0.727666 -1.80052 0
M  V30 7035 O 668.955 0.267419 -1.92653 0
M  V30 7036 C 669.238 -3.22553 -1.60099 0
M  V30 7037 C 669.091 -4.44901 -0.662048 0
M  V30 7038 C 670.41 -3.58003 -2.55973 0
M  V30 7039 H 667.529 -0.671215 -0.304366 0
M  V30 7040 H 670.171 -1.89705 -0.105821 0
M  V30 7041 H 668.321 -3.18272 -2.22789 0
M  V30 7042 H 669.993 -4.61278 -0.0448559 0
M  V30 7043 H 668.236 -4.33791 0.0272253 0
M  V30 7044 H 668.907 -5.3812 -1.23006 0
M  V30 7045 H 671.383 -3.63002 -2.03393 0
M  V30 7046 H 670.259 -4.55576 -3.06172 0
M  V30 7047 H 670.52 -2.84833 -3.38116 0
M  V30 7048 N 669.579 0.400081 -1.52437 0
M  V30 7049 C 670.512 1.50929 -1.7116 0
M  V30 7050 C 671.49 1.52679 -0.559275 0
M  V30 7051 O 672.674 1.71251 -0.787735 0
M  V30 7052 C 669.801 2.89433 -1.75915 0
M  V30 7053 C 668.847 3.05556 -2.97553 0
M  V30 7054 S 669.68 2.77919 -4.57735 0
M  V30 7055 C 670.836 4.18636 -4.6529 0
M  V30 7056 H 671.069 1.3482 -2.64973 0
M  V30 7057 H 668.602 0.592245 -1.4259 0
M  V30 7058 H 670.56 3.69253 -1.7934 0
M  V30 7059 H 669.221 3.02877 -0.832137 0
M  V30 7060 H 668.414 4.0691 -2.97388 0
M  V30 7061 H 668.016 2.33615 -2.92062 0
M  V30 7062 H 670.308 5.12406 -4.43223 0
M  V30 7063 H 671.251 4.23821 -5.67258 0
M  V30 7064 H 671.659 4.04029 -3.94234 0
M  V30 7065 N 671.057 1.43213 0.657864 0
M  V30 7066 C 671.987 1.50815 1.78262 0
M  V30 7067 C 672.968 0.363211 1.66177 0
M  V30 7068 O 674.153 0.579806 1.85343 0
M  V30 7069 C 671.283 1.42625 3.16663 0
M  V30 7070 C 670.237 2.5532 3.43505 0
M  V30 7071 C 669.563 2.32184 4.81658 0
M  V30 7072 C 670.863 3.97583 3.38711 0
M  V30 7073 H 672.557 2.44954 1.72157 0
M  V30 7074 H 670.103 1.17896 0.82683 0
M  V30 7075 H 672.056 1.46548 3.95097 0
M  V30 7076 H 670.78 0.449877 3.23487 0
M  V30 7077 H 669.439 2.50742 2.6744 0
M  V30 7078 H 669.087 1.32801 4.85153 0
M  V30 7079 H 668.787 3.07724 5.00579 0
M  V30 7080 H 670.311 2.37883 5.62356 0
M  V30 7081 H 671.725 4.03673 4.07089 0
M  V30 7082 H 670.122 4.73112 3.69168 0
M  V30 7083 H 671.192 4.23049 2.36976 0
M  V30 7084 N 672.536 -0.895792 1.29666 0
M  V30 7085 C 673.764 -1.68001 1.20761 0
M  V30 7086 C 674.179 -1.87379 -0.231187 0
M  V30 7087 O 673.536 -1.41359 -1.15429 0
M  V30 7088 C 673.587 -3.06236 1.92098 0
M  V30 7089 O 673.308 -2.8774 3.30359 0
M  V30 7090 C 674.809 -4.00652 1.89717 0
M  V30 7091 H 672.029 -0.524591 0.418384 0
M  V30 7092 H 674.573 -1.11995 1.71106 0
M  V30 7093 H 672.728 -3.59007 1.45578 0
M  V30 7094 H 673.142 -3.75359 3.66342 0
M  V30 7095 H 674.616 -4.95051 2.44189 0
M  V30 7096 H 675.093 -4.30424 0.873595 0
M  V30 7097 H 675.699 -3.53815 2.35998 0
M  V30 7098 N 674.014 -1.12206 -1.10668 0
M  V30 7099 C 674.924 -0.800686 -2.20513 0
M  V30 7100 C 675.94 0.209512 -1.72734 0
M  V30 7101 O 677.116 0.043705 -2.01353 0
M  V30 7102 C 674.181 -0.257353 -3.45744 0
M  V30 7103 C 673.242 -1.32718 -4.0827 0
M  V30 7104 C 672.475 -0.809674 -5.27522 0
M  V30 7105 O 672.698 0.35742 -5.69279 0
M  V30 7106 O 671.632 -1.57816 -5.80842 0
M  V30 7107 H 675.458 -1.71807 -2.50432 0
M  V30 7108 H 673.043 -0.898546 -1.19359 0
M  V30 7109 H 674.925 0.0408849 -4.2138 0
M  V30 7110 H 673.6 0.632627 -3.17458 0
M  V30 7111 H 672.507 -1.67855 -3.34329 0
M  V30 7112 H 673.84 -2.19083 -4.40753 0
M  V30 7113 N 675.492 1.28418 -0.913599 0
M  V30 7114 C 676.74 1.94596 -0.545594 0
M  V30 7115 C 677.061 1.7227 0.913668 0
M  V30 7116 O 676.331 1.06233 1.64595 0
M  V30 7117 H 674.911 0.720065 -0.198783 0
M  V30 7118 H 677.573 1.56404 -1.16292 0
M  V30 7119 H 676.669 3.03202 -0.739911 0
M  V30 7120 N 676.97 0.677563 1.42291 0
M  V30 7121 C 678.218 0.200578 2.01102 0
M  V30 7122 C 678.539 -1.19803 1.53858 0
M  V30 7123 O 677.809 -1.80496 0.761439 0
M  V30 7124 H 676.389 0.0711634 0.743603 0
M  V30 7125 H 679.051 0.874691 1.7417 0
M  V30 7126 H 678.147 0.204 3.11433 0
M  V30 7127 N 678.448 -1.51871 0.421078 0
M  V30 7128 C 679.381 -2.23851 -0.443369 0
M  V30 7129 C 680.359 -1.25142 -1.03818 0
M  V30 7130 O 681.543 -1.5423 -1.08377 0
M  V30 7131 C 678.67 -2.97637 -1.61648 0
M  V30 7132 C 677.716 -4.10873 -1.14391 0
M  V30 7133 S 678.549 -5.35408 -0.0992403 0
M  V30 7134 C 679.705 -6.12726 -1.27739 0
M  V30 7135 H 679.938 -2.96826 0.167786 0
M  V30 7136 H 677.471 -1.53027 0.205461 0
M  V30 7137 H 679.429 -3.40751 -2.28909 0
M  V30 7138 H 678.09 -2.24282 -2.199 0
M  V30 7139 H 677.283 -4.61718 -2.02069 0
M  V30 7140 H 676.885 -3.69937 -0.549775 0
M  V30 7141 H 679.177 -6.40827 -2.19881 0
M  V30 7142 H 680.12 -7.03461 -0.809239 0
M  V30 7143 H 680.528 -5.43968 -1.5086 0
M  V30 7144 N 679.926 -0.151884 -1.56866 0
M  V30 7145 C 681.156 0.504081 -2.00356 0
M  V30 7146 C 681.564 1.58639 -1.03103 0
M  V30 7147 O 680.907 1.83688 -0.0207931 0
M  V30 7148 C 680.969 1.15975 -3.40279 0
M  V30 7149 C 680.633 0.221453 -4.56463 0
M  V30 7150 C 681.63 -0.552766 -5.16953 0
M  V30 7151 C 679.315 0.122936 -5.0215 0
M  V30 7152 C 681.309 -1.4129 -6.21543 0
M  V30 7153 C 678.996 -0.740801 -6.06593 0
M  V30 7154 C 679.994 -1.50732 -6.6616 0
M  V30 7155 O 679.682 -2.35666 -7.68581 0
M  V30 7156 H 679.414 0.135279 -0.662326 0
M  V30 7157 H 681.968 -0.244916 -2.03935 0
M  V30 7158 H 680.198 1.95649 -3.33554 0
M  V30 7159 H 681.887 1.71594 -3.67846 0
M  V30 7160 H 682.653 -0.486716 -4.82552 0
M  V30 7161 H 678.532 0.70931 -4.5551 0
M  V30 7162 H 682.076 -2.01166 -6.67966 0
M  V30 7163 H 677.973 -0.808125 -6.40421 0
M  V30 7164 H 678.741 -2.28967 -7.85822 0
M  V30 7165 N 681.404 1.57128 0.121893 0
M  V30 7166 C 682.653 1.83888 0.828748 0
M  V30 7167 C 682.966 0.737087 1.81181 0
M  V30 7168 O 684.172 0.891007 2.56463 0
M  V30 7169 C 682.628 3.26014 1.52455 0
M  V30 7170 C 682.236 4.44195 0.58263 0
M  V30 7171 C 683.98 3.62025 2.21671 0
M  V30 7172 C 681.887 5.77349 1.28149 0
M  V30 7173 H 680.817 0.685856 0.313238 0
M  V30 7174 H 683.468 1.83319 0.0814851 0
M  V30 7175 H 681.85 3.21044 2.31834 0
M  V30 7176 H 683.024 4.60457 -0.177729 0
M  V30 7177 H 681.339 4.164 -0.00241228 0
M  V30 7178 H 683.936 4.58776 2.74643 0
M  V30 7179 H 684.279 2.89315 2.99337 0
M  V30 7180 H 684.812 3.68767 1.49184 0
M  V30 7181 H 681.551 6.53221 0.546189 0
M  V30 7182 H 681.071 5.64978 2.01394 0
M  V30 7183 H 682.75 6.21006 1.81549 0
M  V30 7184 N 682.882 -0.391992 1.52647 0
M  V30 7185 C 684.129 -1.13732 1.67545 0
M  V30 7186 C 684.457 -1.90045 0.413881 0
M  V30 7187 O 683.712 -1.86157 -0.603646 0
M  V30 7188 C 684.011 -2.14401 2.85949 0
M  V30 7189 C 683.677 -1.54767 4.23507 0
M  V30 7190 C 682.339 -1.38229 4.60919 0
M  V30 7191 C 684.691 -1.11382 5.0916 0
M  V30 7192 C 682.019 -0.7685 5.81645 0
M  V30 7193 C 684.371 -0.514143 6.30507 0
M  V30 7194 C 683.035 -0.33604 6.66654 0
M  V30 7195 H 682.305 -0.416174 0.613091 0
M  V30 7196 H 684.952 -0.422327 1.86785 0
M  V30 7197 H 683.257 -2.92108 2.61114 0
M  V30 7198 H 684.954 -2.71974 2.94671 0
M  V30 7199 H 681.544 -1.68626 3.94035 0
M  V30 7200 H 685.728 -1.22962 4.80826 0
M  V30 7201 H 680.984 -0.618681 6.08262 0
M  V30 7202 H 685.158 -0.169657 6.96193 0
M  V30 7203 H 682.785 0.14166 7.60068 0
M  V30 7204 N 684.36 -1.4356 -0.65026 0
M  V30 7205 C 685.292 -1.44918 -1.77571 0
M  V30 7206 C 686.305 -0.344925 -1.59104 0
M  V30 7207 O 687.494 -0.609537 -1.6777 0
M  V30 7208 C 684.594 -1.24914 -3.15039 0
M  V30 7209 C 683.767 -2.48232 -3.60138 0
M  V30 7210 C 682.826 -2.23409 -4.76419 0
M  V30 7211 O 681.852 -2.9678 -4.85706 0
M  V30 7212 N 683.054 -1.25259 -5.66825 0
M  V30 7213 H 685.819 -2.41935 -1.76883 0
M  V30 7214 H 683.38 -1.38754 -0.834202 0
M  V30 7215 H 685.372 -1.06185 -3.90521 0
M  V30 7216 H 683.942 -0.363319 -3.10481 0
M  V30 7217 H 683.162 -2.82366 -2.75069 0
M  V30 7218 H 684.45 -3.30296 -3.87017 0
M  V30 7219 H 683.848 -0.646246 -5.61997 0
M  V30 7220 H 682.405 -1.12513 -6.42016 0
M  V30 7221 N 685.838 0.888903 -1.30139 0
M  V30 7222 C 686.768 2.01046 -1.18755 0
M  V30 7223 C 687.749 1.69916 -0.0791438 0
M  V30 7224 O 688.934 1.92445 -0.260498 0
M  V30 7225 C 686.064 3.36109 -0.874518 0
M  V30 7226 C 685.018 3.81486 -1.94043 0
M  V30 7227 C 684.344 5.13796 -1.48047 0
M  V30 7228 C 685.644 4.00637 -3.35093 0
M  V30 7229 H 687.338 2.10828 -2.12584 0
M  V30 7230 H 684.884 1.01298 -1.02346 0
M  V30 7231 H 686.837 4.14089 -0.781548 0
M  V30 7232 H 685.561 3.26449 0.0994519 0
M  V30 7233 H 684.22 3.05731 -2.02297 0
M  V30 7234 H 683.868 5.0056 -0.494878 0
M  V30 7235 H 683.568 5.45127 -2.19341 0
M  V30 7236 H 685.092 5.94305 -1.40121 0
M  V30 7237 H 686.506 4.69067 -3.2962 0
M  V30 7238 H 684.903 4.43339 -4.04438 0
M  V30 7239 H 685.973 3.0462 -3.77273 0
M  V30 7240 N 687.317 1.12792 1.10072 0
M  V30 7241 C 688.564 0.885545 1.82111 0
M  V30 7242 C 688.892 -0.588519 1.85383 0
M  V30 7243 O 688.147 -1.45124 1.31292 0
M  V30 7244 C 688.446 1.4102 3.28403 0
M  V30 7245 C 688.112 2.89995 3.45273 0
M  V30 7246 C 686.774 3.30671 3.49585 0
M  V30 7247 C 689.126 3.85874 3.50358 0
M  V30 7248 C 686.454 4.65925 3.56553 0
M  V30 7249 C 688.806 5.20963 3.58859 0
M  V30 7250 C 687.47 5.61177 3.61437 0
M  V30 7251 H 686.74 0.324044 0.666391 0
M  V30 7252 H 689.387 1.40874 1.29718 0
M  V30 7253 H 687.692 0.807551 3.83387 0
M  V30 7254 H 689.389 1.19882 3.82661 0
M  V30 7255 H 685.979 2.57537 3.42597 0
M  V30 7256 H 690.163 3.5554 3.46273 0
M  V30 7257 H 685.419 4.96468 3.56833 0
M  V30 7258 H 689.593 5.95079 3.61738 0
M  V30 7259 H 687.22 6.6597 3.66589 0
M  V30 7260 N 688.795 -1.27931 0.920396 0
M  V30 7261 C 690.072 -1.89728 0.475687 0
M  V30 7262 C 690.452 -1.8337 -1.04588 0
M  V30 7263 O 689.8 -1.27404 -1.89685 0
M  V30 7264 C 690.01 -3.33959 1.01354 0
M  V30 7265 C 691.358 -4.10907 1.06963 0
M  V30 7266 O 692.382 -3.42945 0.962646 0
M  V30 7267 O 691.241 -5.32399 1.23343 0
M  V30 7268 H 688.335 -0.81294 0.151845 0
M  V30 7269 H 690.881 -1.36252 1.01161 0
M  V30 7270 H 689.653 -3.32843 2.05746 0
M  V30 7271 H 689.276 -3.94944 0.458829 0
M  V30 7272 N 690.273 -0.685099 -1.4193 0
M  V30 7273 C 691.498 -0.218842 -2.06242 0
M  V30 7274 C 691.923 1.11923 -1.51178 0
M  V30 7275 O 691.281 1.69837 -0.634446 0
M  V30 7276 C 691.329 -0.175592 -3.60172 0
M  V30 7277 O 690.433 0.852776 -4.03487 0
M  V30 7278 H 689.774 -0.109531 -0.654904 0
M  V30 7279 H 692.304 -0.937013 -1.81882 0
M  V30 7280 H 692.314 -0.00291151 -4.08 0
M  V30 7281 H 690.989 -1.15222 -3.99621 0
M  V30 7282 H 689.566 0.650301 -3.67186 0
M  V30 7283 N 691.751 1.51645 -0.429126 0
M  V30 7284 C 692.981 2.06133 0.138793 0
M  V30 7285 C 693.389 1.29735 1.37716 0
M  V30 7286 O 692.732 0.347955 1.80375 0
M  V30 7287 C 692.794 3.55504 0.534493 0
M  V30 7288 C 692.458 4.53098 -0.595917 0
M  V30 7289 C 693.455 4.98815 -1.46558 0
M  V30 7290 C 691.14 4.96296 -0.774309 0
M  V30 7291 C 693.134 5.86394 -2.4984 0
M  V30 7292 C 690.821 5.83667 -1.81042 0
M  V30 7293 C 691.819 6.28613 -2.67086 0
M  V30 7294 O 691.507 7.14251 -3.68919 0
M  V30 7295 H 691.239 0.675833 0.0150263 0
M  V30 7296 H 693.793 1.96301 -0.604584 0
M  V30 7297 H 692.023 3.63092 1.33045 0
M  V30 7298 H 693.712 3.92545 1.03262 0
M  V30 7299 H 694.478 4.66143 -1.33925 0
M  V30 7300 H 690.357 4.60859 -0.114178 0
M  V30 7301 H 693.901 6.21398 -3.17034 0
M  V30 7302 H 689.798 6.15753 -1.93698 0
M  V30 7303 H 690.566 7.3241 -3.65402 0
M  V30 7304 N 693.229 0.160201 1.56784 0
M  V30 7305 C 694.192 -0.760405 2.16219 0
M  V30 7306 C 695.192 -1.16595 1.10735 0
M  V30 7307 O 696.382 -1.08472 1.36306 0
M  V30 7308 C 693.514 -2.03358 2.73603 0
M  V30 7309 H 694.707 -0.243173 2.98912 0
M  V30 7310 H 692.26 -0.0893139 1.56045 0
M  V30 7311 H 692.995 -2.59416 1.94612 0
M  V30 7312 H 692.78 -1.75186 3.50788 0
M  V30 7313 H 694.27 -2.69081 3.19351 0
M  V30 7314 N 694.707 -1.5719 -0.113559 0
M  V30 7315 C 695.67 -1.99796 -1.12314 0
M  V30 7316 C 696.67 -0.888847 -1.34001 0
M  V30 7317 O 697.86 -1.15476 -1.30426 0
M  V30 7318 C 694.992 -2.34279 -2.47641 0
M  V30 7319 H 696.185 -2.90193 -0.756825 0
M  V30 7320 H 693.738 -1.52144 -0.358029 0
M  V30 7321 H 694.473 -1.46778 -2.89183 0
M  V30 7322 H 694.258 -3.15175 -2.33253 0
M  V30 7323 H 695.748 -2.67963 -3.2029 0
M  V30 7324 N 696.185 0.383891 -1.52853 0
M  V30 7325 C 697.41 1.154 -1.7233 0
M  V30 7326 C 697.835 1.82809 -0.44298 0
M  V30 7327 O 697.193 1.71026 0.601645 0
M  V30 7328 C 697.241 2.17386 -2.87708 0
M  V30 7329 O 696.345 3.24082 -2.55038 0
M  V30 7330 H 695.686 0.335709 -0.572883 0
M  V30 7331 H 698.216 0.44662 -1.99666 0
M  V30 7332 H 698.226 2.61296 -3.1335 0
M  V30 7333 H 696.901 1.6771 -3.80587 0
M  V30 7334 H 695.478 2.85273 -2.40153 0
M  V30 7335 N 697.663 1.43903 0.642637 0
M  V30 7336 C 698.911 1.45791 1.39962 0
M  V30 7337 C 699.232 0.0873144 1.94804 0
M  V30 7338 O 698.502 -0.878825 1.75081 0
M  V30 7339 H 697.082 0.536797 0.519479 0
M  V30 7340 H 699.744 1.7959 0.757189 0
M  V30 7341 H 698.84 2.17665 2.2367 0
M  V30 7342 N 699.141 -0.881989 1.30609 0
M  V30 7343 C 700.074 -1.99066 1.11571 0
M  V30 7344 C 701.052 -1.62584 0.022516 0
M  V30 7345 O 702.236 -1.87671 0.176644 0
M  V30 7346 C 699.363 -3.3134 0.702237 0
M  V30 7347 C 698.409 -3.86807 1.79673 0
M  V30 7348 S 699.242 -4.13735 3.39976 0
M  V30 7349 C 700.398 -5.49024 3.00538 0
M  V30 7350 H 700.631 -2.1491 2.05429 0
M  V30 7351 H 698.164 -1.03074 1.14957 0
M  V30 7352 H 700.122 -4.07796 0.470415 0
M  V30 7353 H 698.783 -3.13349 -0.217034 0
M  V30 7354 H 697.976 -4.82397 1.45977 0
M  V30 7355 H 697.578 -3.17102 1.98298 0
M  V30 7356 H 699.87 -6.30208 2.48684 0
M  V30 7357 H 700.813 -5.8766 3.95046 0
M  V30 7358 H 701.221 -5.11726 2.3832 0
M  V30 7359 N 700.619 -1.13374 -1.09472 0
M  V30 7360 C 701.859 -0.905422 -1.83252 0
M  V30 7361 C 702.223 0.558396 -1.83701 0
M  V30 7362 O 703.424 0.904254 -2.53134 0
M  V30 7363 C 701.695 -1.47658 -3.25472 0
M  V30 7364 S 703.254 -1.38825 -4.16261 0
M  V30 7365 H 700.072 -0.326371 -0.631667 0
M  V30 7366 H 702.674 -1.44517 -1.31663 0
M  V30 7367 H 701.378 -2.53533 -3.22722 0
M  V30 7368 H 700.909 -0.934756 -3.82133 0
M  V30 7369 H 702.924 -0.366379 -4.94846 0
M  V30 7370 N 702.098 1.27442 -0.927168 0
M  V30 7371 C 703.028 2.29256 -0.443188 0
M  V30 7372 C 704.009 1.62701 0.49624 0
M  V30 7373 O 705.194 1.90013 0.401105 0
M  V30 7374 C 702.324 3.45955 0.305366 0
M  V30 7375 C 701.278 4.24501 -0.546178 0
M  V30 7376 C 700.604 5.33671 0.331512 0
M  V30 7377 C 701.904 4.89921 -1.81037 0
M  V30 7378 H 703.598 2.69988 -1.29409 0
M  V30 7379 H 701.144 1.29792 -0.623705 0
M  V30 7380 H 703.097 4.1628 0.654885 0
M  V30 7381 H 701.821 3.04138 1.19029 0
M  V30 7382 H 700.48 3.55921 -0.878398 0
M  V30 7383 H 700.128 4.88096 1.21537 0
M  V30 7384 H 699.828 5.87131 -0.234746 0
M  V30 7385 H 701.352 6.0684 0.676614 0
M  V30 7386 H 702.766 5.52536 -1.52895 0
M  V30 7387 H 701.163 5.53436 -2.32009 0
M  V30 7388 H 702.233 4.13652 -2.53021 0
M  V30 7389 N 703.576 0.692616 1.41565 0
M  V30 7390 C 704.506 0.0397325 2.33466 0
M  V30 7391 C 705.487 -0.770334 1.51657 0
M  V30 7392 O 706.672 -0.723903 1.80203 0
M  V30 7393 C 703.802 -0.899495 3.3545 0
M  V30 7394 C 702.756 -0.196738 4.27548 0
M  V30 7395 C 702.082 -1.25012 5.19881 0
M  V30 7396 C 703.382 0.935158 5.1386 0
M  V30 7397 H 705.076 0.807296 2.88311 0
M  V30 7398 H 702.622 0.389665 1.38628 0
M  V30 7399 H 704.575 -1.36545 3.98665 0
M  V30 7400 H 703.299 -1.69869 2.78948 0
M  V30 7401 H 701.958 0.249158 3.65752 0
M  V30 7402 H 701.606 -2.04177 4.59696 0
M  V30 7403 H 701.306 -0.784931 5.82334 0
M  V30 7404 H 702.83 -1.71665 5.85972 0
M  V30 7405 H 704.244 0.549619 5.70659 0
M  V30 7406 H 702.641 1.32726 5.85238 0
M  V30 7407 H 703.711 1.77613 4.512 0
M  V30 7408 N 705.054 -1.51416 0.437162 0
M  V30 7409 C 706.301 -2.02086 -0.129364 0
M  V30 7410 C 706.629 -1.32133 -1.42728 0
M  V30 7411 O 705.884 -0.424916 -1.91031 0
M  V30 7412 C 706.183 -3.55203 -0.39564 0
M  V30 7413 C 705.849 -4.43447 0.81644 0
M  V30 7414 C 704.511 -4.67285 1.14884 0
M  V30 7415 C 706.863 -4.95219 1.62503 0
M  V30 7416 C 704.191 -5.40141 2.29052 0
M  V30 7417 C 706.543 -5.69327 2.7577 0
M  V30 7418 C 705.207 -5.91429 3.09464 0
M  V30 7419 H 704.477 -0.739486 -0.0473375 0
M  V30 7420 H 707.124 -1.82368 0.584321 0
M  V30 7421 H 705.429 -3.73252 -1.19121 0
M  V30 7422 H 707.126 -3.91944 -0.847399 0
M  V30 7423 H 703.716 -4.2509 0.547422 0
M  V30 7424 H 707.9 -4.76686 1.38144 0
M  V30 7425 H 703.156 -5.55468 2.55471 0
M  V30 7426 H 707.33 -6.08433 3.38795 0
M  V30 7427 H 704.957 -6.47662 3.98042 0
M  V30 7428 N 706.532 -0.168513 -1.56696 0
M  V30 7429 C 707.778 0.477865 -1.9709 0
M  V30 7430 C 708.111 1.63084 -1.05438 0
M  V30 7431 O 707.386 1.94238 -0.10095 0
M  V30 7432 C 707.669 0.963521 -3.4697 0
M  V30 7433 C 707.522 -0.189443 -4.49401 0
M  V30 7434 C 708.841 1.83813 -3.99876 0
M  V30 7435 H 705.96 0.172229 -0.716593 0
M  V30 7436 H 708.602 -0.254083 -1.88293 0
M  V30 7437 H 706.752 1.58724 -3.54597 0
M  V30 7438 H 708.424 -0.826451 -4.53836 0
M  V30 7439 H 706.667 -0.845366 -4.25483 0
M  V30 7440 H 707.338 0.192446 -5.51664 0
M  V30 7441 H 709.814 1.31235 -3.94863 0
M  V30 7442 H 708.69 2.14697 -5.0517 0
M  V30 7443 H 708.951 2.78289 -3.43523 0
M  V30 7444 N 708.01 1.57248 0.105221 0
M  V30 7445 C 708.973 2.00388 1.11252 0
M  V30 7446 C 709.973 0.89594 1.33527 0
M  V30 7447 O 711.163 1.16166 1.29811 0
M  V30 7448 C 708.295 2.35589 2.46395 0
M  V30 7449 H 709.488 2.90591 0.741424 0
M  V30 7450 H 707.041 1.52332 0.349956 0
M  V30 7451 H 707.776 1.4831 2.884 0
M  V30 7452 H 707.561 3.16408 2.31578 0
M  V30 7453 H 709.051 2.69658 3.18864 0
M  V30 7454 N 709.488 -0.375779 1.53054 0
M  V30 7455 C 710.737 -1.11674 1.67964 0
M  V30 7456 C 711.05 -1.90755 0.432655 0
M  V30 7457 O 712.256 -2.67538 0.462109 0
M  V30 7458 C 710.712 -2.0344 2.96884 0
M  V30 7459 C 710.32 -1.29719 4.28809 0
M  V30 7460 C 712.064 -2.7759 3.2116 0
M  V30 7461 C 709.971 -2.20327 5.48826 0
M  V30 7462 H 708.901 -0.420597 0.625791 0
M  V30 7463 H 711.552 -0.378499 1.79554 0
M  V30 7464 H 709.934 -2.80953 2.79072 0
M  V30 7465 H 711.108 -0.573394 4.57219 0
M  V30 7466 H 709.423 -0.674735 4.10897 0
M  V30 7467 H 712.02 -3.4559 4.0801 0
M  V30 7468 H 712.363 -3.42399 2.36789 0
M  V30 7469 H 712.896 -2.07164 3.396 0
M  V30 7470 H 709.635 -1.60113 6.35645 0
M  V30 7471 H 709.155 -2.90585 5.2471 0
M  V30 7472 H 710.834 -2.80116 5.83219 0
M  V30 7473 N 710.966 -1.44241 -0.634997 0
M  V30 7474 C 712.213 -1.46821 -1.39463 0
M  V30 7475 C 712.541 -0.0993362 -1.94246 0
M  V30 7476 O 711.796 0.898325 -1.73864 0
M  V30 7477 C 712.095 -2.47279 -2.58046 0
M  V30 7478 C 711.761 -3.92703 -2.21574 0
M  V30 7479 C 710.423 -4.32306 -2.1134 0
M  V30 7480 C 712.775 -4.84271 -1.92695 0
M  V30 7481 C 710.103 -5.61407 -1.70409 0
M  V30 7482 C 712.455 -6.13755 -1.53258 0
M  V30 7483 C 711.119 -6.52316 -1.41562 0
M  V30 7484 H 710.389 -0.537256 -0.51033 0
M  V30 7485 H 713.036 -1.77431 -0.720441 0
M  V30 7486 H 711.341 -2.10138 -3.3068 0
M  V30 7487 H 713.038 -2.46523 -3.16271 0
M  V30 7488 H 709.628 -3.61369 -2.30456 0
M  V30 7489 H 713.812 -4.54432 -1.99513 0
M  V30 7490 H 709.068 -5.90105 -1.59955 0
M  V30 7491 H 713.242 -6.84168 -1.29949 0
M  V30 7492 H 710.869 -7.52255 -1.09619 0
M  V30 7493 N 712.444 0.87505 -1.31075 0
M  V30 7494 C 713.354 2.01441 -1.20244 0
M  V30 7495 C 714.37 1.73584 -0.120227 0
M  V30 7496 O 715.546 1.98559 -0.337063 0
M  V30 7497 C 712.611 3.34675 -0.905199 0
M  V30 7498 C 711.672 3.75889 -2.0738 0
M  V30 7499 C 710.905 5.02764 -1.79064 0
M  V30 7500 O 711.128 5.65795 -0.723318 0
M  V30 7501 O 710.062 5.40623 -2.64594 0
M  V30 7502 H 713.888 2.13509 -2.1598 0
M  V30 7503 H 711.473 1.00257 -1.10765 0
M  V30 7504 H 713.355 4.1458 -0.755057 0
M  V30 7505 H 712.03 3.23692 0.0221695 0
M  V30 7506 H 710.937 2.96645 -2.27931 0
M  V30 7507 H 712.27 3.91489 -2.98324 0
M  V30 7508 N 713.922 1.13953 1.08869 0
M  V30 7509 C 715.162 0.915128 1.8277 0
M  V30 7510 C 715.526 -0.548647 1.83994 0
M  V30 7511 O 716.727 -0.890817 2.5361 0
M  V30 7512 C 714.998 1.49382 3.24684 0
M  V30 7513 S 716.557 1.4103 4.15519 0
M  V30 7514 H 713.375 0.329716 0.629927 0
M  V30 7515 H 715.977 1.45213 1.30895 0
M  V30 7516 H 714.681 2.55241 3.21372 0
M  V30 7517 H 714.212 0.955008 3.81632 0
M  V30 7518 H 716.227 0.392617 4.94644 0
M  V30 7519 N 715.4 -1.26948 0.933913 0
M  V30 7520 C 716.649 -1.93378 0.573409 0
M  V30 7521 C 716.962 -1.74148 -0.890614 0
M  V30 7522 O 718.168 -2.34971 -1.36017 0
M  V30 7523 C 716.624 -3.46449 0.974747 0
M  V30 7524 C 716.232 -3.74425 2.45988 0
M  V30 7525 C 717.976 -4.18924 0.685791 0
M  V30 7526 C 715.883 -5.209 2.8003 0
M  V30 7527 H 714.813 -0.723952 0.210736 0
M  V30 7528 H 717.464 -1.44143 1.13557 0
M  V30 7529 H 715.846 -3.94528 0.341181 0
M  V30 7530 H 717.02 -3.37079 3.14188 0
M  V30 7531 H 715.335 -3.15167 2.72138 0
M  V30 7532 H 717.932 -5.26786 0.916546 0
M  V30 7533 H 718.275 -4.14587 -0.377217 0
M  V30 7534 H 718.808 -3.76687 1.27874 0
M  V30 7535 H 715.547 -5.30332 3.85264 0
M  V30 7536 H 715.067 -5.59369 2.16485 0
M  V30 7537 H 716.746 -5.88837 2.68105 0
M  V30 7538 N 716.879 -0.700114 -1.41195 0
M  V30 7539 C 718.119 -0.237223 -2.03019 0
M  V30 7540 C 718.483 1.14304 -1.54268 0
M  V30 7541 O 719.684 1.70204 -2.08048 0
M  V30 7542 C 717.955 -0.297442 -3.5616 0
M  V30 7543 S 719.514 0.0907367 -4.38706 0
M  V30 7544 H 716.332 -0.0952147 -0.704596 0
M  V30 7545 H 718.934 -0.918901 -1.72559 0
M  V30 7546 H 717.638 -1.30391 -3.89135 0
M  V30 7547 H 717.169 0.403233 -3.91328 0
M  V30 7548 H 719.184 1.31721 -4.78397 0
M  V30 7549 N 718.357 1.51182 -0.445186 0
M  V30 7550 C 719.606 2.01342 0.120189 0
M  V30 7551 C 719.919 1.33353 1.43095 0
M  V30 7552 O 721.125 1.74525 2.07974 0
M  V30 7553 C 719.581 3.58925 0.264732 0
M  V30 7554 C 719.189 4.35855 -1.03606 0
M  V30 7555 C 720.933 4.17208 0.783455 0
M  V30 7556 C 718.84 5.85162 -0.856731 0
M  V30 7557 H 717.77 0.752426 0.0486922 0
M  V30 7558 H 720.421 1.74221 -0.576143 0
M  V30 7559 H 718.803 3.82525 1.02425 0
M  V30 7560 H 719.977 4.23997 -1.80452 0
M  V30 7561 H 718.292 3.89062 -1.48391 0
M  V30 7562 H 720.889 5.26475 0.934239 0
M  V30 7563 H 721.232 3.76892 1.768 0
M  V30 7564 H 721.765 3.97715 0.0820346 0
M  V30 7565 H 718.504 6.29904 -1.81388 0
M  V30 7566 H 718.024 5.99663 -0.128206 0
M  V30 7567 H 719.703 6.44963 -0.513027 0
M  V30 7568 N 719.835 0.176821 1.56605 0
M  V30 7569 C 721.083 -0.465793 1.96659 0
M  V30 7570 C 721.404 -1.63406 1.06412 0
M  V30 7571 O 720.674 -1.95457 0.131603 0
M  V30 7572 H 719.254 -0.175072 0.726195 0
M  V30 7573 H 721.916 0.25929 1.93168 0
M  V30 7574 H 721.012 -0.822138 3.01077 0
M  V30 7575 N 721.313 -1.57302 -0.09688 0
M  V30 7576 C 722.559 -1.87144 -0.796778 0
M  V30 7577 C 722.914 -0.767428 -1.76432 0
M  V30 7578 O 722.207 0.230728 -1.90206 0
M  V30 7579 C 722.401 -3.21272 -1.56586 0
M  V30 7580 C 722.23 -4.44616 -0.674295 0
M  V30 7581 C 721 -5.04281 -0.320705 0
M  V30 7582 C 723.198 -5.14297 0.0179445 0
M  V30 7583 N 721.18 -6.11162 0.579206 0
M  V30 7584 C 722.551 -6.15125 0.775992 0
M  V30 7585 C 724.606 -4.97815 0.0920521 0
M  V30 7586 C 723.309 -7.01251 1.60122 0
M  V30 7587 C 725.335 -5.84447 0.904175 0
M  V30 7588 C 724.697 -6.84794 1.65035 0
M  V30 7589 H 720.796 -0.734721 -0.267787 0
M  V30 7590 H 723.38 -1.94609 -0.0593955 0
M  V30 7591 H 721.551 -3.14862 -2.27413 0
M  V30 7592 H 723.283 -3.38846 -2.21281 0
M  V30 7593 H 720.038 -4.68866 -0.667961 0
M  V30 7594 H 720.462 -6.69247 1.02166 0
M  V30 7595 H 725.104 -4.20174 -0.470492 0
M  V30 7596 H 722.822 -7.78284 2.17484 0
M  V30 7597 H 726.408 -5.73755 0.964165 0
M  V30 7598 H 725.288 -7.50668 2.26864 0
M  V30 7599 N 722.791 0.367657 -1.53252 0
M  V30 7600 C 724.037 1.11216 -1.69584 0
M  V30 7601 C 724.37 1.89026 -0.445269 0
M  V30 7602 O 723.645 1.86342 0.557404 0
M  V30 7603 C 723.928 2.07308 -2.94441 0
M  V30 7604 C 723.781 1.3312 -4.2965 0
M  V30 7605 C 725.1 3.07459 -3.14892 0
M  V30 7606 H 722.219 0.40294 -0.617096 0
M  V30 7607 H 724.861 0.393201 -1.85887 0
M  V30 7608 H 723.011 2.68617 -2.80673 0
M  V30 7609 H 724.683 0.746111 -4.55226 0
M  V30 7610 H 722.926 0.633051 -4.29156 0
M  V30 7611 H 723.597 2.03443 -5.13142 0
M  V30 7612 H 726.073 2.56252 -3.27832 0
M  V30 7613 H 724.949 3.71919 -4.03693 0
M  V30 7614 H 725.21 3.77514 -2.30077 0
M  V30 7615 N 724.269 1.44576 0.627338 0
M  V30 7616 C 725.499 1.50829 1.41189 0
M  V30 7617 C 725.907 0.133083 1.88731 0
M  V30 7618 O 725.25 -0.87199 1.61685 0
M  V30 7619 C 725.312 2.41449 2.66351 0
M  V30 7620 C 724.976 3.88549 2.40579 0
M  V30 7621 C 725.973 4.78981 2.0217 0
M  V30 7622 C 723.658 4.33287 2.54102 0
M  V30 7623 C 725.652 6.12153 1.77618 0
M  V30 7624 C 723.339 5.66505 2.29163 0
M  V30 7625 C 724.337 6.55756 1.9098 0
M  V30 7626 O 724.025 7.86506 1.66321 0
M  V30 7627 H 723.757 0.513797 0.439304 0
M  V30 7628 H 726.311 1.90256 0.774059 0
M  V30 7629 H 724.541 1.96955 3.32784 0
M  V30 7630 H 726.23 2.38608 3.28361 0
M  V30 7631 H 726.996 4.45689 1.91277 0
M  V30 7632 H 722.875 3.64074 2.82792 0
M  V30 7633 H 726.419 6.81776 1.47739 0
M  V30 7634 H 722.316 5.99358 2.39668 0
M  V30 7635 H 723.084 7.98341 1.80536 0
M  V30 7636 N 725.747 -0.868086 1.31537 0
M  V30 7637 C 726.995 -1.61807 1.21091 0
M  V30 7638 C 727.316 -1.93631 -0.230623 0
M  V30 7639 O 726.586 -1.5846 -1.15183 0
M  V30 7640 H 725.166 -0.599854 0.445178 0
M  V30 7641 H 727.828 -1.03915 1.64887 0
M  V30 7642 H 726.924 -2.56088 1.78396 0
M  V30 7643 N 727.225 -1.14528 -1.08264 0
M  V30 7644 C 728.45 -0.938381 -1.84957 0
M  V30 7645 C 728.875 0.508044 -1.81109 0
M  V30 7646 O 728.233 1.36146 -1.19724 0
M  V30 7647 C 728.281 -1.44568 -3.30352 0
M  V30 7648 O 727.385 -0.638745 -4.07423 0
M  V30 7649 H 726.726 -0.335394 -0.573068 0
M  V30 7650 H 729.256 -1.52287 -1.36637 0
M  V30 7651 H 729.266 -1.45449 -3.81194 0
M  V30 7652 H 727.941 -2.49876 -3.32468 0
M  V30 7653 H 726.518 -0.698801 -3.66294 0
M  V30 7654 N 728.703 1.26451 -0.940633 0
M  V30 7655 C 729.651 2.28389 -0.440581 0
M  V30 7656 C 730.645 1.62402 0.481859 0
M  V30 7657 O 731.851 1.76361 0.360132 0
M  V30 7658 H 728.226 0.741716 -0.123938 0
M  V30 7659 H 730.197 2.67967 -1.31288 0
M  V30 7660 C 728.946 3.46576 0.279364 0
M  V30 7661 H 728.269 3.97574 -0.421274 0
M  V30 7662 H 729.709 4.19826 0.59348 0
M  V30 7663 C 728.168 3.01815 1.49697 0
M  V30 7664 O 728.698 3.06607 2.59529 0
M  V30 7665 N 726.904 2.57163 1.35334 0
M  V30 7666 H 726.451 2.53464 0.459743 0
M  V30 7667 H 726.409 2.27578 2.16923 0
M  V30 7668 N 730.181 0.707592 1.40822 0
M  V30 7669 C 731.597 0.38034 1.55002 0
M  V30 7670 C 731.797 -1.11163 1.68062 0
M  V30 7671 O 730.853 -1.89761 1.66574 0
M  V30 7672 C 732.166 1.1394 2.78277 0
M  V30 7673 C 733.714 1.12492 2.92087 0
M  V30 7674 C 734.189 1.86597 4.18265 0
M  V30 7675 N 735.68 1.83626 4.25248 0
M  V30 7676 C 736.415 2.37794 5.21768 0
M  V30 7677 N 735.911 3.00485 6.24244 0
M  V30 7678 N 737.704 2.27982 5.13791 0
M  V30 7679 H 729.855 1.67511 1.3059 0
M  V30 7680 H 732.118 0.707579 0.630901 0
M  V30 7681 H 731.824 2.19398 2.74877 0
M  V30 7682 H 731.698 0.725793 3.70151 0
M  V30 7683 H 734.085 0.0785564 2.94995 0
M  V30 7684 H 734.166 1.57768 2.01353 0
M  V30 7685 H 733.81 2.91219 4.16118 0
M  V30 7686 H 733.74 1.38746 5.07993 0
M  V30 7687 H 736.231 1.3793 3.51829 0
M  V30 7688 H 736.544 3.39355 6.94304 0
M  V30 7689 H 734.889 3.04567 6.24711 0
M  V30 7690 H 738.08 1.78669 4.3266 0
M  V30 7691 H 738.253 2.70499 5.88841 0
M  V30 7692 N 731.66 -1.50943 0.453197 0
M  V30 7693 C 732.907 -2.02212 -0.107922 0
M  V30 7694 C 733.235 -1.33639 -1.41318 0
M  V30 7695 O 732.49 -0.445154 -1.9057 0
M  V30 7696 C 732.789 -3.55603 -0.357944 0
M  V30 7697 C 732.455 -4.42556 0.863427 0
M  V30 7698 C 731.117 -4.6604 1.19834 0
M  V30 7699 C 733.469 -4.93468 1.67747 0
M  V30 7700 C 730.797 -5.37681 2.34768 0
M  V30 7701 C 733.149 -5.6637 2.81793 0
M  V30 7702 C 731.813 -5.88113 3.1572 0
M  V30 7703 H 731.083 -0.739947 -0.0394916 0
M  V30 7704 H 733.73 -1.81738 0.60363 0
M  V30 7705 H 732.035 -3.74495 -1.15156 0
M  V30 7706 H 733.732 -3.92821 -0.805781 0
M  V30 7707 H 730.322 -4.24485 0.592478 0
M  V30 7708 H 734.506 -4.75194 1.43192 0
M  V30 7709 H 729.762 -5.52727 2.61348 0
M  V30 7710 H 733.936 -6.04806 3.45229 0
M  V30 7711 H 731.563 -6.43404 4.04889 0
M  V30 7712 N 733.138 -0.185124 -1.56509 0
M  V30 7713 C 734.368 0.461469 -2.0138 0
M  V30 7714 C 734.776 1.56417 -1.06445 0
M  V30 7715 O 734.119 1.83603 -0.0597515 0
M  V30 7716 C 734.181 1.08731 -3.42663 0
M  V30 7717 C 733.845 0.124581 -4.5683 0
M  V30 7718 C 734.842 -0.662295 -5.15664 0
M  V30 7719 C 732.527 0.0163947 -5.02297 0
M  V30 7720 C 734.521 -1.54442 -6.18406 0
M  V30 7721 C 732.208 -0.869301 -6.04885 0
M  V30 7722 C 733.206 -1.64828 -6.62813 0
M  V30 7723 O 732.894 -2.51915 -7.63409 0
M  V30 7724 H 732.626 0.1212 -0.665046 0
M  V30 7725 H 735.18 -0.288119 -2.03369 0
M  V30 7726 H 733.41 1.8853 -3.37629 0
M  V30 7727 H 735.099 1.63753 -3.71403 0
M  V30 7728 H 735.865 -0.588963 -4.81411 0
M  V30 7729 H 731.744 0.61253 -4.56913 0
M  V30 7730 H 735.288 -2.15289 -6.63548 0
M  V30 7731 H 731.185 -0.943786 -6.38563 0
M  V30 7732 H 731.953 -2.45584 -7.80789 0
M  V30 7733 N 734.616 1.57351 0.0885366 0
M  V30 7734 C 735.893 1.77449 0.822873 0
M  V30 7735 C 736.273 0.768463 1.96616 0
M  V30 7736 O 735.621 -0.201757 2.27608 0
M  V30 7737 C 735.831 3.23425 1.31137 0
M  V30 7738 C 737.179 3.86791 1.75152 0
M  V30 7739 O 738.203 3.27215 1.40745 0
M  V30 7740 O 737.062 4.91568 2.38794 0
M  V30 7741 H 734.156 0.727653 0.393002 0
M  V30 7742 H 736.702 1.69556 0.0699095 0
M  V30 7743 H 735.474 3.88188 0.49254 0
M  V30 7744 H 735.097 3.35977 2.12615 0
M  V30 7745 N 736.094 -0.359525 1.53444 0
M  V30 7746 C 737.042 -1.46104 1.80987 0
M  V30 7747 C 738.036 -1.55181 0.679351 0
M  V30 7748 O 739.242 -1.57995 0.862405 0
M  V30 7749 H 735.617 -0.486835 0.573145 0
M  V30 7750 H 737.588 -1.2008 2.73173 0
M  V30 7751 C 736.337 -2.82855 2.02208 0
M  V30 7752 H 735.66 -2.76631 2.88644 0
M  V30 7753 H 737.1 -3.59091 2.25455 0
M  V30 7754 C 735.559 -3.27192 0.802931 0
M  V30 7755 O 736.089 -4.017 -0.00544286 0
M  V30 7756 N 734.295 -2.83807 0.624657 0
M  V30 7757 H 733.842 -2.23339 1.28364 0
M  V30 7758 H 733.8 -3.13828 -0.189641 0
M  V30 7759 N 737.572 -1.44907 -0.619662 0
M  V30 7760 C 738.821 -1.47569 -1.37501 0
M  V30 7761 C 739.134 -0.116707 -1.95252 0
M  V30 7762 O 740.34 -0.020909 -2.71492 0
M  V30 7763 C 738.796 -2.59851 -2.49009 0
M  V30 7764 C 738.404 -4.02008 -1.97722 0
M  V30 7765 C 740.148 -2.71746 -3.2612 0
M  V30 7766 C 738.055 -5.05693 -3.0664 0
M  V30 7767 H 736.985 -0.549068 -0.51676 0
M  V30 7768 H 739.636 -1.71009 -0.665437 0
M  V30 7769 H 738.018 -2.29671 -3.22594 0
M  V30 7770 H 739.192 -4.41809 -1.30925 0
M  V30 7771 H 737.507 -3.94456 -1.33392 0
M  V30 7772 H 740.104 -3.46382 -4.07337 0
M  V30 7773 H 740.447 -1.77959 -3.76346 0
M  V30 7774 H 740.98 -3.01392 -2.5963 0
M  V30 7775 H 737.719 -6.01148 -2.61345 0
M  V30 7776 H 737.239 -4.70473 -3.72042 0
M  V30 7777 H 738.918 -5.29906 -3.71226 0
M  V30 7778 N 739.05 0.861098 -1.31996 0
M  V30 7779 C 739.96 2.00154 -1.22374 0
M  V30 7780 C 740.976 1.73447 -0.138631 0
M  V30 7781 O 742.152 1.98191 -0.358104 0
M  V30 7782 C 739.217 3.33696 -0.940645 0
M  V30 7783 C 738.278 3.73668 -2.11355 0
M  V30 7784 C 737.511 5.00837 -1.84386 0
M  V30 7785 O 737.734 5.64996 -0.783287 0
M  V30 7786 O 736.668 5.37787 -2.70313 0
M  V30 7787 H 740.494 2.11207 -2.18233 0
M  V30 7788 H 738.079 0.990768 -1.11822 0
M  V30 7789 H 739.961 4.13756 -0.798987 0
M  V30 7790 H 738.636 3.23698 -0.0121636 0
M  V30 7791 H 737.543 2.94211 -2.31065 0
M  V30 7792 H 738.876 3.88303 -3.02459 0
M  V30 7793 N 740.528 1.15101 1.07655 0
M  V30 7794 C 741.805 0.834578 1.76902 0
M  V30 7795 C 742.185 -0.670431 2.00171 0
M  V30 7796 O 741.533 -1.61378 1.6177 0
M  V30 7797 C 741.743 1.64191 3.07965 0
M  V30 7798 C 743.091 1.84615 3.82364 0
M  V30 7799 O 744.115 1.60941 3.17768 0
M  V30 7800 O 742.974 2.24244 4.98374 0
M  V30 7801 H 740.068 0.306608 0.768063 0
M  V30 7802 H 742.614 1.25663 1.14048 0
M  V30 7803 H 741.386 2.66386 2.86626 0
M  V30 7804 H 741.009 1.216 3.78549 0
M  V30 7805 N 742.006 -1.2595 0.947325 0
M  V30 7806 C 742.939 -2.24559 0.406009 0
M  V30 7807 C 743.917 -1.54441 -0.508598 0
M  V30 7808 O 745.101 -1.83181 -0.444644 0
M  V30 7809 C 742.228 -3.36136 -0.415987 0
M  V30 7810 C 741.274 -4.24245 0.437969 0
M  V30 7811 S 742.107 -5.01948 1.86572 0
M  V30 7812 C 743.263 -6.16997 1.05194 0
M  V30 7813 H 743.496 -2.70128 1.24171 0
M  V30 7814 H 741.029 -1.34912 0.750874 0
M  V30 7815 H 742.987 -4.00861 -0.88433 0
M  V30 7816 H 741.648 -2.89167 -1.22643 0
M  V30 7817 H 740.841 -5.03634 -0.192127 0
M  V30 7818 H 740.443 -3.64416 0.841235 0
M  V30 7819 H 742.735 -6.76848 0.297126 0
M  V30 7820 H 743.678 -6.84324 1.8195 0
M  V30 7821 H 744.086 -5.61458 0.585294 0
M  V30 7822 N 743.484 -0.715051 -1.40445 0
M  V30 7823 C 744.733 -0.251322 -2.00128 0
M  V30 7824 C 745.046 1.16194 -1.57347 0
M  V30 7825 O 746.252 1.72416 -2.09726 0
M  V30 7826 C 744.708 -0.398407 -3.57688 0
M  V30 7827 C 744.316 -1.81828 -4.09442 0
M  V30 7828 C 746.06 0.00455625 -4.245 0
M  V30 7829 C 743.967 -1.91598 -5.59503 0
M  V30 7830 H 742.897 -0.0902081 -0.748584 0
M  V30 7831 H 745.548 -0.886062 -1.6069 0
M  V30 7832 H 743.93 0.304908 -3.94824 0
M  V30 7833 H 745.104 -2.55193 -3.83684 0
M  V30 7834 H 743.419 -2.17266 -3.55225 0
M  V30 7835 H 746.016 -0.0477303 -5.34679 0
M  V30 7836 H 746.359 1.04636 -4.02935 0
M  V30 7837 H 746.892 -0.649184 -3.92467 0
M  V30 7838 H 743.631 -2.93898 -5.85922 0
M  V30 7839 H 743.151 -1.22644 -5.87127 0
M  V30 7840 H 744.83 -1.68785 -6.24596 0
M  V30 7841 N 744.962 1.50701 -0.461195 0
M  V30 7842 C 746.21 2.01867 0.0970051 0
M  V30 7843 C 746.531 1.34591 1.41104 0
M  V30 7844 O 745.801 0.488041 1.89723 0
M  V30 7845 H 744.381 0.74599 0.0388392 0
M  V30 7846 H 747.043 1.85129 -0.609357 0
M  V30 7847 H 746.139 3.11051 0.255688 0
M  V30 7848 N 746.441 0.193421 1.56409 0
M  V30 7849 C 747.671 -0.450783 2.01622 0
M  V30 7850 C 748.079 -1.5585 1.07273 0
M  V30 7851 O 747.422 -1.83569 0.0694875 0
M  V30 7852 C 747.484 -1.06913 3.43235 0
M  V30 7853 C 747.148 -0.100352 4.5689 0
M  V30 7854 C 748.145 0.689633 5.15306 0
M  V30 7855 C 745.83 0.0102436 5.02299 0
M  V30 7856 C 747.824 1.5772 6.17579 0
M  V30 7857 C 745.511 0.901368 6.04416 0
M  V30 7858 C 746.509 1.68341 6.61929 0
M  V30 7859 O 746.197 2.5596 7.62063 0
M  V30 7860 H 745.929 -0.117671 0.66568 0
M  V30 7861 H 748.483 0.2989 2.03214 0
M  V30 7862 H 746.713 -1.86736 3.38624 0
M  V30 7863 H 748.402 -1.61781 3.72266 0
M  V30 7864 H 749.168 0.614485 4.81092 0
M  V30 7865 H 745.047 -0.58829 4.57231 0
M  V30 7866 H 748.591 2.18805 6.62397 0
M  V30 7867 H 744.488 0.977637 6.38054 0
M  V30 7868 H 745.256 2.49721 7.79475 0
M  V30 7869 N 747.919 -1.57396 -0.0801906 0
M  V30 7870 C 749.335 -1.53564 -0.434778 0
M  V30 7871 C 749.535 -0.912372 -1.79661 0
M  V30 7872 O 748.591 -0.511268 -2.4727 0
M  V30 7873 C 749.904 -2.98244 -0.383561 0
M  V30 7874 C 751.452 -3.09536 -0.46435 0
M  V30 7875 C 751.927 -4.55851 -0.443128 0
M  V30 7876 N 753.418 -4.60456 -0.503448 0
M  V30 7877 C 754.153 -5.71135 -0.509106 0
M  V30 7878 N 753.649 -6.91203 -0.47008 0
M  V30 7879 N 755.442 -5.59353 -0.555035 0
M  V30 7880 H 747.593 -1.96281 0.811635 0
M  V30 7881 H 749.856 -0.898041 0.303689 0
M  V30 7882 H 749.562 -3.47369 0.550236 0
M  V30 7883 H 749.436 -3.57705 -1.19694 0
M  V30 7884 H 751.823 -2.6039 -1.38857 0
M  V30 7885 H 751.904 -2.53 0.377445 0
M  V30 7886 H 751.548 -5.05653 0.477207 0
M  V30 7887 H 751.478 -5.10242 -1.30234 0
M  V30 7888 H 753.969 -3.74048 -0.538199 0
M  V30 7889 H 754.282 -7.7132 -0.478091 0
M  V30 7890 H 752.627 -6.93625 -0.436897 0
M  V30 7891 H 755.818 -4.64453 -0.583158 0
M  V30 7892 H 755.991 -6.4561 -0.555976 0
M  V30 7893 N 749.397 0.351382 -1.53633 0
M  V30 7894 C 750.808 0.927429 -1.62036 0
M  V30 7895 C 751.159 1.89809 -0.496706 0
M  V30 7896 O 750.284 2.1313 0.374749 0
M  V30 7897 C 750.879 1.68886 -2.93706 0
M  V30 7898 C 749.438 2.21404 -3.04397 0
M  V30 7899 C 748.585 1.03075 -2.57431 0
M  V30 7900 H 751.536 0.129748 -1.58169 0
M  V30 7901 H 751.557 2.55116 -2.82305 0
M  V30 7902 H 751.069 0.982149 -3.75467 0
M  V30 7903 H 749.17 2.95274 -2.27253 0
M  V30 7904 H 749.283 2.48312 -4.09729 0
M  V30 7905 H 747.647 1.40188 -2.12649 0
M  V30 7906 H 748.43 0.338793 -3.41624 0
M  V30 7907 N 750.875 1.45233 0.611969 0
M  V30 7908 C 752.286 1.4354 1.19387 0
M  V30 7909 C 752.637 0.160713 1.95541 0
M  V30 7910 O 751.762 -0.737954 2.03429 0
M  V30 7911 C 752.357 2.60045 2.17169 0
M  V30 7912 C 750.916 2.61486 2.70744 0
M  V30 7913 C 750.063 2.35708 1.46072 0
M  V30 7914 H 753.014 1.53536 0.401529 0
M  V30 7915 H 753.035 2.33893 3.00124 0
M  V30 7916 H 752.547 3.52803 1.61714 0
M  V30 7917 H 750.648 1.72721 3.30149 0
M  V30 7918 H 750.761 3.60572 3.15476 0
M  V30 7919 H 749.125 1.85178 1.74875 0
M  V30 7920 H 749.908 3.30606 0.924922 0
M  V30 7921 N 752.353 -0.854086 1.3245 0
M  V30 7922 C 753.578 -1.64597 1.26185 0
M  V30 7923 C 754.003 -1.87357 -0.167074 0
M  V30 7924 O 753.361 -1.42675 -1.11864 0
M  V30 7925 C 753.409 -2.98213 2.02734 0
M  V30 7926 O 752.513 -3.88784 1.37554 0
M  V30 7927 H 751.854 -0.50179 0.434859 0
M  V30 7928 H 754.384 -1.06372 1.74775 0
M  V30 7929 H 754.394 -3.4803 2.1293 0
M  V30 7930 H 753.069 -2.80969 3.06642 0
M  V30 7931 H 751.646 -3.4725 1.3591 0
M  V30 7932 N 753.831 -1.1567 -1.07043 0
M  V30 7933 C 754.761 -0.879348 -2.16309 0
M  V30 7934 C 755.742 0.171311 -1.69235 0
M  V30 7935 O 756.927 0.0250175 -1.94184 0
M  V30 7936 C 754.057 -0.371307 -3.45309 0
M  V30 7937 C 753.011 -1.359 -4.05851 0
M  V30 7938 C 752.337 -0.709678 -5.29969 0
M  V30 7939 C 753.637 -2.72606 -4.45514 0
M  V30 7940 H 755.331 -1.79308 -2.39768 0
M  V30 7941 H 752.877 -0.863558 -1.15233 0
M  V30 7942 H 754.83 -0.164798 -4.21078 0
M  V30 7943 H 753.554 0.577906 -3.21446 0
M  V30 7944 H 752.213 -1.55193 -3.32131 0
M  V30 7945 H 751.861 0.245782 -5.02399 0
M  V30 7946 H 751.561 -1.36886 -5.71433 0
M  V30 7947 H 753.085 -0.513015 -6.08441 0
M  V30 7948 H 754.499 -2.57141 -5.12398 0
M  V30 7949 H 752.896 -3.34927 -4.97939 0
M  V30 7950 H 753.966 -3.28434 -3.56734 0
M  V30 7951 N 755.309 1.25446 -0.953992 0
M  V30 7952 C 756.558 1.92441 -0.604101 0
M  V30 7953 C 756.871 1.75543 0.862796 0
M  V30 7954 O 758.077 2.37106 1.32262 0
M  V30 7955 C 756.533 3.44854 -1.02974 0
M  V30 7956 C 756.141 3.70464 -2.51914 0
M  V30 7957 C 757.885 4.1778 -0.752352 0
M  V30 7958 C 755.792 5.1638 -2.88281 0
M  V30 7959 H 754.722 0.720508 -0.222227 0
M  V30 7960 H 757.373 1.42318 -1.15836 0
M  V30 7961 H 755.755 3.93935 -0.403904 0
M  V30 7962 H 756.929 3.32038 -3.19511 0
M  V30 7963 H 755.244 3.10797 -2.77117 0
M  V30 7964 H 757.841 5.25261 -1.00024 0
M  V30 7965 H 758.184 4.15135 0.311212 0
M  V30 7966 H 758.717 3.74605 -1.33851 0
M  V30 7967 H 755.456 5.24135 -3.93653 0
M  V30 7968 H 754.976 5.55855 -2.25357 0
M  V30 7969 H 756.655 5.84497 -2.77439 0
M  V30 7970 N 756.787 0.722489 1.40064 0
M  V30 7971 C 757.734 0.0743738 2.3068 0
M  V30 7972 C 758.704 -0.743004 1.48555 0
M  V30 7973 O 759.889 -0.705536 1.77276 0
M  V30 7974 C 757.029 -0.836292 3.34814 0
M  V30 7975 C 756.142 -0.00764663 4.31999 0
M  V30 7976 C 755.277 -0.918428 5.232 0
M  V30 7977 C 754.316 -0.0842838 6.12042 0
M  V30 7978 N 753.453 -0.950316 6.95639 0
M  V30 7979 H 758.293 0.852794 2.85537 0
M  V30 7980 H 755.83 0.432222 1.40607 0
M  V30 7981 H 757.788 -1.3786 3.93765 0
M  V30 7982 H 756.418 -1.58082 2.81443 0
M  V30 7983 H 755.47 0.651928 3.74772 0
M  V30 7984 H 756.782 0.63786 4.94705 0
M  V30 7985 H 755.936 -1.52902 5.87116 0
M  V30 7986 H 754.675 -1.59774 4.60786 0
M  V30 7987 H 753.68 0.5392 5.4715 0
M  V30 7988 H 754.905 0.591628 6.76518 0
M  V30 7989 H 752.851 -1.61515 6.35806 0
M  V30 7990 H 752.768 -0.361004 7.55138 0
M  V30 7991 H 754.036 -1.54687 7.63997 0
M  V30 7992 N 758.265 -1.50454 0.469181 0
M  V30 7993 C 759.511 -2.03248 -0.0787241 0
M  V30 7994 C 759.866 -1.34499 -1.37578 0
M  V30 7995 O 759.159 -0.461173 -1.85967 0
M  V30 7996 C 759.353 -3.55963 -0.320207 0
M  V30 7997 C 759.182 -4.3951 0.951893 0
M  V30 7998 C 757.952 -4.82689 1.49465 0
M  V30 7999 C 760.15 -4.79999 1.84677 0
M  V30 8000 N 758.132 -5.50553 2.71597 0
M  V30 8001 C 759.503 -5.47254 2.91398 0
M  V30 8002 C 761.558 -4.61959 1.85738 0
M  V30 8003 C 760.261 -5.98381 3.99166 0
M  V30 8004 C 762.287 -5.14024 2.92461 0
M  V30 8005 C 761.649 -5.81253 3.97901 0
M  V30 8006 H 757.748 -0.78192 0.0111715 0
M  V30 8007 H 760.332 -1.83986 0.636961 0
M  V30 8008 H 758.503 -3.75174 -1.00493 0
M  V30 8009 H 760.235 -3.95407 -0.862285 0
M  V30 8010 H 756.99 -4.61948 1.0441 0
M  V30 8011 H 757.414 -5.89093 3.33615 0
M  V30 8012 H 762.056 -4.09416 1.05539 0
M  V30 8013 H 759.774 -6.49961 4.80183 0
M  V30 8014 H 763.36 -5.01897 2.94263 0
M  V30 8015 H 762.24 -6.20814 4.79123 0
M  V30 8016 N 759.743 -0.201713 -1.56304 0
M  V30 8017 C 760.983 0.437395 -1.99665 0
M  V30 8018 C 761.347 1.58341 -1.08592 0
M  V30 8019 O 762.548 2.28716 -1.41217 0
M  V30 8020 C 760.819 0.879572 -3.46408 0
M  V30 8021 S 762.378 1.51558 -4.11795 0
M  V30 8022 H 759.196 0.139621 -0.697156 0
M  V30 8023 H 761.798 -0.306337 -1.93085 0
M  V30 8024 H 760.502 0.0355295 -4.10385 0
M  V30 8025 H 760.033 1.65661 -3.56819 0
M  V30 8026 H 762.048 2.80445 -4.09347 0
M  V30 8027 N 761.222 1.57436 0.0718424 0
M  V30 8028 C 762.468 1.88388 0.766904 0
M  V30 8029 C 762.823 0.7954 1.75189 0
M  V30 8030 O 762.116 -0.200438 1.90549 0
M  V30 8031 C 762.31 3.23723 1.51455 0
M  V30 8032 C 762.139 4.45632 0.603475 0
M  V30 8033 C 760.909 5.04728 0.240437 0
M  V30 8034 C 763.107 5.14203 -0.0997624 0
M  V30 8035 N 761.089 6.10163 -0.676363 0
M  V30 8036 C 762.46 6.13812 -0.873755 0
M  V30 8037 C 764.515 4.97605 -0.171238 0
M  V30 8038 C 763.218 6.98615 -1.71258 0
M  V30 8039 C 765.244 5.82935 -0.997041 0
M  V30 8040 C 764.606 6.82082 -1.75908 0
M  V30 8041 H 760.705 0.738888 0.256064 0
M  V30 8042 H 763.289 1.94679 0.0284273 0
M  V30 8043 H 761.46 3.1844 2.22375 0
M  V30 8044 H 763.192 3.42324 2.15862 0
M  V30 8045 H 759.947 4.69869 0.593284 0
M  V30 8046 H 760.371 6.67537 -1.12801 0
M  V30 8047 H 765.013 4.20869 0.403586 0
M  V30 8048 H 762.731 7.74726 -2.29838 0
M  V30 8049 H 766.317 5.72149 -1.05532 0
M  V30 8050 H 765.197 7.46964 -2.38778 0
M  V30 8051 N 762.7 -0.34323 1.53817 0
M  V30 8052 C 763.633 -1.44472 1.76644 0
M  V30 8053 C 764.611 -1.50498 0.615556 0
M  V30 8054 O 765.795 -1.6821 0.850751 0
M  V30 8055 C 762.922 -2.82705 1.86536 0
M  V30 8056 C 761.968 -2.94302 3.08688 0
M  V30 8057 S 762.801 -2.60739 4.67735 0
M  V30 8058 C 763.957 -4.01079 4.80506 0
M  V30 8059 H 764.19 -1.24893 2.69794 0
M  V30 8060 H 761.723 -0.538915 1.4469 0
M  V30 8061 H 763.681 -3.62342 1.92921 0
M  V30 8062 H 762.342 -2.9958 0.943975 0
M  V30 8063 H 761.535 -3.95593 3.12286 0
M  V30 8064 H 761.137 -2.22614 3.00531 0
M  V30 8065 H 763.429 -4.95603 4.61935 0
M  V30 8066 H 764.372 -4.02475 5.82597 0
M  V30 8067 H 764.78 -3.89119 4.08958 0
M  V30 8068 N 764.178 -1.45556 -0.604258 0
M  V30 8069 C 765.427 -1.49019 -1.35928 0
M  V30 8070 C 765.74 -0.137409 -1.95117 0
M  V30 8071 O 766.946 -0.0497032 -2.71455 0
M  V30 8072 C 765.402 -2.62477 -2.46239 0
M  V30 8073 C 765.01 -4.04082 -1.93447 0
M  V30 8074 C 766.754 -2.7519 -3.23219 0
M  V30 8075 C 764.661 -5.08917 -3.0126 0
M  V30 8076 H 763.591 -0.554518 -0.510907 0
M  V30 8077 H 766.242 -1.71705 -0.647262 0
M  V30 8078 H 764.624 -2.3308 -3.2014 0
M  V30 8079 H 765.798 -4.43173 -1.26232 0
M  V30 8080 H 764.113 -3.95849 -1.29201 0
M  V30 8081 H 766.71 -3.50683 -4.0364 0
M  V30 8082 H 767.053 -1.81941 -3.74437 0
M  V30 8083 H 767.586 -3.04129 -2.56418 0
M  V30 8084 H 764.325 -6.03886 -2.54955 0
M  V30 8085 H 763.845 -4.74393 -3.67031 0
M  V30 8086 H 765.524 -5.33814 -3.65584 0
M  V30 8087 N 765.656 0.84705 -1.32902 0
M  V30 8088 C 766.589 1.96038 -1.1681 0
M  V30 8089 C 767.567 1.62468 -0.0656144 0
M  V30 8090 O 768.751 1.87136 -0.226339 0
M  V30 8091 C 765.878 3.29362 -0.789839 0
M  V30 8092 C 764.924 3.81908 -1.89865 0
M  V30 8093 S 765.757 4.04576 -3.50826 0
M  V30 8094 C 766.913 5.40863 -3.14989 0
M  V30 8095 H 767.146 2.09387 -2.11055 0
M  V30 8096 H 764.679 0.999896 -1.1765 0
M  V30 8097 H 766.637 4.06405 -0.578369 0
M  V30 8098 H 765.298 3.13815 0.133878 0
M  V30 8099 H 764.491 4.78357 -1.58716 0
M  V30 8100 H 764.093 3.11733 -2.06636 0
M  V30 8101 H 766.385 6.23393 -2.65306 0
M  V30 8102 H 767.328 5.7698 -4.10488 0
M  V30 8103 H 767.736 5.05228 -2.51804 0
M  V30 8104 N 767.134 1.16236 1.06428 0
M  V30 8105 C 768.362 0.967184 1.82902 0
M  V30 8106 C 768.777 -0.484601 1.82475 0
M  V30 8107 O 768.134 -1.33631 1.24294 0
M  V30 8108 C 768.185 1.48534 3.29576 0
M  V30 8109 O 767.906 2.88026 3.3011 0
M  V30 8110 C 769.407 1.33298 4.22784 0
M  V30 8111 H 766.627 0.342923 0.576754 0
M  V30 8112 H 769.171 1.54232 1.34286 0
M  V30 8113 H 767.326 0.952513 3.75508 0
M  V30 8114 H 767.74 3.11721 4.21818 0
M  V30 8115 H 769.214 1.74385 5.23731 0
M  V30 8116 H 769.691 0.278356 4.38317 0
M  V30 8117 H 770.297 1.85535 3.82697 0
M  V30 8118 N 768.612 -1.24939 0.960631 0
M  V30 8119 C 770.023 -1.74701 0.658529 0
M  V30 8120 C 770.374 -1.77967 -0.825959 0
M  V30 8121 O 769.499 -1.40444 -1.64634 0
M  V30 8122 C 770.094 -3.17263 1.18867 0
M  V30 8123 C 768.653 -3.64561 0.936614 0
M  V30 8124 C 767.8 -2.43423 1.32817 0
M  V30 8125 H 770.751 -1.10741 1.13676 0
M  V30 8126 H 770.772 -3.76481 0.551589 0
M  V30 8127 H 770.284 -3.14854 2.26912 0
M  V30 8128 H 768.385 -3.72378 -0.128608 0
M  V30 8129 H 768.498 -4.52392 1.57729 0
M  V30 8130 H 766.862 -2.43513 0.746548 0
M  V30 8131 H 767.645 -2.437 2.41796 0
M  V30 8132 N 770.09 -0.729906 -1.39679 0
M  V30 8133 C 771.338 -0.275077 -2.00219 0
M  V30 8134 C 771.659 1.1401 -1.58199 0
M  V30 8135 O 770.929 1.77546 -0.827904 0
M  V30 8136 H 769.509 -0.0987127 -0.740449 0
M  V30 8137 H 772.171 -0.93873 -1.70804 0
M  V30 8138 H 771.267 -0.319446 -3.10461 0
M  V30 8139 N 771.568 1.50203 -0.477153 0
M  V30 8140 C 772.817 2.01551 0.0774548 0
M  V30 8141 C 773.13 1.36359 1.40234 0
M  V30 8142 O 774.336 1.78898 2.04225 0
M  V30 8143 C 772.792 3.59406 0.188539 0
M  V30 8144 C 772.4 4.3356 -1.12828 0
M  V30 8145 C 774.144 4.18776 0.694782 0
M  V30 8146 C 772.051 5.83213 -0.98066 0
M  V30 8147 H 770.981 0.75329 0.0327212 0
M  V30 8148 H 773.632 1.72959 -0.612969 0
M  V30 8149 H 772.014 3.84611 0.942881 0
M  V30 8150 H 773.188 4.20074 -1.89405 0
M  V30 8151 H 771.503 3.85827 -1.5661 0
M  V30 8152 H 774.1 5.28338 0.822356 0
M  V30 8153 H 774.443 3.80557 1.68766 0
M  V30 8154 H 774.976 3.978 -0.00234519 0
M  V30 8155 H 771.715 6.25914 -1.94709 0
M  V30 8156 H 771.235 5.99256 -0.255375 0
M  V30 8157 H 772.914 6.4373 -0.649717 0
M  V30 8158 N 773.046 0.209999 1.56195 0
M  V30 8159 C 774.286 -0.4268 1.99894 0
M  V30 8160 C 774.65 -1.57763 1.0943 0
M  V30 8161 O 775.851 -2.27964 1.42428 0
M  V30 8162 C 774.122 -0.861188 3.46869 0
M  V30 8163 S 775.681 -1.49372 4.12593 0
M  V30 8164 H 772.499 -0.135922 0.697887 0
M  V30 8165 H 775.101 0.316573 1.9292 0
M  V30 8166 H 773.805 -0.0137653 4.10398 0
M  V30 8167 H 773.336 -1.63766 3.57693 0
M  V30 8168 H 775.351 -2.7827 4.10829 0
M  V30 8169 N 774.524 -1.57472 -0.0634922 0
M  V30 8170 C 775.487 -2.03268 -1.059 0
M  V30 8171 C 776.487 -0.931028 -1.31105 0
M  V30 8172 O 777.677 -1.19567 -1.26686 0
M  V30 8173 C 774.809 -2.42039 -2.40062 0
M  V30 8174 H 776.002 -2.92454 -0.664119 0
M  V30 8175 H 773.555 -1.53206 -0.309444 0
M  V30 8176 H 774.29 -1.55904 -2.84367 0
M  V30 8177 H 774.075 -3.22437 -2.23108 0
M  V30 8178 H 775.565 -2.78017 -3.11603 0
M  V30 8179 N 776.003 0.335068 -1.53997 0
M  V30 8180 C 777.251 1.07223 -1.71312 0
M  V30 8181 C 777.572 1.88911 -0.483486 0
M  V30 8182 O 776.842 1.89344 0.50257 0
M  V30 8183 H 775.422 0.398846 -0.63161 0
M  V30 8184 H 778.084 0.374288 -1.91272 0
M  V30 8185 H 777.18 1.7448 -2.58772 0
M  V30 8186 N 777.481 1.45874 0.596531 0
M  V30 8187 C 778.73 1.49737 1.35135 0
M  V30 8188 C 779.043 0.147755 1.95041 0
M  V30 8189 O 780.249 0.0640984 2.71424 0
M  V30 8190 C 778.705 2.6378 2.44843 0
M  V30 8191 C 778.313 4.05102 1.91301 0
M  V30 8192 C 780.057 2.769 3.21755 0
M  V30 8193 C 777.964 5.10508 2.98557 0
M  V30 8194 H 776.894 0.557219 0.507959 0
M  V30 8195 H 779.545 1.72046 0.638147 0
M  V30 8196 H 777.927 2.34774 3.189 0
M  V30 8197 H 779.101 4.43836 1.2388 0
M  V30 8198 H 777.416 3.96528 1.271 0
M  V30 8199 H 780.013 3.52819 4.01775 0
M  V30 8200 H 780.356 1.83924 3.73467 0
M  V30 8201 H 780.889 3.05485 2.54802 0
M  V30 8202 H 777.628 6.0523 2.51749 0
M  V30 8203 H 777.148 4.76332 3.6451 0
M  V30 8204 H 778.827 5.35745 3.62748 0
M  V30 8205 N 778.959 -0.83999 1.33349 0
M  V30 8206 C 780.206 -1.59517 1.24742 0
M  V30 8207 C 780.534 -1.93598 -0.187077 0
M  V30 8208 O 779.789 -1.58782 -1.14398 0
M  V30 8209 C 780.088 -2.91571 2.06691 0
M  V30 8210 C 779.754 -2.76856 3.55895 0
M  V30 8211 C 778.416 -2.72551 3.96572 0
M  V30 8212 C 780.768 -2.61741 4.50712 0
M  V30 8213 C 778.096 -2.51028 5.30285 0
M  V30 8214 C 780.448 -2.41752 5.84584 0
M  V30 8215 C 779.112 -2.35848 6.24445 0
M  V30 8216 H 778.382 -0.583714 0.456463 0
M  V30 8217 H 781.029 -0.973261 1.64924 0
M  V30 8218 H 779.334 -3.57961 1.59284 0
M  V30 8219 H 781.031 -3.49053 1.9739 0
M  V30 8220 H 777.621 -2.81039 3.23597 0
M  V30 8221 H 781.805 -2.64102 4.20195 0
M  V30 8222 H 777.061 -2.44903 5.60208 0
M  V30 8223 H 781.235 -2.2904 6.57658 0
M  V30 8224 H 778.862 -2.18931 7.27993 0
M  V30 8225 N 780.437 -1.16799 -1.0581 0
M  V30 8226 C 781.686 -0.94698 -1.78088 0
M  V30 8227 C 781.999 0.526016 -1.88394 0
M  V30 8228 O 783.205 0.865061 -2.5735 0
M  V30 8229 C 781.661 -1.64508 -3.20102 0
M  V30 8230 C 781.269 -3.15618 -3.17946 0
M  V30 8231 C 783.013 -1.50622 -3.96879 0
M  V30 8232 C 780.92 -3.78144 -4.5471 0
M  V30 8233 H 779.85 -0.35067 -0.667493 0
M  V30 8234 H 782.501 -1.39985 -1.18645 0
M  V30 8235 H 780.883 -1.11993 -3.79834 0
M  V30 8236 H 782.057 -3.75016 -2.67768 0
M  V30 8237 H 780.372 -3.29444 -2.54667 0
M  V30 8238 H 782.969 -1.94713 -4.97987 0
M  V30 8239 H 783.312 -0.455864 -4.13797 0
M  V30 8240 H 783.845 -2.00319 -3.43682 0
M  V30 8241 H 780.584 -4.83149 -4.42998 0
M  V30 8242 H 780.104 -3.23532 -5.05062 0
M  V30 8243 H 781.783 -3.79986 -5.2366 0
M  V30 8244 N 781.915 1.24427 -0.967243 0
M  V30 8245 C 783.162 1.92487 -0.62888 0
M  V30 8246 C 783.49 1.75623 0.835871 0
M  V30 8247 O 782.745 1.1027 1.61675 0
M  V30 8248 C 783.044 3.44568 -0.949096 0
M  V30 8249 C 782.71 3.816 -2.40192 0
M  V30 8250 C 781.372 3.9142 -2.799 0
M  V30 8251 C 783.724 3.99715 -3.34481 0
M  V30 8252 C 781.052 4.16771 -4.12939 0
M  V30 8253 C 783.404 4.26562 -4.67148 0
M  V30 8254 C 782.068 4.34601 -5.06634 0
M  V30 8255 H 781.338 0.704361 -0.230124 0
M  V30 8256 H 783.985 1.4772 -1.21864 0
M  V30 8257 H 782.29 3.90819 -0.277085 0
M  V30 8258 H 783.987 3.95436 -0.665692 0
M  V30 8259 H 780.577 3.74522 -2.08402 0
M  V30 8260 H 784.761 3.91531 -3.04987 0
M  V30 8261 H 780.017 4.21214 -4.43158 0
M  V30 8262 H 784.191 4.39523 -5.40178 0
M  V30 8263 H 781.818 4.53998 -6.09746 0
M  V30 8264 N 783.393 0.737304 1.3929 0
M  V30 8265 C 784.64 0.286257 2.00467 0
M  V30 8266 C 784.968 -1.1272 1.58507 0
M  V30 8267 O 784.223 -1.7832 0.806257 0
M  V30 8268 C 784.522 0.338438 3.55794 0
M  V30 8269 C 784.188 1.70524 4.17411 0
M  V30 8270 C 782.85 2.07934 4.33955 0
M  V30 8271 C 785.202 2.60256 4.51571 0
M  V30 8272 C 782.53 3.34578 4.81948 0
M  V30 8273 C 784.882 3.86275 5.00974 0
M  V30 8274 C 783.546 4.23774 5.15725 0
M  V30 8275 H 782.816 0.104749 0.733559 0
M  V30 8276 H 785.463 0.944598 1.66582 0
M  V30 8277 H 783.768 -0.403478 3.89717 0
M  V30 8278 H 785.465 -0.0287255 4.0099 0
M  V30 8279 H 782.055 1.40439 4.04938 0
M  V30 8280 H 786.239 2.32624 4.38406 0
M  V30 8281 H 781.495 3.63572 4.91554 0
M  V30 8282 H 785.669 4.5596 5.26378 0
M  V30 8283 H 783.296 5.21972 5.52674 0
M  V30 8284 N 784.871 -1.49948 0.485112 0
M  V30 8285 C 785.801 -2.31675 -0.291364 0
M  V30 8286 C 786.782 -1.39216 -0.977383 0
M  V30 8287 O 787.967 -1.68133 -0.971855 0
M  V30 8288 C 785.097 -3.19326 -1.36558 0
M  V30 8289 C 784.051 -4.2045 -0.800359 0
M  V30 8290 C 783.377 -4.96931 -1.97391 0
M  V30 8291 C 784.677 -5.21925 0.197867 0
M  V30 8292 H 786.371 -2.96839 0.390775 0
M  V30 8293 H 783.917 -1.42749 0.189375 0
M  V30 8294 H 785.87 -3.75304 -1.91638 0
M  V30 8295 H 784.594 -2.52074 -2.07668 0
M  V30 8296 H 783.253 -3.65594 -0.271428 0
M  V30 8297 H 782.901 -4.26141 -2.67232 0
M  V30 8298 H 782.601 -5.65344 -1.60187 0
M  V30 8299 H 784.125 -5.55749 -2.52935 0
M  V30 8300 H 785.539 -5.72691 -0.264239 0
M  V30 8301 H 783.936 -5.98138 0.484908 0
M  V30 8302 H 785.006 -4.71809 1.11912 0
M  V30 8303 N 786.349 -0.21828 -1.56081 0
M  V30 8304 C 787.598 0.414644 -1.97392 0
M  V30 8305 C 787.911 1.61132 -1.10887 0
M  V30 8306 O 789.117 2.31355 -1.42082 0
M  V30 8307 C 787.573 0.789099 -3.51143 0
M  V30 8308 C 787.181 -0.384578 -4.46346 0
M  V30 8309 C 788.925 1.38781 -4.01173 0
M  V30 8310 C 786.832 0.0121288 -5.91399 0
M  V30 8311 H 785.762 0.158691 -0.737111 0
M  V30 8312 H 788.413 -0.313974 -1.80794 0
M  V30 8313 H 786.795 1.57505 -3.6333 0
M  V30 8314 H 787.969 -1.16212 -4.45905 0
M  V30 8315 H 786.284 -0.896306 -4.06639 0
M  V30 8316 H 788.881 1.69746 -5.07041 0
M  V30 8317 H 789.224 2.30245 -3.46833 0
M  V30 8318 H 789.757 0.665364 -3.92196 0
M  V30 8319 H 786.496 -0.868917 -6.49715 0
M  V30 8320 H 786.016 0.754053 -5.95041 0
M  V30 8321 H 787.695 0.439949 -6.45502 0
M  V30 8322 N 787.827 1.57504 0.0551401 0
M  V30 8323 C 788.774 2.04825 1.06373 0
M  V30 8324 C 789.744 0.932108 1.37481 0
M  V30 8325 O 790.929 1.20093 1.48265 0
M  V30 8326 C 788.069 2.51091 2.36743 0
M  V30 8327 C 787.182 3.76392 2.12021 0
M  V30 8328 C 786.317 4.11373 3.36074 0
M  V30 8329 C 785.356 5.29666 3.0679 0
M  V30 8330 N 784.493 5.60205 4.2322 0
M  V30 8331 H 789.333 2.90753 0.653216 0
M  V30 8332 H 786.87 1.43776 0.310951 0
M  V30 8333 H 788.828 2.75973 3.12881 0
M  V30 8334 H 787.458 1.68118 2.75565 0
M  V30 8335 H 786.51 3.58751 1.26498 0
M  V30 8336 H 787.822 4.62662 1.86401 0
M  V30 8337 H 786.976 4.37245 4.20597 0
M  V30 8338 H 785.715 3.23704 3.64784 0
M  V30 8339 H 784.72 5.03574 2.20664 0
M  V30 8340 H 785.945 6.18968 2.79385 0
M  V30 8341 H 783.891 4.75495 4.5193 0
M  V30 8342 H 783.808 6.40928 4.00933 0
M  V30 8343 H 785.076 5.90637 5.08692 0
M  V30 8344 N 789.305 -0.326896 1.54172 0
M  V30 8345 C 790.535 -1.08328 1.75922 0
M  V30 8346 C 790.943 -1.82302 0.50622 0
M  V30 8347 O 790.286 -1.7581 -0.532581 0
M  V30 8348 C 790.348 -2.1294 2.8965 0
M  V30 8349 C 790.012 -1.58394 4.28673 0
M  V30 8350 C 791.009 -1.02747 5.09646 0
M  V30 8351 C 788.694 -1.62737 4.75207 0
M  V30 8352 C 790.688 -0.52169 6.35261 0
M  V30 8353 C 788.375 -1.11772 6.00791 0
M  V30 8354 C 789.373 -0.565819 6.80652 0
M  V30 8355 O 789.061 -0.0638146 8.03875 0
M  V30 8356 H 788.793 -0.3282 0.590983 0
M  V30 8357 H 791.347 -0.37972 2.0186 0
M  V30 8358 H 789.577 -2.86903 2.59275 0
M  V30 8359 H 791.266 -2.74274 2.99213 0
M  V30 8360 H 792.032 -0.987007 4.74851 0
M  V30 8361 H 787.911 -2.04635 4.13093 0
M  V30 8362 H 791.455 -0.0902544 6.97542 0
M  V30 8363 H 787.352 -1.15524 6.35078 0
M  V30 8364 H 788.12 -0.17955 8.18303 0
M  V30 8365 N 790.784 -1.46188 -0.588786 0
M  V30 8366 C 791.731 -1.56292 -1.69828 0
M  V30 8367 C 792.701 -0.407581 -1.61022 0
M  V30 8368 O 793.886 -0.623532 -1.80324 0
M  V30 8369 C 791.026 -1.55341 -3.08161 0
M  V30 8370 C 790.139 -2.81564 -3.27636 0
M  V30 8371 C 789.274 -2.72158 -4.56183 0
M  V30 8372 C 788.313 -3.93348 -4.68981 0
M  V30 8373 N 787.45 -3.82365 -5.88848 0
M  V30 8374 H 792.29 -2.51066 -1.6053 0
M  V30 8375 H 789.827 -1.24562 -0.782474 0
M  V30 8376 H 791.785 -1.52776 -3.88221 0
M  V30 8377 H 790.415 -0.641034 -3.16371 0
M  V30 8378 H 789.467 -2.94136 -2.41223 0
M  V30 8379 H 790.779 -3.714 -3.32962 0
M  V30 8380 H 789.933 -2.67665 -5.44464 0
M  V30 8381 H 788.672 -1.79953 -4.53286 0
M  V30 8382 H 787.677 -3.98181 -3.7912 0
M  V30 8383 H 788.902 -4.86643 -4.73662 0
M  V30 8384 H 786.848 -2.92942 -5.86959 0
M  V30 8385 H 786.765 -4.65851 -5.95415 0
M  V30 8386 H 788.033 -3.81836 -6.79575 0
M  V30 8387 N 792.262 0.832906 -1.33792 0
M  V30 8388 C 793.673 1.40489 -1.22963 0
M  V30 8389 C 794.024 1.95633 0.149026 0
M  V30 8390 O 793.149 1.8928 1.04891 0
M  V30 8391 C 793.744 2.55387 -2.22627 0
M  V30 8392 C 792.303 3.08522 -2.15618 0
M  V30 8393 C 791.45 1.81347 -2.09782 0
M  V30 8394 H 794.401 0.638156 -1.45304 0
M  V30 8395 H 794.422 3.33193 -1.83746 0
M  V30 8396 H 793.934 2.15222 -3.22957 0
M  V30 8397 H 792.035 3.53217 -1.18611 0
M  V30 8398 H 792.148 3.6829 -3.0643 0
M  V30 8399 H 790.512 2.01839 -1.55349 0
M  V30 8400 H 791.295 1.43369 -3.1193 0
M  V30 8401 N 793.74 1.17359 1.05189 0
M  V30 8402 C 794.67 0.91365 2.14883 0
M  V30 8403 C 795.651 -0.144365 1.69486 0
M  V30 8404 O 796.836 0.00587861 1.94199 0
M  V30 8405 C 793.966 0.426196 3.44675 0
M  V30 8406 C 792.92 1.4234 4.03638 0
M  V30 8407 C 792.246 0.793902 5.28773 0
M  V30 8408 C 793.546 2.7966 4.41121 0
M  V30 8409 H 795.24 1.831 2.36885 0
M  V30 8410 H 792.786 0.881781 1.13845 0
M  V30 8411 H 794.739 0.231767 4.20762 0
M  V30 8412 H 793.463 -0.526693 3.22325 0
M  V30 8413 H 792.122 1.60457 3.2962 0
M  V30 8414 H 791.77 -0.165824 5.02727 0
M  V30 8415 H 791.47 1.45959 5.69183 0
M  V30 8416 H 792.994 0.609747 6.07548 0
M  V30 8417 H 794.408 2.6526 5.08242 0
M  V30 8418 H 792.805 3.42807 4.92548 0
M  V30 8419 H 793.875 3.34068 3.51464 0
M  V30 8420 N 795.218 -1.23913 0.973828 0
M  V30 8421 C 796.165 -2.25132 0.508366 0
M  V30 8422 C 797.135 -1.59908 -0.449307 0
M  V30 8423 O 798.32 -1.87405 -0.358313 0
M  V30 8424 C 795.46 -3.4458 -0.189422 0
M  V30 8425 C 794.573 -4.24381 0.807738 0
M  V30 8426 C 793.708 -5.31131 0.0854315 0
M  V30 8427 C 792.747 -6.02635 1.07225 0
M  V30 8428 N 791.884 -7.01073 0.379535 0
M  V30 8429 H 796.724 -2.64313 1.37632 0
M  V30 8430 H 794.261 -1.29924 0.689802 0
M  V30 8431 H 796.219 -4.12706 -0.610733 0
M  V30 8432 H 794.849 -3.06218 -1.02129 0
M  V30 8433 H 793.901 -3.55735 1.34747 0
M  V30 8434 H 795.213 -4.73778 1.55998 0
M  V30 8435 H 794.367 -6.05422 -0.393572 0
M  V30 8436 H 793.106 -4.82658 -0.699461 0
M  V30 8437 H 792.111 -5.27143 1.56207 0
M  V30 8438 H 793.336 -6.53197 1.85769 0
M  V30 8439 H 791.282 -6.54862 -0.386269 0
M  V30 8440 H 791.199 -7.48382 1.07054 0
M  V30 8441 H 792.467 -7.79462 -0.0772984 0
M  V30 8442 N 796.696 -0.74468 -1.38897 0
M  V30 8443 C 797.926 -0.306982 -2.04307 0
M  V30 8444 C 798.334 1.06652 -1.56275 0
M  V30 8445 O 797.677 1.68699 -0.72708 0
M  V30 8446 C 797.739 -0.241186 -3.5869 0
M  V30 8447 C 797.403 -1.55476 -4.2974 0
M  V30 8448 C 798.4 -2.50229 -4.55721 0
M  V30 8449 C 796.085 -1.82173 -4.68101 0
M  V30 8450 C 798.079 -3.69905 -5.19085 0
M  V30 8451 C 795.766 -3.02125 -5.31191 0
M  V30 8452 C 796.764 -3.95812 -5.56616 0
M  V30 8453 O 796.452 -5.13656 -6.18395 0
M  V30 8454 H 796.184 -0.130416 -0.663301 0
M  V30 8455 H 798.738 -1.01192 -1.78744 0
M  V30 8456 H 796.968 0.519925 -3.83189 0
M  V30 8457 H 798.657 0.165806 -4.05561 0
M  V30 8458 H 799.423 -2.30877 -4.26522 0
M  V30 8459 H 795.302 -1.10091 -4.47662 0
M  V30 8460 H 798.846 -4.43047 -5.38846 0
M  V30 8461 H 794.743 -3.21374 -5.59811 0
M  V30 8462 H 795.511 -5.14119 -6.36886 0
M  V30 8463 N 798.174 1.49689 -0.493057 0
M  V30 8464 C 799.122 2.30613 0.303383 0
M  V30 8465 C 800.116 1.38867 0.970165 0
M  V30 8466 O 801.322 1.55956 0.898761 0
M  V30 8467 H 797.697 0.742891 0.116691 0
M  V30 8468 H 799.668 2.95717 -0.39924 0
M  V30 8469 C 798.417 3.20008 1.35978 0
M  V30 8470 H 797.74 3.90526 0.856103 0
M  V30 8471 H 799.18 3.79586 1.88919 0
M  V30 8472 C 797.639 2.39079 2.37367 0
M  V30 8473 O 798.169 2.08933 3.43089 0
M  V30 8474 N 796.375 2.0125 2.09635 0
M  V30 8475 H 795.922 2.25966 1.23682 0
M  V30 8476 H 795.88 1.47408 2.77702 0
M  V30 8477 N 799.652 0.226554 1.55963 0
M  V30 8478 C 800.6 -0.697922 2.21882 0
M  V30 8479 C 801.594 -1.19586 1.19981 0
M  V30 8480 O 802.8 -1.15511 1.38048 0
M  V30 8481 H 799.175 -0.243501 0.711485 0
M  V30 8482 H 801.146 -0.118576 2.98164 0
M  V30 8483 C 799.895 -1.89309 2.91646 0
M  V30 8484 H 799.218 -1.51906 3.69817 0
M  V30 8485 H 800.658 -2.51762 3.41162 0
M  V30 8486 C 799.117 -2.75162 1.94391 0
M  V30 8487 O 799.647 -3.74071 1.46402 0
M  V30 8488 N 797.853 -2.41302 1.61932 0
M  V30 8489 H 797.4 -1.60923 2.01151 0
M  V30 8490 H 797.358 -2.99023 0.971219 0
M  V30 8491 N 801.13 -1.57531 -0.0467866 0
M  V30 8492 C 802.379 -1.87632 -0.740069 0
M  V30 8493 C 802.692 -0.822691 -1.77457 0
M  V30 8494 O 803.898 -1.01235 -2.5192 0
M  V30 8495 C 802.354 -3.32917 -1.36727 0
M  V30 8496 C 801.962 -4.46469 -0.370035 0
M  V30 8497 C 803.706 -3.72189 -2.04146 0
M  V30 8498 C 801.613 -5.82806 -1.00457 0
M  V30 8499 H 800.543 -0.70002 -0.280158 0
M  V30 8500 H 803.194 -1.83499 0.00607151 0
M  V30 8501 H 801.576 -3.31739 -2.16252 0
M  V30 8502 H 802.75 -4.59085 0.397217 0
M  V30 8503 H 801.065 -4.15914 0.201079 0
M  V30 8504 H 803.662 -4.71357 -2.52441 0
M  V30 8505 H 804.005 -3.03268 -2.85192 0
M  V30 8506 H 804.538 -3.75465 -1.3142 0
M  V30 8507 H 801.277 -6.55083 -0.233907 0
M  V30 8508 H 800.797 -5.73944 -1.74209 0
M  V30 8509 H 802.476 -6.28961 -1.51713 0
M  V30 8510 N 802.608 0.318715 -1.54344 0
M  V30 8511 C 803.838 1.07394 -1.76494 0
M  V30 8512 C 804.246 1.82031 -0.515881 0
M  V30 8513 O 803.589 1.7609 0.52325 0
M  V30 8514 C 803.651 2.11401 -2.90775 0
M  V30 8515 C 803.315 1.56118 -4.29507 0
M  V30 8516 C 804.312 1.00043 -5.10184 0
M  V30 8517 C 801.997 1.60215 -4.76063 0
M  V30 8518 C 803.991 0.487993 -6.35529 0
M  V30 8519 C 801.678 1.08584 -6.01376 0
M  V30 8520 C 802.676 0.529714 -6.80943 0
M  V30 8521 O 802.364 0.0211823 -8.03897 0
M  V30 8522 H 802.096 0.325061 -0.592715 0
M  V30 8523 H 804.65 0.36901 -2.02058 0
M  V30 8524 H 802.88 2.85524 -2.60793 0
M  V30 8525 H 804.569 2.72683 -3.00664 0
M  V30 8526 H 805.335 0.961811 -4.75367 0
M  V30 8527 H 801.214 2.02441 -4.14172 0
M  V30 8528 H 804.758 0.0532608 -6.9758 0
M  V30 8529 H 800.655 1.12155 -6.35682 0
M  V30 8530 H 801.423 0.136151 -8.18387 0
M  V30 8531 N 804.086 1.46499 0.581025 0
M  V30 8532 C 805.314 1.5547 1.36517 0
M  V30 8533 C 805.729 0.196407 1.87776 0
M  V30 8534 O 805.086 -0.806577 1.63709 0
M  V30 8535 C 805.137 2.56084 2.55154 0
M  V30 8536 O 804.858 3.86637 2.06018 0
M  V30 8537 C 806.359 2.75011 3.47683 0
M  V30 8538 H 803.579 0.525703 0.416986 0
M  V30 8539 H 806.123 1.9192 0.706177 0
M  V30 8540 H 804.278 2.22633 3.17039 0
M  V30 8541 H 804.692 4.41413 2.83292 0
M  V30 8542 H 806.166 3.49329 4.27403 0
M  V30 8543 H 806.643 1.81978 3.99726 0
M  V30 8544 H 807.249 3.09565 2.91632 0
M  V30 8545 N 805.565 -0.825799 1.34232 0
M  V30 8546 C 806.795 -1.61129 1.29309 0
M  V30 8547 C 807.203 -1.88714 -0.135589 0
M  V30 8548 O 806.546 -1.47703 -1.09222 0
M  V30 8549 C 806.608 -2.97866 2.01287 0
M  V30 8550 C 806.272 -2.9319 3.50555 0
M  V30 8551 C 807.269 -2.67978 4.45515 0
M  V30 8552 C 804.954 -3.12913 3.92926 0
M  V30 8553 C 806.948 -2.62536 5.80822 0
M  V30 8554 C 804.635 -3.07096 5.28333 0
M  V30 8555 C 805.633 -2.8194 6.22092 0
M  V30 8556 O 805.321 -2.7605 7.55018 0
M  V30 8557 H 805.053 -0.507652 0.446391 0
M  V30 8558 H 807.607 -1.03575 1.77374 0
M  V30 8559 H 805.837 -3.57327 1.47832 0
M  V30 8560 H 807.526 -3.58848 1.89691 0
M  V30 8561 H 808.292 -2.52478 4.14101 0
M  V30 8562 H 804.171 -3.3151 3.20347 0
M  V30 8563 H 807.715 -2.42821 6.53975 0
M  V30 8564 H 803.612 -3.22148 5.59367 0
M  V30 8565 H 804.38 -2.91798 7.6472 0
M  V30 8566 N 807.043 -1.17915 -1.04565 0
M  V30 8567 C 808.454 -0.976383 -1.59134 0
M  V30 8568 C 808.805 0.475267 -1.90357 0
M  V30 8569 O 807.93 1.35172 -1.6899 0
M  V30 8570 C 808.525 -1.76604 -2.89131 0
M  V30 8571 C 807.084 -1.60777 -3.40335 0
M  V30 8572 C 806.231 -1.76369 -2.13985 0
M  V30 8573 H 809.182 -1.32532 -0.872985 0
M  V30 8574 H 809.203 -1.25215 -3.59307 0
M  V30 8575 H 808.715 -2.82252 -2.66375 0
M  V30 8576 H 806.816 -0.576436 -3.68114 0
M  V30 8577 H 806.929 -2.40268 -4.14497 0
M  V30 8578 H 805.293 -1.19268 -2.25049 0
M  V30 8579 H 806.076 -2.83441 -1.9369 0
M  V30 8580 N 808.521 1.23394 -0.980386 0
M  V30 8581 C 809.484 2.23092 -0.525619 0
M  V30 8582 C 810.484 1.56129 0.384745 0
M  V30 8583 O 811.674 1.73284 0.178439 0
M  V30 8584 C 808.806 3.40074 0.23712 0
M  V30 8585 H 809.999 2.64839 -1.40714 0
M  V30 8586 H 807.552 1.36227 -0.766275 0
M  V30 8587 H 808.287 3.03783 1.13518 0
M  V30 8588 H 808.072 3.89883 -0.416356 0
M  V30 8589 H 809.562 4.14043 0.543892 0
M  V30 8590 N 809.999 0.752036 1.385 0
M  V30 8591 C 811.245 0.316909 2.00916 0
M  V30 8592 C 811.6 -1.08884 1.58625 0
M  V30 8593 O 810.893 -1.73494 0.813047 0
M  V30 8594 C 811.087 0.376155 3.55415 0
M  V30 8595 C 810.916 1.78612 4.12708 0
M  V30 8596 C 809.686 2.4023 4.44542 0
M  V30 8597 C 811.884 2.74253 4.35075 0
M  V30 8598 N 809.866 3.73204 4.87434 0
M  V30 8599 C 811.237 3.9199 4.80358 0
M  V30 8600 C 813.292 2.71795 4.17171 0
M  V30 8601 C 811.995 5.07627 5.09615 0
M  V30 8602 C 814.021 3.86589 4.47552 0
M  V30 8603 C 813.383 5.03064 4.93058 0
M  V30 8604 H 809.482 0.16259 0.764911 0
M  V30 8605 H 812.066 0.981657 1.68142 0
M  V30 8606 H 810.237 -0.258317 3.8754 0
M  V30 8607 H 811.969 -0.0791421 4.04623 0
M  V30 8608 H 808.724 1.92009 4.32931 0
M  V30 8609 H 809.148 4.41519 5.13215 0
M  V30 8610 H 813.79 1.82929 3.81178 0
M  V30 8611 H 811.508 5.97109 5.44506 0
M  V30 8612 H 815.094 3.86005 4.35306 0
M  V30 8613 H 813.974 5.90417 5.16118 0
M  V30 8614 N 811.477 -1.49425 0.500989 0
M  V30 8615 C 812.725 -2.02053 -0.0434495 0
M  V30 8616 C 813.046 -1.38285 -1.37486 0
M  V30 8617 O 812.316 -0.538171 -1.88363 0
M  V30 8618 H 810.896 -0.746757 -0.0190469 0
M  V30 8619 H 813.558 -1.83449 0.658227 0
M  V30 8620 H 812.654 -3.11619 -0.173129 0
M  V30 8621 N 812.955 -0.234822 -1.55841 0
M  V30 8622 C 814.185 0.397168 -2.02746 0
M  V30 8623 C 814.593 1.52951 -1.11367 0
M  V30 8624 O 813.936 1.8332 -0.118133 0
M  V30 8625 C 813.998 0.977748 -3.45948 0
M  V30 8626 C 813.662 -0.0208193 -4.56995 0
M  V30 8627 C 814.659 -0.826015 -5.13296 0
M  V30 8628 C 812.344 -0.143416 -5.02095 0
M  V30 8629 C 814.338 -1.74038 -6.1318 0
M  V30 8630 C 812.025 -1.0613 -6.01814 0
M  V30 8631 C 813.023 -1.85832 -6.57233 0
M  V30 8632 O 812.711 -2.76075 -7.55008 0
M  V30 8633 H 812.443 0.0999802 -0.668566 0
M  V30 8634 H 814.997 -0.352673 -2.0235 0
M  V30 8635 H 813.227 1.77693 -3.43456 0
M  V30 8636 H 814.916 1.51854 -3.76424 0
M  V30 8637 H 815.682 -0.741822 -4.79293 0
M  V30 8638 H 811.561 0.466857 -4.5863 0
M  V30 8639 H 815.105 -2.36291 -6.56363 0
M  V30 8640 H 811.002 -1.14646 -6.35237 0
M  V30 8641 H 811.77 -2.703 -7.7258 0
M  V30 8642 N 814.433 1.57553 0.0384317 0
M  V30 8643 C 815.681 1.88468 0.729672 0
M  V30 8644 C 816.002 0.831302 1.76393 0
M  V30 8645 O 815.272 -0.13622 1.95426 0
M  V30 8646 H 813.852 0.695529 0.272485 0
M  V30 8647 H 816.514 1.94899 0.0066032 0
M  V30 8648 H 815.61 2.8705 1.22511 0
M  V30 8649 N 815.911 -0.310526 1.54511 0
M  V30 8650 C 817.16 -1.0445 1.72549 0
M  V30 8651 C 817.473 -1.88748 0.513172 0
M  V30 8652 O 818.679 -2.65338 0.575165 0
M  V30 8653 C 817.135 -1.90665 3.05246 0
M  V30 8654 C 816.743 -1.11415 4.33925 0
M  V30 8655 C 818.487 -2.63719 3.32645 0
M  V30 8656 C 816.394 -1.96852 5.57677 0
M  V30 8657 H 815.324 -0.393676 0.643067 0
M  V30 8658 H 817.975 -0.302003 1.80998 0
M  V30 8659 H 816.357 -2.68864 2.90737 0
M  V30 8660 H 817.531 -0.378956 4.59239 0
M  V30 8661 H 815.846 -0.499853 4.13389 0
M  V30 8662 H 818.443 -3.27974 4.223 0
M  V30 8663 H 818.786 -3.32047 2.51098 0
M  V30 8664 H 819.319 -1.92574 3.48081 0
M  V30 8665 H 816.058 -1.33009 6.41864 0
M  V30 8666 H 815.578 -2.68069 5.36562 0
M  V30 8667 H 817.257 -2.55127 5.94575 0
M  V30 8668 N 817.389 -1.46805 -0.573248 0
M  V30 8669 C 818.637 -1.52302 -1.32847 0
M  V30 8670 C 818.958 -0.180159 -1.94166 0
M  V30 8671 O 818.228 0.794291 -1.79075 0
M  V30 8672 H 816.808 -0.56097 -0.493276 0
M  V30 8673 H 819.47 -1.82998 -0.670642 0
M  V30 8674 H 818.566 -2.28089 -2.13031 0
M  V30 8675 N 818.867 0.818669 -1.34668 0
M  V30 8676 C 820.113 1.577 -1.28461 0
M  V30 8677 C 820.468 1.91867 0.143057 0
M  V30 8678 O 819.761 1.57545 1.09041 0
M  V30 8679 C 819.955 2.88245 -2.11304 0
M  V30 8680 C 819.784 2.66831 -3.61982 0
M  V30 8681 C 818.554 2.63346 -4.3125 0
M  V30 8682 C 820.752 2.38049 -4.55892 0
M  V30 8683 N 818.734 2.33522 -5.67751 0
M  V30 8684 C 820.105 2.17957 -5.80426 0
M  V30 8685 C 822.16 2.23812 -4.44761 0
M  V30 8686 C 820.863 1.8507 -6.95084 0
M  V30 8687 C 822.889 1.92321 -5.59255 0
M  V30 8688 C 822.251 1.73056 -6.82811 0
M  V30 8689 H 818.35 0.579284 -0.525314 0
M  V30 8690 H 820.934 0.959336 -1.69425 0
M  V30 8691 H 819.105 3.47927 -1.7263 0
M  V30 8692 H 820.837 3.53677 -1.96709 0
M  V30 8693 H 817.592 2.7757 -3.83734 0
M  V30 8694 H 818.016 2.21438 -6.39761 0
M  V30 8695 H 822.658 2.3741 -3.49852 0
M  V30 8696 H 820.376 1.7021 -7.89971 0
M  V30 8697 H 823.962 1.82031 -5.5259 0
M  V30 8698 H 822.842 1.49042 -7.69907 0
M  V30 8699 N 820.346 1.18468 1.03938 0
M  V30 8700 C 821.276 0.936389 2.13902 0
M  V30 8701 C 822.257 -0.126381 1.6963 0
M  V30 8702 O 823.442 0.0264757 1.94182 0
M  V30 8703 C 820.572 0.462729 3.44204 0
M  V30 8704 C 819.526 1.46613 4.02105 0
M  V30 8705 C 818.852 0.84994 5.27902 0
M  V30 8706 C 820.152 2.84323 4.3813 0
M  V30 8707 H 821.846 1.85602 2.3493 0
M  V30 8708 H 819.392 0.893806 1.12903 0
M  V30 8709 H 821.345 0.276382 4.20493 0
M  V30 8710 H 820.069 -0.492477 3.22866 0
M  V30 8711 H 818.728 1.63944 3.27899 0
M  V30 8712 H 818.376 -0.112493 5.02874 0
M  V30 8713 H 818.076 1.51988 5.67603 0
M  V30 8714 H 819.6 0.674152 6.06867 0
M  V30 8715 H 821.014 2.70636 5.054 0
M  V30 8716 H 819.411 3.48012 4.88884 0
M  V30 8717 H 820.481 3.37776 3.47901 0
M  V30 8718 N 821.824 -1.22873 0.986916 0
M  V30 8719 C 822.757 -2.23154 0.477245 0
M  V30 8720 C 823.735 -1.55981 -0.459206 0
M  V30 8721 O 824.919 -1.84503 -0.386141 0
M  V30 8722 C 822.046 -3.37289 -0.308838 0
M  V30 8723 C 821.092 -4.22637 0.572717 0
M  V30 8724 S 821.925 -4.95758 2.02446 0
M  V30 8725 C 823.081 -6.13338 1.2477 0
M  V30 8726 H 823.314 -2.6604 1.32702 0
M  V30 8727 H 820.847 -1.32455 0.793415 0
M  V30 8728 H 822.805 -4.03472 -0.756351 0
M  V30 8729 H 821.466 -2.92922 -1.13381 0
M  V30 8730 H 820.659 -5.0399 -0.0318024 0
M  V30 8731 H 820.261 -3.61555 0.956746 0
M  V30 8732 H 822.553 -6.7556 0.51231 0
M  V30 8733 H 823.496 -6.78189 2.03629 0
M  V30 8734 H 823.904 -5.59311 0.763622 0
M  V30 8735 N 823.302 -0.75937 -1.38099 0
M  V30 8736 C 824.265 -0.14372 -2.28749 0
M  V30 8737 C 825.265 0.641338 -1.47457 0
M  V30 8738 O 826.455 0.466751 -1.67831 0
M  V30 8739 C 823.587 0.804545 -3.3127 0
M  V30 8740 H 824.78 -0.942663 -2.847 0
M  V30 8741 H 822.333 -0.526757 -1.47156 0
M  V30 8742 H 823.068 1.62895 -2.80421 0
M  V30 8743 H 822.853 0.243939 -3.9134 0
M  V30 8744 H 824.343 1.23111 -3.99041 0
M  V30 8745 N 824.78 1.49157 -0.508906 0
M  V30 8746 C 825.71 2.32109 0.254469 0
M  V30 8747 C 826.691 1.40754 0.955111 0
M  V30 8748 O 827.876 1.69658 0.944983 0
M  V30 8749 C 825.006 3.21458 1.3146 0
M  V30 8750 C 823.96 4.2167 0.733368 0
M  V30 8751 C 823.286 5.00009 1.8946 0
M  V30 8752 C 824.586 5.21544 -0.280875 0
M  V30 8753 H 826.28 2.9618 -0.43795 0
M  V30 8754 H 823.826 1.4243 -0.212062 0
M  V30 8755 H 825.779 3.78305 1.85643 0
M  V30 8756 H 824.503 2.55346 2.03632 0
M  V30 8757 H 823.162 3.65979 0.213231 0
M  V30 8758 H 822.81 4.30338 2.60419 0
M  V30 8759 H 822.51 5.67821 1.51173 0
M  V30 8760 H 824.034 5.59702 2.44061 0
M  V30 8761 H 825.448 5.73039 0.173095 0
M  V30 8762 H 823.845 5.97291 -0.580006 0
M  V30 8763 H 824.915 4.69969 -1.19404 0
M  V30 8764 N 826.258 0.243083 1.55714 0
M  V30 8765 C 827.483 -0.389944 2.03701 0
M  V30 8766 C 827.908 -1.51025 1.12129 0
M  V30 8767 O 827.266 -1.80944 0.11352 0
M  V30 8768 C 827.314 -0.878649 3.49731 0
M  V30 8769 O 826.418 -1.98851 3.61292 0
M  V30 8770 H 825.759 -0.0855115 0.658471 0
M  V30 8771 H 828.289 0.368023 2.01263 0
M  V30 8772 H 828.299 -1.18287 3.90477 0
M  V30 8773 H 826.974 -0.0588107 4.15858 0
M  V30 8774 H 825.551 -1.68928 3.32442 0
M  V30 8775 N 827.736 -1.57571 -0.0300757 0
M  V30 8776 C 828.961 -1.93879 -0.736601 0
M  V30 8777 C 829.386 -0.842998 -1.68152 0
M  V30 8778 O 828.744 0.20135 -1.80178 0
M  V30 8779 C 828.792 -3.29247 -1.47066 0
M  V30 8780 O 827.896 -3.21426 -2.58378 0
M  V30 8781 H 827.237 -0.633735 -0.198181 0
M  V30 8782 H 829.767 -2.04595 0.0141485 0
M  V30 8783 H 829.777 -3.64113 -1.84081 0
M  V30 8784 H 828.452 -4.08565 -0.77764 0
M  V30 8785 H 827.029 -2.98189 -2.23914 0
M  V30 8786 N 829.214 0.302327 -1.54673 0
M  V30 8787 C 830.147 1.39738 -1.80412 0
M  V30 8788 C 831.125 1.48813 -0.655241 0
M  V30 8789 O 832.309 1.65895 -0.89505 0
M  V30 8790 C 829.436 2.7766 -1.93966 0
M  V30 8791 C 828.482 2.86014 -3.16383 0
M  V30 8792 S 829.315 2.48246 -4.74483 0
M  V30 8793 C 830.471 3.88198 -4.90971 0
M  V30 8794 H 830.704 1.17696 -2.73011 0
M  V30 8795 H 828.237 0.500364 -1.46068 0
M  V30 8796 H 830.195 3.571 -2.0246 0
M  V30 8797 H 828.856 2.96971 -1.02307 0
M  V30 8798 H 828.049 3.87174 -3.22664 0
M  V30 8799 H 827.651 2.14568 -3.06328 0
M  V30 8800 H 829.943 4.83181 -4.74913 0
M  V30 8801 H 830.886 3.86887 -5.93063 0
M  V30 8802 H 831.294 3.78139 -4.19131 0
M  V30 8803 N 830.692 1.47107 0.565454 0
M  V30 8804 C 831.622 1.61846 1.68309 0
M  V30 8805 C 832.603 0.468159 1.63531 0
M  V30 8806 O 833.788 0.696504 1.8128 0
M  V30 8807 C 830.918 1.62474 3.06952 0
M  V30 8808 C 829.872 2.76649 3.26572 0
M  V30 8809 C 829.198 2.62345 4.65917 0
M  V30 8810 C 830.498 4.18319 3.12741 0
M  V30 8811 H 832.192 2.55407 1.5623 0
M  V30 8812 H 829.738 1.22916 0.750179 0
M  V30 8813 H 831.691 1.71378 3.84977 0
M  V30 8814 H 830.415 0.654692 3.19971 0
M  V30 8815 H 829.074 2.67242 2.50952 0
M  V30 8816 H 828.722 1.63386 4.75725 0
M  V30 8817 H 828.422 3.38936 4.79996 0
M  V30 8818 H 829.946 2.73165 5.46089 0
M  V30 8819 H 831.36 4.28745 3.80593 0
M  V30 8820 H 829.757 4.95632 3.38333 0
M  V30 8821 H 830.827 4.37263 2.09592 0
M  V30 8822 N 832.17 -0.811516 1.35101 0
M  V30 8823 C 833.41 -1.58177 1.29458 0
M  V30 8824 C 833.774 -1.91555 -0.130688 0
M  V30 8825 O 834.975 -2.6699 -0.311428 0
M  V30 8826 C 833.246 -2.83896 2.17112 0
M  V30 8827 S 834.805 -3.74344 2.28936 0
M  V30 8828 H 831.623 -0.542021 0.460146 0
M  V30 8829 H 834.225 -0.957653 1.70438 0
M  V30 8830 H 832.929 -2.57391 3.19653 0
M  V30 8831 H 832.46 -3.51297 1.7707 0
M  V30 8832 H 834.475 -4.73909 1.47054 0
M  V30 8833 N 833.648 -1.19017 -1.03309 0
M  V30 8834 C 834.897 -0.984542 -1.76039 0
M  V30 8835 C 835.21 0.485937 -1.89468 0
M  V30 8836 O 836.416 0.810278 -2.59127 0
M  V30 8837 C 834.872 -1.71261 -3.1654 0
M  V30 8838 C 834.48 -3.22291 -3.11179 0
M  V30 8839 C 836.224 -1.59007 -3.93595 0
M  V30 8840 C 834.131 -3.87704 -4.46587 0
M  V30 8841 H 833.061 -0.364749 -0.659905 0
M  V30 8842 H 835.712 -1.4247 -1.15649 0
M  V30 8843 H 834.094 -1.20025 -3.77373 0
M  V30 8844 H 835.268 -3.80611 -2.59753 0
M  V30 8845 H 833.583 -3.34772 -2.47622 0
M  V30 8846 H 836.18 -2.05232 -4.93745 0
M  V30 8847 H 836.523 -0.543534 -4.12736 0
M  V30 8848 H 837.056 -2.07564 -3.39355 0
M  V30 8849 H 833.795 -4.92437 -4.3265 0
M  V30 8850 H 833.315 -3.34172 -4.98085 0
M  V30 8851 H 834.994 -3.91008 -5.15482 0
M  V30 8852 N 835.127 1.22348 -0.993418 0
M  V30 8853 C 836.538 1.72893 -0.704616 0
M  V30 8854 C 836.889 1.80095 0.778483 0
M  V30 8855 O 836.014 1.4476 1.60853 0
M  V30 8856 C 836.609 3.14 -1.27237 0
M  V30 8857 C 835.168 3.61949 -1.03294 0
M  V30 8858 C 834.315 2.39816 -1.39225 0
M  V30 8859 H 837.266 1.07688 -1.16572 0
M  V30 8860 H 837.287 3.74886 -0.651212 0
M  V30 8861 H 836.799 3.08727 -2.3518 0
M  V30 8862 H 834.9 3.72588 0.0298329 0
M  V30 8863 H 835.013 4.48051 -1.69668 0
M  V30 8864 H 833.377 2.41448 -0.810849 0
M  V30 8865 H 834.16 2.37203 -2.48172 0
M  V30 8866 N 836.605 0.766683 1.37694 0
M  V30 8867 C 837.535 0.163432 2.32927 0
M  V30 8868 C 838.516 -0.688861 1.55527 0
M  V30 8869 O 839.701 -0.627363 1.83787 0
M  V30 8870 C 836.831 -0.720416 3.39746 0
M  V30 8871 C 835.785 0.0301718 4.27989 0
M  V30 8872 C 835.111 -0.972788 5.25776 0
M  V30 8873 C 836.411 1.20623 5.0818 0
M  V30 8874 H 838.105 0.958988 2.83626 0
M  V30 8875 H 835.651 0.462601 1.36367 0
M  V30 8876 H 837.604 -1.15221 4.05342 0
M  V30 8877 H 836.328 -1.54844 2.8756 0
M  V30 8878 H 834.987 0.442685 3.63917 0
M  V30 8879 H 834.635 -1.79522 4.69873 0
M  V30 8880 H 834.335 -0.475145 5.85676 0
M  V30 8881 H 835.859 -1.40362 5.94248 0
M  V30 8882 H 837.273 0.851341 5.66944 0
M  V30 8883 H 835.67 1.63561 5.7738 0
M  V30 8884 H 836.74 2.01281 4.41151 0
M  V30 8885 N 838.083 -1.48885 0.516809 0
M  V30 8886 C 839.329 -2.03395 -0.0140225 0
M  V30 8887 C 839.684 -1.38808 -1.33229 0
M  V30 8888 O 838.977 -0.520104 -1.84406 0
M  V30 8889 C 839.171 -3.56801 -0.206798 0
M  V30 8890 C 839 -4.36259 1.09124 0
M  V30 8891 C 837.77 -4.77689 1.64745 0
M  V30 8892 C 839.968 -4.73881 1.99854 0
M  V30 8893 N 837.95 -5.41634 2.88975 0
M  V30 8894 C 839.321 -5.37707 3.08661 0
M  V30 8895 C 841.376 -4.55816 2.00341 0
M  V30 8896 C 840.079 -5.85379 4.18001 0
M  V30 8897 C 842.105 -5.04459 3.08666 0
M  V30 8898 C 841.467 -5.68299 4.16191 0
M  V30 8899 H 837.566 -0.781169 0.036042 0
M  V30 8900 H 840.15 -1.81867 0.695173 0
M  V30 8901 H 838.321 -3.78181 -0.885064 0
M  V30 8902 H 840.053 -3.9795 -0.736053 0
M  V30 8903 H 836.808 -4.58392 1.19054 0
M  V30 8904 H 837.232 -5.78181 3.52187 0
M  V30 8905 H 841.874 -4.05851 1.18511 0
M  V30 8906 H 839.592 -6.34356 5.00618 0
M  V30 8907 H 843.178 -4.92281 3.10082 0
M  V30 8908 H 842.058 -6.05257 4.98631 0
M  V30 8909 N 839.561 -0.251338 -1.55583 0
M  V30 8910 C 840.81 0.372681 -1.98227 0
M  V30 8911 C 841.123 1.58743 -1.1428 0
M  V30 8912 O 842.329 2.28289 -1.46957 0
M  V30 8913 C 840.785 0.714439 -3.52738 0
M  V30 8914 C 840.393 -0.479168 -4.4543 0
M  V30 8915 C 842.137 1.3024 -4.04027 0
M  V30 8916 C 840.044 -0.113318 -5.91291 0
M  V30 8917 H 838.974 0.14302 -0.740312 0
M  V30 8918 H 841.625 -0.352253 -1.80087 0
M  V30 8919 H 840.007 1.49762 -3.66589 0
M  V30 8920 H 841.181 -1.25644 -4.4334 0
M  V30 8921 H 839.496 -0.982359 -4.04646 0
M  V30 8922 H 842.093 1.58953 -5.10527 0
M  V30 8923 H 842.436 2.22837 -3.51638 0
M  V30 8924 H 842.969 0.582024 -3.93519 0
M  V30 8925 H 839.708 -1.00654 -6.47726 0
M  V30 8926 H 839.228 0.627666 -5.96507 0
M  V30 8927 H 840.907 0.30293 -6.4629 0
M  V30 8928 N 841.039 1.57585 0.0217189 0
M  V30 8929 C 842.279 1.91457 0.715803 0
M  V30 8930 C 842.643 0.850685 1.72126 0
M  V30 8931 O 843.844 1.07396 2.46413 0
M  V30 8932 C 842.115 3.30456 1.36138 0
M  V30 8933 S 843.674 3.86176 2.0836 0
M  V30 8934 H 840.492 0.67035 0.236963 0
M  V30 8935 H 843.094 1.95477 -0.0297511 0
M  V30 8936 H 841.798 4.05744 0.616465 0
M  V30 8937 H 841.329 3.29757 2.14532 0
M  V30 8938 H 843.344 3.65496 3.356 0
M  V30 8939 N 842.517 -0.29412 1.54831 0
M  V30 8940 C 843.766 -1.02614 1.73647 0
M  V30 8941 C 844.079 -1.88193 0.533162 0
M  V30 8942 O 845.285 -2.64713 0.603275 0
M  V30 8943 C 843.741 -1.87417 3.07251 0
M  V30 8944 C 843.349 -1.06806 4.35082 0
M  V30 8945 C 845.093 -2.60176 3.35423 0
M  V30 8946 C 843 -1.90926 5.59733 0
M  V30 8947 H 841.93 -0.386834 0.647206 0
M  V30 8948 H 844.581 -0.282789 1.81308 0
M  V30 8949 H 842.963 -2.65765 2.93572 0
M  V30 8950 H 844.137 -0.330226 4.59615 0
M  V30 8951 H 842.452 -0.455979 4.13896 0
M  V30 8952 H 845.049 -3.23476 4.25755 0
M  V30 8953 H 845.392 -3.29365 2.54606 0
M  V30 8954 H 845.925 -1.88871 3.50103 0
M  V30 8955 H 842.664 -1.26194 6.43238 0
M  V30 8956 H 842.184 -2.62363 5.39375 0
M  V30 8957 H 843.863 -2.48807 5.97247 0
M  V30 8958 N 843.995 -1.47404 -0.557645 0
M  V30 8959 C 845.223 -1.57622 -1.34026 0
M  V30 8960 C 845.638 -0.226256 -1.87439 0
M  V30 8961 O 844.995 0.78043 -1.64971 0
M  V30 8962 C 845.046 -2.60111 -2.51047 0
M  V30 8963 O 844.767 -3.89866 -1.99841 0
M  V30 8964 C 846.268 -2.80508 -3.43264 0
M  V30 8965 H 843.488 -0.532271 -0.40857 0
M  V30 8966 H 846.032 -1.93019 -0.675555 0
M  V30 8967 H 844.187 -2.27648 -3.13457 0
M  V30 8968 H 844.601 -4.45864 -2.76234 0
M  V30 8969 H 846.075 -3.56084 -4.21792 0
M  V30 8970 H 846.552 -1.88314 -3.9678 0
M  V30 8971 H 847.158 -3.14166 -2.86671 0
M  V30 8972 N 845.473 0.80434 -1.35529 0
M  V30 8973 C 846.719 1.56385 -1.29118 0
M  V30 8974 C 847.052 1.9374 0.133536 0
M  V30 8975 O 846.327 1.6153 1.08344 0
M  V30 8976 C 846.61 2.85097 -2.19981 0
M  V30 8977 C 846.463 2.54204 -3.7108 0
M  V30 8978 C 847.782 3.86817 -2.09907 0
M  V30 8979 H 844.901 0.567382 -0.470368 0
M  V30 8980 H 847.543 0.925235 -1.6595 0
M  V30 8981 H 845.693 3.39594 -1.88701 0
M  V30 8982 H 847.365 2.05872 -4.12813 0
M  V30 8983 H 845.608 1.87364 -3.91251 0
M  V30 8984 H 846.279 3.46068 -4.30048 0
M  V30 8985 H 848.755 3.41725 -2.37409 0
M  V30 8986 H 847.631 4.7465 -2.75678 0
M  V30 8987 H 847.892 4.28663 -1.08171 0
M  V30 8988 N 846.951 1.19563 1.02676 0
M  V30 8989 C 848.197 1.01108 1.7649 0
M  V30 8990 C 848.552 -0.453152 1.86987 0
M  V30 8991 O 847.845 -1.33209 1.37717 0
M  V30 8992 C 848.039 1.61619 3.18769 0
M  V30 8993 C 847.868 3.13774 3.22142 0
M  V30 8994 C 846.638 3.82687 3.29968 0
M  V30 8995 C 848.836 4.11114 3.09014 0
M  V30 8996 N 846.818 5.2222 3.22737 0
M  V30 8997 C 848.189 5.37259 3.0944 0
M  V30 8998 C 850.244 4.02447 2.93157 0
M  V30 8999 C 848.947 6.55738 2.95636 0
M  V30 9000 C 850.973 5.20538 2.80703 0
M  V30 9001 C 850.335 6.45582 2.81785 0
M  V30 9002 H 846.434 0.424123 0.656996 0
M  V30 9003 H 849.018 1.5157 1.22207 0
M  V30 9004 H 847.189 1.13756 3.71368 0
M  V30 9005 H 848.921 1.36579 3.80957 0
M  V30 9006 H 845.676 3.3349 3.36275 0
M  V30 9007 H 846.1 5.95238 3.22523 0
M  V30 9008 H 850.742 3.0659 2.9114 0
M  V30 9009 H 848.46 7.51778 2.96403 0
M  V30 9010 H 852.046 5.15635 2.69466 0
M  V30 9011 H 850.926 7.35423 2.72254 0
M  V30 9012 N 848.429 -1.21819 0.999893 0
M  V30 9013 C 849.376 -2.24003 0.556005 0
M  V30 9014 C 850.346 -1.60825 -0.415287 0
M  V30 9015 O 851.531 -1.88123 -0.318481 0
M  V30 9016 C 848.671 -3.44904 -0.116289 0
M  V30 9017 C 847.784 -4.22573 0.897574 0
M  V30 9018 C 846.919 -5.30831 0.198073 0
M  V30 9019 C 845.958 -6.00225 1.19983 0
M  V30 9020 N 845.095 -7.00111 0.528157 0
M  V30 9021 H 849.935 -2.61334 1.43208 0
M  V30 9022 H 847.472 -1.28431 0.717205 0
M  V30 9023 H 849.43 -4.13908 -0.523055 0
M  V30 9024 H 848.06 -3.08315 -0.956108 0
M  V30 9025 H 847.112 -3.52797 1.42262 0
M  V30 9026 H 848.424 -4.70363 1.66013 0
M  V30 9027 H 847.578 -6.06121 -0.265065 0
M  V30 9028 H 846.317 -4.84033 -0.596924 0
M  V30 9029 H 845.322 -5.23711 1.67353 0
M  V30 9030 H 846.547 -6.4911 1.99582 0
M  V30 9031 H 844.493 -6.55534 -0.247276 0
M  V30 9032 H 844.41 -7.45943 1.22904 0
M  V30 9033 H 845.678 -7.7945 0.0880543 0
M  V30 9034 N 849.908 -0.773975 -1.37286 0
M  V30 9035 C 851.136 -0.350758 -2.03905 0
M  V30 9036 C 851.551 1.02779 -1.58373 0
M  V30 9037 O 850.908 1.65646 -0.766009 0
M  V30 9038 C 850.959 -0.387335 -3.59419 0
M  V30 9039 O 850.68 -1.7115 -4.03286 0
M  V30 9040 C 852.181 0.047198 -4.43275 0
M  V30 9041 H 849.401 -0.146663 -0.654775 0
M  V30 9042 H 851.945 -1.04852 -1.75574 0
M  V30 9043 H 850.1 0.261865 -3.86514 0
M  V30 9044 H 850.514 -1.65166 -4.97816 0
M  V30 9045 H 851.988 -0.0295474 -5.51992 0
M  V30 9046 H 852.465 1.09786 -4.25257 0
M  V30 9047 H 853.071 -0.573899 -4.2141 0
M  V30 9048 N 851.386 1.48609 -0.524698 0
M  V30 9049 C 852.296 2.33318 0.244923 0
M  V30 9050 C 853.312 1.46153 0.944214 0
M  V30 9051 O 854.488 1.79141 0.920347 0
M  V30 9052 C 851.553 3.22149 1.28144 0
M  V30 9053 C 850.614 4.25184 0.593068 0
M  V30 9054 C 849.847 5.0977 1.5802 0
M  V30 9055 O 850.07 4.96249 2.81235 0
M  V30 9056 O 849.004 5.9134 1.1225 0
M  V30 9057 H 852.83 3.00362 -0.449066 0
M  V30 9058 H 850.415 1.46643 -0.285689 0
M  V30 9059 H 852.297 3.77111 1.88057 0
M  V30 9060 H 850.972 2.57772 1.95793 0
M  V30 9061 H 849.879 3.74071 -0.0464214 0
M  V30 9062 H 851.212 4.92183 -0.0413893 0
M  V30 9063 N 852.864 0.259585 1.55447 0
M  V30 9064 C 854.112 -0.360893 1.98852 0
M  V30 9065 C 854.433 -1.57535 1.14924 0
M  V30 9066 O 853.703 -1.94485 0.235025 0
M  V30 9067 H 852.283 -0.136332 0.734454 0
M  V30 9068 H 854.945 0.361319 1.91522 0
M  V30 9069 H 854.041 -0.661388 3.05012 0
M  V30 9070 N 854.342 -1.57594 -0.0133615 0
M  V30 9071 C 855.57 -1.94251 -0.712328 0
M  V30 9072 C 855.985 -0.86063 -1.68043 0
M  V30 9073 O 855.342 0.161632 -1.81783 0
M  V30 9074 C 855.393 -3.30891 -1.45581 0
M  V30 9075 O 855.114 -4.34924 -0.526539 0
M  V30 9076 C 856.615 -3.81926 -2.2505 0
M  V30 9077 H 853.835 -0.640737 -0.199241 0
M  V30 9078 H 856.379 -2.04472 0.0337855 0
M  V30 9079 H 854.534 -3.22019 -2.15366 0
M  V30 9080 H 854.948 -5.1389 -1.04962 0
M  V30 9081 H 856.422 -4.79999 -2.72589 0
M  V30 9082 H 856.899 -3.13934 -3.07152 0
M  V30 9083 H 857.505 -3.93931 -1.60308 0
M  V30 9084 N 855.82 0.285905 -1.54985 0
M  V30 9085 C 856.75 1.35752 -1.89983 0
M  V30 9086 C 857.731 1.52163 -0.760295 0
M  V30 9087 O 858.916 1.65421 -1.01733 0
M  V30 9088 C 856.046 2.71925 -2.16042 0
M  V30 9089 C 855 2.70261 -3.31878 0
M  V30 9090 C 854.326 4.09864 -3.43388 0
M  V30 9091 C 855.626 2.30667 -4.68604 0
M  V30 9092 H 857.32 1.06709 -2.79738 0
M  V30 9093 H 854.866 0.511884 -1.34595 0
M  V30 9094 H 856.819 3.46992 -2.39113 0
M  V30 9095 H 855.543 3.02523 -1.23074 0
M  V30 9096 H 854.202 1.97651 -3.08755 0
M  V30 9097 H 853.85 4.37664 -2.47909 0
M  V30 9098 H 853.55 4.09648 -4.21262 0
M  V30 9099 H 855.074 4.86689 -3.68736 0
M  V30 9100 H 856.488 2.95453 -4.91305 0
M  V30 9101 H 854.885 2.41637 -5.49301 0
M  V30 9102 H 855.955 1.25793 -4.68299 0
M  V30 9103 N 857.298 1.47698 0.54982 0
M  V30 9104 C 858.709 1.48474 1.13191 0
M  V30 9105 C 859.06 0.243504 1.94683 0
M  V30 9106 O 858.185 -0.651009 2.06375 0
M  V30 9107 C 858.78 2.69022 2.05944 0
M  V30 9108 C 857.339 2.72733 2.5941 0
M  V30 9109 C 856.486 2.41691 1.35944 0
M  V30 9110 H 859.437 1.55101 0.336048 0
M  V30 9111 H 859.458 2.46412 2.89934 0
M  V30 9112 H 858.97 3.59345 1.46605 0
M  V30 9113 H 857.071 1.86568 3.22526 0
M  V30 9114 H 857.184 3.73628 2.99899 0
M  V30 9115 H 855.548 1.92428 1.66864 0
M  V30 9116 H 856.331 3.34231 0.783869 0
M  V30 9117 N 858.776 -0.797141 1.35954 0
M  V30 9118 C 859.686 -1.94088 1.31784 0
M  V30 9119 C 860.702 -1.72588 0.221227 0
M  V30 9120 O 861.878 -1.96256 0.452255 0
M  V30 9121 C 858.943 -3.28828 1.09878 0
M  V30 9122 C 858.004 -3.63158 2.28942 0
M  V30 9123 C 857.237 -4.91469 2.08072 0
M  V30 9124 O 857.46 -5.60616 1.05196 0
M  V30 9125 O 856.394 -5.24277 2.95664 0
M  V30 9126 H 860.22 -2.00554 2.28061 0
M  V30 9127 H 857.805 -0.936288 1.16422 0
M  V30 9128 H 859.687 -4.09473 0.995485 0
M  V30 9129 H 858.362 -3.23271 0.16659 0
M  V30 9130 H 857.269 -2.82851 2.44839 0
M  V30 9131 H 858.602 -3.7343 3.20641 0
M  V30 9132 N 860.254 -1.20106 -1.0204 0
M  V30 9133 C 861.201 -0.946468 -2.10501 0
M  V30 9134 C 862.171 0.121902 -1.65652 0
M  V30 9135 O 863.356 -0.0220244 -1.90787 0
M  V30 9136 C 860.496 -0.500499 -3.41451 0
M  V30 9137 C 859.609 -1.63659 -3.998 0
M  V30 9138 C 858.744 -1.14131 -5.18794 0
M  V30 9139 C 857.783 -2.25074 -5.69217 0
M  V30 9140 N 856.92 -1.76791 -6.79477 0
M  V30 9141 H 861.76 -1.87506 -2.31615 0
M  V30 9142 H 859.297 -0.934693 -1.13587 0
M  V30 9143 H 861.255 -0.223276 -4.16602 0
M  V30 9144 H 859.885 0.391099 -3.20422 0
M  V30 9145 H 858.937 -2.02882 -3.21781 0
M  V30 9146 H 860.249 -2.47213 -4.33229 0
M  V30 9147 H 859.403 -0.819826 -6.01135 0
M  V30 9148 H 858.142 -0.275615 -4.86921 0
M  V30 9149 H 857.147 -2.58043 -4.85483 0
M  V30 9150 H 858.372 -3.12114 -6.03127 0
M  V30 9151 H 856.318 -0.925428 -6.4944 0
M  V30 9152 H 856.235 -2.53928 -7.12079 0
M  V30 9153 H 857.503 -1.47631 -7.65392 0
M  V30 9154 N 861.732 1.21287 -1.00634 0
M  V30 9155 C 862.662 2.25973 -0.588089 0
M  V30 9156 C 863.643 1.65527 0.391764 0
M  V30 9157 O 864.828 1.92179 0.279452 0
M  V30 9158 C 861.958 3.47197 0.0847336 0
M  V30 9159 C 860.912 4.20168 -0.815039 0
M  V30 9160 C 860.238 5.34699 -0.00855393 0
M  V30 9161 C 861.538 4.77416 -2.11828 0
M  V30 9162 H 863.232 2.61212 -1.46317 0
M  V30 9163 H 860.778 1.25563 -0.704985 0
M  V30 9164 H 862.731 4.19602 0.388821 0
M  V30 9165 H 861.455 3.11092 0.994456 0
M  V30 9166 H 860.114 3.49614 -1.10297 0
M  V30 9167 H 859.762 4.94837 0.902499 0
M  V30 9168 H 859.462 5.84449 -0.607664 0
M  V30 9169 H 860.986 6.09914 0.289317 0
M  V30 9170 H 862.4 5.41694 -1.87725 0
M  V30 9171 H 860.797 5.37561 -2.66736 0
M  V30 9172 H 861.867 3.96724 -2.78816 0
M  V30 9173 N 863.21 0.781244 1.36873 0
M  V30 9174 C 864.142 0.132075 2.28819 0
M  V30 9175 C 865.155 -0.653925 1.49089 0
M  V30 9176 O 866.344 -0.490453 1.7163 0
M  V30 9177 C 863.444 -0.836297 3.28419 0
M  V30 9178 C 862.617 -0.102097 4.37281 0
M  V30 9179 C 861.676 -0.985217 5.16894 0
M  V30 9180 O 860.702 -0.445478 5.67454 0
M  V30 9181 N 861.904 -2.31043 5.3254 0
M  V30 9182 H 864.669 0.921838 2.85171 0
M  V30 9183 H 862.23 0.634427 1.48952 0
M  V30 9184 H 864.222 -1.43074 3.78566 0
M  V30 9185 H 862.792 -1.52698 2.72767 0
M  V30 9186 H 862.012 0.67335 3.88407 0
M  V30 9187 H 863.3 0.404862 5.07187 0
M  V30 9188 H 862.698 -2.77318 4.93063 0
M  V30 9189 H 861.255 -2.85472 5.8596 0
M  V30 9190 N 864.689 -1.48329 0.532571 0
M  V30 9191 C 865.636 -2.29663 -0.228779 0
M  V30 9192 C 866.606 -1.37529 -0.931401 0
M  V30 9193 O 867.791 -1.66493 -0.931921 0
M  V30 9194 C 864.931 -3.20955 -1.26814 0
M  V30 9195 C 864.044 -4.28168 -0.574099 0
M  V30 9196 C 863.179 -5.06638 -1.59661 0
M  V30 9197 C 862.218 -6.05651 -0.88618 0
M  V30 9198 N 861.355 -6.77169 -1.85436 0
M  V30 9199 H 866.195 -2.94255 0.47098 0
M  V30 9200 H 863.732 -1.45061 0.2441 0
M  V30 9201 H 865.69 -3.72285 -1.88307 0
M  V30 9202 H 864.32 -2.58281 -1.93625 0
M  V30 9203 H 863.372 -3.80085 0.154827 0
M  V30 9204 H 864.684 -4.98797 -0.0163984 0
M  V30 9205 H 863.838 -5.61995 -2.28576 0
M  V30 9206 H 862.577 -4.35854 -2.18821 0
M  V30 9207 H 861.582 -5.49495 -0.182981 0
M  V30 9208 H 862.807 -6.78434 -0.300659 0
M  V30 9209 H 860.753 -6.09134 -2.43499 0
M  V30 9210 H 860.67 -7.43882 -1.34816 0
M  V30 9211 H 861.938 -7.37114 -2.53541 0
M  V30 9212 N 866.167 -0.267825 -1.55308 0
M  V30 9213 C 867.097 0.616585 -2.25212 0
M  V30 9214 C 868.078 1.16472 -1.23969 0
M  V30 9215 O 869.263 1.20021 -1.52672 0
M  V30 9216 C 866.393 1.80412 -2.96764 0
M  V30 9217 C 865.347 1.38784 -4.04874 0
M  V30 9218 C 864.673 2.65789 -4.63961 0
M  V30 9219 C 865.973 0.543415 -5.19465 0
M  V30 9220 H 867.667 0.0336257 -2.99381 0
M  V30 9221 H 865.213 0.0147328 -1.43992 0
M  V30 9222 H 867.166 2.42866 -3.44375 0
M  V30 9223 H 865.89 2.4128 -2.20118 0
M  V30 9224 H 864.549 0.786541 -3.58063 0
M  V30 9225 H 864.197 3.24899 -3.83992 0
M  V30 9226 H 863.897 2.38651 -5.36954 0
M  V30 9227 H 865.421 3.29104 -5.14318 0
M  V30 9228 H 866.835 1.07277 -5.63174 0
M  V30 9229 H 865.232 0.367219 -5.98975 0
M  V30 9230 H 866.302 -0.439534 -4.82904 0
M  V30 9231 N 867.645 1.57599 0.00500368 0
M  V30 9232 C 868.873 1.94626 0.702016 0
M  V30 9233 C 869.288 0.86953 1.67585 0
M  V30 9234 O 868.645 -0.15199 1.81866 0
M  V30 9235 C 868.696 3.31658 1.43824 0
M  V30 9236 O 868.417 4.35197 0.503467 0
M  V30 9237 C 869.918 3.83114 2.23021 0
M  V30 9238 H 867.138 0.641785 0.195841 0
M  V30 9239 H 869.682 2.04451 -0.0446287 0
M  V30 9240 H 867.837 3.23156 2.13655 0
M  V30 9241 H 868.251 5.1444 1.02235 0
M  V30 9242 H 869.725 4.81438 2.7004 0
M  V30 9243 H 870.202 3.15559 3.05482 0
M  V30 9244 H 870.808 3.94775 1.58216 0
M  V30 9245 N 869.123 -0.277682 1.55134 0
M  V30 9246 C 870.351 -1.02826 1.7954 0
M  V30 9247 C 870.766 -1.80105 0.566373 0
M  V30 9248 O 870.123 -1.76491 -0.464448 0
M  V30 9249 C 870.174 -1.99053 3.01762 0
M  V30 9250 O 869.895 -1.24906 4.19917 0
M  V30 9251 C 871.396 -2.85961 3.38735 0
M  V30 9252 H 868.616 -0.303958 0.598206 0
M  V30 9253 H 871.16 -0.309884 2.02138 0
M  V30 9254 H 869.315 -2.66359 2.81303 0
M  V30 9255 H 869.729 -1.89725 4.88983 0
M  V30 9256 H 871.203 -3.49286 4.27438 0
M  V30 9257 H 871.68 -3.55486 2.57928 0
M  V30 9258 H 872.286 -2.24152 3.61436 0
M  V30 9259 N 870.601 -1.47988 -0.541979 0
M  V30 9260 C 872.012 -1.49073 -1.12402 0
M  V30 9261 C 872.363 -0.253825 -1.94551 0
M  V30 9262 O 871.488 0.640056 -2.06718 0
M  V30 9263 C 872.083 -2.7011 -2.04514 0
M  V30 9264 C 870.642 -2.74105 -2.5796 0
M  V30 9265 C 869.789 -2.42409 -1.3466 0
M  V30 9266 H 872.74 -1.55277 -0.327818 0
M  V30 9267 H 872.761 -2.47946 -2.88623 0
M  V30 9268 H 872.273 -3.60117 -1.44697 0
M  V30 9269 H 870.374 -1.88276 -3.21532 0
M  V30 9270 H 870.487 -3.75213 -2.97913 0
M  V30 9271 H 868.851 -1.9331 -1.65841 0
M  V30 9272 H 869.634 -3.34642 -0.766133 0
M  V30 9273 N 872.079 0.78992 -1.36375 0
M  V30 9274 C 873.304 1.58389 -1.33895 0
M  V30 9275 C 873.729 1.8794 0.0774934 0
M  V30 9276 O 873.087 1.4785 1.0493 0
M  V30 9277 C 873.135 2.88201 -2.16732 0
M  V30 9278 O 872.239 3.81778 -1.55946 0
M  V30 9279 H 871.58 0.480471 -0.458305 0
M  V30 9280 H 874.11 0.979119 -1.79651 0
M  V30 9281 H 874.12 3.37475 -2.29292 0
M  V30 9282 H 872.795 2.66019 -3.19698 0
M  V30 9283 H 871.372 3.40371 -1.52323 0
M  V30 9284 N 873.557 1.20646 1.01402 0
M  V30 9285 C 874.785 1.04389 1.78635 0
M  V30 9286 C 875.2 -0.406771 1.84366 0
M  V30 9287 O 874.557 -1.28239 1.2985 0
M  V30 9288 C 874.608 1.62378 3.22979 0
M  V30 9289 O 874.329 3.01768 3.17597 0
M  V30 9290 C 875.83 1.5111 4.1675 0
M  V30 9291 H 873.05 0.367077 0.56169 0
M  V30 9292 H 875.594 1.59789 1.27624 0
M  V30 9293 H 873.749 1.11092 3.7113 0
M  V30 9294 H 874.163 3.29331 4.08217 0
M  V30 9295 H 875.637 1.96441 5.15863 0
M  V30 9296 H 876.114 0.464011 4.36742 0
M  V30 9297 H 876.72 2.01599 3.74483 0
M  V30 9298 N 875.035 -1.20752 1.01276 0
M  V30 9299 C 876.312 -1.85676 0.615112 0
M  V30 9300 C 876.692 -1.90623 -0.906976 0
M  V30 9301 O 876.04 -1.41124 -1.79712 0
M  V30 9302 C 876.25 -3.2552 1.25847 0
M  V30 9303 C 877.598 -4.0184 1.37148 0
M  V30 9304 O 878.622 -3.3486 1.21438 0
M  V30 9305 O 877.481 -5.21783 1.62495 0
M  V30 9306 H 874.575 -0.799437 0.211729 0
M  V30 9307 H 877.121 -1.28372 1.10989 0
M  V30 9308 H 875.893 -3.16664 2.29869 0
M  V30 9309 H 875.516 -3.90452 0.750524 0
M  V30 9310 N 876.513 -0.788492 -1.36457 0
M  V30 9311 C 877.443 -0.200468 -2.32638 0
M  V30 9312 C 878.424 0.664031 -1.56603 0
M  V30 9313 O 879.609 0.598045 -1.84762 0
M  V30 9314 C 876.739 0.666274 -3.40849 0
M  V30 9315 C 875.693 -0.0982574 -4.27887 0
M  V30 9316 C 875.019 0.889018 -5.27258 0
M  V30 9317 C 876.319 -1.28692 -5.06197 0
M  V30 9318 H 878.013 -1.00399 -2.82065 0
M  V30 9319 H 875.559 -0.484237 -1.35614 0
M  V30 9320 H 877.512 1.08757 -4.07124 0
M  V30 9321 H 876.236 1.50249 -2.89987 0
M  V30 9322 H 874.895 -0.500525 -3.63167 0
M  V30 9323 H 874.543 1.72024 -4.7267 0
M  V30 9324 H 874.243 0.381909 -5.86358 0
M  V30 9325 H 875.767 1.30891 -5.96406 0
M  V30 9326 H 877.181 -0.941429 -5.65517 0
M  V30 9327 H 875.578 -1.72726 -5.74705 0
M  V30 9328 H 876.648 -2.08273 -4.37893 0
M  V30 9329 N 877.991 1.48044 -0.54043 0
M  V30 9330 C 878.938 2.29781 0.216597 0
M  V30 9331 C 879.908 1.38021 0.924094 0
M  V30 9332 O 881.093 1.66985 0.923078 0
M  V30 9333 C 878.233 3.21623 1.2511 0
M  V30 9334 C 877.346 4.28467 0.551384 0
M  V30 9335 C 876.481 5.07477 1.56972 0
M  V30 9336 C 875.52 6.06113 0.854048 0
M  V30 9337 N 874.657 6.78143 1.81842 0
M  V30 9338 H 879.497 2.94001 -0.486578 0
M  V30 9339 H 877.034 1.44929 -0.251789 0
M  V30 9340 H 878.992 3.73279 1.8633 0
M  V30 9341 H 877.622 2.59305 1.92252 0
M  V30 9342 H 876.674 3.79997 -0.174982 0
M  V30 9343 H 877.986 4.98799 -0.0100542 0
M  V30 9344 H 877.14 5.63199 2.25592 0
M  V30 9345 H 875.879 4.37008 2.16507 0
M  V30 9346 H 874.884 5.49585 0.153838 0
M  V30 9347 H 876.109 6.78584 0.264675 0
M  V30 9348 H 874.055 6.10417 2.40265 0
M  V30 9349 H 873.972 7.44587 1.3087 0
M  V30 9350 H 875.24 7.38448 2.49628 0
M  V30 9351 N 879.47 0.276058 1.55163 0
M  V30 9352 C 880.403 -0.652386 2.18676 0
M  V30 9353 C 881.381 -1.15151 1.148 0
M  V30 9354 O 882.565 -1.22431 1.43328 0
M  V30 9355 C 879.692 -1.88982 2.81076 0
M  V30 9356 C 878.738 -1.52609 3.98262 0
M  V30 9357 S 879.571 -0.603445 5.32089 0
M  V30 9358 C 880.727 -1.84923 5.97958 0
M  V30 9359 H 880.96 -0.112733 2.97086 0
M  V30 9360 H 878.493 0.0603118 1.54282 0
M  V30 9361 H 880.451 -2.60007 3.17658 0
M  V30 9362 H 879.112 -2.40061 2.02557 0
M  V30 9363 H 878.305 -2.44689 4.40617 0
M  V30 9364 H 877.907 -0.89601 3.63108 0
M  V30 9365 H 880.199 -2.79303 6.17249 0
M  V30 9366 H 881.142 -1.46868 6.92702 0
M  V30 9367 H 881.55 -2.0146 5.27327 0
M  V30 9368 N 880.948 -1.576 0.00335426 0
M  V30 9369 C 882.364 -1.55653 -0.352766 0
M  V30 9370 C 882.564 -1.00632 -1.74572 0
M  V30 9371 O 881.62 -0.641621 -2.44212 0
M  V30 9372 C 882.933 -2.99858 -0.224929 0
M  V30 9373 C 884.481 -3.11563 -0.299619 0
M  V30 9374 C 884.956 -4.57559 -0.200868 0
M  V30 9375 N 886.447 -4.62477 -0.258663 0
M  V30 9376 C 887.182 -5.73031 -0.205644 0
M  V30 9377 N 886.678 -6.92723 -0.103027 0
M  V30 9378 N 888.471 -5.61509 -0.257754 0
M  V30 9379 H 880.622 -1.91703 0.914539 0
M  V30 9380 H 882.885 -0.88068 0.350865 0
M  V30 9381 H 882.591 -3.43964 0.733595 0
M  V30 9382 H 882.465 -3.63547 -1.00564 0
M  V30 9383 H 884.852 -2.67384 -1.24859 0
M  V30 9384 H 884.933 -2.50644 0.511025 0
M  V30 9385 H 884.577 -5.02413 0.744572 0
M  V30 9386 H 884.507 -5.16428 -1.03004 0
M  V30 9387 H 886.998 -3.76375 -0.339168 0
M  V30 9388 H 887.311 -7.7277 -0.0685593 0
M  V30 9389 H 885.656 -6.94966 -0.0686069 0
M  V30 9390 H 888.847 -4.66892 -0.336142 0
M  V30 9391 H 889.02 -6.4765 -0.21297 0
M  V30 9392 N 882.426 0.269451 -1.5528 0
M  V30 9393 C 883.674 0.998604 -1.75705 0
M  V30 9394 C 883.995 1.86691 -0.563175 0
M  V30 9395 O 883.265 1.91305 0.421811 0
M  V30 9396 H 881.845 0.371698 -0.647958 0
M  V30 9397 H 884.507 0.292826 -1.92688 0
M  V30 9398 H 883.603 1.63348 -2.6594 0
M  V30 9399 N 883.904 1.48273 0.534124 0
M  V30 9400 C 884.851 1.62487 1.6391 0
M  V30 9401 C 885.821 0.467062 1.59398 0
M  V30 9402 O 887.006 0.690029 1.77885 0
M  V30 9403 C 884.146 1.66671 3.02183 0
M  V30 9404 C 883.259 2.9353 3.16961 0
M  V30 9405 C 882.394 2.88902 4.45768 0
M  V30 9406 C 881.433 4.10483 4.54059 0
M  V30 9407 N 880.57 4.03956 5.74251 0
M  V30 9408 H 885.41 2.56851 1.51101 0
M  V30 9409 H 882.947 1.27381 0.735704 0
M  V30 9410 H 884.905 1.67079 3.82283 0
M  V30 9411 H 883.535 0.758011 3.13774 0
M  V30 9412 H 882.587 3.02886 2.3014 0
M  V30 9413 H 883.899 3.83501 3.18949 0
M  V30 9414 H 883.053 2.87688 5.34154 0
M  V30 9415 H 881.792 1.96652 4.46295 0
M  V30 9416 H 880.797 4.11977 3.64081 0
M  V30 9417 H 882.022 5.03887 4.55274 0
M  V30 9418 H 879.968 3.14525 5.75682 0
M  V30 9419 H 879.885 4.87628 5.77715 0
M  V30 9420 H 881.153 4.06795 6.64935 0
M  V30 9421 N 885.382 -0.782676 1.36792 0
M  V30 9422 C 886.312 -1.90973 1.34356 0
M  V30 9423 C 887.293 -1.6875 0.213917 0
M  V30 9424 O 888.478 -1.89766 0.412601 0
M  V30 9425 C 885.608 -3.28097 1.13884 0
M  V30 9426 C 884.562 -3.6486 2.23744 0
M  V30 9427 C 883.888 -5.00406 1.88408 0
M  V30 9428 C 885.188 -3.72742 3.6587 0
M  V30 9429 H 886.882 -1.93268 2.28665 0
M  V30 9430 H 884.428 -0.928447 1.10072 0
M  V30 9431 H 886.381 -4.06569 1.10813 0
M  V30 9432 H 885.105 -3.26206 0.160275 0
M  V30 9433 H 883.764 -2.88689 2.25952 0
M  V30 9434 H 883.412 -4.95044 0.891083 0
M  V30 9435 H 883.112 -5.25973 2.61966 0
M  V30 9436 H 884.636 -5.81291 1.86905 0
M  V30 9437 H 886.05 -4.4139 3.65852 0
M  V30 9438 H 884.447 -4.09798 4.38389 0
M  V30 9439 H 885.517 -2.73676 4.00287 0
M  V30 9440 N 886.86 -1.21182 -1.00761 0
M  V30 9441 C 888.108 -1.02543 -1.74153 0
M  V30 9442 C 888.429 0.442372 -1.89916 0
M  V30 9443 O 887.699 1.31927 -1.44818 0
M  V30 9444 H 886.279 -0.37644 -0.645214 0
M  V30 9445 H 888.941 -1.52446 -1.21434 0
M  V30 9446 H 888.037 -1.49122 -2.7417 0
M  V30 9447 N 888.338 1.20213 -1.01915 0
M  V30 9448 C 889.584 1.89928 -0.711007 0
M  V30 9449 C 889.917 1.7881 0.75767 0
M  V30 9450 O 889.192 1.17399 1.55073 0
M  V30 9451 C 889.475 3.41225 -1.15053 0
M  V30 9452 C 889.328 3.61264 -2.67971 0
M  V30 9453 C 890.647 4.34108 -0.72377 0
M  V30 9454 H 887.766 0.689702 -0.259768 0
M  V30 9455 H 890.408 1.41557 -1.26734 0
M  V30 9456 H 888.558 3.82552 -0.677199 0
M  V30 9457 H 890.23 3.29173 -3.23176 0
M  V30 9458 H 888.473 3.04647 -3.08824 0
M  V30 9459 H 889.144 4.67331 -2.93779 0
M  V30 9460 H 891.62 4.00442 -1.13073 0
M  V30 9461 H 890.496 5.38581 -1.05931 0
M  V30 9462 H 890.757 4.40512 0.374424 0
M  V30 9463 N 889.816 0.795718 1.36037 0
M  V30 9464 C 891.041 0.38204 2.03851 0
M  V30 9465 C 891.466 -0.995553 1.59594 0
M  V30 9466 O 890.824 -1.64258 0.767401 0
M  V30 9467 C 890.872 0.461248 3.57638 0
M  V30 9468 O 889.976 -0.529448 4.08987 0
M  V30 9469 H 889.317 0.161227 0.644129 0
M  V30 9470 H 891.847 1.07858 1.73861 0
M  V30 9471 H 891.857 0.32712 4.06687 0
M  V30 9472 H 890.532 1.46613 3.89201 0
M  V30 9473 H 889.109 -0.35646 3.71192 0
M  V30 9474 N 891.294 -1.47756 0.548274 0
M  V30 9475 C 892.705 -1.8636 0.112547 0
M  V30 9476 C 893.056 -1.45589 -1.31523 0
M  V30 9477 O 892.181 -0.854874 -1.98799 0
M  V30 9478 C 892.776 -3.38224 0.197473 0
M  V30 9479 C 891.335 -3.75954 -0.183163 0
M  V30 9480 C 890.482 -2.7181 0.549059 0
M  V30 9481 H 893.433 -1.394 0.758506 0
M  V30 9482 H 893.454 -3.75957 -0.586217 0
M  V30 9483 H 892.966 -3.67868 1.23673 0
M  V30 9484 H 891.067 -3.51926 -1.22387 0
M  V30 9485 H 891.18 -4.78801 0.169178 0
M  V30 9486 H 889.544 -2.54699 -0.00682862 0
M  V30 9487 H 890.327 -3.04296 1.5893 0
M  V30 9488 N 892.772 -0.284283 -1.55015 0
M  V30 9489 C 894.188 0.069603 -1.59448 0
M  V30 9490 C 894.388 1.53833 -1.30144 0
M  V30 9491 O 893.444 2.2886 -1.06674 0
M  V30 9492 C 894.757 -0.313287 -2.99064 0
M  V30 9493 C 896.305 -0.260662 -3.11913 0
M  V30 9494 C 896.78 -0.618127 -4.5381 0
M  V30 9495 N 898.271 -0.570026 -4.59679 0
M  V30 9496 C 899.006 -0.8193 -5.67517 0
M  V30 9497 N 898.502 -1.13367 -6.83462 0
M  V30 9498 N 900.295 -0.747482 -5.57108 0
M  V30 9499 H 892.446 -1.24167 -1.72326 0
M  V30 9500 H 894.709 -0.502259 -0.804015 0
M  V30 9501 H 894.415 -1.33509 -3.25374 0
M  V30 9502 H 894.289 0.341369 -3.75652 0
M  V30 9503 H 896.676 0.751869 -2.85361 0
M  V30 9504 H 896.757 -0.949706 -2.37517 0
M  V30 9505 H 896.401 -1.62839 -4.81088 0
M  V30 9506 H 896.331 0.092807 -5.26518 0
M  V30 9507 H 898.822 -0.3373 -3.76392 0
M  V30 9508 H 899.135 -1.3103 -7.61611 0
M  V30 9509 H 897.48 -1.17154 -6.85055 0
M  V30 9510 H 900.671 -0.501658 -4.65404 0
M  V30 9511 H 900.844 -0.945128 -6.4107 0
M  V30 9512 N 894.251 1.57596 -0.0117121 0
M  V30 9513 C 895.184 2.04624 1.01016 0
M  V30 9514 C 896.162 0.938437 1.32786 0
M  V30 9515 O 897.346 1.20746 1.44751 0
M  V30 9516 C 894.473 2.45369 2.33477 0
M  V30 9517 C 893.519 3.66998 2.17289 0
M  V30 9518 S 894.352 5.14412 1.48795 0
M  V30 9519 C 895.508 5.58438 2.82662 0
M  V30 9520 H 895.741 2.9098 0.60977 0
M  V30 9521 H 893.274 1.53106 0.199494 0
M  V30 9522 H 895.232 2.69511 3.09635 0
M  V30 9523 H 893.893 1.59391 2.70653 0
M  V30 9524 H 893.086 3.93297 3.15172 0
M  V30 9525 H 892.688 3.42918 1.49275 0
M  V30 9526 H 894.98 5.61614 3.78941 0
M  V30 9527 H 895.923 6.58224 2.61049 0
M  V30 9528 H 896.331 4.86033 2.8711 0
M  V30 9529 N 895.729 -0.261212 1.5542 0
M  V30 9530 C 896.975 -0.992699 1.76843 0
M  V30 9531 C 897.308 -1.8551 0.574428 0
M  V30 9532 O 896.583 -1.89739 -0.427713 0
M  V30 9533 C 896.866 -1.86532 3.08022 0
M  V30 9534 C 896.719 -1.03206 4.378 0
M  V30 9535 C 898.038 -2.85036 3.35324 0
M  V30 9536 H 895.157 -0.359473 0.643388 0
M  V30 9537 H 897.799 -0.264214 1.88154 0
M  V30 9538 H 895.949 -2.48644 2.9851 0
M  V30 9539 H 897.621 -0.430743 4.59285 0
M  V30 9540 H 895.864 -0.335911 4.32497 0
M  V30 9541 H 896.535 -1.6761 5.25938 0
M  V30 9542 H 899.011 -2.3306 3.44706 0
M  V30 9543 H 897.887 -3.43226 4.28354 0
M  V30 9544 H 898.148 -3.60768 2.55537 0
M  V30 9545 N 897.207 -1.48554 -0.526253 0
M  V30 9546 C 898.435 -1.60429 -1.30652 0
M  V30 9547 C 898.85 -0.265963 -1.86917 0
M  V30 9548 O 898.207 0.745262 -1.6659 0
M  V30 9549 C 898.258 -2.65377 -2.45473 0
M  V30 9550 O 897.979 -3.94017 -1.91527 0
M  V30 9551 C 899.48 -2.87726 -3.37237 0
M  V30 9552 H 896.7 -0.540817 -0.397187 0
M  V30 9553 H 899.244 -1.94409 -0.634461 0
M  V30 9554 H 897.399 -2.34246 -3.08557 0
M  V30 9555 H 897.813 -4.51623 -2.66715 0
M  V30 9556 H 899.287 -3.64951 -4.14144 0
M  V30 9557 H 899.764 -1.96688 -3.92696 0
M  V30 9558 H 900.37 -3.20176 -2.79942 0
M  V30 9559 N 898.685 0.775411 -1.37205 0
M  V30 9560 C 899.931 1.53611 -1.32407 0
M  V30 9561 C 900.264 1.9398 0.0924103 0
M  V30 9562 O 899.539 1.63791 1.04893 0
M  V30 9563 C 899.822 2.80367 -2.25979 0
M  V30 9564 C 899.675 2.46275 -3.76389 0
M  V30 9565 C 900.994 3.82277 -2.18064 0
M  V30 9566 H 898.113 0.557278 -0.482297 0
M  V30 9567 H 900.755 0.889826 -1.67875 0
M  V30 9568 H 898.905 3.35515 -1.95862 0
M  V30 9569 H 900.577 1.9707 -4.17087 0
M  V30 9570 H 898.82 1.79023 -3.95137 0
M  V30 9571 H 899.491 3.36868 -4.37291 0
M  V30 9572 H 901.967 3.36613 -2.44604 0
M  V30 9573 H 900.843 4.68696 -2.85684 0
M  V30 9574 H 901.104 4.26272 -1.17239 0
M  V30 9575 N 900.163 1.21714 1.00117 0
M  V30 9576 C 901.111 0.976937 2.11089 0
M  V30 9577 C 902.105 -0.0771295 1.69224 0
M  V30 9578 O 903.311 0.0745945 1.79845 0
M  V30 9579 H 899.686 0.298687 0.690138 0
M  V30 9580 H 901.657 1.91881 2.28526 0
M  V30 9581 C 900.406 0.562369 3.43122 0
M  V30 9582 H 899.729 1.36509 3.75773 0
M  V30 9583 H 901.169 0.433642 4.21777 0
M  V30 9584 C 899.628 -0.727148 3.28959 0
M  V30 9585 O 900.158 -1.78171 3.60025 0
M  V30 9586 N 898.364 -0.695129 2.82164 0
M  V30 9587 H 897.911 0.163346 2.57082 0
M  V30 9588 H 897.869 -1.55822 2.73069 0
M  V30 9589 N 901.641 -1.19671 1.02551 0
M  V30 9590 C 902.918 -1.85014 0.634771 0
M  V30 9591 C 903.298 -1.91574 -0.886706 0
M  V30 9592 O 902.646 -1.43022 -1.78205 0
M  V30 9593 C 902.856 -3.24167 1.29292 0
M  V30 9594 C 904.204 -4.00363 1.41402 0
M  V30 9595 O 905.228 -3.33553 1.24983 0
M  V30 9596 O 904.087 -5.2003 1.6802 0
M  V30 9597 H 901.181 -0.797147 0.220196 0
M  V30 9598 H 903.727 -1.27188 1.12345 0
M  V30 9599 H 902.499 -3.14208 2.33215 0
M  V30 9600 H 902.122 -3.89634 0.791895 0
M  V30 9601 N 903.119 -0.802921 -1.35613 0
M  V30 9602 C 904.359 -0.387163 -2.007 0
M  V30 9603 C 904.723 1.02546 -1.62322 0
M  V30 9604 O 905.924 1.54303 -2.201 0
M  V30 9605 C 904.195 -0.560813 -3.52973 0
M  V30 9606 S 905.754 -0.234935 -4.38171 0
M  V30 9607 H 902.572 -0.147218 -0.695592 0
M  V30 9608 H 905.174 -1.04437 -1.65267 0
M  V30 9609 H 903.878 -1.58897 -3.78391 0
M  V30 9610 H 903.409 0.111845 -3.93241 0
M  V30 9611 H 905.424 0.958715 -4.8685 0
M  V30 9612 N 904.597 1.47463 -0.556102 0
M  V30 9613 C 905.874 1.9557 0.0339892 0
M  V30 9614 C 906.254 1.49869 1.48669 0
M  V30 9615 O 905.602 0.737019 2.16288 0
M  V30 9616 C 905.812 3.48826 -0.110343 0
M  V30 9617 C 907.16 4.24585 0.0355716 0
M  V30 9618 O 908.184 3.5618 -0.0378356 0
M  V30 9619 O 907.043 5.46158 0.193299 0
M  V30 9620 H 904.137 0.824461 0.0647521 0
M  V30 9621 H 906.683 1.57868 -0.622547 0
M  V30 9622 H 905.455 3.74891 -1.12126 0
M  V30 9623 H 905.078 3.9329 0.583855 0
M  V30 9624 N 906.075 0.2925 1.54862 0
M  V30 9625 C 907.038 -0.574423 2.21885 0
M  V30 9626 C 908.038 -1.06791 1.20218 0
M  V30 9627 O 909.228 -0.9653 1.45009 0
M  V30 9628 C 906.36 -1.79438 2.89853 0
M  V30 9629 H 907.553 0.0110319 2.99898 0
M  V30 9630 H 905.106 0.043256 1.5624 0
M  V30 9631 H 905.841 -2.4199 2.15897 0
M  V30 9632 H 905.626 -1.44827 3.64373 0
M  V30 9633 H 907.116 -2.41048 3.41007 0
M  V30 9634 N 907.553 -1.57587 0.0200696 0
M  V30 9635 C 908.5 -2.09667 -0.964791 0
M  V30 9636 C 909.47 -0.99664 -1.32877 0
M  V30 9637 O 910.655 -1.2703 -1.42366 0
M  V30 9638 C 907.795 -2.62101 -2.24493 0
M  V30 9639 C 906.908 -3.8608 -1.93821 0
M  V30 9640 C 906.043 -4.26939 -3.16064 0
M  V30 9641 C 905.082 -5.43701 -2.81169 0
M  V30 9642 N 904.219 -5.79759 -3.9601 0
M  V30 9643 H 909.059 -2.93538 -0.513751 0
M  V30 9644 H 906.596 -1.45096 -0.242 0
M  V30 9645 H 908.554 -2.90587 -2.99358 0
M  V30 9646 H 907.184 -1.81074 -2.6723 0
M  V30 9647 H 906.236 -3.64378 -1.09237 0
M  V30 9648 H 907.548 -4.71028 -1.64115 0
M  V30 9649 H 906.702 -4.56814 -3.99257 0
M  V30 9650 H 905.441 -3.40739 -3.48924 0
M  V30 9651 H 904.446 -5.13529 -1.96387 0
M  V30 9652 H 905.671 -6.31593 -2.49535 0
M  V30 9653 H 903.617 -4.96516 -4.28729 0
M  V30 9654 H 903.534 -6.59327 -3.69896 0
M  V30 9655 H 904.802 -6.14235 -4.79933 0
M  V30 9656 N 909.032 0.252966 -1.55557 0
M  V30 9657 C 909.962 1.31691 -1.9282 0
M  V30 9658 C 910.943 1.50516 -0.7924 0
M  V30 9659 O 912.128 1.63225 -1.05219 0
M  V30 9660 C 909.258 2.67281 -2.21762 0
M  V30 9661 C 908.212 2.6316 -3.37536 0
M  V30 9662 C 907.538 4.02488 -3.52005 0
M  V30 9663 C 908.838 2.20675 -4.73392 0
M  V30 9664 H 910.532 1.00751 -2.81939 0
M  V30 9665 H 908.078 0.483219 -1.3565 0
M  V30 9666 H 910.031 3.41842 -2.46419 0
M  V30 9667 H 908.755 2.99845 -1.29463 0
M  V30 9668 H 907.414 1.91057 -3.12878 0
M  V30 9669 H 907.062 4.32307 -2.57137 0
M  V30 9670 H 906.762 4.00621 -4.29857 0
M  V30 9671 H 908.286 4.78758 -3.78977 0
M  V30 9672 H 909.7 2.84965 -4.97461 0
M  V30 9673 H 908.097 2.29931 -5.54303 0
M  V30 9674 H 909.167 1.15831 -4.70862 0
M  V30 9675 N 910.51 1.48831 0.518367 0
M  V30 9676 C 911.457 1.64216 1.62178 0
M  V30 9677 C 912.427 0.483942 1.58894 0
M  V30 9678 O 913.612 0.708857 1.77144 0
M  V30 9679 C 910.752 1.69867 3.00399 0
M  V30 9680 C 909.865 2.96875 3.1383 0
M  V30 9681 C 909 2.93613 4.42679 0
M  V30 9682 C 908.039 4.15276 4.4968 0
M  V30 9683 N 907.176 4.10024 5.69934 0
M  V30 9684 H 912.016 2.58439 1.48368 0
M  V30 9685 H 909.553 1.28154 0.722152 0
M  V30 9686 H 911.511 1.71124 3.8049 0
M  V30 9687 H 910.141 0.791249 3.12952 0
M  V30 9688 H 909.193 3.0531 2.26914 0
M  V30 9689 H 910.505 3.86863 3.14863 0
M  V30 9690 H 909.659 2.93337 5.31073 0
M  V30 9691 H 908.398 2.01375 4.44184 0
M  V30 9692 H 907.403 4.15816 3.59691 0
M  V30 9693 H 908.628 5.08687 4.49904 0
M  V30 9694 H 906.574 3.20613 5.72314 0
M  V30 9695 H 906.491 4.93728 5.72511 0
M  V30 9696 H 907.759 4.13824 6.60583 0
M  V30 9697 N 911.988 -0.768124 1.37614 0
M  V30 9698 C 913.213 -1.56239 1.36397 0
M  V30 9699 C 913.638 -1.8804 -0.0475839 0
M  V30 9700 O 912.996 -1.495 -1.02564 0
M  V30 9701 C 913.044 -2.84716 2.21289 0
M  V30 9702 O 912.148 -3.79249 1.62001 0
M  V30 9703 H 911.489 -0.473119 0.465891 0
M  V30 9704 H 914.019 -0.950415 1.81186 0
M  V30 9705 H 914.029 -3.33784 2.34632 0
M  V30 9706 H 912.704 -2.60899 3.2389 0
M  V30 9707 H 911.281 -3.37904 1.57719 0
M  V30 9708 N 913.466 -1.22244 -0.994698 0
M  V30 9709 C 914.743 -0.954459 -1.70732 0
M  V30 9710 C 915.123 0.530945 -2.04314 0
M  V30 9711 O 914.471 1.49851 -1.72502 0
M  V30 9712 C 914.681 -1.85016 -2.95922 0
M  V30 9713 C 916.029 -2.10517 -3.68738 0
M  V30 9714 O 917.053 -1.82449 -3.05926 0
M  V30 9715 O 915.912 -2.58044 -4.81742 0
M  V30 9716 H 913.006 -0.35879 -0.745116 0
M  V30 9717 H 915.552 -1.33221 -1.0512 0
M  V30 9718 H 914.324 -2.85498 -2.67594 0
M  V30 9719 H 913.947 -1.47388 -3.69273 0
M  V30 9720 N 914.944 1.19125 -1.03184 0
M  V30 9721 C 916.192 1.8851 -0.728587 0
M  V30 9722 C 916.513 1.80195 0.74531 0
M  V30 9723 O 915.783 1.21437 1.5372 0
M  V30 9724 H 914.363 0.69784 -0.266511 0
M  V30 9725 H 917.025 1.44607 -1.3067 0
M  V30 9726 H 916.121 2.9477 -1.02554 0
M  V30 9727 N 916.422 0.810101 1.35185 0
M  V30 9728 C 917.65 0.404696 2.02903 0
M  V30 9729 C 918.065 -0.985434 1.61042 0
M  V30 9730 O 917.422 -1.63557 0.809658 0
M  V30 9731 C 917.473 0.482493 3.58266 0
M  V30 9732 O 917.194 1.81782 3.98606 0
M  V30 9733 C 918.695 0.070345 4.43244 0
M  V30 9734 H 915.915 0.163972 0.650657 0
M  V30 9735 H 918.459 1.0947 1.72733 0
M  V30 9736 H 916.614 -0.159296 3.87072 0
M  V30 9737 H 917.028 1.78306 4.93262 0
M  V30 9738 H 918.502 0.175888 5.5172 0
M  V30 9739 H 918.979 -0.984724 4.28018 0
M  V30 9740 H 919.585 0.685427 4.1974 0
M  V30 9741 N 917.9 -1.47166 0.563914 0
M  V30 9742 C 919.149 -2.0166 0.0401871 0
M  V30 9743 C 919.462 -1.44303 -1.32046 0
M  V30 9744 O 920.668 -1.905 -1.93448 0
M  V30 9745 C 919.124 -3.59894 0.0213257 0
M  V30 9746 C 918.732 -4.26244 1.37914 0
M  V30 9747 C 920.476 -4.22114 -0.449442 0
M  V30 9748 C 918.383 -5.76503 1.31902 0
M  V30 9749 H 917.313 -0.753916 0.0112534 0
M  V30 9750 H 919.964 -1.69091 0.712766 0
M  V30 9751 H 918.346 -3.89454 -0.717038 0
M  V30 9752 H 919.52 -4.08317 2.13574 0
M  V30 9753 H 917.835 -3.76039 1.78839 0
M  V30 9754 H 920.432 -5.32234 -0.51292 0
M  V30 9755 H 920.775 -3.89749 -1.46291 0
M  V30 9756 H 921.308 -3.9711 0.23427 0
M  V30 9757 H 918.047 -6.13498 2.3087 0
M  V30 9758 H 917.567 -5.96748 0.604324 0
M  V30 9759 H 919.246 -6.38846 1.02392 0
M  V30 9760 N 919.378 -0.300708 -1.54705 0
M  V30 9761 C 920.341 0.562648 -2.22187 0
M  V30 9762 C 921.341 1.06152 -1.20782 0
M  V30 9763 O 922.531 0.957596 -1.45519 0
M  V30 9764 C 919.663 1.77899 -2.908 0
M  V30 9765 H 920.856 -0.0269361 -2.99888 0
M  V30 9766 H 918.409 -0.0515412 -1.56215 0
M  V30 9767 H 919.144 2.40841 -2.17177 0
M  V30 9768 H 918.929 1.42892 -3.65136 0
M  V30 9769 H 920.419 2.39236 -3.42281 0
M  V30 9770 N 920.856 1.57574 -0.0284266 0
M  V30 9771 C 921.819 2.09096 0.938691 0
M  V30 9772 C 922.819 1.00588 1.25454 0
M  V30 9773 O 924.009 1.2675 1.19499 0
M  V30 9774 C 921.141 2.55624 2.25542 0
M  V30 9775 H 922.334 2.95829 0.49248 0
M  V30 9776 H 919.887 1.5475 0.219594 0
M  V30 9777 H 920.622 1.72218 2.74793 0
M  V30 9778 H 920.407 3.34896 2.03929 0
M  V30 9779 H 921.897 2.95712 2.94863 0
M  V30 9780 N 922.334 -0.244713 1.55689 0
M  V30 9781 C 923.583 -0.970373 1.76824 0
M  V30 9782 C 923.896 -1.86402 0.592764 0
M  V30 9783 O 925.102 -2.62659 0.687186 0
M  V30 9784 C 923.558 -1.77547 3.13058 0
M  V30 9785 C 923.166 -0.929104 4.3826 0
M  V30 9786 C 924.91 -2.49373 3.43531 0
M  V30 9787 C 922.817 -1.73021 5.65524 0
M  V30 9788 H 921.747 -0.366048 0.659185 0
M  V30 9789 H 924.398 -0.224964 1.82116 0
M  V30 9790 H 922.78 -2.56291 3.01879 0
M  V30 9791 H 923.954 -0.183836 4.60433 0
M  V30 9792 H 922.269 -0.324071 4.15137 0
M  V30 9793 H 924.866 -3.09767 4.35831 0
M  V30 9794 H 925.209 -3.21099 2.64955 0
M  V30 9795 H 925.742 -1.77637 3.55935 0
M  V30 9796 H 922.481 -1.05666 6.46927 0
M  V30 9797 H 922.001 -2.45071 5.47449 0
M  V30 9798 H 923.68 -2.2968 6.0486 0
M  V30 9799 N 923.813 -1.49104 -0.510467 0
M  V30 9800 C 925.041 -1.61806 -1.28944 0
M  V30 9801 C 925.456 -0.285774 -1.86625 0
M  V30 9802 O 924.813 0.727551 -1.67371 0
M  V30 9803 C 924.864 -2.67966 -2.42645 0
M  V30 9804 O 924.585 -3.96026 -1.87337 0
M  V30 9805 C 926.086 -2.91286 -3.34166 0
M  V30 9806 H 923.306 -0.544999 -0.391429 0
M  V30 9807 H 925.85 -1.95071 -0.613805 0
M  V30 9808 H 924.005 -2.37505 -3.06056 0
M  V30 9809 H 924.419 -4.54427 -2.61909 0
M  V30 9810 H 925.893 -3.69323 -4.1025 0
M  V30 9811 H 926.37 -2.00842 -3.90588 0
M  V30 9812 H 926.976 -3.23127 -2.76531 0
M  V30 9813 N 925.291 0.760815 -1.38019 0
M  V30 9814 C 926.201 1.90526 -1.36884 0
M  V30 9815 C 927.217 1.71941 -0.266908 0
M  V30 9816 O 928.393 1.94988 -0.50413 0
M  V30 9817 C 925.458 3.25799 -1.18558 0
M  V30 9818 C 924.519 3.56961 -2.3849 0
M  V30 9819 C 923.752 4.8578 -2.21029 0
M  V30 9820 O 923.975 5.57629 -1.20023 0
M  V30 9821 O 922.909 5.16254 -3.0946 0
M  V30 9822 H 926.735 1.94437 -2.33298 0
M  V30 9823 H 924.32 0.905091 -1.18863 0
M  V30 9824 H 926.202 4.0669 -1.1037 0
M  V30 9825 H 924.877 3.22716 -0.252241 0
M  V30 9826 H 923.784 2.7626 -2.52252 0
M  V30 9827 H 925.117 3.64798 -3.30429 0
M  V30 9828 N 926.769 1.22769 0.988202 0
M  V30 9829 C 927.716 1.00195 2.07917 0
M  V30 9830 C 928.686 -0.0779391 1.65917 0
M  V30 9831 O 929.871 0.0726005 1.90662 0
M  V30 9832 C 927.011 0.590853 3.40004 0
M  V30 9833 C 926.124 1.74202 3.9532 0
M  V30 9834 C 925.259 1.27846 5.15586 0
M  V30 9835 C 924.298 2.40087 5.63049 0
M  V30 9836 N 923.435 1.94744 6.74551 0
M  V30 9837 H 928.275 1.93581 2.26562 0
M  V30 9838 H 925.812 0.96448 1.11068 0
M  V30 9839 H 927.77 0.333653 4.15864 0
M  V30 9840 H 926.4 -0.306007 3.21346 0
M  V30 9841 H 925.452 2.11342 3.16289 0
M  V30 9842 H 926.764 2.58612 4.26522 0
M  V30 9843 H 925.918 0.978919 5.9875 0
M  V30 9844 H 924.657 0.404617 4.86019 0
M  V30 9845 H 923.662 2.70824 4.78471 0
M  V30 9846 H 924.887 3.27995 5.9464 0
M  V30 9847 H 922.833 1.09729 6.46758 0
M  V30 9848 H 922.75 2.72718 7.05096 0
M  V30 9849 H 924.018 1.67873 7.61209 0
M  V30 9850 N 928.247 -1.18576 1.03814 0
M  V30 9851 C 929.157 -2.25778 0.637311 0
M  V30 9852 C 930.173 -1.7074 -0.335248 0
M  V30 9853 O 931.349 -2.00494 -0.19081 0
M  V30 9854 C 928.414 -3.467 0.00386953 0
M  V30 9855 C 927.475 -4.16881 1.02511 0
M  V30 9856 C 926.708 -5.32031 0.421802 0
M  V30 9857 O 926.931 -5.65142 -0.772699 0
M  V30 9858 O 925.865 -5.90826 1.14925 0
M  V30 9859 H 929.691 -2.62323 1.53037 0
M  V30 9860 H 927.276 -1.25609 0.80887 0
M  V30 9861 H 929.158 -4.19953 -0.348873 0
M  V30 9862 H 927.833 -3.11983 -0.863047 0
M  V30 9863 H 926.74 -3.45707 1.4296 0
M  V30 9864 H 928.073 -4.55592 1.86271 0
M  V30 9865 N 929.725 -0.817259 -1.34754 0
M  V30 9866 C 930.953 -0.415451 -2.02686 0
M  V30 9867 C 931.368 0.97688 -1.61563 0
M  V30 9868 O 930.725 1.63125 -0.818321 0
M  V30 9869 C 930.776 -0.501486 -3.58005 0
M  V30 9870 O 930.497 -1.83893 -3.97637 0
M  V30 9871 C 931.998 -0.0938504 -4.43201 0
M  V30 9872 H 929.218 -0.16742 -0.649778 0
M  V30 9873 H 931.762 -1.10384 -1.7215 0
M  V30 9874 H 929.917 0.138766 -3.87151 0
M  V30 9875 H 930.331 -1.8092 -4.92309 0
M  V30 9876 H 931.805 -0.205145 -5.51619 0
M  V30 9877 H 932.282 0.962011 -4.28535 0
M  V30 9878 H 932.888 -0.707677 -4.19371 0
M  V30 9879 N 931.203 1.46865 -0.571711 0
M  V30 9880 C 932.153 2.27219 0.188503 0
M  V30 9881 C 933.137 1.35221 0.872019 0
M  V30 9882 O 934.329 1.59474 0.76793 0
M  V30 9883 C 931.458 3.21321 1.20862 0
M  V30 9884 C 930.544 4.20803 0.527783 0
M  V30 9885 N 930.935 5.04132 -0.410403 0
M  V30 9886 C 929.233 4.39128 0.779909 0
M  V30 9887 C 929.934 5.76071 -0.80728 0
M  V30 9888 N 928.91 5.43368 -0.158865 0
M  V30 9889 H 932.712 2.89034 -0.532611 0
M  V30 9890 H 930.226 1.57581 -0.392696 0
M  V30 9891 H 932.223 3.77586 1.76733 0
M  V30 9892 H 930.883 2.61065 1.93067 0
M  V30 9893 H 931.894 5.11911 -0.785351 0
M  V30 9894 H 928.571 3.90031 1.48937 0
M  V30 9895 H 929.961 6.53082 -1.57903 0
M  V30 9896 N 932.681 0.308908 1.54543 0
M  V30 9897 C 933.928 -0.298036 2.00295 0
M  V30 9898 C 934.256 -1.53285 1.19724 0
M  V30 9899 O 933.511 -1.93917 0.263551 0
M  V30 9900 C 933.81 -0.691522 3.50646 0
M  V30 9901 C 933.476 0.442454 4.48724 0
M  V30 9902 C 932.138 0.753739 4.7526 0
M  V30 9903 C 934.49 1.20488 5.07082 0
M  V30 9904 C 931.818 1.83044 5.57415 0
M  V30 9905 C 934.17 2.27156 5.90409 0
M  V30 9906 C 932.834 2.58882 6.15253 0
M  V30 9907 H 932.104 -0.109059 0.73293 0
M  V30 9908 H 934.751 0.429647 1.86618 0
M  V30 9909 H 933.056 -1.49941 3.61974 0
M  V30 9910 H 934.753 -1.17244 3.83477 0
M  V30 9911 H 931.343 0.189744 4.2818 0
M  V30 9912 H 935.527 0.977653 4.86575 0
M  V30 9913 H 930.783 2.08088 5.749 0
M  V30 9914 H 934.957 2.86687 6.34652 0
M  V30 9915 H 932.584 3.42443 6.78702 0
M  V30 9916 O 934.198 -1.6054 0.175817 0
M  V30 9917 H 934.889 -1.89244 -0.4131 0
M  V30 END ATOM
M  V30 BEGIN BOND
M  V30 END BOND
M  V30 END CTAB
M  END
$$$$
