drugbank_target|P06009 Reaction center protein L chain (DB04147; DB04464; DB07392; DB07551; DB07552; DB08215; DB08689; DB08690)
 OpenBabel12092120423D

  0  0  0     0  0            999 V3000
M  V30 BEGIN CTAB
M  V30 COUNTS 4286 4374 0 0 0
M  V30 BEGIN ATOM
M  V30 1 H -0.908 1.98254 -0.117106 0
M  V30 2 N 0 1.576 0 0
M  V30 3 C 0.933 2.03868 1.02534 0
M  V30 4 C 1.911 0.928543 1.3348 0
M  V30 5 O 3.095 1.19667 1.45644 0
M  V30 6 C 0.222 2.43627 2.35294 0
M  V30 7 C -0.732 3.65373 2.2001 0
M  V30 8 S 0.101 5.13292 1.52614 0
M  V30 9 C 1.257 5.56322 2.86805 0
M  V30 10 H 1.49 2.90518 0.631377 0
M  V30 11 H -0.977 1.52953 0.210867 0
M  V30 12 H 0.981 2.67203 3.11629 0
M  V30 13 H -0.358 1.57376 2.7183 0
M  V30 14 H -1.165 3.90944 3.18086 0
M  V30 15 H -1.563 3.418 1.51819 0
M  V30 16 H 0.729 5.58782 3.83104 0
M  V30 17 H 1.672 6.56266 2.65933 0
M  V30 18 H 2.08 4.83886 2.90714 0
M  V30 19 N 1.4781 -0.272755 1.55222 0
M  V30 20 C 2.4411 -1.32041 1.87344 0
M  V30 21 C 3.4411 -1.42342 0.74803 0
M  V30 22 O 4.6311 -1.41488 1.0162 0
M  V30 23 C 1.7631 -2.70173 2.07893 0
M  V30 24 H 2.9561 -1.04789 2.80997 0
M  V30 25 H 0.5091 -0.51083 1.47717 0
M  V30 26 H 1.2441 -3.02605 1.16622 0
M  V30 27 H 1.0291 -2.64082 2.89833 0
M  V30 28 H 2.5191 -3.45869 2.34017 0
M  V30 29 N 2.9562 -1.48159 -0.537278 0
M  V30 30 C 3.8862 -1.65029 -1.6519 0
M  V30 31 C 4.8672 -0.499281 -1.62607 0
M  V30 32 O 6.0522 -0.730972 -1.79918 0
M  V30 33 C 3.1822 -1.68303 -3.03795 0
M  V30 34 C 2.1362 -2.8283 -3.21234 0
M  V30 35 C 1.4622 -2.71189 -4.60826 0
M  V30 36 C 2.7622 -4.24211 -3.04701 0
M  V30 37 H 4.4562 -2.58341 -1.51328 0
M  V30 38 H 2.0022 -1.24325 -0.726585 0
M  V30 39 H 3.9552 -1.78693 -3.81637 0
M  V30 40 H 2.6792 -0.715635 -3.18663 0
M  V30 41 H 1.3382 -2.71983 -2.45807 0
M  V30 42 H 0.9862 -1.72435 -4.7252 0
M  V30 43 H 0.6862 -3.48035 -4.7344 0
M  V30 44 H 2.2102 -2.83537 -5.40777 0
M  V30 45 H 3.6242 -4.3593 -3.72341 0
M  V30 46 H 2.0212 -5.01998 -3.28813 0
M  V30 47 H 3.0912 -4.41184 -2.01209 0
M  V30 48 N 4.4343 0.785586 -1.36625 0
M  V30 49 C 5.3643 1.91259 -1.33949 0
M  V30 50 C 6.3453 1.68795 -0.210325 0
M  V30 51 O 7.5303 1.89854 -0.408561 0
M  V30 52 C 4.6603 3.28339 -1.13186 0
M  V30 53 C 3.6143 3.65335 -2.22967 0
M  V30 54 C 2.9403 5.00806 -1.87342 0
M  V30 55 C 4.2403 3.7352 -3.65075 0
M  V30 56 H 5.9343 1.93755 -2.28253 0
M  V30 57 H 3.4803 0.930788 -1.09874 0
M  V30 58 H 5.4333 4.06804 -1.09948 0
M  V30 59 H 4.1573 3.2624 -0.153332 0
M  V30 60 H 2.8163 2.89169 -2.25337 0
M  V30 61 H 2.4643 4.95233 -0.880545 0
M  V30 62 H 2.1643 5.26529 -2.60846 0
M  V30 63 H 3.6883 5.81687 -1.85667 0
M  V30 64 H 5.1023 4.42168 -3.64911 0
M  V30 65 H 3.4993 4.10731 -4.37516 0
M  V30 66 H 4.5693 2.74527 -3.99703 0
M  V30 67 N 5.9124 1.20967 1.01018 0
M  V30 68 C 7.1374 1.0503 1.78839 0
M  V30 69 C 7.5624 -0.395752 1.8389 0
M  V30 70 O 6.9204 -1.28529 1.27867 0
M  V30 71 C 6.9684 1.64602 3.2084 0
M  V30 72 O 6.0724 0.887988 4.02726 0
M  V30 73 H 5.4134 0.369987 0.551367 0
M  V30 74 H 7.9434 1.60399 1.27018 0
M  V30 75 H 7.9534 1.68607 3.71532 0
M  V30 76 H 6.6284 2.69841 3.16479 0
M  V30 77 H 5.2054 0.922648 3.61305 0
M  V30 78 N 7.3905 -1.2043 1.01659 0
M  V30 79 C 8.6375 -1.89797 0.705917 0
M  V30 80 C 8.9655 -1.78848 -0.764439 0
M  V30 81 O 8.2205 -1.16694 -1.57102 0
M  V30 82 C 8.5195 -3.40464 1.08714 0
M  V30 83 C 8.1855 -3.71614 2.5537 0
M  V30 84 C 6.8475 -3.79826 2.95441 0
M  V30 85 C 9.1995 -3.85915 3.50313 0
M  V30 86 C 6.5275 -3.99797 4.29394 0
M  V30 87 C 8.8795 -4.07396 4.83954 0
M  V30 88 C 7.5435 -4.13837 5.23732 0
M  V30 89 H 6.8135 -0.694518 0.258313 0
M  V30 90 H 9.4605 -1.42691 1.27717 0
M  V30 91 H 7.7655 -3.89385 0.434309 0
M  V30 92 H 9.4625 -3.92433 0.824461 0
M  V30 93 H 6.0525 -3.65822 2.23321 0
M  V30 94 H 10.2365 -3.78926 3.20513 0
M  V30 95 H 5.4925 -4.03018 4.59768 0
M  V30 96 H 9.6665 -4.17404 5.57447 0
M  V30 97 H 7.2935 -4.29064 6.27541 0
M  V30 98 N 8.8686 -0.792821 -1.36206 0
M  V30 99 C 9.7786 -0.194808 -2.3379 0
M  V30 100 C 10.7946 0.654869 -1.61206 0
M  V30 101 O 11.9706 0.569856 -1.9317 0
M  V30 102 C 9.0356 0.657721 -3.40404 0
M  V30 103 C 8.0966 -0.210849 -4.28782 0
M  V30 104 C 7.3296 0.601086 -5.30304 0
M  V30 105 O 7.5526 1.83682 -5.40016 0
M  V30 106 O 6.4866 -0.000808277 -6.019 0
M  V30 107 H 10.3126 -1.00172 -2.86704 0
M  V30 108 H 7.8976 -0.554341 -1.38735 0
M  V30 109 H 9.7796 1.14375 -4.05581 0
M  V30 110 H 8.4546 1.44247 -2.89784 0
M  V30 111 H 7.3616 -0.743714 -3.66633 0
M  V30 112 H 8.6946 -0.959195 -4.82763 0
M  V30 113 N 10.3467 1.47872 -0.545128 0
M  V30 114 C 11.7627 1.5829 -0.204032 0
M  V30 115 C 11.9627 1.54529 1.29317 0
M  V30 116 O 11.0187 1.44232 2.07252 0
M  V30 117 C 12.3317 2.89304 -0.819987 0
M  V30 118 C 13.8797 3.02864 -0.790105 0
M  V30 119 C 14.3547 4.3656 -1.38491 0
M  V30 120 N 15.8457 4.43165 -1.34755 0
M  V30 121 C 16.5807 5.45153 -1.77753 0
M  V30 122 N 16.0767 6.54016 -2.2855 0
M  V30 123 N 17.8697 5.36125 -1.68897 0
M  V30 124 H 10.0207 1.4856 -1.51802 0
M  V30 125 H 12.2837 0.706305 -0.632327 0
M  V30 126 H 11.9897 2.97757 -1.87173 0
M  V30 127 H 11.8637 3.75957 -0.305915 0
M  V30 128 H 14.2507 2.94014 0.252913 0
M  V30 129 H 14.3317 2.17782 -1.34181 0
M  V30 130 H 13.9757 4.46164 -2.42693 0
M  V30 131 H 13.9057 5.20353 -0.808754 0
M  V30 132 H 16.3967 3.65083 -0.975855 0
M  V30 133 H 16.7097 7.27994 -2.59314 0
M  V30 134 H 15.0547 6.54938 -2.32553 0
M  V30 135 H 18.2457 4.49975 -1.28998 0
M  V30 136 H 18.4187 6.15472 -2.02726 0
M  V30 137 N 11.8248 0.280983 1.55075 0
M  V30 138 C 12.7718 -0.603937 2.22758 0
M  V30 139 C 13.7418 -1.1452 1.20309 0
M  V30 140 O 14.9268 -1.19343 1.48869 0
M  V30 141 C 12.0668 -1.77947 2.95684 0
M  V30 142 C 11.1798 -1.2715 4.12864 0
M  V30 143 C 10.3148 -2.4093 4.7342 0
M  V30 144 C 9.3538 -1.87165 5.82783 0
M  V30 145 N 8.4908 -2.94441 6.37377 0
M  V30 146 H 13.3308 -0.020124 2.97993 0
M  V30 147 H 10.8678 0.00183425 1.471 0
M  V30 148 H 12.8258 -2.47055 3.36184 0
M  V30 149 H 11.4558 -2.33522 2.22861 0
M  V30 150 H 10.5078 -0.473331 3.77444 0
M  V30 151 H 11.8198 -0.837751 4.91715 0
M  V30 152 H 10.9738 -3.18021 5.1667 0
M  V30 153 H 9.7128 -2.87623 3.93859 0
M  V30 154 H 8.7178 -1.08556 5.38976 0
M  V30 155 H 9.9428 -1.41401 6.64216 0
M  V30 156 H 7.8888 -3.40505 5.60707 0
M  V30 157 H 7.8058 -2.55501 7.11516 0
M  V30 158 H 9.0738 -3.71489 6.85285 0
M  V30 159 N 13.3029 -1.57598 0.00835791 0
M  V30 160 C 14.5329 -1.94931 -0.684496 0
M  V30 161 C 14.9409 -0.882233 -1.67372 0
M  V30 162 O 14.2839 0.146621 -1.83114 0
M  V30 163 C 14.3459 -3.283 -1.4649 0
M  V30 164 C 14.0099 -4.52548 -0.63634 0
M  V30 165 C 15.0069 -5.19839 0.0795586 0
M  V30 166 C 12.6919 -4.98942 -0.579849 0
M  V30 167 C 14.6859 -6.3183 0.840843 0
M  V30 168 C 12.3729 -6.10819 0.185155 0
M  V30 169 C 13.3709 -6.77121 0.894227 0
M  V30 170 O 13.0589 -7.86853 1.64673 0
M  V30 171 H 12.7909 -0.647249 -0.19505 0
M  V30 172 H 15.3449 -2.05318 0.0581272 0
M  V30 173 H 13.5749 -3.14345 -2.2522 0
M  V30 174 H 15.2639 -3.50685 -2.04389 0
M  V30 175 H 16.0299 -4.84979 0.0451202 0
M  V30 176 H 11.9089 -4.47155 -1.1213 0
M  V30 177 H 15.4529 -6.83513 1.39483 0
M  V30 178 H 11.3499 -6.4512 0.221384 0
M  V30 179 H 12.1179 -8.03412 1.56432 0
M  V30 180 N 14.781 0.264519 -1.55364 0
M  V30 181 C 16.197 0.61215 -1.47394 0
M  V30 182 C 16.397 1.89134 -0.695018 0
M  V30 183 O 15.453 2.51563 -0.217275 0
M  V30 184 C 16.766 0.731235 -2.91674 0
M  V30 185 C 18.314 0.82473 -3.01939 0
M  V30 186 C 18.789 0.975522 -4.4749 0
M  V30 187 N 20.28 1.04083 -4.51354 0
M  V30 188 C 21.015 1.17646 -5.61201 0
M  V30 189 N 20.511 1.27874 -6.80896 0
M  V30 190 N 22.304 1.20823 -5.48961 0
M  V30 191 H 14.455 -0.575456 -2.04456 0
M  V30 192 H 16.718 -0.196099 -0.927496 0
M  V30 193 H 16.424 -0.138392 -3.51428 0
M  V30 194 H 16.298 1.60883 -3.41169 0
M  V30 195 H 18.685 1.68482 -2.42276 0
M  V30 196 H 18.766 -0.0776479 -2.55682 0
M  V30 197 H 18.41 0.120058 -5.07758 0
M  V30 198 H 18.34 1.89268 -4.91412 0
M  V30 199 H 20.831 0.973846 -3.65136 0
M  V30 200 H 21.144 1.38081 -7.60364 0
M  V30 201 H 19.489 1.24863 -6.83692 0
M  V30 202 H 22.68 1.12469 -4.54388 0
M  V30 203 H 22.853 1.31049 -6.3461 0
M  V30 204 N 16.2591 1.48442 0.529413 0
M  V30 205 C 17.5051 1.5672 1.28711 0
M  V30 206 C 17.8381 0.2406 1.92704 0
M  V30 207 O 17.1131 -0.753454 1.79313 0
M  V30 208 C 17.3961 2.70587 2.37603 0
M  V30 209 C 17.2491 4.12953 1.78297 0
M  V30 210 C 18.5681 2.80212 3.39366 0
M  V30 211 H 15.6871 0.570474 0.466613 0
M  V30 212 H 18.3291 1.80617 0.589706 0
M  V30 213 H 16.4791 2.50342 2.97088 0
M  V30 214 H 18.1511 4.44639 1.22858 0
M  V30 215 H 16.3941 4.19927 1.0883 0
M  V30 216 H 17.0651 4.88448 2.57144 0
M  V30 217 H 19.5411 2.98553 2.89836 0
M  V30 218 H 18.4171 3.61611 4.12951 0
M  V30 219 H 18.6781 1.88393 3.99951 0
M  V30 220 N 17.7372 -0.778329 1.37039 0
M  V30 221 C 19.1532 -1.07796 1.17695 0
M  V30 222 C 19.3532 -2.01498 0.00860115 0
M  V30 223 O 18.4092 -2.43901 -0.653352 0
M  V30 224 C 19.7222 -1.68178 2.49272 0
M  V30 225 C 21.2702 -1.80467 2.55735 0
M  V30 226 C 21.7452 -2.44263 3.87427 0
M  V30 227 N 23.2362 -2.51721 3.88833 0
M  V30 228 C 23.9712 -3.01919 4.87476 0
M  V30 229 N 23.4672 -3.5234 5.96513 0
M  V30 230 N 25.2602 -3.00733 4.74885 0
M  V30 231 H 17.4112 -0.156032 2.11826 0
M  V30 232 H 19.6742 -0.131844 0.938787 0
M  V30 233 H 19.3802 -1.06796 3.35093 0
M  V30 234 H 19.2542 -2.67554 2.65885 0
M  V30 235 H 21.6412 -2.40984 1.70325 0
M  V30 236 H 21.7222 -0.798656 2.43013 0
M  V30 237 H 21.3662 -1.84388 4.73248 0
M  V30 238 H 21.2962 -3.45458 3.9745 0
M  V30 239 H 23.7872 -2.1603 3.10063 0
M  V30 240 H 24.1002 -3.89027 6.67741 0
M  V30 241 H 22.4452 -3.50462 6.00168 0
M  V30 242 H 25.6362 -2.60638 3.88826 0
M  V30 243 H 25.8092 -3.39545 5.51918 0
M  V30 244 N 19.2153 -1.21501 -1.00376 0
M  V30 245 C 20.4633 -1.03095 -1.73827 0
M  V30 246 C 20.7843 0.436341 -1.90055 0
M  V30 247 O 20.0543 1.31466 -1.45236 0
M  V30 248 H 18.6343 -0.378487 -0.644016 0
M  V30 249 H 21.2963 -1.52831 -1.20949 0
M  V30 250 H 20.3923 -1.49991 -2.73695 0
M  V30 251 N 20.6934 1.19889 -1.02296 0
M  V30 252 C 21.9414 1.89046 -0.714558 0
M  V30 253 C 22.2624 1.79636 0.758681 0
M  V30 254 O 21.5324 1.20292 1.54618 0
M  V30 255 H 20.1124 0.699802 -0.261317 0
M  V30 256 H 22.7744 1.45574 -1.29592 0
M  V30 257 H 21.8704 2.95524 -1.0036 0
M  V30 258 N 22.1715 0.800033 1.35784 0
M  V30 259 C 23.3995 0.389606 2.03199 0
M  V30 260 C 23.8145 -0.997375 1.60306 0
M  V30 261 O 23.1715 -1.64154 0.797481 0
M  V30 262 C 23.2225 0.455855 3.58614 0
M  V30 263 O 22.9435 1.78815 3.99946 0
M  V30 264 C 24.4445 0.0374032 4.43284 0
M  V30 265 H 21.6645 0.159132 0.651857 0
M  V30 266 H 24.2085 1.08183 1.73541 0
M  V30 267 H 22.3635 -0.188057 3.86943 0
M  V30 268 H 22.7775 1.74636 4.94573 0
M  V30 269 H 24.2515 0.134882 5.51835 0
M  V30 270 H 24.7285 -1.01651 4.27275 0
M  V30 271 H 25.3345 0.654215 4.20238 0
M  V30 272 N 23.6496 -1.47581 0.552962 0
M  V30 273 C 24.5796 -2.32762 -0.185451 0
M  V30 274 C 25.5606 -1.43527 -0.912905 0
M  V30 275 O 26.7456 -1.72388 -0.894201 0
M  V30 276 C 23.8756 -3.25219 -1.21859 0
M  V30 277 C 22.8296 -4.23661 -0.607864 0
M  V30 278 C 22.1556 -5.05413 -1.74533 0
M  V30 279 C 23.4556 -5.20481 0.435582 0
M  V30 280 H 25.1496 -2.94749 0.525684 0
M  V30 281 H 22.6956 -1.41738 0.254251 0
M  V30 282 H 24.6486 -3.8365 -1.7433 0
M  V30 283 H 23.3726 -2.61279 -1.95961 0
M  V30 284 H 22.0316 -3.66451 -0.104489 0
M  V30 285 H 21.6796 -4.3788 -2.47529 0
M  V30 286 H 21.3796 -5.72059 -1.34249 0
M  V30 287 H 22.9036 -5.66701 -2.27338 0
M  V30 288 H 24.3176 -5.733 -0.00290157 0
M  V30 289 H 22.7146 -5.95305 0.757067 0
M  V30 290 H 23.7846 -4.66217 1.33303 0
M  V30 291 N 25.1277 -0.289203 -1.54924 0
M  V30 292 C 26.3767 0.324231 -1.99077 0
M  V30 293 C 26.6897 1.5591 -1.18117 0
M  V30 294 O 27.8957 2.24637 -1.52481 0
M  V30 295 C 26.3517 0.628209 -3.54375 0
M  V30 296 C 25.9597 -0.587647 -4.44129 0
M  V30 297 C 27.7037 1.20349 -4.07083 0
M  V30 298 C 25.6107 -0.257475 -5.90839 0
M  V30 299 H 24.5407 0.124924 -0.743579 0
M  V30 300 H 27.1917 -0.396063 -1.79175 0
M  V30 301 H 25.5737 1.40778 -3.70132 0
M  V30 302 H 26.7477 -1.36418 -4.40144 0
M  V30 303 H 25.0627 -1.08074 -4.0213 0
M  V30 304 H 27.6597 1.46456 -5.14252 0
M  V30 305 H 28.0027 2.14195 -3.56968 0
M  V30 306 H 28.5357 0.485889 -3.94821 0
M  V30 307 H 25.2747 -1.16419 -6.45079 0
M  V30 308 H 24.7947 0.482018 -5.9786 0
M  V30 309 H 26.4737 0.145238 -6.46837 0
M  V30 310 N 26.6058 1.57591 -0.0167156 0
M  V30 311 C 27.8538 1.90906 0.663285 0
M  V30 312 C 28.1748 0.892509 1.73376 0
M  V30 313 O 27.4448 -0.0677623 1.95783 0
M  V30 314 H 26.0248 0.704637 0.247983 0
M  V30 315 H 28.6868 1.94803 -0.0615909 0
M  V30 316 H 27.7828 2.9116 1.12393 0
M  V30 317 N 28.0839 -0.256276 1.55502 0
M  V30 318 C 29.3319 -0.983672 1.76545 0
M  V30 319 C 29.6529 -1.86206 0.578982 0
M  V30 320 O 28.9229 -1.91656 -0.405577 0
M  V30 321 H 27.5029 -0.366191 0.651086 0
M  V30 322 H 30.1649 -0.276479 1.92929 0
M  V30 323 H 29.2609 -1.61087 2.67315 0
M  V30 324 N 29.562 -1.4872 -0.521534 0
M  V30 325 C 30.839 -1.4766 -1.2828 0
M  V30 326 C 31.219 -0.19292 -2.10217 0
M  V30 327 O 30.567 0.825193 -2.13079 0
M  V30 328 C 30.777 -2.74358 -2.15705 0
M  V30 329 C 32.125 -3.23028 -2.75569 0
M  V30 330 O 33.149 -2.75333 -2.25987 0
M  V30 331 O 32.008 -4.0604 -3.65778 0
M  V30 332 H 29.102 -0.590085 -0.579421 0
M  V30 333 H 31.648 -1.60963 -0.537492 0
M  V30 334 H 30.42 -3.59292 -1.54999 0
M  V30 335 H 30.043 -2.63816 -2.97467 0
M  V30 336 N 31.0401 0.771051 -1.3745 0
M  V30 337 C 31.9701 1.89827 -1.3597 0
M  V30 338 C 32.9511 1.68562 -0.228216 0
M  V30 339 O 34.1361 1.8941 -0.428675 0
M  V30 340 C 31.2661 3.2712 -1.16662 0
M  V30 341 C 30.2201 3.6295 -2.2683 0
M  V30 342 C 29.5461 4.98791 -1.92644 0
M  V30 343 C 30.8461 3.69627 -3.69017 0
M  V30 344 H 32.5401 1.91323 -2.30295 0
M  V30 345 H 30.0861 0.919082 -1.10855 0
M  V30 346 H 32.0391 4.05615 -1.14256 0
M  V30 347 H 30.7631 3.26059 -0.187926 0
M  V30 348 H 29.4221 2.86763 -2.28392 0
M  V30 349 H 29.0701 4.94271 -0.933021 0
M  V30 350 H 28.7701 5.23733 -2.66416 0
M  V30 351 H 30.2941 5.79685 -1.91826 0
M  V30 352 H 31.7081 4.38273 -3.69581 0
M  V30 353 H 30.1051 4.06067 -4.41848 0
M  V30 354 H 31.1751 2.70273 -4.02592 0
M  V30 355 N 32.5182 1.22032 0.997298 0
M  V30 356 C 33.7652 1.04222 1.73621 0
M  V30 357 C 34.0932 -0.423264 1.89839 0
M  V30 358 O 33.3482 -1.3302 1.43542 0
M  V30 359 C 33.6472 1.69345 3.14733 0
M  V30 360 C 33.3132 3.19226 3.18442 0
M  V30 361 C 31.9752 3.60124 3.19161 0
M  V30 362 C 34.3272 4.15181 3.15078 0
M  V30 363 C 31.6552 4.95467 3.14212 0
M  V30 364 C 34.0072 5.50495 3.1167 0
M  V30 365 C 32.6712 5.90779 3.10703 0
M  V30 366 H 31.9412 0.381374 0.635323 0
M  V30 367 H 34.5882 1.51732 1.16831 0
M  V30 368 H 32.8932 1.14147 3.74803 0
M  V30 369 H 34.5902 1.53059 3.7064 0
M  V30 370 H 31.1802 2.86659 3.18629 0
M  V30 371 H 35.3642 3.84605 3.13676 0
M  V30 372 H 30.6202 5.25916 3.11805 0
M  V30 373 H 34.7942 6.24576 3.08022 0
M  V30 374 H 32.4212 6.9562 3.06622 0
M  V30 375 N 33.9963 -1.19345 1.0293 0
M  V30 376 C 35.2733 -1.84811 0.640642 0
M  V30 377 C 35.6533 -1.91855 -0.88062 0
M  V30 378 O 35.0013 -1.43587 -1.7775 0
M  V30 379 C 35.2113 -3.23755 1.30321 0
M  V30 380 C 36.5593 -3.99912 1.42673 0
M  V30 381 O 37.5833 -3.33155 1.26041 0
M  V30 382 O 36.4423 -5.19494 1.6967 0
M  V30 383 H 33.5363 -0.796443 0.222726 0
M  V30 384 H 36.0823 -1.26831 1.12748 0
M  V30 385 H 34.8543 -3.13466 2.34211 0
M  V30 386 H 34.4773 -3.89381 0.804261 0
M  V30 387 N 35.4744 -0.807222 -1.35358 0
M  V30 388 C 36.7214 -0.387888 -1.9875 0
M  V30 389 C 37.0494 1.04509 -1.64037 0
M  V30 390 O 36.3044 1.73986 -0.895946 0
M  V30 391 C 36.6034 -0.519036 -3.53611 0
M  V30 392 C 36.2694 -1.91542 -4.08194 0
M  V30 393 C 34.9314 -2.29745 -4.22813 0
M  V30 394 C 37.2834 -2.82896 -4.37744 0
M  V30 395 C 34.6114 -3.58668 -4.643 0
M  V30 396 C 36.9634 -4.11265 -4.8067 0
M  V30 397 C 35.6274 -4.49466 -4.93494 0
M  V30 398 H 34.8974 -0.141938 -0.727279 0
M  V30 399 H 37.5444 -1.02814 -1.6156 0
M  V30 400 H 35.8494 0.204658 -3.91265 0
M  V30 401 H 37.5464 -0.175345 -4.00616 0
M  V30 402 H 34.1364 -1.60862 -3.97268 0
M  V30 403 H 38.3204 -2.54629 -4.26002 0
M  V30 404 H 33.5764 -3.88113 -4.72418 0
M  V30 405 H 37.7504 -4.82153 -5.02496 0
M  V30 406 H 35.3774 -5.49418 -5.25399 0
M  V30 407 N 36.9525 1.47285 -0.560781 0
M  V30 408 C 38.1985 2.03347 -0.0463654 0
M  V30 409 C 38.5535 1.42702 1.2905 0
M  V30 410 O 37.8465 0.574619 1.8278 0
M  V30 411 C 38.0405 3.57258 0.100784 0
M  V30 412 C 37.8695 4.32827 -1.22027 0
M  V30 413 C 36.6395 4.72588 -1.78854 0
M  V30 414 C 38.8375 4.67739 -2.13834 0
M  V30 415 N 36.8195 5.32816 -3.04927 0
M  V30 416 C 38.1905 5.28307 -3.24487 0
M  V30 417 C 40.2455 4.49667 -2.13784 0
M  V30 418 C 38.9485 5.72711 -4.35194 0
M  V30 419 C 40.9745 4.95073 -3.23506 0
M  V30 420 C 40.3365 5.55693 -4.32879 0
M  V30 421 H 36.4355 0.779755 -0.0592166 0
M  V30 422 H 39.0195 1.79723 -0.748857 0
M  V30 423 H 37.1905 3.80642 0.772404 0
M  V30 424 H 38.9225 3.9996 0.617589 0
M  V30 425 H 35.6775 4.54656 -1.32609 0
M  V30 426 H 36.1015 5.67471 -3.69197 0
M  V30 427 H 40.7435 4.02154 -1.30507 0
M  V30 428 H 38.4615 6.19214 -5.1923 0
M  V30 429 H 42.0475 4.82859 -3.24559 0
M  V30 430 H 40.9275 5.90188 -5.1638 0
M  V30 431 N 38.4306 0.297415 1.54768 0
M  V30 432 C 39.6766 -0.313376 2.00364 0
M  V30 433 C 40.0096 -1.53815 1.18553 0
M  V30 434 O 39.2846 -1.92739 0.261103 0
M  V30 435 C 39.5676 -0.673525 3.53745 0
M  V30 436 C 39.4206 0.560133 4.46299 0
M  V30 437 C 40.7396 -1.50143 4.13697 0
M  V30 438 H 37.8586 -0.112428 0.728374 0
M  V30 439 H 40.5006 0.4088 1.8555 0
M  V30 440 H 38.6506 -1.28881 3.665 0
M  V30 441 H 40.3226 1.19863 4.45455 0
M  V30 442 H 38.5656 1.19405 4.17043 0
M  V30 443 H 39.2366 0.26405 5.51368 0
M  V30 444 H 41.7126 -0.981588 4.04356 0
M  V30 445 H 40.5886 -1.72221 5.21182 0
M  V30 446 H 40.8496 -2.48952 3.65343 0
M  V30 447 N 39.9087 -1.5758 0.0250728 0
M  V30 448 C 41.1567 -1.91255 -0.653151 0
M  V30 449 C 41.4777 -0.901691 -1.729 0
M  V30 450 O 40.7477 0.0573785 -1.95816 0
M  V30 451 H 39.3277 -0.705942 -0.244243 0
M  V30 452 H 41.9897 -1.94767 0.0719209 0
M  V30 453 H 41.0857 -2.91752 -1.10847 0
M  V30 454 N 41.3868 0.248026 -1.55636 0
M  V30 455 C 42.7978 0.817177 -1.67866 0
M  V30 456 C 43.1488 1.86069 -0.622322 0
M  V30 457 O 42.2738 2.15157 0.231618 0
M  V30 458 C 42.8688 1.489 -3.04326 0
M  V30 459 C 41.4278 2.00587 -3.185 0
M  V30 460 C 40.5748 0.856573 -2.63739 0
M  V30 461 H 43.5258 0.0238579 -1.58682 0
M  V30 462 H 43.5468 2.35698 -2.98708 0
M  V30 463 H 43.0588 0.729279 -3.81186 0
M  V30 464 H 41.1598 2.79443 -2.4646 0
M  V30 465 H 41.2728 2.20402 -4.25393 0
M  V30 466 H 39.6368 1.25678 -2.21534 0
M  V30 467 H 40.4198 0.109953 -3.43124 0
M  V30 468 N 42.8649 1.48995 0.513639 0
M  V30 469 C 44.0949 1.61297 1.291 0
M  V30 470 C 44.5029 0.278656 1.87137 0
M  V30 471 O 43.8459 -0.744325 1.67945 0
M  V30 472 C 43.9079 2.61326 2.46879 0
M  V30 473 C 43.5719 4.05993 2.09807 0
M  V30 474 C 44.5689 4.93183 1.64519 0
M  V30 475 C 42.2539 4.51642 2.19829 0
M  V30 476 C 44.2479 6.24056 1.2974 0
M  V30 477 C 41.9349 5.82532 1.84662 0
M  V30 478 C 42.9329 6.68562 1.3969 0
M  V30 479 O 42.6209 7.97014 1.04992 0
M  V30 480 H 42.3529 0.546236 0.39825 0
M  V30 481 H 44.9069 1.95673 0.62459 0
M  V30 482 H 43.1369 2.22104 3.16554 0
M  V30 483 H 44.8259 2.6329 3.08923 0
M  V30 484 H 45.5919 4.59147 1.56233 0
M  V30 485 H 41.4709 3.84855 2.53786 0
M  V30 486 H 45.0149 6.91161 0.945659 0
M  V30 487 H 40.9119 6.16099 1.92594 0
M  V30 488 H 41.6799 8.09913 1.18249 0
M  V30 489 N 44.343 -0.763751 1.37857 0
M  V30 490 C 45.59 -1.52257 1.33506 0
M  V30 491 C 45.918 -1.94343 -0.078022 0
M  V30 492 O 45.173 -1.64958 -1.05297 0
M  V30 493 C 45.472 -2.79499 2.22745 0
M  V30 494 C 45.138 -2.56426 3.70886 0
M  V30 495 C 43.8 -2.49842 4.11257 0
M  V30 496 C 46.152 -2.36008 4.64704 0
M  V30 497 C 43.48 -2.20841 5.43549 0
M  V30 498 C 45.832 -2.0853 5.97242 0
M  V30 499 C 44.496 -2.00396 6.36709 0
M  V30 500 H 43.766 -0.557149 0.488534 0
M  V30 501 H 46.413 -0.879073 1.70131 0
M  V30 502 H 44.718 -3.48447 1.79142 0
M  V30 503 H 46.415 -3.37413 2.16688 0
M  V30 504 H 43.005 -2.62416 3.38874 0
M  V30 505 H 47.189 -2.40079 4.34368 0
M  V30 506 H 42.445 -2.13045 5.73081 0
M  V30 507 H 46.619 -1.91732 6.69486 0
M  V30 508 H 44.246 -1.77688 7.39142 0
M  V30 509 N 45.8211 -1.22559 -0.990812 0
M  V30 510 C 47.0671 -1.05297 -1.73322 0
M  V30 511 C 47.4001 0.410655 -1.89808 0
M  V30 512 O 46.6751 1.30439 -1.44277 0
M  V30 513 C 46.9581 -1.76713 -3.13759 0
M  V30 514 C 46.8111 -3.30684 -3.04907 0
M  V30 515 C 48.1301 -1.52121 -4.12974 0
M  V30 516 H 45.2491 -0.38392 -0.629106 0
M  V30 517 H 47.8911 -1.50926 -1.15418 0
M  V30 518 H 46.0411 -1.37924 -3.63193 0
M  V30 519 H 47.7131 -3.7893 -2.63077 0
M  V30 520 H 45.9561 -3.60253 -2.41661 0
M  V30 521 H 46.6271 -3.75833 -4.04294 0
M  V30 522 H 49.1031 -1.85819 -3.72304 0
M  V30 523 H 47.9791 -2.04582 -5.0935 0
M  V30 524 H 48.2401 -0.454257 -4.3976 0
M  V30 525 N 47.2992 1.18797 -1.03562 0
M  V30 526 C 48.5472 1.88278 -0.734569 0
M  V30 527 C 48.8682 1.8043 0.739586 0
M  V30 528 O 48.1382 1.21925 1.53333 0
M  V30 529 H 46.7182 0.696991 -0.268725 0
M  V30 530 H 49.3802 1.44192 -1.31129 0
M  V30 531 H 48.4762 2.94443 -1.03489 0
M  V30 532 N 48.7773 0.814389 1.34928 0
M  V30 533 C 50.0243 0.398423 1.98542 0
M  V30 534 C 50.3523 -1.03638 1.64589 0
M  V30 535 O 49.6073 -1.73509 0.90516 0
M  V30 536 C 49.9063 0.537781 3.53331 0
M  V30 537 C 49.5723 1.93704 4.07172 0
M  V30 538 C 48.2343 2.31984 4.21589 0
M  V30 539 C 50.5863 2.85213 4.36237 0
M  V30 540 C 47.9143 3.61125 4.62391 0
M  V30 541 C 50.2663 4.13809 4.78482 0
M  V30 542 C 48.9303 4.52077 4.91104 0
M  V30 543 H 48.2003 0.145793 0.726516 0
M  V30 544 H 50.8473 1.03669 1.61012 0
M  V30 545 H 49.1523 -0.183906 3.91368 0
M  V30 546 H 50.8493 0.196588 4.00518 0
M  V30 547 H 47.4393 1.62966 3.96409 0
M  V30 548 H 51.6233 2.56885 4.24645 0
M  V30 549 H 46.8793 3.90612 4.70353 0
M  V30 550 H 51.0533 4.84811 4.99932 0
M  V30 551 H 48.6803 5.52196 5.22478 0
M  V30 552 N 50.2554 -1.46986 0.568584 0
M  V30 553 C 51.5024 -2.02441 0.0487986 0
M  V30 554 C 51.8304 -1.44169 -1.30559 0
M  V30 555 O 51.0854 -0.591213 -1.86556 0
M  V30 556 C 51.3844 -3.57306 -0.081836 0
M  V30 557 C 51.0504 -4.34552 1.20313 0
M  V30 558 C 49.7124 -4.55376 1.5552 0
M  V30 559 C 52.0644 -4.79016 2.05411 0
M  V30 560 C 49.3924 -5.17913 2.7565 0
M  V30 561 C 51.7444 -5.42879 3.24754 0
M  V30 562 C 50.4084 -5.61933 3.60261 0
M  V30 563 H 49.6784 -0.740785 0.0178567 0
M  V30 564 H 52.3254 -1.76525 0.742384 0
M  V30 565 H 50.6304 -3.8228 -0.858463 0
M  V30 566 H 52.3274 -3.97876 -0.499546 0
M  V30 567 H 48.9174 -4.18631 0.919014 0
M  V30 568 H 53.1014 -4.62696 1.79516 0
M  V30 569 H 48.3574 -5.30858 3.03315 0
M  V30 570 H 52.5314 -5.76293 3.90973 0
M  V30 571 H 50.1584 -6.10161 4.53439 0
M  V30 572 N 51.7335 -0.305618 -1.54608 0
M  V30 573 C 52.9815 0.301701 -1.99835 0
M  V30 574 C 53.3025 1.54054 -1.19551 0
M  V30 575 O 52.5725 1.93702 -0.292658 0
M  V30 576 H 51.1525 0.114468 -0.738178 0
M  V30 577 H 53.8145 -0.418016 -1.90364 0
M  V30 578 H 52.9105 0.570548 -3.06841 0
M  V30 579 N 53.2116 1.57565 -0.0334293 0
M  V30 580 C 54.4576 1.92262 0.645226 0
M  V30 581 C 54.7906 0.910543 1.71531 0
M  V30 582 O 54.0656 -0.066099 1.94388 0
M  V30 583 C 54.3486 3.37422 1.2577 0
M  V30 584 C 54.2016 4.49369 0.196891 0
M  V30 585 C 55.5206 3.82628 2.17449 0
M  V30 586 H 52.6396 0.699171 0.233085 0
M  V30 587 H 55.2816 1.89779 -0.0915694 0
M  V30 588 H 53.4316 3.39669 1.88566 0
M  V30 589 H 55.1036 4.59254 -0.433962 0
M  V30 590 H 53.3466 4.31168 -0.477137 0
M  V30 591 H 54.0176 5.47978 0.665124 0
M  V30 592 H 56.4936 3.82145 1.64634 0
M  V30 593 H 55.3696 4.84883 2.57254 0
M  V30 594 H 55.6306 3.18376 3.0674 0
M  V30 595 N 54.6897 -0.239769 1.55765 0
M  V30 596 C 55.9147 -0.988373 1.82335 0
M  V30 597 C 56.3397 -1.77886 0.611421 0
M  V30 598 O 55.6977 -1.75889 -0.439639 0
M  V30 599 C 55.7457 -1.89627 3.06715 0
M  V30 600 O 54.8497 -2.98904 2.84131 0
M  V30 601 H 54.1907 -0.280858 0.601677 0
M  V30 602 H 56.7207 -0.258597 2.02959 0
M  V30 603 H 56.7307 -2.30957 3.36338 0
M  V30 604 H 55.4057 -1.31511 3.9456 0
M  V30 605 H 53.9827 -2.61651 2.65694 0
M  V30 606 N 56.1678 -1.49265 -0.50573 0
M  V30 607 C 57.1308 -1.65075 -1.59006 0
M  V30 608 C 58.1308 -0.522768 -1.52065 0
M  V30 609 O 59.3208 -0.789117 -1.55302 0
M  V30 610 C 56.4528 -1.64369 -2.98656 0
M  V30 611 H 57.6458 -2.61784 -1.46319 0
M  V30 612 H 55.1988 -1.38226 -0.729616 0
M  V30 613 H 55.9338 -0.692272 -3.16825 0
M  V30 614 H 55.7188 -2.46282 -3.05103 0
M  V30 615 H 57.2088 -1.78674 -3.77446 0
M  V30 616 N 57.6459 0.756429 -1.3826 0
M  V30 617 C 58.8949 1.51082 -1.3363 0
M  V30 618 C 59.2079 1.95467 0.0720068 0
M  V30 619 O 60.4139 2.7043 0.240834 0
M  V30 620 C 58.8699 2.72893 -2.34644 0
M  V30 621 C 58.4779 2.35544 -3.81081 0
M  V30 622 C 60.2219 3.50791 -2.39052 0
M  V30 623 C 58.1289 3.53948 -4.73787 0
M  V30 624 H 57.0589 0.56727 -0.49671 0
M  V30 625 H 59.7099 0.827147 -1.638 0
M  V30 626 H 58.0919 3.43227 -1.97513 0
M  V30 627 H 59.2659 1.72894 -4.27135 0
M  V30 628 H 57.5809 1.70786 -3.79764 0
M  V30 629 H 60.1779 4.38823 -3.05513 0
M  V30 630 H 60.5209 3.91745 -1.40861 0
M  V30 631 H 61.0539 2.87467 -2.74968 0
M  V30 632 H 57.7929 3.18064 -5.73163 0
M  V30 633 H 57.3129 4.15651 -4.32428 0
M  V30 634 H 58.9919 4.20566 -4.91663 0
M  V30 635 N 59.124 1.23083 0.984299 0
M  V30 636 C 60.371 1.06057 1.72505 0
M  V30 637 C 60.699 -0.403105 1.90277 0
M  V30 638 O 59.954 -1.3149 1.44944 0
M  V30 639 C 60.253 1.72673 3.1292 0
M  V30 640 C 59.919 3.22586 3.15038 0
M  V30 641 C 58.581 3.63489 3.15324 0
M  V30 642 C 60.933 4.185 3.10657 0
M  V30 643 C 58.261 4.98772 3.08939 0
M  V30 644 C 60.613 5.53769 3.05814 0
M  V30 645 C 59.277 5.94041 3.04419 0
M  V30 646 H 58.547 0.388091 0.631242 0
M  V30 647 H 61.194 1.52963 1.15215 0
M  V30 648 H 59.499 1.18116 3.73572 0
M  V30 649 H 61.196 1.56982 3.68996 0
M  V30 650 H 57.786 2.90022 3.15571 0
M  V30 651 H 61.97 3.87911 3.09579 0
M  V30 652 H 57.226 5.29193 3.0621 0
M  V30 653 H 61.4 6.27808 3.0138 0
M  V30 654 H 59.027 6.98833 2.99227 0
M  V30 655 N 60.6021 -1.18246 1.0419 0
M  V30 656 C 61.8491 -1.88257 0.746017 0
M  V30 657 C 62.1771 -1.80429 -0.726331 0
M  V30 658 O 61.4321 -1.2 -1.54591 0
M  V30 659 C 61.7311 -3.38082 1.15911 0
M  V30 660 C 61.3971 -3.66114 2.63195 0
M  V30 661 C 60.0591 -3.73474 3.03432 0
M  V30 662 C 62.4111 -3.78398 3.5842 0
M  V30 663 C 59.7391 -3.90599 4.37778 0
M  V30 664 C 62.0911 -3.97039 4.92487 0
M  V30 665 C 60.7551 -4.02635 5.32392 0
M  V30 666 H 60.0251 -0.688883 0.272987 0
M  V30 667 H 62.6721 -1.3995 1.30715 0
M  V30 668 H 60.9771 -3.88377 0.516806 0
M  V30 669 H 62.6741 -3.90596 0.907516 0
M  V30 670 H 59.2641 -3.61003 2.3103 0
M  V30 671 H 63.4481 -3.72042 3.28479 0
M  V30 672 H 58.7041 -3.93175 4.68213 0
M  V30 673 H 62.8781 -4.05486 5.66175 0
M  V30 674 H 60.5051 -4.15657 6.36501 0
M  V30 675 N 62.0802 -0.821533 -1.34494 0
M  V30 676 C 63.3292 -0.405355 -1.97585 0
M  V30 677 C 63.6422 1.03677 -1.65863 0
M  V30 678 O 64.8482 1.55679 -2.22433 0
M  V30 679 C 63.3042 -0.673861 -3.53535 0
M  V30 680 C 62.9122 -2.12951 -3.94152 0
M  V30 681 C 64.6562 -0.32378 -4.23263 0
M  V30 682 C 62.5632 -2.34298 -5.43009 0
M  V30 683 H 61.4932 -0.147836 -0.739365 0
M  V30 684 H 64.1442 -1.00769 -1.53355 0
M  V30 685 H 62.5262 -0.00137554 -3.96 0
M  V30 686 H 63.7002 -2.84104 -3.62797 0
M  V30 687 H 62.0152 -2.44089 -3.37356 0
M  V30 688 H 64.6122 -0.461126 -5.32708 0
M  V30 689 H 64.9552 0.731586 -4.09821 0
M  V30 690 H 65.4882 -0.950786 -3.8627 0
M  V30 691 H 62.2272 -3.38335 -5.61435 0
M  V30 692 H 61.7472 -1.67687 -5.75883 0
M  V30 693 H 63.4262 -2.16588 -6.09671 0
M  V30 694 N 63.5583 1.46682 -0.576371 0
M  V30 695 C 64.8053 2.02412 -0.0595339 0
M  V30 696 C 65.1333 1.44859 1.29793 0
M  V30 697 O 64.3883 0.601099 1.8624 0
M  V30 698 C 64.6873 3.57345 0.062886 0
M  V30 699 C 64.3533 4.33908 -1.22616 0
M  V30 700 C 63.0153 4.54544 -1.57933 0
M  V30 701 C 65.3673 4.77919 -2.07948 0
M  V30 702 C 62.6953 5.16444 -2.78393 0
M  V30 703 C 65.0473 5.41149 -3.27629 0
M  V30 704 C 63.7113 5.60014 -3.63236 0
M  V30 705 H 62.9813 0.74068 -0.021785 0
M  V30 706 H 65.6283 1.76128 -0.751735 0
M  V30 707 H 63.9333 3.82729 0.838178 0
M  V30 708 H 65.6303 3.98136 0.478439 0
M  V30 709 H 62.2203 4.18138 -0.941202 0
M  V30 710 H 66.4043 4.61738 -1.81967 0
M  V30 711 H 61.6603 5.29242 -3.06126 0
M  V30 712 H 65.8343 5.74211 -3.94023 0
M  V30 713 H 63.4613 6.07748 -4.56669 0
M  V30 714 N 65.0364 0.313813 1.54444 0
M  V30 715 C 65.9664 -0.549454 2.26943 0
M  V30 716 C 66.9474 -1.12741 1.27372 0
M  V30 717 O 68.1324 -1.15436 1.56167 0
M  V30 718 C 65.2624 -1.71523 3.01989 0
M  V30 719 C 64.2164 -1.26703 4.08816 0
M  V30 720 C 63.5424 -2.51898 4.71647 0
M  V30 721 C 64.8424 -0.388962 5.2085 0
M  V30 722 H 66.5364 0.0552661 2.99349 0
M  V30 723 H 64.0824 0.0280207 1.43973 0
M  V30 724 H 66.0354 -2.32535 3.51433 0
M  V30 725 H 64.7594 -2.34639 2.27183 0
M  V30 726 H 63.4184 -0.679896 3.6024 0
M  V30 727 H 63.0664 -3.13356 3.93468 0
M  V30 728 H 62.7664 -2.22605 5.43802 0
M  V30 729 H 64.2904 -3.1369 5.23861 0
M  V30 730 H 65.7044 -0.905107 5.6611 0
M  V30 731 H 64.1014 -0.18924 5.99802 0
M  V30 732 H 65.1714 0.582699 4.81386 0
M  V30 733 N 66.5145 -1.57545 0.0417849 0
M  V30 734 C 67.7625 -1.91937 -0.632829 0
M  V30 735 C 68.0835 -0.919978 -1.71934 0
M  V30 736 O 67.3535 0.0366064 -1.95866 0
M  V30 737 H 65.9335 -0.708493 -0.236742 0
M  V30 738 H 68.5955 -1.9468 0.0925745 0
M  V30 739 H 67.6915 -2.92912 -1.07746 0
M  V30 740 N 67.9926 0.231505 -1.5589 0
M  V30 741 C 69.2386 0.95877 -1.78705 0
M  V30 742 C 69.5716 1.8438 -0.609725 0
M  V30 743 O 68.8466 1.90521 0.391426 0
M  V30 744 C 69.1296 1.8062 -3.11526 0
M  V30 745 C 68.9826 0.948328 -4.39689 0
M  V30 746 C 70.3016 2.78585 -3.40703 0
M  V30 747 H 67.4206 0.347129 -0.650131 0
M  V30 748 H 70.0626 0.228259 -1.88624 0
M  V30 749 H 68.2126 2.42902 -3.03201 0
M  V30 750 H 69.8846 0.343016 -4.60023 0
M  V30 751 H 68.1276 0.253314 -4.3306 0
M  V30 752 H 68.7986 1.57543 -5.29041 0
M  V30 753 H 71.2746 2.26439 -3.49091 0
M  V30 754 H 70.1506 3.34988 -4.34826 0
M  V30 755 H 70.4116 3.55825 -2.62375 0
M  V30 756 N 69.4707 1.49531 0.497807 0
M  V30 757 C 70.6957 1.63159 1.28039 0
M  V30 758 C 71.1207 0.30418 1.85624 0
M  V30 759 O 70.4787 -0.728618 1.66015 0
M  V30 760 C 70.5267 2.70537 2.38416 0
M  V30 761 O 69.6307 2.29931 3.42353 0
M  V30 762 H 68.9717 0.546001 0.377861 0
M  V30 763 H 71.5017 1.9574 0.59558 0
M  V30 764 H 71.5117 2.92802 2.84132 0
M  V30 765 H 70.1867 3.6689 1.95869 0
M  V30 766 H 68.7637 2.18009 3.02533 0
M  V30 767 N 70.9488 -0.749086 1.3866 0
M  V30 768 C 71.8788 -1.8764 1.38973 0
M  V30 769 C 72.8598 -1.68178 0.255004 0
M  V30 770 O 74.0448 -1.88704 0.458754 0
M  V30 771 C 71.1748 -3.25222 1.21851 0
M  V30 772 C 70.1288 -3.59295 2.32575 0
M  V30 773 C 69.4548 -4.95663 2.00555 0
M  V30 774 C 70.7548 -3.63709 3.7485 0
M  V30 775 H 72.4488 -1.87635 2.3331 0
M  V30 776 H 69.9948 -0.901329 1.12303 0
M  V30 777 H 71.9478 -4.03746 1.20695 0
M  V30 778 H 70.6718 -3.25719 0.239775 0
M  V30 779 H 69.3308 -2.83093 2.32925 0
M  V30 780 H 68.9788 -4.92724 1.01154 0
M  V30 781 H 68.6788 -5.19429 2.74714 0
M  V30 782 H 70.2028 -5.7656 2.01024 0
M  V30 783 H 71.6168 -4.32338 3.76506 0
M  V30 784 H 70.0138 -3.98986 4.48252 0
M  V30 785 H 71.0838 -2.63834 4.06841 0
M  V30 786 N 72.4269 -1.23603 -0.977757 0
M  V30 787 C 73.6759 -1.06377 -1.71368 0
M  V30 788 C 73.9889 0.399062 -1.91486 0
M  V30 789 O 75.1949 0.691312 -2.62551 0
M  V30 790 C 73.6509 -1.85512 -3.08404 0
M  V30 791 C 73.2589 -3.36141 -2.96164 0
M  V30 792 C 75.0029 -1.76783 -3.85938 0
M  V30 793 C 72.9099 -4.07659 -4.28449 0
M  V30 794 H 71.8399 -0.394452 -0.642591 0
M  V30 795 H 74.4909 -1.47594 -1.09034 0
M  V30 796 H 72.8729 -1.37103 -3.71509 0
M  V30 797 H 74.0469 -3.92056 -2.42133 0
M  V30 798 H 72.3619 -3.45712 -2.32104 0
M  V30 799 H 74.9589 -2.27526 -4.83876 0
M  V30 800 H 75.3019 -0.731116 -4.0983 0
M  V30 801 H 75.8349 -2.22818 -3.2954 0
M  V30 802 H 72.5739 -5.11648 -4.09752 0
M  V30 803 H 72.0939 -3.5653 -4.82334 0
M  V30 804 H 73.7729 -4.141 -4.97122 0
M  V30 805 N 73.905 1.17692 -1.04816 0
M  V30 806 C 75.153 1.87488 -0.754497 0
M  V30 807 C 75.474 1.81205 0.720407 0
M  V30 808 O 74.744 1.23544 1.52032 0
M  V30 809 H 73.324 0.694101 -0.276102 0
M  V30 810 H 75.986 1.42793 -1.32651 0
M  V30 811 H 75.082 2.93328 -1.06606 0
M  V30 812 N 75.3831 0.828654 1.34056 0
M  V30 813 C 76.6131 0.431993 2.02033 0
M  V30 814 C 77.0211 -0.96844 1.62536 0
M  V30 815 O 76.3641 -1.6391 0.829408 0
M  V30 816 C 76.4261 0.461224 3.56529 0
M  V30 817 C 76.0901 1.81599 4.1937 0
M  V30 818 C 77.0871 2.7777 4.39477 0
M  V30 819 C 74.7721 2.10604 4.56017 0
M  V30 820 C 76.7661 4.01115 4.95364 0
M  V30 821 C 74.4531 3.34207 5.11614 0
M  V30 822 C 75.4511 4.2928 5.31232 0
M  V30 823 O 75.1391 5.50699 5.8565 0
M  V30 824 H 74.8711 0.170943 0.654029 0
M  V30 825 H 77.4251 1.11988 1.72185 0
M  V30 826 H 75.6551 -0.283388 3.8566 0
M  V30 827 H 77.3441 0.0838149 4.05813 0
M  V30 828 H 78.1101 2.56659 4.11523 0
M  V30 829 H 73.9891 1.37402 4.40047 0
M  V30 830 H 77.5331 4.75333 5.10592 0
M  V30 831 H 73.4301 3.55179 5.38997 0
M  V30 832 H 74.1981 5.52298 6.04077 0
M  V30 833 N 76.8612 -1.46375 0.584142 0
M  V30 834 C 77.8242 -2.28784 -0.138108 0
M  V30 835 C 78.8242 -1.38471 -0.817462 0
M  V30 836 O 80.0142 -1.60833 -0.669199 0
M  V30 837 C 77.1462 -3.18892 -1.20503 0
M  V30 838 H 78.3392 -2.94117 0.586127 0
M  V30 839 H 75.8922 -1.52509 0.342171 0
M  V30 840 H 76.6272 -2.58309 -1.96079 0
M  V30 841 H 76.4122 -3.85388 -0.722384 0
M  V30 842 H 77.9022 -3.80914 -1.71155 0
M  V30 843 N 78.3393 -0.321999 -1.54275 0
M  V30 844 C 79.3023 0.531975 -2.22941 0
M  V30 845 C 80.3023 1.04478 -1.22234 0
M  V30 846 O 81.4923 0.937452 -1.46825 0
M  V30 847 C 78.6243 1.73874 -2.93224 0
M  V30 848 H 79.8173 -0.0682612 -2.99822 0
M  V30 849 H 77.3703 -0.0730644 -1.56129 0
M  V30 850 H 78.1053 2.37825 -2.20476 0
M  V30 851 H 77.8903 1.37847 -3.6707 0
M  V30 852 H 79.3803 2.34496 -3.45545 0
M  V30 853 N 79.8174 1.5752 -0.0501392 0
M  V30 854 C 81.0424 1.97376 0.636997 0
M  V30 855 C 81.4674 0.927466 1.63645 0
M  V30 856 O 80.8254 -0.10941 1.8097 0
M  V30 857 C 80.8734 3.36304 1.30123 0
M  V30 858 O 79.9774 3.34156 2.41689 0
M  V30 859 H 79.3184 0.642998 0.165679 0
M  V30 860 H 81.8484 2.04258 -0.118233 0
M  V30 861 H 81.8584 3.73008 1.65315 0
M  V30 862 H 80.5334 4.11993 0.568746 0
M  V30 863 H 79.1104 3.09196 2.08451 0
M  V30 864 N 81.2955 -0.223234 1.56011 0
M  V30 865 C 82.2275 -1.30006 1.88762 0
M  V30 866 C 83.2405 -1.43129 0.775746 0
M  V30 867 O 84.4295 -1.44057 1.05403 0
M  V30 868 C 81.5295 -2.67589 2.07965 0
M  V30 869 C 80.7025 -2.76434 3.38973 0
M  V30 870 C 79.7615 -3.95019 3.47629 0
M  V30 871 O 78.7875 -3.83436 4.20672 0
M  V30 872 N 79.9895 -5.09249 2.78649 0
M  V30 873 H 82.7545 -1.02238 2.81722 0
M  V30 874 H 80.3155 -0.413278 1.56536 0
M  V30 875 H 82.3075 -3.45297 2.11073 0
M  V30 876 H 80.8775 -2.87964 1.21638 0
M  V30 877 H 80.0975 -1.85216 3.47978 0
M  V30 878 H 81.3855 -2.79313 4.25278 0
M  V30 879 H 80.7835 -5.21556 2.19081 0
M  V30 880 H 79.3405 -5.85007 2.8742 0
M  V30 881 N 82.7736 -1.49793 -0.48987 0
M  V30 882 C 84.0216 -1.59525 -1.24081 0
M  V30 883 C 84.3426 -0.288953 -1.92847 0
M  V30 884 O 83.6126 0.692436 -1.83254 0
M  V30 885 H 82.1926 -0.587796 -0.460983 0
M  V30 886 H 84.8546 -1.86477 -0.566778 0
M  V30 887 H 83.9506 -2.39696 -1.99881 0
M  V30 888 N 84.2517 0.741722 -1.39055 0
M  V30 889 C 85.6627 1.31966 -1.32068 0
M  V30 890 C 86.0137 1.96192 0.0180797 0
M  V30 891 O 85.1387 1.95861 0.920196 0
M  V30 892 C 85.7337 2.39954 -2.39181 0
M  V30 893 C 84.2927 2.93438 -2.35735 0
M  V30 894 C 83.4397 1.66936 -2.21422 0
M  V30 895 H 86.3907 0.539721 -1.4924 0
M  V30 896 H 86.4117 3.20182 -2.05581 0
M  V30 897 H 85.9237 1.9318 -3.36605 0
M  V30 898 H 84.0247 3.4451 -1.41929 0
M  V30 899 H 84.1377 3.4701 -3.30335 0
M  V30 900 H 82.5017 1.91016 -1.68478 0
M  V30 901 H 83.2847 1.22224 -3.20806 0
M  V30 902 N 85.7298 1.2412 0.971189 0
M  V30 903 C 86.9578 1.10575 1.74874 0
M  V30 904 C 87.3728 -0.342017 1.85676 0
M  V30 905 O 86.7298 -1.23617 1.34258 0
M  V30 906 C 86.7808 1.73579 3.171 0
M  V30 907 O 86.5018 3.12695 3.06844 0
M  V30 908 C 88.0028 1.65598 4.11208 0
M  V30 909 H 85.2228 0.386504 0.548503 0
M  V30 910 H 87.7668 1.64156 1.21955 0
M  V30 911 H 85.9218 1.24009 3.67016 0
M  V30 912 H 86.3358 3.43412 3.96445 0
M  V30 913 H 87.8098 2.1437 5.08674 0
M  V30 914 H 88.2868 0.616532 4.34851 0
M  V30 915 H 88.8928 2.14578 3.67201 0
M  V30 916 N 87.2079 -1.17134 1.05439 0
M  V30 917 C 88.4539 -1.87979 0.776872 0
M  V30 918 C 88.8089 -1.7965 -0.688751 0
M  V30 919 O 88.1019 -1.19535 -1.4974 0
M  V30 920 C 88.2959 -3.36833 1.19491 0
M  V30 921 C 88.1249 -3.59653 2.69963 0
M  V30 922 C 86.8949 -3.76234 3.37307 0
M  V30 923 C 89.0929 -3.59091 3.68182 0
M  V30 924 N 87.0749 -3.86922 4.76618 0
M  V30 925 C 88.4459 -3.75659 4.93235 0
M  V30 926 C 90.5009 -3.42255 3.61616 0
M  V30 927 C 89.2039 -3.77133 6.12506 0
M  V30 928 C 91.2299 -3.45018 4.8033 0
M  V30 929 C 90.5919 -3.62096 6.04207 0
M  V30 930 H 86.6909 -0.705876 0.336546 0
M  V30 931 H 89.2749 -1.40602 1.34682 0
M  V30 932 H 87.4459 -3.82873 0.652884 0
M  V30 933 H 89.1779 -3.95305 0.866966 0
M  V30 934 H 85.9329 -3.76193 2.87708 0
M  V30 935 H 86.3569 -3.96055 5.49062 0
M  V30 936 H 90.9989 -3.27986 2.66805 0
M  V30 937 H 88.7169 -3.90186 7.07659 0
M  V30 938 H 92.3029 -3.33246 4.76905 0
M  V30 939 H 91.1829 -3.64142 6.94529 0
M  V30 940 N 88.686 -0.835752 -1.33615 0
M  V30 941 C 89.963 -0.352017 -1.92406 0
M  V30 942 C 90.343 1.16225 -1.76224 0
M  V30 943 O 89.691 1.97526 -1.14873 0
M  V30 944 C 89.901 -0.795485 -3.39813 0
M  V30 945 C 91.249 -0.801703 -4.16963 0
M  V30 946 O 92.273 -0.738889 -3.48452 0
M  V30 947 O 91.132 -0.886607 -5.3926 0
M  V30 948 H 88.226 -0.0989641 -0.821057 0
M  V30 949 H 90.772 -0.921397 -1.42507 0
M  V30 950 H 89.544 -1.83795 -3.45449 0
M  V30 951 H 89.167 -0.202505 -3.97084 0
M  V30 952 N 90.1641 1.46063 -0.591896 0
M  V30 953 C 91.5751 1.85944 -0.167822 0
M  V30 954 C 91.9261 1.49429 1.27143 0
M  V30 955 O 91.0511 0.913515 1.96173 0
M  V30 956 C 91.6461 3.37489 -0.297794 0
M  V30 957 C 90.2051 3.76332 0.0714732 0
M  V30 958 C 89.3521 2.7006 -0.629509 0
M  V30 959 H 92.3031 1.37087 -0.799555 0
M  V30 960 H 92.3241 3.77532 0.474349 0
M  V30 961 H 91.8361 3.64034 -1.3454 0
M  V30 962 H 89.9371 3.55405 1.11886 0
M  V30 963 H 90.0501 4.78088 -0.311245 0
M  V30 964 H 88.4141 2.54607 -0.0687867 0
M  V30 965 H 89.1971 2.99444 -1.67894 0
M  V30 966 N 91.6422 0.330177 1.54103 0
M  V30 967 C 92.8892 -0.270405 2.00686 0
M  V30 968 C 93.2172 -1.51621 1.21825 0
M  V30 969 O 92.4722 -1.93536 0.29025 0
M  V30 970 C 92.7712 -0.643134 3.51566 0
M  V30 971 C 92.4372 0.504251 4.48072 0
M  V30 972 C 91.0992 0.819163 4.74176 0
M  V30 973 C 93.4512 1.27465 5.05373 0
M  V30 974 C 90.7792 1.90708 5.5484 0
M  V30 975 C 93.1312 2.35271 5.87223 0
M  V30 976 C 91.7952 2.67336 6.11627 0
M  V30 977 H 91.0652 -0.0989482 0.734364 0
M  V30 978 H 93.7122 0.455324 1.86008 0
M  V30 979 H 92.0172 -1.44938 3.64006 0
M  V30 980 H 93.7142 -1.11949 3.85056 0
M  V30 981 H 90.3042 0.248733 4.27878 0
M  V30 982 H 94.4882 1.04462 4.85182 0
M  V30 983 H 89.7442 2.15991 5.71977 0
M  V30 984 H 93.9182 2.95405 6.30641 0
M  V30 985 H 91.5452 3.51763 6.73919 0
M  V30 986 N 93.1203 -1.57491 0.0584922 0
M  V30 987 C 94.0833 -2.1085 -0.898617 0
M  V30 988 C 95.0833 -1.02964 -1.23511 0
M  V30 989 O 96.2733 -1.29007 -1.17059 0
M  V30 990 C 93.4053 -2.59881 -2.20623 0
M  V30 991 H 94.5983 -2.96715 -0.435936 0
M  V30 992 H 92.1513 -1.55141 -0.190023 0
M  V30 993 H 92.8863 -1.77431 -2.71457 0
M  V30 994 H 92.6713 -3.38727 -1.97501 0
M  V30 995 H 94.1613 -3.01285 -2.89166 0
M  V30 996 N 94.5984 0.214957 -1.56127 0
M  V30 997 C 95.8474 0.936451 -1.78643 0
M  V30 998 C 96.1604 1.85237 -0.628229 0
M  V30 999 O 97.3664 2.613 -0.737186 0
M  V30 1000 C 95.8224 1.7154 -3.16389 0
M  V30 1001 C 95.4304 0.845299 -4.39953 0
M  V30 1002 C 97.1744 2.42772 -3.48227 0
M  V30 1003 C 95.0814 1.62198 -5.68723 0
M  V30 1004 H 94.0114 0.353401 -0.666051 0
M  V30 1005 H 96.6624 0.190169 -1.82512 0
M  V30 1006 H 95.0444 2.50484 -3.06715 0
M  V30 1007 H 96.2184 0.0959353 -4.607 0
M  V30 1008 H 94.5334 0.244789 -4.1568 0
M  V30 1009 H 97.1304 3.01394 -4.41663 0
M  V30 1010 H 97.4734 3.15984 -2.71035 0
M  V30 1011 H 98.0064 1.70813 -3.5926 0
M  V30 1012 H 94.7454 0.933011 -6.48826 0
M  V30 1013 H 94.2654 2.34579 -5.52026 0
M  V30 1014 H 95.9444 2.18095 -6.09133 0
M  V30 1015 N 96.0765 1.50051 0.48192 0
M  V30 1016 C 97.3015 1.64508 1.26301 0
M  V30 1017 C 97.7265 0.323851 1.85291 0
M  V30 1018 O 97.0845 -0.710969 1.66778 0
M  V30 1019 C 97.1325 2.7305 2.35533 0
M  V30 1020 O 96.2365 2.3355 3.39895 0
M  V30 1021 H 95.5775 0.549978 0.372048 0
M  V30 1022 H 98.1075 1.9636 0.574786 0
M  V30 1023 H 98.1175 2.95799 2.8101 0
M  V30 1024 H 96.7925 3.68946 1.91967 0
M  V30 1025 H 95.3695 2.21205 3.00204 0
M  V30 1026 N 97.5546 -0.734337 1.39446 0
M  V30 1027 C 98.8036 -1.48937 1.36017 0
M  V30 1028 C 99.1166 -1.95557 -0.0409005 0
M  V30 1029 O 100.323 -2.70779 -0.19778 0
M  V30 1030 C 98.7786 -2.69125 2.38955 0
M  V30 1031 C 98.3866 -2.29452 3.8478 0
M  V30 1032 C 100.131 -3.46944 2.44603 0
M  V30 1033 C 98.0376 -3.46366 4.79358 0
M  V30 1034 H 96.9676 -0.559296 0.505672 0
M  V30 1035 H 99.6186 -0.800983 1.65095 0
M  V30 1036 H 98.0006 -3.40041 2.02948 0
M  V30 1037 H 99.1746 -1.66077 4.29831 0
M  V30 1038 H 97.4896 -1.64723 3.82433 0
M  V30 1039 H 100.087 -4.33907 3.12456 0
M  V30 1040 H 100.43 -3.89454 1.47076 0
M  V30 1041 H 100.963 -2.83056 2.79507 0
M  V30 1042 H 97.7016 -3.08905 5.78151 0
M  V30 1043 H 97.2216 -4.08719 4.38986 0
M  V30 1044 H 98.9006 -4.12691 4.98292 0
M  V30 1045 N 99.0327 -1.24633 -0.964593 0
M  V30 1046 C 99.9807 -1.03917 -2.08096 0
M  V30 1047 C 100.975 0.0268581 -1.69379 0
M  V30 1048 O 102.181 -0.127952 -1.79545 0
M  V30 1049 H 98.5557 -0.319044 -0.680966 0
M  V30 1050 H 100.527 -1.98581 -2.22729 0
M  V30 1051 C 99.2757 -0.663983 -3.41301 0
M  V30 1052 H 98.5987 -1.47605 -3.71555 0
M  V30 1053 H 100.039 -0.558663 -4.20303 0
M  V30 1054 C 98.4977 0.629169 -3.30973 0
M  V30 1055 O 99.0277 1.67404 -3.65156 0
M  V30 1056 N 97.2337 0.611057 -2.84103 0
M  V30 1057 H 96.7807 -0.239593 -2.56483 0
M  V30 1058 H 96.7387 1.47647 -2.77575 0
M  V30 1059 N 100.511 1.16574 -1.06058 0
M  V30 1060 C 101.922 1.68662 -0.800632 0
M  V30 1061 C 102.273 1.84184 0.67608 0
M  V30 1062 O 101.398 1.53568 1.52466 0
M  V30 1063 C 101.993 3.06356 -1.44676 0
M  V30 1064 C 100.552 3.55575 -1.23465 0
M  V30 1065 C 99.6988 2.31616 -1.52477 0
M  V30 1066 H 102.65 1.00969 -1.22438 0
M  V30 1067 H 102.671 3.70636 -0.860788 0
M  V30 1068 H 102.183 2.95027 -2.52152 0
M  V30 1069 H 100.284 3.72167 -0.179527 0
M  V30 1070 H 100.397 4.37812 -1.94571 0
M  V30 1071 H 98.7608 2.36512 -0.945209 0
M  V30 1072 H 99.5438 2.22887 -2.61106 0
M  V30 1073 N 101.989 0.842826 1.3317 0
M  V30 1074 C 103.4 0.496651 1.79973 0
M  V30 1075 C 103.751 -0.984641 1.69703 0
M  V30 1076 O 102.876 -1.76743 1.24863 0
M  V30 1077 C 103.471 0.894727 3.26772 0
M  V30 1078 C 102.03 0.600629 3.71577 0
M  V30 1079 C 101.177 1.10091 2.5451 0
M  V30 1080 H 104.128 1.03116 1.20635 0
M  V30 1081 H 104.149 0.206347 3.7994 0
M  V30 1082 H 103.661 1.97287 3.34215 0
M  V30 1083 H 101.762 -0.467284 3.69658 0
M  V30 1084 H 101.875 1.15863 4.64879 0
M  V30 1085 H 100.239 0.52162 2.49301 0
M  V30 1086 H 101.022 2.18591 2.64713 0
M  V30 1087 N 103.467 -1.45747 0.599634 0
M  V30 1088 C 104.744 -1.95585 0.0240846 0
M  V30 1089 C 105.124 -1.54217 -1.44154 0
M  V30 1090 O 104.472 -0.800903 -2.14004 0
M  V30 1091 C 104.682 -3.48344 0.21385 0
M  V30 1092 C 106.03 -4.24504 0.0904902 0
M  V30 1093 O 107.054 -3.55911 0.143558 0
M  V30 1094 O 105.913 -5.46491 -0.0310766 0
M  V30 1095 H 103.007 -0.82602 -0.0402478 0
M  V30 1096 H 105.553 -1.55951 0.669139 0
M  V30 1097 H 104.325 -3.71397 1.23206 0
M  V30 1098 H 103.948 -3.9485 -0.466842 0
M  V30 1099 N 104.945 -0.338344 -1.53925 0
M  V30 1100 C 105.875 0.51328 -2.27789 0
M  V30 1101 C 106.856 1.107 -1.29149 0
M  V30 1102 O 108.041 1.12937 -1.57984 0
M  V30 1103 C 105.171 1.66697 -3.04679 0
M  V30 1104 C 104.125 1.20183 -4.1078 0
M  V30 1105 C 103.451 2.44363 -4.75595 0
M  V30 1106 C 104.751 0.30605 -5.21403 0
M  V30 1107 H 106.445 -0.102883 -2.99223 0
M  V30 1108 H 103.991 -0.0509219 -1.4391 0
M  V30 1109 H 105.944 2.26915 -3.55088 0
M  V30 1110 H 104.668 2.30995 -2.30887 0
M  V30 1111 H 103.327 0.622499 -3.61276 0
M  V30 1112 H 102.975 3.07057 -3.98403 0
M  V30 1113 H 102.675 2.13925 -5.47275 0
M  V30 1114 H 104.199 3.05317 -5.28786 0
M  V30 1115 H 105.613 0.814929 -5.67478 0
M  V30 1116 H 104.01 0.0937929 -6.00027 0
M  V30 1117 H 105.08 -0.65921 -4.80398 0
M  V30 1118 N 106.423 1.57458 -0.0668435 0
M  V30 1119 C 107.37 2.12439 0.902122 0
M  V30 1120 C 108.34 1.03565 1.2986 0
M  V30 1121 O 109.525 1.312 1.38532 0
M  V30 1122 C 106.665 2.6865 2.16614 0
M  V30 1123 C 105.778 3.91663 1.82274 0
M  V30 1124 C 104.913 4.36134 3.0325 0
M  V30 1125 C 103.952 5.51808 2.64904 0
M  V30 1126 N 103.089 5.9126 3.78624 0
M  V30 1127 H 107.929 2.94934 0.426382 0
M  V30 1128 H 105.466 1.4575 0.198819 0
M  V30 1129 H 107.424 2.99346 2.90599 0
M  V30 1130 H 106.054 1.88928 2.61737 0
M  V30 1131 H 105.106 3.6746 0.983719 0
M  V30 1132 H 106.418 4.75693 1.50059 0
M  V30 1133 H 105.572 4.68465 3.85519 0
M  V30 1134 H 104.311 3.50948 3.38655 0
M  V30 1135 H 103.316 5.19133 1.81055 0
M  V30 1136 H 104.541 6.38722 2.30675 0
M  V30 1137 H 102.487 5.09024 4.138 0
M  V30 1138 H 102.404 6.70018 3.5016 0
M  V30 1139 H 103.672 6.28212 4.61486 0
M  V30 1140 N 107.901 -0.206675 1.56239 0
M  V30 1141 C 109.131 -0.943975 1.83773 0
M  V30 1142 C 109.539 -1.77841 0.645703 0
M  V30 1143 O 108.882 -1.79403 -0.395008 0
M  V30 1144 C 108.944 -1.899 3.05251 0
M  V30 1145 C 108.608 -1.24764 4.39639 0
M  V30 1146 C 109.605 -0.630216 5.16066 0
M  V30 1147 C 107.29 -1.25496 4.8637 0
M  V30 1148 C 109.284 -0.0287946 6.37393 0
M  V30 1149 C 106.971 -0.649698 6.07637 0
M  V30 1150 C 107.969 -0.0376845 6.8299 0
M  V30 1151 O 107.657 0.55812 8.0196 0
M  V30 1152 H 107.389 -0.281508 0.614597 0
M  V30 1153 H 109.943 -0.222458 2.04192 0
M  V30 1154 H 108.173 -2.6599 2.80689 0
M  V30 1155 H 109.862 -2.5031 3.1953 0
M  V30 1156 H 110.628 -0.616785 4.81062 0
M  V30 1157 H 106.507 -1.72072 4.27683 0
M  V30 1158 H 110.051 0.449518 6.9615 0
M  V30 1159 H 105.948 -0.660592 6.42111 0
M  V30 1160 H 106.716 0.453891 8.17241 0
M  V30 1161 N 109.379 -1.50304 -0.473955 0
M  V30 1162 C 110.627 -1.60832 -1.22382 0
M  V30 1163 C 110.948 -0.30939 -1.9253 0
M  V30 1164 O 110.218 0.67296 -1.83978 0
M  V30 1165 H 108.798 -0.592652 -0.454723 0
M  V30 1166 H 111.46 -1.87068 -0.546968 0
M  V30 1167 H 110.556 -2.41803 -1.97327 0
M  V30 1168 N 110.857 0.726932 -1.39834 0
M  V30 1169 C 111.787 1.85405 -1.41941 0
M  V30 1170 C 112.768 1.67751 -0.281728 0
M  V30 1171 O 113.953 1.8795 -0.488717 0
M  V30 1172 C 111.083 3.23243 -1.2701 0
M  V30 1173 C 110.037 3.55549 -2.38262 0
M  V30 1174 C 109.363 4.9241 -2.08415 0
M  V30 1175 C 110.663 3.577 -3.80589 0
M  V30 1176 H 112.357 1.83899 -2.36266 0
M  V30 1177 H 109.903 0.883349 -1.13723 0
M  V30 1178 H 111.856 4.01775 -1.27103 0
M  V30 1179 H 110.58 3.25296 -0.291564 0
M  V30 1180 H 109.239 2.79351 -2.37399 0
M  V30 1181 H 108.887 4.91052 -1.0898 0
M  V30 1182 H 108.587 5.14992 -2.82943 0
M  V30 1183 H 110.111 5.73289 -2.10171 0
M  V30 1184 H 111.525 4.26293 -3.83337 0
M  V30 1185 H 109.922 3.91804 -4.54543 0
M  V30 1186 H 110.992 2.57328 -4.10987 0
M  V30 1187 N 112.336 1.25143 0.95797 0
M  V30 1188 C 113.584 1.09476 1.69881 0
M  V30 1189 C 113.905 -0.365502 1.91544 0
M  V30 1190 O 113.175 -1.25985 1.50015 0
M  V30 1191 H 111.755 0.402128 0.629525 0
M  V30 1192 H 114.417 1.57214 1.15194 0
M  V30 1193 H 113.513 1.60046 2.6794 0
M  V30 1194 N 113.814 -1.1601 1.06675 0
M  V30 1195 C 114.777 -2.18724 0.685001 0
M  V30 1196 C 115.777 -1.58496 -0.271246 0
M  V30 1197 O 116.967 -1.74119 -0.0531156 0
M  V30 1198 C 114.099 -3.40899 0.00853648 0
M  V30 1199 H 115.292 -2.54011 1.59431 0
M  V30 1200 H 112.845 -1.30352 0.862441 0
M  V30 1201 H 113.58 -3.11173 -0.913337 0
M  V30 1202 H 113.365 -3.8587 0.696204 0
M  V30 1203 H 114.855 -4.16886 -0.24414 0
M  V30 1204 N 115.292 -0.849877 -1.32721 0
M  V30 1205 C 116.255 -0.296122 -2.27279 0
M  V30 1206 C 117.255 0.541458 -1.5141 0
M  V30 1207 O 118.445 0.353658 -1.70572 0
M  V30 1208 C 115.577 0.581579 -3.35902 0
M  V30 1209 H 116.77 -1.13064 -2.77771 0
M  V30 1210 H 114.323 -0.62383 -1.43311 0
M  V30 1211 H 115.058 1.43809 -2.9067 0
M  V30 1212 H 114.843 -0.0178814 -3.92096 0
M  V30 1213 H 116.333 0.961951 -4.0637 0
M  V30 1214 N 116.77 1.45427 -0.607355 0
M  V30 1215 C 118.181 1.85756 -0.187535 0
M  V30 1216 C 118.532 1.5077 1.25551 0
M  V30 1217 O 117.657 0.93427 1.95193 0
M  V30 1218 C 118.252 3.37154 -0.333572 0
M  V30 1219 C 116.811 3.76387 0.0315542 0
M  V30 1220 C 115.958 2.69377 -0.658117 0
M  V30 1221 H 118.909 1.36231 -0.81405 0
M  V30 1222 H 118.93 3.78014 0.43428 0
M  V30 1223 H 118.442 3.62586 -1.38393 0
M  V30 1224 H 116.543 3.56571 1.0811 0
M  V30 1225 H 116.656 4.77731 -0.361935 0
M  V30 1226 H 115.02 2.5452 -0.0957873 0
M  V30 1227 H 115.803 2.97646 -1.7106 0
M  V30 1228 N 118.248 0.346503 1.53744 0
M  V30 1229 C 119.178 -0.501193 2.28058 0
M  V30 1230 C 120.159 -1.10014 1.29734 0
M  V30 1231 O 121.344 -1.12097 1.58581 0
M  V30 1232 C 118.474 -1.65078 3.05559 0
M  V30 1233 C 117.428 -1.18003 4.11411 0
M  V30 1234 C 116.754 -2.41837 4.76884 0
M  V30 1235 C 118.054 -0.278394 5.21558 0
M  V30 1236 H 119.748 0.11875 2.99164 0
M  V30 1237 H 117.294 0.0585531 1.43881 0
M  V30 1238 H 119.247 -2.25028 3.56287 0
M  V30 1239 H 117.971 -2.29767 2.32109 0
M  V30 1240 H 116.63 -0.603331 3.61601 0
M  V30 1241 H 116.278 -3.0494 4.00026 0
M  V30 1242 H 115.978 -2.1102 5.48402 0
M  V30 1243 H 117.502 -3.02508 5.30397 0
M  V30 1244 H 118.916 -0.784823 5.67903 0
M  V30 1245 H 117.313 -0.0619707 6.00068 0
M  V30 1246 H 118.383 0.684677 4.80042 0
M  V30 1247 N 119.726 -1.57421 0.075193 0
M  V30 1248 C 120.656 -2.15942 -0.888324 0
M  V30 1249 C 121.637 -1.08737 -1.30806 0
M  V30 1250 O 122.822 -1.36787 -1.37851 0
M  V30 1251 C 119.952 -2.72379 -2.1547 0
M  V30 1252 C 118.906 -3.8478 -1.87425 0
M  V30 1253 C 118.232 -4.27834 -3.20721 0
M  V30 1254 C 119.532 -5.08869 -1.17684 0
M  V30 1255 H 121.226 -2.96705 -0.400799 0
M  V30 1256 H 118.772 -1.42723 -0.191342 0
M  V30 1257 H 120.725 -3.11965 -2.83295 0
M  V30 1258 H 119.449 -1.88841 -2.6647 0
M  V30 1259 H 118.108 -3.45703 -1.22004 0
M  V30 1260 H 117.756 -3.41214 -3.6957 0
M  V30 1261 H 117.456 -5.03605 -3.02746 0
M  V30 1262 H 118.98 -4.70039 -3.89738 0
M  V30 1263 H 120.394 -5.4575 -1.75584 0
M  V30 1264 H 118.791 -5.8994 -1.09956 0
M  V30 1265 H 119.861 -4.84648 -0.156453 0
M  V30 1266 N 121.204 0.198386 -1.56346 0
M  V30 1267 C 122.114 1.2664 -1.97483 0
M  V30 1268 C 123.13 1.49989 -0.882002 0
M  V30 1269 O 124.306 1.62668 -1.18748 0
M  V30 1270 C 121.371 2.59141 -2.30319 0
M  V30 1271 C 120.432 2.43892 -3.53292 0
M  V30 1272 C 119.665 3.70074 -3.84553 0
M  V30 1273 O 119.888 4.74101 -3.1715 0
M  V30 1274 O 118.822 3.658 -4.7799 0
M  V30 1275 H 122.648 0.947304 -2.88548 0
M  V30 1276 H 120.233 0.403123 -1.43859 0
M  V30 1277 H 122.115 3.37352 -2.5253 0
M  V30 1278 H 120.79 2.90684 -1.42423 0
M  V30 1279 H 119.697 1.63803 -3.36332 0
M  V30 1280 H 121.03 2.17282 -4.41644 0
M  V30 1281 N 122.682 1.50554 0.465978 0
M  V30 1282 C 123.93 1.61479 1.21528 0
M  V30 1283 C 124.251 0.319596 1.92363 0
M  V30 1284 O 123.521 -0.663194 1.84333 0
M  V30 1285 H 122.101 0.595055 0.451573 0
M  V30 1286 H 124.763 1.87355 0.53704 0
M  V30 1287 H 123.859 2.42846 1.96042 0
M  V30 1288 N 124.16 -0.719506 1.40217 0
M  V30 1289 C 125.408 -1.47641 1.3801 0
M  V30 1290 C 125.729 -1.94992 -0.018145 0
M  V30 1291 O 124.999 -1.70073 -0.972207 0
M  V30 1292 H 123.579 -0.547744 0.507923 0
M  V30 1293 H 126.241 -0.853187 1.75233 0
M  V30 1294 H 125.337 -2.35112 2.05253 0
M  V30 1295 N 125.638 -1.25649 -0.95132 0
M  V30 1296 C 126.885 -1.10594 -1.69633 0
M  V30 1297 C 127.213 0.352515 -1.91279 0
M  V30 1298 O 126.468 1.27601 -1.4838 0
M  V30 1299 C 126.767 -1.80909 -3.08231 0
M  V30 1300 C 126.433 -3.30825 -3.06375 0
M  V30 1301 C 125.095 -3.71722 -3.05576 0
M  V30 1302 C 127.447 -4.26589 -2.99452 0
M  V30 1303 C 124.775 -5.06788 -2.95606 0
M  V30 1304 C 127.127 -5.61683 -2.91024 0
M  V30 1305 C 125.791 -6.01904 -2.88562 0
M  V30 1306 H 125.061 -0.404691 -0.620731 0
M  V30 1307 H 127.708 -1.55964 -1.11119 0
M  V30 1308 H 126.013 -1.27979 -3.70309 0
M  V30 1309 H 127.71 -1.6671 -3.64704 0
M  V30 1310 H 124.3 -2.98287 -3.07771 0
M  V30 1311 H 128.484 -3.95982 -2.99185 0
M  V30 1312 H 123.74 -5.37126 -2.92071 0
M  V30 1313 H 127.914 -6.35578 -2.84629 0
M  V30 1314 H 125.541 -7.06521 -2.80593 0
M  V30 1315 N 127.117 1.15442 -1.07289 0
M  V30 1316 C 128.363 1.8672 -0.806679 0
M  V30 1317 C 128.718 1.80723 0.660084 0
M  V30 1318 O 128.011 1.21902 1.47819 0
M  V30 1319 C 128.205 3.3489 -1.24834 0
M  V30 1320 C 128.034 3.55313 -2.7565 0
M  V30 1321 C 126.804 3.7082 -3.4325 0
M  V30 1322 C 129.002 3.53188 -3.73848 0
M  V30 1323 N 126.984 3.7929 -4.82713 0
M  V30 1324 C 128.355 3.67765 -4.99149 0
M  V30 1325 C 130.41 3.36459 -3.67015 0
M  V30 1326 C 129.113 3.6734 -6.18428 0
M  V30 1327 C 131.139 3.37333 -4.85758 0
M  V30 1328 C 130.501 3.52438 -6.09891 0
M  V30 1329 H 126.6 0.700433 -0.347733 0
M  V30 1330 H 129.184 1.38441 -1.36902 0
M  V30 1331 H 127.355 3.81786 -0.713713 0
M  V30 1332 H 129.087 3.93875 -0.929745 0
M  V30 1333 H 125.842 3.71568 -2.93656 0
M  V30 1334 H 126.266 3.8727 -5.55294 0
M  V30 1335 H 130.908 3.237 -2.71989 0
M  V30 1336 H 128.626 3.78878 -7.13777 0
M  V30 1337 H 132.212 3.25617 -4.82146 0
M  V30 1338 H 131.092 3.53047 -7.00234 0
M  V30 1339 N 128.595 0.856903 1.32268 0
M  V30 1340 C 129.527 0.260412 2.27716 0
M  V30 1341 C 130.54 -0.569137 1.52528 0
M  V30 1342 O 131.729 -0.39326 1.74114 0
M  V30 1343 C 128.829 -0.650477 3.32599 0
M  V30 1344 C 128.002 0.14372 4.37164 0
M  V30 1345 C 127.061 -0.69328 5.21613 0
M  V30 1346 O 126.087 -0.12599 5.69061 0
M  V30 1347 N 127.289 -2.00761 5.44679 0
M  V30 1348 H 130.054 1.08059 2.79541 0
M  V30 1349 H 127.615 0.717103 1.45152 0
M  V30 1350 H 129.607 -1.21581 3.86005 0
M  V30 1351 H 128.177 -1.37133 2.80915 0
M  V30 1352 H 127.397 0.890486 3.8401 0
M  V30 1353 H 128.685 0.68915 5.04111 0
M  V30 1354 H 128.083 -2.49181 5.07863 0
M  V30 1355 H 126.64 -2.52103 6.01072 0
M  V30 1356 N 130.073 -1.45103 0.615059 0
M  V30 1357 C 131.036 -2.29025 -0.0895485 0
M  V30 1358 C 132.036 -1.40174 -0.787906 0
M  V30 1359 O 133.226 -1.62217 -0.634933 0
M  V30 1360 C 130.358 -3.21376 -1.13711 0
M  V30 1361 H 131.551 -2.92807 0.648382 0
M  V30 1362 H 129.104 -1.51749 0.374444 0
M  V30 1363 H 129.839 -2.6241 -1.90556 0
M  V30 1364 H 129.624 -3.86834 -0.640475 0
M  V30 1365 H 131.114 -3.84459 -1.63036 0
M  V30 1366 N 131.551 -0.354651 -1.53558 0
M  V30 1367 C 132.8 0.239504 -2.00273 0
M  V30 1368 C 133.113 1.50759 -1.24623 0
M  V30 1369 O 134.319 2.17968 -1.61871 0
M  V30 1370 C 132.775 0.477341 -3.5672 0
M  V30 1371 C 132.383 -0.775488 -4.41237 0
M  V30 1372 C 134.127 1.02975 -4.11821 0
M  V30 1373 C 132.034 -0.507838 -5.89216 0
M  V30 1374 H 130.964 0.0932743 -0.748208 0
M  V30 1375 H 133.615 -0.471701 -1.77334 0
M  V30 1376 H 131.997 1.24953 -3.7577 0
M  V30 1377 H 133.171 -1.54963 -4.33962 0
M  V30 1378 H 131.486 -1.25033 -3.97185 0
M  V30 1379 H 134.083 1.24513 -5.2 0
M  V30 1380 H 134.426 1.98862 -3.65731 0
M  V30 1381 H 134.959 0.317994 -3.96527 0
M  V30 1382 H 131.698 -1.43674 -6.39561 0
M  V30 1383 H 131.218 0.228011 -5.99366 0
M  V30 1384 H 132.897 -0.129238 -6.46871 0
M  V30 1385 N 133.029 1.57378 -0.0835403 0
M  V30 1386 C 134.257 1.98263 0.59157 0
M  V30 1387 C 134.672 0.962302 1.62435 0
M  V30 1388 O 134.029 -0.049581 1.82433 0
M  V30 1389 C 134.08 3.39214 1.24965 0
M  V30 1390 O 133.801 4.37339 0.258186 0
M  V30 1391 C 135.302 3.95038 2.01147 0
M  V30 1392 H 132.522 0.651773 0.159477 0
M  V30 1393 H 135.066 2.03878 -0.159415 0
M  V30 1394 H 133.221 3.34649 1.95164 0
M  V30 1395 H 133.635 5.19371 0.731734 0
M  V30 1396 H 135.109 4.95848 2.42567 0
M  V30 1397 H 135.586 3.32222 2.87272 0
M  V30 1398 H 136.192 4.0304 1.35789 0
M  V30 1399 N 134.507 -0.190092 1.56449 0
M  V30 1400 C 135.753 -0.911052 1.81184 0
M  V30 1401 C 136.086 -1.82699 0.658396 0
M  V30 1402 O 135.361 -1.91491 -0.340775 0
M  V30 1403 C 135.644 -1.72297 3.16205 0
M  V30 1404 C 135.497 -0.831419 4.42049 0
M  V30 1405 C 136.816 -2.69454 3.47969 0
M  V30 1406 H 133.935 -0.32977 0.659106 0
M  V30 1407 H 136.577 -0.178169 1.89163 0
M  V30 1408 H 134.727 -2.34778 3.09534 0
M  V30 1409 H 136.399 -0.220929 4.60771 0
M  V30 1410 H 134.642 -0.138406 4.33579 0
M  V30 1411 H 135.313 -1.43461 5.33032 0
M  V30 1412 H 137.789 -2.17104 3.54972 0
M  V30 1413 H 136.665 -3.23342 4.43555 0
M  V30 1414 H 136.926 -3.48744 2.71717 0
M  V30 1415 N 135.985 -1.50799 -0.457987 0
M  V30 1416 C 137.225 -1.64088 -1.21879 0
M  V30 1417 C 137.589 -0.339848 -1.88968 0
M  V30 1418 O 138.79 -0.348301 -2.66534 0
M  V30 1419 C 137.061 -2.79726 -2.2246 0
M  V30 1420 S 138.62 -3.13225 -3.07303 0
M  V30 1421 H 135.438 -0.578314 -0.41361 0
M  V30 1422 H 138.04 -1.88632 -0.513645 0
M  V30 1423 H 136.744 -3.72722 -1.71775 0
M  V30 1424 H 136.275 -2.57308 -2.97584 0
M  V30 1425 H 138.29 -2.58062 -4.23814 0
M  V30 1426 N 137.463 0.71206 -1.40597 0
M  V30 1427 C 138.426 1.80785 -1.40888 0
M  V30 1428 C 139.426 1.57937 -0.302103 0
M  V30 1429 O 140.616 1.64913 -0.561182 0
M  V30 1430 C 137.748 3.18927 -1.20409 0
M  V30 1431 H 138.941 1.81924 -2.38419 0
M  V30 1432 H 136.494 0.91805 -1.26497 0
M  V30 1433 H 137.229 3.23436 -0.236522 0
M  V30 1434 H 137.014 3.36911 -2.00582 0
M  V30 1435 H 138.504 3.98949 -1.23408 0
M  V30 1436 N 138.941 1.26152 0.944643 0
M  V30 1437 C 139.871 1.09902 2.06019 0
M  V30 1438 C 140.852 0.00519538 1.70099 0
M  V30 1439 O 142.037 0.176583 1.93396 0
M  V30 1440 C 139.167 0.727562 3.39594 0
M  V30 1441 C 138.121 1.77274 3.89561 0
M  V30 1442 C 137.447 1.25569 5.19747 0
M  V30 1443 C 138.747 3.17357 4.14827 0
M  V30 1444 H 140.441 2.03217 2.19871 0
M  V30 1445 H 137.987 0.978452 1.05652 0
M  V30 1446 H 139.94 0.600777 4.17095 0
M  V30 1447 H 138.664 -0.241287 3.25707 0
M  V30 1448 H 137.323 1.88814 3.14237 0
M  V30 1449 H 136.971 0.276783 5.02238 0
M  V30 1450 H 136.671 1.95433 5.54148 0
M  V30 1451 H 138.195 1.1415 5.99835 0
M  V30 1452 H 139.609 3.08914 4.82954 0
M  V30 1453 H 138.006 3.84781 4.60504 0
M  V30 1454 H 139.076 3.63673 3.20734 0
M  V30 1455 N 140.419 -1.14872 1.07899 0
M  V30 1456 C 141.667 -1.85422 0.803941 0
M  V30 1457 C 141.988 -1.83051 -0.67211 0
M  V30 1458 O 141.258 -1.27532 -1.48703 0
M  V30 1459 H 139.838 -0.686537 0.294408 0
M  V30 1460 H 142.5 -1.39226 1.3639 0
M  V30 1461 H 141.596 -2.90399 1.14346 0
M  V30 1462 N 141.898 -0.863906 -1.31812 0
M  V30 1463 C 142.861 -0.320212 -2.26952 0
M  V30 1464 C 143.861 0.525369 -1.51975 0
M  V30 1465 O 145.051 0.335547 -1.70938 0
M  V30 1466 C 142.183 0.545919 -3.365 0
M  V30 1467 H 143.376 -1.16004 -2.76556 0
M  V30 1468 H 140.929 -0.638995 -1.42641 0
M  V30 1469 H 141.664 1.40718 -2.92179 0
M  V30 1470 H 141.449 -0.0594674 -3.92055 0
M  V30 1471 H 142.939 0.918796 -4.07367 0
M  V30 1472 N 143.376 1.44774 -0.622745 0
M  V30 1473 C 144.623 2.02121 -0.1239 0
M  V30 1474 C 144.951 1.48915 1.25118 0
M  V30 1475 O 144.206 0.660045 1.84233 0
M  V30 1476 C 144.505 3.57364 -0.0508323 0
M  V30 1477 C 144.171 4.29787 -1.36358 0
M  V30 1478 C 142.833 4.4929 -1.72314 0
M  V30 1479 C 145.185 4.71062 -2.23048 0
M  V30 1480 C 142.513 5.07325 -2.94682 0
M  V30 1481 C 144.865 5.30452 -3.44679 0
M  V30 1482 C 143.529 5.48175 -3.80868 0
M  V30 1483 H 142.799 0.739612 -0.0453381 0
M  V30 1484 H 145.446 1.73648 -0.807389 0
M  V30 1485 H 143.751 3.85202 0.715991 0
M  V30 1486 H 145.448 3.99456 0.351533 0
M  V30 1487 H 142.038 4.14932 -1.07375 0
M  V30 1488 H 146.222 4.55715 -1.96565 0
M  V30 1489 H 141.478 5.19235 -3.22809 0
M  V30 1490 H 145.652 5.61385 -4.12092 0
M  V30 1491 H 143.279 5.92912 -4.75773 0
M  V30 1492 N 144.854 0.36279 1.53368 0
M  V30 1493 C 146.103 -0.22888 2.00397 0
M  V30 1494 C 146.416 -1.50096 1.25421 0
M  V30 1495 O 147.622 -2.17106 1.63025 0
M  V30 1496 C 146.078 -0.458417 3.56969 0
M  V30 1497 C 145.686 0.798877 4.4082 0
M  V30 1498 C 147.43 -1.00789 4.12361 0
M  V30 1499 C 145.337 0.539078 5.88938 0
M  V30 1500 H 144.267 -0.089305 0.748693 0
M  V30 1501 H 146.918 0.481099 1.77081 0
M  V30 1502 H 145.3 -1.22959 3.76427 0
M  V30 1503 H 146.474 1.57262 4.33134 0
M  V30 1504 H 144.789 1.27137 3.96516 0
M  V30 1505 H 147.386 -1.21754 5.20653 0
M  V30 1506 H 147.729 -1.9692 3.66781 0
M  V30 1507 H 148.262 -0.296961 3.9669 0
M  V30 1508 H 145.001 1.47064 6.3879 0
M  V30 1509 H 144.521 -0.196222 5.99479 0
M  V30 1510 H 146.2 0.163542 6.46793 0
M  V30 1511 N 146.332 -1.57332 0.0918853 0
M  V30 1512 C 147.557 -1.98995 -0.584442 0
M  V30 1513 C 147.982 -0.970528 -1.61128 0
M  V30 1514 O 147.34 0.0613904 -1.81196 0
M  V30 1515 C 147.388 -3.39636 -1.21161 0
M  V30 1516 O 146.492 -3.40447 -2.32744 0
M  V30 1517 H 145.833 -0.647165 -0.148572 0
M  V30 1518 H 148.363 -2.03873 0.172347 0
M  V30 1519 H 148.373 -3.7726 -1.55367 0
M  V30 1520 H 147.048 -4.13356 -0.459313 0
M  V30 1521 H 145.625 -3.14614 -2.0018 0
M  V30 1522 N 147.81 0.181792 -1.56548 0
M  V30 1523 C 149.056 0.896803 -1.82562 0
M  V30 1524 C 149.411 1.80324 -0.670908 0
M  V30 1525 O 148.704 1.8868 0.333235 0
M  V30 1526 C 148.898 1.73728 -3.12335 0
M  V30 1527 C 148.727 0.913714 -4.4032 0
M  V30 1528 C 147.497 0.592903 -5.01809 0
M  V30 1529 C 149.695 0.260164 -5.13642 0
M  V30 1530 N 147.677 -0.247901 -6.13399 0
M  V30 1531 C 149.048 -0.442256 -6.18421 0
M  V30 1532 C 151.103 0.177253 -4.97584 0
M  V30 1533 C 149.806 -1.21971 -7.08883 0
M  V30 1534 C 151.832 -0.586839 -5.88481 0
M  V30 1535 C 151.194 -1.27766 -6.92716 0
M  V30 1536 H 147.293 0.307122 -0.719166 0
M  V30 1537 H 149.877 0.164535 -1.94004 0
M  V30 1538 H 148.048 2.44105 -3.02105 0
M  V30 1539 H 149.78 2.39279 -3.26386 0
M  V30 1540 H 146.535 0.920502 -4.64568 0
M  V30 1541 H 146.959 -0.658304 -6.73792 0
M  V30 1542 H 151.601 0.696993 -4.17015 0
M  V30 1543 H 149.319 -1.75083 -7.88905 0
M  V30 1544 H 152.905 -0.652522 -5.78129 0
M  V30 1545 H 151.785 -1.85943 -7.61836 0
M  V30 1546 N 149.288 1.51039 0.449983 0
M  V30 1547 C 150.221 1.66105 1.56474 0
M  V30 1548 C 151.199 0.508776 1.54435 0
M  V30 1549 O 152.383 0.731005 1.73749 0
M  V30 1550 C 149.51 1.66304 2.9506 0
M  V30 1551 C 148.556 2.87346 3.15174 0
M  V30 1552 S 149.389 4.4835 2.92818 0
M  V30 1553 C 150.545 4.51274 4.33708 0
M  V30 1554 H 150.778 2.60397 1.43459 0
M  V30 1555 H 148.311 1.40565 0.638805 0
M  V30 1556 H 150.269 1.67103 3.74949 0
M  V30 1557 H 148.93 0.732108 3.05449 0
M  V30 1558 H 148.123 2.83849 4.16468 0
M  V30 1559 H 147.725 2.84223 2.43091 0
M  V30 1560 H 150.017 4.26136 5.26701 0
M  V30 1561 H 150.96 5.53017 4.42242 0
M  V30 1562 H 151.368 3.80738 4.16772 0
M  V30 1563 N 150.766 -0.704594 1.40972 0
M  V30 1564 C 151.696 -1.83124 1.44872 0
M  V30 1565 C 152.677 -1.67281 0.30838 0
M  V30 1566 O 153.862 -1.87149 0.518556 0
M  V30 1567 C 150.992 -3.21181 1.32136 0
M  V30 1568 C 149.946 -3.51714 2.43888 0
M  V30 1569 C 149.272 -4.89032 2.16222 0
M  V30 1570 C 150.572 -3.516 3.86232 0
M  V30 1571 H 152.266 -1.80117 2.39161 0
M  V30 1572 H 149.812 -0.865145 1.15114 0
M  V30 1573 H 151.765 -3.99702 1.33479 0
M  V30 1574 H 150.489 -3.24791 0.343279 0
M  V30 1575 H 149.148 -2.75539 2.41813 0
M  V30 1576 H 148.796 -4.89256 1.16778 0
M  V30 1577 H 148.496 -5.10426 2.911 0
M  V30 1578 H 150.02 -5.69873 2.19265 0
M  V30 1579 H 151.434 -4.2014 3.9007 0
M  V30 1580 H 149.831 -3.84523 4.60719 0
M  V30 1581 H 150.901 -2.50757 4.15029 0
M  V30 1582 N 152.244 -1.26651 -0.937939 0
M  V30 1583 C 153.66 -1.03834 -1.21205 0
M  V30 1584 C 153.86 0.234502 -2.00131 0
M  V30 1585 O 152.916 0.942767 -2.3424 0
M  V30 1586 C 154.229 -2.27167 -1.97017 0
M  V30 1587 C 155.777 -2.32101 -2.09996 0
M  V30 1588 C 156.252 -3.55136 -2.8921 0
M  V30 1589 N 157.743 -3.55632 -2.96783 0
M  V30 1590 C 158.478 -4.475 -3.58512 0
M  V30 1591 N 157.974 -5.4966 -4.21717 0
M  V30 1592 N 159.767 -4.35145 -3.55816 0
M  V30 1593 H 151.918 -2.08398 -0.410391 0
M  V30 1594 H 154.181 -0.916031 -0.244114 0
M  V30 1595 H 153.887 -3.19765 -1.46434 0
M  V30 1596 H 153.761 -2.31672 -2.97671 0
M  V30 1597 H 156.148 -1.40015 -2.59769 0
M  V30 1598 H 156.229 -2.31605 -1.08594 0
M  V30 1599 H 155.873 -4.47553 -2.40123 0
M  V30 1600 H 155.803 -3.5288 -3.90875 0
M  V30 1601 H 158.294 -2.81743 -2.51852 0
M  V30 1602 H 158.607 -6.15943 -4.66727 0
M  V30 1603 H 156.952 -5.53514 -4.20294 0
M  V30 1604 H 160.143 -3.5455 -3.05634 0
M  V30 1605 H 160.316 -5.06934 -4.03636 0
M  V30 1606 N 153.722 1.14298 -1.08507 0
M  V30 1607 C 154.632 2.23027 -0.727753 0
M  V30 1608 C 155.648 1.71952 0.26619 0
M  V30 1609 O 156.824 2.011 0.109882 0
M  V30 1610 C 153.889 3.46403 -0.143541 0
M  V30 1611 C 152.95 4.12413 -1.19223 0
M  V30 1612 C 152.183 5.29899 -0.635798 0
M  V30 1613 O 152.406 5.67796 0.544393 0
M  V30 1614 O 151.34 5.85717 -1.38634 0
M  V30 1615 H 155.166 2.55945 -1.63481 0
M  V30 1616 H 152.751 1.22248 -0.858817 0
M  V30 1617 H 154.633 4.21018 0.179404 0
M  V30 1618 H 153.308 3.15206 0.736659 0
M  V30 1619 H 152.215 3.39667 -1.56772 0
M  V30 1620 H 153.548 4.47718 -2.04474 0
M  V30 1621 N 155.201 0.870884 1.31352 0
M  V30 1622 C 156.447 0.482987 1.96965 0
M  V30 1623 C 156.78 -0.962462 1.68672 0
M  V30 1624 O 156.055 -1.6779 0.98371 0
M  V30 1625 C 156.338 0.741752 3.52378 0
M  V30 1626 C 156.191 2.2368 3.9024 0
M  V30 1627 C 157.51 0.208838 4.39604 0
M  V30 1628 H 154.629 0.176955 0.715441 0
M  V30 1629 H 157.271 1.09229 1.55464 0
M  V30 1630 H 155.421 0.223149 3.87859 0
M  V30 1631 H 157.093 2.82273 3.64856 0
M  V30 1632 H 155.336 2.70901 3.38814 0
M  V30 1633 H 156.007 2.3685 4.98604 0
M  V30 1634 H 158.483 0.652529 4.10952 0
M  V30 1635 H 157.359 0.419336 5.47296 0
M  V30 1636 H 157.62 -0.889275 4.33064 0
M  V30 1637 N 156.679 -1.44442 0.630414 0
M  V30 1638 C 157.589 -2.34476 -0.0761693 0
M  V30 1639 C 158.605 -1.52576 -0.836449 0
M  V30 1640 O 159.781 -1.85307 -0.788874 0
M  V30 1641 C 156.846 -3.30545 -1.04599 0
M  V30 1642 C 155.907 -4.28352 -0.28516 0
M  V30 1643 C 155.14 -5.19831 -1.20878 0
M  V30 1644 O 155.363 -5.15223 -2.44747 0
M  V30 1645 O 154.297 -5.97892 -0.693491 0
M  V30 1646 H 158.123 -2.96345 0.664324 0
M  V30 1647 H 155.708 -1.44203 0.39061 0
M  V30 1648 H 157.59 -3.89681 -1.60396 0
M  V30 1649 H 156.265 -2.7121 -1.76711 0
M  V30 1650 H 155.172 -3.72764 0.315837 0
M  V30 1651 H 156.505 -4.90605 0.395924 0
M  V30 1652 N 158.157 -0.370918 -1.53173 0
M  V30 1653 C 159.406 0.218249 -2.00516 0
M  V30 1654 C 159.719 1.49429 -1.26215 0
M  V30 1655 O 160.925 2.16239 -1.64174 0
M  V30 1656 C 159.381 0.43948 -3.57207 0
M  V30 1657 C 158.989 -0.822244 -4.4039 0
M  V30 1658 C 160.733 0.986012 -4.1289 0
M  V30 1659 C 158.64 -0.570304 -5.88644 0
M  V30 1660 H 157.57 0.0853333 -0.749156 0
M  V30 1661 H 160.221 -0.490483 -1.76823 0
M  V30 1662 H 158.603 1.20961 -3.77074 0
M  V30 1663 H 159.777 -1.59557 -4.32294 0
M  V30 1664 H 158.092 -1.29238 -3.95836 0
M  V30 1665 H 160.689 1.18991 -5.21292 0
M  V30 1666 H 161.032 1.94972 -3.6782 0
M  V30 1667 H 161.565 0.27592 -3.96842 0
M  V30 1668 H 158.304 -1.50449 -6.38001 0
M  V30 1669 H 157.824 0.164427 -5.99575 0
M  V30 1670 H 159.503 -0.19784 -6.46697 0
M  V30 1671 N 159.635 1.57281 -0.100228 0
M  V30 1672 C 160.86 1.99302 0.573881 0
M  V30 1673 C 161.285 0.979059 1.60611 0
M  V30 1674 O 160.643 -0.0517803 1.81226 0
M  V30 1675 C 160.691 3.40274 1.19358 0
M  V30 1676 O 159.795 3.41676 2.30935 0
M  V30 1677 H 159.136 0.647944 0.145138 0
M  V30 1678 H 161.666 2.03779 -0.183156 0
M  V30 1679 H 161.676 3.78078 1.53365 0
M  V30 1680 H 160.351 4.13594 0.437385 0
M  V30 1681 H 158.928 3.15672 1.98509 0
M  V30 1682 N 161.113 -0.173488 1.56642 0
M  V30 1683 C 162.529 -0.525174 1.50712 0
M  V30 1684 C 162.729 -1.8476 0.804107 0
M  V30 1685 O 161.785 -2.49869 0.363574 0
M  V30 1686 C 163.098 -0.559937 2.95441 0
M  V30 1687 C 164.646 -0.647288 3.06234 0
M  V30 1688 C 165.121 -0.712963 4.52417 0
M  V30 1689 N 166.612 -0.775911 4.56655 0
M  V30 1690 C 167.347 -0.847264 5.67106 0
M  V30 1691 N 166.843 -0.879585 6.87194 0
M  V30 1692 N 168.636 -0.886117 5.55071 0
M  V30 1693 H 160.787 0.693681 2.00753 0
M  V30 1694 H 163.05 0.249841 0.914485 0
M  V30 1695 H 162.756 0.343049 3.50023 0
M  V30 1696 H 162.63 -1.40718 3.49969 0
M  V30 1697 H 165.017 -1.5407 2.51687 0
M  V30 1698 H 165.098 0.226586 2.54794 0
M  V30 1699 H 164.742 0.176183 5.07594 0
M  V30 1700 H 164.672 -1.60295 5.0161 0
M  V30 1701 H 167.163 -0.759304 3.70193 0
M  V30 1702 H 167.476 -0.935144 7.67121 0
M  V30 1703 H 165.821 -0.847898 6.89808 0
M  V30 1704 H 169.012 -0.857853 4.60172 0
M  V30 1705 H 169.185 -0.938263 6.41171 0
M  V30 1706 N 162.591 -1.51276 -0.441967 0
M  V30 1707 C 163.538 -1.72256 -1.53612 0
M  V30 1708 C 164.508 -0.564164 -1.56225 0
M  V30 1709 O 165.693 -0.798074 -1.73307 0
M  V30 1710 C 162.833 -1.84932 -2.91366 0
M  V30 1711 C 161.946 -3.12459 -2.98317 0
M  V30 1712 C 161.081 -3.15758 -4.27166 0
M  V30 1713 C 160.12 -4.37619 -4.27967 0
M  V30 1714 N 159.257 -4.38493 -5.48333 0
M  V30 1715 H 164.097 -2.65654 -1.35026 0
M  V30 1716 H 161.634 -1.31662 -0.656009 0
M  V30 1717 H 163.592 -1.90263 -3.7129 0
M  V30 1718 H 162.222 -0.949461 -3.08521 0
M  V30 1719 H 161.274 -3.1646 -2.11086 0
M  V30 1720 H 162.586 -4.02382 -2.94771 0
M  V30 1721 H 161.74 -3.19979 -5.15459 0
M  V30 1722 H 160.479 -2.23715 -4.33362 0
M  V30 1723 H 159.484 -4.33579 -3.38067 0
M  V30 1724 H 160.709 -5.30921 -4.23438 0
M  V30 1725 H 158.655 -3.49318 -5.55259 0
M  V30 1726 H 158.572 -5.22219 -5.46647 0
M  V30 1727 H 159.84 -4.469 -6.38671 0
M  V30 1728 N 164.069 0.697108 -1.41344 0
M  V30 1729 C 164.999 1.82353 -1.45841 0
M  V30 1730 C 165.98 1.67115 -0.317247 0
M  V30 1731 O 167.165 1.86871 -0.528474 0
M  V30 1732 C 164.295 3.20476 -1.33838 0
M  V30 1733 C 163.249 3.50415 -2.4575 0
M  V30 1734 C 162.575 4.87878 -2.18813 0
M  V30 1735 C 163.875 3.49546 -3.88091 0
M  V30 1736 H 165.569 1.78846 -2.40113 0
M  V30 1737 H 163.115 0.859028 -1.15571 0
M  V30 1738 H 165.068 3.98988 -1.35596 0
M  V30 1739 H 163.792 3.24604 -0.360498 0
M  V30 1740 H 162.451 2.74253 -2.43271 0
M  V30 1741 H 162.099 4.8863 -1.19371 0
M  V30 1742 H 161.799 5.08875 -2.93803 0
M  V30 1743 H 163.323 5.68702 -2.22284 0
M  V30 1744 H 164.737 4.18066 -3.92293 0
M  V30 1745 H 163.134 3.82075 -4.62751 0
M  V30 1746 H 164.204 2.48552 -4.16353 0
M  V30 1747 N 165.547 1.27147 0.931209 0
M  V30 1748 C 166.795 1.13055 1.6752 0
M  V30 1749 C 167.116 -0.324791 1.92276 0
M  V30 1750 O 166.386 -1.22775 1.52654 0
M  V30 1751 H 164.966 0.415391 0.620854 0
M  V30 1752 H 167.628 1.59623 1.11833 0
M  V30 1753 H 166.724 1.65694 2.64485 0
M  V30 1754 N 167.025 -1.13721 1.09112 0
M  V30 1755 C 168.274 -1.84275 0.82009 0
M  V30 1756 C 168.587 -1.84253 -0.656509 0
M  V30 1757 O 169.793 -2.50668 -1.04296 0
M  V30 1758 C 168.249 -3.30825 1.41714 0
M  V30 1759 C 167.857 -3.39244 2.92605 0
M  V30 1760 C 169.601 -4.06443 1.22492 0
M  V30 1761 C 167.508 -4.80047 3.45411 0
M  V30 1762 H 166.438 -0.690387 0.30312 0
M  V30 1763 H 169.089 -1.28146 1.31343 0
M  V30 1764 H 167.471 -3.86737 0.851498 0
M  V30 1765 H 168.645 -2.93344 3.55367 0
M  V30 1766 H 166.96 -2.77088 3.10823 0
M  V30 1767 H 169.557 -5.10387 1.59402 0
M  V30 1768 H 169.9 -4.15972 0.165299 0
M  V30 1769 H 170.433 -3.56852 1.75788 0
M  V30 1770 H 167.172 -4.75709 4.50978 0
M  V30 1771 H 166.692 -5.26455 2.87411 0
M  V30 1772 H 168.371 -5.48957 3.42425 0
M  V30 1773 N 168.503 -0.877838 -1.30888 0
M  V30 1774 C 169.751 -0.491723 -1.96027 0
M  V30 1775 C 170.072 0.960827 -1.69685 0
M  V30 1776 O 169.342 1.67462 -1.01654 0
M  V30 1777 H 167.922 -0.17885 -0.725273 0
M  V30 1778 H 170.584 -1.11935 -1.59551 0
M  V30 1779 H 169.68 -0.656016 -3.05128 0
M  V30 1780 N 169.982 1.44106 -0.638065 0
M  V30 1781 C 171.228 2.02815 -0.15409 0
M  V30 1782 C 171.583 1.49342 1.21304 0
M  V30 1783 O 170.876 0.670699 1.79478 0
M  V30 1784 C 171.07 3.5729 -0.0887327 0
M  V30 1785 C 170.899 4.2575 -1.44799 0
M  V30 1786 C 169.669 4.62443 -2.03653 0
M  V30 1787 C 171.867 4.55746 -2.38327 0
M  V30 1788 N 169.849 5.15903 -3.32741 0
M  V30 1789 C 171.22 5.10364 -3.52036 0
M  V30 1790 C 173.275 4.37703 -2.3732 0
M  V30 1791 C 171.978 5.48837 -4.64941 0
M  V30 1792 C 174.004 4.77229 -3.49294 0
M  V30 1793 C 173.366 5.31966 -4.61726 0
M  V30 1794 H 169.465 0.775519 -0.100466 0
M  V30 1795 H 172.049 1.755 -0.843071 0
M  V30 1796 H 170.22 3.84201 0.569548 0
M  V30 1797 H 171.952 4.02671 0.404711 0
M  V30 1798 H 168.707 4.46987 -1.56523 0
M  V30 1799 H 169.131 5.47102 -3.98758 0
M  V30 1800 H 173.773 3.94671 -1.51641 0
M  V30 1801 H 171.491 5.9082 -5.51323 0
M  V30 1802 H 175.077 4.64976 -3.49698 0
M  V30 1803 H 173.957 5.61986 -5.46939 0
M  V30 1804 N 171.46 0.379036 1.52974 0
M  V30 1805 C 172.41 -0.477772 2.22938 0
M  V30 1806 C 173.394 -1.03792 1.22948 0
M  V30 1807 O 174.586 -0.965725 1.48333 0
M  V30 1808 C 171.715 -1.60994 3.03209 0
M  V30 1809 C 170.801 -1.06203 4.10587 0
M  V30 1810 N 171.192 -0.238214 5.05239 0
M  V30 1811 C 169.49 -1.33554 4.25534 0
M  V30 1812 C 170.191 0.0633235 5.81666 0
M  V30 1813 N 169.167 -0.537901 5.40932 0
M  V30 1814 H 172.969 0.158295 2.93473 0
M  V30 1815 H 170.483 0.187778 1.61311 0
M  V30 1816 H 172.48 -2.23607 3.5186 0
M  V30 1817 H 171.14 -2.24893 2.34207 0
M  V30 1818 H 172.151 0.123695 5.17752 0
M  V30 1819 H 168.828 -1.97632 3.6776 0
M  V30 1820 H 170.218 0.730161 6.67921 0
M  V30 1821 N 172.938 -1.57226 0.108567 0
M  V30 1822 C 174.184 -1.95121 -0.552761 0
M  V30 1823 C 174.517 -0.991345 -1.66991 0
M  V30 1824 O 173.792 -0.0267211 -1.94482 0
M  V30 1825 C 174.075 -3.43039 -1.09528 0
M  V30 1826 C 173.928 -4.49797 0.0177332 0
M  V30 1827 C 175.247 -3.92567 -1.98945 0
M  V30 1828 H 172.366 -0.709496 -0.199461 0
M  V30 1829 H 175.008 -1.89126 0.182011 0
M  V30 1830 H 173.158 -3.48279 -1.72146 0
M  V30 1831 H 174.83 -4.56661 0.652584 0
M  V30 1832 H 173.073 -4.284 0.682309 0
M  V30 1833 H 173.744 -5.50528 -0.402919 0
M  V30 1834 H 176.22 -3.89565 -1.46214 0
M  V30 1835 H 175.096 -4.96605 -2.33827 0
M  V30 1836 H 175.357 -3.32648 -2.91201 0
M  V30 1837 N 174.416 0.165178 -1.56732 0
M  V30 1838 C 175.827 0.727046 -1.71962 0
M  V30 1839 C 176.178 1.82508 -0.720078 0
M  V30 1840 O 175.303 2.16082 0.117242 0
M  V30 1841 C 175.898 1.32559 -3.11791 0
M  V30 1842 C 174.457 1.83422 -3.28684 0
M  V30 1843 C 173.604 0.715567 -2.67908 0
M  V30 1844 H 176.555 -0.0602896 -1.58585 0
M  V30 1845 H 176.576 2.19533 -3.10782 0
M  V30 1846 H 176.088 0.526195 -3.84516 0
M  V30 1847 H 174.189 2.65986 -2.60926 0
M  V30 1848 H 174.302 1.97543 -4.36478 0
M  V30 1849 H 172.666 1.13758 -2.27884 0
M  V30 1850 H 173.449 -0.0720836 -3.43224 0
M  V30 1851 N 175.894 1.51508 0.433938 0
M  V30 1852 C 176.824 1.76016 1.53429 0
M  V30 1853 C 177.805 0.610112 1.58782 0
M  V30 1854 O 178.99 0.853177 1.74455 0
M  V30 1855 C 176.12 1.88831 2.9148 0
M  V30 1856 C 175.074 3.04288 3.00987 0
M  V30 1857 C 174.4 3.0229 4.4105 0
M  V30 1858 C 175.7 4.44193 2.74754 0
M  V30 1859 H 177.394 2.68152 1.33171 0
M  V30 1860 H 174.94 1.29035 0.639214 0
M  V30 1861 H 176.893 2.04559 3.6842 0
M  V30 1862 H 175.617 0.933455 3.12976 0
M  V30 1863 H 174.276 2.8827 2.26486 0
M  V30 1864 H 173.924 2.04576 4.59519 0
M  V30 1865 H 173.624 3.79822 4.4834 0
M  V30 1866 H 175.148 3.20116 5.1996 0
M  V30 1867 H 176.562 4.60544 3.41426 0
M  V30 1868 H 174.959 5.23457 2.9345 0
M  V30 1869 H 176.029 4.53996 1.70339 0
M  V30 1870 N 177.372 -0.689602 1.41712 0
M  V30 1871 C 178.335 -1.78521 1.43746 0
M  V30 1872 C 179.335 -1.57436 0.327191 0
M  V30 1873 O 180.525 -1.64 0.587348 0
M  V30 1874 C 177.657 -3.16971 1.25467 0
M  V30 1875 H 178.85 -1.78108 2.41283 0
M  V30 1876 H 176.403 -0.89781 1.27942 0
M  V30 1877 H 177.138 -3.23019 0.287948 0
M  V30 1878 H 176.923 -3.33678 2.05917 0
M  V30 1879 H 178.413 -3.96935 1.2974 0
M  V30 1880 N 178.85 -1.27639 -0.924453 0
M  V30 1881 C 180.097 -1.14167 -1.67249 0
M  V30 1882 C 180.425 0.311863 -1.91984 0
M  V30 1883 O 179.68 1.24425 -1.51053 0
M  V30 1884 C 179.979 -1.87407 -3.04325 0
M  V30 1885 C 179.645 -3.37249 -2.99289 0
M  V30 1886 C 178.307 -3.7812 -2.97622 0
M  V30 1887 C 180.659 -4.32845 -2.90336 0
M  V30 1888 C 177.987 -5.12944 -2.8479 0
M  V30 1889 C 180.339 -5.6773 -2.79045 0
M  V30 1890 C 179.003 -6.07889 -2.7573 0
M  V30 1891 H 178.273 -0.417766 -0.612007 0
M  V30 1892 H 180.92 -1.58286 -1.07786 0
M  V30 1893 H 179.225 -1.35805 -3.67511 0
M  V30 1894 H 180.922 -1.74408 -3.61086 0
M  V30 1895 H 177.512 -3.04748 -3.01374 0
M  V30 1896 H 181.696 -4.02239 -2.90719 0
M  V30 1897 H 176.952 -5.432 -2.80612 0
M  V30 1898 H 181.126 -6.41472 -2.71083 0
M  V30 1899 H 178.753 -7.12314 -2.65544 0
M  V30 1900 N 180.328 1.1314 -1.09713 0
M  V30 1901 C 181.568 1.8613 -0.844683 0
M  V30 1902 C 181.932 1.81765 0.618491 0
M  V30 1903 O 183.133 2.50024 0.98699 0
M  V30 1904 C 181.404 3.30151 -1.36877 0
M  V30 1905 S 182.963 4.206 -1.25064 0
M  V30 1906 H 179.781 0.642056 -0.305427 0
M  V30 1907 H 182.383 1.36343 -1.4011 0
M  V30 1908 H 181.087 3.30883 -2.42786 0
M  V30 1909 H 180.618 3.85 -0.808614 0
M  V30 1910 H 182.633 4.95783 -0.203486 0
M  V30 1911 N 181.806 0.884767 1.30421 0
M  V30 1912 C 183.052 0.503851 1.96441 0
M  V30 1913 C 183.385 -0.944518 1.69684 0
M  V30 1914 O 182.66 -1.66737 1.00145 0
M  V30 1915 C 182.943 0.779085 3.51571 0
M  V30 1916 C 182.796 2.27807 3.87846 0
M  V30 1917 C 184.115 0.255452 4.39358 0
M  V30 1918 H 181.234 0.184533 0.713524 0
M  V30 1919 H 183.876 1.10872 1.54297 0
M  V30 1920 H 182.026 0.264274 3.876 0
M  V30 1921 H 183.698 2.86127 3.61841 0
M  V30 1922 H 181.941 2.74479 3.35922 0
M  V30 1923 H 182.612 2.42125 4.96064 0
M  V30 1924 H 185.088 0.696079 4.10236 0
M  V30 1925 H 183.964 0.477361 5.4682 0
M  V30 1926 H 184.225 -0.843293 4.33983 0
M  V30 1927 N 183.284 -1.43765 0.645699 0
M  V30 1928 C 184.695 -1.85193 0.236719 0
M  V30 1929 C 185.046 -1.54045 -1.21509 0
M  V30 1930 O 184.171 -0.985694 -1.92647 0
M  V30 1931 C 184.766 -3.36151 0.422845 0
M  V30 1932 C 183.325 -3.76338 0.0682492 0
M  V30 1933 C 182.472 -2.67538 0.729306 0
M  V30 1934 H 185.423 -1.34025 0.849883 0
M  V30 1935 H 185.444 -3.79032 -0.333904 0
M  V30 1936 H 184.956 -3.5879 1.47958 0
M  V30 1937 H 183.057 -3.59312 -0.986179 0
M  V30 1938 H 183.17 -4.76603 0.488469 0
M  V30 1939 H 181.534 -2.54176 0.163235 0
M  V30 1940 H 182.317 -2.93006 1.78892 0
M  V30 1941 N 184.763 -0.387143 -1.52771 0
M  V30 1942 C 186.012 0.19697 -2.00736 0
M  V30 1943 C 186.325 1.48082 -1.27793 0
M  V30 1944 O 187.531 2.14485 -1.66458 0
M  V30 1945 C 185.987 0.401568 -3.57653 0
M  V30 1946 C 185.595 -0.868907 -4.39493 0
M  V30 1947 C 187.339 0.942164 -4.13912 0
M  V30 1948 C 185.246 -0.632705 -5.88006 0
M  V30 1949 H 184.176 0.0773827 -0.750019 0
M  V30 1950 H 186.827 -0.50921 -1.76293 0
M  V30 1951 H 185.209 1.16954 -3.78335 0
M  V30 1952 H 186.383 -1.64133 -4.30577 0
M  V30 1953 H 184.698 -1.33429 -3.94443 0
M  V30 1954 H 187.295 1.13455 -5.22525 0
M  V30 1955 H 187.638 1.9106 -3.69867 0
M  V30 1956 H 188.171 0.233814 -3.97112 0
M  V30 1957 H 184.91 -1.57208 -6.36369 0
M  V30 1958 H 184.43 0.100825 -5.99715 0
M  V30 1959 H 186.109 -0.26642 -6.46451 0
M  V30 1960 N 186.241 1.57166 -0.116904 0
M  V30 1961 C 187.488 1.95123 0.541603 0
M  V30 1962 C 187.816 1.00006 1.6682 0
M  V30 1963 O 187.071 0.0235658 1.95686 0
M  V30 1964 C 187.37 3.39508 1.11664 0
M  V30 1965 C 187.036 4.50762 0.111606 0
M  V30 1966 C 185.698 4.80918 -0.164758 0
M  V30 1967 C 188.05 5.18036 -0.573438 0
M  V30 1968 C 185.378 5.75666 -1.13249 0
M  V30 1969 C 187.73 6.13824 -1.52978 0
M  V30 1970 C 186.394 6.42374 -1.81415 0
M  V30 1971 H 185.664 0.714005 0.198187 0
M  V30 1972 H 188.311 1.9048 -0.197365 0
M  V30 1973 H 186.616 3.40835 1.93232 0
M  V30 1974 H 188.313 3.66189 1.63422 0
M  V30 1975 H 184.903 4.27272 0.337192 0
M  V30 1976 H 189.087 4.94896 -0.373092 0
M  V30 1977 H 184.343 5.96092 -1.35958 0
M  V30 1978 H 188.517 6.65039 -2.06629 0
M  V30 1979 H 186.144 7.15599 -2.56557 0
M  V30 1980 N 187.719 -0.156864 1.56817 0
M  V30 1981 C 188.652 -1.22316 1.9265 0
M  V30 1982 C 189.63 -1.42059 0.791076 0
M  V30 1983 O 190.814 -1.56831 1.04576 0
M  V30 1984 C 187.941 -2.58375 2.18998 0
M  V30 1985 C 186.987 -2.55284 3.41661 0
M  V30 1986 S 187.82 -2.02946 4.95553 0
M  V30 1987 C 188.976 -3.40753 5.25013 0
M  V30 1988 H 189.209 -0.917403 2.82791 0
M  V30 1989 H 186.742 -0.362059 1.50095 0
M  V30 1990 H 188.7 -3.36677 2.34859 0
M  V30 1991 H 187.361 -2.86145 1.29538 0
M  V30 1992 H 186.554 -3.55418 3.57343 0
M  V30 1993 H 186.156 -1.85086 3.24991 0
M  V30 1994 H 188.448 -4.36819 5.17876 0
M  V30 1995 H 189.391 -3.29933 6.26538 0
M  V30 1996 H 189.799 -3.37433 4.52548 0
M  V30 1997 N 189.197 -1.51736 -0.425897 0
M  V30 1998 C 190.444 -1.6497 -1.17436 0
M  V30 1999 C 190.772 -0.371445 -1.9092 0
M  V30 2000 O 190.027 0.644963 -1.84767 0
M  V30 2001 C 190.326 -2.81103 -2.20717 0
M  V30 2002 C 189.992 -4.19954 -1.64162 0
M  V30 2003 C 188.654 -4.57725 -1.48462 0
M  V30 2004 C 191.006 -5.06552 -1.22696 0
M  V30 2005 C 188.334 -5.79789 -0.897873 0
M  V30 2006 C 190.686 -6.29205 -0.654464 0
M  V30 2007 C 189.35 -6.6574 -0.484456 0
M  V30 2008 H 188.62 -0.603668 -0.429727 0
M  V30 2009 H 191.267 -1.85798 -0.463829 0
M  V30 2010 H 189.572 -2.54542 -2.97852 0
M  V30 2011 H 191.269 -2.8854 -2.78471 0
M  V30 2012 H 187.859 -3.90181 -1.77361 0
M  V30 2013 H 192.043 -4.77968 -1.33642 0
M  V30 2014 H 187.299 -6.06733 -0.75402 0
M  V30 2015 H 191.473 -6.95643 -0.324694 0
M  V30 2016 H 189.1 -7.60195 -0.0276833 0
M  V30 2017 N 190.675 0.682077 -1.42076 0
M  V30 2018 C 191.915 1.45424 -1.43636 0
M  V30 2019 C 192.279 1.91939 -0.0484001 0
M  V30 2020 O 193.48 2.6873 0.0612514 0
M  V30 2021 C 191.751 2.62427 -2.42625 0
M  V30 2022 S 193.31 3.51379 -2.62827 0
M  V30 2023 H 190.128 0.496779 -0.508657 0
M  V30 2024 H 192.73 0.794645 -1.78621 0
M  V30 2025 H 191.434 2.26481 -3.42249 0
M  V30 2026 H 190.965 3.33266 -2.09039 0
M  V30 2027 H 192.98 4.58141 -1.9058 0
M  V30 2028 N 192.153 1.28127 0.917671 0
M  V30 2029 C 193.399 1.15223 1.66888 0
M  V30 2030 C 193.732 -0.299293 1.9188 0
M  V30 2031 O 193.007 -1.21805 1.51637 0
M  V30 2032 C 193.29 1.94706 3.02922 0
M  V30 2033 C 193.143 3.47898 2.85109 0
M  V30 2034 C 194.462 1.75939 4.03402 0
M  V30 2035 H 191.581 0.419946 0.605652 0
M  V30 2036 H 194.223 1.57398 1.06423 0
M  V30 2037 H 192.373 1.58864 3.54534 0
M  V30 2038 H 194.045 3.93624 2.40537 0
M  V30 2039 H 192.288 3.7373 2.20246 0
M  V30 2040 H 192.959 3.98765 3.81694 0
M  V30 2041 H 195.435 2.07209 3.60837 0
M  V30 2042 H 194.311 2.33931 4.96556 0
M  V30 2043 H 194.572 0.709877 4.36364 0
M  V30 2044 N 193.631 -1.12557 1.10312 0
M  V30 2045 C 194.561 -2.20341 0.772798 0
M  V30 2046 C 195.542 -1.68198 -0.25365 0
M  V30 2047 O 196.727 -1.93831 -0.119699 0
M  V30 2048 C 193.857 -3.46709 0.202443 0
M  V30 2049 C 192.811 -4.11996 1.15943 0
M  V30 2050 C 192.137 -5.328 0.450345 0
M  V30 2051 C 193.437 -4.5828 2.50552 0
M  V30 2052 H 195.131 -2.48229 1.674 0
M  V30 2053 H 192.677 -1.19308 0.806326 0
M  V30 2054 H 194.63 -4.2138 -0.0407752 0
M  V30 2055 H 193.354 -3.18245 -0.734001 0
M  V30 2056 H 192.013 -3.39305 1.38808 0
M  V30 2057 H 191.661 -5.00602 -0.490531 0
M  V30 2058 H 191.361 -5.7743 1.08851 0
M  V30 2059 H 192.885 -6.10219 0.215642 0
M  V30 2060 H 194.299 -5.2433 2.31843 0
M  V30 2061 H 192.696 -5.13683 3.10242 0
M  V30 2062 H 193.766 -3.72329 3.10643 0
M  V30 2063 N 195.109 -0.891671 -1.2995 0
M  V30 2064 C 196.041 -0.320695 -2.26945 0
M  V30 2065 C 197.054 0.528497 -1.53983 0
M  V30 2066 O 198.243 0.346959 -1.75096 0
M  V30 2067 C 195.343 0.562066 -3.34207 0
M  V30 2068 C 194.516 -0.259576 -4.36629 0
M  V30 2069 C 193.575 0.554739 -5.23268 0
M  V30 2070 O 192.601 -0.0249311 -5.69195 0
M  V30 2071 N 193.803 1.8625 -5.4981 0
M  V30 2072 H 196.568 -1.15432 -2.76578 0
M  V30 2073 H 194.129 -0.755336 -1.432 0
M  V30 2074 H 196.121 1.11304 -3.89093 0
M  V30 2075 H 194.691 1.29637 -2.84452 0
M  V30 2076 H 193.911 -0.991986 -3.81514 0
M  V30 2077 H 195.199 -0.822564 -5.02107 0
M  V30 2078 H 194.597 2.35628 -5.14292 0
M  V30 2079 H 193.154 2.36078 -6.07545 0
M  V30 2080 N 196.587 1.43421 -0.653314 0
M  V30 2081 C 197.833 2.02111 -0.166992 0
M  V30 2082 C 198.166 1.51423 1.21592 0
M  V30 2083 O 197.441 0.707389 1.8118 0
M  V30 2084 C 197.724 3.5966 -0.177948 0
M  V30 2085 C 197.577 4.20579 -1.59478 0
M  V30 2086 C 198.896 4.37413 0.4856 0
M  V30 2087 H 196.015 0.734374 -0.0621557 0
M  V30 2088 H 198.657 1.70717 -0.834016 0
M  V30 2089 H 196.807 3.86537 0.390032 0
M  V30 2090 H 198.479 4.04732 -2.21336 0
M  V30 2091 H 196.722 3.77226 -2.14204 0
M  V30 2092 H 197.393 5.29665 -1.5543 0
M  V30 2093 H 199.869 4.161 0.00234528 0
M  V30 2094 H 198.745 5.47075 0.447207 0
M  V30 2095 H 199.006 4.13672 1.55974 0
M  V30 2096 N 198.065 0.39524 1.52563 0
M  V30 2097 C 199.312 -0.185044 2.01653 0
M  V30 2098 C 199.64 -1.46317 1.28146 0
M  V30 2099 O 198.895 -1.9213 0.372074 0
M  V30 2100 C 199.194 -0.493444 3.53977 0
M  V30 2101 C 198.86 0.69384 4.4553 0
M  V30 2102 C 197.522 1.01954 4.70275 0
M  V30 2103 C 199.874 1.48785 4.99512 0
M  V30 2104 C 197.202 2.14069 5.46252 0
M  V30 2105 C 199.554 2.59965 5.76716 0
M  V30 2106 C 198.218 2.93037 5.99738 0
M  V30 2107 H 197.488 -0.0677123 0.7379 0
M  V30 2108 H 200.135 0.533807 1.8391 0
M  V30 2109 H 198.44 -1.29369 3.69825 0
M  V30 2110 H 200.137 -0.955163 3.89458 0
M  V30 2111 H 196.727 0.429987 4.26438 0
M  V30 2112 H 200.911 1.24946 4.80315 0
M  V30 2113 H 196.167 2.40056 5.62302 0
M  V30 2114 H 200.341 3.21887 6.17545 0
M  V30 2115 H 197.968 3.8003 6.58393 0
M  V30 2116 N 199.544 -1.57102 0.125237 0
M  V30 2117 C 200.96 -1.57915 -0.231322 0
M  V30 2118 C 201.16 -1.13833 -1.66266 0
M  V30 2119 O 200.216 -0.828581 -2.38518 0
M  V30 2120 C 201.529 -3.00699 0.00766489 0
M  V30 2121 C 203.077 -3.12947 -0.0577483 0
M  V30 2122 C 203.552 -4.57742 0.153626 0
M  V30 2123 N 205.043 -4.63092 0.0998073 0
M  V30 2124 C 205.778 -5.72905 0.238174 0
M  V30 2125 N 205.274 -6.91445 0.433057 0
M  V30 2126 N 207.067 -5.6182 0.177308 0
M  V30 2127 H 199.218 -1.84055 1.06007 0
M  V30 2128 H 201.481 -0.850905 0.417929 0
M  V30 2129 H 201.187 -3.3726 0.997431 0
M  V30 2130 H 201.061 -3.70236 -0.721452 0
M  V30 2131 H 203.448 -2.7624 -1.03804 0
M  V30 2132 H 203.529 -2.4594 0.70335 0
M  V30 2133 H 203.173 -4.95149 1.13092 0
M  V30 2134 H 203.103 -5.22848 -0.627534 0
M  V30 2135 H 205.594 -3.77871 -0.047051 0
M  V30 2136 H 205.907 -7.70985 0.529332 0
M  V30 2137 H 204.252 -6.93415 0.469109 0
M  V30 2138 H 207.443 -4.68093 0.0259748 0
M  V30 2139 H 207.616 -6.47357 0.288582 0
M  V30 2140 N 201.022 0.148545 -1.56898 0
M  V30 2141 C 202.433 0.708766 -1.72723 0
M  V30 2142 C 202.784 1.81734 -0.739395 0
M  V30 2143 O 201.909 2.16194 0.0943169 0
M  V30 2144 C 202.504 1.29245 -3.13179 0
M  V30 2145 C 201.063 1.79925 -3.30611 0
M  V30 2146 C 200.21 0.687111 -2.68652 0
M  V30 2147 H 203.161 -0.0771063 -1.58513 0
M  V30 2148 H 203.182 2.16224 -3.13093 0
M  V30 2149 H 202.694 0.485382 -3.85053 0
M  V30 2150 H 200.795 2.63203 -2.63732 0
M  V30 2151 H 200.908 1.92903 -4.38549 0
M  V30 2152 H 199.272 1.11335 -2.29078 0
M  V30 2153 H 200.055 -0.108483 -3.43129 0
M  V30 2154 N 202.5 1.5196 0.417844 0
M  V30 2155 C 203.43 1.77634 1.51554 0
M  V30 2156 C 204.411 0.626918 1.58126 0
M  V30 2157 O 205.596 0.871632 1.7354 0
M  V30 2158 C 202.726 1.91911 2.8946 0
M  V30 2159 C 201.68 3.07463 2.97743 0
M  V30 2160 C 201.006 3.06951 4.37819 0
M  V30 2161 C 202.306 4.47082 2.70027 0
M  V30 2162 H 204 2.6955 1.3032 0
M  V30 2163 H 201.546 1.29706 0.625492 0
M  V30 2164 H 203.499 2.08455 3.6623 0
M  V30 2165 H 202.223 0.966598 3.11969 0
M  V30 2166 H 200.882 2.90656 2.23416 0
M  V30 2167 H 200.53 2.09438 4.57323 0
M  V30 2168 H 200.23 3.84556 4.44286 0
M  V30 2169 H 201.754 3.25613 5.16535 0
M  V30 2170 H 203.168 4.6414 3.36522 0
M  V30 2171 H 201.565 5.2654 2.87881 0
M  V30 2172 H 202.635 4.55777 1.65514 0
M  V30 2173 N 203.978 -0.674533 1.42435 0
M  V30 2174 C 204.908 -1.80009 1.48724 0
M  V30 2175 C 205.889 -1.6659 0.343793 0
M  V30 2176 O 207.074 -1.86007 0.558137 0
M  V30 2177 C 204.204 -3.18306 1.38919 0
M  V30 2178 C 203.158 -3.46461 2.51294 0
M  V30 2179 C 202.484 -4.84335 2.26547 0
M  V30 2180 C 203.784 -3.43328 3.93603 0
M  V30 2181 H 205.478 -1.75004 2.42928 0
M  V30 2182 H 203.024 -0.840533 1.16923 0
M  V30 2183 H 204.977 -3.9678 1.41927 0
M  V30 2184 H 203.701 -3.2399 0.412094 0
M  V30 2185 H 202.36 -2.70348 2.47604 0
M  V30 2186 H 202.008 -4.86669 1.2713 0
M  V30 2187 H 201.708 -5.04136 3.01861 0
M  V30 2188 H 203.232 -5.65094 2.31304 0
M  V30 2189 H 204.646 -4.11772 3.98894 0
M  V30 2190 H 203.043 -3.74664 4.68771 0
M  V30 2191 H 204.113 -2.41897 4.20255 0
M  V30 2192 N 205.456 -1.28612 -0.910864 0
M  V30 2193 C 206.386 -1.15326 -2.03032 0
M  V30 2194 C 207.367 -0.0502924 -1.70026 0
M  V30 2195 O 208.552 -0.227797 -1.92859 0
M  V30 2196 C 205.682 -0.817343 -3.37545 0
M  V30 2197 C 204.636 -1.8754 -3.84724 0
M  V30 2198 C 203.962 -1.39305 -5.16235 0
M  V30 2199 C 205.262 -3.28244 -4.06267 0
M  V30 2200 H 206.956 -2.08975 -2.14406 0
M  V30 2201 H 204.502 -1.00612 -1.03021 0
M  V30 2202 H 206.455 -0.711151 -4.15356 0
M  V30 2203 H 205.179 0.154846 -3.26233 0
M  V30 2204 H 203.838 -1.97079 -3.09121 0
M  V30 2205 H 203.486 -0.409846 -5.01328 0
M  V30 2206 H 203.186 -2.10057 -5.48771 0
M  V30 2207 H 204.71 -1.30014 -5.96598 0
M  V30 2208 H 206.124 -3.21611 -4.74594 0
M  V30 2209 H 204.521 -3.96855 -4.5014 0
M  V30 2210 H 205.591 -3.72048 -3.10979 0
M  V30 2211 N 206.934 1.1197 -1.10907 0
M  V30 2212 C 208.182 1.83225 -0.852819 0
M  V30 2213 C 208.503 1.84769 0.623341 0
M  V30 2214 O 207.773 1.3143 1.45269 0
M  V30 2215 H 206.353 0.67849 -0.312507 0
M  V30 2216 H 209.015 1.3556 -1.40033 0
M  V30 2217 H 208.111 2.87265 -1.22005 0
M  V30 2218 N 208.412 0.89855 1.29475 0
M  V30 2219 C 209.637 0.538561 2.00285 0
M  V30 2220 C 210.062 -0.869135 1.66816 0
M  V30 2221 O 209.42 -1.57831 0.892145 0
M  V30 2222 C 209.468 0.736475 3.52999 0
M  V30 2223 O 208.572 -0.211537 4.11857 0
M  V30 2224 H 207.913 0.210563 0.62973 0
M  V30 2225 H 210.443 1.20982 1.64998 0
M  V30 2226 H 210.453 0.640685 4.02938 0
M  V30 2227 H 209.128 1.76276 3.76696 0
M  V30 2228 H 207.705 -0.0682991 3.72837 0
M  V30 2229 N 209.89 -1.43072 0.660911 0
M  V30 2230 C 211.136 -2.02545 0.186337 0
M  V30 2231 C 211.491 -1.51253 -1.18913 0
M  V30 2232 O 210.784 -0.699167 -1.78388 0
M  V30 2233 C 210.978 -3.57103 0.145563 0
M  V30 2234 C 210.807 -4.23393 1.51554 0
M  V30 2235 C 209.577 -4.59144 2.10984 0
M  V30 2236 C 211.775 -4.51897 2.45548 0
M  V30 2237 N 209.757 -5.10545 3.40907 0
M  V30 2238 C 211.128 -5.04698 3.6011 0
M  V30 2239 C 213.183 -4.33872 2.44253 0
M  V30 2240 C 211.886 -5.41371 4.73613 0
M  V30 2241 C 213.912 -4.71612 3.56842 0
M  V30 2242 C 213.274 -5.24553 4.70131 0
M  V30 2243 H 209.373 -0.773823 0.112792 0
M  V30 2244 H 211.957 -1.74137 0.870885 0
M  V30 2245 H 210.128 -3.85059 -0.508353 0
M  V30 2246 H 211.86 -4.03264 -0.340598 0
M  V30 2247 H 208.615 -4.4444 1.63615 0
M  V30 2248 H 209.039 -5.40689 4.07411 0
M  V30 2249 H 213.681 -3.92208 1.579 0
M  V30 2250 H 211.399 -5.81975 5.60652 0
M  V30 2251 H 214.985 -4.59354 3.57051 0
M  V30 2252 H 213.865 -5.53213 5.5581 0
M  V30 2253 N 211.368 -0.403325 -1.52352 0
M  V30 2254 C 212.616 0.174003 -2.0135 0
M  V30 2255 C 212.937 1.46139 -1.29106 0
M  V30 2256 O 212.207 1.91448 -0.415253 0
M  V30 2257 H 210.787 0.0672911 -0.743963 0
M  V30 2258 H 213.449 -0.538235 -1.87321 0
M  V30 2259 H 212.545 0.374254 -3.09848 0
M  V30 2260 N 212.846 1.57033 -0.133567 0
M  V30 2261 C 213.796 2.12641 0.822671 0
M  V30 2262 C 214.78 1.05081 1.21847 0
M  V30 2263 O 215.972 1.31287 1.18713 0
M  V30 2264 C 213.101 2.74094 2.06706 0
M  V30 2265 C 212.187 3.88757 1.69497 0
M  V30 2266 N 212.578 4.95194 1.03037 0
M  V30 2267 C 210.876 3.99213 1.98859 0
M  V30 2268 C 211.577 5.75414 0.852873 0
M  V30 2269 N 210.553 5.25726 1.3825 0
M  V30 2270 H 214.355 2.92308 0.305537 0
M  V30 2271 H 211.869 1.62256 0.0684276 0
M  V30 2272 H 213.866 3.12285 2.76195 0
M  V30 2273 H 212.526 1.95896 2.5895 0
M  V30 2274 H 213.537 5.13247 0.692669 0
M  V30 2275 H 210.214 3.32075 2.53047 0
M  V30 2276 H 211.604 6.71089 0.330091 0
M  V30 2277 N 214.325 -0.140222 1.56975 0
M  V30 2278 C 215.288 -1.15689 1.97861 0
M  V30 2279 C 216.288 -1.3549 0.865974 0
M  V30 2280 O 217.478 -1.32367 1.13246 0
M  V30 2281 C 214.61 -2.51582 2.30042 0
M  V30 2282 H 215.803 -0.805971 2.88867 0
M  V30 2283 H 213.356 -0.383801 1.51515 0
M  V30 2284 H 214.091 -2.91632 1.41849 0
M  V30 2285 H 213.876 -2.38569 3.11171 0
M  V30 2286 H 215.366 -3.24792 2.62488 0
M  V30 2287 N 215.803 -1.52179 -0.40978 0
M  V30 2288 C 217.05 -1.66206 -1.15679 0
M  V30 2289 C 217.378 -0.391674 -1.90516 0
M  V30 2290 O 216.633 0.62533 -1.8544 0
M  V30 2291 C 216.932 -2.83428 -2.17723 0
M  V30 2292 C 216.598 -4.21672 -1.59699 0
M  V30 2293 C 215.26 -4.59274 -1.43599 0
M  V30 2294 C 217.612 -5.07825 -1.17317 0
M  V30 2295 C 214.94 -5.80709 -0.836328 0
M  V30 2296 C 217.292 -6.29864 -0.587691 0
M  V30 2297 C 215.956 -6.66216 -0.413818 0
M  V30 2298 H 215.226 -0.608192 -0.423301 0
M  V30 2299 H 217.873 -1.86279 -0.444097 0
M  V30 2300 H 216.178 -2.57687 -2.95135 0
M  V30 2301 H 217.875 -2.91477 -2.75394 0
M  V30 2302 H 214.465 -3.9204 -1.73213 0
M  V30 2303 H 218.649 -4.79359 -1.28565 0
M  V30 2304 H 213.905 -6.07498 -0.689626 0
M  V30 2305 H 218.079 -6.95948 -0.250894 0
M  V30 2306 H 215.706 -7.60182 0.0529471 0
M  V30 2307 N 217.281 0.66697 -1.42791 0
M  V30 2308 C 218.692 1.2478 -1.38877 0
M  V30 2309 C 219.043 1.96012 -0.0859426 0
M  V30 2310 O 218.168 2.00463 0.815081 0
M  V30 2311 C 218.763 2.26938 -2.51564 0
M  V30 2312 C 217.322 2.80529 -2.50959 0
M  V30 2313 C 216.469 1.54965 -2.29959 0
M  V30 2314 H 219.42 0.459853 -1.51892 0
M  V30 2315 H 219.441 3.08834 -2.22265 0
M  V30 2316 H 218.953 1.75065 -3.46372 0
M  V30 2317 H 217.054 3.36502 -1.59991 0
M  V30 2318 H 217.167 3.29012 -3.48265 0
M  V30 2319 H 215.531 1.81817 -1.78366 0
M  V30 2320 H 216.314 1.05047 -3.26833 0
M  V30 2321 N 218.759 1.29093 0.90403 0
M  V30 2322 C 219.989 1.19516 1.68522 0
M  V30 2323 C 220.397 -0.24738 1.87576 0
M  V30 2324 O 219.74 -1.17798 1.40959 0
M  V30 2325 C 219.802 1.83249 3.0929 0
M  V30 2326 C 219.466 3.32531 3.13484 0
M  V30 2327 C 220.463 4.28821 2.93953 0
M  V30 2328 C 218.148 3.73656 3.35688 0
M  V30 2329 C 220.142 5.64212 2.96553 0
M  V30 2330 C 217.829 5.0917 3.37919 0
M  V30 2331 C 218.827 6.04258 3.18373 0
M  V30 2332 O 218.515 7.37298 3.20385 0
M  V30 2333 H 218.247 0.415467 0.533257 0
M  V30 2334 H 220.801 1.70912 1.13922 0
M  V30 2335 H 219.031 1.26358 3.65473 0
M  V30 2336 H 220.72 1.68054 3.69476 0
M  V30 2337 H 221.486 3.98382 2.76616 0
M  V30 2338 H 217.365 3.00101 3.49943 0
M  V30 2339 H 220.909 6.38407 2.81216 0
M  V30 2340 H 216.806 5.39256 3.54787 0
M  V30 2341 H 217.574 7.46048 3.36681 0
M  V30 2342 N 220.237 -1.11381 1.11499 0
M  V30 2343 C 221.485 -1.8277 0.862524 0
M  V30 2344 C 221.806 -1.85097 -0.613534 0
M  V30 2345 O 221.076 -1.32198 -1.4457 0
M  V30 2346 H 219.656 -0.676823 0.316101 0
M  V30 2347 H 222.318 -1.34816 1.4075 0
M  V30 2348 H 221.414 -2.86614 1.23527 0
M  V30 2349 N 221.715 -0.905404 -1.28997 0
M  V30 2350 C 222.964 -0.530191 -1.94607 0
M  V30 2351 C 223.277 0.929185 -1.72121 0
M  V30 2352 O 224.483 1.41218 -2.31883 0
M  V30 2353 C 222.939 -0.897333 -3.48534 0
M  V30 2354 C 222.547 -2.37587 -3.79811 0
M  V30 2355 C 224.291 -0.592304 -4.20347 0
M  V30 2356 C 222.198 -2.68357 -5.27009 0
M  V30 2357 H 221.128 -0.194558 -0.728466 0
M  V30 2358 H 223.779 -1.10318 -1.46636 0
M  V30 2359 H 222.161 -0.253214 -3.9519 0
M  V30 2360 H 223.335 -3.06602 -3.43994 0
M  V30 2361 H 221.65 -2.6505 -3.2115 0
M  V30 2362 H 224.247 -0.798975 -5.28697 0
M  V30 2363 H 224.59 0.469474 -4.13644 0
M  V30 2364 H 225.123 -1.19452 -3.79442 0
M  V30 2365 H 221.862 -3.73355 -5.38782 0
M  V30 2366 H 221.382 -2.03971 -5.64053 0
M  V30 2367 H 223.061 -2.54922 -5.94663 0
M  V30 2368 N 223.193 1.4272 -0.668489 0
M  V30 2369 C 224.123 2.335 -0.000100175 0
M  V30 2370 C 225.104 1.50328 0.795964 0
M  V30 2371 O 226.289 1.78949 0.754385 0
M  V30 2372 C 223.419 3.33874 0.956302 0
M  V30 2373 C 222.373 4.27152 0.269278 0
M  V30 2374 C 221.699 5.17684 1.33818 0
M  V30 2375 C 222.999 5.15373 -0.847805 0
M  V30 2376 H 224.693 2.89639 -0.758244 0
M  V30 2377 H 222.239 1.39269 -0.366079 0
M  V30 2378 H 224.192 3.9629 1.43292 0
M  V30 2379 H 222.916 2.76025 1.74579 0
M  V30 2380 H 221.575 3.66123 -0.187042 0
M  V30 2381 H 221.223 4.56165 2.1195 0
M  V30 2382 H 220.923 5.80918 0.883659 0
M  V30 2383 H 222.447 5.82974 1.81586 0
M  V30 2384 H 223.861 5.7151 -0.452681 0
M  V30 2385 H 222.258 5.87407 -1.22773 0
M  V30 2386 H 223.328 4.5415 -1.69929 0
M  V30 2387 N 224.671 0.411399 1.52136 0
M  V30 2388 C 225.896 -0.165538 2.06738 0
M  V30 2389 C 226.321 -1.379 1.27926 0
M  V30 2390 O 225.679 -1.78628 0.310114 0
M  V30 2391 C 225.727 -0.492124 3.57226 0
M  V30 2392 O 224.831 -1.58276 3.80818 0
M  V30 2393 H 224.172 -0.0132132 0.663869 0
M  V30 2394 H 226.702 0.585253 1.96051 0
M  V30 2395 H 226.712 -0.750104 4.01045 0
M  V30 2396 H 225.387 0.394922 4.14021 0
M  V30 2397 H 223.964 -1.31677 3.48877 0
M  V30 2398 N 226.149 -1.5696 0.141893 0
M  V30 2399 C 227.099 -2.13074 -0.811383 0
M  V30 2400 C 228.083 -1.05726 -1.21288 0
M  V30 2401 O 229.275 -1.31914 -1.18015 0
M  V30 2402 C 226.404 -2.75186 -2.0525 0
M  V30 2403 C 225.49 -3.8965 -1.67432 0
M  V30 2404 N 225.881 -4.95733 -1.0041 0
M  V30 2405 C 224.179 -4.00262 -1.96739 0
M  V30 2406 C 224.88 -5.75858 -0.822345 0
M  V30 2407 N 223.856 -5.26452 -1.3546 0
M  V30 2408 H 227.658 -2.92465 -0.290031 0
M  V30 2409 H 225.172 -1.6229 -0.0598218 0
M  V30 2410 H 227.169 -3.13745 -2.74535 0
M  V30 2411 H 225.829 -1.97266 -2.57907 0
M  V30 2412 H 226.84 -5.13607 -0.665441 0
M  V30 2413 H 223.517 -3.33412 -2.51282 0
M  V30 2414 H 224.907 -6.71254 -0.294496 0
M  V30 2415 N 227.627 0.131896 -1.57047 0
M  V30 2416 C 228.557 1.16384 -2.02428 0
M  V30 2417 C 229.538 1.43936 -0.90644 0
M  V30 2418 O 230.723 1.54599 -1.17528 0
M  V30 2419 C 227.853 2.49328 -2.4177 0
M  V30 2420 C 226.807 2.36266 -3.56879 0
M  V30 2421 C 226.133 3.74057 -3.8208 0
M  V30 2422 C 227.433 1.834 -4.89042 0
M  V30 2423 H 229.127 0.786433 -2.88887 0
M  V30 2424 H 226.673 0.376855 -1.38981 0
M  V30 2425 H 228.626 3.21759 -2.7212 0
M  V30 2426 H 227.35 2.88934 -1.52266 0
M  V30 2427 H 226.009 1.66286 -3.26718 0
M  V30 2428 H 225.657 4.11125 -2.89803 0
M  V30 2429 H 225.357 3.66174 -4.59554 0
M  V30 2430 H 226.881 4.48012 -4.1487 0
M  V30 2431 H 228.295 2.45636 -5.18011 0
M  V30 2432 H 226.692 1.8637 -5.70426 0
M  V30 2433 H 227.762 0.790662 -4.7841 0
M  V30 2434 N 229.106 1.52395 0.401703 0
M  V30 2435 C 230.383 1.57387 1.16141 0
M  V30 2436 C 230.763 0.359359 2.08019 0
M  V30 2437 O 230.111 -0.65326 2.18963 0
M  V30 2438 C 230.321 2.90631 1.93221 0
M  V30 2439 C 231.669 3.43904 2.49028 0
M  V30 2440 O 232.693 2.92421 2.03393 0
M  V30 2441 O 231.552 4.33823 3.32356 0
M  V30 2442 H 228.646 0.634262 0.530698 0
M  V30 2443 H 231.192 1.64725 0.407883 0
M  V30 2444 H 229.964 3.70473 1.25958 0
M  V30 2445 H 229.587 2.8662 2.75563 0
M  V30 2446 N 230.584 -0.659388 1.43143 0
M  V30 2447 C 231.83 -1.41984 1.45644 0
M  V30 2448 C 232.185 -1.92245 0.0771718 0
M  V30 2449 O 231.478 -1.68976 -0.903205 0
M  V30 2450 C 231.672 -2.62206 2.42864 0
M  V30 2451 C 231.501 -2.23711 3.90107 0
M  V30 2452 C 230.271 -2.12332 4.58523 0
M  V30 2453 C 232.469 -1.84384 4.80112 0
M  V30 2454 N 230.451 -1.67102 5.9072 0
M  V30 2455 C 231.822 -1.5019 6.01534 0
M  V30 2456 C 233.877 -1.71512 4.67427 0
M  V30 2457 C 232.58 -1.04414 7.11681 0
M  V30 2458 C 234.606 -1.27142 5.77572 0
M  V30 2459 C 233.968 -0.938808 6.98116 0
M  V30 2460 H 230.067 -0.515448 0.588079 0
M  V30 2461 H 232.651 -0.759409 1.79279 0
M  V30 2462 H 230.822 -3.25917 2.11265 0
M  V30 2463 H 232.554 -3.28877 2.35843 0
M  V30 2464 H 229.309 -2.31893 4.12944 0
M  V30 2465 H 229.733 -1.46866 6.60878 0
M  V30 2466 H 234.375 -1.95868 3.74694 0
M  V30 2467 H 232.093 -0.788061 8.04248 0
M  V30 2468 H 235.679 -1.17681 5.69774 0
M  V30 2469 H 234.559 -0.6007 7.81896 0
M  V30 2470 N 232.062 -1.29571 -0.897171 0
M  V30 2471 C 233.308 -1.17863 -1.65034 0
M  V30 2472 C 233.641 0.268729 -1.92332 0
M  V30 2473 O 232.916 1.19378 -1.53555 0
M  V30 2474 C 233.199 -1.995 -2.99786 0
M  V30 2475 C 233.052 -3.5239 -2.79538 0
M  V30 2476 C 234.371 -1.82335 -4.00552 0
M  V30 2477 H 231.49 -0.429528 -0.598895 0
M  V30 2478 H 234.132 -1.59072 -1.03905 0
M  V30 2479 H 232.282 -1.64485 -3.51962 0
M  V30 2480 H 233.954 -3.97401 -2.34244 0
M  V30 2481 H 232.197 -3.77187 -2.14273 0
M  V30 2482 H 232.868 -4.04787 -3.75302 0
M  V30 2483 H 235.344 -2.12924 -3.57495 0
M  V30 2484 H 234.22 -2.41801 -4.92771 0
M  V30 2485 H 234.481 -0.779209 -4.35179 0
M  V30 2486 N 233.54 1.10788 -1.12088 0
M  V30 2487 C 234.488 2.19111 -0.780587 0
M  V30 2488 C 235.482 1.67818 0.230961 0
M  V30 2489 O 236.688 1.79777 0.0895427 0
M  V30 2490 H 233.063 0.714477 -0.234578 0
M  V30 2491 H 235.034 2.45055 -1.70266 0
M  V30 2492 C 233.783 3.46818 -0.24747 0
M  V30 2493 H 233.106 3.86646 -1.01712 0
M  V30 2494 H 234.546 4.23973 -0.0476291 0
M  V30 2495 C 233.005 3.20968 1.02378 0
M  V30 2496 O 233.535 3.42298 2.10226 0
M  V30 2497 N 231.741 2.74658 0.949271 0
M  V30 2498 H 231.288 2.57501 0.0715173 0
M  V30 2499 H 231.246 2.57739 1.80049 0
M  V30 2500 N 235.018 0.912232 1.28515 0
M  V30 2501 C 235.966 0.389597 2.29314 0
M  V30 2502 C 236.96 -0.517915 1.61289 0
M  V30 2503 O 238.166 -0.399328 1.75515 0
M  V30 2504 H 234.541 0.107386 0.744293 0
M  V30 2505 H 236.512 1.25286 2.70825 0
M  V30 2506 C 235.261 -0.356496 3.45868 0
M  V30 2507 H 234.584 0.332608 3.98414 0
M  V30 2508 H 236.024 -0.686851 4.184 0
M  V30 2509 C 234.483 -1.56383 2.98406 0
M  V30 2510 O 235.013 -2.66294 3.00749 0
M  V30 2511 N 233.219 -1.41029 2.54085 0
M  V30 2512 H 232.766 -0.516089 2.52377 0
M  V30 2513 H 232.724 -2.21939 2.22689 0
M  V30 2514 N 236.496 -1.42363 0.676048 0
M  V30 2515 C 237.743 -2.01522 0.19883 0
M  V30 2516 C 238.071 -1.53456 -1.19505 0
M  V30 2517 O 237.326 -0.727967 -1.81657 0
M  V30 2518 C 237.625 -3.56929 0.183431 0
M  V30 2519 C 237.291 -4.24431 1.52215 0
M  V30 2520 C 235.953 -4.42585 1.8887 0
M  V30 2521 C 238.305 -4.62459 2.40377 0
M  V30 2522 C 235.633 -4.96039 3.13309 0
M  V30 2523 C 237.985 -5.17294 3.64129 0
M  V30 2524 C 236.649 -5.33661 4.00951 0
M  V30 2525 H 235.919 -0.737419 0.0727571 0
M  V30 2526 H 238.566 -1.70531 0.871281 0
M  V30 2527 H 236.871 -3.87594 -0.572532 0
M  V30 2528 H 238.568 -4.00486 -0.203035 0
M  V30 2529 H 235.158 -4.10661 1.22701 0
M  V30 2530 H 239.342 -4.48105 2.13343 0
M  V30 2531 H 234.598 -5.06896 3.41857 0
M  V30 2532 H 238.772 -5.45704 4.32644 0
M  V30 2533 H 236.399 -5.74845 4.9745 0
M  V30 2534 N 237.974 -0.419461 -1.51915 0
M  V30 2535 C 239.222 0.152637 -2.01523 0
M  V30 2536 C 239.543 1.44762 -1.30649 0
M  V30 2537 O 238.813 1.90997 -0.435535 0
M  V30 2538 H 237.393 0.0593966 -0.744635 0
M  V30 2539 H 240.055 -0.558073 -1.86739 0
M  V30 2540 H 239.151 0.341369 -3.10227 0
M  V30 2541 N 239.452 1.56882 -0.150215 0
M  V30 2542 C 240.682 2.00302 0.506213 0
M  V30 2543 C 241.09 1.02934 1.58749 0
M  V30 2544 O 240.433 0.0188384 1.8369 0
M  V30 2545 C 240.495 3.40156 1.16337 0
M  V30 2546 C 240.159 4.56439 0.226311 0
M  V30 2547 C 241.156 5.17012 -0.547265 0
M  V30 2548 C 238.841 5.02136 0.128279 0
M  V30 2549 C 240.835 6.21693 -1.40629 0
M  V30 2550 C 238.522 6.06672 -0.734345 0
M  V30 2551 C 239.52 6.6632 -1.50023 0
M  V30 2552 O 239.208 7.68831 -2.34848 0
M  V30 2553 H 238.94 0.662182 0.135984 0
M  V30 2554 H 241.494 2.03961 -0.242746 0
M  V30 2555 H 239.724 3.33346 1.96004 0
M  V30 2556 H 241.413 3.67663 1.71985 0
M  V30 2557 H 242.179 4.82603 -0.48158 0
M  V30 2558 H 238.058 4.55435 0.714157 0
M  V30 2559 H 241.602 6.68179 -2.00455 0
M  V30 2560 H 237.499 6.40507 -0.801309 0
M  V30 2561 H 238.267 7.86065 -2.28131 0
M  V30 2562 N 240.93 -0.123565 1.57115 0
M  V30 2563 C 241.862 -1.17739 1.96648 0
M  V30 2564 C 242.875 -1.37906 0.865201 0
M  V30 2565 O 244.064 -1.37062 1.14351 0
M  V30 2566 C 241.164 -2.53821 2.24562 0
M  V30 2567 C 240.337 -2.54317 3.55867 0
M  V30 2568 C 239.396 -3.72112 3.72047 0
M  V30 2569 O 238.422 -3.55907 4.44206 0
M  V30 2570 N 239.624 -4.90498 3.10471 0
M  V30 2571 H 242.389 -0.841147 2.87654 0
M  V30 2572 H 239.95 -0.31289 1.58848 0
M  V30 2573 H 241.942 -3.31175 2.32606 0
M  V30 2574 H 240.512 -2.79645 1.39705 0
M  V30 2575 H 239.732 -1.62711 3.59053 0
M  V30 2576 H 241.02 -2.51701 4.42181 0
M  V30 2577 H 240.418 -5.06567 2.51806 0
M  V30 2578 H 238.975 -5.65544 3.24043 0
M  V30 2579 N 242.408 -1.52605 -0.393616 0
M  V30 2580 C 243.638 -1.71046 -1.15874 0
M  V30 2581 C 244.046 -0.426483 -1.84331 0
M  V30 2582 O 243.389 0.608513 -1.73329 0
M  V30 2583 C 243.451 -2.80118 -2.25332 0
M  V30 2584 C 243.115 -4.21381 -1.76881 0
M  V30 2585 C 244.112 -5.04697 -1.24808 0
M  V30 2586 C 241.797 -4.67683 -1.83244 0
M  V30 2587 C 243.791 -6.32393 -0.797387 0
M  V30 2588 C 241.478 -5.95364 -1.37787 0
M  V30 2589 C 242.476 -6.77549 -0.861208 0
M  V30 2590 O 242.164 -8.02837 -0.413252 0
M  V30 2591 H 241.896 -0.576155 -0.353583 0
M  V30 2592 H 244.45 -2.00018 -0.467123 0
M  V30 2593 H 242.68 -2.46557 -2.97904 0
M  V30 2594 H 244.369 -2.87006 -2.87023 0
M  V30 2595 H 245.135 -4.70111 -1.19252 0
M  V30 2596 H 241.014 -4.03805 -2.22401 0
M  V30 2597 H 244.558 -6.9649 -0.393437 0
M  V30 2598 H 240.455 -6.29455 -1.43026 0
M  V30 2599 H 241.223 -8.16749 -0.53515 0
M  V30 2600 N 243.887 0.651787 -1.4349 0
M  V30 2601 C 244.817 1.77621 -1.51569 0
M  V30 2602 C 245.798 1.66022 -0.370253 0
M  V30 2603 O 246.983 1.85095 -0.587658 0
M  V30 2604 C 244.113 3.16056 -1.43966 0
M  V30 2605 C 243.067 3.4242 -2.56774 0
M  V30 2606 C 242.393 4.8067 -2.34223 0
M  V30 2607 C 243.693 3.37023 -3.99015 0
M  V30 2608 H 245.387 1.71117 -2.45681 0
M  V30 2609 H 242.933 0.821825 -1.18246 0
M  V30 2610 H 244.886 3.94472 -1.48221 0
M  V30 2611 H 243.61 3.23293 -0.463586 0
M  V30 2612 H 242.269 2.66375 -2.51873 0
M  V30 2613 H 241.917 4.84585 -1.34856 0
M  V30 2614 H 241.617 4.9927 -3.09844 0
M  V30 2615 H 243.141 5.61342 -2.40265 0
M  V30 2616 H 244.555 4.05374 -4.05395 0
M  V30 2617 H 242.952 3.67159 -4.74673 0
M  V30 2618 H 244.022 2.3518 -4.2405 0
M  V30 2619 N 245.365 1.30045 0.890287 0
M  V30 2620 C 246.313 1.15873 2.01683 0
M  V30 2621 C 247.307 0.0719403 1.69247 0
M  V30 2622 O 248.513 0.232414 1.78493 0
M  V30 2623 H 244.888 0.358203 0.661207 0
M  V30 2624 H 246.859 2.11229 2.10772 0
M  V30 2625 C 245.608 0.861842 3.36849 0
M  V30 2626 H 244.931 1.69016 3.62317 0
M  V30 2627 H 246.371 0.802762 4.16331 0
M  V30 2628 C 244.83 -0.435132 3.34078 0
M  V30 2629 O 245.36 -1.4583 3.74295 0
M  V30 2630 N 243.566 -0.444377 2.87182 0
M  V30 2631 H 243.113 0.388723 2.5465 0
M  V30 2632 H 243.071 -1.31213 2.85711 0
M  V30 2633 N 246.843 -1.10192 1.12674 0
M  V30 2634 C 248.089 -1.82658 0.894847 0
M  V30 2635 C 248.444 -1.83666 -0.573107 0
M  V30 2636 O 247.737 -1.28816 -1.41835 0
M  V30 2637 C 247.931 -3.28552 1.4067 0
M  V30 2638 C 247.76 -3.41756 2.92289 0
M  V30 2639 C 246.53 -3.54021 3.60551 0
M  V30 2640 C 248.728 -3.34949 3.90274 0
M  V30 2641 N 246.71 -3.55827 5.0026 0
M  V30 2642 C 248.081 -3.43531 5.16127 0
M  V30 2643 C 250.136 -3.18565 3.8265 0
M  V30 2644 C 248.839 -3.37416 6.3525 0
M  V30 2645 C 250.865 -3.13772 5.01299 0
M  V30 2646 C 250.227 -3.22938 6.26012 0
M  V30 2647 H 246.326 -0.683044 0.380756 0
M  V30 2648 H 248.91 -1.31752 1.43351 0
M  V30 2649 H 247.081 -3.77946 0.895055 0
M  V30 2650 H 248.813 -3.88991 1.11661 0
M  V30 2651 H 245.568 -3.57135 3.1105 0
M  V30 2652 H 245.992 -3.60335 5.73138 0
M  V30 2653 H 250.634 -3.10354 2.87124 0
M  V30 2654 H 248.352 -3.44391 7.3104 0
M  V30 2655 H 251.938 -3.02242 4.97133 0
M  V30 2656 H 250.818 -3.19235 7.16281 0
M  V30 2657 N 248.321 -0.919034 -1.28029 0
M  V30 2658 C 249.271 -0.382574 -2.24767 0
M  V30 2659 C 250.255 0.508286 -1.52661 0
M  V30 2660 O 251.447 0.347145 -1.73562 0
M  V30 2661 C 248.576 0.371432 -3.41285 0
M  V30 2662 C 247.662 -0.535449 -4.20706 0
M  V30 2663 N 248.053 -1.65141 -4.78082 0
M  V30 2664 C 246.351 -0.336824 -4.44726 0
M  V30 2665 C 247.052 -2.21475 -5.37888 0
M  V30 2666 N 246.028 -1.50537 -5.22341 0
M  V30 2667 H 249.83 -1.23477 -2.66703 0
M  V30 2668 H 247.344 -0.772299 -1.42861 0
M  V30 2669 H 249.341 0.772638 -4.09678 0
M  V30 2670 H 248.001 1.22066 -3.00882 0
M  V30 2671 H 249.012 -2.03392 -4.7629 0
M  V30 2672 H 245.689 0.47246 -4.14818 0
M  V30 2673 H 247.079 -3.15379 -5.93284 0
M  V30 2674 N 249.799 1.42003 -0.683588 0
M  V30 2675 C 251.029 2.05448 -0.217866 0
M  V30 2676 C 251.437 1.51491 1.13346 0
M  V30 2677 O 250.78 0.653048 1.717 0
M  V30 2678 C 250.842 3.59399 -0.0850118 0
M  V30 2679 C 250.506 4.36093 -1.36645 0
M  V30 2680 C 251.503 4.66169 -2.30179 0
M  V30 2681 C 249.188 4.75578 -1.61649 0
M  V30 2682 C 251.182 5.34676 -3.46988 0
M  V30 2683 C 248.869 5.43824 -2.78745 0
M  V30 2684 C 249.867 5.73299 -3.71238 0
M  V30 2685 O 249.555 6.40142 -4.86285 0
M  V30 2686 H 249.287 0.668344 -0.101454 0
M  V30 2687 H 251.841 1.82974 -0.933248 0
M  V30 2688 H 250.071 3.80566 0.686031 0
M  V30 2689 H 251.76 4.04457 0.341973 0
M  V30 2690 H 252.526 4.36156 -2.12115 0
M  V30 2691 H 248.405 4.52025 -0.905243 0
M  V30 2692 H 251.949 5.57599 -4.19201 0
M  V30 2693 H 247.846 5.73254 -2.96732 0
M  V30 2694 H 248.614 6.58636 -4.85944 0
M  V30 2695 N 251.277 0.427512 1.51691 0
M  V30 2696 C 252.225 -0.403359 2.29076 0
M  V30 2697 C 253.219 -1.02962 1.34518 0
M  V30 2698 O 254.425 -0.965715 1.51901 0
M  V30 2699 H 250.8 -0.148879 0.737115 0
M  V30 2700 H 252.771 0.270295 2.97173 0
M  V30 2701 C 251.52 -1.49763 3.13794 0
M  V30 2702 H 250.843 -1.02508 3.86435 0
M  V30 2703 H 252.283 -2.05244 3.71014 0
M  V30 2704 C 250.742 -2.47536 2.28533 0
M  V30 2705 O 251.272 -3.51848 1.93819 0
M  V30 2706 N 249.478 -2.18187 1.91945 0
M  V30 2707 H 249.025 -1.33389 2.20375 0
M  V30 2708 H 248.983 -2.83848 1.35195 0
M  V30 2709 N 252.755 -1.56801 0.158532 0
M  V30 2710 C 254.166 -1.83189 -0.360366 0
M  V30 2711 C 254.517 -1.07778 -1.63946 0
M  V30 2712 O 253.642 -0.326718 -2.13919 0
M  V30 2713 C 254.237 -3.32297 -0.660595 0
M  V30 2714 C 252.796 -3.59227 -1.12398 0
M  V30 2715 C 251.943 -2.76877 -0.153097 0
M  V30 2716 H 254.894 -1.54008 0.383031 0
M  V30 2717 H 254.915 -3.4908 -1.51405 0
M  V30 2718 H 254.427 -3.87156 0.270527 0
M  V30 2719 H 252.528 -3.09766 -2.07064 0
M  V30 2720 H 252.641 -4.67632 -1.04197 0
M  V30 2721 H 251.005 -2.46319 -0.647983 0
M  V30 2722 H 251.788 -3.34511 0.77182 0
M  V30 2723 N 254.233 0.115231 -1.57178 0
M  V30 2724 C 255.481 0.820727 -1.84685 0
M  V30 2725 C 255.802 1.80237 -0.744279 0
M  V30 2726 O 255.072 1.94529 0.231375 0
M  V30 2727 H 253.652 0.306084 -0.681411 0
M  V30 2728 H 256.314 0.101656 -1.94635 0
M  V30 2729 H 255.41 1.36366 -2.80733 0
M  V30 2730 N 255.711 1.52812 0.385517 0
M  V30 2731 C 256.661 1.74219 1.47078 0
M  V30 2732 C 257.645 0.59632 1.49442 0
M  V30 2733 O 258.837 0.85428 1.5502 0
M  V30 2734 C 255.966 1.9176 2.84751 0
M  V30 2735 C 255.052 3.12289 2.86943 0
M  V30 2736 N 255.443 4.34575 2.58802 0
M  V30 2737 C 253.741 3.12605 3.1811 0
M  V30 2738 C 254.442 5.162 2.68166 0
M  V30 2739 N 253.418 4.51964 3.02043 0
M  V30 2740 H 257.22 2.6639 1.24152 0
M  V30 2741 H 254.734 1.51166 0.593504 0
M  V30 2742 H 256.731 2.05218 3.62893 0
M  V30 2743 H 255.391 1.00805 3.08656 0
M  V30 2744 H 256.402 4.62649 2.32759 0
M  V30 2745 H 253.079 2.31472 3.47458 0
M  V30 2746 H 254.469 6.23689 2.49923 0
M  V30 2747 N 257.189 -0.644168 1.43834 0
M  V30 2748 C 258.122 -1.76906 1.44151 0
M  V30 2749 C 259.1 -1.59774 0.301857 0
M  V30 2750 O 260.284 -1.81834 0.496841 0
M  V30 2751 C 257.411 -3.14321 1.26174 0
M  V30 2752 C 256.457 -3.50134 2.43533 0
M  V30 2753 S 257.29 -3.49085 4.06079 0
M  V30 2754 C 258.446 -4.89142 3.90501 0
M  V30 2755 H 258.679 -1.76368 2.39336 0
M  V30 2756 H 256.212 -0.817624 1.30974 0
M  V30 2757 H 258.17 -3.93625 1.16489 0
M  V30 2758 H 256.831 -3.12412 0.325224 0
M  V30 2759 H 256.024 -4.50095 2.26783 0
M  V30 2760 H 255.626 -2.78264 2.4989 0
M  V30 2761 H 257.918 -5.78036 3.53385 0
M  V30 2762 H 258.861 -5.10945 4.90246 0
M  V30 2763 H 259.269 -4.63102 3.22795 0
M  V30 2764 N 258.668 -1.30515 -0.883378 0
M  V30 2765 C 259.893 -1.22487 -1.67367 0
M  V30 2766 C 260.318 0.208767 -1.86938 0
M  V30 2767 O 259.676 1.15015 -1.40148 0
M  V30 2768 C 259.724 -1.96041 -3.02655 0
M  V30 2769 O 258.828 -1.28859 -3.91751 0
M  V30 2770 H 258.169 -0.423573 -0.511353 0
M  V30 2771 H 260.699 -1.72362 -1.10239 0
M  V30 2772 H 260.709 -2.05124 -3.52687 0
M  V30 2773 H 259.384 -3.00307 -2.8773 0
M  V30 2774 H 257.961 -1.28141 -3.50192 0
M  V30 2775 N 260.146 1.09593 -1.13257 0
M  V30 2776 C 261.371 1.8604 -0.916732 0
M  V30 2777 C 261.796 1.80504 0.529146 0
M  V30 2778 O 261.154 1.18127 1.37534 0
M  V30 2779 C 261.202 3.32017 -1.40703 0
M  V30 2780 O 260.306 4.08141 -0.591153 0
M  V30 2781 H 259.647 0.576943 -0.328683 0
M  V30 2782 H 262.177 1.38405 -1.50682 0
M  V30 2783 H 262.187 3.82865 -1.4099 0
M  V30 2784 H 260.862 3.35361 -2.45979 0
M  V30 2785 H 259.439 3.67084 -0.656005 0
M  V30 2786 N 261.624 0.925811 1.2754 0
M  V30 2787 C 262.87 0.566092 1.94739 0
M  V30 2788 C 263.203 -0.890057 1.72603 0
M  V30 2789 O 262.478 -1.63467 1.05399 0
M  V30 2790 C 262.761 0.89054 3.48915 0
M  V30 2791 C 262.614 2.4003 3.80402 0
M  V30 2792 C 263.933 0.395101 4.38323 0
M  V30 2793 H 261.052 0.20714 0.707292 0
M  V30 2794 H 263.694 1.15725 1.50691 0
M  V30 2795 H 261.844 0.387452 3.86563 0
M  V30 2796 H 263.516 2.97494 3.52555 0
M  V30 2797 H 261.759 2.85028 3.2702 0
M  V30 2798 H 262.43 2.57785 4.8811 0
M  V30 2799 H 264.906 0.826241 4.07814 0
M  V30 2800 H 263.782 0.651086 5.45025 0
M  V30 2801 H 264.043 -0.704798 4.36446 0
M  V30 2802 N 263.102 -1.41638 0.69111 0
M  V30 2803 C 264.327 -2.06148 0.227583 0
M  V30 2804 C 264.752 -1.51652 -1.11281 0
M  V30 2805 O 264.11 -0.64164 -1.69566 0
M  V30 2806 C 264.158 -3.60095 0.190858 0
M  V30 2807 O 263.262 -4.03845 -0.835664 0
M  V30 2808 H 262.603 -0.654434 0.112306 0
M  V30 2809 H 265.133 -1.81484 0.944714 0
M  V30 2810 H 265.143 -4.07995 0.020207 0
M  V30 2811 H 263.818 -3.99129 1.16915 0
M  V30 2812 H 262.395 -3.67458 -0.63473 0
M  V30 2813 N 264.58 -0.43555 -1.51462 0
M  V30 2814 C 265.827 0.131514 -2.02072 0
M  V30 2815 C 266.155 1.42868 -1.31981 0
M  V30 2816 O 265.41 1.91076 -0.422883 0
M  V30 2817 C 265.709 0.39942 -3.55161 0
M  V30 2818 C 265.375 -0.81172 -4.43533 0
M  V30 2819 C 264.037 -1.14387 -4.67407 0
M  V30 2820 C 266.389 -1.61976 -4.95392 0
M  V30 2821 C 263.717 -2.28477 -5.40384 0
M  V30 2822 C 266.069 -2.75164 -5.6962 0
M  V30 2823 C 264.733 -3.08835 -5.91758 0
M  V30 2824 H 264.003 0.0481244 -0.739436 0
M  V30 2825 H 266.65 -0.58238 -1.8243 0
M  V30 2826 H 264.955 1.19519 -3.73125 0
M  V30 2827 H 266.652 0.85157 -3.91854 0
M  V30 2828 H 263.242 -0.542898 -4.25148 0
M  V30 2829 H 267.426 -1.37637 -4.76833 0
M  V30 2830 H 262.682 -2.5488 -5.55739 0
M  V30 2831 H 266.856 -3.38147 -6.08793 0
M  V30 2832 H 264.483 -3.97353 -6.48086 0
M  V30 2833 N 266.058 1.56714 -0.166846 0
M  V30 2834 C 266.988 2.20754 0.760913 0
M  V30 2835 C 267.969 1.16178 1.24244 0
M  V30 2836 O 269.154 1.44592 1.29641 0
M  V30 2837 C 266.284 2.84478 1.99223 0
M  V30 2838 C 265.238 3.95053 1.64672 0
M  V30 2839 C 264.564 4.45805 2.95232 0
M  V30 2840 C 265.864 5.14865 0.878155 0
M  V30 2841 H 267.558 2.98537 0.22713 0
M  V30 2842 H 265.104 1.43596 0.107805 0
M  V30 2843 H 267.057 3.27951 2.64624 0
M  V30 2844 H 265.781 2.04056 2.55007 0
M  V30 2845 H 264.44 3.52228 1.01641 0
M  V30 2846 H 264.088 3.62181 3.49047 0
M  V30 2847 H 263.788 5.204 2.7287 0
M  V30 2848 H 265.312 4.91962 3.6167 0
M  V30 2849 H 266.726 5.55059 1.43466 0
M  V30 2850 H 265.123 5.95348 0.753738 0
M  V30 2851 H 266.193 4.84735 -0.126377 0
M  V30 2852 N 267.536 -0.106894 1.57237 0
M  V30 2853 C 268.783 -0.812526 1.85484 0
M  V30 2854 C 269.111 -1.79304 0.753687 0
M  V30 2855 O 268.366 -1.94047 -0.253853 0
M  V30 2856 C 268.665 -1.58628 3.20268 0
M  V30 2857 C 268.331 -0.748967 4.44636 0
M  V30 2858 C 266.993 -0.518104 4.78403 0
M  V30 2859 C 269.345 -0.166122 5.20935 0
M  V30 2860 C 266.673 0.305659 5.85903 0
M  V30 2861 C 269.025 0.644899 6.29304 0
M  V30 2862 C 267.689 0.885965 6.61594 0
M  V30 2863 H 266.959 -0.297324 0.678734 0
M  V30 2864 H 269.606 -0.0744332 1.91355 0
M  V30 2865 H 267.911 -2.39562 3.10028 0
M  V30 2866 H 269.608 -2.13643 3.39349 0
M  V30 2867 H 266.198 -0.939006 4.18187 0
M  V30 2868 H 270.382 -0.33167 4.95191 0
M  V30 2869 H 265.638 0.501528 6.0934 0
M  V30 2870 H 269.812 1.10345 6.87602 0
M  V30 2871 H 267.439 1.52609 7.44725 0
M  V30 2872 N 269.014 -1.53014 -0.377408 0
M  V30 2873 C 270.26 -1.68872 -1.12294 0
M  V30 2874 C 270.593 -0.433224 -1.89306 0
M  V30 2875 O 269.868 0.569258 -1.85983 0
M  V30 2876 C 270.151 -2.93115 -2.09179 0
M  V30 2877 C 270.004 -4.28794 -1.35853 0
M  V30 2878 C 271.323 -3.12928 -3.09458 0
M  V30 2879 H 268.442 -0.614518 -0.406862 0
M  V30 2880 H 271.084 -1.85633 -0.40503 0
M  V30 2881 H 269.234 -2.78956 -2.70399 0
M  V30 2882 H 270.906 -4.54742 -0.775082 0
M  V30 2883 H 269.149 -4.28744 -0.660364 0
M  V30 2884 H 269.82 -5.11837 -2.06706 0
M  V30 2885 H 272.296 -3.26194 -2.58334 0
M  V30 2886 H 271.172 -4.01316 -3.74482 0
M  V30 2887 H 271.433 -2.27669 -3.78971 0
M  V30 2888 N 270.492 0.636531 -1.44174 0
M  V30 2889 C 271.44 1.76995 -1.50915 0
M  V30 2890 C 272.434 1.65053 -0.381295 0
M  V30 2891 O 273.64 1.71197 -0.55601 0
M  V30 2892 H 270.015 0.584247 -0.473455 0
M  V30 2893 H 271.986 1.68432 -2.4632 0
M  V30 2894 C 270.735 3.15314 -1.46534 0
M  V30 2895 H 270.058 3.25149 -2.32633 0
M  V30 2896 H 271.498 3.9453 -1.55312 0
M  V30 2897 C 269.957 3.3639 -0.185305 0
M  V30 2898 O 270.487 3.94699 0.746688 0
M  V30 2899 N 268.693 2.9046 -0.0901606 0
M  V30 2900 H 268.24 2.43193 -0.849416 0
M  V30 2901 H 268.198 3.04937 0.765553 0
M  V30 2902 N 271.97 1.30982 0.876444 0
M  V30 2903 C 272.933 1.18054 1.96459 0
M  V30 2904 C 273.933 0.109399 1.60427 0
M  V30 2905 O 275.123 0.358173 1.70478 0
M  V30 2906 C 272.255 0.810616 3.31122 0
M  V30 2907 H 273.448 2.14735 2.09354 0
M  V30 2908 H 271.001 1.145 1.06392 0
M  V30 2909 H 271.736 -0.155322 3.23928 0
M  V30 2910 H 271.521 1.58481 3.58645 0
M  V30 2911 H 273.011 0.743876 4.10921 0
M  V30 2912 N 273.449 -1.08991 1.13837 0
M  V30 2913 C 274.382 -2.15049 0.763477 0
M  V30 2914 C 275.36 -1.60629 -0.252398 0
M  V30 2915 O 276.544 -1.87958 -0.142853 0
M  V30 2916 C 273.671 -3.38441 0.132545 0
M  V30 2917 C 272.717 -4.11596 1.11763 0
M  V30 2918 S 273.55 -4.6521 2.65216 0
M  V30 2919 C 274.706 -5.91896 2.03495 0
M  V30 2920 H 274.939 -2.46518 1.66182 0
M  V30 2921 H 272.472 -1.21008 0.958976 0
M  V30 2922 H 274.43 -4.09883 -0.225074 0
M  V30 2923 H 273.091 -3.05182 -0.743135 0
M  V30 2924 H 272.284 -5.00121 0.624076 0
M  V30 2925 H 271.886 -3.46038 1.41894 0
M  V30 2926 H 274.178 -6.63156 1.38675 0
M  V30 2927 H 275.121 -6.45938 2.9012 0
M  V30 2928 H 275.529 -5.44625 1.48471 0
M  V30 2929 N 274.927 -0.932562 -1.27047 0
M  V30 2930 C 275.89 -0.440064 -2.24936 0
M  V30 2931 C 276.89 0.444071 -1.54547 0
M  V30 2932 O 278.08 0.244465 -1.72476 0
M  V30 2933 C 275.212 0.36678 -3.38921 0
M  V30 2934 H 276.405 -1.305 -2.70018 0
M  V30 2935 H 273.958 -0.713707 -1.39054 0
M  V30 2936 H 274.693 1.25033 -2.99228 0
M  V30 2937 H 274.478 -0.267204 -3.91188 0
M  V30 2938 H 275.968 0.701567 -4.11665 0
M  V30 2939 N 276.405 1.4127 -0.698611 0
M  V30 2940 C 277.335 2.33447 -0.049629 0
M  V30 2941 C 278.316 1.51982 0.763898 0
M  V30 2942 O 279.501 1.80509 0.716257 0
M  V30 2943 C 276.631 3.35828 0.885267 0
M  V30 2944 C 275.585 4.27627 0.178613 0
M  V30 2945 C 274.911 5.20406 1.22807 0
M  V30 2946 C 276.211 5.13459 -0.956933 0
M  V30 2947 H 277.905 2.87966 -0.81951 0
M  V30 2948 H 275.451 1.38461 -0.395538 0
M  V30 2949 H 277.404 3.9924 1.34854 0
M  V30 2950 H 276.128 2.79666 1.68685 0
M  V30 2951 H 274.787 3.65643 -0.26466 0
M  V30 2952 H 274.435 4.60558 2.02226 0
M  V30 2953 H 274.135 5.82661 0.760239 0
M  V30 2954 H 275.659 5.86695 1.69179 0
M  V30 2955 H 277.073 5.70421 -0.573805 0
M  V30 2956 H 275.47 5.8467 -1.35205 0
M  V30 2957 H 276.54 4.50443 -1.79524 0
M  V30 2958 N 277.883 0.443576 1.51229 0
M  V30 2959 C 279.131 -0.120557 2.0174 0
M  V30 2960 C 279.452 -1.42665 1.32935 0
M  V30 2961 O 278.722 -1.9028 0.465866 0
M  V30 2962 H 277.302 -0.0475426 0.745486 0
M  V30 2963 H 279.964 0.587711 1.85828 0
M  V30 2964 H 279.06 -0.291972 3.10731 0
M  V30 2965 N 279.361 -1.56624 0.175154 0
M  V30 2966 C 280.291 -2.21155 -0.749195 0
M  V30 2967 C 281.272 -1.16836 -1.23626 0
M  V30 2968 O 282.457 -1.45277 -1.28873 0
M  V30 2969 C 279.587 -2.8553 -1.97711 0
M  V30 2970 C 278.541 -3.95921 -1.62575 0
M  V30 2971 C 277.867 -4.47365 -2.92864 0
M  V30 2972 C 279.167 -5.15323 -0.850838 0
M  V30 2973 H 280.861 -2.98653 -0.211295 0
M  V30 2974 H 278.407 -1.43651 -0.100188 0
M  V30 2975 H 280.36 -3.2935 -2.62881 0
M  V30 2976 H 279.084 -2.05406 -2.53921 0
M  V30 2977 H 277.743 -3.52762 -0.997719 0
M  V30 2978 H 277.391 -3.64027 -3.47122 0
M  V30 2979 H 277.091 -5.21839 -2.70106 0
M  V30 2980 H 278.615 -4.93873 -3.59056 0
M  V30 2981 H 280.029 -5.55812 -1.40521 0
M  V30 2982 H 278.426 -5.95739 -0.722154 0
M  V30 2983 H 279.496 -4.84661 0.152082 0
M  V30 2984 N 280.839 0.0985539 -1.57292 0
M  V30 2985 C 281.789 1.1261 -1.9825 0
M  V30 2986 C 282.773 1.35961 -0.860426 0
M  V30 2987 O 283.965 1.36711 -1.12424 0
M  V30 2988 C 281.094 2.44727 -2.40757 0
M  V30 2989 C 280.18 2.24764 -3.59642 0
M  V30 2990 N 280.571 1.74661 -4.74687 0
M  V30 2991 C 278.869 2.55344 -3.65672 0
M  V30 2992 C 279.57 1.68887 -5.56644 0
M  V30 2993 N 278.546 2.13976 -4.99715 0
M  V30 2994 H 282.348 0.731604 -2.84648 0
M  V30 2995 H 279.862 0.306029 -1.59491 0
M  V30 2996 H 281.859 3.19072 -2.68326 0
M  V30 2997 H 280.519 2.84917 -1.55733 0
M  V30 2998 H 281.53 1.43908 -4.97505 0
M  V30 2999 H 278.207 2.99081 -2.91302 0
M  V30 3000 H 279.597 1.3123 -6.5896 0
M  V30 3001 N 282.317 1.53212 0.369288 0
M  V30 3002 C 283.565 1.68881 1.11012 0
M  V30 3003 C 283.886 0.441285 1.89941 0
M  V30 3004 O 283.156 -0.544623 1.88177 0
M  V30 3005 H 281.736 0.622569 0.412816 0
M  V30 3006 H 284.398 1.90391 0.416802 0
M  V30 3007 H 283.494 2.54822 1.80201 0
M  V30 3008 N 283.795 -0.628877 1.44509 0
M  V30 3009 C 285.043 -1.38565 1.4712 0
M  V30 3010 C 285.364 -1.94712 0.105899 0
M  V30 3011 O 284.634 -1.75912 -0.862079 0
M  V30 3012 H 283.214 -0.514333 0.541729 0
M  V30 3013 H 285.876 -0.740018 1.80305 0
M  V30 3014 H 284.972 -2.21583 2.19789 0
M  V30 3015 N 285.273 -1.31445 -0.869486 0
M  V30 3016 C 286.203 -1.21727 -1.99261 0
M  V30 3017 C 287.184 -0.104359 -1.6978 0
M  V30 3018 O 288.369 -0.289038 -1.92037 0
M  V30 3019 C 285.499 -0.924317 -3.34774 0
M  V30 3020 C 284.453 -1.99685 -3.78563 0
M  V30 3021 C 283.779 -1.55658 -5.11541 0
M  V30 3022 C 285.079 -3.41003 -3.95619 0
M  V30 3023 H 286.773 -2.1569 -2.07649 0
M  V30 3024 H 284.319 -1.03839 -0.997675 0
M  V30 3025 H 286.272 -0.842934 -4.12883 0
M  V30 3026 H 284.996 0.0509793 -3.2656 0
M  V30 3027 H 283.655 -2.06813 -3.02694 0
M  V30 3028 H 283.303 -0.569132 -4.9977 0
M  V30 3029 H 283.003 -2.27409 -5.41811 0
M  V30 3030 H 284.527 -1.48928 -5.92159 0
M  V30 3031 H 285.941 -3.36547 -4.64122 0
M  V30 3032 H 284.338 -4.10975 -4.37286 0
M  V30 3033 H 285.408 -3.81754 -2.98985 0
M  V30 3034 N 286.751 1.08385 -1.14413 0
M  V30 3035 C 288 1.80153 -0.907076 0
M  V30 3036 C 288.313 1.87176 0.567851 0
M  V30 3037 O 289.519 2.55359 0.922172 0
M  V30 3038 C 287.975 3.23687 -1.57336 0
M  V30 3039 C 287.583 3.24897 -3.08457 0
M  V30 3040 C 289.327 4.00136 -1.41744 0
M  V30 3041 C 287.234 4.6302 -3.67921 0
M  V30 3042 H 286.164 0.675139 -0.335714 0
M  V30 3043 H 288.815 1.21733 -1.37307 0
M  V30 3044 H 287.197 3.82234 -1.03505 0
M  V30 3045 H 288.371 2.76055 -3.68958 0
M  V30 3046 H 286.686 2.61943 -3.2369 0
M  V30 3047 H 289.283 5.02201 -1.83572 0
M  V30 3048 H 289.626 4.14709 -0.363576 0
M  V30 3049 H 290.159 3.48058 -1.92614 0
M  V30 3050 H 286.898 4.5365 -4.73161 0
M  V30 3051 H 286.418 5.12143 -3.12201 0
M  V30 3052 H 288.097 5.31994 -3.68227 0
M  V30 3053 N 288.23 0.939286 1.26551 0
M  V30 3054 C 289.16 0.465044 2.28822 0
M  V30 3055 C 290.141 -0.480692 1.63167 0
M  V30 3056 O 291.326 -0.382955 1.90387 0
M  V30 3057 C 288.456 -0.27234 3.46231 0
M  V30 3058 C 287.41 0.58666 4.2396 0
M  V30 3059 C 286.736 -0.280573 5.33963 0
M  V30 3060 C 288.036 1.85704 4.88171 0
M  V30 3061 H 289.73 1.31979 2.68741 0
M  V30 3062 H 287.276 0.636061 1.29191 0
M  V30 3063 H 289.229 -0.615133 4.16886 0
M  V30 3064 H 287.953 -1.16121 3.0526 0
M  V30 3065 H 286.612 0.91232 3.55067 0
M  V30 3066 H 286.26 -1.16874 4.89234 0
M  V30 3067 H 285.96 0.29076 5.8688 0
M  V30 3068 H 287.484 -0.618678 6.07458 0
M  V30 3069 H 288.898 1.58161 5.51052 0
M  V30 3070 H 287.295 2.37279 5.51197 0
M  V30 3071 H 288.365 2.56957 4.11219 0
M  V30 3072 N 289.708 -1.40897 0.706093 0
M  V30 3073 C 290.933 -2.05895 0.249435 0
M  V30 3074 C 291.358 -1.52823 -1.09666 0
M  V30 3075 O 290.716 -0.659589 -1.68876 0
M  V30 3076 C 290.764 -3.59872 0.22904 0
M  V30 3077 O 289.868 -4.04708 -0.792784 0
M  V30 3078 H 289.209 -0.653206 0.119241 0
M  V30 3079 H 291.739 -1.80471 0.96391 0
M  V30 3080 H 291.749 -4.07951 0.0634791 0
M  V30 3081 H 290.424 -3.97866 1.21141 0
M  V30 3082 H 289.001 -3.68111 -0.59572 0
M  V30 3083 N 291.186 -0.45159 -1.50991 0
M  V30 3084 C 292.432 0.110237 -2.025 0
M  V30 3085 C 292.765 1.41109 -1.33424 0
M  V30 3086 O 292.04 1.89135 -0.453659 0
M  V30 3087 C 292.323 0.314271 -3.58726 0
M  V30 3088 C 292.176 -1.00623 -4.38401 0
M  V30 3089 C 293.495 1.07767 -4.26702 0
M  V30 3090 H 290.614 0.0385897 -0.735989 0
M  V30 3091 H 293.256 -0.593374 -1.80497 0
M  V30 3092 H 291.406 0.913601 -3.77605 0
M  V30 3093 H 293.078 -1.64064 -4.31139 0
M  V30 3094 H 291.321 -1.6075 -4.02917 0
M  V30 3095 H 291.992 -0.817341 -5.45915 0
M  V30 3096 H 294.468 0.56986 -4.12179 0
M  V30 3097 H 293.344 1.18921 -5.35863 0
M  V30 3098 H 293.605 2.10939 -3.88532 0
M  V30 3099 N 292.664 1.56529 -0.183458 0
M  V30 3100 C 293.627 2.17324 0.728223 0
M  V30 3101 C 294.627 1.12453 1.14939 0
M  V30 3102 O 295.817 1.37902 1.06437 0
M  V30 3103 C 292.949 2.76591 1.99274 0
M  V30 3104 H 294.142 2.99241 0.198772 0
M  V30 3105 H 291.695 1.5616 0.0661391 0
M  V30 3106 H 292.43 1.98441 2.56499 0
M  V30 3107 H 292.215 3.5335 1.69959 0
M  V30 3108 H 293.705 3.23311 2.6431 0
M  V30 3109 N 294.142 -0.090211 1.57342 0
M  V30 3110 C 295.09 -1.12792 2.03422 0
M  V30 3111 C 296.084 -1.41182 0.936166 0
M  V30 3112 O 297.29 -1.40805 1.12133 0
M  V30 3113 H 293.665 -0.380986 0.648347 0
M  V30 3114 H 295.636 -0.71299 2.89757 0
M  V30 3115 C 294.385 -2.43855 2.47851 0
M  V30 3116 H 293.708 -2.22855 3.31927 0
M  V30 3117 H 295.148 -3.14955 2.83865 0
M  V30 3118 C 293.607 -3.08503 1.3538 0
M  V30 3119 O 294.137 -3.95805 0.685641 0
M  V30 3120 N 292.343 -2.68831 1.10355 0
M  V30 3121 H 291.89 -1.97929 1.64869 0
M  V30 3122 H 291.848 -3.12412 0.353031 0
M  V30 3123 N 295.62 -1.53406 -0.361157 0
M  V30 3124 C 297.031 -1.61442 -0.937728 0
M  V30 3125 C 297.382 -0.48461 -1.90121 0
M  V30 3126 O 296.507 0.388312 -2.12888 0
M  V30 3127 C 297.102 -2.92624 -1.70753 0
M  V30 3128 C 295.661 -3.02981 -2.23337 0
M  V30 3129 C 294.808 -2.5677 -1.04712 0
M  V30 3130 H 297.759 -1.58083 -0.139816 0
M  V30 3131 H 297.78 -2.80675 -2.56908 0
M  V30 3132 H 297.292 -3.74834 -1.00604 0
M  V30 3133 H 295.393 -2.25368 -2.96715 0
M  V30 3134 H 295.506 -4.0814 -2.50916 0
M  V30 3135 H 293.87 -2.11752 -1.41539 0
M  V30 3136 H 294.653 -3.41402 -0.360539 0
M  V30 3137 N 297.098 0.621204 -1.44841 0
M  V30 3138 C 298.346 1.37783 -1.47852 0
M  V30 3139 C 298.667 1.94653 -0.116224 0
M  V30 3140 O 297.937 1.76367 0.852737 0
M  V30 3141 H 296.517 0.511453 -0.544449 0
M  V30 3142 H 299.179 0.730446 -1.80694 0
M  V30 3143 H 298.275 2.20414 -2.20961 0
M  V30 3144 N 298.576 1.31904 0.862503 0
M  V30 3145 C 299.853 1.12644 1.59908 0
M  V30 3146 C 300.233 -0.316104 2.0872 0
M  V30 3147 O 299.581 -1.31145 1.87118 0
M  V30 3148 C 299.791 2.1472 2.7513 0
M  V30 3149 C 301.139 2.47637 3.44907 0
M  V30 3150 O 302.163 2.13205 2.85346 0
M  V30 3151 O 301.022 3.06632 4.52371 0
M  V30 3152 H 298.116 0.43416 0.703871 0
M  V30 3153 H 300.662 1.43408 0.907314 0
M  V30 3154 H 299.434 3.1172 2.3653 0
M  V30 3155 H 299.057 1.84905 3.51989 0
M  V30 3156 N 300.054 -1.07777 1.14986 0
M  V30 3157 C 301.302 -1.79934 0.920235 0
M  V30 3158 C 301.623 -1.86955 -0.554336 0
M  V30 3159 O 300.893 -1.36731 -1.40291 0
M  V30 3160 H 299.473 -0.666424 0.337473 0
M  V30 3161 H 302.135 -1.3027 1.44968 0
M  V30 3162 H 301.231 -2.82539 1.32583 0
M  V30 3163 N 301.532 -0.945985 -1.26051 0
M  V30 3164 C 302.809 -0.513816 -1.88731 0
M  V30 3165 C 303.189 1.00872 -1.8544 0
M  V30 3166 O 302.537 1.8708 -1.312 0
M  V30 3167 C 302.747 -1.08062 -3.31849 0
M  V30 3168 C 304.095 -1.1522 -4.08668 0
M  V30 3169 O 305.119 -1.03155 -3.40936 0
M  V30 3170 O 303.978 -1.34044 -5.29806 0
M  V30 3171 H 301.072 -0.168193 -0.809716 0
M  V30 3172 H 303.618 -1.03886 -1.34186 0
M  V30 3173 H 302.39 -2.1241 -3.2863 0
M  V30 3174 H 302.013 -0.538307 -3.93939 0
M  V30 3175 N 303.011 1.40521 -0.713556 0
M  V30 3176 C 303.958 2.30723 -0.059684 0
M  V30 3177 C 304.928 1.48079 0.752448 0
M  V30 3178 O 306.113 1.76823 0.71681 0
M  V30 3179 C 303.253 3.34274 0.857594 0
M  V30 3180 C 302.366 4.31986 0.0351536 0
M  V30 3181 C 301.501 5.22605 0.951724 0
M  V30 3182 C 300.54 6.11976 0.123253 0
M  V30 3183 N 299.677 6.9502 0.99459 0
M  V30 3184 H 304.517 2.86074 -0.834596 0
M  V30 3185 H 302.054 1.40879 -0.42326 0
M  V30 3186 H 304.012 3.92879 1.40364 0
M  V30 3187 H 302.642 2.8043 1.59871 0
M  V30 3188 H 301.694 3.7518 -0.628052 0
M  V30 3189 H 303.006 4.95101 -0.606347 0
M  V30 3190 H 302.16 5.86131 1.56638 0
M  V30 3191 H 300.899 4.59759 1.62705 0
M  V30 3192 H 299.904 5.47482 -0.50435 0
M  V30 3193 H 301.129 6.76881 -0.548539 0
M  V30 3194 H 299.075 6.34764 1.6556 0
M  V30 3195 H 298.992 7.54892 0.40908 0
M  V30 3196 H 300.26 7.62997 1.59549 0
M  V30 3197 N 304.489 0.459591 1.5075 0
M  V30 3198 C 305.735 -0.0994966 2.02556 0
M  V30 3199 C 306.068 -1.40399 1.3417 0
M  V30 3200 O 305.343 -1.88892 0.463683 0
M  V30 3201 C 305.626 -0.295242 3.58888 0
M  V30 3202 C 305.479 1.02947 4.37861 0
M  V30 3203 C 306.798 -1.05502 4.27267 0
M  V30 3204 H 303.917 -0.034686 0.736183 0
M  V30 3205 H 306.559 0.602938 1.8018 0
M  V30 3206 H 304.709 -0.893563 3.78084 0
M  V30 3207 H 306.381 1.66348 4.30263 0
M  V30 3208 H 304.624 1.62885 4.02058 0
M  V30 3209 H 305.295 0.846281 5.45474 0
M  V30 3210 H 307.771 -0.547993 4.12476 0
M  V30 3211 H 306.647 -1.16077 5.36486 0
M  V30 3212 H 306.908 -2.08875 3.89645 0
M  V30 3213 N 305.967 -1.56429 0.191757 0
M  V30 3214 C 306.914 -2.18936 -0.730454 0
M  V30 3215 C 307.884 -1.13557 -1.21219 0
M  V30 3216 O 309.069 -1.41794 -1.27668 0
M  V30 3217 C 306.209 -2.85013 -1.9458 0
M  V30 3218 C 305.322 -4.04909 -1.50574 0
M  V30 3219 C 304.457 -4.58853 -2.67634 0
M  V30 3220 C 303.496 -5.71114 -2.20217 0
M  V30 3221 N 302.633 -6.19478 -3.30442 0
M  V30 3222 H 307.473 -2.97389 -0.190664 0
M  V30 3223 H 305.01 -1.46869 -0.0823694 0
M  V30 3224 H 306.968 -3.21492 -2.65893 0
M  V30 3225 H 305.598 -2.09129 -2.45896 0
M  V30 3226 H 304.65 -3.74115 -0.688605 0
M  V30 3227 H 305.962 -4.86113 -1.11784 0
M  V30 3228 H 305.116 -4.97619 -3.47074 0
M  V30 3229 H 303.855 -3.76749 -3.09696 0
M  V30 3230 H 302.86 -5.31879 -1.3923 0
M  V30 3231 H 304.085 -6.55033 -1.79189 0
M  V30 3232 H 302.031 -5.40297 -3.72041 0
M  V30 3233 H 301.948 -6.95725 -2.9581 0
M  V30 3234 H 303.216 -6.62898 -4.10106 0
M  V30 3235 N 307.445 0.0818655 -1.57387 0
M  V30 3236 C 308.673 0.796108 -1.9097 0
M  V30 3237 C 309.088 1.71626 -0.786757 0
M  V30 3238 O 308.445 1.80908 0.240513 0
M  V30 3239 C 308.496 1.59829 -3.24248 0
M  V30 3240 O 308.217 0.715131 -4.32224 0
M  V30 3241 C 309.718 2.41442 -3.7178 0
M  V30 3242 H 306.938 0.22691 -0.631469 0
M  V30 3243 H 309.482 0.0551439 -2.04426 0
M  V30 3244 H 307.637 2.29163 -3.12351 0
M  V30 3245 H 308.051 1.27205 -5.08841 0
M  V30 3246 H 309.525 2.932 -4.67694 0
M  V30 3247 H 310.002 3.2051 -3.00283 0
M  V30 3248 H 310.608 1.77283 -3.86589 0
M  V30 3249 N 308.923 1.53595 0.353017 0
M  V30 3250 C 309.886 1.80232 1.41594 0
M  V30 3251 C 310.886 0.673081 1.46035 0
M  V30 3252 O 312.076 0.941335 1.46576 0
M  V30 3253 C 309.208 1.93578 2.80607 0
M  V30 3254 H 310.401 2.75174 1.19244 0
M  V30 3255 H 307.954 1.44864 0.586872 0
M  V30 3256 H 308.689 1.00746 3.08254 0
M  V30 3257 H 308.474 2.75724 2.78781 0
M  V30 3258 H 309.964 2.15735 3.57558 0
M  V30 3259 N 310.401 -0.613514 1.45168 0
M  V30 3260 C 311.311 -1.75296 1.55912 0
M  V30 3261 C 312.327 -1.68244 0.443856 0
M  V30 3262 O 313.503 -1.88706 0.70371 0
M  V30 3263 C 310.568 -3.1174 1.5172 0
M  V30 3264 C 309.629 -3.30291 2.74238 0
M  V30 3265 C 308.862 -4.60226 2.70236 0
M  V30 3266 O 309.085 -5.42168 1.77229 0
M  V30 3267 O 308.019 -4.81361 3.61352 0
M  V30 3268 H 311.845 -1.69183 2.52212 0
M  V30 3269 H 309.43 -0.776886 1.27612 0
M  V30 3270 H 311.312 -3.93044 1.51968 0
M  V30 3271 H 309.987 -3.18357 0.585697 0
M  V30 3272 H 308.894 -2.48598 2.79553 0
M  V30 3273 H 310.227 -3.28547 3.66494 0
M  V30 3274 N 311.879 -1.3236 -0.855495 0
M  V30 3275 C 312.829 -1.17809 -1.95205 0
M  V30 3276 C 313.813 -0.0852319 -1.60674 0
M  V30 3277 O 315.005 -0.311651 -1.74235 0
M  V30 3278 C 312.134 -0.902437 -3.31226 0
M  V30 3279 C 311.22 -2.03695 -3.7198 0
M  V30 3280 N 311.611 -3.28544 -3.84568 0
M  V30 3281 C 309.909 -1.93993 -4.016 0
M  V30 3282 C 310.61 -4.02847 -4.19629 0
M  V30 3283 N 309.586 -3.31138 -4.31102 0
M  V30 3284 H 313.388 -2.12462 -2.0307 0
M  V30 3285 H 310.902 -1.24127 -1.0472 0
M  V30 3286 H 312.899 -0.77915 -4.09554 0
M  V30 3287 H 311.559 0.0357267 -3.2468 0
M  V30 3288 H 312.57 -3.6349 -3.68911 0
M  V30 3289 H 309.247 -1.07733 -4.03361 0
M  V30 3290 H 310.637 -5.10506 -4.36845 0
M  V30 3291 N 313.357 1.07166 -1.15556 0
M  V30 3292 C 314.267 2.17947 -0.868116 0
M  V30 3293 C 315.283 1.73297 0.156297 0
M  V30 3294 O 316.459 2.01392 -0.0182327 0
M  V30 3295 C 313.524 3.44789 -0.36355 0
M  V30 3296 C 312.585 4.03996 -1.45209 0
M  V30 3297 C 311.818 5.24783 -0.971508 0
M  V30 3298 O 312.041 5.70109 0.182194 0
M  V30 3299 O 310.975 5.75715 -1.75603 0
M  V30 3300 H 314.801 2.4503 -1.79427 0
M  V30 3301 H 312.386 1.16539 -0.934824 0
M  V30 3302 H 314.268 4.21307 -0.0887113 0
M  V30 3303 H 312.943 3.19253 0.534708 0
M  V30 3304 H 311.85 3.29009 -1.78056 0
M  V30 3305 H 313.183 4.33808 -2.32533 0
M  V30 3306 N 314.835 0.952656 1.25548 0
M  V30 3307 C 315.783 0.462354 2.27958 0
M  V30 3308 C 316.777 -0.46634 1.62855 0
M  V30 3309 O 317.983 -0.343287 1.76696 0
M  V30 3310 H 314.358 0.13101 0.7405 0
M  V30 3311 H 316.329 1.33839 2.66702 0
M  V30 3312 C 315.078 -0.24628 3.46827 0
M  V30 3313 H 314.401 0.459192 3.97154 0
M  V30 3314 H 315.841 -0.553393 4.20373 0
M  V30 3315 C 314.3 -1.4681 3.0323 0
M  V30 3316 O 314.83 -2.56591 3.09069 0
M  V30 3317 N 313.036 -1.32874 2.58443 0
M  V30 3318 H 312.583 -0.435536 2.53891 0
M  V30 3319 H 312.541 -2.14742 2.29637 0
M  V30 3320 N 316.313 -1.40141 0.720998 0
M  V30 3321 C 317.245 -2.29177 0.0324669 0
M  V30 3322 C 318.258 -1.46105 -0.718126 0
M  V30 3323 O 319.447 -1.69335 -0.564608 0
M  V30 3324 C 316.547 -3.24473 -0.978292 0
M  V30 3325 C 315.72 -4.36423 -0.292115 0
M  V30 3326 C 314.779 -5.12122 -1.20901 0
M  V30 3327 O 313.805 -5.64981 -0.691766 0
M  V30 3328 N 315.007 -5.21992 -2.53978 0
M  V30 3329 H 317.772 -2.88909 0.796984 0
M  V30 3330 H 315.333 -1.51569 0.569068 0
M  V30 3331 H 317.325 -3.71987 -1.59398 0
M  V30 3332 H 315.895 -2.65871 -1.64413 0
M  V30 3333 H 315.115 -3.90967 0.503847 0
M  V30 3334 H 316.403 -5.08467 0.183971 0
M  V30 3335 H 315.801 -4.8054 -2.98493 0
M  V30 3336 H 314.358 -5.72995 -3.10677 0
M  V30 3337 N 317.792 -0.46758 -1.50504 0
M  V30 3338 C 319.022 0.086288 -2.0642 0
M  V30 3339 C 319.43 1.34369 -1.33197 0
M  V30 3340 O 318.773 1.79431 -0.393747 0
M  V30 3341 C 318.835 0.443846 -3.5675 0
M  V30 3342 C 318.499 -0.711035 -4.51435 0
M  V30 3343 C 319.496 -1.59205 -4.94924 0
M  V30 3344 C 317.181 -0.900363 -4.94165 0
M  V30 3345 C 319.175 -2.64683 -5.79846 0
M  V30 3346 C 316.862 -1.95837 -5.7887 0
M  V30 3347 C 317.86 -2.82997 -6.21612 0
M  V30 3348 O 317.548 -3.86977 -7.0463 0
M  V30 3349 H 317.28 -0.00217814 -0.675996 0
M  V30 3350 H 319.834 -0.654346 -1.94698 0
M  V30 3351 H 318.064 1.23762 -3.6636 0
M  V30 3352 H 319.753 0.932386 -3.95046 0
M  V30 3353 H 320.519 -1.45745 -4.62583 0
M  V30 3354 H 316.398 -0.231427 -4.60419 0
M  V30 3355 H 319.942 -3.32745 -6.13128 0
M  V30 3356 H 315.839 -2.09305 -6.10624 0
M  V30 3357 H 316.607 -3.83923 -7.22873 0
M  V30 3358 N 319.27 1.56325 -0.20005 0
M  V30 3359 C 320.517 1.97719 0.437411 0
M  V30 3360 C 320.845 1.08709 1.61284 0
M  V30 3361 O 320.1 0.127261 1.95286 0
M  V30 3362 C 320.399 3.4495 0.935103 0
M  V30 3363 C 320.065 4.5072 -0.12749 0
M  V30 3364 C 318.727 4.79368 -0.419451 0
M  V30 3365 C 321.079 5.14268 -0.847231 0
M  V30 3366 C 318.407 5.68854 -1.43604 0
M  V30 3367 C 320.759 6.04852 -1.85301 0
M  V30 3368 C 319.423 6.31855 -2.15211 0
M  V30 3369 H 318.693 0.723507 0.16006 0
M  V30 3370 H 321.34 1.89166 -0.298056 0
M  V30 3371 H 319.645 3.50599 1.74894 0
M  V30 3372 H 321.342 3.74337 1.43781 0
M  V30 3373 H 317.932 4.28458 0.11023 0
M  V30 3374 H 322.116 4.92222 -0.634901 0
M  V30 3375 H 317.372 5.88047 -1.67364 0
M  V30 3376 H 321.546 6.53152 -2.41591 0
M  V30 3377 H 319.173 7.00994 -2.94129 0
M  V30 3378 N 320.748 -0.0735177 1.57428 0
M  V30 3379 C 322.164 -0.428264 1.53747 0
M  V30 3380 C 322.364 -1.79272 0.91998 0
M  V30 3381 O 321.42 -2.47051 0.521745 0
M  V30 3382 C 322.733 -0.370914 2.98404 0
M  V30 3383 C 324.281 -0.451224 3.0973 0
M  V30 3384 C 324.756 -0.4238 4.56035 0
M  V30 3385 N 326.247 -0.483925 4.60665 0
M  V30 3386 C 326.982 -0.484891 5.71346 0
M  V30 3387 N 326.478 -0.440775 6.91396 0
M  V30 3388 N 328.271 -0.531319 5.59583 0
M  V30 3389 H 320.422 0.819949 1.95935 0
M  V30 3390 H 322.685 0.307493 0.896745 0
M  V30 3391 H 322.391 0.564956 3.47133 0
M  V30 3392 H 322.265 -1.18176 3.5821 0
M  V30 3393 H 324.652 -1.37752 2.60976 0
M  V30 3394 H 324.733 0.388167 2.52838 0
M  V30 3395 H 324.377 0.498638 5.05446 0
M  V30 3396 H 324.307 -1.2807 5.10789 0
M  V30 3397 H 326.798 -0.522338 3.74273 0
M  V30 3398 H 327.111 -0.44539 7.71515 0
M  V30 3399 H 325.456 -0.40749 6.93804 0
M  V30 3400 H 328.647 -0.563464 4.64696 0
M  V30 3401 H 328.82 -0.528603 6.4584 0
M  V30 3402 N 322.226 -1.5378 -0.344866 0
M  V30 3403 C 323.503 -1.61589 -1.10219 0
M  V30 3404 C 323.883 -0.436316 -2.06542 0
M  V30 3405 O 323.231 0.571543 -2.21237 0
M  V30 3406 C 323.441 -2.97602 -1.82301 0
M  V30 3407 C 324.789 -3.5291 -2.36093 0
M  V30 3408 O 325.813 -2.99768 -1.924 0
M  V30 3409 O 324.672 -4.45859 -3.16026 0
M  V30 3410 H 321.766 -0.653522 -0.506792 0
M  V30 3411 H 324.312 -1.66126 -0.346465 0
M  V30 3412 H 323.084 -3.74893 -1.12121 0
M  V30 3413 H 322.707 -2.9665 -2.64735 0
M  V30 3414 N 323.704 0.605807 -1.45491 0
M  V30 3415 C 324.95 1.36679 -1.49823 0
M  V30 3416 C 325.283 1.93693 -0.140175 0
M  V30 3417 O 324.558 1.75158 0.845581 0
M  V30 3418 C 324.841 2.51337 -2.57879 0
M  V30 3419 C 324.694 1.99508 -4.03134 0
M  V30 3420 C 326.013 3.53463 -2.62205 0
M  V30 3421 H 323.132 0.495617 -0.545466 0
M  V30 3422 H 325.774 0.682732 -1.7731 0
M  V30 3423 H 323.924 3.09691 -2.34571 0
M  V30 3424 H 325.596 1.45789 -4.37656 0
M  V30 3425 H 323.839 1.30496 -4.13707 0
M  V30 3426 H 324.51 2.82169 -4.74431 0
M  V30 3427 H 326.986 3.04953 -2.83095 0
M  V30 3428 H 325.862 4.31178 -3.39672 0
M  V30 3429 H 326.123 4.09197 -1.67363 0
M  V30 3430 N 325.182 1.32811 0.848464 0
M  V30 3431 C 326.428 1.23907 1.60546 0
M  V30 3432 C 326.761 -0.197161 1.93197 0
M  V30 3433 O 326.036 -1.13596 1.5788 0
M  V30 3434 C 326.319 2.10489 2.92175 0
M  V30 3435 C 326.172 3.62522 2.66266 0
M  V30 3436 C 327.491 1.97075 3.93509 0
M  V30 3437 H 324.61 0.451459 0.58254 0
M  V30 3438 H 327.252 1.62818 0.979296 0
M  V30 3439 H 325.402 1.77434 3.45614 0
M  V30 3440 H 327.074 4.05821 2.19334 0
M  V30 3441 H 325.317 3.84879 2.00126 0
M  V30 3442 H 325.988 4.18437 3.6002 0
M  V30 3443 H 328.464 2.26045 3.49346 0
M  V30 3444 H 327.34 2.59923 4.83457 0
M  V30 3445 H 327.601 0.940186 4.31987 0
M  V30 3446 N 326.66 -1.06551 1.16123 0
M  V30 3447 C 327.908 -1.78947 0.939267 0
M  V30 3448 C 328.229 -1.87532 -0.534476 0
M  V30 3449 O 327.499 -1.38211 -1.38833 0
M  V30 3450 H 326.079 -0.662807 0.344523 0
M  V30 3451 H 328.741 -1.28725 1.46342 0
M  V30 3452 H 327.837 -2.81117 1.35572 0
M  V30 3453 N 328.138 -0.959301 -1.25041 0
M  V30 3454 C 329.368 -0.63303 -1.96663 0
M  V30 3455 C 329.776 0.800031 -1.71453 0
M  V30 3456 O 329.119 1.54736 -0.99008 0
M  V30 3457 C 329.181 -0.817523 -3.50081 0
M  V30 3458 C 328.845 -2.22863 -3.98975 0
M  V30 3459 C 329.842 -3.20569 -4.09306 0
M  V30 3460 C 327.527 -2.55407 -4.32519 0
M  V30 3461 C 329.521 -4.4891 -4.52503 0
M  V30 3462 C 327.208 -3.83976 -4.754 0
M  V30 3463 C 328.206 -4.8054 -4.85356 0
M  V30 3464 O 327.894 -6.06817 -5.27284 0
M  V30 3465 H 327.626 -0.235866 -0.633516 0
M  V30 3466 H 330.18 -1.2874 -1.60047 0
M  V30 3467 H 328.41 -0.105992 -3.86555 0
M  V30 3468 H 330.099 -0.491604 -4.02912 0
M  V30 3469 H 330.865 -2.96753 -3.83618 0
M  V30 3470 H 326.744 -1.8097 -4.23994 0
M  V30 3471 H 330.288 -5.24283 -4.60188 0
M  V30 3472 H 326.185 -4.07596 -5.00535 0
M  V30 3473 H 326.953 -6.10262 -5.45457 0
M  V30 3474 N 329.616 1.39756 -0.72842 0
M  V30 3475 C 330.841 2.05472 -0.282159 0
M  V30 3476 C 331.266 1.54549 1.07221 0
M  V30 3477 O 330.624 0.686372 1.67805 0
M  V30 3478 C 330.672 3.59462 -0.286264 0
M  V30 3479 O 329.776 4.05918 0.728298 0
M  V30 3480 H 329.117 0.651226 -0.129618 0
M  V30 3481 H 331.647 1.78915 -0.992499 0
M  V30 3482 H 331.657 4.07798 -0.128373 0
M  V30 3483 H 330.332 3.95889 -1.27456 0
M  V30 3484 H 328.909 3.69012 0.537081 0
M  V30 3485 N 331.094 0.475555 1.50254 0
M  V30 3486 C 332.343 -0.0795996 2.01543 0
M  V30 3487 C 332.656 -1.4038 1.36209 0
M  V30 3488 O 333.862 -2.04415 1.7868 0
M  V30 3489 C 332.318 -0.192363 3.59386 0
M  V30 3490 C 331.926 1.12367 4.33679 0
M  V30 3491 C 333.67 -0.699238 4.18701 0
M  V30 3492 C 331.577 0.974453 5.83317 0
M  V30 3493 H 330.507 -0.0335228 0.753254 0
M  V30 3494 H 333.158 0.611128 1.73025 0
M  V30 3495 H 331.54 -0.946974 3.84511 0
M  V30 3496 H 332.714 1.88958 4.20276 0
M  V30 3497 H 331.029 1.562 3.85993 0
M  V30 3498 H 333.626 -0.827978 5.28251 0
M  V30 3499 H 333.969 -1.69171 3.80377 0
M  V30 3500 H 334.502 -0.00188807 3.978 0
M  V30 3501 H 331.241 1.94042 6.26121 0
M  V30 3502 H 330.761 0.248998 5.99283 0
M  V30 3503 H 332.44 0.642867 6.43798 0
M  V30 3504 N 332.573 -1.56217 0.208337 0
M  V30 3505 C 333.821 -1.97558 -0.426076 0
M  V30 3506 C 334.142 -1.09683 -1.61229 0
M  V30 3507 O 333.412 -0.170956 -1.95153 0
M  V30 3508 H 331.992 -0.729575 -0.160405 0
M  V30 3509 H 334.654 -1.92606 0.298155 0
M  V30 3510 H 333.75 -3.02672 -0.761312 0
M  V30 3511 N 334.051 0.0651679 -1.57465 0
M  V30 3512 C 335.014 1.06117 -2.03155 0
M  V30 3513 C 336.014 1.31204 -0.929632 0
M  V30 3514 O 337.204 1.26813 -1.19432 0
M  V30 3515 C 334.336 2.4032 -2.41783 0
M  V30 3516 H 335.529 0.667231 -2.92383 0
M  V30 3517 H 333.082 0.311075 -1.53173 0
M  V30 3518 H 333.817 2.84532 -1.55601 0
M  V30 3519 H 333.602 2.23451 -3.22199 0
M  V30 3520 H 335.092 3.11898 -2.77685 0
M  V30 3521 N 335.529 1.53961 0.336706 0
M  V30 3522 C 336.459 1.85417 1.41925 0
M  V30 3523 C 337.44 0.709856 1.5458 0
M  V30 3524 O 338.625 0.962396 1.68676 0
M  V30 3525 C 335.755 2.06985 2.78881 0
M  V30 3526 C 334.709 3.22813 2.81026 0
M  V30 3527 C 334.035 3.29727 4.20932 0
M  V30 3528 C 335.335 4.60767 2.45949 0
M  V30 3529 H 337.029 2.76079 1.15848 0
M  V30 3530 H 334.575 1.32839 0.555859 0
M  V30 3531 H 336.528 2.27575 3.54665 0
M  V30 3532 H 335.252 1.13061 3.06406 0
M  V30 3533 H 333.911 3.0209 2.07695 0
M  V30 3534 H 333.559 2.33385 4.45579 0
M  V30 3535 H 333.259 4.07566 4.23277 0
M  V30 3536 H 334.783 3.52536 4.98549 0
M  V30 3537 H 336.197 4.81325 3.11446 0
M  V30 3538 H 334.594 5.4106 2.59566 0
M  V30 3539 H 335.664 4.6391 1.41122 0
M  V30 3540 N 337.007 -0.598083 1.45811 0
M  V30 3541 C 338.232 -1.3881 1.54099 0
M  V30 3542 C 338.657 -1.8726 0.177578 0
M  V30 3543 O 338.015 -1.6069 -0.839541 0
M  V30 3544 C 338.063 -2.56217 2.53743 0
M  V30 3545 O 337.167 -3.5716 2.06182 0
M  V30 3546 H 336.508 -0.414024 0.519115 0
M  V30 3547 H 339.038 -0.726971 1.91249 0
M  V30 3548 H 339.048 -3.03337 2.72856 0
M  V30 3549 H 337.723 -2.20303 3.5276 0
M  V30 3550 H 336.3 -3.16624 1.96987 0
M  V30 3551 N 338.485 -1.33259 -0.841409 0
M  V30 3552 C 339.734 -1.23921 -1.59143 0
M  V30 3553 C 340.047 0.1941 -1.94635 0
M  V30 3554 O 341.253 0.409474 -2.68394 0
M  V30 3555 C 339.709 -2.17119 -2.87032 0
M  V30 3556 C 339.317 -3.65606 -2.58914 0
M  V30 3557 C 341.061 -2.16648 -3.65053 0
M  V30 3558 C 338.968 -4.50726 -3.82884 0
M  V30 3559 H 337.898 -0.460264 -0.597221 0
M  V30 3560 H 340.549 -1.58307 -0.927959 0
M  V30 3561 H 338.931 -1.75663 -3.54906 0
M  V30 3562 H 340.105 -4.15487 -1.99267 0
M  V30 3563 H 338.42 -3.68341 -1.942 0
M  V30 3564 H 341.017 -2.77474 -4.57069 0
M  V30 3565 H 341.36 -1.16088 -3.99787 0
M  V30 3566 H 341.893 -2.56453 -3.041 0
M  V30 3567 H 338.632 -5.52151 -3.53283 0
M  V30 3568 H 338.152 -4.0559 -4.41879 0
M  V30 3569 H 339.831 -4.64401 -4.50489 0
M  V30 3570 N 339.963 1.05934 -1.16686 0
M  V30 3571 C 340.913 2.11764 -0.844978 0
M  V30 3572 C 341.897 1.59922 0.177178 0
M  V30 3573 O 343.089 1.76983 -0.0241768 0
M  V30 3574 C 340.218 3.41493 -0.351812 0
M  V30 3575 C 339.304 4.00152 -1.40496 0
M  V30 3576 N 339.695 4.32874 -2.61636 0
M  V30 3577 C 337.993 4.278 -1.26106 0
M  V30 3578 C 338.694 4.79552 -3.29249 0
M  V30 3579 N 337.67 4.79211 -2.56628 0
M  V30 3580 H 341.472 2.34916 -1.76612 0
M  V30 3581 H 338.986 1.23511 -1.05446 0
M  V30 3582 H 340.983 4.16773 -0.102796 0
M  V30 3583 H 339.643 3.19778 0.56322 0
M  V30 3584 H 340.654 4.23109 -2.98663 0
M  V30 3585 H 337.331 4.15511 -0.407081 0
M  V30 3586 H 338.721 5.14045 -4.32675 0
M  V30 3587 N 341.441 0.965919 1.2453 0
M  V30 3588 C 342.857 0.67216 1.44756 0
M  V30 3589 C 343.057 -0.766609 1.86347 0
M  V30 3590 O 342.113 -1.5407 2.00047 0
M  V30 3591 C 343.426 1.65473 2.51076 0
M  V30 3592 C 344.974 1.66716 2.64905 0
M  V30 3593 C 345.449 2.63766 3.74421 0
M  V30 3594 N 346.94 2.62198 3.81846 0
M  V30 3595 C 347.675 3.33966 4.66106 0
M  V30 3596 N 347.171 4.15245 5.54566 0
M  V30 3597 N 348.964 3.22799 4.60171 0
M  V30 3598 H 341.115 1.89553 0.958293 0
M  V30 3599 H 343.378 0.815979 0.482579 0
M  V30 3600 H 343.084 2.68296 2.27399 0
M  V30 3601 H 342.958 1.4261 3.49202 0
M  V30 3602 H 345.345 0.646057 2.87941 0
M  V30 3603 H 345.426 1.93642 1.67142 0
M  V30 3604 H 345.07 3.6601 3.52135 0
M  V30 3605 H 345 2.34121 4.71694 0
M  V30 3606 H 347.491 2.032 3.18619 0
M  V30 3607 H 347.804 4.66898 6.15814 0
M  V30 3608 H 346.149 4.1934 5.54237 0
M  V30 3609 H 349.34 2.58764 3.90075 0
M  V30 3610 H 349.513 3.78994 5.25612 0
M  V30 3611 N 342.919 -1.39368 0.735821 0
M  V30 3612 C 343.849 -2.33234 0.111506 0
M  V30 3613 C 344.83 -1.53954 -0.723334 0
M  V30 3614 O 346.015 -1.82344 -0.668147 0
M  V30 3615 C 343.145 -3.38057 -0.795917 0
M  V30 3616 C 342.099 -4.2795 -0.065172 0
M  V30 3617 C 341.425 -5.23479 -1.08967 0
M  V30 3618 C 342.725 -5.10741 1.09273 0
M  V30 3619 H 344.419 -2.85692 0.895571 0
M  V30 3620 H 341.965 -1.37364 0.432109 0
M  V30 3621 H 343.918 -4.02675 -1.24221 0
M  V30 3622 H 342.642 -2.8404 -1.61211 0
M  V30 3623 H 341.301 -3.64813 0.361511 0
M  V30 3624 H 340.949 -4.65758 -1.89944 0
M  V30 3625 H 340.649 -5.84472 -0.605489 0
M  V30 3626 H 342.173 -5.90974 -1.53565 0
M  V30 3627 H 343.587 -5.68699 0.724841 0
M  V30 3628 H 341.984 -5.8088 1.50659 0
M  V30 3629 H 343.054 -4.45525 1.91404 0
M  V30 3630 N 344.397 -0.483516 -1.5 0
M  V30 3631 C 345.645 0.067027 -2.01989 0
M  V30 3632 C 345.966 1.3909 -1.36671 0
M  V30 3633 O 345.236 1.88978 -0.516152 0
M  V30 3634 H 343.816 0.0277606 -0.746484 0
M  V30 3635 H 346.478 -0.636773 -1.84204 0
M  V30 3636 H 345.574 0.209484 -3.11396 0
M  V30 3637 N 345.875 1.56104 -0.216619 0
M  V30 3638 C 346.805 2.23063 0.690296 0
M  V30 3639 C 347.786 1.20072 1.20485 0
M  V30 3640 O 348.971 1.48643 1.24976 0
M  V30 3641 C 346.101 2.90672 1.90072 0
M  V30 3642 C 345.055 4.00092 1.5202 0
M  V30 3643 C 344.381 4.54972 2.80899 0
M  V30 3644 C 345.681 5.17398 0.71391 0
M  V30 3645 H 347.375 2.99109 0.132038 0
M  V30 3646 H 344.921 1.43866 0.0620664 0
M  V30 3647 H 346.874 3.36204 2.54057 0
M  V30 3648 H 345.598 2.12066 2.48386 0
M  V30 3649 H 344.257 3.55283 0.903839 0
M  V30 3650 H 343.905 3.73102 3.37348 0
M  V30 3651 H 343.605 5.28817 2.56176 0
M  V30 3652 H 345.129 5.0322 3.45836 0
M  V30 3653 H 346.543 5.59342 1.25735 0
M  V30 3654 H 344.94 5.97444 0.563951 0
M  V30 3655 H 346.01 4.84088 -0.280527 0
M  V30 3656 N 347.353 -0.0568162 1.57498 0
M  V30 3657 C 348.6 -0.753104 1.87975 0
M  V30 3658 C 348.928 -1.76815 0.81035 0
M  V30 3659 O 348.183 -1.94756 -0.19199 0
M  V30 3660 C 348.482 -1.48359 3.25153 0
M  V30 3661 C 348.148 -0.60713 4.46794 0
M  V30 3662 C 346.81 -0.365642 4.79809 0
M  V30 3663 C 349.162 -0.000305978 5.212 0
M  V30 3664 C 346.49 0.491905 5.84634 0
M  V30 3665 C 348.842 0.844781 6.26934 0
M  V30 3666 C 347.506 1.096 6.58441 0
M  V30 3667 H 346.776 -0.27558 0.687849 0
M  V30 3668 H 349.423 -0.0135173 1.91495 0
M  V30 3669 H 347.728 -2.29577 3.17492 0
M  V30 3670 H 349.425 -2.02739 3.45974 0
M  V30 3671 H 346.015 -0.805487 4.20963 0
M  V30 3672 H 350.199 -0.173961 4.95995 0
M  V30 3673 H 345.455 0.695131 6.07436 0
M  V30 3674 H 349.629 1.32165 6.83744 0
M  V30 3675 H 347.256 1.76224 7.39492 0
M  V30 3676 N 348.832 -1.54138 -0.328536 0
M  V30 3677 C 349.762 -1.86167 -1.40939 0
M  V30 3678 C 350.743 -0.718044 -1.54202 0
M  V30 3679 O 351.928 -0.971328 -1.68163 0
M  V30 3680 C 349.058 -2.08461 -2.77779 0
M  V30 3681 C 348.012 -3.24299 -2.7931 0
M  V30 3682 C 347.338 -3.31955 -4.19178 0
M  V30 3683 C 348.638 -4.62065 -2.43502 0
M  V30 3684 H 350.332 -2.76689 -1.14383 0
M  V30 3685 H 347.878 -1.33132 -0.548806 0
M  V30 3686 H 349.831 -2.29453 -3.53454 0
M  V30 3687 H 348.555 -1.14684 -3.05802 0
M  V30 3688 H 347.214 -3.03187 -2.0609 0
M  V30 3689 H 346.862 -2.35745 -4.44335 0
M  V30 3690 H 346.562 -4.09805 -4.2111 0
M  V30 3691 H 348.086 -3.55175 -4.96672 0
M  V30 3692 H 349.5 -4.8297 -3.08889 0
M  V30 3693 H 347.897 -5.42429 -2.56693 0
M  V30 3694 H 348.967 -4.64652 -1.38659 0
M  V30 3695 N 350.31 0.590341 -1.46126 0
M  V30 3696 C 351.273 1.68194 -1.55703 0
M  V30 3697 C 352.273 1.54808 -0.434868 0
M  V30 3698 O 353.463 1.59564 -0.698928 0
M  V30 3699 C 350.595 3.07575 -1.47005 0
M  V30 3700 H 351.788 1.61064 -2.52979 0
M  V30 3701 H 349.341 0.807541 -1.33823 0
M  V30 3702 H 350.076 3.20268 -0.509785 0
M  V30 3703 H 349.861 3.187 -2.28414 0
M  V30 3704 H 351.351 3.87055 -1.56776 0
M  V30 3705 N 351.788 1.33704 0.83433 0
M  V30 3706 C 353.013 1.28615 1.62705 0
M  V30 3707 C 353.438 -0.139242 1.87584 0
M  V30 3708 O 352.796 -1.09734 1.4432 0
M  V30 3709 C 352.844 2.07139 2.95171 0
M  V30 3710 O 351.948 1.4331 3.86699 0
M  V30 3711 H 351.289 0.44226 0.49528 0
M  V30 3712 H 353.819 1.76335 1.03766 0
M  V30 3713 H 353.829 2.18073 3.44831 0
M  V30 3714 H 352.504 3.10779 2.76386 0
M  V30 3715 H 351.081 1.4105 3.45195 0
M  V30 3716 N 353.266 -1.05314 1.17247 0
M  V30 3717 C 354.214 -2.15137 0.884238 0
M  V30 3718 C 355.208 -1.68729 -0.15063 0
M  V30 3719 O 356.414 -1.8 -0.00366673 0
M  V30 3720 H 352.789 -0.702471 0.2684 0
M  V30 3721 H 354.76 -2.36652 1.81764 0
M  V30 3722 C 353.509 -3.45243 0.412659 0
M  V30 3723 H 352.832 -3.81352 1.20043 0
M  V30 3724 H 354.272 -4.23263 0.249858 0
M  V30 3725 C 352.731 -3.25487 -0.86948 0
M  V30 3726 O 353.261 -3.51938 -1.93655 0
M  V30 3727 N 351.467 -2.78875 -0.817147 0
M  V30 3728 H 351.014 -2.57549 0.0514211 0
M  V30 3729 H 350.972 -2.66036 -1.67547 0
M  V30 3730 N 354.744 -0.972509 -1.24016 0
M  V30 3731 C 355.993 -0.632603 -1.91523 0
M  V30 3732 C 356.306 0.836641 -1.76804 0
M  V30 3733 O 357.512 1.28728 -2.39043 0
M  V30 3734 C 355.968 -1.08082 -3.43287 0
M  V30 3735 C 355.576 -2.57386 -3.66683 0
M  V30 3736 C 357.32 -0.814288 -4.16617 0
M  V30 3737 C 355.227 -2.95915 -5.12043 0
M  V30 3738 H 354.157 -0.232898 -0.717129 0
M  V30 3739 H 356.808 -1.17936 -1.40582 0
M  V30 3740 H 355.19 -0.462339 -3.93292 0
M  V30 3741 H 356.364 -3.24405 -3.27258 0
M  V30 3742 H 354.679 -2.81701 -3.06649 0
M  V30 3743 H 357.276 -1.0781 -5.23718 0
M  V30 3744 H 357.619 0.24955 -4.15551 0
M  V30 3745 H 358.152 -1.39397 -3.72577 0
M  V30 3746 H 354.891 -4.0139 -5.18234 0
M  V30 3747 H 354.411 -2.33584 -5.52448 0
M  V30 3748 H 356.09 -2.86086 -5.80314 0
M  V30 3749 N 356.222 1.38976 -0.743202 0
M  V30 3750 C 357.469 2.00343 -0.294752 0
M  V30 3751 C 357.797 1.58983 1.12047 0
M  V30 3752 O 357.052 0.813809 1.77977 0
M  V30 3753 C 357.351 3.55647 -0.353517 0
M  V30 3754 C 357.017 4.16685 -1.72292 0
M  V30 3755 C 355.679 4.3307 -2.09771 0
M  V30 3756 C 358.031 4.50464 -2.62168 0
M  V30 3757 C 355.359 4.80526 -3.36618 0
M  V30 3758 C 357.711 4.99332 -3.88395 0
M  V30 3759 C 356.375 5.13924 -4.25956 0
M  V30 3760 H 355.645 0.733108 -0.107857 0
M  V30 3761 H 358.292 1.6618 -0.951651 0
M  V30 3762 H 356.597 3.89884 0.386954 0
M  V30 3763 H 358.294 4.00998 0.0117269 0
M  V30 3764 H 354.884 4.04339 -1.42155 0
M  V30 3765 H 359.068 4.37416 -2.3448 0
M  V30 3766 H 354.324 4.90008 -3.65653 0
M  V30 3767 H 358.498 5.2444 -4.58187 0
M  V30 3768 H 356.125 5.50457 -5.2431 0
M  V30 3769 N 357.7 0.491464 1.49741 0
M  V30 3770 C 358.63 -0.28154 2.31796 0
M  V30 3771 C 359.611 -0.971473 1.3963 0
M  V30 3772 O 360.796 -0.964719 1.68543 0
M  V30 3773 C 357.926 -1.35203 3.19902 0
M  V30 3774 C 356.88 -0.782529 4.20786 0
M  V30 3775 C 356.206 -1.95283 4.97764 0
M  V30 3776 C 357.506 0.21999 5.21837 0
M  V30 3777 H 359.2 0.403355 2.96671 0
M  V30 3778 H 356.746 0.195425 1.42668 0
M  V30 3779 H 358.699 -1.90045 3.76113 0
M  V30 3780 H 357.423 -2.06598 2.52953 0
M  V30 3781 H 356.082 -0.255928 3.65706 0
M  V30 3782 H 355.73 -2.65423 4.2727 0
M  V30 3783 H 355.43 -1.57789 5.66018 0
M  V30 3784 H 356.954 -2.50577 5.56816 0
M  V30 3785 H 358.368 -0.23996 5.72798 0
M  V30 3786 H 356.765 0.51026 5.97927 0
M  V30 3787 H 357.835 1.13911 4.7133 0
M  V30 3788 N 359.178 -1.55987 0.224894 0
M  V30 3789 C 360.406 -2.02784 -0.410665 0
M  V30 3790 C 360.821 -1.10464 -1.53112 0
M  V30 3791 O 360.178 -0.114871 -1.82138 0
M  V30 3792 C 360.229 -3.49087 -0.939165 0
M  V30 3793 O 359.95 -4.37887 0.136614 0
M  V30 3794 C 361.451 -4.11543 -1.64763 0
M  V30 3795 H 358.671 -0.663484 -0.100148 0
M  V30 3796 H 361.215 -2.01614 0.342326 0
M  V30 3797 H 359.37 -3.50861 -1.64242 0
M  V30 3798 H 359.784 -5.23849 -0.261155 0
M  V30 3799 H 361.258 -5.15673 -1.96939 0
M  V30 3800 H 361.735 -3.56736 -2.56195 0
M  V30 3801 H 362.341 -4.13629 -0.989503 0
M  V30 3802 N 360.656 0.0484629 -1.57525 0
M  V30 3803 C 361.904 0.741657 -1.88 0
M  V30 3804 C 362.225 1.76918 -0.820054 0
M  V30 3805 O 361.495 1.95335 0.148661 0
M  V30 3806 H 360.075 0.276908 -0.69378 0
M  V30 3807 H 362.737 0.019013 -1.94891 0
M  V30 3808 H 361.833 1.24336 -2.86264 0
M  V30 3809 N 362.134 1.5431 0.320358 0
M  V30 3810 C 363.097 1.83195 1.3774 0
M  V30 3811 C 364.097 0.703906 1.44575 0
M  V30 3812 O 365.287 0.972214 1.44546 0
M  V30 3813 C 362.419 1.99487 2.76438 0
M  V30 3814 H 363.612 2.77642 1.1338 0
M  V30 3815 H 361.165 1.46076 0.556012 0
M  V30 3816 H 361.9 1.07262 3.06048 0
M  V30 3817 H 361.685 2.81575 2.7287 0
M  V30 3818 H 363.175 2.23271 3.52902 0
M  V30 3819 N 363.613 -0.582584 1.46437 0
M  V30 3820 C 364.86 -1.34079 1.51753 0
M  V30 3821 C 365.188 -1.93762 0.169299 0
M  V30 3822 O 364.443 -1.76989 -0.835062 0
M  V30 3823 C 364.742 -2.48964 2.56421 0
M  V30 3824 C 364.408 -2.07273 4.00436 0
M  V30 3825 C 363.07 -1.95618 4.39644 0
M  V30 3826 C 365.422 -1.75111 4.90903 0
M  V30 3827 C 362.75 -1.5006 5.67185 0
M  V30 3828 C 365.102 -1.31032 6.18881 0
M  V30 3829 C 363.766 -1.17954 6.56996 0
M  V30 3830 H 363.036 -0.49063 0.555304 0
M  V30 3831 H 365.683 -0.656007 1.79913 0
M  V30 3832 H 363.988 -3.22889 2.21923 0
M  V30 3833 H 365.685 -3.07178 2.57765 0
M  V30 3834 H 362.275 -2.17279 3.69443 0
M  V30 3835 H 366.459 -1.83001 4.61329 0
M  V30 3836 H 361.715 -1.38577 5.95488 0
M  V30 3837 H 365.889 -1.052 6.88408 0
M  V30 3838 H 363.516 -0.824279 7.55718 0
M  V30 3839 N 365.091 -1.34144 -0.827227 0
M  V30 3840 C 366.339 -1.26009 -1.58007 0
M  V30 3841 C 366.66 0.170971 -1.94249 0
M  V30 3842 O 365.93 1.10256 -1.61927 0
M  V30 3843 H 364.51 -0.463414 -0.585881 0
M  V30 3844 H 367.172 -1.68005 -0.987951 0
M  V30 3845 H 366.268 -1.86187 -2.50481 0
M  V30 3846 N 366.569 1.04691 -1.17803 0
M  V30 3847 C 367.797 1.81446 -0.99423 0
M  V30 3848 C 368.212 1.83174 0.457459 0
M  V30 3849 O 367.569 1.26265 1.31771 0
M  V30 3850 C 367.62 3.27334 -1.5341 0
M  V30 3851 O 367.341 3.25798 -2.92895 0
M  V30 3852 C 368.842 4.20759 -1.39559 0
M  V30 3853 H 366.062 0.571599 -0.351447 0
M  V30 3854 H 368.606 1.31982 -1.56208 0
M  V30 3855 H 366.761 3.74052 -1.00815 0
M  V30 3856 H 367.175 4.17144 -3.17949 0
M  V30 3857 H 368.649 5.21084 -1.82141 0
M  V30 3858 H 369.126 4.37856 -0.343394 0
M  V30 3859 H 369.732 3.79901 -1.91195 0
M  V30 3860 N 368.047 0.979072 1.23499 0
M  V30 3861 C 369.296 0.642751 1.91185 0
M  V30 3862 C 369.609 -0.827253 1.77245 0
M  V30 3863 O 370.815 -1.27458 2.39722 0
M  V30 3864 C 369.271 1.09901 3.42709 0
M  V30 3865 C 368.879 2.59327 3.65313 0
M  V30 3866 C 370.623 0.836371 4.16179 0
M  V30 3867 C 368.53 2.98627 5.10467 0
M  V30 3868 H 367.46 0.236698 0.715884 0
M  V30 3869 H 370.111 1.1868 1.39955 0
M  V30 3870 H 368.493 0.48319 3.93041 0
M  V30 3871 H 369.667 3.26136 3.25533 0
M  V30 3872 H 367.982 2.83323 3.05151 0
M  V30 3873 H 370.579 1.10586 5.23139 0
M  V30 3874 H 370.922 -0.227509 4.15678 0
M  V30 3875 H 371.455 1.41371 3.71832 0
M  V30 3876 H 368.194 4.04133 5.16098 0
M  V30 3877 H 367.714 2.3651 5.51201 0
M  V30 3878 H 369.393 2.89159 5.78788 0
M  V30 3879 N 369.525 -1.3858 0.750561 0
M  V30 3880 C 370.488 -2.28836 0.129152 0
M  V30 3881 C 371.488 -1.47045 -0.650714 0
M  V30 3882 O 372.678 -1.6753 -0.477428 0
M  V30 3883 C 369.81 -3.30751 -0.825622 0
M  V30 3884 H 371.003 -2.85294 0.924516 0
M  V30 3885 H 368.556 -1.47489 0.517376 0
M  V30 3886 H 369.291 -2.79378 -1.64677 0
M  V30 3887 H 369.076 -3.91177 -0.268852 0
M  V30 3888 H 370.566 -3.98249 -1.2565 0
M  V30 3889 N 371.003 -0.499398 -1.49478 0
M  V30 3890 C 372.228 0.044722 -2.07352 0
M  V30 3891 C 372.653 1.30207 -1.35749 0
M  V30 3892 O 372.011 1.76516 -0.413732 0
M  V30 3893 C 372.059 0.283013 -3.59488 0
M  V30 3894 O 371.163 1.35804 -3.89398 0
M  V30 3895 H 370.504 -0.0255147 -0.66351 0
M  V30 3896 H 373.034 -0.698561 -1.92305 0
M  V30 3897 H 373.044 0.515007 -4.04737 0
M  V30 3898 H 371.719 -0.635636 -4.11014 0
M  V30 3899 H 370.296 1.11113 -3.55961 0
M  V30 3900 N 372.481 1.55866 -0.233164 0
M  V30 3901 C 373.729 1.9821 0.394593 0
M  V30 3902 C 374.05 1.12234 1.59463 0
M  V30 3903 O 373.32 0.201981 1.94856 0
M  V30 3904 H 371.9 0.732034 0.148778 0
M  V30 3905 H 374.562 1.92107 -0.32876 0
M  V30 3906 H 373.658 3.03845 0.713063 0
M  V30 3907 N 373.959 -0.0401083 1.57549 0
M  V30 3908 C 375.37 -0.588097 1.77196 0
M  V30 3909 C 375.721 -1.76209 0.862832 0
M  V30 3910 O 374.846 -2.16331 0.0548389 0
M  V30 3911 C 375.441 -1.07363 3.21339 0
M  V30 3912 C 374 -1.56723 3.42221 0
M  V30 3913 C 373.147 -0.50041 2.72747 0
M  V30 3914 H 376.098 0.186119 1.57605 0
M  V30 3915 H 376.119 -1.94143 3.27244 0
M  V30 3916 H 375.631 -0.218975 3.87482 0
M  V30 3917 H 373.732 -2.4441 2.81237 0
M  V30 3918 H 373.845 -1.62234 4.50796 0
M  V30 3919 H 372.209 -0.952894 2.36203 0
M  V30 3920 H 372.992 0.344599 3.41566 0
M  V30 3921 N 375.437 -1.54477 -0.31217 0
M  V30 3922 C 376.684 -1.73227 -1.04875 0
M  V30 3923 C 377.012 -0.512042 -1.87639 0
M  V30 3924 O 376.267 0.506131 -1.89042 0
M  V30 3925 C 376.566 -2.967 -1.99258 0
M  V30 3926 C 376.232 -4.30974 -1.32559 0
M  V30 3927 C 374.894 -4.67477 -1.141 0
M  V30 3928 C 377.246 -5.14258 -0.847835 0
M  V30 3929 C 374.574 -5.84852 -0.465326 0
M  V30 3930 C 376.926 -6.32327 -0.185931 0
M  V30 3931 C 375.59 -6.67499 0.0107077 0
M  V30 3932 H 374.86 -0.633881 -0.383765 0
M  V30 3933 H 377.507 -1.88727 -0.324731 0
M  V30 3934 H 375.812 -2.75935 -2.7815 0
M  V30 3935 H 377.509 -3.08401 -2.563 0
M  V30 3936 H 374.099 -4.02262 -1.4793 0
M  V30 3937 H 378.283 -4.86565 -0.978192 0
M  V30 3938 H 373.539 -6.10654 -0.301883 0
M  V30 3939 H 377.713 -6.96135 0.192211 0
M  V30 3940 H 375.34 -7.58306 0.536287 0
M  V30 3941 N 376.915 0.57481 -1.46744 0
M  V30 3942 C 378.161 1.33251 -1.53674 0
M  V30 3943 C 378.516 1.91468 -0.189125 0
M  V30 3944 O 377.809 1.73954 0.803151 0
M  V30 3945 C 378.003 2.476 -2.57738 0
M  V30 3946 C 377.832 2.00586 -4.02487 0
M  V30 3947 C 376.602 1.85237 -4.70123 0
M  V30 3948 C 378.8 1.56078 -4.90045 0
M  V30 3949 N 376.782 1.32377 -5.99458 0
M  V30 3950 C 378.153 1.14863 -6.09267 0
M  V30 3951 C 380.208 1.43968 -4.76632 0
M  V30 3952 C 378.911 0.627435 -7.16558 0
M  V30 3953 C 380.937 0.932512 -5.84002 0
M  V30 3954 C 380.299 0.53019 -7.02402 0
M  V30 3955 H 376.398 0.480284 -0.617131 0
M  V30 3956 H 378.982 0.653592 -1.83402 0
M  V30 3957 H 377.153 3.13045 -2.29907 0
M  V30 3958 H 378.885 3.14567 -2.54616 0
M  V30 3959 H 375.64 2.07423 -4.25761 0
M  V30 3960 H 376.064 1.08085 -6.68316 0
M  V30 3961 H 380.706 1.73689 -3.85476 0
M  V30 3962 H 378.424 0.317821 -8.07475 0
M  V30 3963 H 382.01 0.842611 -5.75666 0
M  V30 3964 H 380.89 0.14381 -7.84068 0
M  V30 3965 N 378.394 1.34581 0.820102 0
M  V30 3966 C 379.622 1.3018 1.60813 0
M  V30 3967 C 380.037 -0.123551 1.88395 0
M  V30 3968 O 379.394 -1.07148 1.47735 0
M  V30 3969 C 379.445 2.09312 2.94739 0
M  V30 3970 O 379.166 3.46288 2.68358 0
M  V30 3971 C 380.667 2.1234 3.89136 0
M  V30 3972 H 377.887 0.447726 0.499782 0
M  V30 3973 H 380.431 1.77237 1.02017 0
M  V30 3974 H 378.586 1.65889 3.50085 0
M  V30 3975 H 379 3.87227 3.53774 0
M  V30 3976 H 380.474 2.72126 4.80262 0
M  V30 3977 H 380.951 1.11854 4.24718 0
M  V30 3978 H 381.557 2.55864 3.39726 0
M  V30 3979 N 379.872 -1.04064 1.18357 0
M  V30 3980 C 381.288 -1.2947 0.933258 0
M  V30 3981 C 381.488 -1.97466 -0.401169 0
M  V30 3982 O 380.544 -2.25528 -1.13549 0
M  V30 3983 C 381.857 -2.15337 2.09882 0
M  V30 3984 C 383.405 -2.28683 2.13712 0
M  V30 3985 C 383.88 -3.17917 3.29686 0
M  V30 3986 N 385.371 -3.25504 3.29547 0
M  V30 3987 C 386.106 -3.94706 4.15926 0
M  V30 3988 N 385.602 -4.66239 5.12439 0
M  V30 3989 N 387.395 -3.90986 4.0384 0
M  V30 3990 H 379.546 -0.583359 2.04232 0
M  V30 3991 H 381.809 -0.319921 0.892387 0
M  V30 3992 H 381.515 -1.72682 3.06389 0
M  V30 3993 H 381.389 -3.16015 2.05947 0
M  V30 3994 H 383.776 -2.70575 1.17784 0
M  V30 3995 H 383.857 -1.27596 2.21705 0
M  V30 3996 H 383.501 -2.76736 4.25887 0
M  V30 3997 H 383.431 -4.19036 3.1893 0
M  V30 3998 H 385.922 -2.74547 2.59677 0
M  V30 3999 H 386.235 -5.16638 5.74722 0
M  V30 4000 H 384.58 -4.65143 5.16398 0
M  V30 4001 H 387.771 -3.34234 3.27727 0
M  V30 4002 H 387.944 -4.44646 4.71375 0
M  V30 4003 N 381.35 -0.985608 -1.22978 0
M  V30 4004 C 382.598 -0.656087 -1.91154 0
M  V30 4005 C 382.919 0.813561 -1.77218 0
M  V30 4006 O 382.189 1.58244 -1.1548 0
M  V30 4007 H 380.769 -0.239674 -0.707506 0
M  V30 4008 H 383.431 -1.25054 -1.49491 0
M  V30 4009 H 382.527 -0.912253 -2.9847 0
M  V30 4010 N 382.828 1.3818 -0.7579 0
M  V30 4011 C 384.074 2.0078 -0.325423 0
M  V30 4012 C 384.429 1.59085 1.08211 0
M  V30 4013 O 383.722 0.820394 1.73148 0
M  V30 4014 C 383.916 3.55252 -0.391218 0
M  V30 4015 C 383.745 4.11947 -1.8036 0
M  V30 4016 C 382.515 4.43519 -2.42113 0
M  V30 4017 C 384.713 4.33908 -2.76095 0
M  V30 4018 N 382.695 4.85847 -3.75267 0
M  V30 4019 C 384.066 4.78692 -3.94023 0
M  V30 4020 C 386.121 4.16015 -2.73561 0
M  V30 4021 C 384.824 5.07459 -5.09782 0
M  V30 4022 C 386.85 4.45909 -3.88483 0
M  V30 4023 C 386.212 4.90921 -5.0515 0
M  V30 4024 H 382.311 0.764215 -0.165831 0
M  V30 4025 H 384.895 1.67724 -0.988776 0
M  V30 4026 H 383.066 3.87646 0.241886 0
M  V30 4027 H 384.798 4.04653 0.061989 0
M  V30 4028 H 381.553 4.32113 -1.93842 0
M  V30 4029 H 381.977 5.11339 -4.4369 0
M  V30 4030 H 386.619 3.80399 -1.84544 0
M  V30 4031 H 384.337 5.4197 -5.99412 0
M  V30 4032 H 387.923 4.33666 -3.87847 0
M  V30 4033 H 386.803 5.1361 -5.92599 0
M  V30 4034 N 384.306 0.507319 1.49211 0
M  V30 4035 C 385.717 0.0611118 1.866 0
M  V30 4036 C 386.068 -1.35488 1.41907 0
M  V30 4037 O 385.193 -2.0108 0.799726 0
M  V30 4038 C 385.788 0.104125 3.3864 0
M  V30 4039 C 384.347 -0.28677 3.75306 0
M  V30 4040 C 383.494 0.473893 2.73221 0
M  V30 4041 H 386.445 0.719775 1.41439 0
M  V30 4042 H 386.466 -0.689672 3.74198 0
M  V30 4043 H 385.978 1.13482 3.71138 0
M  V30 4044 H 384.079 -1.32046 3.48417 0
M  V30 4045 H 384.192 0.0370745 4.79086 0
M  V30 4046 H 382.556 -0.0770644 2.54583 0
M  V30 4047 H 383.339 1.50478 3.08563 0
M  V30 4048 N 385.784 -1.5574 0.241426 0
M  V30 4049 C 386.694 -2.2479 -0.671305 0
M  V30 4050 C 387.71 -1.26217 -1.19772 0
M  V30 4051 O 388.886 -1.59079 -1.23514 0
M  V30 4052 C 385.951 -2.92966 -1.85396 0
M  V30 4053 C 385.012 -4.06935 -1.36756 0
M  V30 4054 C 384.245 -4.71851 -2.49384 0
M  V30 4055 O 384.468 -4.35823 -3.67987 0
M  V30 4056 O 383.402 -5.60467 -2.19454 0
M  V30 4057 H 387.228 -3.0349 -0.112966 0
M  V30 4058 H 384.813 -1.49397 0.0101513 0
M  V30 4059 H 386.695 -3.35927 -2.54423 0
M  V30 4060 H 385.37 -2.17211 -2.40002 0
M  V30 4061 H 384.277 -3.68503 -0.644726 0
M  V30 4062 H 385.61 -4.84492 -0.867647 0
M  V30 4063 N 387.262 0.0317525 -1.57568 0
M  V30 4064 C 388.508 0.718712 -1.90279 0
M  V30 4065 C 388.863 1.73108 -0.839727 0
M  V30 4066 O 388.156 1.90997 0.15188 0
M  V30 4067 C 388.35 1.43167 -3.27472 0
M  V30 4068 C 388.179 0.489869 -4.47024 0
M  V30 4069 C 386.949 0.111909 -5.05176 0
M  V30 4070 C 389.147 -0.230592 -5.13783 0
M  V30 4071 N 387.129 -0.831427 -6.08244 0
M  V30 4072 C 388.5 -1.02968 -6.1139 0
M  V30 4073 C 390.555 -0.297821 -4.97008 0
M  V30 4074 C 389.258 -1.88982 -6.9403 0
M  V30 4075 C 391.284 -1.14507 -5.80209 0
M  V30 4076 C 390.646 -1.9321 -6.77384 0
M  V30 4077 H 386.745 0.237177 -0.745165 0
M  V30 4078 H 389.329 -0.0211267 -1.94689 0
M  V30 4079 H 387.5 2.14199 -3.23996 0
M  V30 4080 H 389.232 2.0708 -3.47707 0
M  V30 4081 H 385.987 0.473513 -4.71227 0
M  V30 4082 H 386.411 -1.29752 -6.6445 0
M  V30 4083 H 391.053 0.296346 -4.2176 0
M  V30 4084 H 388.771 -2.4948 -7.68626 0
M  V30 4085 H 392.357 -1.20059 -5.69278 0
M  V30 4086 H 391.237 -2.57711 -7.40645 0
M  V30 4087 N 388.74 1.54641 0.303973 0
M  V30 4088 C 389.986 1.74969 1.03718 0
M  V30 4089 C 390.341 0.527461 1.85029 0
M  V30 4090 O 389.634 -0.480143 1.85486 0
M  V30 4091 C 389.828 2.97753 1.97681 0
M  V30 4092 C 389.657 4.318 1.25613 0
M  V30 4093 C 388.427 4.95616 0.984518 0
M  V30 4094 C 390.625 5.10021 0.662081 0
M  V30 4095 N 388.607 6.13455 0.233794 0
M  V30 4096 C 389.978 6.19984 0.0439736 0
M  V30 4097 C 392.033 4.94663 0.566835 0
M  V30 4098 C 390.736 7.16264 -0.66016 0
M  V30 4099 C 392.762 5.91271 -0.123637 0
M  V30 4100 C 392.124 7.00601 -0.730608 0
M  V30 4101 H 388.223 0.692873 0.362562 0
M  V30 4102 H 390.807 1.92116 0.316135 0
M  V30 4103 H 388.978 2.82036 2.6704 0
M  V30 4104 H 390.71 3.06621 2.64132 0
M  V30 4105 H 387.465 4.55921 1.28191 0
M  V30 4106 H 387.889 6.76879 -0.127996 0
M  V30 4107 H 392.531 4.10267 1.02181 0
M  V30 4108 H 390.249 8.00204 -1.12691 0
M  V30 4109 H 393.835 5.81466 -0.197236 0
M  V30 4110 H 392.715 7.7407 -1.2564 0
M  V30 4111 N 390.218 -0.567019 1.47046 0
M  V30 4112 C 391.466 -1.322 1.52864 0
M  V30 4113 C 391.787 -1.94088 0.188388 0
M  V30 4114 O 391.057 -1.7941 -0.786693 0
M  V30 4115 H 389.637 -0.490894 0.563056 0
M  V30 4116 H 392.299 -0.662879 1.83281 0
M  V30 4117 H 391.395 -2.12062 2.2899 0
M  V30 4118 N 391.696 -1.35014 -0.812953 0
M  V30 4119 C 392.942 -1.29129 -1.57154 0
M  V30 4120 C 393.297 0.134922 -1.91926 0
M  V30 4121 O 392.59 1.08373 -1.58006 0
M  V30 4122 C 392.784 -2.12524 -2.87347 0
M  V30 4123 C 392.613 -3.6311 -2.65294 0
M  V30 4124 C 391.383 -4.32363 -2.61516 0
M  V30 4125 C 393.581 -4.56897 -2.36114 0
M  V30 4126 N 391.563 -5.68735 -2.31113 0
M  V30 4127 C 392.934 -5.81345 -2.15494 0
M  V30 4128 C 394.989 -4.45706 -2.21925 0
M  V30 4129 C 393.692 -6.95862 -1.82122 0
M  V30 4130 C 395.718 -5.60066 -1.89948 0
M  V30 4131 C 395.08 -6.83539 -1.7016 0
M  V30 4132 H 391.179 -0.527764 -0.577052 0
M  V30 4133 H 393.763 -1.6983 -0.952146 0
M  V30 4134 H 391.934 -1.74104 -3.47192 0
M  V30 4135 H 393.666 -1.98207 -3.5284 0
M  V30 4136 H 390.421 -3.84907 -2.75941 0
M  V30 4137 H 390.845 -6.40694 -2.18724 0
M  V30 4138 H 395.487 -3.50855 -2.35925 0
M  V30 4139 H 393.205 -7.90685 -1.6686 0
M  V30 4140 H 396.791 -5.53357 -1.79687 0
M  V30 4141 H 395.671 -7.70531 -1.45777 0
M  V30 4142 N 393.175 1.03435 -1.18907 0
M  V30 4143 C 394.421 1.7713 -0.99982 0
M  V30 4144 C 394.776 1.86695 0.465049 0
M  V30 4145 O 394.069 1.36866 1.34083 0
M  V30 4146 C 394.263 3.19792 -1.59586 0
M  V30 4147 C 394.092 3.24134 -3.11717 0
M  V30 4148 C 392.862 3.32398 -3.80578 0
M  V30 4149 C 395.06 3.11625 -4.09138 0
M  V30 4150 N 393.042 3.26055 -5.20155 0
M  V30 4151 C 394.413 3.12855 -5.35277 0
M  V30 4152 C 396.468 2.95713 -4.00572 0
M  V30 4153 C 395.171 2.99805 -6.53842 0
M  V30 4154 C 397.197 2.84011 -5.1874 0
M  V30 4155 C 396.559 2.8589 -6.43775 0
M  V30 4156 H 392.658 0.659683 -0.419931 0
M  V30 4157 H 395.242 1.2317 -1.50789 0
M  V30 4158 H 393.413 3.72085 -1.11389 0
M  V30 4159 H 395.145 3.81819 -1.3415 0
M  V30 4160 H 391.9 3.38392 -3.31342 0
M  V30 4161 H 392.324 3.26307 -5.93172 0
M  V30 4162 H 396.966 2.93086 -3.0473 0
M  V30 4163 H 394.684 3.01184 -7.49876 0
M  V30 4164 H 398.27 2.72744 -5.13909 0
M  V30 4165 H 397.15 2.76931 -7.33675 0
M  V30 4166 N 394.653 0.992116 1.22453 0
M  V30 4167 C 395.583 0.561677 2.26644 0
M  V30 4168 C 396.564 -0.411055 1.65059 0
M  V30 4169 O 397.749 -0.301861 1.9184 0
M  V30 4170 C 394.879 -0.125247 3.47074 0
M  V30 4171 C 393.833 0.765948 4.21091 0
M  V30 4172 C 393.159 -0.0538484 5.34673 0
M  V30 4173 C 394.459 2.06242 4.79856 0
M  V30 4174 H 396.153 1.43259 2.62902 0
M  V30 4175 H 393.699 0.690283 1.26377 0
M  V30 4176 H 395.652 -0.437764 4.1912 0
M  V30 4177 H 394.376 -1.03069 3.0991 0
M  V30 4178 H 393.035 1.0621 3.50878 0
M  V30 4179 H 392.683 -0.960188 4.9375 0
M  V30 4180 H 392.383 0.539415 5.85119 0
M  V30 4181 H 393.907 -0.360477 6.09535 0
M  V30 4182 H 395.321 1.8139 5.43848 0
M  V30 4183 H 393.718 2.60444 5.40638 0
M  V30 4184 H 394.788 2.74167 3.99951 0
M  V30 4185 N 396.131 -1.37776 0.765217 0
M  V30 4186 C 397.408 -1.93975 0.251596 0
M  V30 4187 C 397.788 -1.69949 -1.25222 0
M  V30 4188 O 397.136 -1.04457 -2.03226 0
M  V30 4189 C 397.346 -3.43487 0.617895 0
M  V30 4190 C 398.694 -4.20564 0.584029 0
M  V30 4191 O 399.718 -3.5182 0.556888 0
M  V30 4192 O 398.577 -5.43138 0.605291 0
M  V30 4193 H 395.671 -0.82509 0.0561806 0
M  V30 4194 H 398.217 -1.47101 0.846128 0
M  V30 4195 H 396.989 -3.5453 1.65602 0
M  V30 4196 H 396.612 -3.976 -0.00403411 0
M  V30 4197 N 397.609 -0.515225 -1.4894 0
M  V30 4198 C 398.858 0.0261361 -2.01683 0
M  V30 4199 C 399.171 1.36719 -1.39883 0
M  V30 4200 O 400.377 1.99606 -1.84037 0
M  V30 4201 C 398.833 0.0970111 -3.59769 0
M  V30 4202 C 398.441 -1.23825 -4.30548 0
M  V30 4203 C 400.185 0.587981 -4.20408 0
M  V30 4204 C 398.092 -1.12877 -5.80528 0
M  V30 4205 H 397.022 0.0135398 -0.753878 0
M  V30 4206 H 399.673 -0.656787 -1.71343 0
M  V30 4207 H 398.055 0.844694 -3.86886 0
M  V30 4208 H 399.229 -2.00034 -4.15118 0
M  V30 4209 H 397.544 -1.66379 -3.81716 0
M  V30 4210 H 400.141 0.68763 -5.3026 0
M  V30 4211 H 400.484 1.59026 -3.84729 0
M  V30 4212 H 401.017 -0.103582 -3.97665 0
M  V30 4213 H 397.756 -2.10575 -6.20756 0
M  V30 4214 H 397.276 -0.407799 -5.98412 0
M  V30 4215 H 398.955 -0.813332 -6.41868 0
M  V30 4216 N 399.087 1.5561 -0.249682 0
M  V30 4217 C 400.498 1.84979 0.252949 0
M  V30 4218 C 400.849 1.17153 1.57384 0
M  V30 4219 O 399.974 0.450884 2.11651 0
M  V30 4220 C 400.569 3.35584 0.465732 0
M  V30 4221 C 399.128 3.65169 0.912624 0
M  V30 4222 C 398.275 2.77299 -0.00859085 0
M  V30 4223 H 401.226 1.51513 -0.47217 0
M  V30 4224 H 401.247 3.57313 1.30795 0
M  V30 4225 H 400.759 3.8492 -0.49579 0
M  V30 4226 H 398.86 3.21312 1.88652 0
M  V30 4227 H 398.973 4.72912 0.767559 0
M  V30 4228 H 397.337 2.49678 0.50327 0
M  V30 4229 H 398.12 3.29442 -0.965537 0
M  V30 4230 N 400.565 -0.0233959 1.57583 0
M  V30 4231 C 401.812 -0.713063 1.8953 0
M  V30 4232 C 402.14 -1.75056 0.847673 0
M  V30 4233 O 401.395 -1.95119 -0.150636 0
M  V30 4234 C 401.694 -1.41428 3.28227 0
M  V30 4235 C 401.36 -0.512222 4.47981 0
M  V30 4236 C 400.022 -0.263785 4.80476 0
M  V30 4237 C 402.374 0.110248 5.21083 0
M  V30 4238 C 399.702 0.615804 5.83459 0
M  V30 4239 C 402.054 0.977573 6.25001 0
M  V30 4240 C 400.718 1.23542 6.55968 0
M  V30 4241 H 399.988 -0.260928 0.69354 0
M  V30 4242 H 402.635 0.0271047 1.91481 0
M  V30 4243 H 400.94 -2.22791 3.22291 0
M  V30 4244 H 402.637 -1.95355 3.50196 0
M  V30 4245 H 399.227 -0.716013 4.22577 0
M  V30 4246 H 403.411 -0.0687137 4.96252 0
M  V30 4247 H 398.667 0.82382 6.05824 0
M  V30 4248 H 402.841 1.46638 6.80786 0
M  V30 4249 H 400.468 1.91871 7.35588 0
M  V30 4250 N 402.043 -1.548 -0.295768 0
M  V30 4251 C 403.289 -1.75517 -1.02789 0
M  V30 4252 C 403.644 -0.537266 -1.84746 0
M  V30 4253 O 402.937 0.470299 -1.85738 0
M  V30 4254 C 403.131 -2.98797 -1.961 0
M  V30 4255 C 402.96 -4.3246 -1.23321 0
M  V30 4256 C 401.73 -4.96131 -0.95822 0
M  V30 4257 C 403.928 -5.10365 -0.635024 0
M  V30 4258 N 401.91 -6.1357 -0.201257 0
M  V30 4259 C 403.281 -6.19999 -0.0110937 0
M  V30 4260 C 405.336 -4.94957 -0.540594 0
M  V30 4261 C 404.039 -7.15904 0.698136 0
M  V30 4262 C 406.065 -5.91197 0.154992 0
M  V30 4263 C 405.427 -7.00203 0.767752 0
M  V30 4264 H 401.526 -0.694786 -0.358882 0
M  V30 4265 H 404.11 -1.92281 -0.305943 0
M  V30 4266 H 402.281 -2.83448 -2.6554 0
M  V30 4267 H 404.013 -3.08017 -2.62502 0
M  V30 4268 H 400.768 -4.56595 -1.25771 0
M  V30 4269 H 401.192 -6.76802 0.16389 0
M  V30 4270 H 405.834 -4.10803 -1.00003 0
M  V30 4271 H 403.552 -7.99595 1.16933 0
M  V30 4272 H 407.138 -5.81353 0.228069 0
M  V30 4273 H 406.018 -7.73393 1.29743 0
M  V30 4274 N 403.521 0.559213 -1.47345 0
M  V30 4275 C 404.746 1.34676 -1.57725 0
M  V30 4276 C 405.171 1.86723 -0.227164 0
M  V30 4277 O 404.529 1.6286 0.796642 0
M  V30 4278 C 404.577 2.49399 -2.60447 0
M  V30 4279 O 403.681 3.51567 -2.15578 0
M  V30 4280 H 403.022 0.400115 -0.52991 0
M  V30 4281 H 405.552 0.676009 -1.93109 0
M  V30 4282 H 405.562 2.95996 -2.80803 0
M  V30 4283 H 404.237 2.10873 -3.58477 0
M  V30 4284 H 402.814 3.11289 -2.05313 0
M  V30 4285 O 405.038 1.45356 0.703831 0
M  V30 4286 H 405.729 1.38392 1.35526 0
M  V30 END ATOM
M  V30 BEGIN BOND
M  V30 END BOND
M  V30 END CTAB
M  END
$$$$
