drugbank_target|Q15758 Neutral amino acid transporter B(0) (DB00174; DB13146)
 OpenBabel12092119273D

  0  0  0     0  0            999 V3000
M  V30 BEGIN CTAB
M  V30 COUNTS 8117 8189 0 0 0
M  V30 BEGIN ATOM
M  V30 1 H -0.908 1.98254 -0.117106 0
M  V30 2 N 0 1.576 0 0
M  V30 3 C 0.933 2.03868 1.02534 0
M  V30 4 C 1.911 0.928543 1.3348 0
M  V30 5 O 3.095 1.19667 1.45644 0
M  V30 6 C 0.222 2.43627 2.35294 0
M  V30 7 C -0.732 3.65373 2.2001 0
M  V30 8 S 0.101 5.13292 1.52614 0
M  V30 9 C 1.257 5.56322 2.86805 0
M  V30 10 H 1.49 2.90518 0.631377 0
M  V30 11 H -0.977 1.52953 0.210867 0
M  V30 12 H 0.981 2.67203 3.11629 0
M  V30 13 H -0.358 1.57376 2.7183 0
M  V30 14 H -1.165 3.90944 3.18086 0
M  V30 15 H -1.563 3.418 1.51819 0
M  V30 16 H 0.729 5.58782 3.83104 0
M  V30 17 H 1.672 6.56266 2.65933 0
M  V30 18 H 2.08 4.83886 2.90714 0
M  V30 19 N 1.4781 -0.272755 1.55222 0
M  V30 20 C 2.7241 -1.00581 1.761 0
M  V30 21 C 3.0571 -1.85932 0.560625 0
M  V30 22 O 2.3321 -1.89416 -0.441801 0
M  V30 23 C 2.6151 -1.88816 3.06628 0
M  V30 24 C 2.4681 -1.06457 4.37021 0
M  V30 25 C 3.7871 -2.8752 3.33197 0
M  V30 26 H 0.9061 -0.364244 0.640699 0
M  V30 27 H 3.5481 -0.278189 1.87952 0
M  V30 28 H 1.6981 -2.50856 2.96654 0
M  V30 29 H 3.3701 -0.464863 4.58952 0
M  V30 30 H 1.6131 -0.368043 4.32236 0
M  V30 31 H 2.2841 -1.71514 5.24678 0
M  V30 32 H 4.7601 -2.35615 3.42965 0
M  V30 33 H 3.6361 -3.46399 4.25792 0
M  V30 34 H 3.8971 -3.62657 2.52849 0
M  V30 35 N 2.9562 -1.48159 -0.537278 0
M  V30 36 C 3.9192 -1.61665 -1.62472 0
M  V30 37 C 4.9192 -0.490395 -1.5314 0
M  V30 38 O 6.1092 -0.755998 -1.5694 0
M  V30 39 C 3.2412 -1.57997 -3.02076 0
M  V30 40 H 4.4342 -2.58621 -1.51839 0
M  V30 41 H 1.9872 -1.36647 -0.758771 0
M  V30 42 H 2.7222 -0.624913 -3.18222 0
M  V30 43 H 2.5072 -2.39755 -3.10258 0
M  V30 44 H 3.9972 -1.70627 -3.81151 0
M  V30 45 N 4.4343 0.785586 -1.36625 0
M  V30 46 C 5.7113 1.53198 -1.21613 0
M  V30 47 C 6.0913 2.10187 0.196113 0
M  V30 48 O 5.4393 1.94318 1.20219 0
M  V30 49 C 5.6493 2.62388 -2.30116 0
M  V30 50 C 6.9973 3.30167 -2.66974 0
M  V30 51 O 8.0213 2.72674 -2.29188 0
M  V30 52 O 6.8803 4.34077 -3.32023 0
M  V30 53 H 3.9743 0.677865 -0.473738 0
M  V30 54 H 6.5203 0.823739 -1.48367 0
M  V30 55 H 5.2923 2.18299 -3.24748 0
M  V30 56 H 4.9153 3.40827 -2.0475 0
M  V30 57 N 5.9124 1.20967 1.01018 0
M  V30 58 C 7.3234 1.02319 1.56165 0
M  V30 59 C 7.6744 -0.418546 1.91684 0
M  V30 60 O 6.7994 -1.30096 1.72928 0
M  V30 61 C 7.3944 1.85109 2.8376 0
M  V30 62 C 5.9534 1.70809 3.35412 0
M  V30 63 C 5.1004 1.82643 2.08655 0
M  V30 64 H 8.0514 1.35065 0.833255 0
M  V30 65 H 8.0724 1.35827 3.55431 0
M  V30 66 H 7.5844 2.90035 2.57878 0
M  V30 67 H 5.6854 0.685464 3.66241 0
M  V30 68 H 5.7984 2.52467 4.07182 0
M  V30 69 H 4.1624 1.25896 2.21409 0
M  V30 70 H 4.9454 2.89066 1.85191 0
M  V30 71 N 7.3905 -1.2043 1.01659 0
M  V30 72 C 8.8015 -1.71517 0.737482 0
M  V30 73 C 9.1525 -1.81547 -0.743973 0
M  V30 74 O 8.2775 -1.47803 -1.58061 0
M  V30 75 C 8.8725 -3.11515 1.33206 0
M  V30 76 C 7.4315 -3.59912 1.10183 0
M  V30 77 C 6.5785 -2.37116 1.43776 0
M  V30 78 H 9.5295 -1.05444 1.18606 0
M  V30 79 H 9.5505 -3.73575 0.722636 0
M  V30 80 H 9.0625 -3.04182 2.41028 0
M  V30 81 H 7.1635 -3.72577 0.0412756 0
M  V30 82 H 7.2765 -4.44731 1.78188 0
M  V30 83 H 5.6405 -2.39857 0.856778 0
M  V30 84 H 6.4235 -2.32424 2.52654 0
M  V30 85 N 8.8686 -0.792821 -1.36206 0
M  V30 86 C 10.2846 -0.474903 -1.52371 0
M  V30 87 C 10.4846 1.00622 -1.74578 0
M  V30 88 O 9.5406 1.79162 -1.77924 0
M  V30 89 C 10.8536 -1.3083 -2.70747 0
M  V30 90 C 12.4016 -1.30234 -2.84619 0
M  V30 91 C 12.8766 -2.11956 -4.06004 0
M  V30 92 N 14.3676 -2.09419 -4.13156 0
M  V30 93 C 15.1026 -2.69419 -5.06163 0
M  V30 94 N 14.5986 -3.3829 -6.04592 0
M  V30 95 N 16.3916 -2.59134 -4.98804 0
M  V30 96 H 8.5426 -1.75222 -1.20046 0
M  V30 97 H 10.8056 -0.745024 -0.586211 0
M  V30 98 H 10.5116 -2.35881 -2.6087 0
M  V30 99 H 10.3856 -0.95196 -3.6499 0
M  V30 100 H 12.7726 -0.259748 -2.93955 0
M  V30 101 H 12.8536 -1.69847 -1.91274 0
M  V30 102 H 12.4976 -3.16248 -3.97429 0
M  V30 103 H 12.4276 -1.69711 -4.98503 0
M  V30 104 H 14.9186 -1.59297 -3.42685 0
M  V30 105 H 15.2316 -3.81394 -6.7213 0
M  V30 106 H 13.5766 -3.42393 -6.04807 0
M  V30 107 H 16.7676 -2.04927 -4.20859 0
M  V30 108 H 16.9406 -3.06185 -5.711 0
M  V30 109 N 10.3467 1.47872 -0.545128 0
M  V30 110 C 11.6237 1.9554 0.0485222 0
M  V30 111 C 12.0037 1.4876 1.49779 0
M  V30 112 O 11.3517 0.720925 2.16829 0
M  V30 113 C 11.5617 3.48898 -0.084417 0
M  V30 114 C 12.9097 4.24547 0.0671239 0
M  V30 115 O 13.9337 3.56198 -0.0113649 0
M  V30 116 O 12.7927 5.45999 0.233882 0
M  V30 117 H 9.8867 0.823957 0.0708773 0
M  V30 118 H 12.4327 1.58327 -0.610798 0
M  V30 119 H 11.2047 3.75714 -1.09337 0
M  V30 120 H 10.8277 3.92845 0.613066 0
M  V30 121 N 11.8248 0.280983 1.55075 0
M  V30 122 C 13.0498 -0.340154 2.04592 0
M  V30 123 C 13.4748 -1.48246 1.15779 0
M  V30 124 O 12.8328 -1.80614 0.15761 0
M  V30 125 C 12.8808 -0.793104 3.5177 0
M  V30 126 O 11.9848 -1.89981 3.66034 0
M  V30 127 H 11.3258 -0.0694289 0.66036 0
M  V30 128 H 13.8558 0.416993 2.00306 0
M  V30 129 H 13.8658 -1.08729 3.93245 0
M  V30 130 H 12.5408 0.0426163 4.15878 0
M  V30 131 H 11.1178 -1.60771 3.36463 0
M  V30 132 N 13.3029 -1.57598 0.00835791 0
M  V30 133 C 14.2499 -2.08945 -0.980346 0
M  V30 134 C 15.2199 -0.986738 -1.33614 0
M  V30 135 O 16.4049 -1.25968 -1.43306 0
M  V30 136 C 13.5449 -2.60425 -2.26435 0
M  V30 137 C 12.6579 -3.84628 -1.96685 0
M  V30 138 C 11.7929 -4.24579 -3.19228 0
M  V30 139 C 10.8319 -5.41596 -2.85202 0
M  V30 140 N 9.9689 -5.768 -4.00307 0
M  V30 141 H 14.8089 -2.93148 -0.535551 0
M  V30 142 H 12.3459 -1.44912 -0.252776 0
M  V30 143 H 14.3039 -2.88354 -3.01509 0
M  V30 144 H 12.9339 -1.79083 -2.68568 0
M  V30 145 H 11.9859 -3.63556 -1.11942 0
M  V30 146 H 13.2979 -4.69796 -1.67611 0
M  V30 147 H 12.4519 -4.53834 -4.02641 0
M  V30 148 H 11.1909 -3.38137 -3.51447 0
M  V30 149 H 10.1959 -5.12056 -2.00198 0
M  V30 150 H 11.4209 -6.29721 -2.54222 0
M  V30 151 H 9.3669 -4.93316 -4.32407 0
M  V30 152 H 9.2839 -6.5656 -3.74786 0
M  V30 153 H 10.5519 -6.10652 -4.84484 0
M  V30 154 N 14.781 0.264519 -1.55364 0
M  V30 155 C 16.029 0.993021 -1.76021 0
M  V30 156 C 16.35 1.86511 -0.569099 0
M  V30 157 O 15.62 1.91438 0.415735 0
M  V30 158 H 14.2 0.369639 -0.649135 0
M  V30 159 H 16.862 0.286707 -1.9278 0
M  V30 160 H 15.958 1.62502 -2.66457 0
M  V30 161 N 16.2591 1.48442 0.529413 0
M  V30 162 C 17.1891 1.65902 1.64313 0
M  V30 163 C 18.1701 0.507897 1.6234 0
M  V30 164 O 19.3551 0.740503 1.79528 0
M  V30 165 C 16.4851 1.69911 3.02898 0
M  V30 166 C 15.4391 2.8453 3.19729 0
M  V30 167 C 14.7651 2.73629 4.59381 0
M  V30 168 C 16.0651 4.25821 3.02447 0
M  V30 169 H 17.7591 2.5914 1.49955 0
M  V30 170 H 15.3051 1.24709 0.719982 0
M  V30 171 H 17.2581 1.80715 3.80684 0
M  V30 172 H 15.9821 0.732524 3.18279 0
M  V30 173 H 14.6411 2.73283 2.44361 0
M  V30 174 H 14.2891 1.74938 4.71599 0
M  V30 175 H 13.9891 3.50541 4.71588 0
M  V30 176 H 15.5131 2.86401 5.39265 0
M  V30 177 H 16.9271 4.37898 3.70024 0
M  V30 178 H 15.3241 5.03735 3.26146 0
M  V30 179 H 16.3941 4.42244 1.98867 0
M  V30 180 N 17.7372 -0.778329 1.37039 0
M  V30 181 C 18.7002 -1.87301 1.32102 0
M  V30 182 C 19.7002 -1.59198 0.226405 0
M  V30 183 O 20.8902 -1.67403 0.481861 0
M  V30 184 C 18.0222 -3.24309 1.05055 0
M  V30 185 H 19.2152 -1.93093 2.29467 0
M  V30 186 H 16.7682 -0.977358 1.21973 0
M  V30 187 H 17.5032 -3.24196 0.0819373 0
M  V30 188 H 17.2882 -3.46098 1.84279 0
M  V30 189 H 18.7782 -4.04382 1.04234 0
M  V30 190 N 19.2153 -1.21501 -1.00376 0
M  V30 191 C 20.1783 -0.976927 -2.07337 0
M  V30 192 C 21.1783 0.0525322 -1.60714 0
M  V30 193 O 22.3683 -0.184869 -1.73216 0
M  V30 194 C 19.5003 -0.473423 -3.37597 0
M  V30 195 H 20.6933 -1.92587 -2.29892 0
M  V30 196 H 18.2463 -1.03217 -1.17371 0
M  V30 197 H 18.9813 0.480379 -3.20722 0
M  V30 198 H 18.7663 -1.216 -3.72768 0
M  V30 199 H 20.2563 -0.32675 -4.1632 0
M  V30 200 N 20.6934 1.19889 -1.02296 0
M  V30 201 C 21.6564 2.21116 -0.603351 0
M  V30 202 C 22.6564 1.5738 0.329884 0
M  V30 203 O 23.8464 1.73802 0.117702 0
M  V30 204 C 20.9784 3.40696 0.117992 0
M  V30 205 H 22.1714 2.59754 -1.49893 0
M  V30 206 H 19.7244 1.33463 -0.813468 0
M  V30 207 H 20.4594 3.07569 1.0282 0
M  V30 208 H 20.2444 3.88188 -0.552511 0
M  V30 209 H 21.7344 4.15692 0.398696 0
M  V30 210 N 22.1715 0.800033 1.35784 0
M  V30 211 C 23.0815 0.207204 2.33683 0
M  V30 212 C 24.0975 -0.64631 1.61551 0
M  V30 213 O 25.2735 -0.559604 1.93469 0
M  V30 214 C 22.3385 -0.639659 3.40748 0
M  V30 215 C 21.3995 0.233585 4.28664 0
M  V30 216 C 20.6325 -0.572954 5.30616 0
M  V30 217 O 20.8555 -1.80816 5.40982 0
M  V30 218 O 19.7895 0.0327285 6.01891 0
M  V30 219 H 23.6155 1.01692 2.86169 0
M  V30 220 H 21.2005 0.561691 1.38439 0
M  V30 221 H 23.0825 -1.12223 4.06182 0
M  V30 222 H 21.7575 -1.42708 2.90544 0
M  V30 223 H 20.6645 0.763147 3.66233 0
M  V30 224 H 21.9975 0.984784 4.82248 0
M  V30 225 N 23.6496 -1.47581 0.552962 0
M  V30 226 C 25.0606 -1.86324 0.118463 0
M  V30 227 C 25.4116 -1.46006 -1.3106 0
M  V30 228 O 24.5366 -0.861182 -1.98526 0
M  V30 229 C 25.1316 -3.3816 0.20821 0
M  V30 230 C 23.6906 -3.7601 -0.171226 0
M  V30 231 C 22.8376 -2.71634 0.557686 0
M  V30 232 H 25.7886 -1.39159 0.762928 0
M  V30 233 H 25.8096 -3.76141 -0.574278 0
M  V30 234 H 25.3216 -3.67473 1.24841 0
M  V30 235 H 23.4226 -3.52313 -1.21269 0
M  V30 236 H 23.5356 -4.78745 0.184379 0
M  V30 237 H 21.8996 -2.547 0.00125792 0
M  V30 238 H 22.6826 -3.0379 1.59896 0
M  V30 239 N 25.1277 -0.289203 -1.54924 0
M  V30 240 C 26.3557 0.326463 -2.04308 0
M  V30 241 C 26.7707 1.48413 -1.16701 0
M  V30 242 O 26.1277 1.81507 -0.190087 0
M  V30 243 C 26.1787 0.794014 -3.52672 0
M  V30 244 O 25.8997 -0.317564 -4.36948 0
M  V30 245 C 27.4007 1.47605 -4.18004 0
M  V30 246 H 24.6207 0.0726272 -0.667058 0
M  V30 247 H 27.1647 -0.425401 -2.00026 0
M  V30 248 H 25.3197 1.49593 -3.57352 0
M  V30 249 H 25.7337 0.0443186 -5.24481 0
M  V30 250 H 27.2077 1.75447 -5.23376 0
M  V30 251 H 27.6847 2.41224 -3.67025 0
M  V30 252 H 28.2907 0.81762 -4.17367 0
M  V30 253 N 26.6058 1.57591 -0.0167156 0
M  V30 254 C 27.5688 2.08393 0.954204 0
M  V30 255 C 28.5688 0.996531 1.26198 0
M  V30 256 O 29.7588 1.25858 1.20438 0
M  V30 257 C 26.8908 2.5394 2.27436 0
M  V30 258 H 28.0838 2.95455 0.514451 0
M  V30 259 H 25.6368 1.54582 0.231089 0
M  V30 260 H 26.3718 1.70171 2.76066 0
M  V30 261 H 26.1568 3.33371 2.06412 0
M  V30 262 H 27.6468 2.93512 2.97053 0
M  V30 263 N 28.0839 -0.256276 1.55502 0
M  V30 264 C 29.0319 -1.33694 1.90338 0
M  V30 265 C 30.0259 -1.50299 0.781441 0
M  V30 266 O 31.2319 -1.51885 0.965966 0
M  V30 267 H 27.6069 -0.447483 0.60437 0
M  V30 268 H 29.5779 -1.01574 2.8058 0
M  V30 269 C 28.3269 -2.68724 2.20642 0
M  V30 270 H 27.6499 -2.56743 3.06469 0
M  V30 271 H 29.0899 -3.43237 2.48926 0
M  V30 272 C 27.5489 -3.21101 1.01959 0
M  V30 273 O 28.0789 -4.0084 0.262762 0
M  V30 274 N 26.2849 -2.79003 0.812746 0
M  V30 275 H 25.8319 -2.14271 1.42989 0
M  V30 276 H 25.7899 -3.14393 0.0203076 0
M  V30 277 N 29.562 -1.4872 -0.521534 0
M  V30 278 C 30.81 -1.56857 -1.27437 0
M  V30 279 C 31.131 -0.247982 -1.93417 0
M  V30 280 O 30.401 0.731151 -1.81744 0
M  V30 281 H 28.981 -0.577885 -0.473347 0
M  V30 282 H 31.643 -1.85233 -0.606205 0
M  V30 283 H 30.739 -2.35402 -2.0492 0
M  V30 284 N 31.0401 0.771051 -1.3745 0
M  V30 285 C 32.2881 1.52661 -1.32435 0
M  V30 286 C 32.6091 1.9479 0.0905024 0
M  V30 287 O 31.8791 1.66348 1.03466 0
M  V30 288 H 30.4591 0.566218 -0.487244 0
M  V30 289 H 33.1211 0.917636 -1.71946 0
M  V30 290 H 32.2171 2.42568 -1.96385 0
M  V30 291 N 32.5182 1.22032 0.997298 0
M  V30 292 C 33.4482 1.01065 2.10495 0
M  V30 293 C 34.4292 -0.0669542 1.69968 0
M  V30 294 O 35.6142 0.0943987 1.9397 0
M  V30 295 C 32.7442 0.582874 3.42374 0
M  V30 296 C 31.6982 1.60592 3.96729 0
M  V30 297 C 31.0242 1.03412 5.24605 0
M  V30 298 C 32.3242 2.99478 4.27914 0
M  V30 299 H 34.0182 1.93708 2.28292 0
M  V30 300 H 31.5642 0.932761 1.09707 0
M  V30 301 H 33.5172 0.423332 4.19268 0
M  V30 302 H 32.2412 -0.379213 3.24391 0
M  V30 303 H 30.9002 1.75316 3.21963 0
M  V30 304 H 30.5482 0.063518 5.0296 0
M  V30 305 H 30.2482 1.71754 5.61938 0
M  V30 306 H 31.7722 0.886066 6.04137 0
M  V30 307 H 33.1862 2.88153 4.95622 0
M  V30 308 H 31.5832 3.64903 4.76409 0
M  V30 309 H 32.6532 3.49742 3.3587 0
M  V30 310 N 33.9963 -1.19345 1.0293 0
M  V30 311 C 34.9593 -2.20793 0.615069 0
M  V30 312 C 35.9593 -1.57553 -0.321533 0
M  V30 313 O 37.1493 -1.73862 -0.108483 0
M  V30 314 C 34.2813 -3.40754 -0.0999222 0
M  V30 315 H 35.4743 -2.58955 1.51269 0
M  V30 316 H 33.0273 -1.3303 0.820534 0
M  V30 317 H 33.7623 -3.0811 -1.01187 0
M  V30 318 H 33.5473 -3.87889 0.57309 0
M  V30 319 H 35.0373 -4.15898 -0.376645 0
M  V30 320 N 35.4744 -0.807222 -1.35358 0
M  V30 321 C 36.4044 -0.232509 -2.3234 0
M  V30 322 C 37.3854 0.642386 -1.57504 0
M  V30 323 O 38.5704 0.572526 -1.85569 0
M  V30 324 C 35.7004 0.619238 -3.41735 0
M  V30 325 C 34.6544 -0.157215 -4.27711 0
M  V30 326 C 33.9804 0.816273 -5.28433 0
M  V30 327 C 35.2804 -1.35656 -5.04376 0
M  V30 328 H 36.9744 -1.04276 -2.80654 0
M  V30 329 H 34.5204 -0.50288 -1.34934 0
M  V30 330 H 36.4734 1.03137 -4.08584 0
M  V30 331 H 35.1974 1.46239 -2.92031 0
M  V30 332 H 33.8564 -0.550525 -3.62443 0
M  V30 333 H 33.5044 1.65494 -4.74996 0
M  V30 334 H 33.2044 0.301067 -5.86828 0
M  V30 335 H 34.7284 1.22659 -5.98153 0
M  V30 336 H 36.1424 -1.01927 -5.64166 0
M  V30 337 H 34.5394 -1.8063 -5.7227 0
M  V30 338 H 35.6094 -2.14288 -4.34981 0
M  V30 339 N 36.9525 1.47285 -0.560781 0
M  V30 340 C 37.9155 2.28535 0.174488 0
M  V30 341 C 38.9155 1.37153 0.839388 0
M  V30 342 O 40.1055 1.59748 0.694702 0
M  V30 343 C 37.2375 3.16934 1.25561 0
M  V30 344 H 38.4305 2.95012 -0.539262 0
M  V30 345 H 35.9835 1.53034 -0.317865 0
M  V30 346 H 36.7185 2.55157 2.00164 0
M  V30 347 H 36.5035 3.8419 0.783604 0
M  V30 348 H 37.9935 3.78143 1.77193 0
M  V30 349 N 38.4306 0.297415 1.54768 0
M  V30 350 C 39.6556 -0.318435 2.04941 0
M  V30 351 C 40.0806 -1.4701 1.17345 0
M  V30 352 O 39.4386 -1.80436 0.176758 0
M  V30 353 C 39.4866 -0.755749 3.52592 0
M  V30 354 O 38.5906 -1.86088 3.68028 0
M  V30 355 H 37.9316 -0.062421 0.661059 0
M  V30 356 H 40.4616 0.438215 1.99852 0
M  V30 357 H 40.4716 -1.04552 3.94376 0
M  V30 358 H 39.1466 0.0867233 4.1581 0
M  V30 359 H 37.7236 -1.57193 3.38149 0
M  V30 360 N 39.9087 -1.5758 0.0250728 0
M  V30 361 C 41.1577 -1.90811 -0.653767 0
M  V30 362 C 41.4707 -0.90273 -1.73523 0
M  V30 363 O 42.6767 -1.12614 -2.47043 0
M  V30 364 C 41.1327 -3.38804 -1.21409 0
M  V30 365 C 40.7407 -4.47692 -0.166126 0
M  V30 366 C 42.4847 -3.81108 -1.86967 0
M  V30 367 C 40.3917 -5.86779 -0.737856 0
M  V30 368 H 39.3217 -0.712063 -0.247956 0
M  V30 369 H 41.9727 -1.83281 0.0897137 0
M  V30 370 H 40.3547 -3.41252 -2.00905 0
M  V30 371 H 41.5287 -4.56797 0.606079 0
M  V30 372 H 39.8437 -4.14565 0.390466 0
M  V30 373 H 42.4407 -4.82375 -2.30692 0
M  V30 374 H 42.7837 -3.15953 -2.71071 0
M  V30 375 H 43.3167 -3.81065 -1.14167 0
M  V30 376 H 40.0557 -6.55468 0.0649577 0
M  V30 377 H 39.5757 -5.81288 -1.47864 0
M  V30 378 H 41.2547 -6.35223 -1.22884 0
M  V30 379 N 41.3868 0.248026 -1.55636 0
M  V30 380 C 42.2968 1.32859 -1.93354 0
M  V30 381 C 43.3128 1.52719 -0.833838 0
M  V30 382 O 44.4888 1.66363 -1.13513 0
M  V30 383 C 41.5538 2.66337 -2.21958 0
M  V30 384 C 40.6148 2.55008 -3.45354 0
M  V30 385 C 39.8478 3.82121 -3.72584 0
M  V30 386 O 40.0708 4.83951 -3.01907 0
M  V30 387 O 39.0048 3.80822 -4.6611 0
M  V30 388 H 42.8308 1.03862 -2.85388 0
M  V30 389 H 40.4158 0.448686 -1.42503 0
M  V30 390 H 42.2978 3.45216 -2.4167 0
M  V30 391 H 40.9728 2.95068 -1.33103 0
M  V30 392 H 39.8798 1.7442 -3.30951 0
M  V30 393 H 41.2128 2.31222 -4.34508 0
M  V30 394 N 42.8649 1.48995 0.513639 0
M  V30 395 C 44.1419 1.48338 1.27495 0
M  V30 396 C 44.5219 0.204065 2.10111 0
M  V30 397 O 43.8699 -0.813881 2.13514 0
M  V30 398 C 44.0799 2.75498 2.14247 0
M  V30 399 C 45.4279 3.24484 2.73852 0
M  V30 400 O 46.4519 2.76528 2.24523 0
M  V30 401 O 45.3109 4.07974 3.6362 0
M  V30 402 H 42.4049 0.593149 0.576284 0
M  V30 403 H 44.9509 1.61246 0.528948 0
M  V30 404 H 43.7229 3.60109 1.53092 0
M  V30 405 H 43.3459 2.6539 2.96064 0
M  V30 406 N 44.343 -0.763751 1.37857 0
M  V30 407 C 45.275 -1.88664 1.30148 0
M  V30 408 C 46.288 -1.61365 0.215685 0
M  V30 409 O 47.477 -1.72134 0.472459 0
M  V30 410 C 44.577 -3.24075 0.991396 0
M  V30 411 C 43.75 -3.78958 2.18426 0
M  V30 412 C 42.809 -4.92862 1.8432 0
M  V30 413 O 41.835 -5.08027 2.56704 0
M  V30 414 N 43.037 -5.75071 0.792081 0
M  V30 415 H 45.802 -1.95791 2.26905 0
M  V30 416 H 43.363 -0.943226 1.31586 0
M  V30 417 H 45.355 -3.97804 0.743935 0
M  V30 418 H 43.925 -3.12399 0.112122 0
M  V30 419 H 43.145 -2.96913 2.59299 0
M  V30 420 H 44.433 -4.12357 2.98058 0
M  V30 421 H 43.831 -5.65375 0.191595 0
M  V30 422 H 42.388 -6.48991 0.60449 0
M  V30 423 N 45.8211 -1.22559 -0.990812 0
M  V30 424 C 47.0691 -1.04933 -1.72724 0
M  V30 425 C 47.3901 0.416158 -1.90508 0
M  V30 426 O 46.6601 1.29918 -1.46622 0
M  V30 427 H 45.2401 -0.385296 -0.639965 0
M  V30 428 H 47.9021 -1.54105 -1.19322 0
M  V30 429 H 46.9981 -1.52886 -2.72089 0
M  V30 430 N 47.2992 1.18797 -1.03562 0
M  V30 431 C 48.2622 2.20464 -0.626769 0
M  V30 432 C 49.2622 1.57721 0.313173 0
M  V30 433 O 50.4522 1.73917 0.0992615 0
M  V30 434 C 47.5842 3.40802 0.0818498 0
M  V30 435 H 48.7772 2.58149 -1.5264 0
M  V30 436 H 46.3302 1.32593 -0.827578 0
M  V30 437 H 47.0652 3.08642 0.995518 0
M  V30 438 H 46.8502 3.8758 -0.593652 0
M  V30 439 H 48.3402 4.16092 0.354584 0
M  V30 440 N 48.7773 0.814389 1.34928 0
M  V30 441 C 49.7403 0.235759 2.27984 0
M  V30 442 C 50.7403 -0.581412 1.49921 0
M  V30 443 O 51.9303 -0.398758 1.69575 0
M  V30 444 C 49.0623 -0.670433 3.34242 0
M  V30 445 H 50.2553 1.05659 2.80671 0
M  V30 446 H 47.8083 0.585614 1.44915 0
M  V30 447 H 48.5433 -1.51466 2.86755 0
M  V30 448 H 48.3283 -0.0860822 3.92005 0
M  V30 449 H 49.8183 -1.06935 4.03676 0
M  V30 450 N 50.2554 -1.46986 0.568584 0
M  V30 451 C 51.2184 -2.28624 -0.162366 0
M  V30 452 C 52.2184 -1.37596 -0.832103 0
M  V30 453 O 53.4084 -1.60115 -0.68622 0
M  V30 454 C 50.5404 -3.17596 -1.23878 0
M  V30 455 H 51.7334 -2.94722 0.554899 0
M  V30 456 H 49.2864 -1.52863 0.325976 0
M  V30 457 H 50.0214 -2.56214 -1.98808 0
M  V30 458 H 49.8064 -3.846 -0.763219 0
M  V30 459 H 51.2964 -3.79078 -1.75185 0
M  V30 460 N 51.7335 -0.305618 -1.54608 0
M  V30 461 C 52.9815 0.301701 -1.99835 0
M  V30 462 C 53.3025 1.54054 -1.19551 0
M  V30 463 O 52.5725 1.93702 -0.292658 0
M  V30 464 H 51.1525 0.114468 -0.738178 0
M  V30 465 H 53.8145 -0.418016 -1.90364 0
M  V30 466 H 52.9105 0.570548 -3.06841 0
M  V30 467 N 53.2116 1.57565 -0.0334293 0
M  V30 468 C 54.4596 1.91598 0.642999 0
M  V30 469 C 54.7806 0.910847 1.7242 0
M  V30 470 O 54.0506 -0.0469931 1.95844 0
M  V30 471 H 52.6306 0.707228 0.240496 0
M  V30 472 H 55.2926 1.94726 -0.0822488 0
M  V30 473 H 54.3886 2.92336 1.09298 0
M  V30 474 N 54.6897 -0.239769 1.55765 0
M  V30 475 C 55.9197 -0.982743 1.8173 0
M  V30 476 C 56.3277 -1.7917 0.607835 0
M  V30 477 O 55.6707 -1.78525 -0.432973 0
M  V30 478 C 55.7327 -1.96332 3.01155 0
M  V30 479 C 55.3967 -1.34062 4.36894 0
M  V30 480 C 56.3937 -0.739539 5.14613 0
M  V30 481 C 54.0787 -1.35784 4.83599 0
M  V30 482 C 56.0727 -0.163989 6.37189 0
M  V30 483 C 53.7597 -0.778441 6.06122 0
M  V30 484 C 54.7577 -0.182548 6.82756 0
M  V30 485 O 54.4457 0.387887 8.02964 0
M  V30 486 H 54.1777 -0.294481 0.608487 0
M  V30 487 H 56.7317 -0.26572 2.03674 0
M  V30 488 H 54.9617 -2.71884 2.74984 0
M  V30 489 H 56.6507 -2.57032 3.14149 0
M  V30 490 H 57.4167 -0.718687 4.79646 0
M  V30 491 H 53.2957 -1.81105 4.23936 0
M  V30 492 H 56.8397 0.301753 6.96947 0
M  V30 493 H 52.7367 -0.796645 6.40565 0
M  V30 494 H 53.5047 0.28044 8.18019 0
M  V30 495 N 56.1678 -1.49265 -0.50573 0
M  V30 496 C 57.4078 -1.60128 -1.27038 0
M  V30 497 C 57.7718 -0.279557 -1.89954 0
M  V30 498 O 58.9728 -0.263329 -2.67507 0
M  V30 499 C 57.2438 -2.72507 -2.31246 0
M  V30 500 S 58.8028 -3.0329 -3.17113 0
M  V30 501 H 55.6208 -0.564863 -0.4318 0
M  V30 502 H 58.2228 -1.86902 -0.573397 0
M  V30 503 H 56.9268 -3.67068 -1.83546 0
M  V30 504 H 56.4578 -2.4771 -3.05619 0
M  V30 505 H 58.4728 -2.44448 -4.31809 0
M  V30 506 N 57.6459 0.756429 -1.3826 0
M  V30 507 C 58.8939 1.51248 -1.34047 0
M  V30 508 C 59.2149 1.94875 0.0698372 0
M  V30 509 O 58.4849 1.67436 1.01696 0
M  V30 510 H 57.0649 0.561018 -0.493222 0
M  V30 511 H 59.7269 0.899347 -1.7291 0
M  V30 512 H 58.8229 2.40472 -1.98947 0
M  V30 513 N 59.124 1.23083 0.984299 0
M  V30 514 C 60.349 1.088 1.76571 0
M  V30 515 C 60.774 -0.356657 1.84688 0
M  V30 516 O 60.132 -1.25788 1.30565 0
M  V30 517 C 60.18 1.71371 3.17277 0
M  V30 518 O 59.284 0.973213 4.00752 0
M  V30 519 H 58.625 0.381599 0.543395 0
M  V30 520 H 61.155 1.63057 1.23587 0
M  V30 521 H 61.165 1.76449 3.67872 0
M  V30 522 H 59.84 2.76493 3.10684 0
M  V30 523 H 58.417 0.999078 3.59267 0
M  V30 524 N 60.6021 -1.18246 1.0419 0
M  V30 525 C 62.0181 -1.40269 0.761366 0
M  V30 526 C 62.2181 -1.90777 -0.648578 0
M  V30 527 O 61.2741 -2.0929 -1.41258 0
M  V30 528 C 62.5871 -2.40237 1.8085 0
M  V30 529 C 64.1351 -2.53961 1.82955 0
M  V30 530 C 64.6101 -3.57194 2.86664 0
M  V30 531 N 66.1011 -3.64702 2.85563 0
M  V30 532 C 66.8361 -4.44309 3.6246 0
M  V30 533 N 66.3321 -5.27514 4.49111 0
M  V30 534 N 68.1251 -4.39084 3.50944 0
M  V30 535 H 60.2761 -0.837882 1.95175 0
M  V30 536 H 62.5391 -0.430608 0.84456 0
M  V30 537 H 62.2451 -2.10176 2.81991 0
M  V30 538 H 62.1191 -3.39601 1.64168 0
M  V30 539 H 64.5061 -2.83338 0.824855 0
M  V30 540 H 64.5871 -1.54706 2.03715 0
M  V30 541 H 64.2311 -3.28558 3.87314 0
M  V30 542 H 64.1611 -4.5613 2.6316 0
M  V30 543 H 66.6521 -3.05289 2.22727 0
M  V30 544 H 66.9651 -5.85411 5.04493 0
M  V30 545 H 65.3101 -5.2693 4.53178 0
M  V30 546 H 68.5011 -3.7313 2.82651 0
M  V30 547 H 68.6741 -5.00883 4.11121 0
M  V30 548 N 62.0802 -0.821533 -1.34494 0
M  V30 549 C 63.3572 -0.33159 -1.92769 0
M  V30 550 C 63.7372 1.18088 -1.74981 0
M  V30 551 O 63.0852 1.98733 -1.12772 0
M  V30 552 C 63.2952 -0.759398 -3.40638 0
M  V30 553 C 64.6432 -0.757433 -4.1779 0
M  V30 554 O 65.6672 -0.70189 -3.49216 0
M  V30 555 O 64.5262 -0.829361 -5.4017 0
M  V30 556 H 61.6202 -0.0902502 -0.822061 0
M  V30 557 H 64.1662 -0.906231 -1.43477 0
M  V30 558 H 62.9382 -1.8012 -3.47379 0
M  V30 559 H 62.5612 -0.160378 -3.97276 0
M  V30 560 N 63.5583 1.46682 -0.576371 0
M  V30 561 C 64.4903 2.28341 0.198231 0
M  V30 562 C 65.5033 1.38141 0.861453 0
M  V30 563 O 66.6923 1.62797 0.732082 0
M  V30 564 C 63.7923 3.12986 1.29972 0
M  V30 565 C 62.9653 4.31271 0.729639 0
M  V30 566 C 62.0243 4.97363 1.71803 0
M  V30 567 O 61.0503 5.55156 1.25658 0
M  V30 568 N 62.2523 4.93796 3.05198 0
M  V30 569 H 65.0173 2.9546 -0.502324 0
M  V30 570 H 62.5783 1.56525 -0.413715 0
M  V30 571 H 64.5703 3.54066 1.96008 0
M  V30 572 H 63.1403 2.47984 1.90323 0
M  V30 573 H 62.3603 3.94052 -0.108012 0
M  V30 574 H 63.6483 5.07739 0.328438 0
M  V30 575 H 63.0463 4.48077 3.45317 0
M  V30 576 H 61.6033 5.38837 3.6674 0
M  V30 577 N 65.0364 0.313813 1.54444 0
M  V30 578 C 66.2824 -0.292108 2.00685 0
M  V30 579 C 66.6154 -1.52548 1.20177 0
M  V30 580 O 65.8904 -1.92452 0.281531 0
M  V30 581 C 66.1734 -0.635968 3.5444 0
M  V30 582 C 66.0264 0.607437 4.4568 0
M  V30 583 C 67.3454 -1.45747 4.15266 0
M  V30 584 H 64.4644 -0.104697 0.729526 0
M  V30 585 H 67.1064 0.428457 1.85106 0
M  V30 586 H 65.2564 -1.24986 3.67846 0
M  V30 587 H 66.9284 1.24581 4.44159 0
M  V30 588 H 65.1714 1.23822 4.15753 0
M  V30 589 H 65.8424 0.322515 5.51057 0
M  V30 590 H 68.3184 -0.938645 4.05375 0
M  V30 591 H 67.1944 -1.66683 5.2298 0
M  V30 592 H 67.4554 -2.45063 3.67963 0
M  V30 593 N 66.5145 -1.57545 0.0417849 0
M  V30 594 C 67.9305 -1.56467 -0.314704 0
M  V30 595 C 68.1305 -1.04859 -1.72066 0
M  V30 596 O 67.1865 -0.700983 -2.42575 0
M  V30 597 C 68.4995 -3.00317 -0.15174 0
M  V30 598 C 70.0475 -3.12201 -0.223553 0
M  V30 599 C 70.5225 -4.57913 -0.0892295 0
M  V30 600 N 72.0135 -4.6297 -0.145808 0
M  V30 601 C 72.7485 -5.73362 -0.0658459 0
M  V30 602 N 72.2445 -6.92769 0.0659282 0
M  V30 603 N 74.0375 -5.6197 -0.12075 0
M  V30 604 H 66.1885 -1.89416 0.961014 0
M  V30 605 H 68.4515 -0.871862 0.372237 0
M  V30 606 H 68.1575 -3.42073 0.817254 0
M  V30 607 H 68.0315 -3.65892 -0.916692 0
M  V30 608 H 70.4185 -2.70349 -1.18301 0
M  V30 609 H 70.4995 -2.49323 0.571994 0
M  V30 610 H 70.1435 -5.00448 0.866867 0
M  V30 611 H 70.0735 -5.18786 -0.903802 0
M  V30 612 H 72.5645 -3.7709 -0.247286 0
M  V30 613 H 72.8775 -7.72707 0.119905 0
M  V30 614 H 71.2225 -6.94927 0.100885 0
M  V30 615 H 74.4135 -4.67572 -0.222187 0
M  V30 616 H 74.5865 -6.47977 -0.0549735 0
M  V30 617 N 67.9926 0.231505 -1.5589 0
M  V30 618 C 69.4086 0.580748 -1.48659 0
M  V30 619 C 69.6086 1.87617 -0.73498 0
M  V30 620 O 68.6646 2.51046 -0.270586 0
M  V30 621 C 69.9776 0.669202 -2.93159 0
M  V30 622 C 71.5256 0.760499 -3.03621 0
M  V30 623 C 72.0006 0.880383 -4.49459 0
M  V30 624 N 73.4916 0.944861 -4.53461 0
M  V30 625 C 74.2266 1.05716 -5.63571 0
M  V30 626 N 73.7226 1.13403 -6.83456 0
M  V30 627 N 75.5156 1.09152 -5.514 0
M  V30 628 H 67.6666 -0.618695 -2.03189 0
M  V30 629 H 69.9296 -0.215728 -0.923128 0
M  V30 630 H 69.6356 -0.212904 -3.51055 0
M  V30 631 H 69.5096 1.5361 -3.44505 0
M  V30 632 H 71.8966 1.63305 -2.45796 0
M  V30 633 H 71.9776 -0.131864 -2.5546 0
M  V30 634 H 71.6216 0.0123284 -5.07899 0
M  V30 635 H 71.5516 1.78802 -4.95316 0
M  V30 636 H 74.0426 0.896176 -3.6712 0
M  V30 637 H 74.3556 1.21921 -7.63122 0
M  V30 638 H 72.7006 1.10333 -6.86186 0
M  V30 639 H 75.8916 1.02805 -4.56671 0
M  V30 640 H 76.0646 1.17558 -6.37247 0
M  V30 641 N 69.4707 1.49531 0.497807 0
M  V30 642 C 70.7107 1.60799 1.26187 0
M  V30 643 C 71.0747 0.289627 1.89803 0
M  V30 644 O 72.2757 0.277512 2.67364 0
M  V30 645 C 70.5467 2.73729 2.29798 0
M  V30 646 S 72.1057 3.04968 3.155 0
M  V30 647 H 68.9237 0.567145 0.428798 0
M  V30 648 H 71.5257 1.87204 0.563477 0
M  V30 649 H 70.2297 3.68036 1.81597 0
M  V30 650 H 69.7607 2.49328 3.04301 0
M  V30 651 H 71.7757 2.46735 4.30507 0
M  V30 652 N 70.9488 -0.749086 1.3866 0
M  V30 653 C 71.8788 -1.8764 1.38973 0
M  V30 654 C 72.8598 -1.68178 0.255004 0
M  V30 655 O 74.0448 -1.88704 0.458754 0
M  V30 656 C 71.1748 -3.25222 1.21851 0
M  V30 657 C 70.1288 -3.59295 2.32575 0
M  V30 658 C 69.4548 -4.95663 2.00555 0
M  V30 659 C 70.7548 -3.63709 3.7485 0
M  V30 660 H 72.4488 -1.87635 2.3331 0
M  V30 661 H 69.9948 -0.901329 1.12303 0
M  V30 662 H 71.9478 -4.03746 1.20695 0
M  V30 663 H 70.6718 -3.25719 0.239775 0
M  V30 664 H 69.3308 -2.83093 2.32925 0
M  V30 665 H 68.9788 -4.92724 1.01154 0
M  V30 666 H 68.6788 -5.19429 2.74714 0
M  V30 667 H 70.2028 -5.7656 2.01024 0
M  V30 668 H 71.6168 -4.32338 3.76506 0
M  V30 669 H 70.0138 -3.98986 4.48252 0
M  V30 670 H 71.0838 -2.63834 4.06841 0
M  V30 671 N 72.4269 -1.23603 -0.977757 0
M  V30 672 C 73.8429 -0.999251 -1.24447 0
M  V30 673 C 74.0429 0.298053 -1.99283 0
M  V30 674 O 73.0989 1.01681 -2.31122 0
M  V30 675 C 74.4119 -2.20784 -2.04144 0
M  V30 676 C 75.9599 -2.25303 -2.17273 0
M  V30 677 C 76.4349 -3.45755 -3.00362 0
M  V30 678 N 77.9259 -3.4601 -3.07947 0
M  V30 679 C 78.6609 -4.35868 -3.72568 0
M  V30 680 N 78.1569 -5.35966 -4.38991 0
M  V30 681 N 79.9499 -4.23605 -3.6948 0
M  V30 682 H 72.1009 -2.06986 -0.476483 0
M  V30 683 H 74.3639 -0.907801 -0.273134 0
M  V30 684 H 74.0699 -3.14945 -1.56533 0
M  V30 685 H 73.9439 -2.22085 -3.04891 0
M  V30 686 H 76.3309 -1.3168 -2.64092 0
M  V30 687 H 76.4119 -2.28033 -1.15907 0
M  V30 688 H 76.0559 -4.39687 -2.5424 0
M  V30 689 H 75.9859 -3.40266 -4.01904 0
M  V30 690 H 78.4769 -2.73588 -2.60688 0
M  V30 691 H 78.7899 -6.00783 -4.86086 0
M  V30 692 H 77.1349 -5.39863 -4.37691 0
M  V30 693 H 80.3259 -3.44647 -3.16759 0
M  V30 694 H 80.4989 -4.93836 -4.1956 0
M  V30 695 N 73.905 1.17692 -1.04816 0
M  V30 696 C 74.868 2.19787 -0.650117 0
M  V30 697 C 75.868 1.58044 0.296427 0
M  V30 698 O 77.058 1.74012 0.0808097 0
M  V30 699 C 74.19 3.40869 0.0456987 0
M  V30 700 H 75.383 2.56516 -1.5537 0
M  V30 701 H 72.936 1.31708 -0.841594 0
M  V30 702 H 73.671 3.09681 0.962726 0
M  V30 703 H 73.456 3.86928 -0.634727 0
M  V30 704 H 74.946 4.16445 0.310432 0
M  V30 705 N 75.3831 0.828654 1.34056 0
M  V30 706 C 76.3311 0.242973 2.31327 0
M  V30 707 C 77.3251 -0.61944 1.57668 0
M  V30 708 O 78.5311 -0.51014 1.7262 0
M  V30 709 H 74.9061 0.059834 0.749616 0
M  V30 710 H 76.8771 1.07809 2.78244 0
M  V30 711 C 75.6261 -0.575733 3.429 0
M  V30 712 H 74.9491 0.0785582 3.99723 0
M  V30 713 H 76.3891 -0.951547 4.13185 0
M  V30 714 C 74.8481 -1.75044 2.87856 0
M  V30 715 O 75.3781 -2.84882 2.83205 0
M  V30 716 N 73.5841 -1.56903 2.44602 0
M  V30 717 H 73.1311 -0.675547 2.48584 0
M  V30 718 H 73.0891 -2.35652 2.08124 0
M  V30 719 N 76.8612 -1.46375 0.584142 0
M  V30 720 C 77.7912 -2.33103 -0.136037 0
M  V30 721 C 78.7722 -1.45431 -0.882255 0
M  V30 722 O 79.9572 -1.74246 -0.857434 0
M  V30 723 C 77.0872 -3.27731 -1.14933 0
M  V30 724 C 76.0412 -4.24855 -0.517862 0
M  V30 725 C 75.3672 -5.09001 -1.63773 0
M  V30 726 C 76.6672 -5.19439 0.545886 0
M  V30 727 H 78.3612 -2.93568 0.588086 0
M  V30 728 H 75.9072 -1.41166 0.284259 0
M  V30 729 H 77.8602 -3.87261 -1.66153 0
M  V30 730 H 76.5842 -2.65377 -1.90375 0
M  V30 731 H 75.2432 -3.6659 -0.0267361 0
M  V30 732 H 74.8912 -4.43031 -2.38185 0
M  V30 733 H 74.5912 -5.74777 -1.22085 0
M  V30 734 H 76.1152 -5.71396 -2.15266 0
M  V30 735 H 77.5292 -5.73177 0.118704 0
M  V30 736 H 75.9262 -5.93566 0.88317 0
M  V30 737 H 76.9962 -4.63285 1.43162 0
M  V30 738 N 78.3393 -0.321999 -1.54275 0
M  V30 739 C 79.2693 0.537411 -2.27231 0
M  V30 740 C 80.2503 1.12064 -1.27968 0
M  V30 741 O 81.4353 1.14606 -1.56777 0
M  V30 742 C 78.5653 1.69919 -3.02894 0
M  V30 743 C 77.5193 1.24534 -4.09482 0
M  V30 744 C 76.8453 2.49394 -4.72977 0
M  V30 745 C 78.1453 0.361335 -5.21049 0
M  V30 746 H 79.8393 -0.0711406 -2.99315 0
M  V30 747 H 77.3853 -0.0356555 -1.43956 0
M  V30 748 H 79.3383 2.30668 -3.52662 0
M  V30 749 H 78.0623 2.33431 -2.28424 0
M  V30 750 H 76.7213 0.660782 -3.60596 0
M  V30 751 H 76.3693 3.11265 -3.95124 0
M  V30 752 H 76.0693 2.19718 -5.44975 0
M  V30 753 H 77.5933 3.10908 -5.25517 0
M  V30 754 H 79.0073 0.875072 -5.66582 0
M  V30 755 H 77.4043 0.157428 -5.99893 0
M  V30 756 H 78.4743 -0.60822 -4.8107 0
M  V30 757 N 79.8174 1.5752 -0.0501392 0
M  V30 758 C 81.0634 1.92936 0.624798 0
M  V30 759 C 81.3964 0.928685 1.70555 0
M  V30 760 O 80.6714 -0.0454779 1.94447 0
M  V30 761 C 80.9544 3.38737 1.22185 0
M  V30 762 C 80.8074 4.49552 0.149218 0
M  V30 763 C 82.1264 3.84913 2.13378 0
M  V30 764 H 79.2454 0.701604 0.225657 0
M  V30 765 H 81.8874 1.89671 -0.111693 0
M  V30 766 H 80.0374 3.4165 1.84953 0
M  V30 767 H 81.7094 4.58768 -0.482648 0
M  V30 768 H 79.9524 4.30638 -0.522841 0
M  V30 769 H 80.6234 5.48653 0.606966 0
M  V30 770 H 83.0994 3.8387 1.60572 0
M  V30 771 H 81.9754 4.87584 2.52097 0
M  V30 772 H 82.2364 3.21611 3.03346 0
M  V30 773 N 81.2955 -0.223234 1.56011 0
M  V30 774 C 82.2255 -1.27988 1.95298 0
M  V30 775 C 83.2065 -1.48976 0.820979 0
M  V30 776 O 84.3915 -1.61188 1.08315 0
M  V30 777 C 81.5215 -2.63 2.26822 0
M  V30 778 C 80.4755 -2.56671 3.42497 0
M  V30 779 C 79.8015 -3.95697 3.59622 0
M  V30 780 C 81.1015 -2.11601 4.77517 0
M  V30 781 H 82.7955 -0.953525 2.8381 0
M  V30 782 H 80.3415 -0.457244 1.36548 0
M  V30 783 H 82.2945 -3.37077 2.52898 0
M  V30 784 H 81.0185 -2.9732 1.35161 0
M  V30 785 H 79.6775 -1.85051 3.16467 0
M  V30 786 H 79.3255 -4.27322 2.6534 0
M  V30 787 H 79.0255 -3.92345 4.37424 0
M  V30 788 H 80.5495 -4.71438 3.88044 0
M  V30 789 H 81.9635 -2.7542 5.02809 0
M  V30 790 H 80.3605 -2.19311 5.5859 0
M  V30 791 H 81.4305 -1.06824 4.72987 0
M  V30 792 N 82.7736 -1.49793 -0.48987 0
M  V30 793 C 83.7036 -1.70201 -1.59856 0
M  V30 794 C 84.6846 -0.55076 -1.60937 0
M  V30 795 O 85.8696 -0.787841 -1.77501 0
M  V30 796 C 82.9996 -1.77882 -2.98287 0
M  V30 797 C 81.9536 -2.92907 -3.12073 0
M  V30 798 C 81.2796 -2.85712 -4.51965 0
M  V30 799 C 82.5796 -4.3369 -2.91051 0
M  V30 800 H 84.2736 -2.63025 -1.43032 0
M  V30 801 H 81.8196 -1.26574 -0.686664 0
M  V30 802 H 83.7726 -1.90744 -3.75759 0
M  V30 803 H 82.4966 -0.816653 -3.16225 0
M  V30 804 H 81.1556 -2.79665 -2.37029 0
M  V30 805 H 80.8036 -1.8738 -4.66795 0
M  V30 806 H 80.5036 -3.62921 -4.62128 0
M  V30 807 H 82.0276 -3.00598 -5.31482 0
M  V30 808 H 83.4416 -4.47555 -3.58284 0
M  V30 809 H 81.8386 -5.12205 -3.12675 0
M  V30 810 H 82.9086 -4.47362 -1.87071 0
M  V30 811 N 84.2517 0.741722 -1.39055 0
M  V30 812 C 85.4797 1.53098 -1.39171 0
M  V30 813 C 85.8947 1.88794 0.0155099 0
M  V30 814 O 85.2517 1.53626 0.985159 0
M  V30 815 C 85.3027 2.82274 -2.2584 0
M  V30 816 O 85.0237 2.48097 -3.61081 0
M  V30 817 C 86.5247 3.76343 -2.34266 0
M  V30 818 H 83.7447 0.473335 -0.4756 0
M  V30 819 H 86.2887 0.917045 -1.82785 0
M  V30 820 H 84.4437 3.40015 -1.85656 0
M  V30 821 H 84.8577 3.31029 -4.06842 0
M  V30 822 H 86.3317 4.63898 -2.9917 0
M  V30 823 H 86.8087 4.17619 -1.35982 0
M  V30 824 H 87.4147 3.24523 -2.74891 0
M  V30 825 N 85.7298 1.2412 0.971189 0
M  V30 826 C 86.9758 1.08041 1.71625 0
M  V30 827 C 87.3088 -0.380407 1.90438 0
M  V30 828 O 86.5838 -1.28127 1.46334 0
M  V30 829 C 86.8668 1.81682 3.10908 0
M  V30 830 C 86.7198 3.35493 2.99608 0
M  V30 831 C 88.0388 1.58671 4.10501 0
M  V30 832 H 85.1578 0.39388 0.622919 0
M  V30 833 H 87.7998 1.52743 1.13003 0
M  V30 834 H 85.9498 1.43684 3.60953 0
M  V30 835 H 87.6218 3.83068 2.57015 0
M  V30 836 H 85.8648 3.64052 2.35899 0
M  V30 837 H 86.5358 3.82217 3.98264 0
M  V30 838 H 89.0118 1.91719 3.69301 0
M  V30 839 H 87.8878 2.1266 5.06031 0
M  V30 840 H 88.1488 0.524161 4.38982 0
M  V30 841 N 87.2079 -1.17134 1.05439 0
M  V30 842 C 88.4539 -1.87733 0.767077 0
M  V30 843 C 88.7869 -1.8098 -0.704253 0
M  V30 844 O 88.0619 -1.21951 -1.5152 0
M  V30 845 C 88.3449 -3.37659 1.25133 0
M  V30 846 C 88.1979 -3.53149 2.78578 0
M  V30 847 C 89.5169 -4.31768 0.852324 0
M  V30 848 H 86.6359 -0.681687 0.280129 0
M  V30 849 H 89.2779 -1.37732 1.30881 0
M  V30 850 H 87.4279 -3.80373 0.790469 0
M  V30 851 H 89.0999 -3.19434 3.32806 0
M  V30 852 H 87.3429 -2.95345 3.17732 0
M  V30 853 H 88.0139 -4.58403 3.07523 0
M  V30 854 H 90.4899 -3.96909 1.24911 0
M  V30 855 H 89.3659 -5.35199 1.21873 0
M  V30 856 H 89.6269 -4.41429 -0.243485 0
M  V30 857 N 88.686 -0.835752 -1.33615 0
M  V30 858 C 89.649 -0.272 -2.2758 0
M  V30 859 C 90.649 0.557487 -1.50827 0
M  V30 860 O 91.839 0.37173 -1.70188 0
M  V30 861 C 88.971 0.617173 -3.35267 0
M  V30 862 H 90.164 -1.10111 -2.78954 0
M  V30 863 H 87.717 -0.608594 -1.43965 0
M  V30 864 H 88.452 1.46884 -2.89129 0
M  V30 865 H 88.237 0.0237066 -3.92093 0
M  V30 866 H 89.727 1.005 -4.05326 0
M  V30 867 N 90.1641 1.46063 -0.591896 0
M  V30 868 C 91.4101 2.02638 -0.0811191 0
M  V30 869 C 91.7431 1.4613 1.27905 0
M  V30 870 O 91.0181 0.629908 1.84017 0
M  V30 871 C 91.3011 3.60091 -0.0252436 0
M  V30 872 C 91.1541 4.26965 -1.41496 0
M  V30 873 C 92.4731 4.3496 0.670685 0
M  V30 874 H 89.5921 0.73635 -0.0309524 0
M  V30 875 H 92.2341 1.741 -0.760859 0
M  V30 876 H 90.3841 3.84535 0.553624 0
M  V30 877 H 92.0561 4.13756 -2.0397 0
M  V30 878 H 90.2991 3.85971 -1.98011 0
M  V30 879 H 90.9701 5.35781 -1.32825 0
M  V30 880 H 93.4461 4.15716 0.178825 0
M  V30 881 H 92.3221 5.44686 0.678837 0
M  V30 882 H 92.5831 4.06685 1.73379 0
M  V30 883 N 91.6422 0.330177 1.54103 0
M  V30 884 C 92.8882 -0.270806 2.00984 0
M  V30 885 C 93.2212 -1.51265 1.21789 0
M  V30 886 O 92.4962 -1.92142 0.301927 0
M  V30 887 C 92.7792 -0.598339 3.55094 0
M  V30 888 C 92.6322 0.654674 4.4501 0
M  V30 889 C 93.9512 -1.41334 4.16789 0
M  V30 890 H 91.0702 -0.0969531 0.730595 0
M  V30 891 H 93.7122 0.448066 1.84641 0
M  V30 892 H 91.8622 -1.21078 3.69151 0
M  V30 893 H 93.5342 1.29285 4.42813 0
M  V30 894 H 91.7772 1.28224 4.14416 0
M  V30 895 H 92.4482 0.380944 5.50684 0
M  V30 896 H 94.9242 -0.895597 4.06347 0
M  V30 897 H 93.8002 -1.61127 5.24718 0
M  V30 898 H 94.0612 -2.41146 3.70541 0
M  V30 899 N 93.1203 -1.57491 0.0584922 0
M  V30 900 C 94.0833 -2.1085 -0.898617 0
M  V30 901 C 95.0833 -1.02964 -1.23511 0
M  V30 902 O 96.2733 -1.29007 -1.17059 0
M  V30 903 C 93.4053 -2.59881 -2.20623 0
M  V30 904 H 94.5983 -2.96715 -0.435936 0
M  V30 905 H 92.1513 -1.55141 -0.190023 0
M  V30 906 H 92.8863 -1.77431 -2.71457 0
M  V30 907 H 92.6713 -3.38727 -1.97501 0
M  V30 908 H 94.1613 -3.01285 -2.89166 0
M  V30 909 N 94.5984 0.214957 -1.56127 0
M  V30 910 C 95.8464 0.936518 -1.79091 0
M  V30 911 C 96.1674 1.84606 -0.628148 0
M  V30 912 O 95.4374 1.92664 0.35462 0
M  V30 913 H 94.0174 0.3488 -0.660566 0
M  V30 914 H 96.6794 0.22523 -1.93594 0
M  V30 915 H 95.7754 1.53943 -2.71492 0
M  V30 916 N 96.0765 1.50051 0.48192 0
M  V30 917 C 97.3225 1.60736 1.2366 0
M  V30 918 C 97.6555 0.301786 1.91841 0
M  V30 919 O 96.9305 -0.696025 1.8162 0
M  V30 920 C 97.2135 2.78009 2.28874 0
M  V30 921 C 97.0665 4.18416 1.65069 0
M  V30 922 C 98.3855 2.90867 3.30279 0
M  V30 923 H 95.5045 0.585031 0.448228 0
M  V30 924 H 98.1465 1.82402 0.531946 0
M  V30 925 H 96.2965 2.59667 2.88973 0
M  V30 926 H 97.9685 4.48322 1.0865 0
M  V30 927 H 96.2115 4.23177 0.954148 0
M  V30 928 H 96.8825 4.96381 2.41474 0
M  V30 929 H 99.3585 3.07623 2.80191 0
M  V30 930 H 98.2345 3.74566 4.01238 0
M  V30 931 H 98.4955 2.01021 3.93755 0
M  V30 932 N 97.5546 -0.734337 1.39446 0
M  V30 933 C 98.5176 -1.83004 1.37994 0
M  V30 934 C 99.5176 -1.58397 0.276938 0
M  V30 935 O 100.708 -1.65785 0.534875 0
M  V30 936 C 97.8396 -3.20802 1.1532 0
M  V30 937 H 99.0326 -1.85694 2.35494 0
M  V30 938 H 96.5856 -0.938059 1.25021 0
M  V30 939 H 97.3206 -3.23772 0.185036 0
M  V30 940 H 97.1056 -3.4006 1.95197 0
M  V30 941 H 98.5956 -4.00862 1.17046 0
M  V30 942 N 99.0327 -1.24633 -0.964593 0
M  V30 943 C 99.9627 -1.06611 -2.07741 0
M  V30 944 C 100.944 0.0218666 -1.70086 0
M  V30 945 O 102.129 -0.145793 -1.93652 0
M  V30 946 C 99.2587 -0.673444 -3.40708 0
M  V30 947 C 98.2127 -1.71054 -3.92332 0
M  V30 948 C 97.5387 -1.17285 -5.21678 0
M  V30 949 C 98.8387 -3.10718 -4.19824 0
M  V30 950 H 100.533 -1.99693 -2.23076 0
M  V30 951 H 98.0787 -0.96152 -1.07195 0
M  V30 952 H 100.032 -0.534345 -4.17998 0
M  V30 953 H 98.7557 0.293073 -3.25282 0
M  V30 954 H 97.4147 -1.83791 -3.17201 0
M  V30 955 H 97.0627 -0.196847 -5.02615 0
M  V30 956 H 96.7627 -1.86592 -5.57187 0
M  V30 957 H 98.2867 -1.04593 -6.01575 0
M  V30 958 H 99.7007 -3.01192 -4.87808 0
M  V30 959 H 98.0977 -3.77406 -4.66567 0
M  V30 960 H 99.1677 -3.58524 -3.26479 0
M  V30 961 N 100.511 1.16574 -1.06058 0
M  V30 962 C 101.759 1.86677 -0.77434 0
M  V30 963 C 102.08 1.81959 0.701147 0
M  V30 964 O 101.35 1.2515 1.50713 0
M  V30 965 H 99.9298 0.691134 -0.283449 0
M  V30 966 H 102.592 1.41378 -1.34158 0
M  V30 967 H 101.688 2.92181 -1.09711 0
M  V30 968 N 101.989 0.842826 1.3317 0
M  V30 969 C 102.919 0.294028 2.31641 0
M  V30 970 C 103.9 -0.600401 1.59151 0
M  V30 971 O 105.085 -0.523124 1.87022 0
M  V30 972 C 102.215 -0.528416 3.43257 0
M  V30 973 C 101.169 0.27056 4.27144 0
M  V30 974 C 100.495 -0.675881 5.30411 0
M  V30 975 C 101.795 1.48981 5.00602 0
M  V30 976 H 103.489 1.11681 2.77791 0
M  V30 977 H 101.035 0.538478 1.33553 0
M  V30 978 H 102.988 -0.922674 4.11175 0
M  V30 979 H 101.712 -1.38445 2.95805 0
M  V30 980 H 100.371 0.646427 3.60856 0
M  V30 981 H 100.019 -1.52842 4.79216 0
M  V30 982 H 99.7189 -0.145374 5.8742 0
M  V30 983 H 101.243 -1.06757 6.01195 0
M  V30 984 H 102.657 1.16849 5.61266 0
M  V30 985 H 101.054 1.95739 5.6728 0
M  V30 986 H 102.124 2.25746 4.29147 0
M  V30 987 N 103.467 -1.45747 0.599634 0
M  V30 988 C 104.715 -2.01893 0.0915472 0
M  V30 989 C 105.036 -1.47155 -1.27946 0
M  V30 990 O 104.306 -0.66273 -1.84349 0
M  V30 991 H 102.886 -0.746363 0.0308524 0
M  V30 992 H 105.548 -1.78645 0.779237 0
M  V30 993 H 104.644 -3.1208 0.0353086 0
M  V30 994 N 104.945 -0.338344 -1.53925 0
M  V30 995 C 106.191 0.260143 -2.01125 0
M  V30 996 C 106.524 1.50617 -1.22589 0
M  V30 997 O 105.799 1.91979 -0.312113 0
M  V30 998 C 106.082 0.579499 -3.55407 0
M  V30 999 C 105.935 -0.678264 -4.44657 0
M  V30 1000 C 107.254 1.39122 -4.17532 0
M  V30 1001 H 104.373 0.0930772 -0.731099 0
M  V30 1002 H 107.015 -0.457852 -1.84401 0
M  V30 1003 H 105.165 1.19118 -3.69788 0
M  V30 1004 H 106.837 -1.31631 -4.42121 0
M  V30 1005 H 105.08 -1.3042 -4.13731 0
M  V30 1006 H 105.751 -0.410143 -5.50474 0
M  V30 1007 H 108.227 0.874035 -4.06817 0
M  V30 1008 H 107.103 1.58342 -5.25565 0
M  V30 1009 H 107.364 2.39178 -3.71815 0
M  V30 1010 N 106.423 1.57458 -0.0668435 0
M  V30 1011 C 107.648 1.9804 0.616027 0
M  V30 1012 C 108.073 0.944771 1.62652 0
M  V30 1013 O 107.431 -0.0902094 1.81075 0
M  V30 1014 C 107.479 3.37665 1.26549 0
M  V30 1015 O 106.583 3.36701 2.38131 0
M  V30 1016 H 105.924 0.644719 0.158849 0
M  V30 1017 H 108.454 2.04121 -0.139891 0
M  V30 1018 H 108.464 3.7474 1.6135 0
M  V30 1019 H 107.139 4.12573 0.525016 0
M  V30 1020 H 105.716 3.1139 2.0516 0
M  V30 1021 N 107.901 -0.206675 1.56239 0
M  V30 1022 C 109.149 -0.927007 1.79586 0
M  V30 1023 C 109.47 -1.8427 0.637929 0
M  V30 1024 O 108.74 -1.92849 -0.344398 0
M  V30 1025 H 107.32 -0.345292 0.662407 0
M  V30 1026 H 109.982 -0.21496 1.93711 0
M  V30 1027 H 109.078 -1.52501 2.72305 0
M  V30 1028 N 109.379 -1.50304 -0.473955 0
M  V30 1029 C 110.342 -1.6841 -1.55469 0
M  V30 1030 C 111.342 -0.554905 -1.50922 0
M  V30 1031 O 112.532 -0.821882 -1.53593 0
M  V30 1032 C 109.664 -1.70667 -2.95102 0
M  V30 1033 H 110.857 -2.64828 -1.40733 0
M  V30 1034 H 108.41 -1.39742 -0.700132 0
M  V30 1035 H 109.145 -0.75932 -3.15285 0
M  V30 1036 H 108.93 -2.52698 -2.9981 0
M  V30 1037 H 110.42 -1.8664 -3.73571 0
M  V30 1038 N 110.857 0.726932 -1.39834 0
M  V30 1039 C 112.105 1.4837 -1.37225 0
M  V30 1040 C 112.426 1.94979 0.0284857 0
M  V30 1041 O 111.696 1.69555 0.981213 0
M  V30 1042 H 110.276 0.55043 -0.505011 0
M  V30 1043 H 112.938 0.862468 -1.74778 0
M  V30 1044 H 112.034 2.36198 -2.04003 0
M  V30 1045 N 112.336 1.25143 0.95797 0
M  V30 1046 C 113.584 1.09476 1.69881 0
M  V30 1047 C 113.905 -0.365502 1.91544 0
M  V30 1048 O 113.175 -1.25985 1.50015 0
M  V30 1049 H 111.755 0.402128 0.629525 0
M  V30 1050 H 114.417 1.57214 1.15194 0
M  V30 1051 H 113.513 1.60046 2.6794 0
M  V30 1052 N 113.814 -1.1601 1.06675 0
M  V30 1053 C 114.777 -2.18724 0.685001 0
M  V30 1054 C 115.777 -1.58496 -0.271246 0
M  V30 1055 O 116.967 -1.74119 -0.0531156 0
M  V30 1056 C 114.099 -3.40899 0.00853648 0
M  V30 1057 H 115.292 -2.54011 1.59431 0
M  V30 1058 H 112.845 -1.30352 0.862441 0
M  V30 1059 H 113.58 -3.11173 -0.913337 0
M  V30 1060 H 113.365 -3.8587 0.696204 0
M  V30 1061 H 114.855 -4.16886 -0.24414 0
M  V30 1062 N 115.292 -0.849877 -1.32721 0
M  V30 1063 C 116.222 -0.306308 -2.31482 0
M  V30 1064 C 117.203 0.591952 -1.59468 0
M  V30 1065 O 118.388 0.513199 -1.87296 0
M  V30 1066 C 115.518 0.510204 -3.43532 0
M  V30 1067 C 114.472 -0.293209 -4.26994 0
M  V30 1068 C 113.798 0.647743 -5.30762 0
M  V30 1069 C 115.098 -1.51634 -4.99804 0
M  V30 1070 H 116.792 -1.13153 -2.77195 0
M  V30 1071 H 114.338 -0.545553 -1.33266 0
M  V30 1072 H 116.291 0.900856 -4.11658 0
M  V30 1073 H 115.015 1.36874 -2.96535 0
M  V30 1074 H 113.674 -0.665555 -3.60508 0
M  V30 1075 H 113.322 1.50299 -4.8002 0
M  V30 1076 H 113.022 0.11422 -5.87489 0
M  V30 1077 H 114.546 1.03567 -6.01753 0
M  V30 1078 H 115.96 -1.19824 -5.60638 0
M  V30 1079 H 114.357 -1.98745 -5.66234 0
M  V30 1080 H 115.427 -2.28018 -4.27943 0
M  V30 1081 N 116.77 1.45427 -0.607355 0
M  V30 1082 C 117.733 2.28974 0.101693 0
M  V30 1083 C 118.733 1.39754 0.795329 0
M  V30 1084 O 119.923 1.61878 0.643527 0
M  V30 1085 C 117.055 3.20768 1.15414 0
M  V30 1086 H 118.248 2.93147 -0.632844 0
M  V30 1087 H 115.801 1.51945 -0.366391 0
M  V30 1088 H 116.536 2.61395 1.91945 0
M  V30 1089 H 116.321 3.86489 0.66098 0
M  V30 1090 H 117.811 3.83589 1.65073 0
M  V30 1091 N 118.248 0.346503 1.53744 0
M  V30 1092 C 119.178 -0.501193 2.28058 0
M  V30 1093 C 120.159 -1.10014 1.29734 0
M  V30 1094 O 121.344 -1.12097 1.58581 0
M  V30 1095 C 118.474 -1.65078 3.05559 0
M  V30 1096 C 117.428 -1.18003 4.11411 0
M  V30 1097 C 116.754 -2.41837 4.76884 0
M  V30 1098 C 118.054 -0.278394 5.21558 0
M  V30 1099 H 119.748 0.11875 2.99164 0
M  V30 1100 H 117.294 0.0585531 1.43881 0
M  V30 1101 H 119.247 -2.25028 3.56287 0
M  V30 1102 H 117.971 -2.29767 2.32109 0
M  V30 1103 H 116.63 -0.603331 3.61601 0
M  V30 1104 H 116.278 -3.0494 4.00026 0
M  V30 1105 H 115.978 -2.1102 5.48402 0
M  V30 1106 H 117.502 -3.02508 5.30397 0
M  V30 1107 H 118.916 -0.784823 5.67903 0
M  V30 1108 H 117.313 -0.0619707 6.00068 0
M  V30 1109 H 118.383 0.684677 4.80042 0
M  V30 1110 N 119.726 -1.57421 0.075193 0
M  V30 1111 C 120.974 -1.93236 -0.591974 0
M  V30 1112 C 121.295 -0.956241 -1.69944 0
M  V30 1113 O 120.565 -0.00494792 -1.95899 0
M  V30 1114 H 119.145 -0.713355 -0.22166 0
M  V30 1115 H 121.807 -1.9444 0.133848 0
M  V30 1116 H 120.903 -2.95131 -1.01509 0
M  V30 1117 N 121.204 0.198386 -1.56346 0
M  V30 1118 C 122.615 0.763358 -1.70381 0
M  V30 1119 C 122.966 1.83995 -0.681203 0
M  V30 1120 O 122.091 2.15785 0.16305 0
M  V30 1121 C 122.686 1.39143 -3.08909 0
M  V30 1122 C 121.245 1.90352 -3.2472 0
M  V30 1123 C 120.392 0.772233 -2.6633 0
M  V30 1124 H 123.343 -0.0266377 -1.58678 0
M  V30 1125 H 123.364 2.26076 -3.06055 0
M  V30 1126 H 122.876 0.607638 -3.83314 0
M  V30 1127 H 120.977 2.71461 -2.55225 0
M  V30 1128 H 121.09 2.06757 -4.3219 0
M  V30 1129 H 119.454 1.18566 -2.2542 0
M  V30 1130 H 120.237 0.00073556 -3.433 0
M  V30 1131 N 122.682 1.50554 0.465978 0
M  V30 1132 C 123.592 1.72585 1.58907 0
M  V30 1133 C 124.608 0.60911 1.6299 0
M  V30 1134 O 125.784 0.88804 1.80765 0
M  V30 1135 C 122.849 1.81995 2.95091 0
M  V30 1136 C 121.91 3.05751 3.01355 0
M  V30 1137 C 121.143 3.14702 4.31043 0
M  V30 1138 O 121.366 2.30313 5.21835 0
M  V30 1139 O 120.3 4.07468 4.43005 0
M  V30 1140 H 124.126 2.67799 1.43239 0
M  V30 1141 H 121.711 1.34711 0.646013 0
M  V30 1142 H 123.593 1.90335 3.75966 0
M  V30 1143 H 122.268 0.899659 3.10947 0
M  V30 1144 H 121.175 3.02908 2.19539 0
M  V30 1145 H 122.508 3.97375 2.90437 0
M  V30 1146 N 124.16 -0.719506 1.40217 0
M  V30 1147 C 125.576 -1.02707 1.22161 0
M  V30 1148 C 125.776 -2.0128 0.0940557 0
M  V30 1149 O 124.832 -2.46452 -0.549318 0
M  V30 1150 C 126.145 -1.57454 2.56181 0
M  V30 1151 C 127.693 -1.69458 2.63159 0
M  V30 1152 C 128.168 -2.27611 3.97438 0
M  V30 1153 N 129.659 -2.35002 3.99159 0
M  V30 1154 C 130.394 -2.80972 4.99842 0
M  V30 1155 N 129.89 -3.26723 6.10921 0
M  V30 1156 N 131.683 -2.80321 4.87213 0
M  V30 1157 H 123.834 -0.0660492 2.12297 0
M  V30 1158 H 126.097 -0.0919077 0.943534 0
M  V30 1159 H 125.803 -0.924873 3.39321 0
M  V30 1160 H 125.677 -2.56036 2.76993 0
M  V30 1161 H 128.064 -2.33543 1.80393 0
M  V30 1162 H 128.145 -0.694867 2.46181 0
M  V30 1163 H 127.789 -1.6415 4.80643 0
M  V30 1164 H 127.719 -3.2829 4.11744 0
M  V30 1165 H 130.21 -2.02685 3.18947 0
M  V30 1166 H 130.523 -3.60355 6.8364 0
M  V30 1167 H 128.868 -3.24692 6.14492 0
M  V30 1168 H 132.059 -2.43912 3.9953 0
M  V30 1169 H 132.232 -3.15831 5.65822 0
M  V30 1170 N 125.638 -1.25649 -0.95132 0
M  V30 1171 C 126.568 -1.08808 -2.06599 0
M  V30 1172 C 127.549 0.00382547 -1.701 0
M  V30 1173 O 128.734 -0.166325 -1.93486 0
M  V30 1174 C 125.864 -0.709542 -3.39975 0
M  V30 1175 C 124.818 -1.75206 -3.90496 0
M  V30 1176 C 124.144 -1.22811 -5.20405 0
M  V30 1177 C 125.444 -3.15153 -4.16504 0
M  V30 1178 H 127.138 -2.02048 -2.20946 0
M  V30 1179 H 124.684 -0.972835 -1.06169 0
M  V30 1180 H 126.637 -0.578649 -4.17408 0
M  V30 1181 H 125.361 0.258556 -3.25575 0
M  V30 1182 H 124.02 -1.87145 -3.15234 0
M  V30 1183 H 123.668 -0.250145 -5.02378 0
M  V30 1184 H 123.368 -1.92492 -5.55176 0
M  V30 1185 H 124.892 -1.10968 -6.00432 0
M  V30 1186 H 126.306 -3.06349 -4.84586 0
M  V30 1187 H 124.703 -3.82333 -4.62538 0
M  V30 1188 H 125.773 -3.61966 -3.22658 0
M  V30 1189 N 127.117 1.15442 -1.07289 0
M  V30 1190 C 128.342 1.90638 -0.816828 0
M  V30 1191 C 128.767 1.77445 0.624083 0
M  V30 1192 O 128.125 1.10671 1.43602 0
M  V30 1193 C 128.173 3.39008 -1.22906 0
M  V30 1194 O 127.277 4.10701 -0.373975 0
M  V30 1195 H 126.618 0.593555 -0.297638 0
M  V30 1196 H 129.148 1.46198 -1.43134 0
M  V30 1197 H 129.158 3.89801 -1.20497 0
M  V30 1198 H 127.833 3.47929 -2.27856 0
M  V30 1199 H 126.41 3.70046 -0.460499 0
M  V30 1200 N 128.595 0.856903 1.32268 0
M  V30 1201 C 129.558 0.308171 2.27119 0
M  V30 1202 C 130.558 -0.533421 1.51695 0
M  V30 1203 O 131.748 -0.344607 1.70757 0
M  V30 1204 C 128.88 -0.563757 3.36206 0
M  V30 1205 H 130.073 1.14535 2.77167 0
M  V30 1206 H 127.626 0.631421 1.42978 0
M  V30 1207 H 128.361 -1.42266 2.91429 0
M  V30 1208 H 128.146 0.0386749 3.92081 0
M  V30 1209 H 129.636 -0.940386 4.06874 0
M  V30 1210 N 130.073 -1.45103 0.615059 0
M  V30 1211 C 131.32 -2.02183 0.113179 0
M  V30 1212 C 131.648 -1.48249 -1.25906 0
M  V30 1213 O 130.903 -0.650265 -1.84581 0
M  V30 1214 C 131.202 -3.57386 0.0318797 0
M  V30 1215 C 130.868 -4.30505 1.34077 0
M  V30 1216 C 129.53 -4.50197 1.69929 0
M  V30 1217 C 131.882 -4.72238 2.20546 0
M  V30 1218 C 129.21 -5.08881 2.91988 0
M  V30 1219 C 131.562 -5.32272 3.41861 0
M  V30 1220 C 130.226 -5.50187 3.77956 0
M  V30 1221 H 129.496 -0.739842 0.0414151 0
M  V30 1222 H 132.143 -1.74073 0.798168 0
M  V30 1223 H 130.448 -3.84817 -0.736409 0
M  V30 1224 H 132.145 -3.99264 -0.372712 0
M  V30 1225 H 128.735 -4.15496 1.05173 0
M  V30 1226 H 132.919 -4.56751 1.94146 0
M  V30 1227 H 128.175 -5.20939 3.2005 0
M  V30 1228 H 132.349 -5.63563 4.09109 0
M  V30 1229 H 129.976 -5.95427 4.72622 0
M  V30 1230 N 131.551 -0.354651 -1.53558 0
M  V30 1231 C 132.797 0.238797 -2.01389 0
M  V30 1232 C 133.13 1.49309 -1.2418 0
M  V30 1233 O 132.405 1.91638 -0.332457 0
M  V30 1234 C 132.688 0.541771 -3.56001 0
M  V30 1235 C 132.541 -0.725388 -4.43912 0
M  V30 1236 C 133.86 1.34685 -4.18984 0
M  V30 1237 H 130.979 0.0853177 -0.732045 0
M  V30 1238 H 133.621 -0.477384 -1.83905 0
M  V30 1239 H 131.771 1.15189 -3.71031 0
M  V30 1240 H 133.443 -1.36313 -4.407 0
M  V30 1241 H 131.686 -1.34801 -4.12324 0
M  V30 1242 H 132.357 -0.468505 -5.50008 0
M  V30 1243 H 134.833 0.830837 -4.07721 0
M  V30 1244 H 133.709 1.52759 -5.27215 0
M  V30 1245 H 133.97 2.35221 -3.74331 0
M  V30 1246 N 133.029 1.57378 -0.0835403 0
M  V30 1247 C 134.276 1.9393 0.58287 0
M  V30 1248 C 134.604 0.964455 1.68904 0
M  V30 1249 O 133.859 -0.0179474 1.95692 0
M  V30 1250 C 134.158 3.37063 1.1884 0
M  V30 1251 C 133.824 4.50424 0.207194 0
M  V30 1252 C 132.486 4.81159 -0.0627115 0
M  V30 1253 C 134.838 5.19136 -0.463426 0
M  V30 1254 C 132.166 5.77939 -1.01012 0
M  V30 1255 C 134.518 6.16931 -1.39924 0
M  V30 1256 C 133.182 6.46078 -1.67749 0
M  V30 1257 H 132.452 0.70964 0.213287 0
M  V30 1258 H 135.099 1.90856 -0.156916 0
M  V30 1259 H 133.404 3.3666 2.00418 0
M  V30 1260 H 135.101 3.6264 1.71153 0
M  V30 1261 H 131.691 4.2646 0.427747 0
M  V30 1262 H 135.875 4.95576 -0.268034 0
M  V30 1263 H 131.131 5.98842 -1.23283 0
M  V30 1264 H 135.305 6.69273 -1.92476 0
M  V30 1265 H 132.932 7.2088 -2.41321 0
M  V30 1266 N 134.507 -0.190092 1.56449 0
M  V30 1267 C 135.918 -0.754312 1.70784 0
M  V30 1268 C 136.269 -1.83631 0.690951 0
M  V30 1269 O 135.394 -2.15868 -0.151604 0
M  V30 1270 C 135.989 -1.37503 3.09642 0
M  V30 1271 C 134.548 -1.88628 3.25725 0
M  V30 1272 C 133.695 -0.758098 2.66736 0
M  V30 1273 H 136.646 0.0350524 1.58661 0
M  V30 1274 H 136.667 -2.2445 3.0725 0
M  V30 1275 H 136.179 -0.587302 3.83631 0
M  V30 1276 H 134.28 -2.70103 2.56661 0
M  V30 1277 H 134.393 -2.04462 4.3328 0
M  V30 1278 H 132.757 -1.17369 2.26046 0
M  V30 1279 H 133.54 0.0174705 3.43296 0
M  V30 1280 N 135.985 -1.50799 -0.457987 0
M  V30 1281 C 137.233 -1.62121 -1.2067 0
M  V30 1282 C 137.554 -0.329793 -1.92191 0
M  V30 1283 O 136.824 0.653409 -1.84682 0
M  V30 1284 H 135.404 -0.597441 -0.448411 0
M  V30 1285 H 138.066 -1.87637 -0.527096 0
M  V30 1286 H 137.162 -2.43882 -1.94751 0
M  V30 1287 N 137.463 0.71206 -1.40597 0
M  V30 1288 C 138.373 1.8562 -1.43466 0
M  V30 1289 C 139.389 1.70902 -0.326902 0
M  V30 1290 O 140.565 1.93105 -0.572043 0
M  V30 1291 C 137.63 3.21451 -1.29884 0
M  V30 1292 C 136.691 3.48398 -2.50833 0
M  V30 1293 C 135.924 4.77749 -2.3789 0
M  V30 1294 O 136.147 5.53089 -1.39459 0
M  V30 1295 O 135.081 5.05111 -3.27333 0
M  V30 1296 H 138.907 1.86155 -2.39958 0
M  V30 1297 H 136.492 0.86295 -1.21957 0
M  V30 1298 H 138.374 4.02579 -1.24531 0
M  V30 1299 H 137.049 3.21636 -0.364997 0
M  V30 1300 H 135.956 2.67265 -2.61763 0
M  V30 1301 H 137.289 3.53014 -3.4299 0
M  V30 1302 N 138.941 1.26152 0.944643 0
M  V30 1303 C 139.871 1.09902 2.06019 0
M  V30 1304 C 140.852 0.00519538 1.70099 0
M  V30 1305 O 142.037 0.176583 1.93396 0
M  V30 1306 C 139.167 0.727562 3.39594 0
M  V30 1307 C 138.121 1.77274 3.89561 0
M  V30 1308 C 137.447 1.25569 5.19747 0
M  V30 1309 C 138.747 3.17357 4.14827 0
M  V30 1310 H 140.441 2.03217 2.19871 0
M  V30 1311 H 137.987 0.978452 1.05652 0
M  V30 1312 H 139.94 0.600777 4.17095 0
M  V30 1313 H 138.664 -0.241287 3.25707 0
M  V30 1314 H 137.323 1.88814 3.14237 0
M  V30 1315 H 136.971 0.276783 5.02238 0
M  V30 1316 H 136.671 1.95433 5.54148 0
M  V30 1317 H 138.195 1.1415 5.99835 0
M  V30 1318 H 139.609 3.08914 4.82954 0
M  V30 1319 H 138.006 3.84781 4.60504 0
M  V30 1320 H 139.076 3.63673 3.20734 0
M  V30 1321 N 140.419 -1.14872 1.07899 0
M  V30 1322 C 141.349 -2.2193 0.725887 0
M  V30 1323 C 142.33 -1.67622 -0.28927 0
M  V30 1324 O 143.515 -1.93533 -0.160787 0
M  V30 1325 C 140.645 -3.47061 0.128856 0
M  V30 1326 C 139.599 -4.14363 1.07178 0
M  V30 1327 C 138.925 -5.33636 0.337229 0
M  V30 1328 C 140.225 -4.63492 2.40775 0
M  V30 1329 H 141.919 -2.51724 1.62097 0
M  V30 1330 H 139.465 -1.20991 0.780838 0
M  V30 1331 H 141.418 -4.21199 -0.130147 0
M  V30 1332 H 140.142 -3.16617 -0.80134 0
M  V30 1333 H 138.801 -3.42173 1.3158 0
M  V30 1334 H 138.449 -4.99449 -0.596606 0
M  V30 1335 H 138.149 -5.79609 0.965788 0
M  V30 1336 H 139.673 -6.10539 0.0861567 0
M  V30 1337 H 141.087 -5.2913 2.20669 0
M  V30 1338 H 139.484 -5.20148 2.99276 0
M  V30 1339 H 140.554 -3.78834 3.02676 0
M  V30 1340 N 141.898 -0.863906 -1.31812 0
M  V30 1341 C 142.828 -0.330843 -2.31144 0
M  V30 1342 C 143.809 0.575005 -1.60087 0
M  V30 1343 O 144.994 0.493304 -1.8783 0
M  V30 1344 C 142.124 0.47374 -3.44054 0
M  V30 1345 C 141.078 -0.338481 -4.26659 0
M  V30 1346 C 140.404 0.591412 -5.31419 0
M  V30 1347 C 141.704 -1.56926 -4.98168 0
M  V30 1348 H 143.398 -1.16086 -2.75979 0
M  V30 1349 H 140.944 -0.559657 -1.32679 0
M  V30 1350 H 142.897 0.857143 -4.12591 0
M  V30 1351 H 141.621 1.33721 -2.9797 0
M  V30 1352 H 140.28 -0.703754 -3.59782 0
M  V30 1353 H 139.928 1.45199 -4.81587 0
M  V30 1354 H 139.628 0.0519022 -5.87577 0
M  V30 1355 H 141.152 0.97179 -6.02817 0
M  V30 1356 H 142.566 -1.25764 -5.59336 0
M  V30 1357 H 140.963 -2.04739 -5.64094 0
M  V30 1358 H 142.033 -2.32544 -4.25501 0
M  V30 1359 N 143.376 1.44774 -0.622745 0
M  V30 1360 C 144.792 1.56986 -0.287652 0
M  V30 1361 C 144.992 1.61167 1.20944 0
M  V30 1362 O 144.048 1.55015 1.99315 0
M  V30 1363 C 145.361 2.84551 -0.972188 0
M  V30 1364 C 146.909 2.9825 -0.949536 0
M  V30 1365 C 147.384 4.28605 -1.61437 0
M  V30 1366 N 148.875 4.35399 -1.58057 0
M  V30 1367 C 149.61 5.34964 -2.064 0
M  V30 1368 N 149.106 6.40981 -2.62897 0
M  V30 1369 N 150.899 5.26419 -1.97078 0
M  V30 1370 H 143.05 1.40304 -1.59463 0
M  V30 1371 H 145.313 0.671794 -0.668878 0
M  V30 1372 H 145.019 2.87417 -2.02693 0
M  V30 1373 H 144.893 3.73807 -0.504771 0
M  V30 1374 H 147.28 2.94941 0.0967067 0
M  V30 1375 H 147.361 2.10364 -1.45536 0
M  V30 1376 H 147.005 4.32672 -2.66002 0
M  V30 1377 H 146.935 5.15334 -1.08344 0
M  V30 1378 H 149.426 3.59397 -1.16801 0
M  V30 1379 H 149.739 7.13225 -2.97539 0
M  V30 1380 H 148.084 6.4169 -2.66943 0
M  V30 1381 H 151.275 4.42504 -1.52669 0
M  V30 1382 H 151.448 6.03861 -2.35066 0
M  V30 1383 N 144.854 0.36279 1.53368 0
M  V30 1384 C 145.784 -0.476976 2.28576 0
M  V30 1385 C 146.765 -1.08631 1.30894 0
M  V30 1386 O 147.95 -1.10409 1.59761 0
M  V30 1387 C 145.08 -1.61828 3.07293 0
M  V30 1388 C 144.034 -1.13633 4.1264 0
M  V30 1389 C 143.36 -2.36766 4.79423 0
M  V30 1390 C 144.66 -0.223061 5.21823 0
M  V30 1391 H 146.354 0.150474 2.99022 0
M  V30 1392 H 143.9 0.0738103 1.43811 0
M  V30 1393 H 145.853 -2.21237 3.58653 0
M  V30 1394 H 144.577 -2.27292 2.34533 0
M  V30 1395 H 143.236 -0.564945 3.62221 0
M  V30 1396 H 142.884 -3.0068 4.03238 0
M  V30 1397 H 142.584 -2.05192 5.50609 0
M  V30 1398 H 144.108 -2.96865 5.33576 0
M  V30 1399 H 145.522 -0.724545 5.68703 0
M  V30 1400 H 143.919 0.001678 6.001 0
M  V30 1401 H 144.989 0.735553 4.79289 0
M  V30 1402 N 146.332 -1.57332 0.0918853 0
M  V30 1403 C 147.262 -2.16872 -0.865371 0
M  V30 1404 C 148.243 -1.10118 -1.29646 0
M  V30 1405 O 149.428 -1.38242 -1.36392 0
M  V30 1406 C 146.558 -2.74649 -2.12569 0
M  V30 1407 C 145.512 -3.86747 -1.83333 0
M  V30 1408 C 144.838 -4.31212 -3.16166 0
M  V30 1409 C 146.138 -5.10089 -1.1228 0
M  V30 1410 H 147.832 -2.97114 -0.369307 0
M  V30 1411 H 145.378 -1.42918 -0.176194 0
M  V30 1412 H 147.331 -3.14952 -2.7997 0
M  V30 1413 H 146.055 -1.91657 -2.64452 0
M  V30 1414 H 144.714 -3.46978 -1.18331 0
M  V30 1415 H 144.362 -3.45115 -3.6593 0
M  V30 1416 H 144.062 -5.06788 -2.97388 0
M  V30 1417 H 145.586 -4.74146 -3.84731 0
M  V30 1418 H 147 -5.47582 -1.69785 0
M  V30 1419 H 145.397 -5.91073 -1.03693 0
M  V30 1420 H 146.467 -4.84786 -0.105041 0
M  V30 1421 N 147.81 0.181792 -1.56548 0
M  V30 1422 C 149.226 0.53316 -1.50431 0
M  V30 1423 C 149.426 1.85184 -0.794297 0
M  V30 1424 O 148.482 2.50058 -0.350318 0
M  V30 1425 C 149.795 0.575597 -2.9514 0
M  V30 1426 C 151.343 0.663519 -3.05886 0
M  V30 1427 C 151.818 0.736946 -4.52032 0
M  V30 1428 N 153.309 0.800118 -4.56237 0
M  V30 1429 C 154.044 0.877327 -5.66649 0
M  V30 1430 N 153.54 0.916016 -6.86718 0
M  V30 1431 N 155.333 0.915542 -5.54594 0
M  V30 1432 H 147.484 -0.683025 -2.01118 0
M  V30 1433 H 149.747 -0.244988 -0.915797 0
M  V30 1434 H 149.453 -0.324482 -3.502 0
M  V30 1435 H 149.327 1.42572 -3.49218 0
M  V30 1436 H 151.714 1.55403 -2.50867 0
M  V30 1437 H 151.795 -0.21307 -2.54911 0
M  V30 1438 H 151.439 -0.149262 -5.07681 0
M  V30 1439 H 151.369 1.62953 -5.00753 0
M  V30 1440 H 153.86 0.778926 -3.69785 0
M  V30 1441 H 154.173 0.975813 -7.66614 0
M  V30 1442 H 152.518 0.884469 -6.89349 0
M  V30 1443 H 155.709 0.882245 -4.59711 0
M  V30 1444 H 155.882 0.972253 -6.40665 0
M  V30 1445 N 149.288 1.51039 0.449983 0
M  V30 1446 C 150.221 1.66105 1.56474 0
M  V30 1447 C 151.199 0.508776 1.54435 0
M  V30 1448 O 152.383 0.731005 1.73749 0
M  V30 1449 C 149.51 1.66304 2.9506 0
M  V30 1450 C 148.556 2.87346 3.15174 0
M  V30 1451 S 149.389 4.4835 2.92818 0
M  V30 1452 C 150.545 4.51274 4.33708 0
M  V30 1453 H 150.778 2.60397 1.43459 0
M  V30 1454 H 148.311 1.40565 0.638805 0
M  V30 1455 H 150.269 1.67103 3.74949 0
M  V30 1456 H 148.93 0.732108 3.05449 0
M  V30 1457 H 148.123 2.83849 4.16468 0
M  V30 1458 H 147.725 2.84223 2.43091 0
M  V30 1459 H 150.017 4.26136 5.26701 0
M  V30 1460 H 150.96 5.53017 4.42242 0
M  V30 1461 H 151.368 3.80738 4.16772 0
M  V30 1462 N 150.766 -0.704594 1.40972 0
M  V30 1463 C 152.015 -1.46018 1.39146 0
M  V30 1464 C 152.328 -1.956 0.000589254 0
M  V30 1465 O 153.534 -2.71137 -0.1403 0
M  V30 1466 C 151.99 -2.63996 2.4461 0
M  V30 1467 C 151.598 -2.21238 3.89561 0
M  V30 1468 C 153.342 -3.41677 2.51907 0
M  V30 1469 C 151.249 -3.3612 4.86598 0
M  V30 1470 H 150.179 -0.548444 0.517422 0
M  V30 1471 H 152.83 -0.765784 1.66757 0
M  V30 1472 H 151.212 -3.3566 2.10115 0
M  V30 1473 H 152.386 -1.56923 4.33257 0
M  V30 1474 H 150.701 -1.56574 3.85841 0
M  V30 1475 H 153.298 -4.27182 3.2159 0
M  V30 1476 H 153.641 -3.86247 1.55303 0
M  V30 1477 H 154.174 -2.77064 2.85448 0
M  V30 1478 H 150.913 -2.96572 5.84573 0
M  V30 1479 H 150.433 -3.99315 4.47557 0
M  V30 1480 H 152.112 -4.02029 5.06934 0
M  V30 1481 N 152.244 -1.26651 -0.937939 0
M  V30 1482 C 153.493 -1.11775 -1.67897 0
M  V30 1483 C 153.806 0.33794 -1.92659 0
M  V30 1484 O 155.012 0.607434 -2.64618 0
M  V30 1485 C 153.468 -1.9523 -3.02346 0
M  V30 1486 C 153.076 -3.45393 -2.8532 0
M  V30 1487 C 154.82 -1.88972 -3.80118 0
M  V30 1488 C 152.727 -4.21083 -4.15263 0
M  V30 1489 H 151.657 -0.414696 -0.629717 0
M  V30 1490 H 154.308 -1.50988 -1.04283 0
M  V30 1491 H 152.69 -1.48853 -3.66959 0
M  V30 1492 H 153.864 -3.99561 -2.29537 0
M  V30 1493 H 152.179 -3.52921 -2.20988 0
M  V30 1494 H 154.776 -2.42805 -4.76392 0
M  V30 1495 H 155.119 -0.86113 -4.07296 0
M  V30 1496 H 155.652 -2.33189 -3.22285 0
M  V30 1497 H 152.391 -5.24425 -3.93267 0
M  V30 1498 H 151.911 -3.71695 -4.70747 0
M  V30 1499 H 153.59 -4.29706 -4.83696 0
M  V30 1500 N 153.722 1.14298 -1.08507 0
M  V30 1501 C 154.652 2.21542 -0.737646 0
M  V30 1502 C 155.633 1.67773 0.280377 0
M  V30 1503 O 156.818 1.93616 0.150521 0
M  V30 1504 C 153.948 3.46988 -0.147259 0
M  V30 1505 C 152.902 4.13789 -1.09374 0
M  V30 1506 C 152.228 5.33449 -0.365524 0
M  V30 1507 C 153.528 4.62208 -2.4323 0
M  V30 1508 H 155.222 2.5086 -1.6343 0
M  V30 1509 H 152.768 1.20576 -0.787243 0
M  V30 1510 H 154.721 4.21262 0.107808 0
M  V30 1511 H 153.445 3.17037 0.784538 0
M  V30 1512 H 152.104 3.4147 -1.33393 0
M  V30 1513 H 151.752 4.99759 0.57011 0
M  V30 1514 H 151.452 5.79088 -0.996512 0
M  V30 1515 H 152.976 6.10485 -0.118534 0
M  V30 1516 H 154.39 5.27952 -2.23472 0
M  V30 1517 H 152.787 5.18553 -3.02031 0
M  V30 1518 H 153.857 3.77224 -3.04681 0
M  V30 1519 N 155.201 0.870884 1.31352 0
M  V30 1520 C 156.612 0.534714 1.78879 0
M  V30 1521 C 156.963 -0.948423 1.71754 0
M  V30 1522 O 156.088 -1.74055 1.28584 0
M  V30 1523 C 156.683 0.963839 3.24801 0
M  V30 1524 C 155.242 0.679311 3.70219 0
M  V30 1525 C 154.389 1.15465 2.52117 0
M  V30 1526 H 157.34 1.05651 1.18421 0
M  V30 1527 H 157.361 0.286892 3.79417 0
M  V30 1528 H 156.873 2.04332 3.29955 0
M  V30 1529 H 154.974 -0.388769 3.70566 0
M  V30 1530 H 155.087 1.25698 4.62317 0
M  V30 1531 H 153.451 0.574383 2.48139 0
M  V30 1532 H 154.234 2.24157 2.60016 0
M  V30 1533 N 156.679 -1.44442 0.630414 0
M  V30 1534 C 157.609 -2.33418 -0.0618083 0
M  V30 1535 C 158.59 -1.48165 -0.835541 0
M  V30 1536 O 159.775 -1.76886 -0.801564 0
M  V30 1537 C 156.905 -3.31222 -1.04449 0
M  V30 1538 C 155.859 -4.26288 -0.382436 0
M  V30 1539 C 155.185 -5.13954 -1.47497 0
M  V30 1540 C 156.485 -5.1744 0.710865 0
M  V30 1541 H 158.179 -2.91548 0.681184 0
M  V30 1542 H 155.725 -1.40191 0.329026 0
M  V30 1543 H 157.678 -3.92351 -1.53748 0
M  V30 1544 H 156.402 -2.71299 -1.81836 0
M  V30 1545 H 155.061 -3.6649 0.0899054 0
M  V30 1546 H 154.709 -4.50385 -2.2397 0
M  V30 1547 H 154.409 -5.7837 -1.03737 0
M  V30 1548 H 155.933 -5.77955 -1.96979 0
M  V30 1549 H 157.347 -5.72509 0.300996 0
M  V30 1550 H 155.744 -5.90455 1.07156 0
M  V30 1551 H 156.814 -4.58496 1.57829 0
M  V30 1552 N 158.157 -0.370918 -1.53173 0
M  V30 1553 C 159.403 0.217423 -2.01631 0
M  V30 1554 C 159.736 1.47983 -1.25756 0
M  V30 1555 O 159.011 1.91274 -0.352764 0
M  V30 1556 C 159.294 0.503982 -3.56556 0
M  V30 1557 C 159.147 -0.77243 -4.43118 0
M  V30 1558 C 160.466 1.30234 -4.20389 0
M  V30 1559 H 157.585 0.0775486 -0.732909 0
M  V30 1560 H 160.227 -0.496863 -1.83388 0
M  V30 1561 H 158.377 1.11248 -3.72231 0
M  V30 1562 H 160.049 -1.4098 -4.39229 0
M  V30 1563 H 158.292 -1.39167 -4.10871 0
M  V30 1564 H 158.963 -0.526815 -5.4948 0
M  V30 1565 H 161.439 0.787546 -4.08579 0
M  V30 1566 H 160.315 1.47158 -5.28806 0
M  V30 1567 H 160.576 2.31237 -3.76805 0
M  V30 1568 N 159.635 1.57281 -0.100228 0
M  V30 1569 C 160.881 1.94826 0.563101 0
M  V30 1570 C 161.214 0.982475 1.67514 0
M  V30 1571 O 160.489 0.0164069 1.94493 0
M  V30 1572 C 160.772 3.42453 1.11346 0
M  V30 1573 C 160.625 4.498 0.00612081 0
M  V30 1574 C 161.944 3.91506 2.01024 0
M  V30 1575 H 159.063 0.708428 0.203221 0
M  V30 1576 H 161.705 1.8922 -0.171979 0
M  V30 1577 H 159.855 3.47361 1.7399 0
M  V30 1578 H 161.527 4.57 -0.628357 0
M  V30 1579 H 159.77 4.28756 -0.659581 0
M  V30 1580 H 160.441 5.50306 0.432109 0
M  V30 1581 H 162.917 3.88784 1.48278 0
M  V30 1582 H 161.793 4.95358 2.36457 0
M  V30 1583 H 162.054 3.31099 2.92961 0
M  V30 1584 N 161.113 -0.173488 1.56642 0
M  V30 1585 C 162.353 -0.896984 1.83667 0
M  V30 1586 C 162.717 -1.79523 0.680842 0
M  V30 1587 O 163.918 -2.55616 0.831488 0
M  V30 1588 C 162.189 -1.67351 3.15798 0
M  V30 1589 S 163.748 -2.44607 3.64298 0
M  V30 1590 H 160.566 -0.300464 0.644393 0
M  V30 1591 H 163.168 -0.158775 1.94854 0
M  V30 1592 H 161.872 -1.00462 3.97914 0
M  V30 1593 H 161.403 -2.45313 3.07546 0
M  V30 1594 H 163.418 -3.69261 3.31452 0
M  V30 1595 N 162.591 -1.51276 -0.441967 0
M  V30 1596 C 163.816 -1.67799 -1.21895 0
M  V30 1597 C 164.241 -0.372864 -1.84367 0
M  V30 1598 O 163.599 0.666501 -1.68604 0
M  V30 1599 C 163.647 -2.79199 -2.28211 0
M  V30 1600 O 162.751 -2.42479 -3.33583 0
M  V30 1601 H 162.092 -0.559649 -0.357336 0
M  V30 1602 H 164.622 -1.97815 -0.522522 0
M  V30 1603 H 164.632 -3.03146 -2.73069 0
M  V30 1604 H 163.307 -3.73906 -1.82118 0
M  V30 1605 H 161.884 -2.29087 -2.94234 0
M  V30 1606 N 164.069 0.697108 -1.41344 0
M  V30 1607 C 164.999 1.82353 -1.45841 0
M  V30 1608 C 165.98 1.67115 -0.317247 0
M  V30 1609 O 167.165 1.86871 -0.528474 0
M  V30 1610 C 164.295 3.20476 -1.33838 0
M  V30 1611 C 163.249 3.50415 -2.4575 0
M  V30 1612 C 162.575 4.87878 -2.18813 0
M  V30 1613 C 163.875 3.49546 -3.88091 0
M  V30 1614 H 165.569 1.78846 -2.40113 0
M  V30 1615 H 163.115 0.859028 -1.15571 0
M  V30 1616 H 165.068 3.98988 -1.35596 0
M  V30 1617 H 163.792 3.24604 -0.360498 0
M  V30 1618 H 162.451 2.74253 -2.43271 0
M  V30 1619 H 162.099 4.8863 -1.19371 0
M  V30 1620 H 161.799 5.08875 -2.93803 0
M  V30 1621 H 163.323 5.68702 -2.22284 0
M  V30 1622 H 164.737 4.18066 -3.92293 0
M  V30 1623 H 163.134 3.82075 -4.62751 0
M  V30 1624 H 164.204 2.48552 -4.16353 0
M  V30 1625 N 165.547 1.27147 0.931209 0
M  V30 1626 C 166.796 1.12664 1.67302 0
M  V30 1627 C 167.109 -0.327718 1.92835 0
M  V30 1628 O 168.315 -0.593392 2.64936 0
M  V30 1629 C 166.771 1.9683 3.01307 0
M  V30 1630 C 166.379 3.46901 2.83485 0
M  V30 1631 C 168.123 1.90985 3.79111 0
M  V30 1632 C 166.03 4.23279 4.13024 0
M  V30 1633 H 164.96 0.41803 0.627509 0
M  V30 1634 H 167.611 1.51539 1.03481 0
M  V30 1635 H 165.993 1.50797 3.66164 0
M  V30 1636 H 167.167 4.00773 2.27415 0
M  V30 1637 H 165.482 3.54088 2.19113 0
M  V30 1638 H 168.079 2.45328 4.75098 0
M  V30 1639 H 168.422 0.882718 4.06834 0
M  V30 1640 H 168.955 2.34895 3.21044 0
M  V30 1641 H 165.694 5.26503 3.90481 0
M  V30 1642 H 165.214 3.74186 4.6877 0
M  V30 1643 H 166.893 4.32265 4.81411 0
M  V30 1644 N 167.025 -1.13721 1.09112 0
M  V30 1645 C 168.273 -1.84559 0.823562 0
M  V30 1646 C 168.594 -1.83754 -0.652658 0
M  V30 1647 O 167.864 -1.29102 -1.47342 0
M  V30 1648 H 166.444 -0.683376 0.301673 0
M  V30 1649 H 169.106 -1.37771 1.37859 0
M  V30 1650 H 168.202 -2.8917 1.17419 0
M  V30 1651 N 168.503 -0.877838 -1.30888 0
M  V30 1652 C 169.751 -0.491723 -1.96027 0
M  V30 1653 C 170.072 0.960827 -1.69685 0
M  V30 1654 O 169.342 1.67462 -1.01654 0
M  V30 1655 H 167.922 -0.17885 -0.725273 0
M  V30 1656 H 170.584 -1.11935 -1.59551 0
M  V30 1657 H 169.68 -0.656016 -3.05128 0
M  V30 1658 N 169.982 1.44106 -0.638065 0
M  V30 1659 C 170.945 2.29138 0.0531013 0
M  V30 1660 C 171.945 1.41409 0.765506 0
M  V30 1661 O 173.135 1.63206 0.609046 0
M  V30 1662 C 170.267 3.23144 1.08584 0
M  V30 1663 H 171.46 2.91739 -0.694883 0
M  V30 1664 H 169.013 1.51134 -0.398538 0
M  V30 1665 H 169.748 2.65408 1.86357 0
M  V30 1666 H 169.533 3.87804 0.578852 0
M  V30 1667 H 171.023 3.87004 1.56899 0
M  V30 1668 N 171.46 0.379036 1.52974 0
M  V30 1669 C 172.423 -0.448865 2.24762 0
M  V30 1670 C 173.423 -0.998689 1.26027 0
M  V30 1671 O 174.613 -0.882313 1.50203 0
M  V30 1672 C 171.745 -1.62872 2.99476 0
M  V30 1673 H 172.938 0.179491 2.99362 0
M  V30 1674 H 170.491 0.13096 1.5575 0
M  V30 1675 H 171.226 -2.29479 2.29151 0
M  V30 1676 H 171.011 -1.24128 3.71934 0
M  V30 1677 H 172.501 -2.2151 3.5401 0
M  V30 1678 N 172.938 -1.57226 0.108567 0
M  V30 1679 C 174.163 -1.99604 -0.563303 0
M  V30 1680 C 174.588 -0.987563 -1.6009 0
M  V30 1681 O 173.946 0.0421687 -1.81251 0
M  V30 1682 C 173.994 -3.40902 -1.17552 0
M  V30 1683 O 173.098 -3.42896 -2.2912 0
M  V30 1684 H 172.439 -0.648704 -0.1417 0
M  V30 1685 H 174.969 -2.03679 0.193961 0
M  V30 1686 H 174.979 -3.78886 -1.51357 0
M  V30 1687 H 173.654 -4.1382 -0.415445 0
M  V30 1688 H 172.231 -3.1672 -1.96832 0
M  V30 1689 N 174.416 0.165178 -1.56732 0
M  V30 1690 C 175.346 1.20651 -1.99914 0
M  V30 1691 C 176.327 1.45827 -0.875705 0
M  V30 1692 O 177.512 1.57057 -1.14223 0
M  V30 1693 C 174.642 2.54401 -2.36427 0
M  V30 1694 C 173.596 2.43782 -3.51787 0
M  V30 1695 C 172.922 3.82078 -3.7406 0
M  V30 1696 C 174.222 1.93732 -4.85041 0
M  V30 1697 H 175.916 0.847534 -2.87154 0
M  V30 1698 H 173.462 0.40625 -1.38151 0
M  V30 1699 H 175.415 3.27458 -2.65234 0
M  V30 1700 H 174.139 2.92098 -1.46103 0
M  V30 1701 H 172.798 1.73178 -3.23117 0
M  V30 1702 H 172.446 4.17179 -2.81017 0
M  V30 1703 H 172.146 3.7584 -4.51684 0
M  V30 1704 H 173.67 4.56712 -4.05274 0
M  V30 1705 H 175.084 2.56569 -5.12684 0
M  V30 1706 H 173.481 1.98428 -5.66345 0
M  V30 1707 H 174.551 0.891962 -4.76626 0
M  V30 1708 N 175.894 1.51508 0.433938 0
M  V30 1709 C 177.171 1.54888 1.19453 0
M  V30 1710 C 177.551 0.315154 2.08734 0
M  V30 1711 O 176.899 -0.699558 2.17528 0
M  V30 1712 C 177.109 2.86467 1.99342 0
M  V30 1713 C 178.457 3.38545 2.56267 0
M  V30 1714 O 179.481 2.88041 2.0955 0
M  V30 1715 O 178.34 4.26675 3.41483 0
M  V30 1716 H 175.434 0.622863 0.544032 0
M  V30 1717 H 177.98 1.63823 0.442732 0
M  V30 1718 H 176.752 3.67718 1.33788 0
M  V30 1719 H 176.375 2.8071 2.8158 0
M  V30 1720 N 177.372 -0.689602 1.41712 0
M  V30 1721 C 178.783 -1.26973 1.36875 0
M  V30 1722 C 179.134 -1.96124 0.054748 0
M  V30 1723 O 178.259 -1.99141 -0.84687 0
M  V30 1724 C 178.854 -2.30912 2.47922 0
M  V30 1725 C 177.413 -2.84486 2.46464 0
M  V30 1726 C 176.56 -1.58603 2.27465 0
M  V30 1727 H 179.511 -0.48396 1.51141 0
M  V30 1728 H 179.532 -3.12331 2.17323 0
M  V30 1729 H 179.044 -1.80554 3.43543 0
M  V30 1730 H 177.145 -3.39005 1.54617 0
M  V30 1731 H 177.258 -3.34511 3.42986 0
M  V30 1732 H 175.622 -1.84632 1.75451 0
M  V30 1733 H 176.405 -1.10233 3.25121 0
M  V30 1734 N 178.85 -1.27639 -0.924453 0
M  V30 1735 C 180.098 -1.13941 -1.66918 0
M  V30 1736 C 180.419 0.314589 -1.92446 0
M  V30 1737 O 179.689 1.21964 -1.53303 0
M  V30 1738 H 178.269 -0.418678 -0.618642 0
M  V30 1739 H 180.931 -1.60213 -1.10985 0
M  V30 1740 H 180.027 -1.67094 -2.63602 0
M  V30 1741 N 180.328 1.1314 -1.09713 0
M  V30 1742 C 181.291 2.16831 -0.742751 0
M  V30 1743 C 182.291 1.59159 0.229129 0
M  V30 1744 O 183.481 1.74199 0.00693237 0
M  V30 1745 C 180.613 3.40756 -0.0989168 0
M  V30 1746 H 181.806 2.49695 -1.66109 0
M  V30 1747 H 179.359 1.2802 -0.896699 0
M  V30 1748 H 180.094 3.13485 0.830514 0
M  V30 1749 H 179.879 3.83888 -0.798265 0
M  V30 1750 H 181.369 4.17386 0.133524 0
M  V30 1751 N 181.806 0.884767 1.30421 0
M  V30 1752 C 182.736 0.367574 2.30589 0
M  V30 1753 C 183.717 -0.549464 1.60981 0
M  V30 1754 O 184.902 -0.46336 1.88591 0
M  V30 1755 C 182.032 -0.418944 3.44764 0
M  V30 1756 C 180.986 0.406316 4.26067 0
M  V30 1757 C 180.312 -0.506793 5.32293 0
M  V30 1758 C 181.612 1.64832 4.95608 0
M  V30 1759 H 183.306 1.20462 2.74097 0
M  V30 1760 H 180.852 0.580695 1.31772 0
M  V30 1761 H 182.805 -0.791395 4.13902 0
M  V30 1762 H 181.529 -1.28964 3.0006 0
M  V30 1763 H 180.188 0.760903 3.58617 0
M  V30 1764 H 179.836 -1.37519 4.83836 0
M  V30 1765 H 179.536 0.0415828 5.87585 0
M  V30 1766 H 181.06 -0.875764 6.04287 0
M  V30 1767 H 182.474 1.34646 5.57264 0
M  V30 1768 H 180.871 2.13688 5.60765 0
M  V30 1769 H 181.941 2.39284 4.21748 0
M  V30 1770 N 183.284 -1.43765 0.645699 0
M  V30 1771 C 184.532 -2.01499 0.155731 0
M  V30 1772 C 184.853 -1.51151 -1.232 0
M  V30 1773 O 184.123 -0.721044 -1.82148 0
M  V30 1774 H 182.703 -0.745003 0.0545817 0
M  V30 1775 H 185.365 -1.76075 0.835677 0
M  V30 1776 H 184.461 -3.1181 0.134577 0
M  V30 1777 N 184.763 -0.387143 -1.52771 0
M  V30 1778 C 186.179 -0.037007 -1.59557 0
M  V30 1779 C 186.379 1.44801 -1.40124 0
M  V30 1780 O 185.435 2.21227 -1.21716 0
M  V30 1781 C 186.748 -0.512256 -2.96305 0
M  V30 1782 C 188.296 -0.468328 -3.09476 0
M  V30 1783 C 188.771 -0.919731 -4.4867 0
M  V30 1784 N 190.262 -0.875656 -4.54848 0
M  V30 1785 C 190.997 -1.19637 -5.6078 0
M  V30 1786 N 190.493 -1.58745 -6.74368 0
M  V30 1787 N 192.286 -1.11776 -5.50874 0
M  V30 1788 H 184.437 -1.35395 -1.63652 0
M  V30 1789 H 186.7 -0.554818 -0.768688 0
M  V30 1790 H 186.406 -1.54935 -3.15734 0
M  V30 1791 H 186.28 0.089805 -3.77093 0
M  V30 1792 H 188.667 0.559671 -2.89744 0
M  V30 1793 H 188.748 -1.10616 -2.30646 0
M  V30 1794 H 188.392 -1.94595 -4.69143 0
M  V30 1795 H 188.322 -0.258927 -5.25963 0
M  V30 1796 H 190.813 -0.587843 -3.733 0
M  V30 1797 H 191.126 -1.81586 -7.51163 0
M  V30 1798 H 189.471 -1.6263 -6.75705 0
M  V30 1799 H 192.662 -0.811264 -4.61016 0
M  V30 1800 H 192.835 -1.37103 -6.3333 0
M  V30 1801 N 186.241 1.57166 -0.116904 0
M  V30 1802 C 187.171 2.18222 0.830759 0
M  V30 1803 C 188.152 1.12167 1.27877 0
M  V30 1804 O 189.337 1.40394 1.34176 0
M  V30 1805 C 186.467 2.77996 2.08172 0
M  V30 1806 C 185.421 3.89614 1.77157 0
M  V30 1807 C 184.747 4.36187 3.09265 0
M  V30 1808 C 186.047 5.1181 1.04151 0
M  V30 1809 H 187.741 2.97664 0.321992 0
M  V30 1810 H 185.287 1.4318 0.153434 0
M  V30 1811 H 187.24 3.19366 2.74924 0
M  V30 1812 H 185.964 1.9584 2.6137 0
M  V30 1813 H 184.623 3.48816 1.12796 0
M  V30 1814 H 184.271 3.50893 3.60393 0
M  V30 1815 H 183.971 5.11455 2.89288 0
M  V30 1816 H 185.495 4.80207 3.77139 0
M  V30 1817 H 186.909 5.50214 1.61052 0
M  V30 1818 H 185.306 5.92648 0.942762 0
M  V30 1819 H 186.376 4.84892 0.0279022 0
M  V30 1820 N 187.719 -0.156864 1.56817 0
M  V30 1821 C 188.967 -0.869404 1.82444 0
M  V30 1822 C 189.288 -1.82147 0.69623 0
M  V30 1823 O 188.558 -1.93847 -0.28287 0
M  V30 1824 H 187.138 -0.324043 0.673056 0
M  V30 1825 H 189.8 -0.153224 1.94297 0
M  V30 1826 H 188.896 -1.43761 2.77019 0
M  V30 1827 N 189.197 -1.51736 -0.425897 0
M  V30 1828 C 190.16 -1.73271 -1.50032 0
M  V30 1829 C 191.16 -0.602639 -1.4908 0
M  V30 1830 O 192.35 -0.87033 -1.509 0
M  V30 1831 C 189.482 -1.79969 -2.89523 0
M  V30 1832 H 190.675 -2.69172 -1.32237 0
M  V30 1833 H 188.228 -1.41899 -0.65532 0
M  V30 1834 H 188.963 -0.859241 -3.1271 0
M  V30 1835 H 188.748 -2.62109 -2.91619 0
M  V30 1836 H 190.238 -1.9843 -3.67444 0
M  V30 1837 N 190.675 0.682077 -1.42076 0
M  V30 1838 C 191.921 1.44283 -1.43366 0
M  V30 1839 C 192.276 1.92344 -0.0465775 0
M  V30 1840 O 191.569 1.67517 0.929973 0
M  V30 1841 C 191.763 2.66036 -2.38662 0
M  V30 1842 C 191.592 2.29889 -3.86499 0
M  V30 1843 C 190.362 2.19599 -4.55087 0
M  V30 1844 C 192.56 1.91999 -4.77117 0
M  V30 1845 N 190.542 1.76478 -5.87987 0
M  V30 1846 C 191.913 1.59741 -5.99068 0
M  V30 1847 C 193.968 1.78927 -4.64639 0
M  V30 1848 C 192.671 1.15723 -7.0993 0
M  V30 1849 C 194.697 1.36314 -5.75476 0
M  V30 1850 C 194.059 1.04975 -6.96534 0
M  V30 1851 H 190.158 0.524739 -0.579805 0
M  V30 1852 H 192.742 0.787834 -1.78048 0
M  V30 1853 H 190.913 3.29237 -2.06053 0
M  V30 1854 H 192.645 3.32588 -2.30581 0
M  V30 1855 H 189.4 2.38433 -4.09202 0
M  V30 1856 H 189.824 1.57362 -6.58458 0
M  V30 1857 H 194.466 2.01805 -3.7153 0
M  V30 1858 H 192.184 0.91591 -8.02893 0
M  V30 1859 H 195.77 1.26731 -5.6783 0
M  V30 1860 H 194.65 0.725017 -7.80841 0
M  V30 1861 N 192.153 1.28127 0.917671 0
M  V30 1862 C 193.116 1.11744 2.00115 0
M  V30 1863 C 194.116 0.0583052 1.60694 0
M  V30 1864 O 195.306 0.303755 1.71531 0
M  V30 1865 C 192.438 0.704862 3.33533 0
M  V30 1866 H 193.631 2.07966 2.16079 0
M  V30 1867 H 191.184 1.11058 1.09981 0
M  V30 1868 H 191.919 -0.258299 3.2327 0
M  V30 1869 H 191.704 1.4699 3.63505 0
M  V30 1870 H 193.194 0.612768 4.1308 0
M  V30 1871 N 193.631 -1.12557 1.10312 0
M  V30 1872 C 194.561 -2.20341 0.772798 0
M  V30 1873 C 195.542 -1.68198 -0.25365 0
M  V30 1874 O 196.727 -1.93831 -0.119699 0
M  V30 1875 C 193.857 -3.46709 0.202443 0
M  V30 1876 C 192.811 -4.11996 1.15943 0
M  V30 1877 C 192.137 -5.328 0.450345 0
M  V30 1878 C 193.437 -4.5828 2.50552 0
M  V30 1879 H 195.131 -2.48229 1.674 0
M  V30 1880 H 192.677 -1.19308 0.806326 0
M  V30 1881 H 194.63 -4.2138 -0.0407752 0
M  V30 1882 H 193.354 -3.18245 -0.734001 0
M  V30 1883 H 192.013 -3.39305 1.38808 0
M  V30 1884 H 191.661 -5.00602 -0.490531 0
M  V30 1885 H 191.361 -5.7743 1.08851 0
M  V30 1886 H 192.885 -6.10219 0.215642 0
M  V30 1887 H 194.299 -5.2433 2.31843 0
M  V30 1888 H 192.696 -5.13683 3.10242 0
M  V30 1889 H 193.766 -3.72329 3.10643 0
M  V30 1890 N 195.109 -0.891671 -1.2995 0
M  V30 1891 C 196.039 -0.379797 -2.30391 0
M  V30 1892 C 197.02 0.540919 -1.6127 0
M  V30 1893 O 198.205 0.453352 -1.88834 0
M  V30 1894 C 195.335 0.400654 -3.44981 0
M  V30 1895 C 194.289 -0.428905 -4.25846 0
M  V30 1896 C 193.615 0.478557 -5.32554 0
M  V30 1897 C 194.915 -1.67458 -4.94727 0
M  V30 1898 H 196.609 -1.21914 -2.73454 0
M  V30 1899 H 194.155 -0.587675 -1.31462 0
M  V30 1900 H 196.108 0.769434 -4.14316 0
M  V30 1901 H 194.832 1.27371 -3.0074 0
M  V30 1902 H 193.491 -0.779911 -3.58208 0
M  V30 1903 H 193.139 1.34951 -4.84559 0
M  V30 1904 H 192.839 -0.0727433 -5.87555 0
M  V30 1905 H 194.363 0.843705 -6.04743 0
M  V30 1906 H 195.777 -1.376 -5.56542 0
M  V30 1907 H 194.174 -2.16659 -5.59624 0
M  V30 1908 H 195.244 -2.41518 -4.20473 0
M  V30 1909 N 196.587 1.43421 -0.653314 0
M  V30 1910 C 197.834 2.01812 -0.166745 0
M  V30 1911 C 198.162 1.51535 1.21931 0
M  V30 1912 O 197.417 0.698975 1.82792 0
M  V30 1913 C 197.716 3.57176 -0.126623 0
M  V30 1914 C 197.382 4.26798 -1.45444 0
M  V30 1915 C 196.044 4.45534 -1.81805 0
M  V30 1916 C 198.396 4.66225 -2.32989 0
M  V30 1917 C 195.724 5.00961 -3.05377 0
M  V30 1918 C 198.076 5.23021 -3.55853 0
M  V30 1919 C 196.74 5.39973 -3.9241 0
M  V30 1920 H 196.01 0.738484 -0.0610162 0
M  V30 1921 H 198.657 1.71896 -0.84404 0
M  V30 1922 H 196.962 3.86634 0.634123 0
M  V30 1923 H 198.659 4.00112 0.266723 0
M  V30 1924 H 195.249 4.12561 -1.16153 0
M  V30 1925 H 199.433 4.51443 -2.06187 0
M  V30 1926 H 194.689 5.12271 -3.3375 0
M  V30 1927 H 198.863 5.52518 -4.23907 0
M  V30 1928 H 196.49 5.82687 -4.88242 0
M  V30 1929 N 198.065 0.39524 1.52563 0
M  V30 1930 C 199.312 -0.185044 2.01653 0
M  V30 1931 C 199.64 -1.46317 1.28146 0
M  V30 1932 O 198.895 -1.9213 0.372074 0
M  V30 1933 C 199.194 -0.493444 3.53977 0
M  V30 1934 C 198.86 0.69384 4.4553 0
M  V30 1935 C 197.522 1.01954 4.70275 0
M  V30 1936 C 199.874 1.48785 4.99512 0
M  V30 1937 C 197.202 2.14069 5.46252 0
M  V30 1938 C 199.554 2.59965 5.76716 0
M  V30 1939 C 198.218 2.93037 5.99738 0
M  V30 1940 H 197.488 -0.0677123 0.7379 0
M  V30 1941 H 200.135 0.533807 1.8391 0
M  V30 1942 H 198.44 -1.29369 3.69825 0
M  V30 1943 H 200.137 -0.955163 3.89458 0
M  V30 1944 H 196.727 0.429987 4.26438 0
M  V30 1945 H 200.911 1.24946 4.80315 0
M  V30 1946 H 196.167 2.40056 5.62302 0
M  V30 1947 H 200.341 3.21887 6.17545 0
M  V30 1948 H 197.968 3.8003 6.58393 0
M  V30 1949 N 199.544 -1.57102 0.125237 0
M  V30 1950 C 200.474 -2.18659 -0.819174 0
M  V30 1951 C 201.455 -1.12843 -1.27281 0
M  V30 1952 O 202.64 -1.41104 -1.33429 0
M  V30 1953 C 199.77 -2.79096 -2.06695 0
M  V30 1954 C 198.724 -3.90548 -1.75088 0
M  V30 1955 C 198.05 -4.37821 -3.06948 0
M  V30 1956 C 199.35 -5.12356 -1.01435 0
M  V30 1957 H 201.044 -2.9783 -0.306202 0
M  V30 1958 H 198.59 -1.4326 -0.145839 0
M  V30 1959 H 200.543 -3.2082 -2.73226 0
M  V30 1960 H 199.267 -1.97223 -2.60328 0
M  V30 1961 H 197.926 -3.49409 -1.10944 0
M  V30 1962 H 197.574 -3.52799 -3.58527 0
M  V30 1963 H 197.274 -5.12982 -2.86571 0
M  V30 1964 H 198.798 -4.822 -3.74587 0
M  V30 1965 H 200.212 -5.5106 -1.58132 0
M  V30 1966 H 198.609 -5.9314 -0.911319 0
M  V30 1967 H 199.679 -4.849 -0.00218681 0
M  V30 1968 N 201.022 0.148545 -1.56898 0
M  V30 1969 C 202.268 0.862694 -1.83536 0
M  V30 1970 C 202.601 1.80889 -0.706604 0
M  V30 1971 O 201.876 1.92328 0.289885 0
M  V30 1972 C 202.159 1.63853 -3.20662 0
M  V30 1973 C 202.012 0.713925 -4.44098 0
M  V30 1974 C 203.331 2.60133 -3.54991 0
M  V30 1975 H 200.45 0.312179 -0.667618 0
M  V30 1976 H 203.092 0.127953 -1.89569 0
M  V30 1977 H 201.242 2.26489 -3.1565 0
M  V30 1978 H 202.914 0.098686 -4.61194 0
M  V30 1979 H 201.157 0.0234019 -4.33794 0
M  V30 1980 H 201.828 1.29278 -5.36648 0
M  V30 1981 H 204.304 2.07616 -3.60603 0
M  V30 1982 H 203.18 3.11468 -4.51972 0
M  V30 1983 H 203.441 3.41417 -2.80868 0
M  V30 1984 N 202.5 1.5196 0.417844 0
M  V30 1985 C 203.728 1.69426 1.18753 0
M  V30 1986 C 204.143 0.399955 1.84515 0
M  V30 1987 O 203.5 -0.623288 1.71527 0
M  V30 1988 C 203.551 2.82375 2.25714 0
M  V30 1989 O 203.272 4.06793 1.62638 0
M  V30 1990 C 204.773 3.11277 3.15628 0
M  V30 1991 H 201.993 0.568031 0.357186 0
M  V30 1992 H 204.537 1.98475 0.49273 0
M  V30 1993 H 202.692 2.5587 2.90877 0
M  V30 1994 H 203.106 4.69667 2.3348 0
M  V30 1995 H 204.58 3.93843 3.86771 0
M  V30 1996 H 205.057 2.24473 3.77503 0
M  V30 1997 H 205.663 3.39515 2.56144 0
M  V30 1998 N 203.978 -0.674533 1.42435 0
M  V30 1999 C 205.206 -1.46283 1.46317 0
M  V30 2000 C 205.621 -1.88653 0.0745836 0
M  V30 2001 O 204.978 -1.58151 -0.91074 0
M  V30 2002 C 205.029 -2.71178 2.3905 0
M  V30 2003 O 204.75 -2.30586 3.72507 0
M  V30 2004 C 206.251 -3.64738 2.51955 0
M  V30 2005 H 203.471 -0.450104 0.497642 0
M  V30 2006 H 206.015 -0.828792 1.86953 0
M  V30 2007 H 204.17 -3.3077 2.01667 0
M  V30 2008 H 204.584 -3.11241 4.22172 0
M  V30 2009 H 206.058 -4.49096 3.20962 0
M  V30 2010 H 206.535 -4.10656 1.55752 0
M  V30 2011 H 207.141 -3.11038 2.90061 0
M  V30 2012 N 205.456 -1.28612 -0.910864 0
M  V30 2013 C 206.386 -1.15326 -2.03032 0
M  V30 2014 C 207.367 -0.0502924 -1.70026 0
M  V30 2015 O 208.552 -0.227797 -1.92859 0
M  V30 2016 C 205.682 -0.817343 -3.37545 0
M  V30 2017 C 204.636 -1.8754 -3.84724 0
M  V30 2018 C 203.962 -1.39305 -5.16235 0
M  V30 2019 C 205.262 -3.28244 -4.06267 0
M  V30 2020 H 206.956 -2.08975 -2.14406 0
M  V30 2021 H 204.502 -1.00612 -1.03021 0
M  V30 2022 H 206.455 -0.711151 -4.15356 0
M  V30 2023 H 205.179 0.154846 -3.26233 0
M  V30 2024 H 203.838 -1.97079 -3.09121 0
M  V30 2025 H 203.486 -0.409846 -5.01328 0
M  V30 2026 H 203.186 -2.10057 -5.48771 0
M  V30 2027 H 204.71 -1.30014 -5.96598 0
M  V30 2028 H 206.124 -3.21611 -4.74594 0
M  V30 2029 H 204.521 -3.96855 -4.5014 0
M  V30 2030 H 205.591 -3.72048 -3.10979 0
M  V30 2031 N 206.934 1.1197 -1.10907 0
M  V30 2032 C 207.864 2.19928 -0.784473 0
M  V30 2033 C 208.845 1.6833 0.244726 0
M  V30 2034 O 210.03 1.93892 0.109418 0
M  V30 2035 C 207.16 3.46597 -0.220827 0
M  V30 2036 C 206.114 4.11376 -1.18127 0
M  V30 2037 C 205.44 5.32554 -0.478594 0
M  V30 2038 C 206.74 4.56945 -2.52979 0
M  V30 2039 H 208.434 2.47337 -1.68715 0
M  V30 2040 H 205.98 1.18879 -0.812642 0
M  V30 2041 H 207.933 4.21396 0.0184278 0
M  V30 2042 H 206.657 3.1863 0.717113 0
M  V30 2043 H 205.316 3.38564 -1.40606 0
M  V30 2044 H 204.964 5.00856 0.463976 0
M  V30 2045 H 204.664 5.76844 -1.11912 0
M  V30 2046 H 206.188 6.10096 -0.248 0
M  V30 2047 H 207.602 5.23093 -2.3462 0
M  V30 2048 H 205.999 5.1203 -3.12962 0
M  V30 2049 H 207.069 3.70676 -3.12614 0
M  V30 2050 N 208.412 0.89855 1.29475 0
M  V30 2051 C 209.375 0.380272 2.26023 0
M  V30 2052 C 210.375 -0.484891 1.53315 0
M  V30 2053 O 211.565 -0.290108 1.71767 0
M  V30 2054 C 208.697 -0.45651 3.3783 0
M  V30 2055 H 209.89 1.23295 2.73383 0
M  V30 2056 H 207.443 0.676589 1.40897 0
M  V30 2057 H 208.178 -1.32922 2.95808 0
M  V30 2058 H 207.963 0.163393 3.91759 0
M  V30 2059 H 209.453 -0.810466 4.0966 0
M  V30 2060 N 209.89 -1.43072 0.660911 0
M  V30 2061 C 211.115 -2.06584 0.183805 0
M  V30 2062 C 211.54 -1.49257 -1.14472 0
M  V30 2063 O 210.898 -0.605528 -1.70889 0
M  V30 2064 C 210.946 -3.60418 0.114434 0
M  V30 2065 O 210.05 -4.01981 -0.921137 0
M  V30 2066 H 209.391 -0.656669 0.0983994 0
M  V30 2067 H 211.921 -1.83447 0.906006 0
M  V30 2068 H 211.931 -4.07946 -0.0663394 0
M  V30 2069 H 210.606 -4.01519 1.08422 0
M  V30 2070 H 209.183 -3.66029 -0.71253 0
M  V30 2071 N 211.368 -0.403325 -1.52352 0
M  V30 2072 C 212.331 0.413051 -2.25447 0
M  V30 2073 C 213.331 0.978513 -1.276 0
M  V30 2074 O 214.521 0.858305 -1.51587 0
M  V30 2075 C 211.653 1.58087 -3.02029 0
M  V30 2076 H 212.846 -0.227094 -2.99039 0
M  V30 2077 H 210.399 -0.155722 -1.55522 0
M  V30 2078 H 211.134 2.25804 -2.32772 0
M  V30 2079 H 210.919 1.18195 -3.73861 0
M  V30 2080 H 212.409 2.1585 -3.57489 0
M  V30 2081 N 212.846 1.57033 -0.133567 0
M  V30 2082 C 213.776 2.1909 0.807567 0
M  V30 2083 C 214.757 1.13517 1.26681 0
M  V30 2084 O 215.942 1.41809 1.32679 0
M  V30 2085 C 213.072 2.80188 2.05212 0
M  V30 2086 C 212.026 3.91471 1.73015 0
M  V30 2087 C 211.352 4.39443 3.04622 0
M  V30 2088 C 212.652 5.12886 0.987168 0
M  V30 2089 H 214.346 2.97988 0.290403 0
M  V30 2090 H 211.892 1.43335 0.138239 0
M  V30 2091 H 213.845 3.22264 2.71521 0
M  V30 2092 H 212.569 1.98601 2.59278 0
M  V30 2093 H 211.228 3.49993 1.0909 0
M  V30 2094 H 210.876 3.54695 3.56651 0
M  V30 2095 H 210.576 5.14495 2.83847 0
M  V30 2096 H 212.1 4.8418 3.72024 0
M  V30 2097 H 213.514 5.51891 1.55208 0
M  V30 2098 H 211.911 5.93615 0.87985 0
M  V30 2099 H 212.981 4.84894 -0.0235286 0
M  V30 2100 N 214.325 -0.140222 1.56975 0
M  V30 2101 C 215.573 -0.850005 1.83356 0
M  V30 2102 C 215.894 -1.81399 0.71551 0
M  V30 2103 O 215.164 -1.94136 -0.262294 0
M  V30 2104 H 213.744 -0.316886 0.676456 0
M  V30 2105 H 216.406 -0.132608 1.94448 0
M  V30 2106 H 215.502 -1.40814 2.78528 0
M  V30 2107 N 215.803 -1.52179 -0.40978 0
M  V30 2108 C 217.049 -1.66453 -1.15851 0
M  V30 2109 C 217.382 -0.392972 -1.90182 0
M  V30 2110 O 216.657 0.608579 -1.84734 0
M  V30 2111 C 216.94 -2.88612 -2.15349 0
M  V30 2112 C 216.793 -4.25815 -1.44918 0
M  V30 2113 C 218.112 -3.06294 -3.16026 0
M  V30 2114 H 215.231 -0.60575 -0.419805 0
M  V30 2115 H 217.873 -1.84732 -0.444314 0
M  V30 2116 H 216.023 -2.73158 -2.76255 0
M  V30 2117 H 217.695 -4.52995 -0.871365 0
M  V30 2118 H 215.938 -4.27247 -0.751159 0
M  V30 2119 H 216.609 -5.07337 -2.17516 0
M  V30 2120 H 219.085 -3.20641 -2.65195 0
M  V30 2121 H 217.961 -3.93283 -3.8291 0
M  V30 2122 H 218.222 -2.19579 -3.83715 0
M  V30 2123 N 217.281 0.66697 -1.42791 0
M  V30 2124 C 218.529 1.42417 -1.43394 0
M  V30 2125 C 218.85 1.94925 -0.0542373 0
M  V30 2126 O 218.12 1.73564 0.908415 0
M  V30 2127 H 216.7 0.528515 -0.527902 0
M  V30 2128 H 219.362 0.787562 -1.78279 0
M  V30 2129 H 218.458 2.27333 -2.13837 0
M  V30 2130 N 218.759 1.29093 0.90403 0
M  V30 2131 C 219.689 1.16401 2.02418 0
M  V30 2132 C 220.67 0.0593085 1.69997 0
M  V30 2133 O 221.855 0.238021 1.92736 0
M  V30 2134 C 218.985 0.835233 3.37107 0
M  V30 2135 C 217.939 1.89578 3.83724 0
M  V30 2136 C 217.265 1.42041 5.15489 0
M  V30 2137 C 218.565 3.30394 4.04521 0
M  V30 2138 H 220.259 2.10109 2.13295 0
M  V30 2139 H 217.805 1.01157 1.02486 0
M  V30 2140 H 219.758 0.733169 4.14973 0
M  V30 2141 H 218.482 -0.137543 3.2631 0
M  V30 2142 H 217.141 1.98715 3.08071 0
M  V30 2143 H 216.789 0.436426 5.01103 0
M  V30 2144 H 216.489 2.12964 5.4765 0
M  V30 2145 H 218.013 1.33176 5.959 0
M  V30 2146 H 219.427 3.24123 4.72882 0
M  V30 2147 H 217.824 3.99237 4.48029 0
M  V30 2148 H 218.894 3.73692 3.09002 0
M  V30 2149 N 220.237 -1.11381 1.11499 0
M  V30 2150 C 221.2 -2.15622 0.777153 0
M  V30 2151 C 222.2 -1.59504 -0.203779 0
M  V30 2152 O 223.39 -1.74188 0.020782 0
M  V30 2153 C 220.522 -3.40556 0.153116 0
M  V30 2154 H 221.715 -2.47021 1.70061 0
M  V30 2155 H 219.268 -1.26577 0.916952 0
M  V30 2156 H 220.003 -3.14767 -0.780536 0
M  V30 2157 H 219.788 -3.8257 0.859238 0
M  V30 2158 H 221.278 -4.17546 -0.0671044 0
M  V30 2159 N 221.715 -0.905404 -1.28997 0
M  V30 2160 C 222.645 -0.404212 -2.29975 0
M  V30 2161 C 223.626 0.523784 -1.61835 0
M  V30 2162 O 224.811 0.433298 -1.89304 0
M  V30 2163 C 221.941 0.364042 -3.45387 0
M  V30 2164 C 220.895 -0.474048 -4.25367 0
M  V30 2165 C 220.221 0.422045 -5.33032 0
M  V30 2166 C 221.521 -1.72696 -4.92923 0
M  V30 2167 H 223.215 -1.24807 -2.72146 0
M  V30 2168 H 220.761 -0.601585 -1.30832 0
M  V30 2169 H 222.714 0.725447 -4.15109 0
M  V30 2170 H 221.438 1.24174 -3.02074 0
M  V30 2171 H 220.097 -0.81786 -3.57361 0
M  V30 2172 H 219.745 1.29804 -4.85963 0
M  V30 2173 H 219.445 -0.135057 -5.87445 0
M  V30 2174 H 220.969 0.779517 -6.05604 0
M  V30 2175 H 222.383 -1.43495 -5.55051 0
M  V30 2176 H 220.78 -2.22582 -5.57295 0
M  V30 2177 H 221.85 -2.45964 -4.17887 0
M  V30 2178 N 223.193 1.4272 -0.668489 0
M  V30 2179 C 224.156 2.292 0.00448567 0
M  V30 2180 C 225.156 1.43001 0.735339 0
M  V30 2181 O 226.346 1.64461 0.57429 0
M  V30 2182 C 223.478 3.25375 1.01705 0
M  V30 2183 H 224.671 2.90199 -0.756608 0
M  V30 2184 H 222.224 1.50254 -0.430506 0
M  V30 2185 H 222.959 2.69301 1.80686 0
M  V30 2186 H 222.744 3.88944 0.496463 0
M  V30 2187 H 224.234 3.90245 1.48655 0
M  V30 2188 N 224.671 0.411399 1.52136 0
M  V30 2189 C 225.601 -0.404015 2.29978 0
M  V30 2190 C 226.582 -1.04412 1.34284 0
M  V30 2191 O 227.767 -1.0527 1.63192 0
M  V30 2192 C 224.897 -1.5197 3.12286 0
M  V30 2193 C 223.851 -1.00448 4.16046 0
M  V30 2194 C 223.177 -2.21393 4.86712 0
M  V30 2195 C 224.477 -0.0569336 5.22269 0
M  V30 2196 H 226.171 0.245529 2.98392 0
M  V30 2197 H 223.717 0.119525 1.43503 0
M  V30 2198 H 225.67 -2.09715 3.6551 0
M  V30 2199 H 224.394 -2.19716 2.41646 0
M  V30 2200 H 223.053 -0.449421 3.63835 0
M  V30 2201 H 222.701 -2.87699 4.12599 0
M  V30 2202 H 222.401 -1.87571 5.56858 0
M  V30 2203 H 223.925 -2.7974 5.4275 0
M  V30 2204 H 225.339 -0.54325 5.7072 0
M  V30 2205 H 223.736 0.192594 5.99791 0
M  V30 2206 H 224.806 0.887663 4.76706 0
M  V30 2207 N 226.149 -1.5696 0.141893 0
M  V30 2208 C 227.081 -2.13619 -0.830627 0
M  V30 2209 C 228.094 -1.08439 -1.21428 0
M  V30 2210 O 229.283 -1.35734 -1.15925 0
M  V30 2211 C 226.383 -2.63978 -2.12529 0
M  V30 2212 C 225.556 -3.93504 -1.9098 0
M  V30 2213 C 224.615 -4.29225 -3.04388 0
M  V30 2214 O 223.641 -4.97641 -2.76302 0
M  V30 2215 N 224.843 -3.88393 -4.31429 0
M  V30 2216 H 227.608 -2.97691 -0.34641 0
M  V30 2217 H 225.169 -1.61846 -0.0418375 0
M  V30 2218 H 227.161 -2.84891 -2.87436 0
M  V30 2219 H 225.731 -1.84659 -2.52229 0
M  V30 2220 H 224.951 -3.81269 -1.00139 0
M  V30 2221 H 226.239 -4.78154 -1.73914 0
M  V30 2222 H 225.637 -3.33257 -4.57117 0
M  V30 2223 H 224.194 -4.14368 -5.03133 0
M  V30 2224 N 227.627 0.131896 -1.57047 0
M  V30 2225 C 229.038 0.690407 -1.73465 0
M  V30 2226 C 229.389 1.8094 -0.758629 0
M  V30 2227 O 228.514 2.16282 0.0713813 0
M  V30 2228 C 229.109 1.25916 -3.14532 0
M  V30 2229 C 227.668 1.76409 -3.32501 0
M  V30 2230 C 226.815 0.658579 -2.69366 0
M  V30 2231 H 229.766 -0.0939144 -1.58422 0
M  V30 2232 H 229.787 2.12892 -3.15369 0
M  V30 2233 H 229.299 0.444515 -3.85546 0
M  V30 2234 H 227.4 2.60391 -2.66509 0
M  V30 2235 H 227.513 1.88241 -4.4057 0
M  V30 2236 H 225.877 1.08899 -2.30246 0
M  V30 2237 H 226.66 -0.14487 -3.42994 0
M  V30 2238 N 229.106 1.52395 0.401703 0
M  V30 2239 C 230.354 1.66488 1.14569 0
M  V30 2240 C 230.675 0.400897 1.90835 0
M  V30 2241 O 229.945 -0.584415 1.8698 0
M  V30 2242 H 228.525 0.613672 0.425929 0
M  V30 2243 H 231.187 1.89464 0.457093 0
M  V30 2244 H 230.283 2.50942 1.85566 0
M  V30 2245 N 230.584 -0.659388 1.43143 0
M  V30 2246 C 231.547 -1.75432 1.47501 0
M  V30 2247 C 232.547 -1.56707 0.360512 0
M  V30 2248 O 233.737 -1.62717 0.622002 0
M  V30 2249 C 230.869 -3.14239 1.32162 0
M  V30 2250 H 232.062 -1.7295 2.45006 0
M  V30 2251 H 229.615 -0.870469 1.29817 0
M  V30 2252 H 230.35 -3.22336 0.356401 0
M  V30 2253 H 230.135 -3.29235 2.12948 0
M  V30 2254 H 231.625 -3.94094 1.3813 0
M  V30 2255 N 232.062 -1.29571 -0.897171 0
M  V30 2256 C 233.025 -1.14913 -1.98312 0
M  V30 2257 C 234.025 -0.0838629 -1.60581 0
M  V30 2258 O 235.215 -0.331006 -1.71026 0
M  V30 2259 C 232.347 -0.757835 -3.3237 0
M  V30 2260 H 233.54 -2.11377 -2.12743 0
M  V30 2261 H 231.093 -1.12793 -1.08201 0
M  V30 2262 H 231.828 0.206837 -3.2364 0
M  V30 2263 H 231.613 -1.52755 -3.61121 0
M  V30 2264 H 233.103 -0.678408 -4.12053 0
M  V30 2265 N 233.54 1.10788 -1.12088 0
M  V30 2266 C 234.765 1.87002 -0.896949 0
M  V30 2267 C 235.19 1.79933 0.548261 0
M  V30 2268 O 234.548 1.16662 1.38779 0
M  V30 2269 C 234.596 3.3349 -1.37174 0
M  V30 2270 O 233.7 4.08745 -0.547831 0
M  V30 2271 H 233.041 0.580397 -0.322545 0
M  V30 2272 H 235.571 1.39996 -1.49206 0
M  V30 2273 H 235.581 3.84339 -1.36922 0
M  V30 2274 H 234.256 3.37951 -2.42408 0
M  V30 2275 H 232.833 3.6776 -0.617034 0
M  V30 2276 N 235.018 0.912232 1.28515 0
M  V30 2277 C 235.981 0.404223 2.25607 0
M  V30 2278 C 236.981 -0.468602 1.53821 0
M  V30 2279 O 238.171 -0.271873 1.72065 0
M  V30 2280 C 235.303 -0.420653 3.38295 0
M  V30 2281 H 236.496 1.26188 2.7206 0
M  V30 2282 H 234.049 0.691495 1.40171 0
M  V30 2283 H 234.784 -1.29777 2.97201 0
M  V30 2284 H 234.569 0.204935 3.91564 0
M  V30 2285 H 236.059 -0.766971 4.10496 0
M  V30 2286 N 236.496 -1.42363 0.676048 0
M  V30 2287 C 237.459 -2.29199 0.00766941 0
M  V30 2288 C 238.459 -1.43389 -0.727745 0
M  V30 2289 O 239.649 -1.64764 -0.56556 0
M  V30 2290 C 236.781 -3.2591 -0.999785 0
M  V30 2291 H 237.974 -2.89794 0.771988 0
M  V30 2292 H 235.527 -1.50024 0.438468 0
M  V30 2293 H 236.262 -2.70256 -1.79255 0
M  V30 2294 H 236.047 -3.89202 -0.475829 0
M  V30 2295 H 237.537 -3.91028 -1.46583 0
M  V30 2296 N 237.974 -0.419461 -1.51915 0
M  V30 2297 C 239.223 0.154346 -2.01109 0
M  V30 2298 C 239.536 1.45338 -1.30905 0
M  V30 2299 O 240.742 2.10906 -1.7097 0
M  V30 2300 C 239.198 0.325615 -3.58424 0
M  V30 2301 C 238.806 -0.961934 -4.37551 0
M  V30 2302 C 240.55 0.854155 -4.15818 0
M  V30 2303 C 238.457 -0.757287 -5.86531 0
M  V30 2304 H 237.387 0.0614563 -0.751491 0
M  V30 2305 H 240.038 -0.54649 -1.75173 0
M  V30 2306 H 238.42 1.08903 -3.80731 0
M  V30 2307 H 239.594 -1.7323 -4.26999 0
M  V30 2308 H 237.909 -1.41766 -3.91524 0
M  V30 2309 H 240.506 1.02346 -5.24814 0
M  V30 2310 H 240.849 1.83172 -3.73837 0
M  V30 2311 H 241.382 0.149528 -3.97519 0
M  V30 2312 H 238.121 -1.70671 -6.32892 0
M  V30 2313 H 237.641 -0.0264061 -5.99794 0
M  V30 2314 H 239.32 -0.403482 -6.45741 0
M  V30 2315 N 239.452 1.56882 -0.150215 0
M  V30 2316 C 240.4 2.18214 0.805313 0
M  V30 2317 C 241.394 1.14006 1.25296 0
M  V30 2318 O 242.6 1.3225 1.22107 0
M  V30 2319 H 238.975 0.698762 0.277913 0
M  V30 2320 H 240.946 2.97231 0.263862 0
M  V30 2321 C 239.695 2.82065 2.03309 0
M  V30 2322 H 239.018 3.61968 1.69763 0
M  V30 2323 H 240.458 3.28477 2.68103 0
M  V30 2324 C 238.917 1.80739 2.84315 0
M  V30 2325 O 239.447 1.27983 3.80767 0
M  V30 2326 N 237.653 1.4997 2.48913 0
M  V30 2327 H 237.2 1.93062 1.70542 0
M  V30 2328 H 237.158 0.824217 3.03404 0
M  V30 2329 N 240.93 -0.123565 1.57115 0
M  V30 2330 C 241.893 -1.13583 1.99076 0
M  V30 2331 C 242.893 -1.34564 0.880296 0
M  V30 2332 O 244.083 -1.31158 1.14644 0
M  V30 2333 C 241.215 -2.49128 2.32698 0
M  V30 2334 H 242.408 -0.775287 2.89706 0
M  V30 2335 H 239.961 -0.36771 1.51913 0
M  V30 2336 H 240.696 -2.90111 1.44934 0
M  V30 2337 H 240.481 -2.35255 3.13684 0
M  V30 2338 H 241.971 -3.2199 2.65918 0
M  V30 2339 N 242.408 -1.52605 -0.393616 0
M  V30 2340 C 243.633 -1.71592 -1.16495 0
M  V30 2341 C 244.058 -0.43133 -1.83088 0
M  V30 2342 O 243.416 0.612523 -1.7064 0
M  V30 2343 C 243.464 -2.86318 -2.19213 0
M  V30 2344 O 242.568 -2.52969 -3.257 0
M  V30 2345 H 241.909 -0.570734 -0.33935 0
M  V30 2346 H 244.439 -1.99377 -0.459324 0
M  V30 2347 H 244.449 -3.1168 -2.63286 0
M  V30 2348 H 243.124 -3.79511 -1.7013 0
M  V30 2349 H 241.701 -2.38332 -2.86797 0
M  V30 2350 N 243.887 0.651787 -1.4349 0
M  V30 2351 C 245.133 1.41376 -1.45398 0
M  V30 2352 C 245.466 1.94041 -0.0784823 0
M  V30 2353 O 244.741 1.72379 0.900878 0
M  V30 2354 C 245.024 2.59414 -2.49752 0
M  V30 2355 C 244.877 2.12232 -3.96582 0
M  V30 2356 C 246.196 3.61626 -2.50827 0
M  V30 2357 H 243.315 0.512719 -0.529422 0
M  V30 2358 H 245.957 0.738796 -1.75048 0
M  V30 2359 H 244.107 3.16997 -2.246 0
M  V30 2360 H 245.779 1.59639 -4.32797 0
M  V30 2361 H 244.022 1.43592 -4.09346 0
M  V30 2362 H 244.693 2.9712 -4.65214 0
M  V30 2363 H 247.169 3.13805 -2.7325 0
M  V30 2364 H 246.045 4.41766 -3.25783 0
M  V30 2365 H 246.306 4.14314 -1.5426 0
M  V30 2366 N 245.365 1.30045 0.890287 0
M  V30 2367 C 246.613 1.18327 1.63839 0
M  V30 2368 C 246.934 -0.263455 1.93212 0
M  V30 2369 O 246.204 -1.17856 1.56482 0
M  V30 2370 H 244.784 0.434933 0.607324 0
M  V30 2371 H 247.446 1.631 1.06698 0
M  V30 2372 H 246.542 1.74024 2.59079 0
M  V30 2373 N 246.843 -1.10192 1.12674 0
M  V30 2374 C 247.806 -2.14786 0.799979 0
M  V30 2375 C 248.806 -1.59711 -0.18685 0
M  V30 2376 O 249.996 -1.74156 0.0392558 0
M  V30 2377 C 247.128 -3.40374 0.189228 0
M  V30 2378 H 248.321 -2.45203 1.72671 0
M  V30 2379 H 245.874 -1.25597 0.930326 0
M  V30 2380 H 246.609 -3.15577 -0.747107 0
M  V30 2381 H 246.394 -3.81637 0.899766 0
M  V30 2382 H 247.884 -4.17594 -0.0228143 0
M  V30 2383 N 248.321 -0.919034 -1.28029 0
M  V30 2384 C 249.284 -0.416182 -2.2539 0
M  V30 2385 C 250.284 0.460438 -1.54067 0
M  V30 2386 O 251.474 0.262744 -1.72207 0
M  V30 2387 C 248.606 0.402707 -3.38513 0
M  V30 2388 H 249.799 -1.27629 -2.71387 0
M  V30 2389 H 247.352 -0.698919 -1.39803 0
M  V30 2390 H 248.087 1.282 -2.97885 0
M  V30 2391 H 247.872 -0.225698 -3.9145 0
M  V30 2392 H 249.362 0.745191 -4.10897 0
M  V30 2393 N 249.799 1.42003 -0.683588 0
M  V30 2394 C 251.047 2.01015 -0.209101 0
M  V30 2395 C 251.368 1.54365 1.19149 0
M  V30 2396 O 250.638 0.769083 1.80172 0
M  V30 2397 H 249.218 0.743294 -0.074315 0
M  V30 2398 H 251.88 1.73798 -0.882066 0
M  V30 2399 H 250.976 3.11343 -0.2172 0
M  V30 2400 N 251.277 0.427512 1.51691 0
M  V30 2401 C 252.502 -0.143601 2.06902 0
M  V30 2402 C 252.927 -1.36536 1.29382 0
M  V30 2403 O 252.285 -1.78289 0.329043 0
M  V30 2404 C 252.333 -0.454207 3.57728 0
M  V30 2405 O 251.437 -1.54228 3.82475 0
M  V30 2406 H 250.778 -0.00617128 0.663971 0
M  V30 2407 H 253.308 0.606014 1.95419 0
M  V30 2408 H 253.318 -0.707525 4.01818 0
M  V30 2409 H 251.993 0.438812 4.13579 0
M  V30 2410 H 250.57 -1.2797 3.50254 0
M  V30 2411 N 252.755 -1.56801 0.158532 0
M  V30 2412 C 253.718 -2.16138 -0.762705 0
M  V30 2413 C 254.718 -1.1061 -1.16713 0
M  V30 2414 O 255.908 -1.36191 -1.08617 0
M  V30 2415 C 253.04 -2.73386 -2.03649 0
M  V30 2416 H 254.233 -2.98886 -0.246354 0
M  V30 2417 H 251.786 -1.56035 -0.0909744 0
M  V30 2418 H 252.521 -1.94335 -2.59623 0
M  V30 2419 H 252.306 -3.50601 -1.75559 0
M  V30 2420 H 253.796 -3.19065 -2.6942 0
M  V30 2421 N 254.233 0.115231 -1.57178 0
M  V30 2422 C 255.143 1.15994 -2.03918 0
M  V30 2423 C 256.159 1.45103 -0.960268 0
M  V30 2424 O 257.335 1.56144 -1.27204 0
M  V30 2425 C 254.4 2.46568 -2.43732 0
M  V30 2426 C 253.461 2.24822 -3.65723 0
M  V30 2427 C 252.694 3.4917 -4.03629 0
M  V30 2428 O 252.917 4.56623 -3.41835 0
M  V30 2429 O 251.851 3.39949 -4.96708 0
M  V30 2430 H 255.677 0.793019 -2.93164 0
M  V30 2431 H 253.262 0.3263 -1.45793 0
M  V30 2432 H 255.144 3.23492 -2.70057 0
M  V30 2433 H 253.819 2.82726 -1.57631 0
M  V30 2434 H 252.726 1.45744 -3.44542 0
M  V30 2435 H 254.059 1.93566 -4.52541 0
M  V30 2436 N 255.711 1.52812 0.385517 0
M  V30 2437 C 256.659 1.78482 1.49155 0
M  V30 2438 C 257.653 0.652914 1.56312 0
M  V30 2439 O 258.859 0.835464 1.59436 0
M  V30 2440 H 255.234 0.5648 0.496493 0
M  V30 2441 H 257.205 2.71095 1.24699 0
M  V30 2442 C 255.954 1.97378 2.86247 0
M  V30 2443 H 255.277 2.83907 2.81491 0
M  V30 2444 H 256.717 2.19327 3.62866 0
M  V30 2445 C 255.176 0.74728 3.28508 0
M  V30 2446 O 255.706 -0.0736232 4.01633 0
M  V30 2447 N 253.912 0.576396 2.84826 0
M  V30 2448 H 253.459 1.24555 2.25486 0
M  V30 2449 H 253.417 -0.24288 3.1346 0
M  V30 2450 N 257.189 -0.644168 1.43834 0
M  V30 2451 C 258.152 -1.73857 1.49353 0
M  V30 2452 C 259.152 -1.56315 0.377112 0
M  V30 2453 O 260.342 -1.62048 0.639226 0
M  V30 2454 C 257.474 -3.12819 1.35488 0
M  V30 2455 H 258.667 -1.70342 2.46827 0
M  V30 2456 H 256.22 -0.856652 1.30733 0
M  V30 2457 H 256.955 -3.2194 0.390569 0
M  V30 2458 H 256.74 -3.26958 2.16428 0
M  V30 2459 H 258.23 -3.92606 1.42302 0
M  V30 2460 N 258.668 -1.30515 -0.883378 0
M  V30 2461 C 260.079 -1.17509 -1.45081 0
M  V30 2462 C 260.43 0.223605 -1.94922 0
M  V30 2463 O 259.555 1.12041 -1.85137 0
M  V30 2464 C 260.15 -2.12715 -2.63701 0
M  V30 2465 C 258.709 -2.03682 -3.16529 0
M  V30 2466 C 257.856 -2.02706 -1.89224 0
M  V30 2467 H 260.807 -1.42762 -0.693165 0
M  V30 2468 H 260.828 -1.70891 -3.39965 0
M  V30 2469 H 260.34 -3.14505 -2.27395 0
M  V30 2470 H 258.441 -1.05039 -3.57488 0
M  V30 2471 H 258.554 -2.92146 -3.7972 0
M  V30 2472 H 256.918 -1.4753 -2.07622 0
M  V30 2473 H 257.701 -3.06229 -1.55174 0
M  V30 2474 N 260.146 1.09593 -1.13257 0
M  V30 2475 C 261.371 1.8604 -0.916732 0
M  V30 2476 C 261.796 1.80504 0.529146 0
M  V30 2477 O 261.154 1.18127 1.37534 0
M  V30 2478 C 261.202 3.32017 -1.40703 0
M  V30 2479 O 260.306 4.08141 -0.591153 0
M  V30 2480 H 259.647 0.576943 -0.328683 0
M  V30 2481 H 262.177 1.38405 -1.50682 0
M  V30 2482 H 262.187 3.82865 -1.4099 0
M  V30 2483 H 260.862 3.35361 -2.45979 0
M  V30 2484 H 259.439 3.67084 -0.656005 0
M  V30 2485 N 261.624 0.925811 1.2754 0
M  V30 2486 C 262.571 0.422045 2.26908 0
M  V30 2487 C 263.541 -0.510029 1.58076 0
M  V30 2488 O 264.726 -0.429599 1.85901 0
M  V30 2489 C 261.866 -0.320837 3.43605 0
M  V30 2490 C 260.979 0.64513 4.27156 0
M  V30 2491 C 260.114 -0.117405 5.3107 0
M  V30 2492 C 259.153 0.841391 6.0629 0
M  V30 2493 N 258.29 0.111604 7.02011 0
M  V30 2494 H 263.13 1.27441 2.69375 0
M  V30 2495 H 260.667 0.639697 1.32462 0
M  V30 2496 H 262.625 -0.76785 4.10073 0
M  V30 2497 H 261.255 -1.13745 3.02096 0
M  V30 2498 H 260.307 1.21067 3.6062 0
M  V30 2499 H 261.619 1.37797 4.79389 0
M  V30 2500 H 260.773 -0.624422 6.03478 0
M  V30 2501 H 259.512 -0.883219 4.79636 0
M  V30 2502 H 258.517 1.35967 5.32722 0
M  V30 2503 H 259.742 1.60696 6.59813 0
M  V30 2504 H 257.688 -0.635999 6.5291 0
M  V30 2505 H 257.605 0.784044 7.51923 0
M  V30 2506 H 258.873 -0.374823 7.78598 0
M  V30 2507 N 263.102 -1.41638 0.69111 0
M  V30 2508 C 264.012 -2.34588 0.0233487 0
M  V30 2509 C 265.028 -1.55987 -0.770984 0
M  V30 2510 O 266.204 -1.88486 -0.709569 0
M  V30 2511 C 263.269 -3.34684 -0.904851 0
M  V30 2512 C 262.33 -4.29176 -0.103225 0
M  V30 2513 C 261.563 -5.2449 -0.987216 0
M  V30 2514 O 261.786 -5.2514 -2.22674 0
M  V30 2515 O 260.72 -6.00295 -0.439281 0
M  V30 2516 H 264.546 -2.93261 0.789416 0
M  V30 2517 H 262.131 -1.42417 0.45142 0
M  V30 2518 H 264.013 -3.96133 -1.43724 0
M  V30 2519 H 262.688 -2.78461 -1.65049 0
M  V30 2520 H 261.595 -3.71089 0.473655 0
M  V30 2521 H 262.928 -4.88484 0.60365 0
M  V30 2522 N 264.58 -0.43555 -1.51462 0
M  V30 2523 C 265.826 0.131709 -2.02372 0
M  V30 2524 C 266.159 1.42516 -1.3192 0
M  V30 2525 O 265.434 1.89606 -0.433573 0
M  V30 2526 C 265.717 0.352301 -3.58373 0
M  V30 2527 C 265.57 -0.959676 -4.39443 0
M  V30 2528 C 266.889 1.12286 -4.25535 0
M  V30 2529 H 264.008 0.0463936 -0.735538 0
M  V30 2530 H 266.65 -0.574197 -1.81116 0
M  V30 2531 H 264.8 0.9536 -3.76615 0
M  V30 2532 H 266.472 -1.59482 -4.32855 0
M  V30 2533 H 264.715 -1.56468 -4.04599 0
M  V30 2534 H 265.386 -0.759394 -5.46752 0
M  V30 2535 H 267.862 0.613545 -4.11552 0
M  V30 2536 H 266.738 1.24598 -5.34571 0
M  V30 2537 H 266.999 2.15048 -3.86273 0
M  V30 2538 N 266.058 1.56714 -0.166846 0
M  V30 2539 C 266.988 2.20754 0.760913 0
M  V30 2540 C 267.969 1.16178 1.24244 0
M  V30 2541 O 269.154 1.44592 1.29641 0
M  V30 2542 C 266.284 2.84478 1.99223 0
M  V30 2543 C 265.238 3.95053 1.64672 0
M  V30 2544 C 264.564 4.45805 2.95232 0
M  V30 2545 C 265.864 5.14865 0.878155 0
M  V30 2546 H 267.558 2.98537 0.22713 0
M  V30 2547 H 265.104 1.43596 0.107805 0
M  V30 2548 H 267.057 3.27951 2.64624 0
M  V30 2549 H 265.781 2.04056 2.55007 0
M  V30 2550 H 264.44 3.52228 1.01641 0
M  V30 2551 H 264.088 3.62181 3.49047 0
M  V30 2552 H 263.788 5.204 2.7287 0
M  V30 2553 H 265.312 4.91962 3.6167 0
M  V30 2554 H 266.726 5.55059 1.43466 0
M  V30 2555 H 265.123 5.95348 0.753738 0
M  V30 2556 H 266.193 4.84735 -0.126377 0
M  V30 2557 N 267.536 -0.106894 1.57237 0
M  V30 2558 C 268.813 -0.843526 1.76477 0
M  V30 2559 C 269.193 -1.97499 0.745464 0
M  V30 2560 O 268.541 -2.27357 -0.228306 0
M  V30 2561 C 268.751 -1.34903 3.21873 0
M  V30 2562 C 270.099 -1.79654 3.8472 0
M  V30 2563 O 271.123 -1.44554 3.2555 0
M  V30 2564 O 269.982 -2.44515 4.88748 0
M  V30 2565 H 267.076 -0.401468 0.723016 0
M  V30 2566 H 269.622 -0.0896927 1.69463 0
M  V30 2567 H 268.394 -0.53781 3.87586 0
M  V30 2568 H 268.017 -2.16522 3.33473 0
M  V30 2569 N 269.014 -1.53014 -0.377408 0
M  V30 2570 C 270.239 -1.72818 -1.14668 0
M  V30 2571 C 270.664 -0.450725 -1.8262 0
M  V30 2572 O 270.022 0.59439 -1.7128 0
M  V30 2573 C 270.07 -2.88627 -2.16164 0
M  V30 2574 O 269.174 -2.56409 -3.22998 0
M  V30 2575 H 268.515 -0.574301 -0.333278 0
M  V30 2576 H 271.045 -1.99853 -0.438152 0
M  V30 2577 H 271.055 -3.14455 -2.59966 0
M  V30 2578 H 269.73 -3.81294 -1.66095 0
M  V30 2579 H 268.307 -2.4136 -2.84253 0
M  V30 2580 N 270.492 0.636531 -1.44174 0
M  V30 2581 C 271.739 1.39619 -1.46672 0
M  V30 2582 C 272.067 1.94257 -0.0972691 0
M  V30 2583 O 271.322 1.73768 0.900175 0
M  V30 2584 C 271.621 2.58309 -2.47005 0
M  V30 2585 C 271.287 2.21992 -3.92467 0
M  V30 2586 C 269.949 2.118 -4.32081 0
M  V30 2587 C 272.301 1.9321 -4.84065 0
M  V30 2588 C 269.629 1.71007 -5.61225 0
M  V30 2589 C 271.981 1.53911 -6.13591 0
M  V30 2590 C 270.645 1.42257 -6.52165 0
M  V30 2591 H 269.915 0.510902 -0.536712 0
M  V30 2592 H 272.562 0.722328 -1.77355 0
M  V30 2593 H 270.867 3.30903 -2.09786 0
M  V30 2594 H 272.564 3.16533 -2.46186 0
M  V30 2595 H 269.154 2.30841 -3.61124 0
M  V30 2596 H 273.338 1.99997 -4.54219 0
M  V30 2597 H 268.594 1.60583 -5.89935 0
M  V30 2598 H 272.768 1.30677 -6.8403 0
M  V30 2599 H 270.395 1.10419 -7.52138 0
M  V30 2600 N 271.97 1.30982 0.876444 0
M  V30 2601 C 272.9 1.20668 1.99903 0
M  V30 2602 C 273.881 0.095354 1.69833 0
M  V30 2603 O 275.066 0.27885 1.92188 0
M  V30 2604 C 272.196 0.90655 3.3526 0
M  V30 2605 C 271.15 1.97675 3.79617 0
M  V30 2606 C 270.476 1.52943 5.1236 0
M  V30 2607 C 271.776 3.389 3.97422 0
M  V30 2608 H 273.47 2.14586 2.0879 0
M  V30 2609 H 271.016 1.03308 1.00317 0
M  V30 2610 H 272.969 0.821025 4.13324 0
M  V30 2611 H 271.693 -0.0682969 3.26529 0
M  V30 2612 H 270.352 2.05205 3.03787 0
M  V30 2613 H 270 0.54262 5.00065 0
M  V30 2614 H 269.7 2.24532 5.43009 0
M  V30 2615 H 271.224 1.45786 5.92941 0
M  V30 2616 H 272.638 3.34081 4.659 0
M  V30 2617 H 271.035 4.0865 4.3946 0
M  V30 2618 H 272.105 3.80163 3.01006 0
M  V30 2619 N 273.449 -1.08991 1.13837 0
M  V30 2620 C 274.726 -1.77863 0.813876 0
M  V30 2621 C 275.106 -1.99375 -0.693746 0
M  V30 2622 O 274.454 -1.59875 -1.63255 0
M  V30 2623 C 274.664 -3.0986 1.60586 0
M  V30 2624 C 276.012 -3.84493 1.8014 0
M  V30 2625 O 277.036 -3.19624 1.57222 0
M  V30 2626 O 275.895 -5.00957 2.18413 0
M  V30 2627 H 272.989 -0.771589 0.297624 0
M  V30 2628 H 275.535 -1.15507 1.24323 0
M  V30 2629 H 274.307 -2.89715 2.63022 0
M  V30 2630 H 273.93 -3.79942 1.17173 0
M  V30 2631 N 274.927 -0.932562 -1.27047 0
M  V30 2632 C 275.857 -0.452902 -2.29066 0
M  V30 2633 C 276.838 0.489338 -1.62909 0
M  V30 2634 O 278.023 0.393046 -1.90181 0
M  V30 2635 C 275.153 0.290698 -3.46081 0
M  V30 2636 C 274.107 -0.564168 -4.24265 0
M  V30 2637 C 273.433 0.308886 -5.33807 0
M  V30 2638 C 274.733 -1.83112 -4.89149 0
M  V30 2639 H 276.427 -1.30552 -2.69437 0
M  V30 2640 H 273.973 -0.629201 -1.29526 0
M  V30 2641 H 275.926 0.637233 -4.16554 0
M  V30 2642 H 274.65 1.17738 -3.0464 0
M  V30 2643 H 273.309 -0.893477 -3.55545 0
M  V30 2644 H 272.957 1.19467 -4.88607 0
M  V30 2645 H 272.657 -0.259633 -5.87026 0
M  V30 2646 H 274.181 0.650884 -6.07121 0
M  V30 2647 H 275.595 -1.55236 -5.51883 0
M  V30 2648 H 273.992 -2.34353 -5.52448 0
M  V30 2649 H 275.062 -2.54772 -4.12576 0
M  V30 2650 N 276.405 1.4127 -0.698611 0
M  V30 2651 C 277.368 2.29158 -0.044132 0
M  V30 2652 C 278.368 1.44529 0.704841 0
M  V30 2653 O 279.558 1.65643 0.539276 0
M  V30 2654 C 276.69 3.27459 0.947809 0
M  V30 2655 H 277.883 2.88529 -0.817994 0
M  V30 2656 H 275.436 1.49307 -0.46228 0
M  V30 2657 H 276.171 2.73073 1.74933 0
M  V30 2658 H 275.956 3.8991 0.41385 0
M  V30 2659 H 277.446 3.93311 1.40344 0
M  V30 2660 N 277.883 0.443576 1.51229 0
M  V30 2661 C 279.299 0.0962001 1.5931 0
M  V30 2662 C 279.499 -1.39501 1.45402 0
M  V30 2663 O 278.555 -2.16557 1.29843 0
M  V30 2664 C 279.868 0.621875 2.94199 0
M  V30 2665 C 281.416 0.582865 3.07525 0
M  V30 2666 C 281.891 1.08562 4.44948 0
M  V30 2667 N 283.382 1.04387 4.51284 0
M  V30 2668 C 284.117 1.40368 5.55954 0
M  V30 2669 N 283.613 1.83664 6.68011 0
M  V30 2670 N 285.406 1.32145 5.46346 0
M  V30 2671 H 277.557 1.41376 1.58514 0
M  V30 2672 H 279.82 0.582965 0.747567 0
M  V30 2673 H 279.526 1.66546 3.09767 0
M  V30 2674 H 279.4 0.0502125 3.77167 0
M  V30 2675 H 281.787 -0.451749 2.91622 0
M  V30 2676 H 281.868 1.191 2.26382 0
M  V30 2677 H 281.512 2.11873 4.61598 0
M  V30 2678 H 281.442 0.453956 5.2464 0
M  V30 2679 H 283.933 0.725986 3.70861 0
M  V30 2680 H 284.246 2.0934 7.43906 0
M  V30 2681 H 282.591 1.87596 6.69203 0
M  V30 2682 H 285.782 0.981808 4.57688 0
M  V30 2683 H 285.955 1.60514 6.27805 0
M  V30 2684 N 279.361 -1.56624 0.175154 0
M  V30 2685 C 280.309 -2.19468 -0.770495 0
M  V30 2686 C 281.303 -1.15985 -1.23466 0
M  V30 2687 O 282.509 -1.34176 -1.19987 0
M  V30 2688 H 278.884 -0.703095 -0.266761 0
M  V30 2689 H 280.855 -2.97613 -0.216542 0
M  V30 2690 C 279.604 -2.85264 -1.98796 0
M  V30 2691 H 278.927 -3.64623 -1.63983 0
M  V30 2692 H 280.367 -3.327 -2.62843 0
M  V30 2693 C 278.826 -1.85239 -2.81404 0
M  V30 2694 O 279.356 -1.34024 -3.78682 0
M  V30 2695 N 277.562 -1.53911 -2.46495 0
M  V30 2696 H 277.109 -1.95751 -1.67449 0
M  V30 2697 H 277.067 -0.872382 -3.02054 0
M  V30 2698 N 280.839 0.0985539 -1.57292 0
M  V30 2699 C 282.088 0.801358 -1.85098 0
M  V30 2700 C 282.401 1.80066 -0.763902 0
M  V30 2701 O 283.607 2.55112 -0.928981 0
M  V30 2702 C 282.063 1.47599 -3.28242 0
M  V30 2703 C 281.671 0.516624 -4.45011 0
M  V30 2704 C 283.415 2.16272 -3.65276 0
M  V30 2705 C 281.322 1.19564 -5.79188 0
M  V30 2706 H 280.252 0.303022 -0.69043 0
M  V30 2707 H 282.903 0.0542623 -1.8342 0
M  V30 2708 H 281.285 2.27042 -3.2445 0
M  V30 2709 H 282.459 -0.246065 -4.60143 0
M  V30 2710 H 280.774 -0.064227 -4.1635 0
M  V30 2711 H 283.371 2.67802 -4.62803 0
M  V30 2712 H 283.714 2.95009 -2.93727 0
M  V30 2713 H 284.247 1.43693 -3.70941 0
M  V30 2714 H 280.986 0.449157 -6.53959 0
M  V30 2715 H 280.506 1.92984 -5.67906 0
M  V30 2716 H 282.185 1.7231 -6.23633 0
M  V30 2717 N 282.317 1.53212 0.369288 0
M  V30 2718 C 283.564 1.69215 1.11232 0
M  V30 2719 C 283.892 0.442048 1.8941 0
M  V30 2720 O 283.147 -0.575944 1.87033 0
M  V30 2721 C 283.446 2.89101 2.10132 0
M  V30 2722 C 283.112 4.25758 1.48463 0
M  V30 2723 C 281.774 4.6292 1.31372 0
M  V30 2724 C 284.126 5.10757 1.03811 0
M  V30 2725 C 281.454 5.82722 0.68207 0
M  V30 2726 C 283.806 6.31201 0.420487 0
M  V30 2727 C 282.47 6.67079 0.237038 0
M  V30 2728 H 281.74 0.619201 0.407027 0
M  V30 2729 H 284.387 1.87391 0.394552 0
M  V30 2730 H 282.692 2.65421 2.88199 0
M  V30 2731 H 284.389 2.98676 2.6757 0
M  V30 2732 H 280.979 3.96494 1.62758 0
M  V30 2733 H 285.163 4.82599 1.1581 0
M  V30 2734 H 280.419 6.09113 0.528316 0
M  V30 2735 H 284.593 6.96368 0.0662874 0
M  V30 2736 H 282.22 7.59774 -0.254477 0
M  V30 2737 N 283.795 -0.628877 1.44509 0
M  V30 2738 C 285.206 -1.21054 1.42137 0
M  V30 2739 C 285.557 -1.95715 0.137881 0
M  V30 2740 O 284.682 -2.02554 -0.761645 0
M  V30 2741 C 285.277 -2.20189 2.57493 0
M  V30 2742 C 283.836 -2.73777 2.58308 0
M  V30 2743 C 282.983 -1.48813 2.33987 0
M  V30 2744 H 285.934 -0.41942 1.53057 0
M  V30 2745 H 285.955 -3.02833 2.30375 0
M  V30 2746 H 285.467 -1.6582 3.50892 0
M  V30 2747 H 283.568 -3.32142 1.68856 0
M  V30 2748 H 283.681 -3.19662 3.56865 0
M  V30 2749 H 282.045 -1.77024 1.83124 0
M  V30 2750 H 282.828 -0.963442 3.29504 0
M  V30 2751 N 285.273 -1.31445 -0.869486 0
M  V30 2752 C 286.498 -1.24256 -1.66058 0
M  V30 2753 C 286.923 0.188928 -1.87149 0
M  V30 2754 O 286.281 1.13522 -1.4136 0
M  V30 2755 C 286.329 -1.9924 -3.00559 0
M  V30 2756 O 285.433 -1.33007 -3.90362 0
M  V30 2757 H 284.774 -0.428973 -0.506831 0
M  V30 2758 H 287.304 -1.73521 -1.08404 0
M  V30 2759 H 287.314 -2.08854 -3.50491 0
M  V30 2760 H 285.989 -3.03342 -2.84528 0
M  V30 2761 H 284.566 -1.31848 -3.48813 0
M  V30 2762 N 286.751 1.08385 -1.14413 0
M  V30 2763 C 287.699 2.17406 -0.826888 0
M  V30 2764 C 288.693 1.6827 0.195312 0
M  V30 2765 O 289.899 1.79927 0.0513892 0
M  V30 2766 H 286.274 0.70934 -0.249681 0
M  V30 2767 H 288.245 2.41388 -1.75426 0
M  V30 2768 C 286.994 3.46215 -0.320979 0
M  V30 2769 H 286.317 3.84401 -1.0989 0
M  V30 2770 H 287.757 4.23777 -0.137549 0
M  V30 2771 C 286.216 3.23067 0.955472 0
M  V30 2772 O 286.746 3.4668 2.02918 0
M  V30 2773 N 284.952 2.7661 0.890798 0
M  V30 2774 H 284.499 2.57594 0.0168815 0
M  V30 2775 H 284.457 2.61501 1.74542 0
M  V30 2776 N 288.23 0.939286 1.26551 0
M  V30 2777 C 289.16 0.465044 2.28822 0
M  V30 2778 C 290.141 -0.480692 1.63167 0
M  V30 2779 O 291.326 -0.382955 1.90387 0
M  V30 2780 C 288.456 -0.27234 3.46231 0
M  V30 2781 C 287.41 0.58666 4.2396 0
M  V30 2782 C 286.736 -0.280573 5.33963 0
M  V30 2783 C 288.036 1.85704 4.88171 0
M  V30 2784 H 289.73 1.31979 2.68741 0
M  V30 2785 H 287.276 0.636061 1.29191 0
M  V30 2786 H 289.229 -0.615133 4.16886 0
M  V30 2787 H 287.953 -1.16121 3.0526 0
M  V30 2788 H 286.612 0.91232 3.55067 0
M  V30 2789 H 286.26 -1.16874 4.89234 0
M  V30 2790 H 285.96 0.29076 5.8688 0
M  V30 2791 H 287.484 -0.618678 6.07458 0
M  V30 2792 H 288.898 1.58161 5.51052 0
M  V30 2793 H 287.295 2.37279 5.51197 0
M  V30 2794 H 288.365 2.56957 4.11219 0
M  V30 2795 N 289.708 -1.40897 0.706093 0
M  V30 2796 C 290.954 -2.01352 0.241889 0
M  V30 2797 C 291.287 -1.55832 -1.15888 0
M  V30 2798 O 290.562 -0.774145 -1.7843 0
M  V30 2799 C 290.845 -3.58752 0.311311 0
M  V30 2800 C 290.698 -4.1437 1.74978 0
M  V30 2801 C 292.017 -4.38914 -0.322922 0
M  V30 2802 H 289.136 -0.731562 0.0893687 0
M  V30 2803 H 291.778 -1.67504 0.896802 0
M  V30 2804 H 289.928 -3.87718 -0.246302 0
M  V30 2805 H 291.6 -3.96239 2.36205 0
M  V30 2806 H 289.843 -3.69016 2.28057 0
M  V30 2807 H 290.514 -5.23532 1.74981 0
M  V30 2808 H 292.99 -4.15822 0.152089 0
M  V30 2809 H 291.866 -5.48358 -0.243855 0
M  V30 2810 H 292.127 -4.19176 -1.40513 0
M  V30 2811 N 291.186 -0.45159 -1.50991 0
M  V30 2812 C 292.411 0.110667 -2.07105 0
M  V30 2813 C 292.836 1.3446 -1.31538 0
M  V30 2814 O 292.194 1.77743 -0.357365 0
M  V30 2815 C 292.242 0.397238 -3.58405 0
M  V30 2816 O 291.346 1.48124 -3.84881 0
M  V30 2817 H 290.687 -0.00439271 -0.663985 0
M  V30 2818 H 293.217 -0.637026 -1.9443 0
M  V30 2819 H 293.227 0.64351 -4.02893 0
M  V30 2820 H 291.902 -0.504553 -4.12828 0
M  V30 2821 H 290.479 1.22381 -3.52246 0
M  V30 2822 N 292.664 1.56529 -0.183458 0
M  V30 2823 C 293.627 2.17324 0.728223 0
M  V30 2824 C 294.627 1.12453 1.14939 0
M  V30 2825 O 295.817 1.37902 1.06437 0
M  V30 2826 C 292.949 2.76591 1.99274 0
M  V30 2827 H 294.142 2.99241 0.198772 0
M  V30 2828 H 291.695 1.5616 0.0661391 0
M  V30 2829 H 292.43 1.98441 2.56499 0
M  V30 2830 H 292.215 3.5335 1.69959 0
M  V30 2831 H 293.705 3.23311 2.6431 0
M  V30 2832 N 294.142 -0.090211 1.57342 0
M  V30 2833 C 295.105 -1.09335 2.01441 0
M  V30 2834 C 296.105 -1.32666 0.908641 0
M  V30 2835 O 297.295 -1.28697 1.174 0
M  V30 2836 C 294.427 -2.44136 2.3793 0
M  V30 2837 H 295.62 -0.713662 2.91285 0
M  V30 2838 H 293.173 -0.335404 1.52659 0
M  V30 2839 H 293.908 -2.86972 1.51055 0
M  V30 2840 H 293.693 -2.28548 3.18603 0
M  V30 2841 H 295.183 -3.16277 2.72688 0
M  V30 2842 N 295.62 -1.53406 -0.361157 0
M  V30 2843 C 296.867 -1.69802 -1.10333 0
M  V30 2844 C 297.195 -0.452087 -1.89173 0
M  V30 2845 O 296.45 0.566017 -1.87336 0
M  V30 2846 C 296.749 -2.90211 -2.08596 0
M  V30 2847 C 296.415 -4.26539 -1.46203 0
M  V30 2848 C 295.077 -4.6361 -1.28915 0
M  V30 2849 C 297.429 -5.113 -1.01101 0
M  V30 2850 C 294.757 -5.83075 -0.651157 0
M  V30 2851 C 297.109 -6.31415 -0.387007 0
M  V30 2852 C 295.773 -6.67195 -0.201657 0
M  V30 2853 H 295.043 -0.621351 -0.403737 0
M  V30 2854 H 297.69 -1.87598 -0.384609 0
M  V30 2855 H 295.995 -2.66946 -2.86788 0
M  V30 2856 H 297.692 -3.00091 -2.65982 0
M  V30 2857 H 294.282 -3.97352 -1.60653 0
M  V30 2858 H 298.466 -4.83206 -1.13249 0
M  V30 2859 H 293.722 -6.09385 -0.496006 0
M  V30 2860 H 297.896 -6.96394 -0.0293563 0
M  V30 2861 H 295.523 -7.59628 0.294766 0
M  V30 2862 N 297.098 0.621204 -1.44841 0
M  V30 2863 C 298.514 0.94048 -1.28946 0
M  V30 2864 C 298.714 2.00154 -0.23249 0
M  V30 2865 O 297.77 2.49651 0.378237 0
M  V30 2866 C 299.083 1.39433 -2.66419 0
M  V30 2867 C 300.631 1.50927 -2.74208 0
M  V30 2868 C 301.106 1.99692 -4.12174 0
M  V30 2869 N 302.597 2.06947 -4.144 0
M  V30 2870 C 303.332 2.45871 -5.1801 0
M  V30 2871 N 302.828 2.83862 -6.31977 0
M  V30 2872 N 304.621 2.46092 -5.05366 0
M  V30 2873 H 296.772 -0.0803548 -2.12248 0
M  V30 2874 H 299.035 0.0266913 -0.947624 0
M  V30 2875 H 298.741 0.688925 -3.44887 0
M  V30 2876 H 298.615 2.36347 -2.93973 0
M  V30 2877 H 301.002 2.20561 -1.96053 0
M  V30 2878 H 301.083 0.523627 -2.50383 0
M  V30 2879 H 300.727 1.30649 -4.90809 0
M  V30 2880 H 300.657 2.99146 -4.33381 0
M  V30 2881 H 303.148 1.80232 -3.32152 0
M  V30 2882 H 303.461 3.12405 -7.0684 0
M  V30 2883 H 301.806 2.8159 -6.35399 0
M  V30 2884 H 304.997 2.1581 -4.15384 0
M  V30 2885 H 305.17 2.76102 -5.86235 0
M  V30 2886 N 298.576 1.31904 0.862503 0
M  V30 2887 C 299.801 1.25135 1.65397 0
M  V30 2888 C 300.226 -0.179 1.87246 0
M  V30 2889 O 299.584 -1.1277 1.4196 0
M  V30 2890 C 299.632 2.00832 2.99498 0
M  V30 2891 O 298.736 1.35075 3.89652 0
M  V30 2892 H 298.077 0.431655 0.504549 0
M  V30 2893 H 300.607 1.74094 1.07483 0
M  V30 2894 H 300.617 2.10709 3.49379 0
M  V30 2895 H 299.292 3.04847 2.82916 0
M  V30 2896 H 297.869 1.33696 3.48109 0
M  V30 2897 N 300.054 -1.07777 1.14986 0
M  V30 2898 C 301.284 -1.83752 0.944402 0
M  V30 2899 C 301.692 -1.8218 -0.51058 0
M  V30 2900 O 301.035 -1.22852 -1.36576 0
M  V30 2901 C 301.097 -3.32128 1.37592 0
M  V30 2902 C 300.761 -3.57425 2.84775 0
M  V30 2903 C 301.758 -3.5173 3.8286 0
M  V30 2904 C 299.443 -3.8523 3.2234 0
M  V30 2905 C 301.437 -3.73482 5.16517 0
M  V30 2906 C 299.124 -4.06634 4.56171 0
M  V30 2907 C 300.122 -4.00754 5.53069 0
M  V30 2908 O 299.81 -4.2159 6.84483 0
M  V30 2909 H 299.542 -0.58673 0.335744 0
M  V30 2910 H 302.096 -1.36982 1.53052 0
M  V30 2911 H 300.326 -3.79686 0.733165 0
M  V30 2912 H 302.015 -3.89555 1.14024 0
M  V30 2913 H 302.781 -3.30256 3.55184 0
M  V30 2914 H 298.66 -3.88923 2.47508 0
M  V30 2915 H 302.204 -3.68808 5.92137 0
M  V30 2916 H 298.101 -4.27593 4.83564 0
M  V30 2917 H 298.869 -4.38961 6.90837 0
M  V30 2918 N 301.532 -0.945985 -1.26051 0
M  V30 2919 C 302.757 -0.612525 -1.98149 0
M  V30 2920 C 303.182 0.806623 -1.69927 0
M  V30 2921 O 302.54 1.54411 -0.950108 0
M  V30 2922 C 302.588 -0.866981 -3.50023 0
M  V30 2923 O 301.692 0.0585333 -4.12358 0
M  V30 2924 H 301.033 -0.23379 -0.621481 0
M  V30 2925 H 303.563 -1.27023 -1.60395 0
M  V30 2926 H 303.573 -0.789792 -4.00283 0
M  V30 2927 H 302.248 -1.90135 -3.69894 0
M  V30 2928 H 300.825 -0.0701241 -3.72834 0
M  V30 2929 N 303.011 1.40521 -0.713556 0
M  V30 2930 C 304.239 2.05237 -0.261775 0
M  V30 2931 C 304.654 1.53755 1.09567 0
M  V30 2932 O 304.011 0.693268 1.6882 0
M  V30 2933 C 304.062 3.60763 -0.230706 0
M  V30 2934 O 303.783 4.10345 -1.53455 0
M  V30 2935 C 305.284 4.42651 0.239874 0
M  V30 2936 H 302.504 0.660533 -0.118057 0
M  V30 2937 H 305.048 1.79967 -0.971192 0
M  V30 2938 H 303.203 3.8501 0.429661 0
M  V30 2939 H 303.617 5.04526 -1.43366 0
M  V30 2940 H 305.091 5.51599 0.210468 0
M  V30 2941 H 305.568 4.20082 1.28171 0
M  V30 2942 H 306.174 4.23507 -0.390142 0
M  V30 2943 N 304.489 0.459591 1.5075 0
M  V30 2944 C 305.717 -0.0973749 2.06671 0
M  V30 2945 C 306.132 -1.34524 1.32472 0
M  V30 2946 O 305.489 -1.7827 0.390634 0
M  V30 2947 C 305.54 -0.39714 3.59312 0
M  V30 2948 O 305.261 0.801214 4.30711 0
M  V30 2949 C 306.762 -1.00234 4.31819 0
M  V30 2950 H 303.982 0.00195854 0.670997 0
M  V30 2951 H 306.526 0.645072 1.94059 0
M  V30 2952 H 304.681 -1.08951 3.71764 0
M  V30 2953 H 305.095 0.538857 5.21725 0
M  V30 2954 H 306.569 -1.16193 5.39632 0
M  V30 2955 H 307.046 -1.98939 3.91561 0
M  V30 2956 H 307.652 -0.348699 4.23868 0
M  V30 2957 N 305.967 -1.56429 0.191757 0
M  V30 2958 C 307.197 -2.01574 -0.452928 0
M  V30 2959 C 307.605 -1.07107 -1.55964 0
M  V30 2960 O 306.948 -0.067534 -1.83576 0
M  V30 2961 C 307.01 -3.43121 -1.07278 0
M  V30 2962 C 306.674 -4.56879 -0.105214 0
M  V30 2963 C 307.671 -5.15379 0.684149 0
M  V30 2964 C 305.356 -5.023 0.00489824 0
M  V30 2965 C 307.35 -6.17746 1.57062 0
M  V30 2966 C 305.037 -6.04511 0.894935 0
M  V30 2967 C 306.035 -6.62108 1.67637 0
M  V30 2968 O 305.723 -7.62335 2.55149 0
M  V30 2969 H 305.455 -0.665554 -0.118379 0
M  V30 2970 H 308.009 -2.03245 0.296737 0
M  V30 2971 H 306.239 -3.38425 -1.87097 0
M  V30 2972 H 307.928 -3.72093 -1.62177 0
M  V30 2973 H 308.694 -4.81157 0.609365 0
M  V30 2974 H 304.573 -4.57168 -0.593156 0
M  V30 2975 H 308.117 -6.6263 2.181 0
M  V30 2976 H 304.014 -6.38157 0.970847 0
M  V30 2977 H 304.782 -7.79741 2.48892 0
M  V30 2978 N 307.445 0.0818655 -1.57387 0
M  V30 2979 C 308.355 1.11642 -2.06333 0
M  V30 2980 C 309.371 1.43033 -0.99083 0
M  V30 2981 O 310.547 1.53411 -1.30488 0
M  V30 2982 C 307.612 2.41342 -2.48907 0
M  V30 2983 C 306.673 2.17014 -3.7041 0
M  V30 2984 C 305.906 3.4053 -4.10944 0
M  V30 2985 O 306.129 4.4927 -3.51444 0
M  V30 2986 O 305.063 3.29336 -5.03807 0
M  V30 2987 H 308.889 0.730657 -2.9478 0
M  V30 2988 H 306.474 0.295301 -1.46452 0
M  V30 2989 H 308.356 3.17691 -2.76858 0
M  V30 2990 H 307.031 2.79319 -1.63593 0
M  V30 2991 H 305.938 1.38403 -3.47556 0
M  V30 2992 H 307.271 1.83923 -4.56545 0
M  V30 2993 N 308.923 1.53595 0.353017 0
M  V30 2994 C 309.833 1.83897 1.45667 0
M  V30 2995 C 310.849 0.728334 1.58023 0
M  V30 2996 O 312.025 1.01968 1.73679 0
M  V30 2997 C 309.09 2.03383 2.80778 0
M  V30 2998 C 308.151 3.27262 2.77845 0
M  V30 2999 C 307.384 3.45809 4.06512 0
M  V30 3000 O 307.607 2.68387 5.03314 0
M  V30 3001 O 306.541 4.39207 4.11559 0
M  V30 3002 H 310.367 2.77686 1.2298 0
M  V30 3003 H 307.952 1.39132 0.544308 0
M  V30 3004 H 309.834 2.17698 3.60812 0
M  V30 3005 H 308.509 1.12783 3.03417 0
M  V30 3006 H 307.416 3.18359 1.96465 0
M  V30 3007 H 308.749 4.17824 2.60161 0
M  V30 3008 N 310.401 -0.613514 1.45168 0
M  V30 3009 C 311.817 -0.933629 1.29443 0
M  V30 3010 C 312.017 -2.00028 0.243101 0
M  V30 3011 O 311.073 -2.49848 -0.364992 0
M  V30 3012 C 312.386 -1.38018 2.67155 0
M  V30 3013 C 313.934 -1.49471 2.75004 0
M  V30 3014 C 314.409 -1.97503 4.13227 0
M  V30 3015 N 315.9 -2.04746 4.15491 0
M  V30 3016 C 316.635 -2.43121 5.19307 0
M  V30 3017 N 316.131 -2.80506 6.33473 0
M  V30 3018 N 317.924 -2.43408 5.06664 0
M  V30 3019 H 310.075 0.0916097 2.12202 0
M  V30 3020 H 312.338 -0.0216655 0.947752 0
M  V30 3021 H 312.044 -0.670625 3.45247 0
M  V30 3022 H 311.918 -2.34784 2.95222 0
M  V30 3023 H 314.305 -2.19519 1.9722 0
M  V30 3024 H 314.386 -0.510342 2.50657 0
M  V30 3025 H 314.03 -1.28045 4.91495 0
M  V30 3026 H 313.96 -2.96843 4.34962 0
M  V30 3027 H 316.451 -1.78468 3.33103 0
M  V30 3028 H 316.764 -3.08652 7.08487 0
M  V30 3029 H 315.109 -2.78216 6.36884 0
M  V30 3030 H 318.3 -2.13604 4.16523 0
M  V30 3031 H 318.473 -2.72989 5.87691 0
M  V30 3032 N 311.879 -1.3236 -0.855495 0
M  V30 3033 C 312.827 -1.2118 -1.9854 0
M  V30 3034 C 313.821 -0.116788 -1.68997 0
M  V30 3035 O 315.027 -0.279657 -1.77814 0
M  V30 3036 H 311.402 -0.375608 -0.651477 0
M  V30 3037 H 313.373 -2.16743 -2.05098 0
M  V30 3038 C 312.122 -0.950849 -3.34446 0
M  V30 3039 H 311.445 -1.78563 -3.57708 0
M  V30 3040 H 312.885 -0.912863 -4.14057 0
M  V30 3041 C 311.344 0.346404 -3.35114 0
M  V30 3042 O 311.874 1.35855 -3.7803 0
M  V30 3043 N 310.08 0.36808 -2.88259 0
M  V30 3044 H 309.627 -0.456102 -2.5353 0
M  V30 3045 H 309.585 1.23591 -2.89089 0
M  V30 3046 N 313.357 1.07166 -1.15556 0
M  V30 3047 C 314.606 1.79181 -0.926132 0
M  V30 3048 C 314.919 1.87768 0.547967 0
M  V30 3049 O 316.125 2.56323 0.895036 0
M  V30 3050 C 314.581 3.22 -1.60761 0
M  V30 3051 C 314.189 3.21607 -3.11886 0
M  V30 3052 C 315.933 3.9861 -1.4598 0
M  V30 3053 C 313.84 4.59092 -3.72812 0
M  V30 3054 H 312.77 0.67154 -0.342856 0
M  V30 3055 H 315.421 1.2027 -1.3859 0
M  V30 3056 H 313.803 3.81115 -1.07553 0
M  V30 3057 H 314.977 2.72127 -3.71865 0
M  V30 3058 H 313.292 2.58495 -3.2645 0
M  V30 3059 H 315.889 5.00225 -1.88888 0
M  V30 3060 H 316.232 4.143 -0.407541 0
M  V30 3061 H 316.765 3.45996 -1.96295 0
M  V30 3062 H 313.504 4.48606 -4.77946 0
M  V30 3063 H 313.024 5.08803 -3.17616 0
M  V30 3064 H 314.703 5.28059 -3.73848 0
M  V30 3065 N 314.835 0.952656 1.25548 0
M  V30 3066 C 316.063 0.623496 1.97282 0
M  V30 3067 C 316.478 -0.803987 1.70826 0
M  V30 3068 O 315.835 -1.53755 0.983147 0
M  V30 3069 C 315.886 0.870209 3.5087 0
M  V30 3070 O 315.607 2.24156 3.76412 0
M  V30 3071 C 317.108 0.553164 4.39835 0
M  V30 3072 H 314.328 0.233931 0.628902 0
M  V30 3073 H 316.872 1.27649 1.59768 0
M  V30 3074 H 315.027 0.263652 3.86502 0
M  V30 3075 H 315.441 2.31021 4.70882 0
M  V30 3076 H 316.915 0.776342 5.46513 0
M  V30 3077 H 317.392 -0.512215 4.36203 0
M  V30 3078 H 317.998 1.13896 4.09766 0
M  V30 3079 N 316.313 -1.40141 0.720998 0
M  V30 3080 C 317.561 -2.0039 0.262323 0
M  V30 3081 C 317.882 -1.57469 -1.15015 0
M  V30 3082 O 317.152 -0.816582 -1.78069 0
M  V30 3083 H 315.732 -0.741063 0.093996 0
M  V30 3084 H 318.394 -1.71398 0.927835 0
M  V30 3085 H 317.49 -3.10658 0.299671 0
M  V30 3086 N 317.792 -0.46758 -1.50504 0
M  V30 3087 C 319.02 0.0864133 -2.06719 0
M  V30 3088 C 319.435 1.33819 -1.33184 0
M  V30 3089 O 318.792 1.78061 -0.400083 0
M  V30 3090 C 318.843 0.378079 -3.59517 0
M  V30 3091 O 318.564 -0.824044 -4.3028 0
M  V30 3092 C 320.065 0.979426 -4.32345 0
M  V30 3093 H 317.285 -0.00551697 -0.670977 0
M  V30 3094 H 319.829 -0.655354 -1.93715 0
M  V30 3095 H 317.984 1.06977 -3.72337 0
M  V30 3096 H 318.398 -0.566518 -5.21432 0
M  V30 3097 H 319.872 1.1333 -5.40241 0
M  V30 3098 H 320.349 1.9686 -3.9261 0
M  V30 3099 H 320.955 0.326216 -4.24047 0
M  V30 3100 N 319.27 1.56325 -0.20005 0
M  V30 3101 C 320.686 1.58839 0.155716 0
M  V30 3102 C 320.886 1.21636 1.60645 0
M  V30 3103 O 319.942 0.941437 2.34293 0
M  V30 3104 C 321.255 3.0032 -0.151124 0
M  V30 3105 C 322.803 3.12866 -0.0916284 0
M  V30 3106 C 323.278 4.56488 -0.371845 0
M  V30 3107 N 324.769 4.62089 -0.320641 0
M  V30 3108 C 325.504 5.71116 -0.511243 0
M  V30 3109 N 325 6.88592 -0.762461 0
M  V30 3110 N 326.793 5.60335 -0.445157 0
M  V30 3111 H 318.944 1.78788 -1.14668 0
M  V30 3112 H 321.207 0.829996 -0.458051 0
M  V30 3113 H 320.913 3.32117 -1.15721 0
M  V30 3114 H 320.787 3.73257 0.543986 0
M  V30 3115 H 323.174 2.80878 0.905065 0
M  V30 3116 H 323.255 2.42304 -0.81989 0
M  V30 3117 H 322.899 4.89189 -1.36588 0
M  V30 3118 H 322.829 5.25246 0.377362 0
M  V30 3119 H 325.32 3.77665 -0.13329 0
M  V30 3120 H 325.633 7.67581 -0.896576 0
M  V30 3121 H 323.978 6.90387 -0.799412 0
M  V30 3122 H 327.169 4.67436 -0.249278 0
M  V30 3123 H 327.342 6.45243 -0.597116 0
M  V30 3124 N 320.748 -0.0735177 1.57428 0
M  V30 3125 C 321.994 -0.774145 1.87443 0
M  V30 3126 C 322.327 -1.77311 0.792103 0
M  V30 3127 O 321.602 -1.93492 -0.197793 0
M  V30 3128 C 321.885 -1.48367 3.28115 0
M  V30 3129 C 321.738 -0.501227 4.46999 0
M  V30 3130 C 323.057 -2.429 3.66998 0
M  V30 3131 H 320.176 -0.279971 0.681752 0
M  V30 3132 H 322.818 -0.0373616 1.89963 0
M  V30 3133 H 320.968 -2.11171 3.26097 0
M  V30 3134 H 322.64 0.121468 4.6114 0
M  V30 3135 H 320.883 0.183593 4.33411 0
M  V30 3136 H 321.554 -1.03526 5.42205 0
M  V30 3137 H 324.03 -1.90175 3.70098 0
M  V30 3138 H 322.906 -2.89549 4.66318 0
M  V30 3139 H 323.167 -3.27628 2.96837 0
M  V30 3140 N 322.226 -1.5378 -0.344866 0
M  V30 3141 C 323.173 -1.81676 -1.42346 0
M  V30 3142 C 324.143 -0.662376 -1.52321 0
M  V30 3143 O 325.328 -0.906675 -1.67881 0
M  V30 3144 C 322.468 -2.03087 -2.79015 0
M  V30 3145 C 321.581 -3.30799 -2.77842 0
M  V30 3146 C 320.716 -3.42285 -4.0622 0
M  V30 3147 C 319.755 -4.6395 -3.9927 0
M  V30 3148 N 318.892 -4.72477 -5.19336 0
M  V30 3149 H 323.732 -2.73703 -1.17858 0
M  V30 3150 H 321.269 -1.35568 -0.570949 0
M  V30 3151 H 323.227 -2.1349 -3.58438 0
M  V30 3152 H 321.857 -1.14375 -3.01858 0
M  V30 3153 H 320.909 -3.29244 -1.90533 0
M  V30 3154 H 322.221 -4.20314 -2.68584 0
M  V30 3155 H 321.375 -3.52113 -4.94066 0
M  V30 3156 H 320.114 -2.50823 -4.18258 0
M  V30 3157 H 319.119 -4.54201 -3.09809 0
M  V30 3158 H 320.344 -5.56775 -3.88817 0
M  V30 3159 H 318.29 -3.83924 -5.3192 0
M  V30 3160 H 318.207 -5.55927 -5.12329 0
M  V30 3161 H 319.475 -4.86613 -6.08957 0
M  V30 3162 N 323.704 0.605807 -1.45491 0
M  V30 3163 C 324.95 1.36679 -1.49823 0
M  V30 3164 C 325.283 1.93693 -0.140175 0
M  V30 3165 O 324.558 1.75158 0.845581 0
M  V30 3166 C 324.841 2.51337 -2.57879 0
M  V30 3167 C 324.694 1.99508 -4.03134 0
M  V30 3168 C 326.013 3.53463 -2.62205 0
M  V30 3169 H 323.132 0.495617 -0.545466 0
M  V30 3170 H 325.774 0.682732 -1.7731 0
M  V30 3171 H 323.924 3.09691 -2.34571 0
M  V30 3172 H 325.596 1.45789 -4.37656 0
M  V30 3173 H 323.839 1.30496 -4.13707 0
M  V30 3174 H 324.51 2.82169 -4.74431 0
M  V30 3175 H 326.986 3.04953 -2.83095 0
M  V30 3176 H 325.862 4.31178 -3.39672 0
M  V30 3177 H 326.123 4.09197 -1.67363 0
M  V30 3178 N 325.182 1.32811 0.848464 0
M  V30 3179 C 326.593 1.21315 1.41914 0
M  V30 3180 C 326.944 -0.171847 1.95446 0
M  V30 3181 O 326.069 -1.07093 1.88043 0
M  V30 3182 C 326.664 2.19631 2.57968 0
M  V30 3183 C 325.223 2.12003 3.11017 0
M  V30 3184 C 324.37 2.07651 1.83783 0
M  V30 3185 H 327.321 1.44549 0.655071 0
M  V30 3186 H 327.342 1.79845 3.35315 0
M  V30 3187 H 326.854 3.20423 2.18976 0
M  V30 3188 H 324.955 1.14481 3.54577 0
M  V30 3189 H 325.068 3.02111 3.71841 0
M  V30 3190 H 323.432 1.52983 2.03638 0
M  V30 3191 H 324.215 3.10235 1.47 0
M  V30 3192 N 326.66 -1.06551 1.16123 0
M  V30 3193 C 327.906 -1.79567 0.94252 0
M  V30 3194 C 328.239 -1.86869 -0.528547 0
M  V30 3195 O 327.514 -1.35838 -1.39206 0
M  V30 3196 C 327.797 -3.24195 1.56747 0
M  V30 3197 C 327.65 -3.24989 3.10969 0
M  V30 3198 C 328.969 -4.21678 1.25998 0
M  V30 3199 H 326.088 -0.651883 0.343828 0
M  V30 3200 H 328.73 -1.2463 1.43413 0
M  V30 3201 H 326.88 -3.71107 1.14942 0
M  V30 3202 H 328.552 -2.86258 3.61737 0
M  V30 3203 H 326.795 -2.63716 3.44436 0
M  V30 3204 H 327.466 -4.27005 3.49815 0
M  V30 3205 H 329.942 -3.83196 1.62174 0
M  V30 3206 H 328.818 -5.21146 1.7233 0
M  V30 3207 H 329.079 -4.4174 0.178367 0
M  V30 3208 N 328.138 -0.959301 -1.25041 0
M  V30 3209 C 329.386 -0.615393 -1.92503 0
M  V30 3210 C 329.707 0.850969 -1.75452 0
M  V30 3211 O 328.977 1.60658 -1.12098 0
M  V30 3212 H 327.557 -0.224613 -0.712431 0
M  V30 3213 H 330.219 -1.21855 -1.5211 0
M  V30 3214 H 329.315 -0.848738 -3.00338 0
M  V30 3215 N 329.616 1.39756 -0.72842 0
M  V30 3216 C 330.548 2.29157 -0.0446202 0
M  V30 3217 C 331.561 1.46484 0.710367 0
M  V30 3218 O 332.75 1.69632 0.55562 0
M  V30 3219 C 329.85 3.24987 0.961071 0
M  V30 3220 C 329.023 4.36572 0.268967 0
M  V30 3221 C 328.082 5.12756 1.18184 0
M  V30 3222 O 327.108 5.6534 0.661794 0
M  V30 3223 N 328.31 5.23331 2.51206 0
M  V30 3224 H 331.075 2.88482 -0.812295 0
M  V30 3225 H 328.636 1.51265 -0.577098 0
M  V30 3226 H 330.628 3.72827 1.57423 0
M  V30 3227 H 329.198 2.66739 1.63 0
M  V30 3228 H 328.418 3.90694 -0.524574 0
M  V30 3229 H 329.706 5.08363 -0.210934 0
M  V30 3230 H 329.104 4.82116 2.9594 0
M  V30 3231 H 327.661 5.74634 3.07634 0
M  V30 3232 N 331.094 0.475555 1.50254 0
M  V30 3233 C 332.004 -0.321501 2.32387 0
M  V30 3234 C 333.02 -0.991755 1.42969 0
M  V30 3235 O 334.196 -0.978747 1.76018 0
M  V30 3236 C 331.261 -1.38667 3.17762 0
M  V30 3237 C 330.322 -0.732538 4.23004 0
M  V30 3238 C 329.555 -1.74695 5.04299 0
M  V30 3239 O 329.778 -2.97399 4.86734 0
M  V30 3240 O 328.712 -1.31631 5.8733 0
M  V30 3241 H 332.538 0.350071 3.01676 0
M  V30 3242 H 330.123 0.237321 1.47503 0
M  V30 3243 H 332.005 -2.00354 3.70724 0
M  V30 3244 H 330.68 -2.04163 2.51196 0
M  V30 3245 H 329.587 -0.0765902 3.74022 0
M  V30 3246 H 330.92 -0.120452 4.92053 0
M  V30 3247 N 332.573 -1.56217 0.208337 0
M  V30 3248 C 333.819 -1.98242 -0.427552 0
M  V30 3249 C 334.152 -1.09554 -1.60348 0
M  V30 3250 O 333.427 -0.15035 -1.93918 0
M  V30 3251 C 333.71 -3.4931 -0.874907 0
M  V30 3252 C 333.563 -4.48773 0.303751 0
M  V30 3253 C 334.882 -4.04424 -1.73577 0
M  V30 3254 H 332.001 -0.720744 -0.153936 0
M  V30 3255 H 334.643 -1.87586 0.30192 0
M  V30 3256 H 332.793 -3.58522 -1.49648 0
M  V30 3257 H 334.465 -4.51586 0.941682 0
M  V30 3258 H 332.708 -4.23194 0.953375 0
M  V30 3259 H 333.379 -5.51976 -0.0519883 0
M  V30 3260 H 335.855 -3.98075 -1.21143 0
M  V30 3261 H 334.731 -5.1047 -2.01771 0
M  V30 3262 H 334.992 -3.50494 -2.69456 0
M  V30 3263 N 334.051 0.0651679 -1.57465 0
M  V30 3264 C 334.961 1.09448 -2.07505 0
M  V30 3265 C 335.977 1.41974 -1.00595 0
M  V30 3266 O 337.153 1.52018 -1.32107 0
M  V30 3267 C 334.218 2.38689 -2.51453 0
M  V30 3268 C 333.279 2.13073 -3.72691 0
M  V30 3269 C 332.512 3.36152 -4.14533 0
M  V30 3270 O 332.735 4.45517 -3.56189 0
M  V30 3271 O 331.669 3.23974 -5.07272 0
M  V30 3272 H 335.495 0.69935 -2.95538 0
M  V30 3273 H 333.08 0.279752 -1.46757 0
M  V30 3274 H 334.962 3.14736 -2.80212 0
M  V30 3275 H 333.637 2.77568 -1.66546 0
M  V30 3276 H 332.544 1.34709 -3.49005 0
M  V30 3277 H 333.877 1.79071 -4.5847 0
M  V30 3278 N 335.529 1.53961 0.336706 0
M  V30 3279 C 336.777 1.71197 1.07405 0
M  V30 3280 C 337.098 0.481475 1.88962 0
M  V30 3281 O 336.368 -0.504585 1.8929 0
M  V30 3282 H 334.948 0.631185 0.399517 0
M  V30 3283 H 337.61 1.91232 0.376323 0
M  V30 3284 H 336.706 2.58587 1.74755 0
M  V30 3285 N 337.007 -0.598083 1.45811 0
M  V30 3286 C 337.94 -1.7223 1.49706 0
M  V30 3287 C 338.918 -1.58732 0.352535 0
M  V30 3288 O 340.102 -1.80162 0.554438 0
M  V30 3289 C 337.229 -3.10148 1.3611 0
M  V30 3290 C 336.275 -3.42209 2.54549 0
M  V30 3291 S 337.108 -3.35989 4.16979 0
M  V30 3292 C 338.264 -4.76471 4.05865 0
M  V30 3293 H 338.497 -1.68665 2.44826 0
M  V30 3294 H 336.03 -0.775541 1.33509 0
M  V30 3295 H 337.988 -3.8972 1.28953 0
M  V30 3296 H 336.649 -3.11219 0.424451 0
M  V30 3297 H 335.842 -4.42652 2.40988 0
M  V30 3298 H 335.444 -2.70173 2.58617 0
M  V30 3299 H 337.736 -5.665 3.71596 0
M  V30 3300 H 338.679 -4.95089 5.06253 0
M  V30 3301 H 339.087 -4.52599 3.37364 0
M  V30 3302 N 338.485 -1.33259 -0.841409 0
M  V30 3303 C 339.433 -1.23279 -1.97244 0
M  V30 3304 C 340.427 -0.134706 -1.68864 0
M  V30 3305 O 341.633 -0.298501 -1.77508 0
M  V30 3306 H 338.008 -0.382497 -0.647457 0
M  V30 3307 H 339.979 -2.18906 -2.02787 0
M  V30 3308 C 338.728 -0.986268 -3.33419 0
M  V30 3309 H 338.051 -1.82347 -3.55794 0
M  V30 3310 H 339.491 -0.956728 -4.13065 0
M  V30 3311 C 337.95 0.310842 -3.35463 0
M  V30 3312 O 338.48 1.31838 -3.79449 0
M  V30 3313 N 336.686 0.337485 -2.88634 0
M  V30 3314 H 336.233 -0.482967 -2.53032 0
M  V30 3315 H 336.191 1.20518 -2.90384 0
M  V30 3316 N 339.963 1.05934 -1.16686 0
M  V30 3317 C 341.212 1.78188 -0.945085 0
M  V30 3318 C 341.525 1.88338 0.528021 0
M  V30 3319 O 342.731 2.57258 0.867799 0
M  V30 3320 C 341.187 3.20277 -1.64167 0
M  V30 3321 C 340.795 3.18281 -3.15279 0
M  V30 3322 C 342.539 3.97039 -1.502 0
M  V30 3323 C 340.446 4.55112 -3.7766 0
M  V30 3324 H 339.376 0.667866 -0.349959 0
M  V30 3325 H 342.027 1.18794 -1.39858 0
M  V30 3326 H 340.409 3.79952 -1.11589 0
M  V30 3327 H 341.583 2.68167 -3.74731 0
M  V30 3328 H 339.898 2.55018 -3.29173 0
M  V30 3329 H 342.495 4.98194 -1.94183 0
M  V30 3330 H 342.838 4.13845 -0.451461 0
M  V30 3331 H 343.371 3.43894 -1.99954 0
M  V30 3332 H 340.11 4.43512 -4.82677 0
M  V30 3333 H 339.63 5.05406 -3.22994 0
M  V30 3334 H 341.309 5.24064 -3.79428 0
M  V30 3335 N 341.441 0.965919 1.2453 0
M  V30 3336 C 342.371 0.513476 2.27784 0
M  V30 3337 C 343.352 -0.445974 1.6415 0
M  V30 3338 O 344.537 -0.342485 1.91156 0
M  V30 3339 C 341.667 -0.198839 3.4673 0
M  V30 3340 C 340.621 0.676456 4.2262 0
M  V30 3341 C 339.947 -0.167248 5.34438 0
M  V30 3342 C 341.247 1.96017 4.84123 0
M  V30 3343 H 342.941 1.3765 2.65881 0
M  V30 3344 H 340.487 0.663321 1.27813 0
M  V30 3345 H 342.44 -0.526567 4.18097 0
M  V30 3346 H 341.164 -1.0962 3.07654 0
M  V30 3347 H 339.823 0.98743 3.53052 0
M  V30 3348 H 339.471 -1.0647 4.91603 0
M  V30 3349 H 339.171 0.415181 5.86131 0
M  V30 3350 H 340.695 -0.489688 6.08633 0
M  V30 3351 H 342.109 1.69814 5.47573 0
M  V30 3352 H 340.506 2.48918 5.4604 0
M  V30 3353 H 341.576 2.65622 4.05676 0
M  V30 3354 N 342.919 -1.39368 0.735821 0
M  V30 3355 C 344.167 -2.00101 0.283562 0
M  V30 3356 C 344.488 -1.5868 -1.13338 0
M  V30 3357 O 343.758 -0.835423 -1.77193 0
M  V30 3358 H 342.338 -0.740024 0.101851 0
M  V30 3359 H 345 -1.70404 0.945962 0
M  V30 3360 H 344.096 -3.10323 0.332604 0
M  V30 3361 N 344.397 -0.483516 -1.5 0
M  V30 3362 C 345.327 0.293829 -2.31644 0
M  V30 3363 C 346.308 0.978864 -1.39112 0
M  V30 3364 O 347.493 0.973644 -1.68029 0
M  V30 3365 C 344.623 1.36897 -3.19181 0
M  V30 3366 C 343.577 0.804833 -4.20365 0
M  V30 3367 C 342.903 1.9792 -4.96721 0
M  V30 3368 C 344.203 -0.192313 -5.21946 0
M  V30 3369 H 345.897 -0.387616 -2.9688 0
M  V30 3370 H 343.443 -0.187856 -1.42769 0
M  V30 3371 H 345.396 1.92037 -3.751 0
M  V30 3372 H 344.12 2.07936 -2.51853 0
M  V30 3373 H 342.779 0.275319 -3.65565 0
M  V30 3374 H 342.427 2.67686 -4.25856 0
M  V30 3375 H 342.127 1.60789 -5.65173 0
M  V30 3376 H 343.651 2.53526 -5.55479 0
M  V30 3377 H 345.065 0.270333 -5.72662 0
M  V30 3378 H 343.462 -0.478543 -5.98189 0
M  V30 3379 H 344.532 -1.11409 -4.71928 0
M  V30 3380 N 345.875 1.56104 -0.216619 0
M  V30 3381 C 347.121 1.98466 0.417033 0
M  V30 3382 C 347.454 1.10403 1.59765 0
M  V30 3383 O 346.729 0.160632 1.93836 0
M  V30 3384 C 347.012 3.49769 0.85637 0
M  V30 3385 C 346.865 4.48606 -0.327546 0
M  V30 3386 C 348.184 4.05339 1.7143 0
M  V30 3387 H 345.303 0.721551 0.150112 0
M  V30 3388 H 347.945 1.87423 -0.311864 0
M  V30 3389 H 346.095 3.5931 1.47745 0
M  V30 3390 H 347.767 4.5108 -0.965618 0
M  V30 3391 H 346.01 4.22682 -0.975805 0
M  V30 3392 H 346.681 5.51995 0.0227149 0
M  V30 3393 H 349.157 3.98712 1.19031 0
M  V30 3394 H 348.033 5.11533 1.99061 0
M  V30 3395 H 348.294 3.51918 2.67593 0
M  V30 3396 N 347.353 -0.0568162 1.57498 0
M  V30 3397 C 348.599 -0.75422 1.88253 0
M  V30 3398 C 348.932 -1.76461 0.810865 0
M  V30 3399 O 348.207 -1.93691 -0.177259 0
M  V30 3400 C 348.49 -1.44878 3.2967 0
M  V30 3401 C 348.343 -0.453789 4.47505 0
M  V30 3402 C 349.662 -2.38994 3.69554 0
M  V30 3403 H 346.781 -0.272724 0.684683 0
M  V30 3404 H 349.423 -0.0172113 1.89992 0
M  V30 3405 H 347.573 -2.077 3.28318 0
M  V30 3406 H 349.245 0.170371 4.60985 0
M  V30 3407 H 347.488 0.229552 4.33192 0
M  V30 3408 H 348.159 -0.977699 5.43273 0
M  V30 3409 H 350.635 -1.86239 3.72095 0
M  V30 3410 H 349.511 -2.84587 4.69363 0
M  V30 3411 H 349.772 -3.24461 3.00296 0
M  V30 3412 N 348.832 -1.54138 -0.328536 0
M  V30 3413 C 350.079 -1.72105 -1.06706 0
M  V30 3414 C 350.407 -0.492111 -1.88171 0
M  V30 3415 O 349.662 0.526153 -1.88494 0
M  V30 3416 C 349.961 -2.9457 -2.02393 0
M  V30 3417 C 349.627 -4.29544 -1.37122 0
M  V30 3418 C 348.289 -4.6624 -1.19052 0
M  V30 3419 C 350.641 -5.1333 -0.902331 0
M  V30 3420 C 347.969 -5.84325 -0.527331 0
M  V30 3421 C 350.321 -6.32094 -0.252988 0
M  V30 3422 C 348.985 -6.67473 -0.0600901 0
M  V30 3423 H 348.255 -0.629775 -0.390466 0
M  V30 3424 H 350.902 -1.88372 -0.34473 0
M  V30 3425 H 349.207 -2.72969 -2.81061 0
M  V30 3426 H 350.904 -3.05665 -2.59557 0
M  V30 3427 H 347.494 -4.0067 -1.52188 0
M  V30 3428 H 351.678 -4.855 -1.02974 0
M  V30 3429 H 346.934 -6.103 -0.366634 0
M  V30 3430 H 351.108 -6.96299 0.118366 0
M  V30 3431 H 348.735 -7.58832 0.455828 0
M  V30 3432 N 350.31 0.590341 -1.46126 0
M  V30 3433 C 351.273 1.68194 -1.55703 0
M  V30 3434 C 352.273 1.54808 -0.434868 0
M  V30 3435 O 353.463 1.59564 -0.698928 0
M  V30 3436 C 350.595 3.07575 -1.47005 0
M  V30 3437 H 351.788 1.61064 -2.52979 0
M  V30 3438 H 349.341 0.807541 -1.33823 0
M  V30 3439 H 350.076 3.20268 -0.509785 0
M  V30 3440 H 349.861 3.187 -2.28414 0
M  V30 3441 H 351.351 3.87055 -1.56776 0
M  V30 3442 N 351.788 1.33704 0.83433 0
M  V30 3443 C 353.037 1.24763 1.58484 0
M  V30 3444 C 353.35 -0.183775 1.94735 0
M  V30 3445 O 354.556 -0.395234 2.68608 0
M  V30 3446 C 353.012 2.18638 2.85876 0
M  V30 3447 C 352.62 3.66974 2.56971 0
M  V30 3448 C 354.364 2.18581 3.63899 0
M  V30 3449 C 352.271 4.5275 3.80488 0
M  V30 3450 H 351.201 0.463425 0.594772 0
M  V30 3451 H 353.852 1.58797 0.919551 0
M  V30 3452 H 352.234 1.77542 3.5397 0
M  V30 3453 H 353.408 4.16538 1.9706 0
M  V30 3454 H 351.723 3.69366 1.92244 0
M  V30 3455 H 354.32 2.79894 4.55591 0
M  V30 3456 H 354.663 1.18207 3.99165 0
M  V30 3457 H 355.196 2.58062 3.02735 0
M  V30 3458 H 351.935 5.54017 3.5035 0
M  V30 3459 H 351.455 4.07927 4.39722 0
M  V30 3460 H 353.134 4.66784 4.4802 0
M  V30 3461 N 353.266 -1.05314 1.17247 0
M  V30 3462 C 354.512 -1.78557 0.961513 0
M  V30 3463 C 354.845 -1.87419 -0.508697 0
M  V30 3464 O 354.12 -1.37307 -1.37757 0
M  V30 3465 C 354.403 -3.22514 1.60176 0
M  V30 3466 C 354.256 -3.21673 3.14399 0
M  V30 3467 C 355.575 -4.20318 1.30463 0
M  V30 3468 H 352.694 -0.6482 0.350723 0
M  V30 3469 H 355.336 -1.23102 1.44727 0
M  V30 3470 H 353.486 -3.69867 1.18871 0
M  V30 3471 H 355.158 -2.82405 3.64753 0
M  V30 3472 H 353.401 -2.60048 3.47214 0
M  V30 3473 H 354.072 -4.23271 3.54324 0
M  V30 3474 H 356.548 -3.81454 1.66229 0
M  V30 3475 H 355.424 -5.19289 1.77848 0
M  V30 3476 H 355.685 -4.41526 0.22521 0
M  V30 3477 N 354.744 -0.972509 -1.24016 0
M  V30 3478 C 355.991 -0.637034 -1.92219 0
M  V30 3479 C 356.319 0.828418 -1.75976 0
M  V30 3480 O 355.574 1.61206 -1.10955 0
M  V30 3481 C 355.873 -0.963694 -3.44162 0
M  V30 3482 C 355.539 -2.41807 -3.80579 0
M  V30 3483 C 354.201 -2.81556 -3.9023 0
M  V30 3484 C 356.553 -3.36172 -3.98293 0
M  V30 3485 C 353.881 -4.14702 -4.15017 0
M  V30 3486 C 356.233 -4.68952 -4.24578 0
M  V30 3487 C 354.897 -5.08472 -4.32449 0
M  V30 3488 H 354.167 -0.233107 -0.703379 0
M  V30 3489 H 356.814 -1.2249 -1.47202 0
M  V30 3490 H 355.119 -0.29365 -3.90698 0
M  V30 3491 H 356.816 -0.682449 -3.9515 0
M  V30 3492 H 353.406 -2.09988 -3.73635 0
M  V30 3493 H 357.59 -3.06644 -3.90234 0
M  V30 3494 H 352.846 -4.4494 -4.19331 0
M  V30 3495 H 357.02 -5.42037 -4.37229 0
M  V30 3496 H 354.647 -6.11665 -4.51409 0
M  V30 3497 N 356.222 1.38976 -0.743202 0
M  V30 3498 C 357.47 1.99948 -0.29417 0
M  V30 3499 C 357.791 1.59279 1.12495 0
M  V30 3500 O 357.061 0.844808 1.76748 0
M  V30 3501 H 355.641 0.739473 -0.105774 0
M  V30 3502 H 358.303 1.699 -0.954986 0
M  V30 3503 H 357.399 3.10142 -0.349056 0
M  V30 3504 N 357.7 0.491464 1.49741 0
M  V30 3505 C 358.946 -0.0565092 2.02721 0
M  V30 3506 C 359.279 -1.37522 1.37118 0
M  V30 3507 O 358.554 -1.87866 0.503645 0
M  V30 3508 C 358.837 -0.219051 3.59433 0
M  V30 3509 C 358.69 1.12211 4.35579 0
M  V30 3510 C 360.009 -0.964157 4.29409 0
M  V30 3511 H 357.128 -0.0190627 0.736753 0
M  V30 3512 H 359.77 0.641021 1.7886 0
M  V30 3513 H 357.92 -0.813165 3.79895 0
M  V30 3514 H 359.592 1.75437 4.26637 0
M  V30 3515 H 357.835 1.71377 3.98513 0
M  V30 3516 H 358.506 0.961794 5.43556 0
M  V30 3517 H 360.982 -0.460378 4.13545 0
M  V30 3518 H 359.858 -1.04671 5.38828 0
M  V30 3519 H 360.119 -2.00563 3.93988 0
M  V30 3520 N 359.178 -1.55987 0.224894 0
M  V30 3521 C 360.141 -2.19178 -0.670348 0
M  V30 3522 C 361.141 -1.15461 -1.11917 0
M  V30 3523 O 362.331 -1.40675 -1.02743 0
M  V30 3524 C 359.463 -2.81777 -1.9187 0
M  V30 3525 H 360.656 -2.99662 -0.119364 0
M  V30 3526 H 358.209 -1.5628 -0.0247128 0
M  V30 3527 H 358.944 -2.05172 -2.51147 0
M  V30 3528 H 358.729 -3.57732 -1.60531 0
M  V30 3529 H 360.219 -3.30205 -2.55645 0
M  V30 3530 N 360.656 0.0484629 -1.57525 0
M  V30 3531 C 361.586 1.0549 -2.08313 0
M  V30 3532 C 362.567 1.38929 -0.981463 0
M  V30 3533 O 363.752 1.48151 -1.25558 0
M  V30 3534 C 360.882 2.36162 -2.54646 0
M  V30 3535 C 359.836 2.17016 -3.68901 0
M  V30 3536 C 359.162 3.53278 -4.01371 0
M  V30 3537 C 360.462 1.57219 -4.98076 0
M  V30 3538 H 362.156 0.632195 -2.92649 0
M  V30 3539 H 359.702 0.302654 -1.40784 0
M  V30 3540 H 361.655 3.06882 -2.88793 0
M  V30 3541 H 360.379 2.80456 -1.67368 0
M  V30 3542 H 359.038 1.48733 -3.35073 0
M  V30 3543 H 358.686 3.95185 -3.11188 0
M  V30 3544 H 358.386 3.41299 -4.78318 0
M  V30 3545 H 359.91 4.25391 -4.38035 0
M  V30 3546 H 361.324 2.17832 -5.30304 0
M  V30 3547 H 359.721 1.55871 -5.79503 0
M  V30 3548 H 360.791 0.535956 -4.81929 0
M  V30 3549 N 362.134 1.5431 0.320358 0
M  V30 3550 C 363.55 1.45091 0.664889 0
M  V30 3551 C 363.75 0.626382 1.91517 0
M  V30 3552 O 362.806 0.126443 2.52183 0
M  V30 3553 C 364.119 2.88848 0.83591 0
M  V30 3554 C 365.667 2.9877 0.933046 0
M  V30 3555 C 366.142 4.43683 1.13621 0
M  V30 3556 N 367.633 4.47309 1.20287 0
M  V30 3557 C 368.368 5.56595 1.37801 0
M  V30 3558 N 367.864 6.75844 1.52338 0
M  V30 3559 N 369.657 5.44248 1.40535 0
M  V30 3560 H 361.808 2.06398 -0.501374 0
M  V30 3561 H 364.071 0.933963 -0.162534 0
M  V30 3562 H 363.777 3.51698 -0.0116092 0
M  V30 3563 H 363.651 3.35148 1.73078 0
M  V30 3564 H 366.038 2.36045 1.77107 0
M  V30 3565 H 366.119 2.55796 0.0145782 0
M  V30 3566 H 365.763 5.06995 0.303032 0
M  V30 3567 H 365.693 4.84269 2.0686 0
M  V30 3568 H 368.184 3.61388 1.10485 0
M  V30 3569 H 368.497 7.54892 1.65403 0
M  V30 3570 H 366.842 6.78746 1.4943 0
M  V30 3571 H 370.033 4.50038 1.28777 0
M  V30 3572 H 370.206 6.29473 1.53842 0
M  V30 3573 N 363.613 -0.582584 1.46437 0
M  V30 3574 C 364.56 -1.69164 1.5701 0
M  V30 3575 C 365.53 -1.60847 0.414403 0
M  V30 3576 O 366.715 -1.80058 0.631171 0
M  V30 3577 C 363.855 -3.075 1.56646 0
M  V30 3578 C 362.968 -3.2644 2.82951 0
M  V30 3579 C 362.103 -4.55026 2.7409 0
M  V30 3580 C 361.142 -4.6731 3.95333 0
M  V30 3581 N 360.279 -5.87221 3.84858 0
M  V30 3582 H 365.119 -1.59464 2.51744 0
M  V30 3583 H 362.656 -0.777186 1.24893 0
M  V30 3584 H 364.614 -3.8757 1.5442 0
M  V30 3585 H 363.244 -3.16096 0.654439 0
M  V30 3586 H 362.296 -2.39974 2.95155 0
M  V30 3587 H 363.608 -3.31385 3.72808 0
M  V30 3588 H 362.762 -5.43324 2.6997 0
M  V30 3589 H 361.501 -4.52519 1.81873 0
M  V30 3590 H 360.506 -3.77429 3.99784 0
M  V30 3591 H 361.731 -4.71595 4.88646 0
M  V30 3592 H 359.677 -5.85712 2.95427 0
M  V30 3593 H 359.594 -5.93435 4.6837 0
M  V30 3594 H 360.862 -6.7795 3.84713 0
M  V30 3595 N 365.091 -1.34144 -0.827227 0
M  V30 3596 C 366.021 -1.28005 -1.95287 0
M  V30 3597 C 367.002 -0.158321 -1.69362 0
M  V30 3598 O 368.187 -0.349987 -1.9102 0
M  V30 3599 C 365.317 -1.03036 -3.31664 0
M  V30 3600 C 364.271 -2.11628 -3.72019 0
M  V30 3601 C 363.597 -1.71854 -5.0633 0
M  V30 3602 C 364.897 -3.53417 -3.8457 0
M  V30 3603 H 366.591 -2.22187 -2.00682 0
M  V30 3604 H 364.137 -1.0696 -0.964135 0
M  V30 3605 H 366.09 -0.973863 -4.09993 0
M  V30 3606 H 364.814 -0.0529391 -3.26557 0
M  V30 3607 H 363.473 -2.16339 -2.95961 0
M  V30 3608 H 363.121 -0.727841 -4.97706 0
M  V30 3609 H 362.821 -2.44531 -5.34302 0
M  V30 3610 H 364.345 -1.67692 -5.87122 0
M  V30 3611 H 365.759 -3.51142 -4.5318 0
M  V30 3612 H 364.156 -4.24679 -4.2399 0
M  V30 3613 H 365.226 -3.91072 -2.86689 0
M  V30 3614 N 366.569 1.04691 -1.17803 0
M  V30 3615 C 367.817 1.7743 -0.967617 0
M  V30 3616 C 368.138 1.88359 0.504574 0
M  V30 3617 O 367.408 1.40402 1.36617 0
M  V30 3618 H 365.988 0.657242 -0.355024 0
M  V30 3619 H 368.65 1.2638 -1.48371 0
M  V30 3620 H 367.746 2.78924 -1.40027 0
M  V30 3621 N 368.047 0.979072 1.23499 0
M  V30 3622 C 369.458 0.684391 1.73704 0
M  V30 3623 C 369.809 -0.799448 1.79174 0
M  V30 3624 O 368.934 -1.62531 1.42873 0
M  V30 3625 C 369.529 1.23564 3.15464 0
M  V30 3626 C 368.088 0.99063 3.6313 0
M  V30 3627 C 367.235 1.36416 2.41425 0
M  V30 3628 H 370.186 1.15307 1.09041 0
M  V30 3629 H 370.207 0.607417 3.7562 0
M  V30 3630 H 369.719 2.31561 3.1145 0
M  V30 3631 H 367.82 -0.0733136 3.72528 0
M  V30 3632 H 367.933 1.64427 4.5 0
M  V30 3633 H 366.297 0.782616 2.42378 0
M  V30 3634 H 367.08 2.45387 2.40083 0
M  V30 3635 N 369.525 -1.3858 0.750561 0
M  V30 3636 C 370.435 -2.34278 0.122825 0
M  V30 3637 C 371.451 -1.59116 -0.704131 0
M  V30 3638 O 372.627 -1.91326 -0.628987 0
M  V30 3639 C 369.692 -3.38221 -0.762086 0
M  V30 3640 C 368.753 -4.29227 0.078896 0
M  V30 3641 C 367.986 -5.28205 -0.763874 0
M  V30 3642 O 368.209 -5.34112 -2.00201 0
M  V30 3643 O 367.143 -6.01618 -0.18428 0
M  V30 3644 H 370.969 -2.89649 0.913088 0
M  V30 3645 H 368.554 -1.40374 0.511417 0
M  V30 3646 H 370.436 -4.01872 -1.26793 0
M  V30 3647 H 369.111 -2.85211 -1.5309 0
M  V30 3648 H 368.018 -3.68747 0.630621 0
M  V30 3649 H 369.351 -4.85484 0.810289 0
M  V30 3650 N 371.003 -0.499398 -1.49478 0
M  V30 3651 C 372.251 0.0455996 -2.02049 0
M  V30 3652 C 372.572 1.37633 -1.38138 0
M  V30 3653 O 371.842 1.8842 -0.536166 0
M  V30 3654 H 370.422 0.0198416 -0.746736 0
M  V30 3655 H 373.084 -0.656274 -1.83519 0
M  V30 3656 H 372.18 0.176445 -3.11601 0
M  V30 3657 N 372.481 1.55866 -0.233164 0
M  V30 3658 C 373.391 2.24431 0.683217 0
M  V30 3659 C 374.407 1.2558 1.2044 0
M  V30 3660 O 375.583 1.58422 1.24356 0
M  V30 3661 C 372.648 2.91979 1.86947 0
M  V30 3662 C 371.709 4.06204 1.38912 0
M  V30 3663 C 370.942 4.70522 2.51883 0
M  V30 3664 O 371.165 4.33865 3.70293 0
M  V30 3665 O 370.099 5.59296 2.22423 0
M  V30 3666 H 373.925 3.03426 0.129059 0
M  V30 3667 H 371.51 1.494 -0.0022283 0
M  V30 3668 H 373.392 3.34573 2.56201 0
M  V30 3669 H 372.067 2.15935 2.41151 0
M  V30 3670 H 370.974 3.68155 0.664259 0
M  V30 3671 H 372.307 4.84025 0.893328 0
M  V30 3672 N 373.959 -0.0401083 1.57549 0
M  V30 3673 C 374.889 -1.04384 2.08869 0
M  V30 3674 C 375.87 -1.38407 0.988817 0
M  V30 3675 O 377.055 -1.47483 1.26342 0
M  V30 3676 C 374.185 -2.34808 2.55895 0
M  V30 3677 C 373.139 -2.15057 3.70047 0
M  V30 3678 C 372.465 -3.51145 4.03239 0
M  V30 3679 C 373.765 -1.54576 4.98902 0
M  V30 3680 H 375.459 -0.616666 2.92981 0
M  V30 3681 H 373.005 -0.295184 1.40942 0
M  V30 3682 H 374.958 -3.05346 2.90417 0
M  V30 3683 H 373.682 -2.79565 1.68853 0
M  V30 3684 H 372.341 -1.46954 3.35857 0
M  V30 3685 H 371.989 -3.93529 3.13279 0
M  V30 3686 H 371.689 -3.38758 4.80122 0
M  V30 3687 H 373.213 -4.23062 4.40285 0
M  V30 3688 H 374.627 -2.15017 5.31451 0
M  V30 3689 H 373.024 -1.52796 5.80322 0
M  V30 3690 H 374.094 -0.51039 4.82206 0
M  V30 3691 N 375.437 -1.54477 -0.31217 0
M  V30 3692 C 376.367 -1.87652 -1.38957 0
M  V30 3693 C 377.348 -0.734358 -1.53431 0
M  V30 3694 O 378.533 -0.98911 -1.67123 0
M  V30 3695 C 375.663 -2.11396 -2.75552 0
M  V30 3696 C 374.617 -3.27243 -2.75855 0
M  V30 3697 C 373.943 -3.36382 -4.15633 0
M  V30 3698 C 375.243 -4.64622 -2.38587 0
M  V30 3699 H 376.937 -2.77887 -1.11442 0
M  V30 3700 H 374.483 -1.33707 -0.534655 0
M  V30 3701 H 376.436 -2.33189 -3.51 0
M  V30 3702 H 375.16 -1.17921 -3.04569 0
M  V30 3703 H 373.819 -3.05356 -2.02863 0
M  V30 3704 H 373.467 -2.40445 -4.41809 0
M  V30 3705 H 373.167 -4.14249 -4.1674 0
M  V30 3706 H 374.691 -3.60422 -4.92877 0
M  V30 3707 H 376.105 -4.86219 -3.03749 0
M  V30 3708 H 374.502 -5.45121 -2.50925 0
M  V30 3709 H 375.572 -4.66097 -1.33723 0
M  V30 3710 N 376.915 0.57481 -1.46744 0
M  V30 3711 C 378.164 1.32898 -1.51727 0
M  V30 3712 C 378.477 1.948 -0.176692 0
M  V30 3713 O 379.683 2.71299 -0.104385 0
M  V30 3714 C 378.139 2.40901 -2.67385 0
M  V30 3715 C 377.747 1.85266 -4.07898 0
M  V30 3716 C 379.491 3.17609 -2.81646 0
M  V30 3717 C 377.398 2.90945 -5.14883 0
M  V30 3718 H 376.328 0.499631 -0.564699 0
M  V30 3719 H 378.979 0.612536 -1.72975 0
M  V30 3720 H 377.361 3.15379 -2.39483 0
M  V30 3721 H 378.535 1.17278 -4.45626 0
M  V30 3722 H 376.85 1.21199 -3.98371 0
M  V30 3723 H 379.447 3.96493 -3.58744 0
M  V30 3724 H 379.79 3.70696 -1.89448 0
M  V30 3725 H 380.323 2.50239 -3.09233 0
M  V30 3726 H 377.062 2.42736 -6.089 0
M  V30 3727 H 376.582 3.57398 -4.81691 0
M  V30 3728 H 378.261 3.54755 -5.41071 0
M  V30 3729 N 378.394 1.34581 0.820102 0
M  V30 3730 C 379.81 1.14325 1.11364 0
M  V30 3731 C 380.01 -0.0533648 2.01429 0
M  V30 3732 O 379.066 -0.728044 2.41776 0
M  V30 3733 C 380.379 2.43983 1.75764 0
M  V30 3734 C 381.927 2.50065 1.88246 0
M  V30 3735 C 382.402 3.79732 2.56061 0
M  V30 3736 N 383.893 3.80908 2.63558 0
M  V30 3737 C 384.628 4.77961 3.16766 0
M  V30 3738 N 384.124 5.85397 3.70517 0
M  V30 3739 N 385.917 4.65413 3.15194 0
M  V30 3740 H 378.068 2.11246 0.221096 0
M  V30 3741 H 380.331 0.934289 0.160649 0
M  V30 3742 H 380.037 3.31651 1.1705 0
M  V30 3743 H 379.911 2.57531 2.75604 0
M  V30 3744 H 382.298 1.62834 2.46108 0
M  V30 3745 H 382.379 2.40442 0.873006 0
M  V30 3746 H 382.023 4.67354 1.98853 0
M  V30 3747 H 381.953 3.86639 3.57516 0
M  V30 3748 H 384.444 3.03274 2.25463 0
M  V30 3749 H 384.757 6.55463 4.09376 0
M  V30 3750 H 383.102 5.89107 3.68752 0
M  V30 3751 H 386.293 3.80627 2.72471 0
M  V30 3752 H 386.466 5.41216 3.56356 0
M  V30 3753 N 379.872 -1.04064 1.18357 0
M  V30 3754 C 381.119 -1.77265 0.978947 0
M  V30 3755 C 381.447 -1.88189 -0.491428 0
M  V30 3756 O 380.702 -1.38653 -1.38108 0
M  V30 3757 C 381.001 -3.20634 1.57888 0
M  V30 3758 C 380.667 -3.29743 3.07539 0
M  V30 3759 C 379.329 -3.31937 3.48384 0
M  V30 3760 C 381.681 -3.29841 4.03552 0
M  V30 3761 C 379.009 -3.3187 4.83818 0
M  V30 3762 C 381.361 -3.31313 5.38901 0
M  V30 3763 C 380.025 -3.31799 5.79194 0
M  V30 3764 H 379.295 -0.648659 0.358222 0
M  V30 3765 H 381.942 -1.22225 1.47422 0
M  V30 3766 H 380.247 -3.78675 1.00561 0
M  V30 3767 H 381.944 -3.75917 1.39598 0
M  V30 3768 H 378.534 -3.28757 2.74986 0
M  V30 3769 H 382.718 -3.27337 3.73047 0
M  V30 3770 H 377.974 -3.30562 5.14333 0
M  V30 3771 H 382.148 -3.30338 6.13066 0
M  V30 3772 H 379.775 -3.315 6.84114 0
M  V30 3773 N 381.35 -0.985608 -1.22978 0
M  V30 3774 C 382.597 -0.657386 -1.91532 0
M  V30 3775 C 382.925 0.809707 -1.76845 0
M  V30 3776 O 382.18 1.60021 -1.12658 0
M  V30 3777 C 382.479 -1.00014 -3.43121 0
M  V30 3778 C 382.145 -2.4583 -3.77993 0
M  V30 3779 C 380.807 -2.85679 -3.87222 0
M  V30 3780 C 383.159 -3.40378 -3.94705 0
M  V30 3781 C 380.487 -4.19081 -4.10595 0
M  V30 3782 C 382.839 -4.73429 -4.1958 0
M  V30 3783 C 381.503 -5.1303 -4.27032 0
M  V30 3784 H 380.773 -0.240555 -0.700867 0
M  V30 3785 H 383.42 -1.24044 -1.45895 0
M  V30 3786 H 381.725 -0.335072 -3.90365 0
M  V30 3787 H 383.422 -0.724322 -3.94404 0
M  V30 3788 H 380.012 -2.13939 -3.71387 0
M  V30 3789 H 384.196 -3.10766 -3.8696 0
M  V30 3790 H 379.452 -4.49362 -4.14589 0
M  V30 3791 H 383.626 -5.46644 -4.31455 0
M  V30 3792 H 381.253 -6.16418 -4.44896 0
M  V30 3793 N 382.828 1.3818 -0.7579 0
M  V30 3794 C 383.776 2.32277 -0.122482 0
M  V30 3795 C 384.77 1.54238 0.700505 0
M  V30 3796 O 385.976 1.69737 0.599119 0
M  V30 3797 H 382.351 0.751712 -0.0208143 0
M  V30 3798 H 384.322 2.83469 -0.932099 0
M  V30 3799 C 383.071 3.39447 0.753076 0
M  V30 3800 H 382.394 3.99591 0.129184 0
M  V30 3801 H 383.834 4.07684 1.16489 0
M  V30 3802 C 382.293 2.78375 1.8976 0
M  V30 3803 O 382.823 2.68025 2.99208 0
M  V30 3804 N 381.029 2.36121 1.69397 0
M  V30 3805 H 380.576 2.4474 0.803762 0
M  V30 3806 H 380.534 1.95602 2.46145 0
M  V30 3807 N 384.306 0.507319 1.49211 0
M  V30 3808 C 385.531 -0.033725 2.07373 0
M  V30 3809 C 385.956 -1.29485 1.36437 0
M  V30 3810 O 385.314 -1.76294 0.423087 0
M  V30 3811 C 385.362 -0.263945 3.59633 0
M  V30 3812 O 384.466 -1.33737 3.90113 0
M  V30 3813 H 383.807 0.0290331 0.663365 0
M  V30 3814 H 386.337 0.708749 1.91932 0
M  V30 3815 H 386.347 -0.493536 4.05004 0
M  V30 3816 H 385.022 0.657424 4.10671 0
M  V30 3817 H 383.599 -1.09224 3.56545 0
M  V30 3818 N 385.784 -1.5574 0.241426 0
M  V30 3819 C 387.031 -1.9881 -0.384836 0
M  V30 3820 C 387.359 -1.12947 -1.58346 0
M  V30 3821 O 386.614 -0.178993 -1.9488 0
M  V30 3822 C 386.913 -3.47308 -0.843317 0
M  V30 3823 C 386.579 -4.50223 0.246946 0
M  V30 3824 C 385.241 -4.78088 0.546399 0
M  V30 3825 C 387.593 -5.11841 0.983282 0
M  V30 3826 C 384.921 -5.64846 1.58636 0
M  V30 3827 C 387.273 -5.99727 2.01272 0
M  V30 3828 C 385.937 -6.25927 2.31888 0
M  V30 3829 H 385.207 -0.727496 -0.140821 0
M  V30 3830 H 387.854 -1.8831 0.348106 0
M  V30 3831 H 386.159 -3.55112 -1.65537 0
M  V30 3832 H 387.856 -3.78017 -1.33806 0
M  V30 3833 H 384.446 -4.286 0.00340639 0
M  V30 3834 H 388.63 -4.90366 0.765182 0
M  V30 3835 H 383.886 -5.83403 1.82896 0
M  V30 3836 H 388.06 -6.46517 2.58823 0
M  V30 3837 H 385.687 -6.92949 3.12611 0
M  V30 3838 N 387.262 0.0317525 -1.57568 0
M  V30 3839 C 388.21 1.05165 -2.07468 0
M  V30 3840 C 389.204 1.3761 -0.98792 0
M  V30 3841 O 390.41 1.36546 -1.17282 0
M  V30 3842 H 386.785 0.35666 -0.66204 0
M  V30 3843 H 388.756 0.604958 -2.92203 0
M  V30 3844 C 387.505 2.34488 -2.56731 0
M  V30 3845 H 386.828 2.10383 -3.39969 0
M  V30 3846 H 388.268 3.04203 -2.95358 0
M  V30 3847 C 386.727 3.03266 -1.46736 0
M  V30 3848 O 387.257 3.92988 -0.832069 0
M  V30 3849 N 385.463 2.6455 -1.20256 0
M  V30 3850 H 385.01 1.91674 -1.72102 0
M  V30 3851 H 384.968 3.10886 -0.468737 0
M  V30 3852 N 388.74 1.54641 0.303973 0
M  V30 3853 C 389.65 1.88439 1.39743 0
M  V30 3854 C 390.666 0.778239 1.55626 0
M  V30 3855 O 391.842 1.07442 1.70347 0
M  V30 3856 C 388.907 2.12212 2.74166 0
M  V30 3857 C 387.968 3.35936 2.67293 0
M  V30 3858 C 387.201 3.58566 3.95305 0
M  V30 3859 O 387.424 2.84263 4.9452 0
M  V30 3860 O 386.358 4.52078 3.97378 0
M  V30 3861 H 390.184 2.81458 1.14083 0
M  V30 3862 H 387.769 1.40793 0.499768 0
M  V30 3863 H 389.651 2.29067 3.53704 0
M  V30 3864 H 388.326 1.22379 2.99675 0
M  V30 3865 H 387.233 3.24448 1.86237 0
M  V30 3866 H 388.566 4.2589 2.46736 0
M  V30 3867 N 390.218 -0.567019 1.47046 0
M  V30 3868 C 391.181 -1.65696 1.58359 0
M  V30 3869 C 392.181 -1.54097 0.459441 0
M  V30 3870 O 393.371 -1.58432 0.724225 0
M  V30 3871 C 390.503 -3.05197 1.51879 0
M  V30 3872 H 391.696 -1.57019 2.5551 0
M  V30 3873 H 389.249 -0.786148 1.3509 0
M  V30 3874 H 389.984 -3.19417 0.560673 0
M  V30 3875 H 389.769 -3.15025 2.33455 0
M  V30 3876 H 391.259 -3.84511 1.62913 0
M  V30 3877 N 391.696 -1.35014 -0.812953 0
M  V30 3878 C 392.924 -1.31031 -1.6012 0
M  V30 3879 C 393.339 0.113558 -1.88458 0
M  V30 3880 O 392.696 1.06363 -1.48301 0
M  V30 3881 C 392.747 -2.10872 -2.93624 0
M  V30 3882 O 392.468 -3.47706 -2.66518 0
M  V30 3883 C 393.969 -2.14401 -3.88004 0
M  V30 3884 H 391.189 -0.45037 -0.497401 0
M  V30 3885 H 393.733 -1.77775 -1.01076 0
M  V30 3886 H 391.888 -1.67744 -3.492 0
M  V30 3887 H 392.302 -3.89097 -3.51715 0
M  V30 3888 H 393.776 -2.74669 -4.78812 0
M  V30 3889 H 394.253 -1.14105 -4.24119 0
M  V30 3890 H 394.859 -2.57662 -3.38364 0
M  V30 3891 N 393.175 1.03435 -1.18907 0
M  V30 3892 C 394.108 2.11162 -0.86521 0
M  V30 3893 C 395.086 1.6165 0.175473 0
M  V30 3894 O 396.27 1.88425 0.0530129 0
M  V30 3895 C 393.397 3.37423 -0.293868 0
M  V30 3896 C 392.443 4.05795 -1.31274 0
M  V30 3897 S 393.276 4.52027 -2.8711 0
M  V30 3898 C 394.432 5.81513 -2.31504 0
M  V30 3899 H 394.665 2.38308 -1.77754 0
M  V30 3900 H 392.198 1.16295 -1.01562 0
M  V30 3901 H 394.156 4.1049 0.0292572 0
M  V30 3902 H 392.817 3.0838 0.596682 0
M  V30 3903 H 392.01 4.96574 -0.86198 0
M  V30 3904 H 391.612 3.38874 -1.58242 0
M  V30 3905 H 393.904 6.55784 -1.70157 0
M  V30 3906 H 394.847 6.3136 -3.20608 0
M  V30 3907 H 395.255 5.36921 -1.74286 0
M  V30 3908 N 394.653 0.992116 1.22453 0
M  V30 3909 C 395.899 0.668523 1.91464 0
M  V30 3910 C 396.232 -0.797313 1.77078 0
M  V30 3911 O 395.507 -1.5765 1.13916 0
M  V30 3912 C 395.79 1.07424 3.43703 0
M  V30 3913 C 395.643 2.59857 3.67143 0
M  V30 3914 C 396.962 0.626891 4.35612 0
M  V30 3915 H 394.081 0.244341 0.695318 0
M  V30 3916 H 396.723 1.2355 1.44345 0
M  V30 3917 H 394.873 0.591816 3.83966 0
M  V30 3918 H 396.545 3.15764 3.3629 0
M  V30 3919 H 394.788 3.01961 3.11451 0
M  V30 3920 H 395.459 2.83296 4.73759 0
M  V30 3921 H 397.935 1.04125 4.02861 0
M  V30 3922 H 396.811 0.939076 5.40807 0
M  V30 3923 H 397.072 -0.472457 4.39568 0
M  V30 3924 N 396.131 -1.37776 0.765217 0
M  V30 3925 C 397.061 -2.32945 0.160953 0
M  V30 3926 C 398.042 -1.55454 -0.690516 0
M  V30 3927 O 399.227 -1.83721 -0.629318 0
M  V30 3928 C 396.357 -3.39669 -0.724031 0
M  V30 3929 C 395.311 -4.27992 0.0256173 0
M  V30 3930 C 394.637 -5.25673 -0.978383 0
M  V30 3931 C 395.937 -5.08309 1.20082 0
M  V30 3932 H 397.631 -2.83728 0.955969 0
M  V30 3933 H 395.177 -1.36416 0.461149 0
M  V30 3934 H 397.13 -4.05219 -1.15652 0
M  V30 3935 H 395.854 -2.87396 -1.5515 0
M  V30 3936 H 394.513 -3.63964 0.438812 0
M  V30 3937 H 394.161 -4.69682 -1.80022 0
M  V30 3938 H 393.861 -5.85625 -0.481378 0
M  V30 3939 H 395.385 -5.94098 -1.40995 0
M  V30 3940 H 396.799 -5.67034 0.845307 0
M  V30 3941 H 395.196 -5.77554 1.62947 0
M  V30 3942 H 396.266 -4.41365 2.00811 0
M  V30 3943 N 397.609 -0.515225 -1.4894 0
M  V30 3944 C 398.855 0.0242508 -2.02785 0
M  V30 3945 C 399.188 1.35323 -1.39289 0
M  V30 3946 O 398.463 1.87041 -0.533469 0
M  V30 3947 C 398.746 0.16184 -3.59736 0
M  V30 3948 C 398.599 -1.19127 -4.33738 0
M  V30 3949 C 399.918 0.895719 -4.30888 0
M  V30 3950 H 397.037 0.00733914 -0.736963 0
M  V30 3951 H 399.679 -0.669395 -1.77818 0
M  V30 3952 H 397.829 0.752624 -3.8114 0
M  V30 3953 H 399.501 -1.82202 -4.23792 0
M  V30 3954 H 397.744 -1.77695 -3.95736 0
M  V30 3955 H 398.415 -1.04815 -5.41957 0
M  V30 3956 H 400.891 0.394528 -4.14225 0
M  V30 3957 H 399.767 0.960859 -5.40425 0
M  V30 3958 H 400.028 1.9427 -3.97129 0
M  V30 3959 N 399.087 1.5561 -0.249682 0
M  V30 3960 C 400.312 2.03865 0.381305 0
M  V30 3961 C 400.737 1.12769 1.50548 0
M  V30 3962 O 400.095 0.121189 1.80895 0
M  V30 3963 C 400.143 3.50101 0.863816 0
M  V30 3964 O 399.247 3.62132 1.97318 0
M  V30 3965 H 398.588 0.658827 0.0827194 0
M  V30 3966 H 401.118 2.01105 -0.376552 0
M  V30 3967 H 401.128 3.90975 1.1663 0
M  V30 3968 H 399.803 4.1588 0.0411816 0
M  V30 3969 H 398.38 3.33155 1.67517 0
M  V30 3970 N 400.565 -0.0233959 1.57583 0
M  V30 3971 C 401.811 -0.708611 1.90657 0
M  V30 3972 C 402.166 -1.7266 0.848895 0
M  V30 3973 O 401.459 -1.91075 -0.141749 0
M  V30 3974 C 401.653 -1.41428 3.28227 0
M  V30 3975 C 401.482 -0.466155 4.47277 0
M  V30 3976 C 400.252 -0.085117 5.05228 0
M  V30 3977 C 402.45 0.257836 5.13653 0
M  V30 3978 N 400.432 0.863672 6.07794 0
M  V30 3979 C 401.803 1.06209 6.10835 0
M  V30 3980 C 403.858 0.324174 4.96844 0
M  V30 3981 C 402.561 1.9266 6.93018 0
M  V30 3982 C 404.587 1.17583 5.79593 0
M  V30 3983 C 403.949 1.96799 6.7635 0
M  V30 3984 H 400.048 -0.233222 0.746412 0
M  V30 3985 H 402.632 0.0314512 1.94675 0
M  V30 3986 H 400.803 -2.12477 3.25128 0
M  V30 3987 H 402.535 -2.05233 3.488 0
M  V30 3988 H 399.29 -0.448516 4.71471 0
M  V30 3989 H 399.714 1.33274 6.63752 0
M  V30 3990 H 404.356 -0.273975 4.21911 0
M  V30 3991 H 402.074 2.53552 7.67292 0
M  V30 3992 H 405.66 1.23076 5.68633 0
M  V30 3993 H 404.54 2.61635 7.39268 0
M  V30 3994 N 402.043 -1.548 -0.295768 0
M  V30 3995 C 403.292 -1.73538 -1.02798 0
M  V30 3996 C 403.605 -0.531159 -1.8825 0
M  V30 3997 O 404.811 -0.600458 -2.64777 0
M  V30 3998 C 403.267 -3.07051 -1.87744 0
M  V30 3999 C 402.875 -4.34968 -1.07269 0
M  V30 4000 C 404.619 -3.35146 -2.60533 0
M  V30 4001 C 402.526 -5.5953 -1.91521 0
M  V30 4002 H 401.456 -0.646794 -0.387522 0
M  V30 4003 H 404.107 -1.81278 -0.284718 0
M  V30 4004 H 402.489 -2.93289 -2.66078 0
M  V30 4005 H 403.663 -4.5958 -0.335117 0
M  V30 4006 H 401.978 -4.13847 -0.460384 0
M  V30 4007 H 404.575 -4.2541 -3.23929 0
M  V30 4008 H 404.918 -2.54255 -3.29636 0
M  V30 4009 H 405.451 -3.49902 -1.89244 0
M  V30 4010 H 402.19 -6.43103 -1.26878 0
M  V30 4011 H 401.71 -5.39096 -2.62937 0
M  V30 4012 H 403.389 -5.96982 -2.49442 0
M  V30 4013 N 403.521 0.559213 -1.47345 0
M  V30 4014 C 404.454 1.68201 -1.5422 0
M  V30 4015 C 405.432 1.57742 -0.394497 0
M  V30 4016 O 406.616 1.78628 -0.60201 0
M  V30 4017 C 403.743 3.0643 -1.44285 0
M  V30 4018 C 402.789 3.3534 -2.63532 0
M  V30 4019 S 403.622 3.24816 -4.25741 0
M  V30 4020 C 404.778 4.65542 -4.18355 0
M  V30 4021 H 405.011 1.62114 -2.49211 0
M  V30 4022 H 402.544 0.739871 -1.35519 0
M  V30 4023 H 404.502 3.86164 -1.3924 0
M  V30 4024 H 403.163 3.09984 -0.506816 0
M  V30 4025 H 402.356 4.36107 -2.52639 0
M  V30 4026 H 401.958 2.63221 -2.65689 0
M  V30 4027 H 404.25 5.56449 -3.86485 0
M  V30 4028 H 405.193 4.81493 -5.19202 0
M  V30 4029 H 405.601 4.43495 -3.49246 0
M  V30 4030 N 404.999 1.35443 0.805782 0
M  V30 4031 C 406.245 1.2996 1.56467 0
M  V30 4032 C 406.6 -0.124742 1.91995 0
M  V30 4033 O 405.893 -1.07533 1.58579 0
M  V30 4034 C 406.087 2.14045 2.86216 0
M  V30 4035 C 405.916 3.64512 2.63365 0
M  V30 4036 C 404.686 4.33744 2.59219 0
M  V30 4037 C 406.884 4.58142 2.33688 0
M  V30 4038 N 404.866 5.69953 2.28094 0
M  V30 4039 C 406.237 5.8248 2.12408 0
M  V30 4040 C 408.292 4.46877 2.19558 0
M  V30 4041 C 406.995 6.96818 1.78429 0
M  V30 4042 C 409.021 5.61065 1.86976 0
M  V30 4043 C 408.383 6.84431 1.66532 0
M  V30 4044 H 404.482 0.530817 0.574245 0
M  V30 4045 H 407.066 1.70333 0.943126 0
M  V30 4046 H 405.237 1.75942 3.46264 0
M  V30 4047 H 406.969 2.00075 3.51784 0
M  V30 4048 H 403.724 3.86365 2.73896 0
M  V30 4049 H 404.148 6.41845 2.15323 0
M  V30 4050 H 408.79 3.52102 2.34061 0
M  V30 4051 H 406.508 7.91559 1.62664 0
M  V30 4052 H 410.094 5.54302 1.7675 0
M  V30 4053 H 408.974 7.71294 1.41688 0
M  V30 4054 N 406.477 -1.02803 1.19454 0
M  V30 4055 C 407.707 -1.79581 1.02149 0
M  V30 4056 C 408.115 -1.84182 -0.432851 0
M  V30 4057 O 407.458 -1.28534 -1.31243 0
M  V30 4058 C 407.52 -3.25993 1.51554 0
M  V30 4059 C 407.184 -3.45025 2.99678 0
M  V30 4060 C 408.181 -3.35175 3.97434 0
M  V30 4061 C 405.866 -3.71212 3.38389 0
M  V30 4062 C 407.86 -3.51238 5.31893 0
M  V30 4063 C 405.547 -3.8692 4.73008 0
M  V30 4064 C 406.545 -3.76936 5.69569 0
M  V30 4065 O 406.233 -3.92179 7.01748 0
M  V30 4066 H 405.965 -0.571962 0.360327 0
M  V30 4067 H 408.519 -1.30367 1.58725 0
M  V30 4068 H 406.749 -3.76235 0.893543 0
M  V30 4069 H 408.438 -3.84368 1.30444 0
M  V30 4070 H 409.204 -3.14895 3.68872 0
M  V30 4071 H 405.083 -3.78075 2.6378 0
M  V30 4072 H 408.627 -3.43362 6.07247 0
M  V30 4073 H 404.524 -4.06699 5.01265 0
M  V30 4074 H 405.292 -4.09265 7.08833 0
M  V30 4075 N 407.956 -0.998596 -1.21925 0
M  V30 4076 C 408.919 -0.558679 -2.22287 0
M  V30 4077 C 409.919 0.361525 -1.56683 0
M  V30 4078 O 411.109 0.152695 -1.73529 0
M  V30 4079 C 408.241 0.18661 -3.40389 0
M  V30 4080 H 409.434 -1.4463 -2.62721 0
M  V30 4081 H 406.987 -0.786413 -1.35075 0
M  V30 4082 H 407.722 1.08996 -3.05435 0
M  V30 4083 H 407.507 -0.474188 -3.89222 0
M  V30 4084 H 408.997 0.482367 -4.14805 0
M  V30 4085 N 409.434 1.37368 -0.772513 0
M  V30 4086 C 410.845 1.8231 -0.402493 0
M  V30 4087 C 411.196 1.6436 1.07146 0
M  V30 4088 O 410.321 1.15514 1.82991 0
M  V30 4089 C 410.916 3.30979 -0.723776 0
M  V30 4090 C 409.475 3.74195 -0.406802 0
M  V30 4091 C 408.622 2.59885 -0.967218 0
M  V30 4092 H 411.573 1.25829 -0.967099 0
M  V30 4093 H 411.594 3.80499 -0.00870832 0
M  V30 4094 H 411.106 3.44011 -1.7966 0
M  V30 4095 H 409.207 3.66732 0.658673 0
M  V30 4096 H 409.32 4.7027 -0.915588 0
M  V30 4097 H 407.684 2.51674 -0.391416 0
M  V30 4098 H 408.467 2.7571 -2.04546 0
M  V30 4099 N 410.912 0.523116 1.48665 0
M  V30 4100 C 412.158 -0.0134963 2.02796 0
M  V30 4101 C 412.491 -1.34582 1.40004 0
M  V30 4102 O 411.766 -1.86756 0.543381 0
M  V30 4103 C 412.049 -0.14276 3.59817 0
M  V30 4104 C 411.902 1.21425 4.331 0
M  V30 4105 C 413.221 -0.872856 4.31357 0
M  V30 4106 H 410.34 -0.00343074 0.736992 0
M  V30 4107 H 412.982 0.678816 1.7746 0
M  V30 4108 H 411.132 -0.732401 3.81534 0
M  V30 4109 H 412.804 1.84447 4.2282 0
M  V30 4110 H 411.047 1.79791 3.94788 0
M  V30 4111 H 411.718 1.07687 5.41394 0
M  V30 4112 H 414.194 -0.372555 4.14429 0
M  V30 4113 H 413.07 -0.932185 5.40927 0
M  V30 4114 H 413.331 -1.92161 3.98154 0
M  V30 4115 N 412.39 -1.55475 0.257931 0
M  V30 4116 C 413.638 -1.98813 -0.363009 0
M  V30 4117 C 413.959 -1.14757 -1.57657 0
M  V30 4118 O 413.229 -0.232956 -1.9451 0
M  V30 4119 H 411.809 -0.734308 -0.137113 0
M  V30 4120 H 414.471 -1.9156 0.359281 0
M  V30 4121 H 413.567 -3.04941 -0.664634 0
M  V30 4122 N 413.868 0.0150385 -1.57593 0
M  V30 4123 C 415.117 0.702115 -1.89085 0
M  V30 4124 C 415.43 1.75764 -0.858277 0
M  V30 4125 O 416.636 2.49829 -1.0629 0
M  V30 4126 C 415.092 1.29992 -3.35604 0
M  V30 4127 C 414.7 0.280007 -4.47124 0
M  V30 4128 C 416.444 1.96606 -3.76227 0
M  V30 4129 C 414.351 0.886949 -5.84711 0
M  V30 4130 H 413.281 0.265997 -0.705522 0
M  V30 4131 H 415.932 -0.0430408 -1.8345 0
M  V30 4132 H 414.314 2.09525 -3.36029 0
M  V30 4133 H 415.488 -0.489631 -4.58191 0
M  V30 4134 H 413.803 -0.284835 -4.15425 0
M  V30 4135 H 416.4 2.42893 -4.76347 0
M  V30 4136 H 416.743 2.79024 -3.08952 0
M  V30 4137 H 417.276 1.23828 -3.78036 0
M  V30 4138 H 414.015 0.101876 -6.55421 0
M  V30 4139 H 413.535 1.6261 -5.77337 0
M  V30 4140 H 415.214 1.39011 -6.3189 0
M  V30 4141 N 415.346 1.54954 0.287554 0
M  V30 4142 C 416.279 1.81737 1.3801 0
M  V30 4143 C 417.257 0.669412 1.48181 0
M  V30 4144 O 418.441 0.910839 1.65033 0
M  V30 4145 C 415.568 1.96606 2.75796 0
M  V30 4146 C 414.614 3.19098 2.82982 0
M  V30 4147 S 415.447 4.7683 2.43707 0
M  V30 4148 C 416.603 4.94653 3.83496 0
M  V30 4149 H 416.836 2.74122 1.15085 0
M  V30 4150 H 414.369 1.46538 0.486403 0
M  V30 4151 H 416.327 2.05858 3.55152 0
M  V30 4152 H 414.988 1.05136 2.95982 0
M  V30 4153 H 414.181 3.26344 3.84077 0
M  V30 4154 H 413.783 3.08361 2.11635 0
M  V30 4155 H 416.075 4.79502 4.78628 0
M  V30 4156 H 417.018 5.96728 3.8121 0
M  V30 4157 H 417.426 4.2272 3.74123 0
M  V30 4158 N 416.824 -0.551391 1.4764 0
M  V30 4159 C 418.071 -1.3083 1.54563 0
M  V30 4160 C 418.399 -1.93359 0.210361 0
M  V30 4161 O 417.654 -1.78721 -0.797332 0
M  V30 4162 C 417.953 -2.43469 2.61644 0
M  V30 4163 C 417.619 -1.98732 4.04742 0
M  V30 4164 C 416.281 -1.86248 4.43695 0
M  V30 4165 C 418.633 -1.64659 4.94507 0
M  V30 4166 C 415.961 -1.37995 5.70241 0
M  V30 4167 C 418.313 -1.17875 6.21521 0
M  V30 4168 C 416.977 -1.03992 6.5935 0
M  V30 4169 H 416.247 -0.478741 0.565587 0
M  V30 4170 H 418.894 -0.617697 1.81264 0
M  V30 4171 H 417.199 -3.18109 2.28722 0
M  V30 4172 H 418.896 -3.01642 2.64222 0
M  V30 4173 H 415.486 -2.09393 3.73968 0
M  V30 4174 H 419.67 -1.73174 4.65107 0
M  V30 4175 H 414.926 -1.25915 5.98294 0
M  V30 4176 H 419.1 -0.905739 6.90485 0
M  V30 4177 H 416.727 -0.663794 7.57296 0
M  V30 4178 N 418.302 -1.35869 -0.798587 0
M  V30 4179 C 419.232 -1.32118 -1.92528 0
M  V30 4180 C 420.213 -0.194209 -1.68988 0
M  V30 4181 O 421.398 -0.390426 -1.90235 0
M  V30 4182 C 418.528 -1.10047 -3.29404 0
M  V30 4183 C 417.482 -2.19471 -3.67446 0
M  V30 4184 C 416.808 -1.82555 -5.02571 0
M  V30 4185 C 418.108 -3.61495 -3.76987 0
M  V30 4186 H 419.802 -2.26394 -1.95924 0
M  V30 4187 H 417.348 -1.08981 -0.94123 0
M  V30 4188 H 419.301 -1.06061 -4.07835 0
M  V30 4189 H 418.025 -0.122195 -3.26371 0
M  V30 4190 H 416.684 -2.22568 -2.91306 0
M  V30 4191 H 416.332 -0.833249 -4.9605 0
M  V30 4192 H 416.032 -2.5581 -5.28995 0
M  V30 4193 H 417.556 -1.80108 -5.83432 0
M  V30 4194 H 418.97 -3.60676 -4.4563 0
M  V30 4195 H 417.367 -4.33577 -4.14887 0
M  V30 4196 H 418.437 -3.97065 -2.78329 0
M  V30 4197 N 419.78 1.02168 -1.19998 0
M  V30 4198 C 421.026 1.75945 -1.00852 0
M  V30 4199 C 421.359 1.88702 0.458828 0
M  V30 4200 O 420.634 1.40911 1.34069 0
M  V30 4201 C 420.917 3.18154 -1.68671 0
M  V30 4202 C 420.77 3.13224 -3.22817 0
M  V30 4203 C 422.089 4.16711 -1.41561 0
M  V30 4204 H 419.208 0.638673 -0.367785 0
M  V30 4205 H 421.85 1.19222 -1.4794 0
M  V30 4206 H 420 3.66586 -1.28636 0
M  V30 4207 H 421.672 2.72635 -3.72112 0
M  V30 4208 H 419.915 2.50751 -3.53986 0
M  V30 4209 H 420.586 4.13728 -3.65422 0
M  V30 4210 H 423.062 3.76913 -1.76284 0
M  V30 4211 H 421.938 5.14391 -1.91553 0
M  V30 4212 H 422.199 4.40774 -0.342193 0
M  V30 4213 N 421.258 1.00505 1.21394 0
M  V30 4214 C 422.221 0.570459 2.21987 0
M  V30 4215 C 423.221 -0.353211 1.56873 0
M  V30 4216 O 424.411 -0.14349 1.73608 0
M  V30 4217 C 421.543 -0.168555 3.40483 0
M  V30 4218 H 422.736 1.46021 2.6195 0
M  V30 4219 H 420.289 0.793565 1.34656 0
M  V30 4220 H 421.024 -1.07374 3.06009 0
M  V30 4221 H 420.809 0.494823 3.88965 0
M  V30 4222 H 422.299 -0.460362 4.15055 0
M  V30 4223 N 422.737 -1.36956 0.779787 0
M  V30 4224 C 423.985 -1.99097 0.347079 0
M  V30 4225 C 424.306 -1.62206 -1.08232 0
M  V30 4226 O 423.576 -0.891373 -1.74446 0
M  V30 4227 H 422.156 -0.736409 0.125342 0
M  V30 4228 H 424.818 -1.67308 0.999696 0
M  V30 4229 H 423.914 -3.09107 0.431162 0
M  V30 4230 N 424.215 -0.530993 -1.48385 0
M  V30 4231 C 425.162 0.231223 -2.29639 0
M  V30 4232 C 426.132 0.932864 -1.37429 0
M  V30 4233 O 427.317 0.933692 -1.66394 0
M  V30 4234 C 424.457 1.27155 -3.2082 0
M  V30 4235 C 423.57 0.578655 -4.28107 0
M  V30 4236 C 422.705 1.602 -5.06467 0
M  V30 4237 C 421.744 0.892625 -6.05556 0
M  V30 4238 N 420.881 1.86157 -6.76971 0
M  V30 4239 H 425.721 -0.467848 -2.94305 0
M  V30 4240 H 423.258 -0.242556 -1.45086 0
M  V30 4241 H 425.216 1.88703 -3.72085 0
M  V30 4242 H 423.846 1.939 -2.58075 0
M  V30 4243 H 422.898 -0.150782 -3.80101 0
M  V30 4244 H 424.21 0.0217065 -4.98795 0
M  V30 4245 H 423.364 2.29173 -5.61751 0
M  V30 4246 H 422.103 2.19285 -4.35621 0
M  V30 4247 H 421.108 0.188829 -5.49476 0
M  V30 4248 H 422.333 0.307878 -6.78402 0
M  V30 4249 H 420.279 2.44147 -6.08875 0
M  V30 4250 H 420.196 1.35608 -7.43738 0
M  V30 4251 H 421.464 2.54325 -7.36844 0
M  V30 4252 N 425.693 1.55336 -0.266172 0
M  V30 4253 C 426.942 1.98574 0.353749 0
M  V30 4254 C 427.255 1.15789 1.57646 0
M  V30 4255 O 428.461 1.49129 2.26876 0
M  V30 4256 C 426.917 3.53403 0.680747 0
M  V30 4257 C 426.525 4.44953 -0.52165 0
M  V30 4258 C 428.269 4.05251 1.26379 0
M  V30 4259 C 426.176 5.91156 -0.169736 0
M  V30 4260 H 425.106 0.741643 0.135949 0
M  V30 4261 H 427.757 1.79743 -0.369421 0
M  V30 4262 H 426.139 3.68001 1.46257 0
M  V30 4263 H 427.313 4.42121 -1.29869 0
M  V30 4264 H 425.628 4.03691 -1.02093 0
M  V30 4265 H 428.225 5.12021 1.54074 0
M  V30 4266 H 428.568 3.53749 2.19471 0
M  V30 4267 H 429.101 3.94057 0.544447 0
M  V30 4268 H 425.84 6.46736 -1.0683 0
M  V30 4269 H 425.36 5.97079 0.570717 0
M  V30 4270 H 427.039 6.4655 0.241245 0
M  V30 4271 N 427.171 -0.0066808 1.57599 0
M  V30 4272 C 428.417 -0.693947 1.90558 0
M  V30 4273 C 428.75 -1.73792 0.866594 0
M  V30 4274 O 428.025 -1.94156 -0.115548 0
M  V30 4275 C 428.308 -1.34317 3.34112 0
M  V30 4276 C 428.161 -0.311189 4.48722 0
M  V30 4277 C 429.48 -2.27116 3.7697 0
M  V30 4278 H 426.599 -0.250803 0.693013 0
M  V30 4279 H 429.241 0.043242 1.89951 0
M  V30 4280 H 427.391 -1.9715 3.3476 0
M  V30 4281 H 429.063 0.316944 4.6021 0
M  V30 4282 H 427.306 0.367253 4.32243 0
M  V30 4283 H 427.977 -0.804366 5.46108 0
M  V30 4284 H 430.453 -1.74306 3.77831 0
M  V30 4285 H 429.329 -2.69511 4.78179 0
M  V30 4286 H 429.59 -3.14743 3.10466 0
M  V30 4287 N 428.649 -1.55105 -0.279332 0
M  V30 4288 C 429.559 -1.90638 -1.36727 0
M  V30 4289 C 430.575 -0.802899 -1.54368 0
M  V30 4290 O 431.751 -1.10138 -1.68616 0
M  V30 4291 C 428.816 -2.16547 -2.70755 0
M  V30 4292 C 427.877 -3.40146 -2.61915 0
M  V30 4293 C 427.11 -3.6481 -3.8955 0
M  V30 4294 O 427.333 -2.92095 -4.89935 0
M  V30 4295 O 426.267 -4.58343 -3.90135 0
M  V30 4296 H 430.093 -2.83237 -1.09591 0
M  V30 4297 H 427.678 -1.4157 -0.477306 0
M  V30 4298 H 429.56 -2.34665 -3.50014 0
M  V30 4299 H 428.235 -1.27131 -2.9769 0
M  V30 4300 H 427.142 -3.2737 -1.81052 0
M  V30 4301 H 428.475 -4.29761 -2.3993 0
M  V30 4302 N 430.127 0.543554 -1.4793 0
M  V30 4303 C 431.06 1.66556 -1.55995 0
M  V30 4304 C 432.038 1.57315 -0.411205 0
M  V30 4305 O 433.222 1.7798 -0.620922 0
M  V30 4306 C 430.349 3.04883 -1.47527 0
M  V30 4307 C 429.395 3.32526 -2.67074 0
M  V30 4308 S 430.228 3.20282 -4.29162 0
M  V30 4309 C 431.384 4.61079 -4.23269 0
M  V30 4310 H 431.617 1.59462 -2.50917 0
M  V30 4311 H 429.15 0.725456 -1.36296 0
M  V30 4312 H 431.108 3.84665 -1.43328 0
M  V30 4313 H 429.769 3.09429 -0.539665 0
M  V30 4314 H 428.962 4.33403 -2.5725 0
M  V30 4315 H 428.564 2.60389 -2.68466 0
M  V30 4316 H 430.856 5.52318 -3.92365 0
M  V30 4317 H 431.799 4.75959 -5.24279 0
M  V30 4318 H 432.207 4.39766 -3.5393 0
M  V30 4319 N 431.605 1.3629 0.791371 0
M  V30 4320 C 432.515 1.32606 1.93527 0
M  V30 4321 C 433.531 0.228541 1.72493 0
M  V30 4322 O 434.707 0.460571 1.96063 0
M  V30 4323 C 431.772 1.11271 3.28359 0
M  V30 4324 C 430.833 2.3048 3.62185 0
M  V30 4325 C 430.066 2.10154 4.90583 0
M  V30 4326 O 430.289 1.07572 5.60165 0
M  V30 4327 O 429.223 2.97884 5.23019 0
M  V30 4328 H 433.049 2.28909 1.99585 0
M  V30 4329 H 430.634 1.16818 0.931344 0
M  V30 4330 H 432.516 1.01283 4.09047 0
M  V30 4331 H 431.191 0.180292 3.23198 0
M  V30 4332 H 430.098 2.46036 2.81811 0
M  V30 4333 H 431.431 3.22221 3.72068 0
M  V30 4334 N 433.083 -1.0153 1.20538 0
M  V30 4335 C 434.36 -1.72327 0.925343 0
M  V30 4336 C 434.74 -2.03383 -0.565547 0
M  V30 4337 O 434.088 -1.69934 -1.52757 0
M  V30 4338 C 434.298 -2.9902 1.79967 0
M  V30 4339 C 435.646 -3.72258 2.04228 0
M  V30 4340 O 436.67 -3.08979 1.77231 0
M  V30 4341 O 435.529 -4.86053 2.4983 0
M  V30 4342 H 432.623 -0.751099 0.346092 0
M  V30 4343 H 435.169 -1.07366 1.31417 0
M  V30 4344 H 433.941 -2.72402 2.80915 0
M  V30 4345 H 433.564 -3.71721 1.41099 0
M  V30 4346 N 434.561 -1.01147 -1.20859 0
M  V30 4347 C 435.807 -0.698899 -1.90377 0
M  V30 4348 C 436.14 0.76904 -1.78324 0
M  V30 4349 O 435.415 1.55817 -1.16409 0
M  V30 4350 C 435.698 -1.12878 -3.41951 0
M  V30 4351 C 435.551 -2.65665 -3.62963 0
M  V30 4352 C 436.87 -0.696114 -4.3456 0
M  V30 4353 H 433.989 -0.255372 -0.691342 0
M  V30 4354 H 436.631 -1.25831 -1.42361 0
M  V30 4355 H 434.781 -0.652827 -3.82976 0
M  V30 4356 H 436.453 -3.21074 -3.31224 0
M  V30 4357 H 434.696 -3.06878 -3.06608 0
M  V30 4358 H 435.367 -2.90797 -4.69192 0
M  V30 4359 H 437.843 -1.10521 -4.01154 0
M  V30 4360 H 436.719 -1.025 -5.39245 0
M  V30 4361 H 436.98 0.402465 -4.40264 0
M  V30 4362 N 436.039 1.36541 -0.78704 0
M  V30 4363 C 437.287 1.98911 -0.357633 0
M  V30 4364 C 437.608 1.62778 1.07371 0
M  V30 4365 O 436.878 0.900612 1.73971 0
M  V30 4366 H 435.458 0.735734 -0.129246 0
M  V30 4367 H 438.12 1.66776 -1.00855 0
M  V30 4368 H 437.216 3.08874 -0.447549 0
M  V30 4369 N 437.518 0.538854 1.48102 0
M  V30 4370 C 438.448 -0.207654 2.32575 0
M  V30 4371 C 439.429 -0.926559 1.4265 0
M  V30 4372 O 440.614 -0.91061 1.71527 0
M  V30 4373 C 437.744 -1.24957 3.24042 0
M  V30 4374 C 436.698 -0.648263 4.23062 0
M  V30 4375 C 436.024 -1.79348 5.03725 0
M  V30 4376 C 437.324 0.385897 5.20872 0
M  V30 4377 H 439.018 0.497534 2.95237 0
M  V30 4378 H 436.564 0.240715 1.41974 0
M  V30 4379 H 438.517 -1.77983 3.81969 0
M  V30 4380 H 437.241 -1.98446 2.59397 0
M  V30 4381 H 435.9 -0.139452 3.66335 0
M  V30 4382 H 435.548 -2.51696 4.35498 0
M  V30 4383 H 435.248 -1.39702 5.70751 0
M  V30 4384 H 436.772 -2.32735 5.64506 0
M  V30 4385 H 438.186 -0.057607 5.73271 0
M  V30 4386 H 436.583 0.700227 5.96001 0
M  V30 4387 H 437.653 1.28848 4.67468 0
M  V30 4388 N 438.996 -1.55193 0.274407 0
M  V30 4389 C 439.926 -2.25471 -0.607032 0
M  V30 4390 C 440.907 -1.24461 -1.15946 0
M  V30 4391 O 442.092 -1.53179 -1.19373 0
M  V30 4392 C 439.222 -2.97526 -1.79153 0
M  V30 4393 C 438.176 -4.05459 -1.37067 0
M  V30 4394 C 437.502 -4.65084 -2.6382 0
M  V30 4395 C 438.802 -5.19691 -0.521389 0
M  V30 4396 H 440.496 -2.99393 -0.0209343 0
M  V30 4397 H 438.042 -1.43997 -0.00862866 0
M  V30 4398 H 439.995 -3.45402 -2.41404 0
M  V30 4399 H 438.719 -2.21138 -2.40344 0
M  V30 4400 H 437.378 -3.58393 -0.771355 0
M  V30 4401 H 437.026 -3.85365 -3.23268 0
M  V30 4402 H 436.726 -5.37961 -2.36372 0
M  V30 4403 H 438.25 -5.15708 -3.26921 0
M  V30 4404 H 439.664 -5.63623 -1.04889 0
M  V30 4405 H 438.061 -5.99126 -0.341825 0
M  V30 4406 H 439.131 -4.82713 0.46 0
M  V30 4407 N 440.474 -0.00167713 -1.576 0
M  V30 4408 C 441.721 0.68282 -1.90641 0
M  V30 4409 C 442.049 1.73686 -0.875415 0
M  V30 4410 O 441.304 1.95334 0.119575 0
M  V30 4411 C 441.603 1.36189 -3.30435 0
M  V30 4412 C 441.269 0.440887 -4.48739 0
M  V30 4413 C 439.931 0.187312 -4.80835 0
M  V30 4414 C 442.283 -0.193134 -5.20842 0
M  V30 4415 C 439.611 -0.70855 -5.82406 0
M  V30 4416 C 441.963 -1.07688 -6.23367 0
M  V30 4417 C 440.627 -1.33962 -6.53919 0
M  V30 4418 H 439.897 0.249862 -0.697603 0
M  V30 4419 H 442.544 -0.0575642 -1.91413 0
M  V30 4420 H 440.849 2.17636 -3.25794 0
M  V30 4421 H 442.546 1.89759 -3.5326 0
M  V30 4422 H 439.136 0.648694 -4.23663 0
M  V30 4423 H 443.32 -0.0102445 -4.96299 0
M  V30 4424 H 438.576 -0.920097 -6.04437 0
M  V30 4425 H 442.75 -1.57451 -6.78367 0
M  V30 4426 H 440.377 -2.03549 -7.32442 0
M  V30 4427 N 441.952 1.55251 0.271103 0
M  V30 4428 C 442.915 1.87484 1.31842 0
M  V30 4429 C 443.915 0.749545 1.42262 0
M  V30 4430 O 445.105 1.01771 1.4138 0
M  V30 4431 C 442.237 2.0818 2.69951 0
M  V30 4432 H 443.43 2.81108 1.0449 0
M  V30 4433 H 440.983 1.47771 0.509258 0
M  V30 4434 H 441.718 1.16944 3.02481 0
M  V30 4435 H 441.503 2.90114 2.63774 0
M  V30 4436 H 442.993 2.34385 3.4562 0
M  V30 4437 N 443.43 -0.535701 1.48216 0
M  V30 4438 C 444.846 -0.863701 1.3421 0
M  V30 4439 C 445.046 -1.98458 0.34879 0
M  V30 4440 O 444.102 -2.51432 -0.23204 0
M  V30 4441 C 445.415 -1.23662 2.74095 0
M  V30 4442 C 446.963 -1.34683 2.82541 0
M  V30 4443 C 447.438 -1.75322 4.23115 0
M  V30 4444 N 448.929 -1.82434 4.2576 0
M  V30 4445 C 449.664 -2.15252 5.31464 0
M  V30 4446 N 449.16 -2.46533 6.47452 0
M  V30 4447 N 450.953 -2.16209 5.18855 0
M  V30 4448 H 443.104 0.203965 2.11418 0
M  V30 4449 H 445.367 0.0286033 0.947568 0
M  V30 4450 H 445.073 -0.486674 3.48316 0
M  V30 4451 H 444.947 -2.18805 3.07253 0
M  V30 4452 H 447.334 -2.08756 2.08579 0
M  V30 4453 H 447.415 -0.376756 2.5301 0
M  V30 4454 H 447.059 -1.01812 4.97591 0
M  V30 4455 H 446.989 -2.7337 4.50085 0
M  V30 4456 H 449.48 -1.6056 3.42095 0
M  V30 4457 H 449.793 -2.70662 7.23852 0
M  V30 4458 H 448.138 -2.44065 6.50736 0
M  V30 4459 H 451.329 -1.91224 4.2726 0
M  V30 4460 H 451.502 -2.41453 6.01335 0
M  V30 4461 N 444.908 -1.36708 -0.784132 0
M  V30 4462 C 445.838 -1.34153 -1.91116 0
M  V30 4463 C 446.819 -0.212121 -1.68772 0
M  V30 4464 O 448.004 -0.410581 -1.8981 0
M  V30 4465 C 445.134 -1.13535 -3.28218 0
M  V30 4466 C 444.088 -2.23356 -3.65097 0
M  V30 4467 C 443.414 -1.87875 -5.00607 0
M  V30 4468 C 444.714 -3.65473 -3.73131 0
M  V30 4469 H 446.408 -2.28459 -1.93512 0
M  V30 4470 H 443.954 -1.09973 -0.929618 0
M  V30 4471 H 445.907 -1.10381 -4.06687 0
M  V30 4472 H 444.631 -0.156804 -3.26223 0
M  V30 4473 H 443.29 -2.25645 -2.88929 0
M  V30 4474 H 442.938 -0.885814 -4.95139 0
M  V30 4475 H 442.638 -2.61406 -5.26252 0
M  V30 4476 H 444.162 -1.86286 -5.81489 0
M  V30 4477 H 445.576 -3.65382 -4.41779 0
M  V30 4478 H 443.973 -4.37953 -4.10265 0
M  V30 4479 H 445.043 -3.99995 -2.74102 0
M  V30 4480 N 446.386 1.0089 -1.21074 0
M  V30 4481 C 447.634 1.74262 -1.02358 0
M  V30 4482 C 447.955 1.89869 0.444393 0
M  V30 4483 O 447.225 1.44677 1.32081 0
M  V30 4484 H 445.805 0.645615 -0.375754 0
M  V30 4485 H 448.467 1.21596 -1.52317 0
M  V30 4486 H 447.563 2.74328 -1.4883 0
M  V30 4487 N 447.864 1.01787 1.20321 0
M  V30 4488 C 448.811 0.589197 2.23153 0
M  V30 4489 C 449.781 -0.391367 1.61423 0
M  V30 4490 O 450.966 -0.290518 1.88575 0
M  V30 4491 C 448.106 -0.0650747 3.45039 0
M  V30 4492 C 447.219 0.960207 4.21194 0
M  V30 4493 C 446.354 0.276854 5.30478 0
M  V30 4494 C 445.393 1.2888 5.98378 0
M  V30 4495 N 444.53 0.632031 6.99249 0
M  V30 4496 H 449.37 1.47071 2.59179 0
M  V30 4497 H 446.907 0.736192 1.27352 0
M  V30 4498 H 448.865 -0.461552 4.14639 0
M  V30 4499 H 447.495 -0.910233 3.09701 0
M  V30 4500 H 446.547 1.47484 3.50646 0
M  V30 4501 H 447.859 1.72977 4.67847 0
M  V30 4502 H 447.013 -0.175056 6.06447 0
M  V30 4503 H 445.752 -0.525004 4.84866 0
M  V30 4504 H 444.757 1.75109 5.21169 0
M  V30 4505 H 445.982 2.09196 6.46076 0
M  V30 4506 H 443.928 -0.149935 6.55829 0
M  V30 4507 H 443.845 1.33964 7.44036 0
M  V30 4508 H 445.113 0.203755 7.79234 0
M  V30 4509 N 449.342 -1.36122 0.79427 0
M  V30 4510 C 450.572 -2.03067 0.380437 0
M  V30 4511 C 450.98 -1.60018 -1.00949 0
M  V30 4512 O 450.323 -0.787425 -1.65968 0
M  V30 4513 C 450.385 -3.57587 0.37034 0
M  V30 4514 C 450.049 -4.23855 1.70867 0
M  V30 4515 C 451.046 -4.46404 2.66496 0
M  V30 4516 C 448.731 -4.61229 1.9893 0
M  V30 4517 C 450.725 -5.05412 3.88378 0
M  V30 4518 C 448.412 -5.19953 3.21079 0
M  V30 4519 C 449.41 -5.41985 4.15621 0
M  V30 4520 O 449.098 -5.99475 5.35616 0
M  V30 4521 H 448.83 -0.658168 0.154243 0
M  V30 4522 H 451.384 -1.7498 1.0757 0
M  V30 4523 H 449.614 -3.84814 -0.381444 0
M  V30 4524 H 451.303 -4.05895 -0.0194894 0
M  V30 4525 H 452.069 -4.17921 2.46103 0
M  V30 4526 H 447.948 -4.43402 1.26158 0
M  V30 4527 H 451.492 -5.22524 4.62185 0
M  V30 4528 H 447.389 -5.47862 3.41347 0
M  V30 4529 H 448.157 -6.17937 5.36745 0
M  V30 4530 N 450.82 -0.546701 -1.47814 0
M  V30 4531 C 452.069 -0.0166497 -2.01693 0
M  V30 4532 C 452.382 1.33721 -1.42752 0
M  V30 4533 O 453.588 1.95658 -1.8823 0
M  V30 4534 C 452.044 0.0206769 -3.59894 0
M  V30 4535 C 451.652 -1.3293 -4.27824 0
M  V30 4536 C 453.396 0.498674 -4.21561 0
M  V30 4537 C 451.303 -1.25165 -5.78003 0
M  V30 4538 H 450.233 -0.0024541 -0.753996 0
M  V30 4539 H 452.884 -0.692984 -1.69912 0
M  V30 4540 H 451.266 0.76244 -3.88591 0
M  V30 4541 H 452.44 -2.08795 -4.10781 0
M  V30 4542 H 450.755 -1.74438 -3.78101 0
M  V30 4543 H 453.352 0.575 -5.31599 0
M  V30 4544 H 453.695 1.5083 -3.88016 0
M  V30 4545 H 454.228 -0.18791 -3.97356 0
M  V30 4546 H 450.967 -2.23695 -6.1615 0
M  V30 4547 H 450.487 -0.53464 -5.97412 0
M  V30 4548 H 452.166 -0.949299 -6.39998 0
M  V30 4549 N 452.299 1.55045 -0.282633 0
M  V30 4550 C 453.229 2.2579 0.595066 0
M  V30 4551 C 454.21 1.25074 1.15284 0
M  V30 4552 O 455.395 1.5381 1.18559 0
M  V30 4553 C 452.525 2.98472 1.77572 0
M  V30 4554 C 451.479 4.0618 1.34914 0
M  V30 4555 C 450.805 4.66477 2.6135 0
M  V30 4556 C 452.105 5.1996 0.493821 0
M  V30 4557 H 453.799 2.994 0.00505653 0
M  V30 4558 H 451.345 1.44 0.000992001 0
M  V30 4559 H 453.298 3.46677 2.39568 0
M  V30 4560 H 452.022 2.2241 2.39168 0
M  V30 4561 H 450.681 3.58797 0.752338 0
M  V30 4562 H 450.329 3.87074 3.2122 0
M  V30 4563 H 450.029 5.39207 2.33516 0
M  V30 4564 H 451.553 5.17435 3.24181 0
M  V30 4565 H 452.967 5.64172 1.01898 0
M  V30 4566 H 451.364 5.99299 0.310047 0
M  V30 4567 H 452.434 4.82462 -0.485593 0
M  V30 4568 N 453.777 0.010035 1.57597 0
M  V30 4569 C 455.017 -0.677084 1.9286 0
M  V30 4570 C 455.381 -1.70377 0.885192 0
M  V30 4571 O 456.582 -2.44199 1.12339 0
M  V30 4572 C 454.853 -1.29452 3.33132 0
M  V30 4573 S 456.412 -2.00537 3.90295 0
M  V30 4574 H 453.23 -0.223409 0.674989 0
M  V30 4575 H 455.832 0.0691289 1.95378 0
M  V30 4576 H 454.536 -0.534593 4.06903 0
M  V30 4577 H 454.067 -2.07845 3.34012 0
M  V30 4578 H 456.082 -3.28168 3.72183 0
M  V30 4579 N 455.255 -1.55392 -0.262866 0
M  V30 4580 C 456.495 -1.78231 -1.00064 0
M  V30 4581 C 456.859 -0.576966 -1.83126 0
M  V30 4582 O 458.06 -0.683809 -2.59957 0
M  V30 4583 C 456.331 -3.05701 -1.85153 0
M  V30 4584 S 457.89 -3.49699 -2.65058 0
M  V30 4585 H 454.708 -0.626138 -0.336856 0
M  V30 4586 H 457.31 -1.93626 -0.27005 0
M  V30 4587 H 456.014 -3.91511 -1.23074 0
M  V30 4588 H 455.545 -2.93 -2.62515 0
M  V30 4589 H 457.56 -3.09772 -3.87629 0
M  V30 4590 N 456.733 0.527833 -1.48498 0
M  V30 4591 C 457.663 1.64136 -1.66077 0
M  V30 4592 C 458.644 1.62286 -0.509625 0
M  V30 4593 O 459.829 1.79449 -0.742413 0
M  V30 4594 C 456.959 3.02717 -1.70234 0
M  V30 4595 C 455.913 3.19426 -2.8487 0
M  V30 4596 C 455.239 4.5909 -2.74118 0
M  V30 4597 C 456.539 3.01993 -4.26142 0
M  V30 4598 H 458.233 1.4968 -2.593 0
M  V30 4599 H 455.779 0.718654 -1.24785 0
M  V30 4600 H 457.732 3.80491 -1.8112 0
M  V30 4601 H 456.456 3.18201 -0.735911 0
M  V30 4602 H 455.115 2.4407 -2.73542 0
M  V30 4603 H 454.763 4.71413 -1.7544 0
M  V30 4604 H 454.463 4.71214 -3.51042 0
M  V30 4605 H 455.987 5.3896 -2.86974 0
M  V30 4606 H 457.401 3.69558 -4.38292 0
M  V30 4607 H 455.798 3.2561 -5.04082 0
M  V30 4608 H 456.868 1.98396 -4.42456 0
M  V30 4609 N 458.211 1.37122 0.776871 0
M  V30 4610 C 459.141 1.35164 1.90402 0
M  V30 4611 C 460.122 0.221069 1.68657 0
M  V30 4612 O 461.307 0.420642 1.8959 0
M  V30 4613 C 458.437 1.15274 3.27611 0
M  V30 4614 C 457.391 2.25289 3.63908 0
M  V30 4615 C 456.717 1.90527 4.99603 0
M  V30 4616 C 458.017 3.67446 3.71188 0
M  V30 4617 H 459.711 2.29482 1.92297 0
M  V30 4618 H 457.257 1.10465 0.923773 0
M  V30 4619 H 459.21 1.12536 4.06096 0
M  V30 4620 H 457.934 0.174102 3.26136 0
M  V30 4621 H 456.593 2.27174 2.87728 0
M  V30 4622 H 456.241 0.91206 4.94662 0
M  V30 4623 H 455.941 2.64193 5.24858 0
M  V30 4624 H 457.465 1.89367 5.80493 0
M  V30 4625 H 458.879 3.67719 4.39836 0
M  V30 4626 H 457.276 4.40123 4.07936 0
M  V30 4627 H 458.346 4.01443 2.71977 0
M  V30 4628 N 459.689 -1.00246 1.21608 0
M  V30 4629 C 460.937 -1.73717 1.0328 0
M  V30 4630 C 461.258 -1.90102 -0.434318 0
M  V30 4631 O 460.528 -1.45376 -1.31311 0
M  V30 4632 H 459.108 -0.643613 0.379172 0
M  V30 4633 H 461.77 -1.20787 1.52959 0
M  V30 4634 H 460.866 -2.73535 1.50283 0
M  V30 4635 N 461.167 -1.02423 -1.1978 0
M  V30 4636 C 462.117 -0.571689 -2.20716 0
M  V30 4637 C 463.101 0.377077 -1.56419 0
M  V30 4638 O 464.293 0.198801 -1.7588 0
M  V30 4639 C 461.422 0.0808555 -3.43205 0
M  V30 4640 C 460.508 -0.890073 -4.14655 0
M  V30 4641 N 460.899 -2.05065 -4.62366 0
M  V30 4642 C 459.197 -0.71252 -4.40272 0
M  V30 4643 C 459.898 -2.66264 -5.17183 0
M  V30 4644 N 458.874 -1.94264 -5.07703 0
M  V30 4645 H 462.676 -1.45636 -2.55279 0
M  V30 4646 H 460.19 -0.890596 -1.35802 0
M  V30 4647 H 462.187 0.422654 -4.14752 0
M  V30 4648 H 460.847 0.961274 -3.10144 0
M  V30 4649 H 461.858 -2.43026 -4.57339 0
M  V30 4650 H 458.535 0.119199 -4.1733 0
M  V30 4651 H 459.925 -3.64526 -5.64421 0
M  V30 4652 N 462.645 1.35699 -0.801477 0
M  V30 4653 C 463.608 2.28199 -0.213994 0
M  V30 4654 C 464.608 1.49359 0.595691 0
M  V30 4655 O 465.798 1.69186 0.414921 0
M  V30 4656 C 462.93 3.33587 0.702297 0
M  V30 4657 H 464.123 2.81666 -1.02976 0
M  V30 4658 H 461.676 1.45467 -0.571759 0
M  V30 4659 H 462.411 2.85297 1.54195 0
M  V30 4660 H 462.196 3.91906 0.123484 0
M  V30 4661 H 463.686 4.02638 1.10783 0
M  V30 4662 N 464.123 0.554532 1.47522 0
M  V30 4663 C 465.372 0.0273458 2.01681 0
M  V30 4664 C 465.685 -1.32962 1.43459 0
M  V30 4665 O 466.891 -1.94657 1.89265 0
M  V30 4666 C 465.347 -0.00159057 3.599 0
M  V30 4667 C 464.955 1.35197 4.27113 0
M  V30 4668 C 466.699 -0.476311 4.21819 0
M  V30 4669 C 464.606 1.28229 5.77331 0
M  V30 4670 H 463.536 0.00645269 0.753972 0
M  V30 4671 H 466.187 0.701985 1.69542 0
M  V30 4672 H 464.569 -0.741821 3.8899 0
M  V30 4673 H 465.743 2.1097 4.09668 0
M  V30 4674 H 464.058 1.76441 3.77171 0
M  V30 4675 H 466.655 -0.5468 5.31897 0
M  V30 4676 H 466.998 -1.4877 3.8881 0
M  V30 4677 H 467.531 0.20898 3.97251 0
M  V30 4678 H 464.27 2.26959 6.14955 0
M  V30 4679 H 463.79 0.566314 5.97121 0
M  V30 4680 H 465.469 0.983226 6.39485 0
M  V30 4681 N 465.601 -1.54893 0.290851 0
M  V30 4682 C 466.551 -2.19838 -0.604599 0
M  V30 4683 C 467.535 -1.16805 -1.10659 0
M  V30 4684 O 468.727 -1.42562 -1.04905 0
M  V30 4685 C 465.856 -2.93497 -1.78086 0
M  V30 4686 C 464.942 -4.03835 -1.29531 0
M  V30 4687 N 465.333 -5.03047 -0.527024 0
M  V30 4688 C 463.631 -4.17192 -1.57693 0
M  V30 4689 C 464.332 -5.81074 -0.269728 0
M  V30 4690 N 463.308 -5.36966 -0.846651 0
M  V30 4691 H 467.11 -2.93898 -0.00995032 0
M  V30 4692 H 464.624 -1.62121 0.0951353 0
M  V30 4693 H 466.621 -3.38484 -2.43381 0
M  V30 4694 H 465.281 -2.2095 -2.37931 0
M  V30 4695 H 466.292 -5.17611 -0.172872 0
M  V30 4696 H 462.969 -3.55845 -2.18359 0
M  V30 4697 H 464.359 -6.71005 0.346643 0
M  V30 4698 N 467.08 -0.0183926 -1.57589 0
M  V30 4699 C 468.328 0.661253 -1.90976 0
M  V30 4700 C 468.649 1.73281 -0.894353 0
M  V30 4701 O 467.919 1.9579 0.0656788 0
M  V30 4702 H 466.499 0.247233 -0.704901 0
M  V30 4703 H 469.161 -0.0636639 -1.94796 0
M  V30 4704 H 468.257 1.12083 -2.9128 0
M  V30 4705 N 468.558 1.5553 0.254621 0
M  V30 4706 C 469.488 1.9268 1.31897 0
M  V30 4707 C 470.469 0.790797 1.506 0
M  V30 4708 O 471.654 1.05045 1.63337 0
M  V30 4709 C 468.784 2.21477 2.67517 0
M  V30 4710 C 467.738 3.37256 2.63519 0
M  V30 4711 C 467.064 3.51576 4.02862 0
M  V30 4712 C 468.364 4.73157 2.21179 0
M  V30 4713 H 470.058 2.81832 1.01051 0
M  V30 4714 H 467.604 1.35599 0.484662 0
M  V30 4715 H 469.557 2.46055 3.42104 0
M  V30 4716 H 468.281 1.29144 2.99982 0
M  V30 4717 H 466.94 3.12675 1.9139 0
M  V30 4718 H 466.588 2.56676 4.32581 0
M  V30 4719 H 466.288 4.2943 4.01078 0
M  V30 4720 H 467.812 3.78467 4.79161 0
M  V30 4721 H 469.226 4.97158 2.85494 0
M  V30 4722 H 467.623 5.54058 2.30521 0
M  V30 4723 H 468.693 4.70739 1.16332 0
M  V30 4724 N 470.036 -0.519951 1.48776 0
M  V30 4725 C 470.966 -1.63253 1.66945 0
M  V30 4726 C 471.947 -1.62014 0.518224 0
M  V30 4727 O 473.132 -1.79053 0.751919 0
M  V30 4728 C 470.262 -3.0181 1.71836 0
M  V30 4729 C 469.216 -3.17911 2.8656 0
M  V30 4730 C 468.542 -4.5763 2.76548 0
M  V30 4731 C 469.842 -2.99729 4.27738 0
M  V30 4732 H 471.536 -1.48302 2.6009 0
M  V30 4733 H 469.082 -0.712026 1.25165 0
M  V30 4734 H 471.035 -3.79525 1.83135 0
M  V30 4735 H 469.759 -3.17806 0.752775 0
M  V30 4736 H 468.418 -2.42616 2.74833 0
M  V30 4737 H 468.066 -4.70476 1.77937 0
M  V30 4738 H 467.766 -4.69346 3.53536 0
M  V30 4739 H 469.29 -5.37431 2.89828 0
M  V30 4740 H 470.704 -3.67228 4.40246 0
M  V30 4741 H 469.101 -3.22932 5.05801 0
M  V30 4742 H 470.171 -1.96047 4.43502 0
M  V30 4743 N 471.514 -1.37532 -0.769588 0
M  V30 4744 C 472.76 -1.33057 -1.53048 0
M  V30 4745 C 473.093 0.0841865 -1.94017 0
M  V30 4746 O 472.368 1.04198 -1.64235 0
M  V30 4747 C 472.651 -2.27166 -2.79406 0
M  V30 4748 C 472.504 -3.77429 -2.44677 0
M  V30 4749 C 473.823 -2.19683 -3.81349 0
M  V30 4750 H 470.942 -0.484655 -0.555228 0
M  V30 4751 H 473.584 -1.68251 -0.882702 0
M  V30 4752 H 471.734 -1.97283 -3.34682 0
M  V30 4753 H 473.406 -4.17918 -1.953 0
M  V30 4754 H 471.649 -3.95892 -1.77346 0
M  V30 4755 H 472.32 -4.38716 -3.35011 0
M  V30 4756 H 474.796 -2.46029 -3.35573 0
M  V30 4757 H 473.672 -2.87668 -4.67481 0
M  V30 4758 H 473.933 -1.19045 -4.25771 0
M  V30 4759 N 472.992 0.995999 -1.22138 0
M  V30 4760 C 473.922 2.10387 -1.01289 0
M  V30 4761 C 474.903 1.69975 0.0651454 0
M  V30 4762 O 476.088 1.9396 -0.0964628 0
M  V30 4763 C 473.218 3.42312 -0.586517 0
M  V30 4764 C 472.172 3.96558 -1.61014 0
M  V30 4765 C 471.498 5.24494 -1.0397 0
M  V30 4766 C 472.798 4.27595 -2.99933 0
M  V30 4767 H 474.492 2.28086 -1.93951 0
M  V30 4768 H 472.038 1.09607 -0.933928 0
M  V30 4769 H 473.991 4.19223 -0.427793 0
M  V30 4770 H 472.715 3.24431 0.375761 0
M  V30 4771 H 471.374 3.21776 -1.75658 0
M  V30 4772 H 471.022 5.02953 -0.0688703 0
M  V30 4773 H 470.722 5.61755 -1.72352 0
M  V30 4774 H 472.246 6.04042 -0.892494 0
M  V30 4775 H 473.66 4.95315 -2.8868 0
M  V30 4776 H 472.057 4.76021 -3.6541 0
M  V30 4777 H 473.127 3.35498 -3.50099 0
M  V30 4778 N 474.47 1.03057 1.19235 0
M  V30 4779 C 475.881 0.757449 1.70645 0
M  V30 4780 C 476.232 -0.722735 1.82403 0
M  V30 4781 O 475.357 -1.56325 1.49638 0
M  V30 4782 C 475.952 1.36833 3.09939 0
M  V30 4783 C 474.511 1.14375 3.58602 0
M  V30 4784 C 473.658 1.46533 2.35422 0
M  V30 4785 H 476.609 1.19828 1.04052 0
M  V30 4786 H 476.63 0.766184 3.72706 0
M  V30 4787 H 476.142 2.44562 3.01349 0
M  V30 4788 H 474.243 0.0847542 3.72504 0
M  V30 4789 H 474.356 1.83366 4.42622 0
M  V30 4790 H 472.72 0.884712 2.38841 0
M  V30 4791 H 473.503 2.55349 2.2946 0
M  V30 4792 N 475.948 -1.35272 0.808662 0
M  V30 4793 C 476.878 -2.32315 0.234981 0
M  V30 4794 C 477.859 -1.57572 -0.64071 0
M  V30 4795 O 479.044 -1.8563 -0.570551 0
M  V30 4796 C 476.174 -3.41801 -0.615601 0
M  V30 4797 C 475.128 -4.27694 0.161767 0
M  V30 4798 C 474.454 -5.28519 -0.810649 0
M  V30 4799 C 475.754 -5.04231 1.36193 0
M  V30 4800 H 477.448 -2.80543 1.04575 0
M  V30 4801 H 474.994 -1.3488 0.504315 0
M  V30 4802 H 476.947 -4.08693 -1.02702 0
M  V30 4803 H 475.671 -2.92186 -1.45928 0
M  V30 4804 H 474.33 -3.62384 0.554382 0
M  V30 4805 H 473.978 -4.75171 -1.64988 0
M  V30 4806 H 473.678 -5.8686 -0.294822 0
M  V30 4807 H 475.202 -5.98283 -1.22023 0
M  V30 4808 H 476.616 -5.64058 1.02528 0
M  V30 4809 H 475.013 -5.72077 1.81239 0
M  V30 4810 H 476.083 -4.34753 2.14751 0
M  V30 4811 N 477.426 -0.562348 -1.47226 0
M  V30 4812 C 478.675 -0.038041 -2.01664 0
M  V30 4813 C 478.988 1.32199 -1.44162 0
M  V30 4814 O 480.194 1.9365 -1.90294 0
M  V30 4815 C 478.65 -0.0174958 -3.59896 0
M  V30 4816 C 478.258 -1.3746 -4.2639 0
M  V30 4817 C 480.002 0.453934 -4.22066 0
M  V30 4818 C 477.909 -1.31289 -5.76643 0
M  V30 4819 H 476.839 -0.0104511 -0.753928 0
M  V30 4820 H 479.49 -0.710966 -1.69167 0
M  V30 4821 H 477.872 0.721182 -3.89378 0
M  V30 4822 H 479.046 -2.1314 -4.08544 0
M  V30 4823 H 477.361 -1.78438 -3.7623 0
M  V30 4824 H 479.958 0.518584 -5.32179 0
M  V30 4825 H 480.301 1.46706 -3.89594 0
M  V30 4826 H 480.834 -0.230044 -3.97134 0
M  V30 4827 H 477.573 -2.30217 -6.13743 0
M  V30 4828 H 477.093 -0.597973 -5.96812 0
M  V30 4829 H 478.772 -1.01713 -6.38955 0
M  V30 4830 N 478.904 1.54736 -0.299062 0
M  V30 4831 C 480.134 2.04215 0.312992 0
M  V30 4832 C 480.542 1.17596 1.48215 0
M  V30 4833 O 479.885 0.193835 1.82674 0
M  V30 4834 C 479.947 3.49696 0.833862 0
M  V30 4835 C 479.611 4.56518 -0.20977 0
M  V30 4836 C 480.608 5.09442 -1.03756 0
M  V30 4837 C 478.293 5.01073 -0.35091 0
M  V30 4838 C 480.287 6.05459 -1.99244 0
M  V30 4839 C 477.974 5.9691 -1.30924 0
M  V30 4840 C 478.972 6.48987 -2.1285 0
M  V30 4841 O 478.66 7.42947 -3.07059 0
M  V30 4842 H 478.392 0.672128 0.0722494 0
M  V30 4843 H 480.946 2.00718 -0.436043 0
M  V30 4844 H 479.176 3.5051 1.63339 0
M  V30 4845 H 480.865 3.82381 1.36159 0
M  V30 4846 H 481.631 4.75816 -0.939376 0
M  V30 4847 H 477.51 4.60168 0.276813 0
M  V30 4848 H 481.054 6.46031 -2.63229 0
M  V30 4849 H 476.951 6.29953 -1.40815 0
M  V30 4850 H 477.719 7.60743 -3.02015 0
M  V30 4851 N 480.382 0.0267497 1.57577 0
M  V30 4852 C 481.629 -0.652404 1.91703 0
M  V30 4853 C 481.957 -1.72271 0.902936 0
M  V30 4854 O 481.212 -1.955 -0.0884843 0
M  V30 4855 C 481.511 -1.30914 3.3256 0
M  V30 4856 C 481.177 -0.369441 4.49384 0
M  V30 4857 C 479.839 -0.110791 4.81072 0
M  V30 4858 C 482.191 0.275971 5.20469 0
M  V30 4859 C 479.519 0.801116 5.81205 0
M  V30 4860 C 481.871 1.17592 6.21575 0
M  V30 4861 C 480.535 1.44348 6.51705 0
M  V30 4862 H 479.805 -0.238732 0.70149 0
M  V30 4863 H 482.452 0.0880091 1.91298 0
M  V30 4864 H 480.757 -2.12425 3.29216 0
M  V30 4865 H 482.454 -1.84115 3.56234 0
M  V30 4866 H 479.044 -0.581211 4.24641 0
M  V30 4867 H 483.228 0.0892 4.9622 0
M  V30 4868 H 478.484 1.01614 6.02897 0
M  V30 4869 H 482.658 1.68223 6.75777 0
M  V30 4870 H 480.285 2.15176 7.29111 0
M  V30 4871 N 481.861 -1.55662 -0.24637 0
M  V30 4872 C 482.791 -1.93377 -1.30873 0
M  V30 4873 C 483.772 -0.798773 -1.50179 0
M  V30 4874 O 484.957 -1.0591 -1.62778 0
M  V30 4875 C 482.087 -2.22893 -2.66338 0
M  V30 4876 C 481.041 -3.38649 -2.61727 0
M  V30 4877 C 480.367 -3.53708 -4.00992 0
M  V30 4878 C 481.667 -4.74323 -2.18666 0
M  V30 4879 H 483.361 -2.82363 -0.995552 0
M  V30 4880 H 480.907 -1.35854 -0.477464 0
M  V30 4881 H 482.86 -2.47866 -3.40794 0
M  V30 4882 H 481.584 -1.30733 -2.99293 0
M  V30 4883 H 480.243 -3.13685 -1.89729 0
M  V30 4884 H 479.891 -2.58967 -4.31214 0
M  V30 4885 H 479.591 -4.31551 -3.98795 0
M  V30 4886 H 481.115 -3.81003 -4.77147 0
M  V30 4887 H 482.529 -4.98665 -2.82854 0
M  V30 4888 H 480.926 -5.55273 -2.27579 0
M  V30 4889 H 481.996 -4.71349 -1.13834 0
M  V30 4890 N 483.339 0.512053 -1.4905 0
M  V30 4891 C 484.586 1.26686 -1.57978 0
M  V30 4892 C 484.914 1.92733 -0.261553 0
M  V30 4893 O 484.169 1.80772 0.749667 0
M  V30 4894 C 484.468 2.36446 -2.68008 0
M  V30 4895 C 484.134 1.87932 -4.09869 0
M  V30 4896 C 482.796 1.74419 -4.48477 0
M  V30 4897 C 485.148 1.5149 -4.98698 0
M  V30 4898 C 482.476 1.22827 -5.73699 0
M  V30 4899 C 484.828 1.01355 -6.24428 0
M  V30 4900 C 483.492 0.864735 -6.61875 0
M  V30 4901 H 482.762 0.463577 -0.578081 0
M  V30 4902 H 485.409 0.569421 -1.82838 0
M  V30 4903 H 483.714 3.11933 -2.37076 0
M  V30 4904 H 485.411 2.9453 -2.72127 0
M  V30 4905 H 482.001 1.99405 -3.79389 0
M  V30 4906 H 486.185 1.60782 -4.69535 0
M  V30 4907 H 481.441 1.10008 -6.01422 0
M  V30 4908 H 485.615 0.722351 -6.92644 0
M  V30 4909 H 483.242 0.462777 -7.5879 0
M  V30 4910 N 484.817 1.37938 0.762283 0
M  V30 4911 C 486.045 1.36883 1.55147 0
M  V30 4912 C 486.46 -0.0435348 1.8875 0
M  V30 4913 O 485.817 -1.00786 1.52146 0
M  V30 4914 C 485.868 2.21624 2.85596 0
M  V30 4915 O 485.589 3.57358 2.5343 0
M  V30 4916 C 487.09 2.28653 3.7978 0
M  V30 4917 H 484.31 0.468521 0.480343 0
M  V30 4918 H 486.854 1.81404 0.944079 0
M  V30 4919 H 485.009 1.80588 3.42734 0
M  V30 4920 H 485.423 4.01883 3.37032 0
M  V30 4921 H 486.897 2.9225 4.68288 0
M  V30 4922 H 487.374 1.29767 4.19592 0
M  V30 4923 H 487.98 2.70043 3.28568 0
M  V30 4924 N 486.295 -0.989507 1.22664 0
M  V30 4925 C 487.711 -1.25395 0.987331 0
M  V30 4926 C 487.911 -1.9899 -0.317056 0
M  V30 4927 O 486.967 -2.30141 -1.03882 0
M  V30 4928 C 488.28 -2.06242 2.18826 0
M  V30 4929 C 489.828 -2.19413 2.23219 0
M  V30 4930 C 490.303 -3.03648 3.42873 0
M  V30 4931 N 491.794 -3.11234 3.43056 0
M  V30 4932 C 492.529 -3.7671 4.32293 0
M  V30 4933 N 492.025 -4.44085 5.31752 0
M  V30 4934 N 493.818 -3.73505 4.2006 0
M  V30 4935 H 485.969 -0.496212 2.06522 0
M  V30 4936 H 488.232 -0.281784 0.905153 0
M  V30 4937 H 487.938 -1.59531 3.13437 0
M  V30 4938 H 487.812 -3.06996 2.19165 0
M  V30 4939 H 490.199 -2.65336 1.29154 0
M  V30 4940 H 490.28 -1.18078 2.26917 0
M  V30 4941 H 489.924 -2.58424 4.37241 0
M  V30 4942 H 489.854 -4.05132 3.36416 0
M  V30 4943 H 492.345 -2.63287 2.71088 0
M  V30 4944 H 492.658 -4.91797 5.96117 0
M  V30 4945 H 491.003 -4.42822 5.35662 0
M  V30 4946 H 494.194 -3.20033 3.41609 0
M  V30 4947 H 494.367 -4.24253 4.8981 0
M  V30 4948 N 487.773 -1.03688 -1.18687 0
M  V30 4949 C 488.72 -0.624624 -2.22187 0
M  V30 4950 C 489.69 0.365636 -1.62026 0
M  V30 4951 O 490.875 0.260481 -1.89014 0
M  V30 4952 C 488.015 0.0101738 -3.45099 0
M  V30 4953 C 487.128 -1.02709 -4.19613 0
M  V30 4954 C 486.263 -0.361213 -5.2997 0
M  V30 4955 C 485.302 -1.38384 -5.96252 0
M  V30 4956 N 484.439 -0.743196 -6.98155 0
M  V30 4957 H 489.279 -1.51176 -2.56807 0
M  V30 4958 H 486.816 -0.75636 -1.26165 0
M  V30 4959 H 488.774 0.395528 -4.15321 0
M  V30 4960 H 487.404 0.860848 -3.1111 0
M  V30 4961 H 486.456 -1.53043 -3.48256 0
M  V30 4962 H 487.768 -1.80398 -4.65036 0
M  V30 4963 H 486.922 0.0785537 -6.06649 0
M  V30 4964 H 485.661 0.447799 -4.8564 0
M  V30 4965 H 484.666 -1.83378 -5.18317 0
M  V30 4966 H 485.891 -2.19448 -6.42666 0
M  V30 4967 H 483.837 0.0455789 -6.55984 0
M  V30 4968 H 483.754 -1.45784 -7.41811 0
M  V30 4969 H 485.022 -0.327698 -7.78811 0
M  V30 4970 N 489.251 1.34841 -0.815825 0
M  V30 4971 C 490.199 2.31549 -0.220888 0
M  V30 4972 C 491.193 1.5707 0.634457 0
M  V30 4973 O 492.399 1.72125 0.526589 0
M  V30 4974 H 488.774 0.750153 -0.0526782 0
M  V30 4975 H 490.745 2.7926 -1.05149 0
M  V30 4976 C 489.494 3.42335 0.608427 0
M  V30 4977 H 488.817 3.9978 -0.0404121 0
M  V30 4978 H 490.257 4.12258 0.990931 0
M  V30 4979 C 488.716 2.86173 1.77782 0
M  V30 4980 O 489.246 2.80474 2.87571 0
M  V30 4981 N 487.452 2.43093 1.59229 0
M  V30 4982 H 486.999 2.47928 0.699237 0
M  V30 4983 H 486.957 2.05866 2.37627 0
M  V30 4984 N 490.729 0.570148 1.46925 0
M  V30 4985 C 492.14 0.1402 1.86173 0
M  V30 4986 C 492.491 -1.29347 1.47526 0
M  V30 4987 O 491.616 -1.97508 0.884292 0
M  V30 4988 C 492.211 0.247661 3.37894 0
M  V30 4989 C 490.77 -0.127332 3.76185 0
M  V30 4990 C 489.917 0.589349 2.70965 0
M  V30 4991 H 492.868 0.779117 1.38259 0
M  V30 4992 H 492.889 -0.530341 3.76786 0
M  V30 4993 H 492.401 1.29121 3.65991 0
M  V30 4994 H 490.502 -1.17149 3.53704 0
M  V30 4995 H 490.615 0.240238 4.78497 0
M  V30 4996 H 488.979 0.0309824 2.54681 0
M  V30 4997 H 489.762 1.6343 3.01903 0
M  V30 4998 N 492.207 -1.54576 0.307264 0
M  V30 4999 C 493.437 -2.04378 -0.302158 0
M  V30 5000 C 493.845 -1.18381 -1.47589 0
M  V30 5001 O 493.188 -0.20352 -1.82569 0
M  V30 5002 C 493.25 -3.50133 -0.815305 0
M  V30 5003 C 492.914 -4.56401 0.233977 0
M  V30 5004 C 493.911 -5.08884 1.06456 0
M  V30 5005 C 491.596 -5.0088 0.377478 0
M  V30 5006 C 493.59 -6.04394 2.02452 0
M  V30 5007 C 491.277 -5.96208 1.34088 0
M  V30 5008 C 492.275 -6.47849 2.16288 0
M  V30 5009 O 491.963 -7.41308 3.10994 0
M  V30 5010 H 491.695 -0.672502 -0.0686839 0
M  V30 5011 H 494.249 -2.00484 0.446682 0
M  V30 5012 H 492.479 -3.51371 -1.61478 0
M  V30 5013 H 494.168 -3.83098 -1.34129 0
M  V30 5014 H 494.934 -4.75311 0.964596 0
M  V30 5015 H 490.813 -4.60309 -0.252405 0
M  V30 5016 H 494.357 -6.44626 2.66652 0
M  V30 5017 H 490.254 -6.29198 1.44154 0
M  V30 5018 H 491.022 -7.5913 3.06045 0
M  V30 5019 N 493.685 -0.035106 -1.57561 0
M  V30 5020 C 495.101 0.321334 -1.56332 0
M  V30 5021 C 495.301 1.72509 -1.04129 0
M  V30 5022 O 494.357 2.4287 -0.690694 0
M  V30 5023 C 495.67 0.164469 -3.0025 0
M  V30 5024 C 497.218 0.236786 -3.12103 0
M  V30 5025 C 497.693 0.10864 -4.57871 0
M  V30 5026 N 499.184 0.165433 -4.62904 0
M  V30 5027 C 499.919 0.0901506 -5.73329 0
M  V30 5028 N 499.415 -0.0365606 -6.9279 0
M  V30 5029 N 501.208 0.144572 -5.61914 0
M  V30 5030 H 493.359 -0.952976 -1.89821 0
M  V30 5031 H 495.622 -0.368537 -0.873432 0
M  V30 5032 H 495.328 -0.802746 -3.42416 0
M  V30 5033 H 495.202 0.932194 -3.655 0
M  V30 5034 H 497.589 1.19446 -2.69845 0
M  V30 5035 H 497.67 -0.561419 -2.49563 0
M  V30 5036 H 497.314 -0.845644 -5.00811 0
M  V30 5037 H 497.244 0.925786 -5.18398 0
M  V30 5038 H 499.735 0.263269 -3.76982 0
M  V30 5039 H 500.048 -0.0871487 -7.72751 0
M  V30 5040 H 498.393 -0.0714256 -6.94963 0
M  V30 5041 H 501.584 0.242006 -4.67474 0
M  V30 5042 H 501.757 0.0824413 -6.47948 0
M  V30 5043 N 495.163 1.55791 0.238111 0
M  V30 5044 C 496.41 1.78033 0.964907 0
M  V30 5045 C 496.738 0.600984 1.84982 0
M  V30 5046 O 495.993 -0.41536 1.91241 0
M  V30 5047 C 496.292 3.05869 1.84875 0
M  V30 5048 C 495.958 4.36808 1.11846 0
M  V30 5049 C 494.62 4.72388 0.916662 0
M  V30 5050 C 496.972 5.17717 0.60151 0
M  V30 5051 C 494.3 5.86406 0.185756 0
M  V30 5052 C 496.652 6.32494 -0.115972 0
M  V30 5053 C 495.316 6.66688 -0.329168 0
M  V30 5054 H 494.586 0.651469 0.353085 0
M  V30 5055 H 497.233 1.90061 0.234318 0
M  V30 5056 H 495.538 2.88891 2.64668 0
M  V30 5057 H 497.235 3.20278 2.41294 0
M  V30 5058 H 493.825 4.08862 1.28569 0
M  V30 5059 H 498.009 4.90678 0.744932 0
M  V30 5060 H 493.265 6.11399 0.0101886 0
M  V30 5061 H 497.439 6.94425 -0.524127 0
M  V30 5062 H 495.066 7.54884 -0.897474 0
M  V30 5063 N 496.642 -0.504142 1.49319 0
M  V30 5064 C 497.572 -1.61473 1.68667 0
M  V30 5065 C 498.553 -1.61455 0.535378 0
M  V30 5066 O 499.738 -1.78245 0.770868 0
M  V30 5067 C 496.868 -2.99971 1.75028 0
M  V30 5068 C 495.822 -3.14854 2.89916 0
M  V30 5069 C 495.148 -4.54671 2.81387 0
M  V30 5070 C 496.448 -2.95176 4.30893 0
M  V30 5071 H 498.142 -1.45535 2.61648 0
M  V30 5072 H 495.688 -0.698711 1.25913 0
M  V30 5073 H 497.641 -3.77562 1.8715 0
M  V30 5074 H 496.365 -3.1699 0.786441 0
M  V30 5075 H 495.024 -2.39687 2.77391 0
M  V30 5076 H 494.672 -4.68562 1.82917 0
M  V30 5077 H 494.372 -4.6557 3.58494 0
M  V30 5078 H 495.896 -5.34327 2.95512 0
M  V30 5079 H 497.31 -3.62538 4.44116 0
M  V30 5080 H 495.707 -3.17549 5.09198 0
M  V30 5081 H 496.777 -1.91332 4.45556 0
M  V30 5082 N 498.12 -1.38341 -0.754957 0
M  V30 5083 C 499.366 -1.35678 -1.51536 0
M  V30 5084 C 499.721 0.0533985 -1.92326 0
M  V30 5085 O 499.014 1.01573 -1.6246 0
M  V30 5086 C 499.208 -2.2452 -2.78075 0
M  V30 5087 C 499.037 -3.74035 -2.49655 0
M  V30 5088 C 497.807 -4.43066 -2.42942 0
M  V30 5089 C 500.005 -4.665 -2.16523 0
M  V30 5090 N 497.987 -5.78026 -2.06783 0
M  V30 5091 C 499.358 -5.89962 -1.90644 0
M  V30 5092 C 501.413 -4.54718 -2.02821 0
M  V30 5093 C 500.116 -7.0296 -1.52444 0
M  V30 5094 C 502.142 -5.67618 -1.66023 0
M  V30 5095 C 501.504 -6.90141 -1.41015 0
M  V30 5096 H 497.603 -0.551764 -0.554148 0
M  V30 5097 H 500.187 -1.73716 -0.879258 0
M  V30 5098 H 498.358 -1.88673 -3.39496 0
M  V30 5099 H 500.09 -2.12993 -3.44116 0
M  V30 5100 H 496.845 -3.96264 -2.59367 0
M  V30 5101 H 497.269 -6.49394 -1.91353 0
M  V30 5102 H 501.911 -3.60546 -2.20831 0
M  V30 5103 H 499.629 -7.97051 -1.33174 0
M  V30 5104 H 503.215 -5.6048 -1.56055 0
M  V30 5105 H 502.095 -7.76021 -1.12965 0
M  V30 5106 N 499.598 0.982988 -1.23187 0
M  V30 5107 C 500.846 1.72052 -1.06031 0
M  V30 5108 C 501.167 1.90769 0.404019 0
M  V30 5109 O 500.437 1.47446 1.28982 0
M  V30 5110 H 499.017 0.637499 -0.389363 0
M  V30 5111 H 501.679 1.18338 -1.54862 0
M  V30 5112 H 500.775 2.7111 -1.54615 0
M  V30 5113 N 501.076 1.04316 1.18135 0
M  V30 5114 C 502.325 0.74319 1.87509 0
M  V30 5115 C 502.638 -0.732136 1.81381 0
M  V30 5116 O 503.844 -1.14572 2.46141 0
M  V30 5117 C 502.3 1.27913 3.36402 0
M  V30 5118 C 501.908 2.78326 3.51053 0
M  V30 5119 C 503.652 1.0558 4.11161 0
M  V30 5120 C 501.559 3.25266 4.93919 0
M  V30 5121 H 500.489 0.274313 0.702331 0
M  V30 5122 H 503.14 1.25931 1.33467 0
M  V30 5123 H 501.522 0.690853 3.89927 0
M  V30 5124 H 502.696 3.42933 3.07788 0
M  V30 5125 H 501.011 2.991 2.89704 0
M  V30 5126 H 503.608 1.38161 5.16542 0
M  V30 5127 H 503.951 -0.00684729 4.16299 0
M  V30 5128 H 504.484 1.60882 3.63816 0
M  V30 5129 H 501.223 4.30922 4.9395 0
M  V30 5130 H 500.743 2.65396 5.3789 0
M  V30 5131 H 502.422 3.19433 5.62647 0
M  V30 5132 N 502.554 -1.34406 0.822964 0
M  V30 5133 C 503.8 -1.98578 0.411666 0
M  V30 5134 C 504.133 -1.65093 -1.02264 0
M  V30 5135 O 503.408 -0.92258 -1.71227 0
M  V30 5136 C 503.691 -3.54823 0.614235 0
M  V30 5137 C 503.544 -3.9805 2.09466 0
M  V30 5138 C 504.863 -4.40071 0.050221 0
M  V30 5139 H 501.982 -0.721355 0.151047 0
M  V30 5140 H 504.624 -1.59301 1.03554 0
M  V30 5141 H 502.774 -3.88411 0.0831774 0
M  V30 5142 H 504.446 -3.74795 2.68936 0
M  V30 5143 H 502.689 -3.4836 2.5851 0
M  V30 5144 H 503.36 -5.06819 2.18721 0
M  V30 5145 H 505.836 -4.13037 0.503953 0
M  V30 5146 H 504.712 -5.48452 0.221759 0
M  V30 5147 H 504.973 -4.29576 -1.04482 0
M  V30 5148 N 504.032 -0.577932 -1.46621 0
M  V30 5149 C 505.26 -0.0671642 -2.06791 0
M  V30 5150 C 505.675 1.23571 -1.42743 0
M  V30 5151 O 505.032 1.74602 -0.531062 0
M  V30 5152 C 505.083 0.110357 -3.61332 0
M  V30 5153 O 504.804 -1.14095 -4.22982 0
M  V30 5154 C 506.305 0.656025 -4.38419 0
M  V30 5155 H 503.525 -0.0552732 -0.66872 0
M  V30 5156 H 506.069 -0.797242 -1.8832 0
M  V30 5157 H 504.224 0.790637 -3.79246 0
M  V30 5158 H 504.638 -0.951742 -5.15793 0
M  V30 5159 H 506.112 0.729438 -5.47159 0
M  V30 5160 H 506.589 1.67195 -4.06131 0
M  V30 5161 H 507.195 0.0107692 -4.25299 0
M  V30 5162 N 505.51 1.54411 -0.315457 0
M  V30 5163 C 506.921 1.85885 0.174265 0
M  V30 5164 C 507.272 1.23723 1.52273 0
M  V30 5165 O 506.397 0.540246 2.09548 0
M  V30 5166 C 506.992 3.37257 0.322981 0
M  V30 5167 C 505.551 3.68711 0.756922 0
M  V30 5168 C 504.698 2.77013 -0.126195 0
M  V30 5169 H 507.649 1.49374 -0.536007 0
M  V30 5170 H 507.67 3.62539 1.15522 0
M  V30 5171 H 507.182 3.82471 -0.658602 0
M  V30 5172 H 505.283 3.29024 1.74854 0
M  V30 5173 H 505.396 4.75741 0.566291 0
M  V30 5174 H 503.76 2.51588 0.39692 0
M  V30 5175 H 504.543 3.25051 -1.1044 0
M  V30 5176 N 506.988 0.0434614 1.5754 0
M  V30 5177 C 507.918 -0.931651 2.14109 0
M  V30 5178 C 508.899 -1.32971 1.06079 0
M  V30 5179 O 510.084 -1.40579 1.33982 0
M  V30 5180 C 507.214 -2.20914 2.67982 0
M  V30 5181 C 506.168 -1.95139 3.80926 0
M  V30 5182 C 505.494 -3.29276 4.21285 0
M  V30 5183 C 506.794 -1.27913 5.06395 0
M  V30 5184 H 508.488 -0.460497 2.95837 0
M  V30 5185 H 506.034 -0.220058 1.42309 0
M  V30 5186 H 507.987 -2.89522 3.06194 0
M  V30 5187 H 506.711 -2.70221 1.83434 0
M  V30 5188 H 505.37 -1.28945 3.43175 0
M  V30 5189 H 505.018 -3.76369 3.33699 0
M  V30 5190 H 504.718 -3.12831 4.97404 0
M  V30 5191 H 506.242 -3.99129 4.62091 0
M  V30 5192 H 507.656 -1.86544 5.42102 0
M  V30 5193 H 506.053 -1.2182 5.87605 0
M  V30 5194 H 507.123 -0.254066 4.84234 0
M  V30 5195 N 508.466 -1.55915 -0.229846 0
M  V30 5196 C 509.429 -1.90914 -1.26824 0
M  V30 5197 C 510.429 -0.786999 -1.40225 0
M  V30 5198 O 511.619 -1.05484 -1.38632 0
M  V30 5199 C 508.751 -2.15264 -2.64337 0
M  V30 5200 H 509.944 -2.8378 -0.969998 0
M  V30 5201 H 507.497 -1.49069 -0.4699 0
M  V30 5202 H 508.232 -1.24923 -2.99274 0
M  V30 5203 H 508.017 -2.97005 -2.55989 0
M  V30 5204 H 509.507 -2.43467 -3.39284 0
M  V30 5205 N 509.944 0.496216 -1.49584 0
M  V30 5206 C 511.172 1.27394 -1.63029 0
M  V30 5207 C 511.587 1.86344 -0.303569 0
M  V30 5208 O 510.944 1.68057 0.711547 0
M  V30 5209 C 510.995 2.40077 -2.70269 0
M  V30 5210 O 510.716 1.83549 -3.97796 0
M  V30 5211 C 512.217 3.31372 -2.94462 0
M  V30 5212 H 509.437 0.386211 -0.54871 0
M  V30 5213 H 511.981 0.595163 -1.95648 0
M  V30 5214 H 510.136 3.03775 -2.40415 0
M  V30 5215 H 510.55 2.57561 -4.56905 0
M  V30 5216 H 512.024 4.06707 -3.73221 0
M  V30 5217 H 512.501 3.88654 -2.0456 0
M  V30 5218 H 513.107 2.73435 -3.25751 0
M  V30 5219 N 511.423 1.38739 0.74761 0
M  V30 5220 C 512.386 1.36241 1.84312 0
M  V30 5221 C 513.386 0.261811 1.58654 0
M  V30 5222 O 514.576 0.519031 1.66288 0
M  V30 5223 C 511.708 1.12253 3.21888 0
M  V30 5224 H 512.901 2.33712 1.87933 0
M  V30 5225 H 510.454 1.2412 0.949946 0
M  V30 5226 H 511.189 0.154133 3.23934 0
M  V30 5227 H 510.974 1.91943 3.41907 0
M  V30 5228 H 512.464 1.13215 4.0196 0
M  V30 5229 N 512.901 -0.976442 1.23707 0
M  V30 5230 C 514.148 -1.71827 1.07153 0
M  V30 5231 C 514.476 -1.9053 -0.390982 0
M  V30 5232 O 513.731 -1.45779 -1.30564 0
M  V30 5233 C 514.03 -3.11814 1.74662 0
M  V30 5234 C 513.696 -3.12978 3.24585 0
M  V30 5235 C 512.358 -3.13003 3.6549 0
M  V30 5236 C 514.71 -3.07986 4.20469 0
M  V30 5237 C 512.038 -3.05757 5.00729 0
M  V30 5238 C 514.39 -3.02282 5.55705 0
M  V30 5239 C 513.054 -3.00631 5.95968 0
M  V30 5240 H 512.324 -0.628758 0.392102 0
M  V30 5241 H 514.971 -1.14239 1.53693 0
M  V30 5242 H 513.276 -3.72812 1.20492 0
M  V30 5243 H 514.973 -3.67989 1.59328 0
M  V30 5244 H 511.563 -3.13718 2.92026 0
M  V30 5245 H 515.747 -3.07103 3.89874 0
M  V30 5246 H 511.003 -3.02834 5.31132 0
M  V30 5247 H 515.177 -2.97376 6.29714 0
M  V30 5248 H 512.804 -2.94771 7.00724 0
M  V30 5249 N 514.379 -1.04941 -1.1758 0
M  V30 5250 C 515.627 -0.756492 -1.87408 0
M  V30 5251 C 515.948 0.718478 -1.81281 0
M  V30 5252 O 515.218 1.519 -1.23706 0
M  V30 5253 H 513.798 -0.276841 -0.693807 0
M  V30 5254 H 516.46 -1.32803 -1.42652 0
M  V30 5255 H 515.556 -1.06918 -2.93215 0
M  V30 5256 N 515.857 1.33968 -0.830081 0
M  V30 5257 C 517.085 2.0228 -0.434773 0
M  V30 5258 C 517.5 1.62487 0.961419 0
M  V30 5259 O 516.857 0.833849 1.62337 0
M  V30 5260 C 516.908 3.5751 -0.535625 0
M  V30 5261 O 516.629 3.95864 -1.87679 0
M  V30 5262 C 518.13 4.43091 -0.136137 0
M  V30 5263 H 515.35 0.648151 -0.173613 0
M  V30 5264 H 517.894 1.71089 -1.12022 0
M  V30 5265 H 516.049 3.87266 0.101817 0
M  V30 5266 H 516.463 4.9056 -1.85609 0
M  V30 5267 H 517.937 5.51398 -0.257772 0
M  V30 5268 H 518.414 4.29433 0.921076 0
M  V30 5269 H 519.02 4.18677 -0.747662 0
M  V30 5270 N 517.335 0.585699 1.46312 0
M  V30 5271 C 518.56 0.0762461 2.0726 0
M  V30 5272 C 518.985 -1.22071 1.43109 0
M  V30 5273 O 518.343 -1.73804 0.515942 0
M  V30 5274 C 518.391 -0.0729404 3.60526 0
M  V30 5275 O 517.495 -1.1287 3.96654 0
M  V30 5276 H 516.836 0.0641558 0.660893 0
M  V30 5277 H 519.366 0.809492 1.87905 0
M  V30 5278 H 519.376 -0.278158 4.07051 0
M  V30 5279 H 518.051 0.874188 4.06609 0
M  V30 5280 H 516.628 -0.901703 3.61834 0
M  V30 5281 N 518.813 -1.54241 0.323641 0
M  V30 5282 C 520.038 -2.05452 -0.283605 0
M  V30 5283 C 520.463 -1.19823 -1.44997 0
M  V30 5284 O 519.821 -0.207358 -1.8011 0
M  V30 5285 C 519.869 -3.53823 -0.695795 0
M  V30 5286 O 518.973 -3.71134 -1.79815 0
M  V30 5287 H 518.314 -0.662024 -0.0511917 0
M  V30 5288 H 520.844 -1.99079 0.472073 0
M  V30 5289 H 520.854 -3.96094 -0.978434 0
M  V30 5290 H 519.529 -4.15602 0.157287 0
M  V30 5291 H 518.106 -3.40768 -1.51431 0
M  V30 5292 N 520.291 -0.0518155 -1.57515 0
M  V30 5293 C 521.516 0.634896 -1.97443 0
M  V30 5294 C 521.941 1.63546 -0.929207 0
M  V30 5295 O 521.299 1.80981 0.107484 0
M  V30 5296 C 521.347 1.29765 -3.36442 0
M  V30 5297 O 520.451 2.41333 -3.34413 0
M  V30 5298 H 519.792 0.164994 -0.643174 0
M  V30 5299 H 522.322 -0.120407 -2.04245 0
M  V30 5300 H 522.332 1.64918 -3.73184 0
M  V30 5301 H 521.007 0.564361 -4.12053 0
M  V30 5302 H 519.584 2.08122 -3.09418 0
M  V30 5303 N 521.769 1.56035 0.221574 0
M  V30 5304 C 522.994 1.83476 0.967026 0
M  V30 5305 C 523.419 0.632139 1.7716 0
M  V30 5306 O 522.777 -0.419082 1.7639 0
M  V30 5307 C 522.825 3.08907 1.86034 0
M  V30 5308 O 521.929 2.876 2.95567 0
M  V30 5309 H 521.27 0.604913 0.273817 0
M  V30 5310 H 523.8 2.03247 0.234893 0
M  V30 5311 H 523.81 3.3901 2.27016 0
M  V30 5312 H 522.485 3.96068 1.26898 0
M  V30 5313 H 521.062 2.6873 2.58532 0
M  V30 5314 N 523.247 -0.488276 1.49845 0
M  V30 5315 C 524.21 -1.57069 1.66919 0
M  V30 5316 C 525.21 -1.51445 0.540479 0
M  V30 5317 O 526.4 -1.5437 0.807188 0
M  V30 5318 C 523.532 -2.96718 1.67844 0
M  V30 5319 H 524.725 -1.43254 2.63474 0
M  V30 5320 H 522.278 -0.713435 1.39068 0
M  V30 5321 H 523.013 -3.15996 0.7292 0
M  V30 5322 H 522.798 -3.02208 2.49826 0
M  V30 5323 H 524.288 -3.75335 1.83066 0
M  V30 5324 N 524.725 -1.39134 -0.740242 0
M  V30 5325 C 525.953 -1.39334 -1.5295 0
M  V30 5326 C 526.368 0.0135008 -1.88795 0
M  V30 5327 O 525.725 0.983524 -1.5373 0
M  V30 5328 C 525.776 -2.2614 -2.82034 0
M  V30 5329 O 525.497 -3.61345 -2.47712 0
M  V30 5330 C 526.998 -2.34666 -3.76094 0
M  V30 5331 H 524.218 -0.476103 -0.472828 0
M  V30 5332 H 526.762 -1.82883 -0.9151 0
M  V30 5333 H 524.917 -1.86018 -3.39818 0
M  V30 5334 H 525.331 -4.07194 -3.30595 0
M  V30 5335 H 526.805 -2.99663 -4.63579 0
M  V30 5336 H 527.282 -1.36426 -4.17474 0
M  V30 5337 H 527.888 -2.75236 -3.2423 0
M  V30 5338 N 526.204 0.969867 -1.24223 0
M  V30 5339 C 527.134 2.08191 -1.05729 0
M  V30 5340 C 528.115 1.70075 0.0290765 0
M  V30 5341 O 529.3 1.93712 -0.137583 0
M  V30 5342 C 526.43 3.40991 -0.658995 0
M  V30 5343 C 525.384 3.93054 -1.69389 0
M  V30 5344 C 524.71 5.22171 -1.15072 0
M  V30 5345 C 526.01 4.21137 -3.08935 0
M  V30 5346 H 527.704 2.23921 -1.98746 0
M  V30 5347 H 525.25 1.07602 -0.956967 0
M  V30 5348 H 527.203 4.18221 -0.51662 0
M  V30 5349 H 525.927 3.25155 0.30686 0
M  V30 5350 H 524.586 3.17977 -1.82444 0
M  V30 5351 H 524.234 5.02694 -0.175539 0
M  V30 5352 H 523.934 5.57973 -1.84229 0
M  V30 5353 H 525.458 6.02013 -1.02042 0
M  V30 5354 H 526.872 4.8908 -2.99121 0
M  V30 5355 H 525.269 4.68163 -3.75425 0
M  V30 5356 H 526.339 3.27996 -3.57137 0
M  V30 5357 N 527.682 1.05563 1.17022 0
M  V30 5358 C 529.093 0.793475 1.69 0
M  V30 5359 C 529.444 -0.683882 1.83895 0
M  V30 5360 O 528.569 -1.53116 1.5292 0
M  V30 5361 C 529.164 1.43376 3.06967 0
M  V30 5362 C 527.723 1.21956 3.56095 0
M  V30 5363 C 526.87 1.51494 2.3226 0
M  V30 5364 H 529.821 1.22008 1.01487 0
M  V30 5365 H 529.842 0.845068 3.70997 0
M  V30 5366 H 529.354 2.50899 2.96093 0
M  V30 5367 H 527.455 0.163749 3.7224 0
M  V30 5368 H 527.568 1.92713 4.38633 0
M  V30 5369 H 525.932 0.935175 2.3691 0
M  V30 5370 H 526.715 2.60159 2.23992 0
M  V30 5371 N 529.16 -1.33526 0.837174 0
M  V30 5372 C 530.09 -2.31764 0.284206 0
M  V30 5373 C 531.071 -1.58896 -0.607142 0
M  V30 5374 O 532.256 -1.86798 -0.531047 0
M  V30 5375 C 529.386 -3.43029 -0.542962 0
M  V30 5376 C 528.34 -4.27255 0.252451 0
M  V30 5377 C 527.666 -5.3012 -0.69836 0
M  V30 5378 C 528.966 -5.01229 1.46858 0
M  V30 5379 H 530.66 -2.78262 1.10502 0
M  V30 5380 H 528.206 -1.3378 0.532812 0
M  V30 5381 H 530.159 -4.1078 -0.940096 0
M  V30 5382 H 528.883 -2.95216 -1.39697 0
M  V30 5383 H 527.542 -3.61127 0.631124 0
M  V30 5384 H 527.19 -4.78564 -1.54872 0
M  V30 5385 H 526.89 -5.87353 -0.170274 0
M  V30 5386 H 528.414 -6.00737 -1.09305 0
M  V30 5387 H 529.828 -5.61756 1.14469 0
M  V30 5388 H 528.225 -5.68104 1.93333 0
M  V30 5389 H 529.295 -4.301 2.23924 0
M  V30 5390 N 530.638 -0.59345 -1.46 0
M  V30 5391 C 531.571 0.182196 -2.27472 0
M  V30 5392 C 532.549 0.886901 -1.36282 0
M  V30 5393 O 533.733 0.898627 -1.65701 0
M  V30 5394 C 530.86 1.26236 -3.14296 0
M  V30 5395 C 529.906 0.662331 -4.21326 0
M  V30 5396 S 530.739 -0.519017 -5.32979 0
M  V30 5397 C 531.895 0.562086 -6.23371 0
M  V30 5398 H 532.128 -0.509056 -2.92909 0
M  V30 5399 H 529.661 -0.380607 -1.49635 0
M  V30 5400 H 531.619 1.88075 -3.64881 0
M  V30 5401 H 530.28 1.92562 -2.48151 0
M  V30 5402 H 529.473 1.47461 -4.81945 0
M  V30 5403 H 529.075 0.119381 -3.73809 0
M  V30 5404 H 531.367 1.44494 -6.61912 0
M  V30 5405 H 532.31 -0.00760776 -7.081 0
M  V30 5406 H 532.718 0.871061 -5.57739 0
M  V30 5407 N 532.116 1.54067 -0.331816 0
M  V30 5408 C 533.049 2.20886 0.573127 0
M  V30 5409 C 534.027 1.18876 1.10938 0
M  V30 5410 O 535.211 1.47649 1.17184 0
M  V30 5411 C 532.338 2.87706 1.78726 0
M  V30 5412 C 531.384 4.03505 1.38152 0
M  V30 5413 S 532.217 5.33919 0.41123 0
M  V30 5414 C 533.373 6.04236 1.63246 0
M  V30 5415 H 533.606 2.97299 0.00555737 0
M  V30 5416 H 531.139 1.53964 -0.115893 0
M  V30 5417 H 533.097 3.26825 2.48386 0
M  V30 5418 H 531.758 2.1108 2.32603 0
M  V30 5419 H 530.951 4.49152 2.28645 0
M  V30 5420 H 530.553 3.66102 0.764524 0
M  V30 5421 H 532.845 6.26917 2.56869 0
M  V30 5422 H 533.788 6.97546 1.218 0
M  V30 5423 H 534.196 5.34247 1.82318 0
M  V30 5424 N 533.594 0.0601682 1.57485 0
M  V30 5425 C 534.541 -0.91112 2.12055 0
M  V30 5426 C 535.511 -1.30298 1.03013 0
M  V30 5427 O 536.696 -1.39087 1.30612 0
M  V30 5428 C 533.836 -2.1775 2.67729 0
M  V30 5429 C 532.949 -1.83933 3.90887 0
M  V30 5430 C 532.084 -3.05096 4.34845 0
M  V30 5431 C 531.123 -2.67241 5.5068 0
M  V30 5432 N 530.26 -3.81127 5.8965 0
M  V30 5433 H 535.1 -0.43888 2.9475 0
M  V30 5434 H 532.637 -0.204995 1.45665 0
M  V30 5435 H 534.595 -2.91866 2.98111 0
M  V30 5436 H 533.225 -2.62535 1.87816 0
M  V30 5437 H 532.277 -0.999287 3.6704 0
M  V30 5438 H 533.589 -1.52074 4.75052 0
M  V30 5439 H 532.743 -3.87502 4.66827 0
M  V30 5440 H 531.482 -3.40139 3.49509 0
M  V30 5441 H 530.487 -1.83254 5.18361 0
M  V30 5442 H 531.712 -2.3338 6.37738 0
M  V30 5443 H 529.658 -4.15954 5.07266 0
M  V30 5444 H 529.575 -3.52997 6.68528 0
M  V30 5445 H 530.843 -4.64145 6.2625 0
M  V30 5446 N 535.072 -1.5615 -0.213296 0
M  V30 5447 C 536.312 -1.81325 -0.943435 0
M  V30 5448 C 536.676 -0.634934 -1.81198 0
M  V30 5449 O 537.877 -0.766166 -2.5765 0
M  V30 5450 C 536.148 -3.11437 -1.75334 0
M  V30 5451 S 537.707 -3.57955 -2.53799 0
M  V30 5452 H 534.525 -0.636538 -0.316766 0
M  V30 5453 H 537.127 -1.94387 -0.208313 0
M  V30 5454 H 535.831 -3.95228 -1.10556 0
M  V30 5455 H 535.362 -3.01204 -2.53061 0
M  V30 5456 H 537.377 -3.21947 -3.77577 0
M  V30 5457 N 536.55 0.480323 -1.50102 0
M  V30 5458 C 537.796 1.23489 -1.60867 0
M  V30 5459 C 538.129 1.91809 -0.303827 0
M  V30 5460 O 537.404 1.81694 0.694092 0
M  V30 5461 C 537.687 2.28578 -2.78252 0
M  V30 5462 C 537.54 1.64624 -4.18592 0
M  V30 5463 C 538.859 3.2997 -2.91218 0
M  V30 5464 H 535.978 0.447605 -0.585507 0
M  V30 5465 H 538.62 0.530005 -1.82458 0
M  V30 5466 H 536.77 2.88697 -2.59974 0
M  V30 5467 H 538.442 1.08173 -4.48438 0
M  V30 5468 H 536.685 0.949645 -4.23278 0
M  V30 5469 H 537.356 2.40946 -4.96638 0
M  V30 5470 H 539.832 2.79864 -3.07921 0
M  V30 5471 H 538.708 4.00839 -3.74993 0
M  V30 5472 H 538.969 3.93541 -2.0144 0
M  V30 5473 N 538.028 1.39524 0.732853 0
M  V30 5474 C 538.938 1.40695 1.87729 0
M  V30 5475 C 539.954 0.301496 1.71368 0
M  V30 5476 O 541.13 0.543313 1.93933 0
M  V30 5477 C 538.195 1.25098 3.23344 0
M  V30 5478 C 537.256 2.45634 3.52083 0
M  V30 5479 C 536.489 2.30772 4.81228 0
M  V30 5480 O 536.712 1.31233 5.55098 0
M  V30 5481 O 535.646 3.19799 5.09914 0
M  V30 5482 H 539.472 2.37168 1.89697 0
M  V30 5483 H 537.057 1.20663 0.880959 0
M  V30 5484 H 538.939 1.18541 4.04383 0
M  V30 5485 H 537.614 0.317209 3.22142 0
M  V30 5486 H 536.521 2.57767 2.71122 0
M  V30 5487 H 537.854 3.37712 3.58066 0
M  V30 5488 N 539.506 -0.963266 1.24736 0
M  V30 5489 C 540.416 -2.09246 1.06082 0
M  V30 5490 C 541.432 -1.74 0.000363101 0
M  V30 5491 O 542.608 -2.0041 0.199479 0
M  V30 5492 C 539.673 -3.40115 0.672498 0
M  V30 5493 C 538.734 -3.89282 1.80993 0
M  V30 5494 C 537.967 -5.13905 1.44004 0
M  V30 5495 O 538.19 -5.69434 0.331835 0
M  V30 5496 O 537.124 -5.57566 2.26723 0
M  V30 5497 H 540.95 -2.27881 2.00759 0
M  V30 5498 H 538.535 -1.07649 1.03595 0
M  V30 5499 H 540.417 -4.18797 0.467668 0
M  V30 5500 H 539.092 -3.22771 -0.245102 0
M  V30 5501 H 537.999 -3.11642 2.06955 0
M  V30 5502 H 539.332 -4.1111 2.70646 0
M  V30 5503 N 540.985 -1.06182 -1.16461 0
M  V30 5504 C 541.933 -0.665716 -2.2287 0
M  V30 5505 C 542.927 0.317822 -1.66392 0
M  V30 5506 O 544.133 0.182807 -1.79069 0
M  V30 5507 H 540.508 -0.197148 -0.725697 0
M  V30 5508 H 542.479 -1.57307 -2.53569 0
M  V30 5509 C 541.228 -0.0669803 -3.47635 0
M  V30 5510 H 540.551 -0.814899 -3.91407 0
M  V30 5511 H 541.991 0.172669 -4.23648 0
M  V30 5512 C 540.45 1.18913 -3.15216 0
M  V30 5513 O 540.98 2.27723 -3.30916 0
M  V30 5514 N 539.186 1.09066 -2.69357 0
M  V30 5515 H 538.733 0.20518 -2.56782 0
M  V30 5516 H 538.691 1.93195 -2.48039 0
M  V30 5517 N 542.463 1.3308 -0.844243 0
M  V30 5518 C 543.411 2.31028 -0.269954 0
M  V30 5519 C 544.405 1.58381 0.600997 0
M  V30 5520 O 545.611 1.73203 0.48996 0
M  V30 5521 H 541.986 0.748866 -0.0685782 0
M  V30 5522 H 543.957 2.76967 -1.11049 0
M  V30 5523 C 542.706 3.43549 0.535676 0
M  V30 5524 H 542.029 3.99604 -0.125202 0
M  V30 5525 H 543.469 4.14267 0.903262 0
M  V30 5526 C 541.928 2.8988 1.71672 0
M  V30 5527 O 542.458 2.86511 2.81557 0
M  V30 5528 N 540.664 2.46416 1.54037 0
M  V30 5529 H 540.211 2.49356 0.64649 0
M  V30 5530 H 540.169 2.1086 2.33207 0
M  V30 5531 N 543.941 0.601185 1.45683 0
M  V30 5532 C 545.189 0.0936957 2.01883 0
M  V30 5533 C 545.51 -1.2779 1.47291 0
M  V30 5534 O 544.78 -1.84279 0.664691 0
M  V30 5535 H 543.36 0.0316466 0.746329 0
M  V30 5536 H 546.022 0.781137 1.78562 0
M  V30 5537 H 545.118 0.0386297 3.12076 0
M  V30 5538 N 545.419 -1.53889 0.339982 0
M  V30 5539 C 546.665 -2.01152 -0.258003 0
M  V30 5540 C 546.998 -1.22749 -1.50487 0
M  V30 5541 O 546.273 -0.314156 -1.91946 0
M  V30 5542 C 546.556 -3.55468 -0.575717 0
M  V30 5543 C 546.409 -4.44584 0.682996 0
M  V30 5544 C 547.728 -4.1768 -1.38677 0
M  V30 5545 H 544.847 -0.731198 -0.0922992 0
M  V30 5546 H 547.489 -1.84352 0.459814 0
M  V30 5547 H 545.639 -3.69914 -1.18725 0
M  V30 5548 H 547.311 -4.41981 1.32102 0
M  V30 5549 H 545.554 -4.13592 1.3086 0
M  V30 5550 H 546.225 -5.5043 0.416001 0
M  V30 5551 H 548.701 -4.0691 -0.869705 0
M  V30 5552 H 547.577 -5.25734 -1.57783 0
M  V30 5553 H 547.838 -3.72069 -2.38782 0
M  V30 5554 N 546.897 -0.0685191 -1.57451 0
M  V30 5555 C 547.86 0.885173 -2.11417 0
M  V30 5556 C 548.86 1.22853 -1.03748 0
M  V30 5557 O 550.05 1.16235 -1.2975 0
M  V30 5558 C 547.182 2.18964 -2.61281 0
M  V30 5559 H 548.375 0.417034 -2.96986 0
M  V30 5560 H 545.928 0.18014 -1.55258 0
M  V30 5561 H 546.663 2.70321 -1.79156 0
M  V30 5562 H 546.448 1.9534 -3.39977 0
M  V30 5563 H 547.938 2.87242 -3.0312 0
M  V30 5564 N 548.375 1.56261 0.205012 0
M  V30 5565 C 549.322 1.93754 1.25411 0
M  V30 5566 C 550.292 0.796826 1.45739 0
M  V30 5567 O 551.477 1.05414 1.59036 0
M  V30 5568 C 548.617 2.27383 2.59598 0
M  V30 5569 C 547.73 3.5447 2.46931 0
M  V30 5570 C 546.865 3.77468 3.73753 0
M  V30 5571 C 545.904 4.98014 3.55877 0
M  V30 5572 N 545.041 5.17316 4.74688 0
M  V30 5573 H 549.881 2.83203 0.92737 0
M  V30 5574 H 547.418 1.40158 0.446574 0
M  V30 5575 H 549.376 2.44895 3.37761 0
M  V30 5576 H 548.006 1.41088 2.90335 0
M  V30 5577 H 547.058 3.45061 1.60116 0
M  V30 5578 H 548.37 4.42789 2.29651 0
M  V30 5579 H 547.524 3.95165 4.60358 0
M  V30 5580 H 546.263 2.87461 3.93976 0
M  V30 5581 H 545.268 4.80249 2.67657 0
M  V30 5582 H 546.493 5.8952 3.37109 0
M  V30 5583 H 544.439 4.30255 4.95194 0
M  V30 5584 H 544.356 5.99796 4.60197 0
M  V30 5585 H 545.624 5.39463 5.62672 0
M  V30 5586 N 549.853 -0.472356 1.50355 0
M  V30 5587 C 550.803 -1.56809 1.65514 0
M  V30 5588 C 551.787 -1.5261 0.509801 0
M  V30 5589 O 552.979 -1.59655 0.764145 0
M  V30 5590 C 550.108 -2.9526 1.75146 0
M  V30 5591 C 549.194 -3.04348 2.95353 0
M  V30 5592 N 549.585 -2.83253 4.19048 0
M  V30 5593 C 547.883 -3.35482 2.93884 0
M  V30 5594 C 548.584 -2.97273 5.00003 0
M  V30 5595 N 547.56 -3.27418 4.33934 0
M  V30 5596 H 551.362 -1.39197 2.58846 0
M  V30 5597 H 548.876 -0.67906 1.47521 0
M  V30 5598 H 550.873 -3.74044 1.8411 0
M  V30 5599 H 549.533 -3.1392 0.829717 0
M  V30 5600 H 550.544 -2.5886 4.48567 0
M  V30 5601 H 547.221 -3.60138 2.11204 0
M  V30 5602 H 548.611 -2.85214 6.08361 0
M  V30 5603 N 551.331 -1.39911 -0.725443 0
M  V30 5604 C 552.58 -1.36963 -1.48068 0
M  V30 5605 C 552.893 0.0284478 -1.95579 0
M  V30 5606 O 554.099 0.180535 -2.70899 0
M  V30 5607 C 552.555 -2.40664 -2.67598 0
M  V30 5608 C 552.163 -3.86234 -2.26997 0
M  V30 5609 C 553.907 -2.46807 -3.45379 0
M  V30 5610 C 551.814 -4.81554 -3.43307 0
M  V30 5611 H 550.744 -0.509223 -0.556065 0
M  V30 5612 H 553.395 -1.65602 -0.790454 0
M  V30 5613 H 551.777 -2.05109 -3.38742 0
M  V30 5614 H 552.951 -4.3088 -1.63337 0
M  V30 5615 H 551.266 -3.83475 -1.62284 0
M  V30 5616 H 553.863 -3.15213 -4.31909 0
M  V30 5617 H 554.206 -1.49552 -3.8851 0
M  V30 5618 H 554.739 -2.81303 -2.81271 0
M  V30 5619 H 551.478 -5.80106 -3.05217 0
M  V30 5620 H 550.998 -4.4158 -4.05915 0
M  V30 5621 H 552.677 -5.0091 -4.0951 0
M  V30 5622 N 552.809 0.956637 -1.25245 0
M  V30 5623 C 554.034 1.74104 -1.12706 0
M  V30 5624 C 554.459 1.85436 0.315429 0
M  V30 5625 O 553.817 1.33334 1.22848 0
M  V30 5626 C 553.865 3.1338 -1.78396 0
M  V30 5627 O 552.969 3.98485 -1.06224 0
M  V30 5628 H 552.31 0.53476 -0.393609 0
M  V30 5629 H 554.84 1.19924 -1.65769 0
M  V30 5630 H 554.85 3.6385 -1.846 0
M  V30 5631 H 553.525 3.04448 -2.83345 0
M  V30 5632 H 552.102 3.56952 -1.07886 0
M  V30 5633 N 554.287 1.06798 1.15896 0
M  V30 5634 C 555.703 0.792423 1.38538 0
M  V30 5635 C 555.903 -0.60592 1.92174 0
M  V30 5636 O 554.959 -1.36561 2.12385 0
M  V30 5637 C 556.272 1.86157 2.36149 0
M  V30 5638 C 557.82 1.88567 2.49823 0
M  V30 5639 C 558.295 2.9455 3.5072 0
M  V30 5640 N 559.786 2.93616 3.58251 0
M  V30 5641 C 560.521 3.72267 4.36125 0
M  V30 5642 N 560.017 4.60751 5.17379 0
M  V30 5643 N 561.81 3.60637 4.31158 0
M  V30 5644 H 553.961 1.96993 0.794198 0
M  V30 5645 H 556.224 0.853942 0.411688 0
M  V30 5646 H 555.93 2.86603 2.03843 0
M  V30 5647 H 555.804 1.71692 3.3586 0
M  V30 5648 H 558.191 0.887765 2.8143 0
M  V30 5649 H 558.272 2.0711 1.5013 0
M  V30 5650 H 557.916 3.94537 3.19849 0
M  V30 5651 H 557.846 2.73255 4.50155 0
M  V30 5652 H 560.337 2.29472 3.00252 0
M  V30 5653 H 560.65 5.17408 5.74028 0
M  V30 5654 H 558.995 4.64803 5.16704 0
M  V30 5655 H 562.186 2.90892 3.66742 0
M  V30 5656 H 562.359 4.22176 4.91601 0
M  V30 5657 N 555.766 -1.3263 0.851289 0
M  V30 5658 C 557.013 -1.97368 0.453023 0
M  V30 5659 C 557.341 -1.67384 -0.990596 0
M  V30 5660 O 556.596 -0.952665 -1.70947 0
M  V30 5661 C 556.895 -3.51713 0.635015 0
M  V30 5662 C 556.561 -4.01676 2.04859 0
M  V30 5663 C 555.223 -4.15031 2.43522 0
M  V30 5664 C 557.575 -4.28206 2.97135 0
M  V30 5665 C 554.903 -4.52257 3.73739 0
M  V30 5666 C 557.255 -4.66889 4.26846 0
M  V30 5667 C 555.919 -4.7845 4.65448 0
M  V30 5668 H 555.189 -0.722219 0.165773 0
M  V30 5669 H 557.836 -1.58092 1.0807 0
M  V30 5670 H 556.141 -3.91726 -0.0759081 0
M  V30 5671 H 557.838 -3.99823 0.306964 0
M  V30 5672 H 554.428 -3.91764 1.73836 0
M  V30 5673 H 558.612 -4.174 2.68498 0
M  V30 5674 H 553.868 -4.59402 4.03435 0
M  V30 5675 H 558.042 -4.86372 4.98413 0
M  V30 5676 H 555.669 -5.07052 5.66395 0
M  V30 5677 N 557.244 -0.608902 -1.45362 0
M  V30 5678 C 558.493 -0.10218 -2.01441 0
M  V30 5679 C 558.806 1.27546 -1.48295 0
M  V30 5680 O 560.012 1.87498 -1.96359 0
M  V30 5681 C 558.468 -0.131985 -3.59658 0
M  V30 5682 C 558.076 -1.50956 -4.21801 0
M  V30 5683 C 559.82 0.319427 -4.23296 0
M  V30 5684 C 557.727 -1.49568 -5.72174 0
M  V30 5685 H 556.657 -0.0344314 -0.753213 0
M  V30 5686 H 559.308 -0.764426 -1.6682 0
M  V30 5687 H 557.69 0.596939 -3.91475 0
M  V30 5688 H 558.864 -2.26029 -4.01556 0
M  V30 5689 H 557.179 -1.90318 -3.70362 0
M  V30 5690 H 559.776 0.349013 -5.3356 0
M  V30 5691 H 560.119 1.34237 -3.94064 0
M  V30 5692 H 560.652 -0.356273 -3.96201 0
M  V30 5693 H 557.391 -2.49626 -6.06108 0
M  V30 5694 H 556.911 -0.787542 -5.94607 0
M  V30 5695 H 558.59 -1.21989 -6.35396 0
M  V30 5696 N 558.722 1.53707 -0.348139 0
M  V30 5697 C 559.652 2.28111 0.498766 0
M  V30 5698 C 560.633 1.29851 1.09876 0
M  V30 5699 O 561.818 1.587 1.11928 0
M  V30 5700 C 558.948 3.05735 1.64753 0
M  V30 5701 C 557.902 4.11537 1.17565 0
M  V30 5702 C 557.228 4.77142 2.4133 0
M  V30 5703 C 558.528 5.21587 0.272844 0
M  V30 5704 H 560.222 2.99152 -0.121934 0
M  V30 5705 H 557.768 1.43875 -0.0600842 0
M  V30 5706 H 559.721 3.56526 2.24649 0
M  V30 5707 H 558.445 2.32354 2.2952 0
M  V30 5708 H 557.104 3.61665 0.599483 0
M  V30 5709 H 556.752 4.0035 3.04514 0
M  V30 5710 H 556.452 5.48626 2.10436 0
M  V30 5711 H 557.976 5.30719 3.01943 0
M  V30 5712 H 559.39 5.67986 0.778779 0
M  V30 5713 H 557.787 6.00074 0.0555849 0
M  V30 5714 H 558.857 4.79969 -0.689785 0
M  V30 5715 N 560.2 0.0768682 1.57412 0
M  V30 5716 C 561.611 -0.455037 1.8107 0
M  V30 5717 C 561.962 -1.69323 0.991162 0
M  V30 5718 O 561.087 -2.15328 0.215156 0
M  V30 5719 C 561.682 -0.832316 3.28417 0
M  V30 5720 C 560.241 -1.30906 3.52903 0
M  V30 5721 C 559.388 -0.296714 2.75708 0
M  V30 5722 H 562.339 0.302514 1.5579 0
M  V30 5723 H 562.36 -1.69333 3.40744 0
M  V30 5724 H 561.872 0.0690532 3.88039 0
M  V30 5725 H 559.973 -2.22875 2.98592 0
M  V30 5726 H 560.086 -1.28348 4.61588 0
M  V30 5727 H 558.45 -0.775059 2.42621 0
M  V30 5728 H 559.233 0.597015 3.38069 0
M  V30 5729 N 561.678 -1.56367 -0.196722 0
M  V30 5730 C 562.927 -1.79724 -0.915539 0
M  V30 5731 C 563.24 -0.649804 -1.84491 0
M  V30 5732 O 564.446 -0.767631 -2.60422 0
M  V30 5733 C 562.902 -3.18369 -1.67836 0
M  V30 5734 C 562.51 -4.4091 -0.793897 0
M  V30 5735 C 564.254 -3.51037 -2.38691 0
M  V30 5736 C 562.161 -5.70577 -1.55549 0
M  V30 5737 H 561.091 -0.67013 -0.345604 0
M  V30 5738 H 563.742 -1.82721 -0.168856 0
M  V30 5739 H 562.124 -3.09617 -2.46887 0
M  V30 5740 H 563.298 -4.60781 -0.042163 0
M  V30 5741 H 561.613 -4.15937 -0.19626 0
M  V30 5742 H 564.21 -4.4515 -2.96219 0
M  V30 5743 H 564.553 -2.74704 -3.12799 0
M  V30 5744 H 565.086 -3.61229 -1.66608 0
M  V30 5745 H 561.825 -6.49871 -0.857226 0
M  V30 5746 H 561.345 -5.54726 -2.2812 0
M  V30 5747 H 563.024 -6.11637 -2.10971 0
M  V30 5748 N 563.156 0.464375 -1.50603 0
M  V30 5749 C 564.404 1.21356 -1.61608 0
M  V30 5750 C 564.725 1.92329 -0.321643 0
M  V30 5751 O 563.995 1.84403 0.661232 0
M  V30 5752 H 562.575 0.45094 -0.595535 0
M  V30 5753 H 565.237 0.535046 -1.87412 0
M  V30 5754 H 564.333 1.95783 -2.43054 0
M  V30 5755 N 564.634 1.40294 0.718013 0
M  V30 5756 C 565.597 1.4012 1.81381 0
M  V30 5757 C 566.597 0.295405 1.58063 0
M  V30 5758 O 567.787 0.554187 1.6515 0
M  V30 5759 C 564.919 1.19056 3.19435 0
M  V30 5760 H 566.112 2.37645 1.82933 0
M  V30 5761 H 563.665 1.26107 0.923405 0
M  V30 5762 H 564.4 0.222809 3.23534 0
M  V30 5763 H 564.185 1.99152 3.37758 0
M  V30 5764 H 565.675 1.21716 3.99468 0
M  V30 5765 N 566.112 -0.949982 1.2575 0
M  V30 5766 C 567.34 -1.72972 1.13527 0
M  V30 5767 C 567.755 -1.8623 -0.310453 0
M  V30 5768 O 567.112 -1.36336 -1.2132 0
M  V30 5769 C 567.163 -3.14108 1.78936 0
M  V30 5770 O 566.884 -3.01493 3.17858 0
M  V30 5771 C 568.385 -4.08338 1.72554 0
M  V30 5772 H 565.605 -0.541864 0.395758 0
M  V30 5773 H 568.149 -1.19151 1.66202 0
M  V30 5774 H 566.304 -3.64858 1.30221 0
M  V30 5775 H 566.718 -3.90559 3.50092 0
M  V30 5776 H 568.192 -5.04963 2.22973 0
M  V30 5777 H 568.669 -4.33742 0.690251 0
M  V30 5778 H 569.275 -3.63506 2.2078 0
M  V30 5779 N 567.59 -1.07411 -1.15328 0
M  V30 5780 C 568.836 -0.798831 -1.86404 0
M  V30 5781 C 569.169 0.673433 -1.8215 0
M  V30 5782 O 568.444 1.49428 -1.24505 0
M  V30 5783 C 568.727 -1.30846 -3.35487 0
M  V30 5784 C 568.58 -2.84532 -3.4837 0
M  V30 5785 C 569.899 -0.925486 -4.30259 0
M  V30 5786 H 567.018 -0.291659 -0.676834 0
M  V30 5787 H 569.66 -1.332 -1.35491 0
M  V30 5788 H 567.81 -0.854916 -3.78977 0
M  V30 5789 H 569.482 -3.3818 -3.13739 0
M  V30 5790 H 567.725 -3.22699 -2.8991 0
M  V30 5791 H 568.396 -3.15259 -4.53118 0
M  V30 5792 H 570.872 -1.3163 -3.94731 0
M  V30 5793 H 569.748 -1.3094 -5.33053 0
M  V30 5794 H 570.009 0.168525 -4.41779 0
M  V30 5795 N 569.068 1.32177 -0.85831 0
M  V30 5796 C 570.016 2.30729 -0.294442 0
M  V30 5797 C 571.01 1.59009 0.584165 0
M  V30 5798 O 572.216 1.73713 0.471562 0
M  V30 5799 H 568.591 0.748097 -0.0765171 0
M  V30 5800 H 570.562 2.75774 -1.1398 0
M  V30 5801 C 569.311 3.44098 0.499208 0
M  V30 5802 H 568.634 3.99449 -0.167579 0
M  V30 5803 H 570.074 4.15202 0.859273 0
M  V30 5804 C 568.533 2.91684 1.68588 0
M  V30 5805 O 569.063 2.89481 2.78503 0
M  V30 5806 N 567.269 2.48036 1.51415 0
M  V30 5807 H 566.816 2.50027 0.620006 0
M  V30 5808 H 566.774 2.13322 2.30957 0
M  V30 5809 N 570.547 0.616602 1.45037 0
M  V30 5810 C 571.48 -0.145984 2.27733 0
M  V30 5811 C 572.458 -0.865108 1.37676 0
M  V30 5812 O 573.642 -0.872152 1.6711 0
M  V30 5813 C 570.769 -1.2122 3.16265 0
M  V30 5814 C 569.815 -0.595218 4.22326 0
M  V30 5815 S 570.648 0.603744 5.32086 0
M  V30 5816 C 571.804 -0.462842 6.24186 0
M  V30 5817 H 572.037 0.555591 2.92062 0
M  V30 5818 H 569.57 0.404364 1.49011 0
M  V30 5819 H 571.528 -1.82247 3.67827 0
M  V30 5820 H 570.189 -1.88589 2.51183 0
M  V30 5821 H 569.382 -1.39775 4.8423 0
M  V30 5822 H 568.984 -0.0598965 3.73952 0
M  V30 5823 H 571.276 -1.33945 6.64127 0
M  V30 5824 H 572.219 0.120259 7.07998 0
M  V30 5825 H 572.627 -0.782219 5.59054 0
M  V30 5826 N 572.025 -1.5352 0.356285 0
M  V30 5827 C 573.302 -1.93405 -0.292223 0
M  V30 5828 C 573.682 -1.28901 -1.67176 0
M  V30 5829 O 573.03 -0.444632 -2.24132 0
M  V30 5830 C 573.24 -3.47223 -0.35175 0
M  V30 5831 C 574.588 -4.20389 -0.596534 0
M  V30 5832 O 575.612 -3.53554 -0.433344 0
M  V30 5833 O 574.471 -5.3881 -0.913589 0
M  V30 5834 H 571.565 -0.808666 -0.173172 0
M  V30 5835 H 574.111 -1.64713 0.408391 0
M  V30 5836 H 572.883 -3.86423 0.615841 0
M  V30 5837 H 572.506 -3.8212 -1.09864 0
M  V30 5838 N 573.503 -0.0852151 -1.57369 0
M  V30 5839 C 574.751 0.579658 -1.93609 0
M  V30 5840 C 575.072 1.69332 -0.967043 0
M  V30 5841 O 574.342 1.95892 -0.0174215 0
M  V30 5842 H 572.922 0.217113 -0.714752 0
M  V30 5843 H 575.584 -0.146226 -1.94351 0
M  V30 5844 H 574.68 0.996276 -2.95771 0
M  V30 5845 N 574.981 1.5647 0.188427 0
M  V30 5846 C 575.944 1.9421 1.21718 0
M  V30 5847 C 576.944 0.823901 1.38089 0
M  V30 5848 O 578.134 1.09122 1.35787 0
M  V30 5849 C 575.266 2.22197 2.58537 0
M  V30 5850 H 576.459 2.86252 0.894418 0
M  V30 5851 H 574.012 1.50263 0.430211 0
M  V30 5852 H 574.747 1.32814 2.95856 0
M  V30 5853 H 574.532 3.03688 2.48025 0
M  V30 5854 H 576.022 2.52376 3.3271 0
M  V30 5855 N 576.459 -0.456382 1.50847 0
M  V30 5856 C 577.422 -1.53493 1.70213 0
M  V30 5857 C 578.422 -1.50264 0.572481 0
M  V30 5858 O 579.612 -1.52623 0.839751 0
M  V30 5859 C 576.744 -2.93091 1.741 0
M  V30 5860 H 577.937 -1.37633 2.66453 0
M  V30 5861 H 575.49 -0.683776 1.4055 0
M  V30 5862 H 576.225 -3.14378 0.796063 0
M  V30 5863 H 576.01 -2.9684 2.5618 0
M  V30 5864 H 577.5 -3.71368 1.90987 0
M  V30 5865 N 577.937 -1.40673 -0.710563 0
M  V30 5866 C 578.867 -1.44095 -1.83736 0
M  V30 5867 C 579.848 -0.301286 -1.67411 0
M  V30 5868 O 581.033 -0.510618 -1.87367 0
M  V30 5869 C 578.163 -1.30773 -3.21738 0
M  V30 5870 C 577.117 -2.42395 -3.52745 0
M  V30 5871 C 576.443 -2.14147 -4.89944 0
M  V30 5872 C 577.743 -3.84738 -3.53234 0
M  V30 5873 H 579.437 -2.38396 -1.81129 0
M  V30 5874 H 576.983 -1.14746 -0.870017 0
M  V30 5875 H 578.936 -1.31783 -4.00264 0
M  V30 5876 H 577.66 -0.329507 -3.24934 0
M  V30 5877 H 576.319 -2.40643 -2.76562 0
M  V30 5878 H 575.967 -1.14703 -4.89747 0
M  V30 5879 H 575.667 -2.88934 -5.11655 0
M  V30 5880 H 577.191 -2.16848 -5.70797 0
M  V30 5881 H 578.605 -3.88286 -4.2179 0
M  V30 5882 H 577.002 -4.59085 -3.86473 0
M  V30 5883 H 578.072 -4.13962 -2.52514 0
M  V30 5884 N 579.415 0.9433 -1.26252 0
M  V30 5885 C 580.662 1.68925 -1.11672 0
M  V30 5886 C 580.99 1.91499 0.340329 0
M  V30 5887 O 580.245 1.49189 1.26653 0
M  V30 5888 C 580.544 3.07073 -1.82868 0
M  V30 5889 C 580.21 3.04262 -3.32769 0
M  V30 5890 C 578.872 3.03203 -3.7366 0
M  V30 5891 C 581.224 2.96729 -4.28487 0
M  V30 5892 C 578.552 2.92373 -5.0866 0
M  V30 5893 C 580.904 2.87442 -5.63525 0
M  V30 5894 C 579.568 2.84724 -6.03729 0
M  V30 5895 H 578.838 0.618141 -0.408635 0
M  V30 5896 H 581.485 1.10124 -1.56668 0
M  V30 5897 H 579.79 3.69486 -1.30335 0
M  V30 5898 H 581.487 3.63635 -1.69029 0
M  V30 5899 H 578.077 3.05865 -3.00241 0
M  V30 5900 H 582.261 2.96658 -3.97879 0
M  V30 5901 H 577.517 2.88645 -5.38975 0
M  V30 5902 H 581.691 2.80576 -6.37377 0
M  V30 5903 H 579.318 2.76089 -7.08293 0
M  V30 5904 N 580.893 1.08022 1.14757 0
M  V30 5905 C 581.825 0.664566 2.19354 0
M  V30 5906 C 582.838 -0.286374 1.60261 0
M  V30 5907 O 584.027 -0.0746362 1.78344 0
M  V30 5908 C 581.127 -0.0434634 3.38872 0
M  V30 5909 C 580.3 0.925381 4.27499 0
M  V30 5910 C 579.359 0.253398 5.2559 0
M  V30 5911 O 578.385 0.896581 5.62094 0
M  V30 5912 N 579.587 -0.998263 5.71852 0
M  V30 5913 H 582.352 1.56438 2.55631 0
M  V30 5914 H 579.913 0.965788 1.29939 0
M  V30 5915 H 581.905 -0.503857 4.01551 0
M  V30 5916 H 580.475 -0.845321 3.00954 0
M  V30 5917 H 579.695 1.56472 3.61815 0
M  V30 5918 H 580.983 1.58203 4.8358 0
M  V30 5919 H 580.381 -1.54063 5.44317 0
M  V30 5920 H 578.938 -1.40222 6.36538 0
M  V30 5921 N 582.371 -1.3172 0.865308 0
M  V30 5922 C 583.611 -1.98675 0.480365 0
M  V30 5923 C 583.975 -1.66929 -0.948621 0
M  V30 5924 O 585.176 -2.27059 -1.43867 0
M  V30 5925 C 583.447 -3.49972 0.724858 0
M  V30 5926 S 585.006 -4.36598 0.439078 0
M  V30 5927 H 581.824 -0.687967 0.179506 0
M  V30 5928 H 584.426 -1.60215 1.12033 0
M  V30 5929 H 583.13 -3.70567 1.76375 0
M  V30 5930 H 582.661 -3.93335 0.0717173 0
M  V30 5931 H 584.676 -4.90792 -0.730564 0
M  V30 5932 N 583.85 -0.624285 -1.44708 0
M  V30 5933 C 585.096 -0.126237 -2.02407 0
M  V30 5934 C 585.428 1.24618 -1.48943 0
M  V30 5935 O 584.704 1.82569 -0.670742 0
M  V30 5936 C 584.986 -0.105449 -3.59946 0
M  V30 5937 C 584.84 -1.50972 -4.23707 0
M  V30 5938 C 586.159 0.573629 -4.36346 0
M  V30 5939 H 583.278 -0.0473472 -0.735478 0
M  V30 5940 H 585.92 -0.799452 -1.72362 0
M  V30 5941 H 584.07 0.46783 -3.85673 0
M  V30 5942 H 585.742 -2.13136 -4.0911 0
M  V30 5943 H 583.985 -2.0656 -3.81465 0
M  V30 5944 H 584.656 -1.44727 -5.32689 0
M  V30 5945 H 587.132 0.0861787 -4.16011 0
M  V30 5946 H 586.008 0.557338 -5.46063 0
M  V30 5947 H 586.269 1.64276 -4.10446 0
M  V30 5948 N 585.328 1.53329 -0.364422 0
M  V30 5949 C 586.291 2.24323 0.470292 0
M  V30 5950 C 587.291 1.25068 1.01067 0
M  V30 5951 O 588.481 1.49354 0.896605 0
M  V30 5952 C 585.613 2.97908 1.65722 0
M  V30 5953 H 586.806 2.9952 -0.150917 0
M  V30 5954 H 584.359 1.55868 -0.116092 0
M  V30 5955 H 585.094 2.2695 2.31655 0
M  V30 5956 H 584.879 3.70732 1.27671 0
M  V30 5957 H 586.369 3.5188 2.24878 0
M  V30 5958 N 586.806 0.0935595 1.57322 0
M  V30 5959 C 587.769 -0.851426 2.12799 0
M  V30 5960 C 588.769 -1.21187 1.0569 0
M  V30 5961 O 589.959 -1.14156 1.31583 0
M  V30 5962 C 587.091 -2.14779 2.64731 0
M  V30 5963 H 588.284 -0.369733 2.97612 0
M  V30 5964 H 585.837 -0.155417 1.55525 0
M  V30 5965 H 586.572 -2.67437 1.83434 0
M  V30 5966 H 586.357 -1.89907 3.43042 0
M  V30 5967 H 587.847 -2.82383 3.07651 0
M  V30 5968 N 588.284 -1.56567 -0.180126 0
M  V30 5969 C 589.53 -1.81761 -0.899497 0
M  V30 5970 C 589.863 -0.670015 -1.82276 0
M  V30 5971 O 589.138 0.328575 -1.91705 0
M  V30 5972 C 589.421 -3.17296 -1.7028 0
M  V30 5973 C 589.274 -4.4257 -0.803255 0
M  V30 5974 C 590.593 -3.49678 -2.67233 0
M  V30 5975 H 587.712 -0.661192 -0.325567 0
M  V30 5976 H 590.354 -1.89272 -0.16612 0
M  V30 5977 H 588.504 -3.11023 -2.32802 0
M  V30 5978 H 590.176 -4.60902 -0.191585 0
M  V30 5979 H 588.419 -4.33658 -0.110796 0
M  V30 5980 H 589.09 -5.33935 -1.40064 0
M  V30 5981 H 591.566 -3.56347 -2.14839 0
M  V30 5982 H 590.442 -4.45605 -3.20511 0
M  V30 5983 H 590.703 -2.73932 -3.47007 0
M  V30 5984 N 589.762 0.448376 -1.51087 0
M  V30 5985 C 591.009 1.19872 -1.63209 0
M  V30 5986 C 591.337 1.91451 -0.343062 0
M  V30 5987 O 590.592 1.83789 0.672321 0
M  V30 5988 C 590.891 2.24866 -2.77795 0
M  V30 5989 C 590.557 1.70378 -4.17471 0
M  V30 5990 C 589.219 1.55241 -4.55471 0
M  V30 5991 C 591.571 1.30203 -5.04675 0
M  V30 5992 C 588.899 0.983844 -5.78392 0
M  V30 5993 C 591.251 0.747798 -6.28165 0
M  V30 5994 C 589.915 0.583233 -6.64947 0
M  V30 5995 H 589.185 0.438642 -0.597222 0
M  V30 5996 H 591.832 0.49136 -1.85089 0
M  V30 5997 H 590.137 3.01598 -2.50092 0
M  V30 5998 H 591.834 2.82723 -2.84374 0
M  V30 5999 H 588.424 1.83134 -3.87505 0
M  V30 6000 H 592.608 1.40723 -4.75932 0
M  V30 6001 H 587.864 0.844007 -6.05546 0
M  V30 6002 H 592.038 0.427927 -6.95084 0
M  V30 6003 H 589.665 0.140532 -7.6007 0
M  V30 6004 N 591.24 1.41047 0.703093 0
M  V30 6005 C 592.489 1.39301 1.4587 0
M  V30 6006 C 592.802 0.00267077 1.956 0
M  V30 6007 O 594.008 -0.137414 2.71152 0
M  V30 6008 C 592.464 2.44891 2.63735 0
M  V30 6009 C 592.072 3.89796 2.20824 0
M  V30 6010 C 593.816 2.5227 3.41409 0
M  V30 6011 C 591.723 4.86955 3.35602 0
M  V30 6012 H 590.653 0.518005 0.547893 0
M  V30 6013 H 593.304 1.66839 0.764009 0
M  V30 6014 H 591.686 2.10472 3.35436 0
M  V30 6015 H 592.86 4.33424 1.56461 0
M  V30 6016 H 591.175 3.86008 1.56163 0
M  V30 6017 H 593.772 3.22044 4.26839 0
M  V30 6018 H 594.115 1.55714 3.86081 0
M  V30 6019 H 594.648 2.85742 2.7676 0
M  V30 6020 H 591.387 5.84888 2.9595 0
M  V30 6021 H 590.907 4.47982 3.98839 0
M  V30 6022 H 592.586 5.07361 4.01489 0
M  V30 6023 N 592.718 -0.936591 1.26751 0
M  V30 6024 C 593.681 -2.01752 1.08761 0
M  V30 6025 C 594.681 -1.60763 0.0344435 0
M  V30 6026 O 595.871 -1.71963 0.278258 0
M  V30 6027 C 593.003 -3.34543 0.655271 0
M  V30 6028 H 594.196 -2.19143 2.04735 0
M  V30 6029 H 591.749 -1.11618 1.09413 0
M  V30 6030 H 592.484 -3.22851 -0.30626 0
M  V30 6031 H 592.269 -3.65647 1.41578 0
M  V30 6032 H 593.759 -4.13944 0.551378 0
M  V30 6033 N 594.196 -1.08629 -1.14182 0
M  V30 6034 C 595.128 -0.676189 -2.18998 0
M  V30 6035 C 596.141 0.277871 -1.60411 0
M  V30 6036 O 597.33 0.0651771 -1.78381 0
M  V30 6037 C 594.43 0.0254916 -3.3889 0
M  V30 6038 C 593.603 -0.948039 -4.27002 0
M  V30 6039 C 592.662 -0.281268 -5.25448 0
M  V30 6040 O 591.688 -0.926378 -5.61611 0
M  V30 6041 N 592.89 0.967923 -5.72374 0
M  V30 6042 H 595.655 -1.57792 -2.54798 0
M  V30 6043 H 593.216 -0.972665 -1.29425 0
M  V30 6044 H 595.208 0.482554 -4.01813 0
M  V30 6045 H 593.778 0.829348 -3.01398 0
M  V30 6046 H 592.998 -1.58388 -3.6098 0
M  V30 6047 H 594.286 -1.60765 -4.82734 0
M  V30 6048 H 593.684 1.51175 -5.45126 0
M  V30 6049 H 592.241 1.36844 -6.37273 0
M  V30 6050 N 595.674 1.31259 -0.872281 0
M  V30 6051 C 596.604 2.30929 -0.345554 0
M  V30 6052 C 597.585 1.60449 0.5648 0
M  V30 6053 O 598.77 1.8814 0.481335 0
M  V30 6054 C 595.9 3.44348 0.451823 0
M  V30 6055 C 594.854 4.26435 -0.365641 0
M  V30 6056 C 594.18 5.31785 0.557562 0
M  V30 6057 C 595.48 4.97159 -1.60095 0
M  V30 6058 H 597.174 2.75234 -1.17841 0
M  V30 6059 H 594.72 1.3232 -0.568094 0
M  V30 6060 H 596.673 4.13128 0.830854 0
M  V30 6061 H 595.397 2.98816 1.31821 0
M  V30 6062 H 594.056 3.59326 -0.726649 0
M  V30 6063 H 593.704 4.82502 1.4213 0
M  V30 6064 H 593.404 5.87598 0.0144878 0
M  V30 6065 H 594.928 6.03424 0.933387 0
M  V30 6066 H 596.342 5.58523 -1.29323 0
M  V30 6067 H 594.739 5.62779 -2.08327 0
M  V30 6068 H 595.809 4.24012 -2.35249 0
M  V30 6069 N 597.152 0.631951 1.44375 0
M  V30 6070 C 598.377 0.142146 2.06912 0
M  V30 6071 C 598.802 -1.17456 1.4692 0
M  V30 6072 O 598.16 -1.72074 0.570975 0
M  V30 6073 C 598.208 0.0417952 3.60576 0
M  V30 6074 O 597.312 -1.00194 4.00044 0
M  V30 6075 H 596.653 0.0851491 0.658518 0
M  V30 6076 H 599.183 0.868863 1.85235 0
M  V30 6077 H 599.193 -0.148517 4.0773 0
M  V30 6078 H 597.868 1.0031 4.03622 0
M  V30 6079 H 596.445 -0.786131 3.64519 0
M  V30 6080 N 598.631 -1.53133 0.372548 0
M  V30 6081 C 599.563 -2.23557 -0.505444 0
M  V30 6082 C 600.576 -1.25211 -1.04049 0
M  V30 6083 O 601.765 -1.51391 -0.945675 0
M  V30 6084 C 598.865 -2.92516 -1.71136 0
M  V30 6085 C 598.038 -4.17428 -1.30661 0
M  V30 6086 C 597.097 -4.69535 -2.37536 0
M  V30 6087 O 596.123 -5.33042 -1.99637 0
M  V30 6088 N 597.325 -4.47947 -3.6922 0
M  V30 6089 H 600.09 -2.9954 0.0978259 0
M  V30 6090 H 597.651 -1.60684 0.198068 0
M  V30 6091 H 599.643 -3.24281 -2.42124 0
M  V30 6092 H 598.213 -2.19944 -2.22134 0
M  V30 6093 H 597.433 -3.91888 -0.426292 0
M  V30 6094 H 598.721 -4.98622 -1.01259 0
M  V30 6095 H 598.119 -3.97219 -4.02783 0
M  V30 6096 H 596.676 -4.84245 -4.36292 0
M  V30 6097 N 600.109 -0.101901 -1.5727 0
M  V30 6098 C 601.041 0.884723 -2.11436 0
M  V30 6099 C 602.054 1.24149 -1.05314 0
M  V30 6100 O 603.243 1.19341 -1.3274 0
M  V30 6101 C 600.343 2.19179 -2.58484 0
M  V30 6102 C 599.516 2.00933 -3.88516 0
M  V30 6103 C 598.575 3.15213 -4.2134 0
M  V30 6104 O 597.601 2.88877 -4.90448 0
M  V30 6105 N 598.803 4.41174 -3.77288 0
M  V30 6106 H 601.568 0.422058 -2.96713 0
M  V30 6107 H 599.129 0.0830128 -1.61687 0
M  V30 6108 H 601.121 2.94593 -2.77484 0
M  V30 6109 H 599.691 2.56847 -1.7818 0
M  V30 6110 H 598.911 1.09809 -3.78597 0
M  V30 6111 H 600.199 1.86026 -4.73573 0
M  V30 6112 H 599.597 4.6545 -3.21516 0
M  V30 6113 H 598.154 5.13515 -4.01429 0
M  V30 6114 N 601.587 1.56661 0.17182 0
M  V30 6115 C 602.812 1.86459 0.908165 0
M  V30 6116 C 603.237 0.688181 1.75059 0
M  V30 6117 O 602.595 -0.362753 1.77634 0
M  V30 6118 C 602.643 3.14669 1.76112 0
M  V30 6119 O 601.747 2.96858 2.86268 0
M  V30 6120 H 601.088 0.613318 0.254434 0
M  V30 6121 H 603.618 2.03892 0.170113 0
M  V30 6122 H 603.628 3.46061 2.16115 0
M  V30 6123 H 602.303 3.99905 1.14233 0
M  V30 6124 H 600.88 2.76819 2.49852 0
M  V30 6125 N 603.065 -0.440357 1.51323 0
M  V30 6126 C 603.995 -1.54174 1.75364 0
M  V30 6127 C 604.976 -1.59039 0.603375 0
M  V30 6128 O 606.161 -1.74815 0.845774 0
M  V30 6129 C 603.291 -2.92277 1.87593 0
M  V30 6130 C 602.245 -3.02274 3.03009 0
M  V30 6131 C 601.571 -4.42327 3.00418 0
M  V30 6132 C 602.871 -2.76634 4.43024 0
M  V30 6133 H 604.565 -1.34307 2.67585 0
M  V30 6134 H 602.111 -0.644678 1.28763 0
M  V30 6135 H 604.064 -3.69284 2.02995 0
M  V30 6136 H 602.788 -3.13369 0.920179 0
M  V30 6137 H 601.447 -2.27706 2.87307 0
M  V30 6138 H 601.095 -4.60382 2.02626 0
M  V30 6139 H 600.795 -4.49946 3.77918 0
M  V30 6140 H 602.319 -5.21312 3.17909 0
M  V30 6141 H 603.733 -3.43376 4.59093 0
M  V30 6142 H 602.13 -2.95666 5.22208 0
M  V30 6143 H 603.2 -1.72262 4.5327 0
M  V30 6144 N 604.543 -1.41418 -0.695603 0
M  V30 6145 C 605.82 -1.31264 -1.45014 0
M  V30 6146 C 606.2 0.0597994 -2.11015 0
M  V30 6147 O 605.548 1.07403 -2.01685 0
M  V30 6148 C 605.758 -2.466 -2.4696 0
M  V30 6149 C 607.106 -2.87763 -3.12214 0
M  V30 6150 O 608.13 -2.46339 -2.57285 0
M  V30 6151 O 606.989 -3.59395 -4.11701 0
M  V30 6152 H 604.083 -0.516576 -0.645816 0
M  V30 6153 H 606.629 -1.53382 -0.726084 0
M  V30 6154 H 605.401 -3.38183 -1.96845 0
M  V30 6155 H 605.024 -2.26358 -3.26876 0
M  V30 6156 N 606.021 0.929856 -1.27246 0
M  V30 6157 C 607.268 1.67731 -1.13457 0
M  V30 6158 C 607.596 1.9185 0.319998 0
M  V30 6159 O 606.851 1.50524 1.25064 0
M  V30 6160 C 607.15 3.05116 -1.86115 0
M  V30 6161 C 606.816 3.00715 -3.35978 0
M  V30 6162 C 605.478 2.99222 -3.76855 0
M  V30 6163 C 607.83 2.92168 -4.3161 0
M  V30 6164 C 605.158 2.86962 -5.11732 0
M  V30 6165 C 607.51 2.81449 -5.66542 0
M  V30 6166 C 606.174 2.78305 -6.06715 0
M  V30 6167 H 605.444 0.613772 -0.415168 0
M  V30 6168 H 608.091 1.08456 -1.57827 0
M  V30 6169 H 606.396 3.68083 -1.34246 0
M  V30 6170 H 608.093 3.61822 -1.72876 0
M  V30 6171 H 604.683 3.02664 -3.03468 0
M  V30 6172 H 608.867 2.92421 -4.01003 0
M  V30 6173 H 604.123 2.82913 -5.42006 0
M  V30 6174 H 608.297 2.738 -6.40317 0
M  V30 6175 H 605.924 2.68561 -7.11181 0
M  V30 6176 N 607.499 1.09233 1.13605 0
M  V30 6177 C 608.745 0.828385 1.8511 0
M  V30 6178 C 609.078 -0.64437 1.83198 0
M  V30 6179 O 608.353 -1.47428 1.26867 0
M  V30 6180 C 608.636 1.36167 3.33363 0
M  V30 6181 C 608.489 2.90038 3.438 0
M  V30 6182 C 609.808 0.993819 4.28732 0
M  V30 6183 H 606.927 0.30239 0.672108 0
M  V30 6184 H 609.569 1.35339 1.33355 0
M  V30 6185 H 607.719 0.9151 3.77569 0
M  V30 6186 H 609.391 3.43128 3.08319 0
M  V30 6187 H 607.634 3.27271 2.84739 0
M  V30 6188 H 608.305 3.22428 4.48045 0
M  V30 6189 H 610.781 1.37893 3.92587 0
M  V30 6190 H 609.657 1.39403 5.30903 0
M  V30 6191 H 609.918 -0.0982206 4.41991 0
M  V30 6192 N 608.977 -1.30795 0.87923 0
M  V30 6193 C 609.924 -2.28282 0.339968 0
M  V30 6194 C 610.894 -1.56134 -0.566685 0
M  V30 6195 O 612.079 -1.84231 -0.496338 0
M  V30 6196 C 609.219 -3.42225 -0.444501 0
M  V30 6197 C 608.332 -4.29204 0.490717 0
M  V30 6198 C 607.467 -5.30302 -0.308784 0
M  V30 6199 C 606.506 -6.08929 0.622272 0
M  V30 6200 N 605.643 -7.01957 -0.14155 0
M  V30 6201 H 610.483 -2.73794 1.17647 0
M  V30 6202 H 608.02 -1.34682 0.591527 0
M  V30 6203 H 609.978 -4.07038 -0.915186 0
M  V30 6204 H 608.608 -2.97799 -1.24562 0
M  V30 6205 H 607.66 -3.6475 1.07988 0
M  V30 6206 H 608.972 -4.84045 1.20425 0
M  V30 6207 H 608.126 -6.00835 -0.841575 0
M  V30 6208 H 606.865 -4.7614 -1.05556 0
M  V30 6209 H 605.87 -5.37278 1.16674 0
M  V30 6210 H 607.095 -6.65178 1.36804 0
M  V30 6211 H 605.041 -6.50192 -0.870966 0
M  V30 6212 H 604.958 -7.54261 0.51246 0
M  V30 6213 H 606.226 -7.76741 -0.655271 0
M  V30 6214 N 610.455 -0.639598 -1.44038 0
M  V30 6215 C 611.704 -0.144885 -2.01179 0
M  V30 6216 C 612.017 1.24372 -1.50967 0
M  V30 6217 O 613.223 1.83291 -2.00292 0
M  V30 6218 C 611.679 -0.208244 -3.59297 0
M  V30 6219 C 611.287 -1.59869 -4.18504 0
M  V30 6220 C 613.031 0.229568 -4.23879 0
M  V30 6221 C 610.938 -1.61671 -5.68873 0
M  V30 6222 H 609.868 -0.0504005 -0.752314 0
M  V30 6223 H 612.519 -0.799639 -1.65161 0
M  V30 6224 H 610.901 0.513767 -3.92653 0
M  V30 6225 H 612.075 -2.34496 -3.96671 0
M  V30 6226 H 610.39 -1.98131 -3.66242 0
M  V30 6227 H 612.987 0.235758 -5.3418 0
M  V30 6228 H 613.33 1.25848 -3.96822 0
M  V30 6229 H 613.863 -0.440233 -3.95357 0
M  V30 6230 H 610.602 -2.62427 -6.00677 0
M  V30 6231 H 610.122 -0.913489 -5.92803 0
M  V30 6232 H 611.801 -1.35439 -6.32665 0
M  V30 6233 N 611.933 1.52934 -0.380664 0
M  V30 6234 C 613.182 2.00651 0.205477 0
M  V30 6235 C 613.495 1.27164 1.48623 0
M  V30 6236 O 614.701 1.65547 2.15189 0
M  V30 6237 C 613.157 3.57479 0.416726 0
M  V30 6238 C 612.765 4.39857 -0.850268 0
M  V30 6239 C 614.509 4.13509 0.959702 0
M  V30 6240 C 612.416 5.88269 -0.607773 0
M  V30 6241 H 611.346 0.749684 0.0805614 0
M  V30 6242 H 613.997 1.76508 -0.501732 0
M  V30 6243 H 612.379 3.77836 1.18557 0
M  V30 6244 H 613.553 4.31269 -1.62307 0
M  V30 6245 H 611.868 3.95005 -1.31756 0
M  V30 6246 H 614.465 5.22039 1.15669 0
M  V30 6247 H 614.808 3.69054 1.92626 0
M  V30 6248 H 615.341 3.9701 0.250645 0
M  V30 6249 H 612.08 6.3703 -1.54509 0
M  V30 6250 H 611.6 5.99667 0.126247 0
M  V30 6251 H 613.279 6.46558 -0.239014 0
M  V30 6252 N 613.412 0.11024 1.57214 0
M  V30 6253 C 614.64 -0.557834 1.99238 0
M  V30 6254 C 615.055 -1.60778 0.989734 0
M  V30 6255 O 614.412 -1.82491 -0.0186092 0
M  V30 6256 C 614.463 -1.19189 3.41286 0
M  V30 6257 O 614.184 -0.183919 4.37714 0
M  V30 6258 C 615.685 -1.94413 3.98395 0
M  V30 6259 H 612.905 -0.148392 0.654386 0
M  V30 6260 H 615.449 0.193996 2.03578 0
M  V30 6261 H 613.604 -1.89456 3.37913 0
M  V30 6262 H 614.018 -0.643475 5.20538 0
M  V30 6263 H 615.492 -2.34116 4.99894 0
M  V30 6264 H 615.969 -2.81592 3.3705 0
M  V30 6265 H 616.575 -1.28928 4.05287 0
M  V30 6266 N 614.89 -1.56749 -0.16351 0
M  V30 6267 C 616.139 -1.81626 -0.877211 0
M  V30 6268 C 616.452 -0.688791 -1.83071 0
M  V30 6269 O 617.658 -0.822697 -2.58735 0
M  V30 6270 C 616.114 -3.21858 -1.61045 0
M  V30 6271 C 615.722 -4.42494 -0.700195 0
M  V30 6272 C 617.466 -3.56021 -2.31192 0
M  V30 6273 C 615.373 -5.73748 -1.43412 0
M  V30 6274 H 614.303 -0.67731 -0.331312 0
M  V30 6275 H 616.954 -1.83039 -0.13006 0
M  V30 6276 H 615.336 -3.14784 -2.40264 0
M  V30 6277 H 616.51 -4.60766 0.0555849 0
M  V30 6278 H 614.825 -4.1626 -0.10799 0
M  V30 6279 H 617.422 -4.51333 -2.8671 0
M  V30 6280 H 617.765 -2.81277 -3.06902 0
M  V30 6281 H 618.298 -3.64682 -1.58909 0
M  V30 6282 H 615.037 -6.51543 -0.719186 0
M  V30 6283 H 614.557 -5.5944 -2.16302 0
M  V30 6284 H 616.236 -6.15975 -1.9795 0
M  V30 6285 N 616.368 0.432326 -1.51554 0
M  V30 6286 C 617.298 1.53242 -1.76179 0
M  V30 6287 C 618.279 1.58717 -0.611801 0
M  V30 6288 O 619.464 1.74364 -0.855033 0
M  V30 6289 C 616.594 2.91278 -1.89141 0
M  V30 6290 C 615.548 3.00663 -3.04608 0
M  V30 6291 C 614.874 4.40728 -3.02759 0
M  V30 6292 C 616.174 2.74281 -4.44485 0
M  V30 6293 H 617.868 1.32886 -2.68294 0
M  V30 6294 H 615.414 0.637841 -1.29103 0
M  V30 6295 H 617.367 3.68203 -2.04951 0
M  V30 6296 H 616.091 3.12877 -0.936785 0
M  V30 6297 H 614.75 2.26179 -2.88511 0
M  V30 6298 H 614.398 4.59301 -2.05065 0
M  V30 6299 H 614.098 4.47936 -3.80299 0
M  V30 6300 H 615.622 5.19619 -3.20669 0
M  V30 6301 H 617.036 3.40936 -4.60907 0
M  V30 6302 H 615.433 2.92893 -5.23769 0
M  V30 6303 H 616.503 1.69856 -4.54177 0
M  V30 6304 N 617.846 1.41785 0.688094 0
M  V30 6305 C 619.092 1.41753 1.4503 0
M  V30 6306 C 619.425 0.0290745 1.94178 0
M  V30 6307 O 618.7 -0.944456 1.7003 0
M  V30 6308 C 618.983 2.43069 2.65686 0
M  V30 6309 C 618.836 3.91053 2.22256 0
M  V30 6310 C 620.155 2.41543 3.67893 0
M  V30 6311 H 617.274 0.516202 0.526027 0
M  V30 6312 H 619.916 1.73111 0.783105 0
M  V30 6313 H 618.066 2.1646 3.2261 0
M  V30 6314 H 619.738 4.28594 1.70602 0
M  V30 6315 H 617.981 4.05559 1.53963 0
M  V30 6316 H 618.652 4.57501 3.08863 0
M  V30 6317 H 621.128 2.65175 3.20658 0
M  V30 6318 H 620.004 3.14434 4.49914 0
M  V30 6319 H 620.265 1.43666 4.18106 0
M  V30 6320 N 619.324 -0.923095 1.27737 0
M  V30 6321 C 620.552 -1.70525 1.17171 0
M  V30 6322 C 620.967 -1.86847 -0.270881 0
M  V30 6323 O 620.324 -1.38879 -1.18401 0
M  V30 6324 C 620.375 -3.10242 1.85559 0
M  V30 6325 O 620.096 -2.94683 3.24182 0
M  V30 6326 C 621.597 -4.04586 1.81176 0
M  V30 6327 H 618.817 -0.533347 0.407163 0
M  V30 6328 H 621.361 -1.15599 1.68692 0
M  V30 6329 H 619.516 -3.62014 1.3793 0
M  V30 6330 H 619.93 -3.83045 3.58297 0
M  V30 6331 H 621.404 -5.00119 2.33633 0
M  V30 6332 H 621.881 -4.3218 0.782099 0
M  V30 6333 H 622.487 -3.58741 2.2844 0
M  V30 6334 N 620.802 -1.09834 -1.13024 0
M  V30 6335 C 621.765 -0.745058 -2.16752 0
M  V30 6336 C 622.765 0.227435 -1.59183 0
M  V30 6337 O 623.955 0.0050786 -1.74199 0
M  V30 6338 C 621.087 -0.102543 -3.40746 0
M  V30 6339 H 622.28 -1.66375 -2.49518 0
M  V30 6340 H 619.833 -0.898061 -1.27924 0
M  V30 6341 H 620.568 0.827177 -3.13573 0
M  V30 6342 H 620.353 -0.80235 -3.83803 0
M  V30 6343 H 621.843 0.129082 -4.174 0
M  V30 6344 N 622.28 1.30327 -0.886154 0
M  V30 6345 C 623.508 2.00254 -0.520176 0
M  V30 6346 C 623.923 1.66419 0.891637 0
M  V30 6347 O 623.28 0.901951 1.58654 0
M  V30 6348 C 623.331 3.54916 -0.686775 0
M  V30 6349 O 623.052 3.87547 -2.04301 0
M  V30 6350 C 624.553 4.42115 -0.323945 0
M  V30 6351 H 621.773 0.640204 -0.200947 0
M  V30 6352 H 624.317 1.66183 -1.19178 0
M  V30 6353 H 622.472 3.8735 -0.0625273 0
M  V30 6354 H 622.886 4.82247 -2.06249 0
M  V30 6355 H 624.36 5.49808 -0.491407 0
M  V30 6356 H 624.837 4.32953 0.73811 0
M  V30 6357 H 625.443 4.15129 -0.924565 0
M  V30 6358 N 623.758 0.647228 1.43697 0
M  V30 6359 C 624.721 -0.0385101 2.29168 0
M  V30 6360 C 625.721 -0.756487 1.41894 0
M  V30 6361 O 626.911 -0.598641 1.63591 0
M  V30 6362 C 624.043 -1.06524 3.23829 0
M  V30 6363 H 625.236 0.713445 2.9129 0
M  V30 6364 H 622.789 0.408153 1.50877 0
M  V30 6365 H 623.524 -1.84664 2.66589 0
M  V30 6366 H 623.309 -0.554147 3.88164 0
M  V30 6367 H 624.799 -1.54432 3.87996 0
M  V30 6368 N 625.236 -1.5273 0.388769 0
M  V30 6369 C 626.461 -2.0647 -0.19621 0
M  V30 6370 C 626.886 -1.25865 -1.39784 0
M  V30 6371 O 626.244 -0.283562 -1.79069 0
M  V30 6372 C 626.292 -3.56456 -0.5451 0
M  V30 6373 O 625.396 -3.78426 -1.63912 0
M  V30 6374 H 624.737 -0.663599 -0.023067 0
M  V30 6375 H 627.267 -1.96898 0.556084 0
M  V30 6376 H 627.277 -3.99888 -0.809557 0
M  V30 6377 H 625.952 -4.14561 0.333417 0
M  V30 6378 H 624.529 -3.46884 -1.36842 0
M  V30 6379 N 626.714 -0.118576 -1.57153 0
M  V30 6380 C 627.939 0.550582 -1.99958 0
M  V30 6381 C 628.364 1.59458 -0.997736 0
M  V30 6382 O 627.722 1.81274 0.0306269 0
M  V30 6383 C 627.77 1.15379 -3.41643 0
M  V30 6384 O 626.874 2.26932 -3.44348 0
M  V30 6385 H 626.215 0.137567 -0.649593 0
M  V30 6386 H 628.745 -0.206926 -2.03551 0
M  V30 6387 H 628.755 1.48942 -3.79843 0
M  V30 6388 H 627.43 0.389087 -4.14076 0
M  V30 6389 H 626.007 1.94812 -3.17967 0
M  V30 6390 N 628.193 1.56834 0.155195 0
M  V30 6391 C 629.439 1.83169 0.870467 0
M  V30 6392 C 629.772 0.698929 1.81187 0
M  V30 6393 O 629.047 -0.298035 1.92203 0
M  V30 6394 C 629.33 3.19965 1.65211 0
M  V30 6395 C 629.183 4.43792 0.732744 0
M  V30 6396 C 630.502 3.53885 2.61636 0
M  V30 6397 H 627.621 0.666288 0.315006 0
M  V30 6398 H 630.263 1.89513 0.135988 0
M  V30 6399 H 628.413 3.14687 2.27825 0
M  V30 6400 H 630.085 4.61148 0.118236 0
M  V30 6401 H 628.328 4.3378 0.0417906 0
M  V30 6402 H 628.999 5.36095 1.31552 0
M  V30 6403 H 631.475 3.5972 2.09143 0
M  V30 6404 H 630.351 4.50648 3.13381 0
M  V30 6405 H 630.612 2.79418 3.42605 0
M  V30 6406 N 629.671 -0.424282 1.51781 0
M  V30 6407 C 630.919 -1.17028 1.64769 0
M  V30 6408 C 631.24 -1.91409 0.372523 0
M  V30 6409 O 630.51 -1.86091 -0.612108 0
M  V30 6410 H 629.09 -0.434992 0.607282 0
M  V30 6411 H 631.752 -0.485169 1.88765 0
M  V30 6412 H 630.848 -1.8927 2.4816 0
M  V30 6413 N 631.149 -1.42148 -0.680565 0
M  V30 6414 C 632.112 -1.4488 -1.77602 0
M  V30 6415 C 633.112 -0.337209 -1.57224 0
M  V30 6416 O 634.302 -0.597778 -1.63622 0
M  V30 6417 C 631.434 -1.27483 -3.16166 0
M  V30 6418 H 632.627 -2.42412 -1.76568 0
M  V30 6419 H 630.18 -1.28511 -0.889645 0
M  V30 6420 H 630.915 -0.30851 -3.22829 0
M  V30 6421 H 630.7 -2.08037 -3.3236 0
M  V30 6422 H 632.19 -1.32265 -3.96101 0
M  V30 6423 N 632.627 0.916307 -1.28225 0
M  V30 6424 C 633.59 1.99996 -1.11957 0
M  V30 6425 C 634.59 1.60688 -0.0600152 0
M  V30 6426 O 635.78 1.71499 -0.30558 0
M  V30 6427 C 632.912 3.33458 -0.708411 0
M  V30 6428 H 634.105 2.15858 -2.08196 0
M  V30 6429 H 631.658 1.09863 -1.11175 0
M  V30 6430 H 632.393 3.23297 0.254859 0
M  V30 6431 H 632.178 3.63349 -1.47377 0
M  V30 6432 H 633.668 4.13014 -0.617164 0
M  V30 6433 N 634.105 1.10431 1.1244 0
M  V30 6434 C 635.353 0.845045 1.83585 0
M  V30 6435 C 635.674 -0.631168 1.84503 0
M  V30 6436 O 634.944 -1.45825 1.30813 0
M  V30 6437 H 633.524 0.309628 0.679809 0
M  V30 6438 H 636.186 1.39458 1.36153 0
M  V30 6439 H 635.282 1.20786 2.8778 0
M  V30 6440 N 635.583 -1.29855 0.893053 0
M  V30 6441 C 636.832 -1.95104 0.511597 0
M  V30 6442 C 637.145 -1.71226 -0.945567 0
M  V30 6443 O 638.351 -2.30525 -1.43424 0
M  V30 6444 C 636.807 -3.49374 0.864034 0
M  V30 6445 C 636.415 -3.82061 2.33952 0
M  V30 6446 C 638.159 -4.20894 0.552167 0
M  V30 6447 C 636.066 -5.29546 2.63316 0
M  V30 6448 H 634.996 -0.73029 0.187597 0
M  V30 6449 H 637.647 -1.47682 1.08914 0
M  V30 6450 H 636.029 -3.95413 0.215493 0
M  V30 6451 H 637.203 -3.46904 3.03305 0
M  V30 6452 H 635.518 -3.23665 2.61973 0
M  V30 6453 H 638.115 -5.29435 0.748489 0
M  V30 6454 H 638.458 -4.13178 -0.508924 0
M  V30 6455 H 638.991 -3.80564 1.15825 0
M  V30 6456 H 635.73 -5.4232 3.68197 0
M  V30 6457 H 635.25 -5.65974 1.9858 0
M  V30 6458 H 636.929 -5.97068 2.49236 0
M  V30 6459 N 637.061 -0.65484 -1.43351 0
M  V30 6460 C 638.472 -0.248506 -1.85039 0
M  V30 6461 C 638.823 1.20526 -1.54816 0
M  V30 6462 O 637.948 1.92016 -0.99794 0
M  V30 6463 C 638.543 -0.444241 -3.35875 0
M  V30 6464 C 637.102 -0.0922108 -3.76287 0
M  V30 6465 C 636.249 -0.746327 -2.67068 0
M  V30 6466 H 639.2 -0.8584 -1.33481 0
M  V30 6467 H 639.221 0.309762 -3.79237 0
M  V30 6468 H 638.733 -1.50239 -3.5784 0
M  V30 6469 H 636.834 0.96328 -3.59933 0
M  V30 6470 H 636.947 -0.518807 -4.76283 0
M  V30 6471 H 635.311 -0.179416 -2.54067 0
M  V30 6472 H 636.094 -1.80754 -2.91861 0
M  V30 6473 N 638.539 1.52521 -0.396863 0
M  V30 6474 C 639.502 2.2527 0.422604 0
M  V30 6475 C 640.502 1.27184 0.983913 0
M  V30 6476 O 641.692 1.51222 0.864723 0
M  V30 6477 C 638.824 3.01356 1.59365 0
M  V30 6478 H 640.017 2.99133 -0.214416 0
M  V30 6479 H 637.57 1.55587 -0.149128 0
M  V30 6480 H 638.305 2.31813 2.26789 0
M  V30 6481 H 638.09 3.73357 1.19779 0
M  V30 6482 H 639.58 3.56571 2.17363 0
M  V30 6483 N 640.017 0.126909 1.57088 0
M  V30 6484 C 641.265 -0.528123 1.95078 0
M  V30 6485 C 641.586 -1.66708 1.0116 0
M  V30 6486 O 640.856 -1.95777 0.0693527 0
M  V30 6487 H 639.436 -0.198087 0.720257 0
M  V30 6488 H 642.098 0.197703 1.93895 0
M  V30 6489 H 641.194 -0.917507 2.98309 0
M  V30 6490 N 641.495 -1.56914 -0.146875 0
M  V30 6491 C 642.743 -1.82994 -0.85777 0
M  V30 6492 C 643.064 -0.707814 -1.817 0
M  V30 6493 O 642.334 0.270521 -1.94023 0
M  V30 6494 H 640.914 -0.675106 -0.319751 0
M  V30 6495 H 643.576 -1.9439 -0.140849 0
M  V30 6496 H 642.672 -2.77928 -1.41994 0
M  V30 6497 N 642.974 0.416227 -1.52004 0
M  V30 6498 C 644.22 1.16555 -1.6596 0
M  V30 6499 C 644.553 1.90347 -0.384906 0
M  V30 6500 O 643.828 1.84474 0.616405 0
M  V30 6501 C 644.111 2.1657 -2.87696 0
M  V30 6502 C 643.964 1.46722 -4.25197 0
M  V30 6503 C 645.283 3.17321 -3.04951 0
M  V30 6504 H 642.402 0.422369 -0.603965 0
M  V30 6505 H 645.044 0.452141 -1.84542 0
M  V30 6506 H 643.194 2.77411 -2.71985 0
M  V30 6507 H 644.866 0.89056 -4.52622 0
M  V30 6508 H 643.109 0.769263 -4.26925 0
M  V30 6509 H 643.78 2.19665 -5.0641 0
M  V30 6510 H 646.256 2.66552 -3.19514 0
M  V30 6511 H 645.132 3.84573 -3.91656 0
M  V30 6512 H 645.393 3.84643 -2.17951 0
M  V30 6513 N 644.452 1.42507 0.673017 0
M  V30 6514 C 645.382 1.48916 1.79851 0
M  V30 6515 C 646.363 0.345566 1.66553 0
M  V30 6516 O 647.548 0.560116 1.85947 0
M  V30 6517 C 644.678 1.39258 3.18158 0
M  V30 6518 C 643.632 2.51662 3.46194 0
M  V30 6519 C 642.958 2.27062 4.84094 0
M  V30 6520 C 644.258 3.93968 3.42909 0
M  V30 6521 H 645.952 2.43114 1.74745 0
M  V30 6522 H 643.498 1.17013 0.839288 0
M  V30 6523 H 645.451 1.42349 3.96629 0
M  V30 6524 H 644.175 0.415542 3.23946 0
M  V30 6525 H 642.834 2.47891 2.70084 0
M  V30 6526 H 642.482 1.27648 4.86534 0
M  V30 6527 H 642.182 3.02398 5.03815 0
M  V30 6528 H 643.706 2.31905 5.64847 0
M  V30 6529 H 645.12 3.99332 4.11347 0
M  V30 6530 H 643.517 4.6917 3.74165 0
M  V30 6531 H 644.587 4.20512 2.41449 0
M  V30 6532 N 645.93 -0.909495 1.28709 0
M  V30 6533 C 647.158 -1.69272 1.18973 0
M  V30 6534 C 647.573 -1.87123 -0.251048 0
M  V30 6535 O 646.93 -1.40127 -1.16922 0
M  V30 6536 C 646.981 -3.08257 1.88839 0
M  V30 6537 O 646.702 -2.91228 3.27289 0
M  V30 6538 C 648.203 -4.02642 1.85457 0
M  V30 6539 H 645.423 -0.528999 0.412797 0
M  V30 6540 H 647.967 -1.13803 1.69909 0
M  V30 6541 H 646.122 -3.6053 1.41762 0
M  V30 6542 H 646.536 -3.79223 3.6234 0
M  V30 6543 H 648.01 -4.97613 2.38925 0
M  V30 6544 H 648.487 -4.31327 0.827893 0
M  V30 6545 H 649.093 -3.56298 2.32233 0
M  V30 6546 N 647.408 -1.11026 -1.11852 0
M  V30 6547 C 648.338 -0.786812 -2.19844 0
M  V30 6548 C 649.319 0.242935 -1.68356 0
M  V30 6549 O 650.504 0.107355 -1.93903 0
M  V30 6550 C 647.634 -0.224516 -3.46574 0
M  V30 6551 C 646.588 -1.18564 -4.1125 0
M  V30 6552 C 645.914 -0.484261 -5.32503 0
M  V30 6553 C 647.214 -2.53465 -4.56676 0
M  V30 6554 H 648.908 -1.68978 -2.47158 0
M  V30 6555 H 646.454 -0.813906 -1.18792 0
M  V30 6556 H 648.407 0.0139435 -4.21398 0
M  V30 6557 H 647.131 0.713722 -3.18706 0
M  V30 6558 H 645.79 -1.40966 -3.38414 0
M  V30 6559 H 645.438 0.458646 -5.00905 0
M  V30 6560 H 645.138 -1.12526 -5.76725 0
M  V30 6561 H 646.662 -0.254492 -6.10069 0
M  V30 6562 H 648.076 -2.35177 -5.22843 0
M  V30 6563 H 646.473 -3.13507 -5.11697 0
M  V30 6564 H 647.543 -3.13008 -3.70343 0
M  V30 6565 N 648.886 1.2938 -0.899927 0
M  V30 6566 C 649.849 2.25983 -0.382677 0
M  V30 6567 C 650.849 1.53366 0.483259 0
M  V30 6568 O 652.039 1.71798 0.28828 0
M  V30 6569 C 649.171 3.37878 0.452915 0
M  V30 6570 H 650.364 2.73252 -1.23586 0
M  V30 6571 H 647.917 1.40825 -0.678088 0
M  V30 6572 H 648.652 2.95949 1.32608 0
M  V30 6573 H 648.437 3.91742 -0.167562 0
M  V30 6574 H 649.927 4.09746 0.806107 0
M  V30 6575 N 650.364 0.662433 1.43002 0
M  V30 6576 C 651.613 0.176873 2.00923 0
M  V30 6577 C 651.926 -1.21954 1.52927 0
M  V30 6578 O 653.132 -1.80081 2.03182 0
M  V30 6579 C 651.588 0.265379 3.5892 0
M  V30 6580 C 651.196 1.66507 4.15908 0
M  V30 6581 C 652.94 -0.162103 4.2419 0
M  V30 6582 C 650.847 1.707 5.66229 0
M  V30 6583 H 649.777 0.0623627 0.751417 0
M  V30 6584 H 652.428 0.825813 1.63868 0
M  V30 6585 H 650.81 -0.451235 3.93421 0
M  V30 6586 H 651.984 2.40777 3.92891 0
M  V30 6587 H 650.299 2.03932 3.63044 0
M  V30 6588 H 652.896 -0.150745 5.34487 0
M  V30 6589 H 653.239 -1.19519 3.98774 0
M  V30 6590 H 653.772 0.503075 3.94606 0
M  V30 6591 H 650.511 2.7195 5.96426 0
M  V30 6592 H 650.031 1.00768 5.91275 0
M  V30 6593 H 651.71 1.45487 6.3043 0
M  V30 6594 N 651.842 -1.52309 0.404946 0
M  V30 6595 C 653.091 -2.00952 -0.173529 0
M  V30 6596 C 653.404 -1.29512 -1.46581 0
M  V30 6597 O 654.61 -1.6895 -2.12528 0
M  V30 6598 C 653.066 -3.58097 -0.359801 0
M  V30 6599 C 652.674 -4.38449 0.920138 0
M  V30 6600 C 654.418 -4.14984 -0.893794 0
M  V30 6601 C 652.325 -5.87227 0.701285 0
M  V30 6602 H 651.255 -0.750871 -0.0686244 0
M  V30 6603 H 653.906 -1.75687 0.529749 0
M  V30 6604 H 652.288 -3.79675 -1.12531 0
M  V30 6605 H 653.462 -4.28633 1.69147 0
M  V30 6606 H 651.777 -3.92859 1.38024 0
M  V30 6607 H 654.374 -5.23813 -1.0735 0
M  V30 6608 H 654.717 -3.72072 -1.8673 0
M  V30 6609 H 655.25 -3.97358 -0.187453 0
M  V30 6610 H 651.989 -6.34491 1.64624 0
M  V30 6611 H 651.509 -5.99792 -0.0308288 0
M  V30 6612 H 653.188 -6.46096 0.341846 0
M  V30 6613 N 653.32 -0.135238 -1.57019 0
M  V30 6614 C 654.25 0.805235 -2.19176 0
M  V30 6615 C 655.231 1.2656 -1.13651 0
M  V30 6616 O 656.416 1.32528 -1.4195 0
M  V30 6617 C 653.546 2.04914 -2.80406 0
M  V30 6618 C 652.5 1.72598 -3.91655 0
M  V30 6619 C 651.826 3.04154 -4.39766 0
M  V30 6620 C 653.126 0.981709 -5.12991 0
M  V30 6621 H 654.82 0.287232 -2.98019 0
M  V30 6622 H 652.366 0.136714 -1.4335 0
M  V30 6623 H 654.319 2.71178 -3.22553 0
M  V30 6624 H 653.043 2.59067 -1.98877 0
M  V30 6625 H 651.702 1.08717 -3.50109 0
M  V30 6626 H 651.35 3.56274 -3.55075 0
M  V30 6627 H 651.05 2.83299 -5.14796 0
M  V30 6628 H 652.574 3.71509 -4.84576 0
M  V30 6629 H 653.988 1.5462 -5.52056 0
M  V30 6630 H 652.385 0.873533 -5.93708 0
M  V30 6631 H 653.455 -0.0286887 -4.84892 0
M  V30 6632 N 654.798 1.5699 0.138552 0
M  V30 6633 C 655.708 2.02174 1.19008 0
M  V30 6634 C 656.724 0.938622 1.46512 0
M  V30 6635 O 657.9 1.24872 1.58016 0
M  V30 6636 C 654.965 2.40045 2.50159 0
M  V30 6637 C 654.026 3.62346 2.30226 0
M  V30 6638 C 653.259 3.98401 3.55123 0
M  V30 6639 O 653.482 3.35019 4.61647 0
M  V30 6640 O 652.416 4.91606 3.47285 0
M  V30 6641 H 656.242 2.91954 0.836452 0
M  V30 6642 H 653.827 1.45293 0.347907 0
M  V30 6643 H 655.709 2.65225 3.27465 0
M  V30 6644 H 654.384 1.53417 2.85035 0
M  V30 6645 H 653.291 3.42341 1.50843 0
M  V30 6646 H 654.624 4.49617 2.00262 0
M  V30 6647 N 656.276 -0.40816 1.52223 0
M  V30 6648 C 657.239 -1.48 1.7501 0
M  V30 6649 C 658.239 -1.48367 0.619996 0
M  V30 6650 O 659.429 -1.49874 0.887881 0
M  V30 6651 C 656.561 -2.87403 1.83336 0
M  V30 6652 H 657.754 -1.29086 2.70697 0
M  V30 6653 H 655.307 -0.638715 1.42654 0
M  V30 6654 H 656.042 -3.11686 0.895677 0
M  V30 6655 H 655.827 -2.8854 2.65494 0
M  V30 6656 H 657.317 -3.65103 2.02705 0
M  V30 6657 N 657.755 -1.42862 -0.66545 0
M  V30 6658 C 659.001 -1.44043 -1.42757 0
M  V30 6659 C 659.334 -0.0599629 -1.94107 0
M  V30 6660 O 658.609 0.917286 -1.71511 0
M  V30 6661 C 658.892 -2.47266 -2.61786 0
M  V30 6662 C 658.745 -3.94539 -2.16007 0
M  V30 6663 C 660.064 -2.47365 -3.64003 0
M  V30 6664 H 657.183 -0.524506 -0.517748 0
M  V30 6665 H 659.825 -1.74335 -0.755466 0
M  V30 6666 H 657.975 -2.21565 -3.19126 0
M  V30 6667 H 659.647 -4.31254 -1.63762 0
M  V30 6668 H 657.89 -4.07957 -1.47491 0
M  V30 6669 H 658.561 -4.62357 -3.01546 0
M  V30 6670 H 661.037 -2.70243 -3.16399 0
M  V30 6671 H 659.913 -3.21552 -4.44854 0
M  V30 6672 H 660.174 -1.50299 -4.15767 0
M  V30 6673 N 659.233 0.902656 -1.29189 0
M  V30 6674 C 660.181 2.0278 -1.13943 0
M  V30 6675 C 661.175 1.69308 -0.055787 0
M  V30 6676 O 662.381 1.78707 -0.215371 0
M  V30 6677 H 658.756 0.664595 -0.351877 0
M  V30 6678 H 660.727 2.12778 -2.09208 0
M  V30 6679 C 659.476 3.37657 -0.82966 0
M  V30 6680 H 658.799 3.63913 -1.65551 0
M  V30 6681 H 660.239 4.17078 -0.762998 0
M  V30 6682 C 658.698 3.33648 0.466991 0
M  V30 6683 O 659.228 3.72886 1.49395 0
M  V30 6684 N 657.434 2.86745 0.471761 0
M  V30 6685 H 656.981 2.55009 -0.364406 0
M  V30 6686 H 656.939 2.84446 1.33933 0
M  V30 6687 N 660.711 1.11618 1.11262 0
M  V30 6688 C 661.641 0.79846 2.19424 0
M  V30 6689 C 662.622 -0.234003 1.68483 0
M  V30 6690 O 663.807 -0.0970704 1.93957 0
M  V30 6691 C 660.937 0.242892 3.4645 0
M  V30 6692 C 659.891 1.20744 4.10615 0
M  V30 6693 C 659.217 0.512494 5.32238 0
M  V30 6694 C 660.517 2.55884 4.55325 0
M  V30 6695 H 662.211 1.70286 2.46258 0
M  V30 6696 H 659.757 0.820195 1.18359 0
M  V30 6697 H 661.71 0.00840447 4.21399 0
M  V30 6698 H 660.434 -0.696811 3.1908 0
M  V30 6699 H 659.093 1.42759 3.37662 0
M  V30 6700 H 658.741 -0.432075 5.01141 0
M  V30 6701 H 658.441 1.15583 5.7612 0
M  V30 6702 H 659.965 0.286842 6.09926 0
M  V30 6703 H 661.379 2.37946 5.21588 0
M  V30 6704 H 659.776 3.16216 5.10027 0
M  V30 6705 H 660.846 3.14968 3.68678 0
M  V30 6706 N 662.189 -1.289 0.906776 0
M  V30 6707 C 663.6 -1.77336 0.58384 0
M  V30 6708 C 663.951 -1.74304 -0.900697 0
M  V30 6709 O 663.076 -1.33335 -1.70443 0
M  V30 6710 C 663.671 -3.22019 1.05304 0
M  V30 6711 C 662.23 -3.68205 0.781148 0
M  V30 6712 C 661.377 -2.48837 1.22373 0
M  V30 6713 H 664.328 -1.15462 1.08877 0
M  V30 6714 H 664.349 -3.78481 0.391414 0
M  V30 6715 H 663.861 -3.24194 2.13353 0
M  V30 6716 H 661.962 -3.71497 -0.28643 0
M  V30 6717 H 662.075 -4.58675 1.384 0
M  V30 6718 H 660.439 -2.46461 0.642594 0
M  V30 6719 H 661.222 -2.53736 2.31242 0
M  V30 6720 N 663.667 -0.670007 -1.42649 0
M  V30 6721 C 664.913 -0.190568 -2.01903 0
M  V30 6722 C 665.246 1.19817 -1.52832 0
M  V30 6723 O 664.521 1.80342 -0.728485 0
M  V30 6724 C 664.804 -0.21991 -3.59428 0
M  V30 6725 C 664.657 -1.64376 -4.18689 0
M  V30 6726 C 665.976 0.434519 -4.3795 0
M  V30 6727 H 663.095 -0.0707219 -0.733599 0
M  V30 6728 H 665.737 -0.853883 -1.69732 0
M  V30 6729 H 663.887 0.344894 -3.86966 0
M  V30 6730 H 665.559 -2.26044 -4.02122 0
M  V30 6731 H 663.802 -2.18591 -3.747 0
M  V30 6732 H 664.473 -1.61601 -5.27815 0
M  V30 6733 H 666.949 -0.0462156 -4.16074 0
M  V30 6734 H 665.825 0.38333 -5.4756 0
M  V30 6735 H 666.086 1.51135 -4.15464 0
M  V30 6736 N 665.145 1.52092 -0.413018 0
M  V30 6737 C 666.422 1.94356 0.22024 0
M  V30 6738 C 666.802 1.35017 1.62277 0
M  V30 6739 O 666.15 0.527511 2.22328 0
M  V30 6740 C 666.36 3.48289 0.222638 0
M  V30 6741 C 667.708 4.22313 0.440098 0
M  V30 6742 O 668.732 3.54919 0.301826 0
M  V30 6743 O 667.591 5.41829 0.712984 0
M  V30 6744 H 664.685 0.814536 0.14304 0
M  V30 6745 H 667.231 1.63083 -0.469242 0
M  V30 6746 H 666.003 3.83872 -0.758836 0
M  V30 6747 H 665.626 3.85934 0.956057 0
M  V30 6748 N 666.623 0.143563 1.56945 0
M  V30 6749 C 667.573 -0.809115 2.1316 0
M  V30 6750 C 668.557 -1.21176 1.05855 0
M  V30 6751 O 669.749 -1.17875 1.3204 0
M  V30 6752 C 666.878 -2.04957 2.75405 0
M  V30 6753 C 665.964 -1.67018 3.89828 0
M  V30 6754 N 666.355 -0.998822 4.9584 0
M  V30 6755 C 664.653 -1.96313 4.00471 0
M  V30 6756 C 665.354 -0.816217 5.75945 0
M  V30 6757 N 664.33 -1.349 5.26596 0
M  V30 6758 H 668.132 -0.286919 2.92496 0
M  V30 6759 H 665.646 -0.0580948 1.62296 0
M  V30 6760 H 667.643 -2.74201 3.14037 0
M  V30 6761 H 666.303 -2.57697 1.97541 0
M  V30 6762 H 667.314 -0.659975 5.13678 0
M  V30 6763 H 663.991 -2.50927 3.33679 0
M  V30 6764 H 665.381 -0.287353 6.71285 0
M  V30 6765 N 668.101 -1.57061 -0.130224 0
M  V30 6766 C 669.35 -1.83446 -0.838488 0
M  V30 6767 C 669.663 -0.727468 -1.81569 0
M  V30 6768 O 670.869 -0.877394 -2.56932 0
M  V30 6769 C 669.325 -3.25201 -1.54182 0
M  V30 6770 C 668.933 -4.4388 -0.606178 0
M  V30 6771 C 670.677 -3.60844 -2.23588 0
M  V30 6772 C 668.584 -5.76661 -1.31209 0
M  V30 6773 H 667.514 -0.684185 -0.316871 0
M  V30 6774 H 670.165 -1.83273 -0.0912059 0
M  V30 6775 H 668.547 -3.1981 -2.33533 0
M  V30 6776 H 669.721 -4.60545 0.153308 0
M  V30 6777 H 668.036 -4.16395 -0.0196705 0
M  V30 6778 H 670.633 -4.57313 -2.77072 0
M  V30 6779 H 670.976 -2.87724 -3.00867 0
M  V30 6780 H 671.509 -3.67971 -1.51137 0
M  V30 6781 H 668.248 -6.52922 -0.580823 0
M  V30 6782 H 667.768 -5.63902 -2.04387 0
M  V30 6783 H 669.447 -6.20035 -1.8484 0
M  V30 6784 N 669.579 0.400081 -1.52437 0
M  V30 6785 C 670.804 1.17221 -1.71096 0
M  V30 6786 C 671.229 1.83269 -0.423565 0
M  V30 6787 O 670.587 1.70378 0.619751 0
M  V30 6788 C 670.635 2.20425 -2.85386 0
M  V30 6789 O 669.739 3.26769 -2.51586 0
M  V30 6790 H 669.08 0.341766 -0.569291 0
M  V30 6791 H 671.61 0.467772 -1.99181 0
M  V30 6792 H 671.62 2.64605 -3.10561 0
M  V30 6793 H 670.295 1.71737 -3.78786 0
M  V30 6794 H 668.872 2.87804 -2.37114 0
M  V30 6795 N 671.057 1.43213 0.657864 0
M  V30 6796 C 671.987 1.50815 1.78262 0
M  V30 6797 C 672.968 0.363211 1.66177 0
M  V30 6798 O 674.153 0.579806 1.85343 0
M  V30 6799 C 671.283 1.42625 3.16663 0
M  V30 6800 C 670.237 2.5532 3.43505 0
M  V30 6801 C 669.563 2.32184 4.81658 0
M  V30 6802 C 670.863 3.97583 3.38711 0
M  V30 6803 H 672.557 2.44954 1.72157 0
M  V30 6804 H 670.103 1.17896 0.82683 0
M  V30 6805 H 672.056 1.46548 3.95097 0
M  V30 6806 H 670.78 0.449877 3.23487 0
M  V30 6807 H 669.439 2.50742 2.6744 0
M  V30 6808 H 669.087 1.32801 4.85153 0
M  V30 6809 H 668.787 3.07724 5.00579 0
M  V30 6810 H 670.311 2.37883 5.62356 0
M  V30 6811 H 671.725 4.03673 4.07089 0
M  V30 6812 H 670.122 4.73112 3.69168 0
M  V30 6813 H 671.192 4.23049 2.36976 0
M  V30 6814 N 672.536 -0.895792 1.29666 0
M  V30 6815 C 673.785 -1.64131 1.17234 0
M  V30 6816 C 674.098 -1.93665 -0.274416 0
M  V30 6817 O 675.304 -2.66472 -0.520105 0
M  V30 6818 C 673.76 -2.95764 2.05065 0
M  V30 6819 C 673.368 -2.7381 3.54587 0
M  V30 6820 C 675.112 -3.737 2.01367 0
M  V30 6821 C 673.019 -4.01194 4.34508 0
M  V30 6822 H 671.949 -0.615742 0.435175 0
M  V30 6823 H 674.6 -0.992626 1.54335 0
M  V30 6824 H 672.982 -3.61867 1.60837 0
M  V30 6825 H 674.156 -2.16277 4.06892 0
M  V30 6826 H 672.471 -2.09265 3.59996 0
M  V30 6827 H 675.068 -4.68152 2.58337 0
M  V30 6828 H 675.411 -4.04245 0.994575 0
M  V30 6829 H 675.944 -3.14444 2.43659 0
M  V30 6830 H 672.683 -3.75813 5.37071 0
M  V30 6831 H 672.203 -4.58272 3.86971 0
M  V30 6832 H 673.882 -4.69307 4.45376 0
M  V30 6833 N 674.014 -1.12206 -1.10668 0
M  V30 6834 C 674.944 -0.810086 -2.18997 0
M  V30 6835 C 675.925 0.225065 -1.68604 0
M  V30 6836 O 677.11 0.086783 -1.94006 0
M  V30 6837 C 674.24 -0.261262 -3.46316 0
M  V30 6838 C 673.194 -1.2292 -4.09969 0
M  V30 6839 C 672.52 -0.540713 -5.31959 0
M  V30 6840 C 673.82 -2.58295 -4.53962 0
M  V30 6841 H 675.514 -1.7159 -2.45352 0
M  V30 6842 H 673.06 -0.82646 -1.17922 0
M  V30 6843 H 675.013 -0.0307522 -4.21389 0
M  V30 6844 H 673.737 0.679879 -3.19445 0
M  V30 6845 H 672.396 -1.44548 -3.369 0
M  V30 6846 H 672.044 0.405492 -5.01363 0
M  V30 6847 H 671.744 -1.18637 -5.75499 0
M  V30 6848 H 673.268 -0.319184 -6.09765 0
M  V30 6849 H 674.682 -2.40709 -5.20319 0
M  V30 6850 H 673.079 -3.18916 -5.08343 0
M  V30 6851 H 674.149 -3.16918 -3.67002 0
M  V30 6852 N 675.492 1.28418 -0.913599 0
M  V30 6853 C 676.455 2.25564 -0.406624 0
M  V30 6854 C 677.455 1.5387 0.466965 0
M  V30 6855 O 678.645 1.72094 0.270042 0
M  V30 6856 C 675.777 3.38339 0.417053 0
M  V30 6857 H 676.97 2.71926 -1.26477 0
M  V30 6858 H 674.523 1.40098 -0.692986 0
M  V30 6859 H 675.258 2.97339 1.29461 0
M  V30 6860 H 675.043 3.91542 -0.209102 0
M  V30 6861 H 676.533 4.10578 0.762602 0
M  V30 6862 N 676.97 0.677563 1.42291 0
M  V30 6863 C 678.216 0.201272 2.01799 0
M  V30 6864 C 678.549 -1.19004 1.53465 0
M  V30 6865 O 677.824 -1.79953 0.738039 0
M  V30 6866 C 678.107 0.238968 3.59306 0
M  V30 6867 C 677.96 1.66594 4.17812 0
M  V30 6868 C 679.279 -0.411287 4.38174 0
M  V30 6869 H 676.398 0.0746114 0.733214 0
M  V30 6870 H 679.04 0.862872 1.69276 0
M  V30 6871 H 677.19 -0.324368 3.87144 0
M  V30 6872 H 678.862 2.28173 4.00917 0
M  V30 6873 H 677.105 2.20576 3.73536 0
M  V30 6874 H 677.776 1.64398 5.26951 0
M  V30 6875 H 680.252 0.0682804 4.16044 0
M  V30 6876 H 679.128 -0.354286 5.47755 0
M  V30 6877 H 679.389 -1.4893 4.1626 0
M  V30 6878 N 678.448 -1.51871 0.421078 0
M  V30 6879 C 679.725 -1.9447 -0.20993 0
M  V30 6880 C 680.105 -1.35875 -1.61558 0
M  V30 6881 O 679.453 -0.539294 -2.22045 0
M  V30 6882 C 679.663 -3.48402 -0.204165 0
M  V30 6883 C 681.011 -4.2254 -0.417696 0
M  V30 6884 O 682.035 -3.55074 -0.282999 0
M  V30 6885 O 680.894 -5.422 -0.684239 0
M  V30 6886 H 677.988 -0.815283 -0.138718 0
M  V30 6887 H 680.534 -1.62832 0.477884 0
M  V30 6888 H 679.306 -3.83464 0.779183 0
M  V30 6889 H 678.929 -3.86436 -0.935576 0
M  V30 6890 N 679.926 -0.151884 -1.56866 0
M  V30 6891 C 681.172 0.492327 -1.97352 0
M  V30 6892 C 681.527 1.62156 -1.03553 0
M  V30 6893 O 680.82 1.91467 -0.0714872 0
M  V30 6894 C 681.014 1.04074 -3.41911 0
M  V30 6895 C 680.843 -0.0338306 -4.49687 0
M  V30 6896 C 679.613 -0.476914 -5.03044 0
M  V30 6897 C 681.811 -0.827105 -5.07606 0
M  V30 6898 N 679.793 -1.53382 -5.9443 0
M  V30 6899 C 681.164 -1.73439 -5.95247 0
M  V30 6900 C 683.219 -0.874351 -4.90163 0
M  V30 6901 C 681.922 -2.68488 -6.67313 0
M  V30 6902 C 683.948 -1.81269 -5.62935 0
M  V30 6903 C 683.31 -2.70749 -6.50288 0
M  V30 6904 H 679.409 0.148822 -0.767708 0
M  V30 6905 H 681.993 -0.247615 -1.93119 0
M  V30 6906 H 680.164 1.75027 -3.46728 0
M  V30 6907 H 681.896 1.65197 -3.69448 0
M  V30 6908 H 678.651 -0.0782493 -4.73535 0
M  V30 6909 H 679.075 -2.06217 -6.44828 0
M  V30 6910 H 683.717 -0.196628 -4.22343 0
M  V30 6911 H 681.435 -3.37257 -7.34359 0
M  V30 6912 H 685.021 -1.85511 -5.51432 0
M  V30 6913 H 683.901 -3.42175 -7.0561 0
M  V30 6914 N 681.404 1.57128 0.121893 0
M  V30 6915 C 682.334 2.03165 1.15092 0
M  V30 6916 C 683.315 0.915587 1.43356 0
M  V30 6917 O 684.5 1.1851 1.53847 0
M  V30 6918 C 681.63 2.43352 2.47784 0
M  V30 6919 C 680.584 3.58376 2.33989 0
M  V30 6920 C 679.91 3.84454 3.71617 0
M  V30 6921 C 681.21 4.90199 1.80283 0
M  V30 6922 H 682.904 2.89382 0.768023 0
M  V30 6923 H 680.45 1.39218 0.367998 0
M  V30 6924 H 682.403 2.74163 3.20019 0
M  V30 6925 H 681.127 1.54103 2.87958 0
M  V30 6926 H 679.786 3.2777 1.64202 0
M  V30 6927 H 679.434 2.92414 4.09271 0
M  V30 6928 H 679.134 4.61877 3.6324 0
M  V30 6929 H 680.658 4.17714 4.45362 0
M  V30 6930 H 682.072 5.19565 2.42333 0
M  V30 6931 H 680.469 5.71601 1.82735 0
M  V30 6932 H 681.539 4.78904 0.760184 0
M  V30 6933 N 682.882 -0.391992 1.52647 0
M  V30 6934 C 684.128 -1.139 1.67793 0
M  V30 6935 C 684.461 -1.89711 0.41514 0
M  V30 6936 O 683.736 -1.85431 -0.586979 0
M  V30 6937 C 684.019 -2.11966 2.91105 0
M  V30 6938 C 683.872 -1.39939 4.27478 0
M  V30 6939 C 685.191 -3.1243 3.09961 0
M  V30 6940 H 682.31 -0.412707 0.610608 0
M  V30 6941 H 684.952 -0.422725 1.85238 0
M  V30 6942 H 683.102 -2.73048 2.76364 0
M  V30 6943 H 684.774 -0.818439 4.53982 0
M  V30 6944 H 683.017 -0.701246 4.28095 0
M  V30 6945 H 683.688 -2.1158 5.09841 0
M  V30 6946 H 686.164 -2.61435 3.23714 0
M  V30 6947 H 685.04 -3.78294 3.97725 0
M  V30 6948 H 685.301 -3.81127 2.24042 0
M  V30 6949 N 684.36 -1.4356 -0.65026 0
M  V30 6950 C 685.637 -1.35811 -1.40765 0
M  V30 6951 C 686.017 -0.00736379 -2.11099 0
M  V30 6952 O 685.365 1.00932 -2.05 0
M  V30 6953 C 685.575 -2.54332 -2.3899 0
M  V30 6954 C 686.923 -2.97551 -3.02901 0
M  V30 6955 O 687.947 -2.544 -2.49317 0
M  V30 6956 O 686.806 -3.72311 -4.00059 0
M  V30 6957 H 683.9 -0.536861 -0.629054 0
M  V30 6958 H 686.446 -1.55615 -0.676919 0
M  V30 6959 H 685.218 -3.44274 -1.85986 0
M  V30 6960 H 684.841 -2.36643 -3.19509 0
M  V30 6961 N 685.838 0.888903 -1.30139 0
M  V30 6962 C 687.254 1.17153 -1.08385 0
M  V30 6963 C 687.454 2.0088 0.157925 0
M  V30 6964 O 686.51 2.37668 0.852652 0
M  V30 6965 C 687.823 1.882 -2.34523 0
M  V30 6966 C 689.371 2.00981 -2.39949 0
M  V30 6967 C 689.846 2.75441 -3.65918 0
M  V30 6968 N 691.337 2.82989 -3.66704 0
M  V30 6969 C 692.072 3.41167 -4.60861 0
M  V30 6970 N 691.568 4.00425 -5.6536 0
M  V30 6971 N 693.361 3.38944 -4.48412 0
M  V30 6972 H 685.512 0.33053 -2.09812 0
M  V30 6973 H 687.775 0.208964 -0.924683 0
M  V30 6974 H 687.481 1.34119 -3.25123 0
M  V30 6975 H 687.355 2.88609 -2.42868 0
M  V30 6976 H 689.742 2.54234 -1.4983 0
M  V30 6977 H 689.823 0.996725 -2.35582 0
M  V30 6978 H 689.467 2.22861 -4.56394 0
M  V30 6979 H 689.397 3.77118 -3.67546 0
M  V30 6980 H 691.888 2.40912 -2.91153 0
M  V30 6981 H 692.201 4.42871 -6.33313 0
M  V30 6982 H 690.546 3.98856 -5.69157 0
M  V30 6983 H 693.737 2.91875 -3.6596 0
M  V30 6984 H 693.91 3.83989 -5.21974 0
M  V30 6985 N 687.317 1.12792 1.10072 0
M  V30 6986 C 688.542 0.908838 1.86427 0
M  V30 6987 C 688.967 -0.536793 1.80278 0
M  V30 6988 O 688.325 -1.38033 1.17543 0
M  V30 6989 C 688.373 1.39295 3.3261 0
M  V30 6990 O 687.477 0.573846 4.08388 0
M  V30 6991 H 686.818 0.326234 0.578331 0
M  V30 6992 H 689.348 1.50094 1.39043 0
M  V30 6993 H 689.358 1.39366 3.83459 0
M  V30 6994 H 688.033 2.44555 3.36401 0
M  V30 6995 H 686.61 0.640438 3.67359 0
M  V30 6996 N 688.795 -1.27931 0.920396 0
M  V30 6997 C 690.035 -1.96459 0.564198 0
M  V30 6998 C 690.399 -1.70802 -0.876967 0
M  V30 6999 O 691.6 -2.32956 -1.34107 0
M  V30 7000 C 689.871 -3.46583 0.872641 0
M  V30 7001 S 691.43 -4.34343 0.623859 0
M  V30 7002 H 688.248 -0.679735 0.208523 0
M  V30 7003 H 690.85 -1.55319 1.18727 0
M  V30 7004 H 689.554 -3.62753 1.91933 0
M  V30 7005 H 689.085 -3.92677 0.238479 0
M  V30 7006 H 691.1 -4.93449 -0.521744 0
M  V30 7007 N 690.273 -0.685099 -1.4193 0
M  V30 7008 C 691.501 -0.220372 -2.05723 0
M  V30 7009 C 691.916 1.12642 -1.51516 0
M  V30 7010 O 691.273 1.70182 -0.659114 0
M  V30 7011 C 691.324 -0.157974 -3.61155 0
M  V30 7012 O 691.045 -1.45156 -4.13354 0
M  V30 7013 C 692.546 0.329009 -4.42077 0
M  V30 7014 H 689.766 -0.104725 -0.662777 0
M  V30 7015 H 692.31 -0.934736 -1.81887 0
M  V30 7016 H 690.465 0.507144 -3.84066 0
M  V30 7017 H 690.879 -1.33172 -5.07312 0
M  V30 7018 H 692.353 0.321559 -5.51063 0
M  V30 7019 H 692.83 1.36608 -4.17414 0
M  V30 7020 H 693.436 -0.304737 -4.24207 0
M  V30 7021 N 691.751 1.51645 -0.429126 0
M  V30 7022 C 692.997 2.02314 0.140286 0
M  V30 7023 C 693.33 1.31314 1.43074 0
M  V30 7024 O 692.605 0.425531 1.89788 0
M  V30 7025 C 692.888 3.5822 0.36749 0
M  V30 7026 C 692.741 4.39846 -0.941039 0
M  V30 7027 C 694.06 4.25055 1.14089 0
M  V30 7028 H 691.179 0.735335 0.0495112 0
M  V30 7029 H 693.821 1.81358 -0.566514 0
M  V30 7030 H 691.971 3.76207 0.969556 0
M  V30 7031 H 693.643 4.33527 -1.57646 0
M  V30 7032 H 691.886 4.05259 -1.54751 0
M  V30 7033 H 692.557 5.47069 -0.73621 0
M  V30 7034 H 695.033 4.11288 0.630986 0
M  V30 7035 H 693.909 5.34038 1.26863 0
M  V30 7036 H 694.17 3.85358 2.16683 0
M  V30 7037 N 693.229 0.160201 1.56784 0
M  V30 7038 C 694.159 -0.770264 2.2043 0
M  V30 7039 C 695.14 -1.24736 1.15651 0
M  V30 7040 O 696.325 -1.30253 1.44041 0
M  V30 7041 C 693.455 -2.00427 2.83631 0
M  V30 7042 C 692.409 -1.66345 3.94352 0
M  V30 7043 C 691.735 -2.97119 4.4455 0
M  V30 7044 C 693.035 -0.899972 5.14488 0
M  V30 7045 H 694.729 -0.239783 2.98438 0
M  V30 7046 H 692.275 -0.113891 1.43549 0
M  V30 7047 H 694.228 -2.66012 3.26827 0
M  V30 7048 H 692.952 -2.5587 2.02973 0
M  V30 7049 H 691.611 -1.03133 3.51794 0
M  V30 7050 H 691.259 -3.5058 3.60698 0
M  V30 7051 H 690.959 -2.75073 5.19238 0
M  V30 7052 H 692.483 -3.63753 4.90425 0
M  V30 7053 H 693.897 -1.45818 5.54446 0
M  V30 7054 H 692.294 -0.778968 5.95023 0
M  V30 7055 H 693.364 0.105827 4.84785 0
M  V30 7056 N 694.707 -1.5719 -0.113559 0
M  V30 7057 C 695.655 -2.01725 -1.158 0
M  V30 7058 C 696.649 -0.915105 -1.42556 0
M  V30 7059 O 697.855 -1.10031 -1.42454 0
M  V30 7060 H 694.23 -0.64262 -0.390569 0
M  V30 7061 H 696.201 -2.88666 -0.755926 0
M  V30 7062 C 694.95 -2.44203 -2.47507 0
M  V30 7063 H 694.273 -3.28582 -2.27758 0
M  V30 7064 H 695.713 -2.79158 -3.19135 0
M  V30 7065 C 694.172 -1.30785 -3.10478 0
M  V30 7066 O 694.702 -0.626807 -3.9678 0
M  V30 7067 N 692.908 -1.06352 -2.7044 0
M  V30 7068 H 692.455 -1.61913 -2.00355 0
M  V30 7069 H 692.413 -0.306614 -3.12901 0
M  V30 7070 N 696.185 0.383891 -1.52853 0
M  V30 7071 C 697.431 1.13009 -1.68395 0
M  V30 7072 C 697.764 1.89488 -0.425195 0
M  V30 7073 O 697.039 1.8574 0.577136 0
M  V30 7074 C 697.322 2.10419 -2.92226 0
M  V30 7075 C 697.175 1.3767 -4.28214 0
M  V30 7076 C 698.494 3.10781 -3.11614 0
M  V30 7077 H 695.613 0.409463 -0.612788 0
M  V30 7078 H 698.255 0.412895 -1.85459 0
M  V30 7079 H 696.405 2.71579 -2.77808 0
M  V30 7080 H 698.077 0.794352 -4.54409 0
M  V30 7081 H 696.32 0.678533 -4.2846 0
M  V30 7082 H 696.991 2.08874 -5.10956 0
M  V30 7083 H 699.467 2.59715 -3.25096 0
M  V30 7084 H 698.343 3.76179 -3.99725 0
M  V30 7085 H 698.604 3.79933 -2.2606 0
M  V30 7086 N 697.663 1.43903 0.642637 0
M  V30 7087 C 698.573 1.52349 1.78401 0
M  V30 7088 C 699.589 0.409869 1.69104 0
M  V30 7089 O 700.765 0.665548 1.90085 0
M  V30 7090 C 697.83 1.45408 3.14734 0
M  V30 7091 C 696.891 2.67528 3.35749 0
M  V30 7092 C 696.124 2.60909 4.65577 0
M  V30 7093 O 696.347 1.6627 5.45628 0
M  V30 7094 O 695.281 3.5158 4.88544 0
M  V30 7095 H 699.107 2.48752 1.7423 0
M  V30 7096 H 696.692 1.26021 0.802439 0
M  V30 7097 H 698.574 1.44019 3.96026 0
M  V30 7098 H 697.249 0.521437 3.19473 0
M  V30 7099 H 696.156 2.74487 2.5418 0
M  V30 7100 H 697.489 3.598 3.35864 0
M  V30 7101 N 699.141 -0.881989 1.30609 0
M  V30 7102 C 700.389 -1.63082 1.19368 0
M  V30 7103 C 700.71 -1.93376 -0.251147 0
M  V30 7104 O 699.98 -1.5723 -1.16857 0
M  V30 7105 H 698.56 -0.604542 0.438791 0
M  V30 7106 H 701.222 -1.05658 1.63776 0
M  V30 7107 H 700.318 -2.57966 1.7567 0
M  V30 7108 N 700.619 -1.13374 -1.09472 0
M  V30 7109 C 701.896 -0.806329 -1.78207 0
M  V30 7110 C 702.276 0.702191 -1.99079 0
M  V30 7111 O 701.624 1.63931 -1.59182 0
M  V30 7112 C 701.834 -1.59271 -3.10538 0
M  V30 7113 C 703.182 -1.78509 -3.85253 0
M  V30 7114 O 704.206 -1.55866 -3.20288 0
M  V30 7115 O 703.065 -2.16287 -5.01879 0
M  V30 7116 H 700.159 -0.29435 -0.772843 0
M  V30 7117 H 702.705 -1.23833 -1.16033 0
M  V30 7118 H 701.477 -2.61792 -2.90828 0
M  V30 7119 H 701.1 -1.15562 -3.80436 0
M  V30 7120 N 702.098 1.27442 -0.927168 0
M  V30 7121 C 703.061 2.2512 -0.430525 0
M  V30 7122 C 704.061 1.54357 0.450619 0
M  V30 7123 O 705.251 1.72371 0.251774 0
M  V30 7124 C 702.383 3.38763 0.381144 0
M  V30 7125 H 703.576 2.70569 -1.29354 0
M  V30 7126 H 701.129 1.39355 -0.707806 0
M  V30 7127 H 701.864 2.98695 1.263 0
M  V30 7128 H 701.649 3.91298 -0.250618 0
M  V30 7129 H 703.139 4.11364 0.719012 0
M  V30 7130 N 703.576 0.692616 1.41565 0
M  V30 7131 C 704.506 0.0397325 2.33466 0
M  V30 7132 C 705.487 -0.770334 1.51657 0
M  V30 7133 O 706.672 -0.723903 1.80203 0
M  V30 7134 C 703.802 -0.899495 3.3545 0
M  V30 7135 C 702.756 -0.196738 4.27548 0
M  V30 7136 C 702.082 -1.25012 5.19881 0
M  V30 7137 C 703.382 0.935158 5.1386 0
M  V30 7138 H 705.076 0.807296 2.88311 0
M  V30 7139 H 702.622 0.389665 1.38628 0
M  V30 7140 H 704.575 -1.36545 3.98665 0
M  V30 7141 H 703.299 -1.69869 2.78948 0
M  V30 7142 H 701.958 0.249158 3.65752 0
M  V30 7143 H 701.606 -2.04177 4.59696 0
M  V30 7144 H 701.306 -0.784931 5.82334 0
M  V30 7145 H 702.83 -1.71665 5.85972 0
M  V30 7146 H 704.244 0.549619 5.70659 0
M  V30 7147 H 702.641 1.32726 5.85238 0
M  V30 7148 H 703.711 1.77613 4.512 0
M  V30 7149 N 705.054 -1.51416 0.437162 0
M  V30 7150 C 706.302 -2.01687 -0.129108 0
M  V30 7151 C 706.623 -1.32329 -1.43227 0
M  V30 7152 O 705.893 -0.457796 -1.90476 0
M  V30 7153 H 704.473 -0.745277 -0.0507023 0
M  V30 7154 H 707.135 -1.86075 0.579828 0
M  V30 7155 H 706.231 -3.10605 -0.305141 0
M  V30 7156 N 706.532 -0.168513 -1.56696 0
M  V30 7157 C 707.495 0.748928 -2.16619 0
M  V30 7158 C 708.495 1.16007 -1.11351 0
M  V30 7159 O 709.685 1.07748 -1.3688 0
M  V30 7160 C 706.817 2.01904 -2.74677 0
M  V30 7161 H 708.01 0.227317 -2.99037 0
M  V30 7162 H 705.563 0.0810372 -1.5609 0
M  V30 7163 H 706.298 2.58381 -1.95985 0
M  V30 7164 H 706.083 1.73323 -3.51712 0
M  V30 7165 H 707.573 2.67383 -3.20774 0
M  V30 7166 N 708.01 1.57248 0.105221 0
M  V30 7167 C 709.258 1.85204 0.808951 0
M  V30 7168 C 709.579 0.75574 1.7976 0
M  V30 7169 O 708.849 -0.218984 1.94672 0
M  V30 7170 H 707.429 0.683346 0.301739 0
M  V30 7171 H 710.091 1.94695 0.0892605 0
M  V30 7172 H 709.187 2.81595 1.34575 0
M  V30 7173 N 709.488 -0.375779 1.53054 0
M  V30 7174 C 710.418 -1.46598 1.81745 0
M  V30 7175 C 711.399 -1.56337 0.670286 0
M  V30 7176 O 712.584 -1.71071 0.919158 0
M  V30 7177 C 709.714 -2.84058 1.99821 0
M  V30 7178 C 708.668 -2.8915 3.15557 0
M  V30 7179 C 707.994 -4.29187 3.18908 0
M  V30 7180 C 709.294 -2.57595 4.54359 0
M  V30 7181 H 710.988 -1.22837 2.73041 0
M  V30 7182 H 708.534 -0.589485 1.31381 0
M  V30 7183 H 710.487 -3.60342 2.18475 0
M  V30 7184 H 709.211 -3.09184 1.05226 0
M  V30 7185 H 707.87 -2.15316 2.96706 0
M  V30 7186 H 707.518 -4.51374 2.2197 0
M  V30 7187 H 707.218 -4.33512 3.96662 0
M  V30 7188 H 708.742 -5.07359 3.39734 0
M  V30 7189 H 710.156 -3.23595 4.73243 0
M  V30 7190 H 708.553 -2.73252 5.34279 0
M  V30 7191 H 709.623 -1.52882 4.60169 0
M  V30 7192 N 710.966 -1.44241 -0.634997 0
M  V30 7193 C 711.896 -1.53632 -1.7584 0
M  V30 7194 C 712.877 -0.389603 -1.65578 0
M  V30 7195 O 714.062 -0.609219 -1.84397 0
M  V30 7196 C 711.192 -1.47644 -3.14354 0
M  V30 7197 C 710.146 -2.60752 -3.394 0
M  V30 7198 C 709.472 -2.39817 -4.77904 0
M  V30 7199 C 710.772 -4.02921 -3.32343 0
M  V30 7200 H 712.466 -2.47662 -1.68238 0
M  V30 7201 H 710.012 -1.19197 -0.807969 0
M  V30 7202 H 711.965 -1.52815 -3.92716 0
M  V30 7203 H 710.689 -0.501284 -3.2273 0
M  V30 7204 H 709.348 -2.54965 -2.63417 0
M  V30 7205 H 708.996 -1.40502 -4.82978 0
M  V30 7206 H 708.696 -3.15649 -4.9562 0
M  V30 7207 H 710.22 -2.46799 -5.585 0
M  V30 7208 H 711.634 -4.10098 -4.00615 0
M  V30 7209 H 710.031 -4.78925 -3.61595 0
M  V30 7210 H 711.101 -4.26766 -2.30215 0
M  V30 7211 N 712.444 0.87505 -1.31075 0
M  V30 7212 C 713.376 1.98773 -1.14114 0
M  V30 7213 C 714.389 1.62595 -0.0816119 0
M  V30 7214 O 715.578 1.75449 -0.32861 0
M  V30 7215 C 712.678 3.31159 -0.720224 0
M  V30 7216 C 711.851 3.9571 -1.86366 0
M  V30 7217 C 710.91 5.06407 -1.42965 0
M  V30 7218 O 709.936 5.27501 -2.13848 0
M  V30 7219 N 711.138 5.79649 -0.314194 0
M  V30 7220 H 713.903 2.1387 -2.09951 0
M  V30 7221 H 711.464 1.04873 -1.23342 0
M  V30 7222 H 713.456 4.0259 -0.412687 0
M  V30 7223 H 712.026 3.12257 0.146396 0
M  V30 7224 H 711.246 3.17324 -2.33879 0
M  V30 7225 H 712.534 4.35576 -2.62966 0
M  V30 7226 H 711.932 5.65025 0.276228 0
M  V30 7227 H 710.489 6.51766 -0.0661641 0
M  V30 7228 N 713.922 1.13953 1.08869 0
M  V30 7229 C 714.87 0.817664 2.17754 0
M  V30 7230 C 715.864 -0.202444 1.68186 0
M  V30 7231 O 717.07 -0.0590159 1.79903 0
M  V30 7232 H 713.445 0.246671 0.710392 0
M  V30 7233 H 715.416 1.74401 2.4213 0
M  V30 7234 C 714.165 0.3063 3.46348 0
M  V30 7235 H 713.488 1.08259 3.84864 0
M  V30 7236 H 714.928 0.119584 4.23831 0
M  V30 7237 C 713.387 -0.969158 3.22659 0
M  V30 7238 O 713.917 -2.04386 3.45817 0
M  V30 7239 N 712.123 -0.902516 2.7623 0
M  V30 7240 H 711.67 -0.027801 2.57585 0
M  V30 7241 H 711.628 -1.75649 2.60758 0
M  V30 7242 N 715.4 -1.26948 0.933913 0
M  V30 7243 C 716.63 -1.97898 0.593279 0
M  V30 7244 C 717.038 -1.69806 -0.834412 0
M  V30 7245 O 716.381 -0.958704 -1.56699 0
M  V30 7246 C 716.443 -3.51657 0.746825 0
M  V30 7247 C 716.107 -4.03384 2.14779 0
M  V30 7248 C 717.104 -4.15682 3.12257 0
M  V30 7249 C 714.789 -4.37577 2.46641 0
M  V30 7250 C 716.783 -4.61455 4.39702 0
M  V30 7251 C 714.47 -4.8304 3.7432 0
M  V30 7252 C 715.468 -4.94939 4.70664 0
M  V30 7253 O 715.156 -5.39403 5.96071 0
M  V30 7254 H 714.888 -0.63814 0.223055 0
M  V30 7255 H 717.442 -1.62608 1.2549 0
M  V30 7256 H 715.672 -3.8669 0.0280889 0
M  V30 7257 H 717.361 -4.03821 0.410328 0
M  V30 7258 H 718.127 -3.89519 2.88964 0
M  V30 7259 H 714.006 -4.27554 1.72391 0
M  V30 7260 H 717.55 -4.70658 5.14905 0
M  V30 7261 H 713.447 -5.08646 3.97429 0
M  V30 7262 H 714.215 -5.57641 5.99148 0
M  V30 7263 N 716.879 -0.700114 -1.41195 0
M  V30 7264 C 718.125 -0.233351 -2.01453 0
M  V30 7265 C 718.458 1.16548 -1.55339 0
M  V30 7266 O 717.733 1.78756 -0.766575 0
M  V30 7267 C 718.016 -0.2961 -3.58881 0
M  V30 7268 C 717.869 -1.7322 -4.15108 0
M  V30 7269 C 719.188 0.341525 -4.38773 0
M  V30 7270 H 716.307 -0.0862667 -0.731934 0
M  V30 7271 H 718.949 -0.889693 -1.67882 0
M  V30 7272 H 717.099 0.262736 -3.87611 0
M  V30 7273 H 718.771 -2.34523 -3.97236 0
M  V30 7274 H 717.014 -2.2649 -3.69979 0
M  V30 7275 H 717.685 -1.7276 -5.24269 0
M  V30 7276 H 720.161 -0.134461 -4.15883 0
M  V30 7277 H 719.037 0.267098 -5.4825 0
M  V30 7278 H 719.298 1.42289 -4.18577 0
M  V30 7279 N 718.357 1.51182 -0.445186 0
M  V30 7280 C 719.634 1.9478 0.178965 0
M  V30 7281 C 720.014 1.38428 1.59376 0
M  V30 7282 O 719.362 0.574552 2.21159 0
M  V30 7283 C 719.572 3.48683 0.148711 0
M  V30 7284 C 720.92 4.23152 0.35042 0
M  V30 7285 O 721.944 3.55479 0.226474 0
M  V30 7286 O 720.803 5.4322 0.597893 0
M  V30 7287 H 717.897 0.817387 0.12573 0
M  V30 7288 H 720.443 1.62051 -0.503729 0
M  V30 7289 H 719.215 3.82176 -0.84009 0
M  V30 7290 H 718.838 3.87875 0.873979 0
M  V30 7291 N 719.835 0.176821 1.56605 0
M  V30 7292 C 721.251 -0.179278 1.5859 0
M  V30 7293 C 721.451 -1.62433 1.19238 0
M  V30 7294 O 720.507 -2.35665 0.906552 0
M  V30 7295 C 721.82 0.106524 3.00511 0
M  V30 7296 C 723.368 0.0451731 3.12967 0
M  V30 7297 C 723.843 0.304038 4.5699 0
M  V30 7298 N 725.334 0.252008 4.62514 0
M  V30 7299 C 726.069 0.426404 5.71812 0
M  V30 7300 N 725.565 0.660155 6.89648 0
M  V30 7301 N 727.358 0.361926 5.60934 0
M  V30 7302 H 719.509 1.12001 1.8047 0
M  V30 7303 H 721.772 0.445679 0.836704 0
M  V30 7304 H 721.478 1.10778 3.33798 0
M  V30 7305 H 721.352 -0.599337 3.72408 0
M  V30 7306 H 723.739 -0.946662 2.79504 0
M  V30 7307 H 723.82 0.78383 2.43495 0
M  V30 7308 H 723.464 1.29311 4.91163 0
M  V30 7309 H 723.394 -0.455294 5.24628 0
M  V30 7310 H 725.885 0.0772102 3.77821 0
M  V30 7311 H 726.198 0.782529 7.68828 0
M  V30 7312 H 724.543 0.696835 6.91498 0
M  V30 7313 H 727.734 0.17986 4.67754 0
M  V30 7314 H 727.907 0.501263 6.46058 0
M  V30 7315 N 721.313 -1.57302 -0.09688 0
M  V30 7316 C 722.541 -1.90202 -0.814295 0
M  V30 7317 C 722.956 -0.770344 -1.72369 0
M  V30 7318 O 722.313 0.257764 -1.8067 0
M  V30 7319 C 722.364 -3.22708 -1.62916 0
M  V30 7320 O 722.085 -4.31522 -0.756343 0
M  V30 7321 C 723.586 -3.69459 -2.44979 0
M  V30 7322 H 720.806 -0.629275 -0.232925 0
M  V30 7323 H 723.35 -2.04364 -0.0746482 0
M  V30 7324 H 721.505 -3.1015 -2.32133 0
M  V30 7325 H 721.919 -5.07604 -1.32054 0
M  V30 7326 H 723.393 -4.64875 -2.9765 0
M  V30 7327 H 723.87 -2.97211 -3.23361 0
M  V30 7328 H 724.476 -3.84879 -1.80964 0
M  V30 7329 N 722.791 0.367657 -1.53252 0
M  V30 7330 C 723.701 1.47415 -1.82499 0
M  V30 7331 C 724.717 1.58711 -0.713222 0
M  V30 7332 O 725.893 1.74644 -1.00306 0
M  V30 7333 C 722.958 2.82706 -2.00694 0
M  V30 7334 C 722.019 2.80955 -3.24596 0
M  V30 7335 C 721.252 4.09793 -3.41914 0
M  V30 7336 O 721.475 5.05852 -2.63572 0
M  V30 7337 O 720.409 4.15731 -4.3526 0
M  V30 7338 H 724.235 1.25624 -2.765 0
M  V30 7339 H 721.82 0.557559 -1.38606 0
M  V30 7340 H 723.702 3.62873 -2.14246 0
M  V30 7341 H 722.377 3.04479 -1.09883 0
M  V30 7342 H 721.284 1.99494 -3.16469 0
M  V30 7343 H 722.617 2.64136 -4.15323 0
M  V30 7344 N 724.269 1.44576 0.627338 0
M  V30 7345 C 725.494 1.51271 1.41887 0
M  V30 7346 C 725.919 0.139814 1.8758 0
M  V30 7347 O 725.277 -0.871746 1.58966 0
M  V30 7348 C 725.325 2.48529 2.61277 0
M  V30 7349 O 724.429 1.98944 3.61241 0
M  V30 7350 H 723.77 0.510668 0.424399 0
M  V30 7351 H 726.3 1.89746 0.765356 0
M  V30 7352 H 726.31 2.66689 3.08773 0
M  V30 7353 H 724.985 3.48249 2.27366 0
M  V30 7354 H 723.562 1.90568 3.20528 0
M  V30 7355 N 725.747 -0.868086 1.31537 0
M  V30 7356 C 727.163 -1.15414 1.10235 0
M  V30 7357 C 727.363 -2.01106 -0.125947 0
M  V30 7358 O 726.419 -2.38994 -0.814734 0
M  V30 7359 C 727.732 -1.84445 2.37488 0
M  V30 7360 C 729.28 -1.97139 2.43116 0
M  V30 7361 C 729.755 -2.69585 3.70254 0
M  V30 7362 N 731.246 -2.77119 3.71159 0
M  V30 7363 C 731.981 -3.33791 4.6623 0
M  V30 7364 N 731.477 -3.9138 5.71659 0
M  V30 7365 N 733.27 -3.31767 4.53747 0
M  V30 7366 H 725.421 -0.297109 2.10312 0
M  V30 7367 H 727.684 -0.194227 0.92789 0
M  V30 7368 H 727.39 -1.2893 3.27215 0
M  V30 7369 H 727.264 -2.84709 2.47428 0
M  V30 7370 H 729.651 -2.51818 1.53856 0
M  V30 7371 H 729.732 -0.95912 2.37138 0
M  V30 7372 H 729.376 -2.15572 4.59881 0
M  V30 7373 H 729.306 -3.71223 3.73499 0
M  V30 7374 H 731.797 -2.3625 2.94948 0
M  V30 7375 H 732.11 -4.3274 6.40278 0
M  V30 7376 H 730.455 -3.8975 5.7543 0
M  V30 7377 H 733.646 -2.86016 3.70557 0
M  V30 7378 H 733.819 -3.75636 5.28017 0
M  V30 7379 N 727.225 -1.14528 -1.08264 0
M  V30 7380 C 728.45 -0.938381 -1.84957 0
M  V30 7381 C 728.875 0.508044 -1.81109 0
M  V30 7382 O 728.233 1.36146 -1.19724 0
M  V30 7383 C 728.281 -1.44568 -3.30352 0
M  V30 7384 O 727.385 -0.638745 -4.07423 0
M  V30 7385 H 726.726 -0.335394 -0.573068 0
M  V30 7386 H 729.256 -1.52287 -1.36637 0
M  V30 7387 H 729.266 -1.45449 -3.81194 0
M  V30 7388 H 727.941 -2.49876 -3.32468 0
M  V30 7389 H 726.518 -0.698801 -3.66294 0
M  V30 7390 N 728.703 1.26451 -0.940633 0
M  V30 7391 C 729.931 1.97868 -0.604642 0
M  V30 7392 C 730.346 1.70051 0.820251 0
M  V30 7393 O 729.703 0.96843 1.54686 0
M  V30 7394 C 729.754 3.51684 -0.836689 0
M  V30 7395 O 729.475 3.78533 -2.20554 0
M  V30 7396 C 730.976 4.40343 -0.511169 0
M  V30 7397 H 728.196 0.631105 -0.227919 0
M  V30 7398 H 730.74 1.60979 -1.26119 0
M  V30 7399 H 728.895 3.86736 -0.226759 0
M  V30 7400 H 729.309 4.73065 -2.26517 0
M  V30 7401 H 730.783 5.47229 -0.724157 0
M  V30 7402 H 731.26 4.35694 0.553815 0
M  V30 7403 H 731.866 4.10834 -1.0998 0
M  V30 7404 N 730.181 0.707592 1.40822 0
M  V30 7405 C 731.091 0.0507246 2.34545 0
M  V30 7406 C 732.107 -0.752727 1.56876 0
M  V30 7407 O 733.283 -0.687524 1.89302 0
M  V30 7408 C 730.348 -0.865731 3.35717 0
M  V30 7409 C 729.409 -0.0531313 4.29267 0
M  V30 7410 C 728.642 -0.925939 5.25606 0
M  V30 7411 O 728.865 -2.16531 5.27703 0
M  V30 7412 O 727.799 -0.369194 6.00767 0
M  V30 7413 H 731.625 0.823587 2.9232 0
M  V30 7414 H 729.21 0.46801 1.4188 0
M  V30 7415 H 731.092 -1.39091 3.97783 0
M  V30 7416 H 729.767 -1.61788 2.80368 0
M  V30 7417 H 728.674 0.516931 3.70511 0
M  V30 7418 H 730.007 0.660617 4.87747 0
M  V30 7419 N 731.66 -1.50943 0.453197 0
M  V30 7420 C 733.071 -1.86699 -0.00619892 0
M  V30 7421 C 733.422 -1.3693 -1.40515 0
M  V30 7422 O 732.547 -0.726715 -2.03833 0
M  V30 7423 C 733.142 -3.38795 -0.018025 0
M  V30 7424 C 731.701 -3.74028 -0.421885 0
M  V30 7425 C 730.848 -2.74752 0.375087 0
M  V30 7426 H 733.799 -1.43942 0.668317 0
M  V30 7427 H 733.82 -3.71468 -0.824125 0
M  V30 7428 H 733.332 -3.74988 1.00028 0
M  V30 7429 H 731.433 -3.43431 -1.44521 0
M  V30 7430 H 731.546 -4.78908 -0.135664 0
M  V30 7431 H 729.91 -2.5414 -0.168794 0
M  V30 7432 H 730.693 -3.13787 1.39256 0
M  V30 7433 N 733.138 -0.185124 -1.56509 0
M  V30 7434 C 734.048 0.751908 -2.22224 0
M  V30 7435 C 735.064 1.24244 -1.21817 0
M  V30 7436 O 736.24 1.29169 -1.54523 0
M  V30 7437 C 733.305 1.95837 -2.86092 0
M  V30 7438 C 732.366 1.51337 -4.01741 0
M  V30 7439 C 731.599 2.66233 -4.62554 0
M  V30 7440 O 731.822 3.8346 -4.22273 0
M  V30 7441 O 730.756 2.39517 -5.52191 0
M  V30 7442 H 734.582 0.222304 -3.02885 0
M  V30 7443 H 732.167 0.0437141 -1.49336 0
M  V30 7444 H 734.049 2.66368 -3.26536 0
M  V30 7445 H 732.724 2.47677 -2.08417 0
M  V30 7446 H 731.631 0.777155 -3.65939 0
M  V30 7447 H 732.964 1.04175 -4.81049 0
M  V30 7448 N 734.616 1.57351 0.0885366 0
M  V30 7449 C 735.546 2.05561 1.10757 0
M  V30 7450 C 736.527 0.945789 1.41382 0
M  V30 7451 O 737.712 1.21747 1.51299 0
M  V30 7452 C 734.842 2.48554 2.42566 0
M  V30 7453 C 733.796 3.63259 2.26334 0
M  V30 7454 C 733.122 3.9225 3.63378 0
M  V30 7455 C 734.422 4.93913 1.69844 0
M  V30 7456 H 736.116 2.90946 0.706468 0
M  V30 7457 H 733.662 1.39968 0.338385 0
M  V30 7458 H 735.615 2.8089 3.14132 0
M  V30 7459 H 734.339 1.60176 2.84625 0
M  V30 7460 H 732.998 3.31179 1.57213 0
M  V30 7461 H 732.646 3.0103 4.02976 0
M  V30 7462 H 732.346 4.69478 3.53362 0
M  V30 7463 H 733.87 4.27067 4.36401 0
M  V30 7464 H 735.284 5.24588 2.31258 0
M  V30 7465 H 733.681 5.75349 1.70569 0
M  V30 7466 H 734.751 4.80409 0.65843 0
M  V30 7467 N 736.094 -0.359525 1.53444 0
M  V30 7468 C 737.343 -1.09886 1.69139 0
M  V30 7469 C 737.656 -1.90285 0.452863 0
M  V30 7470 O 738.862 -2.67033 0.490459 0
M  V30 7471 C 737.318 -2.0028 2.99025 0
M  V30 7472 C 736.926 -1.25164 4.30161 0
M  V30 7473 C 738.67 -2.74168 3.24086 0
M  V30 7474 C 736.577 -2.14494 5.51132 0
M  V30 7475 H 735.507 -0.413936 0.630217 0
M  V30 7476 H 738.158 -0.359434 1.79945 0
M  V30 7477 H 736.54 -2.77978 2.82036 0
M  V30 7478 H 737.714 -0.524867 4.57801 0
M  V30 7479 H 736.029 -0.631116 4.11589 0
M  V30 7480 H 738.626 -3.41243 4.11652 0
M  V30 7481 H 738.969 -3.39868 2.40407 0
M  V30 7482 H 739.502 -2.0355 3.41778 0
M  V30 7483 H 736.241 -1.53362 6.37307 0
M  V30 7484 H 735.761 -2.85004 5.27762 0
M  V30 7485 H 737.44 -2.73914 5.86157 0
M  V30 7486 N 737.572 -1.44907 -0.619662 0
M  V30 7487 C 738.504 -1.48652 -1.74457 0
M  V30 7488 C 739.517 -0.378596 -1.58337 0
M  V30 7489 O 740.706 -0.644987 -1.6644 0
M  V30 7490 C 737.806 -1.31568 -3.12319 0
M  V30 7491 C 736.979 -2.55816 -3.54792 0
M  V30 7492 C 736.038 -2.33465 -4.71573 0
M  V30 7493 O 735.064 -3.07015 -4.79302 0
M  V30 7494 N 736.266 -1.37254 -5.6404 0
M  V30 7495 H 739.031 -2.45632 -1.71712 0
M  V30 7496 H 736.592 -1.40492 -0.804582 0
M  V30 7497 H 738.584 -1.14445 -3.88181 0
M  V30 7498 H 737.154 -0.429095 -3.09641 0
M  V30 7499 H 736.374 -2.88137 -2.69018 0
M  V30 7500 H 737.662 -3.38431 -3.79924 0
M  V30 7501 H 737.06 -0.765309 -5.60499 0
M  V30 7502 H 735.617 -1.26106 -6.39485 0
M  V30 7503 N 739.05 0.861098 -1.31996 0
M  V30 7504 C 740.296 1.61721 -1.22369 0
M  V30 7505 C 740.629 1.93 0.215587 0
M  V30 7506 O 739.904 1.56789 1.15098 0
M  V30 7507 C 740.187 2.9417 -2.07691 0
M  V30 7508 C 740.04 2.69714 -3.59965 0
M  V30 7509 C 741.359 3.95372 -1.93312 0
M  V30 7510 H 738.478 0.586822 -0.44588 0
M  V30 7511 H 741.12 0.994788 -1.61876 0
M  V30 7512 H 739.27 3.47292 -1.74128 0
M  V30 7513 H 740.942 2.23196 -4.03709 0
M  V30 7514 H 739.185 2.03789 -3.82952 0
M  V30 7515 H 739.856 3.63996 -4.14983 0
M  V30 7516 H 742.332 3.51487 -2.22701 0
M  V30 7517 H 741.208 4.85916 -2.55298 0
M  V30 7518 H 741.469 4.32865 -0.898922 0
M  V30 7519 N 740.528 1.15101 1.07655 0
M  V30 7520 C 741.475 0.844958 2.14777 0
M  V30 7521 C 742.445 -0.200798 1.64882 0
M  V30 7522 O 743.63 -0.0690278 1.90675 0
M  V30 7523 C 740.77 0.337018 3.4345 0
M  V30 7524 C 739.883 1.44398 4.07153 0
M  V30 7525 C 739.018 0.892487 5.23649 0
M  V30 7526 C 738.057 1.9766 5.79307 0
M  V30 7527 N 737.194 1.44171 6.87138 0
M  V30 7528 H 742.034 1.76242 2.40297 0
M  V30 7529 H 739.571 0.879435 1.17917 0
M  V30 7530 H 741.529 0.024256 4.17193 0
M  V30 7531 H 740.159 -0.543531 3.18191 0
M  V30 7532 H 739.211 1.87299 3.31094 0
M  V30 7533 H 740.523 2.26262 4.4453 0
M  V30 7534 H 739.677 0.532083 6.04362 0
M  V30 7535 H 738.416 0.0429854 4.87681 0
M  V30 7536 H 737.421 2.34586 4.97242 0
M  V30 7537 H 738.646 2.82982 6.17331 0
M  V30 7538 H 736.592 0.614518 6.53115 0
M  V30 7539 H 736.509 2.19665 7.23383 0
M  V30 7540 H 737.777 1.10945 7.71564 0
M  V30 7541 N 742.006 -1.2595 0.947325 0
M  V30 7542 C 743.231 -1.98083 0.614633 0
M  V30 7543 C 743.656 -1.70013 -0.804815 0
M  V30 7544 O 743.014 -0.95175 -1.54309 0
M  V30 7545 C 743.062 -3.4993 0.870706 0
M  V30 7546 O 742.166 -4.12364 -0.0541451 0
M  V30 7547 H 741.507 -0.621232 0.234451 0
M  V30 7548 H 744.037 -1.60259 1.27193 0
M  V30 7549 H 744.047 -4.00198 0.794051 0
M  V30 7550 H 742.722 -3.69691 1.90529 0
M  V30 7551 H 741.299 -3.72826 0.0740917 0
M  V30 7552 N 743.484 -0.715051 -1.40445 0
M  V30 7553 C 744.394 -0.0631624 -2.34515 0
M  V30 7554 C 745.41 0.744397 -1.57273 0
M  V30 7555 O 746.586 0.677475 -1.89663 0
M  V30 7556 C 743.651 0.847915 -3.36172 0
M  V30 7557 C 742.712 0.0303655 -4.29289 0
M  V30 7558 C 741.945 0.898051 -5.2609 0
M  V30 7559 O 742.168 2.13729 -5.28844 0
M  V30 7560 O 741.102 0.337328 -6.00954 0
M  V30 7561 H 744.928 -0.839078 -2.91879 0
M  V30 7562 H 742.513 -0.475527 -1.4163 0
M  V30 7563 H 744.395 1.3698 -3.98515 0
M  V30 7564 H 743.07 1.60299 -2.81222 0
M  V30 7565 H 741.977 -0.536573 -3.70232 0
M  V30 7566 H 743.31 -0.686474 -4.87389 0
M  V30 7567 N 744.962 1.50701 -0.461195 0
M  V30 7568 C 745.892 2.31182 0.328184 0
M  V30 7569 C 746.873 1.37644 0.999408 0
M  V30 7570 O 748.058 1.66565 0.99848 0
M  V30 7571 C 745.188 3.17113 1.41621 0
M  V30 7572 C 744.142 4.19124 0.867148 0
M  V30 7573 C 743.468 4.93728 2.05272 0
M  V30 7574 C 744.768 5.22174 -0.114808 0
M  V30 7575 H 746.462 2.97423 -0.343501 0
M  V30 7576 H 744.008 1.43033 -0.166641 0
M  V30 7577 H 745.961 3.72208 1.97584 0
M  V30 7578 H 744.685 2.48739 2.11652 0
M  V30 7579 H 743.344 3.65116 0.329557 0
M  V30 7580 H 742.992 4.21835 2.73978 0
M  V30 7581 H 742.692 5.62724 1.69161 0
M  V30 7582 H 744.216 5.51654 2.61744 0
M  V30 7583 H 745.63 5.72198 0.355316 0
M  V30 7584 H 744.027 5.98833 -0.389689 0
M  V30 7585 H 745.097 4.7353 -1.04391 0
M  V30 7586 N 746.441 0.193421 1.56409 0
M  V30 7587 C 747.852 -0.319471 1.83946 0
M  V30 7588 C 748.203 -1.61505 1.11403 0
M  V30 7589 O 747.328 -2.13139 0.374289 0
M  V30 7590 C 747.923 -0.586411 3.33686 0
M  V30 7591 C 746.482 -1.04368 3.61641 0
M  V30 7592 C 745.629 -0.0913834 2.77149 0
M  V30 7593 H 748.58 0.417242 1.53117 0
M  V30 7594 H 748.601 -1.43591 3.52366 0
M  V30 7595 H 748.113 0.356701 3.86457 0
M  V30 7596 H 746.214 -2.00113 3.14302 0
M  V30 7597 H 746.327 -0.937549 4.69837 0
M  V30 7598 H 744.691 -0.592954 2.47702 0
M  V30 7599 H 745.474 0.846142 3.32709 0
M  V30 7600 N 747.919 -1.57396 -0.0801906 0
M  V30 7601 C 748.849 -2.06145 -1.09665 0
M  V30 7602 C 749.83 -0.953273 -1.40878 0
M  V30 7603 O 751.015 -1.22548 -1.50651 0
M  V30 7604 C 748.145 -2.49836 -2.41245 0
M  V30 7605 C 747.099 -3.64454 -2.24405 0
M  V30 7606 C 746.425 -3.94172 -3.61293 0
M  V30 7607 C 747.725 -4.94807 -1.67223 0
M  V30 7608 H 749.419 -2.91316 -0.691028 0
M  V30 7609 H 746.965 -1.40145 -0.330957 0
M  V30 7610 H 748.918 -2.82552 -3.12638 0
M  V30 7611 H 747.642 -1.61683 -2.83771 0
M  V30 7612 H 746.301 -3.32008 -1.55454 0
M  V30 7613 H 745.949 -3.03163 -4.01374 0
M  V30 7614 H 745.649 -4.71345 -3.50867 0
M  V30 7615 H 747.173 -4.29376 -4.3413 0
M  V30 7616 H 748.587 -5.25807 -2.28472 0
M  V30 7617 H 746.984 -5.76245 -1.67515 0
M  V30 7618 H 748.054 -4.80751 -0.632944 0
M  V30 7619 N 749.397 0.351382 -1.53633 0
M  V30 7620 C 750.674 1.10903 -1.6112 0
M  V30 7621 C 751.054 2.06725 -0.427556 0
M  V30 7622 O 750.402 2.20992 0.580916 0
M  V30 7623 C 750.612 1.83561 -2.96827 0
M  V30 7624 C 751.96 2.37587 -3.51906 0
M  V30 7625 O 752.984 1.93669 -2.9895 0
M  V30 7626 O 751.843 3.17913 -4.44515 0
M  V30 7627 H 748.937 0.509558 -0.651368 0
M  V30 7628 H 751.483 0.353504 -1.65977 0
M  V30 7629 H 750.255 1.1371 -3.74414 0
M  V30 7630 H 749.878 2.6599 -2.95525 0
M  V30 7631 N 750.875 1.45233 0.611969 0
M  V30 7632 C 752.286 1.4354 1.19387 0
M  V30 7633 C 752.637 0.160713 1.95541 0
M  V30 7634 O 751.762 -0.737954 2.03429 0
M  V30 7635 C 752.357 2.60045 2.17169 0
M  V30 7636 C 750.916 2.61486 2.70744 0
M  V30 7637 C 750.063 2.35708 1.46072 0
M  V30 7638 H 753.014 1.53536 0.401529 0
M  V30 7639 H 753.035 2.33893 3.00124 0
M  V30 7640 H 752.547 3.52803 1.61714 0
M  V30 7641 H 750.648 1.72721 3.30149 0
M  V30 7642 H 750.761 3.60572 3.15476 0
M  V30 7643 H 749.125 1.85178 1.74875 0
M  V30 7644 H 749.908 3.30606 0.924922 0
M  V30 7645 N 752.353 -0.854086 1.3245 0
M  V30 7646 C 753.283 -1.97827 1.24044 0
M  V30 7647 C 754.264 -1.69646 0.124166 0
M  V30 7648 O 755.449 -1.91687 0.31143 0
M  V30 7649 C 752.579 -3.33673 0.963324 0
M  V30 7650 C 751.533 -3.76207 2.04089 0
M  V30 7651 C 750.859 -5.0969 1.61618 0
M  V30 7652 C 752.159 -3.91612 3.45597 0
M  V30 7653 H 753.853 -2.05118 2.18099 0
M  V30 7654 H 751.399 -0.985489 1.04996 0
M  V30 7655 H 753.352 -4.11871 0.891061 0
M  V30 7656 H 752.076 -3.26597 -0.0128649 0
M  V30 7657 H 750.735 -3.0026 2.10332 0
M  V30 7658 H 750.383 -4.99072 0.627418 0
M  V30 7659 H 750.083 -5.3912 2.33717 0
M  V30 7660 H 751.607 -5.90381 1.55829 0
M  V30 7661 H 753.021 -4.60163 3.4194 0
M  V30 7662 H 751.418 -4.3246 4.16051 0
M  V30 7663 H 752.488 -2.9451 3.85217 0
M  V30 7664 N 753.831 -1.1567 -1.07043 0
M  V30 7665 C 755.242 -0.942408 -1.61169 0
M  V30 7666 C 755.593 0.515537 -1.89306 0
M  V30 7667 O 754.718 1.38726 -1.66084 0
M  V30 7668 C 755.313 -1.70431 -2.92812 0
M  V30 7669 C 753.872 -1.53521 -3.43669 0
M  V30 7670 C 753.019 -1.7179 -2.17678 0
M  V30 7671 H 755.97 -1.3065 -0.9009 0
M  V30 7672 H 755.991 -1.17566 -3.61882 0
M  V30 7673 H 755.503 -2.76538 -2.72302 0
M  V30 7674 H 753.604 -0.498224 -3.69254 0
M  V30 7675 H 753.717 -2.31422 -4.19501 0
M  V30 7676 H 752.081 -1.14468 -2.27529 0
M  V30 7677 H 752.864 -2.79269 -1.99659 0
M  V30 7678 N 755.309 1.25446 -0.953992 0
M  V30 7679 C 756.555 1.9343 -0.60933 0
M  V30 7680 C 756.888 1.74542 0.851388 0
M  V30 7681 O 756.163 1.09014 1.61078 0
M  V30 7682 C 756.446 3.46844 -0.968041 0
M  V30 7683 C 756.299 3.74961 -2.48444 0
M  V30 7684 C 757.618 4.37334 -0.492641 0
M  V30 7685 H 754.737 0.702502 -0.222844 0
M  V30 7686 H 757.379 1.48076 -1.19053 0
M  V30 7687 H 755.529 3.85604 -0.473465 0
M  V30 7688 H 757.201 3.45841 -3.05273 0
M  V30 7689 H 755.444 3.20589 -2.92241 0
M  V30 7690 H 756.115 4.82246 -2.68594 0
M  V30 7691 H 758.591 4.05873 -0.916878 0
M  V30 7692 H 757.467 5.43439 -0.772331 0
M  V30 7693 H 757.728 4.37908 0.607403 0
M  V30 7694 N 756.787 0.722489 1.40064 0
M  V30 7695 C 758.198 0.336507 1.83642 0
M  V30 7696 C 758.549 -1.13002 1.6039 0
M  V30 7697 O 757.674 -1.87036 1.08842 0
M  V30 7698 C 758.269 0.603985 3.33373 0
M  V30 7699 C 756.828 0.271637 3.75419 0
M  V30 7700 C 755.975 0.872898 2.63203 0
M  V30 7701 H 758.926 0.921108 1.29233 0
M  V30 7702 H 758.947 -0.128471 3.80283 0
M  V30 7703 H 758.459 1.67141 3.50265 0
M  V30 7704 H 756.56 -0.790455 3.64119 0
M  V30 7705 H 756.673 0.745457 4.73265 0
M  V30 7706 H 755.037 0.300431 2.52922 0
M  V30 7707 H 755.82 1.94473 2.82905 0
M  V30 7708 N 758.265 -1.50454 0.469181 0
M  V30 7709 C 759.493 -2.06729 -0.0842134 0
M  V30 7710 C 759.908 -1.33326 -1.33677 0
M  V30 7711 O 759.265 -0.401977 -1.78018 0
M  V30 7712 C 759.316 -3.59557 -0.374253 0
M  V30 7713 O 759.037 -4.30192 0.828622 0
M  V30 7714 C 760.538 -4.32449 -0.974824 0
M  V30 7715 H 757.758 -0.670971 0.006231 0
M  V30 7716 H 760.302 -1.93645 0.657415 0
M  V30 7717 H 758.457 -3.7245 -1.06581 0
M  V30 7718 H 758.871 -5.21371 0.572066 0
M  V30 7719 H 760.345 -5.40361 -1.12755 0
M  V30 7720 H 760.822 -3.92819 -1.96442 0
M  V30 7721 H 761.428 -4.24082 -0.321703 0
M  V30 7722 N 759.743 -0.201713 -1.56304 0
M  V30 7723 C 760.653 0.728296 -2.23009 0
M  V30 7724 C 761.669 1.22945 -1.23128 0
M  V30 7725 O 762.845 1.27523 -1.55884 0
M  V30 7726 C 759.91 1.92792 -2.88153 0
M  V30 7727 C 758.971 1.47068 -4.03323 0
M  V30 7728 C 758.204 2.61312 -4.65351 0
M  V30 7729 O 758.427 3.7896 -4.26317 0
M  V30 7730 O 757.361 2.33646 -5.54701 0
M  V30 7731 H 761.187 0.190166 -3.03104 0
M  V30 7732 H 758.772 0.0278725 -1.49374 0
M  V30 7733 H 760.654 2.6289 -3.29343 0
M  V30 7734 H 759.329 2.45452 -2.11033 0
M  V30 7735 H 758.236 0.738299 -3.66742 0
M  V30 7736 H 759.569 0.990666 -4.82127 0
M  V30 7737 N 761.222 1.57436 0.0718424 0
M  V30 7738 C 762.132 2.07039 1.10326 0
M  V30 7739 C 763.148 0.999918 1.424 0
M  V30 7740 O 764.324 1.31462 1.52577 0
M  V30 7741 C 761.389 2.50439 2.39752 0
M  V30 7742 C 760.45 3.71784 2.14651 0
M  V30 7743 C 759.683 4.13104 3.37906 0
M  V30 7744 O 759.906 3.54298 4.47023 0
M  V30 7745 O 758.84 5.05894 3.26121 0
M  V30 7746 H 762.666 2.95239 0.711872 0
M  V30 7747 H 760.251 1.46638 0.28597 0
M  V30 7748 H 762.133 2.78876 3.15921 0
M  V30 7749 H 760.808 1.65368 2.78271 0
M  V30 7750 H 759.715 3.48431 1.36187 0
M  V30 7751 H 761.048 4.57707 1.81012 0
M  V30 7752 N 762.7 -0.34323 1.53817 0
M  V30 7753 C 763.948 -1.0813 1.70741 0
M  V30 7754 C 764.269 -1.89165 0.473461 0
M  V30 7755 O 763.539 -1.89075 -0.512605 0
M  V30 7756 H 762.119 -0.40219 0.629486 0
M  V30 7757 H 764.781 -0.384426 1.91071 0
M  V30 7758 H 763.877 -1.7585 2.57843 0
M  V30 7759 N 764.178 -1.45556 -0.604258 0
M  V30 7760 C 765.126 -1.5482 -1.7359 0
M  V30 7761 C 766.12 -0.417966 -1.64163 0
M  V30 7762 O 767.326 -0.594007 -1.69916 0
M  V30 7763 H 763.701 -0.486352 -0.573556 0
M  V30 7764 H 765.672 -2.5001 -1.62903 0
M  V30 7765 C 764.421 -1.53521 -3.11972 0
M  V30 7766 H 763.744 -2.39818 -3.19886 0
M  V30 7767 H 765.184 -1.64061 -3.90973 0
M  V30 7768 C 763.643 -0.260191 -3.35894 0
M  V30 7769 O 764.173 0.658582 -3.96265 0
M  V30 7770 N 762.379 -0.154839 -2.90187 0
M  V30 7771 H 761.926 -0.903378 -2.4124 0
M  V30 7772 H 761.884 0.697437 -3.06567 0
M  V30 7773 N 765.656 0.84705 -1.32902 0
M  V30 7774 C 767.067 1.41785 -1.21466 0
M  V30 7775 C 767.418 1.95464 0.169767 0
M  V30 7776 O 766.543 1.88157 1.06892 0
M  V30 7777 C 767.138 2.57734 -2.19906 0
M  V30 7778 C 765.697 3.10791 -2.12334 0
M  V30 7779 C 764.844 1.83562 -2.07847 0
M  V30 7780 H 767.795 0.653532 -1.44619 0
M  V30 7781 H 767.816 3.35123 -1.80202 0
M  V30 7782 H 767.328 2.18635 -3.20656 0
M  V30 7783 H 765.429 3.54455 -1.14858 0
M  V30 7784 H 765.542 3.71519 -3.02506 0
M  V30 7785 H 763.906 2.03475 -1.53199 0
M  V30 7786 H 764.689 1.4667 -3.10392 0
M  V30 7787 N 767.134 1.16236 1.06428 0
M  V30 7788 C 768.064 0.890807 2.1584 0
M  V30 7789 C 769.045 -0.162333 1.69324 0
M  V30 7790 O 770.23 -0.0147191 1.94194 0
M  V30 7791 C 767.36 0.389615 3.45108 0
M  V30 7792 C 766.314 1.38051 4.05125 0
M  V30 7793 C 765.64 0.737773 5.29586 0
M  V30 7794 C 766.94 2.74965 4.44062 0
M  V30 7795 H 768.634 1.80577 2.38814 0
M  V30 7796 H 766.18 0.869657 1.14774 0
M  V30 7797 H 768.133 0.187127 4.20984 0
M  V30 7798 H 766.857 -0.560851 3.21748 0
M  V30 7799 H 765.516 1.56952 3.31303 0
M  V30 7800 H 765.164 -0.219135 5.02522 0
M  V30 7801 H 764.864 1.39914 5.70699 0
M  V30 7802 H 766.388 0.545275 6.0816 0
M  V30 7803 H 767.802 2.59855 5.11027 0
M  V30 7804 H 766.199 3.37563 4.96156 0
M  V30 7805 H 767.269 3.30321 3.54987 0
M  V30 7806 N 768.612 -1.24939 0.960631 0
M  V30 7807 C 769.542 -2.28 0.503815 0
M  V30 7808 C 770.523 -1.63959 -0.452928 0
M  V30 7809 O 771.708 -1.91009 -0.350585 0
M  V30 7810 C 768.838 -3.46643 -0.213535 0
M  V30 7811 C 767.792 -4.22903 0.658535 0
M  V30 7812 C 767.118 -5.34363 -0.189902 0
M  V30 7813 C 768.418 -4.84949 1.93963 0
M  V30 7814 H 770.112 -2.66462 1.36521 0
M  V30 7815 H 767.658 -1.28093 0.657897 0
M  V30 7816 H 769.611 -4.1787 -0.544286 0
M  V30 7817 H 768.335 -3.07187 -1.10923 0
M  V30 7818 H 766.994 -3.53467 0.972455 0
M  V30 7819 H 766.642 -4.91147 -1.08553 0
M  V30 7820 H 766.342 -5.86302 0.390331 0
M  V30 7821 H 767.866 -6.0842 -0.515484 0
M  V30 7822 H 769.28 -5.48288 1.67491 0
M  V30 7823 H 767.677 -5.47091 2.46601 0
M  V30 7824 H 768.747 -4.06799 2.639 0
M  V30 7825 N 770.09 -0.729906 -1.39679 0
M  V30 7826 C 771.037 -0.0866063 -2.30637 0
M  V30 7827 C 772.007 0.735115 -1.48947 0
M  V30 7828 O 773.192 0.696125 -1.77648 0
M  V30 7829 C 770.332 0.818524 -3.35252 0
M  V30 7830 C 769.445 -0.0152635 -4.31997 0
M  V30 7831 C 768.58 0.890669 -5.2368 0
M  V30 7832 C 767.619 0.0518246 -6.12078 0
M  V30 7833 N 766.756 0.913411 -6.96133 0
M  V30 7834 H 771.596 -0.867925 -2.85081 0
M  V30 7835 H 769.133 -0.439673 -1.40376 0
M  V30 7836 H 771.091 1.3577 -3.9449 0
M  V30 7837 H 769.721 1.56587 -2.82277 0
M  V30 7838 H 768.773 -0.671794 -3.74421 0
M  V30 7839 H 770.085 -0.664086 -4.9436 0
M  V30 7840 H 769.239 1.49787 -5.87919 0
M  V30 7841 H 767.978 1.57328 -4.61627 0
M  V30 7842 H 766.983 -0.568209 -5.46856 0
M  V30 7843 H 768.208 -0.627497 -6.76195 0
M  V30 7844 H 766.154 1.58141 -6.36653 0
M  V30 7845 H 766.071 0.320952 -7.55318 0
M  V30 7846 H 767.339 1.50633 -7.64807 0
M  V30 7847 N 771.568 1.50203 -0.477153 0
M  V30 7848 C 772.518 2.25561 0.332625 0
M  V30 7849 C 773.502 1.29401 0.956249 0
M  V30 7850 O 774.694 1.54267 0.867795 0
M  V30 7851 C 771.823 3.12984 1.41052 0
M  V30 7852 C 770.909 4.16595 0.79433 0
M  V30 7853 N 771.3 5.05722 -0.0889633 0
M  V30 7854 C 769.598 4.33279 1.0576 0
M  V30 7855 C 770.299 5.80039 -0.439286 0
M  V30 7856 N 769.275 5.43278 0.187018 0
M  V30 7857 H 773.077 2.91836 -0.347718 0
M  V30 7858 H 770.591 1.59759 -0.291686 0
M  V30 7859 H 772.588 3.65582 2.00388 0
M  V30 7860 H 771.248 2.48258 2.09279 0
M  V30 7861 H 772.259 5.15869 -0.458205 0
M  V30 7862 H 768.936 3.79769 1.7344 0
M  V30 7863 H 770.326 6.61802 -1.1605 0
M  V30 7864 N 773.046 0.209999 1.56195 0
M  V30 7865 C 774.276 -0.429373 2.02089 0
M  V30 7866 C 774.684 -1.54703 1.0892 0
M  V30 7867 O 774.027 -1.83485 0.0889535 0
M  V30 7868 C 774.089 -1.03266 3.44349 0
M  V30 7869 C 773.753 -0.0518873 4.56971 0
M  V30 7870 C 774.75 0.744249 5.14545 0
M  V30 7871 C 772.435 0.0635185 5.0226 0
M  V30 7872 C 774.429 1.64261 6.15871 0
M  V30 7873 C 772.116 0.965423 6.03426 0
M  V30 7874 C 773.114 1.75352 6.60106 0
M  V30 7875 O 772.802 2.64029 7.59305 0
M  V30 7876 H 772.534 -0.110604 0.66689 0
M  V30 7877 H 775.088 0.320436 2.02885 0
M  V30 7878 H 773.318 -1.83134 3.40586 0
M  V30 7879 H 775.007 -1.57823 3.73961 0
M  V30 7880 H 775.773 0.665476 4.80413 0
M  V30 7881 H 771.652 -0.539762 4.57829 0
M  V30 7882 H 775.196 2.25819 6.60039 0
M  V30 7883 H 771.093 1.04526 6.36981 0
M  V30 7884 H 771.861 2.57974 7.76783 0
M  V30 7885 N 774.524 -1.57472 -0.0634922 0
M  V30 7886 C 775.94 -1.54016 -0.418466 0
M  V30 7887 C 776.14 -0.931376 -1.78683 0
M  V30 7888 O 775.196 -0.537465 -2.46714 0
M  V30 7889 C 776.509 -2.98634 -0.351906 0
M  V30 7890 C 778.057 -3.10012 -0.431494 0
M  V30 7891 C 778.532 -4.56296 -0.394754 0
M  V30 7892 N 780.023 -4.60964 -0.454583 0
M  V30 7893 C 780.758 -5.71643 -0.448501 0
M  V30 7894 N 780.254 -6.91663 -0.396742 0
M  V30 7895 N 782.047 -5.5991 -0.495677 0
M  V30 7896 H 774.198 -1.95409 0.832408 0
M  V30 7897 H 776.461 -0.894769 0.313197 0
M  V30 7898 H 776.167 -3.46766 0.587048 0
M  V30 7899 H 776.041 -3.58955 -1.15893 0
M  V30 7900 H 778.428 -2.61848 -1.36087 0
M  V30 7901 H 778.509 -2.52585 0.404258 0
M  V30 7902 H 778.153 -5.05119 0.530811 0
M  V30 7903 H 778.083 -5.11594 -1.24815 0
M  V30 7904 H 780.574 -3.74598 -0.498496 0
M  V30 7905 H 780.887 -7.71783 -0.396256 0
M  V30 7906 H 779.232 -6.9405 -0.363304 0
M  V30 7907 H 782.423 -4.65046 -0.533864 0
M  V30 7908 H 782.596 -6.46164 -0.487469 0
M  V30 7909 N 776.003 0.335068 -1.53997 0
M  V30 7910 C 777.251 1.07223 -1.71312 0
M  V30 7911 C 777.572 1.88911 -0.483486 0
M  V30 7912 O 776.842 1.89344 0.50257 0
M  V30 7913 H 775.422 0.398846 -0.63161 0
M  V30 7914 H 778.084 0.374288 -1.91272 0
M  V30 7915 H 777.18 1.7448 -2.58772 0
M  V30 7916 N 777.481 1.45874 0.596531 0
M  V30 7917 C 778.892 1.44798 1.17857 0
M  V30 7918 C 779.243 0.181443 1.95359 0
M  V30 7919 O 778.368 -0.716336 2.042 0
M  V30 7920 C 778.963 2.62333 2.14398 0
M  V30 7921 C 777.522 2.64342 2.67955 0
M  V30 7922 C 776.669 2.37244 1.43564 0
M  V30 7923 H 779.62 1.53954 0.385222 0
M  V30 7924 H 779.641 2.37063 2.97626 0
M  V30 7925 H 779.153 3.54499 1.57963 0
M  V30 7926 H 777.254 1.76213 3.28298 0
M  V30 7927 H 777.367 3.63897 3.11634 0
M  V30 7928 H 775.731 1.87022 1.72901 0
M  V30 7929 H 776.514 3.31568 0.889805 0
M  V30 7930 N 778.959 -0.83999 1.33349 0
M  V30 7931 C 779.922 -1.93128 1.23426 0
M  V30 7932 C 780.922 -1.60065 0.153599 0
M  V30 7933 O 782.112 -1.69425 0.405049 0
M  V30 7934 C 779.244 -3.28761 0.901622 0
M  V30 7935 H 780.437 -2.03352 2.20427 0
M  V30 7936 H 777.99 -1.03194 1.17391 0
M  V30 7937 H 778.725 -3.24233 -0.0659337 0
M  V30 7938 H 778.51 -3.54138 1.68311 0
M  V30 7939 H 780 -4.08714 0.856913 0
M  V30 7940 N 780.437 -1.16799 -1.0581 0
M  V30 7941 C 781.685 -0.950642 -1.78346 0
M  V30 7942 C 782.006 0.522524 -1.87869 0
M  V30 7943 O 781.276 1.3795 -1.39092 0
M  V30 7944 H 779.856 -0.348736 -0.6606 0
M  V30 7945 H 782.518 -1.47158 -1.27791 0
M  V30 7946 H 781.614 -1.37359 -2.80248 0
M  V30 7947 N 781.915 1.24427 -0.967243 0
M  V30 7948 C 783.192 1.87831 -0.545776 0
M  V30 7949 C 783.572 1.87126 0.977099 0
M  V30 7950 O 782.92 1.34357 1.84826 0
M  V30 7951 C 783.13 3.29967 -1.13679 0
M  V30 7952 C 784.478 4.06654 -1.22139 0
M  V30 7953 O 785.502 3.39136 -1.08926 0
M  V30 7954 O 784.361 5.27455 -1.43017 0
M  V30 7955 H 781.455 0.806745 -0.181912 0
M  V30 7956 H 784.001 1.32403 -1.06148 0
M  V30 7957 H 782.773 3.24977 -2.17958 0
M  V30 7958 H 782.396 3.92969 -0.605093 0
M  V30 7959 N 783.393 0.737304 1.3929 0
M  V30 7960 C 784.356 0.10731 2.28949 0
M  V30 7961 C 785.356 -0.664716 1.46418 0
M  V30 7962 O 786.546 -0.493392 1.67067 0
M  V30 7963 C 783.678 -0.857145 3.29948 0
M  V30 7964 H 784.871 0.89725 2.86163 0
M  V30 7965 H 782.424 0.503279 1.47976 0
M  V30 7966 H 783.159 -1.67336 2.77794 0
M  V30 7967 H 782.944 -0.306167 3.90903 0
M  V30 7968 H 784.434 -1.29444 3.97031 0
M  V30 7969 N 784.871 -1.49948 0.485112 0
M  V30 7970 C 786.099 -2.06806 -0.0622824 0
M  V30 7971 C 786.514 -1.34736 -1.32256 0
M  V30 7972 O 785.871 -0.420836 -1.77582 0
M  V30 7973 C 785.922 -3.59934 -0.336096 0
M  V30 7974 O 785.643 -4.29289 0.874203 0
M  V30 7975 C 787.144 -4.33459 -0.928903 0
M  V30 7976 H 784.364 -0.670867 0.0133472 0
M  V30 7977 H 786.908 -1.92937 0.677917 0
M  V30 7978 H 785.063 -3.7356 -1.02625 0
M  V30 7979 H 785.477 -5.20735 0.627332 0
M  V30 7980 H 786.951 -5.41527 -1.07017 0
M  V30 7981 H 787.428 -3.94881 -1.92265 0
M  V30 7982 H 788.034 -4.24399 -0.276705 0
M  V30 7983 N 786.349 -0.21828 -1.56081 0
M  V30 7984 C 787.595 0.414921 -1.9851 0
M  V30 7985 C 787.928 1.59648 -1.10573 0
M  V30 7986 O 787.203 1.93818 -0.162695 0
M  V30 7987 C 787.486 0.852647 -3.4986 0
M  V30 7988 C 787.339 -0.33232 -4.48571 0
M  V30 7989 C 788.658 1.70998 -4.05521 0
M  V30 7990 H 785.777 0.149344 -0.72171 0
M  V30 7991 H 788.419 -0.313858 -1.8739 0
M  V30 7992 H 786.569 1.47362 -3.59467 0
M  V30 7993 H 788.241 -0.970418 -4.50977 0
M  V30 7994 H 786.484 -0.980302 -4.22578 0
M  V30 7995 H 787.155 0.0168407 -5.51997 0
M  V30 7996 H 789.631 1.18606 -3.98838 0
M  V30 7997 H 788.507 1.98517 -5.11744 0
M  V30 7998 H 788.768 2.67219 -3.52202 0
M  V30 7999 N 787.827 1.57504 0.0551401 0
M  V30 8000 C 788.79 2.03826 1.04821 0
M  V30 8001 C 789.79 0.937968 1.30609 0
M  V30 8002 O 790.98 1.20237 1.2605 0
M  V30 8003 C 788.112 2.43309 2.38775 0
M  V30 8004 H 789.305 2.92802 0.6486 0
M  V30 8005 H 786.858 1.53368 0.301315 0
M  V30 8006 H 787.593 1.5741 2.83536 0
M  V30 8007 H 787.378 3.23615 2.21395 0
M  V30 8008 H 788.868 2.79666 3.10124 0
M  V30 8009 N 789.305 -0.326896 1.54172 0
M  V30 8010 C 790.53 -1.08924 1.76494 0
M  V30 8011 C 790.955 -1.81039 0.510523 0
M  V30 8012 O 790.313 -1.73141 -0.537756 0
M  V30 8013 C 790.361 -2.06558 2.95578 0
M  V30 8014 O 789.465 -3.14394 2.6689 0
M  V30 8015 H 788.806 -0.314216 0.584948 0
M  V30 8016 H 791.336 -0.372207 2.01186 0
M  V30 8017 H 791.346 -2.49487 3.22832 0
M  V30 8018 H 790.021 -1.53469 3.86549 0
M  V30 8019 H 788.598 -2.76164 2.50576 0
M  V30 8020 N 790.784 -1.46188 -0.588786 0
M  V30 8021 C 791.694 -1.58865 -1.72624 0
M  V30 8022 C 792.71 -0.472348 -1.67466 0
M  V30 8023 O 793.886 -0.735638 -1.87484 0
M  V30 8024 C 790.951 -1.56989 -3.0912 0
M  V30 8025 C 790.012 -2.79804 -3.25589 0
M  V30 8026 C 789.245 -2.78009 -4.55573 0
M  V30 8027 O 789.468 -1.86406 -5.39082 0
M  V30 8028 O 788.402 -3.6947 -4.75159 0
M  V30 8029 H 792.228 -2.55047 -1.64878 0
M  V30 8030 H 789.813 -1.28912 -0.755115 0
M  V30 8031 H 791.695 -1.58618 -3.90408 0
M  V30 8032 H 790.37 -0.639648 -3.17317 0
M  V30 8033 H 789.277 -2.83732 -2.43818 0
M  V30 8034 H 790.61 -3.72017 -3.22279 0
M  V30 8035 N 792.262 0.832906 -1.33792 0
M  V30 8036 C 793.209 1.94314 -1.24541 0
M  V30 8037 C 794.179 1.65646 -0.122753 0
M  V30 8038 O 795.364 1.88394 -0.30204 0
M  V30 8039 C 792.504 3.30395 -0.996641 0
M  V30 8040 C 791.617 3.71422 -2.20612 0
M  V30 8041 C 790.752 4.96401 -1.89101 0
M  V30 8042 C 789.791 5.2998 -3.06247 0
M  V30 8043 N 788.928 6.46137 -2.74685 0
M  V30 8044 H 793.768 2.01559 -2.19495 0
M  V30 8045 H 791.305 0.986243 -1.09141 0
M  V30 8046 H 793.263 4.08803 -0.832817 0
M  V30 8047 H 791.893 3.22691 -0.0838242 0
M  V30 8048 H 790.945 2.88488 -2.47949 0
M  V30 8049 H 792.257 3.92215 -3.0817 0
M  V30 8050 H 791.411 5.82572 -1.69396 0
M  V30 8051 H 790.15 4.7759 -0.987882 0
M  V30 8052 H 789.155 4.42312 -3.26559 0
M  V30 8053 H 790.38 5.50737 -3.97323 0
M  V30 8054 H 788.326 6.28801 -1.86938 0
M  V30 8055 H 788.243 6.67054 -3.55774 0
M  V30 8056 H 789.511 7.35403 -2.58461 0
M  V30 8057 N 793.74 1.17359 1.05189 0
M  V30 8058 C 794.65 0.904984 2.16442 0
M  V30 8059 C 795.666 -0.12686 1.73537 0
M  V30 8060 O 796.842 0.0524127 2.01332 0
M  V30 8061 C 793.907 0.422019 3.44122 0
M  V30 8062 C 792.968 1.52045 4.01473 0
M  V30 8063 C 792.201 1.06044 5.23059 0
M  V30 8064 O 792.424 -0.0854023 5.70336 0
M  V30 8065 O 791.358 1.85349 5.72651 0
M  V30 8066 H 795.184 1.8356 2.41949 0
M  V30 8067 H 792.769 0.95447 1.14936 0
M  V30 8068 H 794.651 0.160208 4.21095 0
M  V30 8069 H 793.326 -0.480444 3.20115 0
M  V30 8070 H 792.233 1.83615 3.25939 0
M  V30 8071 H 793.566 2.39863 4.29798 0
M  V30 8072 N 795.218 -1.23913 0.973828 0
M  V30 8073 C 796.443 -1.96735 0.656511 0
M  V30 8074 C 796.868 -1.71682 -0.768571 0
M  V30 8075 O 796.226 -0.984267 -1.52256 0
M  V30 8076 C 796.274 -3.48004 0.944735 0
M  V30 8077 O 795.378 -4.12387 0.0333357 0
M  V30 8078 H 794.719 -0.616119 0.247575 0
M  V30 8079 H 797.249 -1.57525 1.30564 0
M  V30 8080 H 797.259 -3.98424 0.87876 0
M  V30 8081 H 795.934 -3.65567 1.98328 0
M  V30 8082 H 794.511 -3.72585 0.153157 0
M  V30 8083 N 796.696 -0.74468 -1.38897 0
M  V30 8084 C 797.942 -0.297324 -2.00609 0
M  V30 8085 C 798.275 1.11547 -1.58968 0
M  V30 8086 O 797.55 1.76227 -0.823057 0
M  V30 8087 C 797.833 -0.410125 -3.57757 0
M  V30 8088 C 797.686 -1.86338 -4.09387 0
M  V30 8089 C 799.005 0.20176 -4.39637 0
M  V30 8090 H 796.124 -0.109509 -0.728819 0
M  V30 8091 H 798.766 -0.942653 -1.64967 0
M  V30 8092 H 796.916 0.139287 -3.8825 0
M  V30 8093 H 798.588 -2.47042 -3.89574 0
M  V30 8094 H 796.831 -2.38146 -3.62586 0
M  V30 8095 H 797.502 -1.89352 -5.18507 0
M  V30 8096 H 799.978 -0.266703 -4.15244 0
M  V30 8097 H 798.854 0.0925415 -5.48822 0
M  V30 8098 H 799.115 1.289 -4.22891 0
M  V30 8099 N 798.174 1.49689 -0.493057 0
M  V30 8100 C 799.107 2.25712 0.336062 0
M  V30 8101 C 800.085 1.29953 0.977294 0
M  V30 8102 O 801.269 1.59225 1.00895 0
M  V30 8103 C 798.396 3.0501 1.47263 0
M  V30 8104 C 797.442 4.15863 0.946575 0
M  V30 8105 S 798.275 5.35272 -0.156323 0
M  V30 8106 C 799.431 6.18123 0.983601 0
M  V30 8107 H 799.664 2.95688 -0.309215 0
M  V30 8108 H 797.197 1.51872 -0.278238 0
M  V30 8109 H 799.155 3.51284 2.12391 0
M  V30 8110 H 797.816 2.34519 2.08949 0
M  V30 8111 H 797.009 4.70834 1.7981 0
M  V30 8112 H 796.611 3.72139 0.372647 0
M  V30 8113 H 798.903 6.50588 1.89056 0
M  V30 8114 H 799.846 7.06521 0.472687 0
M  V30 8115 H 800.254 5.50547 1.24735 0
M  V30 8116 O 799.691 0.368172 1.57247 0
M  V30 8117 H 800.382 -0.181825 1.92845 0
M  V30 END ATOM
M  V30 BEGIN BOND
M  V30 END BOND
M  V30 END CTAB
M  END
$$$$
