drugbank_target|P16608 Tryptophan synthase alpha chain (DB03171)
 OpenBabel12092119583D

  0  0  0     0  0            999 V3000
M  V30 BEGIN CTAB
M  V30 COUNTS 4160 4196 0 0 0
M  V30 BEGIN ATOM
M  V30 1 H -0.908 1.98254 -0.117106 0
M  V30 2 N 0 1.576 0 0
M  V30 3 C 0.933 2.03868 1.02534 0
M  V30 4 C 1.911 0.928543 1.3348 0
M  V30 5 O 3.095 1.19667 1.45644 0
M  V30 6 C 0.222 2.43627 2.35294 0
M  V30 7 C -0.732 3.65373 2.2001 0
M  V30 8 S 0.101 5.13292 1.52614 0
M  V30 9 C 1.257 5.56322 2.86805 0
M  V30 10 H 1.49 2.90518 0.631377 0
M  V30 11 H -0.977 1.52953 0.210867 0
M  V30 12 H 0.981 2.67203 3.11629 0
M  V30 13 H -0.358 1.57376 2.7183 0
M  V30 14 H -1.165 3.90944 3.18086 0
M  V30 15 H -1.563 3.418 1.51819 0
M  V30 16 H 0.729 5.58782 3.83104 0
M  V30 17 H 1.672 6.56266 2.65933 0
M  V30 18 H 2.08 4.83886 2.90714 0
M  V30 19 N 1.4781 -0.272755 1.55222 0
M  V30 20 C 2.7061 -1.02255 1.79865 0
M  V30 21 C 3.1211 -1.79924 0.572088 0
M  V30 22 O 2.4781 -1.76638 -0.458842 0
M  V30 23 C 2.5291 -1.98094 3.02392 0
M  V30 24 O 2.2501 -1.23572 4.20311 0
M  V30 25 C 3.7511 -2.84884 3.39641 0
M  V30 26 H 0.9711 -0.302057 0.599168 0
M  V30 27 H 3.5151 -0.303465 2.02236 0
M  V30 28 H 1.6701 -2.65465 2.82147 0
M  V30 29 H 2.0841 -1.88172 4.89583 0
M  V30 30 H 3.5581 -3.47927 4.28545 0
M  V30 31 H 4.0351 -3.54665 2.59055 0
M  V30 32 H 4.6411 -2.23003 3.62146 0
M  V30 33 N 2.9562 -1.48159 -0.537278 0
M  V30 34 C 4.1842 -1.59454 -1.31841 0
M  V30 35 C 4.5992 -0.252065 -1.8711 0
M  V30 36 O 3.9562 0.757621 -1.66031 0
M  V30 37 C 4.0072 -2.63546 -2.47439 0
M  V30 38 O 3.7282 -3.92583 -1.94449 0
M  V30 39 C 5.2292 -2.85212 -3.39366 0
M  V30 40 H 2.4492 -0.53785 -0.401196 0
M  V30 41 H 4.9932 -1.93932 -0.648891 0
M  V30 42 H 3.1482 -2.31946 -3.1029 0
M  V30 43 H 3.5622 -4.49629 -2.70063 0
M  V30 44 H 5.0362 -3.61863 -4.16844 0
M  V30 45 H 5.5132 -1.93765 -3.94147 0
M  V30 46 H 6.1192 -3.18086 -2.82314 0
M  V30 47 N 4.4343 0.785586 -1.36625 0
M  V30 48 C 5.3643 1.91259 -1.33949 0
M  V30 49 C 6.3453 1.68795 -0.210325 0
M  V30 50 O 7.5303 1.89854 -0.408561 0
M  V30 51 C 4.6603 3.28339 -1.13186 0
M  V30 52 C 3.6143 3.65335 -2.22967 0
M  V30 53 C 2.9403 5.00806 -1.87342 0
M  V30 54 C 4.2403 3.7352 -3.65075 0
M  V30 55 H 5.9343 1.93755 -2.28253 0
M  V30 56 H 3.4803 0.930788 -1.09874 0
M  V30 57 H 5.4333 4.06804 -1.09948 0
M  V30 58 H 4.1573 3.2624 -0.153332 0
M  V30 59 H 2.8163 2.89169 -2.25337 0
M  V30 60 H 2.4643 4.95233 -0.880545 0
M  V30 61 H 2.1643 5.26529 -2.60846 0
M  V30 62 H 3.6883 5.81687 -1.85667 0
M  V30 63 H 5.1023 4.42168 -3.64911 0
M  V30 64 H 3.4993 4.10731 -4.37516 0
M  V30 65 H 4.5693 2.74527 -3.99703 0
M  V30 66 N 5.9124 1.20967 1.01018 0
M  V30 67 C 6.8224 0.980157 2.13143 0
M  V30 68 C 7.8384 -0.0660665 1.73875 0
M  V30 69 O 9.0144 0.122821 2.01025 0
M  V30 70 C 6.0794 0.54216 3.42435 0
M  V30 71 C 5.1404 1.65999 3.95908 0
M  V30 72 C 4.3734 1.2428 5.19028 0
M  V30 73 O 4.5964 0.114196 5.70286 0
M  V30 74 O 3.5304 2.05271 5.65816 0
M  V30 75 H 7.3564 1.91913 2.35379 0
M  V30 76 H 4.9414 0.994099 1.11526 0
M  V30 77 H 6.8234 0.30744 4.20277 0
M  V30 78 H 5.4984 -0.36815 3.216 0
M  V30 79 H 4.4054 1.94906 3.19316 0
M  V30 80 H 5.7384 2.54753 4.21143 0
M  V30 81 N 7.3905 -1.2043 1.01659 0
M  V30 82 C 8.3535 -2.21433 0.591616 0
M  V30 83 C 9.3535 -1.57203 -0.338226 0
M  V30 84 O 10.5435 -1.73737 -0.126918 0
M  V30 85 C 7.6755 -3.40628 -0.136058 0
M  V30 86 H 8.8685 -2.60545 1.48514 0
M  V30 87 H 6.4215 -1.33893 0.806379 0
M  V30 88 H 7.1565 -3.07019 -1.04449 0
M  V30 89 H 6.9415 -3.88475 0.531917 0
M  V30 90 H 8.4315 -4.15475 -0.420735 0
M  V30 91 N 8.8686 -0.792821 -1.36206 0
M  V30 92 C 10.1156 -0.366786 -1.99151 0
M  V30 93 C 10.4436 1.06243 -1.62919 0
M  V30 94 O 9.6986 1.74927 -0.877442 0
M  V30 95 C 9.9976 -0.481501 -3.54142 0
M  V30 96 C 9.6636 -1.87202 -4.10203 0
M  V30 97 C 8.3256 -2.25248 -4.25226 0
M  V30 98 C 10.6776 -2.78237 -4.40719 0
M  V30 99 C 8.0056 -3.53723 -4.68078 0
M  V30 100 C 10.3576 -4.06144 -4.85005 0
M  V30 101 C 9.0216 -4.44207 -4.98234 0
M  V30 102 H 8.2916 -0.134217 -0.728743 0
M  V30 103 H 10.9386 -1.01094 -1.62641 0
M  V30 104 H 9.2436 0.246146 -3.91026 0
M  V30 105 H 10.9406 -0.132844 -4.0078 0
M  V30 106 H 7.5306 -1.56639 -3.98951 0
M  V30 107 H 11.7146 -2.50097 -4.28679 0
M  V30 108 H 6.9706 -3.8308 -4.76508 0
M  V30 109 H 11.1446 -4.76796 -5.07581 0
M  V30 110 H 8.7716 -5.43814 -5.31197 0
M  V30 111 N 10.3467 1.47872 -0.545128 0
M  V30 112 C 11.3097 2.28337 0.198717 0
M  V30 113 C 12.3097 1.36255 0.853888 0
M  V30 114 O 13.4997 1.59003 0.711606 0
M  V30 115 C 10.6317 3.15585 1.28915 0
M  V30 116 H 11.8247 2.95567 -0.507941 0
M  V30 117 H 9.3777 1.53362 -0.301616 0
M  V30 118 H 10.1127 2.53019 2.02859 0
M  V30 119 H 9.8977 3.83337 0.824309 0
M  V30 120 H 11.3877 3.76243 1.81194 0
M  V30 121 N 11.8248 0.280983 1.55075 0
M  V30 122 C 12.7718 -0.603937 2.22758 0
M  V30 123 C 13.7418 -1.1452 1.20309 0
M  V30 124 O 14.9268 -1.19343 1.48869 0
M  V30 125 C 12.0668 -1.77947 2.95684 0
M  V30 126 C 11.1798 -1.2715 4.12864 0
M  V30 127 C 10.3148 -2.4093 4.7342 0
M  V30 128 C 9.3538 -1.87165 5.82783 0
M  V30 129 N 8.4908 -2.94441 6.37377 0
M  V30 130 H 13.3308 -0.020124 2.97993 0
M  V30 131 H 10.8678 0.00183425 1.471 0
M  V30 132 H 12.8258 -2.47055 3.36184 0
M  V30 133 H 11.4558 -2.33522 2.22861 0
M  V30 134 H 10.5078 -0.473331 3.77444 0
M  V30 135 H 11.8198 -0.837751 4.91715 0
M  V30 136 H 10.9738 -3.18021 5.1667 0
M  V30 137 H 9.7128 -2.87623 3.93859 0
M  V30 138 H 8.7178 -1.08556 5.38976 0
M  V30 139 H 9.9428 -1.41401 6.64216 0
M  V30 140 H 7.8888 -3.40505 5.60707 0
M  V30 141 H 7.8058 -2.55501 7.11516 0
M  V30 142 H 9.0738 -3.71489 6.85285 0
M  V30 143 N 13.3029 -1.57598 0.00835791 0
M  V30 144 C 14.2659 -2.07884 -0.965242 0
M  V30 145 C 15.2659 -0.989825 -1.26725 0
M  V30 146 O 16.4559 -1.25218 -1.21104 0
M  V30 147 C 13.5879 -2.52731 -2.28779 0
M  V30 148 H 14.7809 -2.95178 -0.530112 0
M  V30 149 H 12.3339 -1.54458 -0.239283 0
M  V30 150 H 13.0689 -1.68705 -2.76964 0
M  V30 151 H 12.8539 -3.32272 -2.08177 0
M  V30 152 H 14.3439 -2.91933 -2.98605 0
M  V30 153 N 14.781 0.264519 -1.55364 0
M  V30 154 C 16.197 0.61215 -1.47394 0
M  V30 155 C 16.397 1.89134 -0.695018 0
M  V30 156 O 15.453 2.51563 -0.217275 0
M  V30 157 C 16.766 0.731235 -2.91674 0
M  V30 158 C 18.314 0.82473 -3.01939 0
M  V30 159 C 18.789 0.975522 -4.4749 0
M  V30 160 N 20.28 1.04083 -4.51354 0
M  V30 161 C 21.015 1.17646 -5.61201 0
M  V30 162 N 20.511 1.27874 -6.80896 0
M  V30 163 N 22.304 1.20823 -5.48961 0
M  V30 164 H 14.455 -0.575456 -2.04456 0
M  V30 165 H 16.718 -0.196099 -0.927496 0
M  V30 166 H 16.424 -0.138392 -3.51428 0
M  V30 167 H 16.298 1.60883 -3.41169 0
M  V30 168 H 18.685 1.68482 -2.42276 0
M  V30 169 H 18.766 -0.0776479 -2.55682 0
M  V30 170 H 18.41 0.120058 -5.07758 0
M  V30 171 H 18.34 1.89268 -4.91412 0
M  V30 172 H 20.831 0.973846 -3.65136 0
M  V30 173 H 21.144 1.38081 -7.60364 0
M  V30 174 H 19.489 1.24863 -6.83692 0
M  V30 175 H 22.68 1.12469 -4.54388 0
M  V30 176 H 22.853 1.31049 -6.3461 0
M  V30 177 N 16.2591 1.48442 0.529413 0
M  V30 178 C 17.4841 1.60406 1.31471 0
M  V30 179 C 17.9091 0.264738 1.86228 0
M  V30 180 O 17.2671 -0.763668 1.64432 0
M  V30 181 C 17.3151 2.65419 2.44101 0
M  V30 182 O 16.4191 2.22618 3.47153 0
M  V30 183 H 15.7601 0.537863 0.389357 0
M  V30 184 H 18.2901 1.94432 0.636965 0
M  V30 185 H 18.3001 2.86709 2.90279 0
M  V30 186 H 16.9751 3.62652 2.03608 0
M  V30 187 H 15.5521 2.11543 3.0709 0
M  V30 188 N 17.7372 -0.778329 1.37039 0
M  V30 189 C 18.6472 -1.92253 1.34446 0
M  V30 190 C 19.6632 -1.72267 0.244991 0
M  V30 191 O 20.8392 -1.95615 0.479258 0
M  V30 192 C 17.9042 -3.27282 1.144 0
M  V30 193 C 16.9652 -3.59969 2.33925 0
M  V30 194 C 16.1982 -4.88555 2.14825 0
M  V30 195 O 16.4212 -5.59113 1.12912 0
M  V30 196 O 15.3552 -5.20153 3.02861 0
M  V30 197 H 19.1812 -1.97392 2.30803 0
M  V30 198 H 16.7662 -0.920154 1.17701 0
M  V30 199 H 18.6482 -4.08062 1.05182 0
M  V30 200 H 17.3232 -3.23011 0.211124 0
M  V30 201 H 16.2302 -2.7945 2.48714 0
M  V30 202 H 17.5632 -3.68976 3.25757 0
M  V30 203 N 19.2153 -1.21501 -1.00376 0
M  V30 204 C 20.4633 -1.03095 -1.73827 0
M  V30 205 C 20.7843 0.436341 -1.90055 0
M  V30 206 O 20.0543 1.31466 -1.45236 0
M  V30 207 H 18.6343 -0.378487 -0.644016 0
M  V30 208 H 21.2963 -1.52831 -1.20949 0
M  V30 209 H 20.3923 -1.49991 -2.73695 0
M  V30 210 N 20.6934 1.19889 -1.02296 0
M  V30 211 C 22.1094 1.41462 -0.738954 0
M  V30 212 C 22.3094 1.89721 0.678846 0
M  V30 213 O 21.3654 2.07016 1.4457 0
M  V30 214 C 22.6784 2.43083 -1.77005 0
M  V30 215 C 24.2264 2.5684 -1.78892 0
M  V30 216 C 24.7014 3.61709 -2.80945 0
M  V30 217 N 26.1924 3.69199 -2.79725 0
M  V30 218 C 26.9274 4.50019 -3.55345 0
M  V30 219 N 26.4234 5.34592 -4.40662 0
M  V30 220 N 28.2164 4.44612 -3.43914 0
M  V30 221 H 20.3674 0.868827 -1.93817 0
M  V30 222 H 22.6304 0.44399 -0.837602 0
M  V30 223 H 22.3364 2.14636 -2.78612 0
M  V30 224 H 22.2104 3.4217 -1.58744 0
M  V30 225 H 24.5974 2.84614 -0.779674 0
M  V30 226 H 24.6784 1.57927 -2.01228 0
M  V30 227 H 24.3224 3.34678 -3.82038 0
M  V30 228 H 24.2524 4.60259 -2.5587 0
M  V30 229 H 26.7434 3.08794 -2.17842 0
M  V30 230 H 27.0564 5.93363 -4.95116 0
M  V30 231 H 25.4014 5.34073 -4.44737 0
M  V30 232 H 28.5924 3.7758 -2.76679 0
M  V30 233 H 28.7654 5.0736 -4.031 0
M  V30 234 N 22.1715 0.800033 1.35784 0
M  V30 235 C 23.1345 0.211565 2.28221 0
M  V30 236 C 24.1345 -0.59728 1.49296 0
M  V30 237 O 25.3245 -0.416721 1.69142 0
M  V30 238 C 22.4565 -0.705846 3.33513 0
M  V30 239 H 23.6495 1.02677 2.81776 0
M  V30 240 H 21.2025 0.570211 1.45528 0
M  V30 241 H 21.9375 -1.54498 2.85133 0
M  V30 242 H 21.7225 -0.127655 3.91892 0
M  V30 243 H 23.2125 -1.11211 4.02519 0
M  V30 244 N 23.6496 -1.47581 0.552962 0
M  V30 245 C 24.6126 -2.28439 -0.186605 0
M  V30 246 C 25.6126 -1.36706 -0.84665 0
M  V30 247 O 26.8026 -1.59378 -0.703164 0
M  V30 248 C 23.9346 -3.16264 -1.2724 0
M  V30 249 H 25.1276 -2.95294 0.523609 0
M  V30 250 H 22.6806 -1.532 0.309745 0
M  V30 251 H 23.4156 -2.54091 -2.01514 0
M  V30 252 H 23.2006 -3.83769 -0.803968 0
M  V30 253 H 24.6906 -3.77198 -1.79196 0
M  V30 254 N 25.1277 -0.289203 -1.54924 0
M  V30 255 C 26.0577 0.58549 -2.2604 0
M  V30 256 C 27.0387 1.14753 -1.25562 0
M  V30 257 O 28.2237 1.17906 -1.54311 0
M  V30 258 C 25.3537 1.76305 -2.99222 0
M  V30 259 C 24.3077 1.33191 -4.06748 0
M  V30 260 C 23.6337 2.5937 -4.6758 0
M  V30 261 C 24.9337 0.471775 -5.20165 0
M  V30 262 H 26.6277 -0.00763532 -2.99399 0
M  V30 263 H 24.1737 -0.00511229 -1.43999 0
M  V30 264 H 26.1267 2.38097 -3.47689 0
M  V30 265 H 24.8507 2.38223 -2.23422 0
M  V30 266 H 23.5097 0.737121 -3.59113 0
M  V30 267 H 23.1577 3.19576 -3.88433 0
M  V30 268 H 22.8577 2.31228 -5.40192 0
M  V30 269 H 24.3817 3.21985 -5.18804 0
M  V30 270 H 25.7957 0.995056 -5.64599 0
M  V30 271 H 24.1927 0.284639 -5.99425 0
M  V30 272 H 25.2627 -0.506041 -4.82252 0
M  V30 273 N 26.6058 1.57591 -0.0167156 0
M  V30 274 C 27.8548 1.90461 0.663877 0
M  V30 275 C 28.1678 0.893515 1.73999 0
M  V30 276 O 29.3738 1.11302 2.47637 0
M  V30 277 C 27.8298 3.38155 1.23204 0
M  V30 278 C 27.4378 4.47597 0.189866 0
M  V30 279 C 29.1818 3.80111 1.88986 0
M  V30 280 C 27.0888 5.86379 0.768964 0
M  V30 281 H 26.0188 0.710738 0.251729 0
M  V30 282 H 28.6698 1.83326 -0.0799926 0
M  V30 283 H 27.0518 3.40182 2.02712 0
M  V30 284 H 28.2258 4.57112 -0.581846 0
M  V30 285 H 26.5408 4.14766 -0.368475 0
M  V30 286 H 29.1378 4.81145 2.33247 0
M  V30 287 H 29.4808 3.14511 2.72743 0
M  V30 288 H 30.0138 3.80454 1.16187 0
M  V30 289 H 26.7528 6.55493 -0.0301957 0
M  V30 290 H 26.2728 5.80496 1.50945 0
M  V30 291 H 27.9518 6.34563 1.26251 0
M  V30 292 N 28.0839 -0.256276 1.55502 0
M  V30 293 C 29.4949 -0.826068 1.67431 0
M  V30 294 C 29.8459 -1.86396 0.612446 0
M  V30 295 O 28.9709 -2.15031 -0.243025 0
M  V30 296 C 29.5659 -1.50512 3.03532 0
M  V30 297 C 28.1249 -2.02273 3.17431 0
M  V30 298 C 27.2719 -0.870548 2.63281 0
M  V30 299 H 30.2229 -0.0322728 1.58667 0
M  V30 300 H 30.2439 -2.37279 2.97454 0
M  V30 301 H 29.7559 -0.749484 3.80794 0
M  V30 302 H 27.8569 -2.80746 2.44974 0
M  V30 303 H 27.9699 -2.22655 4.24219 0
M  V30 304 H 26.3339 -1.26851 2.20864 0
M  V30 305 H 27.1169 -0.128149 3.43061 0
M  V30 306 N 29.562 -1.4872 -0.521534 0
M  V30 307 C 30.792 -1.6061 -1.29954 0
M  V30 308 C 31.2 -0.268728 -1.87282 0
M  V30 309 O 30.543 0.753221 -1.67548 0
M  V30 310 C 30.605 -2.60013 -2.48261 0
M  V30 311 C 30.269 -4.04874 -2.11957 0
M  V30 312 C 31.266 -4.92304 -1.67132 0
M  V30 313 C 28.951 -4.5047 -2.22221 0
M  V30 314 C 30.945 -6.2336 -1.33047 0
M  V30 315 C 28.632 -5.81544 -1.87748 0
M  V30 316 C 29.63 -6.67812 -1.43234 0
M  V30 317 O 29.318 -7.96446 -1.09217 0
M  V30 318 H 29.05 -0.544116 -0.401141 0
M  V30 319 H 31.604 -1.95339 -0.634958 0
M  V30 320 H 29.834 -2.20422 -3.17728 0
M  V30 321 H 31.523 -2.61648 -3.10315 0
M  V30 322 H 32.289 -4.58312 -1.58665 0
M  V30 323 H 28.168 -3.83504 -2.55823 0
M  V30 324 H 31.712 -6.90649 -0.982299 0
M  V30 325 H 27.609 -6.15069 -1.95858 0
M  V30 326 H 28.377 -8.09275 -1.22542 0
M  V30 327 N 31.0401 0.771051 -1.3745 0
M  V30 328 C 31.9701 1.89827 -1.3597 0
M  V30 329 C 32.9511 1.68562 -0.228216 0
M  V30 330 O 34.1361 1.8941 -0.428675 0
M  V30 331 C 31.2661 3.2712 -1.16662 0
M  V30 332 C 30.2201 3.6295 -2.2683 0
M  V30 333 C 29.5461 4.98791 -1.92644 0
M  V30 334 C 30.8461 3.69627 -3.69017 0
M  V30 335 H 32.5401 1.91323 -2.30295 0
M  V30 336 H 30.0861 0.919082 -1.10855 0
M  V30 337 H 32.0391 4.05615 -1.14256 0
M  V30 338 H 30.7631 3.26059 -0.187926 0
M  V30 339 H 29.4221 2.86763 -2.28392 0
M  V30 340 H 29.0701 4.94271 -0.933021 0
M  V30 341 H 28.7701 5.23733 -2.66416 0
M  V30 342 H 30.2941 5.79685 -1.91826 0
M  V30 343 H 31.7081 4.38273 -3.69581 0
M  V30 344 H 30.1051 4.06067 -4.41848 0
M  V30 345 H 31.1751 2.70273 -4.02592 0
M  V30 346 N 32.5182 1.22032 0.997298 0
M  V30 347 C 33.7462 1.06841 1.7718 0
M  V30 348 C 34.1612 -0.381325 1.84909 0
M  V30 349 O 33.5182 -1.26437 1.31605 0
M  V30 350 C 33.5692 1.66814 3.20711 0
M  V30 351 O 33.2902 3.06116 3.13408 0
M  V30 352 C 34.7912 1.56838 4.14628 0
M  V30 353 H 32.0112 0.374782 0.556578 0
M  V30 354 H 34.5552 1.61532 1.2541 0
M  V30 355 H 32.7102 1.16196 3.69564 0
M  V30 356 H 33.1242 3.34926 4.0364 0
M  V30 357 H 34.5982 2.03532 5.13107 0
M  V30 358 H 35.0752 0.524155 4.36061 0
M  V30 359 H 35.6812 2.06741 3.7167 0
M  V30 360 N 33.9963 -1.19345 1.0293 0
M  V30 361 C 34.9593 -2.20793 0.615069 0
M  V30 362 C 35.9593 -1.57553 -0.321533 0
M  V30 363 O 37.1493 -1.73862 -0.108483 0
M  V30 364 C 34.2813 -3.40754 -0.0999222 0
M  V30 365 H 35.4743 -2.58955 1.51269 0
M  V30 366 H 33.0273 -1.3303 0.820534 0
M  V30 367 H 33.7623 -3.0811 -1.01187 0
M  V30 368 H 33.5473 -3.87889 0.57309 0
M  V30 369 H 35.0373 -4.15898 -0.376645 0
M  V30 370 N 35.4744 -0.807222 -1.35358 0
M  V30 371 C 36.7224 -0.387122 -1.98358 0
M  V30 372 C 37.0434 1.04942 -1.64354 0
M  V30 373 O 36.3134 1.72615 -0.926339 0
M  V30 374 H 34.8934 -0.140154 -0.733734 0
M  V30 375 H 37.5554 -1.0332 -1.6526 0
M  V30 376 H 36.6514 -0.493352 -3.08176 0
M  V30 377 N 36.9525 1.47285 -0.560781 0
M  V30 378 C 38.1995 2.02464 -0.038062 0
M  V30 379 C 38.5275 1.43474 1.31322 0
M  V30 380 O 37.7825 0.581311 1.86867 0
M  V30 381 C 38.0815 3.57258 0.100784 0
M  V30 382 C 37.7475 4.35184 -1.18007 0
M  V30 383 C 36.4095 4.56194 -1.53103 0
M  V30 384 C 38.7615 4.80098 -2.02867 0
M  V30 385 C 36.0895 5.19367 -2.729 0
M  V30 386 C 38.4415 5.44593 -3.21871 0
M  V30 387 C 37.1055 5.63835 -3.57276 0
M  V30 388 H 36.3755 0.740869 -0.0139279 0
M  V30 389 H 39.0225 1.76916 -0.733012 0
M  V30 390 H 37.3275 3.81819 0.878724 0
M  V30 391 H 39.0245 3.97606 0.520639 0
M  V30 392 H 35.6145 4.19113 -0.8968 0
M  V30 393 H 39.7985 4.63642 -1.7706 0
M  V30 394 H 35.0545 5.32459 -3.00496 0
M  V30 395 H 39.2285 5.78358 -3.87911 0
M  V30 396 H 36.8555 6.12557 -4.50197 0
M  V30 397 N 38.4306 0.297415 1.54768 0
M  V30 398 C 39.8416 -0.195947 1.85669 0
M  V30 399 C 40.1926 -1.53707 1.21937 0
M  V30 400 O 39.3176 -2.10164 0.515754 0
M  V30 401 C 39.9126 -0.362318 3.36857 0
M  V30 402 C 38.4716 -0.799901 3.67802 0
M  V30 403 C 37.6186 0.0938578 2.77141 0
M  V30 404 H 40.5696 0.518538 1.4999 0
M  V30 405 H 40.5906 -1.19745 3.61167 0
M  V30 406 H 40.1026 0.613921 3.83214 0
M  V30 407 H 38.2036 -1.78682 3.26961 0
M  V30 408 H 38.3166 -0.621773 4.75048 0
M  V30 409 H 36.6806 -0.426254 2.51108 0
M  V30 410 H 37.4636 1.06639 3.26318 0
M  V30 411 N 39.9087 -1.5758 0.0250728 0
M  V30 412 C 41.1337 -1.96337 -0.668317 0
M  V30 413 C 41.5587 -0.901314 -1.651 0
M  V30 414 O 40.9167 0.138187 -1.80773 0
M  V30 415 C 40.9647 -3.34191 -1.35457 0
M  V30 416 O 40.0687 -3.30269 -2.46974 0
M  V30 417 H 39.4097 -0.640281 -0.175887 0
M  V30 418 H 41.9397 -2.0442 0.0857224 0
M  V30 419 H 41.9497 -3.70331 -1.71228 0
M  V30 420 H 40.6247 -4.11036 -0.634218 0
M  V30 421 H 39.2017 -3.05841 -2.13344 0
M  V30 422 N 41.3868 0.248026 -1.55636 0
M  V30 423 C 42.8028 0.596483 -1.48035 0
M  V30 424 C 43.0028 1.88386 -0.715039 0
M  V30 425 O 42.0588 2.51319 -0.243944 0
M  V30 426 C 43.3718 0.700258 -2.92433 0
M  V30 427 C 44.9198 0.792659 -3.02797 0
M  V30 428 C 45.3948 0.928005 -4.485 0
M  V30 429 N 46.8858 0.992903 -4.52433 0
M  V30 430 C 47.6208 1.11687 -5.62418 0
M  V30 431 N 47.1168 1.20645 -6.82214 0
M  V30 432 N 48.9098 1.14994 -5.50212 0
M  V30 433 H 41.0608 -0.597109 -2.03834 0
M  V30 434 H 43.3238 -0.205925 -0.925364 0
M  V30 435 H 43.0298 -0.175658 -3.51261 0
M  V30 436 H 42.9038 1.57255 -3.42857 0
M  V30 437 H 45.2908 1.65903 -2.4405 0
M  V30 438 H 45.3718 -0.104762 -2.55585 0
M  V30 439 H 45.0158 0.0661971 -5.07857 0
M  V30 440 H 44.9458 1.84045 -4.93391 0
M  V30 441 H 47.4368 0.935064 -3.66149 0
M  V30 442 H 47.7498 1.30008 -7.61786 0
M  V30 443 H 46.0948 1.17605 -6.84977 0
M  V30 444 H 49.2858 1.07643 -4.55555 0
M  V30 445 H 49.4588 1.24311 -6.35965 0
M  V30 446 N 42.8649 1.48995 0.513639 0
M  V30 447 C 43.7749 1.67443 1.64317 0
M  V30 448 C 44.7909 0.556947 1.64846 0
M  V30 449 O 45.9669 0.830082 1.83498 0
M  V30 450 C 43.0319 1.72515 3.00732 0
M  V30 451 C 42.0929 2.96009 3.1093 0
M  V30 452 C 41.3259 3.00829 4.40837 0
M  V30 453 O 41.5489 2.13594 5.28898 0
M  V30 454 O 40.4829 3.93168 4.55744 0
M  V30 455 H 44.3089 2.63106 1.51687 0
M  V30 456 H 41.8939 1.32588 0.688543 0
M  V30 457 H 43.7759 1.78277 3.81831 0
M  V30 458 H 42.4509 0.800278 3.13651 0
M  V30 459 H 41.3579 2.9577 2.29065 0
M  V30 460 H 42.6909 3.87934 3.02933 0
M  V30 461 N 44.343 -0.763751 1.37857 0
M  V30 462 C 45.591 -1.51957 1.33243 0
M  V30 463 C 45.912 -1.94835 -0.0801709 0
M  V30 464 O 45.182 -1.66894 -1.02582 0
M  V30 465 H 43.762 -0.563626 0.49024 0
M  V30 466 H 46.424 -0.908504 1.7243 0
M  V30 467 H 45.52 -2.41523 1.97669 0
M  V30 468 N 45.8211 -1.22559 -0.990812 0
M  V30 469 C 47.0681 -1.05141 -1.73065 0
M  V30 470 C 47.3961 0.413191 -1.9006 0
M  V30 471 O 46.6511 1.32257 -1.44245 0
M  V30 472 C 46.9501 -1.71011 -3.13831 0
M  V30 473 C 46.6161 -3.20911 -3.16745 0
M  V30 474 C 45.2781 -3.61812 -3.17247 0
M  V30 475 C 47.6301 -4.16846 -3.12872 0
M  V30 476 C 44.9581 -4.97127 -3.1158 0
M  V30 477 C 47.3101 -5.5214 -3.08746 0
M  V30 478 C 45.9741 -5.92419 -3.07565 0
M  V30 479 H 45.2441 -0.384738 -0.633291 0
M  V30 480 H 47.8911 -1.5235 -1.16025 0
M  V30 481 H 46.1961 -1.16133 -3.74193 0
M  V30 482 H 47.8931 -1.55023 -3.69823 0
M  V30 483 H 44.4831 -2.88344 -3.17105 0
M  V30 484 H 48.6671 -3.86263 -3.11632 0
M  V30 485 H 43.9231 -5.27562 -3.09012 0
M  V30 486 H 48.0971 -6.26201 -3.04705 0
M  V30 487 H 45.7241 -6.97236 -3.02929 0
M  V30 488 N 47.2992 1.18797 -1.03562 0
M  V30 489 C 48.2292 2.24472 -0.643019 0
M  V30 490 C 49.2102 1.66433 0.351283 0
M  V30 491 O 50.3952 1.92803 0.232505 0
M  V30 492 C 47.5252 3.473 4.24935e-05 0
M  V30 493 C 46.4792 4.18055 -0.917257 0
M  V30 494 C 45.8052 5.34519 -0.138941 0
M  V30 495 C 47.1052 4.72109 -2.23407 0
M  V30 496 H 48.7992 2.57566 -1.52643 0
M  V30 497 H 46.3452 1.23806 -0.735394 0
M  V30 498 H 48.2982 4.20426 0.286383 0
M  V30 499 H 47.0222 3.13424 0.918299 0
M  V30 500 H 45.6812 3.46821 -1.1879 0
M  V30 501 H 45.3292 4.96891 0.781562 0
M  V30 502 H 45.0292 5.82794 -0.750005 0
M  V30 503 H 46.5532 6.10438 0.1405 0
M  V30 504 H 47.9672 5.36955 -2.00879 0
M  V30 505 H 46.3642 5.30897 -2.79765 0
M  V30 506 H 47.4342 3.89807 -2.88407 0
M  V30 507 N 48.7773 0.814389 1.34928 0
M  V30 508 C 49.7093 0.187834 2.28429 0
M  V30 509 C 50.7223 -0.617374 1.5064 0
M  V30 510 O 51.9113 -0.448454 1.72775 0
M  V30 511 C 49.0113 -0.755962 3.30361 0
M  V30 512 C 48.1843 0.00456686 4.374 0
M  V30 513 C 47.2433 -0.858876 5.19143 0
M  V30 514 O 46.2693 -0.306968 5.68372 0
M  V30 515 N 47.4713 -2.17988 5.38016 0
M  V30 516 H 50.2363 0.991105 2.82838 0
M  V30 517 H 47.7973 0.670561 1.4736 0
M  V30 518 H 49.7893 -1.338 3.81942 0
M  V30 519 H 48.3593 -1.46001 2.7641 0
M  V30 520 H 47.5793 0.767865 3.86649 0
M  V30 521 H 48.8673 0.528422 5.06049 0
M  V30 522 H 48.2653 -2.65212 4.99679 0
M  V30 523 H 46.8223 -2.71098 5.92747 0
M  V30 524 N 50.2554 -1.46986 0.568584 0
M  V30 525 C 51.2184 -2.28624 -0.162366 0
M  V30 526 C 52.2184 -1.37596 -0.832103 0
M  V30 527 O 53.4084 -1.60115 -0.68622 0
M  V30 528 C 50.5404 -3.17596 -1.23878 0
M  V30 529 H 51.7334 -2.94722 0.554899 0
M  V30 530 H 49.2864 -1.52863 0.325976 0
M  V30 531 H 50.0214 -2.56214 -1.98808 0
M  V30 532 H 49.8064 -3.846 -0.763219 0
M  V30 533 H 51.2964 -3.79078 -1.75185 0
M  V30 534 N 51.7335 -0.305618 -1.54608 0
M  V30 535 C 52.9795 0.302746 -2.00528 0
M  V30 536 C 53.3125 1.53184 -1.19367 0
M  V30 537 O 52.5875 1.92598 -0.271321 0
M  V30 538 C 52.8705 0.654756 -3.54097 0
M  V30 539 C 52.7235 -0.583793 -4.45995 0
M  V30 540 C 54.0425 1.47947 -4.14487 0
M  V30 541 H 51.1615 0.108564 -0.72896 0
M  V30 542 H 53.8035 -0.418634 -1.85331 0
M  V30 543 H 51.9535 1.26935 -3.67178 0
M  V30 544 H 53.6255 -1.22224 -4.44814 0
M  V30 545 H 51.8685 -1.21615 -4.16404 0
M  V30 546 H 52.5395 -0.293287 -5.5122 0
M  V30 547 H 55.0155 0.96013 -4.04871 0
M  V30 548 H 53.8915 1.69454 -5.22088 0
M  V30 549 H 54.1525 2.47011 -3.66658 0
M  V30 550 N 53.2116 1.57565 -0.0334293 0
M  V30 551 C 54.1216 2.13943 0.962572 0
M  V30 552 C 55.1376 1.09276 1.35406 0
M  V30 553 O 56.3136 1.41355 1.4346 0
M  V30 554 C 53.3786 2.65887 2.22497 0
M  V30 555 C 52.4396 3.85286 1.8935 0
M  V30 556 C 51.6726 4.34743 3.09571 0
M  V30 557 O 51.8956 3.83352 4.22371 0
M  V30 558 O 50.8296 5.26538 2.91618 0
M  V30 559 H 54.6556 2.99333 0.513169 0
M  V30 560 H 52.2406 1.4822 0.18743 0
M  V30 561 H 54.1226 2.99346 2.96598 0
M  V30 562 H 52.7976 1.83578 2.6661 0
M  V30 563 H 51.7046 3.56746 1.1262 0
M  V30 564 H 53.0376 4.68771 1.5005 0
M  V30 565 N 54.6897 -0.239769 1.55765 0
M  V30 566 C 55.5997 -1.31831 1.94056 0
M  V30 567 C 56.6157 -1.52275 0.841925 0
M  V30 568 O 57.7917 -1.65759 1.14394 0
M  V30 569 C 54.8567 -2.65156 2.23368 0
M  V30 570 C 53.9177 -2.53173 3.46701 0
M  V30 571 C 53.1507 -3.8014 3.74606 0
M  V30 572 O 53.3737 -4.82343 3.04469 0
M  V30 573 O 52.3077 -3.78344 4.68123 0
M  V30 574 H 56.1337 -1.02347 2.85935 0
M  V30 575 H 53.7187 -0.441123 1.42739 0
M  V30 576 H 55.6007 -3.43929 2.43497 0
M  V30 577 H 54.2757 -2.94358 1.34666 0
M  V30 578 H 53.1827 -1.72662 3.31871 0
M  V30 579 H 54.5157 -2.28915 4.35728 0
M  V30 580 N 56.1678 -1.49265 -0.50573 0
M  V30 581 C 57.4138 -1.58748 -1.26202 0
M  V30 582 C 57.7468 -0.271227 -1.92297 0
M  V30 583 O 57.0218 0.724831 -1.80489 0
M  V30 584 C 57.3048 -2.74332 -2.33268 0
M  V30 585 C 57.1578 -4.15737 -1.71705 0
M  V30 586 C 58.4768 -2.85576 -3.34865 0
M  V30 587 H 55.5958 -0.577826 -0.457478 0
M  V30 588 H 58.2378 -1.81532 -0.560897 0
M  V30 589 H 56.3878 -2.55036 -2.93068 0
M  V30 590 H 58.0598 -4.46537 -1.15769 0
M  V30 591 H 56.3028 -4.21605 -1.02135 0
M  V30 592 H 56.9738 -4.92477 -2.49341 0
M  V30 593 H 59.4498 -3.03127 -2.8505 0
M  V30 594 H 58.3258 -3.68135 -4.07146 0
M  V30 595 H 58.5868 -1.94732 -3.96903 0
M  V30 596 N 57.6459 0.756429 -1.3826 0
M  V30 597 C 58.5759 1.88374 -1.37976 0
M  V30 598 C 59.5569 1.68311 -0.246082 0
M  V30 599 O 60.7419 1.88944 -0.44874 0
M  V30 600 C 57.8719 3.25864 -1.20125 0
M  V30 601 C 56.8259 3.60523 -2.30666 0
M  V30 602 C 56.1519 4.9672 -1.97923 0
M  V30 603 C 57.4519 3.65692 -3.72916 0
M  V30 604 H 59.1459 1.88869 -2.32312 0
M  V30 605 H 56.6919 0.907272 -1.11824 0
M  V30 606 H 58.6449 4.0438 -1.18552 0
M  V30 607 H 57.3689 3.25841 -0.222498 0
M  V30 608 H 56.0279 2.84324 -2.3142 0
M  V30 609 H 55.6759 4.93253 -0.985393 0
M  V30 610 H 55.3759 5.20878 -2.71955 0
M  V30 611 H 56.8999 5.77618 -1.97964 0
M  V30 612 H 58.3139 4.34328 -3.74208 0
M  V30 613 H 56.7109 4.01358 -4.4613 0
M  V30 614 H 57.7809 2.65987 -4.05436 0
M  V30 615 N 59.124 1.23083 0.984299 0
M  V30 616 C 60.535 1.05609 1.5396 0
M  V30 617 C 60.886 -0.377793 1.92528 0
M  V30 618 O 60.011 -1.26398 1.75649 0
M  V30 619 C 60.606 1.91087 2.7977 0
M  V30 620 C 59.165 1.77885 3.31713 0
M  V30 621 C 58.312 1.87028 2.04733 0
M  V30 622 H 61.263 1.36802 0.804419 0
M  V30 623 H 61.284 1.43336 3.5247 0
M  V30 624 H 60.796 2.9544 2.51668 0
M  V30 625 H 58.897 0.762995 3.64704 0
M  V30 626 H 59.01 2.61047 4.01735 0
M  V30 627 H 57.374 1.30565 2.18689 0
M  V30 628 H 58.157 2.92929 1.79017 0
M  V30 629 N 60.6021 -1.18246 1.0419 0
M  V30 630 C 61.8321 -1.91916 0.764961 0
M  V30 631 C 62.2401 -1.76485 -0.681898 0
M  V30 632 O 61.5831 -1.09275 -1.47664 0
M  V30 633 C 61.6451 -3.4373 1.05309 0
M  V30 634 C 61.3091 -3.8294 2.4941 0
M  V30 635 C 62.3061 -3.86621 3.47592 0
M  V30 636 C 59.9911 -4.142 2.84155 0
M  V30 637 C 61.9851 -4.21013 4.78568 0
M  V30 638 C 59.6721 -4.48262 4.15337 0
M  V30 639 C 60.6701 -4.51645 5.12353 0
M  V30 640 O 60.3581 -4.84911 6.41183 0
M  V30 641 H 60.0901 -0.61606 0.278292 0
M  V30 642 H 62.6441 -1.50947 1.39299 0
M  V30 643 H 60.8741 -3.84946 0.367933 0
M  V30 644 H 62.5631 -3.9865 0.763752 0
M  V30 645 H 63.3291 -3.62607 3.22089 0
M  V30 646 H 59.2081 -4.10743 2.09311 0
M  V30 647 H 62.7521 -4.23568 5.54289 0
M  V30 648 H 58.6491 -4.71737 4.40607 0
M  V30 649 H 59.4171 -5.02809 6.45852 0
M  V30 650 N 62.0802 -0.821533 -1.34494 0
M  V30 651 C 63.0432 -0.247847 -2.27856 0
M  V30 652 C 64.0432 0.573453 -1.50227 0
M  V30 653 O 65.2332 0.389759 -1.69784 0
M  V30 654 C 62.3652 0.652698 -3.34593 0
M  V30 655 H 63.5582 -1.07146 -2.80107 0
M  V30 656 H 61.1112 -0.593291 -1.44602 0
M  V30 657 H 61.8462 1.49943 -2.87555 0
M  V30 658 H 61.6312 0.065292 -3.92046 0
M  V30 659 H 63.1212 1.04793 -4.04238 0
M  V30 660 N 63.5583 1.46682 -0.576371 0
M  V30 661 C 64.8353 1.95599 0.00703437 0
M  V30 662 C 65.2153 1.51904 1.46589 0
M  V30 663 O 64.5633 0.766755 2.15251 0
M  V30 664 C 64.7733 3.4864 -0.158404 0
M  V30 665 C 66.1213 4.24594 -0.0229439 0
M  V30 666 O 67.1453 3.56094 -0.0869173 0
M  V30 667 O 66.0043 5.46373 0.118015 0
M  V30 668 H 63.0983 0.825275 0.053384 0
M  V30 669 H 65.6443 1.56996 -0.644244 0
M  V30 670 H 64.4163 3.7331 -1.17282 0
M  V30 671 H 64.0393 3.94057 0.5296 0
M  V30 672 N 65.0364 0.313813 1.54444 0
M  V30 673 C 65.9664 -0.549454 2.26943 0
M  V30 674 C 66.9474 -1.12741 1.27372 0
M  V30 675 O 68.1324 -1.15436 1.56167 0
M  V30 676 C 65.2624 -1.71523 3.01989 0
M  V30 677 C 64.2164 -1.26703 4.08816 0
M  V30 678 C 63.5424 -2.51898 4.71647 0
M  V30 679 C 64.8424 -0.388962 5.2085 0
M  V30 680 H 66.5364 0.0552661 2.99349 0
M  V30 681 H 64.0824 0.0280207 1.43973 0
M  V30 682 H 66.0354 -2.32535 3.51433 0
M  V30 683 H 64.7594 -2.34639 2.27183 0
M  V30 684 H 63.4184 -0.679896 3.6024 0
M  V30 685 H 63.0664 -3.13356 3.93468 0
M  V30 686 H 62.7664 -2.22605 5.43802 0
M  V30 687 H 64.2904 -3.1369 5.23861 0
M  V30 688 H 65.7044 -0.905107 5.6611 0
M  V30 689 H 64.1014 -0.18924 5.99802 0
M  V30 690 H 65.1714 0.582699 4.81386 0
M  V30 691 N 66.5145 -1.57545 0.0417849 0
M  V30 692 C 67.4445 -2.14009 -0.933929 0
M  V30 693 C 68.4255 -1.05938 -1.33083 0
M  V30 694 O 69.6105 -1.33833 -1.40721 0
M  V30 695 C 66.7405 -2.67747 -2.21199 0
M  V30 696 C 65.6945 -3.80718 -1.95544 0
M  V30 697 C 65.0205 -4.20935 -3.29724 0
M  V30 698 C 66.3205 -5.06258 -1.28452 0
M  V30 699 H 68.0145 -2.95788 -0.463645 0
M  V30 700 H 65.5605 -1.42285 -0.221573 0
M  V30 701 H 67.5135 -3.05886 -2.89848 0
M  V30 702 H 66.2375 -1.83147 -2.70416 0
M  V30 703 H 64.8965 -3.43037 -1.2931 0
M  V30 704 H 64.5445 -3.33298 -3.76724 0
M  V30 705 H 64.2445 -4.9707 -3.13361 0
M  V30 706 H 65.7685 -4.61666 -3.9962 0
M  V30 707 H 67.1825 -5.41903 -1.8712 0
M  V30 708 H 65.5795 -5.87475 -1.22445 0
M  V30 709 H 66.6495 -4.84207 -0.259219 0
M  V30 710 N 67.9926 0.231505 -1.5589 0
M  V30 711 C 68.9026 1.308 -1.94752 0
M  V30 712 C 69.9186 1.51826 -0.849989 0
M  V30 713 O 71.0946 1.6515 -1.15271 0
M  V30 714 C 68.1596 2.63968 -2.24771 0
M  V30 715 C 67.2206 2.51331 -3.48039 0
M  V30 716 C 66.4536 3.78148 -3.76616 0
M  V30 717 O 66.6766 4.80722 -3.07022 0
M  V30 718 O 65.6106 3.75857 -4.70123 0
M  V30 719 H 69.4366 1.0083 -2.86474 0
M  V30 720 H 67.0216 0.433547 -1.42971 0
M  V30 721 H 68.9036 3.42633 -2.45318 0
M  V30 722 H 67.5786 2.9364 -1.36225 0
M  V30 723 H 66.4856 1.709 -3.32782 0
M  V30 724 H 67.8186 2.26601 -4.36936 0
M  V30 725 N 69.4707 1.49531 0.497807 0
M  V30 726 C 70.7197 1.58426 1.24837 0
M  V30 727 C 71.0327 0.277643 1.93619 0
M  V30 728 O 72.2387 0.24517 2.70391 0
M  V30 729 C 70.6947 2.79538 2.26686 0
M  V30 730 C 70.3027 4.16971 1.63828 0
M  V30 731 C 72.0467 2.97764 3.0255 0
M  V30 732 C 69.9537 5.29301 2.63807 0
M  V30 733 H 68.8837 0.58989 0.469623 0
M  V30 734 H 71.5347 1.75923 0.521857 0
M  V30 735 H 69.9167 2.55542 3.02514 0
M  V30 736 H 71.0907 4.51116 0.939711 0
M  V30 737 H 69.4057 4.04129 1.00342 0
M  V30 738 H 72.0027 3.78856 3.77323 0
M  V30 739 H 72.3457 2.08448 3.60354 0
M  V30 740 H 72.8787 3.21815 2.33838 0
M  V30 741 H 69.6177 6.20687 2.10779 0
M  V30 742 H 69.1377 4.99606 3.31894 0
M  V30 743 H 70.8167 5.58768 3.2617 0
M  V30 744 N 70.9488 -0.749086 1.3866 0
M  V30 745 C 72.1968 -1.50535 1.34847 0
M  V30 746 C 72.5178 -1.94909 -0.0595016 0
M  V30 747 O 71.7878 -1.67973 -1.00806 0
M  V30 748 H 70.3678 -0.558395 0.49619 0
M  V30 749 H 73.0298 -0.890165 1.73384 0
M  V30 750 H 72.1258 -2.39413 2.00219 0
M  V30 751 N 72.4269 -1.23603 -0.977757 0
M  V30 752 C 73.3569 -1.04401 -2.0886 0
M  V30 753 C 74.3379 0.0399052 -1.70053 0
M  V30 754 O 75.5229 -0.125246 -1.93796 0
M  V30 755 C 72.6529 -0.637269 -3.41403 0
M  V30 756 C 71.6069 -1.66883 -3.94124 0
M  V30 757 C 70.9329 -1.11745 -5.22893 0
M  V30 758 C 72.2329 -3.06247 -4.23096 0
M  V30 759 H 73.9269 -1.97316 -2.25182 0
M  V30 760 H 71.4729 -0.950096 -1.08209 0
M  V30 761 H 73.4259 -0.48998 -4.18542 0
M  V30 762 H 72.1499 0.327557 -3.24953 0
M  V30 763 H 70.8089 -1.80416 -3.19133 0
M  V30 764 H 70.4569 -0.143527 -5.02795 0
M  V30 765 H 70.1569 -1.80672 -5.59134 0
M  V30 766 H 71.6809 -0.982067 -6.02651 0
M  V30 767 H 73.0949 -2.96001 -4.90975 0
M  V30 768 H 71.4919 -3.72436 -4.70544 0
M  V30 769 H 72.5619 -3.55041 -3.30263 0
M  V30 770 N 73.905 1.17692 -1.04816 0
M  V30 771 C 75.316 1.69501 -0.782698 0
M  V30 772 C 75.667 1.83456 0.695577 0
M  V30 773 O 74.792 1.51942 1.54086 0
M  V30 774 C 75.387 3.07874 -1.41419 0
M  V30 775 C 73.946 3.56864 -1.19686 0
M  V30 776 C 73.093 2.3322 -1.50012 0
M  V30 777 H 76.044 1.02262 -1.2136 0
M  V30 778 H 76.065 3.71528 -0.821428 0
M  V30 779 H 75.577 2.97685 -2.49009 0
M  V30 780 H 73.678 3.72337 -0.140043 0
M  V30 781 H 73.791 4.39851 -1.89916 0
M  V30 782 H 72.155 2.37501 -0.920071 0
M  V30 783 H 72.938 2.25644 -2.58727 0
M  V30 784 N 75.3831 0.828654 1.34056 0
M  V30 785 C 76.6131 0.431993 2.02033 0
M  V30 786 C 77.0211 -0.96844 1.62536 0
M  V30 787 O 76.3641 -1.6391 0.829408 0
M  V30 788 C 76.4261 0.461224 3.56529 0
M  V30 789 C 76.0901 1.81599 4.1937 0
M  V30 790 C 77.0871 2.7777 4.39477 0
M  V30 791 C 74.7721 2.10604 4.56017 0
M  V30 792 C 76.7661 4.01115 4.95364 0
M  V30 793 C 74.4531 3.34207 5.11614 0
M  V30 794 C 75.4511 4.2928 5.31232 0
M  V30 795 O 75.1391 5.50699 5.8565 0
M  V30 796 H 74.8711 0.170943 0.654029 0
M  V30 797 H 77.4251 1.11988 1.72185 0
M  V30 798 H 75.6551 -0.283388 3.8566 0
M  V30 799 H 77.3441 0.0838149 4.05813 0
M  V30 800 H 78.1101 2.56659 4.11523 0
M  V30 801 H 73.9891 1.37402 4.40047 0
M  V30 802 H 77.5331 4.75333 5.10592 0
M  V30 803 H 73.4301 3.55179 5.38997 0
M  V30 804 H 74.1981 5.52298 6.04077 0
M  V30 805 N 76.8612 -1.46375 0.584142 0
M  V30 806 C 78.0862 -2.07268 0.0740405 0
M  V30 807 C 78.5112 -1.42979 -1.22223 0
M  V30 808 O 77.8692 -0.514092 -1.73859 0
M  V30 809 C 77.9172 -3.60518 -0.0767769 0
M  V30 810 O 77.0212 -3.96533 -1.13292 0
M  V30 811 H 76.3622 -0.660961 0.0634524 0
M  V30 812 H 78.8922 -1.87991 0.807492 0
M  V30 813 H 78.9022 -4.07021 -0.282489 0
M  V30 814 H 77.5772 -4.06702 0.86986 0
M  V30 815 H 76.1542 -3.61738 -0.905553 0
M  V30 816 N 78.3393 -0.321999 -1.54275 0
M  V30 817 C 79.6163 0.335232 -1.92706 0
M  V30 818 C 79.9963 1.70006 -1.25145 0
M  V30 819 O 79.3443 2.25067 -0.394596 0
M  V30 820 C 79.5543 0.429008 -3.46353 0
M  V30 821 C 80.9023 0.690029 -4.18956 0
M  V30 822 O 81.9263 0.511992 -3.52501 0
M  V30 823 O 80.7853 1.03338 -5.36641 0
M  V30 824 H 77.8793 0.191143 -0.804608 0
M  V30 825 H 80.4253 -0.3716 -1.65581 0
M  V30 826 H 79.1973 -0.529611 -3.87699 0
M  V30 827 H 78.8203 1.18348 -3.79578 0
M  V30 828 N 79.8174 1.5752 -0.0501392 0
M  V30 829 C 81.2284 1.80271 0.485705 0
M  V30 830 C 81.5794 0.96228 1.70981 0
M  V30 831 O 80.7044 0.178578 2.15662 0
M  V30 832 C 81.2994 3.26957 0.887938 0
M  V30 833 C 79.8584 3.5063 1.36877 0
M  V30 834 C 79.0054 2.75165 0.343468 0
M  V30 835 H 81.9564 1.56281 -0.276028 0
M  V30 836 H 81.9774 3.37821 1.75093 0
M  V30 837 H 81.4894 3.881 -0.0031809 0
M  V30 838 H 79.5904 2.94766 2.27911 0
M  V30 839 H 79.7034 4.59343 1.36164 0
M  V30 840 H 78.0674 2.4127 0.816128 0
M  V30 841 H 78.8504 3.39034 -0.539548 0
M  V30 842 N 81.2955 -0.223234 1.56011 0
M  V30 843 C 82.2255 -1.27988 1.95298 0
M  V30 844 C 83.2065 -1.48976 0.820979 0
M  V30 845 O 84.3915 -1.61188 1.08315 0
M  V30 846 C 81.5215 -2.63 2.26822 0
M  V30 847 C 80.4755 -2.56671 3.42497 0
M  V30 848 C 79.8015 -3.95697 3.59622 0
M  V30 849 C 81.1015 -2.11601 4.77517 0
M  V30 850 H 82.7955 -0.953525 2.8381 0
M  V30 851 H 80.3415 -0.457244 1.36548 0
M  V30 852 H 82.2945 -3.37077 2.52898 0
M  V30 853 H 81.0185 -2.9732 1.35161 0
M  V30 854 H 79.6775 -1.85051 3.16467 0
M  V30 855 H 79.3255 -4.27322 2.6534 0
M  V30 856 H 79.0255 -3.92345 4.37424 0
M  V30 857 H 80.5495 -4.71438 3.88044 0
M  V30 858 H 81.9635 -2.7542 5.02809 0
M  V30 859 H 80.3605 -2.19311 5.5859 0
M  V30 860 H 81.4305 -1.06824 4.72987 0
M  V30 861 N 82.7736 -1.49793 -0.48987 0
M  V30 862 C 84.0216 -1.59525 -1.24081 0
M  V30 863 C 84.3426 -0.288953 -1.92847 0
M  V30 864 O 83.6126 0.692436 -1.83254 0
M  V30 865 H 82.1926 -0.587796 -0.460983 0
M  V30 866 H 84.8546 -1.86477 -0.566778 0
M  V30 867 H 83.9506 -2.39696 -1.99881 0
M  V30 868 N 84.2517 0.741722 -1.39055 0
M  V30 869 C 85.5287 1.49252 -1.26425 0
M  V30 870 C 85.9087 2.10705 0.129144 0
M  V30 871 O 85.2567 1.98045 1.13976 0
M  V30 872 C 85.4667 2.54934 -2.38347 0
M  V30 873 C 86.8147 3.21506 -2.77343 0
M  V30 874 O 87.8387 2.65245 -2.37747 0
M  V30 875 O 86.6977 4.23294 -3.45665 0
M  V30 876 H 83.7917 0.662451 -0.495064 0
M  V30 877 H 86.3377 0.776121 -1.50912 0
M  V30 878 H 85.1097 2.07857 -3.31529 0
M  V30 879 H 84.7327 3.34141 -2.15489 0
M  V30 880 N 85.7298 1.2412 0.971189 0
M  V30 881 C 86.9778 1.07668 1.71032 0
M  V30 882 C 87.2988 -0.385797 1.91146 0
M  V30 883 O 86.5688 -1.27569 1.4867 0
M  V30 884 H 85.1488 0.395429 0.633755 0
M  V30 885 H 87.8108 1.55984 1.16855 0
M  V30 886 H 86.9068 1.57195 2.69622 0
M  V30 887 N 87.2079 -1.17134 1.05439 0
M  V30 888 C 88.6189 -1.69084 0.791676 0
M  V30 889 C 88.9699 -1.83822 -0.685839 0
M  V30 890 O 88.0949 -1.52757 -1.53278 0
M  V30 891 C 88.6899 -3.07119 1.4305 0
M  V30 892 C 87.2489 -3.56225 1.21577 0
M  V30 893 C 86.3959 -2.32421 1.51247 0
M  V30 894 H 89.3469 -1.01617 1.219 0
M  V30 895 H 89.3679 -3.71087 0.84112 0
M  V30 896 H 88.8799 -2.9636 2.50584 0
M  V30 897 H 86.9809 -3.72257 0.159787 0
M  V30 898 H 87.0939 -4.38837 1.92246 0
M  V30 899 H 85.4579 -2.3701 0.932653 0
M  V30 900 H 86.2409 -2.24268 2.5992 0
M  V30 901 N 88.686 -0.835752 -1.33615 0
M  V30 902 C 89.932 -0.430596 -1.98176 0
M  V30 903 C 90.265 1.00684 -1.66061 0
M  V30 904 O 89.54 1.70339 -0.938877 0
M  V30 905 C 89.823 -0.648065 -3.5422 0
M  V30 906 C 89.676 -2.13255 -3.96033 0
M  V30 907 C 90.995 -0.0922113 -4.40003 0
M  V30 908 H 88.114 -0.157924 -0.719881 0
M  V30 909 H 90.756 -1.05069 -1.58305 0
M  V30 910 H 88.906 -0.120237 -3.88314 0
M  V30 911 H 90.578 -2.725 -3.72211 0
M  V30 912 H 88.821 -2.61823 -3.45878 0
M  V30 913 H 89.492 -2.23547 -5.04708 0
M  V30 914 H 91.968 -0.543343 -4.12537 0
M  V30 915 H 90.844 -0.274083 -5.48215 0
M  V30 916 H 91.105 1.00378 -4.30554 0
M  V30 917 N 90.1641 1.46063 -0.591896 0
M  V30 918 C 91.4131 2.01547 -0.0786637 0
M  V30 919 C 91.7261 1.46796 1.29268 0
M  V30 920 O 92.9321 1.94157 1.89777 0
M  V30 921 C 91.3881 3.59787 -0.0900024 0
M  V30 922 C 90.9961 4.23534 -1.46023 0
M  V30 923 C 92.7401 4.22895 0.368806 0
M  V30 924 C 90.6471 5.73881 -1.4288 0
M  V30 925 H 89.5771 0.753564 -0.0256388 0
M  V30 926 H 92.2281 1.677 -0.744905 0
M  V30 927 H 90.6101 3.90752 0.642586 0
M  V30 928 H 91.7841 4.04167 -2.21328 0
M  V30 929 H 90.0991 3.72558 -1.85982 0
M  V30 930 H 92.6961 5.33116 0.411258 0
M  V30 931 H 93.0391 3.9247 1.38827 0
M  V30 932 H 93.5721 3.9659 -0.31001 0
M  V30 933 H 90.3111 6.0898 -2.42536 0
M  V30 934 H 89.8311 5.95486 -0.718095 0
M  V30 935 H 91.5101 6.36776 -1.14565 0
M  V30 936 N 91.6422 0.330177 1.54103 0
M  V30 937 C 92.5742 -0.566902 2.22079 0
M  V30 938 C 93.5872 -1.07462 1.22294 0
M  V30 939 O 94.7762 -0.987065 1.48726 0
M  V30 940 C 91.8762 -1.79138 2.87685 0
M  V30 941 C 91.0492 -1.42123 4.13666 0
M  V30 942 C 90.1082 -2.50394 4.62806 0
M  V30 943 O 89.1342 -2.14261 5.27334 0
M  V30 944 N 90.3362 -3.81433 4.37595 0
M  V30 945 H 93.1012 0.0151844 2.99696 0
M  V30 946 H 90.6622 0.153681 1.61169 0
M  V30 947 H 92.6542 -2.50975 3.1748 0
M  V30 948 H 91.2242 -2.28115 2.13734 0
M  V30 949 H 90.4442 -0.534201 3.90564 0
M  V30 950 H 91.7322 -1.14971 4.9564 0
M  V30 951 H 91.1302 -4.13584 3.8596 0
M  V30 952 H 89.6872 -4.4948 4.72029 0
M  V30 953 N 93.1203 -1.57491 0.0584922 0
M  V30 954 C 94.5363 -1.56792 -0.298091 0
M  V30 955 C 94.7363 -1.06679 -1.70944 0
M  V30 956 O 93.7923 -0.726672 -2.41818 0
M  V30 957 C 95.1053 -3.00461 -0.119879 0
M  V30 958 C 96.6533 -3.1242 -0.190428 0
M  V30 959 C 97.1283 -4.57982 -0.0406567 0
M  V30 960 N 98.6193 -4.63099 -0.0966958 0
M  V30 961 C 99.3543 -5.734 -0.00502943 0
M  V30 962 N 98.8503 -6.9266 0.139402 0
M  V30 963 N 100.643 -5.62067 -0.0611391 0
M  V30 964 H 92.7943 -1.88386 0.98105 0
M  V30 965 H 95.0573 -0.867865 0.381463 0
M  V30 966 H 94.7633 -3.41187 0.85349 0
M  V30 967 H 94.6373 -3.66843 -0.877833 0
M  V30 968 H 97.0243 -2.71589 -1.15427 0
M  V30 969 H 97.1053 -2.48702 0.598405 0
M  V30 970 H 96.7493 -4.995 0.919897 0
M  V30 971 H 96.6793 -5.19715 -0.848727 0
M  V30 972 H 99.1703 -3.77331 -0.207277 0
M  V30 973 H 99.4833 -7.72536 0.201855 0
M  V30 974 H 97.8283 -6.94781 0.174586 0
M  V30 975 H 101.019 -4.67782 -0.172583 0
M  V30 976 H 101.192 -6.47999 0.0137562 0
M  V30 977 N 94.5984 0.214957 -1.56127 0
M  V30 978 C 95.5614 1.24997 -1.92116 0
M  V30 979 C 96.5614 1.39467 -0.800344 0
M  V30 980 O 97.7514 1.37619 -1.06802 0
M  V30 981 C 94.8834 2.62271 -2.17777 0
M  V30 982 H 96.0764 0.942875 -2.84693 0
M  V30 983 H 93.6294 0.455654 -1.49511 0
M  V30 984 H 94.3644 2.98068 -1.27773 0
M  V30 985 H 94.1494 2.53143 -2.99434 0
M  V30 986 H 95.6394 3.36946 -2.46693 0
M  V30 987 N 96.0765 1.50051 0.48192 0
M  V30 988 C 97.3015 1.64508 1.26301 0
M  V30 989 C 97.7265 0.323851 1.85291 0
M  V30 990 O 97.0845 -0.710969 1.66778 0
M  V30 991 C 97.1325 2.7305 2.35533 0
M  V30 992 O 96.2365 2.3355 3.39895 0
M  V30 993 H 95.5775 0.549978 0.372048 0
M  V30 994 H 98.1075 1.9636 0.574786 0
M  V30 995 H 98.1175 2.95799 2.8101 0
M  V30 996 H 96.7925 3.68946 1.91967 0
M  V30 997 H 95.3695 2.21205 3.00204 0
M  V30 998 N 97.5546 -0.734337 1.39446 0
M  V30 999 C 98.4646 -1.87879 1.40495 0
M  V30 1000 C 99.4806 -1.714 0.299672 0
M  V30 1001 O 100.657 -1.93991 0.541249 0
M  V30 1002 C 97.7216 -3.23477 1.24754 0
M  V30 1003 C 96.7826 -3.52344 2.45259 0
M  V30 1004 C 96.0156 -4.81473 2.30259 0
M  V30 1005 O 96.2386 -5.55237 1.30643 0
M  V30 1006 O 95.1726 -5.10254 3.19256 0
M  V30 1007 H 98.9986 -1.89949 2.36966 0
M  V30 1008 H 96.5836 -0.882243 1.20569 0
M  V30 1009 H 98.4656 -4.04509 1.18111 0
M  V30 1010 H 97.1406 -3.22176 0.313781 0
M  V30 1011 H 96.0476 -2.71396 2.57478 0
M  V30 1012 H 97.3806 -3.58426 3.37331 0
M  V30 1013 N 99.0327 -1.24633 -0.964593 0
M  V30 1014 C 99.9627 -1.06611 -2.07741 0
M  V30 1015 C 100.944 0.0218666 -1.70086 0
M  V30 1016 O 102.129 -0.145793 -1.93652 0
M  V30 1017 C 99.2587 -0.673444 -3.40708 0
M  V30 1018 C 98.2127 -1.71054 -3.92332 0
M  V30 1019 C 97.5387 -1.17285 -5.21678 0
M  V30 1020 C 98.8387 -3.10718 -4.19824 0
M  V30 1021 H 100.533 -1.99693 -2.23076 0
M  V30 1022 H 98.0787 -0.96152 -1.07195 0
M  V30 1023 H 100.032 -0.534345 -4.17998 0
M  V30 1024 H 98.7557 0.293073 -3.25282 0
M  V30 1025 H 97.4147 -1.83791 -3.17201 0
M  V30 1026 H 97.0627 -0.196847 -5.02615 0
M  V30 1027 H 96.7627 -1.86592 -5.57187 0
M  V30 1028 H 98.2867 -1.04593 -6.01575 0
M  V30 1029 H 99.7007 -3.01192 -4.87808 0
M  V30 1030 H 98.0977 -3.77406 -4.66567 0
M  V30 1031 H 99.1677 -3.58524 -3.26479 0
M  V30 1032 N 100.511 1.16574 -1.06058 0
M  V30 1033 C 101.474 2.19085 -0.673392 0
M  V30 1034 C 102.474 1.5835 0.279648 0
M  V30 1035 O 103.664 1.74088 0.0623488 0
M  V30 1036 C 100.796 3.40899 0.00954234 0
M  V30 1037 H 101.989 2.54853 -1.58081 0
M  V30 1038 H 99.5418 1.30808 -0.855516 0
M  V30 1039 H 100.277 3.10684 0.929826 0
M  V30 1040 H 100.062 3.86233 -0.67573 0
M  V30 1041 H 101.552 4.1675 0.266245 0
M  V30 1042 N 101.989 0.842826 1.3317 0
M  V30 1043 C 102.919 0.294028 2.31641 0
M  V30 1044 C 103.9 -0.600401 1.59151 0
M  V30 1045 O 105.085 -0.523124 1.87022 0
M  V30 1046 C 102.215 -0.528416 3.43257 0
M  V30 1047 C 101.169 0.27056 4.27144 0
M  V30 1048 C 100.495 -0.675881 5.30411 0
M  V30 1049 C 101.795 1.48981 5.00602 0
M  V30 1050 H 103.489 1.11681 2.77791 0
M  V30 1051 H 101.035 0.538478 1.33553 0
M  V30 1052 H 102.988 -0.922674 4.11175 0
M  V30 1053 H 101.712 -1.38445 2.95805 0
M  V30 1054 H 100.371 0.646427 3.60856 0
M  V30 1055 H 100.019 -1.52842 4.79216 0
M  V30 1056 H 99.7189 -0.145374 5.8742 0
M  V30 1057 H 101.243 -1.06757 6.01195 0
M  V30 1058 H 102.657 1.16849 5.61266 0
M  V30 1059 H 101.054 1.95739 5.6728 0
M  V30 1060 H 102.124 2.25746 4.29147 0
M  V30 1061 N 103.467 -1.45747 0.599634 0
M  V30 1062 C 104.883 -1.57424 0.26264 0
M  V30 1063 C 105.083 -1.59222 -1.23493 0
M  V30 1064 O 104.139 -1.51825 -2.01756 0
M  V30 1065 C 105.452 -2.86061 0.926795 0
M  V30 1066 C 107 -2.99722 0.901967 0
M  V30 1067 C 107.475 -4.31119 1.54598 0
M  V30 1068 N 108.966 -4.37858 1.5111 0
M  V30 1069 C 109.701 -5.3818 1.97863 0
M  V30 1070 N 109.197 -6.45083 2.52666 0
M  V30 1071 N 110.99 -5.29487 1.88679 0
M  V30 1072 H 103.141 -1.42823 1.57211 0
M  V30 1073 H 105.404 -0.68235 0.658105 0
M  V30 1074 H 105.11 -2.90605 1.98095 0
M  V30 1075 H 104.984 -3.74563 0.445238 0
M  V30 1076 H 107.371 -2.9475 -0.143617 0
M  V30 1077 H 107.452 -2.12652 1.42171 0
M  V30 1078 H 107.096 -4.36849 2.59085 0
M  V30 1079 H 107.026 -5.16992 1.00132 0
M  V30 1080 H 109.517 -3.61209 1.11068 0
M  V30 1081 H 109.83 -7.17869 2.86155 0
M  V30 1082 H 108.175 -6.45856 2.56701 0
M  V30 1083 H 111.366 -4.44877 1.4561 0
M  V30 1084 H 111.539 -6.07524 2.25429 0
M  V30 1085 N 104.945 -0.338344 -1.53925 0
M  V30 1086 C 105.892 0.520845 -2.24846 0
M  V30 1087 C 106.862 1.09976 -1.24477 0
M  V30 1088 O 108.047 1.13735 -1.53196 0
M  V30 1089 C 105.187 1.6685 -3.02084 0
M  V30 1090 C 104.3 1.11739 -4.17299 0
M  V30 1091 C 103.435 2.23193 -4.82036 0
M  V30 1092 C 102.474 1.65407 -5.89328 0
M  V30 1093 N 101.611 2.70582 -6.47866 0
M  V30 1094 H 106.451 -0.0904881 -2.97863 0
M  V30 1095 H 103.988 -0.0564282 -1.46992 0
M  V30 1096 H 105.946 2.34407 -3.45122 0
M  V30 1097 H 104.576 2.2509 -2.31375 0
M  V30 1098 H 103.628 0.332919 -3.7894 0
M  V30 1099 H 104.94 0.654677 -4.94485 0
M  V30 1100 H 104.094 2.98626 -5.28117 0
M  V30 1101 H 102.833 2.72807 -4.04262 0
M  V30 1102 H 101.838 0.884779 -5.42634 0
M  V30 1103 H 103.063 1.16652 -6.69006 0
M  V30 1104 H 101.009 3.1946 -5.72959 0
M  V30 1105 H 100.926 2.28917 -7.20509 0
M  V30 1106 H 102.194 3.45799 -6.98601 0
M  V30 1107 N 106.423 1.57458 -0.0668435 0
M  V30 1108 C 107.671 1.92919 0.602214 0
M  V30 1109 C 107.992 0.947215 1.70449 0
M  V30 1110 O 107.262 -0.00544117 1.95899 0
M  V30 1111 H 105.842 0.71217 0.22544 0
M  V30 1112 H 108.504 1.94508 -0.123535 0
M  V30 1113 H 107.6 2.94589 1.03073 0
M  V30 1114 N 107.901 -0.206675 1.56239 0
M  V30 1115 C 108.834 -1.28383 1.88661 0
M  V30 1116 C 109.812 -1.44504 0.745481 0
M  V30 1117 O 110.996 -1.60079 0.995336 0
M  V30 1118 C 108.123 -2.65211 2.10667 0
M  V30 1119 C 107.169 -2.66025 3.33366 0
M  V30 1120 S 108.002 -2.18609 4.88846 0
M  V30 1121 C 109.158 -3.57283 5.13906 0
M  V30 1122 H 109.391 -1.00691 2.7973 0
M  V30 1123 H 106.924 -0.409627 1.48867 0
M  V30 1124 H 108.882 -3.43979 2.24029 0
M  V30 1125 H 107.543 -2.90121 1.20369 0
M  V30 1126 H 106.736 -3.66607 3.45855 0
M  V30 1127 H 106.338 -1.95331 3.18938 0
M  V30 1128 H 108.63 -4.53074 5.03717 0
M  V30 1129 H 109.573 -3.49699 6.15724 0
M  V30 1130 H 109.981 -3.51659 4.41583 0
M  V30 1131 N 109.379 -1.50304 -0.473955 0
M  V30 1132 C 110.604 -1.65175 -1.25427 0
M  V30 1133 C 111.029 -0.333673 -1.85117 0
M  V30 1134 O 110.387 0.702114 -1.67153 0
M  V30 1135 C 110.435 -2.74295 -2.34082 0
M  V30 1136 O 109.539 -2.35349 -3.38651 0
M  V30 1137 H 108.88 -0.551944 -0.369126 0
M  V30 1138 H 111.41 -1.96662 -0.564364 0
M  V30 1139 H 111.42 -2.97285 -2.79438 0
M  V30 1140 H 110.095 -3.69959 -1.90008 0
M  V30 1141 H 108.672 -2.22794 -2.99027 0
M  V30 1142 N 110.857 0.726932 -1.39834 0
M  V30 1143 C 112.103 1.48884 -1.377 0
M  V30 1144 C 112.436 1.94185 0.0244852 0
M  V30 1145 O 111.711 1.67361 0.990986 0
M  V30 1146 C 111.994 2.72288 -2.3565 0
M  V30 1147 C 111.847 2.32956 -3.84775 0
M  V30 1148 C 113.166 3.74414 -2.31306 0
M  V30 1149 H 110.285 0.540062 -0.5015 0
M  V30 1150 H 112.927 0.830547 -1.70886 0
M  V30 1151 H 111.077 3.28457 -2.07481 0
M  V30 1152 H 112.749 1.82356 -4.23726 0
M  V30 1153 H 110.992 1.65088 -4.01159 0
M  V30 1154 H 111.663 3.21362 -4.4881 0
M  V30 1155 H 114.139 3.27849 -2.56231 0
M  V30 1156 H 113.015 4.58414 -3.01907 0
M  V30 1157 H 113.276 4.21909 -1.32081 0
M  V30 1158 N 112.336 1.25143 0.95797 0
M  V30 1159 C 113.268 1.01023 2.05735 0
M  V30 1160 C 114.281 -0.0236902 1.62783 0
M  V30 1161 O 115.47 0.21448 1.77207 0
M  V30 1162 C 112.57 0.504595 3.35122 0
M  V30 1163 C 111.743 1.6039 4.06932 0
M  V30 1164 C 110.802 1.09922 5.14591 0
M  V30 1165 O 109.828 1.79293 5.40225 0
M  V30 1166 N 111.03 -0.0612545 5.80468 0
M  V30 1167 H 113.795 1.95683 2.26998 0
M  V30 1168 H 111.356 1.16303 1.12629 0
M  V30 1169 H 113.348 0.151516 4.04416 0
M  V30 1170 H 111.918 -0.347989 3.10657 0
M  V30 1171 H 111.138 2.12872 3.31782 0
M  V30 1172 H 112.426 2.34252 4.51667 0
M  V30 1173 H 111.824 -0.640985 5.62057 0
M  V30 1174 H 110.381 -0.355395 6.5083 0
M  V30 1175 N 113.814 -1.1601 1.06675 0
M  V30 1176 C 115.062 -1.86264 0.784229 0
M  V30 1177 C 115.383 -1.82328 -0.691488 0
M  V30 1178 O 114.653 -1.25947 -1.50047 0
M  V30 1179 H 113.233 -0.689621 0.28711 0
M  V30 1180 H 115.895 -1.40664 1.34906 0
M  V30 1181 H 114.991 -2.91595 1.11259 0
M  V30 1182 N 115.292 -0.849877 -1.32721 0
M  V30 1183 C 116.255 -0.296122 -2.27279 0
M  V30 1184 C 117.255 0.541458 -1.5141 0
M  V30 1185 O 118.445 0.353658 -1.70572 0
M  V30 1186 C 115.577 0.581579 -3.35902 0
M  V30 1187 H 116.77 -1.13064 -2.77771 0
M  V30 1188 H 114.323 -0.62383 -1.43311 0
M  V30 1189 H 115.058 1.43809 -2.9067 0
M  V30 1190 H 114.843 -0.0178814 -3.92096 0
M  V30 1191 H 116.333 0.961951 -4.0637 0
M  V30 1192 N 116.77 1.45427 -0.607355 0
M  V30 1193 C 117.7 2.3329 0.0989352 0
M  V30 1194 C 118.681 1.46816 0.859007 0
M  V30 1195 O 119.866 1.75588 0.829604 0
M  V30 1196 C 116.996 3.29518 1.09705 0
M  V30 1197 C 115.95 4.25626 0.450206 0
M  V30 1198 C 115.276 5.11542 1.55655 0
M  V30 1199 C 116.576 5.18505 -0.628455 0
M  V30 1200 H 118.27 2.92595 -0.634716 0
M  V30 1201 H 115.816 1.40696 -0.306681 0
M  V30 1202 H 117.769 3.89855 1.59971 0
M  V30 1203 H 116.493 2.68372 1.86129 0
M  V30 1204 H 115.152 3.66586 -0.0315886 0
M  V30 1205 H 114.8 4.46765 2.31107 0
M  V30 1206 H 114.5 5.76647 1.12925 0
M  V30 1207 H 116.024 5.74748 2.06148 0
M  V30 1208 H 117.438 5.72916 -0.209877 0
M  V30 1209 H 115.835 5.92085 -0.977489 0
M  V30 1210 H 116.905 4.60948 -1.50514 0
M  V30 1211 N 118.248 0.346503 1.53744 0
M  V30 1212 C 119.158 -0.517293 2.28826 0
M  V30 1213 C 120.174 -1.10935 1.3405 0
M  V30 1214 O 121.35 -1.1244 1.6709 0
M  V30 1215 C 118.415 -1.65098 3.04866 0
M  V30 1216 C 117.476 -1.0884 4.15274 0
M  V30 1217 C 116.709 -2.16806 4.87679 0
M  V30 1218 O 116.932 -3.3758 4.59778 0
M  V30 1219 O 115.866 -1.80934 5.74061 0
M  V30 1220 H 119.692 0.0931396 3.03557 0
M  V30 1221 H 117.277 0.111458 1.48984 0
M  V30 1222 H 119.159 -2.31053 3.5241 0
M  V30 1223 H 117.834 -2.24717 2.32989 0
M  V30 1224 H 116.741 -0.3933 3.72027 0
M  V30 1225 H 118.074 -0.537036 4.89261 0
M  V30 1226 N 119.726 -1.57421 0.075193 0
M  V30 1227 C 120.656 -2.15942 -0.888324 0
M  V30 1228 C 121.637 -1.08737 -1.30806 0
M  V30 1229 O 122.822 -1.36787 -1.37851 0
M  V30 1230 C 119.952 -2.72379 -2.1547 0
M  V30 1231 C 118.906 -3.8478 -1.87425 0
M  V30 1232 C 118.232 -4.27834 -3.20721 0
M  V30 1233 C 119.532 -5.08869 -1.17684 0
M  V30 1234 H 121.226 -2.96705 -0.400799 0
M  V30 1235 H 118.772 -1.42723 -0.191342 0
M  V30 1236 H 120.725 -3.11965 -2.83295 0
M  V30 1237 H 119.449 -1.88841 -2.6647 0
M  V30 1238 H 118.108 -3.45703 -1.22004 0
M  V30 1239 H 117.756 -3.41214 -3.6957 0
M  V30 1240 H 117.456 -5.03605 -3.02746 0
M  V30 1241 H 118.98 -4.70039 -3.89738 0
M  V30 1242 H 120.394 -5.4575 -1.75584 0
M  V30 1243 H 118.791 -5.8994 -1.09956 0
M  V30 1244 H 119.861 -4.84648 -0.156453 0
M  V30 1245 N 121.204 0.198386 -1.56346 0
M  V30 1246 C 122.45 0.920648 -1.80698 0
M  V30 1247 C 122.783 1.83045 -0.648697 0
M  V30 1248 O 122.058 1.91308 0.350925 0
M  V30 1249 C 122.341 1.73971 -3.15287 0
M  V30 1250 C 122.194 0.85485 -4.41602 0
M  V30 1251 C 123.513 2.71296 -3.46535 0
M  V30 1252 H 120.632 0.333261 -0.657348 0
M  V30 1253 H 123.274 0.188198 -1.89066 0
M  V30 1254 H 121.424 2.36416 -3.08285 0
M  V30 1255 H 123.096 0.245362 -4.60647 0
M  V30 1256 H 121.339 0.161398 -4.335 0
M  V30 1257 H 122.01 1.46286 -5.32264 0
M  V30 1258 H 124.486 2.18983 -3.53816 0
M  V30 1259 H 123.362 3.2569 -4.41834 0
M  V30 1260 H 123.623 3.5018 -2.69864 0
M  V30 1261 N 122.682 1.50554 0.465978 0
M  V30 1262 C 124.098 1.38093 0.800154 0
M  V30 1263 C 124.298 0.440988 1.96615 0
M  V30 1264 O 123.354 -0.114499 2.5224 0
M  V30 1265 C 124.667 2.79565 1.10742 0
M  V30 1266 C 126.215 2.88516 1.21357 0
M  V30 1267 C 126.69 4.30833 1.55393 0
M  V30 1268 N 128.181 4.33807 1.62375 0
M  V30 1269 C 128.916 5.40927 1.90225 0
M  V30 1270 N 128.412 6.58247 2.16062 0
M  V30 1271 N 130.205 5.28376 1.9177 0
M  V30 1272 H 122.356 2.10237 -0.302366 0
M  V30 1273 H 124.619 0.945203 -0.0727746 0
M  V30 1274 H 124.325 3.50208 0.323661 0
M  V30 1275 H 124.199 3.17125 2.04234 0
M  V30 1276 H 126.586 2.1809 1.98799 0
M  V30 1277 H 126.667 2.54492 0.258321 0
M  V30 1278 H 126.311 5.01799 0.784889 0
M  V30 1279 H 126.241 4.62347 2.52076 0
M  V30 1280 H 128.732 3.49212 1.44427 0
M  V30 1281 H 129.045 7.3569 2.36601 0
M  V30 1282 H 127.39 6.61413 2.13444 0
M  V30 1283 H 130.581 4.35715 1.71085 0
M  V30 1284 H 130.754 6.11944 2.13139 0
M  V30 1285 N 124.16 -0.719506 1.40217 0
M  V30 1286 C 125.07 -1.86378 1.42479 0
M  V30 1287 C 126.086 -1.71073 0.317834 0
M  V30 1288 O 127.262 -1.93406 0.561794 0
M  V30 1289 C 124.327 -3.22136 1.28178 0
M  V30 1290 C 123.388 -3.49723 2.48982 0
M  V30 1291 C 122.621 -4.79004 2.35353 0
M  V30 1292 O 122.844 -5.53821 1.36524 0
M  V30 1293 O 121.778 -5.06839 3.2465 0
M  V30 1294 H 125.604 -1.87425 2.38968 0
M  V30 1295 H 123.189 -0.869405 1.21498 0
M  V30 1296 H 125.071 -4.03234 1.22395 0
M  V30 1297 H 123.746 -3.21825 0.347934 0
M  V30 1298 H 122.653 -2.6865 2.60342 0
M  V30 1299 H 123.986 -3.54828 3.41113 0
M  V30 1300 N 125.638 -1.25649 -0.95132 0
M  V30 1301 C 126.884 -1.10757 -1.69884 0
M  V30 1302 C 127.217 0.350061 -1.91019 0
M  V30 1303 O 126.492 1.25783 -1.48354 0
M  V30 1304 C 126.775 -1.86606 -3.07978 0
M  V30 1305 C 126.628 -3.40217 -2.94232 0
M  V30 1306 C 127.947 -1.65182 -4.07925 0
M  V30 1307 H 125.066 -0.40374 -0.616574 0
M  V30 1308 H 127.708 -1.54521 -1.10558 0
M  V30 1309 H 125.858 -1.49409 -3.58621 0
M  V30 1310 H 127.53 -3.87108 -2.50889 0
M  V30 1311 H 125.773 -3.67759 -2.30078 0
M  V30 1312 H 126.444 -3.88505 -3.92133 0
M  V30 1313 H 128.92 -1.9757 -3.66204 0
M  V30 1314 H 127.796 -2.20683 -5.02583 0
M  V30 1315 H 128.057 -0.593933 -4.38092 0
M  V30 1316 N 127.117 1.15442 -1.07289 0
M  V30 1317 C 128.533 1.38201 -0.798288 0
M  V30 1318 C 128.733 1.92429 0.597769 0
M  V30 1319 O 127.789 2.12962 1.3566 0
M  V30 1320 C 129.102 2.35357 -1.87156 0
M  V30 1321 C 130.65 2.49021 -1.89624 0
M  V30 1322 C 131.125 3.49468 -2.96034 0
M  V30 1323 N 132.616 3.57003 -2.95132 0
M  V30 1324 C 133.351 4.34543 -3.74112 0
M  V30 1325 N 132.847 5.15421 -4.6294 0
M  V30 1326 N 134.64 4.29625 -3.62462 0
M  V30 1327 H 126.791 0.78584 -1.97328 0
M  V30 1328 H 129.054 0.408065 -0.855679 0
M  V30 1329 H 128.76 2.02626 -2.87464 0
M  V30 1330 H 128.634 3.35129 -1.73114 0
M  V30 1331 H 131.021 2.81051 -0.899687 0
M  V30 1332 H 131.102 1.4925 -2.07745 0
M  V30 1333 H 130.746 3.18173 -3.95889 0
M  V30 1334 H 130.676 4.48992 -2.75161 0
M  V30 1335 H 133.167 2.99276 -2.30743 0
M  V30 1336 H 133.48 5.7183 -5.19837 0
M  V30 1337 H 131.825 5.14729 -4.66989 0
M  V30 1338 H 135.016 3.65505 -2.92444 0
M  V30 1339 H 135.189 4.89807 -4.24256 0
M  V30 1340 N 128.595 0.856903 1.32268 0
M  V30 1341 C 129.558 0.308171 2.27119 0
M  V30 1342 C 130.558 -0.533421 1.51695 0
M  V30 1343 O 131.748 -0.344607 1.70757 0
M  V30 1344 C 128.88 -0.563757 3.36206 0
M  V30 1345 H 130.073 1.14535 2.77167 0
M  V30 1346 H 127.626 0.631421 1.42978 0
M  V30 1347 H 128.361 -1.42266 2.91429 0
M  V30 1348 H 128.146 0.0386749 3.92081 0
M  V30 1349 H 129.636 -0.940386 4.06874 0
M  V30 1350 N 130.073 -1.45103 0.615059 0
M  V30 1351 C 131.003 -2.33339 -0.0865619 0
M  V30 1352 C 131.984 -1.4727 -0.851209 0
M  V30 1353 O 133.169 -1.76026 -0.820281 0
M  V30 1354 C 130.299 -3.30095 -1.07956 0
M  V30 1355 C 129.253 -4.25858 -0.427628 0
M  V30 1356 C 128.579 -5.12361 -1.5294 0
M  V30 1357 C 129.879 -5.18165 0.655944 0
M  V30 1358 H 131.573 -2.92254 0.650224 0
M  V30 1359 H 129.119 -1.40532 0.314138 0
M  V30 1360 H 131.072 -3.90698 -1.57901 0
M  V30 1361 H 129.796 -2.69355 -1.84703 0
M  V30 1362 H 128.455 -3.66564 0.0510292 0
M  V30 1363 H 128.103 -4.47984 -2.28734 0
M  V30 1364 H 127.803 -5.77238 -1.09865 0
M  V30 1365 H 129.327 -5.75833 -2.03098 0
M  V30 1366 H 130.741 -5.72796 0.240257 0
M  V30 1367 H 129.138 -5.91559 1.00888 0
M  V30 1368 H 130.208 -4.60144 1.52957 0
M  V30 1369 N 131.551 -0.354651 -1.53558 0
M  V30 1370 C 132.779 0.239515 -2.05509 0
M  V30 1371 C 133.194 1.4333 -1.2289 0
M  V30 1372 O 132.551 1.80538 -0.266899 0
M  V30 1373 C 132.602 0.643719 -3.55723 0
M  V30 1374 O 132.323 -0.502602 -4.35207 0
M  V30 1375 C 133.824 1.29743 -4.23889 0
M  V30 1376 H 131.044 0.0442697 -0.669538 0
M  V30 1377 H 133.588 -0.509856 -1.98042 0
M  V30 1378 H 131.743 1.34302 -3.63376 0
M  V30 1379 H 132.157 -0.178172 -5.24197 0
M  V30 1380 H 133.631 1.53091 -5.30346 0
M  V30 1381 H 134.108 2.25441 -3.76926 0
M  V30 1382 H 134.714 0.639865 -4.20459 0
M  V30 1383 N 133.029 1.57378 -0.0835403 0
M  V30 1384 C 133.939 2.16897 0.894021 0
M  V30 1385 C 134.955 1.13528 1.31861 0
M  V30 1386 O 136.131 1.45848 1.3889 0
M  V30 1387 C 133.196 2.72831 2.13925 0
M  V30 1388 C 132.257 3.91115 1.76997 0
M  V30 1389 C 131.49 4.44371 2.95584 0
M  V30 1390 O 131.713 3.96596 4.09961 0
M  V30 1391 O 130.647 5.35549 2.74719 0
M  V30 1392 H 134.473 3.00814 0.417679 0
M  V30 1393 H 132.058 1.48741 0.140181 0
M  V30 1394 H 133.94 3.0863 2.86924 0
M  V30 1395 H 132.615 1.91967 2.60635 0
M  V30 1396 H 131.522 3.60148 1.01214 0
M  V30 1397 H 132.855 4.73307 1.3506 0
M  V30 1398 N 134.507 -0.190092 1.56449 0
M  V30 1399 C 135.454 -1.23557 1.94942 0
M  V30 1400 C 136.424 -1.44972 0.810696 0
M  V30 1401 O 137.609 -1.58023 1.06927 0
M  V30 1402 C 134.749 -2.57416 2.2985 0
M  V30 1403 C 133.862 -2.43537 3.5681 0
M  V30 1404 C 132.997 -3.70134 3.81017 0
M  V30 1405 C 132.036 -3.51109 5.01387 0
M  V30 1406 N 131.173 -4.6973 5.21822 0
M  V30 1407 H 136.013 -0.900304 2.84075 0
M  V30 1408 H 133.55 -0.43318 1.40577 0
M  V30 1409 H 135.508 -3.35409 2.48106 0
M  V30 1410 H 134.138 -2.88975 1.43852 0
M  V30 1411 H 133.19 -1.56816 3.46573 0
M  V30 1412 H 134.502 -2.25415 4.4496 0
M  V30 1413 H 133.656 -4.56566 3.9954 0
M  V30 1414 H 132.395 -3.91215 2.91207 0
M  V30 1415 H 131.4 -2.63063 4.82782 0
M  V30 1416 H 132.625 -3.31468 5.9271 0
M  V30 1417 H 130.571 -4.91065 4.34961 0
M  V30 1418 H 130.488 -4.54452 6.0416 0
M  V30 1419 H 131.756 -5.57499 5.44808 0
M  V30 1420 N 135.985 -1.50799 -0.457987 0
M  V30 1421 C 137.396 -1.55152 -1.0385 0
M  V30 1422 C 137.747 -0.362719 -1.92818 0
M  V30 1423 O 136.872 0.522915 -2.09987 0
M  V30 1424 C 137.467 -2.81173 -1.89017 0
M  V30 1425 C 136.026 -2.88164 -2.42154 0
M  V30 1426 C 135.173 -2.49591 -1.20829 0
M  V30 1427 H 138.124 -1.56874 -0.240068 0
M  V30 1428 H 138.145 -2.63769 -2.74238 0
M  V30 1429 H 137.657 -3.67677 -1.24238 0
M  V30 1430 H 135.758 -2.06042 -3.10447 0
M  V30 1431 H 135.871 -3.91356 -2.76364 0
M  V30 1432 H 134.235 -2.02322 -1.54719 0
M  V30 1433 H 135.018 -3.38418 -0.576927 0
M  V30 1434 N 137.463 0.71206 -1.40597 0
M  V30 1435 C 138.393 1.83889 -1.43899 0
M  V30 1436 C 139.374 1.67442 -0.299504 0
M  V30 1437 O 140.559 1.87421 -0.508624 0
M  V30 1438 C 137.689 3.21877 -1.30431 0
M  V30 1439 C 136.643 3.53002 -2.42019 0
M  V30 1440 C 135.969 4.90172 -2.13626 0
M  V30 1441 C 137.269 3.53643 -3.84362 0
M  V30 1442 H 138.963 1.81383 -2.38203 0
M  V30 1443 H 136.509 0.871237 -1.14654 0
M  V30 1444 H 138.462 4.00404 -1.31357 0
M  V30 1445 H 137.186 3.24968 -0.326049 0
M  V30 1446 H 135.845 2.76818 -2.40349 0
M  V30 1447 H 135.493 4.89869 -1.14182 0
M  V30 1448 H 135.193 5.11962 -2.88389 0
M  V30 1449 H 136.717 5.71028 -2.1624 0
M  V30 1450 H 138.131 4.22203 -3.87837 0
M  V30 1451 H 136.528 3.86961 -4.58673 0
M  V30 1452 H 137.598 2.52954 -4.13693 0
M  V30 1453 N 138.941 1.26152 0.944643 0
M  V30 1454 C 140.188 1.11492 1.69044 0
M  V30 1455 C 140.516 -0.342366 1.91463 0
M  V30 1456 O 139.771 -1.26812 1.49054 0
M  V30 1457 C 140.07 1.82541 3.07268 0
M  V30 1458 C 139.736 3.32445 3.04616 0
M  V30 1459 C 138.398 3.73337 3.036 0
M  V30 1460 C 140.75 4.28171 2.97185 0
M  V30 1461 C 138.078 5.08348 2.92915 0
M  V30 1462 C 140.43 5.63218 2.88041 0
M  V30 1463 C 139.094 6.03426 2.85366 0
M  V30 1464 H 138.364 0.407977 0.618576 0
M  V30 1465 H 141.011 1.56551 1.10291 0
M  V30 1466 H 139.316 1.29941 3.69625 0
M  V30 1467 H 141.013 1.68642 3.63815 0
M  V30 1468 H 137.603 2.99915 3.06185 0
M  V30 1469 H 141.787 3.97563 2.97081 0
M  V30 1470 H 137.043 5.38667 2.89219 0
M  V30 1471 H 141.217 6.37078 2.81254 0
M  V30 1472 H 138.844 7.07999 2.76842 0
M  V30 1473 N 140.419 -1.14872 1.07899 0
M  V30 1474 C 141.349 -2.2193 0.725887 0
M  V30 1475 C 142.33 -1.67622 -0.28927 0
M  V30 1476 O 143.515 -1.93533 -0.160787 0
M  V30 1477 C 140.645 -3.47061 0.128856 0
M  V30 1478 C 139.599 -4.14363 1.07178 0
M  V30 1479 C 138.925 -5.33636 0.337229 0
M  V30 1480 C 140.225 -4.63492 2.40775 0
M  V30 1481 H 141.919 -2.51724 1.62097 0
M  V30 1482 H 139.465 -1.20991 0.780838 0
M  V30 1483 H 141.418 -4.21199 -0.130147 0
M  V30 1484 H 140.142 -3.16617 -0.80134 0
M  V30 1485 H 138.801 -3.42173 1.3158 0
M  V30 1486 H 138.449 -4.99449 -0.596606 0
M  V30 1487 H 138.149 -5.79609 0.965788 0
M  V30 1488 H 139.673 -6.10539 0.0861567 0
M  V30 1489 H 141.087 -5.2913 2.20669 0
M  V30 1490 H 139.484 -5.20148 2.99276 0
M  V30 1491 H 140.554 -3.78834 3.02676 0
M  V30 1492 N 141.898 -0.863906 -1.31812 0
M  V30 1493 C 142.831 -0.259963 -2.26714 0
M  V30 1494 C 143.809 0.607392 -1.50829 0
M  V30 1495 O 144.993 0.562155 -1.79922 0
M  V30 1496 C 142.12 0.632456 -3.32743 0
M  V30 1497 C 141.166 -0.162743 -4.26189 0
M  V30 1498 S 141.999 -1.53726 -5.12961 0
M  V30 1499 C 143.155 -0.650803 -6.22507 0
M  V30 1500 H 143.388 -1.06445 -2.77591 0
M  V30 1501 H 140.921 -0.662071 -1.39485 0
M  V30 1502 H 142.879 1.14167 -3.94305 0
M  V30 1503 H 141.54 1.41083 -2.80632 0
M  V30 1504 H 140.733 0.517366 -5.01338 0
M  V30 1505 H 140.335 -0.60385 -3.69093 0
M  V30 1506 H 142.627 0.141134 -6.77353 0
M  V30 1507 H 143.57 -1.37322 -6.94657 0
M  V30 1508 H 143.978 -0.221041 -5.64067 0
M  V30 1509 N 143.376 1.44774 -0.622745 0
M  V30 1510 C 144.604 2.06487 -0.130722 0
M  V30 1511 C 145.019 1.46476 1.19123 0
M  V30 1512 O 144.376 0.584502 1.72887 0
M  V30 1513 C 144.427 3.615 -0.000807207 0
M  V30 1514 O 144.148 4.19274 -1.27048 0
M  V30 1515 C 145.649 4.40229 0.520898 0
M  V30 1516 H 142.869 0.666704 -0.0758106 0
M  V30 1517 H 145.413 1.85779 -0.854774 0
M  V30 1518 H 143.568 3.81498 0.673643 0
M  V30 1519 H 143.982 5.12622 -1.1099 0
M  V30 1520 H 145.456 5.49144 0.560838 0
M  V30 1521 H 145.933 4.1108 1.54627 0
M  V30 1522 H 146.539 4.25131 -0.120018 0
M  V30 1523 N 144.854 0.36279 1.53368 0
M  V30 1524 C 146.084 -0.228281 2.05335 0
M  V30 1525 C 146.492 -1.43226 1.23625 0
M  V30 1526 O 145.835 -1.81717 0.269206 0
M  V30 1527 C 145.897 -0.688549 3.52845 0
M  V30 1528 C 145.561 0.398362 4.5526 0
M  V30 1529 C 146.558 1.24732 5.04716 0
M  V30 1530 C 144.243 0.557805 4.99193 0
M  V30 1531 C 146.237 2.2411 5.96702 0
M  V30 1532 C 143.924 1.55495 5.90986 0
M  V30 1533 C 144.922 2.39503 6.39631 0
M  V30 1534 O 144.61 3.37517 7.29615 0
M  V30 1535 H 144.342 -0.044395 0.674541 0
M  V30 1536 H 146.896 0.518668 1.98744 0
M  V30 1537 H 145.126 -1.48706 3.56964 0
M  V30 1538 H 146.815 -1.20231 3.87685 0
M  V30 1539 H 147.581 1.13532 4.71525 0
M  V30 1540 H 143.46 -0.0862959 4.60919 0
M  V30 1541 H 147.004 2.89718 6.34594 0
M  V30 1542 H 142.901 1.66744 6.23592 0
M  V30 1543 H 143.669 3.33213 7.47604 0
M  V30 1544 N 146.332 -1.57332 0.0918853 0
M  V30 1545 C 147.262 -2.16872 -0.865371 0
M  V30 1546 C 148.243 -1.10118 -1.29646 0
M  V30 1547 O 149.428 -1.38242 -1.36392 0
M  V30 1548 C 146.558 -2.74649 -2.12569 0
M  V30 1549 C 145.512 -3.86747 -1.83333 0
M  V30 1550 C 144.838 -4.31212 -3.16166 0
M  V30 1551 C 146.138 -5.10089 -1.1228 0
M  V30 1552 H 147.832 -2.97114 -0.369307 0
M  V30 1553 H 145.378 -1.42918 -0.176194 0
M  V30 1554 H 147.331 -3.14952 -2.7997 0
M  V30 1555 H 146.055 -1.91657 -2.64452 0
M  V30 1556 H 144.714 -3.46978 -1.18331 0
M  V30 1557 H 144.362 -3.45115 -3.6593 0
M  V30 1558 H 144.062 -5.06788 -2.97388 0
M  V30 1559 H 145.586 -4.74146 -3.84731 0
M  V30 1560 H 147 -5.47582 -1.69785 0
M  V30 1561 H 145.397 -5.91073 -1.03693 0
M  V30 1562 H 146.467 -4.84786 -0.105041 0
M  V30 1563 N 147.81 0.181792 -1.56548 0
M  V30 1564 C 148.758 1.24461 -1.965 0
M  V30 1565 C 149.752 1.464 -0.852261 0
M  V30 1566 O 150.958 1.47103 -1.03733 0
M  V30 1567 H 147.333 0.418138 -0.625031 0
M  V30 1568 H 149.304 0.880714 -2.85107 0
M  V30 1569 C 148.053 2.57891 -2.33212 0
M  V30 1570 H 147.376 2.41829 -3.18369 0
M  V30 1571 H 148.816 3.3097 -2.65019 0
M  V30 1572 C 147.275 3.15871 -1.17163 0
M  V30 1573 O 147.805 3.9913 -0.453708 0
M  V30 1574 N 146.011 2.74808 -0.944936 0
M  V30 1575 H 145.558 2.07205 -1.53049 0
M  V30 1576 H 145.516 3.13939 -0.170286 0
M  V30 1577 N 149.288 1.51039 0.449983 0
M  V30 1578 C 150.699 1.557 1.03026 0
M  V30 1579 C 151.05 0.372939 1.92623 0
M  V30 1580 O 150.175 -0.511771 2.10261 0
M  V30 1581 C 150.77 2.82171 1.87523 0
M  V30 1582 C 149.329 2.89444 2.40622 0
M  V30 1583 C 148.476 2.50228 1.19504 0
M  V30 1584 H 151.427 1.56999 0.231745 0
M  V30 1585 H 151.448 2.65219 2.72835 0
M  V30 1586 H 150.96 3.68331 1.22286 0
M  V30 1587 H 149.061 2.07685 3.0935 0
M  V30 1588 H 149.174 3.92816 2.74285 0
M  V30 1589 H 147.538 2.03139 1.53644 0
M  V30 1590 H 148.321 3.38719 0.558972 0
M  V30 1591 N 150.766 -0.704594 1.40972 0
M  V30 1592 C 152.012 -1.46675 1.40051 0
M  V30 1593 C 152.345 -1.94199 0.00641102 0
M  V30 1594 O 151.62 -1.68916 -0.964235 0
M  V30 1595 C 151.903 -2.68505 2.39952 0
M  V30 1596 C 151.756 -2.26805 3.88432 0
M  V30 1597 C 153.075 -3.70686 2.37233 0
M  V30 1598 H 150.194 -0.532015 0.510028 0
M  V30 1599 H 152.836 -0.803255 1.72185 0
M  V30 1600 H 150.986 -3.25114 2.1268 0
M  V30 1601 H 152.658 -1.75592 4.26574 0
M  V30 1602 H 150.901 -1.58685 4.03734 0
M  V30 1603 H 151.572 -3.14181 4.53866 0
M  V30 1604 H 154.048 -3.23731 2.61415 0
M  V30 1605 H 152.924 -4.53553 3.09162 0
M  V30 1606 H 153.185 -4.19754 1.38777 0
M  V30 1607 N 152.244 -1.26651 -0.937939 0
M  V30 1608 C 153.174 -1.10993 -2.05433 0
M  V30 1609 C 154.155 -0.0142161 -1.70094 0
M  V30 1610 O 155.34 -0.186837 -1.93299 0
M  V30 1611 C 152.47 -0.745561 -3.39203 0
M  V30 1612 C 151.424 -1.79337 -3.88616 0
M  V30 1613 C 150.75 -1.28324 -5.19073 0
M  V30 1614 C 152.05 -3.19553 -4.13138 0
M  V30 1615 H 153.744 -2.0438 -2.1879 0
M  V30 1616 H 151.29 -0.984041 -1.05131 0
M  V30 1617 H 153.243 -0.622888 -4.16771 0
M  V30 1618 H 151.967 0.22401 -3.25831 0
M  V30 1619 H 150.626 -1.90477 -3.13231 0
M  V30 1620 H 150.274 -0.303414 -5.02084 0
M  V30 1621 H 149.974 -1.98369 -5.53103 0
M  V30 1622 H 151.498 -1.1733 -5.99221 0
M  V30 1623 H 152.912 -3.11471 -4.81309 0
M  V30 1624 H 151.309 -3.87218 -4.58457 0
M  V30 1625 H 152.379 -3.65368 -3.18801 0
M  V30 1626 N 153.722 1.14298 -1.08507 0
M  V30 1627 C 154.685 2.17607 -0.719711 0
M  V30 1628 C 155.685 1.58907 0.245997 0
M  V30 1629 O 156.875 1.74181 0.0254081 0
M  V30 1630 C 154.007 3.40842 -0.0627695 0
M  V30 1631 H 155.2 2.51443 -1.63452 0
M  V30 1632 H 152.753 1.28963 -0.88307 0
M  V30 1633 H 153.488 3.12587 0.863716 0
M  V30 1634 H 153.273 3.84713 -0.757504 0
M  V30 1635 H 154.763 4.17221 0.177786 0
M  V30 1636 N 155.201 0.870884 1.31352 0
M  V30 1637 C 156.447 0.492314 1.97352 0
M  V30 1638 C 156.802 -0.945174 1.67583 0
M  V30 1639 O 156.095 -1.65674 0.962423 0
M  V30 1640 C 156.289 0.687157 3.50732 0
M  V30 1641 C 156.118 2.14203 3.95407 0
M  V30 1642 C 154.888 2.78382 4.21701 0
M  V30 1643 C 157.086 3.1144 4.09279 0
M  V30 1644 N 155.068 4.14611 4.52737 0
M  V30 1645 C 156.439 4.32702 4.44037 0
M  V30 1646 C 158.494 3.07418 3.91661 0
M  V30 1647 C 157.197 5.50463 4.63015 0
M  V30 1648 C 159.223 4.24438 4.11833 0
M  V30 1649 C 158.585 5.44463 4.46923 0
M  V30 1650 H 154.684 0.229206 0.747655 0
M  V30 1651 H 157.268 1.12568 1.5886 0
M  V30 1652 H 155.439 0.083384 3.8831 0
M  V30 1653 H 157.171 0.276883 4.03752 0
M  V30 1654 H 153.926 2.29326 4.14375 0
M  V30 1655 H 154.35 4.84928 4.72413 0
M  V30 1656 H 158.992 2.15732 3.6362 0
M  V30 1657 H 156.71 6.42666 4.89904 0
M  V30 1658 H 160.296 4.2278 3.99685 0
M  V30 1659 H 159.176 6.33504 4.62214 0
M  V30 1660 N 156.679 -1.44442 0.630414 0
M  V30 1661 C 157.927 -2.01653 0.134351 0
M  V30 1662 C 158.248 -1.49836 -1.24796 0
M  V30 1663 O 157.518 -0.701684 -1.82902 0
M  V30 1664 H 156.098 -0.74554 0.0466769 0
M  V30 1665 H 158.76 -1.76952 0.816955 0
M  V30 1666 H 157.856 -3.11935 0.101498 0
M  V30 1667 N 158.157 -0.370918 -1.53173 0
M  V30 1668 C 159.568 0.107139 -1.86392 0
M  V30 1669 C 159.919 1.47714 -1.29132 0
M  V30 1670 O 159.044 2.07464 -0.615439 0
M  V30 1671 C 159.639 0.201187 -3.38202 0
M  V30 1672 C 158.198 0.623507 -3.712 0
M  V30 1673 C 157.345 -0.225978 -2.76378 0
M  V30 1674 H 160.296 -0.58951 -1.47345 0
M  V30 1675 H 160.317 1.02377 -3.66468 0
M  V30 1676 H 159.829 -0.796058 -3.79848 0
M  V30 1677 H 157.93 1.62879 -3.35114 0
M  V30 1678 H 158.043 0.394414 -4.77474 0
M  V30 1679 H 156.407 0.305962 -2.52856 0
M  V30 1680 H 157.19 -1.22086 -3.20858 0
M  V30 1681 N 159.635 1.57281 -0.100228 0
M  V30 1682 C 160.545 2.17833 0.870965 0
M  V30 1683 C 161.561 1.14921 1.30649 0
M  V30 1684 O 162.737 1.47313 1.37335 0
M  V30 1685 C 159.802 2.75085 2.1102 0
M  V30 1686 C 158.863 3.9297 1.72838 0
M  V30 1687 C 158.096 4.47482 2.90854 0
M  V30 1688 O 158.319 4.00922 4.05731 0
M  V30 1689 O 157.253 5.38433 2.69023 0
M  V30 1690 H 161.079 3.0124 0.38575 0
M  V30 1691 H 158.664 1.48881 0.124397 0
M  V30 1692 H 160.546 3.11656 2.83634 0
M  V30 1693 H 159.221 1.94721 2.58584 0
M  V30 1694 H 158.128 3.61201 0.973883 0
M  V30 1695 H 159.461 4.74713 1.30033 0
M  V30 1696 N 161.113 -0.173488 1.56642 0
M  V30 1697 C 162.529 -0.525174 1.50712 0
M  V30 1698 C 162.729 -1.8476 0.804107 0
M  V30 1699 O 161.785 -2.49869 0.363574 0
M  V30 1700 C 163.098 -0.559937 2.95441 0
M  V30 1701 C 164.646 -0.647288 3.06234 0
M  V30 1702 C 165.121 -0.712963 4.52417 0
M  V30 1703 N 166.612 -0.775911 4.56655 0
M  V30 1704 C 167.347 -0.847264 5.67106 0
M  V30 1705 N 166.843 -0.879585 6.87194 0
M  V30 1706 N 168.636 -0.886117 5.55071 0
M  V30 1707 H 160.787 0.693681 2.00753 0
M  V30 1708 H 163.05 0.249841 0.914485 0
M  V30 1709 H 162.756 0.343049 3.50023 0
M  V30 1710 H 162.63 -1.40718 3.49969 0
M  V30 1711 H 165.017 -1.5407 2.51687 0
M  V30 1712 H 165.098 0.226586 2.54794 0
M  V30 1713 H 164.742 0.176183 5.07594 0
M  V30 1714 H 164.672 -1.60295 5.0161 0
M  V30 1715 H 167.163 -0.759304 3.70193 0
M  V30 1716 H 167.476 -0.935144 7.67121 0
M  V30 1717 H 165.821 -0.847898 6.89808 0
M  V30 1718 H 169.012 -0.857853 4.60172 0
M  V30 1719 H 169.185 -0.938263 6.41171 0
M  V30 1720 N 162.591 -1.51276 -0.441967 0
M  V30 1721 C 163.838 -1.63715 -1.19179 0
M  V30 1722 C 164.166 -0.351175 -1.91303 0
M  V30 1723 O 163.421 0.664524 -1.84072 0
M  V30 1724 C 163.72 -2.78746 -2.23686 0
M  V30 1725 C 163.386 -4.18189 -1.68607 0
M  V30 1726 C 162.048 -4.56125 -1.53308 0
M  V30 1727 C 164.4 -5.05222 -1.28062 0
M  V30 1728 C 161.728 -5.78804 -0.959317 0
M  V30 1729 C 164.08 -6.28476 -0.721162 0
M  V30 1730 C 162.744 -6.65188 -0.55504 0
M  V30 1731 H 162.014 -0.599076 -0.436106 0
M  V30 1732 H 164.661 -1.85296 -0.48351 0
M  V30 1733 H 162.966 -2.51369 -3.00535 0
M  V30 1734 H 164.663 -2.8557 -2.81515 0
M  V30 1735 H 161.253 -3.88277 -1.8149 0
M  V30 1736 H 165.437 -4.76524 -1.38704 0
M  V30 1737 H 160.693 -6.05899 -0.81833 0
M  V30 1738 H 164.867 -6.95259 -0.398458 0
M  V30 1739 H 162.494 -7.60123 -0.108311 0
M  V30 1740 N 164.069 0.697108 -1.41344 0
M  V30 1741 C 165.316 1.45714 -1.40619 0
M  V30 1742 C 165.644 1.94494 -0.0147907 0
M  V30 1743 O 164.899 1.69794 0.973066 0
M  V30 1744 C 165.198 2.68553 -2.35826 0
M  V30 1745 C 164.864 2.38438 -3.82698 0
M  V30 1746 C 163.526 2.29936 -4.22709 0
M  V30 1747 C 165.878 2.13567 -4.75435 0
M  V30 1748 C 163.206 1.94656 -5.53467 0
M  V30 1749 C 165.558 1.79797 -6.06511 0
M  V30 1750 C 164.222 1.69789 -6.45545 0
M  V30 1751 H 163.492 0.533206 -0.51456 0
M  V30 1752 H 166.139 0.796901 -1.74131 0
M  V30 1753 H 164.444 3.39503 -1.95563 0
M  V30 1754 H 166.141 3.2669 -2.32539 0
M  V30 1755 H 162.731 2.4595 -3.51008 0
M  V30 1756 H 166.915 2.19082 -4.45328 0
M  V30 1757 H 162.171 1.8546 -5.82593 0
M  V30 1758 H 166.345 1.59572 -6.77872 0
M  V30 1759 H 163.972 1.4222 -7.46778 0
M  V30 1760 N 165.547 1.27147 0.931209 0
M  V30 1761 C 166.795 1.13055 1.6752 0
M  V30 1762 C 167.116 -0.324791 1.92276 0
M  V30 1763 O 166.386 -1.22775 1.52654 0
M  V30 1764 H 164.966 0.415391 0.620854 0
M  V30 1765 H 167.628 1.59623 1.11833 0
M  V30 1766 H 166.724 1.65694 2.64485 0
M  V30 1767 N 167.025 -1.13721 1.09112 0
M  V30 1768 C 167.955 -2.21148 0.749385 0
M  V30 1769 C 168.936 -1.6792 -0.271475 0
M  V30 1770 O 170.121 -1.93693 -0.140251 0
M  V30 1771 C 167.251 -3.46905 0.165659 0
M  V30 1772 C 166.205 -4.13203 1.11567 0
M  V30 1773 C 165.531 -5.33248 0.393809 0
M  V30 1774 C 166.831 -4.60912 2.45678 0
M  V30 1775 H 168.525 -2.4999 1.64758 0
M  V30 1776 H 166.071 -1.20156 0.793626 0
M  V30 1777 H 168.024 -4.21313 -0.085466 0
M  V30 1778 H 166.748 -3.17449 -0.767714 0
M  V30 1779 H 165.407 -3.40758 1.35202 0
M  V30 1780 H 165.055 -5.00054 -0.543599 0
M  V30 1781 H 164.755 -5.78552 1.02721 0
M  V30 1782 H 166.279 -6.10413 0.150908 0
M  V30 1783 H 167.693 -5.26759 2.26269 0
M  V30 1784 H 166.09 -5.16944 3.04776 0
M  V30 1785 H 167.16 -3.75603 3.06677 0
M  V30 1786 N 168.503 -0.877838 -1.30888 0
M  V30 1787 C 169.75 -0.492696 -1.96415 0
M  V30 1788 C 170.078 0.956671 -1.69346 0
M  V30 1789 O 169.333 1.68993 -0.986913 0
M  V30 1790 C 169.632 -0.705748 -3.50363 0
M  V30 1791 C 169.298 -2.1291 -3.97467 0
M  V30 1792 C 167.96 -2.51834 -4.1004 0
M  V30 1793 C 170.312 -3.05702 -4.22132 0
M  V30 1794 C 167.64 -3.82775 -4.44635 0
M  V30 1795 C 169.992 -4.36166 -4.58194 0
M  V30 1796 C 168.656 -4.74993 -4.68975 0
M  V30 1797 H 167.926 -0.18029 -0.718733 0
M  V30 1798 H 170.573 -1.11233 -1.55883 0
M  V30 1799 H 168.878 -0.00303058 -3.918 0
M  V30 1800 H 170.575 -0.387456 -3.99124 0
M  V30 1801 H 167.165 -1.81694 -3.88182 0
M  V30 1802 H 171.349 -2.76853 -4.11906 0
M  V30 1803 H 166.605 -4.12609 -4.51181 0
M  V30 1804 H 170.779 -5.08111 -4.76231 0
M  V30 1805 H 168.406 -5.76495 -4.95537 0
M  V30 1806 N 169.982 1.44106 -0.638065 0
M  V30 1807 C 170.929 2.30715 0.062701 0
M  V30 1808 C 171.899 1.43882 0.829883 0
M  V30 1809 O 173.084 1.72775 0.809532 0
M  V30 1810 C 170.224 3.29258 1.03358 0
M  V30 1811 C 169.337 4.31192 0.26409 0
M  V30 1812 C 168.472 5.16825 1.22741 0
M  V30 1813 C 167.511 6.10462 0.447475 0
M  V30 1814 N 166.648 6.8877 1.36161 0
M  V30 1815 H 171.488 2.90096 -0.681781 0
M  V30 1816 H 169.025 1.42925 -0.347988 0
M  V30 1817 H 170.983 3.84886 1.60992 0
M  V30 1818 H 169.613 2.71562 1.74511 0
M  V30 1819 H 168.665 3.77981 -0.428295 0
M  V30 1820 H 169.977 4.97619 -0.343052 0
M  V30 1821 H 169.131 5.77004 1.87487 0
M  V30 1822 H 167.87 4.50488 1.86847 0
M  V30 1823 H 166.875 5.49386 -0.213433 0
M  V30 1824 H 168.1 6.78837 -0.188968 0
M  V30 1825 H 166.046 6.25096 1.98975 0
M  V30 1826 H 165.963 7.51663 0.808656 0
M  V30 1827 H 167.231 7.53467 1.99769 0
M  V30 1828 N 171.46 0.379036 1.52974 0
M  V30 1829 C 172.392 -0.495963 2.2377 0
M  V30 1830 C 173.405 -1.03517 1.25651 0
M  V30 1831 O 174.594 -0.939249 1.51791 0
M  V30 1832 C 171.694 -1.69894 2.93239 0
M  V30 1833 C 170.867 -1.2889 4.17979 0
M  V30 1834 C 169.926 -2.35543 4.70538 0
M  V30 1835 O 168.952 -1.97375 5.33883 0
M  V30 1836 N 170.154 -3.67318 4.49508 0
M  V30 1837 H 172.919 0.110523 2.99496 0
M  V30 1838 H 170.48 0.204878 1.60598 0
M  V30 1839 H 172.472 -2.40747 3.25304 0
M  V30 1840 H 171.042 -2.212 2.20883 0
M  V30 1841 H 170.262 -0.409676 3.92065 0
M  V30 1842 H 171.55 -0.991443 4.99047 0
M  V30 1843 H 170.948 -4.01095 3.98923 0
M  V30 1844 H 169.505 -4.34235 4.8609 0
M  V30 1845 N 172.938 -1.57226 0.108567 0
M  V30 1846 C 173.901 -2.13602 -0.831082 0
M  V30 1847 C 174.901 -1.06841 -1.20173 0
M  V30 1848 O 176.091 -1.32666 -1.12895 0
M  V30 1849 C 173.223 -2.66769 -2.12243 0
M  V30 1850 H 174.416 -2.97951 -0.341317 0
M  V30 1851 H 171.969 -1.55667 -0.14057 0
M  V30 1852 H 172.704 -1.85977 -2.65675 0
M  V30 1853 H 172.489 -3.44839 -1.86625 0
M  V30 1854 H 173.979 -3.10332 -2.79435 0
M  V30 1855 N 174.416 0.165178 -1.56732 0
M  V30 1856 C 175.664 0.879068 -1.8198 0
M  V30 1857 C 175.985 1.82514 -0.686561 0
M  V30 1858 O 175.255 1.93694 0.293146 0
M  V30 1859 H 173.835 0.327608 -0.671329 0
M  V30 1860 H 176.497 0.163526 -1.94213 0
M  V30 1861 H 175.593 1.45228 -2.76252 0
M  V30 1862 N 175.894 1.51508 0.433938 0
M  V30 1863 C 176.857 1.72473 1.50949 0
M  V30 1864 C 177.857 0.594725 1.49398 0
M  V30 1865 O 179.047 0.862315 1.5136 0
M  V30 1866 C 176.179 1.78431 2.90474 0
M  V30 1867 H 177.372 2.68467 1.33662 0
M  V30 1868 H 174.925 1.41549 0.662836 0
M  V30 1869 H 175.66 0.842645 3.13161 0
M  V30 1870 H 175.445 2.60558 2.93005 0
M  V30 1871 H 176.935 1.96479 3.68491 0
M  V30 1872 N 177.372 -0.689602 1.41712 0
M  V30 1873 C 178.6 -1.47827 1.44758 0
M  V30 1874 C 179.015 -1.88721 0.0545703 0
M  V30 1875 O 178.372 -1.57176 -0.927463 0
M  V30 1876 C 178.423 -2.73698 2.3616 0
M  V30 1877 O 178.144 -2.34524 3.7004 0
M  V30 1878 C 179.645 -3.67389 2.48072 0
M  V30 1879 H 176.865 -0.455357 0.49284 0
M  V30 1880 H 179.409 -0.848574 1.86063 0
M  V30 1881 H 177.564 -3.32891 1.98148 0
M  V30 1882 H 177.978 -3.15701 4.18847 0
M  V30 1883 H 179.452 -4.52475 3.16181 0
M  V30 1884 H 179.929 -4.12284 1.51388 0
M  V30 1885 H 180.535 -3.14097 2.86746 0
M  V30 1886 N 178.85 -1.27639 -0.924453 0
M  V30 1887 C 180.098 -1.13941 -1.66918 0
M  V30 1888 C 180.419 0.314589 -1.92446 0
M  V30 1889 O 179.689 1.21964 -1.53303 0
M  V30 1890 H 178.269 -0.418678 -0.618642 0
M  V30 1891 H 180.931 -1.60213 -1.10985 0
M  V30 1892 H 180.027 -1.67094 -2.63602 0
M  V30 1893 N 180.328 1.1314 -1.09713 0
M  V30 1894 C 181.574 1.84757 -0.836224 0
M  V30 1895 C 181.907 1.8347 0.636598 0
M  V30 1896 O 181.182 1.27491 1.46889 0
M  V30 1897 C 181.465 3.32782 -1.37578 0
M  V30 1898 C 181.318 3.42567 -2.91493 0
M  V30 1899 C 182.637 4.28307 -1.01198 0
M  V30 1900 H 179.756 0.67082 -0.305236 0
M  V30 1901 H 182.398 1.3278 -1.35903 0
M  V30 1902 H 180.548 3.77177 -0.931097 0
M  V30 1903 H 182.22 3.06862 -3.44432 0
M  V30 1904 H 180.463 2.83349 -3.28475 0
M  V30 1905 H 181.134 4.46674 -3.24324 0
M  V30 1906 H 183.61 3.91999 -1.39556 0
M  V30 1907 H 182.486 5.30307 -1.41653 0
M  V30 1908 H 182.747 4.42029 0.0794833 0
M  V30 1909 N 181.806 0.884767 1.30421 0
M  V30 1910 C 183.055 0.499164 1.95426 0
M  V30 1911 C 183.368 -0.95645 1.70621 0
M  V30 1912 O 184.574 -1.44889 2.29607 0
M  V30 1913 C 183.03 0.84177 3.49917 0
M  V30 1914 C 182.638 2.31514 3.83543 0
M  V30 1915 C 184.382 0.525355 4.21237 0
M  V30 1916 C 182.289 2.59939 5.31212 0
M  V30 1917 H 181.219 0.182944 0.73147 0
M  V30 1918 H 183.87 1.07971 1.48373 0
M  V30 1919 H 182.252 0.190311 3.95542 0
M  V30 1920 H 183.426 3.0109 3.48829 0
M  V30 1921 H 181.741 2.59907 3.25326 0
M  V30 1922 H 184.338 0.714762 5.29901 0
M  V30 1923 H 184.681 -0.535222 4.12845 0
M  V30 1924 H 185.214 1.134 3.81294 0
M  V30 1925 H 181.953 3.64736 5.44654 0
M  V30 1926 H 181.473 1.94972 5.67227 0
M  V30 1927 H 183.152 2.45429 5.98643 0
M  V30 1928 N 183.284 -1.43765 0.645699 0
M  V30 1929 C 184.214 -2.33471 -0.0370477 0
M  V30 1930 C 185.195 -1.49042 -0.819779 0
M  V30 1931 O 186.38 -1.77726 -0.782758 0
M  V30 1932 C 183.51 -3.32311 -1.0093 0
M  V30 1933 C 182.464 -4.2667 -0.337201 0
M  V30 1934 C 181.79 -5.1549 -1.42037 0
M  V30 1935 C 183.09 -5.16657 0.765706 0
M  V30 1936 H 184.784 -2.90809 0.712069 0
M  V30 1937 H 182.33 -1.39834 0.343876 0
M  V30 1938 H 184.283 -3.9396 -1.49578 0
M  V30 1939 H 183.007 -2.73213 -1.78948 0
M  V30 1940 H 181.666 -3.66374 0.128771 0
M  V30 1941 H 181.314 -4.52735 -2.1918 0
M  V30 1942 H 181.014 -5.79438 -0.975966 0
M  V30 1943 H 182.538 -5.80012 -1.90838 0
M  V30 1944 H 183.952 -5.72158 0.361702 0
M  V30 1945 H 182.349 -5.89286 1.13413 0
M  V30 1946 H 183.419 -4.56796 1.62683 0
M  V30 1947 N 184.763 -0.387143 -1.52771 0
M  V30 1948 C 186.174 0.0873634 -1.86495 0
M  V30 1949 C 186.525 1.46336 -1.30691 0
M  V30 1950 O 185.65 2.068 -0.637409 0
M  V30 1951 C 186.245 0.165305 -3.38396 0
M  V30 1952 C 184.804 0.584101 -3.7184 0
M  V30 1953 C 183.951 -0.255279 -2.76122 0
M  V30 1954 H 186.902 -0.605104 -1.46711 0
M  V30 1955 H 186.923 0.984848 -3.67534 0
M  V30 1956 H 186.435 -0.836301 -3.78982 0
M  V30 1957 H 184.536 1.59315 -3.36823 0
M  V30 1958 H 184.649 0.343749 -4.77865 0
M  V30 1959 H 183.013 0.279126 -2.53166 0
M  V30 1960 H 183.796 -1.25482 -3.19545 0
M  V30 1961 N 186.241 1.57166 -0.116904 0
M  V30 1962 C 187.518 1.86645 0.585049 0
M  V30 1963 C 187.898 1.0177 1.84949 0
M  V30 1964 O 187.246 0.0960379 2.28298 0
M  V30 1965 C 187.456 3.37736 0.879507 0
M  V30 1966 C 188.804 4.06289 1.23348 0
M  V30 1967 O 189.828 3.42743 0.969836 0
M  V30 1968 O 188.687 5.18455 1.7282 0
M  V30 1969 H 185.781 0.772593 0.295007 0
M  V30 1970 H 188.327 1.69025 -0.151249 0
M  V30 1971 H 187.099 3.91296 -0.0166136 0
M  V30 1972 H 186.722 3.6078 1.67103 0
M  V30 1973 N 187.719 -0.156864 1.56817 0
M  V30 1974 C 188.649 -1.19589 2.00551 0
M  V30 1975 C 189.63 -1.4536 0.883426 0
M  V30 1976 O 190.815 -1.56449 1.15054 0
M  V30 1977 C 187.945 -2.53143 2.37773 0
M  V30 1978 C 186.899 -2.41913 3.53075 0
M  V30 1979 C 186.225 -3.80088 3.76081 0
M  V30 1980 C 187.525 -1.91157 4.86062 0
M  V30 1981 H 189.219 -0.832293 2.87599 0
M  V30 1982 H 186.765 -0.398918 1.38364 0
M  V30 1983 H 188.718 -3.26047 2.66967 0
M  V30 1984 H 187.442 -2.91319 1.4765 0
M  V30 1985 H 186.101 -1.71462 3.24031 0
M  V30 1986 H 185.749 -4.15683 2.83225 0
M  V30 1987 H 185.449 -3.73439 4.53671 0
M  V30 1988 H 186.973 -4.54556 4.0769 0
M  V30 1989 H 188.387 -2.53846 5.14038 0
M  V30 1990 H 186.784 -1.95422 5.67389 0
M  V30 1991 H 187.854 -0.866673 4.77092 0
M  V30 1992 N 189.197 -1.51736 -0.425897 0
M  V30 1993 C 190.608 -1.5732 -1.00536 0
M  V30 1994 C 190.959 -0.403537 -1.92005 0
M  V30 1995 O 190.084 0.478256 -2.11049 0
M  V30 1996 C 190.679 -2.85119 -1.8301 0
M  V30 1997 C 189.238 -2.93236 -2.35987 0
M  V30 1998 C 188.385 -2.52098 -1.15508 0
M  V30 1999 H 191.336 -1.57348 -0.206739 0
M  V30 2000 H 191.357 -2.69526 -2.68581 0
M  V30 2001 H 190.869 -3.7023 -1.16411 0
M  V30 2002 H 188.97 -2.12581 -3.06007 0
M  V30 2003 H 189.083 -3.9713 -2.68001 0
M  V30 2004 H 187.447 -2.05558 -1.50393 0
M  V30 2005 H 188.23 -3.39565 -0.505014 0
M  V30 2006 N 190.675 0.682077 -1.42076 0
M  V30 2007 C 192.086 1.26246 -1.37546 0
M  V30 2008 C 192.437 1.96092 -0.0651481 0
M  V30 2009 O 191.562 1.99587 0.836297 0
M  V30 2010 C 192.157 2.29594 -2.49143 0
M  V30 2011 C 190.716 2.83175 -2.47969 0
M  V30 2012 C 189.863 1.57395 -2.28303 0
M  V30 2013 H 192.814 0.475937 -1.51395 0
M  V30 2014 H 192.835 3.11175 -2.18976 0
M  V30 2015 H 192.347 1.78729 -3.44496 0
M  V30 2016 H 190.448 3.3818 -1.56413 0
M  V30 2017 H 190.561 3.32687 -3.44755 0
M  V30 2018 H 188.925 1.83699 -1.76428 0
M  V30 2019 H 189.708 1.08507 -3.25701 0
M  V30 2020 N 192.153 1.28127 0.917671 0
M  V30 2021 C 193.43 1.05761 1.64542 0
M  V30 2022 C 193.81 -0.404344 2.07191 0
M  V30 2023 O 193.158 -1.38963 1.81388 0
M  V30 2024 C 193.368 2.02857 2.83989 0
M  V30 2025 C 194.716 2.32786 3.551 0
M  V30 2026 O 195.74 2.0091 2.94132 0
M  V30 2027 O 194.599 2.87169 4.64969 0
M  V30 2028 H 191.693 0.403916 0.721652 0
M  V30 2029 H 194.239 1.39431 0.967322 0
M  V30 2030 H 193.011 3.01407 2.49538 0
M  V30 2031 H 192.634 1.69809 3.59514 0
M  V30 2032 N 193.631 -1.12557 1.10312 0
M  V30 2033 C 194.541 -2.21841 0.763142 0
M  V30 2034 C 195.557 -1.72354 -0.238801 0
M  V30 2035 O 196.733 -2.01249 -0.0778746 0
M  V30 2036 C 193.798 -3.46131 0.198632 0
M  V30 2037 C 192.859 -4.10464 1.25769 0
M  V30 2038 C 192.092 -5.28821 0.72002 0
M  V30 2039 O 192.315 -5.6859 -0.453993 0
M  V30 2040 O 191.249 -5.83437 1.47935 0
M  V30 2041 H 195.075 -2.53312 1.67532 0
M  V30 2042 H 192.66 -1.20867 0.878157 0
M  V30 2043 H 194.542 -4.2125 -0.112401 0
M  V30 2044 H 193.217 -3.16338 -0.686419 0
M  V30 2045 H 192.124 -3.3713 1.62156 0
M  V30 2046 H 193.457 -4.44408 2.11571 0
M  V30 2047 N 195.109 -0.891671 -1.2995 0
M  V30 2048 C 196.386 -0.433307 -1.9074 0
M  V30 2049 C 196.766 1.08646 -1.80995 0
M  V30 2050 O 196.114 1.92476 -1.23147 0
M  V30 2051 C 196.324 -0.938895 -3.36134 0
M  V30 2052 C 197.672 -0.977829 -4.13187 0
M  V30 2053 O 198.696 -0.886015 -3.45005 0
M  V30 2054 O 197.555 -1.11453 -5.35015 0
M  V30 2055 H 194.649 -0.133699 -0.816121 0
M  V30 2056 H 197.195 -0.981011 -1.38471 0
M  V30 2057 H 195.967 -1.98281 -3.37343 0
M  V30 2058 H 195.59 -0.37074 -3.95868 0
M  V30 2059 N 196.587 1.43421 -0.653314 0
M  V30 2060 C 197.998 1.85065 -0.246537 0
M  V30 2061 C 198.349 1.54688 1.2069 0
M  V30 2062 O 197.474 0.995896 1.92122 0
M  V30 2063 C 198.069 3.35922 -0.440666 0
M  V30 2064 C 196.628 3.76297 -0.0882064 0
M  V30 2065 C 195.775 2.67147 -0.743484 0
M  V30 2066 H 198.726 1.33572 -0.856979 0
M  V30 2067 H 198.747 3.79204 0.313798 0
M  V30 2068 H 198.259 3.58 -1.49858 0
M  V30 2069 H 196.36 3.5983 0.96711 0
M  V30 2070 H 196.473 4.76338 -0.513738 0
M  V30 2071 H 194.837 2.54086 -0.176712 0
M  V30 2072 H 195.62 2.92053 -1.80443 0
M  V30 2073 N 198.065 0.39524 1.52563 0
M  V30 2074 C 199.313 -0.184678 2.01254 0
M  V30 2075 C 199.634 -1.46822 1.28329 0
M  V30 2076 O 198.904 -1.91666 0.405094 0
M  V30 2077 H 197.484 -0.0712355 0.743596 0
M  V30 2078 H 200.146 0.528293 1.87603 0
M  V30 2079 H 199.242 -0.390681 3.09645 0
M  V30 2080 N 199.544 -1.57102 0.125237 0
M  V30 2081 C 200.474 -2.18659 -0.819174 0
M  V30 2082 C 201.455 -1.12843 -1.27281 0
M  V30 2083 O 202.64 -1.41104 -1.33429 0
M  V30 2084 C 199.77 -2.79096 -2.06695 0
M  V30 2085 C 198.724 -3.90548 -1.75088 0
M  V30 2086 C 198.05 -4.37821 -3.06948 0
M  V30 2087 C 199.35 -5.12356 -1.01435 0
M  V30 2088 H 201.044 -2.9783 -0.306202 0
M  V30 2089 H 198.59 -1.4326 -0.145839 0
M  V30 2090 H 200.543 -3.2082 -2.73226 0
M  V30 2091 H 199.267 -1.97223 -2.60328 0
M  V30 2092 H 197.926 -3.49409 -1.10944 0
M  V30 2093 H 197.574 -3.52799 -3.58527 0
M  V30 2094 H 197.274 -5.12982 -2.86571 0
M  V30 2095 H 198.798 -4.822 -3.74587 0
M  V30 2096 H 200.212 -5.5106 -1.58132 0
M  V30 2097 H 198.609 -5.9314 -0.911319 0
M  V30 2098 H 199.679 -4.849 -0.00218681 0
M  V30 2099 N 201.022 0.148545 -1.56898 0
M  V30 2100 C 202.268 0.862694 -1.83536 0
M  V30 2101 C 202.601 1.80889 -0.706604 0
M  V30 2102 O 201.876 1.92328 0.289885 0
M  V30 2103 C 202.159 1.63853 -3.20662 0
M  V30 2104 C 202.012 0.713925 -4.44098 0
M  V30 2105 C 203.331 2.60133 -3.54991 0
M  V30 2106 H 200.45 0.312179 -0.667618 0
M  V30 2107 H 203.092 0.127953 -1.89569 0
M  V30 2108 H 201.242 2.26489 -3.1565 0
M  V30 2109 H 202.914 0.098686 -4.61194 0
M  V30 2110 H 201.157 0.0234019 -4.33794 0
M  V30 2111 H 201.828 1.29278 -5.36648 0
M  V30 2112 H 204.304 2.07616 -3.60603 0
M  V30 2113 H 203.18 3.11468 -4.51972 0
M  V30 2114 H 203.441 3.41417 -2.80868 0
M  V30 2115 N 202.5 1.5196 0.417844 0
M  V30 2116 C 203.916 1.40569 0.755816 0
M  V30 2117 C 204.116 0.503316 1.95113 0
M  V30 2118 O 203.172 -0.0341925 2.52477 0
M  V30 2119 C 204.485 2.82947 1.01791 0
M  V30 2120 C 206.033 2.92231 1.12116 0
M  V30 2121 C 206.508 4.35559 1.41608 0
M  V30 2122 N 207.999 4.38753 1.48491 0
M  V30 2123 C 208.734 5.46705 1.7292 0
M  V30 2124 N 208.23 6.64788 1.95011 0
M  V30 2125 N 210.023 5.34209 1.74863 0
M  V30 2126 H 202.174 2.09168 -0.369098 0
M  V30 2127 H 204.437 0.942409 -0.102809 0
M  V30 2128 H 204.143 3.5106 0.212081 0
M  V30 2129 H 204.017 3.23462 1.94042 0
M  V30 2130 H 206.404 2.24304 1.9176 0
M  V30 2131 H 206.485 2.55185 0.177225 0
M  V30 2132 H 206.129 5.04042 0.624848 0
M  V30 2133 H 206.059 4.70133 2.37239 0
M  V30 2134 H 208.55 3.5363 1.33244 0
M  V30 2135 H 208.863 7.42845 2.13076 0
M  V30 2136 H 207.208 6.67869 1.92293 0
M  V30 2137 H 210.399 4.40937 1.57137 0
M  V30 2138 H 210.572 6.18415 1.93563 0
M  V30 2139 N 203.978 -0.674533 1.42435 0
M  V30 2140 C 204.908 -1.80009 1.48724 0
M  V30 2141 C 205.889 -1.6659 0.343793 0
M  V30 2142 O 207.074 -1.86007 0.558137 0
M  V30 2143 C 204.204 -3.18306 1.38919 0
M  V30 2144 C 203.158 -3.46461 2.51294 0
M  V30 2145 C 202.484 -4.84335 2.26547 0
M  V30 2146 C 203.784 -3.43328 3.93603 0
M  V30 2147 H 205.478 -1.75004 2.42928 0
M  V30 2148 H 203.024 -0.840533 1.16923 0
M  V30 2149 H 204.977 -3.9678 1.41927 0
M  V30 2150 H 203.701 -3.2399 0.412094 0
M  V30 2151 H 202.36 -2.70348 2.47604 0
M  V30 2152 H 202.008 -4.86669 1.2713 0
M  V30 2153 H 201.708 -5.04136 3.01861 0
M  V30 2154 H 203.232 -5.65094 2.31304 0
M  V30 2155 H 204.646 -4.11772 3.98894 0
M  V30 2156 H 203.043 -3.74664 4.68771 0
M  V30 2157 H 204.113 -2.41897 4.20255 0
M  V30 2158 N 205.456 -1.28612 -0.910864 0
M  V30 2159 C 206.419 -1.12803 -1.9952 0
M  V30 2160 C 207.419 -0.0668264 -1.60661 0
M  V30 2161 O 208.609 -0.312847 -1.71368 0
M  V30 2162 C 205.741 -0.72254 -3.33155 0
M  V30 2163 H 206.934 -2.09109 -2.14973 0
M  V30 2164 H 204.487 -1.11639 -1.09391 0
M  V30 2165 H 205.222 0.241152 -3.23402 0
M  V30 2166 H 205.007 -1.48916 -3.62721 0
M  V30 2167 H 206.497 -0.634666 -4.12749 0
M  V30 2168 N 206.934 1.1197 -1.10907 0
M  V30 2169 C 207.866 2.17592 -0.720175 0
M  V30 2170 C 208.879 1.60938 0.245495 0
M  V30 2171 O 210.068 1.78476 0.0292245 0
M  V30 2172 C 207.168 3.38873 -0.0427917 0
M  V30 2173 C 206.341 4.25006 -1.03388 0
M  V30 2174 C 205.4 5.24774 -0.387075 0
M  V30 2175 O 204.426 5.59631 -1.03934 0
M  V30 2176 N 205.628 5.74208 0.852407 0
M  V30 2177 H 208.393 2.51567 -1.62893 0
M  V30 2178 H 205.954 1.27439 -0.998543 0
M  V30 2179 H 207.946 4.02703 0.401501 0
M  V30 2180 H 206.516 3.03007 0.768456 0
M  V30 2181 H 205.736 3.57716 -1.65629 0
M  V30 2182 H 207.024 4.79397 -1.70458 0
M  V30 2183 H 206.422 5.48062 1.40161 0
M  V30 2184 H 204.979 6.39901 1.23977 0
M  V30 2185 N 208.412 0.89855 1.29475 0
M  V30 2186 C 209.322 0.379974 2.31502 0
M  V30 2187 C 210.338 -0.524695 1.659 0
M  V30 2188 O 211.514 -0.414551 1.97087 0
M  V30 2189 C 208.579 -0.385138 3.44554 0
M  V30 2190 C 207.64 0.550914 4.2575 0
M  V30 2191 C 206.873 -0.177778 5.33404 0
M  V30 2192 O 207.096 -1.40189 5.52904 0
M  V30 2193 O 206.03 0.479106 5.9999 0
M  V30 2194 H 209.856 1.22639 2.77837 0
M  V30 2195 H 207.441 0.662834 1.33891 0
M  V30 2196 H 209.323 -0.817841 4.13388 0
M  V30 2197 H 207.998 -1.20763 3.0033 0
M  V30 2198 H 206.905 1.03271 3.59564 0
M  V30 2199 H 208.238 1.33979 4.73614 0
M  V30 2200 N 209.89 -1.43072 0.660911 0
M  V30 2201 C 211.139 -2.00942 0.174735 0
M  V30 2202 C 211.452 -1.52797 -1.22117 0
M  V30 2203 O 212.658 -2.02991 -1.80297 0
M  V30 2204 C 211.114 -3.58948 0.261559 0
M  V30 2205 C 210.722 -4.16085 1.66064 0
M  V30 2206 C 212.466 -4.24173 -0.166617 0
M  V30 2207 C 210.373 -5.6641 1.70098 0
M  V30 2208 H 209.303 -0.751483 0.0615631 0
M  V30 2209 H 211.954 -1.63955 0.824069 0
M  V30 2210 H 210.336 -3.93372 -0.455421 0
M  V30 2211 H 211.51 -3.93147 2.40359 0
M  V30 2212 H 209.825 -3.6326 2.03546 0
M  V30 2213 H 212.422 -5.34471 -0.156433 0
M  V30 2214 H 212.765 -3.98647 -1.19943 0
M  V30 2215 H 213.298 -3.94659 0.498875 0
M  V30 2216 H 210.037 -5.96715 2.71315 0
M  V30 2217 H 209.557 -5.91382 1.00139 0
M  V30 2218 H 211.236 -6.30585 1.44816 0
M  V30 2219 N 211.368 -0.403325 -1.52352 0
M  V30 2220 C 212.616 0.174003 -2.0135 0
M  V30 2221 C 212.937 1.46139 -1.29106 0
M  V30 2222 O 212.207 1.91448 -0.415253 0
M  V30 2223 H 210.787 0.0672911 -0.743963 0
M  V30 2224 H 213.449 -0.538235 -1.87321 0
M  V30 2225 H 212.545 0.374254 -3.09848 0
M  V30 2226 N 212.846 1.57033 -0.133567 0
M  V30 2227 C 213.776 2.1909 0.807567 0
M  V30 2228 C 214.757 1.13517 1.26681 0
M  V30 2229 O 215.942 1.41809 1.32679 0
M  V30 2230 C 213.072 2.80188 2.05212 0
M  V30 2231 C 212.026 3.91471 1.73015 0
M  V30 2232 C 211.352 4.39443 3.04622 0
M  V30 2233 C 212.652 5.12886 0.987168 0
M  V30 2234 H 214.346 2.97988 0.290403 0
M  V30 2235 H 211.892 1.43335 0.138239 0
M  V30 2236 H 213.845 3.22264 2.71521 0
M  V30 2237 H 212.569 1.98601 2.59278 0
M  V30 2238 H 211.228 3.49993 1.0909 0
M  V30 2239 H 210.876 3.54695 3.56651 0
M  V30 2240 H 210.576 5.14495 2.83847 0
M  V30 2241 H 212.1 4.8418 3.72024 0
M  V30 2242 H 213.514 5.51891 1.55208 0
M  V30 2243 H 211.911 5.93615 0.87985 0
M  V30 2244 H 212.981 4.84894 -0.0235286 0
M  V30 2245 N 214.325 -0.140222 1.56975 0
M  V30 2246 C 215.235 -1.19223 2.02047 0
M  V30 2247 C 216.251 -1.46612 0.937062 0
M  V30 2248 O 217.427 -1.58148 1.24704 0
M  V30 2249 C 214.492 -2.50414 2.39778 0
M  V30 2250 C 213.553 -2.30612 3.621 0
M  V30 2251 C 212.786 -3.55547 3.98023 0
M  V30 2252 O 213.009 -4.62004 3.34528 0
M  V30 2253 O 211.943 -3.47808 4.91237 0
M  V30 2254 H 215.769 -0.839559 2.91865 0
M  V30 2255 H 213.354 -0.349453 1.45256 0
M  V30 2256 H 215.236 -3.27747 2.64877 0
M  V30 2257 H 213.911 -2.85198 1.53114 0
M  V30 2258 H 212.818 -1.51207 3.4218 0
M  V30 2259 H 214.151 -2.00741 4.49404 0
M  V30 2260 N 215.803 -1.52179 -0.40978 0
M  V30 2261 C 217.031 -1.70054 -1.17853 0
M  V30 2262 C 217.446 -0.409735 -1.843 0
M  V30 2263 O 216.803 0.614183 -1.71855 0
M  V30 2264 C 216.854 -2.83568 -2.24213 0
M  V30 2265 O 216.575 -4.0765 -1.60478 0
M  V30 2266 C 218.076 -3.12947 -3.13973 0
M  V30 2267 H 215.296 -0.569917 -0.354169 0
M  V30 2268 H 217.84 -1.98734 -0.482198 0
M  V30 2269 H 215.995 -2.57409 -2.89516 0
M  V30 2270 H 216.409 -4.70899 -2.30986 0
M  V30 2271 H 217.883 -3.95889 -3.84677 0
M  V30 2272 H 218.36 -2.26472 -3.76307 0
M  V30 2273 H 218.966 -3.40868 -2.5434 0
M  V30 2274 N 217.281 0.66697 -1.42791 0
M  V30 2275 C 218.527 1.4291 -1.43891 0
M  V30 2276 C 218.86 1.94114 -0.0578972 0
M  V30 2277 O 218.135 1.71414 0.91911 0
M  V30 2278 C 218.418 2.62049 -2.46987 0
M  V30 2279 C 218.271 2.16426 -3.94309 0
M  V30 2280 C 219.59 3.64266 -2.46978 0
M  V30 2281 H 216.709 0.518306 -0.523954 0
M  V30 2282 H 219.351 0.757321 -1.74255 0
M  V30 2283 H 217.501 3.19361 -2.21225 0
M  V30 2284 H 219.173 1.64221 -4.31079 0
M  V30 2285 H 217.416 1.47925 -4.078 0
M  V30 2286 H 218.087 3.02038 -4.62036 0
M  V30 2287 H 220.563 3.16686 -2.69906 0
M  V30 2288 H 219.439 4.45196 -3.21079 0
M  V30 2289 H 219.7 4.15927 -1.49857 0
M  V30 2290 N 218.759 1.29093 0.90403 0
M  V30 2291 C 220.006 1.16813 1.65411 0
M  V30 2292 C 220.334 -0.28128 1.92455 0
M  V30 2293 O 219.589 -1.22006 1.53013 0
M  V30 2294 C 219.888 1.92224 3.01305 0
M  V30 2295 C 219.554 3.41968 2.93885 0
M  V30 2296 C 218.216 3.82807 2.91569 0
M  V30 2297 C 220.568 4.37409 2.83413 0
M  V30 2298 C 217.896 5.1741 2.76594 0
M  V30 2299 C 220.248 5.72097 2.69977 0
M  V30 2300 C 218.912 6.12199 2.66024 0
M  V30 2301 H 218.182 0.42745 0.605283 0
M  V30 2302 H 220.829 1.59981 1.05254 0
M  V30 2303 H 219.134 1.41635 3.65304 0
M  V30 2304 H 220.831 1.80131 3.58265 0
M  V30 2305 H 217.421 3.09504 2.96488 0
M  V30 2306 H 221.605 4.06813 2.84283 0
M  V30 2307 H 216.861 5.47596 2.71935 0
M  V30 2308 H 221.035 6.45704 2.60844 0
M  V30 2309 H 218.662 7.16448 2.54178 0
M  V30 2310 N 220.237 -1.11381 1.11499 0
M  V30 2311 C 221.167 -2.19509 0.796125 0
M  V30 2312 C 222.148 -1.68458 -0.235796 0
M  V30 2313 O 223.333 -1.93947 -0.0991344 0
M  V30 2314 C 220.463 -3.46475 0.239205 0
M  V30 2315 C 219.417 -4.10744 1.20307 0
M  V30 2316 C 218.743 -5.32293 0.50683 0
M  V30 2317 C 220.043 -4.55597 2.55399 0
M  V30 2318 H 221.737 -2.46439 1.70024 0
M  V30 2319 H 219.283 -1.18446 0.818935 0
M  V30 2320 H 221.236 -4.214 0.00392006 0
M  V30 2321 H 219.96 -3.19006 -0.700206 0
M  V30 2322 H 218.619 -3.37813 1.42399 0
M  V30 2323 H 218.267 -5.01095 -0.437408 0
M  V30 2324 H 217.967 -5.76243 1.1497 0
M  V30 2325 H 219.491 -6.09956 0.280351 0
M  V30 2326 H 220.905 -5.21841 2.37391 0
M  V30 2327 H 219.302 -5.10363 3.15673 0
M  V30 2328 H 220.372 -3.69013 3.14575 0
M  V30 2329 N 221.715 -0.905404 -1.28997 0
M  V30 2330 C 222.645 -0.404212 -2.29975 0
M  V30 2331 C 223.626 0.523784 -1.61835 0
M  V30 2332 O 224.811 0.433298 -1.89304 0
M  V30 2333 C 221.941 0.364042 -3.45387 0
M  V30 2334 C 220.895 -0.474048 -4.25367 0
M  V30 2335 C 220.221 0.422045 -5.33032 0
M  V30 2336 C 221.521 -1.72696 -4.92923 0
M  V30 2337 H 223.215 -1.24807 -2.72146 0
M  V30 2338 H 220.761 -0.601585 -1.30832 0
M  V30 2339 H 222.714 0.725447 -4.15109 0
M  V30 2340 H 221.438 1.24174 -3.02074 0
M  V30 2341 H 220.097 -0.81786 -3.57361 0
M  V30 2342 H 219.745 1.29804 -4.85963 0
M  V30 2343 H 219.445 -0.135057 -5.87445 0
M  V30 2344 H 220.969 0.779517 -6.05604 0
M  V30 2345 H 222.383 -1.43495 -5.55051 0
M  V30 2346 H 220.78 -2.22582 -5.57295 0
M  V30 2347 H 221.85 -2.45964 -4.17887 0
M  V30 2348 N 223.193 1.4272 -0.668489 0
M  V30 2349 C 224.156 2.292 0.00448567 0
M  V30 2350 C 225.156 1.43001 0.735339 0
M  V30 2351 O 226.346 1.64461 0.57429 0
M  V30 2352 C 223.478 3.25375 1.01705 0
M  V30 2353 H 224.671 2.90199 -0.756608 0
M  V30 2354 H 222.224 1.50254 -0.430506 0
M  V30 2355 H 222.959 2.69301 1.80686 0
M  V30 2356 H 222.744 3.88944 0.496463 0
M  V30 2357 H 224.234 3.90245 1.48655 0
M  V30 2358 N 224.671 0.411399 1.52136 0
M  V30 2359 C 226.082 -0.0576826 1.86611 0
M  V30 2360 C 226.433 -1.44238 1.33003 0
M  V30 2361 O 225.558 -2.05759 0.670228 0
M  V30 2362 C 226.153 -0.111448 3.38617 0
M  V30 2363 C 224.712 -0.52487 3.72723 0
M  V30 2364 C 223.859 0.299176 2.75681 0
M  V30 2365 H 226.81 0.628368 1.4573 0
M  V30 2366 H 226.831 -0.926252 3.69054 0
M  V30 2367 H 226.343 0.896488 3.77604 0
M  V30 2368 H 224.444 -1.53936 3.39315 0
M  V30 2369 H 224.557 -0.267681 4.78352 0
M  V30 2370 H 222.921 -0.238814 2.53578 0
M  V30 2371 H 223.704 1.3055 3.17508 0
M  V30 2372 N 226.149 -1.5696 0.141893 0
M  V30 2373 C 227.377 -2.00322 -0.517579 0
M  V30 2374 C 227.792 -1.02193 -1.58752 0
M  V30 2375 O 227.149 -0.0181619 -1.82491 0
M  V30 2376 C 227.2 -3.43618 -1.12289 0
M  V30 2377 O 226.921 -4.37995 -0.0956929 0
M  V30 2378 C 228.422 -4.02231 -1.86347 0
M  V30 2379 H 225.642 -0.657243 -0.135177 0
M  V30 2380 H 228.186 -2.03146 0.234973 0
M  V30 2381 H 226.341 -3.41662 -1.82609 0
M  V30 2382 H 226.755 -5.21729 -0.538469 0
M  V30 2383 H 228.229 -5.04509 -2.23997 0
M  V30 2384 H 228.706 -3.42655 -2.74744 0
M  V30 2385 H 229.312 -4.07802 -1.20737 0
M  V30 2386 N 227.627 0.131896 -1.57047 0
M  V30 2387 C 228.852 0.860418 -1.8871 0
M  V30 2388 C 229.277 1.73251 -0.73251 0
M  V30 2389 O 228.635 1.785 0.317429 0
M  V30 2390 C 228.683 1.68047 -3.19049 0
M  V30 2391 O 227.787 2.7862 -3.04047 0
M  V30 2392 H 227.128 0.238743 -0.619595 0
M  V30 2393 H 229.658 0.118169 -2.04258 0
M  V30 2394 H 229.668 2.07238 -3.51449 0
M  V30 2395 H 228.343 1.04018 -4.02682 0
M  V30 2396 H 226.92 2.42726 -2.83088 0
M  V30 2397 N 229.106 1.52395 0.401703 0
M  V30 2398 C 230.334 1.70676 1.16949 0
M  V30 2399 C 230.749 0.419503 1.8408 0
M  V30 2400 O 230.106 -0.605061 1.72178 0
M  V30 2401 C 230.157 2.84753 2.22706 0
M  V30 2402 O 229.878 4.08495 1.58314 0
M  V30 2403 C 231.379 3.14608 3.12309 0
M  V30 2404 H 228.599 0.571787 0.351142 0
M  V30 2405 H 231.143 1.98987 0.471652 0
M  V30 2406 H 229.298 2.58941 2.88147 0
M  V30 2407 H 229.712 4.72117 2.28485 0
M  V30 2408 H 231.186 3.97923 3.82572 0
M  V30 2409 H 231.663 2.28464 3.75101 0
M  V30 2410 H 232.269 3.42212 2.52529 0
M  V30 2411 N 230.584 -0.659388 1.43143 0
M  V30 2412 C 231.861 -1.41627 1.34912 0
M  V30 2413 C 232.241 -2.11099 -0.00607785 0
M  V30 2414 O 231.589 -2.04353 -1.02236 0
M  V30 2415 C 231.799 -2.40604 2.52805 0
M  V30 2416 C 233.147 -3.04789 2.95616 0
M  V30 2417 O 234.171 -2.50932 2.52807 0
M  V30 2418 O 233.03 -4.02421 3.69756 0
M  V30 2419 H 230.124 -0.63246 0.532844 0
M  V30 2420 H 232.67 -0.686814 1.5518 0
M  V30 2421 H 231.442 -1.88174 3.43083 0
M  V30 2422 H 231.065 -3.21009 2.34604 0
M  V30 2423 N 232.062 -1.29571 -0.897171 0
M  V30 2424 C 233.025 -1.14913 -1.98312 0
M  V30 2425 C 234.025 -0.0838629 -1.60581 0
M  V30 2426 O 235.215 -0.331006 -1.71026 0
M  V30 2427 C 232.347 -0.757835 -3.3237 0
M  V30 2428 H 233.54 -2.11377 -2.12743 0
M  V30 2429 H 231.093 -1.12793 -1.08201 0
M  V30 2430 H 231.828 0.206837 -3.2364 0
M  V30 2431 H 231.613 -1.52755 -3.61121 0
M  V30 2432 H 233.103 -0.678408 -4.12053 0
M  V30 2433 N 233.54 1.10788 -1.12088 0
M  V30 2434 C 234.956 1.34691 -0.856186 0
M  V30 2435 C 235.156 1.94791 0.515615 0
M  V30 2436 O 234.212 2.18524 1.26505 0
M  V30 2437 C 235.525 2.27208 -1.9697 0
M  V30 2438 C 237.073 2.40755 -2.00016 0
M  V30 2439 C 237.548 3.36598 -3.1059 0
M  V30 2440 N 239.039 3.44164 -3.10008 0
M  V30 2441 C 239.774 4.18284 -3.92206 0
M  V30 2442 N 239.27 4.95322 -4.84384 0
M  V30 2443 N 241.063 4.13865 -3.80357 0
M  V30 2444 H 233.214 0.70144 -2.00483 0
M  V30 2445 H 235.477 0.371405 -0.872217 0
M  V30 2446 H 235.183 1.90251 -2.958 0
M  V30 2447 H 235.057 3.27485 -1.87172 0
M  V30 2448 H 237.444 2.76982 -1.01808 0
M  V30 2449 H 237.525 1.40305 -2.13888 0
M  V30 2450 H 237.169 3.01096 -4.09028 0
M  V30 2451 H 237.099 4.36918 -2.93956 0
M  V30 2452 H 239.59 2.8922 -2.43228 0
M  V30 2453 H 239.903 5.49267 -5.43623 0
M  V30 2454 H 238.248 4.94459 -4.884 0
M  V30 2455 H 241.439 3.52773 -3.07683 0
M  V30 2456 H 241.612 4.71372 -4.44649 0
M  V30 2457 N 235.018 0.912232 1.28515 0
M  V30 2458 C 236.267 0.540504 1.94323 0
M  V30 2459 C 236.58 -0.920044 1.72611 0
M  V30 2460 O 237.786 -1.39986 2.32629 0
M  V30 2461 C 236.242 0.915803 3.48053 0
M  V30 2462 C 235.85 2.39598 3.78546 0
M  V30 2463 C 237.594 0.614588 4.20027 0
M  V30 2464 C 235.501 2.71148 5.25578 0
M  V30 2465 H 234.431 0.198418 0.727424 0
M  V30 2466 H 237.082 1.11094 1.46049 0
M  V30 2467 H 235.464 0.274168 3.9505 0
M  V30 2468 H 236.638 3.08422 3.42364 0
M  V30 2469 H 234.953 2.66749 3.1974 0
M  V30 2470 H 237.55 0.827002 5.28266 0
M  V30 2471 H 237.893 -0.447531 4.13887 0
M  V30 2472 H 238.426 1.21462 3.78803 0
M  V30 2473 H 235.165 3.76207 5.36794 0
M  V30 2474 H 234.685 2.0696 5.62963 0
M  V30 2475 H 236.364 2.58072 5.93302 0
M  V30 2476 N 236.496 -1.42363 0.676048 0
M  V30 2477 C 237.459 -2.29199 0.00766941 0
M  V30 2478 C 238.459 -1.43389 -0.727745 0
M  V30 2479 O 239.649 -1.64764 -0.56556 0
M  V30 2480 C 236.781 -3.2591 -0.999785 0
M  V30 2481 H 237.974 -2.89794 0.771988 0
M  V30 2482 H 235.527 -1.50024 0.438468 0
M  V30 2483 H 236.262 -2.70256 -1.79255 0
M  V30 2484 H 236.047 -3.89202 -0.475829 0
M  V30 2485 H 237.537 -3.91028 -1.46583 0
M  V30 2486 N 237.974 -0.419461 -1.51915 0
M  V30 2487 C 239.202 0.152136 -2.0634 0
M  V30 2488 C 239.617 1.37988 -1.28859 0
M  V30 2489 O 238.974 1.79243 -0.343232 0
M  V30 2490 C 239.025 0.492266 -3.58133 0
M  V30 2491 O 238.746 -0.686736 -4.32684 0
M  V30 2492 C 240.247 1.11648 -4.2901 0
M  V30 2493 H 237.467 0.0158325 -0.670813 0
M  V30 2494 H 240.011 -0.593394 -1.95702 0
M  V30 2495 H 238.166 1.18769 -3.68745 0
M  V30 2496 H 238.58 -0.400341 -5.2297 0
M  V30 2497 H 240.054 1.3046 -5.36362 0
M  V30 2498 H 240.531 2.09251 -3.86148 0
M  V30 2499 H 241.137 0.460958 -4.22795 0
M  V30 2500 N 239.452 1.56882 -0.150215 0
M  V30 2501 C 240.698 1.96518 0.500834 0
M  V30 2502 C 241.031 1.03527 1.64304 0
M  V30 2503 O 240.306 0.0782751 1.94342 0
M  V30 2504 C 240.589 3.45822 1.00395 0
M  V30 2505 C 240.442 4.49591 -0.136983 0
M  V30 2506 C 241.761 3.97704 1.88467 0
M  V30 2507 H 238.88 0.714535 0.18058 0
M  V30 2508 H 241.522 1.88577 -0.232091 0
M  V30 2509 H 239.672 3.5272 1.62851 0
M  V30 2510 H 241.344 4.5477 -0.77343 0
M  V30 2511 H 239.587 4.26441 -0.795652 0
M  V30 2512 H 240.258 5.51402 0.256815 0
M  V30 2513 H 242.734 3.93304 1.35834 0
M  V30 2514 H 241.61 5.0263 2.20578 0
M  V30 2515 H 241.871 3.40252 2.82279 0
M  V30 2516 N 240.93 -0.123565 1.57115 0
M  V30 2517 C 242.176 -0.833386 1.84885 0
M  V30 2518 C 242.509 -1.79742 0.735292 0
M  V30 2519 O 241.784 -1.92764 -0.25925 0
M  V30 2520 C 242.067 -1.5873 3.23228 0
M  V30 2521 C 241.92 -0.643183 4.45178 0
M  V30 2522 C 243.239 -2.54453 3.59085 0
M  V30 2523 H 240.358 -0.301518 0.6725 0
M  V30 2524 H 243 -0.097778 1.89748 0
M  V30 2525 H 241.15 -2.21438 3.19214 0
M  V30 2526 H 242.822 -0.0253015 4.61293 0
M  V30 2527 H 241.065 0.0456139 4.33776 0
M  V30 2528 H 241.736 -1.20724 5.38637 0
M  V30 2529 H 244.212 -2.01853 3.63861 0
M  V30 2530 H 243.088 -3.04238 4.5687 0
M  V30 2531 H 243.349 -3.36906 2.86264 0
M  V30 2532 N 242.408 -1.52605 -0.393616 0
M  V30 2533 C 243.824 -1.41753 -0.733357 0
M  V30 2534 C 244.024 -0.534293 -1.94287 0
M  V30 2535 O 243.08 -0.0059787 -2.52499 0
M  V30 2536 C 244.393 -2.84531 -0.972772 0
M  V30 2537 C 245.941 -2.93978 -1.07453 0
M  V30 2538 C 246.416 -4.37756 -1.3466 0
M  V30 2539 N 247.907 -4.4106 -1.41492 0
M  V30 2540 C 248.642 -5.49387 -1.642 0
M  V30 2541 N 248.138 -6.67806 -1.8441 0
M  V30 2542 N 249.931 -5.36923 -1.66342 0
M  V30 2543 H 242.082 -2.08555 0.402328 0
M  V30 2544 H 244.345 -0.940654 0.117789 0
M  V30 2545 H 244.051 -3.51353 -0.156204 0
M  V30 2546 H 243.925 -3.26508 -1.88871 0
M  V30 2547 H 246.312 -2.27326 -1.88167 0
M  V30 2548 H 246.393 -2.55435 -0.136605 0
M  V30 2549 H 246.037 -5.04972 -0.544581 0
M  V30 2550 H 245.967 -4.73848 -2.2973 0
M  V30 2551 H 248.458 -3.55705 -1.27601 0
M  V30 2552 H 248.771 -7.46141 -2.01231 0
M  V30 2553 H 247.116 -6.70843 -1.81644 0
M  V30 2554 H 250.307 -4.43381 -1.50102 0
M  V30 2555 H 250.48 -6.21416 -1.837 0
M  V30 2556 N 243.887 0.651787 -1.4349 0
M  V30 2557 C 244.837 1.75783 -1.45205 0
M  V30 2558 C 245.821 1.57679 -0.320328 0
M  V30 2559 O 247.013 1.67767 -0.564211 0
M  V30 2560 C 244.142 3.14377 -1.3792 0
M  V30 2561 C 243.228 3.38023 -2.56127 0
M  V30 2562 N 243.619 3.32135 -3.81471 0
M  V30 2563 C 241.917 3.68747 -2.50882 0
M  V30 2564 C 242.618 3.55902 -4.60118 0
M  V30 2565 N 241.594 3.77783 -3.90872 0
M  V30 2566 H 245.396 1.69657 -2.39987 0
M  V30 2567 H 242.91 0.853508 -1.38163 0
M  V30 2568 H 244.907 3.93666 -1.37231 0
M  V30 2569 H 243.567 3.21683 -0.441596 0
M  V30 2570 H 244.578 3.11515 -4.13738 0
M  V30 2571 H 241.255 3.8316 -1.65816 0
M  V30 2572 H 242.645 3.57116 -5.69138 0
M  V30 2573 N 245.365 1.30045 0.890287 0
M  V30 2574 C 246.328 1.15963 1.977 0
M  V30 2575 C 247.328 0.0923777 1.60534 0
M  V30 2576 O 248.518 0.340071 1.70848 0
M  V30 2577 C 245.65 0.775451 3.31963 0
M  V30 2578 H 246.843 2.12502 2.11619 0
M  V30 2579 H 244.396 1.13366 1.07601 0
M  V30 2580 H 245.131 -0.189671 3.23745 0
M  V30 2581 H 244.916 1.54668 3.60306 0
M  V30 2582 H 246.406 0.700251 4.11687 0
M  V30 2583 N 246.843 -1.10192 1.12674 0
M  V30 2584 C 248.071 -1.85983 0.906527 0
M  V30 2585 C 248.486 -1.80783 -0.544333 0
M  V30 2586 O 247.843 -1.19834 -1.37645 0
M  V30 2587 C 247.894 -3.34281 1.37618 0
M  V30 2588 O 247.615 -3.39401 2.77017 0
M  V30 2589 C 249.116 -4.26938 1.19325 0
M  V30 2590 H 246.336 -0.587716 0.323775 0
M  V30 2591 H 248.88 -1.39284 1.49734 0
M  V30 2592 H 247.035 -3.78436 0.828539 0
M  V30 2593 H 247.449 -4.31838 2.97684 0
M  V30 2594 H 248.923 -5.29181 1.57071 0
M  V30 2595 H 249.4 -4.38995 0.134097 0
M  V30 2596 H 250.006 -3.8859 1.72852 0
M  V30 2597 N 248.321 -0.919034 -1.28029 0
M  V30 2598 C 249.569 -0.553838 -1.94363 0
M  V30 2599 C 249.89 0.906357 -1.72656 0
M  V30 2600 O 249.16 1.64143 -1.0693 0
M  V30 2601 H 247.74 -0.201834 -0.719216 0
M  V30 2602 H 250.402 -1.16954 -1.55909 0
M  V30 2603 H 249.498 -0.752758 -3.02886 0
M  V30 2604 N 249.799 1.42003 -0.683588 0
M  V30 2605 C 251.046 2.01413 -0.209514 0
M  V30 2606 C 251.374 1.54088 1.1869 0
M  V30 2607 O 250.629 0.737591 1.81268 0
M  V30 2608 C 250.928 3.56827 -0.202357 0
M  V30 2609 C 250.594 4.23617 -1.54464 0
M  V30 2610 C 249.256 4.41577 -1.91215 0
M  V30 2611 C 251.608 4.61178 -2.42826 0
M  V30 2612 C 248.936 4.9437 -3.15935 0
M  V30 2613 C 251.288 5.15355 -3.66867 0
M  V30 2614 C 249.952 5.31528 -4.03776 0
M  V30 2615 H 249.222 0.737023 -0.0766668 0
M  V30 2616 H 251.869 1.70067 -0.880312 0
M  V30 2617 H 250.174 3.87892 0.551969 0
M  V30 2618 H 251.871 4.00588 0.181793 0
M  V30 2619 H 248.461 4.10004 -1.24877 0
M  V30 2620 H 252.645 4.46968 -2.15717 0
M  V30 2621 H 247.901 5.05076 -3.44541 0
M  V30 2622 H 252.075 5.43402 -4.35531 0
M  V30 2623 H 249.702 5.72199 -5.00492 0
M  V30 2624 N 251.277 0.427512 1.51691 0
M  V30 2625 C 252.523 -0.142439 2.02299 0
M  V30 2626 C 252.856 -1.43214 1.31162 0
M  V30 2627 O 252.131 -1.89833 0.423511 0
M  V30 2628 C 252.414 -0.371301 3.58181 0
M  V30 2629 C 252.267 0.936358 4.39946 0
M  V30 2630 C 253.586 -1.14542 4.24933 0
M  V30 2631 H 250.705 -0.0502937 0.735282 0
M  V30 2632 H 253.347 0.564584 1.81418 0
M  V30 2633 H 251.497 -0.973559 3.76104 0
M  V30 2634 H 253.169 1.57184 4.33694 0
M  V30 2635 H 251.412 1.5432 4.05423 0
M  V30 2636 H 252.083 0.730388 5.47147 0
M  V30 2637 H 254.559 -0.635362 4.11221 0
M  V30 2638 H 253.435 -1.27431 5.33903 0
M  V30 2639 H 253.696 -2.17093 3.85127 0
M  V30 2640 N 252.755 -1.56801 0.158532 0
M  V30 2641 C 253.985 -2.00568 -0.495583 0
M  V30 2642 C 254.393 -1.03774 -1.58201 0
M  V30 2643 O 253.736 -0.0285797 -1.83678 0
M  V30 2644 C 253.798 -3.40768 -1.14532 0
M  V30 2645 C 253.462 -4.56553 -0.202101 0
M  V30 2646 C 254.459 -5.16714 0.574675 0
M  V30 2647 C 252.144 -5.02197 -0.101648 0
M  V30 2648 C 254.138 -6.20939 1.43924 0
M  V30 2649 C 251.825 -6.06274 0.766508 0
M  V30 2650 C 252.823 -6.65515 1.53555 0
M  V30 2651 O 252.511 -7.67575 2.38922 0
M  V30 2652 H 252.243 -0.662893 -0.13247 0
M  V30 2653 H 254.797 -2.03829 0.253559 0
M  V30 2654 H 253.027 -3.34381 -1.94233 0
M  V30 2655 H 254.716 -3.6857 -1.70033 0
M  V30 2656 H 255.482 -4.82341 0.507167 0
M  V30 2657 H 251.361 -4.55807 -0.689994 0
M  V30 2658 H 254.905 -6.67107 2.03996 0
M  V30 2659 H 250.802 -6.40073 0.835266 0
M  V30 2660 H 251.57 -7.84844 2.32296 0
M  V30 2661 N 254.233 0.115231 -1.57178 0
M  V30 2662 C 255.196 1.12526 -1.99676 0
M  V30 2663 C 256.196 1.34095 -0.88742 0
M  V30 2664 O 257.386 1.30548 -1.15337 0
M  V30 2665 C 254.518 2.4789 -2.34015 0
M  V30 2666 H 255.711 0.759912 -2.90113 0
M  V30 2667 H 253.264 0.359648 -1.52106 0
M  V30 2668 H 253.999 2.89339 -1.4647 0
M  V30 2669 H 253.784 2.33588 -3.14927 0
M  V30 2670 H 255.274 3.20575 -2.67622 0
M  V30 2671 N 255.711 1.52812 0.385517 0
M  V30 2672 C 256.957 1.68275 1.13188 0
M  V30 2673 C 257.29 0.423179 1.89533 0
M  V30 2674 O 256.565 -0.579113 1.85679 0
M  V30 2675 C 256.848 2.92001 2.1073 0
M  V30 2676 C 256.701 4.28067 1.38125 0
M  V30 2677 C 258.02 3.11283 3.11113 0
M  V30 2678 H 255.139 0.612352 0.410115 0
M  V30 2679 H 257.781 1.85415 0.414869 0
M  V30 2680 H 255.931 2.77519 2.71874 0
M  V30 2681 H 257.603 4.54324 0.799187 0
M  V30 2682 H 255.846 4.28388 0.683092 0
M  V30 2683 H 256.517 5.10733 2.09417 0
M  V30 2684 H 258.993 3.2482 2.6006 0
M  V30 2685 H 257.869 3.99325 3.76605 0
M  V30 2686 H 258.13 2.25656 3.80173 0
M  V30 2687 N 257.189 -0.644168 1.43834 0
M  V30 2688 C 258.414 -1.43642 1.49605 0
M  V30 2689 C 258.839 -1.8773 0.117913 0
M  V30 2690 O 258.197 -1.57938 -0.890239 0
M  V30 2691 C 258.245 -2.6416 2.45463 0
M  V30 2692 O 257.349 -3.63538 1.94714 0
M  V30 2693 H 256.69 -0.430329 0.50568 0
M  V30 2694 H 259.22 -0.787448 1.8884 0
M  V30 2695 H 259.23 -3.11864 2.63068 0
M  V30 2696 H 257.905 -2.31414 3.45572 0
M  V30 2697 H 256.482 -3.2273 1.86814 0
M  V30 2698 N 258.668 -1.30515 -0.883378 0
M  V30 2699 C 259.914 -1.19607 -1.63774 0
M  V30 2700 C 260.247 0.248314 -1.92606 0
M  V30 2701 O 259.522 1.17742 -1.54813 0
M  V30 2702 C 259.805 -2.02669 -2.97653 0
M  V30 2703 C 259.658 -3.55335 -2.75784 0
M  V30 2704 C 260.977 -1.86573 -3.98596 0
M  V30 2705 H 258.096 -0.435856 -0.594305 0
M  V30 2706 H 260.738 -1.60165 -1.02212 0
M  V30 2707 H 258.888 -1.68208 -3.50197 0
M  V30 2708 H 260.56 -3.99863 -2.30016 0
M  V30 2709 H 258.803 -3.79438 -2.1026 0
M  V30 2710 H 259.474 -4.08745 -3.70988 0
M  V30 2711 H 261.95 -2.16703 -3.55217 0
M  V30 2712 H 260.826 -2.47014 -4.90179 0
M  V30 2713 H 261.087 -0.825321 -4.34328 0
M  V30 2714 N 260.146 1.09593 -1.13257 0
M  V30 2715 C 261.374 1.855 -0.916378 0
M  V30 2716 C 261.789 1.81069 0.534738 0
M  V30 2717 O 261.146 1.20562 1.37007 0
M  V30 2718 C 261.197 3.33546 -1.39388 0
M  V30 2719 O 260.918 3.37927 -2.78813 0
M  V30 2720 C 262.419 4.26299 -1.21588 0
M  V30 2721 H 259.639 0.585991 -0.326887 0
M  V30 2722 H 262.183 1.38488 -1.5047 0
M  V30 2723 H 260.338 3.77992 -0.848597 0
M  V30 2724 H 260.752 4.30254 -2.9997 0
M  V30 2725 H 262.226 5.28341 -1.59876 0
M  V30 2726 H 262.703 4.38918 -0.157376 0
M  V30 2727 H 263.309 3.87668 -1.7491 0
M  V30 2728 N 261.624 0.925811 1.2754 0
M  V30 2729 C 262.872 0.564138 1.94067 0
M  V30 2730 C 263.193 -0.897188 1.73134 0
M  V30 2731 O 262.463 -1.63573 1.07799 0
M  V30 2732 H 261.043 0.205645 0.718136 0
M  V30 2733 H 263.705 1.1778 1.55287 0
M  V30 2734 H 262.801 0.76881 3.02483 0
M  V30 2735 N 263.102 -1.41638 0.69111 0
M  V30 2736 C 264.348 -2.01598 0.220519 0
M  V30 2737 C 264.681 -1.54594 -1.17535 0
M  V30 2738 O 263.956 -0.755177 -1.79241 0
M  V30 2739 C 264.239 -3.59062 0.273243 0
M  V30 2740 C 264.092 -4.16203 1.70573 0
M  V30 2741 C 265.411 -4.38546 -0.369457 0
M  V30 2742 H 262.53 -0.732468 0.0816045 0
M  V30 2743 H 265.172 -1.68445 0.878986 0
M  V30 2744 H 263.322 -3.87435 -0.287411 0
M  V30 2745 H 264.994 -3.98722 2.31989 0
M  V30 2746 H 263.237 -3.71414 2.2413 0
M  V30 2747 H 263.908 -5.25358 1.69419 0
M  V30 2748 H 266.384 -4.1596 0.107977 0
M  V30 2749 H 265.26 -5.48069 -0.302002 0
M  V30 2750 H 265.521 -4.17662 -1.44951 0
M  V30 2751 N 264.58 -0.43555 -1.51462 0
M  V30 2752 C 265.808 0.130242 -2.0649 0
M  V30 2753 C 266.223 1.36614 -1.30315 0
M  V30 2754 O 265.58 1.78869 -0.362223 0
M  V30 2755 C 265.631 0.454253 -3.58635 0
M  V30 2756 O 265.352 -0.73259 -4.31931 0
M  V30 2757 C 266.853 1.07091 -4.3017 0
M  V30 2758 H 264.073 0.00871669 -0.670943 0
M  V30 2759 H 266.617 -0.614117 -1.95061 0
M  V30 2760 H 264.772 1.14851 -3.69984 0
M  V30 2761 H 265.186 -0.455787 -5.22516 0
M  V30 2762 H 266.66 1.24764 -5.37716 0
M  V30 2763 H 267.137 2.05144 -3.88346 0
M  V30 2764 H 267.743 0.416089 -4.2326 0
M  V30 2765 N 266.058 1.56714 -0.166846 0
M  V30 2766 C 267.306 1.96358 0.478305 0
M  V30 2767 C 267.627 1.0537 1.6408 0
M  V30 2768 O 266.897 0.119154 1.95537 0
M  V30 2769 H 265.477 0.725065 0.179692 0
M  V30 2770 H 268.139 1.93329 -0.246985 0
M  V30 2771 H 267.235 3.00547 0.841292 0
M  V30 2772 N 267.536 -0.106894 1.57237 0
M  V30 2773 C 268.469 -1.16125 1.96444 0
M  V30 2774 C 269.447 -1.3947 0.835871 0
M  V30 2775 O 270.631 -1.53425 1.09513 0
M  V30 2776 C 267.758 -2.51277 2.27107 0
M  V30 2777 C 266.804 -2.44285 3.4961 0
M  V30 2778 S 267.637 -1.87077 5.01759 0
M  V30 2779 C 268.793 -3.23877 5.35588 0
M  V30 2780 H 269.026 -0.826971 2.85567 0
M  V30 2781 H 266.559 -0.314124 1.51171 0
M  V30 2782 H 268.517 -3.29035 2.45451 0
M  V30 2783 H 267.178 -2.81879 1.38576 0
M  V30 2784 H 266.371 -3.4387 3.68469 0
M  V30 2785 H 265.973 -1.74652 3.30715 0
M  V30 2786 H 268.265 -4.20122 5.31511 0
M  V30 2787 H 269.208 -3.09833 6.36717 0
M  V30 2788 H 269.616 -3.22864 4.63054 0
M  V30 2789 N 269.014 -1.53014 -0.377408 0
M  V30 2790 C 270.43 -1.42523 -0.718281 0
M  V30 2791 C 270.63 -0.55487 -1.9371 0
M  V30 2792 O 269.686 -0.0327593 -2.52479 0
M  V30 2793 C 270.999 -2.85546 -0.942539 0
M  V30 2794 C 272.547 -2.95101 -1.04329 0
M  V30 2795 C 273.022 -4.3916 -1.3001 0
M  V30 2796 N 274.513 -4.42536 -1.36806 0
M  V30 2797 C 275.248 -5.51097 -1.58364 0
M  V30 2798 N 274.744 -6.69724 -1.77317 0
M  V30 2799 N 276.537 -5.38657 -1.60638 0
M  V30 2800 H 268.688 -2.08116 0.424426 0
M  V30 2801 H 270.951 -0.939352 0.127759 0
M  V30 2802 H 270.657 -3.51499 -0.118929 0
M  V30 2803 H 270.531 -3.28493 -1.85397 0
M  V30 2804 H 272.918 -2.29309 -1.85745 0
M  V30 2805 H 272.999 -2.55566 -0.109505 0
M  V30 2806 H 272.643 -5.05521 -0.490991 0
M  V30 2807 H 272.573 -4.76258 -2.24691 0
M  V30 2808 H 275.064 -3.57039 -1.23821 0
M  V30 2809 H 275.377 -7.48233 -1.93306 0
M  V30 2810 H 273.722 -6.72732 -1.74518 0
M  V30 2811 H 276.913 -4.44948 -1.45391 0
M  V30 2812 H 277.086 -6.2333 -1.77098 0
M  V30 2813 N 270.492 0.636531 -1.44174 0
M  V30 2814 C 271.402 1.77754 -1.53103 0
M  V30 2815 C 272.418 1.68928 -0.417034 0
M  V30 2816 O 273.594 1.89801 -0.6736 0
M  V30 2817 C 270.659 3.14115 -1.46741 0
M  V30 2818 C 269.72 3.34612 -2.68948 0
M  V30 2819 C 268.953 4.64467 -2.6288 0
M  V30 2820 O 269.176 5.44919 -1.68581 0
M  V30 2821 O 268.11 4.87049 -3.53648 0
M  V30 2822 H 271.936 1.73174 -2.49489 0
M  V30 2823 H 269.521 0.79709 -1.2636 0
M  V30 2824 H 271.403 3.95412 -1.45696 0
M  V30 2825 H 270.078 3.19249 -0.534975 0
M  V30 2826 H 268.985 2.53014 -2.75562 0
M  V30 2827 H 270.318 3.34336 -3.61221 0
M  V30 2828 N 271.97 1.30982 0.876444 0
M  V30 2829 C 273.386 1.09498 1.16113 0
M  V30 2830 C 273.586 -0.13875 2.01022 0
M  V30 2831 O 272.642 -0.829935 2.38471 0
M  V30 2832 C 273.955 2.36308 1.85954 0
M  V30 2833 C 275.503 2.41856 1.98683 0
M  V30 2834 C 275.978 3.6853 2.71937 0
M  V30 2835 N 277.469 3.69387 2.79477 0
M  V30 2836 C 278.204 4.64096 3.36753 0
M  V30 2837 N 277.7 5.69155 3.95012 0
M  V30 2838 N 279.493 4.51626 3.3465 0
M  V30 2839 H 271.644 2.10118 0.310494 0
M  V30 2840 H 273.907 0.926634 0.200131 0
M  V30 2841 H 273.613 3.26388 1.31011 0
M  V30 2842 H 273.487 2.4561 2.86278 0
M  V30 2843 H 275.874 1.52249 2.52793 0
M  V30 2844 H 275.955 2.36523 0.9742 0
M  V30 2845 H 275.599 4.58499 2.18496 0
M  V30 2846 H 275.529 3.71127 3.73593 0
M  V30 2847 H 278.02 2.93438 2.38123 0
M  V30 2848 H 278.333 6.3751 4.36808 0
M  V30 2849 H 276.678 5.72937 3.93406 0
M  V30 2850 H 279.869 3.68728 2.8837 0
M  V30 2851 H 280.042 5.25614 3.7899 0
M  V30 2852 N 273.449 -1.08991 1.13837 0
M  V30 2853 C 274.379 -2.17771 0.842507 0
M  V30 2854 C 275.36 -1.6892 -0.20001 0
M  V30 2855 O 276.545 -1.94113 -0.0579731 0
M  V30 2856 C 273.675 -3.4589 0.312644 0
M  V30 2857 C 272.629 -4.08099 1.28992 0
M  V30 2858 C 271.955 -5.31098 0.619623 0
M  V30 2859 C 273.255 -4.50077 2.65005 0
M  V30 2860 H 274.949 -2.42777 1.75213 0
M  V30 2861 H 272.495 -1.16682 0.843875 0
M  V30 2862 H 274.448 -4.21297 0.0933043 0
M  V30 2863 H 273.172 -3.20419 -0.632382 0
M  V30 2864 H 271.831 -3.34717 1.49533 0
M  V30 2865 H 271.479 -5.0191 -0.33102 0
M  V30 2866 H 271.179 -5.73674 1.27167 0
M  V30 2867 H 272.703 -6.09224 0.409669 0
M  V30 2868 H 274.117 -5.16688 2.48407 0
M  V30 2869 H 272.514 -5.03553 3.26427 0
M  V30 2870 H 273.584 -3.62257 3.22332 0
M  V30 2871 N 274.927 -0.932562 -1.27047 0
M  V30 2872 C 276.338 -0.619451 -1.76124 0
M  V30 2873 C 276.689 0.865397 -1.76083 0
M  V30 2874 O 275.814 1.67722 -1.36742 0
M  V30 2875 C 276.409 -1.11771 -3.19832 0
M  V30 2876 C 274.968 -0.855174 -3.66557 0
M  V30 2877 C 274.115 -1.27362 -2.46321 0
M  V30 2878 H 277.066 -1.11181 -1.13245 0
M  V30 2879 H 277.087 -0.46759 -3.77616 0
M  V30 2880 H 276.599 -2.19842 -3.1983 0
M  V30 2881 H 274.7 0.211524 -3.71999 0
M  V30 2882 H 274.813 -1.47613 -4.55793 0
M  V30 2883 H 273.177 -0.692119 -2.45116 0
M  V30 2884 H 273.96 -2.36307 -2.49025 0
M  V30 2885 N 276.405 1.4127 -0.698611 0
M  V30 2886 C 277.315 2.34573 -0.0357891 0
M  V30 2887 C 278.331 1.56393 0.762701 0
M  V30 2888 O 279.507 1.8886 0.699564 0
M  V30 2889 C 276.572 3.35159 0.887089 0
M  V30 2890 C 275.633 4.29225 0.0804634 0
M  V30 2891 C 274.866 5.25006 0.959387 0
M  V30 2892 O 275.089 5.26314 2.19886 0
M  V30 2893 O 274.023 6.00519 0.407439 0
M  V30 2894 H 277.849 2.92838 -0.804957 0
M  V30 2895 H 275.434 1.42175 -0.458966 0
M  V30 2896 H 277.316 3.9689 1.41621 0
M  V30 2897 H 275.991 2.79333 1.6357 0
M  V30 2898 H 274.898 3.70833 -0.493328 0
M  V30 2899 H 276.231 4.88157 -0.629547 0
M  V30 2900 N 277.883 0.443576 1.51229 0
M  V30 2901 C 278.793 -0.370721 2.31652 0
M  V30 2902 C 279.809 -1.02186 1.40833 0
M  V30 2903 O 280.985 -1.01586 1.73903 0
M  V30 2904 C 278.05 -1.45376 3.14749 0
M  V30 2905 C 277.111 -0.822099 4.21355 0
M  V30 2906 C 276.344 -1.85353 5.0048 0
M  V30 2907 O 276.567 -3.07656 4.80316 0
M  V30 2908 O 275.501 -1.4406 5.84406 0
M  V30 2909 H 279.327 0.286002 3.0235 0
M  V30 2910 H 276.912 0.20598 1.47973 0
M  V30 2911 H 278.794 -2.08173 3.66391 0
M  V30 2912 H 277.469 -2.09445 2.46809 0
M  V30 2913 H 276.376 -0.155909 3.73775 0
M  V30 2914 H 277.709 -0.224797 4.91686 0
M  V30 2915 N 279.361 -1.56624 0.175154 0
M  V30 2916 C 280.607 -1.9729 -0.469506 0
M  V30 2917 C 280.94 -1.06128 -1.62636 0
M  V30 2918 O 280.215 -0.109183 -1.94193 0
M  V30 2919 C 280.498 -3.47375 -0.948804 0
M  V30 2920 C 280.351 -4.49317 0.208491 0
M  V30 2921 C 281.67 -4.00652 -1.82116 0
M  V30 2922 H 278.789 -0.717317 -0.16919 0
M  V30 2923 H 281.431 -1.88184 0.262062 0
M  V30 2924 H 279.581 -3.55267 -1.57219 0
M  V30 2925 H 281.253 -4.53482 0.845682 0
M  V30 2926 H 279.496 -4.25121 0.863395 0
M  V30 2927 H 280.167 -5.51741 -0.169059 0
M  V30 2928 H 282.643 -3.95416 -1.2956 0
M  V30 2929 H 281.519 -5.06075 -2.12554 0
M  V30 2930 H 281.78 -3.44699 -2.7683 0
M  V30 2931 N 280.839 0.0985539 -1.57292 0
M  V30 2932 C 281.786 1.11981 -2.01814 0
M  V30 2933 C 282.756 1.39999 -0.89384 0
M  V30 2934 O 283.941 1.5152 -1.15958 0
M  V30 2935 C 281.081 2.43577 -2.44467 0
M  V30 2936 C 280.194 2.2232 -3.70402 0
M  V30 2937 C 279.329 3.4729 -4.01949 0
M  V30 2938 C 278.368 3.2128 -5.21005 0
M  V30 2939 N 277.505 4.38507 -5.48321 0
M  V30 2940 H 282.345 0.733149 -2.88841 0
M  V30 2941 H 279.882 0.350482 -1.42864 0
M  V30 2942 H 281.84 3.20373 -2.6724 0
M  V30 2943 H 280.47 2.80097 -1.60455 0
M  V30 2944 H 279.522 1.36343 -3.55126 0
M  V30 2945 H 280.834 1.99089 -4.57345 0
M  V30 2946 H 279.988 4.32495 -4.25479 0
M  V30 2947 H 278.727 3.73572 -3.13521 0
M  V30 2948 H 277.732 2.34468 -4.97298 0
M  V30 2949 H 278.957 2.96348 -6.11028 0
M  V30 2950 H 276.903 4.64871 -4.62851 0
M  V30 2951 H 276.82 4.18455 -6.29628 0
M  V30 2952 H 278.088 5.24787 -5.76385 0
M  V30 2953 N 282.317 1.53212 0.369288 0
M  V30 2954 C 283.594 1.59815 1.12776 0
M  V30 2955 C 283.974 0.403402 2.0721 0
M  V30 2956 O 283.322 -0.606667 2.20299 0
M  V30 2957 C 283.532 2.94664 1.87013 0
M  V30 2958 C 284.88 3.49109 2.41677 0
M  V30 2959 O 285.904 2.96669 1.97144 0
M  V30 2960 O 284.763 4.40775 3.23079 0
M  V30 2961 H 281.857 0.645376 0.517125 0
M  V30 2962 H 284.403 1.65553 0.37285 0
M  V30 2963 H 283.175 3.73061 1.18071 0
M  V30 2964 H 282.798 2.92401 2.69421 0
M  V30 2965 N 283.795 -0.628877 1.44509 0
M  V30 2966 C 284.725 -1.75187 1.54376 0
M  V30 2967 C 285.706 -1.65411 0.396618 0
M  V30 2968 O 286.891 -1.84137 0.617031 0
M  V30 2969 C 284.021 -3.13725 1.48976 0
M  V30 2970 C 282.975 -3.38291 2.62189 0
M  V30 2971 C 282.301 -4.76883 2.41841 0
M  V30 2972 C 283.601 -3.30632 4.04326 0
M  V30 2973 H 285.295 -1.67187 2.48373 0
M  V30 2974 H 282.841 -0.802909 1.19538 0
M  V30 2975 H 284.794 -3.92064 1.54478 0
M  V30 2976 H 283.518 -3.22515 0.514961 0
M  V30 2977 H 282.177 -2.62334 2.56079 0
M  V30 2978 H 281.825 -4.82378 1.42548 0
M  V30 2979 H 281.525 -4.94278 3.17747 0
M  V30 2980 H 283.049 -5.57449 2.49165 0
M  V30 2981 H 284.463 -3.98873 4.11793 0
M  V30 2982 H 282.86 -3.59561 4.80454 0
M  V30 2983 H 283.93 -2.28404 4.27738 0
M  V30 2984 N 285.273 -1.31445 -0.869486 0
M  V30 2985 C 286.519 -1.21337 -1.62496 0
M  V30 2986 C 286.852 0.227872 -1.92858 0
M  V30 2987 O 286.127 1.16094 -1.56053 0
M  V30 2988 C 286.41 -2.05814 -2.95487 0
M  V30 2989 C 286.263 -3.5824 -2.72 0
M  V30 2990 C 287.582 -1.9079 -3.96594 0
M  V30 2991 H 284.701 -0.442135 -0.589649 0
M  V30 2992 H 287.343 -1.6124 -1.00507 0
M  V30 2993 H 285.493 -1.71913 -3.48394 0
M  V30 2994 H 287.165 -4.0228 -2.25762 0
M  V30 2995 H 285.408 -3.81647 -2.06224 0
M  V30 2996 H 286.079 -4.12657 -3.66631 0
M  V30 2997 H 288.555 -2.20459 -3.52898 0
M  V30 2998 H 287.431 -2.52199 -4.87531 0
M  V30 2999 H 287.692 -0.871341 -4.33428 0
M  V30 3000 N 286.751 1.08385 -1.14413 0
M  V30 3001 C 288.167 1.32844 -0.884563 0
M  V30 3002 C 288.367 1.95841 0.474181 0
M  V30 3003 O 287.423 2.21158 1.21842 0
M  V30 3004 C 288.736 2.22978 -2.01745 0
M  V30 3005 C 290.284 2.36458 -2.05077 0
M  V30 3006 C 290.759 3.29934 -3.1766 0
M  V30 3007 N 292.25 3.37511 -3.17239 0
M  V30 3008 C 292.985 4.09871 -4.0099 0
M  V30 3009 N 292.481 4.84936 -4.94781 0
M  V30 3010 N 294.274 4.05704 -3.89051 0
M  V30 3011 H 286.425 0.658756 -2.01926 0
M  V30 3012 H 288.688 0.352821 -0.879899 0
M  V30 3013 H 288.394 1.83934 -2.99769 0
M  V30 3014 H 288.268 3.23441 -1.94077 0
M  V30 3015 H 290.655 2.7476 -1.0766 0
M  V30 3016 H 290.736 1.35736 -2.16816 0
M  V30 3017 H 290.38 2.92352 -4.15322 0
M  V30 3018 H 290.31 4.30584 -3.03158 0
M  V30 3019 H 292.801 2.83996 -2.49308 0
M  V30 3020 H 293.114 5.37612 -5.55151 0
M  V30 3021 H 291.459 4.83988 -4.98779 0
M  V30 3022 H 294.65 3.46167 -3.15097 0
M  V30 3023 H 294.823 4.61834 -4.54547 0
M  V30 3024 N 288.23 0.939286 1.26551 0
M  V30 3025 C 289.646 0.641304 1.46149 0
M  V30 3026 C 289.846 -0.805964 1.84679 0
M  V30 3027 O 288.902 -1.58278 1.96734 0
M  V30 3028 C 290.215 1.6011 2.54529 0
M  V30 3029 C 291.763 1.6106 2.68382 0
M  V30 3030 C 292.238 2.55765 3.79932 0
M  V30 3031 N 293.729 2.5404 3.87322 0
M  V30 3032 C 294.464 3.24004 4.73085 0
M  V30 3033 N 293.96 4.03388 5.63249 0
M  V30 3034 N 295.753 3.12965 4.66914 0
M  V30 3035 H 287.904 1.87478 0.998285 0
M  V30 3036 H 290.167 0.805559 0.499779 0
M  V30 3037 H 289.873 2.63412 2.33039 0
M  V30 3038 H 289.747 1.35171 3.52149 0
M  V30 3039 H 292.134 0.584835 2.89247 0
M  V30 3040 H 292.215 1.90053 1.71212 0
M  V30 3041 H 291.859 3.58458 3.5982 0
M  V30 3042 H 291.789 2.24063 4.76554 0
M  V30 3043 H 294.28 1.96396 3.22858 0
M  V30 3044 H 294.593 4.5373 6.25579 0
M  V30 3045 H 292.938 4.07489 5.63008 0
M  V30 3046 H 296.129 2.50432 3.95476 0
M  V30 3047 H 296.302 3.67759 5.33533 0
M  V30 3048 N 289.708 -1.40897 0.706093 0
M  V30 3049 C 290.957 -2.00284 0.238574 0
M  V30 3050 C 291.27 -1.56604 -1.17194 0
M  V30 3051 O 292.476 -2.08624 -1.73748 0
M  V30 3052 C 290.932 -3.57934 0.375623 0
M  V30 3053 C 290.54 -4.10591 1.79217 0
M  V30 3054 C 292.284 -4.24488 -0.0315857 0
M  V30 3055 C 290.191 -5.60712 1.88032 0
M  V30 3056 H 289.121 -0.749144 0.0854398 0
M  V30 3057 H 291.772 -1.61251 0.875813 0
M  V30 3058 H 290.154 -3.94622 -0.330042 0
M  V30 3059 H 291.328 -3.85301 2.52745 0
M  V30 3060 H 289.643 -3.56601 2.15 0
M  V30 3061 H 292.24 -5.34698 0.0136842 0
M  V30 3062 H 292.583 -4.02261 -1.072 0
M  V30 3063 H 293.116 -3.92873 0.624181 0
M  V30 3064 H 289.855 -5.87781 2.90161 0
M  V30 3065 H 289.375 -5.87896 1.18903 0
M  V30 3066 H 291.054 -6.25658 1.64805 0
M  V30 3067 N 291.186 -0.45159 -1.50991 0
M  V30 3068 C 292.133 0.352625 -2.2809 0
M  V30 3069 C 293.103 1.0044 -1.32291 0
M  V30 3070 O 294.288 1.02058 -1.6121 0
M  V30 3071 C 291.428 1.43983 -3.13629 0
M  V30 3072 C 290.541 0.804772 -4.24438 0
M  V30 3073 C 289.676 1.86822 -4.97263 0
M  V30 3074 C 288.715 1.21236 -5.99973 0
M  V30 3075 N 287.852 2.2178 -6.66152 0
M  V30 3076 H 292.692 -0.311186 -2.96371 0
M  V30 3077 H 290.229 -0.165308 -1.46168 0
M  V30 3078 H 292.187 2.08161 -3.61559 0
M  V30 3079 H 290.817 2.07307 -2.47434 0
M  V30 3080 H 289.869 0.0509129 -3.80366 0
M  V30 3081 H 291.181 0.286076 -4.97979 0
M  V30 3082 H 290.335 2.58628 -5.48813 0
M  V30 3083 H 289.074 2.42068 -4.23385 0
M  V30 3084 H 288.079 0.479828 -5.47702 0
M  V30 3085 H 289.304 0.667051 -6.75816 0
M  V30 3086 H 287.25 2.76079 -5.95077 0
M  V30 3087 H 287.167 1.74841 -7.35504 0
M  V30 3088 H 288.435 2.93026 -7.22327 0
M  V30 3089 N 292.664 1.56529 -0.183458 0
M  V30 3090 C 293.627 2.17324 0.728223 0
M  V30 3091 C 294.627 1.12453 1.14939 0
M  V30 3092 O 295.817 1.37902 1.06437 0
M  V30 3093 C 292.949 2.76591 1.99274 0
M  V30 3094 H 294.142 2.99241 0.198772 0
M  V30 3095 H 291.695 1.5616 0.0661391 0
M  V30 3096 H 292.43 1.98441 2.56499 0
M  V30 3097 H 292.215 3.5335 1.69959 0
M  V30 3098 H 293.705 3.23311 2.6431 0
M  V30 3099 N 294.142 -0.090211 1.57342 0
M  V30 3100 C 295.558 -0.444547 1.53284 0
M  V30 3101 C 295.758 -1.80238 0.900914 0
M  V30 3102 O 294.814 -2.4759 0.495513 0
M  V30 3103 C 296.127 -0.402543 2.97993 0
M  V30 3104 C 297.675 -0.48405 3.09234 0
M  V30 3105 C 298.15 -0.472144 4.5556 0
M  V30 3106 N 299.641 -0.532757 4.60126 0
M  V30 3107 C 300.376 -0.545462 5.708 0
M  V30 3108 N 299.872 -0.514082 6.9089 0
M  V30 3109 N 301.665 -0.59064 5.58988 0
M  V30 3110 H 293.816 0.799121 1.96794 0
M  V30 3111 H 296.079 0.297965 0.899956 0
M  V30 3112 H 295.785 0.528106 3.47712 0
M  V30 3113 H 295.659 -1.21969 3.56936 0
M  V30 3114 H 298.046 -1.40512 2.595 0
M  V30 3115 H 298.127 0.361328 2.53235 0
M  V30 3116 H 297.771 0.445 5.05947 0
M  V30 3117 H 297.701 -1.3348 5.09402 0
M  V30 3118 H 300.192 -0.562006 3.73698 0
M  V30 3119 H 300.505 -0.527195 7.71 0
M  V30 3120 H 298.85 -0.481054 6.93333 0
M  V30 3121 H 302.041 -0.61272 4.64073 0
M  V30 3122 H 302.214 -0.597073 6.45243 0
M  V30 3123 N 295.62 -1.53406 -0.361157 0
M  V30 3124 C 296.848 -1.73717 -1.12383 0
M  V30 3125 C 297.263 -0.468161 -1.82904 0
M  V30 3126 O 296.62 0.559198 -1.73722 0
M  V30 3127 C 296.671 -2.90558 -2.15078 0
M  V30 3128 O 296.392 -4.12549 -1.47428 0
M  V30 3129 C 297.893 -3.22777 -3.03858 0
M  V30 3130 H 295.113 -0.580896 -0.335858 0
M  V30 3131 H 297.657 -2.00167 -0.418728 0
M  V30 3132 H 295.812 -2.66489 -2.8118 0
M  V30 3133 H 296.226 -4.78009 -2.15887 0
M  V30 3134 H 297.7 -4.07927 -3.71887 0
M  V30 3135 H 298.177 -2.38329 -3.68912 0
M  V30 3136 H 298.783 -3.48787 -2.43367 0
M  V30 3137 N 297.098 0.621204 -1.44841 0
M  V30 3138 C 298.061 1.71459 -1.521 0
M  V30 3139 C 299.061 1.55696 -0.401933 0
M  V30 3140 O 300.251 1.61011 -0.664925 0
M  V30 3141 C 297.383 3.10624 -1.40447 0
M  V30 3142 H 298.576 1.66394 -2.49506 0
M  V30 3143 H 296.129 0.835745 -1.3208 0
M  V30 3144 H 296.864 3.21277 -0.441737 0
M  V30 3145 H 296.649 3.23473 -2.21602 0
M  V30 3146 H 298.139 3.90293 -1.4853 0
M  V30 3147 N 298.576 1.31904 0.862503 0
M  V30 3148 C 299.506 1.22782 1.98612 0
M  V30 3149 C 300.487 0.113362 1.69722 0
M  V30 3150 O 301.672 0.299218 1.91881 0
M  V30 3151 C 298.802 0.942058 3.34279 0
M  V30 3152 C 297.756 2.0169 3.77499 0
M  V30 3153 C 297.082 1.58369 5.10709 0
M  V30 3154 C 298.382 3.43096 3.93805 0
M  V30 3155 H 300.076 2.16788 2.06502 0
M  V30 3156 H 297.622 1.04366 0.992154 0
M  V30 3157 H 299.575 0.864818 4.1243 0
M  V30 3158 H 298.299 -0.0336603 3.26583 0
M  V30 3159 H 296.958 2.08416 3.01593 0
M  V30 3160 H 296.606 0.595628 4.99461 0
M  V30 3161 H 296.306 2.30279 5.40597 0
M  V30 3162 H 297.83 1.52067 5.91361 0
M  V30 3163 H 299.244 3.39003 4.62331 0
M  V30 3164 H 297.641 4.13288 4.35101 0
M  V30 3165 H 298.711 3.83334 2.96957 0
M  V30 3166 N 300.054 -1.07777 1.14986 0
M  V30 3167 C 301.465 -1.61766 0.932127 0
M  V30 3168 C 301.816 -1.88974 -0.527581 0
M  V30 3169 O 300.941 -1.65198 -1.39781 0
M  V30 3170 C 301.536 -2.93891 1.68563 0
M  V30 3171 C 300.095 -3.44639 1.5133 0
M  V30 3172 C 299.242 -2.18767 1.704 0
M  V30 3173 H 302.193 -0.909201 1.30074 0
M  V30 3174 H 302.214 -3.62623 1.15259 0
M  V30 3175 H 301.726 -2.74057 2.74799 0
M  V30 3176 H 299.827 -3.69564 0.474702 0
M  V30 3177 H 299.94 -4.20966 2.28746 0
M  V30 3178 H 298.304 -2.28253 1.13016 0
M  V30 3179 H 299.087 -2.01433 2.77992 0
M  V30 3180 N 301.532 -0.945985 -1.26051 0
M  V30 3181 C 302.778 -0.597002 -1.93814 0
M  V30 3182 C 303.111 0.862484 -1.73997 0
M  V30 3183 O 302.386 1.61769 -1.07986 0
M  V30 3184 C 302.669 -0.945937 -3.47454 0
M  V30 3185 C 302.522 -2.46052 -3.76535 0
M  V30 3186 C 303.841 -0.464785 -4.37639 0
M  V30 3187 H 300.96 -0.218366 -0.703907 0
M  V30 3188 H 303.602 -1.18107 -1.48831 0
M  V30 3189 H 301.752 -0.448902 -3.85898 0
M  V30 3190 H 303.424 -3.03065 -3.47778 0
M  V30 3191 H 301.667 -2.90194 -3.22444 0
M  V30 3192 H 302.338 -2.65517 -4.83947 0
M  V30 3193 H 304.814 -0.891016 -4.06448 0
M  V30 3194 H 303.69 -0.737712 -5.4392 0
M  V30 3195 H 303.951 0.635274 -4.37512 0
M  V30 3196 N 303.011 1.40521 -0.713556 0
M  V30 3197 C 303.974 2.29098 -0.0684347 0
M  V30 3198 C 304.974 1.45268 0.689472 0
M  V30 3199 O 306.164 1.66205 0.521677 0
M  V30 3200 C 303.296 3.28446 0.913024 0
M  V30 3201 H 304.489 2.87645 -0.84855 0
M  V30 3202 H 302.042 1.48809 -0.47809 0
M  V30 3203 H 302.777 2.74913 1.72027 0
M  V30 3204 H 302.562 3.90327 0.372472 0
M  V30 3205 H 304.052 3.94777 1.36165 0
M  V30 3206 N 304.489 0.459591 1.5075 0
M  V30 3207 C 305.735 -0.0994966 2.02556 0
M  V30 3208 C 306.068 -1.40399 1.3417 0
M  V30 3209 O 305.343 -1.88892 0.463683 0
M  V30 3210 C 305.626 -0.295242 3.58888 0
M  V30 3211 C 305.479 1.02947 4.37861 0
M  V30 3212 C 306.798 -1.05502 4.27267 0
M  V30 3213 H 303.917 -0.034686 0.736183 0
M  V30 3214 H 306.559 0.602938 1.8018 0
M  V30 3215 H 304.709 -0.893563 3.78084 0
M  V30 3216 H 306.381 1.66348 4.30263 0
M  V30 3217 H 304.624 1.62885 4.02058 0
M  V30 3218 H 305.295 0.846281 5.45474 0
M  V30 3219 H 307.771 -0.547993 4.12476 0
M  V30 3220 H 306.647 -1.16077 5.36486 0
M  V30 3221 H 306.908 -2.08875 3.89645 0
M  V30 3222 N 305.967 -1.56429 0.191757 0
M  V30 3223 C 307.215 -1.97095 -0.447006 0
M  V30 3224 C 307.536 -1.07967 -1.62383 0
M  V30 3225 O 306.806 -0.150248 -1.95323 0
M  V30 3226 H 305.386 -0.727832 -0.168135 0
M  V30 3227 H 308.048 -1.92911 0.27771 0
M  V30 3228 H 307.144 -3.01848 -0.793371 0
M  V30 3229 N 307.445 0.0818655 -1.57387 0
M  V30 3230 C 308.692 0.782914 -1.86753 0
M  V30 3231 C 309.02 1.78082 -0.782118 0
M  V30 3232 O 308.275 1.94426 0.22295 0
M  V30 3233 C 308.574 1.53513 -3.22752 0
M  V30 3234 C 308.24 0.678134 -4.45771 0
M  V30 3235 C 306.902 0.441929 -4.79166 0
M  V30 3236 C 309.254 0.0832243 -5.21134 0
M  V30 3237 C 306.582 -0.398833 -5.85343 0
M  V30 3238 C 308.934 -0.744935 -6.28199 0
M  V30 3239 C 307.598 -0.991107 -6.60101 0
M  V30 3240 H 306.868 0.286489 -0.683378 0
M  V30 3241 H 309.515 0.0439808 -1.91449 0
M  V30 3242 H 307.82 2.34599 -3.138 0
M  V30 3243 H 309.517 2.08218 -3.42705 0
M  V30 3244 H 306.107 0.872357 -4.19628 0
M  V30 3245 H 310.291 0.252847 -4.95655 0
M  V30 3246 H 305.547 -0.598405 -6.08465 0
M  V30 3247 H 309.721 -1.21271 -6.8576 0
M  V30 3248 H 307.348 -1.64437 -7.42202 0
M  V30 3249 N 308.923 1.53595 0.353017 0
M  V30 3250 C 310.171 1.70049 1.09215 0
M  V30 3251 C 310.492 0.461406 1.89463 0
M  V30 3252 O 309.762 -0.524633 1.88744 0
M  V30 3253 H 308.342 0.626912 0.40619 0
M  V30 3254 H 311.004 1.90822 0.396585 0
M  V30 3255 H 310.1 2.56718 1.77488 0
M  V30 3256 N 310.401 -0.613514 1.45168 0
M  V30 3257 C 311.647 -1.37471 1.49096 0
M  V30 3258 C 311.98 -1.93765 0.129901 0
M  V30 3259 O 311.255 -1.74707 -0.854858 0
M  V30 3260 C 311.538 -2.52701 2.56542 0
M  V30 3261 C 311.391 -2.01643 4.0207 0
M  V30 3262 C 312.71 -3.54849 2.60327 0
M  V30 3263 H 309.829 -0.498502 0.54283 0
M  V30 3264 H 312.471 -0.692125 1.76945 0
M  V30 3265 H 310.621 -3.10931 2.32926 0
M  V30 3266 H 312.293 -1.48108 4.36877 0
M  V30 3267 H 310.536 -1.32688 4.13009 0
M  V30 3268 H 311.207 -2.84681 4.72928 0
M  V30 3269 H 313.683 -3.0645 2.81474 0
M  V30 3270 H 312.559 -4.32973 3.37381 0
M  V30 3271 H 312.82 -4.10079 1.6519 0
M  V30 3272 N 311.879 -1.3236 -0.855495 0
M  V30 3273 C 313.104 -1.2601 -1.64731 0
M  V30 3274 C 313.529 0.169068 -1.87339 0
M  V30 3275 O 312.887 1.12016 -1.42556 0
M  V30 3276 C 312.935 -2.02417 -2.98429 0
M  V30 3277 O 312.039 -1.3714 -3.8893 0
M  V30 3278 H 311.38 -0.434325 -0.502253 0
M  V30 3279 H 313.91 -1.74661 -1.06558 0
M  V30 3280 H 313.92 -2.12559 -3.48257 0
M  V30 3281 H 312.595 -3.06343 -2.81295 0
M  V30 3282 H 311.172 -1.3554 -3.47395 0
M  V30 3283 N 313.357 1.07166 -1.15556 0
M  V30 3284 C 314.605 1.79443 -0.929764 0
M  V30 3285 C 314.926 1.87246 0.544414 0
M  V30 3286 O 314.196 1.37473 1.39564 0
M  V30 3287 H 312.776 0.664625 -0.341003 0
M  V30 3288 H 315.438 1.29499 -1.45657 0
M  V30 3289 H 314.534 2.81832 -1.34079 0
M  V30 3290 N 314.835 0.952656 1.25548 0
M  V30 3291 C 315.782 0.47008 2.25962 0
M  V30 3292 C 316.752 -0.476384 1.59122 0
M  V30 3293 O 317.937 -0.39007 1.8677 0
M  V30 3294 C 315.077 -0.247881 3.44209 0
M  V30 3295 C 314.19 0.735591 4.25691 0
M  V30 3296 C 313.325 -0.0047306 5.312 0
M  V30 3297 C 312.364 0.969805 6.04368 0
M  V30 3298 N 311.501 0.260486 7.01617 0
M  V30 3299 H 316.341 1.33126 2.66611 0
M  V30 3300 H 313.878 0.66765 1.31076 0
M  V30 3301 H 315.836 -0.680695 4.1161 0
M  V30 3302 H 314.466 -1.07312 3.0444 0
M  V30 3303 H 313.518 1.28689 3.57971 0
M  V30 3304 H 314.83 1.47934 4.76358 0
M  V30 3305 H 313.984 -0.496275 6.04667 0
M  V30 3306 H 312.723 -0.781282 4.81401 0
M  V30 3307 H 311.728 1.47237 5.29718 0
M  V30 3308 H 312.953 1.74655 6.56256 0
M  V30 3309 H 310.899 -0.497364 6.54112 0
M  V30 3310 H 310.816 0.943362 7.50091 0
M  V30 3311 H 312.084 -0.209587 7.79218 0
M  V30 3312 N 316.313 -1.40141 0.720998 0
M  V30 3313 C 317.276 -2.29058 0.0805834 0
M  V30 3314 C 318.276 -1.45632 -0.681758 0
M  V30 3315 O 319.466 -1.6648 -0.512856 0
M  V30 3316 C 316.598 -3.28925 -0.895593 0
M  V30 3317 H 317.791 -2.87191 0.863793 0
M  V30 3318 H 315.344 -1.48553 0.485975 0
M  V30 3319 H 316.079 -2.75822 -1.70566 0
M  V30 3320 H 315.864 -3.90519 -0.351766 0
M  V30 3321 H 317.354 -3.95494 -1.34069 0
M  V30 3322 N 317.792 -0.46758 -1.50504 0
M  V30 3323 C 319.02 0.0864133 -2.06719 0
M  V30 3324 C 319.435 1.33819 -1.33184 0
M  V30 3325 O 318.792 1.78061 -0.400083 0
M  V30 3326 C 318.843 0.378079 -3.59517 0
M  V30 3327 O 318.564 -0.824044 -4.3028 0
M  V30 3328 C 320.065 0.979426 -4.32345 0
M  V30 3329 H 317.285 -0.00551697 -0.670977 0
M  V30 3330 H 319.829 -0.655354 -1.93715 0
M  V30 3331 H 317.984 1.06977 -3.72337 0
M  V30 3332 H 318.398 -0.566518 -5.21432 0
M  V30 3333 H 319.872 1.1333 -5.40241 0
M  V30 3334 H 320.349 1.9686 -3.9261 0
M  V30 3335 H 320.955 0.326216 -4.24047 0
M  V30 3336 N 319.27 1.56325 -0.20005 0
M  V30 3337 C 320.233 2.18084 0.705132 0
M  V30 3338 C 321.233 1.13666 1.1374 0
M  V30 3339 O 322.423 1.39023 1.04968 0
M  V30 3340 C 319.555 2.78689 1.96329 0
M  V30 3341 H 320.748 2.99435 0.167023 0
M  V30 3342 H 318.301 1.56221 0.0495725 0
M  V30 3343 H 319.036 2.0115 2.5438 0
M  V30 3344 H 318.821 3.55133 1.66202 0
M  V30 3345 H 320.311 3.26096 2.60866 0
M  V30 3346 N 320.748 -0.0735177 1.57428 0
M  V30 3347 C 321.711 -1.07192 2.02589 0
M  V30 3348 C 322.711 -1.31695 0.922661 0
M  V30 3349 O 323.901 -1.27445 1.18758 0
M  V30 3350 C 321.033 -2.41599 2.40506 0
M  V30 3351 H 322.226 -0.682727 2.92025 0
M  V30 3352 H 319.779 -0.319193 1.53006 0
M  V30 3353 H 320.514 -2.85354 1.5409 0
M  V30 3354 H 320.299 -2.25156 3.21009 0
M  V30 3355 H 321.789 -3.13367 2.76027 0
M  V30 3356 N 322.226 -1.5378 -0.344866 0
M  V30 3357 C 323.158 -1.77988 -1.44406 0
M  V30 3358 C 324.171 -0.661138 -1.48771 0
M  V30 3359 O 325.36 -0.937842 -1.51877 0
M  V30 3360 C 322.46 -1.86345 -2.8307 0
M  V30 3361 C 321.633 -3.16256 -3.0216 0
M  V30 3362 C 320.692 -3.15588 -4.21059 0
M  V30 3363 O 319.718 -3.89314 -4.15239 0
M  V30 3364 N 320.92 -2.37864 -5.29529 0
M  V30 3365 H 323.685 -2.72839 -1.24012 0
M  V30 3366 H 321.246 -1.52814 -0.534737 0
M  V30 3367 H 323.238 -1.83351 -3.60783 0
M  V30 3368 H 321.808 -0.986858 -2.96614 0
M  V30 3369 H 321.028 -3.32385 -2.11929 0
M  V30 3370 H 322.316 -4.0207 -3.11797 0
M  V30 3371 H 321.714 -1.77514 -5.37127 0
M  V30 3372 H 320.271 -2.40668 -6.05741 0
M  V30 3373 N 323.704 0.605807 -1.45491 0
M  V30 3374 C 324.667 1.69836 -1.5391 0
M  V30 3375 C 325.667 1.55261 -0.418424 0
M  V30 3376 O 326.857 1.60296 -0.681965 0
M  V30 3377 C 323.989 3.09117 -1.43734 0
M  V30 3378 H 325.182 1.63738 -2.51257 0
M  V30 3379 H 322.735 0.821689 -1.32959 0
M  V30 3380 H 323.47 3.20791 -0.475788 0
M  V30 3381 H 323.255 3.21104 -2.25021 0
M  V30 3382 H 324.745 3.88696 -1.52661 0
M  V30 3383 N 325.182 1.32811 0.848464 0
M  V30 3384 C 326.145 1.22194 1.9391 0
M  V30 3385 C 327.145 0.143404 1.60159 0
M  V30 3386 O 328.335 0.394253 1.6968 0
M  V30 3387 C 325.467 0.88067 3.29328 0
M  V30 3388 H 326.66 2.19127 2.04752 0
M  V30 3389 H 324.213 1.16731 1.0394 0
M  V30 3390 H 324.948 -0.0865776 3.24184 0
M  V30 3391 H 324.733 1.66052 3.55203 0
M  V30 3392 H 326.223 0.830871 4.09251 0
M  V30 3393 N 326.66 -1.06551 1.16123 0
M  V30 3394 C 327.906 -1.79567 0.94252 0
M  V30 3395 C 328.239 -1.86869 -0.528547 0
M  V30 3396 O 327.514 -1.35838 -1.39206 0
M  V30 3397 C 327.797 -3.24195 1.56747 0
M  V30 3398 C 327.65 -3.24989 3.10969 0
M  V30 3399 C 328.969 -4.21678 1.25998 0
M  V30 3400 H 326.088 -0.651883 0.343828 0
M  V30 3401 H 328.73 -1.2463 1.43413 0
M  V30 3402 H 326.88 -3.71107 1.14942 0
M  V30 3403 H 328.552 -2.86258 3.61737 0
M  V30 3404 H 326.795 -2.63716 3.44436 0
M  V30 3405 H 327.466 -4.27005 3.49815 0
M  V30 3406 H 329.942 -3.83196 1.62174 0
M  V30 3407 H 328.818 -5.21146 1.7233 0
M  V30 3408 H 329.079 -4.4174 0.178367 0
M  V30 3409 N 328.138 -0.959301 -1.25041 0
M  V30 3410 C 329.101 -0.487677 -2.23952 0
M  V30 3411 C 330.101 0.41119 -1.55454 0
M  V30 3412 O 331.291 0.207825 -1.72956 0
M  V30 3413 C 328.423 0.294807 -3.39623 0
M  V30 3414 H 329.616 -1.36198 -2.67189 0
M  V30 3415 H 327.169 -0.743042 -1.37508 0
M  V30 3416 H 327.904 1.18658 -3.01813 0
M  V30 3417 H 327.689 -0.35012 -3.90534 0
M  V30 3418 H 329.179 0.614089 -4.1306 0
M  V30 3419 N 329.616 1.39756 -0.72842 0
M  V30 3420 C 330.893 1.94574 -0.200079 0
M  V30 3421 C 331.273 1.66569 1.29684 0
M  V30 3422 O 330.621 0.990326 2.05924 0
M  V30 3423 C 330.831 3.45004 -0.526608 0
M  V30 3424 C 332.179 4.21965 -0.472318 0
M  V30 3425 O 333.203 3.53173 -0.463413 0
M  V30 3426 O 332.062 5.44552 -0.461075 0
M  V30 3427 H 329.156 0.826289 -0.0342851 0
M  V30 3428 H 331.702 1.49293 -0.806829 0
M  V30 3429 H 330.474 3.58796 -1.56144 0
M  V30 3430 H 330.097 3.97449 0.109449 0
M  V30 3431 N 331.094 0.475555 1.50254 0
M  V30 3432 C 332.342 -0.077738 2.0195 0
M  V30 3433 C 332.663 -1.39813 1.35931 0
M  V30 3434 O 331.933 -1.89249 0.506123 0
M  V30 3435 H 330.513 -0.031719 0.746326 0
M  V30 3436 H 333.175 0.626995 1.84539 0
M  V30 3437 H 332.271 -0.225995 3.11281 0
M  V30 3438 N 332.573 -1.56217 0.208337 0
M  V30 3439 C 333.819 -1.98242 -0.427552 0
M  V30 3440 C 334.152 -1.09554 -1.60348 0
M  V30 3441 O 333.427 -0.15035 -1.93918 0
M  V30 3442 C 333.71 -3.4931 -0.874907 0
M  V30 3443 C 333.563 -4.48773 0.303751 0
M  V30 3444 C 334.882 -4.04424 -1.73577 0
M  V30 3445 H 332.001 -0.720744 -0.153936 0
M  V30 3446 H 334.643 -1.87586 0.30192 0
M  V30 3447 H 332.793 -3.58522 -1.49648 0
M  V30 3448 H 334.465 -4.51586 0.941682 0
M  V30 3449 H 332.708 -4.23194 0.953375 0
M  V30 3450 H 333.379 -5.51976 -0.0519883 0
M  V30 3451 H 335.855 -3.98075 -1.21143 0
M  V30 3452 H 334.731 -5.1047 -2.01771 0
M  V30 3453 H 334.992 -3.50494 -2.69456 0
M  V30 3454 N 334.051 0.0651679 -1.57465 0
M  V30 3455 C 335.297 0.764193 -1.87851 0
M  V30 3456 C 335.63 1.76889 -0.801495 0
M  V30 3457 O 334.905 1.93594 0.187528 0
M  V30 3458 C 335.188 1.46625 -3.28897 0
M  V30 3459 C 335.041 0.477515 -4.47258 0
M  V30 3460 C 336.36 2.4095 -3.68281 0
M  V30 3461 H 333.479 0.276351 -0.683227 0
M  V30 3462 H 336.121 0.0272868 -1.8998 0
M  V30 3463 H 334.271 2.09438 -3.27212 0
M  V30 3464 H 335.943 -0.145922 -4.61069 0
M  V30 3465 H 334.186 -0.206576 -4.33308 0
M  V30 3466 H 334.857 1.0065 -5.42746 0
M  V30 3467 H 337.333 1.88209 -3.71102 0
M  V30 3468 H 336.209 2.87072 -4.67847 0
M  V30 3469 H 336.47 3.26049 -2.98571 0
M  V30 3470 N 335.529 1.53961 0.336706 0
M  V30 3471 C 336.775 1.7179 1.07777 0
M  V30 3472 C 337.108 0.483263 1.88091 0
M  V30 3473 O 336.383 -0.519747 1.87427 0
M  V30 3474 C 336.666 2.98558 2.01334 0
M  V30 3475 C 336.519 4.32245 1.24437 0
M  V30 3476 C 337.838 3.21023 3.01052 0
M  V30 3477 H 334.957 0.625089 0.390426 0
M  V30 3478 H 337.599 1.86641 0.35567 0
M  V30 3479 H 335.749 2.86028 2.62908 0
M  V30 3480 H 337.421 4.56637 0.654243 0
M  V30 3481 H 335.664 4.30344 0.546458 0
M  V30 3482 H 336.335 5.17137 1.93063 0
M  V30 3483 H 338.811 3.32929 2.49595 0
M  V30 3484 H 337.687 4.11104 3.6371 0
M  V30 3485 H 337.948 2.37637 3.72802 0
M  V30 3486 N 337.007 -0.598083 1.45811 0
M  V30 3487 C 338.255 -1.35413 1.50026 0
M  V30 3488 C 338.576 -1.94444 0.147177 0
M  V30 3489 O 337.846 -1.77701 -0.824571 0
M  V30 3490 H 336.426 -0.502727 0.552517 0
M  V30 3491 H 339.088 -0.701606 1.81834 0
M  V30 3492 H 338.184 -2.16871 2.2444 0
M  V30 3493 N 338.485 -1.33259 -0.841409 0
M  V30 3494 C 339.71 -1.2775 -1.63385 0
M  V30 3495 C 340.135 0.149188 -1.87507 0
M  V30 3496 O 339.493 1.10498 -1.43736 0
M  V30 3497 C 339.541 -2.05571 -2.96265 0
M  V30 3498 O 338.645 -1.41257 -3.87453 0
M  V30 3499 H 337.986 -0.439627 -0.497618 0
M  V30 3500 H 340.516 -1.75782 -1.04699 0
M  V30 3501 H 340.526 -2.16241 -3.45982 0
M  V30 3502 H 339.201 -3.09309 -2.7803 0
M  V30 3503 H 337.778 -1.39217 -3.45938 0
M  V30 3504 N 339.963 1.05934 -1.16686 0
M  V30 3505 C 340.926 2.11669 -0.879144 0
M  V30 3506 C 341.926 1.60294 0.127445 0
M  V30 3507 O 343.116 1.7389 -0.103865 0
M  V30 3508 C 340.248 3.39438 -0.315425 0
M  V30 3509 H 341.441 2.38626 -1.81653 0
M  V30 3510 H 338.994 1.22058 -0.976299 0
M  V30 3511 H 339.729 3.18132 0.629468 0
M  V30 3512 H 339.514 3.78034 -1.04079 0
M  V30 3513 H 341.004 4.17391 -0.132189 0
M  V30 3514 N 341.441 0.965919 1.2453 0
M  V30 3515 C 342.371 0.513476 2.27784 0
M  V30 3516 C 343.352 -0.445974 1.6415 0
M  V30 3517 O 344.537 -0.342485 1.91156 0
M  V30 3518 C 341.667 -0.198839 3.4673 0
M  V30 3519 C 340.621 0.676456 4.2262 0
M  V30 3520 C 339.947 -0.167248 5.34438 0
M  V30 3521 C 341.247 1.96017 4.84123 0
M  V30 3522 H 342.941 1.3765 2.65881 0
M  V30 3523 H 340.487 0.663321 1.27813 0
M  V30 3524 H 342.44 -0.526567 4.18097 0
M  V30 3525 H 341.164 -1.0962 3.07654 0
M  V30 3526 H 339.823 0.98743 3.53052 0
M  V30 3527 H 339.471 -1.0647 4.91603 0
M  V30 3528 H 339.171 0.415181 5.86131 0
M  V30 3529 H 340.695 -0.489688 6.08633 0
M  V30 3530 H 342.109 1.69814 5.47573 0
M  V30 3531 H 340.506 2.48918 5.4604 0
M  V30 3532 H 341.576 2.65622 4.05676 0
M  V30 3533 N 342.919 -1.39368 0.735821 0
M  V30 3534 C 344.165 -2.00794 0.284544 0
M  V30 3535 C 344.498 -1.58255 -1.12557 0
M  V30 3536 O 343.773 -0.811819 -1.76748 0
M  V30 3537 C 344.056 -3.58011 0.387337 0
M  V30 3538 C 343.909 -4.10566 1.83728 0
M  V30 3539 C 345.228 -4.395 -0.22975 0
M  V30 3540 H 342.347 -0.729501 0.104866 0
M  V30 3541 H 344.989 -1.65564 0.93213 0
M  V30 3542 H 343.139 -3.88154 -0.164006 0
M  V30 3543 H 344.811 -3.91139 2.44556 0
M  V30 3544 H 343.054 -3.64095 2.35833 0
M  V30 3545 H 343.725 -5.19702 1.86047 0
M  V30 3546 H 346.201 -4.15406 0.240257 0
M  V30 3547 H 345.077 -5.48752 -0.127485 0
M  V30 3548 H 345.338 -4.22062 -1.3159 0
M  V30 3549 N 344.397 -0.483516 -1.5 0
M  V30 3550 C 345.813 -0.138404 -1.58999 0
M  V30 3551 C 346.013 1.35597 -1.4905 0
M  V30 3552 O 345.069 2.13039 -1.35539 0
M  V30 3553 C 346.382 -0.699658 -2.92447 0
M  V30 3554 C 347.93 -0.664195 -3.05872 0
M  V30 3555 C 348.405 -1.20321 -4.41913 0
M  V30 3556 N 349.896 -1.16315 -4.48358 0
M  V30 3557 C 350.631 -1.55058 -5.52037 0
M  V30 3558 N 350.127 -2.01311 -6.62907 0
M  V30 3559 N 351.92 -1.46584 -5.42651 0
M  V30 3560 H 344.071 -1.45529 -1.5471 0
M  V30 3561 H 346.334 -0.60258 -0.731848 0
M  V30 3562 H 346.04 -1.747 -3.05242 0
M  V30 3563 H 345.914 -0.150194 -3.76901 0
M  V30 3564 H 348.301 0.374272 -2.92717 0
M  V30 3565 H 348.382 -1.25061 -2.23144 0
M  V30 3566 H 348.026 -2.24037 -4.55818 0
M  V30 3567 H 347.956 -0.592896 -5.23252 0
M  V30 3568 H 350.447 -0.824058 -3.68806 0
M  V30 3569 H 350.76 -2.2899 -7.38095 0
M  V30 3570 H 349.105 -2.05273 -6.63994 0
M  V30 3571 H 352.296 -1.10281 -4.54924 0
M  V30 3572 H 352.469 -1.77103 -6.23329 0
M  V30 3573 N 345.875 1.56104 -0.216619 0
M  V30 3574 C 346.838 2.18819 0.681962 0
M  V30 3575 C 347.838 1.14866 1.12528 0
M  V30 3576 O 349.028 1.40128 1.03488 0
M  V30 3577 C 346.16 2.80756 1.93362 0
M  V30 3578 H 347.353 2.99595 0.135254 0
M  V30 3579 H 344.906 1.56265 0.0330003 0
M  V30 3580 H 345.641 2.03837 2.52232 0
M  V30 3581 H 345.426 3.56876 1.62426 0
M  V30 3582 H 346.916 3.28844 2.57393 0
M  V30 3583 N 347.353 -0.0568162 1.57498 0
M  V30 3584 C 348.283 -1.06593 2.0775 0
M  V30 3585 C 349.264 -1.39448 0.974082 0
M  V30 3586 O 350.449 -1.48815 1.24771 0
M  V30 3587 C 347.579 -2.37509 2.5339 0
M  V30 3588 C 346.533 -2.1897 3.67745 0
M  V30 3589 C 345.859 -3.55402 3.99492 0
M  V30 3590 C 347.159 -1.59859 4.97235 0
M  V30 3591 H 348.853 -0.647706 2.9231 0
M  V30 3592 H 346.399 -0.310116 1.40621 0
M  V30 3593 H 348.352 -3.08409 2.87162 0
M  V30 3594 H 347.076 -2.8134 1.65878 0
M  V30 3595 H 345.735 -1.50508 3.3428 0
M  V30 3596 H 345.383 -3.9683 3.09088 0
M  V30 3597 H 345.083 -3.43831 4.76502 0
M  V30 3598 H 346.607 -4.27708 4.35773 0
M  V30 3599 H 348.021 -2.20642 5.29141 0
M  V30 3600 H 346.418 -1.58942 5.78669 0
M  V30 3601 H 347.488 -0.561506 4.81638 0
M  V30 3602 N 348.832 -1.54138 -0.328536 0
M  V30 3603 C 349.742 -1.86192 -1.42723 0
M  V30 3604 C 350.758 -0.753382 -1.56844 0
M  V30 3605 O 351.934 -1.04718 -1.72035 0
M  V30 3606 C 348.999 -2.07824 -2.77507 0
M  V30 3607 C 348.06 -3.31641 -2.72603 0
M  V30 3608 C 347.293 -3.52232 -4.00959 0
M  V30 3609 O 347.516 -2.7636 -4.9898 0
M  V30 3610 O 346.45 -4.45699 -4.0452 0
M  V30 3611 H 350.276 -2.79608 -1.18547 0
M  V30 3612 H 347.861 -1.3998 -0.522104 0
M  V30 3613 H 349.743 -2.23411 -3.57303 0
M  V30 3614 H 348.418 -1.17596 -3.01584 0
M  V30 3615 H 347.325 -3.21444 -1.91376 0
M  V30 3616 H 348.658 -4.2191 -2.53481 0
M  V30 3617 N 350.31 0.590341 -1.46126 0
M  V30 3618 C 351.22 1.72793 -1.58681 0
M  V30 3619 C 352.236 1.67516 -0.470566 0
M  V30 3620 O 353.412 1.87562 -0.733642 0
M  V30 3621 C 350.477 3.09287 -1.5666 0
M  V30 3622 C 349.538 3.25886 -2.79458 0
M  V30 3623 C 348.771 4.55869 -2.77524 0
M  V30 3624 O 348.994 5.3928 -1.85832 0
M  V30 3625 O 347.928 4.75552 -3.68964 0
M  V30 3626 H 351.754 1.65149 -2.54872 0
M  V30 3627 H 349.339 0.756486 -1.28832 0
M  V30 3628 H 351.221 3.90577 -1.58202 0
M  V30 3629 H 349.896 3.17385 -0.636271 0
M  V30 3630 H 348.803 2.44119 -2.83472 0
M  V30 3631 H 350.136 3.22675 -3.71674 0
M  V30 3632 N 351.788 1.33704 0.83433 0
M  V30 3633 C 353.036 1.25169 1.58673 0
M  V30 3634 C 353.357 -0.18127 1.94156 0
M  V30 3635 O 352.627 -1.11113 1.6134 0
M  V30 3636 H 351.207 0.4603 0.58833 0
M  V30 3637 H 353.869 1.67478 0.996847 0
M  V30 3638 H 352.965 1.84856 2.51465 0
M  V30 3639 N 353.266 -1.05314 1.17247 0
M  V30 3640 C 354.682 -1.30452 0.919473 0
M  V30 3641 C 354.882 -1.9703 -0.42209 0
M  V30 3642 O 353.938 -2.24311 -1.15935 0
M  V30 3643 C 355.251 -2.17551 2.07586 0
M  V30 3644 C 356.799 -2.30937 2.11275 0
M  V30 3645 C 357.274 -3.21396 3.26296 0
M  V30 3646 N 358.765 -3.28981 3.26076 0
M  V30 3647 C 359.5 -3.99095 4.11716 0
M  V30 3648 N 358.996 -4.71648 5.07465 0
M  V30 3649 N 360.789 -3.95247 3.9967 0
M  V30 3650 H 352.94 -0.604988 2.03602 0
M  V30 3651 H 355.203 -0.329368 0.888944 0
M  V30 3652 H 354.909 -1.75921 3.0454 0
M  V30 3653 H 354.783 -3.18182 2.02584 0
M  V30 3654 H 357.17 -2.71809 1.14907 0
M  V30 3655 H 357.251 -1.2994 2.20339 0
M  V30 3656 H 356.895 -2.81238 4.22927 0
M  V30 3657 H 356.825 -4.22395 3.14467 0
M  V30 3658 H 359.316 -2.77286 2.5675 0
M  V30 3659 H 359.629 -5.22705 5.6921 0
M  V30 3660 H 357.974 -4.70594 5.11435 0
M  V30 3661 H 361.165 -3.37691 3.24164 0
M  V30 3662 H 361.338 -4.4962 4.66632 0
M  V30 3663 N 354.744 -0.972509 -1.24016 0
M  V30 3664 C 355.969 -0.654417 -1.96805 0
M  V30 3665 C 356.394 0.770398 -1.716 0
M  V30 3666 O 355.752 1.52361 -0.982647 0
M  V30 3667 C 355.8 -0.941031 -3.48105 0
M  V30 3668 O 354.904 -0.0289472 -4.1239 0
M  V30 3669 H 354.245 -0.24692 -0.616382 0
M  V30 3670 H 356.775 -1.30396 -1.57664 0
M  V30 3671 H 356.785 -0.87452 -3.98517 0
M  V30 3672 H 355.46 -1.97939 -3.65777 0
M  V30 3673 H 354.037 -0.149192 -3.72601 0
M  V30 3674 N 356.222 1.38976 -0.743202 0
M  V30 3675 C 357.152 2.33171 -0.123873 0
M  V30 3676 C 358.133 1.54336 0.71516 0
M  V30 3677 O 359.318 1.82696 0.658467 0
M  V30 3678 C 356.448 3.38474 0.777978 0
M  V30 3679 C 355.402 4.27979 0.0424758 0
M  V30 3680 C 354.728 5.2405 1.06189 0
M  V30 3681 C 356.028 5.10155 -1.1198 0
M  V30 3682 H 357.722 2.85213 -0.910709 0
M  V30 3683 H 355.268 1.37133 -0.439388 0
M  V30 3684 H 357.221 4.03328 1.22084 0
M  V30 3685 H 355.945 2.84891 1.59702 0
M  V30 3686 H 354.604 3.64616 -0.380853 0
M  V30 3687 H 354.252 4.66758 1.87472 0
M  V30 3688 H 353.952 5.84785 0.574485 0
M  V30 3689 H 355.476 5.9178 1.50428 0
M  V30 3690 H 356.89 5.68307 -0.75499 0
M  V30 3691 H 355.287 5.80073 -1.53738 0
M  V30 3692 H 356.357 4.44504 -1.93764 0
M  V30 3693 N 357.7 0.491464 1.49741 0
M  V30 3694 C 358.663 -0.280906 2.27472 0
M  V30 3695 C 359.663 -0.902454 1.33088 0
M  V30 3696 O 360.853 -0.768465 1.56334 0
M  V30 3697 C 357.985 -1.40209 3.10732 0
M  V30 3698 H 359.178 0.401056 2.97206 0
M  V30 3699 H 356.731 0.246131 1.5435 0
M  V30 3700 H 357.466 -2.11849 2.45541 0
M  V30 3701 H 357.251 -0.961969 3.80117 0
M  V30 3702 H 358.741 -1.9464 3.69466 0
M  V30 3703 N 359.178 -1.55987 0.224894 0
M  V30 3704 C 360.589 -1.84553 -0.282345 0
M  V30 3705 C 360.94 -1.14634 -1.59227 0
M  V30 3706 O 360.065 -0.417155 -2.12341 0
M  V30 3707 C 360.66 -3.348 -0.519062 0
M  V30 3708 C 359.219 -3.63671 -0.970604 0
M  V30 3709 C 358.366 -2.77277 -0.0355261 0
M  V30 3710 H 361.317 -1.52245 0.448006 0
M  V30 3711 H 361.338 -3.55187 -1.36463 0
M  V30 3712 H 360.85 -3.8566 0.43449 0
M  V30 3713 H 358.951 -3.1827 -1.9374 0
M  V30 3714 H 359.064 -4.71631 -0.842698 0
M  V30 3715 H 357.428 -2.48846 -0.542927 0
M  V30 3716 H 358.211 -3.30937 0.913003 0
M  V30 3717 N 360.656 0.0484629 -1.57525 0
M  V30 3718 C 361.586 1.0549 -2.08313 0
M  V30 3719 C 362.567 1.38929 -0.981463 0
M  V30 3720 O 363.752 1.48151 -1.25558 0
M  V30 3721 C 360.882 2.36162 -2.54646 0
M  V30 3722 C 359.836 2.17016 -3.68901 0
M  V30 3723 C 359.162 3.53278 -4.01371 0
M  V30 3724 C 360.462 1.57219 -4.98076 0
M  V30 3725 H 362.156 0.632195 -2.92649 0
M  V30 3726 H 359.702 0.302654 -1.40784 0
M  V30 3727 H 361.655 3.06882 -2.88793 0
M  V30 3728 H 360.379 2.80456 -1.67368 0
M  V30 3729 H 359.038 1.48733 -3.35073 0
M  V30 3730 H 358.686 3.95185 -3.11188 0
M  V30 3731 H 358.386 3.41299 -4.78318 0
M  V30 3732 H 359.91 4.25391 -4.38035 0
M  V30 3733 H 361.324 2.17832 -5.30304 0
M  V30 3734 H 359.721 1.55871 -5.79503 0
M  V30 3735 H 360.791 0.535956 -4.81929 0
M  V30 3736 N 362.134 1.5431 0.320358 0
M  V30 3737 C 363.064 1.86912 1.3995 0
M  V30 3738 C 364.045 0.726211 1.53819 0
M  V30 3739 O 365.23 0.980233 1.67646 0
M  V30 3740 C 362.36 2.09932 2.7667 0
M  V30 3741 C 361.314 3.25776 2.77586 0
M  V30 3742 C 360.64 3.34173 4.17412 0
M  V30 3743 C 361.94 4.6335 2.41048 0
M  V30 3744 H 363.634 2.77292 1.12914 0
M  V30 3745 H 361.18 1.33421 0.541738 0
M  V30 3746 H 363.133 2.31324 3.52232 0
M  V30 3747 H 361.857 1.16304 3.0519 0
M  V30 3748 H 360.516 3.04276 2.04479 0
M  V30 3749 H 360.164 2.38098 4.43078 0
M  V30 3750 H 359.864 4.12033 4.18931 0
M  V30 3751 H 361.388 3.57803 4.94782 0
M  V30 3752 H 362.802 4.84602 3.06324 0
M  V30 3753 H 361.199 5.43782 2.53813 0
M  V30 3754 H 362.269 4.65381 1.36193 0
M  V30 3755 N 363.613 -0.582584 1.46437 0
M  V30 3756 C 364.545 -1.70618 1.53043 0
M  V30 3757 C 365.558 -1.57322 0.418769 0
M  V30 3758 O 366.747 -1.64744 0.687136 0
M  V30 3759 C 363.847 -3.08869 1.39474 0
M  V30 3760 C 363.02 -3.48166 2.64762 0
M  V30 3761 C 362.079 -4.65478 2.4539 0
M  V30 3762 O 361.105 -4.71333 3.19114 0
M  V30 3763 N 362.307 -5.60365 1.51564 0
M  V30 3764 H 365.072 -1.65405 2.49923 0
M  V30 3765 H 362.633 -0.768567 1.42494 0
M  V30 3766 H 364.625 -3.85143 1.24287 0
M  V30 3767 H 363.195 -3.08449 0.507758 0
M  V30 3768 H 362.415 -2.61598 2.9489 0
M  V30 3769 H 363.703 -3.71188 3.4799 0
M  V30 3770 H 363.101 -5.5837 0.907705 0
M  V30 3771 H 361.658 -6.36068 1.4234 0
M  V30 3772 N 365.091 -1.34144 -0.827227 0
M  V30 3773 C 366.001 -1.27428 -1.96975 0
M  V30 3774 C 367.017 -0.182728 -1.73038 0
M  V30 3775 O 368.193 -0.408426 -1.97215 0
M  V30 3776 C 365.258 -1.02526 -3.31194 0
M  V30 3777 C 364.319 -2.20796 -3.68168 0
M  V30 3778 C 363.552 -1.97073 -4.95982 0
M  V30 3779 O 363.775 -0.926822 -5.6282 0
M  V30 3780 O 362.709 -2.83912 -5.30733 0
M  V30 3781 H 366.535 -2.23537 -2.05584 0
M  V30 3782 H 364.12 -1.14307 -0.961989 0
M  V30 3783 H 366.002 -0.904026 -4.11589 0
M  V30 3784 H 364.677 -0.0945389 -3.23562 0
M  V30 3785 H 363.584 -2.38477 -2.88235 0
M  V30 3786 H 364.917 -3.12243 -3.8048 0
M  V30 3787 N 366.569 1.04691 -1.17803 0
M  V30 3788 C 367.818 1.77176 -0.963931 0
M  V30 3789 C 368.131 1.88888 0.508015 0
M  V30 3790 O 369.337 2.58164 0.840465 0
M  V30 3791 C 367.793 3.18518 -1.67555 0
M  V30 3792 C 367.401 3.14919 -3.18637 0
M  V30 3793 C 369.145 3.95424 -1.54402 0
M  V30 3794 C 367.052 4.51081 -3.82466 0
M  V30 3795 H 365.982 0.664116 -0.357023 0
M  V30 3796 H 368.633 1.17303 -1.4111 0
M  V30 3797 H 367.015 3.78748 -1.15613 0
M  V30 3798 H 368.189 2.64178 -3.77554 0
M  V30 3799 H 366.504 2.51512 -3.31859 0
M  V30 3800 H 369.101 4.96106 -1.99456 0
M  V30 3801 H 369.444 4.13343 -0.495329 0
M  V30 3802 H 369.977 3.41754 -2.0359 0
M  V30 3803 H 366.716 4.38368 -4.87354 0
M  V30 3804 H 366.236 5.01951 -3.28337 0
M  V30 3805 H 367.915 5.2001 -3.84965 0
M  V30 3806 N 368.047 0.979072 1.23499 0
M  V30 3807 C 369.463 0.687475 1.44034 0
M  V30 3808 C 369.663 -0.746801 1.8715 0
M  V30 3809 O 368.719 -1.51939 2.0167 0
M  V30 3810 C 370.032 1.68127 2.49307 0
M  V30 3811 C 371.58 1.69516 2.63122 0
M  V30 3812 C 372.055 2.67723 3.71603 0
M  V30 3813 N 373.546 2.66233 3.79044 0
M  V30 3814 C 374.281 3.38891 4.62537 0
M  V30 3815 N 373.777 4.21103 5.50131 0
M  V30 3816 N 375.57 3.27661 4.56721 0
M  V30 3817 H 367.721 1.90559 0.938135 0
M  V30 3818 H 369.984 0.821051 0.473897 0
M  V30 3819 H 369.69 2.70693 2.2454 0
M  V30 3820 H 369.564 1.46306 3.4767 0
M  V30 3821 H 371.951 0.676561 2.8724 0
M  V30 3822 H 372.032 1.95404 1.65079 0
M  V30 3823 H 371.676 3.69724 3.48233 0
M  V30 3824 H 371.606 2.39111 4.69184 0
M  V30 3825 H 374.097 2.06568 3.16446 0
M  V30 3826 H 374.41 4.73403 6.10827 0
M  V30 3827 H 372.755 4.25195 5.49759 0
M  V30 3828 H 375.946 2.62887 3.87309 0
M  V30 3829 H 376.119 3.84547 5.21562 0
M  V30 3830 N 369.525 -1.3858 0.750561 0
M  V30 3831 C 370.457 -2.29057 0.0810714 0
M  V30 3832 C 371.47 -1.47596 -0.686973 0
M  V30 3833 O 372.659 -1.70495 -0.528563 0
M  V30 3834 C 369.759 -3.26475 -0.909247 0
M  V30 3835 C 368.932 -4.36945 -0.199478 0
M  V30 3836 C 367.991 -5.14572 -1.10011 0
M  V30 3837 O 367.017 -5.66321 -0.57177 0
M  V30 3838 N 368.219 -5.27262 -2.42849 0
M  V30 3839 H 370.984 -2.87153 0.858087 0
M  V30 3840 H 368.545 -1.50328 0.60109 0
M  V30 3841 H 370.537 -3.75285 -1.51471 0
M  V30 3842 H 369.107 -2.69298 -1.58736 0
M  V30 3843 H 368.327 -3.8981 0.586664 0
M  V30 3844 H 369.615 -5.07963 0.291783 0
M  V30 3845 H 369.013 -4.86763 -2.88233 0
M  V30 3846 H 367.57 -5.79456 -2.98453 0
M  V30 3847 N 371.003 -0.499398 -1.49478 0
M  V30 3848 C 372.251 0.0455996 -2.02049 0
M  V30 3849 C 372.572 1.37633 -1.38138 0
M  V30 3850 O 371.842 1.8842 -0.536166 0
M  V30 3851 H 370.422 0.0198416 -0.746736 0
M  V30 3852 H 373.084 -0.656274 -1.83519 0
M  V30 3853 H 372.18 0.176445 -3.11601 0
M  V30 3854 N 372.481 1.55866 -0.233164 0
M  V30 3855 C 373.411 2.23783 0.666599 0
M  V30 3856 C 374.392 1.21343 1.19205 0
M  V30 3857 O 375.577 1.4996 1.23392 0
M  V30 3858 C 372.707 2.92671 1.86978 0
M  V30 3859 C 371.661 4.01682 1.47768 0
M  V30 3860 C 370.987 4.57926 2.76058 0
M  V30 3861 C 372.287 5.18126 0.658993 0
M  V30 3862 H 373.981 2.99232 0.100306 0
M  V30 3863 H 371.527 1.43924 0.046804 0
M  V30 3864 H 373.48 3.3888 2.50476 0
M  V30 3865 H 372.204 2.14688 2.46123 0
M  V30 3866 H 370.863 3.56222 0.866106 0
M  V30 3867 H 370.511 3.76659 3.33372 0
M  V30 3868 H 370.211 5.31505 2.50552 0
M  V30 3869 H 371.735 5.06859 3.40479 0
M  V30 3870 H 373.149 5.60644 1.19795 0
M  V30 3871 H 371.546 5.98009 0.500552 0
M  V30 3872 H 372.616 4.83763 -0.331856 0
M  V30 3873 N 373.959 -0.0401083 1.57549 0
M  V30 3874 C 374.891 -1.07149 2.02612 0
M  V30 3875 C 375.904 -1.33126 0.937085 0
M  V30 3876 O 377.093 -1.30808 1.21456 0
M  V30 3877 C 374.193 -2.41561 2.37701 0
M  V30 3878 C 373.366 -2.35096 3.68848 0
M  V30 3879 C 372.425 -3.51867 3.91249 0
M  V30 3880 O 371.451 -3.3186 4.62447 0
M  V30 3881 N 372.653 -4.73351 3.36035 0
M  V30 3882 H 375.418 -0.687485 2.91708 0
M  V30 3883 H 372.979 -0.228248 1.60283 0
M  V30 3884 H 374.971 -3.18379 2.49833 0
M  V30 3885 H 373.541 -2.71846 1.54332 0
M  V30 3886 H 372.761 -1.4345 3.67173 0
M  V30 3887 H 374.049 -2.27908 4.54901 0
M  V30 3888 H 373.447 -4.92507 2.78304 0
M  V30 3889 H 372.004 -5.47572 3.53565 0
M  V30 3890 N 375.437 -1.54477 -0.31217 0
M  V30 3891 C 376.853 -1.45442 -0.657185 0
M  V30 3892 C 377.053 -0.63653 -1.91182 0
M  V30 3893 O 376.109 -0.139815 -2.52113 0
M  V30 3894 C 377.422 -2.89287 -0.82058 0
M  V30 3895 C 378.97 -2.9926 -0.917188 0
M  V30 3896 C 379.445 -4.44279 -1.11267 0
M  V30 3897 N 380.936 -4.4794 -1.17914 0
M  V30 3898 C 381.671 -5.57318 -1.34848 0
M  V30 3899 N 381.167 -6.76642 -1.48752 0
M  V30 3900 N 382.96 -5.44986 -1.37647 0
M  V30 3901 H 375.111 -2.06129 0.512313 0
M  V30 3902 H 377.374 -0.933088 0.167485 0
M  V30 3903 H 377.08 -3.51687 0.0302604 0
M  V30 3904 H 376.954 -3.36061 -1.71298 0
M  V30 3905 H 379.341 -2.36981 -1.75852 0
M  V30 3906 H 379.422 -2.558 -0.00101257 0
M  V30 3907 H 379.066 -5.07149 -0.27614 0
M  V30 3908 H 378.996 -4.85359 -2.04289 0
M  V30 3909 H 381.487 -3.61969 -1.08567 0
M  V30 3910 H 381.8 -7.55758 -1.61397 0
M  V30 3911 H 380.145 -6.79529 -1.45828 0
M  V30 3912 H 383.336 -4.50715 -1.26388 0
M  V30 3913 H 383.509 -6.3028 -1.50501 0
M  V30 3914 N 376.915 0.57481 -1.46744 0
M  V30 3915 C 377.845 1.69337 -1.60771 0
M  V30 3916 C 378.826 1.63825 -0.457736 0
M  V30 3917 O 380.011 1.8172 -0.684947 0
M  V30 3918 C 377.141 3.0798 -1.60517 0
M  V30 3919 C 376.095 3.28327 -2.74564 0
M  V30 3920 C 375.421 4.67578 -2.59373 0
M  V30 3921 C 376.721 3.15398 -4.16319 0
M  V30 3922 H 378.415 1.57853 -2.54407 0
M  V30 3923 H 375.961 0.75799 -1.22436 0
M  V30 3924 H 377.914 3.86061 -1.68923 0
M  V30 3925 H 376.638 3.20381 -0.634305 0
M  V30 3926 H 375.297 2.52649 -2.65639 0
M  V30 3927 H 374.945 4.76755 -1.60353 0
M  V30 3928 H 374.645 4.82144 -3.35873 0
M  V30 3929 H 376.169 5.47817 -2.69682 0
M  V30 3930 H 377.583 3.83315 -4.26313 0
M  V30 3931 H 375.98 3.41482 -4.93468 0
M  V30 3932 H 377.05 2.12372 -4.3592 0
M  V30 3933 N 378.394 1.34581 0.820102 0
M  V30 3934 C 379.304 1.28471 1.96297 0
M  V30 3935 C 380.32 0.191902 1.72939 0
M  V30 3936 O 381.496 0.418879 1.96996 0
M  V30 3937 C 378.561 1.04281 3.30645 0
M  V30 3938 C 377.622 2.22745 3.66992 0
M  V30 3939 C 376.855 1.997 4.9493 0
M  V30 3940 O 377.078 0.956656 5.6232 0
M  V30 3941 O 376.012 2.86723 5.2922 0
M  V30 3942 H 379.838 2.24624 2.04396 0
M  V30 3943 H 377.423 1.14816 0.955913 0
M  V30 3944 H 379.305 0.925841 4.11104 0
M  V30 3945 H 377.98 0.111697 3.23507 0
M  V30 3946 H 376.887 2.40003 2.86966 0
M  V30 3947 H 378.22 3.14257 3.78819 0
M  V30 3948 N 379.872 -1.04064 1.18357 0
M  V30 3949 C 380.835 -2.10243 0.912707 0
M  V30 3950 C 381.835 -1.60477 -0.101928 0
M  V30 3951 O 383.025 -1.73703 0.131517 0
M  V30 3952 C 380.157 -3.38893 0.369387 0
M  V30 3953 H 381.35 -2.35706 1.85426 0
M  V30 3954 H 378.903 -1.20489 0.995594 0
M  V30 3955 H 379.638 -3.19094 -0.578776 0
M  V30 3956 H 379.423 -3.76331 1.1008 0
M  V30 3957 H 380.913 -4.17128 0.198575 0
M  V30 3958 N 381.35 -0.985608 -1.22978 0
M  V30 3959 C 382.298 -0.522631 -2.26652 0
M  V30 3960 C 383.292 0.422998 -1.64034 0
M  V30 3961 O 384.498 0.296319 -1.77544 0
M  V30 3962 H 380.873 -0.150597 -0.736766 0
M  V30 3963 H 382.844 -1.40863 -2.63059 0
M  V30 3964 C 381.593 0.154238 -3.47358 0
M  V30 3965 H 380.916 -0.564329 -3.95797 0
M  V30 3966 H 382.356 0.441744 -4.21693 0
M  V30 3967 C 380.815 1.38719 -3.07016 0
M  V30 3968 O 381.345 2.48307 -3.15764 0
M  V30 3969 N 379.551 1.25975 -2.61875 0
M  V30 3970 H 379.098 0.368068 -2.54957 0
M  V30 3971 H 379.056 2.08578 -2.3525 0
M  V30 3972 N 382.828 1.3818 -0.7579 0
M  V30 3973 C 384.239 1.82726 -0.383134 0
M  V30 3974 C 384.59 1.63214 1.08884 0
M  V30 3975 O 383.715 1.13566 1.84205 0
M  V30 3976 C 384.31 3.31728 -0.688631 0
M  V30 3977 C 382.869 3.74606 -0.367091 0
M  V30 3978 C 382.016 2.60896 -0.939599 0
M  V30 3979 H 384.967 1.26847 -0.953699 0
M  V30 3980 H 384.988 3.80487 0.0316492 0
M  V30 3981 H 384.5 3.45898 -1.76001 0
M  V30 3982 H 382.601 3.66013 0.697532 0
M  V30 3983 H 382.714 4.71215 -0.865658 0
M  V30 3984 H 381.078 2.52075 -0.3647 0
M  V30 3985 H 381.861 2.77864 -2.0161 0
M  V30 3986 N 384.306 0.507319 1.49211 0
M  V30 3987 C 385.554 -0.0348839 2.0207 0
M  V30 3988 C 385.875 -1.36898 1.38866 0
M  V30 3989 O 385.145 -1.88133 0.546151 0
M  V30 3990 H 383.725 -0.0158812 0.746831 0
M  V30 3991 H 386.387 0.665998 1.83168 0
M  V30 3992 H 385.483 -0.159917 3.1169 0
M  V30 3993 N 385.784 -1.5574 0.241426 0
M  V30 3994 C 386.714 -2.24133 -0.654722 0
M  V30 3995 C 387.695 -1.21974 -1.1856 0
M  V30 3996 O 388.88 -1.50612 -1.22595 0
M  V30 3997 C 386.01 -2.93659 -1.85423 0
M  V30 3998 C 384.964 -4.0246 -1.45636 0
M  V30 3999 C 384.29 -4.59383 -2.73626 0
M  V30 4000 C 385.59 -5.18468 -0.631506 0
M  V30 4001 H 387.284 -2.99281 -0.0844353 0
M  V30 4002 H 384.83 -1.43947 -0.0391707 0
M  V30 4003 H 386.783 -3.40203 -2.48676 0
M  V30 4004 H 385.507 -2.15991 -2.44981 0
M  V30 4005 H 384.166 -3.56676 -0.847202 0
M  V30 4006 H 383.814 -3.78422 -3.3137 0
M  V30 4007 H 383.514 -5.32826 -2.4773 0
M  V30 4008 H 385.038 -5.08658 -3.37786 0
M  V30 4009 H 386.452 -5.61272 -1.1682 0
M  V30 4010 H 384.849 -5.98266 -0.468831 0
M  V30 4011 H 385.919 -4.8358 0.357506 0
M  V30 4012 N 387.262 0.0317525 -1.57568 0
M  V30 4013 C 388.209 1.0332 -2.06382 0
M  V30 4014 C 389.179 1.36082 -0.952414 0
M  V30 4015 O 390.364 1.46466 -1.2228 0
M  V30 4016 C 387.504 2.32989 -2.54578 0
M  V30 4017 C 386.617 2.0641 -3.79498 0
M  V30 4018 C 385.752 3.2993 -4.16317 0
M  V30 4019 C 384.791 2.98893 -5.34162 0
M  V30 4020 N 383.928 4.14857 -5.66426 0
M  V30 4021 H 388.768 0.609982 -2.9169 0
M  V30 4022 H 386.305 0.289573 -1.44222 0
M  V30 4023 H 388.263 3.0875 -2.80587 0
M  V30 4024 H 386.893 2.73039 -1.7219 0
M  V30 4025 H 385.945 1.21158 -3.6059 0
M  V30 4026 H 387.257 1.79513 -4.65378 0
M  V30 4027 H 386.411 4.1406 -4.4344 0
M  V30 4028 H 385.15 3.59938 -3.29083 0
M  V30 4029 H 384.155 2.13164 -5.06795 0
M  V30 4030 H 385.38 2.70165 -6.23047 0
M  V30 4031 H 383.326 4.44821 -4.82151 0
M  V30 4032 H 383.243 3.91374 -6.4681 0
M  V30 4033 H 384.511 4.99868 -5.98124 0
M  V30 4034 N 388.74 1.54641 0.303973 0
M  V30 4035 C 389.65 1.88439 1.39743 0
M  V30 4036 C 390.666 0.778239 1.55626 0
M  V30 4037 O 391.842 1.07442 1.70347 0
M  V30 4038 C 388.907 2.12212 2.74166 0
M  V30 4039 C 387.968 3.35936 2.67293 0
M  V30 4040 C 387.201 3.58566 3.95305 0
M  V30 4041 O 387.424 2.84263 4.9452 0
M  V30 4042 O 386.358 4.52078 3.97378 0
M  V30 4043 H 390.184 2.81458 1.14083 0
M  V30 4044 H 387.769 1.40793 0.499768 0
M  V30 4045 H 389.651 2.29067 3.53704 0
M  V30 4046 H 388.326 1.22379 2.99675 0
M  V30 4047 H 387.233 3.24448 1.86237 0
M  V30 4048 H 388.566 4.2589 2.46736 0
M  V30 4049 N 390.218 -0.567019 1.47046 0
M  V30 4050 C 391.443 -1.3551 1.57009 0
M  V30 4051 C 391.868 -1.86841 0.217259 0
M  V30 4052 O 391.226 -1.62435 -0.805268 0
M  V30 4053 C 391.274 -2.50777 2.5912 0
M  V30 4054 O 390.378 -3.52706 2.13711 0
M  V30 4055 H 389.719 -0.402919 0.52778 0
M  V30 4056 H 392.249 -0.686241 1.92748 0
M  V30 4057 H 392.259 -2.97481 2.79229 0
M  V30 4058 H 390.934 -2.12771 3.57353 0
M  V30 4059 H 389.511 -3.12374 2.03659 0
M  V30 4060 N 391.696 -1.35014 -0.812953 0
M  V30 4061 C 392.921 -1.31187 -1.60639 0
M  V30 4062 C 393.346 0.109382 -1.87782 0
M  V30 4063 O 392.704 1.07424 -1.46047 0
M  V30 4064 C 392.752 -2.11809 -2.91838 0
M  V30 4065 O 391.856 -1.49444 -3.8437 0
M  V30 4066 H 391.197 -0.450084 -0.488181 0
M  V30 4067 H 393.727 -1.77963 -1.00947 0
M  V30 4068 H 393.737 -2.23531 -3.41318 0
M  V30 4069 H 392.412 -3.15137 -2.71407 0
M  V30 4070 H 390.989 -1.46524 -3.42907 0
M  V30 4071 N 393.175 1.03435 -1.18907 0
M  V30 4072 C 394.122 2.11591 -0.921837 0
M  V30 4073 C 395.092 1.65499 0.141226 0
M  V30 4074 O 396.277 1.908 0.000242829 0
M  V30 4075 C 393.417 3.42012 -0.460616 0
M  V30 4076 C 392.53 4.01682 -1.58982 0
M  V30 4077 C 391.665 5.20091 -1.08069 0
M  V30 4078 C 390.704 5.71805 -2.18416 0
M  V30 4079 N 389.841 6.81494 -1.68849 0
M  V30 4080 H 394.681 2.33787 -1.8479 0
M  V30 4081 H 392.218 1.1467 -0.921373 0
M  V30 4082 H 394.176 4.16834 -0.174642 0
M  V30 4083 H 392.806 3.19944 0.428467 0
M  V30 4084 H 391.858 3.24127 -1.99113 0
M  V30 4085 H 393.17 4.36084 -2.4214 0
M  V30 4086 H 392.324 6.02051 -0.749615 0
M  V30 4087 H 391.063 4.87209 -0.218771 0
M  V30 4088 H 390.068 4.88461 -2.5236 0
M  V30 4089 H 391.293 6.06728 -3.05054 0
M  V30 4090 H 389.239 6.50475 -0.849572 0
M  V30 4091 H 389.156 7.14994 -2.45601 0
M  V30 4092 H 390.424 7.67063 -1.38689 0
M  V30 4093 N 394.653 0.992116 1.22453 0
M  V30 4094 C 395.6 0.541731 2.24352 0
M  V30 4095 C 396.57 -0.425519 1.60557 0
M  V30 4096 O 397.755 -0.330453 1.87917 0
M  V30 4097 C 394.895 -0.138248 3.44823 0
M  V30 4098 C 394.008 0.870649 4.23136 0
M  V30 4099 C 393.143 0.164269 5.30946 0
M  V30 4100 C 392.182 1.16159 6.00977 0
M  V30 4101 N 391.319 0.483568 7.00433 0
M  V30 4102 H 396.159 1.41541 2.62241 0
M  V30 4103 H 393.696 0.709013 1.28885 0
M  V30 4104 H 395.654 -0.5494 4.13567 0
M  V30 4105 H 394.284 -0.975721 3.077 0
M  V30 4106 H 393.336 1.40013 3.53696 0
M  V30 4107 H 394.648 1.63014 4.7141 0
M  V30 4108 H 393.802 -0.303653 6.0594 0
M  V30 4109 H 392.541 -0.627733 4.83643 0
M  V30 4110 H 391.546 1.64015 5.24766 0
M  V30 4111 H 392.771 1.95445 6.50368 0
M  V30 4112 H 390.717 -0.289012 6.55363 0
M  V30 4113 H 390.634 1.18152 7.4671 0
M  V30 4114 H 391.902 0.0384219 7.79491 0
M  V30 4115 N 396.131 -1.37776 0.765217 0
M  V30 4116 C 397.542 -1.82521 0.392819 0
M  V30 4117 C 397.893 -1.63789 -1.08017 0
M  V30 4118 O 397.018 -1.14542 -1.83601 0
M  V30 4119 C 397.613 -3.31358 0.706214 0
M  V30 4120 C 396.172 -3.74406 0.386952 0
M  V30 4121 C 395.319 -2.60394 0.953422 0
M  V30 4122 H 398.27 -1.2634 0.960412 0
M  V30 4123 H 398.291 -3.80498 -0.0114706 0
M  V30 4124 H 397.803 -3.44959 1.77833 0
M  V30 4125 H 395.904 -3.66377 -0.678112 0
M  V30 4126 H 396.017 -4.70749 0.890636 0
M  V30 4127 H 394.381 -2.51878 0.378064 0
M  V30 4128 H 395.164 -2.76791 2.03081 0
M  V30 4129 N 397.609 -0.515225 -1.4894 0
M  V30 4130 C 398.539 0.244628 -2.32215 0
M  V30 4131 C 399.52 0.949136 -1.41157 0
M  V30 4132 O 400.705 0.937783 -1.70057 0
M  V30 4133 C 397.835 1.30096 -3.22013 0
M  V30 4134 C 396.789 0.715486 -4.21977 0
M  V30 4135 C 396.115 1.87339 -5.00808 0
M  V30 4136 C 397.415 -0.302982 -5.2142 0
M  V30 4137 H 399.109 -0.450501 -2.95991 0
M  V30 4138 H 396.655 -0.218098 -1.42339 0
M  V30 4139 H 398.608 1.84037 -3.79089 0
M  V30 4140 H 397.332 2.02547 -2.56207 0
M  V30 4141 H 395.991 0.197715 -3.66066 0
M  V30 4142 H 395.639 2.58592 -4.31438 0
M  V30 4143 H 395.339 1.48764 -5.68457 0
M  V30 4144 H 396.863 2.41686 -5.60732 0
M  V30 4145 H 398.277 0.148802 -5.73107 0
M  V30 4146 H 396.674 -0.60532 -5.97039 0
M  V30 4147 H 397.744 -1.21395 -4.69459 0
M  V30 4148 N 399.087 1.5561 -0.249682 0
M  V30 4149 C 400.312 2.03865 0.381305 0
M  V30 4150 C 400.737 1.12769 1.50548 0
M  V30 4151 O 400.095 0.121189 1.80895 0
M  V30 4152 C 400.143 3.50101 0.863816 0
M  V30 4153 O 399.247 3.62132 1.97318 0
M  V30 4154 H 398.588 0.658827 0.0827194 0
M  V30 4155 H 401.118 2.01105 -0.376552 0
M  V30 4156 H 401.128 3.90975 1.1663 0
M  V30 4157 H 399.803 4.1588 0.0411816 0
M  V30 4158 H 398.38 3.33155 1.67517 0
M  V30 4159 O 400.604 0.114399 1.61094 0
M  V30 4160 H 401.295 -0.485048 1.87529 0
M  V30 END ATOM
M  V30 BEGIN BOND
M  V30 END BOND
M  V30 END CTAB
M  END
$$$$
