drugbank_target|P20810 Calpastatin (DB01373; DB11638)
 OpenBabel12092119423D

  0  0  0     0  0            999 V3000
M  V30 BEGIN CTAB
M  V30 COUNTS 10678 10764 0 0 0
M  V30 BEGIN ATOM
M  V30 1 H -0.908 1.98254 -0.117106 0
M  V30 2 N 0 1.576 0 0
M  V30 3 C 0.933 2.03868 1.02534 0
M  V30 4 C 1.911 0.928543 1.3348 0
M  V30 5 O 3.095 1.19667 1.45644 0
M  V30 6 C 0.222 2.43627 2.35294 0
M  V30 7 C -0.732 3.65373 2.2001 0
M  V30 8 S 0.101 5.13292 1.52614 0
M  V30 9 C 1.257 5.56322 2.86805 0
M  V30 10 H 1.49 2.90518 0.631377 0
M  V30 11 H -0.977 1.52953 0.210867 0
M  V30 12 H 0.981 2.67203 3.11629 0
M  V30 13 H -0.358 1.57376 2.7183 0
M  V30 14 H -1.165 3.90944 3.18086 0
M  V30 15 H -1.563 3.418 1.51819 0
M  V30 16 H 0.729 5.58782 3.83104 0
M  V30 17 H 1.672 6.56266 2.65933 0
M  V30 18 H 2.08 4.83886 2.90714 0
M  V30 19 N 1.4781 -0.272755 1.55222 0
M  V30 20 C 2.4261 -1.35705 1.88909 0
M  V30 21 C 3.4201 -1.5112 0.765456 0
M  V30 22 O 4.6261 -1.52901 0.949802 0
M  V30 23 H 1.0011 -0.453868 0.59959 0
M  V30 24 H 2.9721 -1.04544 2.79487 0
M  V30 25 C 1.7211 -2.71049 2.17779 0
M  V30 26 H 1.0441 -2.59979 3.03728 0
M  V30 27 H 2.4841 -3.45858 2.45272 0
M  V30 28 C 0.9431 -3.22165 0.985473 0
M  V30 29 O 1.4731 -4.01096 0.220233 0
M  V30 30 N -0.3209 -2.7985 0.783108 0
M  V30 31 H -0.7739 -2.15775 1.40708 0
M  V30 32 H -0.8159 -3.14397 -0.0130392 0
M  V30 33 N 2.9562 -1.48159 -0.537278 0
M  V30 34 C 4.3672 -1.49429 -1.11928 0
M  V30 35 C 4.7182 -0.26 -1.9447 0
M  V30 36 O 3.8432 0.633489 -2.0692 0
M  V30 37 C 4.4382 -2.70758 -2.03656 0
M  V30 38 C 2.9972 -2.74923 -2.57088 0
M  V30 39 C 2.1442 -2.42835 -1.3389 0
M  V30 40 H 5.0952 -1.55381 -0.322886 0
M  V30 41 H 5.1162 -2.48861 -2.87834 0
M  V30 42 H 4.6282 -3.60575 -1.43553 0
M  V30 43 H 2.7292 -1.89296 -3.20933 0
M  V30 44 H 2.8422 -3.76157 -2.9672 0
M  V30 45 H 1.2062 -1.93836 -1.65226 0
M  V30 46 H 1.9892 -3.34884 -0.755504 0
M  V30 47 N 4.4343 0.785586 -1.36625 0
M  V30 48 C 5.6623 1.57448 -1.3423 0
M  V30 49 C 6.0773 1.88649 0.0755653 0
M  V30 50 O 5.4343 1.50414 1.03354 0
M  V30 51 C 5.4853 2.89316 -2.16745 0
M  V30 52 O 5.2063 2.59459 -3.53005 0
M  V30 53 C 6.7073 3.83606 -2.22174 0
M  V30 54 H 3.9273 0.488226 -0.4603 0
M  V30 55 H 6.4713 0.974733 -1.79775 0
M  V30 56 H 4.6263 3.4575 -1.74745 0
M  V30 57 H 5.0403 3.43804 -3.96105 0
M  V30 58 H 6.5143 4.73181 -2.8426 0
M  V30 59 H 6.9913 4.21734 -1.22627 0
M  V30 60 H 7.5973 3.33104 -2.64427 0
M  V30 61 N 5.9124 1.20967 1.01018 0
M  V30 62 C 6.8224 0.980157 2.13143 0
M  V30 63 C 7.8384 -0.0660665 1.73875 0
M  V30 64 O 9.0144 0.122821 2.01025 0
M  V30 65 C 6.0794 0.54216 3.42435 0
M  V30 66 C 5.1404 1.65999 3.95908 0
M  V30 67 C 4.3734 1.2428 5.19028 0
M  V30 68 O 4.5964 0.114196 5.70286 0
M  V30 69 O 3.5304 2.05271 5.65816 0
M  V30 70 H 7.3564 1.91913 2.35379 0
M  V30 71 H 4.9414 0.994099 1.11526 0
M  V30 72 H 6.8234 0.30744 4.20277 0
M  V30 73 H 5.4984 -0.36815 3.216 0
M  V30 74 H 4.4054 1.94906 3.19316 0
M  V30 75 H 5.7384 2.54753 4.21143 0
M  V30 76 N 7.3905 -1.2043 1.01659 0
M  V30 77 C 8.6185 -1.93777 0.725132 0
M  V30 78 C 9.0335 -1.74772 -0.714166 0
M  V30 79 O 8.3905 -1.06169 -1.4844 0
M  V30 80 C 8.4415 -3.45876 1.05129 0
M  V30 81 O 8.1625 -3.6426 2.43406 0
M  V30 82 C 9.6635 -4.36368 0.780891 0
M  V30 83 H 6.8835 -0.615901 0.266284 0
M  V30 84 H 9.4275 -1.52922 1.35776 0
M  V30 85 H 7.5825 -3.8461 0.464065 0
M  V30 86 H 7.9965 -4.58246 2.55169 0
M  V30 87 H 9.4705 -5.41743 1.05918 0
M  V30 88 H 9.9475 -4.38275 -0.284937 0
M  V30 89 H 10.5535 -4.03296 1.35027 0
M  V30 90 N 8.8686 -0.792821 -1.36206 0
M  V30 91 C 9.8156 -0.191653 -2.30003 0
M  V30 92 C 10.7856 0.666453 -1.52143 0
M  V30 93 O 11.9706 0.61442 -1.80636 0
M  V30 94 C 9.1106 0.664848 -3.38635 0
M  V30 95 C 8.2236 -0.212175 -4.31479 0
M  V30 96 C 7.3586 0.651022 -5.27196 0
M  V30 97 C 6.3976 -0.227247 -6.11678 0
M  V30 98 N 5.5346 0.595127 -6.99573 0
M  V30 99 H 10.3746 -0.996978 -2.80828 0
M  V30 100 H 7.9116 -0.503206 -1.38225 0
M  V30 101 H 9.8696 1.17645 -4.00269 0
M  V30 102 H 8.4996 1.43557 -2.89122 0
M  V30 103 H 7.5516 -0.841777 -3.70969 0
M  V30 104 H 8.8636 -0.888751 -4.90818 0
M  V30 105 H 8.0176 1.2283 -5.94136 0
M  V30 106 H 6.7566 1.36121 -4.68319 0
M  V30 107 H 5.7616 -0.816904 -5.43697 0
M  V30 108 H 6.9866 -0.93509 -6.72631 0
M  V30 109 H 4.9326 1.28955 -6.432 0
M  V30 110 H 4.8496 -0.0236952 -7.55996 0
M  V30 111 H 6.1176 1.15613 -7.70879 0
M  V30 112 N 10.3467 1.47872 -0.545128 0
M  V30 113 C 11.3097 2.28337 0.198717 0
M  V30 114 C 12.3097 1.36255 0.853888 0
M  V30 115 O 13.4997 1.59003 0.711606 0
M  V30 116 C 10.6317 3.15585 1.28915 0
M  V30 117 H 11.8247 2.95567 -0.507941 0
M  V30 118 H 9.3777 1.53362 -0.301616 0
M  V30 119 H 10.1127 2.53019 2.02859 0
M  V30 120 H 9.8977 3.83337 0.824309 0
M  V30 121 H 11.3877 3.76243 1.81194 0
M  V30 122 N 11.8248 0.280983 1.55075 0
M  V30 123 C 13.0738 -0.334784 1.98902 0
M  V30 124 C 13.3868 -1.56534 1.17288 0
M  V30 125 O 14.5928 -2.25443 1.51287 0
M  V30 126 C 13.0488 -0.646994 3.54037 0
M  V30 127 C 12.6568 0.564085 4.44435 0
M  V30 128 C 14.4008 -1.22506 4.06439 0
M  V30 129 C 12.3078 0.226137 5.90967 0
M  V30 130 H 11.2378 -0.128866 0.742906 0
M  V30 131 H 13.8888 0.386556 1.79382 0
M  V30 132 H 12.2708 -1.42739 3.6938 0
M  V30 133 H 13.4448 1.34082 4.40861 0
M  V30 134 H 11.7598 1.0594 4.02698 0
M  V30 135 H 14.3568 -1.49182 5.13468 0
M  V30 136 H 14.6998 -2.16085 3.55827 0
M  V30 137 H 15.2328 -0.50682 3.94558 0
M  V30 138 H 11.9718 1.12996 6.45687 0
M  V30 139 H 11.4918 -0.513717 5.97596 0
M  V30 140 H 13.1708 -0.179539 6.46751 0
M  V30 141 N 13.3029 -1.57598 0.00835791 0
M  V30 142 C 14.7139 -1.7892 -0.53333 0
M  V30 143 C 15.0649 -0.916609 -1.73473 0
M  V30 144 O 14.1899 -0.121336 -2.1606 0
M  V30 145 C 14.7849 -3.24488 -0.974313 0
M  V30 146 C 13.3439 -3.46878 -1.46125 0
M  V30 147 C 12.4909 -2.74157 -0.416302 0
M  V30 148 H 15.4419 -1.56958 0.234495 0
M  V30 149 H 15.4629 -3.3306 -1.83988 0
M  V30 150 H 14.9749 -3.87972 -0.099718 0
M  V30 151 H 13.0759 -2.8862 -2.35646 0
M  V30 152 H 13.1889 -4.55572 -1.48295 0
M  V30 153 H 11.5529 -2.39022 -0.87981 0
M  V30 154 H 12.3359 -3.40345 0.44947 0
M  V30 155 N 14.781 0.264519 -1.55364 0
M  V30 156 C 16.027 0.99646 -1.76631 0
M  V30 157 C 16.36 1.85632 -0.570478 0
M  V30 158 O 15.635 1.89647 0.43175 0
M  V30 159 C 15.918 1.87187 -3.07625 0
M  V30 160 C 15.771 1.04138 -4.37579 0
M  V30 161 C 17.09 2.85749 -3.34717 0
M  V30 162 H 14.209 0.360841 -0.642622 0
M  V30 163 H 16.851 0.268218 -1.88097 0
M  V30 164 H 15.001 2.49279 -2.9798 0
M  V30 165 H 16.673 0.440517 -4.59192 0
M  V30 166 H 14.916 0.345115 -4.32425 0
M  V30 167 H 15.587 1.68729 -5.2558 0
M  V30 168 H 18.063 2.33793 -3.4421 0
M  V30 169 H 16.939 3.44136 -4.27623 0
M  V30 170 H 17.2 3.61311 -2.54768 0
M  V30 171 N 16.2591 1.48442 0.529413 0
M  V30 172 C 17.4841 1.60406 1.31471 0
M  V30 173 C 17.9091 0.264738 1.86228 0
M  V30 174 O 17.2671 -0.763668 1.64432 0
M  V30 175 C 17.3151 2.65419 2.44101 0
M  V30 176 O 16.4191 2.22618 3.47153 0
M  V30 177 H 15.7601 0.537863 0.389357 0
M  V30 178 H 18.2901 1.94432 0.636965 0
M  V30 179 H 18.3001 2.86709 2.90279 0
M  V30 180 H 16.9751 3.62652 2.03608 0
M  V30 181 H 15.5521 2.11543 3.0709 0
M  V30 182 N 17.7372 -0.778329 1.37039 0
M  V30 183 C 18.6692 -1.90034 1.2814 0
M  V30 184 C 19.6822 -1.61585 0.198558 0
M  V30 185 O 20.8712 -1.72625 0.454175 0
M  V30 186 C 17.9712 -3.25108 0.956968 0
M  V30 187 C 17.1442 -3.81253 2.14394 0
M  V30 188 C 16.2032 -4.94789 1.79082 0
M  V30 189 O 15.2292 -5.10721 2.51301 0
M  V30 190 N 16.4312 -5.75878 0.731043 0
M  V30 191 H 19.1962 -1.98186 2.24816 0
M  V30 192 H 16.7572 -0.957129 1.30578 0
M  V30 193 H 18.7492 -3.9857 0.701701 0
M  V30 194 H 17.3192 -3.125 0.0789812 0
M  V30 195 H 16.5392 -2.99647 2.56135 0
M  V30 196 H 17.8272 -4.15495 2.93668 0
M  V30 197 H 17.2252 -5.65547 0.131618 0
M  V30 198 H 15.7822 -6.49596 0.535622 0
M  V30 199 N 19.2153 -1.21501 -1.00376 0
M  V30 200 C 20.1473 -0.933174 -2.09343 0
M  V30 201 C 21.1603 0.0840896 -1.62583 0
M  V30 202 O 22.3493 -0.148563 -1.77881 0
M  V30 203 C 19.4493 -0.379869 -3.36764 0
M  V30 204 C 18.6223 -1.45176 -4.12605 0
M  V30 205 C 17.6813 -0.907476 -5.18316 0
M  V30 206 O 16.7073 -1.5912 -5.46507 0
M  V30 207 N 17.9093 0.276649 -5.7984 0
M  V30 208 H 20.6743 -1.87124 -2.34104 0
M  V30 209 H 18.2353 -1.12043 -1.16867 0
M  V30 210 H 20.2273 -0.00131488 -4.047 0
M  V30 211 H 18.7973 0.463048 -3.09151 0
M  V30 212 H 18.0173 -2.00411 -3.39454 0
M  V30 213 H 19.3053 -2.17328 -4.6005 0
M  V30 214 H 18.7033 0.849147 -5.59291 0
M  V30 215 H 17.2603 0.596702 -6.49063 0
M  V30 216 N 20.6934 1.19889 -1.02296 0
M  V30 217 C 21.6264 2.21639 -0.543282 0
M  V30 218 C 22.6044 1.57275 0.412698 0
M  V30 219 O 23.7884 1.85568 0.331198 0
M  V30 220 C 20.9154 3.38057 0.208571 0
M  V30 221 C 19.9614 4.20751 -0.697933 0
M  V30 222 S 20.7944 4.89529 -2.17075 0
M  V30 223 C 21.9504 6.09363 -1.42923 0
M  V30 224 H 22.1834 2.61984 -1.40541 0
M  V30 225 H 19.7164 1.30041 -0.832387 0
M  V30 226 H 21.6744 4.05539 0.63624 0
M  V30 227 H 20.3354 2.96159 1.04635 0
M  V30 228 H 19.5284 5.03862 -0.117831 0
M  V30 229 H 19.1304 3.58556 -1.06366 0
M  V30 230 H 21.4224 6.73742 -0.712637 0
M  V30 231 H 22.3654 6.71845 -2.23673 0
M  V30 232 H 22.7734 5.56798 -0.929327 0
M  V30 233 N 22.1715 0.800033 1.35784 0
M  V30 234 C 23.0815 0.207204 2.33683 0
M  V30 235 C 24.0975 -0.64631 1.61551 0
M  V30 236 O 25.2735 -0.559604 1.93469 0
M  V30 237 C 22.3385 -0.639659 3.40748 0
M  V30 238 C 21.3995 0.233585 4.28664 0
M  V30 239 C 20.6325 -0.572954 5.30616 0
M  V30 240 O 20.8555 -1.80816 5.40982 0
M  V30 241 O 19.7895 0.0327285 6.01891 0
M  V30 242 H 23.6155 1.01692 2.86169 0
M  V30 243 H 21.2005 0.561691 1.38439 0
M  V30 244 H 23.0825 -1.12223 4.06182 0
M  V30 245 H 21.7575 -1.42708 2.90544 0
M  V30 246 H 20.6645 0.763147 3.66233 0
M  V30 247 H 21.9975 0.984784 4.82248 0
M  V30 248 N 23.6496 -1.47581 0.552962 0
M  V30 249 C 24.8976 -2.02082 0.0272703 0
M  V30 250 C 25.2186 -1.4301 -1.32563 0
M  V30 251 O 24.4886 -0.603745 -1.86365 0
M  V30 252 H 23.0686 -0.746966 0.00709182 0
M  V30 253 H 25.7306 -1.81033 0.722008 0
M  V30 254 H 24.8266 -3.12034 -0.0639951 0
M  V30 255 N 25.1277 -0.289203 -1.54924 0
M  V30 256 C 26.5387 0.205791 -1.85562 0
M  V30 257 C 26.8897 1.54351 -1.2112 0
M  V30 258 O 26.0147 2.10435 -0.504601 0
M  V30 259 C 26.6097 0.380177 -3.3666 0
M  V30 260 C 25.1687 0.819395 -3.67373 0
M  V30 261 C 24.3157 -0.079159 -2.77187 0
M  V30 262 H 27.2667 -0.510577 -1.50262 0
M  V30 263 H 27.2877 1.21659 -3.60526 0
M  V30 264 H 26.7997 -0.593589 -3.83534 0
M  V30 265 H 24.9007 1.80413 -3.26009 0
M  V30 266 H 25.0137 0.646957 -4.74712 0
M  V30 267 H 23.3777 0.439565 -2.50878 0
M  V30 268 H 24.1607 -1.04906 -3.26878 0
M  V30 269 N 26.6058 1.57591 -0.0167156 0
M  V30 270 C 27.5558 2.05953 0.978137 0
M  V30 271 C 28.5398 0.957532 1.29306 0
M  V30 272 O 29.7318 1.22119 1.28125 0
M  V30 273 C 26.8608 2.58006 2.26468 0
M  V30 274 C 25.9468 3.75113 1.97867 0
M  V30 275 N 26.3378 4.86187 1.39486 0
M  V30 276 C 24.6358 3.83363 2.27924 0
M  V30 277 C 25.3368 5.67502 1.27735 0
M  V30 278 N 24.3128 5.14023 1.76866 0
M  V30 279 H 28.1148 2.89236 0.521522 0
M  V30 280 H 25.6288 1.61301 0.188596 0
M  V30 281 H 27.6258 2.90937 2.98599 0
M  V30 282 H 26.2858 1.76148 2.72767 0
M  V30 283 H 27.2968 5.06695 1.07147 0
M  V30 284 H 23.9738 3.1239 2.76982 0
M  V30 285 H 25.3638 6.66791 0.826978 0
M  V30 286 N 28.0839 -0.256276 1.55502 0
M  V30 287 C 29.0139 -1.32102 1.92539 0
M  V30 288 C 29.9949 -1.50684 0.789194 0
M  V30 289 O 31.1799 -1.63449 1.04872 0
M  V30 290 C 28.3099 -2.67752 2.21192 0
M  V30 291 C 27.2639 -2.63878 3.36975 0
M  V30 292 C 26.5899 -4.03236 3.51147 0
M  V30 293 C 27.8899 -2.21682 4.72921 0
M  V30 294 H 29.5839 -1.01351 2.81724 0
M  V30 295 H 27.1299 -0.486105 1.35547 0
M  V30 296 H 29.0829 -3.42365 2.45691 0
M  V30 297 H 27.8069 -3.0012 1.28824 0
M  V30 298 H 26.4659 -1.91722 3.12471 0
M  V30 299 H 26.1139 -4.32854 2.56216 0
M  V30 300 H 25.8139 -4.01535 4.29003 0
M  V30 301 H 27.3379 -4.79563 3.77957 0
M  V30 302 H 28.7519 -2.86023 4.96854 0
M  V30 303 H 27.1489 -2.3111 5.53812 0
M  V30 304 H 28.2189 -1.16833 4.70615 0
M  V30 305 N 29.562 -1.4872 -0.521534 0
M  V30 306 C 30.973 -1.50607 -1.10337 0
M  V30 307 C 31.324 -0.280612 -1.94183 0
M  V30 308 O 30.449 0.611507 -2.0758 0
M  V30 309 C 31.044 -2.72903 -2.00772 0
M  V30 310 C 29.603 -2.77634 -2.54158 0
M  V30 311 C 28.75 -2.44241 -1.31307 0
M  V30 312 H 31.701 -1.55714 -0.306388 0
M  V30 313 H 31.722 -2.519 -2.85178 0
M  V30 314 H 31.234 -3.62077 -1.39721 0
M  V30 315 H 29.335 -1.92689 -3.18907 0
M  V30 316 H 29.448 -3.79283 -2.92714 0
M  V30 317 H 27.812 -1.95577 -1.63161 0
M  V30 318 H 28.595 -3.35666 -0.719943 0
M  V30 319 N 31.0401 0.771051 -1.3745 0
M  V30 320 C 31.9881 1.90574 -1.33358 0
M  V30 321 C 32.9821 1.67936 -0.22224 0
M  V30 322 O 34.1881 1.75717 -0.390304 0
M  V30 323 H 30.5631 0.626714 -0.415612 0
M  V30 324 H 32.5341 1.91142 -2.29144 0
M  V30 325 C 31.2831 3.27845 -1.15813 0
M  V30 326 H 30.6061 3.45842 -2.00583 0
M  V30 327 H 32.0461 4.07538 -1.17 0
M  V30 328 C 30.5051 3.36625 0.136165 0
M  V30 329 O 31.0351 3.85785 1.11949 0
M  V30 330 N 29.2411 2.89997 0.187099 0
M  V30 331 H 28.7881 2.50182 -0.613753 0
M  V30 332 H 28.7461 2.96252 1.05272 0
M  V30 333 N 32.5182 1.22032 0.997298 0
M  V30 334 C 33.4652 0.986467 2.08656 0
M  V30 335 C 34.4352 -0.0902671 1.65855 0
M  V30 336 O 35.6202 0.0584294 1.90711 0
M  V30 337 C 32.7602 0.565569 3.40434 0
M  V30 338 C 31.8732 1.71259 3.96604 0
M  V30 339 C 31.0082 1.24011 5.16522 0
M  V30 340 C 30.0472 2.35896 5.64818 0
M  V30 341 N 29.1842 1.89726 6.7598 0
M  V30 342 H 34.0242 1.91892 2.27994 0
M  V30 343 H 31.5612 0.956199 1.11782 0
M  V30 344 H 33.5192 0.302738 4.161 0
M  V30 345 H 32.1492 -0.329879 3.2111 0
M  V30 346 H 31.2012 2.08986 3.17851 0
M  V30 347 H 32.5132 2.55436 4.28432 0
M  V30 348 H 31.6672 0.934395 5.99461 0
M  V30 349 H 30.4062 0.368487 4.86306 0
M  V30 350 H 29.4112 2.67261 4.8047 0
M  V30 351 H 30.6362 3.23567 5.97061 0
M  V30 352 H 28.5822 1.0492 6.47555 0
M  V30 353 H 28.4992 2.67471 7.07103 0
M  V30 354 H 29.7672 1.62211 7.62435 0
M  V30 355 N 33.9963 -1.19345 1.0293 0
M  V30 356 C 34.9433 -2.2258 0.610464 0
M  V30 357 C 35.9133 -1.6179 -0.375946 0
M  V30 358 O 37.0983 -1.88844 -0.272511 0
M  V30 359 C 34.2383 -3.45085 -0.0321473 0
M  V30 360 C 33.3513 -4.20258 1.00035 0
M  V30 361 C 32.4863 -5.3019 0.32746 0
M  V30 362 C 31.5253 -5.97121 1.34584 0
M  V30 363 N 30.6623 -6.98615 0.698726 0
M  V30 364 H 35.5023 -2.57764 1.49538 0
M  V30 365 H 33.0393 -1.26644 0.748311 0
M  V30 366 H 34.9973 -4.15061 -0.421966 0
M  V30 367 H 33.6273 -3.10555 -0.88064 0
M  V30 368 H 32.6793 -3.49223 1.50823 0
M  V30 369 H 33.9913 -4.66175 1.77433 0
M  V30 370 H 33.1453 -6.06587 -0.11718 0
M  V30 371 H 31.8843 -4.85345 -0.478713 0
M  V30 372 H 30.8893 -5.19474 1.80074 0
M  V30 373 H 32.1143 -6.4405 2.15352 0
M  V30 374 H 30.0603 -6.55942 -0.0873471 0
M  V30 375 H 29.9773 -7.42724 1.41058 0
M  V30 376 H 31.2453 -7.79004 0.278102 0
M  V30 377 N 35.4744 -0.807222 -1.35358 0
M  V30 378 C 36.4214 -0.216037 -2.29787 0
M  V30 379 C 37.3914 0.650278 -1.52842 0
M  V30 380 O 38.5764 0.595227 -1.81278 0
M  V30 381 C 35.7164 0.628893 -3.39321 0
M  V30 382 C 34.8294 -0.257927 -4.31229 0
M  V30 383 C 33.9644 0.595069 -5.27856 0
M  V30 384 C 33.0034 -0.292111 -6.11403 0
M  V30 385 N 32.1404 0.520895 -7.00165 0
M  V30 386 H 36.9804 -1.02671 -2.79755 0
M  V30 387 H 34.5174 -0.517839 -1.37684 0
M  V30 388 H 36.4754 1.13393 -4.01494 0
M  V30 389 H 35.1054 1.40482 -2.90628 0
M  V30 390 H 34.1574 -0.881076 -3.70056 0
M  V30 391 H 35.4694 -0.940759 -4.89848 0
M  V30 392 H 34.6234 1.16522 -5.95405 0
M  V30 393 H 33.3624 1.31146 -4.69736 0
M  V30 394 H 32.3674 -0.874525 -5.428 0
M  V30 395 H 33.5924 -1.00638 -6.71602 0
M  V30 396 H 31.5384 1.22125 -6.44532 0
M  V30 397 H 31.4554 -0.103877 -7.55929 0
M  V30 398 H 32.7234 1.0743 -7.72062 0
M  V30 399 N 36.9525 1.47285 -0.560781 0
M  V30 400 C 37.9025 2.27073 0.205384 0
M  V30 401 C 38.8865 1.34569 0.882044 0
M  V30 402 O 40.0785 1.58899 0.77976 0
M  V30 403 C 37.2075 3.20414 1.23247 0
M  V30 404 C 36.2935 4.20399 0.559041 0
M  V30 405 N 36.6845 5.04423 -0.372927 0
M  V30 406 C 34.9825 4.38536 0.812522 0
M  V30 407 C 35.6835 5.76655 -0.764446 0
M  V30 408 N 34.6595 5.43471 -0.11848 0
M  V30 409 H 38.4615 2.89422 -0.511117 0
M  V30 410 H 35.9755 1.57868 -0.380975 0
M  V30 411 H 37.9725 3.76262 1.79534 0
M  V30 412 H 36.6325 2.59623 1.95002 0
M  V30 413 H 37.6435 5.1248 -0.747287 0
M  V30 414 H 34.3205 3.88913 1.51832 0
M  V30 415 H 35.7105 6.54238 -1.53045 0
M  V30 416 N 38.4306 0.297415 1.54768 0
M  V30 417 C 39.3776 -0.580276 2.23386 0
M  V30 418 C 40.3476 -1.13238 1.21517 0
M  V30 419 O 41.5326 -1.17757 1.50126 0
M  V30 420 C 38.6726 -1.74801 2.97555 0
M  V30 421 C 37.7856 -1.22764 4.1419 0
M  V30 422 C 36.9206 -2.35895 4.75949 0
M  V30 423 C 35.9596 -1.80974 5.84735 0
M  V30 424 N 35.0966 -2.87664 6.40464 0
M  V30 425 H 39.9366 0.0114833 2.97998 0
M  V30 426 H 37.4736 0.0174361 1.4709 0
M  V30 427 H 39.4316 -2.43475 3.38786 0
M  V30 428 H 38.0616 -2.31145 2.25326 0
M  V30 429 H 37.1136 -0.433271 3.77924 0
M  V30 430 H 38.4256 -0.785551 4.92575 0
M  V30 431 H 37.5796 -3.12523 5.20014 0
M  V30 432 H 36.3186 -2.83429 3.96887 0
M  V30 433 H 35.3236 -1.02834 5.40097 0
M  V30 434 H 36.5486 -1.34348 6.65678 0
M  V30 435 H 34.4946 -3.34538 5.64287 0
M  V30 436 H 34.4116 -2.4794 7.14186 0
M  V30 437 H 35.6796 -3.642 6.89187 0
M  V30 438 N 39.9087 -1.5758 0.0250728 0
M  V30 439 C 40.8557 -2.09973 -0.958129 0
M  V30 440 C 41.8257 -1.00085 -1.3256 0
M  V30 441 O 43.0107 -1.27481 -1.41962 0
M  V30 442 C 40.1507 -2.62812 -2.2366 0
M  V30 443 C 39.2637 -3.86693 -1.92594 0
M  V30 444 C 38.3987 -4.27941 -3.14707 0
M  V30 445 C 37.4377 -5.44591 -2.79442 0
M  V30 446 N 36.5747 -5.81014 -3.94167 0
M  V30 447 H 41.4147 -2.937 -0.504428 0
M  V30 448 H 38.9517 -1.45172 -0.237392 0
M  V30 449 H 40.9097 -2.91536 -2.98434 0
M  V30 450 H 39.5397 -1.81922 -2.66654 0
M  V30 451 H 38.5917 -3.64723 -1.0808 0
M  V30 452 H 39.9037 -4.71547 -1.62619 0
M  V30 453 H 39.0577 -4.58079 -3.97804 0
M  V30 454 H 37.7967 -3.41845 -3.4784 0
M  V30 455 H 36.8017 -5.1415 -1.94755 0
M  V30 456 H 38.0267 -6.32382 -2.47528 0
M  V30 457 H 35.9727 -4.97874 -4.2715 0
M  V30 458 H 35.8897 -6.60498 -3.67801 0
M  V30 459 H 37.1577 -6.15756 -4.7798 0
M  V30 460 N 41.3868 0.248026 -1.55636 0
M  V30 461 C 42.3188 1.32993 -1.8667 0
M  V30 462 C 43.3318 1.44345 -0.752877 0
M  V30 463 O 44.5208 1.45715 -1.03098 0
M  V30 464 C 41.6208 2.70863 -2.03682 0
M  V30 465 C 40.7938 2.81792 -3.34532 0
M  V30 466 C 39.8528 4.005 -3.41301 0
M  V30 467 O 38.8788 3.9008 -4.14519 0
M  V30 468 N 40.0808 5.13618 -2.70512 0
M  V30 469 H 42.8458 1.06707 -2.8006 0
M  V30 470 H 40.4068 0.438129 -1.55859 0
M  V30 471 H 42.3988 3.48612 -2.05553 0
M  V30 472 H 40.9688 2.89862 -1.17041 0
M  V30 473 H 40.1888 1.90729 -3.44987 0
M  V30 474 H 41.4768 2.86043 -4.20781 0
M  V30 475 H 40.8748 5.24975 -2.10755 0
M  V30 476 H 39.4318 5.89505 -2.78077 0
M  V30 477 N 42.8649 1.48995 0.513639 0
M  V30 478 C 43.8279 1.64229 1.59879 0
M  V30 479 C 44.8279 0.514696 1.5234 0
M  V30 480 O 46.0179 0.78087 1.55718 0
M  V30 481 C 43.1499 1.62783 2.99524 0
M  V30 482 H 44.3429 2.61004 1.47705 0
M  V30 483 H 41.8959 1.37837 0.736936 0
M  V30 484 H 42.6309 0.675461 3.17188 0
M  V30 485 H 42.4159 2.4466 3.06404 0
M  V30 486 H 43.9059 1.76669 3.78388 0
M  V30 487 N 44.343 -0.763751 1.37857 0
M  V30 488 C 45.589 -1.52483 1.33704 0
M  V30 489 C 45.922 -1.94051 -0.0759612 0
M  V30 490 O 45.197 -1.64675 -1.03501 0
M  V30 491 C 45.48 -2.78441 2.28348 0
M  V30 492 C 45.333 -2.43075 3.78463 0
M  V30 493 C 46.652 -3.80415 2.21298 0
M  V30 494 H 43.771 -0.553169 0.487005 0
M  V30 495 H 46.413 -0.875562 1.68624 0
M  V30 496 H 44.563 -3.33842 1.987 0
M  V30 497 H 46.235 -1.93527 4.18742 0
M  V30 498 H 44.478 -1.75666 3.96641 0
M  V30 499 H 45.149 -3.33149 4.40132 0
M  V30 500 H 47.625 -3.34527 2.47449 0
M  V30 501 H 46.501 -4.66257 2.89647 0
M  V30 502 H 46.762 -4.25262 1.20849 0
M  V30 503 N 45.8211 -1.22559 -0.990812 0
M  V30 504 C 46.7681 -0.997519 -2.0813 0
M  V30 505 C 47.7381 0.0814702 -1.659 0
M  V30 506 O 48.9231 -0.0685424 -1.90677 0
M  V30 507 C 46.0631 -0.583615 -3.40129 0
M  V30 508 C 45.1761 -1.7336 -3.9569 0
M  V30 509 C 44.3111 -1.26748 -5.15857 0
M  V30 510 C 43.3501 -2.38888 -5.63559 0
M  V30 511 N 42.4871 -1.93308 -6.74964 0
M  V30 512 H 47.3271 -1.93099 -2.26973 0
M  V30 513 H 44.8641 -0.962114 -1.11273 0
M  V30 514 H 46.8221 -0.324801 -4.15934 0
M  V30 515 H 45.4521 0.312845 -3.2128 0
M  V30 516 H 44.5041 -2.10669 -3.16738 0
M  V30 517 H 45.8161 -2.57704 -4.27071 0
M  V30 518 H 44.9701 -0.966173 -5.98957 0
M  V30 519 H 43.7091 -0.394272 -4.86104 0
M  V30 520 H 42.7141 -2.69805 -4.79046 0
M  V30 521 H 43.9391 -3.26728 -5.95336 0
M  V30 522 H 41.8851 -1.08352 -6.4699 0
M  V30 523 H 41.8021 -2.71217 -7.05675 0
M  V30 524 H 43.0701 -1.66252 -7.61564 0
M  V30 525 N 47.2992 1.18797 -1.03562 0
M  V30 526 C 48.5272 1.92599 -0.755869 0
M  V30 527 C 48.9422 1.75886 0.686271 0
M  V30 528 O 48.2992 1.08517 1.46732 0
M  V30 529 C 48.3502 3.44159 -1.10619 0
M  V30 530 O 48.0712 3.60341 -2.4917 0
M  V30 531 C 49.5722 4.3507 -0.850214 0
M  V30 532 H 46.7922 0.611587 -0.276048 0
M  V30 533 H 49.3362 1.50742 -1.38192 0
M  V30 534 H 47.4912 3.83823 -0.525194 0
M  V30 535 H 47.9052 4.54128 -2.62427 0
M  V30 536 H 49.3792 5.39989 -1.14523 0
M  V30 537 H 49.8562 4.38673 0.215176 0
M  V30 538 H 50.4622 4.01097 -1.41426 0
M  V30 539 N 48.7773 0.814389 1.34928 0
M  V30 540 C 49.6873 0.231978 2.3345 0
M  V30 541 C 50.7033 -0.629139 1.62228 0
M  V30 542 O 51.8793 -0.539052 1.94052 0
M  V30 543 C 48.9443 -0.603482 3.41407 0
M  V30 544 C 48.0053 0.279037 4.28392 0
M  V30 545 C 47.2383 -0.516643 5.31193 0
M  V30 546 O 47.4613 -1.75068 5.4287 0
M  V30 547 O 46.3953 0.0965652 6.01823 0
M  V30 548 H 50.2213 1.04721 2.85074 0
M  V30 549 H 47.8063 0.576343 1.37836 0
M  V30 550 H 49.6883 -1.07908 4.0735 0
M  V30 551 H 48.3633 -1.39618 2.92042 0
M  V30 552 H 47.2703 0.801948 3.65403 0
M  V30 553 H 48.6033 1.03588 4.81176 0
M  V30 554 N 50.2554 -1.46986 0.568584 0
M  V30 555 C 51.6664 -1.86188 0.138219 0
M  V30 556 C 52.0174 -1.47388 -1.29504 0
M  V30 557 O 51.1424 -0.88219 -1.97602 0
M  V30 558 C 51.7374 -3.3792 0.244065 0
M  V30 559 C 50.2964 -3.76171 -0.131335 0
M  V30 560 C 49.4434 -2.71027 0.586465 0
M  V30 561 H 52.3944 -1.38342 0.777645 0
M  V30 562 H 52.4154 -3.76729 -0.534351 0
M  V30 563 H 51.9274 -3.66128 1.28731 0
M  V30 564 H 50.0284 -3.5358 -1.17526 0
M  V30 565 H 50.1414 -4.78523 0.235146 0
M  V30 566 H 48.5054 -2.54684 0.0282722 0
M  V30 567 H 49.2884 -3.02077 1.63109 0
M  V30 568 N 51.7335 -0.305618 -1.54608 0
M  V30 569 C 52.6435 0.57778 -2.27374 0
M  V30 570 C 53.6595 1.14451 -1.31061 0
M  V30 571 O 54.8355 1.16831 -1.6405 0
M  V30 572 C 51.9005 1.73123 -3.00382 0
M  V30 573 C 50.9615 1.19812 -4.12242 0
M  V30 574 C 50.1945 2.2966 -4.81759 0
M  V30 575 O 50.4175 3.49651 -4.50666 0
M  V30 576 O 49.3515 1.96091 -5.69062 0
M  V30 577 H 53.1775 -0.012624 -3.03697 0
M  V30 578 H 50.7625 -0.0719184 -1.49227 0
M  V30 579 H 52.6445 2.40315 -3.4616 0
M  V30 580 H 51.3195 2.30815 -2.26949 0
M  V30 581 H 50.2265 0.491798 -3.70853 0
M  V30 582 H 51.5595 0.666566 -4.87666 0
M  V30 583 N 53.2116 1.57565 -0.0334293 0
M  V30 584 C 54.1586 2.10478 0.946981 0
M  V30 585 C 55.1286 1.00787 1.32027 0
M  V30 586 O 56.3136 1.28232 1.41284 0
M  V30 587 C 53.4536 2.63994 2.22263 0
M  V30 588 C 52.5666 3.87709 1.90541 0
M  V30 589 C 51.7016 4.29604 3.12433 0
M  V30 590 C 50.7406 5.46065 2.76549 0
M  V30 591 N 49.8776 5.83096 3.9108 0
M  V30 592 H 54.7176 2.93963 0.488846 0
M  V30 593 H 52.2546 1.45296 0.22969 0
M  V30 594 H 54.2126 2.93114 2.96884 0
M  V30 595 H 52.8426 1.83333 2.65685 0
M  V30 596 H 51.8946 3.65291 1.06144 0
M  V30 597 H 53.2066 4.72403 1.60116 0
M  V30 598 H 52.3606 4.60182 3.9537 0
M  V30 599 H 51.0996 3.43685 3.46023 0
M  V30 600 H 50.1046 5.15176 1.92026 0
M  V30 601 H 51.3296 6.33685 2.44171 0
M  V30 602 H 49.2756 5.00132 4.24504 0
M  V30 603 H 49.1926 6.6244 3.64293 0
M  V30 604 H 50.4606 6.18282 4.74708 0
M  V30 605 N 54.6897 -0.239769 1.55765 0
M  V30 606 C 55.6367 -1.29696 1.90913 0
M  V30 607 C 56.6067 -1.47478 0.764164 0
M  V30 608 O 57.7917 -1.61345 1.01845 0
M  V30 609 C 54.9317 -2.64598 2.21544 0
M  V30 610 C 54.0447 -2.54765 3.48882 0
M  V30 611 C 53.1797 -3.82069 3.69049 0
M  V30 612 C 52.2187 -3.66883 4.89963 0
M  V30 613 N 51.3557 -4.86094 5.06614 0
M  V30 614 H 56.1957 -0.990224 2.81067 0
M  V30 615 H 53.7327 -0.477684 1.39128 0
M  V30 616 H 55.6907 -3.43132 2.3731 0
M  V30 617 H 54.3207 -2.93405 1.34585 0
M  V30 618 H 53.3727 -1.67763 3.41409 0
M  V30 619 H 54.6847 -2.39457 4.37563 0
M  V30 620 H 53.8387 -4.69046 3.84812 0
M  V30 621 H 52.5777 -4.00282 2.78614 0
M  V30 622 H 51.5827 -2.78289 4.74168 0
M  V30 623 H 52.8077 -3.50157 5.81865 0
M  V30 624 H 50.7537 -5.04655 4.19117 0
M  V30 625 H 50.6707 -4.73443 5.89396 0
M  V30 626 H 51.9387 -5.74549 5.26795 0
M  V30 627 N 56.1678 -1.49265 -0.50573 0
M  V30 628 C 57.3928 -1.62478 -1.28902 0
M  V30 629 C 57.8178 -0.294332 -1.85783 0
M  V30 630 O 57.1758 0.737412 -1.65626 0
M  V30 631 C 57.2238 -2.69268 -2.39848 0
M  V30 632 O 56.3278 -2.28113 -3.43567 0
M  V30 633 H 55.6688 -0.54399 -0.380751 0
M  V30 634 H 58.1988 -1.95421 -0.605952 0
M  V30 635 H 58.2088 -2.91291 -2.85681 0
M  V30 636 H 56.8838 -3.65846 -1.97812 0
M  V30 637 H 55.4608 -2.16401 -3.03685 0
M  V30 638 N 57.6459 0.756429 -1.3826 0
M  V30 639 C 58.5779 1.87971 -1.31147 0
M  V30 640 C 59.5909 1.61248 -0.224239 0
M  V30 641 O 60.7799 1.71881 -0.481581 0
M  V30 642 C 57.8799 3.23545 -1.00857 0
M  V30 643 C 57.0529 3.77794 -2.20432 0
M  V30 644 C 56.1119 4.91877 -1.86931 0
M  V30 645 O 55.1379 5.06659 -2.59395 0
M  V30 646 N 56.3399 5.74643 -0.822568 0
M  V30 647 H 59.1049 1.94585 -2.2794 0
M  V30 648 H 56.6659 0.936234 -1.32084 0
M  V30 649 H 58.6579 3.97403 -0.765021 0
M  V30 650 H 57.2279 3.12335 -0.128687 0
M  V30 651 H 56.4479 2.95534 -2.6087 0
M  V30 652 H 57.7359 4.10771 -3.00241 0
M  V30 653 H 57.1339 5.65266 -0.221575 0
M  V30 654 H 55.6909 6.48661 -0.638899 0
M  V30 655 N 59.124 1.23083 0.984299 0
M  V30 656 C 60.349 1.088 1.76571 0
M  V30 657 C 60.774 -0.356657 1.84688 0
M  V30 658 O 60.132 -1.25788 1.30565 0
M  V30 659 C 60.18 1.71371 3.17277 0
M  V30 660 O 59.284 0.973213 4.00752 0
M  V30 661 H 58.625 0.381599 0.543395 0
M  V30 662 H 61.155 1.63057 1.23587 0
M  V30 663 H 61.165 1.76449 3.67872 0
M  V30 664 H 59.84 2.76493 3.10684 0
M  V30 665 H 58.417 0.999078 3.59267 0
M  V30 666 N 60.6021 -1.18246 1.0419 0
M  V30 667 C 61.8301 -1.92195 0.766072 0
M  V30 668 C 62.2451 -1.76247 -0.676933 0
M  V30 669 O 61.6021 -1.09293 -1.46155 0
M  V30 670 C 61.6531 -3.43568 1.12442 0
M  V30 671 O 61.3741 -3.59015 2.51078 0
M  V30 672 C 62.8751 -4.34613 0.873275 0
M  V30 673 H 60.0951 -0.610114 0.279288 0
M  V30 674 H 62.6391 -1.50007 1.38989 0
M  V30 675 H 60.7941 -3.8354 0.545542 0
M  V30 676 H 61.2081 -4.5273 2.64831 0
M  V30 677 H 62.6821 -5.39374 1.17385 0
M  V30 678 H 63.1591 -4.38781 -0.191909 0
M  V30 679 H 63.7651 -4.00341 1.43551 0
M  V30 680 N 62.0802 -0.821533 -1.34494 0
M  V30 681 C 63.0272 -0.240397 -2.29545 0
M  V30 682 C 63.9972 0.634031 -1.53523 0
M  V30 683 O 65.1822 0.575966 -1.81899 0
M  V30 684 C 62.3222 0.592869 -3.39969 0
M  V30 685 C 61.4352 -0.30365 -4.30932 0
M  V30 686 C 60.5702 0.539049 -5.28458 0
M  V30 687 C 59.6092 -0.356942 -6.11058 0
M  V30 688 N 58.7462 0.446603 -7.00678 0
M  V30 689 H 63.5862 -1.05632 -2.7865 0
M  V30 690 H 61.1232 -0.532413 -1.37127 0
M  V30 691 H 63.0812 1.09129 -4.02675 0
M  V30 692 H 61.7112 1.37392 -2.92102 0
M  V30 693 H 60.7632 -0.920276 -3.691 0
M  V30 694 H 62.0752 -0.992661 -4.88823 0
M  V30 695 H 61.2292 1.102 -5.96608 0
M  V30 696 H 59.9682 1.26157 -4.71101 0
M  V30 697 H 58.9732 -0.932047 -5.41842 0
M  V30 698 H 60.1982 -1.07755 -6.70497 0
M  V30 699 H 58.1442 1.15282 -6.45791 0
M  V30 700 H 58.0612 -0.184048 -7.55776 0
M  V30 701 H 59.3292 0.992352 -7.73158 0
M  V30 702 N 63.5583 1.46682 -0.576371 0
M  V30 703 C 64.4883 2.33028 0.148397 0
M  V30 704 C 65.4693 1.44961 0.889956 0
M  V30 705 O 66.6543 1.73789 0.866662 0
M  V30 706 C 63.7843 3.27117 1.1667 0
M  V30 707 C 62.7383 4.24575 0.540386 0
M  V30 708 C 62.0643 5.08126 1.6647 0
M  V30 709 C 63.3643 5.19722 -0.518331 0
M  V30 710 H 65.0583 2.93875 -0.572509 0
M  V30 711 H 62.6043 1.41315 -0.276768 0
M  V30 712 H 64.5573 3.86374 1.68204 0
M  V30 713 H 63.2813 2.64364 1.9178 0
M  V30 714 H 61.9403 3.66571 0.0461769 0
M  V30 715 H 61.5883 4.41762 2.40531 0
M  V30 716 H 61.2883 5.74122 1.25131 0
M  V30 717 H 62.8123 5.70246 2.18293 0
M  V30 718 H 64.2263 5.73232 -0.0883058 0
M  V30 719 H 62.6233 5.94026 -0.851679 0
M  V30 720 H 63.6933 4.64037 -1.40703 0
M  V30 721 N 65.0364 0.313813 1.54444 0
M  V30 722 C 66.2614 -0.296681 2.05267 0
M  V30 723 C 66.6864 -1.45757 1.18897 0
M  V30 724 O 66.0444 -1.80239 0.195886 0
M  V30 725 C 66.0924 -0.71831 3.53373 0
M  V30 726 O 65.1964 -1.82175 3.69981 0
M  V30 727 H 64.5374 -0.0554061 0.661684 0
M  V30 728 H 67.0674 0.459387 1.99376 0
M  V30 729 H 67.0774 -1.00364 3.95463 0
M  V30 730 H 65.7524 0.130821 4.15694 0
M  V30 731 H 64.3294 -1.53598 3.39797 0
M  V30 732 N 66.5145 -1.57545 0.0417849 0
M  V30 733 C 67.7605 -1.92601 -0.635021 0
M  V30 734 C 68.0935 -0.919627 -1.71045 0
M  V30 735 O 67.3685 0.0557892 -1.9442 0
M  V30 736 C 67.6515 -3.38085 -1.23979 0
M  V30 737 C 67.5045 -4.49467 -0.173057 0
M  V30 738 C 68.8235 -3.83776 -2.15416 0
M  V30 739 H 65.9425 -0.700397 -0.229374 0
M  V30 740 H 68.5845 -1.89728 0.101633 0
M  V30 741 H 66.7345 -3.40664 -1.86762 0
M  V30 742 H 68.4065 -4.59018 0.458312 0
M  V30 743 H 66.6495 -4.30909 0.499996 0
M  V30 744 H 67.3205 -5.48323 -0.636054 0
M  V30 745 H 69.7965 -3.83013 -1.62605 0
M  V30 746 H 68.6725 -4.8624 -2.54679 0
M  V30 747 H 68.9335 -3.19998 -3.05047 0
M  V30 748 N 67.9926 0.231505 -1.5589 0
M  V30 749 C 69.2386 0.95877 -1.78705 0
M  V30 750 C 69.5716 1.8438 -0.609725 0
M  V30 751 O 68.8466 1.90521 0.391426 0
M  V30 752 C 69.1296 1.8062 -3.11526 0
M  V30 753 C 68.9826 0.948328 -4.39689 0
M  V30 754 C 70.3016 2.78585 -3.40703 0
M  V30 755 H 67.4206 0.347129 -0.650131 0
M  V30 756 H 70.0626 0.228259 -1.88624 0
M  V30 757 H 68.2126 2.42902 -3.03201 0
M  V30 758 H 69.8846 0.343016 -4.60023 0
M  V30 759 H 68.1276 0.253314 -4.3306 0
M  V30 760 H 68.7986 1.57543 -5.29041 0
M  V30 761 H 71.2746 2.26439 -3.49091 0
M  V30 762 H 70.1506 3.34988 -4.34826 0
M  V30 763 H 70.4116 3.55825 -2.62375 0
M  V30 764 N 69.4707 1.49531 0.497807 0
M  V30 765 C 70.4207 1.62829 1.59596 0
M  V30 766 C 71.4047 0.483824 1.53453 0
M  V30 767 O 72.5967 0.736937 1.60929 0
M  V30 768 C 69.7257 1.7011 2.98191 0
M  V30 769 C 68.8117 2.90144 3.09317 0
M  V30 770 N 69.2027 4.1418 2.90324 0
M  V30 771 C 67.5007 2.88148 3.40422 0
M  V30 772 C 68.2017 4.94886 3.05717 0
M  V30 773 N 67.1777 4.28314 3.34736 0
M  V30 774 H 70.9797 2.56446 1.4357 0
M  V30 775 H 68.4937 1.46347 0.704001 0
M  V30 776 H 70.4907 1.77735 3.77115 0
M  V30 777 H 69.1507 0.776315 3.15283 0
M  V30 778 H 70.1617 4.44109 2.66436 0
M  V30 779 H 66.8387 2.05061 3.63671 0
M  V30 780 H 68.2287 6.03432 2.95499 0
M  V30 781 N 70.9488 -0.749086 1.3866 0
M  V30 782 C 71.8588 -1.89358 1.38494 0
M  V30 783 C 72.8748 -1.71708 0.281476 0
M  V30 784 O 74.0508 -1.94554 0.520643 0
M  V30 785 C 71.1158 -3.24782 1.21316 0
M  V30 786 C 70.1768 -3.54926 2.41508 0
M  V30 787 C 69.4098 -4.83888 2.2514 0
M  V30 788 O 69.6328 -5.56592 1.24746 0
M  V30 789 O 68.5668 -5.13612 3.13826 0
M  V30 790 H 72.3928 -1.92452 2.34938 0
M  V30 791 H 69.9778 -0.894981 1.19626 0
M  V30 792 H 71.8598 -4.05739 1.13814 0
M  V30 793 H 70.5348 -3.2249 0.279592 0
M  V30 794 H 69.4418 -2.74112 2.54585 0
M  V30 795 H 70.7748 -3.61983 3.3351 0
M  V30 796 N 72.4269 -1.23603 -0.977757 0
M  V30 797 C 73.3739 -1.01954 -2.07061 0
M  V30 798 C 74.3439 0.0638697 -1.65977 0
M  V30 799 O 75.5289 -0.0887624 -1.90593 0
M  V30 800 C 72.6689 -0.619658 -3.39491 0
M  V30 801 C 71.7819 -1.77547 -3.93829 0
M  V30 802 C 70.9169 -1.32212 -5.14484 0
M  V30 803 C 69.9559 -2.44852 -5.60994 0
M  V30 804 N 69.0929 -2.00456 -6.72876 0
M  V30 805 H 73.9329 -1.95495 -2.24913 0
M  V30 806 H 71.4699 -0.973861 -1.10247 0
M  V30 807 H 73.4279 -0.368898 -4.15566 0
M  V30 808 H 72.0579 0.278752 -3.21594 0
M  V30 809 H 71.1099 -2.14016 -3.14486 0
M  V30 810 H 72.4219 -2.62219 -4.24314 0
M  V30 811 H 71.5759 -1.02965 -5.97899 0
M  V30 812 H 70.3149 -0.445808 -4.85658 0
M  V30 813 H 69.3199 -2.74871 -4.76157 0
M  V30 814 H 70.5449 -3.33024 -5.91837 0
M  V30 815 H 68.4909 -1.15208 -6.45804 0
M  V30 816 H 68.4079 -2.78687 -7.02759 0
M  V30 817 H 69.6759 -1.7432 -7.59758 0
M  V30 818 N 73.905 1.17692 -1.04816 0
M  V30 819 C 74.852 2.21581 -0.645797 0
M  V30 820 C 75.822 1.62367 0.350159 0
M  V30 821 O 77.007 1.89254 0.242433 0
M  V30 822 C 74.147 3.45092 -0.0227568 0
M  V30 823 C 73.26 4.18613 -1.06709 0
M  V30 824 C 72.395 5.29602 -0.411767 0
M  V30 825 C 71.434 5.94904 -1.44067 0
M  V30 826 N 70.571 6.97414 -0.809781 0
M  V30 827 H 75.411 2.55353 -1.5362 0
M  V30 828 H 72.948 1.25438 -0.768364 0
M  V30 829 H 74.906 4.15679 0.35588 0
M  V30 830 H 73.536 3.11917 0.831122 0
M  V30 831 H 72.588 3.46779 -1.5636 0
M  V30 832 H 73.9 4.63293 -1.84827 0
M  V30 833 H 73.054 6.06696 0.0206623 0
M  V30 834 H 71.793 4.86045 0.401438 0
M  V30 835 H 70.798 5.16544 -1.88316 0
M  V30 836 H 72.023 6.40542 -2.25571 0
M  V30 837 H 69.969 6.55998 -0.0170186 0
M  V30 838 H 69.886 7.40386 -1.52856 0
M  V30 839 H 71.154 7.78463 -0.401999 0
M  V30 840 N 75.3831 0.828654 1.34056 0
M  V30 841 C 76.6081 0.431637 2.02859 0
M  V30 842 C 77.0331 -0.956339 1.61975 0
M  V30 843 O 76.3911 -1.62338 0.807228 0
M  V30 844 C 76.4391 0.548323 3.56407 0
M  V30 845 O 75.5431 -0.429556 4.10157 0
M  V30 846 H 74.8841 0.176886 0.640006 0
M  V30 847 H 77.4141 1.12066 1.71179 0
M  V30 848 H 77.4241 0.426196 4.05768 0
M  V30 849 H 76.0991 1.5606 3.8551 0
M  V30 850 H 74.6761 -0.265836 3.71951 0
M  V30 851 N 76.8612 -1.46375 0.584142 0
M  V30 852 C 77.7932 -2.28443 -0.186119 0
M  V30 853 C 78.8062 -1.38596 -0.854115 0
M  V30 854 O 79.9952 -1.63183 -0.723438 0
M  V30 855 C 77.0952 -3.13671 -1.28311 0
M  V30 856 C 76.2682 -4.31652 -0.706758 0
M  V30 857 C 75.3272 -4.98267 -1.69163 0
M  V30 858 O 74.3532 -5.55815 -1.22712 0
M  V30 859 N 75.5552 -4.95408 -3.02575 0
M  V30 860 H 78.3202 -2.9519 0.517986 0
M  V30 861 H 75.8812 -1.56303 0.42201 0
M  V30 862 H 77.8732 -3.55101 -1.94128 0
M  V30 863 H 76.4432 -2.48989 -1.89005 0
M  V30 864 H 75.6632 -3.93989 0.128908 0
M  V30 865 H 76.9512 -5.07906 -0.301506 0
M  V30 866 H 76.3492 -4.49902 -3.42936 0
M  V30 867 H 74.9062 -5.40774 -3.63877 0
M  V30 868 N 78.3393 -0.321999 -1.54275 0
M  V30 869 C 79.2493 0.553631 -2.27974 0
M  V30 870 C 80.2653 1.13054 -1.32268 0
M  V30 871 O 81.4413 1.15084 -1.6528 0
M  V30 872 C 78.5063 1.69927 -3.02201 0
M  V30 873 C 77.5673 1.15433 -4.1349 0
M  V30 874 C 76.8003 2.24537 -4.84168 0
M  V30 875 O 77.0233 3.44852 -4.5435 0
M  V30 876 O 75.9573 1.90044 -5.7111 0
M  V30 877 H 79.7833 -0.0448345 -3.03667 0
M  V30 878 H 77.3683 -0.0877418 -1.49142 0
M  V30 879 H 79.2503 2.3663 -3.48689 0
M  V30 880 H 77.9253 2.28395 -2.29385 0
M  V30 881 H 76.8323 0.452436 -3.71354 0
M  V30 882 H 78.1653 0.614805 -4.88345 0
M  V30 883 N 79.8174 1.5752 -0.0501392 0
M  V30 884 C 81.0654 1.9227 0.622642 0
M  V30 885 C 81.3864 0.929083 1.71444 0
M  V30 886 O 80.6564 -0.0262186 1.95882 0
M  V30 887 H 79.2364 0.709739 0.232981 0
M  V30 888 H 81.8984 1.94628 -0.102898 0
M  V30 889 H 80.9944 2.93479 1.06191 0
M  V30 890 N 81.2955 -0.223234 1.56011 0
M  V30 891 C 82.2425 -1.27664 1.92277 0
M  V30 892 C 83.2125 -1.46659 0.779763 0
M  V30 893 O 84.3975 -1.60256 1.03551 0
M  V30 894 C 81.5375 -2.62234 2.24338 0
M  V30 895 C 80.6505 -2.51051 3.51564 0
M  V30 896 C 79.7855 -3.78133 3.7308 0
M  V30 897 C 78.8245 -3.61665 4.93827 0
M  V30 898 N 77.9615 -4.80693 5.11741 0
M  V30 899 H 82.8015 -0.960358 2.82101 0
M  V30 900 H 80.3385 -0.462901 1.39627 0
M  V30 901 H 82.2965 -3.40596 2.40936 0
M  V30 902 H 80.9265 -2.91961 1.3769 0
M  V30 903 H 79.9785 -1.64132 3.43169 0
M  V30 904 H 81.2905 -2.34803 4.40079 0
M  V30 905 H 80.4445 -4.64938 3.89766 0
M  V30 906 H 79.1835 -3.97304 2.82844 0
M  V30 907 H 78.1885 -2.73244 4.77093 0
M  V30 908 H 79.4135 -3.43966 5.85546 0
M  V30 909 H 77.3595 -5.00181 4.24446 0
M  V30 910 H 77.2765 -4.67165 5.94384 0
M  V30 911 H 78.5445 -5.6893 5.3286 0
M  V30 912 N 82.7736 -1.49793 -0.48987 0
M  V30 913 C 84.1846 -1.52914 -1.07118 0
M  V30 914 C 84.5356 -0.321738 -1.93544 0
M  V30 915 O 83.6606 0.567338 -2.08831 0
M  V30 916 C 84.2556 -2.771 -1.94938 0
M  V30 917 C 82.8146 -2.82963 -2.48212 0
M  V30 918 C 81.9616 -2.46972 -1.26096 0
M  V30 919 H 84.9126 -1.56329 -0.273289 0
M  V30 920 H 84.9336 -2.57892 -2.79771 0
M  V30 921 H 84.4456 -3.64959 -1.32009 0
M  V30 922 H 82.5466 -1.99411 -3.14748 0
M  V30 923 H 82.6596 -3.85406 -2.84603 0
M  V30 924 H 81.0236 -1.98994 -1.58976 0
M  V30 925 H 81.8066 -3.37118 -0.648581 0
M  V30 926 N 84.2517 0.741722 -1.39055 0
M  V30 927 C 85.1987 1.85566 -1.37237 0
M  V30 928 C 86.1687 1.64457 -0.233072 0
M  V30 929 O 87.3537 1.85957 -0.427147 0
M  V30 930 C 84.4937 3.23004 -1.215 0
M  V30 931 C 83.6067 3.55864 -2.44918 0
M  V30 932 C 82.7417 4.82669 -2.21821 0
M  V30 933 C 81.7807 5.08351 -3.40948 0
M  V30 934 N 80.9177 6.26356 -3.17211 0
M  V30 935 H 85.7577 1.86455 -2.32462 0
M  V30 936 H 83.2947 0.911176 -1.15482 0
M  V30 937 H 85.2527 4.02331 -1.10389 0
M  V30 938 H 83.8827 3.21411 -0.29908 0
M  V30 939 H 82.9347 2.7129 -2.66657 0
M  V30 940 H 84.2467 3.70765 -3.33668 0
M  V30 941 H 83.4007 5.69962 -2.07914 0
M  V30 942 H 82.1397 4.69929 -1.30454 0
M  V30 943 H 81.1447 4.19522 -3.55361 0
M  V30 944 H 82.3697 5.22981 -4.33207 0
M  V30 945 H 80.3157 6.14917 -2.28502 0
M  V30 946 H 80.2327 6.41813 -3.99515 0
M  V30 947 H 81.5007 7.16506 -3.06984 0
M  V30 948 N 85.7298 1.2412 0.971189 0
M  V30 949 C 86.6398 1.04747 2.09917 0
M  V30 950 C 87.6558 -0.0107162 1.73997 0
M  V30 951 O 88.8318 0.186714 2.00533 0
M  V30 952 C 85.8968 0.650828 3.40537 0
M  V30 953 C 84.9578 1.7851 3.90426 0
M  V30 954 C 84.1908 1.40729 5.14812 0
M  V30 955 O 84.4138 0.29557 5.69634 0
M  V30 956 O 83.3478 2.23168 5.58999 0
M  V30 957 H 87.1738 1.99304 2.29154 0
M  V30 958 H 84.7588 1.02908 1.08307 0
M  V30 959 H 86.6408 0.440992 4.19086 0
M  V30 960 H 85.3158 -0.265649 3.22608 0
M  V30 961 H 84.2228 2.04966 3.12953 0
M  V30 962 H 85.5558 2.68023 4.12825 0
M  V30 963 N 87.2079 -1.17134 1.05439 0
M  V30 964 C 88.1579 -2.1919 0.627675 0
M  V30 965 C 89.1419 -1.57328 -0.337147 0
M  V30 966 O 90.3339 -1.76329 -0.153976 0
M  V30 967 C 87.4629 -3.43299 0.00651435 0
M  V30 968 C 86.5489 -4.12255 0.995312 0
M  V30 969 N 86.9399 -4.56997 2.16765 0
M  V30 970 C 85.2379 -4.38316 0.824336 0
M  V30 971 C 85.9389 -5.10239 2.7934 0
M  V30 972 N 84.9149 -5.02595 2.07122 0
M  V30 973 H 88.7169 -2.5149 1.52086 0
M  V30 974 H 86.2309 -1.33491 0.924868 0
M  V30 975 H 88.2279 -4.15693 -0.316965 0
M  V30 976 H 86.8879 -3.1249 -0.882033 0
M  V30 977 H 87.8989 -4.51006 2.54587 0
M  V30 978 H 84.5759 -4.17498 -0.0129526 0
M  V30 979 H 85.9659 -5.54961 3.78772 0
M  V30 980 N 88.686 -0.835752 -1.33615 0
M  V30 981 C 89.914 -0.443344 -2.02094 0
M  V30 982 C 90.329 0.954522 -1.62894 0
M  V30 983 O 89.686 1.61982 -0.840723 0
M  V30 984 C 89.737 -0.550775 -3.5728 0
M  V30 985 O 89.458 -1.89356 -3.95065 0
M  V30 986 C 90.959 -0.154919 -4.43029 0
M  V30 987 H 88.179 -0.176359 -0.647409 0
M  V30 988 H 90.723 -1.12746 -1.70612 0
M  V30 989 H 88.878 0.0853997 -3.87306 0
M  V30 990 H 89.292 -1.87687 -4.89769 0
M  V30 991 H 90.766 -0.281144 -5.51284 0
M  V30 992 H 91.243 0.902863 -4.2982 0
M  V30 993 H 91.849 -0.765404 -4.18356 0
M  V30 994 N 90.1641 1.46063 -0.591896 0
M  V30 995 C 91.0741 2.34192 0.13831 0
M  V30 996 C 92.0901 1.50305 0.876608 0
M  V30 997 O 93.2661 1.8315 0.837728 0
M  V30 998 C 90.3311 3.27656 1.13326 0
M  V30 999 C 89.3921 4.27445 0.39863 0
M  V30 1000 C 88.6251 5.16443 1.34618 0
M  V30 1001 O 88.8481 5.08553 2.58321 0
M  V30 1002 O 87.7821 5.95843 0.851768 0
M  V30 1003 H 91.6081 2.98002 -0.58552 0
M  V30 1004 H 89.1931 1.45188 -0.352239 0
M  V30 1005 H 91.0751 3.85291 1.70671 0
M  V30 1006 H 89.7501 2.6643 1.83839 0
M  V30 1007 H 88.6571 3.73471 -0.216895 0
M  V30 1008 H 89.9901 4.91482 -0.265709 0
M  V30 1009 N 91.6422 0.330177 1.54103 0
M  V30 1010 C 93.0532 -0.15652 1.86043 0
M  V30 1011 C 93.4042 -1.51086 1.2517 0
M  V30 1012 O 92.5292 -2.09023 0.560217 0
M  V30 1013 C 93.1242 -0.290784 3.3755 0
M  V30 1014 C 91.6832 -0.721705 3.69416 0
M  V30 1015 C 90.8302 0.152622 2.7688 0
M  V30 1016 H 93.7812 0.550237 1.48856 0
M  V30 1017 H 93.8022 -1.12058 3.63625 0
M  V30 1018 H 93.3142 0.695068 3.81825 0
M  V30 1019 H 91.4152 -1.71706 3.30678 0
M  V30 1020 H 91.5282 -0.520869 4.7626 0
M  V30 1021 H 89.8922 -0.372894 2.51956 0
M  V30 1022 H 90.6752 1.13536 3.23982 0
M  V30 1023 N 93.1203 -1.57491 0.0584922 0
M  V30 1024 C 94.0673 -2.11958 -0.913376 0
M  V30 1025 C 95.0373 -1.02875 -1.30407 0
M  V30 1026 O 96.2223 -1.30464 -1.39226 0
M  V30 1027 C 93.3623 -2.67497 -2.18035 0
M  V30 1028 C 92.4753 -3.90691 -1.84349 0
M  V30 1029 C 91.6103 -4.3452 -3.05559 0
M  V30 1030 C 90.6493 -5.50395 -2.67827 0
M  V30 1031 N 89.7863 -5.89244 -3.81754 0
M  V30 1032 H 94.6263 -2.94704 -0.442017 0
M  V30 1033 H 92.1633 -1.45643 -0.206545 0
M  V30 1034 H 94.1213 -2.978 -2.92183 0
M  V30 1035 H 92.7513 -1.87537 -2.62735 0
M  V30 1036 H 91.8033 -3.66934 -1.00319 0
M  V30 1037 H 93.1153 -4.7489 -1.5258 0
M  V30 1038 H 92.2693 -4.66414 -3.87998 0
M  V30 1039 H 91.0083 -3.49147 -3.40511 0
M  V30 1040 H 90.0133 -5.18165 -1.83806 0
M  V30 1041 H 91.2383 -6.3749 -2.34059 0
M  V30 1042 H 89.1843 -5.06823 -4.16493 0
M  V30 1043 H 89.1013 -6.68151 -3.53708 0
M  V30 1044 H 90.3693 -6.25756 -4.64811 0
M  V30 1045 N 94.5984 0.214957 -1.56127 0
M  V30 1046 C 95.8234 0.95924 -1.83884 0
M  V30 1047 C 96.2484 1.7689 -0.639644 0
M  V30 1048 O 95.6064 1.76566 0.411601 0
M  V30 1049 C 95.6544 1.84723 -3.09693 0
M  V30 1050 O 94.7584 2.94346 -2.8885 0
M  V30 1051 H 94.0994 0.27125 -0.606069 0
M  V30 1052 H 96.6294 0.226276 -2.03345 0
M  V30 1053 H 96.6394 2.25576 -3.39969 0
M  V30 1054 H 95.3144 1.25218 -3.96602 0
M  V30 1055 H 93.8914 2.57391 -2.69823 0
M  V30 1056 N 96.0765 1.50051 0.48192 0
M  V30 1057 C 97.0065 1.71046 1.58951 0
M  V30 1058 C 97.9875 0.559288 1.60642 0
M  V30 1059 O 99.1725 0.797243 1.77081 0
M  V30 1060 C 96.3025 1.79462 2.97339 0
M  V30 1061 C 95.2565 2.94558 3.10515 0
M  V30 1062 C 94.5825 2.88105 4.50444 0
M  V30 1063 C 95.8825 4.35227 2.88747 0
M  V30 1064 H 97.5765 2.6378 1.41635 0
M  V30 1065 H 95.1225 1.26936 0.679942 0
M  V30 1066 H 97.0755 1.92734 3.74742 0
M  V30 1067 H 95.7995 0.833412 3.15788 0
M  V30 1068 H 94.4585 2.80918 2.35543 0
M  V30 1069 H 94.1065 1.89853 4.65795 0
M  V30 1070 H 93.8065 3.65366 4.60197 0
M  V30 1071 H 95.3305 3.03412 5.29881 0
M  V30 1072 H 96.7445 4.49449 3.55905 0
M  V30 1073 H 95.1415 5.13856 3.09955 0
M  V30 1074 H 96.2115 4.48347 1.84696 0
M  V30 1075 N 97.5546 -0.734337 1.39446 0
M  V30 1076 C 98.9656 -1.31264 1.32766 0
M  V30 1077 C 99.3166 -1.96198 -0.00767497 0
M  V30 1078 O 98.4416 -1.96346 -0.909796 0
M  V30 1079 C 99.0366 -2.38682 2.4045 0
M  V30 1080 C 97.5956 -2.92184 2.37288 0
M  V30 1081 C 96.7426 -1.6576 2.22304 0
M  V30 1082 H 99.6936 -0.531799 1.49525 0
M  V30 1083 H 99.7146 -3.19087 2.07276 0
M  V30 1084 H 99.2266 -1.91392 3.37625 0
M  V30 1085 H 97.3276 -3.43752 1.43754 0
M  V30 1086 H 97.4406 -3.45253 3.3217 0
M  V30 1087 H 95.8046 -1.9012 1.69489 0
M  V30 1088 H 96.5876 -1.20521 3.21449 0
M  V30 1089 N 99.0327 -1.24633 -0.964593 0
M  V30 1090 C 99.9797 -1.04144 -2.05968 0
M  V30 1091 C 100.95 0.046262 -1.66036 0
M  V30 1092 O 102.135 -0.108972 -1.90489 0
M  V30 1093 C 99.2747 -0.65563 -3.38815 0
M  V30 1094 C 98.3877 -1.81714 -3.91923 0
M  V30 1095 C 97.5227 -1.37662 -5.13052 0
M  V30 1096 C 96.5617 -2.50788 -5.58365 0
M  V30 1097 N 95.6987 -2.07582 -6.70712 0
M  V30 1098 H 100.539 -1.9787 -2.22827 0
M  V30 1099 H 98.0757 -0.9855 -1.09208 0
M  V30 1100 H 100.034 -0.412954 -4.15151 0
M  V30 1101 H 98.6637 0.244627 -3.21872 0
M  V30 1102 H 97.7157 -2.1734 -3.12198 0
M  V30 1103 H 99.0277 -2.66705 -4.21509 0
M  V30 1104 H 98.1817 -1.093 -5.96773 0
M  V30 1105 H 96.9207 -0.497293 -4.85158 0
M  V30 1106 H 95.9257 -2.79906 -4.73215 0
M  V30 1107 H 97.1507 -3.39283 -5.88272 0
M  V30 1108 H 95.0967 -1.22051 -6.44546 0
M  V30 1109 H 95.0137 -2.86125 -6.99763 0
M  V30 1110 H 96.2817 -1.82369 -7.57867 0
M  V30 1111 N 100.511 1.16574 -1.06058 0
M  V30 1112 C 101.443 2.2045 -0.627239 0
M  V30 1113 C 102.456 1.59752 0.313534 0
M  V30 1114 O 103.645 1.78192 0.104896 0
M  V30 1115 C 100.745 3.3875 0.100974 0
M  V30 1116 C 99.9178 4.29008 -0.852687 0
M  V30 1117 C 98.9768 5.25944 -0.164152 0
M  V30 1118 O 98.0028 5.63535 -0.801047 0
M  V30 1119 N 99.2048 5.70075 1.09518 0
M  V30 1120 H 101.97 2.58249 -1.52077 0
M  V30 1121 H 99.5308 1.3156 -0.943594 0
M  V30 1122 H 101.523 4.00638 0.57194 0
M  V30 1123 H 100.093 2.99476 0.89628 0
M  V30 1124 H 99.3128 3.64419 -1.50308 0
M  V30 1125 H 100.601 4.86195 -1.49972 0
M  V30 1126 H 99.9988 5.41624 1.6328 0
M  V30 1127 H 98.5558 6.34067 1.51006 0
M  V30 1128 N 101.989 0.842826 1.3317 0
M  V30 1129 C 102.952 0.284065 2.27433 0
M  V30 1130 C 103.952 -0.54948 1.5112 0
M  V30 1131 O 105.142 -0.362699 1.70382 0
M  V30 1132 C 102.274 -0.599384 3.35589 0
M  V30 1133 H 103.467 1.11589 2.78366 0
M  V30 1134 H 101.02 0.616221 1.4364 0
M  V30 1135 H 101.755 -1.45349 2.89904 0
M  V30 1136 H 101.54 -0.00291266 3.921 0
M  V30 1137 H 103.03 -0.983488 4.05854 0
M  V30 1138 N 103.467 -1.45747 0.599634 0
M  V30 1139 C 104.692 -2.07178 0.0960198 0
M  V30 1140 C 105.117 -1.44268 -1.207 0
M  V30 1141 O 104.475 -0.532503 -1.73303 0
M  V30 1142 C 104.523 -3.60579 -0.0385348 0
M  V30 1143 O 103.627 -3.97713 -1.0908 0
M  V30 1144 H 102.968 -0.660251 0.0704593 0
M  V30 1145 H 105.498 -1.87124 0.827385 0
M  V30 1146 H 105.508 -4.07298 -0.239304 0
M  V30 1147 H 104.183 -4.05756 0.912947 0
M  V30 1148 H 102.76 -3.62678 -0.867135 0
M  V30 1149 N 104.945 -0.338344 -1.53925 0
M  V30 1150 C 106.222 0.314774 -1.93051 0
M  V30 1151 C 106.602 1.68669 -1.26941 0
M  V30 1152 O 105.95 2.24636 -0.418445 0
M  V30 1153 C 106.16 0.392249 -3.46789 0
M  V30 1154 C 107.508 0.645554 -4.19664 0
M  V30 1155 O 108.532 0.474575 -3.53024 0
M  V30 1156 O 107.391 0.976408 -5.37707 0
M  V30 1157 H 104.485 0.182598 -0.80659 0
M  V30 1158 H 107.031 -0.389141 -1.65178 0
M  V30 1159 H 105.803 -0.570702 -3.87116 0
M  V30 1160 H 105.426 1.14316 -3.80812 0
M  V30 1161 N 106.423 1.57458 -0.0668435 0
M  V30 1162 C 107.651 1.97624 0.612565 0
M  V30 1163 C 108.066 0.94502 1.63447 0
M  V30 1164 O 107.423 -0.0689276 1.8237 0
M  V30 1165 C 107.474 3.37869 1.28555 0
M  V30 1166 O 107.195 4.3704 0.304557 0
M  V30 1167 C 108.696 3.92882 2.05325 0
M  V30 1168 H 105.916 0.650045 0.166381 0
M  V30 1169 H 108.46 2.04035 -0.137782 0
M  V30 1170 H 106.615 3.3256 1.98702 0
M  V30 1171 H 107.029 5.18565 0.786779 0
M  V30 1172 H 108.503 4.93247 2.47812 0
M  V30 1173 H 108.98 3.29156 2.9078 0
M  V30 1174 H 109.586 4.01577 1.40056 0
M  V30 1175 N 107.901 -0.206675 1.56239 0
M  V30 1176 C 109.149 -0.927007 1.79586 0
M  V30 1177 C 109.47 -1.8427 0.637929 0
M  V30 1178 O 108.74 -1.92849 -0.344398 0
M  V30 1179 H 107.32 -0.345292 0.662407 0
M  V30 1180 H 109.982 -0.21496 1.93711 0
M  V30 1181 H 109.078 -1.52501 2.72305 0
M  V30 1182 N 109.379 -1.50304 -0.473955 0
M  V30 1183 C 110.604 -1.65175 -1.25427 0
M  V30 1184 C 111.029 -0.333673 -1.85117 0
M  V30 1185 O 110.387 0.702114 -1.67153 0
M  V30 1186 C 110.435 -2.74295 -2.34082 0
M  V30 1187 O 109.539 -2.35349 -3.38651 0
M  V30 1188 H 108.88 -0.551944 -0.369126 0
M  V30 1189 H 111.41 -1.96662 -0.564364 0
M  V30 1190 H 111.42 -2.97285 -2.79438 0
M  V30 1191 H 110.095 -3.69959 -1.90008 0
M  V30 1192 H 108.672 -2.22794 -2.99027 0
M  V30 1193 N 110.857 0.726932 -1.39834 0
M  V30 1194 C 111.805 1.86235 -1.39353 0
M  V30 1195 C 112.799 1.67144 -0.275555 0
M  V30 1196 O 114.005 1.74387 -0.44601 0
M  V30 1197 H 110.38 0.613174 -0.43534 0
M  V30 1198 H 112.351 1.83756 -2.35109 0
M  V30 1199 C 111.1 3.23995 -1.26185 0
M  V30 1200 H 110.423 3.39285 -2.11484 0
M  V30 1201 H 111.863 4.03609 -1.29907 0
M  V30 1202 C 110.322 3.36888 0.0290018 0
M  V30 1203 O 110.852 3.89152 0.99619 0
M  V30 1204 N 109.058 2.90446 0.0947437 0
M  V30 1205 H 108.605 2.48102 -0.693035 0
M  V30 1206 H 108.563 2.99451 0.957932 0
M  V30 1207 N 112.336 1.25143 0.95797 0
M  V30 1208 C 113.613 1.00472 1.67823 0
M  V30 1209 C 113.993 -0.470056 2.058 0
M  V30 1210 O 113.341 -1.44663 1.76875 0
M  V30 1211 C 113.551 1.9372 2.90299 0
M  V30 1212 C 114.899 2.21371 3.62326 0
M  V30 1213 O 115.923 1.91451 3.00375 0
M  V30 1214 O 114.782 2.72231 4.7387 0
M  V30 1215 H 111.876 0.380752 0.734137 0
M  V30 1216 H 114.422 1.36283 1.01119 0
M  V30 1217 H 113.194 2.93316 2.59001 0
M  V30 1218 H 112.817 1.58286 3.64735 0
M  V30 1219 N 113.814 -1.1601 1.06675 0
M  V30 1220 C 114.777 -2.18724 0.685001 0
M  V30 1221 C 115.777 -1.58496 -0.271246 0
M  V30 1222 O 116.967 -1.74119 -0.0531156 0
M  V30 1223 C 114.099 -3.40899 0.00853648 0
M  V30 1224 H 115.292 -2.54011 1.59431 0
M  V30 1225 H 112.845 -1.30352 0.862441 0
M  V30 1226 H 113.58 -3.11173 -0.913337 0
M  V30 1227 H 113.365 -3.8587 0.696204 0
M  V30 1228 H 114.855 -4.16886 -0.24414 0
M  V30 1229 N 115.292 -0.849877 -1.32721 0
M  V30 1230 C 116.242 -0.262892 -2.26479 0
M  V30 1231 C 117.226 0.588493 -1.49752 0
M  V30 1232 O 118.418 0.438659 -1.71478 0
M  V30 1233 C 115.547 0.551818 -3.38836 0
M  V30 1234 C 114.633 -0.311689 -4.22953 0
M  V30 1235 N 115.024 -1.39567 -4.86163 0
M  V30 1236 C 113.322 -0.100611 -4.45887 0
M  V30 1237 C 114.023 -1.92651 -5.48872 0
M  V30 1238 N 112.999 -1.22637 -5.29586 0
M  V30 1239 H 116.801 -1.09166 -2.72873 0
M  V30 1240 H 114.315 -0.695486 -1.46754 0
M  V30 1241 H 116.312 0.988713 -4.05006 0
M  V30 1242 H 114.972 1.37844 -2.93988 0
M  V30 1243 H 115.983 -1.77859 -4.86402 0
M  V30 1244 H 112.66 0.691681 -4.11731 0
M  V30 1245 H 114.05 -2.83487 -6.09167 0
M  V30 1246 N 116.77 1.45427 -0.607355 0
M  V30 1247 C 117.718 2.32269 0.12411 0
M  V30 1248 C 118.712 1.45955 0.859854 0
M  V30 1249 O 119.918 1.6244 0.775447 0
M  V30 1250 H 116.293 0.749691 0.0588839 0
M  V30 1251 H 118.264 2.91743 -0.626762 0
M  V30 1252 C 117.013 3.29567 1.1082 0
M  V30 1253 H 116.336 3.95978 0.551492 0
M  V30 1254 H 117.776 3.93061 1.58995 0
M  V30 1255 C 116.235 2.56722 2.18164 0
M  V30 1256 O 116.765 2.34842 3.25902 0
M  V30 1257 N 114.971 2.16861 1.93442 0
M  V30 1258 H 114.518 2.34855 1.05834 0
M  V30 1259 H 114.476 1.68444 2.65469 0
M  V30 1260 N 118.248 0.346503 1.53744 0
M  V30 1261 C 119.195 -0.508914 2.25119 0
M  V30 1262 C 120.165 -1.09315 1.25058 0
M  V30 1263 O 121.35 -1.12921 1.53797 0
M  V30 1264 C 118.49 -1.65246 3.02965 0
M  V30 1265 C 117.603 -1.09525 4.17886 0
M  V30 1266 C 116.738 -2.20634 4.83212 0
M  V30 1267 C 115.777 -1.62279 5.90196 0
M  V30 1268 N 114.914 -2.67143 6.49291 0
M  V30 1269 H 119.754 0.106283 2.9781 0
M  V30 1270 H 117.291 0.0642227 1.4696 0
M  V30 1271 H 119.249 -2.32574 3.4636 0
M  V30 1272 H 117.879 -2.2386 2.32565 0
M  V30 1273 H 116.931 -0.312818 3.79112 0
M  V30 1274 H 118.243 -0.628444 4.94825 0
M  V30 1275 H 117.397 -2.95821 5.29693 0
M  V30 1276 H 116.136 -2.70659 4.05703 0
M  V30 1277 H 115.141 -0.855989 5.43096 0
M  V30 1278 H 116.366 -1.13102 6.69615 0
M  V30 1279 H 114.312 -3.16417 5.74645 0
M  V30 1280 H 114.229 -2.25093 7.21713 0
M  V30 1281 H 115.497 -3.4209 7.00425 0
M  V30 1282 N 119.726 -1.57421 0.075193 0
M  V30 1283 C 120.673 -2.12915 -0.890843 0
M  V30 1284 C 121.643 -1.04252 -1.29309 0
M  V30 1285 O 122.828 -1.31933 -1.37834 0
M  V30 1286 C 119.968 -2.69795 -2.15186 0
M  V30 1287 C 119.081 -3.92624 -1.80194 0
M  V30 1288 C 118.216 -4.37736 -3.00933 0
M  V30 1289 C 117.255 -5.53205 -2.61974 0
M  V30 1290 N 116.392 -5.9326 -3.75483 0
M  V30 1291 H 121.232 -2.95156 -0.410735 0
M  V30 1292 H 118.769 -1.45854 -0.191086 0
M  V30 1293 H 120.727 -3.00883 -2.89008 0
M  V30 1294 H 119.357 -1.90313 -2.60731 0
M  V30 1295 H 118.409 -3.67977 -0.964218 0
M  V30 1296 H 119.721 -4.76482 -1.47534 0
M  V30 1297 H 118.875 -4.70503 -3.8303 0
M  V30 1298 H 117.614 -3.52739 -3.36789 0
M  V30 1299 H 116.619 -5.20086 -1.783 0
M  V30 1300 H 117.844 -6.39936 -2.27284 0
M  V30 1301 H 115.79 -5.11212 -4.11094 0
M  V30 1302 H 115.707 -6.71865 -3.46602 0
M  V30 1303 H 116.975 -6.30651 -4.58148 0
M  V30 1304 N 121.204 0.198386 -1.56346 0
M  V30 1305 C 122.167 1.22952 -1.93431 0
M  V30 1306 C 123.167 1.38611 -0.815092 0
M  V30 1307 O 124.357 1.36479 -1.08255 0
M  V30 1308 C 121.489 2.59946 -2.20546 0
M  V30 1309 H 122.682 0.912626 -2.85677 0
M  V30 1310 H 120.235 0.43977 -1.49986 0
M  V30 1311 H 120.97 2.96696 -1.30927 0
M  V30 1312 H 120.755 2.49953 -3.02102 0
M  V30 1313 H 122.245 3.3431 -2.50253 0
M  V30 1314 N 122.682 1.50554 0.465978 0
M  V30 1315 C 123.928 1.62038 1.21949 0
M  V30 1316 C 124.261 0.322116 1.9151 0
M  V30 1317 O 123.536 -0.676723 1.82348 0
M  V30 1318 C 123.819 2.80421 2.25912 0
M  V30 1319 C 123.672 4.20144 1.60622 0
M  V30 1320 C 124.991 2.94354 3.27176 0
M  V30 1321 H 122.11 0.589752 0.441998 0
M  V30 1322 H 124.752 1.82956 0.51257 0
M  V30 1323 H 122.902 2.62717 2.86203 0
M  V30 1324 H 124.574 4.49449 1.03889 0
M  V30 1325 H 122.817 4.24165 0.909211 0
M  V30 1326 H 123.488 4.98914 2.36196 0
M  V30 1327 H 125.964 3.10578 2.76913 0
M  V30 1328 H 124.84 3.788 3.97242 0
M  V30 1329 H 125.101 2.05186 3.916 0
M  V30 1330 N 124.16 -0.719506 1.40217 0
M  V30 1331 C 125.385 -1.51371 1.4178 0
M  V30 1332 C 125.81 -1.88091 0.0182355 0
M  V30 1333 O 125.168 -1.52997 -0.972707 0
M  V30 1334 C 125.216 -2.768 2.31115 0
M  V30 1335 O 124.32 -3.73349 1.7517 0
M  V30 1336 H 123.661 -0.456529 0.482159 0
M  V30 1337 H 126.191 -0.88644 1.844 0
M  V30 1338 H 126.201 -3.25371 2.46167 0
M  V30 1339 H 124.876 -2.49407 3.3282 0
M  V30 1340 H 123.453 -3.32179 1.69444 0
M  V30 1341 N 125.638 -1.25649 -0.95132 0
M  V30 1342 C 127.054 -1.02542 -1.223 0
M  V30 1343 C 127.254 0.255715 -1.99871 0
M  V30 1344 O 126.31 0.967558 -2.33226 0
M  V30 1345 C 127.623 -2.25065 -1.99415 0
M  V30 1346 C 129.171 -2.29861 -2.12446 0
M  V30 1347 C 129.646 -3.52048 -2.92961 0
M  V30 1348 N 131.137 -3.52465 -3.00538 0
M  V30 1349 C 131.872 -4.43672 -3.63239 0
M  V30 1350 N 131.368 -5.45157 -4.27523 0
M  V30 1351 N 133.161 -4.31346 -3.60412 0
M  V30 1352 H 125.312 -2.07951 -0.432471 0
M  V30 1353 H 127.575 -0.91339 -0.253816 0
M  V30 1354 H 127.281 -3.18194 -1.49817 0
M  V30 1355 H 127.155 -2.28502 -3.00111 0
M  V30 1356 H 129.542 -1.37252 -2.61239 0
M  V30 1357 H 129.623 -2.3044 -1.11044 0
M  V30 1358 H 129.267 -4.44981 -2.44856 0
M  V30 1359 H 129.197 -3.48715 -3.94596 0
M  V30 1360 H 131.688 -2.79056 -2.54826 0
M  V30 1361 H 132.001 -6.10958 -4.73234 0
M  V30 1362 H 130.346 -5.49025 -4.26141 0
M  V30 1363 H 133.537 -3.51288 -3.09377 0
M  V30 1364 H 133.71 -5.02624 -4.0899 0
M  V30 1365 N 127.117 1.15442 -1.07289 0
M  V30 1366 C 128.342 1.90638 -0.816828 0
M  V30 1367 C 128.767 1.77445 0.624083 0
M  V30 1368 O 128.125 1.10671 1.43602 0
M  V30 1369 C 128.173 3.39008 -1.22906 0
M  V30 1370 O 127.277 4.10701 -0.373975 0
M  V30 1371 H 126.618 0.593555 -0.297638 0
M  V30 1372 H 129.148 1.46198 -1.43134 0
M  V30 1373 H 129.158 3.89801 -1.20497 0
M  V30 1374 H 127.833 3.47929 -2.27856 0
M  V30 1375 H 126.41 3.70046 -0.460499 0
M  V30 1376 N 128.595 0.856903 1.32268 0
M  V30 1377 C 129.558 0.308171 2.27119 0
M  V30 1378 C 130.558 -0.533421 1.51695 0
M  V30 1379 O 131.748 -0.344607 1.70757 0
M  V30 1380 C 128.88 -0.563757 3.36206 0
M  V30 1381 H 130.073 1.14535 2.77167 0
M  V30 1382 H 127.626 0.631421 1.42978 0
M  V30 1383 H 128.361 -1.42266 2.91429 0
M  V30 1384 H 128.146 0.0386749 3.92081 0
M  V30 1385 H 129.636 -0.940386 4.06874 0
M  V30 1386 N 130.073 -1.45103 0.615059 0
M  V30 1387 C 130.983 -2.34382 -0.101034 0
M  V30 1388 C 131.999 -1.51681 -0.852585 0
M  V30 1389 O 133.175 -1.8446 -0.808484 0
M  V30 1390 C 130.24 -3.29417 -1.08099 0
M  V30 1391 C 129.301 -4.28025 -0.330577 0
M  V30 1392 C 128.534 -5.1852 -1.26385 0
M  V30 1393 O 128.757 -5.12598 -2.50198 0
M  V30 1394 O 127.691 -5.97122 -0.756866 0
M  V30 1395 H 131.517 -2.97033 0.632855 0
M  V30 1396 H 129.102 -1.4461 0.375293 0
M  V30 1397 H 130.984 -3.87958 -1.6452 0
M  V30 1398 H 129.659 -2.69321 -1.79577 0
M  V30 1399 H 128.566 -3.73078 0.276283 0
M  V30 1400 H 129.899 -4.90997 0.343866 0
M  V30 1401 N 131.551 -0.354651 -1.53558 0
M  V30 1402 C 132.483 0.5315 -2.22952 0
M  V30 1403 C 133.496 1.05503 -1.23988 0
M  V30 1404 O 134.685 0.963279 -1.50277 0
M  V30 1405 C 131.785 1.74538 -2.90499 0
M  V30 1406 C 130.958 1.35524 -4.15875 0
M  V30 1407 C 130.017 2.42999 -4.66731 0
M  V30 1408 O 129.043 2.05844 -5.30676 0
M  V30 1409 N 130.245 3.74423 -4.43608 0
M  V30 1410 H 133.01 -0.0628615 -2.99634 0
M  V30 1411 H 130.571 -0.179302 -1.60904 0
M  V30 1412 H 132.563 2.45892 -3.21433 0
M  V30 1413 H 131.133 2.24686 -2.17336 0
M  V30 1414 H 130.353 0.471998 -3.91364 0
M  V30 1415 H 131.641 1.07071 -4.97406 0
M  V30 1416 H 131.039 4.07391 -3.92491 0
M  V30 1417 H 129.596 4.41913 -4.7912 0
M  V30 1418 N 133.029 1.57378 -0.0835403 0
M  V30 1419 C 133.961 2.10389 0.909338 0
M  V30 1420 C 134.974 1.03858 1.25369 0
M  V30 1421 O 136.163 1.31338 1.20882 0
M  V30 1422 C 133.263 2.55908 2.2218 0
M  V30 1423 C 132.436 3.86145 2.05453 0
M  V30 1424 C 131.495 4.17633 3.20108 0
M  V30 1425 O 130.521 4.87043 2.94581 0
M  V30 1426 N 131.723 3.72113 4.45547 0
M  V30 1427 H 134.488 2.962 0.456657 0
M  V30 1428 H 132.049 1.61579 0.101877 0
M  V30 1429 H 134.041 2.74027 2.97811 0
M  V30 1430 H 132.611 1.75171 2.58909 0
M  V30 1431 H 131.831 3.7729 1.1422 0
M  V30 1432 H 133.119 4.7137 1.91541 0
M  V30 1433 H 132.517 3.16062 4.69171 0
M  V30 1434 H 131.074 3.95409 5.18165 0
M  V30 1435 N 134.507 -0.190092 1.56449 0
M  V30 1436 C 135.918 -0.754312 1.70784 0
M  V30 1437 C 136.269 -1.83631 0.690951 0
M  V30 1438 O 135.394 -2.15868 -0.151604 0
M  V30 1439 C 135.989 -1.37503 3.09642 0
M  V30 1440 C 134.548 -1.88628 3.25725 0
M  V30 1441 C 133.695 -0.758098 2.66736 0
M  V30 1442 H 136.646 0.0350524 1.58661 0
M  V30 1443 H 136.667 -2.2445 3.0725 0
M  V30 1444 H 136.179 -0.587302 3.83631 0
M  V30 1445 H 134.28 -2.70103 2.56661 0
M  V30 1446 H 134.393 -2.04462 4.3328 0
M  V30 1447 H 132.757 -1.17369 2.26046 0
M  V30 1448 H 133.54 0.0174705 3.43296 0
M  V30 1449 N 135.985 -1.50799 -0.457987 0
M  V30 1450 C 137.21 -1.66496 -1.23668 0
M  V30 1451 C 137.635 -0.353288 -1.84752 0
M  V30 1452 O 136.993 0.684346 -1.67888 0
M  V30 1453 C 137.041 -2.76763 -2.3116 0
M  V30 1454 O 136.145 -2.38928 -3.36136 0
M  V30 1455 H 135.486 -0.555828 -0.363252 0
M  V30 1456 H 138.016 -1.9725 -0.543474 0
M  V30 1457 H 138.026 -3.00232 -2.76269 0
M  V30 1458 H 136.701 -3.71954 -1.86073 0
M  V30 1459 H 135.278 -2.25953 -2.96647 0
M  V30 1460 N 137.463 0.71206 -1.40597 0
M  V30 1461 C 138.373 1.8562 -1.43466 0
M  V30 1462 C 139.389 1.70902 -0.326902 0
M  V30 1463 O 140.565 1.93105 -0.572043 0
M  V30 1464 C 137.63 3.21451 -1.29884 0
M  V30 1465 C 136.691 3.48398 -2.50833 0
M  V30 1466 C 135.924 4.77749 -2.3789 0
M  V30 1467 O 136.147 5.53089 -1.39459 0
M  V30 1468 O 135.081 5.05111 -3.27333 0
M  V30 1469 H 138.907 1.86155 -2.39958 0
M  V30 1470 H 136.492 0.86295 -1.21957 0
M  V30 1471 H 138.374 4.02579 -1.24531 0
M  V30 1472 H 137.049 3.21636 -0.364997 0
M  V30 1473 H 135.956 2.67265 -2.61763 0
M  V30 1474 H 137.289 3.53014 -3.4299 0
M  V30 1475 N 138.941 1.26152 0.944643 0
M  V30 1476 C 139.888 1.07408 2.04285 0
M  V30 1477 C 140.858 -0.0198413 1.66088 0
M  V30 1478 O 142.043 0.139264 1.90291 0
M  V30 1479 C 139.183 0.70945 3.37729 0
M  V30 1480 C 138.296 1.87926 3.88983 0
M  V30 1481 C 137.431 1.45807 5.10797 0
M  V30 1482 C 136.47 2.5964 5.54305 0
M  V30 1483 N 135.607 2.18226 6.67324 0
M  V30 1484 H 140.447 2.01389 2.1965 0
M  V30 1485 H 137.984 1.00275 1.07626 0
M  V30 1486 H 139.942 0.478948 4.14442 0
M  V30 1487 H 138.572 -0.193389 3.2222 0
M  V30 1488 H 137.624 2.22279 3.08701 0
M  V30 1489 H 138.936 2.73377 4.17213 0
M  V30 1490 H 138.09 1.18781 5.94959 0
M  V30 1491 H 136.829 0.574414 4.84305 0
M  V30 1492 H 135.834 2.87399 4.68702 0
M  V30 1493 H 137.059 3.48599 5.828 0
M  V30 1494 H 135.005 1.3229 6.42523 0
M  V30 1495 H 134.922 2.97221 6.95123 0
M  V30 1496 H 136.19 1.94403 7.54869 0
M  V30 1497 N 140.419 -1.14872 1.07899 0
M  V30 1498 C 141.644 -1.90202 0.826926 0
M  V30 1499 C 142.069 -1.77774 -0.614664 0
M  V30 1500 O 141.427 -1.11431 -1.43013 0
M  V30 1501 C 141.475 -3.38352 1.24702 0
M  V30 1502 O 140.579 -4.10497 0.39575 0
M  V30 1503 H 139.92 -0.591968 0.300782 0
M  V30 1504 H 142.45 -1.45437 1.43907 0
M  V30 1505 H 142.46 -3.89156 1.22563 0
M  V30 1506 H 141.135 -3.46715 2.29698 0
M  V30 1507 H 139.712 -3.69796 0.480117 0
M  V30 1508 N 141.898 -0.863906 -1.31812 0
M  V30 1509 C 143.126 -0.486111 -2.01108 0
M  V30 1510 C 143.541 0.919755 -1.64882 0
M  V30 1511 O 142.898 1.60162 -0.874893 0
M  V30 1512 C 142.949 -0.626435 -3.56031 0
M  V30 1513 O 142.67 -1.97693 -3.90959 0
M  V30 1514 C 144.171 -0.248857 -4.42601 0
M  V30 1515 H 141.391 -0.190052 -0.643523 0
M  V30 1516 H 143.935 -1.1634 -1.68182 0
M  V30 1517 H 142.09 0.00322717 -3.874 0
M  V30 1518 H 142.504 -1.98034 -4.85678 0
M  V30 1519 H 143.978 -0.398016 -5.50563 0
M  V30 1520 H 144.455 0.811489 -4.31638 0
M  V30 1521 H 145.061 -0.853971 -4.16638 0
M  V30 1522 N 143.376 1.44774 -0.622745 0
M  V30 1523 C 144.286 2.34433 0.0886031 0
M  V30 1524 C 145.302 1.52131 0.844529 0
M  V30 1525 O 146.478 1.84886 0.798691 0
M  V30 1526 C 143.543 3.29986 1.0635 0
M  V30 1527 C 142.604 4.28195 0.307873 0
M  V30 1528 C 141.837 5.19183 1.23633 0
M  V30 1529 O 142.06 5.13918 2.47476 0
M  V30 1530 O 140.994 5.97515 0.725189 0
M  V30 1531 H 144.82 2.96693 -0.648599 0
M  V30 1532 H 142.405 1.44408 -0.382957 0
M  V30 1533 H 144.287 3.88825 1.6246 0
M  V30 1534 H 142.962 2.70269 1.78146 0
M  V30 1535 H 141.869 3.72927 -0.296064 0
M  V30 1536 H 143.202 4.90808 -0.3699 0
M  V30 1537 N 144.854 0.36279 1.53368 0
M  V30 1538 C 146.265 -0.117022 1.86333 0
M  V30 1539 C 146.616 -1.48397 1.28347 0
M  V30 1540 O 145.741 -2.07787 0.604428 0
M  V30 1541 C 146.336 -0.21912 3.38091 0
M  V30 1542 C 144.895 -0.643184 3.70864 0
M  V30 1543 C 144.042 0.211318 2.76494 0
M  V30 1544 H 146.993 0.581687 1.47655 0
M  V30 1545 H 147.014 -1.04319 3.6592 0
M  V30 1546 H 146.526 0.775902 3.80265 0
M  V30 1547 H 144.627 -1.64654 3.34245 0
M  V30 1548 H 144.74 -0.41973 4.77258 0
M  V30 1549 H 143.104 -0.319367 2.5269 0
M  V30 1550 H 143.887 1.20383 3.21501 0
M  V30 1551 N 146.332 -1.57332 0.0918853 0
M  V30 1552 C 147.279 -2.13847 -0.868211 0
M  V30 1553 C 148.249 -1.05618 -1.28196 0
M  V30 1554 O 149.434 -1.33387 -1.36427 0
M  V30 1555 C 146.574 -2.72062 -2.12312 0
M  V30 1556 C 145.687 -3.94514 -1.7602 0
M  V30 1557 C 144.822 -4.40903 -2.96273 0
M  V30 1558 C 143.861 -5.55953 -2.56092 0
M  V30 1559 N 142.998 -5.97209 -3.69169 0
M  V30 1560 H 147.838 -2.95575 -0.379406 0
M  V30 1561 H 145.375 -1.46048 -0.175606 0
M  V30 1562 H 147.333 -3.03931 -2.858 0
M  V30 1563 H 145.963 -1.93068 -2.58698 0
M  V30 1564 H 145.015 -3.68979 -0.925135 0
M  V30 1565 H 146.327 -4.7802 -1.42472 0
M  V30 1566 H 145.481 -4.74539 -3.78018 0
M  V30 1567 H 144.22 -3.56291 -3.33029 0
M  V30 1568 H 143.225 -5.21948 -1.72773 0
M  V30 1569 H 144.45 -6.42311 -2.20484 0
M  V30 1570 H 142.396 -5.15543 -4.05649 0
M  V30 1571 H 142.313 -6.75504 -3.39456 0
M  V30 1572 H 143.581 -6.35475 -4.51434 0
M  V30 1573 N 147.81 0.181792 -1.56548 0
M  V30 1574 C 149.038 0.915947 -1.85521 0
M  V30 1575 C 149.453 1.76282 -0.676016 0
M  V30 1576 O 148.81 1.79012 0.355077 0
M  V30 1577 C 148.861 1.80126 -3.13427 0
M  V30 1578 O 148.582 0.988562 -4.26801 0
M  V30 1579 C 150.083 2.64597 -3.55673 0
M  V30 1580 H 147.303 0.26661 -0.61576 0
M  V30 1581 H 149.847 0.185039 -2.03661 0
M  V30 1582 H 148.002 2.48563 -2.97145 0
M  V30 1583 H 148.416 1.59308 -4.99721 0
M  V30 1584 H 149.89 3.2235 -4.48101 0
M  V30 1585 H 150.367 3.38958 -2.79292 0
M  V30 1586 H 150.973 2.0151 -3.74532 0
M  V30 1587 N 149.288 1.51039 0.449983 0
M  V30 1588 C 150.235 1.71439 1.54523 0
M  V30 1589 C 151.205 0.555871 1.56522 0
M  V30 1590 O 152.39 0.788871 1.73728 0
M  V30 1591 C 149.53 1.83384 2.92343 0
M  V30 1592 C 148.643 3.10873 2.9997 0
M  V30 1593 C 147.778 3.13488 4.28834 0
M  V30 1594 C 146.817 4.35343 4.30282 0
M  V30 1595 N 145.954 4.35579 5.5065 0
M  V30 1596 H 150.794 2.64934 1.36433 0
M  V30 1597 H 148.331 1.31312 0.662982 0
M  V30 1598 H 150.289 1.88291 3.72293 0
M  V30 1599 H 148.919 0.933086 3.0902 0
M  V30 1600 H 147.971 3.15336 2.12761 0
M  V30 1601 H 149.283 4.00814 2.96901 0
M  V30 1602 H 148.437 3.17241 5.17149 0
M  V30 1603 H 147.176 2.21414 4.34543 0
M  V30 1604 H 146.181 4.3178 3.40362 0
M  V30 1605 H 147.406 5.28668 4.26248 0
M  V30 1606 H 145.352 3.46369 5.57104 0
M  V30 1607 H 145.269 5.19313 5.49409 0
M  V30 1608 H 146.537 4.43507 6.41032 0
M  V30 1609 N 150.766 -0.704594 1.40972 0
M  V30 1610 C 152.177 -1.28418 1.3552 0
M  V30 1611 C 152.528 -1.96171 0.0339434 0
M  V30 1612 O 151.653 -1.98231 -0.867944 0
M  V30 1613 C 152.248 -2.33528 2.45459 0
M  V30 1614 C 150.807 -2.87085 2.43433 0
M  V30 1615 C 149.954 -1.61007 2.2577 0
M  V30 1616 H 152.905 -0.499963 1.50619 0
M  V30 1617 H 152.926 -3.14619 2.13998 0
M  V30 1618 H 152.438 -1.84187 3.41609 0
M  V30 1619 H 150.539 -3.40626 1.51013 0
M  V30 1620 H 150.652 -3.3813 3.39419 0
M  V30 1621 H 149.016 -1.86482 1.73483 0
M  V30 1622 H 149.799 -1.13675 3.23933 0
M  V30 1623 N 152.244 -1.26651 -0.937939 0
M  V30 1624 C 153.176 -1.04283 -2.04102 0
M  V30 1625 C 154.189 -0.00221014 -1.628 0
M  V30 1626 O 155.378 -0.242645 -1.76843 0
M  V30 1627 C 152.478 -0.557846 -3.34277 0
M  V30 1628 C 151.651 -1.66843 -4.04329 0
M  V30 1629 C 150.71 -1.18095 -5.12777 0
M  V30 1630 O 149.736 -1.87865 -5.37304 0
M  V30 1631 N 150.938 -0.0311006 -5.80492 0
M  V30 1632 H 153.703 -1.9927 -2.23856 0
M  V30 1633 H 151.264 -1.1808 -1.10764 0
M  V30 1634 H 153.256 -0.215836 -4.04124 0
M  V30 1635 H 151.826 0.298523 -3.11171 0
M  V30 1636 H 151.046 -2.18123 -3.28353 0
M  V30 1637 H 152.334 -2.41408 -4.47883 0
M  V30 1638 H 151.732 0.551486 -5.63005 0
M  V30 1639 H 150.289 0.251809 -6.51313 0
M  V30 1640 N 153.722 1.14298 -1.08507 0
M  V30 1641 C 154.999 1.81544 -0.728088 0
M  V30 1642 C 155.379 1.95838 0.78808 0
M  V30 1643 O 154.727 1.51904 1.70697 0
M  V30 1644 C 154.937 3.17169 -1.45619 0
M  V30 1645 C 156.285 3.9265 -1.61591 0
M  V30 1646 O 157.309 3.26762 -1.41793 0
M  V30 1647 O 156.168 5.10807 -1.94263 0
M  V30 1648 H 153.262 0.78491 -0.260471 0
M  V30 1649 H 155.808 1.21307 -1.18671 0
M  V30 1650 H 154.58 3.01934 -2.489 0
M  V30 1651 H 154.203 3.851 -0.989124 0
M  V30 1652 N 155.201 0.870884 1.31352 0
M  V30 1653 C 156.134 0.271983 2.26573 0
M  V30 1654 C 157.112 -0.599385 1.51149 0
M  V30 1655 O 158.296 -0.552605 1.80218 0
M  V30 1656 C 155.423 -0.614801 3.33073 0
M  V30 1657 C 154.469 0.185342 4.26097 0
M  V30 1658 S 155.302 1.56444 5.12138 0
M  V30 1659 C 156.458 0.683807 6.22153 0
M  V30 1660 H 156.691 1.07916 2.77023 0
M  V30 1661 H 154.224 0.669459 1.39132 0
M  V30 1662 H 156.182 -1.12074 3.94905 0
M  V30 1663 H 154.843 -1.39593 2.81376 0
M  V30 1664 H 154.036 -0.490771 5.01605 0
M  V30 1665 H 153.638 0.623415 3.68768 0
M  V30 1666 H 155.93 -0.10521 6.77418 0
M  V30 1667 H 156.873 1.41004 6.93919 0
M  V30 1668 H 157.281 0.250952 5.63942 0
M  V30 1669 N 156.679 -1.44442 0.630414 0
M  V30 1670 C 157.928 -2.01267 0.132073 0
M  V30 1671 C 158.241 -1.50172 -1.25331 0
M  V30 1672 O 159.447 -1.9912 -1.84562 0
M  V30 1673 C 157.903 -3.59422 0.185362 0
M  V30 1674 C 157.511 -4.19514 1.57201 0
M  V30 1675 C 159.255 -4.23724 -0.256553 0
M  V30 1676 C 157.162 -5.69891 1.58045 0
M  V30 1677 H 156.092 -0.752619 0.0456092 0
M  V30 1678 H 158.743 -1.65666 0.789106 0
M  V30 1679 H 157.125 -3.92318 -0.538759 0
M  V30 1680 H 158.299 -3.98156 2.31966 0
M  V30 1681 H 156.614 -3.67496 1.95795 0
M  V30 1682 H 159.211 -5.34019 -0.269767 0
M  V30 1683 H 159.554 -3.96013 -1.28372 0
M  V30 1684 H 160.087 -3.95629 0.41505 0
M  V30 1685 H 156.826 -6.02336 2.58597 0
M  V30 1686 H 156.346 -5.93373 0.875725 0
M  V30 1687 H 158.025 -6.33515 1.31408 0
M  V30 1688 N 158.157 -0.370918 -1.53173 0
M  V30 1689 C 159.382 0.220293 -2.06227 0
M  V30 1690 C 159.807 1.41243 -1.24225 0
M  V30 1691 O 159.165 1.79387 -0.262645 0
M  V30 1692 C 159.213 0.586663 -3.55796 0
M  V30 1693 O 158.317 1.68317 -3.76488 0
M  V30 1694 H 157.658 0.0308099 -0.663285 0
M  V30 1695 H 160.188 -0.533068 -1.97534 0
M  V30 1696 H 160.198 0.85617 -3.98916 0
M  V30 1697 H 158.873 -0.285013 -4.14922 0
M  V30 1698 H 157.45 1.40881 -3.45264 0
M  V30 1699 N 159.635 1.57281 -0.100228 0
M  V30 1700 C 160.598 2.13158 0.842398 0
M  V30 1701 C 161.598 1.06202 1.20738 0
M  V30 1702 O 162.788 1.32066 1.13597 0
M  V30 1703 C 159.92 2.65639 2.13655 0
M  V30 1704 H 161.113 2.97766 0.357114 0
M  V30 1705 H 158.666 1.5559 0.148823 0
M  V30 1706 H 159.401 1.84566 2.66657 0
M  V30 1707 H 159.186 3.43844 1.88451 0
M  V30 1708 H 160.676 3.08846 2.81077 0
M  V30 1709 N 161.113 -0.173488 1.56642 0
M  V30 1710 C 162.361 -0.888706 1.81512 0
M  V30 1711 C 162.682 -1.82875 0.676872 0
M  V30 1712 O 161.952 -1.93536 -0.303414 0
M  V30 1713 H 160.532 -0.331164 0.669582 0
M  V30 1714 H 163.194 -0.173823 1.94123 0
M  V30 1715 H 162.29 -1.46691 2.75478 0
M  V30 1716 N 162.591 -1.51276 -0.441967 0
M  V30 1717 C 163.839 -1.63392 -1.18943 0
M  V30 1718 C 164.16 -0.350159 -1.9183 0
M  V30 1719 O 163.43 0.633784 -1.85364 0
M  V30 1720 H 162.01 -0.602164 -0.442049 0
M  V30 1721 H 164.672 -1.88186 -0.507165 0
M  V30 1722 H 163.768 -2.45934 -1.92154 0
M  V30 1723 N 164.069 0.697108 -1.41344 0
M  V30 1724 C 164.979 1.84088 -1.45427 0
M  V30 1725 C 165.995 1.70545 -0.34501 0
M  V30 1726 O 167.171 1.92488 -0.592492 0
M  V30 1727 C 164.236 3.20056 -1.33286 0
M  V30 1728 C 163.297 3.45718 -2.54514 0
M  V30 1729 C 162.53 4.75199 -2.42944 0
M  V30 1730 O 162.753 5.51579 -1.45318 0
M  V30 1731 O 161.687 5.0161 -3.32672 0
M  V30 1732 H 165.513 1.836 -2.41919 0
M  V30 1733 H 163.098 0.849966 -1.22866 0
M  V30 1734 H 164.98 4.01236 -1.28794 0
M  V30 1735 H 163.655 3.2123 -0.39909 0
M  V30 1736 H 162.562 2.64474 -2.64583 0
M  V30 1737 H 163.895 3.49356 -3.46715 0
M  V30 1738 N 165.547 1.27147 0.931209 0
M  V30 1739 C 166.772 1.16191 1.71797 0
M  V30 1740 C 167.197 -0.278004 1.86034 0
M  V30 1741 O 166.555 -1.20137 1.35782 0
M  V30 1742 C 166.603 1.84673 3.09723 0
M  V30 1743 O 165.707 1.14231 3.96264 0
M  V30 1744 H 165.048 0.404303 0.526721 0
M  V30 1745 H 167.578 1.68152 1.1656 0
M  V30 1746 H 167.588 1.91893 3.60057 0
M  V30 1747 H 166.263 2.89421 2.98677 0
M  V30 1748 H 164.84 1.15056 3.54706 0
M  V30 1749 N 167.025 -1.13721 1.09112 0
M  V30 1750 C 168.271 -1.85198 0.826414 0
M  V30 1751 C 168.604 -1.83129 -0.646319 0
M  V30 1752 O 167.879 -1.2671 -1.47563 0
M  V30 1753 C 168.162 -3.33507 1.35812 0
M  V30 1754 C 168.015 -3.44108 2.89672 0
M  V30 1755 C 169.334 -4.28838 0.989256 0
M  V30 1756 H 166.453 -0.67243 0.301675 0
M  V30 1757 H 169.095 -1.33499 1.35197 0
M  V30 1758 H 167.245 -3.77666 0.911082 0
M  V30 1759 H 168.917 -3.08684 3.428 0
M  V30 1760 H 167.16 -2.85087 3.26967 0
M  V30 1761 H 167.831 -4.48388 3.21951 0
M  V30 1762 H 170.307 -3.92734 1.37475 0
M  V30 1763 H 169.183 -5.31051 1.38838 0
M  V30 1764 H 169.444 -4.4198 -0.102924 0
M  V30 1765 N 168.503 -0.877838 -1.30888 0
M  V30 1766 C 169.466 -0.344265 -2.266 0
M  V30 1767 C 170.466 0.50922 -1.52524 0
M  V30 1768 O 171.656 0.317398 -1.71284 0
M  V30 1769 C 168.788 0.510198 -3.37061 0
M  V30 1770 H 169.981 -1.1893 -2.7531 0
M  V30 1771 H 167.534 -0.654088 -1.41956 0
M  V30 1772 H 168.269 1.37612 -2.93655 0
M  V30 1773 H 168.054 -0.101047 -3.9197 0
M  V30 1774 H 169.544 0.875537 -4.08319 0
M  V30 1775 N 169.982 1.44106 -0.638065 0
M  V30 1776 C 171.23 2.01579 -0.145043 0
M  V30 1777 C 171.551 1.50496 1.24 0
M  V30 1778 O 170.821 0.711374 1.82527 0
M  V30 1779 H 169.401 0.745282 -0.05063 0
M  V30 1780 H 172.063 1.76516 -0.826327 0
M  V30 1781 H 171.159 3.11877 -0.118039 0
M  V30 1782 N 171.46 0.379036 1.52974 0
M  V30 1783 C 172.709 -0.207612 2.00629 0
M  V30 1784 C 173.022 -1.48758 1.27006 0
M  V30 1785 O 174.228 -2.15365 1.65318 0
M  V30 1786 C 172.684 -0.42053 3.57435 0
M  V30 1787 C 172.292 0.845587 4.39948 0
M  V30 1788 C 174.036 -0.964102 4.13407 0
M  V30 1789 C 171.943 0.601513 5.88333 0
M  V30 1790 H 170.873 -0.0813591 0.749598 0
M  V30 1791 H 173.524 0.499853 1.76561 0
M  V30 1792 H 171.906 -1.18959 3.7771 0
M  V30 1793 H 173.08 1.61848 4.31442 0
M  V30 1794 H 171.395 1.31336 3.95145 0
M  V30 1795 H 173.992 -1.16225 5.21916 0
M  V30 1796 H 174.335 -1.93019 3.68849 0
M  V30 1797 H 174.868 -0.25487 3.96983 0
M  V30 1798 H 171.607 1.53831 6.37194 0
M  V30 1799 H 171.127 -0.132628 5.99653 0
M  V30 1800 H 172.806 0.232134 6.46583 0
M  V30 1801 N 172.938 -1.57226 0.108567 0
M  V30 1802 C 174.166 -1.99179 -0.559954 0
M  V30 1803 C 174.581 -0.988022 -1.60884 0
M  V30 1804 O 173.938 0.0205512 -1.82488 0
M  V30 1805 C 173.989 -3.41159 -1.19552 0
M  V30 1806 O 173.71 -4.37694 -0.188577 0
M  V30 1807 C 175.211 -3.98188 -1.94837 0
M  V30 1808 H 172.431 -0.654228 -0.149088 0
M  V30 1809 H 174.975 -2.03598 0.19183 0
M  V30 1810 H 173.13 -3.37711 -1.89815 0
M  V30 1811 H 173.544 -5.20469 -0.649014 0
M  V30 1812 H 175.018 -4.99644 -2.34648 0
M  V30 1813 H 175.495 -3.3675 -2.81951 0
M  V30 1814 H 176.101 -4.0515 -1.2936 0
M  V30 1815 N 174.416 0.165178 -1.56732 0
M  V30 1816 C 175.379 1.18822 -1.95995 0
M  V30 1817 C 176.379 1.3685 -0.84431 0
M  V30 1818 O 177.569 1.34152 -1.11126 0
M  V30 1819 C 174.701 2.5521 -2.26011 0
M  V30 1820 H 175.894 0.851825 -2.87548 0
M  V30 1821 H 173.447 0.407857 -1.50885 0
M  V30 1822 H 174.182 2.93852 -1.37191 0
M  V30 1823 H 173.967 2.43489 -3.07336 0
M  V30 1824 H 175.457 3.28927 -2.57288 0
M  V30 1825 N 175.894 1.51508 0.433938 0
M  V30 1826 C 177.143 1.63578 1.18005 0
M  V30 1827 C 177.456 0.359514 1.92268 0
M  V30 1828 O 178.662 0.359632 2.69108 0
M  V30 1829 C 177.118 2.88901 2.14626 0
M  V30 1830 C 176.726 4.23544 1.45995 0
M  V30 1831 C 178.47 3.10328 2.89649 0
M  V30 1832 C 176.377 5.40014 2.4112 0
M  V30 1833 H 175.307 0.609277 0.444182 0
M  V30 1834 H 177.958 1.77978 0.446773 0
M  V30 1835 H 176.34 2.68142 2.91403 0
M  V30 1836 H 177.514 4.54696 0.747532 0
M  V30 1837 H 175.829 4.08021 0.831115 0
M  V30 1838 H 178.426 3.94518 3.60915 0
M  V30 1839 H 178.769 2.23544 3.51189 0
M  V30 1840 H 179.302 3.31443 2.19978 0
M  V30 1841 H 176.041 6.29068 1.84264 0
M  V30 1842 H 175.561 5.13233 3.10406 0
M  V30 1843 H 177.24 5.72099 3.02177 0
M  V30 1844 N 177.372 -0.689602 1.41712 0
M  V30 1845 C 178.597 -1.48329 1.44959 0
M  V30 1846 C 179.022 -1.8801 0.0581283 0
M  V30 1847 O 178.38 -1.55026 -0.940035 0
M  V30 1848 C 178.428 -2.71835 2.36935 0
M  V30 1849 O 177.532 -3.69549 1.8305 0
M  V30 1850 H 176.873 -0.446199 0.491734 0
M  V30 1851 H 179.403 -0.847127 1.86239 0
M  V30 1852 H 179.413 -3.20076 2.53013 0
M  V30 1853 H 178.088 -2.42291 3.38035 0
M  V30 1854 H 176.665 -3.2851 1.76452 0
M  V30 1855 N 178.85 -1.27639 -0.924453 0
M  V30 1856 C 180.098 -1.13941 -1.66918 0
M  V30 1857 C 180.419 0.314589 -1.92446 0
M  V30 1858 O 179.689 1.21964 -1.53303 0
M  V30 1859 H 178.269 -0.418678 -0.618642 0
M  V30 1860 H 180.931 -1.60213 -1.10985 0
M  V30 1861 H 180.027 -1.67094 -2.63602 0
M  V30 1862 N 180.328 1.1314 -1.09713 0
M  V30 1863 C 181.275 2.18642 -0.739196 0
M  V30 1864 C 182.245 1.63706 0.280978 0
M  V30 1865 O 183.43 1.90111 0.161946 0
M  V30 1866 C 180.57 3.44685 -0.169102 0
M  V30 1867 C 179.683 4.13711 -1.24367 0
M  V30 1868 C 178.818 5.27379 -0.636019 0
M  V30 1869 C 177.857 5.88259 -1.69169 0
M  V30 1870 N 176.994 6.93352 -1.10485 0
M  V30 1871 H 181.834 2.48607 -1.64312 0
M  V30 1872 H 179.371 1.22066 -0.820875 0
M  V30 1873 H 181.329 4.16815 0.179256 0
M  V30 1874 H 179.959 3.15161 0.698079 0
M  V30 1875 H 179.011 3.39835 -1.70927 0
M  V30 1876 H 180.323 4.55037 -2.04311 0
M  V30 1877 H 179.477 6.06238 -0.236677 0
M  V30 1878 H 178.216 4.8731 0.194928 0
M  V30 1879 H 177.221 5.08092 -2.10055 0
M  V30 1880 H 178.446 6.30399 -2.52536 0
M  V30 1881 H 176.392 6.55335 -0.295234 0
M  V30 1882 H 176.309 7.33236 -1.84121 0
M  V30 1883 H 177.577 7.76057 -0.73181 0
M  V30 1884 N 181.806 0.884767 1.30421 0
M  V30 1885 C 183.217 0.553656 1.78302 0
M  V30 1886 C 183.568 -0.930153 1.7275 0
M  V30 1887 O 182.693 -1.72681 1.30423 0
M  V30 1888 C 183.288 0.998234 3.2376 0
M  V30 1889 C 181.847 0.71854 3.69478 0
M  V30 1890 C 180.994 1.18132 2.50879 0
M  V30 1891 H 183.945 1.06901 1.17294 0
M  V30 1892 H 183.966 0.327118 3.79091 0
M  V30 1893 H 183.478 2.0782 3.27769 0
M  V30 1894 H 181.579 -0.349444 3.70958 0
M  V30 1895 H 181.692 1.30595 4.60958 0
M  V30 1896 H 180.056 0.600669 2.47516 0
M  V30 1897 H 180.839 2.26902 2.57624 0
M  V30 1898 N 183.284 -1.43765 0.645699 0
M  V30 1899 C 184.532 -2.01499 0.155731 0
M  V30 1900 C 184.853 -1.51151 -1.232 0
M  V30 1901 O 184.123 -0.721044 -1.82148 0
M  V30 1902 H 182.703 -0.745003 0.0545817 0
M  V30 1903 H 185.365 -1.76075 0.835677 0
M  V30 1904 H 184.461 -3.1181 0.134577 0
M  V30 1905 N 184.763 -0.387143 -1.52771 0
M  V30 1906 C 186.04 0.253197 -1.93954 0
M  V30 1907 C 186.42 1.64545 -1.32243 0
M  V30 1908 O 185.768 2.23191 -0.489699 0
M  V30 1909 C 185.978 0.281722 -3.47861 0
M  V30 1910 C 187.326 0.511715 -4.21505 0
M  V30 1911 O 188.35 0.362023 -3.54356 0
M  V30 1912 O 187.209 0.804847 -5.40541 0
M  V30 1913 H 184.303 0.156845 -0.811991 0
M  V30 1914 H 186.849 -0.441494 -1.63856 0
M  V30 1915 H 185.621 -0.693571 -3.85104 0
M  V30 1916 H 185.244 1.02142 -3.84256 0
M  V30 1917 N 186.241 1.57166 -0.116904 0
M  V30 1918 C 187.188 2.15202 0.83408 0
M  V30 1919 C 188.158 1.07644 1.26499 0
M  V30 1920 O 189.343 1.35541 1.34288 0
M  V30 1921 C 186.483 2.75405 2.07957 0
M  V30 1922 C 185.596 3.97264 1.69721 0
M  V30 1923 C 184.731 4.45561 2.89221 0
M  V30 1924 C 183.77 5.59956 2.47215 0
M  V30 1925 N 182.907 6.03006 3.59622 0
M  V30 1926 H 187.747 2.96141 0.332335 0
M  V30 1927 H 185.284 1.46309 0.152349 0
M  V30 1928 H 187.242 3.08439 2.80929 0
M  V30 1929 H 185.872 1.97159 2.55594 0
M  V30 1930 H 184.924 3.70404 0.866316 0
M  V30 1931 H 186.236 4.80226 1.34849 0
M  V30 1932 H 185.39 4.80493 3.7042 0
M  V30 1933 H 184.129 3.61544 3.27318 0
M  V30 1934 H 183.134 5.2463 1.64448 0
M  V30 1935 H 184.359 6.45738 2.10238 0
M  V30 1936 H 182.305 5.21931 3.97396 0
M  V30 1937 H 182.222 6.80819 3.28667 0
M  V30 1938 H 183.49 6.42576 4.41267 0
M  V30 1939 N 187.719 -0.156864 1.56817 0
M  V30 1940 C 188.666 -1.19394 1.97519 0
M  V30 1941 C 189.636 -1.4322 0.841265 0
M  V30 1942 O 190.821 -1.55719 1.10255 0
M  V30 1943 C 187.961 -2.52483 2.35258 0
M  V30 1944 C 187.074 -2.35914 3.61896 0
M  V30 1945 C 186.209 -3.61969 3.88782 0
M  V30 1946 C 185.248 -3.40395 5.08722 0
M  V30 1947 N 184.385 -4.58556 5.31668 0
M  V30 1948 H 189.225 -0.839845 2.85921 0
M  V30 1949 H 186.762 -0.403264 1.41464 0
M  V30 1950 H 188.72 -3.30071 2.55165 0
M  V30 1951 H 187.35 -2.85859 1.49949 0
M  V30 1952 H 186.402 -1.49429 3.49821 0
M  V30 1953 H 187.714 -2.15926 4.49641 0
M  V30 1954 H 186.868 -4.47989 4.09135 0
M  V30 1955 H 185.607 -3.84951 2.9944 0
M  V30 1956 H 184.612 -2.52763 4.88253 0
M  V30 1957 H 185.837 -3.18822 5.99608 0
M  V30 1958 H 183.783 -4.81729 4.45279 0
M  V30 1959 H 183.7 -4.41535 6.13664 0
M  V30 1960 H 184.968 -5.45817 5.5651 0
M  V30 1961 N 189.197 -1.51736 -0.425897 0
M  V30 1962 C 190.144 -1.73875 -1.51776 0
M  V30 1963 C 191.114 -0.580702 -1.55618 0
M  V30 1964 O 192.299 -0.81641 -1.72451 0
M  V30 1965 C 189.439 -1.88012 -2.89388 0
M  V30 1966 C 188.552 -3.15606 -2.94986 0
M  V30 1967 C 187.687 -3.20271 -4.23793 0
M  V30 1968 C 186.726 -4.42134 -4.23302 0
M  V30 1969 N 185.863 -4.44284 -5.43651 0
M  V30 1970 H 190.703 -2.67071 -1.32201 0
M  V30 1971 H 188.24 -1.32351 -0.642008 0
M  V30 1972 H 190.198 -1.9419 -3.69251 0
M  V30 1973 H 188.828 -0.98213 -3.07496 0
M  V30 1974 H 187.88 -3.18681 -2.07717 0
M  V30 1975 H 189.192 -4.05486 -2.90486 0
M  V30 1976 H 188.346 -3.25428 -5.12036 0
M  V30 1977 H 187.085 -2.28299 -4.30965 0
M  V30 1978 H 186.09 -4.3714 -3.3345 0
M  V30 1979 H 187.315 -5.35382 -4.17783 0
M  V30 1980 H 185.261 -3.55188 -5.51523 0
M  V30 1981 H 185.178 -5.27988 -5.41078 0
M  V30 1982 H 186.446 -4.53649 -6.33895 0
M  V30 1983 N 190.675 0.682077 -1.42076 0
M  V30 1984 C 191.585 1.82535 -1.47371 0
M  V30 1985 C 192.601 1.7017 -0.363079 0
M  V30 1986 O 193.777 1.91848 -0.612875 0
M  V30 1987 C 190.842 3.18624 -1.36674 0
M  V30 1988 C 189.903 3.42999 -2.58167 0
M  V30 1989 C 189.136 4.72595 -2.4797 0
M  V30 1990 O 189.359 5.50006 -1.5116 0
M  V30 1991 O 188.293 4.98054 -3.37974 0
M  V30 1992 H 192.119 1.81023 -2.43853 0
M  V30 1993 H 189.704 0.836887 -1.2376 0
M  V30 1994 H 191.586 3.99847 -1.33043 0
M  V30 1995 H 190.261 3.20789 -0.433138 0
M  V30 1996 H 189.168 2.61653 -2.67373 0
M  V30 1997 H 190.501 3.45659 -3.50401 0
M  V30 1998 N 192.153 1.28127 0.917671 0
M  V30 1999 C 193.1 1.11717 2.0196 0
M  V30 2000 C 194.07 0.0153929 1.66093 0
M  V30 2001 O 195.255 0.179596 1.89953 0
M  V30 2002 C 192.395 0.780927 3.36148 0
M  V30 2003 C 191.508 1.96135 3.84909 0
M  V30 2004 C 190.643 1.56609 5.0759 0
M  V30 2005 C 189.682 2.71339 5.48673 0
M  V30 2006 N 188.819 2.32332 6.62545 0
M  V30 2007 H 193.659 2.06003 2.15329 0
M  V30 2008 H 191.196 1.02535 1.05475 0
M  V30 2009 H 193.154 0.56675 4.13333 0
M  V30 2010 H 191.784 -0.124998 3.22558 0
M  V30 2011 H 190.836 2.28777 3.03916 0
M  V30 2012 H 192.148 2.82165 4.1132 0
M  V30 2013 H 191.302 1.31374 5.92305 0
M  V30 2014 H 190.041 0.677014 4.82978 0
M  V30 2015 H 189.046 2.97276 4.62501 0
M  V30 2016 H 190.271 3.60882 5.75274 0
M  V30 2017 H 188.217 1.45889 6.39572 0
M  V30 2018 H 188.134 3.11899 6.88662 0
M  V30 2019 H 189.402 2.10371 7.50576 0
M  V30 2020 N 193.631 -1.12557 1.10312 0
M  V30 2021 C 194.578 -2.18247 0.750781 0
M  V30 2022 C 195.548 -1.63853 -0.272293 0
M  V30 2023 O 196.733 -1.90195 -0.151862 0
M  V30 2024 C 193.873 -3.44591 0.187379 0
M  V30 2025 C 192.986 -4.13046 1.2656 0
M  V30 2026 C 192.121 -5.27034 0.663978 0
M  V30 2027 C 191.16 -5.87353 1.72287 0
M  V30 2028 N 190.297 -6.92757 1.1416 0
M  V30 2029 H 195.137 -2.47732 1.65628 0
M  V30 2030 H 192.674 -1.21629 0.827337 0
M  V30 2031 H 194.632 -4.16904 -0.157148 0
M  V30 2032 H 193.262 -3.15527 -0.681355 0
M  V30 2033 H 192.314 -3.38924 1.72727 0
M  V30 2034 H 193.626 -4.53947 2.06721 0
M  V30 2035 H 192.78 -6.06104 0.268824 0
M  V30 2036 H 191.519 -4.87407 -0.169082 0
M  V30 2037 H 190.524 -5.06971 2.12746 0
M  V30 2038 H 191.749 -6.29051 2.55875 0
M  V30 2039 H 189.695 -6.5517 0.329984 0
M  V30 2040 H 189.612 -7.3225 1.88007 0
M  V30 2041 H 190.88 -7.75658 0.772956 0
M  V30 2042 N 195.109 -0.891671 -1.2995 0
M  V30 2043 C 196.334 -0.527932 -2.00568 0
M  V30 2044 C 196.759 0.877969 -1.66353 0
M  V30 2045 O 196.117 1.58301 -0.883762 0
M  V30 2046 C 196.165 -0.717745 -3.53385 0
M  V30 2047 O 195.269 0.233376 -4.11739 0
M  V30 2048 H 194.61 -0.20722 -0.630837 0
M  V30 2049 H 197.14 -1.20105 -1.65638 0
M  V30 2050 H 197.15 -0.619307 -4.03272 0
M  V30 2051 H 195.825 -1.74276 -3.77625 0
M  V30 2052 H 194.402 0.0880706 -3.72796 0
M  V30 2053 N 196.587 1.43421 -0.653314 0
M  V30 2054 C 197.517 2.33487 0.0246656 0
M  V30 2055 C 198.498 1.49475 0.811863 0
M  V30 2056 O 199.683 1.78139 0.773322 0
M  V30 2057 C 196.813 3.32841 0.99166 0
M  V30 2058 C 195.767 4.26842 0.314568 0
M  V30 2059 C 195.093 5.16236 1.39302 0
M  V30 2060 C 196.393 5.16243 -0.793095 0
M  V30 2061 H 198.087 2.90427 -0.727481 0
M  V30 2062 H 195.633 1.39649 -0.351287 0
M  V30 2063 H 197.586 3.94747 1.47487 0
M  V30 2064 H 196.31 2.74158 1.77497 0
M  V30 2065 H 194.969 3.663 -0.148199 0
M  V30 2066 H 194.617 4.53891 2.16776 0
M  V30 2067 H 194.317 5.79948 0.945223 0
M  V30 2068 H 195.841 5.81015 1.87759 0
M  V30 2069 H 197.255 5.71958 -0.392039 0
M  V30 2070 H 195.652 5.88676 -1.16536 0
M  V30 2071 H 196.722 4.55927 -1.65103 0
M  V30 2072 N 198.065 0.39524 1.52563 0
M  V30 2073 C 199.293 -0.184943 2.06072 0
M  V30 2074 C 199.708 -1.40021 1.26647 0
M  V30 2075 O 199.065 -1.79767 0.314672 0
M  V30 2076 C 199.116 -0.549179 3.57304 0
M  V30 2077 O 198.837 0.617813 4.33722 0
M  V30 2078 C 200.338 -1.18459 4.2718 0
M  V30 2079 H 197.558 -0.0265025 0.670476 0
M  V30 2080 H 200.102 0.562184 1.96621 0
M  V30 2081 H 198.257 -1.2462 3.66809 0
M  V30 2082 H 198.671 0.317091 5.23541 0
M  V30 2083 H 200.145 -1.38976 5.34219 0
M  V30 2084 H 200.622 -2.15368 3.82771 0
M  V30 2085 H 201.228 -0.528163 4.22008 0
M  V30 2086 N 199.544 -1.57102 0.125237 0
M  V30 2087 C 200.955 -1.82384 -0.399142 0
M  V30 2088 C 201.306 -1.04276 -1.66195 0
M  V30 2089 O 200.431 -0.281269 -2.14564 0
M  V30 2090 C 201.026 -3.30821 -0.730932 0
M  V30 2091 C 199.585 -3.56762 -1.19992 0
M  V30 2092 C 198.732 -2.7649 -0.211792 0
M  V30 2093 H 201.683 -1.54786 0.350277 0
M  V30 2094 H 201.704 -3.4579 -1.58775 0
M  V30 2095 H 201.216 -3.87643 0.188345 0
M  V30 2096 H 199.317 -3.05305 -2.13588 0
M  V30 2097 H 199.43 -4.65317 -1.14093 0
M  V30 2098 H 197.794 -2.4489 -0.700085 0
M  V30 2099 H 198.577 -3.36073 0.700691 0
M  V30 2100 N 201.022 0.148545 -1.56898 0
M  V30 2101 C 201.985 1.16736 -1.97244 0
M  V30 2102 C 202.985 1.35947 -0.858777 0
M  V30 2103 O 204.175 1.32966 -1.12542 0
M  V30 2104 C 201.307 2.52798 -2.28705 0
M  V30 2105 H 202.5 0.821279 -2.88435 0
M  V30 2106 H 200.053 0.391831 -1.51309 0
M  V30 2107 H 200.788 2.92381 -1.403 0
M  V30 2108 H 200.573 2.40216 -3.09901 0
M  V30 2109 H 202.063 3.26179 -2.60762 0
M  V30 2110 N 202.5 1.5196 0.417844 0
M  V30 2111 C 203.746 1.65836 1.16732 0
M  V30 2112 C 204.079 0.382881 1.90388 0
M  V30 2113 O 203.354 -0.618368 1.84408 0
M  V30 2114 C 203.637 2.87466 2.16876 0
M  V30 2115 C 203.49 4.25041 1.47174 0
M  V30 2116 C 204.809 3.04613 3.17646 0
M  V30 2117 H 201.928 0.603515 0.423011 0
M  V30 2118 H 204.57 1.84494 0.454105 0
M  V30 2119 H 202.72 2.71689 2.777 0
M  V30 2120 H 204.392 4.52527 0.895376 0
M  V30 2121 H 202.635 4.26843 0.773806 0
M  V30 2122 H 203.306 5.06176 2.20204 0
M  V30 2123 H 205.782 3.1923 2.66892 0
M  V30 2124 H 204.658 3.91247 3.8499 0
M  V30 2125 H 204.919 2.17541 3.84874 0
M  V30 2126 N 203.978 -0.674533 1.42435 0
M  V30 2127 C 205.389 -1.25514 1.38214 0
M  V30 2128 C 205.74 -1.96055 0.0755464 0
M  V30 2129 O 204.865 -2.00028 -0.8257 0
M  V30 2130 C 205.46 -2.28269 2.50357 0
M  V30 2131 C 204.019 -2.81856 2.49467 0
M  V30 2132 C 203.166 -1.56182 2.29134 0
M  V30 2133 H 206.117 -0.467902 1.51646 0
M  V30 2134 H 206.138 -3.10009 2.20624 0
M  V30 2135 H 205.65 -1.769 3.45439 0
M  V30 2136 H 203.751 -3.37346 1.58204 0
M  V30 2137 H 203.864 -3.30854 3.46515 0
M  V30 2138 H 202.228 -1.82761 1.774 0
M  V30 2139 H 203.011 -1.06778 3.26272 0
M  V30 2140 N 205.456 -1.28612 -0.910864 0
M  V30 2141 C 206.702 -1.16106 -1.66274 0
M  V30 2142 C 207.035 0.289113 -1.92036 0
M  V30 2143 O 206.31 1.21 -1.52281 0
M  V30 2144 C 206.593 -1.96309 -3.01885 0
M  V30 2145 C 206.446 -3.49405 -2.8326 0
M  V30 2146 C 207.765 -1.78076 -4.02463 0
M  V30 2147 H 204.884 -0.423152 -0.603417 0
M  V30 2148 H 207.526 -1.57961 -1.05586 0
M  V30 2149 H 205.676 -1.60742 -3.53687 0
M  V30 2150 H 207.348 -3.94894 -2.38446 0
M  V30 2151 H 205.591 -3.74893 -2.18261 0
M  V30 2152 H 206.262 -4.00784 -3.79574 0
M  V30 2153 H 208.738 -2.0912 -3.59733 0
M  V30 2154 H 207.614 -2.36561 -4.95308 0
M  V30 2155 H 207.875 -0.733008 -4.35981 0
M  V30 2156 N 206.934 1.1197 -1.10907 0
M  V30 2157 C 207.844 2.21433 -0.774896 0
M  V30 2158 C 208.86 1.72478 0.229657 0
M  V30 2159 O 210.036 2.01288 0.0672008 0
M  V30 2160 C 207.101 3.4602 -0.216986 0
M  V30 2161 C 206.162 4.09791 -1.27944 0
M  V30 2162 C 205.395 5.28431 -0.748055 0
M  V30 2163 O 205.618 5.68823 0.423833 0
M  V30 2164 O 204.552 5.82644 -1.51027 0
M  V30 2165 H 208.378 2.5242 -1.68873 0
M  V30 2166 H 205.963 1.20399 -0.884555 0
M  V30 2167 H 207.845 4.21304 0.090059 0
M  V30 2168 H 206.52 3.16698 0.669633 0
M  V30 2169 H 205.427 3.36265 -1.63941 0
M  V30 2170 H 206.76 4.4328 -2.13925 0
M  V30 2171 N 208.412 0.89855 1.29475 0
M  V30 2172 C 209.637 0.538561 2.00285 0
M  V30 2173 C 210.062 -0.869135 1.66816 0
M  V30 2174 O 209.42 -1.57831 0.892145 0
M  V30 2175 C 209.468 0.736475 3.52999 0
M  V30 2176 O 208.572 -0.211537 4.11857 0
M  V30 2177 H 207.913 0.210563 0.62973 0
M  V30 2178 H 210.443 1.20982 1.64998 0
M  V30 2179 H 210.453 0.640685 4.02938 0
M  V30 2180 H 209.128 1.76276 3.76696 0
M  V30 2181 H 207.705 -0.0682991 3.72837 0
M  V30 2182 N 209.89 -1.43072 0.660911 0
M  V30 2183 C 210.837 -2.30785 -0.0259884 0
M  V30 2184 C 211.807 -1.45184 -0.806888 0
M  V30 2185 O 212.992 -1.74041 -0.781943 0
M  V30 2186 C 210.132 -3.30861 -0.981067 0
M  V30 2187 C 209.245 -4.31558 -0.195458 0
M  V30 2188 C 208.38 -5.18712 -1.14503 0
M  V30 2189 C 207.419 -6.11097 -0.350299 0
M  V30 2190 N 206.556 -6.90849 -1.25186 0
M  V30 2191 H 211.396 -2.88975 0.727846 0
M  V30 2192 H 208.933 -1.42353 0.370682 0
M  V30 2193 H 210.891 -3.87399 -1.54849 0
M  V30 2194 H 209.521 -2.74304 -1.70169 0
M  V30 2195 H 208.573 -3.77252 0.488374 0
M  V30 2196 H 209.885 -4.9701 0.422176 0
M  V30 2197 H 209.039 -5.79914 -1.78284 0
M  V30 2198 H 207.778 -4.53404 -1.79656 0
M  V30 2199 H 206.783 -5.48976 0.300808 0
M  V30 2200 H 208.008 -6.7845 0.296941 0
M  V30 2201 H 205.954 -6.28182 -1.89005 0
M  V30 2202 H 205.871 -7.52854 -0.688971 0
M  V30 2203 H 207.139 -7.5655 -1.87757 0
M  V30 2204 N 211.368 -0.403325 -1.52352 0
M  V30 2205 C 212.779 0.0675782 -1.86578 0
M  V30 2206 C 213.13 1.44941 -1.32236 0
M  V30 2207 O 212.255 2.06112 -0.659307 0
M  V30 2208 C 212.85 0.129404 -3.38553 0
M  V30 2209 C 211.409 0.544629 -3.72439 0
M  V30 2210 C 210.556 -0.284551 -2.75836 0
M  V30 2211 H 213.507 -0.620631 -1.46061 0
M  V30 2212 H 213.528 0.94581 -3.68558 0
M  V30 2213 H 213.04 -0.87645 -3.78074 0
M  V30 2214 H 211.141 1.55734 -3.38493 0
M  V30 2215 H 211.254 0.293046 -4.78203 0
M  V30 2216 H 209.618 0.252258 -2.53448 0
M  V30 2217 H 210.401 -1.28865 -3.18196 0
M  V30 2218 N 212.846 1.57033 -0.133567 0
M  V30 2219 C 214.123 1.87256 0.56522 0
M  V30 2220 C 214.503 1.03726 1.83859 0
M  V30 2221 O 213.851 0.120247 2.28183 0
M  V30 2222 C 214.061 3.3865 0.843636 0
M  V30 2223 C 215.409 4.07574 1.19032 0
M  V30 2224 O 216.433 3.43752 0.933429 0
M  V30 2225 O 215.292 5.20259 1.67312 0
M  V30 2226 H 212.386 0.775678 0.286796 0
M  V30 2227 H 214.932 1.68855 -0.169168 0
M  V30 2228 H 213.704 3.91257 -0.0581149 0
M  V30 2229 H 213.327 3.62532 1.63268 0
M  V30 2230 N 214.325 -0.140222 1.56975 0
M  V30 2231 C 215.272 -1.17292 1.98774 0
M  V30 2232 C 216.242 -1.4232 0.856408 0
M  V30 2233 O 217.427 -1.54541 1.119 0
M  V30 2234 C 214.567 -2.49973 2.37923 0
M  V30 2235 C 213.68 -2.32062 3.64378 0
M  V30 2236 C 212.815 -3.57825 3.926 0
M  V30 2237 C 211.854 -3.3498 5.12303 0
M  V30 2238 N 210.991 -4.52891 5.36502 0
M  V30 2239 H 215.831 -0.809472 2.86795 0
M  V30 2240 H 213.368 -0.388237 1.41884 0
M  V30 2241 H 215.326 -3.27346 2.58652 0
M  V30 2242 H 213.956 -2.84252 1.52972 0
M  V30 2243 H 213.008 -1.45711 3.51387 0
M  V30 2244 H 214.32 -2.11145 4.51906 0
M  V30 2245 H 213.474 -4.43624 4.13863 0
M  V30 2246 H 212.213 -3.81753 3.03506 0
M  V30 2247 H 211.218 -2.4757 4.90906 0
M  V30 2248 H 212.443 -3.12444 6.02956 0
M  V30 2249 H 210.389 -4.76979 4.50363 0
M  V30 2250 H 210.306 -4.35001 6.18312 0
M  V30 2251 H 211.574 -5.39884 5.62268 0
M  V30 2252 N 215.803 -1.52179 -0.40978 0
M  V30 2253 C 217.214 -1.58377 -0.988615 0
M  V30 2254 C 217.565 -0.423879 -1.91566 0
M  V30 2255 O 216.69 0.455844 -2.11544 0
M  V30 2256 C 217.285 -2.87044 -1.79976 0
M  V30 2257 C 215.844 -2.95722 -2.32863 0
M  V30 2258 C 214.991 -2.53309 -1.12828 0
M  V30 2259 H 217.942 -1.57558 -0.190039 0
M  V30 2260 H 217.963 -2.7236 -2.65707 0
M  V30 2261 H 217.475 -3.71444 -1.12478 0
M  V30 2262 H 215.576 -2.15814 -3.03735 0
M  V30 2263 H 215.689 -3.99951 -2.63773 0
M  V30 2264 H 214.053 -2.07142 -1.48204 0
M  V30 2265 H 214.836 -3.40082 -0.46897 0
M  V30 2266 N 217.281 0.66697 -1.42791 0
M  V30 2267 C 218.506 1.46004 -1.47301 0
M  V30 2268 C 218.931 1.87894 -0.0880317 0
M  V30 2269 O 218.289 1.56502 0.915253 0
M  V30 2270 C 218.337 2.68031 -2.41229 0
M  V30 2271 O 217.441 3.6659 -1.88906 0
M  V30 2272 H 216.782 0.43832 -0.49877 0
M  V30 2273 H 219.312 0.817391 -1.87563 0
M  V30 2274 H 219.322 3.1601 -2.58073 0
M  V30 2275 H 217.997 2.36883 -3.41847 0
M  V30 2276 H 216.574 3.25661 -1.81656 0
M  V30 2277 N 218.759 1.29093 0.90403 0
M  V30 2278 C 220.007 1.16583 1.65085 0
M  V30 2279 C 220.328 -0.283933 1.92922 0
M  V30 2280 O 219.598 -1.19509 1.55224 0
M  V30 2281 H 218.178 0.428467 0.611903 0
M  V30 2282 H 220.84 1.61959 1.08422 0
M  V30 2283 H 219.936 1.71266 2.6091 0
M  V30 2284 N 220.237 -1.11381 1.11499 0
M  V30 2285 C 221.184 -2.17439 0.773887 0
M  V30 2286 C 222.154 -1.64132 -0.254899 0
M  V30 2287 O 223.339 -1.90345 -0.13168 0
M  V30 2288 C 220.479 -3.44373 0.223917 0
M  V30 2289 C 219.592 -4.1168 1.30934 0
M  V30 2290 C 218.727 -5.263 0.71984 0
M  V30 2291 C 217.766 -5.85493 1.78507 0
M  V30 2292 N 216.903 -6.91507 1.21502 0
M  V30 2293 H 221.743 -2.45962 1.68246 0
M  V30 2294 H 219.28 -1.20744 0.840191 0
M  V30 2295 H 221.238 -4.17047 -0.112921 0
M  V30 2296 H 219.868 -3.16232 -0.647851 0
M  V30 2297 H 218.92 -3.37073 1.76312 0
M  V30 2298 H 220.232 -4.51729 2.11524 0
M  V30 2299 H 219.386 -6.05785 0.333094 0
M  V30 2300 H 218.125 -4.87559 -0.117377 0
M  V30 2301 H 217.13 -5.04686 2.18111 0
M  V30 2302 H 218.355 -6.26301 2.62533 0
M  V30 2303 H 216.301 -6.54783 0.399455 0
M  V30 2304 H 216.218 -7.30214 1.95763 0
M  V30 2305 H 217.486 -7.74795 0.855181 0
M  V30 2306 N 221.715 -0.905404 -1.28997 0
M  V30 2307 C 222.94 -0.549175 -1.99997 0
M  V30 2308 C 223.365 0.860276 -1.67275 0
M  V30 2309 O 222.723 1.57355 -0.900502 0
M  V30 2310 C 222.771 -0.755185 -3.52604 0
M  V30 2311 O 221.875 0.189692 -4.11964 0
M  V30 2312 H 221.216 -0.213899 -0.628604 0
M  V30 2313 H 223.746 -1.21856 -1.64354 0
M  V30 2314 H 223.756 -0.662045 -4.02593 0
M  V30 2315 H 222.431 -1.78271 -3.75755 0
M  V30 2316 H 221.008 0.0485257 -3.72868 0
M  V30 2317 N 223.193 1.4272 -0.668489 0
M  V30 2318 C 224.441 2.01226 -0.187769 0
M  V30 2319 C 224.762 1.53092 1.2078 0
M  V30 2320 O 224.032 0.74993 1.80977 0
M  V30 2321 H 222.612 0.744041 -0.0664272 0
M  V30 2322 H 225.274 1.74723 -0.863583 0
M  V30 2323 H 224.37 3.11556 -0.184166 0
M  V30 2324 N 224.671 0.411399 1.52136 0
M  V30 2325 C 225.604 -0.457614 2.23565 0
M  V30 2326 C 226.582 -1.04613 1.24478 0
M  V30 2327 O 227.766 -1.09356 1.53536 0
M  V30 2328 C 224.893 -1.6354 2.96602 0
M  V30 2329 C 223.939 -1.17005 4.10137 0
M  V30 2330 S 224.772 -0.13333 5.35334 0
M  V30 2331 C 225.928 -1.31638 6.119 0
M  V30 2332 H 226.161 0.148883 2.96927 0
M  V30 2333 H 223.694 0.195713 1.53155 0
M  V30 2334 H 225.652 -2.31074 3.39286 0
M  V30 2335 H 224.313 -2.21324 2.22878 0
M  V30 2336 H 223.506 -2.05005 4.60422 0
M  V30 2337 H 223.108 -0.573319 3.6958 0
M  V30 2338 H 225.4 -2.23957 6.39413 0
M  V30 2339 H 226.343 -0.854014 7.02931 0
M  V30 2340 H 226.751 -1.54321 5.42997 0
M  V30 2341 N 226.149 -1.5696 0.141893 0
M  V30 2342 C 227.426 -1.87553 -0.555281 0
M  V30 2343 C 227.806 -1.04699 -1.83306 0
M  V30 2344 O 227.154 -0.132346 -2.28116 0
M  V30 2345 C 227.364 -3.39093 -0.825664 0
M  V30 2346 C 228.712 -4.08199 -1.16869 0
M  V30 2347 O 229.736 -3.44242 -0.915185 0
M  V30 2348 O 228.595 -5.21139 -1.6455 0
M  V30 2349 H 225.689 -0.777188 -0.282679 0
M  V30 2350 H 228.235 -1.68763 0.17812 0
M  V30 2351 H 227.007 -3.91221 0.0788633 0
M  V30 2352 H 226.63 -3.63393 -1.61343 0
M  V30 2353 N 227.627 0.131896 -1.57047 0
M  V30 2354 C 228.59 1.14638 -1.98471 0
M  V30 2355 C 229.59 1.35029 -0.873148 0
M  V30 2356 O 230.78 1.31764 -1.13946 0
M  V30 2357 C 227.912 2.50358 -2.31373 0
M  V30 2358 H 229.105 0.79064 -2.8929 0
M  V30 2359 H 226.658 0.375761 -1.51716 0
M  V30 2360 H 227.393 2.90876 -1.43393 0
M  V30 2361 H 227.178 2.36915 -3.12432 0
M  V30 2362 H 228.668 3.23395 -2.64207 0
M  V30 2363 N 229.106 1.52395 0.401703 0
M  V30 2364 C 230.069 1.75636 1.47257 0
M  V30 2365 C 231.069 0.62628 1.48103 0
M  V30 2366 O 232.259 0.894227 1.49497 0
M  V30 2367 C 229.391 1.84553 2.86624 0
M  V30 2368 H 230.584 2.71241 1.27938 0
M  V30 2369 H 228.137 1.42923 0.632662 0
M  V30 2370 H 228.872 0.908882 3.11303 0
M  V30 2371 H 228.657 2.66715 2.87412 0
M  V30 2372 H 230.147 2.04251 3.64241 0
M  V30 2373 N 230.584 -0.659388 1.43143 0
M  V30 2374 C 231.514 -1.78422 1.50625 0
M  V30 2375 C 232.495 -1.66216 0.361443 0
M  V30 2376 O 233.68 -1.85404 0.577834 0
M  V30 2377 C 230.81 -3.16815 1.42287 0
M  V30 2378 C 229.764 -3.43777 2.54954 0
M  V30 2379 C 229.09 -4.81905 2.31671 0
M  V30 2380 C 230.39 -3.39134 3.97222 0
M  V30 2381 H 232.084 -1.72417 2.44771 0
M  V30 2382 H 229.63 -0.828084 1.17808 0
M  V30 2383 H 231.583 -3.95253 1.46127 0
M  V30 2384 H 230.307 -3.23534 0.446435 0
M  V30 2385 H 228.966 -2.67707 2.50457 0
M  V30 2386 H 228.614 -4.85294 1.32284 0
M  V30 2387 H 228.314 -5.00906 3.07192 0
M  V30 2388 H 229.838 -5.62609 2.37284 0
M  V30 2389 H 231.252 -4.07518 4.03239 0
M  V30 2390 H 229.649 -3.69671 4.72719 0
M  V30 2391 H 230.719 -2.37426 4.22797 0
M  V30 2392 N 232.062 -1.29571 -0.897171 0
M  V30 2393 C 233.339 -1.08365 -1.62839 0
M  V30 2394 C 233.719 0.371331 -2.07808 0
M  V30 2395 O 233.067 1.3606 -1.83576 0
M  V30 2396 C 233.277 -2.0735 -2.80726 0
M  V30 2397 C 234.625 -2.38406 -3.51351 0
M  V30 2398 O 235.649 -2.05564 -2.90898 0
M  V30 2399 O 234.508 -2.9453 -4.60341 0
M  V30 2400 H 231.602 -0.415345 -0.715134 0
M  V30 2401 H 234.148 -1.40952 -0.945018 0
M  V30 2402 H 232.92 -3.05339 -2.44711 0
M  V30 2403 H 232.543 -1.75507 -3.56767 0
M  V30 2404 N 233.54 1.10788 -1.12088 0
M  V30 2405 C 234.817 1.79136 -0.785476 0
M  V30 2406 C 235.197 1.98246 0.725377 0
M  V30 2407 O 234.545 1.57258 1.65778 0
M  V30 2408 C 234.755 3.12375 -1.55636 0
M  V30 2409 C 236.103 3.8731 -1.74001 0
M  V30 2410 O 237.127 3.22085 -1.52117 0
M  V30 2411 O 235.986 5.04369 -2.10415 0
M  V30 2412 H 233.08 0.776226 -0.285311 0
M  V30 2413 H 235.626 1.1747 -1.2247 0
M  V30 2414 H 234.398 2.93863 -2.5838 0
M  V30 2415 H 234.021 3.81758 -1.11114 0
M  V30 2416 N 235.018 0.912232 1.28515 0
M  V30 2417 C 235.948 0.416403 2.29757 0
M  V30 2418 C 236.929 -0.515194 1.6211 0
M  V30 2419 O 238.114 -0.423253 1.89532 0
M  V30 2420 C 235.244 -0.34572 3.45575 0
M  V30 2421 C 234.198 0.496599 4.25109 0
M  V30 2422 C 233.524 -0.393771 5.33248 0
M  V30 2423 C 234.824 1.75307 4.92001 0
M  V30 2424 H 236.518 1.26249 2.7148 0
M  V30 2425 H 234.064 0.608515 1.30511 0
M  V30 2426 H 236.017 -0.703422 4.15488 0
M  V30 2427 H 234.741 -1.2257 3.02728 0
M  V30 2428 H 233.4 0.8368 3.56922 0
M  V30 2429 H 233.048 -1.27225 4.86644 0
M  V30 2430 H 232.748 0.166209 5.87365 0
M  V30 2431 H 234.272 -0.747389 6.06009 0
M  V30 2432 H 235.686 1.46437 5.54283 0
M  V30 2433 H 234.083 2.25534 5.56106 0
M  V30 2434 H 235.153 2.48176 4.16577 0
M  V30 2435 N 236.496 -1.42363 0.676048 0
M  V30 2436 C 237.745 -2.00745 0.196037 0
M  V30 2437 C 238.058 -1.54083 -1.20489 0
M  V30 2438 O 239.264 -2.04891 -1.78134 0
M  V30 2439 C 237.72 -3.58651 0.299616 0
M  V30 2440 C 237.328 -4.143 1.70468 0
M  V30 2441 C 239.072 -4.24326 -0.121619 0
M  V30 2442 C 236.979 -5.64574 1.76096 0
M  V30 2443 H 235.909 -0.750787 0.0695301 0
M  V30 2444 H 238.56 -1.63072 0.841412 0
M  V30 2445 H 236.942 -3.93833 -0.413673 0
M  V30 2446 H 238.116 -3.90575 2.44515 0
M  V30 2447 H 236.431 -3.61081 2.07387 0
M  V30 2448 H 239.028 -5.34607 -0.0997362 0
M  V30 2449 H 239.371 -3.99897 -1.15708 0
M  V30 2450 H 239.904 -3.94108 0.540706 0
M  V30 2451 H 236.643 -5.93804 2.77628 0
M  V30 2452 H 236.163 -5.90286 1.06406 0
M  V30 2453 H 237.842 -6.29013 1.51496 0
M  V30 2454 N 237.974 -0.419461 -1.51915 0
M  V30 2455 C 239.251 0.211999 -1.94448 0
M  V30 2456 C 239.631 1.61703 -1.35703 0
M  V30 2457 O 238.979 2.22102 -0.536931 0
M  V30 2458 C 239.189 0.207872 -3.4838 0
M  V30 2459 C 240.537 0.422192 -4.22496 0
M  V30 2460 O 241.561 0.286778 -3.55044 0
M  V30 2461 O 240.42 0.690009 -5.42126 0
M  V30 2462 H 237.514 0.139586 -0.815135 0
M  V30 2463 H 240.06 -0.476151 -1.62883 0
M  V30 2464 H 238.832 -0.775102 -3.83546 0
M  V30 2465 H 238.455 0.939688 -3.86336 0
M  V30 2466 N 239.452 1.56882 -0.150215 0
M  V30 2467 C 240.68 2.00593 0.506948 0
M  V30 2468 C 241.095 1.03033 1.58208 0
M  V30 2469 O 240.452 0.0278396 1.82479 0
M  V30 2470 C 240.503 3.44209 1.10465 0
M  V30 2471 O 240.224 4.3804 0.0724636 0
M  V30 2472 C 241.725 4.03214 1.84211 0
M  V30 2473 H 238.945 0.65795 0.13169 0
M  V30 2474 H 241.489 2.03018 -0.245743 0
M  V30 2475 H 239.644 3.42625 1.80795 0
M  V30 2476 H 240.058 5.22007 0.510793 0
M  V30 2477 H 241.532 5.0569 2.21318 0
M  V30 2478 H 242.009 3.44107 2.72923 0
M  V30 2479 H 242.615 4.08437 1.18572 0
M  V30 2480 N 240.93 -0.123565 1.57115 0
M  V30 2481 C 241.86 -1.15309 2.03042 0
M  V30 2482 C 242.841 -1.43454 0.914061 0
M  V30 2483 O 244.026 -1.53973 1.18347 0
M  V30 2484 C 241.156 -2.48043 2.43089 0
M  V30 2485 C 240.11 -2.3437 3.58127 0
M  V30 2486 C 239.436 -3.72026 3.84059 0
M  V30 2487 C 240.736 -1.80804 4.90007 0
M  V30 2488 H 242.43 -0.771102 2.893 0
M  V30 2489 H 239.976 -0.369479 1.39179 0
M  V30 2490 H 241.929 -3.20311 2.73823 0
M  V30 2491 H 240.653 -2.88122 1.53796 0
M  V30 2492 H 239.312 -1.64551 3.27595 0
M  V30 2493 H 238.96 -4.09582 2.91979 0
M  V30 2494 H 238.66 -3.63732 4.6149 0
M  V30 2495 H 240.184 -4.45806 4.1724 0
M  V30 2496 H 241.598 -2.42886 5.19307 0
M  V30 2497 H 239.995 -1.83343 5.71407 0
M  V30 2498 H 241.065 -0.76528 4.78823 0
M  V30 2499 N 242.408 -1.52605 -0.393616 0
M  V30 2500 C 243.656 -1.67093 -1.13685 0
M  V30 2501 C 243.977 -0.411011 -1.90619 0
M  V30 2502 O 243.247 0.574491 -1.87287 0
M  V30 2503 H 241.827 -0.615923 -0.422668 0
M  V30 2504 H 244.489 -1.89704 -0.447039 0
M  V30 2505 H 243.585 -2.51922 -1.84232 0
M  V30 2506 N 243.887 0.651787 -1.4349 0
M  V30 2507 C 245.135 1.40888 -1.44897 0
M  V30 2508 C 245.456 1.94856 -0.0749086 0
M  V30 2509 O 244.726 1.74518 0.889956 0
M  V30 2510 H 243.306 0.522887 -0.533478 0
M  V30 2511 H 245.968 0.768609 -1.79104 0
M  V30 2512 H 245.064 2.25052 -2.16236 0
M  V30 2513 N 245.365 1.30045 0.890287 0
M  V30 2514 C 246.776 1.16738 1.45702 0
M  V30 2515 C 247.127 -0.233939 1.948 0
M  V30 2516 O 246.252 -1.13021 1.84541 0
M  V30 2517 C 246.847 2.11313 2.64825 0
M  V30 2518 C 245.406 2.02001 3.17604 0
M  V30 2519 C 244.553 2.01699 1.90296 0
M  V30 2520 H 247.504 1.42392 0.700726 0
M  V30 2521 H 247.525 1.69086 3.40867 0
M  V30 2522 H 247.037 3.13294 2.2906 0
M  V30 2523 H 245.138 1.03142 3.5804 0
M  V30 2524 H 245.251 2.90128 3.81264 0
M  V30 2525 H 243.615 1.46427 2.08402 0
M  V30 2526 H 244.398 3.05402 1.56795 0
M  V30 2527 N 246.843 -1.10192 1.12674 0
M  V30 2528 C 247.753 -2.20172 0.810026 0
M  V30 2529 C 248.769 -1.72821 -0.202188 0
M  V30 2530 O 249.945 -2.01369 -0.0351691 0
M  V30 2531 C 247.01 -3.45631 0.272007 0
M  V30 2532 C 246.071 -4.07704 1.34447 0
M  V30 2533 C 245.304 -5.27175 0.832029 0
M  V30 2534 O 245.527 -5.69425 -0.333284 0
M  V30 2535 O 244.461 -5.80168 1.60277 0
M  V30 2536 H 248.287 -2.49701 1.72867 0
M  V30 2537 H 245.872 -1.18977 0.903597 0
M  V30 2538 H 247.754 -4.21394 -0.0230219 0
M  V30 2539 H 246.429 -3.17723 -0.619164 0
M  V30 2540 H 245.336 -3.33614 1.6927 0
M  V30 2541 H 246.669 -4.3982 2.2095 0
M  V30 2542 N 248.321 -0.919034 -1.28029 0
M  V30 2543 C 249.231 -0.416756 -2.30869 0
M  V30 2544 C 250.247 0.498235 -1.66714 0
M  V30 2545 O 251.423 0.383144 -1.97722 0
M  V30 2546 C 248.488 0.330274 -3.45123 0
M  V30 2547 C 247.549 -0.618578 -4.2482 0
M  V30 2548 C 246.782 0.0928959 -5.33619 0
M  V30 2549 O 247.005 1.31375 -5.55065 0
M  V30 2550 O 245.939 -0.574499 -5.99152 0
M  V30 2551 H 249.765 -1.27043 -2.75851 0
M  V30 2552 H 247.35 -0.684052 -1.3282 0
M  V30 2553 H 249.232 0.751972 -4.14636 0
M  V30 2554 H 247.907 1.1597 -3.02213 0
M  V30 2555 H 246.814 -1.08978 -3.57875 0
M  V30 2556 H 248.147 -1.41497 -4.71423 0
M  V30 2557 N 249.799 1.42003 -0.683588 0
M  V30 2558 C 251.027 2.05746 -0.218182 0
M  V30 2559 C 251.442 1.51396 1.12804 0
M  V30 2560 O 250.799 0.657303 1.70252 0
M  V30 2561 C 250.85 3.61171 -0.154131 0
M  V30 2562 O 250.571 4.13508 -1.44716 0
M  V30 2563 C 252.072 4.42042 0.333713 0
M  V30 2564 H 249.292 0.662888 -0.10402 0
M  V30 2565 H 251.836 1.81987 -0.9328 0
M  V30 2566 H 249.991 3.84012 0.511231 0
M  V30 2567 H 250.405 5.07453 -1.32632 0
M  V30 2568 H 251.879 5.51028 0.327423 0
M  V30 2569 H 252.356 4.17269 1.37053 0
M  V30 2570 H 252.962 4.24239 -0.300222 0
M  V30 2571 N 251.277 0.427512 1.51691 0
M  V30 2572 C 252.187 -0.39527 2.31246 0
M  V30 2573 C 253.203 -1.03674 1.39742 0
M  V30 2574 O 254.379 -1.03425 1.72816 0
M  V30 2575 C 251.444 -1.48706 3.13189 0
M  V30 2576 C 250.505 -0.866743 4.20459 0
M  V30 2577 C 249.738 -1.90651 4.98486 0
M  V30 2578 O 249.961 -3.12733 4.77026 0
M  V30 2579 O 248.895 -1.5025 5.82845 0
M  V30 2580 H 252.721 0.253918 3.02637 0
M  V30 2581 H 250.306 0.190274 1.48183 0
M  V30 2582 H 252.188 -2.12047 3.64162 0
M  V30 2583 H 250.863 -2.12051 2.44573 0
M  V30 2584 H 249.77 -0.195544 3.73589 0
M  V30 2585 H 251.103 -0.276934 4.9142 0
M  V30 2586 N 252.755 -1.56801 0.158532 0
M  V30 2587 C 253.665 -2.20916 -0.789518 0
M  V30 2588 C 254.681 -1.1969 -1.26294 0
M  V30 2589 O 255.857 -1.52308 -1.31773 0
M  V30 2590 C 252.922 -2.82727 -2.00665 0
M  V30 2591 C 251.983 -3.99114 -1.58134 0
M  V30 2592 C 251.216 -4.57968 -2.74045 0
M  V30 2593 O 251.439 -4.15704 -3.90572 0
M  V30 2594 O 250.373 -5.48047 -2.48855 0
M  V30 2595 H 254.199 -3.02464 -0.273681 0
M  V30 2596 H 251.784 -1.4924 -0.0690548 0
M  V30 2597 H 253.666 -3.21968 -2.71872 0
M  V30 2598 H 252.341 -2.04184 -2.51179 0
M  V30 2599 H 251.248 -3.64567 -0.839155 0
M  V30 2600 H 252.581 -4.79212 -1.12325 0
M  V30 2601 N 254.233 0.115231 -1.57178 0
M  V30 2602 C 255.143 1.15994 -2.03918 0
M  V30 2603 C 256.159 1.45103 -0.960268 0
M  V30 2604 O 257.335 1.56144 -1.27204 0
M  V30 2605 C 254.4 2.46568 -2.43732 0
M  V30 2606 C 253.461 2.24822 -3.65723 0
M  V30 2607 C 252.694 3.4917 -4.03629 0
M  V30 2608 O 252.917 4.56623 -3.41835 0
M  V30 2609 O 251.851 3.39949 -4.96708 0
M  V30 2610 H 255.677 0.793019 -2.93164 0
M  V30 2611 H 253.262 0.3263 -1.45793 0
M  V30 2612 H 255.144 3.23492 -2.70057 0
M  V30 2613 H 253.819 2.82726 -1.57631 0
M  V30 2614 H 252.726 1.45744 -3.44542 0
M  V30 2615 H 254.059 1.93566 -4.52541 0
M  V30 2616 N 255.711 1.52812 0.385517 0
M  V30 2617 C 256.659 1.78482 1.49155 0
M  V30 2618 C 257.653 0.652914 1.56312 0
M  V30 2619 O 258.859 0.835464 1.59436 0
M  V30 2620 H 255.234 0.5648 0.496493 0
M  V30 2621 H 257.205 2.71095 1.24699 0
M  V30 2622 C 255.954 1.97378 2.86247 0
M  V30 2623 H 255.277 2.83907 2.81491 0
M  V30 2624 H 256.717 2.19327 3.62866 0
M  V30 2625 C 255.176 0.74728 3.28508 0
M  V30 2626 O 255.706 -0.0736232 4.01633 0
M  V30 2627 N 253.912 0.576396 2.84826 0
M  V30 2628 H 253.459 1.24555 2.25486 0
M  V30 2629 H 253.417 -0.24288 3.1346 0
M  V30 2630 N 257.189 -0.644168 1.43834 0
M  V30 2631 C 258.417 -1.43147 1.49387 0
M  V30 2632 C 258.832 -1.88452 0.114583 0
M  V30 2633 O 258.189 -1.60047 -0.876989 0
M  V30 2634 C 258.24 -2.66046 2.44748 0
M  V30 2635 O 257.961 -2.22633 3.77314 0
M  V30 2636 C 259.462 -3.59311 2.59635 0
M  V30 2637 H 256.682 -0.439447 0.507077 0
M  V30 2638 H 259.226 -0.78895 1.88669 0
M  V30 2639 H 257.381 -3.26418 2.08638 0
M  V30 2640 H 257.795 -3.02216 4.28679 0
M  V30 2641 H 259.269 -4.42187 3.30416 0
M  V30 2642 H 259.746 -4.07259 1.64427 0
M  V30 2643 H 260.352 -3.04816 2.96593 0
M  V30 2644 N 258.668 -1.30515 -0.883378 0
M  V30 2645 C 259.896 -1.22359 -1.66841 0
M  V30 2646 C 260.311 0.213296 -1.87591 0
M  V30 2647 O 259.668 1.14075 -1.42454 0
M  V30 2648 C 259.719 -1.95011 -3.04389 0
M  V30 2649 O 259.44 -3.3309 -2.84575 0
M  V30 2650 C 260.941 -1.93532 -3.98824 0
M  V30 2651 H 258.161 -0.423371 -0.520575 0
M  V30 2652 H 260.705 -1.72167 -1.10357 0
M  V30 2653 H 258.86 -1.48997 -3.57601 0
M  V30 2654 H 259.274 -3.69907 -3.71846 0
M  V30 2655 H 260.748 -2.48902 -4.92699 0
M  V30 2656 H 261.225 -0.914627 -4.29571 0
M  V30 2657 H 261.831 -2.39364 -3.51547 0
M  V30 2658 N 260.146 1.09593 -1.13257 0
M  V30 2659 C 261.376 1.85231 -0.915049 0
M  V30 2660 C 261.784 1.81345 0.539498 0
M  V30 2661 O 261.127 1.20664 1.38513 0
M  V30 2662 C 261.189 3.34275 -1.3229 0
M  V30 2663 C 260.853 3.6191 -2.79052 0
M  V30 2664 C 261.85 3.57777 -3.77216 0
M  V30 2665 C 259.535 3.90309 -3.16171 0
M  V30 2666 C 261.529 3.81652 -5.1051 0
M  V30 2667 C 259.216 4.13839 -4.49644 0
M  V30 2668 C 260.214 4.09502 -5.46623 0
M  V30 2669 O 259.902 4.32426 -6.77689 0
M  V30 2670 H 259.634 0.591997 -0.326367 0
M  V30 2671 H 262.188 1.394 -1.50854 0
M  V30 2672 H 260.418 3.80805 -0.672667 0
M  V30 2673 H 262.107 3.9132 -1.07812 0
M  V30 2674 H 262.873 3.35865 -3.49885 0
M  V30 2675 H 258.752 3.92811 -2.41289 0
M  V30 2676 H 262.296 3.78182 -5.86195 0
M  V30 2677 H 258.193 4.35232 -4.767 0
M  V30 2678 H 258.961 4.49896 -6.83766 0
M  V30 2679 N 261.624 0.925811 1.2754 0
M  V30 2680 C 262.852 0.581509 1.9856 0
M  V30 2681 C 263.267 -0.840041 1.69082 0
M  V30 2682 O 262.624 -1.55805 0.950312 0
M  V30 2683 C 262.675 0.795589 3.52637 0
M  V30 2684 O 262.396 2.16121 3.81082 0
M  V30 2685 C 263.897 0.459744 4.4091 0
M  V30 2686 H 261.117 0.220538 0.633722 0
M  V30 2687 H 263.661 1.24232 1.6244 0
M  V30 2688 H 261.816 0.18161 3.86974 0
M  V30 2689 H 262.23 2.2098 4.75676 0
M  V30 2690 H 263.704 0.660244 5.48037 0
M  V30 2691 H 264.181 -0.604625 4.35018 0
M  V30 2692 H 264.787 1.05178 4.12089 0
M  V30 2693 N 263.102 -1.41638 0.69111 0
M  V30 2694 C 264.35 -2.00902 0.219758 0
M  V30 2695 C 264.671 -1.54994 -1.18329 0
M  V30 2696 O 263.941 -0.778628 -1.79762 0
M  V30 2697 H 262.521 -0.74289 0.0782558 0
M  V30 2698 H 265.183 -1.73327 0.891271 0
M  V30 2699 H 264.279 -3.11224 0.233708 0
M  V30 2700 N 264.58 -0.43555 -1.51462 0
M  V30 2701 C 265.991 0.0279871 -1.86679 0
M  V30 2702 C 266.342 1.42104 -1.35281 0
M  V30 2703 O 265.467 2.04667 -0.702878 0
M  V30 2704 C 266.062 0.0575626 -3.38751 0
M  V30 2705 C 264.621 0.465507 -3.7351 0
M  V30 2706 C 263.768 -0.342996 -2.75171 0
M  V30 2707 H 266.719 -0.651473 -1.44712 0
M  V30 2708 H 266.74 0.867421 -3.70481 0
M  V30 2709 H 266.252 -0.956448 -3.7613 0
M  V30 2710 H 264.353 1.48519 -3.41721 0
M  V30 2711 H 264.466 0.191546 -4.78717 0
M  V30 2712 H 262.83 0.198442 -2.53926 0
M  V30 2713 H 263.613 -1.35585 -3.15391 0
M  V30 2714 N 266.058 1.56714 -0.166846 0
M  V30 2715 C 266.968 2.21331 0.777791 0
M  V30 2716 C 267.984 1.20358 1.25658 0
M  V30 2717 O 269.16 1.53005 1.30964 0
M  V30 2718 C 266.225 2.83787 1.99163 0
M  V30 2719 C 265.286 3.99947 1.56016 0
M  V30 2720 C 264.519 4.59415 2.71613 0
M  V30 2721 O 264.742 4.17769 3.88362 0
M  V30 2722 O 263.676 5.49359 2.45945 0
M  V30 2723 H 267.502 3.02605 0.257636 0
M  V30 2724 H 265.087 1.49275 0.0611393 0
M  V30 2725 H 266.969 3.23405 2.70161 0
M  V30 2726 H 265.644 2.05513 2.50092 0
M  V30 2727 H 264.551 3.65007 0.819809 0
M  V30 2728 H 265.884 4.79801 1.09782 0
M  V30 2729 N 267.536 -0.106894 1.57237 0
M  V30 2730 C 268.782 -0.81373 1.85759 0
M  V30 2731 C 269.115 -1.78952 0.754315 0
M  V30 2732 O 268.39 -1.93029 -0.23879 0
M  V30 2733 C 268.673 -1.55293 3.24894 0
M  V30 2734 C 268.526 -0.595929 4.45835 0
M  V30 2735 C 269.845 -2.5063 3.61763 0
M  V30 2736 H 266.964 -0.294369 0.67566 0
M  V30 2737 H 269.606 -0.0776472 1.89841 0
M  V30 2738 H 267.756 -2.1804 3.21544 0
M  V30 2739 H 269.428 0.0236262 4.61294 0
M  V30 2740 H 267.671 0.0916191 4.33703 0
M  V30 2741 H 268.342 -1.15004 5.39887 0
M  V30 2742 H 270.818 -1.97982 3.65981 0
M  V30 2743 H 269.694 -2.99376 4.60071 0
M  V30 2744 H 269.955 -3.3385 2.89821 0
M  V30 2745 N 269.014 -1.53014 -0.377408 0
M  V30 2746 C 270.239 -1.72818 -1.14668 0
M  V30 2747 C 270.664 -0.450725 -1.8262 0
M  V30 2748 O 270.022 0.59439 -1.7128 0
M  V30 2749 C 270.07 -2.88627 -2.16164 0
M  V30 2750 O 269.174 -2.56409 -3.22998 0
M  V30 2751 H 268.515 -0.574301 -0.333278 0
M  V30 2752 H 271.045 -1.99853 -0.438152 0
M  V30 2753 H 271.055 -3.14455 -2.59966 0
M  V30 2754 H 269.73 -3.81294 -1.66095 0
M  V30 2755 H 268.307 -2.4136 -2.84253 0
M  V30 2756 N 270.492 0.636531 -1.44174 0
M  V30 2757 C 271.769 1.39463 -1.37148 0
M  V30 2758 C 272.149 2.11082 -0.027507 0
M  V30 2759 O 271.497 2.05954 0.989716 0
M  V30 2760 C 271.707 2.36552 -2.56601 0
M  V30 2761 C 273.055 3.00048 -3.00427 0
M  V30 2762 O 274.079 2.46878 -2.56767 0
M  V30 2763 O 272.938 3.96488 -3.76111 0
M  V30 2764 H 270.032 0.623903 -0.542839 0
M  V30 2765 H 272.578 0.662039 -1.56253 0
M  V30 2766 H 271.35 1.82692 -3.46034 0
M  V30 2767 H 270.973 3.17236 -2.39681 0
M  V30 2768 N 271.97 1.30982 0.876444 0
M  V30 2769 C 273.381 1.18277 1.44456 0
M  V30 2770 C 273.732 -0.213265 1.95037 0
M  V30 2771 O 272.857 -1.11057 1.85729 0
M  V30 2772 C 273.452 2.1411 2.62569 0
M  V30 2773 C 272.011 2.05358 3.15444 0
M  V30 2774 C 271.158 2.03706 1.88146 0
M  V30 2775 H 274.109 1.43127 0.685584 0
M  V30 2776 H 274.13 1.72692 3.39054 0
M  V30 2777 H 273.642 3.15706 2.25724 0
M  V30 2778 H 271.743 1.06934 3.56926 0
M  V30 2779 H 271.856 2.94156 3.78166 0
M  V30 2780 H 270.22 1.48629 2.06837 0
M  V30 2781 H 271.003 3.07047 1.53547 0
M  V30 2782 N 273.449 -1.08991 1.13837 0
M  V30 2783 C 274.382 -2.15049 0.763477 0
M  V30 2784 C 275.36 -1.60629 -0.252398 0
M  V30 2785 O 276.544 -1.87958 -0.142853 0
M  V30 2786 C 273.671 -3.38441 0.132545 0
M  V30 2787 C 272.717 -4.11596 1.11763 0
M  V30 2788 S 273.55 -4.6521 2.65216 0
M  V30 2789 C 274.706 -5.91896 2.03495 0
M  V30 2790 H 274.939 -2.46518 1.66182 0
M  V30 2791 H 272.472 -1.21008 0.958976 0
M  V30 2792 H 274.43 -4.09883 -0.225074 0
M  V30 2793 H 273.091 -3.05182 -0.743135 0
M  V30 2794 H 272.284 -5.00121 0.624076 0
M  V30 2795 H 271.886 -3.46038 1.41894 0
M  V30 2796 H 274.178 -6.63156 1.38675 0
M  V30 2797 H 275.121 -6.45938 2.9012 0
M  V30 2798 H 275.529 -5.44625 1.48471 0
M  V30 2799 N 274.927 -0.932562 -1.27047 0
M  V30 2800 C 276.152 -0.591474 -1.98787 0
M  V30 2801 C 276.577 0.824601 -1.69062 0
M  V30 2802 O 275.935 1.5541 -0.933677 0
M  V30 2803 C 275.983 -0.829808 -3.50922 0
M  V30 2804 O 275.087 0.102266 -4.12273 0
M  V30 2805 H 274.428 -0.227185 -0.623926 0
M  V30 2806 H 276.958 -1.25314 -1.61733 0
M  V30 2807 H 276.968 -0.747292 -4.01098 0
M  V30 2808 H 275.643 -1.86201 -3.7189 0
M  V30 2809 H 274.22 -0.0305761 -3.72887 0
M  V30 2810 N 276.405 1.4127 -0.698611 0
M  V30 2811 C 277.63 2.06024 -0.238512 0
M  V30 2812 C 278.055 1.5224 1.10475 0
M  V30 2813 O 277.413 0.650623 1.69223 0
M  V30 2814 C 277.461 3.59988 -0.209952 0
M  V30 2815 O 276.565 4.04282 0.814235 0
M  V30 2816 H 275.906 0.653829 -0.115775 0
M  V30 2817 H 278.436 1.8098 -0.954326 0
M  V30 2818 H 278.446 4.07979 -0.0418436 0
M  V30 2819 H 277.121 3.98503 -1.1903 0
M  V30 2820 H 275.698 3.6779 0.615234 0
M  V30 2821 N 277.883 0.443576 1.51229 0
M  V30 2822 C 279.111 -0.11929 2.06556 0
M  V30 2823 C 279.526 -1.35921 1.31038 0
M  V30 2824 O 278.883 -1.78675 0.371704 0
M  V30 2825 C 278.934 -0.435228 3.5887 0
M  V30 2826 O 278.655 0.755486 4.31537 0
M  V30 2827 C 280.156 -1.04808 4.30732 0
M  V30 2828 H 277.376 -0.0051584 0.67098 0
M  V30 2829 H 279.92 0.624453 1.94733 0
M  V30 2830 H 278.075 -1.12887 3.70588 0
M  V30 2831 H 278.489 0.483491 5.22267 0
M  V30 2832 H 279.963 -1.2191 5.3837 0
M  V30 2833 H 280.44 -2.03081 3.89429 0
M  V30 2834 H 281.046 -0.393637 4.23474 0
M  V30 2835 N 279.361 -1.56624 0.175154 0
M  V30 2836 C 280.591 -2.01082 -0.474283 0
M  V30 2837 C 280.999 -1.05447 -1.57091 0
M  V30 2838 O 280.342 -0.0480595 -1.83637 0
M  V30 2839 C 280.404 -3.41963 -1.10911 0
M  V30 2840 C 280.068 -4.56742 -0.153666 0
M  V30 2841 C 281.065 -5.16076 0.629448 0
M  V30 2842 C 278.75 -5.02277 -0.0483776 0
M  V30 2843 C 280.744 -6.19377 1.50501 0
M  V30 2844 C 278.431 -6.05427 0.830768 0
M  V30 2845 C 279.429 -6.63849 1.60605 0
M  V30 2846 O 279.117 -7.64998 2.47049 0
M  V30 2847 H 278.849 -0.664261 -0.125432 0
M  V30 2848 H 281.403 -2.03549 0.275163 0
M  V30 2849 H 279.633 -3.36422 -1.90676 0
M  V30 2850 H 281.322 -3.70352 -1.66114 0
M  V30 2851 H 282.088 -4.81776 0.558297 0
M  V30 2852 H 277.967 -4.56513 -0.641611 0
M  V30 2853 H 281.511 -6.64906 2.1106 0
M  V30 2854 H 277.408 -6.39151 0.903107 0
M  V30 2855 H 278.176 -7.82336 2.40607 0
M  V30 2856 N 280.839 0.0985539 -1.57292 0
M  V30 2857 C 282.088 0.801358 -1.85098 0
M  V30 2858 C 282.401 1.80066 -0.763902 0
M  V30 2859 O 283.607 2.55112 -0.928981 0
M  V30 2860 C 282.063 1.47599 -3.28242 0
M  V30 2861 C 281.671 0.516624 -4.45011 0
M  V30 2862 C 283.415 2.16272 -3.65276 0
M  V30 2863 C 281.322 1.19564 -5.79188 0
M  V30 2864 H 280.252 0.303022 -0.69043 0
M  V30 2865 H 282.903 0.0542623 -1.8342 0
M  V30 2866 H 281.285 2.27042 -3.2445 0
M  V30 2867 H 282.459 -0.246065 -4.60143 0
M  V30 2868 H 280.774 -0.064227 -4.1635 0
M  V30 2869 H 283.371 2.67802 -4.62803 0
M  V30 2870 H 283.714 2.95009 -2.93727 0
M  V30 2871 H 284.247 1.43693 -3.70941 0
M  V30 2872 H 280.986 0.449157 -6.53959 0
M  V30 2873 H 280.506 1.92984 -5.67906 0
M  V30 2874 H 282.185 1.7231 -6.23633 0
M  V30 2875 N 282.317 1.53212 0.369288 0
M  V30 2876 C 283.227 1.82342 1.47609 0
M  V30 2877 C 284.243 0.711532 1.58787 0
M  V30 2878 O 285.419 1.0012 1.74751 0
M  V30 2879 C 282.484 2.00393 2.8292 0
M  V30 2880 C 281.545 3.24297 2.81301 0
M  V30 2881 C 280.778 3.41478 4.10157 0
M  V30 2882 O 281.001 2.63033 5.06132 0
M  V30 2883 O 279.935 4.34817 4.16194 0
M  V30 2884 H 283.761 2.76366 1.25918 0
M  V30 2885 H 281.346 1.38547 0.559034 0
M  V30 2886 H 283.228 2.13859 3.63101 0
M  V30 2887 H 281.903 1.09559 3.04596 0
M  V30 2888 H 280.81 3.16257 1.99831 0
M  V30 2889 H 282.143 4.15041 2.64578 0
M  V30 2890 N 283.795 -0.628877 1.44509 0
M  V30 2891 C 284.705 -1.7694 1.54044 0
M  V30 2892 C 285.721 -1.68705 0.425987 0
M  V30 2893 O 286.897 -1.89442 0.683656 0
M  V30 2894 C 283.962 -3.13332 1.48405 0
M  V30 2895 C 283.023 -3.33181 2.70719 0
M  V30 2896 C 282.256 -4.63067 2.6534 0
M  V30 2897 O 282.479 -5.44017 1.71469 0
M  V30 2898 O 281.413 -4.85167 3.56226 0
M  V30 2899 H 285.239 -1.71848 2.50403 0
M  V30 2900 H 282.824 -0.790378 1.26781 0
M  V30 2901 H 284.706 -3.94634 1.47791 0
M  V30 2902 H 283.381 -3.1896 0.551898 0
M  V30 2903 H 282.288 -2.51549 2.769 0
M  V30 2904 H 283.621 -3.32416 3.62988 0
M  V30 2905 N 285.273 -1.31445 -0.869486 0
M  V30 2906 C 286.203 -1.21727 -1.99261 0
M  V30 2907 C 287.184 -0.104359 -1.6978 0
M  V30 2908 O 288.369 -0.289038 -1.92037 0
M  V30 2909 C 285.499 -0.924317 -3.34774 0
M  V30 2910 C 284.453 -1.99685 -3.78563 0
M  V30 2911 C 283.779 -1.55658 -5.11541 0
M  V30 2912 C 285.079 -3.41003 -3.95619 0
M  V30 2913 H 286.773 -2.1569 -2.07649 0
M  V30 2914 H 284.319 -1.03839 -0.997675 0
M  V30 2915 H 286.272 -0.842934 -4.12883 0
M  V30 2916 H 284.996 0.0509793 -3.2656 0
M  V30 2917 H 283.655 -2.06813 -3.02694 0
M  V30 2918 H 283.303 -0.569132 -4.9977 0
M  V30 2919 H 283.003 -2.27409 -5.41811 0
M  V30 2920 H 284.527 -1.48928 -5.92159 0
M  V30 2921 H 285.941 -3.36547 -4.64122 0
M  V30 2922 H 284.338 -4.10975 -4.37286 0
M  V30 2923 H 285.408 -3.81754 -2.98985 0
M  V30 2924 N 286.751 1.08385 -1.14413 0
M  V30 2925 C 287.999 1.80419 -0.910679 0
M  V30 2926 C 288.32 1.86658 0.564243 0
M  V30 2927 O 287.59 1.35985 1.41014 0
M  V30 2928 H 286.17 0.668204 -0.333934 0
M  V30 2929 H 288.832 1.31037 -1.44275 0
M  V30 2930 H 287.928 2.83238 -1.31082 0
M  V30 2931 N 288.23 0.939286 1.26551 0
M  V30 2932 C 289.177 0.446088 2.26448 0
M  V30 2933 C 290.147 -0.493234 1.58608 0
M  V30 2934 O 291.332 -0.409857 1.86346 0
M  V30 2935 C 288.472 -0.284375 3.43926 0
M  V30 2936 C 287.585 0.690399 4.26448 0
M  V30 2937 C 286.72 -0.0610712 5.31165 0
M  V30 2938 C 285.759 0.905649 6.05363 0
M  V30 2939 N 284.896 0.186055 7.01853 0
M  V30 2940 H 289.736 1.30291 2.68008 0
M  V30 2941 H 287.273 0.65371 1.31776 0
M  V30 2942 H 289.231 -0.724313 4.10864 0
M  V30 2943 H 287.861 -1.10535 3.03285 0
M  V30 2944 H 286.913 1.24885 3.59316 0
M  V30 2945 H 288.225 1.42873 4.779 0
M  V30 2946 H 287.379 -0.56038 6.04106 0
M  V30 2947 H 286.118 -0.832297 4.80546 0
M  V30 2948 H 285.123 1.4161 5.3125 0
M  V30 2949 H 286.348 1.67685 6.58072 0
M  V30 2950 H 284.294 -0.566714 6.53548 0
M  V30 2951 H 284.211 0.863752 7.51049 0
M  V30 2952 H 285.479 -0.292221 7.78952 0
M  V30 2953 N 289.708 -1.40897 0.706093 0
M  V30 2954 C 291.124 -1.55042 0.37869 0
M  V30 2955 C 291.324 -1.67944 -1.11342 0
M  V30 2956 O 290.38 -1.66372 -1.89938 0
M  V30 2957 C 291.693 -2.78398 1.13643 0
M  V30 2958 C 293.241 -2.92206 1.12181 0
M  V30 2959 C 293.716 -4.18463 1.86152 0
M  V30 2960 N 295.207 -4.25443 1.83173 0
M  V30 2961 C 295.942 -5.2202 2.37239 0
M  V30 2962 N 295.438 -6.24563 2.99821 0
M  V30 2963 N 297.231 -5.14033 2.27435 0
M  V30 2964 H 289.382 -1.30769 1.67372 0
M  V30 2965 H 291.645 -0.631653 0.706907 0
M  V30 2966 H 291.351 -2.7511 2.19106 0
M  V30 2967 H 291.225 -3.70228 0.721853 0
M  V30 2968 H 293.612 -2.95004 0.0754171 0
M  V30 2969 H 293.693 -2.01521 1.57554 0
M  V30 2970 H 293.337 -4.16427 2.90776 0
M  V30 2971 H 293.267 -5.08141 1.38206 0
M  V30 2972 H 295.758 -3.51976 1.37556 0
M  V30 2973 H 296.071 -6.94665 3.38616 0
M  V30 2974 H 294.416 -6.25035 3.03902 0
M  V30 2975 H 297.607 -4.3285 1.78208 0
M  V30 2976 H 297.78 -5.89129 2.69873 0
M  V30 2977 N 291.186 -0.45159 -1.50991 0
M  V30 2978 C 292.096 0.358431 -2.31846 0
M  V30 2979 C 293.112 1.01438 -1.41373 0
M  V30 2980 O 294.288 1.00663 -1.74439 0
M  V30 2981 C 291.353 1.43704 -3.15515 0
M  V30 2982 C 290.414 0.799742 -4.21785 0
M  V30 2983 C 289.647 1.82696 -5.01456 0
M  V30 2984 O 289.87 3.05105 -4.81941 0
M  V30 2985 O 288.804 1.40958 -5.85162 0
M  V30 2986 H 292.63 -0.302032 -3.02194 0
M  V30 2987 H 290.215 -0.213825 -1.47862 0
M  V30 2988 H 292.097 2.06227 -3.67489 0
M  V30 2989 H 290.772 2.08133 -2.47916 0
M  V30 2990 H 289.679 0.136084 -3.73852 0
M  V30 2991 H 291.012 0.198718 -4.91799 0
M  V30 2992 N 292.664 1.56529 -0.183458 0
M  V30 2993 C 293.91 1.97537 0.459036 0
M  V30 2994 C 294.243 1.06989 1.62071 0
M  V30 2995 O 293.518 0.11948 1.94133 0
M  V30 2996 C 293.801 3.47874 0.930368 0
M  V30 2997 C 293.654 4.492 -0.232317 0
M  V30 2998 C 294.973 4.01612 1.79989 0
M  V30 2999 H 292.092 0.718204 0.165383 0
M  V30 3000 H 294.734 1.88042 -0.272038 0
M  V30 3001 H 292.884 3.56095 1.55333 0
M  V30 3002 H 294.556 4.53027 -0.86972 0
M  V30 3003 H 292.799 4.24657 -0.885928 0
M  V30 3004 H 293.47 5.51823 0.139796 0
M  V30 3005 H 295.946 3.96097 1.27461 0
M  V30 3006 H 294.822 5.07195 2.09867 0
M  V30 3007 H 295.083 3.46163 2.74998 0
M  V30 3008 N 294.142 -0.090211 1.57342 0
M  V30 3009 C 295.37 -0.806224 1.90546 0
M  V30 3010 C 295.785 -1.72041 0.777644 0
M  V30 3011 O 295.142 -1.80778 -0.250103 0
M  V30 3012 C 295.193 -1.61546 3.23396 0
M  V30 3013 O 294.914 -0.738043 4.31839 0
M  V30 3014 C 296.415 -2.4341 3.70495 0
M  V30 3015 H 293.635 -0.230256 0.630257 0
M  V30 3016 H 296.179 -0.0659843 2.04394 0
M  V30 3017 H 294.334 -2.30816 3.11131 0
M  V30 3018 H 294.748 -1.29901 5.08159 0
M  V30 3019 H 296.222 -2.95676 4.66133 0
M  V30 3020 H 296.699 -3.22098 2.98579 0
M  V30 3021 H 297.305 -1.79331 3.85643 0
M  V30 3022 N 295.62 -1.53406 -0.361157 0
M  V30 3023 C 296.869 -1.69022 -1.10066 0
M  V30 3024 C 297.182 -0.450838 -1.90333 0
M  V30 3025 O 298.388 -0.487617 -2.67085 0
M  V30 3026 C 296.844 -2.98812 -2.00598 0
M  V30 3027 C 296.452 -4.30027 -1.25621 0
M  V30 3028 C 298.196 -3.23795 -2.74513 0
M  V30 3029 C 296.103 -5.50903 -2.1508 0
M  V30 3030 H 295.033 -0.629776 -0.414606 0
M  V30 3031 H 297.684 -1.79907 -0.361348 0
M  V30 3032 H 296.066 -2.8174 -2.78278 0
M  V30 3033 H 297.24 -4.57745 -0.529739 0
M  V30 3034 H 295.555 -4.11522 -0.635496 0
M  V30 3035 H 298.152 -4.11289 -3.41681 0
M  V30 3036 H 298.495 -2.40045 -3.40123 0
M  V30 3037 H 299.028 -3.41561 -2.03914 0
M  V30 3038 H 295.767 -6.37143 -1.54041 0
M  V30 3039 H 295.287 -5.27459 -2.85565 0
M  V30 3040 H 296.966 -5.85865 -2.74538 0
M  V30 3041 N 297.098 0.621204 -1.44841 0
M  V30 3042 C 298.509 1.20298 -1.42777 0
M  V30 3043 C 298.86 1.95639 -0.148259 0
M  V30 3044 O 297.985 2.02955 0.750892 0
M  V30 3045 C 298.58 2.1882 -2.58657 0
M  V30 3046 C 297.139 2.72403 -2.59756 0
M  V30 3047 C 296.286 1.4757 -2.34773 0
M  V30 3048 H 299.237 0.411297 -1.53278 0
M  V30 3049 H 299.258 3.01607 -2.31977 0
M  V30 3050 H 298.77 1.63957 -3.51766 0
M  V30 3051 H 296.871 3.31242 -1.70615 0
M  V30 3052 H 296.984 3.17765 -3.58556 0
M  V30 3053 H 295.348 1.76051 -1.8406 0
M  V30 3054 H 296.131 0.945954 -3.3001 0
M  V30 3055 N 298.576 1.31904 0.862503 0
M  V30 3056 C 299.987 1.19803 1.43193 0
M  V30 3057 C 300.338 -0.192567 1.95253 0
M  V30 3058 O 299.463 -1.09081 1.86896 0
M  V30 3059 C 300.058 2.16883 2.60283 0
M  V30 3060 C 298.617 2.08692 3.13248 0
M  V30 3061 C 297.764 2.05691 1.85975 0
M  V30 3062 H 300.715 1.43846 0.670365 0
M  V30 3063 H 300.736 1.76278 3.37204 0
M  V30 3064 H 300.248 3.18083 2.22363 0
M  V30 3065 H 298.349 1.10713 3.55771 0
M  V30 3066 H 298.462 2.9815 3.75025 0
M  V30 3067 H 296.826 1.50814 2.05249 0
M  V30 3068 H 297.609 3.08659 1.50282 0
M  V30 3069 N 300.054 -1.07777 1.14986 0
M  V30 3070 C 301.001 -2.14867 0.842672 0
M  V30 3071 C 301.971 -1.6486 -0.202552 0
M  V30 3072 O 303.156 -1.90668 -0.0710568 0
M  V30 3073 C 300.296 -3.43486 0.333363 0
M  V30 3074 C 299.409 -4.07306 1.43965 0
M  V30 3075 C 298.544 -5.23744 0.886914 0
M  V30 3076 C 297.583 -5.79517 1.97043 0
M  V30 3077 N 296.72 -6.87291 1.4344 0
M  V30 3078 H 301.56 -2.40485 1.75986 0
M  V30 3079 H 299.097 -1.1801 0.878179 0
M  V30 3080 H 301.055 -4.17195 0.0198163 0
M  V30 3081 H 299.685 -3.18133 -0.546916 0
M  V30 3082 H 298.737 -3.31293 1.86946 0
M  V30 3083 H 300.049 -4.44771 2.25788 0
M  V30 3084 H 299.203 -6.04419 0.525651 0
M  V30 3085 H 297.942 -4.87685 0.0377957 0
M  V30 3086 H 296.947 -4.97491 2.34057 0
M  V30 3087 H 298.172 -6.17632 2.82325 0
M  V30 3088 H 296.118 -6.5318 0.607567 0
M  V30 3089 H 296.035 -7.23617 2.18895 0
M  V30 3090 H 297.303 -7.71682 1.10124 0
M  V30 3091 N 301.532 -0.945985 -1.26051 0
M  V30 3092 C 302.762 -0.612136 -1.97323 0
M  V30 3093 C 303.17 0.818171 -1.70595 0
M  V30 3094 O 302.513 1.55777 -0.973613 0
M  V30 3095 C 302.575 -0.780347 -3.50929 0
M  V30 3096 C 302.239 -2.18619 -4.01317 0
M  V30 3097 C 303.236 -3.16209 -4.12683 0
M  V30 3098 C 300.921 -2.50805 -4.35203 0
M  V30 3099 C 302.915 -4.44085 -4.57238 0
M  V30 3100 C 300.602 -3.78912 -4.79446 0
M  V30 3101 C 301.6 -4.75365 -4.90425 0
M  V30 3102 O 301.288 -6.01191 -5.3369 0
M  V30 3103 H 301.02 -0.229134 -0.635982 0
M  V30 3104 H 303.574 -1.27036 -1.61404 0
M  V30 3105 H 301.804 -0.0649864 -3.86645 0
M  V30 3106 H 303.493 -0.448842 -4.03411 0
M  V30 3107 H 304.259 -2.92668 -3.86744 0
M  V30 3108 H 300.138 -1.76463 -4.2589 0
M  V30 3109 H 303.682 -5.19373 -4.65723 0
M  V30 3110 H 299.579 -4.02265 -5.0483 0
M  V30 3111 H 300.347 -6.04442 -5.51899 0
M  V30 3112 N 303.011 1.40521 -0.713556 0
M  V30 3113 C 304.427 1.54839 -0.386907 0
M  V30 3114 C 304.627 1.68532 1.1045 0
M  V30 3115 O 303.683 1.67377 1.89053 0
M  V30 3116 C 304.996 2.77792 -1.15118 0
M  V30 3117 C 306.544 2.91607 -1.13729 0
M  V30 3118 C 307.019 4.1747 -1.88368 0
M  V30 3119 N 308.51 4.24466 -1.85427 0
M  V30 3120 C 309.245 5.20755 -2.40004 0
M  V30 3121 N 308.741 6.22965 -3.03129 0
M  V30 3122 N 310.534 5.1282 -2.30158 0
M  V30 3123 H 302.685 1.29879 -1.68063 0
M  V30 3124 H 304.948 0.627896 -0.710247 0
M  V30 3125 H 304.654 2.73944 -2.20561 0
M  V30 3126 H 304.528 3.6984 -0.741477 0
M  V30 3127 H 306.915 2.94959 -0.0910608 0
M  V30 3128 H 306.996 2.00682 -1.5862 0
M  V30 3129 H 306.64 4.1488 -2.9298 0
M  V30 3130 H 306.57 5.074 -1.40898 0
M  V30 3131 H 309.061 3.51241 -1.3942 0
M  V30 3132 H 309.374 6.92859 -3.42295 0
M  V30 3133 H 307.719 6.23415 -3.07212 0
M  V30 3134 H 310.91 4.31899 -1.80501 0
M  V30 3135 H 311.083 5.87689 -2.72993 0
M  V30 3136 N 304.489 0.459591 1.5075 0
M  V30 3137 C 305.399 -0.34613 2.32033 0
M  V30 3138 C 306.415 -1.00686 1.41909 0
M  V30 3139 O 307.591 -0.997361 1.7497 0
M  V30 3140 C 304.656 -1.42029 3.16273 0
M  V30 3141 C 303.717 -0.777362 4.22203 0
M  V30 3142 C 302.95 -1.80034 5.02418 0
M  V30 3143 O 303.173 -3.02544 4.83553 0
M  V30 3144 O 302.107 -1.37853 5.85901 0
M  V30 3145 H 305.933 0.318054 3.0203 0
M  V30 3146 H 303.518 0.221663 1.47746 0
M  V30 3147 H 305.4 -2.04275 3.68578 0
M  V30 3148 H 304.075 -2.06815 2.49016 0
M  V30 3149 H 302.982 -0.116256 3.73919 0
M  V30 3150 H 304.315 -0.172634 4.91897 0
M  V30 3151 N 305.967 -1.56429 0.191757 0
M  V30 3152 C 306.897 -2.21937 -0.725696 0
M  V30 3153 C 307.878 -1.1814 -1.2238 0
M  V30 3154 O 309.063 -1.46636 -1.27325 0
M  V30 3155 C 306.193 -2.87611 -1.94672 0
M  V30 3156 C 305.147 -3.97623 -1.58366 0
M  V30 3157 C 304.473 -4.50446 -2.88102 0
M  V30 3158 C 305.773 -5.16197 -0.796133 0
M  V30 3159 H 307.467 -2.98861 -0.179606 0
M  V30 3160 H 305.013 -1.43749 -0.0849464 0
M  V30 3161 H 306.966 -3.3212 -2.59373 0
M  V30 3162 H 305.69 -2.08087 -2.51728 0
M  V30 3163 H 304.349 -3.53801 -0.960247 0
M  V30 3164 H 303.997 -3.67688 -3.43241 0
M  V30 3165 H 303.697 -5.24675 -2.64556 0
M  V30 3166 H 305.221 -4.97654 -3.53798 0
M  V30 3167 H 306.635 -5.57271 -1.34618 0
M  V30 3168 H 305.032 -5.96471 -0.658928 0
M  V30 3169 H 306.102 -4.84473 0.203478 0
M  V30 3170 N 307.445 0.0818655 -1.57387 0
M  V30 3171 C 308.375 1.09885 -2.06028 0
M  V30 3172 C 309.356 1.4098 -0.951774 0
M  V30 3173 O 310.541 1.50781 -1.22387 0
M  V30 3174 C 307.671 2.4151 -2.4958 0
M  V30 3175 C 306.625 2.24792 -3.64215 0
M  V30 3176 C 305.951 3.61712 -3.93787 0
M  V30 3177 C 307.251 1.67749 -4.94629 0
M  V30 3178 H 308.945 0.694128 -2.91243 0
M  V30 3179 H 306.491 0.332448 -1.4011 0
M  V30 3180 H 308.444 3.12939 -2.82219 0
M  V30 3181 H 307.168 2.83943 -1.61381 0
M  V30 3182 H 305.827 1.55807 -3.31843 0
M  V30 3183 H 305.475 4.01697 -3.02735 0
M  V30 3184 H 305.175 3.51368 -4.70971 0
M  V30 3185 H 306.699 4.34587 -4.28913 0
M  V30 3186 H 308.113 2.29032 -5.25564 0
M  V30 3187 H 306.51 1.68128 -5.76067 0
M  V30 3188 H 307.58 0.638059 -4.80684 0
M  V30 3189 N 308.923 1.53595 0.353017 0
M  V30 3190 C 309.886 1.80232 1.41594 0
M  V30 3191 C 310.886 0.673081 1.46035 0
M  V30 3192 O 312.076 0.941335 1.46576 0
M  V30 3193 C 309.208 1.93578 2.80607 0
M  V30 3194 H 310.401 2.75174 1.19244 0
M  V30 3195 H 307.954 1.44864 0.586872 0
M  V30 3196 H 308.689 1.00746 3.08254 0
M  V30 3197 H 308.474 2.75724 2.78781 0
M  V30 3198 H 309.964 2.15735 3.57558 0
M  V30 3199 N 310.401 -0.613514 1.45168 0
M  V30 3200 C 311.348 -1.72456 1.53387 0
M  V30 3201 C 312.318 -1.6169 0.380191 0
M  V30 3202 O 313.503 -1.81356 0.592836 0
M  V30 3203 C 310.643 -3.10753 1.50088 0
M  V30 3204 C 309.756 -3.32368 2.75963 0
M  V30 3205 C 308.891 -4.60737 2.64376 0
M  V30 3206 C 307.93 -4.7559 3.85332 0
M  V30 3207 N 307.067 -5.95253 3.72315 0
M  V30 3208 H 311.907 -1.64768 2.48305 0
M  V30 3209 H 309.444 -0.803503 1.23216 0
M  V30 3210 H 311.402 -3.90758 1.46164 0
M  V30 3211 H 310.032 -3.17413 0.587243 0
M  V30 3212 H 309.084 -2.4618 2.89999 0
M  V30 3213 H 310.396 -3.39218 3.65695 0
M  V30 3214 H 309.55 -5.48928 2.58385 0
M  V30 3215 H 308.289 -4.56275 1.72233 0
M  V30 3216 H 307.294 -3.85824 3.91688 0
M  V30 3217 H 308.519 -4.81854 4.78533 0
M  V30 3218 H 306.465 -5.91847 2.82937 0
M  V30 3219 H 306.382 -6.03236 4.55677 0
M  V30 3220 H 307.65 -6.85958 3.70246 0
M  V30 3221 N 311.879 -1.3236 -0.855495 0
M  V30 3222 C 312.826 -1.21225 -1.964 0
M  V30 3223 C 313.796 -0.0946204 -1.6583 0
M  V30 3224 O 314.981 -0.27002 -1.8888 0
M  V30 3225 C 312.121 -0.940419 -3.32039 0
M  V30 3226 C 311.234 -2.14276 -3.75113 0
M  V30 3227 C 310.369 -1.80648 -4.9954 0
M  V30 3228 C 309.408 -2.97208 -5.35102 0
M  V30 3229 N 308.545 -2.63678 -6.50706 0
M  V30 3230 H 313.385 -2.16042 -2.05255 0
M  V30 3231 H 310.922 -1.07451 -1.00463 0
M  V30 3232 H 312.88 -0.763311 -4.10158 0
M  V30 3233 H 311.51 -0.0290413 -3.22787 0
M  V30 3234 H 310.562 -2.43017 -2.92655 0
M  V30 3235 H 311.874 -3.01468 -3.97389 0
M  V30 3236 H 311.028 -1.59484 -5.85363 0
M  V30 3237 H 309.767 -0.906678 -4.79198 0
M  V30 3238 H 308.772 -3.19004 -4.47791 0
M  V30 3239 H 309.997 -3.87918 -5.57401 0
M  V30 3240 H 307.943 -1.76238 -6.31883 0
M  V30 3241 H 307.86 -3.444 -6.72997 0
M  V30 3242 H 309.128 -2.45942 -7.39684 0
M  V30 3243 N 313.357 1.07166 -1.15556 0
M  V30 3244 C 314.267 2.17947 -0.868116 0
M  V30 3245 C 315.283 1.73297 0.156297 0
M  V30 3246 O 316.459 2.01392 -0.0182327 0
M  V30 3247 C 313.524 3.44789 -0.36355 0
M  V30 3248 C 312.585 4.03996 -1.45209 0
M  V30 3249 C 311.818 5.24783 -0.971508 0
M  V30 3250 O 312.041 5.70109 0.182194 0
M  V30 3251 O 310.975 5.75715 -1.75603 0
M  V30 3252 H 314.801 2.4503 -1.79427 0
M  V30 3253 H 312.386 1.16539 -0.934824 0
M  V30 3254 H 314.268 4.21307 -0.0887113 0
M  V30 3255 H 312.943 3.19253 0.534708 0
M  V30 3256 H 311.85 3.29009 -1.78056 0
M  V30 3257 H 313.183 4.33808 -2.32533 0
M  V30 3258 N 314.835 0.952656 1.25548 0
M  V30 3259 C 316.083 0.605176 1.92826 0
M  V30 3260 C 316.404 -0.860261 1.74999 0
M  V30 3261 O 315.674 -1.6125 1.11244 0
M  V30 3262 H 314.254 0.220832 0.713612 0
M  V30 3263 H 316.916 1.21047 1.52754 0
M  V30 3264 H 316.012 0.832798 3.00784 0
M  V30 3265 N 316.313 -1.40141 0.720998 0
M  V30 3266 C 317.562 -2.0002 0.259804 0
M  V30 3267 C 317.875 -1.57839 -1.15526 0
M  V30 3268 O 319.081 -2.10455 -1.71525 0
M  V30 3269 C 317.537 -3.57516 0.413566 0
M  V30 3270 C 317.145 -4.08667 1.83562 0
M  V30 3271 C 318.889 -4.24498 0.0134387 0
M  V30 3272 C 316.796 -5.58686 1.93968 0
M  V30 3273 H 315.726 -0.748195 0.0933806 0
M  V30 3274 H 318.377 -1.60313 0.892866 0
M  V30 3275 H 316.759 -3.9495 -0.288169 0
M  V30 3276 H 317.933 -3.82598 2.56817 0
M  V30 3277 H 316.248 -3.543 2.1877 0
M  V30 3278 H 318.845 -5.34654 0.0703954 0
M  V30 3279 H 319.188 -4.03375 -1.02927 0
M  V30 3280 H 319.721 -3.92188 0.665815 0
M  V30 3281 H 316.46 -5.8467 2.96379 0
M  V30 3282 H 315.98 -5.86602 1.25131 0
M  V30 3283 H 317.659 -6.23875 1.71431 0
M  V30 3284 N 317.792 -0.46758 -1.50504 0
M  V30 3285 C 319.02 0.0864133 -2.06719 0
M  V30 3286 C 319.435 1.33819 -1.33184 0
M  V30 3287 O 318.792 1.78061 -0.400083 0
M  V30 3288 C 318.843 0.378079 -3.59517 0
M  V30 3289 O 318.564 -0.824044 -4.3028 0
M  V30 3290 C 320.065 0.979426 -4.32345 0
M  V30 3291 H 317.285 -0.00551697 -0.670977 0
M  V30 3292 H 319.829 -0.655354 -1.93715 0
M  V30 3293 H 317.984 1.06977 -3.72337 0
M  V30 3294 H 318.398 -0.566518 -5.21432 0
M  V30 3295 H 319.872 1.1333 -5.40241 0
M  V30 3296 H 320.349 1.9686 -3.9261 0
M  V30 3297 H 320.955 0.326216 -4.24047 0
M  V30 3298 N 319.27 1.56325 -0.20005 0
M  V30 3299 C 320.518 1.97329 0.436547 0
M  V30 3300 C 320.839 1.08826 1.61808 0
M  V30 3301 O 320.109 0.160604 1.95241 0
M  V30 3302 H 318.689 0.728714 0.164272 0
M  V30 3303 H 321.351 1.92761 -0.287937 0
M  V30 3304 H 320.447 3.02264 0.777353 0
M  V30 3305 N 320.748 -0.0735177 1.57428 0
M  V30 3306 C 322.159 -0.625551 1.75908 0
M  V30 3307 C 322.51 -1.78 0.825261 0
M  V30 3308 O 321.635 -2.16398 0.00893964 0
M  V30 3309 C 322.23 -1.14155 3.18989 0
M  V30 3310 C 320.789 -1.63946 3.38819 0
M  V30 3311 C 319.936 -0.558151 2.71625 0
M  V30 3312 H 322.887 0.152647 1.57964 0
M  V30 3313 H 322.908 -2.0104 3.23053 0
M  V30 3314 H 322.42 -0.301116 3.8693 0
M  V30 3315 H 320.521 -2.50321 2.7599 0
M  V30 3316 H 320.634 -1.71759 4.47253 0
M  V30 3317 H 318.998 -1.00278 2.34129 0
M  V30 3318 H 319.781 0.272071 3.4222 0
M  V30 3319 N 322.226 -1.5378 -0.344866 0
M  V30 3320 C 323.637 -1.62428 -0.920552 0
M  V30 3321 C 323.988 -0.504747 -1.89596 0
M  V30 3322 O 323.113 0.365711 -2.13287 0
M  V30 3323 C 323.708 -2.94419 -1.67639 0
M  V30 3324 C 322.267 -3.05333 -2.20111 0
M  V30 3325 C 321.414 -2.57866 -1.01982 0
M  V30 3326 H 324.365 -1.58222 -0.123042 0
M  V30 3327 H 324.386 -2.83384 -2.53917 0
M  V30 3328 H 323.898 -3.7588 -0.966224 0
M  V30 3329 H 321.999 -2.28502 -2.94308 0
M  V30 3330 H 322.112 -4.10778 -2.46573 0
M  V30 3331 H 320.476 -2.13241 -1.39285 0
M  V30 3332 H 321.259 -3.41765 -0.324308 0
M  V30 3333 N 323.704 0.605807 -1.45491 0
M  V30 3334 C 324.667 1.69836 -1.5391 0
M  V30 3335 C 325.667 1.55261 -0.418424 0
M  V30 3336 O 326.857 1.60296 -0.681965 0
M  V30 3337 C 323.989 3.09117 -1.43734 0
M  V30 3338 H 325.182 1.63738 -2.51257 0
M  V30 3339 H 322.735 0.821689 -1.32959 0
M  V30 3340 H 323.47 3.20791 -0.475788 0
M  V30 3341 H 323.255 3.21104 -2.25021 0
M  V30 3342 H 324.745 3.88696 -1.52661 0
M  V30 3343 N 325.182 1.32811 0.848464 0
M  V30 3344 C 326.459 1.14334 1.58704 0
M  V30 3345 C 326.839 -0.293948 2.09043 0
M  V30 3346 O 326.187 -1.29153 1.88499 0
M  V30 3347 C 326.397 2.17626 2.72837 0
M  V30 3348 C 327.745 2.51282 3.42261 0
M  V30 3349 O 328.769 2.16219 2.83068 0
M  V30 3350 O 327.628 3.11413 4.49093 0
M  V30 3351 H 324.722 0.441601 0.699226 0
M  V30 3352 H 327.268 1.44362 0.892053 0
M  V30 3353 H 326.04 3.14211 2.3321 0
M  V30 3354 H 325.663 1.88628 3.50008 0
M  V30 3355 N 326.66 -1.06551 1.16123 0
M  V30 3356 C 327.885 -1.83544 0.965735 0
M  V30 3357 C 328.31 -1.81843 -0.481102 0
M  V30 3358 O 327.668 -1.21732 -1.34354 0
M  V30 3359 C 327.716 -3.28169 1.49457 0
M  V30 3360 O 326.82 -4.0643 0.699157 0
M  V30 3361 H 326.161 -0.568026 0.343864 0
M  V30 3362 H 328.691 -1.34362 1.54299 0
M  V30 3363 H 328.701 -3.78992 1.51092 0
M  V30 3364 H 327.376 -3.28722 2.54784 0
M  V30 3365 H 325.953 -3.65216 0.7531 0
M  V30 3366 N 328.138 -0.959301 -1.25041 0
M  V30 3367 C 329.363 -0.633507 -1.97488 0
M  V30 3368 C 329.788 0.788555 -1.70773 0
M  V30 3369 O 329.146 1.53394 -0.966431 0
M  V30 3370 C 329.194 -0.904057 -3.49083 0
M  V30 3371 O 328.298 0.0147939 -4.12397 0
M  V30 3372 H 327.639 -0.240368 -0.618966 0
M  V30 3373 H 330.169 -1.28717 -1.59038 0
M  V30 3374 H 330.179 -0.832203 -3.99423 0
M  V30 3375 H 328.854 -1.94048 -3.67856 0
M  V30 3376 H 327.431 -0.109664 -3.72739 0
M  V30 3377 N 329.616 1.39756 -0.72842 0
M  V30 3378 C 330.563 2.30647 -0.0841519 0
M  V30 3379 C 331.533 1.48869 0.7367 0
M  V30 3380 O 332.718 1.77574 0.698015 0
M  V30 3381 C 329.858 3.35165 0.822091 0
M  V30 3382 C 328.971 4.31999 -0.0106663 0
M  V30 3383 C 328.106 5.23585 0.896241 0
M  V30 3384 C 327.145 6.12072 0.0583381 0
M  V30 3385 N 326.282 6.96035 0.920818 0
M  V30 3386 H 331.122 2.85173 -0.864891 0
M  V30 3387 H 328.659 1.40422 -0.438179 0
M  V30 3388 H 330.617 3.94345 1.36189 0
M  V30 3389 H 329.247 2.8211 1.56888 0
M  V30 3390 H 328.299 3.74492 -0.66781 0
M  V30 3391 H 329.611 4.9443 -0.658825 0
M  V30 3392 H 328.765 5.87759 1.50412 0
M  V30 3393 H 327.504 4.61459 1.57819 0
M  V30 3394 H 326.509 5.46916 -0.562389 0
M  V30 3395 H 327.734 6.76261 -0.6203 0
M  V30 3396 H 325.68 6.36485 1.58818 0
M  V30 3397 H 325.597 7.55284 0.32899 0
M  V30 3398 H 326.865 7.64646 1.51447 0
M  V30 3399 N 331.094 0.475555 1.50254 0
M  V30 3400 C 332.505 0.0215174 1.86688 0
M  V30 3401 C 332.856 -1.38467 1.39001 0
M  V30 3402 O 331.981 -2.02732 0.756894 0
M  V30 3403 C 332.576 0.0322715 3.38785 0
M  V30 3404 C 331.135 -0.366314 3.74613 0
M  V30 3405 C 330.282 0.415832 2.74164 0
M  V30 3406 H 333.233 0.689612 1.42934 0
M  V30 3407 H 333.254 -0.76889 3.7265 0
M  V30 3408 H 332.766 1.05584 3.73462 0
M  V30 3409 H 330.867 -1.39406 3.45538 0
M  V30 3410 H 330.98 -0.064555 4.79057 0
M  V30 3411 H 329.344 -0.131048 2.54363 0
M  V30 3412 H 330.127 1.43899 3.11686 0
M  V30 3413 N 332.573 -1.56217 0.208337 0
M  V30 3414 C 333.822 -1.97124 -0.427204 0
M  V30 3415 C 334.135 -1.09859 -1.61835 0
M  V30 3416 O 335.341 -1.40606 -2.32255 0
M  V30 3417 C 333.797 -3.50633 -0.811442 0
M  V30 3418 C 333.405 -4.46582 0.35615 0
M  V30 3419 C 335.149 -4.00282 -1.41332 0
M  V30 3420 C 333.056 -5.91379 -0.0497852 0
M  V30 3421 H 331.986 -0.736086 -0.163381 0
M  V30 3422 H 334.637 -1.8099 0.302456 0
M  V30 3423 H 333.019 -3.62319 -1.59815 0
M  V30 3424 H 334.193 -4.46636 1.1337 0
M  V30 3425 H 332.508 -4.07202 0.870396 0
M  V30 3426 H 335.105 -5.0595 -1.72972 0
M  V30 3427 H 335.448 -3.45359 -2.32449 0
M  V30 3428 H 335.981 -3.91764 -0.690323 0
M  V30 3429 H 332.72 -6.50255 0.827529 0
M  V30 3430 H 332.24 -5.94549 -0.791926 0
M  V30 3431 H 333.919 -6.45209 -0.481042 0
M  V30 3432 N 334.051 0.0651679 -1.57465 0
M  V30 3433 C 335.299 0.761555 -1.87202 0
M  V30 3434 C 335.62 1.77778 -0.801243 0
M  V30 3435 O 334.89 1.95166 0.16937 0
M  V30 3436 H 333.47 0.284251 -0.690804 0
M  V30 3437 H 336.132 0.0396827 -1.9486 0
M  V30 3438 H 335.228 1.27365 -2.84929 0
M  V30 3439 N 335.529 1.53961 0.336706 0
M  V30 3440 C 336.94 1.62914 0.911925 0
M  V30 3441 C 337.291 0.514795 1.89326 0
M  V30 3442 O 336.416 -0.354395 2.13478 0
M  V30 3443 C 337.011 2.95304 1.66076 0
M  V30 3444 C 335.57 3.06496 2.18489 0
M  V30 3445 C 334.717 2.58403 1.00613 0
M  V30 3446 H 337.668 1.58285 0.114649 0
M  V30 3447 H 337.689 2.84727 2.5241 0
M  V30 3448 H 337.201 3.76387 0.946276 0
M  V30 3449 H 335.302 2.3006 2.93092 0
M  V30 3450 H 335.415 4.1208 2.44391 0
M  V30 3451 H 333.779 2.13977 1.38152 0
M  V30 3452 H 334.562 3.41932 0.306179 0
M  V30 3453 N 337.007 -0.598083 1.45811 0
M  V30 3454 C 338.284 -1.35777 1.40797 0
M  V30 3455 C 338.664 -2.10935 0.083462 0
M  V30 3456 O 338.012 -2.08505 -0.934763 0
M  V30 3457 C 338.222 -2.29666 2.62783 0
M  V30 3458 C 339.57 -2.91977 3.08277 0
M  V30 3459 O 340.594 -2.39984 2.63223 0
M  V30 3460 O 339.453 -3.86376 3.86491 0
M  V30 3461 H 336.547 -0.609291 0.55919 0
M  V30 3462 H 339.093 -0.620379 1.57954 0
M  V30 3463 H 337.865 -1.73454 3.50756 0
M  V30 3464 H 337.488 -3.1077 2.48008 0
M  V30 3465 N 338.485 -1.33259 -0.841409 0
M  V30 3466 C 339.762 -1.15174 -1.58096 0
M  V30 3467 C 340.142 0.282858 -2.09196 0
M  V30 3468 O 339.49 1.28151 -1.89181 0
M  V30 3469 C 339.7 -2.1907 -2.71679 0
M  V30 3470 C 341.048 -2.53093 -3.40924 0
M  V30 3471 O 342.072 -2.17717 -2.81918 0
M  V30 3472 O 340.931 -3.1379 -4.47435 0
M  V30 3473 H 338.025 -0.445303 -0.696875 0
M  V30 3474 H 340.571 -1.44833 -0.884385 0
M  V30 3475 H 339.343 -3.15443 -2.31541 0
M  V30 3476 H 338.966 -1.90481 -3.49002 0
M  V30 3477 N 339.963 1.05934 -1.16686 0
M  V30 3478 C 340.926 2.11669 -0.879144 0
M  V30 3479 C 341.926 1.60294 0.127445 0
M  V30 3480 O 343.116 1.7389 -0.103865 0
M  V30 3481 C 340.248 3.39438 -0.315425 0
M  V30 3482 H 341.441 2.38626 -1.81653 0
M  V30 3483 H 338.994 1.22058 -0.976299 0
M  V30 3484 H 339.729 3.18132 0.629468 0
M  V30 3485 H 339.514 3.78034 -1.04079 0
M  V30 3486 H 341.004 4.17391 -0.132189 0
M  V30 3487 N 341.441 0.965919 1.2453 0
M  V30 3488 C 342.69 0.622437 1.91856 0
M  V30 3489 C 343.003 -0.846006 1.76358 0
M  V30 3490 O 344.209 -1.29993 2.38357 0
M  V30 3491 C 342.665 1.0626 3.43856 0
M  V30 3492 C 342.273 2.55437 3.68043 0
M  V30 3493 C 344.017 0.792183 4.17043 0
M  V30 3494 C 341.924 2.93196 5.13605 0
M  V30 3495 H 340.854 0.229092 0.718354 0
M  V30 3496 H 343.505 1.17189 1.41206 0
M  V30 3497 H 341.887 0.441476 3.93531 0
M  V30 3498 H 343.061 3.22665 3.28974 0
M  V30 3499 H 341.376 2.8007 3.08139 0
M  V30 3500 H 343.973 1.05031 5.24283 0
M  V30 3501 H 344.316 -0.271584 4.15413 0
M  V30 3502 H 344.849 1.37419 3.73311 0
M  V30 3503 H 341.588 3.98636 5.20355 0
M  V30 3504 H 341.108 2.30651 5.53679 0
M  V30 3505 H 342.787 2.83004 5.81823 0
M  V30 3506 N 342.919 -1.39368 0.735821 0
M  V30 3507 C 344.196 -1.94465 0.210395 0
M  V30 3508 C 344.576 -1.67254 -1.28799 0
M  V30 3509 O 343.924 -1.00123 -2.05396 0
M  V30 3510 C 344.134 -3.4472 0.544897 0
M  V30 3511 C 345.482 -4.21708 0.494689 0
M  V30 3512 O 346.506 -3.52922 0.482136 0
M  V30 3513 O 345.365 -5.44299 0.489947 0
M  V30 3514 H 342.459 -0.826096 0.0386666 0
M  V30 3515 H 345.005 -1.48863 0.814735 0
M  V30 3516 H 343.777 -3.57963 1.58045 0
M  V30 3517 H 343.4 -3.97502 -0.08837 0
M  V30 3518 N 344.397 -0.483516 -1.5 0
M  V30 3519 C 345.36 0.292965 -2.2732 0
M  V30 3520 C 346.36 0.909499 -1.32608 0
M  V30 3521 O 347.55 0.776745 -1.55924 0
M  V30 3522 C 344.682 1.41854 -3.09984 0
M  V30 3523 H 345.875 -0.385289 -2.97415 0
M  V30 3524 H 343.428 -0.237942 -1.54478 0
M  V30 3525 H 344.163 2.13148 -2.44414 0
M  V30 3526 H 343.948 0.982114 -3.79601 0
M  V30 3527 H 345.438 1.96597 -3.68429 0
M  V30 3528 N 345.875 1.56104 -0.216619 0
M  V30 3529 C 346.805 2.23063 0.690296 0
M  V30 3530 C 347.786 1.20072 1.20485 0
M  V30 3531 O 348.971 1.48643 1.24976 0
M  V30 3532 C 346.101 2.90672 1.90072 0
M  V30 3533 C 345.055 4.00092 1.5202 0
M  V30 3534 C 344.381 4.54972 2.80899 0
M  V30 3535 C 345.681 5.17398 0.71391 0
M  V30 3536 H 347.375 2.99109 0.132038 0
M  V30 3537 H 344.921 1.43866 0.0620664 0
M  V30 3538 H 346.874 3.36204 2.54057 0
M  V30 3539 H 345.598 2.12066 2.48386 0
M  V30 3540 H 344.257 3.55283 0.903839 0
M  V30 3541 H 343.905 3.73102 3.37348 0
M  V30 3542 H 343.605 5.28817 2.56176 0
M  V30 3543 H 345.129 5.0322 3.45836 0
M  V30 3544 H 346.543 5.59342 1.25735 0
M  V30 3545 H 344.94 5.97444 0.563951 0
M  V30 3546 H 346.01 4.84088 -0.280527 0
M  V30 3547 N 347.353 -0.0568162 1.57498 0
M  V30 3548 C 348.578 -0.769402 1.92601 0
M  V30 3549 C 349.003 -1.69559 0.814336 0
M  V30 3550 O 348.361 -1.79811 -0.231903 0
M  V30 3551 C 348.409 -1.52634 3.26704 0
M  V30 3552 O 347.513 -2.63797 3.16994 0
M  V30 3553 H 346.854 -0.208909 0.63028 0
M  V30 3554 H 349.384 -0.0205798 2.0459 0
M  V30 3555 H 349.394 -1.90234 3.60936 0
M  V30 3556 H 348.069 -0.846875 4.07186 0
M  V30 3557 H 346.646 -2.28943 2.94346 0
M  V30 3558 N 348.832 -1.54138 -0.328536 0
M  V30 3559 C 350.057 -1.76378 -1.09112 0
M  V30 3560 C 350.482 -0.508596 -1.81094 0
M  V30 3561 O 349.84 0.539598 -1.73084 0
M  V30 3562 C 349.888 -2.95358 -2.06872 0
M  V30 3563 O 348.992 -2.66556 -3.14677 0
M  V30 3564 H 348.333 -0.584614 -0.314838 0
M  V30 3565 H 350.863 -2.01146 -0.374348 0
M  V30 3566 H 350.873 -3.22566 -2.4983 0
M  V30 3567 H 349.548 -3.86385 -1.5388 0
M  V30 3568 H 348.125 -2.50282 -2.7643 0
M  V30 3569 N 350.31 0.590341 -1.46126 0
M  V30 3570 C 351.587 1.35029 -1.41515 0
M  V30 3571 C 351.967 2.10888 -0.0946472 0
M  V30 3572 O 351.315 2.08998 0.923693 0
M  V30 3573 C 351.525 2.28269 -2.63997 0
M  V30 3574 C 352.873 2.90338 -3.09821 0
M  V30 3575 O 353.897 2.38585 -2.64492 0
M  V30 3576 O 352.756 3.84321 -3.88535 0
M  V30 3577 H 349.85 0.606317 -0.562413 0
M  V30 3578 H 352.396 0.611994 -1.58281 0
M  V30 3579 H 351.168 1.71591 -3.51671 0
M  V30 3580 H 350.791 3.0945 -2.49652 0
M  V30 3581 N 351.788 1.33704 0.83433 0
M  V30 3582 C 353.035 1.25417 1.58987 0
M  V30 3583 C 353.363 -0.178869 1.93676 0
M  V30 3584 O 352.618 -1.13723 1.59265 0
M  V30 3585 C 352.917 2.07926 2.90692 0
M  V30 3586 C 352.583 3.57066 2.75345 0
M  V30 3587 C 351.245 3.97724 2.70867 0
M  V30 3588 C 353.597 4.51817 2.59828 0
M  V30 3589 C 350.925 5.31344 2.48778 0
M  V30 3590 C 353.277 5.85604 2.39272 0
M  V30 3591 C 351.941 6.25439 2.33199 0
M  V30 3592 H 351.211 0.458934 0.581774 0
M  V30 3593 H 353.858 1.65335 0.966261 0
M  V30 3594 H 352.163 1.608 3.57282 0
M  V30 3595 H 353.86 1.98868 3.48213 0
M  V30 3596 H 350.45 3.24785 2.79665 0
M  V30 3597 H 354.634 4.21311 2.62319 0
M  V30 3598 H 349.89 5.61241 2.42526 0
M  V30 3599 H 354.064 6.58623 2.2625 0
M  V30 3600 H 351.691 7.28914 2.15843 0
M  V30 3601 N 353.266 -1.05314 1.17247 0
M  V30 3602 C 354.494 -1.81971 0.984593 0
M  V30 3603 C 354.909 -1.82929 -0.467166 0
M  V30 3604 O 354.266 -1.25564 -1.32438 0
M  V30 3605 C 354.317 -3.28143 1.51672 0
M  V30 3606 O 354.038 -3.27347 2.91163 0
M  V30 3607 C 355.539 -4.21493 1.37326 0
M  V30 3608 H 352.759 -0.573455 0.348411 0
M  V30 3609 H 355.303 -1.32808 1.55506 0
M  V30 3610 H 353.458 -3.74582 0.988302 0
M  V30 3611 H 353.872 -4.18824 3.15732 0
M  V30 3612 H 355.346 -5.22043 1.79375 0
M  V30 3613 H 355.823 -4.38031 0.320169 0
M  V30 3614 H 356.429 -3.80909 1.89178 0
M  V30 3615 N 354.744 -0.972509 -1.24016 0
M  V30 3616 C 355.984 -0.644951 -1.93958 0
M  V30 3617 C 356.348 0.80559 -1.74282 0
M  V30 3618 O 357.549 1.2436 -2.38302 0
M  V30 3619 C 355.82 -1.01521 -3.42678 0
M  V30 3620 S 357.379 -0.802927 -4.31391 0
M  V30 3621 H 354.197 -0.236452 -0.670531 0
M  V30 3622 H 356.799 -1.25048 -1.50277 0
M  V30 3623 H 355.503 -2.06769 -3.54506 0
M  V30 3624 H 355.034 -0.400648 -3.91355 0
M  V30 3625 H 357.049 0.317256 -4.95185 0
M  V30 3626 N 356.222 1.38976 -0.743202 0
M  V30 3627 C 357.47 1.99948 -0.29417 0
M  V30 3628 C 357.791 1.59279 1.12495 0
M  V30 3629 O 357.061 0.844808 1.76748 0
M  V30 3630 H 355.641 0.739473 -0.105774 0
M  V30 3631 H 358.303 1.699 -0.954986 0
M  V30 3632 H 357.399 3.10142 -0.349056 0
M  V30 3633 N 357.7 0.491464 1.49741 0
M  V30 3634 C 358.925 -0.0557177 2.07325 0
M  V30 3635 C 359.35 -1.30925 1.35056 0
M  V30 3636 O 358.708 -1.76733 0.404365 0
M  V30 3637 C 358.756 -0.302074 3.59333 0
M  V30 3638 O 357.86 -1.37868 3.88672 0
M  V30 3639 H 357.201 0.0219956 0.663636 0
M  V30 3640 H 359.731 0.688352 1.92673 0
M  V30 3641 H 359.741 -0.536464 4.04458 0
M  V30 3642 H 358.416 0.61383 4.11345 0
M  V30 3643 H 356.993 -1.12999 3.55367 0
M  V30 3644 N 359.178 -1.55987 0.224894 0
M  V30 3645 C 360.589 -1.84553 -0.282345 0
M  V30 3646 C 360.94 -1.14634 -1.59227 0
M  V30 3647 O 360.065 -0.417155 -2.12341 0
M  V30 3648 C 360.66 -3.348 -0.519062 0
M  V30 3649 C 359.219 -3.63671 -0.970604 0
M  V30 3650 C 358.366 -2.77277 -0.0355261 0
M  V30 3651 H 361.317 -1.52245 0.448006 0
M  V30 3652 H 361.338 -3.55187 -1.36463 0
M  V30 3653 H 360.85 -3.8566 0.43449 0
M  V30 3654 H 358.951 -3.1827 -1.9374 0
M  V30 3655 H 359.064 -4.71631 -0.842698 0
M  V30 3656 H 357.428 -2.48846 -0.542927 0
M  V30 3657 H 358.211 -3.30937 0.913003 0
M  V30 3658 N 360.656 0.0484629 -1.57525 0
M  V30 3659 C 361.884 0.755421 -1.92616 0
M  V30 3660 C 362.299 1.69919 -0.822984 0
M  V30 3661 O 361.656 1.81378 0.202085 0
M  V30 3662 C 361.707 1.52915 -3.27566 0
M  V30 3663 O 361.428 0.62329 -4.33644 0
M  V30 3664 C 362.929 2.33502 -3.76818 0
M  V30 3665 H 360.149 0.213465 -0.63614 0
M  V30 3666 H 362.693 0.0117698 -2.04497 0
M  V30 3667 H 360.848 2.22486 -3.17142 0
M  V30 3668 H 361.262 1.16383 -5.11425 0
M  V30 3669 H 362.736 2.83214 -4.73808 0
M  V30 3670 H 363.213 3.14068 -3.07014 0
M  V30 3671 H 363.819 1.69043 -3.90262 0
M  V30 3672 N 362.134 1.5431 0.320358 0
M  V30 3673 C 363.097 1.83195 1.3774 0
M  V30 3674 C 364.097 0.703906 1.44575 0
M  V30 3675 O 365.287 0.972214 1.44546 0
M  V30 3676 C 362.419 1.99487 2.76438 0
M  V30 3677 H 363.612 2.77642 1.1338 0
M  V30 3678 H 361.165 1.46076 0.556012 0
M  V30 3679 H 361.9 1.07262 3.06048 0
M  V30 3680 H 361.685 2.81575 2.7287 0
M  V30 3681 H 363.175 2.23271 3.52902 0
M  V30 3682 N 363.613 -0.582584 1.46437 0
M  V30 3683 C 364.576 -1.67366 1.56592 0
M  V30 3684 C 365.576 -1.54575 0.443072 0
M  V30 3685 O 366.766 -1.59191 0.707381 0
M  V30 3686 C 363.898 -3.06791 1.48634 0
M  V30 3687 H 365.091 -1.5972 2.5383 0
M  V30 3688 H 362.644 -0.800432 1.34249 0
M  V30 3689 H 363.379 -3.19993 0.526763 0
M  V30 3690 H 363.164 -3.17484 2.30101 0
M  V30 3691 H 364.654 -3.86218 1.58826 0
M  V30 3692 N 365.091 -1.34144 -0.827227 0
M  V30 3693 C 366.339 -1.26009 -1.58007 0
M  V30 3694 C 366.66 0.170971 -1.94249 0
M  V30 3695 O 365.93 1.10256 -1.61927 0
M  V30 3696 H 364.51 -0.463414 -0.585881 0
M  V30 3697 H 367.172 -1.68005 -0.987951 0
M  V30 3698 H 366.268 -1.86187 -2.50481 0
M  V30 3699 N 366.569 1.04691 -1.17803 0
M  V30 3700 C 367.516 2.12557 -0.899343 0
M  V30 3701 C 368.486 1.65339 0.158771 0
M  V30 3702 O 369.671 1.90789 0.0204797 0
M  V30 3703 C 366.811 3.42481 -0.424315 0
M  V30 3704 C 365.924 4.03346 -1.54713 0
M  V30 3705 C 365.059 5.21208 -1.02546 0
M  V30 3706 C 364.098 5.74089 -2.12339 0
M  V30 3707 N 363.235 6.83247 -1.61612 0
M  V30 3708 H 368.075 2.35734 -1.823 0
M  V30 3709 H 365.612 1.1564 -0.909159 0
M  V30 3710 H 367.57 4.16996 -0.130421 0
M  V30 3711 H 366.2 3.19471 0.462377 0
M  V30 3712 H 365.252 3.2622 -1.95664 0
M  V30 3713 H 366.564 4.38628 -2.37501 0
M  V30 3714 H 365.718 6.02812 -0.685718 0
M  V30 3715 H 364.457 4.87414 -0.167084 0
M  V30 3716 H 363.462 4.91111 -2.47165 0
M  V30 3717 H 364.687 6.0993 -2.98601 0
M  V30 3718 H 362.633 6.5134 -0.780533 0
M  V30 3719 H 362.55 7.17559 -2.38003 0
M  V30 3720 H 363.818 7.68491 -1.30545 0
M  V30 3721 N 368.047 0.979072 1.23499 0
M  V30 3722 C 368.994 0.517904 2.24914 0
M  V30 3723 C 369.964 -0.442525 1.60097 0
M  V30 3724 O 371.149 -0.350365 1.87556 0
M  V30 3725 C 368.289 -0.174813 3.44657 0
M  V30 3726 C 367.402 0.825721 4.24035 0
M  V30 3727 C 366.537 0.107946 5.3109 0
M  V30 3728 C 365.576 1.09778 6.02175 0
M  V30 3729 N 364.713 0.40925 7.00906 0
M  V30 3730 H 369.553 1.38751 2.63727 0
M  V30 3731 H 367.09 0.695303 1.2963 0
M  V30 3732 H 369.048 -0.593233 4.12961 0
M  V30 3733 H 367.678 -1.0083 3.06648 0
M  V30 3734 H 366.73 1.36253 3.55161 0
M  V30 3735 H 368.042 1.58005 4.73113 0
M  V30 3736 H 367.196 -0.367904 6.05583 0
M  V30 3737 H 365.935 -0.678994 4.8295 0
M  V30 3738 H 364.94 1.5844 5.26476 0
M  V30 3739 H 366.165 1.88536 6.52404 0
M  V30 3740 H 364.111 -0.358506 6.5502 0
M  V30 3741 H 364.028 1.10226 7.47921 0
M  V30 3742 H 365.296 -0.0442557 7.79487 0
M  V30 3743 N 369.525 -1.3858 0.750561 0
M  V30 3744 C 370.753 -2.04471 0.316098 0
M  V30 3745 C 371.168 -1.56606 -1.05452 0
M  V30 3746 O 370.525 -0.737784 -1.66922 0
M  V30 3747 C 370.576 -3.60025 0.326275 0
M  V30 3748 O 370.297 -4.06133 1.6428 0
M  V30 3749 C 371.798 -4.43131 -0.122429 0
M  V30 3750 H 369.018 -0.65717 0.135528 0
M  V30 3751 H 371.562 -1.77329 1.01857 0
M  V30 3752 H 369.717 -3.86014 -0.327431 0
M  V30 3753 H 370.131 -5.00547 1.56693 0
M  V30 3754 H 371.605 -5.51963 -0.0641473 0
M  V30 3755 H 372.082 -4.23333 -1.16988 0
M  V30 3756 H 372.688 -4.22323 0.50229 0
M  V30 3757 N 371.003 -0.499398 -1.49478 0
M  V30 3758 C 371.913 0.284489 -2.32869 0
M  V30 3759 C 372.929 0.968885 -1.44529 0
M  V30 3760 O 374.105 0.95062 -1.77553 0
M  V30 3761 C 371.17 1.33594 -3.19928 0
M  V30 3762 C 370.231 0.665149 -4.24116 0
M  V30 3763 C 369.464 1.6665 -5.07014 0
M  V30 3764 O 369.687 2.89618 -4.91404 0
M  V30 3765 O 368.621 1.22271 -5.8935 0
M  V30 3766 H 372.447 -0.39802 -3.01081 0
M  V30 3767 H 370.032 -0.260758 -1.47107 0
M  V30 3768 H 371.914 1.94431 -3.73864 0
M  V30 3769 H 370.589 2.0014 -2.54412 0
M  V30 3770 H 369.496 0.0170769 -3.74096 0
M  V30 3771 H 370.829 0.0421555 -4.92182 0
M  V30 3772 N 372.481 1.55866 -0.233164 0
M  V30 3773 C 373.428 2.20796 0.67215 0
M  V30 3774 C 374.398 1.16731 1.18166 0
M  V30 3775 O 375.583 1.45129 1.23864 0
M  V30 3776 C 372.723 2.90072 1.86955 0
M  V30 3777 C 371.836 4.08759 1.39786 0
M  V30 3778 C 370.971 4.65787 2.55374 0
M  V30 3779 C 370.01 5.76752 2.04998 0
M  V30 3780 N 369.147 6.28021 3.13901 0
M  V30 3781 H 373.987 2.9779 0.111749 0
M  V30 3782 H 371.524 1.47036 0.0434007 0
M  V30 3783 H 373.482 3.28428 2.57276 0
M  V30 3784 H 372.112 2.15575 2.40265 0
M  V30 3785 H 371.164 3.7581 0.589173 0
M  V30 3786 H 372.476 4.88906 0.98856 0
M  V30 3787 H 371.63 5.06646 3.33758 0
M  V30 3788 H 370.369 3.84828 2.99598 0
M  V30 3789 H 369.374 5.35383 1.25079 0
M  V30 3790 H 370.599 6.59553 1.61759 0
M  V30 3791 H 368.545 5.49971 3.57586 0
M  V30 3792 H 368.462 7.03323 2.7726 0
M  V30 3793 H 369.73 6.73538 3.92386 0
M  V30 3794 N 373.959 -0.0401083 1.57549 0
M  V30 3795 C 374.869 -1.06133 2.0922 0
M  V30 3796 C 375.885 -1.40356 1.0284 0
M  V30 3797 O 377.061 -1.49897 1.34509 0
M  V30 3798 C 374.126 -2.34658 2.55218 0
M  V30 3799 C 373.187 -2.07117 3.76033 0
M  V30 3800 C 372.42 -3.29514 4.19829 0
M  V30 3801 O 372.643 -4.39794 3.63232 0
M  V30 3802 O 371.577 -3.15863 5.12362 0
M  V30 3803 H 375.403 -0.652244 2.96613 0
M  V30 3804 H 372.988 -0.256368 1.47184 0
M  V30 3805 H 374.87 -3.10239 2.85184 0
M  V30 3806 H 373.545 -2.74883 1.70941 0
M  V30 3807 H 372.452 -1.29139 3.51104 0
M  V30 3808 H 373.785 -1.71754 4.61261 0
M  V30 3809 N 375.437 -1.54477 -0.31217 0
M  V30 3810 C 376.347 -1.87695 -1.4074 0
M  V30 3811 C 377.363 -0.769975 -1.56036 0
M  V30 3812 O 378.539 -1.06537 -1.70915 0
M  V30 3813 C 375.604 -2.10755 -2.75287 0
M  V30 3814 C 374.665 -3.34514 -2.69071 0
M  V30 3815 C 373.898 -3.56465 -3.97201 0
M  V30 3816 O 374.121 -2.81637 -4.96021 0
M  V30 3817 O 373.055 -4.49964 -3.9977 0
M  V30 3818 H 376.881 -2.80849 -1.15574 0
M  V30 3819 H 374.466 -1.40526 -0.507228 0
M  V30 3820 H 376.348 -2.27188 -3.54913 0
M  V30 3821 H 375.023 -1.20788 -3.0032 0
M  V30 3822 H 373.93 -3.23456 -1.87955 0
M  V30 3823 H 375.263 -4.24575 -2.48992 0
M  V30 3824 N 376.915 0.57481 -1.46744 0
M  V30 3825 C 378.14 1.36341 -1.56288 0
M  V30 3826 C 378.565 1.86954 -0.207347 0
M  V30 3827 O 377.923 1.62006 0.813871 0
M  V30 3828 C 377.971 2.52147 -2.57787 0
M  V30 3829 O 377.075 3.53834 -2.11838 0
M  V30 3830 H 376.416 0.405713 -0.525636 0
M  V30 3831 H 378.946 0.696453 -1.92382 0
M  V30 3832 H 378.956 2.98958 -2.77648 0
M  V30 3833 H 377.631 2.14663 -3.5622 0
M  V30 3834 H 376.208 3.1345 -2.01999 0
M  V30 3835 N 378.394 1.34581 0.820102 0
M  V30 3836 C 379.622 1.3018 1.60813 0
M  V30 3837 C 380.037 -0.123551 1.88395 0
M  V30 3838 O 379.394 -1.07148 1.47735 0
M  V30 3839 C 379.445 2.09312 2.94739 0
M  V30 3840 O 379.166 3.46288 2.68358 0
M  V30 3841 C 380.667 2.1234 3.89136 0
M  V30 3842 H 377.887 0.447726 0.499782 0
M  V30 3843 H 380.431 1.77237 1.02017 0
M  V30 3844 H 378.586 1.65889 3.50085 0
M  V30 3845 H 379 3.87227 3.53774 0
M  V30 3846 H 380.474 2.72126 4.80262 0
M  V30 3847 H 380.951 1.11854 4.24718 0
M  V30 3848 H 381.557 2.55864 3.39726 0
M  V30 3849 N 379.872 -1.04064 1.18357 0
M  V30 3850 C 380.782 -2.15569 0.925596 0
M  V30 3851 C 381.798 -1.7365 -0.110295 0
M  V30 3852 O 382.974 -2.01273 0.0716218 0
M  V30 3853 C 380.039 -3.43704 0.454836 0
M  V30 3854 C 379.1 -4.00004 1.55869 0
M  V30 3855 C 378.333 -5.22023 1.1103 0
M  V30 3856 O 378.556 -5.70392 -0.0309756 0
M  V30 3857 O 377.49 -5.70856 1.90805 0
M  V30 3858 H 381.316 -2.40187 1.8586 0
M  V30 3859 H 378.901 -1.1402 0.965394 0
M  V30 3860 H 380.783 -4.20923 0.200382 0
M  V30 3861 H 379.458 -3.20559 -0.449876 0
M  V30 3862 H 378.365 -3.24172 1.86716 0
M  V30 3863 H 379.698 -4.2749 2.43953 0
M  V30 3864 N 381.35 -0.985608 -1.22978 0
M  V30 3865 C 382.596 -0.65836 -1.91816 0
M  V30 3866 C 382.929 0.806692 -1.76653 0
M  V30 3867 O 382.204 1.58252 -1.13078 0
M  V30 3868 C 382.487 -1.056 -3.44268 0
M  V30 3869 C 382.34 -2.57906 -3.68516 0
M  V30 3870 C 383.659 -0.603781 -4.35939 0
M  V30 3871 H 380.778 -0.24065 -0.696604 0
M  V30 3872 H 383.42 -1.22783 -1.44998 0
M  V30 3873 H 381.57 -0.571445 -3.84274 0
M  V30 3874 H 383.242 -3.13976 -3.3796 0
M  V30 3875 H 381.485 -3.00305 -3.13048 0
M  V30 3876 H 382.156 -2.80779 -4.75255 0
M  V30 3877 H 384.632 -1.01987 -4.03408 0
M  V30 3878 H 383.508 -0.910383 -5.41298 0
M  V30 3879 H 383.769 0.495761 -4.39312 0
M  V30 3880 N 382.828 1.3818 -0.7579 0
M  V30 3881 C 383.758 2.33027 -0.148597 0
M  V30 3882 C 384.739 1.55085 0.69875 0
M  V30 3883 O 385.924 1.83384 0.639053 0
M  V30 3884 C 383.054 3.3928 0.742034 0
M  V30 3885 C 382.008 4.28 -0.00291946 0
M  V30 3886 C 381.334 5.25146 1.00625 0
M  V30 3887 C 382.634 5.08938 -1.17385 0
M  V30 3888 H 384.328 2.84231 -0.940909 0
M  V30 3889 H 381.874 1.36659 -0.453908 0
M  V30 3890 H 383.827 4.046 1.17799 0
M  V30 3891 H 382.551 2.86569 1.56671 0
M  V30 3892 H 381.21 3.64192 -0.419504 0
M  V30 3893 H 380.858 4.68721 1.8251 0
M  V30 3894 H 380.558 5.85361 0.512428 0
M  V30 3895 H 382.082 5.93342 1.44143 0
M  V30 3896 H 383.496 5.67474 -0.815224 0
M  V30 3897 H 381.893 5.7841 -1.59882 0
M  V30 3898 H 382.963 4.42424 -1.98468 0
M  V30 3899 N 384.306 0.507319 1.49211 0
M  V30 3900 C 385.253 -0.267728 2.29242 0
M  V30 3901 C 386.223 -0.954609 1.35928 0
M  V30 3902 O 387.408 -0.960046 1.64887 0
M  V30 3903 C 384.548 -1.32243 3.18756 0
M  V30 3904 C 383.661 -0.64669 4.27132 0
M  V30 3905 C 382.796 -1.68238 5.03855 0
M  V30 3906 C 381.835 -0.98885 6.0406 0
M  V30 3907 N 380.972 -1.96903 6.73924 0
M  V30 3908 H 385.812 0.420968 2.95012 0
M  V30 3909 H 383.349 0.219443 1.45454 0
M  V30 3910 H 385.307 -1.94599 3.69036 0
M  V30 3911 H 383.937 -1.97981 2.54958 0
M  V30 3912 H 382.989 0.0902926 3.80293 0
M  V30 3913 H 384.301 -0.101058 4.98698 0
M  V30 3914 H 383.455 -2.38081 5.58034 0
M  V30 3915 H 382.194 -2.26187 4.32077 0
M  V30 3916 H 381.199 -0.276222 5.49106 0
M  V30 3917 H 382.424 -0.415767 6.77826 0
M  V30 3918 H 380.37 -2.53803 6.04913 0
M  V30 3919 H 380.287 -1.47423 7.41487 0
M  V30 3920 H 381.555 -2.66015 7.32705 0
M  V30 3921 N 385.784 -1.5574 0.241426 0
M  V30 3922 C 386.747 -2.19877 -0.647063 0
M  V30 3923 C 387.747 -1.16642 -1.10686 0
M  V30 3924 O 388.937 -1.41757 -1.01245 0
M  V30 3925 C 386.069 -2.83797 -1.88871 0
M  V30 3926 H 387.262 -2.99772 -0.087574 0
M  V30 3927 H 384.815 -1.56298 -0.00813574 0
M  V30 3928 H 385.55 -2.07824 -2.48957 0
M  V30 3929 H 385.335 -3.59414 -1.56728 0
M  V30 3930 H 386.825 -3.32898 -2.52129 0
M  V30 3931 N 387.262 0.0317525 -1.57568 0
M  V30 3932 C 388.194 1.06073 -2.03178 0
M  V30 3933 C 389.207 1.32627 -0.944132 0
M  V30 3934 O 390.396 1.30162 -1.22148 0
M  V30 3935 C 387.496 2.40297 -2.38978 0
M  V30 3936 C 386.669 2.33137 -3.70089 0
M  V30 3937 C 385.728 3.49787 -3.9311 0
M  V30 3938 O 384.754 3.29403 -4.64201 0
M  V30 3939 N 385.956 4.71562 -3.38541 0
M  V30 3940 H 388.721 0.672006 -2.92069 0
M  V30 3941 H 386.282 0.219745 -1.60402 0
M  V30 3942 H 388.274 3.1705 -2.51518 0
M  V30 3943 H 386.844 2.71024 -1.55771 0
M  V30 3944 H 386.064 1.415 -3.67928 0
M  V30 3945 H 387.352 2.25493 -4.56104 0
M  V30 3946 H 386.75 4.91024 -2.80912 0
M  V30 3947 H 385.307 5.45689 -3.56464 0
M  V30 3948 N 388.74 1.54641 0.303973 0
M  V30 3949 C 389.965 1.78092 1.06292 0
M  V30 3950 C 390.39 0.537342 1.80262 0
M  V30 3951 O 389.748 -0.511993 1.7392 0
M  V30 3952 C 389.796 2.98612 2.02147 0
M  V30 3953 O 388.9 2.71528 3.10397 0
M  V30 3954 H 388.241 0.589548 0.305497 0
M  V30 3955 H 390.771 2.01716 0.3423 0
M  V30 3956 H 390.781 3.265 2.44667 0
M  V30 3957 H 389.456 3.88785 1.47714 0
M  V30 3958 H 388.033 2.54648 2.72413 0
M  V30 3959 N 390.218 -0.567019 1.47046 0
M  V30 3960 C 391.181 -1.65696 1.58359 0
M  V30 3961 C 392.181 -1.54097 0.459441 0
M  V30 3962 O 393.371 -1.58432 0.724225 0
M  V30 3963 C 390.503 -3.05197 1.51879 0
M  V30 3964 H 391.696 -1.57019 2.5551 0
M  V30 3965 H 389.249 -0.786148 1.3509 0
M  V30 3966 H 389.984 -3.19417 0.560673 0
M  V30 3967 H 389.769 -3.15025 2.33455 0
M  V30 3968 H 391.259 -3.84511 1.62913 0
M  V30 3969 N 391.696 -1.35014 -0.812953 0
M  V30 3970 C 392.944 -1.27678 -1.56661 0
M  V30 3971 C 393.265 0.150359 -1.94419 0
M  V30 3972 O 392.535 1.08532 -1.63088 0
M  V30 3973 H 391.115 -0.469602 -0.580933 0
M  V30 3974 H 393.777 -1.69043 -0.970076 0
M  V30 3975 H 392.873 -1.88833 -2.48492 0
M  V30 3976 N 393.175 1.03435 -1.18907 0
M  V30 3977 C 394.403 1.80381 -1.01342 0
M  V30 3978 C 394.818 1.83649 0.438005 0
M  V30 3979 O 394.175 1.27655 1.30424 0
M  V30 3980 C 394.226 3.25689 -1.56873 0
M  V30 3981 O 393.947 3.22673 -2.96334 0
M  V30 3982 C 395.448 4.19255 -1.44014 0
M  V30 3983 H 392.668 0.56784 -0.35749 0
M  V30 3984 H 395.212 1.30317 -1.576 0
M  V30 3985 H 393.367 3.72962 -1.04777 0
M  V30 3986 H 393.781 4.13748 -3.22355 0
M  V30 3987 H 395.255 5.19123 -1.87657 0
M  V30 3988 H 395.732 4.37467 -0.389815 0
M  V30 3989 H 396.338 3.77851 -1.95214 0
M  V30 3990 N 394.653 0.992116 1.22453 0
M  V30 3991 C 395.899 0.668523 1.91464 0
M  V30 3992 C 396.232 -0.797313 1.77078 0
M  V30 3993 O 395.507 -1.5765 1.13916 0
M  V30 3994 C 395.79 1.07424 3.43703 0
M  V30 3995 C 395.643 2.59857 3.67143 0
M  V30 3996 C 396.962 0.626891 4.35612 0
M  V30 3997 H 394.081 0.244341 0.695318 0
M  V30 3998 H 396.723 1.2355 1.44345 0
M  V30 3999 H 394.873 0.591816 3.83966 0
M  V30 4000 H 396.545 3.15764 3.3629 0
M  V30 4001 H 394.788 3.01961 3.11451 0
M  V30 4002 H 395.459 2.83296 4.73759 0
M  V30 4003 H 397.935 1.04125 4.02861 0
M  V30 4004 H 396.811 0.939076 5.40807 0
M  V30 4005 H 397.072 -0.472457 4.39568 0
M  V30 4006 N 396.131 -1.37776 0.765217 0
M  V30 4007 C 397.547 -1.53297 0.444108 0
M  V30 4008 C 397.747 -1.72515 -1.04119 0
M  V30 4009 O 396.803 -1.74278 -1.82711 0
M  V30 4010 C 398.116 -2.73328 1.25349 0
M  V30 4011 C 399.664 -2.87185 1.24473 0
M  V30 4012 C 400.139 -4.10191 2.03733 0
M  V30 4013 N 401.63 -4.17291 2.01053 0
M  V30 4014 C 402.365 -5.11488 2.59166 0
M  V30 4015 N 401.861 -6.11285 3.26041 0
M  V30 4016 N 403.654 -5.03924 2.49032 0
M  V30 4017 H 395.805 -1.23552 1.72768 0
M  V30 4018 H 398.068 -0.601103 0.733062 0
M  V30 4019 H 397.774 -2.6557 2.30577 0
M  V30 4020 H 397.648 -3.66834 0.87823 0
M  V30 4021 H 400.035 -2.94418 0.20047 0
M  V30 4022 H 400.116 -1.94657 1.65959 0
M  V30 4023 H 399.76 -4.0372 3.08176 0
M  V30 4024 H 399.69 -5.01821 1.59633 0
M  V30 4025 H 402.181 -3.45825 1.5236 0
M  V30 4026 H 402.494 -6.79678 3.67774 0
M  V30 4027 H 400.839 -6.11583 3.30138 0
M  V30 4028 H 404.03 -4.24902 1.96407 0
M  V30 4029 H 404.203 -5.77152 2.94617 0
M  V30 4030 N 397.609 -0.515225 -1.4894 0
M  V30 4031 C 398.834 0.022727 -2.07388 0
M  V30 4032 C 399.259 1.2876 -1.37122 0
M  V30 4033 O 398.617 1.76067 -0.432431 0
M  V30 4034 C 398.665 0.244869 -3.59768 0
M  V30 4035 O 397.769 1.31667 -3.90817 0
M  V30 4036 H 397.11 -0.0325506 -0.663202 0
M  V30 4037 H 399.64 -0.718918 -1.91553 0
M  V30 4038 H 399.65 0.47205 -4.0526 0
M  V30 4039 H 398.325 -0.679194 -4.10317 0
M  V30 4040 H 396.902 1.07331 -3.5712 0
M  V30 4041 N 399.087 1.5561 -0.249682 0
M  V30 4042 C 400.05 2.20217 0.635394 0
M  V30 4043 C 401.05 1.17227 1.10066 0
M  V30 4044 O 402.24 1.42292 1.00492 0
M  V30 4045 C 399.372 2.84794 1.87363 0
M  V30 4046 H 400.565 2.99814 0.0716752 0
M  V30 4047 H 398.118 1.563 -0.000153234 0
M  V30 4048 H 398.853 2.09142 2.47851 0
M  V30 4049 H 398.638 3.60241 1.5482 0
M  V30 4050 H 400.128 3.3423 2.5036 0
M  V30 4051 N 400.565 -0.0233959 1.57583 0
M  V30 4052 C 401.528 -1.00693 2.05897 0
M  V30 4053 C 402.528 -1.28693 0.964092 0
M  V30 4054 O 403.718 -1.23602 1.22753 0
M  V30 4055 C 400.85 -2.33825 2.4807 0
M  V30 4056 H 402.043 -0.589476 2.9405 0
M  V30 4057 H 399.596 -0.270354 1.53944 0
M  V30 4058 H 400.331 -2.80307 1.6309 0
M  V30 4059 H 400.116 -2.1483 3.2801 0
M  V30 4060 H 401.606 -3.04426 2.85857 0
M  V30 4061 N 402.043 -1.548 -0.295768 0
M  V30 4062 C 403.454 -1.65274 -0.868411 0
M  V30 4063 C 403.805 -0.56481 -1.87894 0
M  V30 4064 O 402.93 0.29767 -2.14343 0
M  V30 4065 C 403.525 -2.99603 -1.58188 0
M  V30 4066 C 402.084 -3.12181 -2.10286 0
M  V30 4067 C 401.231 -2.6098 -0.93727 0
M  V30 4068 H 404.182 -1.58534 -0.0726422 0
M  V30 4069 H 404.203 -2.91319 -2.44772 0
M  V30 4070 H 403.715 -3.78764 -0.846151 0
M  V30 4071 H 401.816 -2.3775 -2.8689 0
M  V30 4072 H 401.929 -4.18415 -2.33379 0
M  V30 4073 H 400.293 -2.17564 -1.32431 0
M  V30 4074 H 401.076 -3.42623 -0.215414 0
M  V30 4075 N 403.521 0.559213 -1.47345 0
M  V30 4076 C 404.932 1.14134 -1.47751 0
M  V30 4077 C 405.283 1.94834 -0.231103 0
M  V30 4078 O 404.408 2.05957 0.664137 0
M  V30 4079 C 405.003 2.07653 -2.67705 0
M  V30 4080 C 403.562 2.61141 -2.71076 0
M  V30 4081 C 402.709 1.3748 -2.40821 0
M  V30 4082 H 405.66 0.345917 -1.54884 0
M  V30 4083 H 405.681 2.91497 -2.44561 0
M  V30 4084 H 405.193 1.4889 -3.58404 0
M  V30 4085 H 403.294 3.23707 -1.84511 0
M  V30 4086 H 403.407 3.02272 -3.7171 0
M  V30 4087 H 401.771 1.68086 -1.91362 0
M  V30 4088 H 402.554 0.805135 -3.33725 0
M  V30 4089 N 404.999 1.35443 0.805782 0
M  V30 4090 C 405.931 1.24285 1.92577 0
M  V30 4091 C 406.944 0.165962 1.61952 0
M  V30 4092 O 408.133 0.419303 1.73505 0
M  V30 4093 C 405.233 0.891272 3.2697 0
M  V30 4094 C 404.406 2.06669 3.85495 0
M  V30 4095 C 403.465 1.69077 4.98297 0
M  V30 4096 O 402.491 2.4096 5.15681 0
M  V30 4097 N 403.693 0.614869 5.77234 0
M  V30 4098 H 406.458 2.20777 2.02676 0
M  V30 4099 H 404.019 1.28623 0.983243 0
M  V30 4100 H 406.011 0.621256 3.99903 0
M  V30 4101 H 404.581 0.016004 3.12596 0
M  V30 4102 H 403.801 2.50046 3.04747 0
M  V30 4103 H 405.089 2.85237 4.21328 0
M  V30 4104 H 404.487 0.017648 5.65697 0
M  V30 4105 H 403.044 0.404636 6.50543 0
M  V30 4106 N 406.477 -1.02803 1.19454 0
M  V30 4107 C 407.387 -2.14575 0.948408 0
M  V30 4108 C 408.403 -1.73757 -0.091871 0
M  V30 4109 O 409.579 -2.01185 0.0929654 0
M  V30 4110 C 406.644 -3.43202 0.491265 0
M  V30 4111 C 405.705 -3.98328 1.60103 0
M  V30 4112 C 404.938 -5.20816 1.16561 0
M  V30 4113 O 405.161 -5.70392 0.0295238 0
M  V30 4114 O 404.095 -5.68801 1.96849 0
M  V30 4115 H 407.921 -2.38202 1.88397 0
M  V30 4116 H 405.506 -1.12989 0.977433 0
M  V30 4117 H 407.388 -4.20687 0.245015 0
M  V30 4118 H 406.063 -3.21018 -0.415851 0
M  V30 4119 H 404.97 -3.22174 1.90144 0
M  V30 4120 H 406.303 -4.24879 2.48473 0
M  V30 4121 N 407.956 -0.998596 -1.21925 0
M  V30 4122 C 408.903 -0.553621 -2.24062 0
M  V30 4123 C 409.873 0.416999 -1.6078 0
M  V30 4124 O 411.058 0.320482 -1.88089 0
M  V30 4125 C 408.198 0.119959 -3.44891 0
M  V30 4126 C 407.311 -0.893077 -4.22668 0
M  V30 4127 C 406.446 -0.192424 -5.30851 0
M  V30 4128 C 405.485 -1.19344 -6.00353 0
M  V30 4129 N 404.622 -0.520707 -7.00166 0
M  V30 4130 H 409.462 -1.4293 -2.61486 0
M  V30 4131 H 406.999 -0.715838 -1.28507 0
M  V30 4132 H 408.957 0.527459 -4.13852 0
M  V30 4133 H 407.587 0.959389 -3.08214 0
M  V30 4134 H 406.639 -1.41886 -3.52948 0
M  V30 4135 H 407.951 -1.65512 -4.70539 0
M  V30 4136 H 407.105 0.271515 -6.06092 0
M  V30 4137 H 405.844 0.602075 -4.83969 0
M  V30 4138 H 404.849 -1.66795 -5.23889 0
M  V30 4139 H 406.074 -1.98891 -6.49322 0
M  V30 4140 H 404.02 0.254252 -6.55507 0
M  V30 4141 H 403.937 -1.2211 -7.46073 0
M  V30 4142 H 405.205 -0.0797596 -7.79459 0
M  V30 4143 N 409.434 1.37368 -0.772513 0
M  V30 4144 C 410.381 2.30262 -0.157488 0
M  V30 4145 C 411.351 1.51137 0.688965 0
M  V30 4146 O 412.536 1.79704 0.641168 0
M  V30 4147 C 409.676 3.37611 0.715045 0
M  V30 4148 C 408.789 4.31746 -0.148098 0
M  V30 4149 C 407.924 5.26171 0.729213 0
M  V30 4150 C 406.963 6.11948 -0.136418 0
M  V30 4151 N 406.1 6.98613 0.698914 0
M  V30 4152 H 410.94 2.82277 -0.955179 0
M  V30 4153 H 408.477 1.38957 -0.482631 0
M  V30 4154 H 410.435 3.98479 1.23575 0
M  V30 4155 H 409.065 2.86959 1.47833 0
M  V30 4156 H 408.117 3.72178 -0.786613 0
M  V30 4157 H 409.429 4.92084 -0.81579 0
M  V30 4158 H 408.583 5.92247 1.31637 0
M  V30 4159 H 407.322 4.66246 1.43059 0
M  V30 4160 H 406.327 5.4485 -0.736102 0
M  V30 4161 H 407.552 6.73945 -0.835134 0
M  V30 4162 H 405.498 6.41215 1.38489 0
M  V30 4163 H 405.415 7.55948 0.0885358 0
M  V30 4164 H 406.683 7.69077 1.27044 0
M  V30 4165 N 410.912 0.523116 1.48665 0
M  V30 4166 C 412.328 0.180511 1.58576 0
M  V30 4167 C 412.528 -1.31597 1.52592 0
M  V30 4168 O 411.584 -2.0937 1.4114 0
M  V30 4169 C 412.897 0.776949 2.90489 0
M  V30 4170 C 414.445 0.745058 3.04003 0
M  V30 4171 C 414.92 1.31995 4.38567 0
M  V30 4172 N 416.411 1.28162 4.45117 0
M  V30 4173 C 417.146 1.6964 5.47731 0
M  V30 4174 N 416.642 2.18816 6.57337 0
M  V30 4175 N 418.435 1.6092 5.38573 0
M  V30 4176 H 410.586 1.4958 1.50797 0
M  V30 4177 H 412.849 0.621772 0.715614 0
M  V30 4178 H 412.555 1.82732 3.00503 0
M  V30 4179 H 412.429 0.25007 3.7637 0
M  V30 4180 H 414.816 -0.296532 2.93606 0
M  V30 4181 H 414.897 1.30933 2.1975 0
M  V30 4182 H 414.541 2.36043 4.49718 0
M  V30 4183 H 414.471 0.731418 5.21496 0
M  V30 4184 H 416.962 0.92155 3.66491 0
M  V30 4185 H 417.275 2.48478 7.31764 0
M  V30 4186 H 415.62 2.22805 6.58318 0
M  V30 4187 H 418.811 1.22304 4.5184 0
M  V30 4188 H 418.984 1.93567 6.18414 0
M  V30 4189 N 412.39 -1.55475 0.257931 0
M  V30 4190 C 413.337 -2.21837 -0.636939 0
M  V30 4191 C 414.307 -1.18596 -1.16294 0
M  V30 4192 O 415.492 -1.47081 -1.21539 0
M  V30 4193 C 412.632 -2.9301 -1.82317 0
M  V30 4194 C 411.745 -4.10931 -1.33265 0
M  V30 4195 C 410.88 -4.69791 -2.47931 0
M  V30 4196 C 409.919 -5.7994 -1.95796 0
M  V30 4197 N 409.056 -6.32935 -3.0387 0
M  V30 4198 H 413.896 -2.9793 -0.0643591 0
M  V30 4199 H 411.433 -1.47086 -0.0200031 0
M  V30 4200 H 413.391 -3.3248 -2.52018 0
M  V30 4201 H 412.021 -2.1937 -2.36805 0
M  V30 4202 H 411.073 -3.76699 -0.52931 0
M  V30 4203 H 412.385 -4.90417 -0.910654 0
M  V30 4204 H 411.539 -5.11892 -3.25656 0
M  V30 4205 H 410.278 -3.89545 -2.93438 0
M  V30 4206 H 409.283 -5.37305 -1.16546 0
M  V30 4207 H 410.508 -6.62043 -1.51246 0
M  V30 4208 H 408.454 -5.55591 -3.48791 0
M  V30 4209 H 408.371 -7.07645 -2.66035 0
M  V30 4210 H 409.639 -6.79695 -3.81621 0
M  V30 4211 N 413.868 0.0150385 -1.57593 0
M  V30 4212 C 415.114 0.704043 -1.90187 0
M  V30 4213 C 415.447 1.74249 -0.857366 0
M  V30 4214 O 414.722 1.94092 0.125843 0
M  V30 4215 C 415.005 1.36087 -3.33395 0
M  V30 4216 C 414.858 0.334981 -4.48551 0
M  V30 4217 C 416.177 2.29112 -3.7576 0
M  V30 4218 H 413.296 0.254475 -0.691673 0
M  V30 4219 H 415.938 -0.0331678 -1.89971 0
M  V30 4220 H 414.088 1.98922 -3.3371 0
M  V30 4221 H 415.76 -0.292534 -4.60372 0
M  V30 4222 H 414.003 -0.344325 -4.32431 0
M  V30 4223 H 414.674 0.833316 -5.45674 0
M  V30 4224 H 417.15 1.76308 -3.76902 0
M  V30 4225 H 416.026 2.72043 -4.76743 0
M  V30 4226 H 416.287 3.16385 -3.08793 0
M  V30 4227 N 415.346 1.54954 0.287554 0
M  V30 4228 C 416.256 1.8991 1.37736 0
M  V30 4229 C 417.272 0.794701 1.54792 0
M  V30 4230 O 418.448 1.09243 1.69198 0
M  V30 4231 C 415.513 2.15108 2.71899 0
M  V30 4232 C 414.574 3.38752 2.63715 0
M  V30 4233 C 413.807 3.62739 3.91479 0
M  V30 4234 O 414.03 2.89492 4.91478 0
M  V30 4235 O 412.964 4.56267 3.92561 0
M  V30 4236 H 416.79 2.82652 1.11092 0
M  V30 4237 H 414.375 1.41315 0.484807 0
M  V30 4238 H 416.257 2.32806 3.51254 0
M  V30 4239 H 414.932 1.25551 2.9836 0
M  V30 4240 H 413.839 3.26405 1.82786 0
M  V30 4241 H 415.172 4.28483 2.42205 0
M  V30 4242 N 416.824 -0.551391 1.4764 0
M  V30 4243 C 417.771 -1.65796 1.60563 0
M  V30 4244 C 418.741 -1.59932 0.448428 0
M  V30 4245 O 419.926 -1.78679 0.669222 0
M  V30 4246 C 417.066 -3.04108 1.63133 0
M  V30 4247 C 416.179 -3.20365 2.89811 0
M  V30 4248 C 415.314 -4.49109 2.8368 0
M  V30 4249 C 414.353 -4.58819 4.05156 0
M  V30 4250 N 413.49 -5.78926 3.97227 0
M  V30 4251 H 418.33 -1.54088 2.5507 0
M  V30 4252 H 415.867 -0.75052 1.26513 0
M  V30 4253 H 417.825 -3.84207 1.62606 0
M  V30 4254 H 416.455 -3.14637 0.721341 0
M  V30 4255 H 415.507 -2.33659 3.00179 0
M  V30 4256 H 416.819 -3.23402 3.79753 0
M  V30 4257 H 415.973 -5.37475 2.81434 0
M  V30 4258 H 414.712 -4.4856 1.91431 0
M  V30 4259 H 413.717 -3.68864 4.077 0
M  V30 4260 H 414.942 -4.61124 4.98539 0
M  V30 4261 H 412.888 -5.79314 3.07785 0
M  V30 4262 H 412.805 -5.83367 4.80853 0
M  V30 4263 H 414.073 -6.69637 3.99007 0
M  V30 4264 N 418.302 -1.35869 -0.798587 0
M  V30 4265 C 419.579 -1.20145 -1.54352 0
M  V30 4266 C 419.959 0.216161 -2.0999 0
M  V30 4267 O 419.307 1.22068 -1.93162 0
M  V30 4268 C 419.517 -2.27602 -2.64572 0
M  V30 4269 C 420.865 -2.63811 -3.32699 0
M  V30 4270 O 421.889 -2.26576 -2.74849 0
M  V30 4271 O 420.748 -3.27866 -4.37226 0
M  V30 4272 H 417.842 -0.467248 -0.682355 0
M  V30 4273 H 420.388 -1.47574 -0.837859 0
M  V30 4274 H 419.16 -3.2265 -2.21388 0
M  V30 4275 H 418.783 -2.01488 -3.42766 0
M  V30 4276 N 419.78 1.02168 -1.19998 0
M  V30 4277 C 421.008 1.79296 -1.03249 0
M  V30 4278 C 421.423 1.84103 0.418502 0
M  V30 4279 O 420.78 1.29031 1.29063 0
M  V30 4280 C 420.831 3.24007 -1.60319 0
M  V30 4281 O 420.552 3.19512 -2.99739 0
M  V30 4282 C 422.053 4.17704 -1.48453 0
M  V30 4283 H 419.273 0.564016 -0.363493 0
M  V30 4284 H 421.817 1.28639 -1.58973 0
M  V30 4285 H 419.972 3.7183 -1.08727 0
M  V30 4286 H 420.386 4.10306 -3.26725 0
M  V30 4287 H 421.86 5.17104 -1.93153 0
M  V30 4288 H 422.337 4.37029 -0.436193 0
M  V30 4289 H 422.943 3.7576 -1.99211 0
M  V30 4290 N 421.258 1.00505 1.21394 0
M  V30 4291 C 422.191 0.51032 2.22421 0
M  V30 4292 C 423.169 -0.436 1.56645 0
M  V30 4293 O 424.353 -0.358709 1.85055 0
M  V30 4294 C 421.48 -0.258733 3.3771 0
M  V30 4295 C 420.526 0.635395 4.2174 0
M  V30 4296 S 421.359 2.09783 4.92698 0
M  V30 4297 C 422.515 1.33862 6.11418 0
M  V30 4298 H 422.748 1.36637 2.64041 0
M  V30 4299 H 420.281 0.812991 1.31262 0
M  V30 4300 H 422.239 -0.696372 4.0455 0
M  V30 4301 H 420.9 -1.0902 2.94573 0
M  V30 4302 H 420.093 0.0430189 5.03982 0
M  V30 4303 H 419.695 1.01031 3.60095 0
M  V30 4304 H 421.987 0.612541 6.74725 0
M  V30 4305 H 422.93 2.13675 6.75092 0
M  V30 4306 H 423.338 0.846568 5.58116 0
M  V30 4307 N 422.737 -1.36956 0.779787 0
M  V30 4308 C 423.962 -2.04283 0.358224 0
M  V30 4309 C 424.387 -1.58422 -1.01411 0
M  V30 4310 O 423.745 -0.748179 -1.65142 0
M  V30 4311 C 423.793 -3.58152 0.419479 0
M  V30 4312 O 422.897 -4.08342 -0.577142 0
M  V30 4313 H 422.238 -0.645967 0.153698 0
M  V30 4314 H 424.768 -1.75108 1.05822 0
M  V30 4315 H 424.778 -4.07041 0.279636 0
M  V30 4316 H 423.453 -3.90886 1.42061 0
M  V30 4317 H 422.03 -3.70751 -0.399755 0
M  V30 4318 N 424.215 -0.530993 -1.48385 0
M  V30 4319 C 425.492 0.0671788 -1.95485 0
M  V30 4320 C 425.872 1.51191 -1.47324 0
M  V30 4321 O 425.22 2.17507 -0.700202 0
M  V30 4322 C 425.43 -0.0511206 -3.48963 0
M  V30 4323 C 426.778 0.107632 -4.24464 0
M  V30 4324 O 427.802 0.0226248 -3.56193 0
M  V30 4325 O 426.661 0.285972 -5.45751 0
M  V30 4326 H 423.755 0.0787365 -0.823243 0
M  V30 4327 H 426.301 -0.595662 -1.58902 0
M  V30 4328 H 425.073 -1.05747 -3.7674 0
M  V30 4329 H 424.696 0.650525 -3.92242 0
M  V30 4330 N 425.693 1.55336 -0.266172 0
M  V30 4331 C 426.625 2.19544 0.658247 0
M  V30 4332 C 427.638 1.17746 1.12427 0
M  V30 4333 O 428.827 1.44517 1.04772 0
M  V30 4334 C 425.927 2.80032 1.9088 0
M  V30 4335 C 425.1 4.07436 1.59106 0
M  V30 4336 C 424.159 4.52056 2.69317 0
M  V30 4337 O 423.185 5.18023 2.35883 0
M  V30 4338 N 424.387 4.21448 3.99201 0
M  V30 4339 H 427.152 2.99503 0.108754 0
M  V30 4340 H 424.713 1.61667 -0.0869059 0
M  V30 4341 H 426.705 3.06831 2.63888 0
M  V30 4342 H 425.275 2.04119 2.36758 0
M  V30 4343 H 424.495 3.88021 0.695243 0
M  V30 4344 H 425.783 4.90462 1.35367 0
M  V30 4345 H 425.181 3.68528 4.29189 0
M  V30 4346 H 423.738 4.53039 4.68614 0
M  V30 4347 N 427.171 -0.0066808 1.57599 0
M  V30 4348 C 428.134 -0.985035 2.06953 0
M  V30 4349 C 429.134 -1.27663 0.977687 0
M  V30 4350 O 430.324 -1.22293 1.24057 0
M  V30 4351 C 427.456 -2.3118 2.50536 0
M  V30 4352 H 428.649 -0.558255 2.94658 0
M  V30 4353 H 426.202 -0.254011 1.54222 0
M  V30 4354 H 426.937 -2.78561 1.66054 0
M  V30 4355 H 426.722 -2.11338 3.3027 0
M  V30 4356 H 428.212 -3.01377 2.8907 0
M  V30 4357 N 428.649 -1.55105 -0.279332 0
M  V30 4358 C 429.579 -1.90557 -1.34945 0
M  V30 4359 C 430.56 -0.766738 -1.51839 0
M  V30 4360 O 431.745 -1.02434 -1.64988 0
M  V30 4361 C 428.875 -2.17193 -2.71006 0
M  V30 4362 C 427.829 -3.33021 -2.68851 0
M  V30 4363 C 427.155 -3.45123 -4.08405 0
M  V30 4364 C 428.455 -4.69578 -2.28678 0
M  V30 4365 H 430.149 -2.80188 -1.05522 0
M  V30 4366 H 427.695 -1.34811 -0.506173 0
M  V30 4367 H 429.648 -2.40581 -3.45975 0
M  V30 4368 H 428.372 -1.24355 -3.01999 0
M  V30 4369 H 427.031 -3.0959 -1.9634 0
M  V30 4370 H 426.679 -2.49762 -4.3661 0
M  V30 4371 H 426.379 -4.22995 -4.07859 0
M  V30 4372 H 427.903 -3.70796 -4.85121 0
M  V30 4373 H 429.317 -4.92553 -2.93368 0
M  V30 4374 H 427.714 -5.5032 -2.39306 0
M  V30 4375 H 428.784 -4.68828 -1.23807 0
M  V30 4376 N 430.127 0.543554 -1.4793 0
M  V30 4377 C 431.037 1.67657 -1.64098 0
M  V30 4378 C 432.053 1.65934 -0.523622 0
M  V30 4379 O 433.229 1.85133 -0.792943 0
M  V30 4380 C 430.294 3.04146 -1.66421 0
M  V30 4381 C 429.355 3.16831 -2.89684 0
M  V30 4382 C 428.588 4.46809 -2.91886 0
M  V30 4383 O 428.811 5.33095 -2.02895 0
M  V30 4384 O 427.745 4.63573 -3.83906 0
M  V30 4385 H 431.571 1.56957 -2.59997 0
M  V30 4386 H 429.156 0.715116 -1.31173 0
M  V30 4387 H 431.038 3.85346 -1.70548 0
M  V30 4388 H 429.713 3.152 -0.736923 0
M  V30 4389 H 428.62 2.34977 -2.91095 0
M  V30 4390 H 429.953 3.10687 -3.81752 0
M  V30 4391 N 431.605 1.3629 0.791371 0
M  V30 4392 C 432.568 1.30309 1.88553 0
M  V30 4393 C 433.568 0.211204 1.59407 0
M  V30 4394 O 434.758 0.465865 1.67855 0
M  V30 4395 C 431.89 1.01956 3.25297 0
M  V30 4396 H 433.083 2.27614 1.95273 0
M  V30 4397 H 430.636 1.21035 0.988953 0
M  V30 4398 H 431.371 0.050998 3.2426 0
M  V30 4399 H 431.156 1.80968 3.4784 0
M  V30 4400 H 432.646 1.0037 4.05359 0
M  V30 4401 N 433.083 -1.0153 1.20538 0
M  V30 4402 C 434.013 -2.11972 0.979295 0
M  V30 4403 C 434.994 -1.6985 -0.0921787 0
M  V30 4404 O 436.179 -1.94089 0.0655932 0
M  V30 4405 C 433.309 -3.43201 0.531984 0
M  V30 4406 C 432.263 -3.9907 1.54685 0
M  V30 4407 C 431.589 -5.26082 0.956127 0
M  V30 4408 C 432.889 -4.32313 2.93092 0
M  V30 4409 H 434.583 -2.31143 1.90298 0
M  V30 4410 H 432.129 -1.11079 0.916372 0
M  V30 4411 H 434.082 -4.1985 0.361044 0
M  V30 4412 H 432.806 -3.23792 -0.427327 0
M  V30 4413 H 431.465 -3.2453 1.70517 0
M  V30 4414 H 431.113 -5.02999 -0.0111538 0
M  V30 4415 H 430.813 -5.64426 1.63393 0
M  V30 4416 H 432.337 -6.05386 0.796284 0
M  V30 4417 H 433.751 -4.99845 2.80763 0
M  V30 4418 H 432.148 -4.81774 3.57791 0
M  V30 4419 H 433.218 -3.41025 3.44717 0
M  V30 4420 N 434.561 -1.01147 -1.20859 0
M  V30 4421 C 435.786 -0.716698 -1.94623 0
M  V30 4422 C 436.211 0.715415 -1.73964 0
M  V30 4423 O 435.569 1.49157 -1.03062 0
M  V30 4424 C 435.617 -1.0513 -3.44935 0
M  V30 4425 O 434.721 -0.160131 -4.12089 0
M  V30 4426 H 434.062 -0.266404 -0.608214 0
M  V30 4427 H 436.592 -1.35346 -1.53436 0
M  V30 4428 H 436.602 -1.00086 -3.95533 0
M  V30 4429 H 435.277 -2.09475 -3.59295 0
M  V30 4430 H 433.854 -0.267657 -3.71938 0
M  V30 4431 N 436.039 1.36541 -0.78704 0
M  V30 4432 C 437.002 2.28413 -0.189778 0
M  V30 4433 C 438.002 1.48719 0.611499 0
M  V30 4434 O 439.192 1.68737 0.432842 0
M  V30 4435 C 436.324 3.32824 0.737638 0
M  V30 4436 H 437.517 2.82743 -0.999831 0
M  V30 4437 H 435.07 1.46065 -0.556298 0
M  V30 4438 H 435.805 2.83646 1.57212 0
M  V30 4439 H 435.59 3.91752 0.165044 0
M  V30 4440 H 437.08 4.0144 1.15047 0
M  V30 4441 N 437.518 0.538854 1.48102 0
M  V30 4442 C 438.743 0.0102694 2.07397 0
M  V30 4443 C 439.168 -1.26562 1.39153 0
M  V30 4444 O 438.526 -1.75357 0.460387 0
M  V30 4445 C 438.574 -0.187602 3.60112 0
M  V30 4446 O 437.678 -1.25432 3.92862 0
M  V30 4447 H 437.019 0.0430975 0.6626 0
M  V30 4448 H 439.549 0.749301 1.90385 0
M  V30 4449 H 439.559 -0.407517 4.0596 0
M  V30 4450 H 438.234 0.744386 4.09184 0
M  V30 4451 H 436.811 -1.01636 3.58782 0
M  V30 4452 N 438.996 -1.55193 0.274407 0
M  V30 4453 C 439.926 -2.25471 -0.607032 0
M  V30 4454 C 440.907 -1.24461 -1.15946 0
M  V30 4455 O 442.092 -1.53179 -1.19373 0
M  V30 4456 C 439.222 -2.97526 -1.79153 0
M  V30 4457 C 438.176 -4.05459 -1.37067 0
M  V30 4458 C 437.502 -4.65084 -2.6382 0
M  V30 4459 C 438.802 -5.19691 -0.521389 0
M  V30 4460 H 440.496 -2.99393 -0.0209343 0
M  V30 4461 H 438.042 -1.43997 -0.00862866 0
M  V30 4462 H 439.995 -3.45402 -2.41404 0
M  V30 4463 H 438.719 -2.21138 -2.40344 0
M  V30 4464 H 437.378 -3.58393 -0.771355 0
M  V30 4465 H 437.026 -3.85365 -3.23268 0
M  V30 4466 H 436.726 -5.37961 -2.36372 0
M  V30 4467 H 438.25 -5.15708 -3.26921 0
M  V30 4468 H 439.664 -5.63623 -1.04889 0
M  V30 4469 H 438.061 -5.99126 -0.341825 0
M  V30 4470 H 439.131 -4.82713 0.46 0
M  V30 4471 N 440.474 -0.00167713 -1.576 0
M  V30 4472 C 441.722 0.681471 -1.90264 0
M  V30 4473 C 442.043 1.7422 -0.875924 0
M  V30 4474 O 441.313 1.95709 0.0864412 0
M  V30 4475 H 439.893 0.254696 -0.702239 0
M  V30 4476 H 442.555 -0.0429996 -1.94853 0
M  V30 4477 H 441.651 1.15166 -2.90075 0
M  V30 4478 N 441.952 1.55251 0.271103 0
M  V30 4479 C 443.18 1.79974 1.02064 0
M  V30 4480 C 443.595 0.574003 1.79863 0
M  V30 4481 O 442.952 -0.456962 1.76686 0
M  V30 4482 C 443.003 3.02603 1.97772 0
M  V30 4483 O 442.724 4.20443 1.23124 0
M  V30 4484 C 444.225 3.39944 2.84522 0
M  V30 4485 H 441.445 0.599489 0.301419 0
M  V30 4486 H 443.989 2.02268 0.301313 0
M  V30 4487 H 442.144 2.8243 2.65165 0
M  V30 4488 H 442.558 4.89783 1.87651 0
M  V30 4489 H 444.032 4.28915 3.47471 0
M  V30 4490 H 444.509 2.59432 3.54389 0
M  V30 4491 H 445.115 3.62383 2.22618 0
M  V30 4492 N 443.43 -0.535701 1.48216 0
M  V30 4493 C 444.846 -0.863701 1.3421 0
M  V30 4494 C 445.046 -1.98458 0.34879 0
M  V30 4495 O 444.102 -2.51432 -0.23204 0
M  V30 4496 C 445.415 -1.23662 2.74095 0
M  V30 4497 C 446.963 -1.34683 2.82541 0
M  V30 4498 C 447.438 -1.75322 4.23115 0
M  V30 4499 N 448.929 -1.82434 4.2576 0
M  V30 4500 C 449.664 -2.15252 5.31464 0
M  V30 4501 N 449.16 -2.46533 6.47452 0
M  V30 4502 N 450.953 -2.16209 5.18855 0
M  V30 4503 H 443.104 0.203965 2.11418 0
M  V30 4504 H 445.367 0.0286033 0.947568 0
M  V30 4505 H 445.073 -0.486674 3.48316 0
M  V30 4506 H 444.947 -2.18805 3.07253 0
M  V30 4507 H 447.334 -2.08756 2.08579 0
M  V30 4508 H 447.415 -0.376756 2.5301 0
M  V30 4509 H 447.059 -1.01812 4.97591 0
M  V30 4510 H 446.989 -2.7337 4.50085 0
M  V30 4511 H 449.48 -1.6056 3.42095 0
M  V30 4512 H 449.793 -2.70662 7.23852 0
M  V30 4513 H 448.138 -2.44065 6.50736 0
M  V30 4514 H 451.329 -1.91224 4.2726 0
M  V30 4515 H 451.502 -2.41453 6.01335 0
M  V30 4516 N 444.908 -1.36708 -0.784132 0
M  V30 4517 C 445.84 -1.27333 -1.90575 0
M  V30 4518 C 446.853 -0.191706 -1.61667 0
M  V30 4519 O 448.042 -0.446854 -1.72816 0
M  V30 4520 C 445.142 -0.943177 -3.25511 0
M  V30 4521 C 444.315 -2.12776 -3.82158 0
M  V30 4522 C 443.374 -1.76983 -4.95544 0
M  V30 4523 O 442.4 -2.49134 -5.11782 0
M  V30 4524 N 443.602 -0.706624 -5.76183 0
M  V30 4525 H 446.367 -2.23974 -1.99138 0
M  V30 4526 H 443.928 -1.30171 -0.962656 0
M  V30 4527 H 445.92 -0.684799 -3.98864 0
M  V30 4528 H 444.49 -0.0657333 -3.12531 0
M  V30 4529 H 443.71 -2.54863 -3.0073 0
M  V30 4530 H 444.998 -2.91904 -4.16737 0
M  V30 4531 H 444.396 -0.107643 -5.65598 0
M  V30 4532 H 442.953 -0.50808 -6.49817 0
M  V30 4533 N 446.386 1.0089 -1.21074 0
M  V30 4534 C 447.349 2.0775 -0.968129 0
M  V30 4535 C 448.349 1.6069 0.0593445 0
M  V30 4536 O 449.539 1.73293 -0.177525 0
M  V30 4537 C 446.671 3.37794 -0.459108 0
M  V30 4538 H 447.864 2.30707 -1.9161 0
M  V30 4539 H 445.417 1.17807 -1.02719 0
M  V30 4540 H 446.152 3.20516 0.49397 0
M  V30 4541 H 445.937 3.7328 -1.20019 0
M  V30 4542 H 447.427 4.16454 -0.309099 0
M  V30 4543 N 447.864 1.01787 1.20321 0
M  V30 4544 C 448.774 0.598898 2.26827 0
M  V30 4545 C 449.79 -0.36418 1.70146 0
M  V30 4546 O 450.966 -0.224812 2.00141 0
M  V30 4547 C 448.031 -0.0549769 3.46656 0
M  V30 4548 C 447.092 0.954205 4.18561 0
M  V30 4549 C 446.325 0.331439 5.3267 0
M  V30 4550 O 446.548 -0.86851 5.63749 0
M  V30 4551 O 445.482 1.0488 5.92692 0
M  V30 4552 H 449.308 1.48562 2.64883 0
M  V30 4553 H 446.893 0.787434 1.26964 0
M  V30 4554 H 448.775 -0.420102 4.19301 0
M  V30 4555 H 447.45 -0.915876 3.10473 0
M  V30 4556 H 446.357 1.37072 3.48083 0
M  V30 4557 H 447.69 1.78511 4.58688 0
M  V30 4558 N 449.342 -1.36122 0.79427 0
M  V30 4559 C 450.753 -1.81646 0.431446 0
M  V30 4560 C 451.104 -1.66043 -1.04518 0
M  V30 4561 O 450.229 -1.1841 -1.8113 0
M  V30 4562 C 450.824 -3.29785 0.776341 0
M  V30 4563 C 449.383 -3.73501 0.466282 0
M  V30 4564 C 448.53 -2.58313 1.00844 0
M  V30 4565 H 451.481 -1.24274 0.986995 0
M  V30 4566 H 451.502 -3.80437 0.0692413 0
M  V30 4567 H 451.014 -3.4111 1.8511 0
M  V30 4568 H 449.115 -3.67733 -0.600245 0
M  V30 4569 H 449.228 -4.68754 0.990288 0
M  V30 4570 H 447.592 -2.5102 0.431406 0
M  V30 4571 H 448.375 -2.72421 2.08906 0
M  V30 4572 N 450.82 -0.546701 -1.47814 0
M  V30 4573 C 451.73 0.21026 -2.33656 0
M  V30 4574 C 452.746 0.922413 -1.47538 0
M  V30 4575 O 453.922 0.893652 -1.80488 0
M  V30 4576 C 450.987 1.23348 -3.24016 0
M  V30 4577 C 450.048 0.529883 -4.26017 0
M  V30 4578 C 449.281 1.50435 -5.12059 0
M  V30 4579 O 449.504 2.73837 -5.00369 0
M  V30 4580 O 448.438 1.03459 -5.92942 0
M  V30 4581 H 452.264 -0.493605 -2.99662 0
M  V30 4582 H 449.849 -0.307427 -1.46203 0
M  V30 4583 H 451.731 1.82438 -3.79861 0
M  V30 4584 H 450.406 1.91945 -2.60651 0
M  V30 4585 H 449.313 -0.101948 -3.73961 0
M  V30 4586 H 450.646 -0.11445 -4.92067 0
M  V30 4587 N 452.299 1.55045 -0.282633 0
M  V30 4588 C 453.229 2.2579 0.595066 0
M  V30 4589 C 454.21 1.25074 1.15284 0
M  V30 4590 O 455.395 1.5381 1.18559 0
M  V30 4591 C 452.525 2.98472 1.77572 0
M  V30 4592 C 451.479 4.0618 1.34914 0
M  V30 4593 C 450.805 4.66477 2.6135 0
M  V30 4594 C 452.105 5.1996 0.493821 0
M  V30 4595 H 453.799 2.994 0.00505653 0
M  V30 4596 H 451.345 1.44 0.000992001 0
M  V30 4597 H 453.298 3.46677 2.39568 0
M  V30 4598 H 452.022 2.2241 2.39168 0
M  V30 4599 H 450.681 3.58797 0.752338 0
M  V30 4600 H 450.329 3.87074 3.2122 0
M  V30 4601 H 450.029 5.39207 2.33516 0
M  V30 4602 H 451.553 5.17435 3.24181 0
M  V30 4603 H 452.967 5.64172 1.01898 0
M  V30 4604 H 451.364 5.99299 0.310047 0
M  V30 4605 H 452.434 4.82462 -0.485593 0
M  V30 4606 N 453.777 0.010035 1.57597 0
M  V30 4607 C 455.054 -0.710296 1.82248 0
M  V30 4608 C 455.434 -1.91426 0.889911 0
M  V30 4609 O 454.782 -2.28424 -0.0590292 0
M  V30 4610 C 454.992 -1.10655 3.30993 0
M  V30 4611 C 456.34 -1.50621 3.96987 0
M  V30 4612 O 457.364 -1.20007 3.35375 0
M  V30 4613 O 456.223 -2.07587 5.05539 0
M  V30 4614 H 453.317 -0.34673 0.750804 0
M  V30 4615 H 455.863 0.0362578 1.69661 0
M  V30 4616 H 454.635 -0.248826 3.90508 0
M  V30 4617 H 454.258 -1.91189 3.48615 0
M  V30 4618 N 455.255 -1.55392 -0.262866 0
M  V30 4619 C 456.185 -1.91978 -1.32917 0
M  V30 4620 C 457.166 -0.7828 -1.51017 0
M  V30 4621 O 458.351 -1.04178 -1.63892 0
M  V30 4622 C 455.481 -2.20055 -2.68687 0
M  V30 4623 C 454.435 -3.35854 -2.65304 0
M  V30 4624 C 453.761 -3.49435 -4.04721 0
M  V30 4625 C 455.061 -4.71977 -2.23685 0
M  V30 4626 H 456.755 -2.81292 -1.02544 0
M  V30 4627 H 454.301 -1.3534 -0.491846 0
M  V30 4628 H 456.254 -2.44237 -3.43404 0
M  V30 4629 H 454.978 -1.27551 -3.00663 0
M  V30 4630 H 453.637 -3.11655 -1.93045 0
M  V30 4631 H 453.285 -2.54379 -4.33936 0
M  V30 4632 H 452.985 -4.27297 -4.0335 0
M  V30 4633 H 454.509 -3.7592 -4.81161 0
M  V30 4634 H 455.923 -4.95637 -2.88127 0
M  V30 4635 H 454.32 -5.52828 -2.33456 0
M  V30 4636 H 455.39 -4.70115 -1.18827 0
M  V30 4637 N 456.733 0.527833 -1.48498 0
M  V30 4638 C 458.149 0.856571 -1.34666 0
M  V30 4639 C 458.349 1.98271 -0.35931 0
M  V30 4640 O 457.405 2.51551 0.218703 0
M  V30 4641 C 458.718 1.22207 -2.74747 0
M  V30 4642 C 460.266 1.33183 -2.83251 0
M  V30 4643 C 460.741 1.73075 -4.24039 0
M  V30 4644 N 462.232 1.80174 -4.26722 0
M  V30 4645 C 462.967 2.1243 -5.32598 0
M  V30 4646 N 462.463 2.43096 -6.4875 0
M  V30 4647 N 464.256 2.13454 -5.19994 0
M  V30 4648 H 456.407 -0.215174 -2.11307 0
M  V30 4649 H 458.67 -0.0336281 -0.947403 0
M  V30 4650 H 458.376 0.468195 -3.4857 0
M  V30 4651 H 458.25 2.17173 -3.08409 0
M  V30 4652 H 460.637 2.07647 -2.09683 0
M  V30 4653 H 460.718 0.363333 -2.53206 0
M  V30 4654 H 460.362 0.991712 -4.98124 0
M  V30 4655 H 460.292 2.70979 -4.51529 0
M  V30 4656 H 462.783 1.58744 -3.42942 0
M  V30 4657 H 463.096 2.6682 -7.25277 0
M  V30 4658 H 461.441 2.40611 -6.52021 0
M  V30 4659 H 464.632 1.88956 -4.28268 0
M  V30 4660 H 464.805 2.38261 -6.02608 0
M  V30 4661 N 458.211 1.37122 0.776871 0
M  V30 4662 C 459.436 1.354 1.57104 0
M  V30 4663 C 459.861 -0.0595562 1.88006 0
M  V30 4664 O 459.219 -1.03514 1.48844 0
M  V30 4665 C 459.267 2.19472 2.8612 0
M  V30 4666 O 458.371 1.59582 3.80273 0
M  V30 4667 H 457.712 0.462869 0.476076 0
M  V30 4668 H 460.242 1.80577 0.961932 0
M  V30 4669 H 460.252 2.32502 3.35271 0
M  V30 4670 H 458.927 3.22222 2.62956 0
M  V30 4671 H 457.504 1.55564 3.38902 0
M  V30 4672 N 459.689 -1.00246 1.21608 0
M  V30 4673 C 460.938 -1.73476 1.02902 0
M  V30 4674 C 461.251 -1.90643 -0.437561 0
M  V30 4675 O 462.457 -2.61105 -0.74407 0
M  V30 4676 C 460.913 -3.12079 1.79261 0
M  V30 4677 C 460.521 -3.02877 3.30106 0
M  V30 4678 C 462.265 -3.89421 1.68972 0
M  V30 4679 C 460.172 -4.36575 3.98944 0
M  V30 4680 H 459.102 -0.650408 0.381425 0
M  V30 4681 H 461.753 -1.11985 1.45367 0
M  V30 4682 H 460.135 -3.74196 1.2959 0
M  V30 4683 H 461.309 -2.49983 3.87098 0
M  V30 4684 H 459.624 -2.39022 3.40965 0
M  V30 4685 H 462.221 -4.88362 2.17731 0
M  V30 4686 H 462.564 -4.1122 0.648397 0
M  V30 4687 H 463.097 -3.33963 2.16133 0
M  V30 4688 H 459.836 -4.19978 5.03288 0
M  V30 4689 H 459.356 -4.8942 3.4674 0
M  V30 4690 H 461.035 -5.05364 4.04 0
M  V30 4691 N 461.167 -1.02423 -1.1978 0
M  V30 4692 C 462.114 -0.601023 -2.22837 0
M  V30 4693 C 463.084 0.382801 -1.61629 0
M  V30 4694 O 464.269 0.280514 -1.88727 0
M  V30 4695 C 461.409 0.0467755 -3.45068 0
M  V30 4696 C 460.522 -0.98253 -4.20678 0
M  V30 4697 C 459.657 -0.304982 -5.30324 0
M  V30 4698 C 458.696 -1.32052 -5.97686 0
M  V30 4699 N 457.833 -0.669105 -6.98904 0
M  V30 4700 H 462.673 -1.48444 -2.58396 0
M  V30 4701 H 460.21 -0.742936 -1.2696 0
M  V30 4702 H 462.168 0.439556 -4.14878 0
M  V30 4703 H 460.798 0.893796 -3.10179 0
M  V30 4704 H 459.85 -1.49341 -3.49859 0
M  V30 4705 H 461.162 -1.75455 -4.66923 0
M  V30 4706 H 460.316 0.142893 -6.06532 0
M  V30 4707 H 459.055 0.499283 -4.85138 0
M  V30 4708 H 458.06 -1.7787 -5.20233 0
M  V30 4709 H 459.285 -2.1262 -6.44957 0
M  V30 4710 H 457.231 0.115152 -6.55899 0
M  V30 4711 H 457.148 -1.37908 -7.43315 0
M  V30 4712 H 458.416 -0.245076 -7.79115 0
M  V30 4713 N 462.645 1.35699 -0.801477 0
M  V30 4714 C 463.555 2.33661 -0.209691 0
M  V30 4715 C 464.571 1.6162 0.644591 0
M  V30 4716 O 465.747 1.93529 0.557545 0
M  V30 4717 C 462.812 3.40816 0.636033 0
M  V30 4718 C 461.873 4.28639 -0.238147 0
M  V30 4719 C 461.106 5.30676 0.567307 0
M  V30 4720 O 461.329 5.41174 1.8024 0
M  V30 4721 O 460.263 6.01887 -0.0391336 0
M  V30 4722 H 464.089 2.8606 -1.01996 0
M  V30 4723 H 461.674 1.38379 -0.563164 0
M  V30 4724 H 463.556 4.06301 1.11791 0
M  V30 4725 H 462.231 2.90696 1.42399 0
M  V30 4726 H 461.138 3.66152 -0.767044 0
M  V30 4727 H 462.471 4.82143 -0.989915 0
M  V30 4728 N 464.123 0.554532 1.47522 0
M  V30 4729 C 465.369 0.0295227 2.02779 0
M  V30 4730 C 465.702 -1.31582 1.42828 0
M  V30 4731 O 464.977 -1.85561 0.582872 0
M  V30 4732 C 465.26 -0.0664057 3.60039 0
M  V30 4733 C 465.113 1.30585 4.30427 0
M  V30 4734 C 466.432 -0.781162 4.33112 0
M  V30 4735 H 463.551 0.0122027 0.736899 0
M  V30 4736 H 466.193 0.716305 1.7598 0
M  V30 4737 H 464.343 -0.651307 3.83002 0
M  V30 4738 H 466.015 1.93374 4.18813 0
M  V30 4739 H 464.258 1.88125 3.90886 0
M  V30 4740 H 464.929 1.19147 5.38988 0
M  V30 4741 H 467.405 -0.284565 4.15126 0
M  V30 4742 H 466.281 -0.817237 5.42782 0
M  V30 4743 H 466.542 -1.83672 4.0214 0
M  V30 4744 N 465.601 -1.54893 0.290851 0
M  V30 4745 C 466.878 -1.91991 -0.373989 0
M  V30 4746 C 467.258 -1.21694 -1.72493 0
M  V30 4747 O 466.606 -0.34917 -2.25816 0
M  V30 4748 C 466.816 -3.45419 -0.498703 0
M  V30 4749 C 468.164 -4.1748 -0.774298 0
M  V30 4750 O 469.188 -3.51398 -0.582908 0
M  V30 4751 O 468.047 -5.3445 -1.14129 0
M  V30 4752 H 465.141 -0.800593 -0.207315 0
M  V30 4753 H 467.687 -1.66297 0.338164 0
M  V30 4754 H 466.459 -3.88688 0.451392 0
M  V30 4755 H 466.082 -3.77117 -1.25972 0
M  V30 4756 N 467.08 -0.0183926 -1.57589 0
M  V30 4757 C 467.99 0.982943 -2.13015 0
M  V30 4758 C 469.006 1.36443 -1.07979 0
M  V30 4759 O 470.182 1.44802 -1.3998 0
M  V30 4760 C 467.247 2.25024 -2.63752 0
M  V30 4761 C 466.308 1.93018 -3.83461 0
M  V30 4762 C 465.541 3.13706 -4.31769 0
M  V30 4763 O 465.764 4.2601 -3.79305 0
M  V30 4764 O 464.698 2.96629 -5.23732 0
M  V30 4765 H 468.524 0.541709 -2.9883 0
M  V30 4766 H 466.109 0.201565 -1.48034 0
M  V30 4767 H 467.991 2.99441 -2.96502 0
M  V30 4768 H 466.666 2.68349 -1.81026 0
M  V30 4769 H 465.573 1.16019 -3.55655 0
M  V30 4770 H 466.906 1.54516 -4.67317 0
M  V30 4771 N 468.558 1.5553 0.254621 0
M  V30 4772 C 469.521 1.88872 1.29846 0
M  V30 4773 C 470.521 0.764591 1.41459 0
M  V30 4774 O 471.711 1.03265 1.40293 0
M  V30 4775 C 468.843 2.11032 2.67728 0
M  V30 4776 H 470.036 2.82201 1.01502 0
M  V30 4777 H 467.589 1.48303 0.493556 0
M  V30 4778 H 468.324 1.20146 3.01223 0
M  V30 4779 H 468.109 2.92895 2.60682 0
M  V30 4780 H 469.599 2.38038 3.43115 0
M  V30 4781 N 470.036 -0.519951 1.48776 0
M  V30 4782 C 470.983 -1.62352 1.64044 0
M  V30 4783 C 471.953 -1.58945 0.482251 0
M  V30 4784 O 473.138 -1.77219 0.706971 0
M  V30 4785 C 470.278 -3.00579 1.69547 0
M  V30 4786 C 469.391 -3.14145 2.96541 0
M  V30 4787 C 468.526 -4.42991 2.93142 0
M  V30 4788 C 467.565 -4.50122 4.14797 0
M  V30 4789 N 466.702 -5.7037 4.09418 0
M  V30 4790 H 471.542 -1.48643 2.58281 0
M  V30 4791 H 469.079 -0.723516 1.28077 0
M  V30 4792 H 471.037 -3.80671 1.70719 0
M  V30 4793 H 469.667 -3.13036 0.787918 0
M  V30 4794 H 468.719 -2.27239 3.05068 0
M  V30 4795 H 470.031 -3.15275 3.86527 0
M  V30 4796 H 469.185 -5.31385 2.92772 0
M  V30 4797 H 467.924 -4.44398 2.00902 0
M  V30 4798 H 466.929 -3.60133 4.15433 0
M  V30 4799 H 468.154 -4.50445 5.08208 0
M  V30 4800 H 466.1 -5.72655 3.20004 0
M  V30 4801 H 466.017 -5.73036 4.93119 0
M  V30 4802 H 467.285 -6.61023 4.13121 0
M  V30 4803 N 471.514 -1.37532 -0.769588 0
M  V30 4804 C 472.477 -1.33292 -1.86456 0
M  V30 4805 C 473.477 -0.236537 -1.59051 0
M  V30 4806 O 474.667 -0.492511 -1.67093 0
M  V30 4807 C 471.799 -1.07118 -3.23633 0
M  V30 4808 H 472.992 -2.30692 -1.91628 0
M  V30 4809 H 470.545 -1.22593 -0.969572 0
M  V30 4810 H 471.28 -0.102578 -3.24138 0
M  V30 4811 H 471.065 -1.86479 -3.44917 0
M  V30 4812 H 472.555 -1.06806 -4.03711 0
M  V30 4813 N 472.992 0.995999 -1.22138 0
M  V30 4814 C 473.939 2.08551 -0.988687 0
M  V30 4815 C 474.909 1.65864 0.0885021 0
M  V30 4816 O 476.094 1.90704 -0.0604589 0
M  V30 4817 C 473.234 3.40374 -0.569191 0
M  V30 4818 C 472.347 3.96421 -1.71681 0
M  V30 4819 C 471.482 5.1639 -1.2456 0
M  V30 4820 C 470.521 5.64567 -2.36497 0
M  V30 4821 N 469.658 6.75777 -1.90445 0
M  V30 4822 H 474.498 2.2779 -1.92135 0
M  V30 4823 H 472.035 1.1168 -0.957388 0
M  V30 4824 H 473.993 4.16068 -0.307166 0
M  V30 4825 H 472.623 3.21145 0.326462 0
M  V30 4826 H 471.675 3.17628 -2.09324 0
M  V30 4827 H 472.987 4.2816 -2.55891 0
M  V30 4828 H 472.141 5.99362 -0.940774 0
M  V30 4829 H 470.88 4.86266 -0.373662 0
M  V30 4830 H 469.885 4.80185 -2.67772 0
M  V30 4831 H 471.11 5.96716 -3.24202 0
M  V30 4832 H 469.056 6.47443 -1.05609 0
M  V30 4833 H 468.973 7.06818 -2.68223 0
M  V30 4834 H 470.241 7.62262 -1.63022 0
M  V30 4835 N 474.47 1.03057 1.19235 0
M  V30 4836 C 475.38 0.622922 2.26179 0
M  V30 4837 C 476.396 -0.346113 1.70523 0
M  V30 4838 O 477.572 -0.203572 2.00369 0
M  V30 4839 C 474.637 -0.0182063 3.46695 0
M  V30 4840 C 473.698 0.998546 4.17526 0
M  V30 4841 C 472.931 0.387917 5.32288 0
M  V30 4842 O 473.154 -0.808668 5.64639 0
M  V30 4843 O 472.088 1.1116 5.91546 0
M  V30 4844 H 475.914 1.51363 2.63292 0
M  V30 4845 H 473.499 0.800856 1.26122 0
M  V30 4846 H 475.381 -0.375606 4.19723 0
M  V30 4847 H 474.056 -0.882895 3.11427 0
M  V30 4848 H 472.963 1.40756 3.4661 0
M  V30 4849 H 474.296 1.83366 4.56769 0
M  V30 4850 N 475.948 -1.35272 0.808662 0
M  V30 4851 C 476.858 -2.33546 0.222079 0
M  V30 4852 C 477.874 -1.6196 -0.636011 0
M  V30 4853 O 479.05 -1.93822 -0.547274 0
M  V30 4854 C 476.115 -3.41148 -0.61795 0
M  V30 4855 C 475.176 -4.28507 0.260875 0
M  V30 4856 C 474.409 -5.3097 -0.539156 0
M  V30 4857 O 474.632 -5.42123 -1.77367 0
M  V30 4858 O 473.566 -6.01858 0.0710526 0
M  V30 4859 H 477.392 -2.85515 1.03512 0
M  V30 4860 H 474.977 -1.38079 0.570495 0
M  V30 4861 H 476.859 -4.06889 -1.09634 0
M  V30 4862 H 475.534 -2.91447 -1.40855 0
M  V30 4863 H 474.441 -3.6574 0.786451 0
M  V30 4864 H 475.774 -4.81611 1.01547 0
M  V30 4865 N 477.426 -0.562348 -1.47226 0
M  V30 4866 C 478.373 0.182461 -2.30078 0
M  V30 4867 C 479.343 0.903503 -1.39377 0
M  V30 4868 O 480.528 0.898188 -1.68337 0
M  V30 4869 C 477.668 1.20322 -3.23445 0
M  V30 4870 C 476.781 0.487717 -4.29238 0
M  V30 4871 C 475.916 1.49422 -5.09752 0
M  V30 4872 C 474.955 0.763976 -6.07314 0
M  V30 4873 N 474.092 1.71755 -6.80768 0
M  V30 4874 H 478.932 -0.530169 -2.93246 0
M  V30 4875 H 476.469 -0.273276 -1.44539 0
M  V30 4876 H 478.427 1.80768 -3.76004 0
M  V30 4877 H 477.057 1.88382 -2.6213 0
M  V30 4878 H 476.109 -0.231374 -3.79696 0
M  V30 4879 H 477.421 -0.0841003 -4.98729 0
M  V30 4880 H 476.575 2.17206 -5.66486 0
M  V30 4881 H 475.314 2.09995 -4.40174 0
M  V30 4882 H 474.319 0.0722344 -5.49753 0
M  V30 4883 H 475.544 0.16391 -6.78902 0
M  V30 4884 H 473.49 2.31177 -6.13916 0
M  V30 4885 H 473.407 1.19802 -7.46447 0
M  V30 4886 H 474.675 2.38638 -7.42073 0
M  V30 4887 N 478.904 1.54736 -0.299062 0
M  V30 4888 C 479.834 2.26409 0.571085 0
M  V30 4889 C 480.815 1.2629 1.13951 0
M  V30 4890 O 482 1.55059 1.16921 0
M  V30 4891 C 479.13 3.00338 1.74396 0
M  V30 4892 C 478.084 4.07588 1.30599 0
M  V30 4893 C 477.41 4.69222 2.56387 0
M  V30 4894 C 478.71 5.20455 0.438645 0
M  V30 4895 H 480.404 2.99388 -0.0266991 0
M  V30 4896 H 477.95 1.43993 -0.0142812 0
M  V30 4897 H 479.903 3.49198 2.35878 0
M  V30 4898 H 478.627 2.24934 2.36796 0
M  V30 4899 H 477.286 3.59575 0.71424 0
M  V30 4900 H 476.934 3.9046 3.17097 0
M  V30 4901 H 476.634 5.41653 2.27784 0
M  V30 4902 H 478.158 5.20844 3.18675 0
M  V30 4903 H 479.572 5.65221 0.959085 0
M  V30 4904 H 477.969 5.99594 0.246466 0
M  V30 4905 H 479.039 4.8192 -0.536738 0
M  V30 4906 N 480.382 0.0267497 1.57577 0
M  V30 4907 C 481.292 -0.971633 2.13533 0
M  V30 4908 C 482.308 -1.35868 1.08701 0
M  V30 4909 O 483.484 -1.44058 1.40746 0
M  V30 4910 C 480.549 -2.23622 2.64941 0
M  V30 4911 C 479.61 -1.90982 3.8448 0
M  V30 4912 C 478.843 -3.11411 4.33427 0
M  V30 4913 O 479.066 -4.23992 3.81558 0
M  V30 4914 O 478 -2.93848 5.25297 0
M  V30 4915 H 481.826 -0.525853 2.99113 0
M  V30 4916 H 479.411 -0.193712 1.48139 0
M  V30 4917 H 481.293 -2.97864 2.98086 0
M  V30 4918 H 479.968 -2.67386 1.82446 0
M  V30 4919 H 478.875 -1.14132 3.56265 0
M  V30 4920 H 480.208 -1.52036 4.6813 0
M  V30 4921 N 481.861 -1.55662 -0.24637 0
M  V30 4922 C 482.808 -1.90361 -1.30504 0
M  V30 4923 C 483.778 -0.757905 -1.47801 0
M  V30 4924 O 484.963 -1.01161 -1.61775 0
M  V30 4925 C 482.103 -2.2042 -2.65535 0
M  V30 4926 C 481.216 -3.47799 -2.56242 0
M  V30 4927 C 480.351 -3.67426 -3.8363 0
M  V30 4928 C 479.39 -4.88403 -3.68956 0
M  V30 4929 N 478.527 -5.04548 -4.88237 0
M  V30 4930 H 483.367 -2.80645 -1.00213 0
M  V30 4931 H 480.904 -1.38924 -0.483577 0
M  V30 4932 H 482.862 -2.35853 -3.44135 0
M  V30 4933 H 481.492 -1.3334 -2.93973 0
M  V30 4934 H 480.544 -3.40694 -1.69208 0
M  V30 4935 H 481.856 -4.36544 -2.4131 0
M  V30 4936 H 481.01 -3.82821 -4.70673 0
M  V30 4937 H 479.749 -2.76914 -4.01459 0
M  V30 4938 H 478.754 -4.72984 -2.80296 0
M  V30 4939 H 479.979 -5.80375 -3.52621 0
M  V30 4940 H 477.925 -4.16974 -5.06427 0
M  V30 4941 H 477.842 -5.87384 -4.75937 0
M  V30 4942 H 479.11 -5.24355 -5.76777 0
M  V30 4943 N 483.339 0.512053 -1.4905 0
M  V30 4944 C 484.579 1.27715 -1.59588 0
M  V30 4945 C 484.943 1.90071 -0.271502 0
M  V30 4946 O 486.144 2.67616 -0.251987 0
M  V30 4947 C 484.415 2.32399 -2.71524 0
M  V30 4948 S 485.974 3.18396 -3.01943 0
M  V30 4949 H 482.792 0.43419 -0.563027 0
M  V30 4950 H 485.394 0.581315 -1.86657 0
M  V30 4951 H 484.098 1.85101 -3.66287 0
M  V30 4952 H 483.629 3.06667 -2.46412 0
M  V30 4953 H 485.644 4.32842 -2.42616 0
M  V30 4954 N 484.817 1.37938 0.762283 0
M  V30 4955 C 486.065 1.33404 1.51815 0
M  V30 4956 C 486.386 -0.0780975 1.94844 0
M  V30 4957 O 485.656 -1.02405 1.67003 0
M  V30 4958 H 484.236 0.490839 0.563104 0
M  V30 4959 H 486.898 1.72527 0.906669 0
M  V30 4960 H 485.994 1.97926 2.41313 0
M  V30 4961 N 486.295 -0.989507 1.22664 0
M  V30 4962 C 487.205 -2.11449 1.01619 0
M  V30 4963 C 488.221 -1.73962 -0.036545 0
M  V30 4964 O 489.397 -2.00788 0.156924 0
M  V30 4965 C 486.462 -3.41465 0.600204 0
M  V30 4966 C 485.523 -3.93033 1.72695 0
M  V30 4967 C 484.756 -5.16844 1.33071 0
M  V30 4968 O 484.979 -5.7001 0.210975 0
M  V30 4969 O 483.913 -5.6225 2.14845 0
M  V30 4970 H 487.739 -2.32088 1.9588 0
M  V30 4971 H 485.324 -1.09823 1.01289 0
M  V30 4972 H 487.206 -4.19695 0.37873 0
M  V30 4973 H 485.881 -3.22178 -0.313511 0
M  V30 4974 H 484.788 -3.15961 2.00298 0
M  V30 4975 H 486.121 -4.16758 2.61865 0
M  V30 4976 N 487.773 -1.03688 -1.18687 0
M  V30 4977 C 489.05 -0.652397 -1.84399 0
M  V30 4978 C 489.43 0.868386 -1.92412 0
M  V30 4979 O 488.778 1.76832 -1.44716 0
M  V30 4980 C 488.988 -1.3238 -3.22919 0
M  V30 4981 C 490.336 -1.45216 -3.98996 0
M  V30 4982 O 491.36 -1.2816 -3.32345 0
M  V30 4983 O 490.219 -1.72975 -5.18403 0
M  V30 4984 H 487.313 -0.227793 -0.795009 0
M  V30 4985 H 489.859 -1.13553 -1.2611 0
M  V30 4986 H 488.631 -2.36202 -3.11968 0
M  V30 4987 H 488.254 -0.829039 -3.88861 0
M  V30 4988 N 489.251 1.34841 -0.815825 0
M  V30 4989 C 490.528 1.92908 -0.323416 0
M  V30 4990 C 490.908 1.74479 1.18828 0
M  V30 4991 O 490.256 1.11928 1.99209 0
M  V30 4992 C 490.466 3.40957 -0.744952 0
M  V30 4993 C 491.814 4.18107 -0.739716 0
M  V30 4994 O 492.838 3.49511 -0.68708 0
M  V30 4995 O 491.697 5.40517 -0.806456 0
M  V30 4996 H 488.791 0.822436 -0.0867646 0
M  V30 4997 H 491.337 1.4386 -0.90014 0
M  V30 4998 H 490.109 3.4814 -1.78646 0
M  V30 4999 H 489.732 3.97341 -0.143535 0
M  V30 5000 N 490.729 0.570148 1.46925 0
M  V30 5001 C 491.639 -0.173061 2.33961 0
M  V30 5002 C 492.655 -0.898825 1.48987 0
M  V30 5003 O 493.831 -0.864825 1.81887 0
M  V30 5004 C 490.896 -1.18177 3.25937 0
M  V30 5005 C 489.957 -0.462041 4.26806 0
M  V30 5006 C 489.19 -1.4227 5.14388 0
M  V30 5007 O 489.413 -2.65842 5.04662 0
M  V30 5008 O 488.347 -0.940127 5.94513 0
M  V30 5009 H 492.173 0.541216 2.98839 0
M  V30 5010 H 489.758 0.330647 1.45695 0
M  V30 5011 H 491.64 -1.76372 3.82715 0
M  V30 5012 H 490.315 -1.87774 2.63671 0
M  V30 5013 H 489.222 0.161429 3.73752 0
M  V30 5014 H 490.555 0.192719 4.91823 0
M  V30 5015 N 492.207 -1.54576 0.307264 0
M  V30 5016 C 493.435 -2.04675 -0.302597 0
M  V30 5017 C 493.85 -1.18425 -1.47041 0
M  V30 5018 O 493.207 -0.211257 -1.81273 0
M  V30 5019 C 493.258 -3.53575 -0.752801 0
M  V30 5020 O 492.979 -4.36547 0.368536 0
M  V30 5021 C 494.48 -4.19699 -1.42717 0
M  V30 5022 H 491.7 -0.66786 -0.0648374 0
M  V30 5023 H 494.244 -1.99516 0.448716 0
M  V30 5024 H 492.399 -3.59074 -1.45412 0
M  V30 5025 H 492.813 -5.24497 0.0168937 0
M  V30 5026 H 494.287 -5.25388 -1.69327 0
M  V30 5027 H 494.764 -3.69815 -2.36925 0
M  V30 5028 H 495.37 -4.18293 -0.768856 0
M  V30 5029 N 493.685 -0.035106 -1.57561 0
M  V30 5030 C 494.934 0.641604 -1.91223 0
M  V30 5031 C 495.247 1.72944 -0.913761 0
M  V30 5032 O 496.453 2.46321 -1.14185 0
M  V30 5033 C 494.909 1.19249 -3.3957 0
M  V30 5034 C 494.517 0.137616 -4.47789 0
M  V30 5035 C 496.261 1.84537 -3.82291 0
M  V30 5036 C 494.168 0.700478 -5.87237 0
M  V30 5037 H 493.098 0.243417 -0.713627 0
M  V30 5038 H 495.749 -0.101382 -1.8322 0
M  V30 5039 H 494.131 1.98728 -3.42525 0
M  V30 5040 H 495.305 -0.635153 -4.56402 0
M  V30 5041 H 493.62 -0.416855 -4.14308 0
M  V30 5042 H 496.217 2.27616 -4.83834 0
M  V30 5043 H 496.56 2.69054 -3.17672 0
M  V30 5044 H 497.093 1.11739 -3.81784 0
M  V30 5045 H 493.832 -0.106693 -6.55413 0
M  V30 5046 H 493.352 1.4416 -5.82218 0
M  V30 5047 H 495.031 1.18837 -6.35993 0
M  V30 5048 N 495.163 1.55791 0.238111 0
M  V30 5049 C 496.574 1.68383 0.806472 0
M  V30 5050 C 496.925 0.634157 1.85669 0
M  V30 5051 O 496.05 -0.217913 2.153 0
M  V30 5052 C 496.645 3.05268 1.46959 0
M  V30 5053 C 495.204 3.1977 1.98555 0
M  V30 5054 C 494.351 2.64279 0.839763 0
M  V30 5055 H 497.302 1.58694 0.0137535 0
M  V30 5056 H 497.323 3.00203 2.33792 0
M  V30 5057 H 496.835 3.81643 0.704993 0
M  V30 5058 H 494.936 2.48234 2.77868 0
M  V30 5059 H 495.049 4.26788 2.17689 0
M  V30 5060 H 493.413 2.22329 1.24265 0
M  V30 5061 H 494.196 3.43187 0.0881032 0
M  V30 5062 N 496.642 -0.504142 1.49319 0
M  V30 5063 C 497.867 -1.28729 1.62615 0
M  V30 5064 C 498.292 -1.85752 0.296309 0
M  V30 5065 O 497.65 -1.65704 -0.735649 0
M  V30 5066 C 497.698 -2.39561 2.69524 0
M  V30 5067 O 496.802 -3.43324 2.28478 0
M  V30 5068 H 496.143 -0.380172 0.544395 0
M  V30 5069 H 498.673 -0.603872 1.95485 0
M  V30 5070 H 498.683 -2.8537 2.91595 0
M  V30 5071 H 497.358 -1.97423 3.66056 0
M  V30 5072 H 495.935 -3.03455 2.16725 0
M  V30 5073 N 498.12 -1.38341 -0.754957 0
M  V30 5074 C 499.03 -1.3769 -1.89944 0
M  V30 5075 C 500.046 -0.274194 -1.71826 0
M  V30 5076 O 501.222 -0.512391 -1.94773 0
M  V30 5077 C 498.287 -1.19938 -3.25293 0
M  V30 5078 C 497.348 -2.40001 -3.55946 0
M  V30 5079 C 496.581 -2.23087 -4.84838 0
M  V30 5080 O 496.804 -1.22386 -5.57116 0
M  V30 5081 O 495.738 -3.11646 -5.14937 0
M  V30 5082 H 499.564 -2.3412 -1.93446 0
M  V30 5083 H 497.149 -1.19246 -0.900044 0
M  V30 5084 H 499.031 -1.12093 -4.06218 0
M  V30 5085 H 497.706 -0.265919 -3.22606 0
M  V30 5086 H 496.613 -2.53421 -2.75188 0
M  V30 5087 H 497.946 -3.31973 -3.63394 0
M  V30 5088 N 499.598 0.982988 -1.23187 0
M  V30 5089 C 500.828 1.75666 -1.08743 0
M  V30 5090 C 501.236 1.85662 0.364195 0
M  V30 5091 O 500.579 1.33317 1.26382 0
M  V30 5092 C 500.641 3.20144 -1.63549 0
M  V30 5093 C 500.305 3.33665 -3.12277 0
M  V30 5094 C 501.302 3.20194 -4.096 0
M  V30 5095 C 498.987 3.58397 -3.51933 0
M  V30 5096 C 500.981 3.31256 -5.44563 0
M  V30 5097 C 498.668 3.69098 -4.87042 0
M  V30 5098 C 499.666 3.55537 -5.83166 0
M  V30 5099 O 499.354 3.65864 -7.1582 0
M  V30 5100 H 499.086 0.558194 -0.381307 0
M  V30 5101 H 501.64 1.24387 -1.63454 0
M  V30 5102 H 499.87 3.72659 -1.03256 0
M  V30 5103 H 501.559 3.79262 -1.4462 0
M  V30 5104 H 502.325 3.00987 -3.80305 0
M  V30 5105 H 498.204 3.68025 -2.77631 0
M  V30 5106 H 501.748 3.20588 -6.19572 0
M  V30 5107 H 497.645 3.87814 -5.16014 0
M  V30 5108 H 498.413 3.82675 -7.23534 0
M  V30 5109 N 501.076 1.04316 1.18135 0
M  V30 5110 C 502.492 0.762858 1.40188 0
M  V30 5111 C 502.692 -0.646547 1.90846 0
M  V30 5112 O 501.748 -1.41036 2.0944 0
M  V30 5113 C 503.061 1.81106 2.40044 0
M  V30 5114 C 504.609 1.83226 2.53766 0
M  V30 5115 C 505.084 2.87044 3.56889 0
M  V30 5116 N 506.575 2.85951 3.64398 0
M  V30 5117 C 507.31 3.62932 4.43923 0
M  V30 5118 N 506.806 4.49672 5.27036 0
M  V30 5119 N 508.599 3.51411 4.38711 0
M  V30 5120 H 500.75 1.95264 0.835805 0
M  V30 5121 H 503.013 0.845017 0.429709 0
M  V30 5122 H 502.719 2.82214 2.09876 0
M  V30 5123 H 502.593 1.64529 3.39426 0
M  V30 5124 H 504.98 0.827869 2.8325 0
M  V30 5125 H 505.061 2.03879 1.54489 0
M  V30 5126 H 504.705 3.87663 3.28145 0
M  V30 5127 H 504.635 2.63645 4.5585 0
M  V30 5128 H 507.126 2.23051 3.05052 0
M  V30 5129 H 507.439 5.05116 5.84874 0
M  V30 5130 H 505.784 4.53738 5.26447 0
M  V30 5131 H 508.975 2.83047 3.72829 0
M  V30 5132 H 509.148 4.11654 5.00445 0
M  V30 5133 N 502.554 -1.34406 0.822964 0
M  V30 5134 C 503.484 -2.32052 0.259608 0
M  V30 5135 C 504.465 -1.58243 -0.623961 0
M  V30 5136 O 505.65 -1.86224 -0.55083 0
M  V30 5137 C 502.78 -3.42434 -0.579314 0
M  V30 5138 C 501.734 -4.27499 0.20712 0
M  V30 5139 C 501.06 -5.29349 -0.754547 0
M  V30 5140 C 502.36 -5.02758 1.41533 0
M  V30 5141 H 504.054 -2.79418 1.07545 0
M  V30 5142 H 501.6 -1.34338 0.518593 0
M  V30 5143 H 503.553 -4.0976 -0.983612 0
M  V30 5144 H 502.277 -2.93717 -1.4282 0
M  V30 5145 H 500.936 -3.61776 0.592787 0
M  V30 5146 H 500.584 -4.76895 -1.59939 0
M  V30 5147 H 500.284 -5.8714 -0.232561 0
M  V30 5148 H 501.808 -5.99544 -1.1567 0
M  V30 5149 H 503.222 -5.62938 1.08504 0
M  V30 5150 H 501.619 -5.70123 1.87296 0
M  V30 5151 H 502.689 -4.32451 2.1935 0
M  V30 5152 N 504.032 -0.577932 -1.46621 0
M  V30 5153 C 504.979 0.158048 -2.30258 0
M  V30 5154 C 505.949 0.888669 -1.40328 0
M  V30 5155 O 507.134 0.880283 -1.6928 0
M  V30 5156 C 504.274 1.16884 -3.24703 0
M  V30 5157 C 503.387 0.442163 -4.29731 0
M  V30 5158 C 502.522 1.44007 -5.11308 0
M  V30 5159 C 501.561 0.69952 -6.0809 0
M  V30 5160 N 500.698 1.64525 -6.82551 0
M  V30 5161 H 505.538 -0.561242 -2.92667 0
M  V30 5162 H 503.075 -0.288591 -1.44241 0
M  V30 5163 H 505.033 1.7677 -3.779 0
M  V30 5164 H 503.663 1.85591 -2.64113 0
M  V30 5165 H 502.715 -0.271632 -3.79429 0
M  V30 5166 H 504.027 -0.136992 -4.98612 0
M  V30 5167 H 503.181 2.11186 -5.68758 0
M  V30 5168 H 501.92 2.05315 -4.42377 0
M  V30 5169 H 500.925 0.0139217 -5.49798 0
M  V30 5170 H 502.15 0.091894 -6.79038 0
M  V30 5171 H 500.096 2.24653 -6.16334 0
M  V30 5172 H 500.013 1.11878 -7.47676 0
M  V30 5173 H 501.281 2.30754 -7.44562 0
M  V30 5174 N 505.51 1.54411 -0.315457 0
M  V30 5175 C 506.921 1.85885 0.174265 0
M  V30 5176 C 507.272 1.23723 1.52273 0
M  V30 5177 O 506.397 0.540246 2.09548 0
M  V30 5178 C 506.992 3.37257 0.322981 0
M  V30 5179 C 505.551 3.68711 0.756922 0
M  V30 5180 C 504.698 2.77013 -0.126195 0
M  V30 5181 H 507.649 1.49374 -0.536007 0
M  V30 5182 H 507.67 3.62539 1.15522 0
M  V30 5183 H 507.182 3.82471 -0.658602 0
M  V30 5184 H 505.283 3.29024 1.74854 0
M  V30 5185 H 505.396 4.75741 0.566291 0
M  V30 5186 H 503.76 2.51588 0.39692 0
M  V30 5187 H 504.543 3.25051 -1.1044 0
M  V30 5188 N 506.988 0.0434614 1.5754 0
M  V30 5189 C 507.951 -0.918696 2.09982 0
M  V30 5190 C 508.951 -1.24488 1.01781 0
M  V30 5191 O 510.141 -1.18284 1.27885 0
M  V30 5192 C 507.273 -2.23093 2.57764 0
M  V30 5193 H 508.466 -0.464229 2.96285 0
M  V30 5194 H 506.019 -0.204818 1.54952 0
M  V30 5195 H 506.754 -2.73137 1.74832 0
M  V30 5196 H 506.539 -2.00724 3.36827 0
M  V30 5197 H 508.029 -2.92028 2.98512 0
M  V30 5198 N 508.466 -1.55915 -0.229846 0
M  V30 5199 C 509.694 -1.82617 -0.972562 0
M  V30 5200 C 510.109 -0.621488 -1.78278 0
M  V30 5201 O 509.466 0.409956 -1.77836 0
M  V30 5202 C 509.517 -3.0774 -1.89679 0
M  V30 5203 O 509.238 -4.23559 -1.11934 0
M  V30 5204 C 510.739 -3.47368 -2.75409 0
M  V30 5205 H 507.959 -0.60727 -0.285419 0
M  V30 5206 H 510.503 -2.02996 -0.247579 0
M  V30 5207 H 508.658 -2.89361 -2.57583 0
M  V30 5208 H 509.072 -4.94586 -1.74599 0
M  V30 5209 H 510.546 -4.37977 -3.35977 0
M  V30 5210 H 511.023 -2.68737 -3.47386 0
M  V30 5211 H 511.629 -3.68158 -2.12931 0
M  V30 5212 N 509.944 0.496216 -1.49584 0
M  V30 5213 C 511.221 1.25755 -1.49816 0
M  V30 5214 C 511.601 2.09859 -0.228572 0
M  V30 5215 O 510.949 2.14449 0.788908 0
M  V30 5216 C 511.159 2.11017 -2.7798 0
M  V30 5217 C 512.507 2.70047 -3.27658 0
M  V30 5218 O 513.531 2.21281 -2.79129 0
M  V30 5219 O 512.39 3.58834 -4.1219 0
M  V30 5220 H 509.484 0.569322 -0.599834 0
M  V30 5221 H 512.03 0.510094 -1.61852 0
M  V30 5222 H 510.802 1.48879 -3.61871 0
M  V30 5223 H 510.425 2.92947 -2.68827 0
M  V30 5224 N 511.423 1.38739 0.74761 0
M  V30 5225 C 512.37 1.36449 1.86146 0
M  V30 5226 C 513.34 0.226098 1.64554 0
M  V30 5227 O 514.525 0.41926 1.86137 0
M  V30 5228 C 511.665 1.2013 3.23516 0
M  V30 5229 C 510.778 2.43407 3.56899 0
M  V30 5230 C 509.913 2.19773 4.83605 0
M  V30 5231 C 508.952 3.3879 5.09792 0
M  V30 5232 N 508.089 3.14553 6.27695 0
M  V30 5233 H 512.929 2.3167 1.87438 0
M  V30 5234 H 510.466 1.15094 0.916063 0
M  V30 5235 H 512.424 1.08683 4.02795 0
M  V30 5236 H 511.054 0.285453 3.21535 0
M  V30 5237 H 510.106 2.65504 2.72418 0
M  V30 5238 H 511.418 3.32094 3.72176 0
M  V30 5239 H 510.572 2.05496 5.70838 0
M  V30 5240 H 509.311 1.28461 4.70478 0
M  V30 5241 H 508.316 3.53579 4.21025 0
M  V30 5242 H 509.541 4.30986 5.24812 0
M  V30 5243 H 507.487 2.25893 6.1588 0
M  V30 5244 H 507.404 3.96791 6.435 0
M  V30 5245 H 508.672 3.03943 7.17801 0
M  V30 5246 N 512.901 -0.976442 1.23707 0
M  V30 5247 C 514.178 -1.69296 0.979699 0
M  V30 5248 C 514.558 -2.0508 -0.500555 0
M  V30 5249 O 513.906 -1.74708 -1.47273 0
M  V30 5250 C 514.116 -2.93143 1.89389 0
M  V30 5251 C 515.464 -3.65572 2.15968 0
M  V30 5252 O 516.488 -3.03184 1.86971 0
M  V30 5253 O 515.347 -4.77859 2.65167 0
M  V30 5254 H 512.441 -0.739708 0.369812 0
M  V30 5255 H 514.987 -1.03131 1.34767 0
M  V30 5256 H 513.759 -2.63327 2.89439 0
M  V30 5257 H 513.382 -3.67044 1.52854 0
M  V30 5258 N 514.379 -1.04941 -1.1758 0
M  V30 5259 C 515.627 -0.756492 -1.87408 0
M  V30 5260 C 515.948 0.718478 -1.81281 0
M  V30 5261 O 515.218 1.519 -1.23706 0
M  V30 5262 H 513.798 -0.276841 -0.693807 0
M  V30 5263 H 516.46 -1.32803 -1.42652 0
M  V30 5264 H 515.556 -1.06918 -2.93215 0
M  V30 5265 N 515.857 1.33968 -0.830081 0
M  V30 5266 C 516.804 2.29387 -0.255008 0
M  V30 5267 C 517.774 1.53923 0.624243 0
M  V30 5268 O 518.959 1.82262 0.564372 0
M  V30 5269 C 516.099 3.4034 0.571209 0
M  V30 5270 C 515.212 4.30729 -0.331083 0
M  V30 5271 C 514.347 5.2879 0.505389 0
M  V30 5272 C 513.386 6.10819 -0.395843 0
M  V30 5273 N 512.523 7.00948 0.401979 0
M  V30 5274 H 517.363 2.77972 -1.07404 0
M  V30 5275 H 514.9 1.36785 -0.541133 0
M  V30 5276 H 516.858 4.03361 1.06562 0
M  V30 5277 H 515.488 2.9297 1.35529 0
M  V30 5278 H 514.54 3.68507 -0.943759 0
M  V30 5279 H 515.852 4.88181 -1.02377 0
M  V30 5280 H 515.006 5.97297 1.06399 0
M  V30 5281 H 513.745 4.71894 1.23155 0
M  V30 5282 H 512.75 5.41238 -0.966529 0
M  V30 5283 H 513.975 6.69797 -1.12023 0
M  V30 5284 H 511.921 6.46512 1.11168 0
M  V30 5285 H 511.838 7.55643 -0.232167 0
M  V30 5286 H 513.106 7.73774 0.943102 0
M  V30 5287 N 517.335 0.585699 1.46312 0
M  V30 5288 C 518.746 0.159938 1.86014 0
M  V30 5289 C 519.097 -1.27775 1.48889 0
M  V30 5290 O 518.222 -1.96559 0.90519 0
M  V30 5291 C 518.817 0.283485 3.37612 0
M  V30 5292 C 517.376 -0.0874256 3.76298 0
M  V30 5293 C 516.523 0.618055 2.70325 0
M  V30 5294 H 519.474 0.793737 1.37425 0
M  V30 5295 H 519.495 -0.490348 3.77327 0
M  V30 5296 H 519.007 1.32995 3.64601 0
M  V30 5297 H 517.108 -1.13391 3.54927 0
M  V30 5298 H 517.221 0.290975 4.78216 0
M  V30 5299 H 515.585 0.057993 2.54634 0
M  V30 5300 H 516.368 1.66623 3.00153 0
M  V30 5301 N 518.813 -1.54241 0.323641 0
M  V30 5302 C 519.743 -2.27289 -0.534993 0
M  V30 5303 C 520.724 -1.28087 -1.11927 0
M  V30 5304 O 521.909 -1.56899 -1.14439 0
M  V30 5305 C 519.039 -3.03075 -1.69596 0
M  V30 5306 C 517.993 -4.09614 -1.24098 0
M  V30 5307 C 517.319 -4.73242 -2.4889 0
M  V30 5308 C 518.619 -5.21087 -0.355789 0
M  V30 5309 H 520.313 -2.99308 0.0743257 0
M  V30 5310 H 517.859 -1.43952 0.0371874 0
M  V30 5311 H 519.812 -3.52907 -2.30293 0
M  V30 5312 H 518.536 -2.28673 -2.33187 0
M  V30 5313 H 517.195 -3.60666 -0.656945 0
M  V30 5314 H 516.843 -3.95455 -3.10845 0
M  V30 5315 H 516.543 -5.45209 -2.19138 0
M  V30 5316 H 518.067 -5.25848 -3.10348 0
M  V30 5317 H 519.481 -5.66675 -0.869042 0
M  V30 5318 H 517.878 -5.9991 -0.151045 0
M  V30 5319 H 518.948 -4.81005 0.613339 0
M  V30 5320 N 520.291 -0.0518155 -1.57515 0
M  V30 5321 C 521.221 0.920283 -2.146 0
M  V30 5322 C 522.202 1.32406 -1.06783 0
M  V30 5323 O 523.387 1.39866 -1.34726 0
M  V30 5324 C 520.517 2.1949 -2.6915 0
M  V30 5325 C 519.471 1.93116 -3.81956 0
M  V30 5326 C 518.797 3.27037 -4.23026 0
M  V30 5327 C 520.097 1.25225 -5.07066 0
M  V30 5328 H 521.791 0.444801 -2.96077 0
M  V30 5329 H 519.337 0.212508 -1.42423 0
M  V30 5330 H 521.29 2.87894 -3.07725 0
M  V30 5331 H 520.014 2.69244 -1.84865 0
M  V30 5332 H 518.673 1.27123 -3.43854 0
M  V30 5333 H 518.321 3.74595 -3.3569 0
M  V30 5334 H 518.021 3.10189 -4.99056 0
M  V30 5335 H 519.545 3.96673 -4.64202 0
M  V30 5336 H 520.959 1.83666 -5.43083 0
M  V30 5337 H 519.356 1.18702 -5.88243 0
M  V30 5338 H 520.426 0.228382 -4.84362 0
M  V30 5339 N 521.769 1.56035 0.221574 0
M  V30 5340 C 523.18 1.69229 0.788567 0
M  V30 5341 C 523.531 0.653814 1.84986 0
M  V30 5342 O 522.656 -0.195065 2.15519 0
M  V30 5343 C 523.251 3.06809 1.43713 0
M  V30 5344 C 521.81 3.21858 1.95152 0
M  V30 5345 C 520.957 2.65155 0.811685 0
M  V30 5346 H 523.908 1.587 -0.00307894 0
M  V30 5347 H 523.929 3.02666 2.30594 0
M  V30 5348 H 523.441 3.82369 0.664475 0
M  V30 5349 H 521.542 2.51167 2.7522 0
M  V30 5350 H 521.655 4.29073 2.1315 0
M  V30 5351 H 520.019 2.23635 1.21899 0
M  V30 5352 H 520.802 3.43261 0.0516987 0
M  V30 5353 N 523.247 -0.488276 1.49845 0
M  V30 5354 C 524.157 -1.61451 1.70207 0
M  V30 5355 C 525.173 -1.63877 0.584846 0
M  V30 5356 O 526.349 -1.82063 0.861107 0
M  V30 5357 C 523.414 -2.9776 1.77594 0
M  V30 5358 C 522.475 -3.05861 3.01243 0
M  V30 5359 C 521.708 -4.35668 3.08268 0
M  V30 5360 O 521.931 -5.25197 2.22541 0
M  V30 5361 O 520.865 -4.49005 4.00847 0
M  V30 5362 H 524.691 -1.47199 2.65643 0
M  V30 5363 H 522.276 -0.665939 1.33737 0
M  V30 5364 H 524.158 -3.7875 1.84732 0
M  V30 5365 H 522.833 -3.12248 0.8534 0
M  V30 5366 H 521.74 -2.24012 2.99616 0
M  V30 5367 H 523.073 -2.96304 3.9302 0
M  V30 5368 N 524.725 -1.39134 -0.740242 0
M  V30 5369 C 526.136 -1.32208 -1.31825 0
M  V30 5370 C 526.487 0.0159919 -1.96193 0
M  V30 5371 O 525.612 0.918111 -1.95958 0
M  V30 5372 C 526.207 -2.39436 -2.39699 0
M  V30 5373 C 524.766 -2.36048 -2.93187 0
M  V30 5374 C 523.913 -2.21599 -1.66701 0
M  V30 5375 H 526.864 -1.49298 -0.538133 0
M  V30 5376 H 526.885 -2.05922 -3.19963 0
M  V30 5377 H 526.397 -3.36811 -1.92821 0
M  V30 5378 H 524.498 -1.42295 -3.44359 0
M  V30 5379 H 524.611 -3.30704 -3.46658 0
M  V30 5380 H 522.975 -1.68681 -1.90837 0
M  V30 5381 H 523.758 -3.20936 -1.21882 0
M  V30 5382 N 526.204 0.969867 -1.24223 0
M  V30 5383 C 527.114 2.09806 -1.0497 0
M  V30 5384 C 528.13 1.73998 0.00886455 0
M  V30 5385 O 529.306 2.00513 -0.188848 0
M  V30 5386 C 526.371 3.40467 -0.654452 0
M  V30 5387 C 525.432 3.90236 -1.78926 0
M  V30 5388 C 524.665 5.14662 -1.41277 0
M  V30 5389 O 524.888 5.69602 -0.301632 0
M  V30 5390 O 523.822 5.58761 -2.23763 0
M  V30 5391 H 527.648 2.28942 -1.99548 0
M  V30 5392 H 525.233 1.08197 -1.03023 0
M  V30 5393 H 527.115 4.19039 -0.445452 0
M  V30 5394 H 525.79 3.22636 0.262216 0
M  V30 5395 H 524.697 3.12735 -2.05299 0
M  V30 5396 H 526.03 4.1254 -2.68462 0
M  V30 5397 N 527.682 1.05563 1.17022 0
M  V30 5398 C 528.592 0.670758 2.24807 0
M  V30 5399 C 529.608 -0.309865 1.71219 0
M  V30 5400 O 530.784 -0.161025 2.00755 0
M  V30 5401 C 527.849 0.055337 3.46656 0
M  V30 5402 C 526.91 1.08688 4.15314 0
M  V30 5403 C 526.143 0.500736 5.31346 0
M  V30 5404 O 526.366 -0.688718 5.66227 0
M  V30 5405 O 525.3 1.23683 5.89055 0
M  V30 5406 H 529.126 1.56914 2.60023 0
M  V30 5407 H 526.711 0.827428 1.24395 0
M  V30 5408 H 528.593 -0.286492 4.20425 0
M  V30 5409 H 527.268 -0.816638 3.13229 0
M  V30 5410 H 526.175 1.48077 3.43546 0
M  V30 5411 H 527.508 1.93014 4.52777 0
M  V30 5412 N 529.16 -1.33526 0.837174 0
M  V30 5413 C 530.107 -2.29248 0.267169 0
M  V30 5414 C 531.077 -1.54252 -0.616071 0
M  V30 5415 O 532.262 -1.82559 -0.554699 0
M  V30 5416 C 529.402 -3.40638 -0.553152 0
M  V30 5417 C 528.515 -4.30548 0.353921 0
M  V30 5418 C 527.65 -5.29051 -0.477339 0
M  V30 5419 C 526.689 -6.106 0.42823 0
M  V30 5420 N 525.826 -7.01152 -0.364801 0
M  V30 5421 H 530.666 -2.77398 1.08877 0
M  V30 5422 H 528.203 -1.36496 0.54838 0
M  V30 5423 H 530.161 -4.03921 -1.04422 0
M  V30 5424 H 528.791 -2.93685 -1.33973 0
M  V30 5425 H 527.843 -3.68001 0.963289 0
M  V30 5426 H 529.155 -4.87631 1.04964 0
M  V30 5427 H 528.309 -5.97853 -1.0323 0
M  V30 5428 H 527.048 -4.72541 -1.2065 0
M  V30 5429 H 526.053 -5.40718 0.995219 0
M  V30 5430 H 527.278 -6.69193 1.15573 0
M  V30 5431 H 525.224 -6.47092 -1.07738 0
M  V30 5432 H 525.141 -7.5551 0.272238 0
M  V30 5433 H 526.409 -7.74263 -0.902054 0
M  V30 5434 N 530.638 -0.59345 -1.46 0
M  V30 5435 C 532.049 -0.169801 -1.85926 0
M  V30 5436 C 532.4 1.26984 -1.49565 0
M  V30 5437 O 531.525 1.96076 -0.915602 0
M  V30 5438 C 532.12 -0.301385 -3.37457 0
M  V30 5439 C 530.679 0.0674684 -3.7634 0
M  V30 5440 C 529.826 -0.632383 -2.69993 0
M  V30 5441 H 532.777 -0.801014 -1.37002 0
M  V30 5442 H 532.798 0.470331 -3.77582 0
M  V30 5443 H 532.31 -1.34927 -3.63891 0
M  V30 5444 H 530.411 1.11507 -3.55523 0
M  V30 5445 H 530.524 -0.316332 -4.78055 0
M  V30 5446 H 528.888 -0.0714961 -2.546 0
M  V30 5447 H 529.671 -1.68212 -2.99265 0
M  V30 5448 N 532.116 1.54067 -0.331816 0
M  V30 5449 C 533.063 2.24623 0.530372 0
M  V30 5450 C 534.033 1.24009 1.10503 0
M  V30 5451 O 535.218 1.52712 1.14384 0
M  V30 5452 C 532.358 3.01374 1.68129 0
M  V30 5453 C 531.471 4.16821 1.13507 0
M  V30 5454 C 530.606 4.81085 2.25234 0
M  V30 5455 C 529.645 5.88621 1.67903 0
M  V30 5456 N 528.782 6.46713 2.73326 0
M  V30 5457 H 533.622 2.97898 -0.0778607 0
M  V30 5458 H 531.159 1.47014 -0.0501965 0
M  V30 5459 H 533.117 3.44125 2.35868 0
M  V30 5460 H 531.747 2.30419 2.26069 0
M  V30 5461 H 530.799 3.78796 0.348979 0
M  V30 5462 H 532.111 4.94203 0.675633 0
M  V30 5463 H 531.265 5.26846 3.00862 0
M  V30 5464 H 530.004 4.03102 2.74518 0
M  V30 5465 H 529.009 5.42254 0.907773 0
M  V30 5466 H 530.234 6.68506 1.19487 0
M  V30 5467 H 528.18 5.71599 3.21886 0
M  V30 5468 H 528.097 7.19532 2.3197 0
M  V30 5469 H 529.365 6.97129 3.48758 0
M  V30 5470 N 533.594 0.0601682 1.57485 0
M  V30 5471 C 535.005 -0.474217 1.80577 0
M  V30 5472 C 535.356 -1.70365 0.973147 0
M  V30 5473 O 534.481 -2.15544 0.192306 0
M  V30 5474 C 535.076 -0.867102 3.27516 0
M  V30 5475 C 533.635 -1.34642 3.51495 0
M  V30 5476 C 532.782 -0.32594 2.75378 0
M  V30 5477 H 535.733 0.285973 1.56102 0
M  V30 5478 H 535.754 -1.72938 3.38929 0
M  V30 5479 H 535.266 0.0278927 3.8809 0
M  V30 5480 H 533.367 -2.2603 2.96212 0
M  V30 5481 H 533.48 -1.33237 4.60201 0
M  V30 5482 H 531.844 -0.800749 2.41785 0
M  V30 5483 H 532.627 0.561125 3.38683 0
M  V30 5484 N 535.072 -1.5615 -0.213296 0
M  V30 5485 C 536.488 -1.49327 -0.56336 0
M  V30 5486 C 536.688 -0.756826 -1.86747 0
M  V30 5487 O 535.744 -0.299866 -2.50713 0
M  V30 5488 C 537.057 -2.9392 -0.634944 0
M  V30 5489 C 538.605 -3.04487 -0.725013 0
M  V30 5490 C 539.08 -4.50456 -0.82787 0
M  V30 5491 N 540.571 -4.54533 -0.891876 0
M  V30 5492 C 541.306 -5.64766 -0.991315 0
M  V30 5493 N 540.802 -6.84733 -1.05419 0
M  V30 5494 N 542.595 -5.52637 -1.02709 0
M  V30 5495 H 534.746 -2.02453 0.642366 0
M  V30 5496 H 537.009 -0.920548 0.226487 0
M  V30 5497 H 536.715 -3.50783 0.253859 0
M  V30 5498 H 536.589 -3.46274 -1.49579 0
M  V30 5499 H 538.976 -2.47685 -1.60425 0
M  V30 5500 H 539.057 -2.55289 0.161669 0
M  V30 5501 H 538.701 -5.07878 0.0469464 0
M  V30 5502 H 538.631 -4.97369 -1.73009 0
M  V30 5503 H 541.122 -3.68141 -0.85327 0
M  V30 5504 H 541.435 -7.64493 -1.13007 0
M  V30 5505 H 539.78 -6.87427 -1.02318 0
M  V30 5506 H 542.971 -4.5784 -0.974687 0
M  V30 5507 H 543.144 -6.38576 -1.10113 0
M  V30 5508 N 536.55 0.480323 -1.50102 0
M  V30 5509 C 537.775 1.26126 -1.64642 0
M  V30 5510 C 538.2 1.85257 -0.325823 0
M  V30 5511 O 537.558 1.66854 0.709194 0
M  V30 5512 C 537.606 2.35243 -2.73301 0
M  V30 5513 O 536.71 3.39646 -2.33911 0
M  V30 5514 H 536.051 0.371463 -0.550374 0
M  V30 5515 H 538.581 0.572696 -1.96421 0
M  V30 5516 H 538.591 2.80695 -2.96098 0
M  V30 5517 H 537.266 1.91574 -3.6915 0
M  V30 5518 H 535.843 2.99969 -2.21525 0
M  V30 5519 N 538.028 1.39524 0.732853 0
M  V30 5520 C 538.938 1.40695 1.87729 0
M  V30 5521 C 539.954 0.301496 1.71368 0
M  V30 5522 O 541.13 0.543313 1.93933 0
M  V30 5523 C 538.195 1.25098 3.23344 0
M  V30 5524 C 537.256 2.45634 3.52083 0
M  V30 5525 C 536.489 2.30772 4.81228 0
M  V30 5526 O 536.712 1.31233 5.55098 0
M  V30 5527 O 535.646 3.19799 5.09914 0
M  V30 5528 H 539.472 2.37168 1.89697 0
M  V30 5529 H 537.057 1.20663 0.880959 0
M  V30 5530 H 538.939 1.18541 4.04383 0
M  V30 5531 H 537.614 0.317209 3.22142 0
M  V30 5532 H 536.521 2.57767 2.71122 0
M  V30 5533 H 537.854 3.37712 3.58066 0
M  V30 5534 N 539.506 -0.963266 1.24736 0
M  V30 5535 C 540.731 -1.74699 1.11781 0
M  V30 5536 C 541.156 -1.85267 -0.325258 0
M  V30 5537 O 540.514 -1.32681 -1.23553 0
M  V30 5538 C 540.562 -3.14322 1.76731 0
M  V30 5539 O 539.666 -3.99043 1.04109 0
M  V30 5540 H 539.007 -0.53684 0.390767 0
M  V30 5541 H 541.537 -1.20801 1.65131 0
M  V30 5542 H 541.547 -3.64824 1.82668 0
M  V30 5543 H 540.222 -3.05946 2.81726 0
M  V30 5544 H 538.799 -3.5752 1.05991 0
M  V30 5545 N 540.985 -1.06182 -1.16461 0
M  V30 5546 C 541.895 -0.682671 -2.24448 0
M  V30 5547 C 542.911 0.30078 -1.71381 0
M  V30 5548 O 544.087 0.150376 -2.00838 0
M  V30 5549 C 541.152 -0.0737202 -3.46622 0
M  V30 5550 C 540.213 -1.10889 -4.14731 0
M  V30 5551 C 539.446 -0.528908 -5.31073 0
M  V30 5552 O 539.669 0.65868 -5.66584 0
M  V30 5553 O 538.603 -1.26805 -5.88391 0
M  V30 5554 H 542.429 -1.58291 -2.59187 0
M  V30 5555 H 540.014 -0.834013 -1.23954 0
M  V30 5556 H 541.896 0.264192 -4.20571 0
M  V30 5557 H 540.571 0.800015 -3.13658 0
M  V30 5558 H 539.478 -1.49896 -3.42756 0
M  V30 5559 H 540.811 -1.95412 -4.51747 0
M  V30 5560 N 542.463 1.3308 -0.844243 0
M  V30 5561 C 543.393 2.3161 -0.296493 0
M  V30 5562 C 544.374 1.59215 0.598707 0
M  V30 5563 O 545.559 1.87077 0.521134 0
M  V30 5564 C 542.689 3.43313 0.524762 0
M  V30 5565 C 541.643 4.27115 -0.275106 0
M  V30 5566 C 540.969 5.30483 0.670236 0
M  V30 5567 C 542.269 5.00443 -1.49514 0
M  V30 5568 H 543.963 2.77672 -1.11976 0
M  V30 5569 H 541.509 1.33496 -0.539899 0
M  V30 5570 H 543.462 4.11273 0.918298 0
M  V30 5571 H 542.186 2.95952 1.3813 0
M  V30 5572 H 540.845 3.60787 -0.650267 0
M  V30 5573 H 540.493 4.79379 1.52332 0
M  V30 5574 H 540.193 5.87435 0.139123 0
M  V30 5575 H 541.717 6.01308 1.06117 0
M  V30 5576 H 543.131 5.61141 -1.17447 0
M  V30 5577 H 541.528 5.67071 -1.96343 0
M  V30 5578 H 542.598 4.28906 -2.26202 0
M  V30 5579 N 543.941 0.601185 1.45683 0
M  V30 5580 C 545.19 0.0914953 2.01492 0
M  V30 5581 C 545.503 -1.28331 1.47616 0
M  V30 5582 O 546.709 -1.88537 1.95362 0
M  V30 5583 C 545.165 0.11291 3.59723 0
M  V30 5584 C 544.773 1.48717 4.22596 0
M  V30 5585 C 546.517 -0.341871 4.23121 0
M  V30 5586 C 544.424 1.46531 5.7296 0
M  V30 5587 H 543.354 0.0304365 0.753385 0
M  V30 5588 H 546.005 0.755568 1.67223 0
M  V30 5589 H 544.387 -0.617692 3.91153 0
M  V30 5590 H 545.561 2.23897 4.02749 0
M  V30 5591 H 543.876 1.88351 3.71366 0
M  V30 5592 H 546.473 -0.377304 5.33367 0
M  V30 5593 H 546.816 -1.36325 3.93346 0
M  V30 5594 H 547.349 0.335256 3.96385 0
M  V30 5595 H 544.088 2.46408 6.07423 0
M  V30 5596 H 543.608 0.755997 5.95017 0
M  V30 5597 H 545.287 1.18618 6.36034 0
M  V30 5598 N 545.419 -1.53889 0.339982 0
M  V30 5599 C 546.696 -1.93084 -0.312719 0
M  V30 5600 C 547.076 -1.2712 -1.68534 0
M  V30 5601 O 546.424 -0.420835 -2.24591 0
M  V30 5602 C 546.634 -3.4683 -0.388558 0
M  V30 5603 C 547.982 -4.19732 -0.641088 0
M  V30 5604 O 549.006 -3.53075 -0.470818 0
M  V30 5605 O 547.865 -5.3781 -0.970685 0
M  V30 5606 H 544.959 -0.806784 -0.18174 0
M  V30 5607 H 547.505 -1.65137 0.390898 0
M  V30 5608 H 546.277 -3.87055 0.574821 0
M  V30 5609 H 545.9 -3.80933 -1.1391 0
M  V30 5610 N 546.897 -0.0685191 -1.57451 0
M  V30 5611 C 547.807 0.914677 -2.16034 0
M  V30 5612 C 548.823 1.32938 -1.12265 0
M  V30 5613 O 549.999 1.40275 -1.44516 0
M  V30 5614 C 547.064 2.16519 -2.70777 0
M  V30 5615 C 546.125 1.80721 -3.89408 0
M  V30 5616 C 545.358 2.9981 -4.41531 0
M  V30 5617 O 545.581 4.13727 -3.92666 0
M  V30 5618 O 544.515 2.79817 -5.32903 0
M  V30 5619 H 548.341 0.446364 -3.00402 0
M  V30 5620 H 545.926 0.154367 -1.486 0
M  V30 5621 H 547.808 2.89856 -3.05878 0
M  V30 5622 H 546.483 2.62454 -1.89471 0
M  V30 5623 H 545.39 1.04646 -3.59166 0
M  V30 5624 H 546.723 1.39571 -4.71997 0
M  V30 5625 N 548.375 1.56261 0.205012 0
M  V30 5626 C 549.305 1.96779 1.257 0
M  V30 5627 C 550.286 0.838309 1.48008 0
M  V30 5628 O 551.471 1.10189 1.59913 0
M  V30 5629 C 548.601 2.29876 2.60335 0
M  V30 5630 C 547.555 3.45469 2.52656 0
M  V30 5631 C 546.881 3.64215 3.91473 0
M  V30 5632 C 548.181 4.79954 2.06014 0
M  V30 5633 H 549.875 2.84904 0.920338 0
M  V30 5634 H 547.421 1.37072 0.441277 0
M  V30 5635 H 549.374 2.56814 3.34102 0
M  V30 5636 H 548.098 1.38622 2.95722 0
M  V30 5637 H 546.757 3.18605 1.81345 0
M  V30 5638 H 546.405 2.70309 4.24196 0
M  V30 5639 H 546.105 4.41973 3.87213 0
M  V30 5640 H 547.629 3.93519 4.66878 0
M  V30 5641 H 549.043 5.05989 2.69533 0
M  V30 5642 H 547.44 5.61111 2.12777 0
M  V30 5643 H 548.51 4.74201 1.01297 0
M  V30 5644 N 549.853 -0.472356 1.50355 0
M  V30 5645 C 551.078 -1.25251 1.65309 0
M  V30 5646 C 551.503 -1.85081 0.335643 0
M  V30 5647 O 550.861 -1.67227 -0.700335 0
M  V30 5648 C 550.909 -2.3379 2.74544 0
M  V30 5649 O 550.013 -3.38401 2.35709 0
M  V30 5650 H 549.354 -0.368539 0.552336 0
M  V30 5651 H 551.884 -0.562271 1.96722 0
M  V30 5652 H 551.894 -2.79121 2.97583 0
M  V30 5653 H 550.569 -1.89614 3.70161 0
M  V30 5654 H 549.146 -2.9879 2.23112 0
M  V30 5655 N 551.331 -1.39911 -0.725443 0
M  V30 5656 C 552.241 -1.41688 -1.8698 0
M  V30 5657 C 553.257 -0.310579 -1.71206 0
M  V30 5658 O 554.433 -0.55359 -1.93642 0
M  V30 5659 C 551.498 -1.26811 -3.22676 0
M  V30 5660 C 550.559 -2.47497 -3.50776 0
M  V30 5661 C 549.792 -2.3332 -4.79997 0
M  V30 5662 O 550.015 -1.34175 -5.54394 0
M  V30 5663 O 548.949 -3.22498 -5.08211 0
M  V30 5664 H 552.775 -2.38171 -1.88436 0
M  V30 5665 H 550.36 -1.21128 -0.874548 0
M  V30 5666 H 552.242 -1.20684 -4.03749 0
M  V30 5667 H 550.917 -0.334289 -3.21969 0
M  V30 5668 H 549.824 -2.59201 -2.69751 0
M  V30 5669 H 551.157 -3.39606 -3.5627 0
M  V30 5670 N 552.809 0.956637 -1.25245 0
M  V30 5671 C 554.086 1.67716 -1.00651 0
M  V30 5672 C 554.466 2.0585 0.467866 0
M  V30 5673 O 553.814 1.77029 1.44475 0
M  V30 5674 C 554.024 2.90093 -1.94028 0
M  V30 5675 C 555.372 3.6209 -2.21756 0
M  V30 5676 O 556.396 3.00171 -1.9177 0
M  V30 5677 O 555.255 4.7358 -2.72735 0
M  V30 5678 H 552.349 0.733731 -0.381533 0
M  V30 5679 H 554.895 1.00974 -1.3639 0
M  V30 5680 H 553.667 2.58689 -2.93591 0
M  V30 5681 H 553.29 3.64566 -1.58674 0
M  V30 5682 N 554.287 1.06798 1.15896 0
M  V30 5683 C 555.534 0.787767 1.86549 0
M  V30 5684 C 555.862 -0.685959 1.82002 0
M  V30 5685 O 555.117 -1.5188 1.23414 0
M  V30 5686 C 555.416 1.23414 3.35416 0
M  V30 5687 C 555.082 2.71285 3.6016 0
M  V30 5688 C 553.744 3.11676 3.66622 0
M  V30 5689 C 556.096 3.6676 3.7032 0
M  V30 5690 C 553.424 4.4637 3.8075 0
M  V30 5691 C 555.776 5.01209 3.8597 0
M  V30 5692 C 554.44 5.41229 3.90676 0
M  V30 5693 H 553.71 0.288264 0.682631 0
M  V30 5694 H 556.357 1.338 1.37003 0
M  V30 5695 H 554.662 0.60319 3.87129 0
M  V30 5696 H 556.359 0.994298 3.88477 0
M  V30 5697 H 552.949 2.39015 3.55767 0
M  V30 5698 H 557.133 3.36685 3.64633 0
M  V30 5699 H 552.389 4.76855 3.82648 0
M  V30 5700 H 556.563 5.75067 3.92773 0
M  V30 5701 H 554.19 6.45602 4.01375 0
M  V30 5702 N 555.766 -1.3263 0.851289 0
M  V30 5703 C 557.043 -1.91982 0.374448 0
M  V30 5704 C 557.423 -1.77568 -1.14161 0
M  V30 5705 O 556.771 -1.1717 -1.96172 0
M  V30 5706 C 556.981 -3.38862 0.835088 0
M  V30 5707 C 558.329 -4.15999 0.850309 0
M  V30 5708 O 559.353 -3.47566 0.779505 0
M  V30 5709 O 558.212 -5.38189 0.949481 0
M  V30 5710 H 555.306 -0.819846 0.10854 0
M  V30 5711 H 557.852 -1.41422 0.937966 0
M  V30 5712 H 556.624 -3.43281 1.87814 0
M  V30 5713 H 556.247 -3.96821 0.248833 0
M  V30 5714 N 557.244 -0.608902 -1.45362 0
M  V30 5715 C 558.66 -0.272659 -1.57254 0
M  V30 5716 C 558.86 1.22477 -1.60005 0
M  V30 5717 O 557.916 2.00785 -1.53106 0
M  V30 5718 C 559.229 -0.944991 -2.85465 0
M  V30 5719 C 560.777 -0.921033 -2.99142 0
M  V30 5720 C 561.252 -1.5734 -4.30126 0
M  V30 5721 N 562.743 -1.53895 -4.36887 0
M  V30 5722 C 563.478 -2.01286 -5.36909 0
M  V30 5723 N 562.974 -2.56768 -6.43461 0
M  V30 5724 N 564.767 -1.92046 -5.28275 0
M  V30 5725 H 556.918 -1.58117 -1.4182 0
M  V30 5726 H 559.181 -0.662437 -0.678146 0
M  V30 5727 H 558.887 -1.99941 -2.89338 0
M  V30 5728 H 558.761 -0.469079 -3.74272 0
M  V30 5729 H 561.148 0.124846 -2.94836 0
M  V30 5730 H 561.229 -1.43522 -2.11743 0
M  V30 5731 H 560.873 -2.61862 -4.35191 0
M  V30 5732 H 560.803 -1.03422 -5.16344 0
M  V30 5733 H 563.294 -1.13366 -3.60495 0
M  V30 5734 H 563.607 -2.9072 -7.16032 0
M  V30 5735 H 561.952 -2.60808 -6.44208 0
M  V30 5736 H 565.143 -1.48439 -4.43941 0
M  V30 5737 H 565.316 -2.29293 -6.06077 0
M  V30 5738 N 558.722 1.53707 -0.348139 0
M  V30 5739 C 559.947 2.05877 0.250883 0
M  V30 5740 C 560.372 1.22115 1.43072 0
M  V30 5741 O 559.73 0.235986 1.79758 0
M  V30 5742 C 559.778 3.54886 0.639416 0
M  V30 5743 O 558.882 3.73948 1.73888 0
M  V30 5744 H 558.223 0.662754 0.040653 0
M  V30 5745 H 560.753 1.98303 -0.503685 0
M  V30 5746 H 560.763 3.97601 0.915295 0
M  V30 5747 H 559.438 4.153 -0.223386 0
M  V30 5748 H 558.015 3.43134 1.45991 0
M  V30 5749 N 560.2 0.0768682 1.57412 0
M  V30 5750 C 561.11 -0.903207 2.16516 0
M  V30 5751 C 562.126 -1.32341 1.12968 0
M  V30 5752 O 563.302 -1.39507 1.45258 0
M  V30 5753 C 560.367 -2.1508 2.71922 0
M  V30 5754 C 559.428 -1.78653 3.90361 0
M  V30 5755 C 558.661 -2.97465 4.43114 0
M  V30 5756 O 558.884 -4.11638 3.94854 0
M  V30 5757 O 557.818 -2.76987 5.3438 0
M  V30 5758 H 561.644 -0.430427 3.00634 0
M  V30 5759 H 559.229 -0.146485 1.4868 0
M  V30 5760 H 561.111 -2.8823 3.07411 0
M  V30 5761 H 559.786 -2.61446 1.9086 0
M  V30 5762 H 558.693 -1.0274 3.59716 0
M  V30 5763 H 560.026 -1.37066 4.7273 0
M  V30 5764 N 561.678 -1.56367 -0.196722 0
M  V30 5765 C 562.918 -1.82315 -0.92415 0
M  V30 5766 C 563.282 -0.654117 -1.80514 0
M  V30 5767 O 564.483 -0.79345 -2.56823 0
M  V30 5768 C 562.754 -3.13279 -1.72021 0
M  V30 5769 S 564.313 -3.60627 -2.49988 0
M  V30 5770 H 561.131 -0.639862 -0.309997 0
M  V30 5771 H 563.733 -1.94597 -0.187684 0
M  V30 5772 H 562.437 -3.96379 -1.06358 0
M  V30 5773 H 561.968 -3.03871 -2.49852 0
M  V30 5774 H 563.983 -3.25934 -3.74141 0
M  V30 5775 N 563.156 0.464375 -1.50603 0
M  V30 5776 C 564.103 1.56152 -1.69956 0
M  V30 5777 C 565.073 1.57046 -0.54091 0
M  V30 5778 O 566.258 1.74473 -0.772258 0
M  V30 5779 C 563.398 2.94079 -1.80586 0
M  V30 5780 C 562.511 3.02923 -3.07996 0
M  V30 5781 C 561.646 4.31806 -3.09382 0
M  V30 5782 C 560.685 4.34417 -4.31218 0
M  V30 5783 N 559.822 5.54782 -4.30304 0
M  V30 5784 H 564.662 1.38955 -2.6362 0
M  V30 5785 H 562.199 0.675482 -1.30674 0
M  V30 5786 H 564.157 3.74073 -1.8473 0
M  V30 5787 H 562.787 3.09896 -0.903556 0
M  V30 5788 H 561.839 2.1576 -3.13292 0
M  V30 5789 H 563.151 3.00712 -3.97962 0
M  V30 5790 H 562.305 5.20153 -3.12292 0
M  V30 5791 H 561.044 4.36636 -2.17257 0
M  V30 5792 H 560.049 3.44467 -4.28512 0
M  V30 5793 H 561.274 4.31273 -5.24576 0
M  V30 5794 H 559.22 5.60384 -3.41037 0
M  V30 5795 H 559.137 5.54339 -5.14047 0
M  V30 5796 H 560.405 6.45235 -4.3737 0
M  V30 5797 N 564.634 1.40294 0.718013 0
M  V30 5798 C 565.544 1.42678 1.86226 0
M  V30 5799 C 566.56 0.319655 1.71039 0
M  V30 5800 O 567.736 0.563852 1.93346 0
M  V30 5801 C 564.801 1.2852 3.21999 0
M  V30 5802 C 563.862 2.49354 3.49458 0
M  V30 5803 C 563.095 2.35863 4.78753 0
M  V30 5804 O 563.318 1.37114 5.53675 0
M  V30 5805 O 562.252 3.25189 5.06494 0
M  V30 5806 H 566.078 2.39167 1.87171 0
M  V30 5807 H 563.663 1.2159 0.868112 0
M  V30 5808 H 565.545 1.22824 4.03103 0
M  V30 5809 H 564.22 0.351359 3.21787 0
M  V30 5810 H 563.127 2.60628 2.68373 0
M  V30 5811 H 564.46 3.41491 3.54464 0
M  V30 5812 N 566.112 -0.949982 1.2575 0
M  V30 5813 C 567.059 -2.04738 1.06541 0
M  V30 5814 C 568.029 -1.66078 -0.0268818 0
M  V30 5815 O 569.214 -1.90348 0.131196 0
M  V30 5816 C 566.354 -3.38027 0.695127 0
M  V30 5817 C 565.467 -3.89776 1.86276 0
M  V30 5818 C 564.602 -5.11411 1.4364 0
M  V30 5819 C 563.641 -5.554 2.57287 0
M  V30 5820 N 562.778 -6.68244 2.15395 0
M  V30 5821 H 567.618 -2.20502 2.00457 0
M  V30 5822 H 565.155 -1.0805 0.998178 0
M  V30 5823 H 567.113 -4.14641 0.461375 0
M  V30 5824 H 565.743 -3.22135 -0.207046 0
M  V30 5825 H 564.795 -3.0964 2.20969 0
M  V30 5826 H 566.107 -4.18368 2.71606 0
M  V30 5827 H 565.261 -5.95457 1.16257 0
M  V30 5828 H 564 -4.84545 0.553879 0
M  V30 5829 H 563.005 -4.69916 2.85409 0
M  V30 5830 H 564.23 -5.84272 3.46125 0
M  V30 5831 H 562.176 -6.43078 1.29565 0
M  V30 5832 H 562.093 -6.96377 2.94272 0
M  V30 5833 H 563.361 -7.55687 1.91201 0
M  V30 5834 N 567.59 -1.07411 -1.15328 0
M  V30 5835 C 569.001 -0.820261 -1.67716 0
M  V30 5836 C 569.352 0.654539 -1.8496 0
M  V30 5837 O 568.477 1.50664 -1.55337 0
M  V30 5838 C 569.072 -1.48242 -3.04647 0
M  V30 5839 C 567.631 -1.27606 -3.5411 0
M  V30 5840 C 566.778 -1.5517 -2.29821 0
M  V30 5841 H 569.729 -1.23608 -0.995332 0
M  V30 5842 H 569.75 -0.903984 -3.69606 0
M  V30 5843 H 569.262 -2.55578 -2.92064 0
M  V30 5844 H 567.363 -0.222948 -3.71932 0
M  V30 5845 H 567.476 -1.99667 -4.35511 0
M  V30 5846 H 565.84 -0.972747 -2.35393 0
M  V30 5847 H 566.623 -2.63689 -2.19824 0
M  V30 5848 N 569.068 1.32177 -0.85831 0
M  V30 5849 C 570.293 2.01847 -0.476718 0
M  V30 5850 C 570.718 1.64065 0.920021 0
M  V30 5851 O 570.076 0.843189 1.60499 0
M  V30 5852 C 570.124 3.55097 -0.627578 0
M  V30 5853 O 569.228 4.11012 0.338086 0
M  V30 5854 H 568.569 0.635907 -0.191099 0
M  V30 5855 H 571.099 1.68641 -1.15851 0
M  V30 5856 H 571.109 4.04718 -0.516476 0
M  V30 5857 H 569.784 3.81938 -1.64609 0
M  V30 5858 H 568.361 3.72451 0.182917 0
M  V30 5859 N 570.547 0.616602 1.45037 0
M  V30 5860 C 571.494 -0.0969439 2.30596 0
M  V30 5861 C 572.464 -0.851151 1.42635 0
M  V30 5862 O 573.649 -0.835092 1.71554 0
M  V30 5863 C 570.789 -1.08234 3.27688 0
M  V30 5864 C 569.902 -0.328072 4.30752 0
M  V30 5865 C 569.037 -1.30399 5.14946 0
M  V30 5866 C 568.076 -0.538049 6.09731 0
M  V30 5867 N 567.213 -1.46371 6.86673 0
M  V30 5868 H 572.053 0.63864 2.91076 0
M  V30 5869 H 569.59 0.326733 1.43425 0
M  V30 5870 H 571.548 -1.66688 3.82454 0
M  V30 5871 H 570.178 -1.78523 2.68941 0
M  V30 5872 H 569.23 0.372136 3.78575 0
M  V30 5873 H 570.542 0.269142 4.98073 0
M  V30 5874 H 569.696 -1.96032 5.74157 0
M  V30 5875 H 568.435 -1.93514 4.47665 0
M  V30 5876 H 567.44 0.131852 5.49642 0
M  V30 5877 H 568.665 0.0881732 6.79043 0
M  V30 5878 H 566.611 -2.08233 6.22073 0
M  V30 5879 H 566.528 -0.920152 7.50379 0
M  V30 5880 H 567.796 -2.10932 7.50418 0
M  V30 5881 N 572.025 -1.5352 0.356285 0
M  V30 5882 C 573.436 -1.86282 -0.12492 0
M  V30 5883 C 573.787 -1.27717 -1.48939 0
M  V30 5884 O 572.912 -0.595614 -2.08042 0
M  V30 5885 C 573.507 -3.37995 -0.23345 0
M  V30 5886 C 572.066 -3.70588 -0.658899 0
M  V30 5887 C 571.213 -2.76581 0.199596 0
M  V30 5888 H 574.164 -1.47901 0.575423 0
M  V30 5889 H 574.185 -3.65475 -1.0587 0
M  V30 5890 H 573.697 -3.8059 0.759776 0
M  V30 5891 H 571.798 -3.33544 -1.66069 0
M  V30 5892 H 571.911 -4.77076 -0.439957 0
M  V30 5893 H 570.275 -2.52552 -0.330076 0
M  V30 5894 H 571.058 -3.22008 1.19019 0
M  V30 5895 N 573.503 -0.0852151 -1.57369 0
M  V30 5896 C 574.731 0.58946 -1.98325 0
M  V30 5897 C 575.146 1.62333 -0.96403 0
M  V30 5898 O 574.503 1.82438 0.0476395 0
M  V30 5899 C 574.554 1.24604 -3.39347 0
M  V30 5900 O 574.275 0.253532 -4.37366 0
M  V30 5901 C 575.776 2.00726 -3.95252 0
M  V30 5902 H 572.996 0.158783 -0.651942 0
M  V30 5903 H 575.54 -0.161584 -2.03861 0
M  V30 5904 H 573.695 1.94808 -3.34856 0
M  V30 5905 H 574.109 0.726207 -5.19448 0
M  V30 5906 H 575.583 2.42039 -4.96106 0
M  V30 5907 H 576.06 2.86919 -3.32527 0
M  V30 5908 H 576.666 1.3536 -4.03185 0
M  V30 5909 N 574.981 1.5647 0.188427 0
M  V30 5910 C 575.891 1.98285 1.2538 0
M  V30 5911 C 576.907 0.891535 1.49424 0
M  V30 5912 O 578.083 1.19782 1.61908 0
M  V30 5913 C 575.148 2.31965 2.57669 0
M  V30 5914 C 574.209 3.54838 2.41638 0
M  V30 5915 C 573.442 3.86901 3.67618 0
M  V30 5916 O 573.665 3.20163 4.72072 0
M  V30 5917 O 572.599 4.80309 3.62749 0
M  V30 5918 H 576.425 2.89145 0.928912 0
M  V30 5919 H 574.01 1.44112 0.393955 0
M  V30 5920 H 575.892 2.54673 3.35737 0
M  V30 5921 H 574.567 1.44271 2.89771 0
M  V30 5922 H 573.474 3.37369 1.61658 0
M  V30 5923 H 574.807 4.43019 2.14465 0
M  V30 5924 N 576.459 -0.456382 1.50847 0
M  V30 5925 C 577.406 -1.55249 1.70782 0
M  V30 5926 C 578.376 -1.56757 0.549231 0
M  V30 5927 O 579.561 -1.74061 0.7815 0
M  V30 5928 C 576.701 -2.93118 1.82143 0
M  V30 5929 C 575.814 -3.01285 3.09598 0
M  V30 5930 C 574.949 -4.30159 3.11667 0
M  V30 5931 C 573.988 -4.32124 4.33515 0
M  V30 5932 N 573.125 -5.52492 4.3324 0
M  V30 5933 H 577.965 -1.37555 2.64353 0
M  V30 5934 H 575.502 -0.668543 1.3103 0
M  V30 5935 H 577.46 -3.73088 1.86711 0
M  V30 5936 H 576.09 -3.09413 0.919978 0
M  V30 5937 H 575.142 -2.14096 3.14431 0
M  V30 5938 H 576.454 -2.98597 3.99551 0
M  V30 5939 H 575.608 -5.18489 3.15046 0
M  V30 5940 H 574.347 -4.35477 2.1957 0
M  V30 5941 H 573.352 -3.42189 4.30333 0
M  V30 5942 H 574.577 -4.28485 5.26856 0
M  V30 5943 H 572.523 -5.58567 3.44004 0
M  V30 5944 H 572.44 -5.51605 5.16979 0
M  V30 5945 H 573.708 -6.42906 4.40786 0
M  V30 5946 N 577.937 -1.40673 -0.710563 0
M  V30 5947 C 579.165 -1.42547 -1.4996 0
M  V30 5948 C 579.58 -0.0265485 -1.88781 0
M  V30 5949 O 578.937 0.950694 -1.55782 0
M  V30 5950 C 578.988 -2.32071 -2.77173 0
M  V30 5951 O 578.709 -3.66518 -2.39992 0
M  V30 5952 C 580.21 -2.42591 -3.71032 0
M  V30 5953 H 577.43 -0.486025 -0.462623 0
M  V30 5954 H 579.974 -1.84783 -0.876102 0
M  V30 5955 H 578.129 -1.93184 -3.35795 0
M  V30 5956 H 578.543 -4.14115 -3.21884 0
M  V30 5957 H 580.017 -3.09429 -4.57119 0
M  V30 5958 H 580.494 -1.4525 -4.14486 0
M  V30 5959 H 581.1 -2.82051 -3.18319 0
M  V30 5960 N 579.415 0.9433 -1.26252 0
M  V30 5961 C 580.325 2.07532 -1.09397 0
M  V30 5962 C 581.341 1.73977 -0.0280449 0
M  V30 5963 O 582.517 2.00067 -0.231337 0
M  V30 5964 C 579.582 3.39002 -0.726523 0
M  V30 5965 C 578.643 3.86353 -1.87163 0
M  V30 5966 C 577.876 5.11549 -1.52162 0
M  V30 5967 O 578.099 5.68834 -0.422385 0
M  V30 5968 O 577.033 5.53889 -2.35565 0
M  V30 5969 H 580.859 2.24658 -2.04359 0
M  V30 5970 H 578.444 1.05988 -1.05295 0
M  V30 5971 H 580.326 4.18 -0.534236 0
M  V30 5972 H 579.001 3.2312 0.193721 0
M  V30 5973 H 577.908 3.0831 -2.11886 0
M  V30 5974 H 579.241 4.06752 -2.77152 0
M  V30 5975 N 580.893 1.08022 1.14757 0
M  V30 5976 C 581.803 0.718292 2.23333 0
M  V30 5977 C 582.819 -0.273477 1.71837 0
M  V30 5978 O 583.995 -0.118406 2.01052 0
M  V30 5979 C 581.06 0.128855 3.4646 0
M  V30 5980 C 580.121 1.17473 4.12915 0
M  V30 5981 C 579.354 0.61333 5.30164 0
M  V30 5982 O 579.577 -0.568458 5.6756 0
M  V30 5983 O 578.511 1.3615 5.86299 0
M  V30 5984 H 582.337 1.62394 2.56636 0
M  V30 5985 H 579.922 0.853628 1.22611 0
M  V30 5986 H 581.804 -0.197249 4.20938 0
M  V30 5987 H 580.479 -0.750014 3.14891 0
M  V30 5988 H 579.386 1.5533 3.40328 0
M  V30 5989 H 580.719 2.02574 4.48581 0
M  V30 5990 N 582.371 -1.3172 0.865308 0
M  V30 5991 C 583.596 -2.01591 0.487415 0
M  V30 5992 C 584.021 -1.6455 -0.911307 0
M  V30 5993 O 583.379 -0.851689 -1.6005 0
M  V30 5994 C 583.427 -3.54759 0.646401 0
M  V30 5995 O 582.531 -4.11185 -0.316284 0
M  V30 5996 H 581.872 -0.634884 0.194468 0
M  V30 5997 H 584.402 -1.68024 1.16744 0
M  V30 5998 H 584.412 -4.04438 0.537932 0
M  V30 5999 H 583.087 -3.8106 1.66632 0
M  V30 6000 H 581.664 -3.72543 -0.163162 0
M  V30 6001 N 583.85 -0.624285 -1.44708 0
M  V30 6002 C 584.797 0.0847135 -2.30644 0
M  V30 6003 C 585.767 0.843575 -1.43084 0
M  V30 6004 O 586.952 0.825982 -1.71995 0
M  V30 6005 C 584.091 1.06495 -3.28257 0
M  V30 6006 C 583.205 0.305224 -4.3092 0
M  V30 6007 C 582.34 1.27667 -5.1563 0
M  V30 6008 C 581.379 0.505706 -6.10007 0
M  V30 6009 N 580.516 1.42727 -6.8744 0
M  V30 6010 H 585.356 -0.654068 -2.90733 0
M  V30 6011 H 582.893 -0.334334 -1.4325 0
M  V30 6012 H 584.851 1.64658 -3.83332 0
M  V30 6013 H 583.481 1.77094 -2.69884 0
M  V30 6014 H 582.533 -0.392207 -3.78373 0
M  V30 6015 H 583.845 -0.295553 -4.97924 0
M  V30 6016 H 582.999 1.92984 -5.75189 0
M  V30 6017 H 581.738 1.91137 -4.48685 0
M  V30 6018 H 580.743 -0.160999 -5.49564 0
M  V30 6019 H 581.968 -0.124183 -6.78986 0
M  V30 6020 H 579.913 2.04931 -6.23169 0
M  V30 6021 H 579.831 0.880345 -7.50857 0
M  V30 6022 H 581.099 2.0695 -7.51526 0
M  V30 6023 N 585.328 1.53329 -0.364422 0
M  V30 6024 C 586.291 2.24323 0.470292 0
M  V30 6025 C 587.291 1.25068 1.01067 0
M  V30 6026 O 588.481 1.49354 0.896605 0
M  V30 6027 C 585.613 2.97908 1.65722 0
M  V30 6028 H 586.806 2.9952 -0.150917 0
M  V30 6029 H 584.359 1.55868 -0.116092 0
M  V30 6030 H 585.094 2.2695 2.31655 0
M  V30 6031 H 584.879 3.70732 1.27671 0
M  V30 6032 H 586.369 3.5188 2.24878 0
M  V30 6033 N 586.806 0.0935595 1.57322 0
M  V30 6034 C 587.769 -0.851426 2.12799 0
M  V30 6035 C 588.769 -1.21187 1.0569 0
M  V30 6036 O 589.959 -1.14156 1.31583 0
M  V30 6037 C 587.091 -2.14779 2.64731 0
M  V30 6038 H 588.284 -0.369733 2.97612 0
M  V30 6039 H 585.837 -0.155417 1.55525 0
M  V30 6040 H 586.572 -2.67437 1.83434 0
M  V30 6041 H 586.357 -1.89907 3.43042 0
M  V30 6042 H 587.847 -2.82383 3.07651 0
M  V30 6043 N 588.284 -1.56567 -0.180126 0
M  V30 6044 C 589.247 -1.94852 -1.20686 0
M  V30 6045 C 590.247 -0.831212 -1.3765 0
M  V30 6046 O 591.437 -1.09841 -1.35206 0
M  V30 6047 C 588.569 -2.23565 -2.57355 0
M  V30 6048 H 589.762 -2.86722 -0.879225 0
M  V30 6049 H 587.315 -1.50489 -0.422237 0
M  V30 6050 H 588.05 -1.34381 -2.95148 0
M  V30 6051 H 587.835 -3.04999 -2.46411 0
M  V30 6052 H 589.325 -2.54137 -3.31367 0
M  V30 6053 N 589.762 0.448376 -1.51087 0
M  V30 6054 C 591.173 1.0286 -1.5581 0
M  V30 6055 C 591.524 1.92583 -0.374989 0
M  V30 6056 O 590.649 2.10316 0.509533 0
M  V30 6057 C 591.244 1.87223 -2.8237 0
M  V30 6058 C 589.803 2.40314 -2.897 0
M  V30 6059 C 588.95 1.19238 -2.50355 0
M  V30 6060 H 591.901 0.230075 -1.57023 0
M  V30 6061 H 591.922 2.72553 -2.6551 0
M  V30 6062 H 591.434 1.21894 -3.68461 0
M  V30 6063 H 589.535 3.09129 -2.08014 0
M  V30 6064 H 589.648 2.73866 -3.93108 0
M  V30 6065 H 588.012 1.53428 -2.03303 0
M  V30 6066 H 588.795 0.555367 -3.38778 0
M  V30 6067 N 591.24 1.41047 0.703093 0
M  V30 6068 C 592.203 1.42036 1.79884 0
M  V30 6069 C 593.203 0.312153 1.57741 0
M  V30 6070 O 594.393 0.571672 1.64553 0
M  V30 6071 C 591.525 1.22437 3.18154 0
M  V30 6072 H 592.718 2.39572 1.80403 0
M  V30 6073 H 590.271 1.27079 0.909977 0
M  V30 6074 H 591.006 0.257112 3.23279 0
M  V30 6075 H 590.791 2.02723 3.35627 0
M  V30 6076 H 592.281 1.25946 3.98155 0
M  V30 6077 N 592.718 -0.936591 1.26751 0
M  V30 6078 C 594.129 -1.49816 1.1141 0
M  V30 6079 C 594.48 -1.9383 -0.304015 0
M  V30 6080 O 593.605 -1.80346 -1.196 0
M  V30 6081 C 594.2 -2.72271 2.01629 0
M  V30 6082 C 592.759 -3.2468 1.9042 0
M  V30 6083 C 591.906 -1.97444 1.94708 0
M  V30 6084 H 594.857 -0.751604 1.39773 0
M  V30 6085 H 594.878 -3.46741 1.56688 0
M  V30 6086 H 594.39 -2.40205 3.04833 0
M  V30 6087 H 592.491 -3.61525 0.901674 0
M  V30 6088 H 592.604 -3.91476 2.76195 0
M  V30 6089 H 590.968 -2.13545 1.38818 0
M  V30 6090 H 591.751 -1.67703 2.9955 0
M  V30 6091 N 594.196 -1.08629 -1.14182 0
M  V30 6092 C 595.442 -0.818556 -1.85546 0
M  V30 6093 C 595.775 0.654076 -1.82854 0
M  V30 6094 O 595.05 1.48099 -1.26083 0
M  V30 6095 C 595.333 -1.34397 -3.3408 0
M  V30 6096 C 595.186 -2.8821 -3.45333 0
M  V30 6097 C 596.505 -0.971069 -4.29253 0
M  V30 6098 H 593.624 -0.298821 -0.673702 0
M  V30 6099 H 596.266 -1.34629 -1.34071 0
M  V30 6100 H 594.416 -0.895064 -3.78049 0
M  V30 6101 H 596.088 -3.41488 -3.10134 0
M  V30 6102 H 594.331 -3.25756 -2.86471 0
M  V30 6103 H 595.002 -3.20047 -4.49749 0
M  V30 6104 H 597.478 -1.35809 -3.93313 0
M  V30 6105 H 596.354 -1.36586 -5.31635 0
M  V30 6106 H 596.615 0.121659 -4.41933 0
M  V30 6107 N 595.674 1.31259 -0.872281 0
M  V30 6108 C 596.899 2.0133 -0.498099 0
M  V30 6109 C 597.324 1.65031 0.902568 0
M  V30 6110 O 596.682 0.860164 1.59596 0
M  V30 6111 C 596.73 3.54411 -0.665205 0
M  V30 6112 O 595.834 4.11347 0.294473 0
M  V30 6113 H 595.175 0.633844 -0.197832 0
M  V30 6114 H 597.705 1.67402 -1.17633 0
M  V30 6115 H 597.715 4.04147 -0.559373 0
M  V30 6116 H 596.39 3.80171 -1.68651 0
M  V30 6117 H 594.967 3.72624 0.143403 0
M  V30 6118 N 597.152 0.631951 1.44375 0
M  V30 6119 C 598.062 -0.073674 2.34484 0
M  V30 6120 C 599.078 -0.834825 1.52665 0
M  V30 6121 O 600.254 -0.786902 1.85391 0
M  V30 6122 C 597.319 -1.04247 3.30656 0
M  V30 6123 C 596.38 -0.280602 4.28382 0
M  V30 6124 C 595.613 -1.20325 5.19959 0
M  V30 6125 O 595.836 -2.44199 5.15484 0
M  V30 6126 O 594.77 -0.687128 5.97965 0
M  V30 6127 H 598.596 0.667477 2.96274 0
M  V30 6128 H 596.181 0.392144 1.44162 0
M  V30 6129 H 598.063 -1.59981 3.89851 0
M  V30 6130 H 596.738 -1.76422 2.71398 0
M  V30 6131 H 595.645 0.319804 3.72731 0
M  V30 6132 H 596.978 0.401144 4.90563 0
M  V30 6133 N 598.631 -1.53133 0.372548 0
M  V30 6134 C 599.594 -2.24569 -0.458389 0
M  V30 6135 C 600.594 -1.25603 -1.00402 0
M  V30 6136 O 601.784 -1.49827 -0.888672 0
M  V30 6137 C 598.916 -2.98783 -1.6414 0
M  V30 6138 H 600.109 -2.99436 0.166799 0
M  V30 6139 H 597.662 -1.55805 0.124357 0
M  V30 6140 H 598.397 -2.28176 -2.30448 0
M  V30 6141 H 598.182 -3.71404 -1.25704 0
M  V30 6142 H 599.672 -3.53068 -2.23008 0
M  V30 6143 N 600.109 -0.101901 -1.5727 0
M  V30 6144 C 601.355 0.561027 -1.94885 0
M  V30 6145 C 601.688 1.6741 -0.984258 0
M  V30 6146 O 600.963 1.94491 -0.0184767 0
M  V30 6147 C 601.246 1.10982 -3.42571 0
M  V30 6148 C 601.099 0.00133418 -4.498 0
M  V30 6149 C 602.418 2.00608 -3.9172 0
M  V30 6150 H 599.537 0.202467 -0.708644 0
M  V30 6151 H 602.179 -0.173992 -1.89202 0
M  V30 6152 H 600.329 1.73621 -3.47546 0
M  V30 6153 H 602.001 -0.63322 -4.56933 0
M  V30 6154 H 600.244 -0.664143 -4.28686 0
M  V30 6155 H 600.915 0.426253 -5.50352 0
M  V30 6156 H 603.391 1.47864 -3.88941 0
M  V30 6157 H 602.267 2.3593 -4.95609 0
M  V30 6158 H 602.528 2.92608 -3.3141 0
M  V30 6159 N 601.587 1.56661 0.17182 0
M  V30 6160 C 602.827 1.83762 0.895029 0
M  V30 6161 C 603.191 0.682752 1.79451 0
M  V30 6162 O 604.392 0.834208 2.55528 0
M  V30 6163 C 602.663 3.15976 1.67015 0
M  V30 6164 S 604.222 3.64558 2.44219 0
M  V30 6165 H 601.04 0.644713 0.299778 0
M  V30 6166 H 603.642 1.94871 0.156701 0
M  V30 6167 H 602.346 3.98021 1.00039 0
M  V30 6168 H 601.877 3.07807 2.44986 0
M  V30 6169 H 603.892 3.31845 3.68909 0
M  V30 6170 N 603.065 -0.440357 1.51323 0
M  V30 6171 C 604.481 -0.7766 1.39431 0
M  V30 6172 C 604.681 -1.95838 0.474296 0
M  V30 6173 O 603.737 -2.52398 -0.0716692 0
M  V30 6174 C 605.05 -1.05981 2.81405 0
M  V30 6175 C 606.598 -1.16442 2.90534 0
M  V30 6176 C 607.073 -1.48058 4.33408 0
M  V30 6177 N 608.564 -1.54988 4.36501 0
M  V30 6178 C 609.299 -1.81017 5.44078 0
M  V30 6179 N 608.795 -2.04858 6.61819 0
M  V30 6180 N 610.588 -1.82774 5.31554 0
M  V30 6181 H 602.739 0.338006 2.09693 0
M  V30 6182 H 605.002 0.0888072 0.943831 0
M  V30 6183 H 604.708 -0.264173 3.50706 0
M  V30 6184 H 604.582 -1.98822 3.20546 0
M  V30 6185 H 606.969 -1.95068 2.21432 0
M  V30 6186 H 607.05 -0.215088 2.54894 0
M  V30 6187 H 606.694 -0.699605 5.03059 0
M  V30 6188 H 606.624 -2.44192 4.66559 0
M  V30 6189 H 609.115 -1.38479 3.51613 0
M  V30 6190 H 609.428 -2.2408 7.396 0
M  V30 6191 H 607.773 -2.02187 6.6494 0
M  V30 6192 H 610.964 -1.63665 4.38556 0
M  V30 6193 H 611.137 -2.02722 6.15474 0
M  V30 6194 N 604.543 -1.41418 -0.695603 0
M  V30 6195 C 605.771 -1.4413 -1.48439 0
M  V30 6196 C 606.186 -0.0465698 -1.88743 0
M  V30 6197 O 605.543 0.934117 -1.56782 0
M  V30 6198 C 605.594 -2.34998 -2.74696 0
M  V30 6199 O 605.315 -3.69043 -2.36091 0
M  V30 6200 C 606.816 -2.46513 -3.68438 0
M  V30 6201 H 604.036 -0.490905 -0.457442 0
M  V30 6202 H 606.58 -1.85702 -0.856454 0
M  V30 6203 H 604.735 -1.96735 -3.33728 0
M  V30 6204 H 605.149 -4.17505 -3.17474 0
M  V30 6205 H 606.623 -3.1426 -4.53811 0
M  V30 6206 H 607.1 -1.49638 -4.12922 0
M  V30 6207 H 607.706 -2.85412 -3.1531 0
M  V30 6208 N 606.021 0.929856 -1.27246 0
M  V30 6209 C 607.246 1.71674 -1.16374 0
M  V30 6210 C 607.671 1.86064 0.276024 0
M  V30 6211 O 607.029 1.3591 1.19992 0
M  V30 6212 C 607.077 3.09526 -1.85003 0
M  V30 6213 O 606.181 3.96142 -1.14653 0
M  V30 6214 H 605.522 0.52629 -0.404863 0
M  V30 6215 H 608.052 1.16381 -1.68276 0
M  V30 6216 H 608.062 3.59852 -1.92276 0
M  V30 6217 H 606.737 2.98369 -2.89739 0
M  V30 6218 H 605.314 3.54584 -1.15433 0
M  V30 6219 N 607.499 1.09233 1.13605 0
M  V30 6220 C 608.432 0.6739 2.18023 0
M  V30 6221 C 609.41 -0.318603 1.59448 0
M  V30 6222 O 610.594 -0.220452 1.87206 0
M  V30 6223 C 607.721 -0.00751458 3.38699 0
M  V30 6224 C 606.767 0.946481 4.15865 0
M  V30 6225 S 607.6 2.45753 4.75779 0
M  V30 6226 C 608.756 1.78846 5.99804 0
M  V30 6227 H 608.989 1.55846 2.53178 0
M  V30 6228 H 606.522 0.908118 1.2487 0
M  V30 6229 H 608.48 -0.394368 4.08601 0
M  V30 6230 H 607.141 -0.868693 3.01849 0
M  V30 6231 H 606.334 0.416742 5.02274 0
M  V30 6232 H 605.936 1.27464 3.51609 0
M  V30 6233 H 608.228 1.11135 6.68323 0
M  V30 6234 H 609.171 2.63163 6.57382 0
M  V30 6235 H 609.579 1.25823 5.50299 0
M  V30 6236 N 608.977 -1.30795 0.87923 0
M  V30 6237 C 610.217 -1.98155 0.50141 0
M  V30 6238 C 610.581 -1.67925 -0.930863 0
M  V30 6239 O 611.782 -2.28572 -1.41451 0
M  V30 6240 C 610.053 -3.49184 0.761937 0
M  V30 6241 S 611.612 -4.36107 0.485361 0
M  V30 6242 H 608.43 -0.686025 0.186792 0
M  V30 6243 H 611.032 -1.59018 1.13726 0
M  V30 6244 H 609.736 -3.68676 1.80295 0
M  V30 6245 H 609.267 -3.93236 0.113432 0
M  V30 6246 H 611.282 -4.9154 -0.678467 0
M  V30 6247 N 610.455 -0.639598 -1.44038 0
M  V30 6248 C 611.68 -0.153117 -2.06834 0
M  V30 6249 C 612.105 1.16676 -1.47541 0
M  V30 6250 O 611.463 1.71769 -0.580093 0
M  V30 6251 C 611.511 -0.0609169 -3.60549 0
M  V30 6252 O 610.615 0.98071 -4.00569 0
M  V30 6253 H 609.956 -0.0886402 -0.658057 0
M  V30 6254 H 612.486 -0.878674 -1.84771 0
M  V30 6255 H 612.496 0.126892 -4.07803 0
M  V30 6256 H 611.171 -1.0245 -4.03084 0
M  V30 6257 H 609.748 0.766789 -3.64931 0
M  V30 6258 N 611.933 1.52934 -0.380664 0
M  V30 6259 C 613.182 2.00651 0.205477 0
M  V30 6260 C 613.495 1.27164 1.48623 0
M  V30 6261 O 614.701 1.65547 2.15189 0
M  V30 6262 C 613.157 3.57479 0.416726 0
M  V30 6263 C 612.765 4.39857 -0.850268 0
M  V30 6264 C 614.509 4.13509 0.959702 0
M  V30 6265 C 612.416 5.88269 -0.607773 0
M  V30 6266 H 611.346 0.749684 0.0805614 0
M  V30 6267 H 613.997 1.76508 -0.501732 0
M  V30 6268 H 612.379 3.77836 1.18557 0
M  V30 6269 H 613.553 4.31269 -1.62307 0
M  V30 6270 H 611.868 3.95005 -1.31756 0
M  V30 6271 H 614.465 5.22039 1.15669 0
M  V30 6272 H 614.808 3.69054 1.92626 0
M  V30 6273 H 615.341 3.9701 0.250645 0
M  V30 6274 H 612.08 6.3703 -1.54509 0
M  V30 6275 H 611.6 5.99667 0.126247 0
M  V30 6276 H 613.279 6.46558 -0.239014 0
M  V30 6277 N 613.412 0.11024 1.57214 0
M  V30 6278 C 614.344 -0.873497 2.11902 0
M  V30 6279 C 615.357 -1.23588 1.05971 0
M  V30 6280 O 616.546 -1.18636 1.33371 0
M  V30 6281 C 613.646 -2.17805 2.59643 0
M  V30 6282 C 612.819 -1.98869 3.89576 0
M  V30 6283 C 611.878 -3.12974 4.23006 0
M  V30 6284 O 610.904 -2.86272 4.91973 0
M  V30 6285 N 612.106 -4.39167 3.79622 0
M  V30 6286 H 614.871 -0.406317 2.96933 0
M  V30 6287 H 612.432 -0.074437 1.61729 0
M  V30 6288 H 614.424 -2.93117 2.79042 0
M  V30 6289 H 612.994 -2.55899 1.7954 0
M  V30 6290 H 612.214 -1.078 3.79174 0
M  V30 6291 H 613.502 -1.83512 4.74553 0
M  V30 6292 H 612.9 -4.63739 3.2398 0
M  V30 6293 H 611.457 -5.11379 4.04147 0
M  V30 6294 N 614.89 -1.56749 -0.16351 0
M  V30 6295 C 616.115 -1.86938 -0.898264 0
M  V30 6296 C 616.54 -0.697456 -1.74692 0
M  V30 6297 O 615.898 0.353327 -1.77824 0
M  V30 6298 C 615.946 -3.15599 -1.74441 0
M  V30 6299 O 615.05 -2.98371 -2.8469 0
M  V30 6300 H 614.391 -0.614659 -0.251178 0
M  V30 6301 H 616.921 -2.03979 -0.159298 0
M  V30 6302 H 616.931 -3.47202 -2.14277 0
M  V30 6303 H 615.606 -4.00505 -1.1211 0
M  V30 6304 H 614.183 -2.7814 -2.4838 0
M  V30 6305 N 616.368 0.432326 -1.51554 0
M  V30 6306 C 617.331 1.50765 -1.72634 0
M  V30 6307 C 618.331 1.49334 -0.596314 0
M  V30 6308 O 619.521 1.51268 -0.863925 0
M  V30 6309 C 616.653 2.90284 -1.7874 0
M  V30 6310 H 617.846 1.33377 -2.68609 0
M  V30 6311 H 615.399 0.661329 -1.4162 0
M  V30 6312 H 616.134 3.13071 -0.845977 0
M  V30 6313 H 615.919 2.92727 -2.6087 0
M  V30 6314 H 617.409 3.68282 -1.96871 0
M  V30 6315 N 617.846 1.41785 0.688094 0
M  V30 6316 C 619.257 1.3701 1.26828 0
M  V30 6317 C 619.608 0.056835 1.96118 0
M  V30 6318 O 618.733 -0.84475 1.99231 0
M  V30 6319 C 619.328 2.48168 2.30648 0
M  V30 6320 C 617.887 2.46766 2.84224 0
M  V30 6321 C 617.034 2.27633 1.58361 0
M  V30 6322 H 619.985 1.51192 0.482351 0
M  V30 6323 H 620.006 2.17655 3.121 0
M  V30 6324 H 619.518 3.43735 1.80188 0
M  V30 6325 H 617.619 1.54978 3.3884 0
M  V30 6326 H 617.732 3.43342 3.34145 0
M  V30 6327 H 616.096 1.75648 1.84445 0
M  V30 6328 H 616.879 3.25238 1.09887 0
M  V30 6329 N 619.324 -0.923095 1.27737 0
M  V30 6330 C 620.735 -1.48626 1.12993 0
M  V30 6331 C 621.086 -1.94142 -0.283439 0
M  V30 6332 O 620.211 -1.81605 -1.17681 0
M  V30 6333 C 620.806 -2.70117 2.04505 0
M  V30 6334 C 619.365 -3.22642 1.93853 0
M  V30 6335 C 618.512 -1.95368 1.96791 0
M  V30 6336 H 621.463 -0.736737 1.40563 0
M  V30 6337 H 621.484 -3.4506 1.60356 0
M  V30 6338 H 620.996 -2.36959 3.07363 0
M  V30 6339 H 619.097 -3.60549 0.939968 0
M  V30 6340 H 619.21 -3.88525 2.80331 0
M  V30 6341 H 617.574 -2.12061 1.41076 0
M  V30 6342 H 618.357 -1.64517 3.01312 0
M  V30 6343 N 620.802 -1.09834 -1.13024 0
M  V30 6344 C 621.712 -0.753731 -2.22162 0
M  V30 6345 C 622.728 0.246105 -1.72251 0
M  V30 6346 O 623.904 0.0864051 -2.01215 0
M  V30 6347 C 620.969 -0.183958 -3.46212 0
M  V30 6348 C 620.03 -1.24028 -4.10993 0
M  V30 6349 C 619.263 -0.697597 -5.29121 0
M  V30 6350 O 619.486 0.478092 -5.68393 0
M  V30 6351 O 618.42 -1.4546 -5.84059 0
M  V30 6352 H 622.246 -1.66456 -2.5402 0
M  V30 6353 H 619.831 -0.873026 -1.21238 0
M  V30 6354 H 621.713 0.130257 -4.21199 0
M  V30 6355 H 620.388 0.699823 -3.16045 0
M  V30 6356 H 619.295 -1.60725 -3.37814 0
M  V30 6357 H 620.628 -2.09685 -4.45301 0
M  V30 6358 N 622.28 1.30327 -0.886154 0
M  V30 6359 C 623.691 1.78243 -0.555554 0
M  V30 6360 C 624.042 1.72849 0.928314 0
M  V30 6361 O 623.167 1.30607 1.72542 0
M  V30 6362 C 623.762 3.23654 -1.00168 0
M  V30 6363 C 622.321 3.69401 -0.722471 0
M  V30 6364 C 621.468 2.50753 -1.18399 0
M  V30 6365 H 624.419 1.1718 -1.07026 0
M  V30 6366 H 624.44 3.79056 -0.331152 0
M  V30 6367 H 623.952 3.27548 -2.08169 0
M  V30 6368 H 622.053 3.70995 0.345496 0
M  V30 6369 H 622.166 4.60818 -1.31085 0
M  V30 6370 H 620.53 2.47452 -0.603303 0
M  V30 6371 H 621.313 2.57383 -2.27176 0
M  V30 6372 N 623.758 0.647228 1.43697 0
M  V30 6373 C 624.721 -0.0385101 2.29168 0
M  V30 6374 C 625.721 -0.756487 1.41894 0
M  V30 6375 O 626.911 -0.598641 1.63591 0
M  V30 6376 C 624.043 -1.06524 3.23829 0
M  V30 6377 H 625.236 0.713445 2.9129 0
M  V30 6378 H 622.789 0.408153 1.50877 0
M  V30 6379 H 623.524 -1.84664 2.66589 0
M  V30 6380 H 623.309 -0.554147 3.88164 0
M  V30 6381 H 624.799 -1.54432 3.87996 0
M  V30 6382 N 625.236 -1.5273 0.388769 0
M  V30 6383 C 626.464 -2.05992 -0.193677 0
M  V30 6384 C 626.879 -1.26053 -1.40557 0
M  V30 6385 O 626.236 -0.307049 -1.79898 0
M  V30 6386 C 626.287 -3.57068 -0.564321 0
M  V30 6387 O 626.008 -4.3398 0.599422 0
M  V30 6388 C 627.509 -4.26674 -1.20269 0
M  V30 6389 H 624.729 -0.670358 -0.0293445 0
M  V30 6390 H 627.273 -1.96857 0.553844 0
M  V30 6391 H 625.428 -3.66277 -1.26174 0
M  V30 6392 H 625.842 -5.2367 0.294895 0
M  V30 6393 H 627.316 -5.33625 -1.4124 0
M  V30 6394 H 627.793 -3.81854 -2.16989 0
M  V30 6395 H 628.399 -4.2178 -0.546047 0
M  V30 6396 N 626.714 -0.118576 -1.57153 0
M  V30 6397 C 627.644 0.828436 -2.1831 0
M  V30 6398 C 628.625 1.27758 -1.12303 0
M  V30 6399 O 629.81 1.34026 -1.40537 0
M  V30 6400 C 626.94 2.07876 -2.78217 0
M  V30 6401 C 625.894 1.76742 -3.89803 0
M  V30 6402 C 625.22 3.08801 -4.36516 0
M  V30 6403 C 626.52 1.03606 -5.11921 0
M  V30 6404 H 628.214 0.318824 -2.97698 0
M  V30 6405 H 625.76 0.151911 -1.43196 0
M  V30 6406 H 627.713 2.74584 -3.19659 0
M  V30 6407 H 626.437 2.61161 -1.96118 0
M  V30 6408 H 625.096 1.12424 -3.48936 0
M  V30 6409 H 624.744 3.6002 -3.51276 0
M  V30 6410 H 624.444 2.88743 -5.11763 0
M  V30 6411 H 625.968 3.76627 -4.80608 0
M  V30 6412 H 627.382 1.60467 -5.50385 0
M  V30 6413 H 625.779 0.936454 -5.92748 0
M  V30 6414 H 626.849 0.0227421 -4.84895 0
M  V30 6415 N 628.193 1.56834 0.155195 0
M  V30 6416 C 629.14 1.97646 1.19184 0
M  V30 6417 C 630.11 0.842788 1.4313 0
M  V30 6418 O 631.295 1.1042 1.55602 0
M  V30 6419 C 628.435 2.35527 2.52232 0
M  V30 6420 C 627.548 3.62147 2.35529 0
M  V30 6421 C 626.683 3.89167 3.61555 0
M  V30 6422 C 625.722 5.09084 3.39853 0
M  V30 6423 N 624.859 5.32156 4.5799 0
M  V30 6424 H 629.699 2.8601 0.836802 0
M  V30 6425 H 627.236 1.41507 0.401758 0
M  V30 6426 H 629.194 2.55516 3.29799 0
M  V30 6427 H 627.824 1.50253 2.85699 0
M  V30 6428 H 626.876 3.4998 1.49057 0
M  V30 6429 H 628.188 4.49871 2.15448 0
M  V30 6430 H 627.342 4.09611 4.47553 0
M  V30 6431 H 626.081 2.9985 3.84632 0
M  V30 6432 H 625.086 4.88522 2.52243 0
M  V30 6433 H 626.311 5.99947 3.18183 0
M  V30 6434 H 624.257 4.45791 4.81255 0
M  V30 6435 H 624.174 6.14133 4.40882 0
M  V30 6436 H 625.442 5.57091 5.45225 0
M  V30 6437 N 629.671 -0.424282 1.51781 0
M  V30 6438 C 630.919 -1.17028 1.64769 0
M  V30 6439 C 631.24 -1.91409 0.372523 0
M  V30 6440 O 630.51 -1.86091 -0.612108 0
M  V30 6441 H 629.09 -0.434992 0.607282 0
M  V30 6442 H 631.752 -0.485169 1.88765 0
M  V30 6443 H 630.848 -1.8927 2.4816 0
M  V30 6444 N 631.149 -1.42148 -0.680565 0
M  V30 6445 C 632.377 -1.45696 -1.46902 0
M  V30 6446 C 632.792 -0.0665858 -1.88683 0
M  V30 6447 O 632.149 0.917436 -1.57764 0
M  V30 6448 C 632.2 -2.37898 -2.72188 0
M  V30 6449 O 631.921 -3.71526 -2.32163 0
M  V30 6450 C 633.422 -2.50407 -3.65802 0
M  V30 6451 H 630.642 -0.495729 -0.45221 0
M  V30 6452 H 633.186 -1.866 -0.836709 0
M  V30 6453 H 631.341 -2.00263 -3.31622 0
M  V30 6454 H 631.755 -4.20849 -3.13027 0
M  V30 6455 H 633.229 -3.19056 -4.50452 0
M  V30 6456 H 633.706 -1.5401 -4.11312 0
M  V30 6457 H 634.312 -2.8874 -3.12265 0
M  V30 6458 N 632.627 0.916307 -1.28225 0
M  V30 6459 C 633.873 1.66765 -1.154 0
M  V30 6460 C 634.206 1.91912 0.297251 0
M  V30 6461 O 633.481 1.51766 1.21644 0
M  V30 6462 C 633.764 3.02715 -1.95028 0
M  V30 6463 C 633.617 2.84738 -3.48201 0
M  V30 6464 C 634.936 4.03215 -1.76369 0
M  V30 6465 H 632.055 0.605205 -0.42059 0
M  V30 6466 H 634.697 1.06255 -1.57512 0
M  V30 6467 H 632.847 3.54365 -1.59242 0
M  V30 6468 H 634.519 2.40118 -3.9388 0
M  V30 6469 H 632.762 2.19848 -3.73964 0
M  V30 6470 H 633.433 3.8127 -3.99171 0
M  V30 6471 H 635.909 3.60617 -2.07593 0
M  V30 6472 H 634.785 4.96306 -2.34459 0
M  V30 6473 H 635.046 4.36288 -0.71452 0
M  V30 6474 N 634.105 1.10431 1.1244 0
M  V30 6475 C 635.516 0.864439 1.65482 0
M  V30 6476 C 635.867 -0.60527 1.8663 0
M  V30 6477 O 634.992 -1.46492 1.59276 0
M  V30 6478 C 635.587 1.56267 3.0061 0
M  V30 6479 C 634.146 1.3695 3.50602 0
M  V30 6480 C 633.293 1.61209 2.25626 0
M  V30 6481 H 636.244 1.26203 0.962209 0
M  V30 6482 H 636.265 1.00166 3.67079 0
M  V30 6483 H 635.777 2.63231 2.85186 0
M  V30 6484 H 633.878 0.321481 3.71211 0
M  V30 6485 H 633.991 2.11143 4.30064 0
M  V30 6486 H 632.355 1.03482 2.32731 0
M  V30 6487 H 633.138 2.69425 2.12756 0
M  V30 6488 N 635.583 -1.29855 0.893053 0
M  V30 6489 C 636.86 -1.90694 0.435336 0
M  V30 6490 C 637.24 -1.8111 -1.08454 0
M  V30 6491 O 636.588 -1.23352 -1.92345 0
M  V30 6492 C 636.798 -3.36033 0.942472 0
M  V30 6493 C 638.146 -4.13083 0.982226 0
M  V30 6494 O 639.17 -3.4491 0.889686 0
M  V30 6495 O 638.029 -5.34896 1.12022 0
M  V30 6496 H 635.123 -0.815978 0.134567 0
M  V30 6497 H 637.669 -1.38367 0.982484 0
M  V30 6498 H 636.441 -3.37132 1.9864 0
M  V30 6499 H 636.064 -3.95828 0.374952 0
M  V30 6500 N 637.061 -0.65484 -1.43351 0
M  V30 6501 C 638.338 -0.0987371 -1.95351 0
M  V30 6502 C 638.718 1.38161 -1.59608 0
M  V30 6503 O 638.066 2.10791 -0.882021 0
M  V30 6504 C 638.276 -0.346684 -3.47274 0
M  V30 6505 C 639.624 -0.25249 -4.23849 0
M  V30 6506 O 640.648 -0.279332 -3.55103 0
M  V30 6507 O 639.507 -0.177584 -5.46211 0
M  V30 6508 H 636.601 0.0086829 -0.826954 0
M  V30 6509 H 639.147 -0.728189 -1.53282 0
M  V30 6510 H 637.919 -1.37296 -3.66423 0
M  V30 6511 H 637.542 0.315757 -3.96344 0
M  V30 6512 N 638.539 1.52521 -0.396863 0
M  V30 6513 C 639.502 2.2527 0.422604 0
M  V30 6514 C 640.502 1.27184 0.983913 0
M  V30 6515 O 641.692 1.51222 0.864723 0
M  V30 6516 C 638.824 3.01356 1.59365 0
M  V30 6517 H 640.017 2.99133 -0.214416 0
M  V30 6518 H 637.57 1.55587 -0.149128 0
M  V30 6519 H 638.305 2.31813 2.26789 0
M  V30 6520 H 638.09 3.73357 1.19779 0
M  V30 6521 H 639.58 3.56571 2.17363 0
M  V30 6522 N 640.017 0.126909 1.57088 0
M  V30 6523 C 641.263 -0.529952 1.95753 0
M  V30 6524 C 641.596 -1.65823 1.01077 0
M  V30 6525 O 640.871 -1.94437 0.0494162 0
M  V30 6526 C 641.154 -1.05517 3.44294 0
M  V30 6527 C 641.007 0.0702253 4.49745 0
M  V30 6528 C 642.326 -1.9435 3.94862 0
M  V30 6529 H 639.445 -0.191168 0.711775 0
M  V30 6530 H 642.087 0.204071 1.88901 0
M  V30 6531 H 640.237 -1.68069 3.50264 0
M  V30 6532 H 641.909 0.705834 4.55868 0
M  V30 6533 H 640.152 0.732259 4.27575 0
M  V30 6534 H 640.823 -0.338642 5.5096 0
M  V30 6535 H 643.299 -1.41658 3.91244 0
M  V30 6536 H 642.175 -2.28015 4.993 0
M  V30 6537 H 642.436 -2.87299 3.36024 0
M  V30 6538 N 641.495 -1.56914 -0.146875 0
M  V30 6539 C 642.405 -2.0154 -1.20079 0
M  V30 6540 C 643.421 -0.930838 -1.47008 0
M  V30 6541 O 644.597 -1.24032 -1.58676 0
M  V30 6542 C 641.662 -2.38715 -2.51428 0
M  V30 6543 C 640.723 -3.6112 -2.32145 0
M  V30 6544 C 639.956 -3.96512 -3.57231 0
M  V30 6545 O 640.179 -3.32566 -4.63418 0
M  V30 6546 O 639.113 -4.89758 -3.49887 0
M  V30 6547 H 642.939 -2.91506 -0.851924 0
M  V30 6548 H 640.524 -1.45106 -0.355607 0
M  V30 6549 H 642.406 -2.63485 -3.28867 0
M  V30 6550 H 641.081 -1.51903 -2.85845 0
M  V30 6551 H 639.988 -3.41536 -1.52656 0
M  V30 6552 H 641.321 -4.48549 -2.02644 0
M  V30 6553 N 642.974 0.416227 -1.52004 0
M  V30 6554 C 643.937 1.48926 -1.74223 0
M  V30 6555 C 644.937 1.48693 -0.612119 0
M  V30 6556 O 646.127 1.50343 -0.879921 0
M  V30 6557 C 643.259 2.88372 -1.81809 0
M  V30 6558 H 644.452 1.3052 -2.70008 0
M  V30 6559 H 642.005 0.646271 -1.42313 0
M  V30 6560 H 642.74 3.12157 -0.879135 0
M  V30 6561 H 642.525 2.89944 -2.6396 0
M  V30 6562 H 644.015 3.66173 -2.00766 0
M  V30 6563 N 644.452 1.42507 0.673017 0
M  V30 6564 C 645.382 1.48916 1.79851 0
M  V30 6565 C 646.363 0.345566 1.66553 0
M  V30 6566 O 647.548 0.560116 1.85947 0
M  V30 6567 C 644.678 1.39258 3.18158 0
M  V30 6568 C 643.632 2.51662 3.46194 0
M  V30 6569 C 642.958 2.27062 4.84094 0
M  V30 6570 C 644.258 3.93968 3.42909 0
M  V30 6571 H 645.952 2.43114 1.74745 0
M  V30 6572 H 643.498 1.17013 0.839288 0
M  V30 6573 H 645.451 1.42349 3.96629 0
M  V30 6574 H 644.175 0.415542 3.23946 0
M  V30 6575 H 642.834 2.47891 2.70084 0
M  V30 6576 H 642.482 1.27648 4.86534 0
M  V30 6577 H 642.182 3.02398 5.03815 0
M  V30 6578 H 643.706 2.31905 5.64847 0
M  V30 6579 H 645.12 3.99332 4.11347 0
M  V30 6580 H 643.517 4.6917 3.74165 0
M  V30 6581 H 644.587 4.20512 2.41449 0
M  V30 6582 N 645.93 -0.909495 1.28709 0
M  V30 6583 C 646.893 -1.99399 1.13016 0
M  V30 6584 C 647.893 -1.60654 0.068536 0
M  V30 6585 O 649.083 -1.71334 0.314671 0
M  V30 6586 C 646.215 -3.33078 0.726085 0
M  V30 6587 H 647.408 -2.14751 2.09338 0
M  V30 6588 H 644.961 -1.09272 1.11756 0
M  V30 6589 H 645.696 -3.23428 -0.23771 0
M  V30 6590 H 645.481 -3.62562 1.49302 0
M  V30 6591 H 646.971 -4.12681 0.639058 0
M  V30 6592 N 647.408 -1.11026 -1.11852 0
M  V30 6593 C 648.685 -0.768347 -1.79877 0
M  V30 6594 C 649.065 0.744261 -1.97545 0
M  V30 6595 O 648.413 1.67271 -1.55669 0
M  V30 6596 C 648.623 -1.52648 -3.13846 0
M  V30 6597 C 649.971 -1.70297 -3.88953 0
M  V30 6598 O 650.995 -1.49037 -3.23522 0
M  V30 6599 O 649.854 -2.05593 -5.06353 0
M  V30 6600 H 646.948 -0.277891 -0.778913 0
M  V30 6601 H 649.494 -1.21343 -1.18633 0
M  V30 6602 H 648.266 -2.55564 -2.96315 0
M  V30 6603 H 647.889 -1.07466 -3.82801 0
M  V30 6604 N 648.886 1.2938 -0.899927 0
M  V30 6605 C 650.111 2.00228 -0.540692 0
M  V30 6606 C 650.536 1.66909 0.867359 0
M  V30 6607 O 649.894 0.893824 1.57735 0
M  V30 6608 C 649.942 3.52921 -0.740232 0
M  V30 6609 O 649.046 4.11879 0.207154 0
M  V30 6610 H 648.387 0.629505 -0.211233 0
M  V30 6611 H 650.917 1.6487 -1.21158 0
M  V30 6612 H 650.927 4.0287 -0.644973 0
M  V30 6613 H 649.602 3.76508 -1.76677 0
M  V30 6614 H 648.179 3.72845 0.0643315 0
M  V30 6615 N 650.364 0.662433 1.43002 0
M  V30 6616 C 651.294 -0.00979809 2.33498 0
M  V30 6617 C 652.275 -0.802329 1.49989 0
M  V30 6618 O 653.46 -0.761964 1.78627 0
M  V30 6619 C 650.59 -0.970446 3.33466 0
M  V30 6620 C 649.544 -0.287383 4.27034 0
M  V30 6621 C 648.87 -1.36012 5.17112 0
M  V30 6622 C 650.17 0.82595 5.15728 0
M  V30 6623 H 651.864 0.745959 2.89958 0
M  V30 6624 H 649.41 0.360172 1.39423 0
M  V30 6625 H 651.363 -1.44971 3.95679 0
M  V30 6626 H 650.087 -1.75748 2.75282 0
M  V30 6627 H 648.746 0.17152 3.66199 0
M  V30 6628 H 648.394 -2.13882 4.55262 0
M  V30 6629 H 648.094 -0.908276 5.80538 0
M  V30 6630 H 649.618 -1.84056 5.82199 0
M  V30 6631 H 651.032 0.42845 5.71697 0
M  V30 6632 H 649.429 1.20282 5.87922 0
M  V30 6633 H 650.499 1.68003 4.54866 0
M  V30 6634 N 651.842 -1.52309 0.404946 0
M  V30 6635 C 653.09 -2.01368 -0.17186 0
M  V30 6636 C 653.411 -1.29261 -1.46002 0
M  V30 6637 O 652.681 -0.41729 -1.91404 0
M  V30 6638 H 651.261 -0.744034 -0.0664993 0
M  V30 6639 H 653.923 -1.87263 0.540228 0
M  V30 6640 H 653.019 -3.09888 -0.370957 0
M  V30 6641 N 653.32 -0.135238 -1.57019 0
M  V30 6642 C 654.267 0.808908 -2.1616 0
M  V30 6643 C 655.237 1.25234 -1.09113 0
M  V30 6644 O 656.422 1.32697 -1.37099 0
M  V30 6645 C 653.562 2.04729 -2.77813 0
M  V30 6646 C 652.675 1.65074 -3.99218 0
M  V30 6647 C 651.81 2.84002 -4.48906 0
M  V30 6648 C 650.849 2.40663 -5.62803 0
M  V30 6649 N 649.986 3.5256 -6.07162 0
M  V30 6650 H 654.826 0.297751 -2.96509 0
M  V30 6651 H 652.363 0.135264 -1.46477 0
M  V30 6652 H 654.321 2.7731 -3.11697 0
M  V30 6653 H 652.951 2.53275 -2.00128 0
M  V30 6654 H 652.003 0.823029 -3.7139 0
M  V30 6655 H 653.315 1.29236 -4.81767 0
M  V30 6656 H 652.469 3.64788 -4.84783 0
M  V30 6657 H 651.208 3.23076 -3.65339 0
M  V30 6658 H 650.213 1.58314 -5.26514 0
M  V30 6659 H 651.438 2.02687 -6.48147 0
M  V30 6660 H 649.384 3.91278 -5.26534 0
M  V30 6661 H 649.301 3.20699 -6.84608 0
M  V30 6662 H 650.569 4.33738 -6.47682 0
M  V30 6663 N 654.798 1.5699 0.138552 0
M  V30 6664 C 655.745 1.98899 1.17081 0
M  V30 6665 C 656.715 0.857922 1.42228 0
M  V30 6666 O 657.9 1.12065 1.54422 0
M  V30 6667 C 655.04 2.38189 2.4972 0
M  V30 6668 C 654.153 3.64624 2.31674 0
M  V30 6669 C 653.288 3.9298 3.57407 0
M  V30 6670 C 652.327 5.1266 3.34435 0
M  V30 6671 N 651.464 5.36983 4.5232 0
M  V30 6672 H 656.304 2.86881 0.80642 0
M  V30 6673 H 653.841 1.41925 0.386727 0
M  V30 6674 H 655.799 2.59 3.2707 0
M  V30 6675 H 654.429 1.53275 2.84089 0
M  V30 6676 H 653.481 3.51542 1.45337 0
M  V30 6677 H 654.793 4.52131 2.10664 0
M  V30 6678 H 653.947 4.14335 4.43183 0
M  V30 6679 H 652.686 3.03912 3.8143 0
M  V30 6680 H 651.691 4.9117 2.47048 0
M  V30 6681 H 652.916 6.03288 3.11802 0
M  V30 6682 H 650.862 4.50871 4.76499 0
M  V30 6683 H 650.779 6.18775 4.34343 0
M  V30 6684 H 652.047 5.62842 5.39285 0
M  V30 6685 N 656.276 -0.40816 1.52223 0
M  V30 6686 C 657.186 -1.52202 1.78526 0
M  V30 6687 C 658.202 -1.60546 0.670892 0
M  V30 6688 O 659.378 -1.77242 0.956404 0
M  V30 6689 C 656.443 -2.87928 1.93128 0
M  V30 6690 C 655.504 -2.89463 3.17033 0
M  V30 6691 C 654.737 -4.18715 3.30929 0
M  V30 6692 O 654.96 -5.12662 2.50067 0
M  V30 6693 O 653.894 -4.27125 4.24084 0
M  V30 6694 H 657.72 -1.32911 2.73072 0
M  V30 6695 H 655.305 -0.594112 1.37079 0
M  V30 6696 H 657.187 -3.68426 2.04549 0
M  V30 6697 H 655.862 -3.07285 1.01772 0
M  V30 6698 H 654.769 -2.07815 3.11069 0
M  V30 6699 H 656.102 -2.75055 4.08174 0
M  V30 6700 N 657.755 -1.42862 -0.66545 0
M  V30 6701 C 658.718 -1.46756 -1.76055 0
M  V30 6702 C 659.718 -0.353866 -1.56858 0
M  V30 6703 O 660.908 -0.615099 -1.62979 0
M  V30 6704 C 658.04 -1.30829 -3.14796 0
M  V30 6705 H 659.233 -2.44271 -1.73987 0
M  V30 6706 H 656.786 -1.29447 -0.875965 0
M  V30 6707 H 657.521 -0.342733 -3.22484 0
M  V30 6708 H 657.306 -2.11551 -3.30134 0
M  V30 6709 H 658.796 -1.36458 -3.94676 0
M  V30 6710 N 659.233 0.902656 -1.29189 0
M  V30 6711 C 660.51 1.63296 -1.07674 0
M  V30 6712 C 660.89 2.07649 0.380137 0
M  V30 6713 O 660.238 1.82997 1.36837 0
M  V30 6714 C 660.448 2.81603 -2.06158 0
M  V30 6715 C 661.796 3.52359 -2.36914 0
M  V30 6716 O 662.82 2.91767 -2.04329 0
M  V30 6717 O 661.679 4.61586 -2.92576 0
M  V30 6718 H 658.773 0.716889 -0.41231 0
M  V30 6719 H 661.319 0.950984 -1.4055 0
M  V30 6720 H 660.091 2.46004 -3.04299 0
M  V30 6721 H 659.714 3.57508 -1.73993 0
M  V30 6722 N 660.711 1.11618 1.11262 0
M  V30 6723 C 662.122 0.881942 1.64556 0
M  V30 6724 C 662.473 -0.585442 1.87262 0
M  V30 6725 O 661.598 -1.44795 1.60821 0
M  V30 6726 C 662.193 1.59446 2.98935 0
M  V30 6727 C 660.752 1.40661 3.4913 0
M  V30 6728 C 659.899 1.63593 2.23903 0
M  V30 6729 H 662.85 1.27217 0.94877 0
M  V30 6730 H 662.871 1.04054 3.65996 0
M  V30 6731 H 662.383 2.66241 2.82378 0
M  V30 6732 H 660.484 0.360835 3.70849 0
M  V30 6733 H 660.597 2.15693 4.27801 0
M  V30 6734 H 658.961 1.05944 2.3162 0
M  V30 6735 H 659.744 2.71666 2.09886 0
M  V30 6736 N 662.189 -1.289 0.906776 0
M  V30 6737 C 663.099 -2.31256 0.394707 0
M  V30 6738 C 664.115 -1.66231 -0.514121 0
M  V30 6739 O 665.291 -1.97347 -0.401994 0
M  V30 6740 C 662.356 -3.44792 -0.363191 0
M  V30 6741 C 661.417 -4.25391 0.578012 0
M  V30 6742 C 660.65 -5.33506 -0.143811 0
M  V30 6743 O 660.873 -5.53786 -1.36665 0
M  V30 6744 O 659.807 -5.99673 0.5173 0
M  V30 6745 H 663.633 -2.77051 1.24405 0
M  V30 6746 H 661.218 -1.33466 0.671346 0
M  V30 6747 H 663.1 -4.139 -0.791503 0
M  V30 6748 H 661.775 -3.01093 -1.18848 0
M  V30 6749 H 660.682 -3.58899 1.05558 0
M  V30 6750 H 662.015 -4.72752 1.36992 0
M  V30 6751 N 663.667 -0.670007 -1.42649 0
M  V30 6752 C 664.944 -0.119451 -1.95235 0
M  V30 6753 C 665.324 1.36461 -1.61064 0
M  V30 6754 O 664.672 2.09843 -0.904329 0
M  V30 6755 C 664.882 -0.383498 -3.46887 0
M  V30 6756 C 666.23 -0.297431 -4.23557 0
M  V30 6757 O 667.254 -0.31698 -3.54787 0
M  V30 6758 O 666.113 -0.235507 -5.45992 0
M  V30 6759 H 663.207 -8.85474e-05 -0.827 0
M  V30 6760 H 665.753 -0.744406 -1.52501 0
M  V30 6761 H 664.525 -1.41174 -3.64946 0
M  V30 6762 H 664.148 0.273702 -3.96657 0
M  V30 6763 N 665.145 1.52092 -0.413018 0
M  V30 6764 C 666.393 2.01456 0.161178 0
M  V30 6765 C 666.714 1.30034 1.45314 0
M  V30 6766 O 665.984 0.427435 1.9118 0
M  V30 6767 H 664.564 0.744376 0.0625526 0
M  V30 6768 H 667.226 1.86974 -0.550151 0
M  V30 6769 H 666.322 3.1008 0.354517 0
M  V30 6770 N 666.623 0.143563 1.56945 0
M  V30 6771 C 667.57 -0.797433 2.16586 0
M  V30 6772 C 668.54 -1.24654 1.09775 0
M  V30 6773 O 669.725 -1.31968 1.37801 0
M  V30 6774 C 666.865 -2.03253 2.78895 0
M  V30 6775 C 665.978 -1.62954 4.00087 0
M  V30 6776 C 665.113 -2.81617 4.50406 0
M  V30 6777 C 664.152 -2.37675 5.64072 0
M  V30 6778 N 663.289 -3.49335 6.09023 0
M  V30 6779 H 668.129 -0.282023 2.96662 0
M  V30 6780 H 665.666 -0.127494 1.46546 0
M  V30 6781 H 667.624 -2.75653 3.13163 0
M  V30 6782 H 666.254 -2.52211 2.01469 0
M  V30 6783 H 665.306 -0.803322 3.71821 0
M  V30 6784 H 666.618 -1.26679 4.82446 0
M  V30 6785 H 665.772 -3.62212 4.86711 0
M  V30 6786 H 664.511 -3.21134 3.67048 0
M  V30 6787 H 663.516 -1.55519 5.27346 0
M  V30 6788 H 664.741 -1.99247 6.49213 0
M  V30 6789 H 662.687 -3.8848 5.28601 0
M  V30 6790 H 662.604 -3.17064 6.86299 0
M  V30 6791 H 663.872 -4.30297 6.49973 0
M  V30 6792 N 668.101 -1.57061 -0.130224 0
M  V30 6793 C 669.512 -1.73539 -0.68856 0
M  V30 6794 C 669.863 -0.760554 -1.80859 0
M  V30 6795 O 668.988 0.0690796 -2.1629 0
M  V30 6796 C 669.583 -3.14666 -1.25581 0
M  V30 6797 C 668.142 -3.32689 -1.76055 0
M  V30 6798 C 667.289 -2.69436 -0.655712 0
M  V30 6799 H 670.24 -1.58412 0.0956002 0
M  V30 6800 H 670.261 -3.15595 -2.12556 0
M  V30 6801 H 669.773 -3.85593 -0.440412 0
M  V30 6802 H 667.874 -2.66786 -2.60108 0
M  V30 6803 H 667.987 -4.4077 -1.87772 0
M  V30 6804 H 666.351 -2.30362 -1.08654 0
M  V30 6805 H 667.134 -3.42979 0.14852 0
M  V30 6806 N 669.579 0.400081 -1.52437 0
M  V30 6807 C 670.825 1.14788 -1.67187 0
M  V30 6808 C 671.158 1.89928 -0.405074 0
M  V30 6809 O 670.433 1.85118 0.596804 0
M  V30 6810 C 670.716 2.13507 -2.89977 0
M  V30 6811 C 670.569 1.42204 -4.2673 0
M  V30 6812 C 671.888 3.14069 -3.083 0
M  V30 6813 H 669.007 0.415939 -0.608411 0
M  V30 6814 H 671.649 0.432542 -1.85011 0
M  V30 6815 H 669.799 2.7451 -2.74912 0
M  V30 6816 H 671.471 0.842503 -4.53541 0
M  V30 6817 H 669.714 0.723939 -4.27717 0
M  V30 6818 H 670.385 2.14281 -5.08712 0
M  V30 6819 H 672.861 2.63148 -3.22323 0
M  V30 6820 H 671.737 3.80398 -3.95713 0
M  V30 6821 H 671.998 3.82309 -2.22018 0
M  V30 6822 N 671.057 1.43213 0.657864 0
M  V30 6823 C 671.99 1.42456 1.78273 0
M  V30 6824 C 672.968 0.286598 1.60054 0
M  V30 6825 O 674.152 0.479467 1.823 0
M  V30 6826 C 671.279 1.23169 3.15511 0
M  V30 6827 C 670.325 2.40181 3.52442 0
M  V30 6828 S 671.158 4.02729 3.52944 0
M  V30 6829 C 672.314 3.85816 4.92846 0
M  V30 6830 H 672.547 2.37642 1.78644 0
M  V30 6831 H 670.08 1.30188 0.830084 0
M  V30 6832 H 672.038 1.12728 3.94719 0
M  V30 6833 H 670.699 0.295398 3.12708 0
M  V30 6834 H 669.892 2.22478 4.52239 0
M  V30 6835 H 669.494 2.47224 2.80636 0
M  V30 6836 H 671.786 3.47853 5.81381 0
M  V30 6837 H 672.729 4.85348 5.15599 0
M  V30 6838 H 673.137 3.18361 4.66162 0
M  V30 6839 N 672.536 -0.895792 1.29666 0
M  V30 6840 C 673.813 -1.62723 1.08538 0
M  V30 6841 C 674.193 -2.07848 -0.369119 0
M  V30 6842 O 673.541 -1.8372 -1.35864 0
M  V30 6843 C 673.751 -2.80505 2.07648 0
M  V30 6844 C 675.099 -3.51098 2.3878 0
M  V30 6845 O 676.123 -2.90679 2.05874 0
M  V30 6846 O 674.982 -4.60028 2.9502 0
M  V30 6847 H 672.076 -0.714692 0.416106 0
M  V30 6848 H 674.622 -0.943517 1.41053 0
M  V30 6849 H 673.394 -2.44386 3.05599 0
M  V30 6850 H 673.017 -3.5658 1.75887 0
M  V30 6851 N 674.014 -1.12206 -1.10668 0
M  V30 6852 C 674.961 -0.787716 -2.16942 0
M  V30 6853 C 675.931 0.244442 -1.64291 0
M  V30 6854 O 677.116 0.119558 -1.90425 0
M  V30 6855 C 674.256 -0.24584 -3.44223 0
M  V30 6856 C 673.369 -1.33552 -4.10838 0
M  V30 6857 C 672.504 -0.753337 -5.25831 0
M  V30 6858 C 671.543 -1.82231 -5.84344 0
M  V30 6859 N 670.68 -1.25902 -6.90719 0
M  V30 6860 H 675.52 -1.69809 -2.44885 0
M  V30 6861 H 673.057 -0.847862 -1.20207 0
M  V30 6862 H 675.015 0.0863639 -4.17111 0
M  V30 6863 H 673.645 0.627702 -3.16638 0
M  V30 6864 H 672.697 -1.78454 -3.35944 0
M  V30 6865 H 674.009 -2.14396 -4.50373 0
M  V30 6866 H 673.163 -0.37166 -6.05561 0
M  V30 6867 H 671.902 0.0863297 -4.87624 0
M  V30 6868 H 670.907 -2.2132 -5.03287 0
M  V30 6869 H 672.132 -2.66515 -6.24617 0
M  V30 6870 H 670.078 -0.44114 -6.54515 0
M  V30 6871 H 669.995 -2.00408 -7.28953 0
M  V30 6872 H 671.263 -0.904498 -7.74235 0
M  V30 6873 N 675.492 1.28418 -0.913599 0
M  V30 6874 C 676.738 1.9527 -0.547484 0
M  V30 6875 C 677.071 1.71745 0.906486 0
M  V30 6876 O 676.346 1.03834 1.64465 0
M  V30 6877 C 676.629 3.49748 -0.857205 0
M  V30 6878 C 676.482 3.82675 -2.3639 0
M  V30 6879 C 677.801 4.3868 -0.353258 0
M  V30 6880 H 674.92 0.709236 -0.200381 0
M  V30 6881 H 677.562 1.51789 -1.14281 0
M  V30 6882 H 675.712 3.86915 -0.350548 0
M  V30 6883 H 677.384 3.55378 -2.94116 0
M  V30 6884 H 675.627 3.29724 -2.81894 0
M  V30 6885 H 676.298 4.90547 -2.53115 0
M  V30 6886 H 678.774 4.08584 -0.787288 0
M  V30 6887 H 677.65 5.45621 -0.599049 0
M  V30 6888 H 677.911 4.35753 0.746413 0
M  V30 6889 N 676.97 0.677563 1.42291 0
M  V30 6890 C 677.917 0.000947061 2.308 0
M  V30 6891 C 678.887 -0.789889 1.46116 0
M  V30 6892 O 680.072 -0.761578 1.74942 0
M  V30 6893 C 677.212 -0.942387 3.31984 0
M  V30 6894 C 676.325 -0.14508 4.31756 0
M  V30 6895 C 675.46 -1.08442 5.20013 0
M  V30 6896 C 674.499 -0.278958 6.11464 0
M  V30 6897 N 673.636 -1.17115 6.92263 0
M  V30 6898 H 678.476 0.761521 2.88106 0
M  V30 6899 H 676.013 0.38727 1.41911 0
M  V30 6900 H 677.971 -1.50317 3.89179 0
M  V30 6901 H 676.601 -1.66956 2.76271 0
M  V30 6902 H 675.653 0.532368 3.76656 0
M  V30 6903 H 676.965 0.48015 4.96484 0
M  V30 6904 H 676.119 -1.71504 5.81955 0
M  V30 6905 H 674.858 -1.74353 4.55469 0
M  V30 6906 H 673.863 0.364856 5.48588 0
M  V30 6907 H 675.088 0.376099 6.78058 0
M  V30 6908 H 673.034 -1.81661 6.30345 0
M  V30 6909 H 672.951 -0.601063 7.53607 0
M  V30 6910 H 674.219 -1.78915 7.58689 0
M  V30 6911 N 678.448 -1.51871 0.421078 0
M  V30 6912 C 679.358 -2.31077 -0.405069 0
M  V30 6913 C 680.374 -1.39301 -1.04265 0
M  V30 6914 O 681.55 -1.72376 -1.04157 0
M  V30 6915 C 678.615 -3.12556 -1.50032 0
M  V30 6916 C 677.676 -4.20088 -0.884559 0
M  V30 6917 C 676.909 -4.97673 -1.92762 0
M  V30 6918 O 677.132 -4.75696 -3.14753 0
M  V30 6919 O 676.066 -5.82203 -1.52719 0
M  V30 6920 H 679.892 -3.02742 0.241086 0
M  V30 6921 H 677.477 -1.48263 0.183991 0
M  V30 6922 H 679.359 -3.6326 -2.13589 0
M  V30 6923 H 678.034 -2.43672 -2.13086 0
M  V30 6924 H 676.941 -3.73502 -0.211379 0
M  V30 6925 H 678.274 -4.91298 -0.297763 0
M  V30 6926 N 679.926 -0.151884 -1.56866 0
M  V30 6927 C 680.873 0.785936 -2.17006 0
M  V30 6928 C 681.843 1.2407 -1.10435 0
M  V30 6929 O 683.028 1.31235 -1.38499 0
M  V30 6930 C 680.168 2.01771 -2.79969 0
M  V30 6931 C 679.281 1.6083 -4.00946 0
M  V30 6932 C 678.416 2.79224 -4.51893 0
M  V30 6933 C 677.455 2.3468 -5.65324 0
M  V30 6934 N 676.592 3.461 -6.10867 0
M  V30 6935 H 681.432 0.266286 -2.96808 0
M  V30 6936 H 678.969 0.11972 -1.46612 0
M  V30 6937 H 680.927 2.73989 -3.14621 0
M  V30 6938 H 679.557 2.51139 -2.02803 0
M  V30 6939 H 678.609 0.783592 -3.72242 0
M  V30 6940 H 679.921 1.24119 -4.83111 0
M  V30 6941 H 679.075 3.59625 -4.88625 0
M  V30 6942 H 677.814 3.19183 -3.68746 0
M  V30 6943 H 676.819 1.52721 -5.28163 0
M  V30 6944 H 678.044 1.95801 -6.5026 0
M  V30 6945 H 675.99 3.85671 -5.30654 0
M  V30 6946 H 675.907 3.1342 -6.87971 0
M  V30 6947 H 677.175 4.26844 -6.52246 0
M  V30 6948 N 681.404 1.57128 0.121893 0
M  V30 6949 C 682.367 1.99197 1.13372 0
M  V30 6950 C 683.367 0.881728 1.3447 0
M  V30 6951 O 684.557 1.14783 1.31036 0
M  V30 6952 C 681.689 2.32963 2.4888 0
M  V30 6953 H 682.882 2.89788 0.772204 0
M  V30 6954 H 680.435 1.51952 0.366093 0
M  V30 6955 H 681.17 1.45243 2.89957 0
M  V30 6956 H 680.955 3.13934 2.34921 0
M  V30 6957 H 682.445 2.66261 3.21706 0
M  V30 6958 N 682.882 -0.391992 1.52647 0
M  V30 6959 C 683.829 -1.47866 1.77213 0
M  V30 6960 C 684.799 -1.54286 0.615223 0
M  V30 6961 O 685.984 -1.7059 0.854622 0
M  V30 6962 C 683.124 -2.85129 1.94411 0
M  V30 6963 C 682.237 -2.87883 3.22098 0
M  V30 6964 C 681.372 -4.16553 3.29631 0
M  V30 6965 C 680.411 -4.13348 4.51453 0
M  V30 6966 N 679.548 -5.33619 4.56284 0
M  V30 6967 H 684.388 -1.26219 2.6995 0
M  V30 6968 H 681.925 -0.612367 1.33748 0
M  V30 6969 H 683.883 -3.64833 2.02367 0
M  V30 6970 H 682.513 -3.05232 1.05038 0
M  V30 6971 H 681.565 -2.00567 3.23229 0
M  V30 6972 H 682.877 -2.81382 4.11856 0
M  V30 6973 H 682.031 -5.0466 3.36753 0
M  V30 6974 H 680.77 -4.25773 2.37842 0
M  V30 6975 H 679.775 -3.23629 4.44459 0
M  V30 6976 H 681 -4.05754 5.44555 0
M  V30 6977 H 678.946 -5.43474 3.67385 0
M  V30 6978 H 678.863 -5.29182 5.3991 0
M  V30 6979 H 680.131 -6.23632 4.67657 0
M  V30 6980 N 684.36 -1.4356 -0.65026 0
M  V30 6981 C 685.27 -1.514 -1.79207 0
M  V30 6982 C 686.286 -0.400895 -1.69319 0
M  V30 6983 O 687.462 -0.655458 -1.90436 0
M  V30 6984 C 684.527 -1.43737 -3.155 0
M  V30 6985 C 683.588 -2.65743 -3.37163 0
M  V30 6986 C 682.821 -2.58436 -4.66954 0
M  V30 6987 O 683.044 -1.63374 -5.46503 0
M  V30 6988 O 681.978 -3.48984 -4.90402 0
M  V30 6989 H 685.804 -2.47825 -1.75547 0
M  V30 6990 H 683.389 -1.25594 -0.809111 0
M  V30 6991 H 685.271 -1.41916 -3.96784 0
M  V30 6992 H 683.946 -0.504488 -3.19745 0
M  V30 6993 H 682.853 -2.73136 -2.55632 0
M  V30 6994 H 684.186 -3.58014 -3.37768 0
M  V30 6995 N 685.838 0.888903 -1.30139 0
M  V30 6996 C 686.748 2.02705 -1.18101 0
M  V30 6997 C 687.764 1.73702 -0.101809 0
M  V30 6998 O 688.94 1.98906 -0.315984 0
M  V30 6999 C 686.005 3.35616 -0.869651 0
M  V30 7000 C 685.066 3.78067 -2.03381 0
M  V30 7001 C 684.299 5.04635 -1.73721 0
M  V30 7002 O 684.522 5.66531 -0.663267 0
M  V30 7003 O 683.456 5.43399 -2.58845 0
M  V30 7004 H 687.282 2.15788 -2.13704 0
M  V30 7005 H 684.867 1.01426 -1.09695 0
M  V30 7006 H 686.749 4.15358 -0.711043 0
M  V30 7007 H 685.424 3.23651 0.0565002 0
M  V30 7008 H 684.331 2.99046 -2.24772 0
M  V30 7009 H 685.664 3.94631 -2.94155 0
M  V30 7010 N 687.317 1.12792 1.10072 0
M  V30 7011 C 688.594 0.796867 1.78632 0
M  V30 7012 C 688.974 -0.712739 1.98704 0
M  V30 7013 O 688.322 -1.64773 1.5831 0
M  V30 7014 C 688.532 1.57622 3.11378 0
M  V30 7015 C 689.88 1.76463 3.86194 0
M  V30 7016 O 690.904 1.54165 3.2111 0
M  V30 7017 O 689.763 2.13623 5.03018 0
M  V30 7018 H 686.857 0.290248 0.774394 0
M  V30 7019 H 689.403 1.23215 1.16688 0
M  V30 7020 H 688.175 2.60246 2.92212 0
M  V30 7021 H 687.798 1.13543 3.81043 0
M  V30 7022 N 688.795 -1.27931 0.920396 0
M  V30 7023 C 690.211 -1.47085 0.619537 0
M  V30 7024 C 690.411 -1.83463 -0.833291 0
M  V30 7025 O 689.467 -1.94363 -1.61181 0
M  V30 7026 C 690.78 -2.56878 1.56314 0
M  V30 7027 C 692.328 -2.70743 1.57058 0
M  V30 7028 C 692.803 -3.83687 2.50097 0
M  V30 7029 N 694.294 -3.9105 2.48262 0
M  V30 7030 C 695.029 -4.77842 3.16945 0
M  V30 7031 N 694.525 -5.69176 3.94982 0
M  V30 7032 N 696.318 -4.71509 3.06 0
M  V30 7033 H 688.469 -1.02601 1.85975 0
M  V30 7034 H 690.732 -0.511682 0.798051 0
M  V30 7035 H 690.438 -2.36923 2.59923 0
M  V30 7036 H 690.312 -3.54117 1.29928 0
M  V30 7037 H 692.699 -2.90083 0.541832 0
M  V30 7038 H 692.78 -1.74015 1.8749 0
M  V30 7039 H 692.424 -3.65101 3.53077 0
M  V30 7040 H 692.354 -4.79827 2.16964 0
M  V30 7041 H 694.845 -3.25738 1.91581 0
M  V30 7042 H 695.158 -6.32245 4.44394 0
M  V30 7043 H 693.503 -5.68995 3.99086 0
M  V30 7044 H 696.694 -3.99151 2.44533 0
M  V30 7045 H 696.867 -5.38933 3.59799 0
M  V30 7046 N 690.273 -0.685099 -1.4193 0
M  V30 7047 C 691.183 -0.013404 -2.34596 0
M  V30 7048 C 692.199 0.777589 -1.55658 0
M  V30 7049 O 693.375 0.717553 -1.88184 0
M  V30 7050 C 690.44 0.919031 -3.34297 0
M  V30 7051 C 689.501 0.121417 -4.29128 0
M  V30 7052 C 688.734 1.00944 -5.24067 0
M  V30 7053 O 688.957 2.24898 -5.24192 0
M  V30 7054 O 687.891 0.464724 -6.00103 0
M  V30 7055 H 691.717 -0.776978 -2.93593 0
M  V30 7056 H 689.302 -0.445379 -1.42607 0
M  V30 7057 H 691.184 1.45402 -3.9552 0
M  V30 7058 H 689.859 1.66228 -2.77759 0
M  V30 7059 H 688.766 -0.45792 -3.71287 0
M  V30 7060 H 690.099 -0.582937 -4.88736 0
M  V30 7061 N 691.751 1.51645 -0.429126 0
M  V30 7062 C 692.698 2.27542 0.386446 0
M  V30 7063 C 693.668 1.30786 1.02393 0
M  V30 7064 O 694.853 1.59678 1.0444 0
M  V30 7065 C 691.993 3.11457 1.48623 0
M  V30 7066 C 691.106 4.23196 0.867691 0
M  V30 7067 C 690.241 4.94435 1.94183 0
M  V30 7068 C 689.28 5.98108 1.30129 0
M  V30 7069 N 688.417 6.62786 2.31644 0
M  V30 7070 H 693.257 2.968 -0.267155 0
M  V30 7071 H 690.794 1.46397 -0.143591 0
M  V30 7072 H 692.752 3.58429 2.13506 0
M  V30 7073 H 691.382 2.44329 2.10957 0
M  V30 7074 H 690.434 3.80248 0.107373 0
M  V30 7075 H 691.746 4.97499 0.35997 0
M  V30 7076 H 690.9 5.44914 2.66747 0
M  V30 7077 H 689.639 4.19744 2.48326 0
M  V30 7078 H 688.644 5.4693 0.561082 0
M  V30 7079 H 689.869 6.74751 0.767303 0
M  V30 7080 H 687.815 5.90913 2.84883 0
M  V30 7081 H 687.732 7.32828 1.85741 0
M  V30 7082 H 689 7.17897 3.03717 0
M  V30 7083 N 693.229 0.160201 1.56784 0
M  V30 7084 C 694.159 -0.770264 2.2043 0
M  V30 7085 C 695.14 -1.24736 1.15651 0
M  V30 7086 O 696.325 -1.30253 1.44041 0
M  V30 7087 C 693.455 -2.00427 2.83631 0
M  V30 7088 C 692.409 -1.66345 3.94352 0
M  V30 7089 C 691.735 -2.97119 4.4455 0
M  V30 7090 C 693.035 -0.899972 5.14488 0
M  V30 7091 H 694.729 -0.239783 2.98438 0
M  V30 7092 H 692.275 -0.113891 1.43549 0
M  V30 7093 H 694.228 -2.66012 3.26827 0
M  V30 7094 H 692.952 -2.5587 2.02973 0
M  V30 7095 H 691.611 -1.03133 3.51794 0
M  V30 7096 H 691.259 -3.5058 3.60698 0
M  V30 7097 H 690.959 -2.75073 5.19238 0
M  V30 7098 H 692.483 -3.63753 4.90425 0
M  V30 7099 H 693.897 -1.45818 5.54446 0
M  V30 7100 H 692.294 -0.778968 5.95023 0
M  V30 7101 H 693.364 0.105827 4.84785 0
M  V30 7102 N 694.707 -1.5719 -0.113559 0
M  V30 7103 C 695.955 -1.84772 -0.818761 0
M  V30 7104 C 696.276 -0.746196 -1.80158 0
M  V30 7105 O 695.546 0.229305 -1.94553 0
M  V30 7106 H 694.126 -0.681737 -0.305359 0
M  V30 7107 H 696.788 -1.94645 -0.0995845 0
M  V30 7108 H 695.884 -2.80878 -1.36067 0
M  V30 7109 N 696.185 0.383891 -1.52853 0
M  V30 7110 C 697.095 1.49343 -1.80925 0
M  V30 7111 C 698.111 1.59458 -0.696348 0
M  V30 7112 O 699.287 1.75698 -0.984481 0
M  V30 7113 C 696.352 2.84819 -1.97684 0
M  V30 7114 C 695.413 2.84382 -3.21598 0
M  V30 7115 C 694.646 4.13397 -3.37548 0
M  V30 7116 O 694.869 5.08619 -2.58192 0
M  V30 7117 O 693.803 4.20325 -4.30826 0
M  V30 7118 H 697.629 1.2855 -2.75152 0
M  V30 7119 H 695.214 0.572229 -1.38007 0
M  V30 7120 H 697.096 3.65125 -2.10385 0
M  V30 7121 H 695.771 3.05627 -1.06647 0
M  V30 7122 H 694.678 2.0284 -3.14336 0
M  V30 7123 H 696.011 2.68526 -4.12498 0
M  V30 7124 N 697.663 1.43903 0.642637 0
M  V30 7125 C 698.61 1.49881 1.75512 0
M  V30 7126 C 699.58 0.347538 1.62423 0
M  V30 7127 O 700.765 0.556177 1.82514 0
M  V30 7128 C 697.905 1.43797 3.13714 0
M  V30 7129 C 697.018 2.6921 3.37861 0
M  V30 7130 C 696.153 2.5504 4.6597 0
M  V30 7131 C 695.192 3.75671 4.83257 0
M  V30 7132 N 694.329 3.60247 6.02633 0
M  V30 7133 H 699.169 2.44935 1.69737 0
M  V30 7134 H 696.706 1.21572 0.828165 0
M  V30 7135 H 698.664 1.38262 3.93624 0
M  V30 7136 H 697.294 0.523173 3.18532 0
M  V30 7137 H 696.346 2.8498 2.51973 0
M  V30 7138 H 697.658 3.58786 3.46517 0
M  V30 7139 H 696.812 2.47273 5.54023 0
M  V30 7140 H 695.551 1.63006 4.59653 0
M  V30 7141 H 694.556 3.83836 3.93637 0
M  V30 7142 H 695.781 4.68728 4.91397 0
M  V30 7143 H 693.727 2.70955 5.97427 0
M  V30 7144 H 693.644 4.43431 6.12295 0
M  V30 7145 H 694.912 3.56351 6.93278 0
M  V30 7146 N 699.141 -0.881989 1.30609 0
M  V30 7147 C 700.051 -2.02076 1.19174 0
M  V30 7148 C 701.067 -1.73645 0.11102 0
M  V30 7149 O 702.243 -1.98735 0.326528 0
M  V30 7150 C 699.308 -3.3515 0.887438 0
M  V30 7151 C 698.369 -3.76983 2.05383 0
M  V30 7152 C 697.602 -5.03707 1.76395 0
M  V30 7153 O 697.825 -5.66171 0.693302 0
M  V30 7154 O 696.759 -5.42019 2.61723 0
M  V30 7155 H 700.585 -2.14652 2.14845 0
M  V30 7156 H 698.17 -1.00843 1.10232 0
M  V30 7157 H 700.052 -4.14975 0.73306 0
M  V30 7158 H 698.727 -3.23676 -0.0393354 0
M  V30 7159 H 697.634 -2.97849 2.26355 0
M  V30 7160 H 698.967 -3.93066 2.96243 0
M  V30 7161 N 700.619 -1.13374 -1.09472 0
M  V30 7162 C 701.529 -0.824029 -2.19652 0
M  V30 7163 C 702.545 0.19118 -1.72947 0
M  V30 7164 O 703.721 0.0223464 -2.01388 0
M  V30 7165 C 700.786 -0.294009 -3.45451 0
M  V30 7166 C 699.847 -1.3704 -4.0684 0
M  V30 7167 C 699.08 -0.86558 -5.26634 0
M  V30 7168 O 699.303 0.29702 -5.69626 0
M  V30 7169 O 698.237 -1.63968 -5.79136 0
M  V30 7170 H 702.063 -1.74454 -2.48595 0
M  V30 7171 H 699.648 -0.911155 -1.18399 0
M  V30 7172 H 701.53 -0.00381039 -4.214 0
M  V30 7173 H 700.205 0.598921 -3.18111 0
M  V30 7174 H 699.112 -1.71391 -3.3253 0
M  V30 7175 H 700.445 -2.23746 -4.38405 0
M  V30 7176 N 702.098 1.27442 -0.927168 0
M  V30 7177 C 703.326 1.98498 -0.583622 0
M  V30 7178 C 703.741 1.69171 0.838241 0
M  V30 7179 O 703.098 0.951969 1.55704 0
M  V30 7180 C 703.149 3.52552 -0.799341 0
M  V30 7181 O 702.87 3.80851 -2.16527 0
M  V30 7182 C 704.371 4.4086 -0.464436 0
M  V30 7183 H 701.591 0.633487 -0.221213 0
M  V30 7184 H 704.135 1.62308 -1.24404 0
M  V30 7185 H 702.29 3.86955 -0.185728 0
M  V30 7186 H 702.704 4.75441 -2.21487 0
M  V30 7187 H 704.178 5.47967 -0.666075 0
M  V30 7188 H 704.655 4.35082 0.599995 0
M  V30 7189 H 705.261 4.11977 -1.05617 0
M  V30 7190 N 703.576 0.692616 1.41565 0
M  V30 7191 C 704.825 0.219452 2.00503 0
M  V30 7192 C 705.138 -1.18683 1.55479 0
M  V30 7193 O 706.344 -1.75731 2.06956 0
M  V30 7194 C 704.8 0.341451 3.58277 0
M  V30 7195 C 704.408 1.75291 4.12283 0
M  V30 7196 C 706.152 -0.0720899 4.24439 0
M  V30 7197 C 704.059 1.82673 5.62481 0
M  V30 7198 H 702.989 0.0782874 0.749925 0
M  V30 7199 H 705.64 0.860386 1.62079 0
M  V30 7200 H 704.022 -0.367683 3.94289 0
M  V30 7201 H 705.196 2.49057 3.87695 0
M  V30 7202 H 703.511 2.11587 3.58636 0
M  V30 7203 H 706.108 -0.0373385 5.34687 0
M  V30 7204 H 706.451 -1.11034 4.0122 0
M  V30 7205 H 706.984 0.586663 3.9345 0
M  V30 7206 H 703.723 2.84539 5.90523 0
M  V30 7207 H 703.243 1.13288 5.89004 0
M  V30 7208 H 704.922 1.58827 6.27203 0
M  V30 7209 N 705.054 -1.51416 0.437162 0
M  V30 7210 C 706.465 -1.86682 -0.0260005 0
M  V30 7211 C 706.816 -1.35432 -1.4196 0
M  V30 7212 O 705.941 -0.705055 -2.04592 0
M  V30 7213 C 706.536 -3.38757 -0.0539577 0
M  V30 7214 C 705.095 -3.7356 -0.461532 0
M  V30 7215 C 704.242 -2.75134 0.345924 0
M  V30 7216 H 707.193 -1.44642 0.653013 0
M  V30 7217 H 707.214 -3.70573 -0.863478 0
M  V30 7218 H 706.726 -3.76028 0.96045 0
M  V30 7219 H 704.827 -3.41878 -1.48155 0
M  V30 7220 H 704.94 -4.78737 -0.186451 0
M  V30 7221 H 703.304 -2.53947 -0.195739 0
M  V30 7222 H 704.087 -3.15247 1.35921 0
M  V30 7223 N 706.532 -0.168513 -1.56696 0
M  V30 7224 C 707.943 0.348694 -1.83415 0
M  V30 7225 C 708.294 1.63257 -1.0882 0
M  V30 7226 O 707.419 2.13707 -0.340333 0
M  V30 7227 C 708.014 0.639423 -3.32711 0
M  V30 7228 C 706.573 1.10108 -3.59935 0
M  V30 7229 C 705.72 0.135464 -2.76969 0
M  V30 7230 H 708.671 -0.392829 -1.53761 0
M  V30 7231 H 708.692 1.49179 -3.50037 0
M  V30 7232 H 708.204 -0.295173 -3.86976 0
M  V30 7233 H 706.305 2.05088 -3.11079 0
M  V30 7234 H 706.418 1.01218 -4.68286 0
M  V30 7235 H 704.782 0.632286 -2.46727 0
M  V30 7236 H 705.565 -0.793104 -3.34013 0
M  V30 7237 N 708.01 1.57248 0.105221 0
M  V30 7238 C 709.287 1.76566 0.841647 0
M  V30 7239 C 709.667 0.747566 1.9742 0
M  V30 7240 O 709.015 -0.225886 2.27381 0
M  V30 7241 C 709.225 3.22016 1.3456 0
M  V30 7242 C 710.573 3.84911 1.79244 0
M  V30 7243 O 711.597 3.25703 1.44207 0
M  V30 7244 O 710.456 4.89008 2.43995 0
M  V30 7245 H 707.55 0.723443 0.400698 0
M  V30 7246 H 710.096 1.69472 0.0878893 0
M  V30 7247 H 708.868 3.87644 0.533685 0
M  V30 7248 H 708.491 3.33703 2.16167 0
M  V30 7249 N 709.488 -0.375779 1.53054 0
M  V30 7250 C 710.718 -1.1387 1.72386 0
M  V30 7251 C 711.126 -1.8382 0.447966 0
M  V30 7252 O 710.469 -1.74027 -0.588244 0
M  V30 7253 C 710.531 -2.22047 2.82728 0
M  V30 7254 C 710.195 -1.71951 4.23417 0
M  V30 7255 C 711.192 -1.18909 5.06119 0
M  V30 7256 C 708.877 -1.77773 4.69789 0
M  V30 7257 C 710.871 -0.723529 6.3328 0
M  V30 7258 C 708.558 -1.30829 5.96931 0
M  V30 7259 C 709.556 -0.782077 6.78508 0
M  V30 7260 O 709.244 -0.319529 8.03265 0
M  V30 7261 H 708.976 -0.346835 0.580242 0
M  V30 7262 H 711.53 -0.443748 2.00549 0
M  V30 7263 H 709.76 -2.95006 2.50017 0
M  V30 7264 H 711.449 -2.83654 2.90336 0
M  V30 7265 H 712.215 -1.13758 4.7147 0
M  V30 7266 H 708.094 -2.17673 4.06373 0
M  V30 7267 H 711.638 -0.312126 6.96901 0
M  V30 7268 H 707.535 -1.3567 6.31081 0
M  V30 7269 H 708.303 -0.439796 8.17318 0
M  V30 7270 N 710.966 -1.44241 -0.634997 0
M  V30 7271 C 712.382 -1.28043 -0.952742 0
M  V30 7272 C 712.582 -0.21338 -2.00367 0
M  V30 7273 O 711.638 0.402042 -2.49279 0
M  V30 7274 C 712.951 -2.65076 -1.41968 0
M  V30 7275 C 714.499 -2.72755 -1.53537 0
M  V30 7276 C 714.974 -4.10249 -2.03616 0
M  V30 7277 N 716.465 -4.12406 -2.10892 0
M  V30 7278 C 717.2 -5.15641 -2.50803 0
M  V30 7279 N 716.696 -6.29239 -2.89879 0
M  V30 7280 N 718.489 -5.02995 -2.50903 0
M  V30 7281 H 710.64 -2.12315 0.060098 0
M  V30 7282 H 712.903 -0.947326 -0.0357325 0
M  V30 7283 H 712.609 -3.44213 -0.721804 0
M  V30 7284 H 712.483 -2.91704 -2.39141 0
M  V30 7285 H 714.87 -1.93939 -2.22422 0
M  V30 7286 H 714.951 -2.49872 -0.547496 0
M  V30 7287 H 714.595 -4.8954 -1.35327 0
M  V30 7288 H 714.525 -4.30507 -3.03268 0
M  V30 7289 H 717.016 -3.30417 -1.83393 0
M  V30 7290 H 717.329 -7.03827 -3.19135 0
M  V30 7291 H 715.674 -6.32683 -2.8764 0
M  V30 7292 H 718.865 -4.13306 -2.19763 0
M  V30 7293 H 719.038 -5.83574 -2.81683 0
M  V30 7294 N 712.444 0.87505 -1.31075 0
M  V30 7295 C 713.374 1.99775 -1.20881 0
M  V30 7296 C 714.355 1.69822 -0.0971612 0
M  V30 7297 O 715.54 1.92158 -0.280895 0
M  V30 7298 C 712.67 3.35163 -0.910118 0
M  V30 7299 C 711.624 3.79406 -1.98078 0
M  V30 7300 C 710.95 5.12197 -1.53488 0
M  V30 7301 C 712.25 3.97061 -3.39323 0
M  V30 7302 H 713.944 2.08562 -2.14808 0
M  V30 7303 H 711.49 1.00207 -1.03415 0
M  V30 7304 H 713.443 4.13237 -0.825423 0
M  V30 7305 H 712.167 3.26536 0.064822 0
M  V30 7306 H 710.826 3.03568 -2.05528 0
M  V30 7307 H 710.474 5.00007 -0.547941 0
M  V30 7308 H 710.174 5.4277 -2.2511 0
M  V30 7309 H 711.698 5.92785 -1.46417 0
M  V30 7310 H 713.112 4.65545 -3.34576 0
M  V30 7311 H 711.509 4.39025 -4.09118 0
M  V30 7312 H 712.579 3.00601 -3.80483 0
M  V30 7313 N 713.922 1.13953 1.08869 0
M  V30 7314 C 714.832 0.835666 2.19212 0
M  V30 7315 C 715.848 -0.182005 1.73045 0
M  V30 7316 O 717.024 -0.0116661 2.01397 0
M  V30 7317 C 714.089 0.312325 3.4529 0
M  V30 7318 C 713.15 1.39196 4.06107 0
M  V30 7319 C 712.383 0.893496 5.26168 0
M  V30 7320 O 712.606 -0.266807 5.69776 0
M  V30 7321 O 711.54 1.67037 5.78258 0
M  V30 7322 H 715.366 1.75769 2.47667 0
M  V30 7323 H 712.951 0.917421 1.17914 0
M  V30 7324 H 714.833 0.0261582 4.21392 0
M  V30 7325 H 713.508 -0.582042 3.18424 0
M  V30 7326 H 712.415 1.73152 3.31616 0
M  V30 7327 H 713.748 2.26068 4.37212 0
M  V30 7328 N 715.4 -1.26948 0.933913 0
M  V30 7329 C 716.31 -2.30366 0.443671 0
M  V30 7330 C 717.326 -1.67284 -0.478745 0
M  V30 7331 O 718.502 -1.98156 -0.360043 0
M  V30 7332 C 715.567 -3.45485 -0.289974 0
M  V30 7333 C 714.628 -4.24069 0.668114 0
M  V30 7334 C 713.861 -5.33691 -0.0306138 0
M  V30 7335 O 714.084 -5.5656 -1.24888 0
M  V30 7336 O 713.018 -5.98441 0.644384 0
M  V30 7337 H 716.844 -2.74349 1.30254 0
M  V30 7338 H 714.429 -1.32012 0.699506 0
M  V30 7339 H 716.311 -4.15486 -0.70353 0
M  V30 7340 H 714.986 -3.03546 -1.12435 0
M  V30 7341 H 713.893 -3.56579 1.13147 0
M  V30 7342 H 715.226 -4.69739 1.46989 0
M  V30 7343 N 716.879 -0.700114 -1.41195 0
M  V30 7344 C 718.125 -0.233351 -2.01453 0
M  V30 7345 C 718.458 1.16548 -1.55339 0
M  V30 7346 O 717.733 1.78756 -0.766575 0
M  V30 7347 C 718.016 -0.2961 -3.58881 0
M  V30 7348 C 717.869 -1.7322 -4.15108 0
M  V30 7349 C 719.188 0.341525 -4.38773 0
M  V30 7350 H 716.307 -0.0862667 -0.731934 0
M  V30 7351 H 718.949 -0.889693 -1.67882 0
M  V30 7352 H 717.099 0.262736 -3.87611 0
M  V30 7353 H 718.771 -2.34523 -3.97236 0
M  V30 7354 H 717.014 -2.2649 -3.69979 0
M  V30 7355 H 717.685 -1.7276 -5.24269 0
M  V30 7356 H 720.161 -0.134461 -4.15883 0
M  V30 7357 H 719.037 0.267098 -5.4825 0
M  V30 7358 H 719.298 1.42289 -4.18577 0
M  V30 7359 N 718.357 1.51182 -0.445186 0
M  V30 7360 C 719.304 2.27939 0.362291 0
M  V30 7361 C 720.274 1.31864 1.01 0
M  V30 7362 O 721.459 1.60776 1.02741 0
M  V30 7363 C 718.599 3.13016 1.45311 0
M  V30 7364 C 717.712 4.24093 0.822757 0
M  V30 7365 C 716.847 4.96467 1.88928 0
M  V30 7366 C 715.886 5.99454 1.23778 0
M  V30 7367 N 715.023 6.65206 2.24602 0
M  V30 7368 H 719.863 2.965 -0.29862 0
M  V30 7369 H 717.4 1.46237 -0.15911 0
M  V30 7370 H 719.358 3.60673 2.09692 0
M  V30 7371 H 717.988 2.46553 2.08354 0
M  V30 7372 H 717.04 3.80341 0.0670364 0
M  V30 7373 H 718.352 4.97853 0.307184 0
M  V30 7374 H 717.506 5.47712 2.60953 0
M  V30 7375 H 716.245 4.22355 2.4386 0
M  V30 7376 H 715.25 5.47494 0.503042 0
M  V30 7377 H 716.475 6.75527 0.695694 0
M  V30 7378 H 714.421 5.93901 2.78599 0
M  V30 7379 H 714.338 7.34756 1.77958 0
M  V30 7380 H 715.606 7.21078 2.96085 0
M  V30 7381 N 719.835 0.176821 1.56605 0
M  V30 7382 C 721.112 -0.513365 1.88743 0
M  V30 7383 C 721.492 -1.80929 1.08757 0
M  V30 7384 O 720.84 -2.27765 0.183127 0
M  V30 7385 C 721.05 -0.749925 3.40848 0
M  V30 7386 C 722.398 -1.07747 4.10701 0
M  V30 7387 O 723.422 -0.838277 3.46196 0
M  V30 7388 O 722.281 -1.52901 5.24675 0
M  V30 7389 H 719.375 -0.265296 0.783292 0
M  V30 7390 H 721.921 0.215669 1.68324 0
M  V30 7391 H 720.693 0.16599 3.90948 0
M  V30 7392 H 720.316 -1.53208 3.66897 0
M  V30 7393 N 721.313 -1.57302 -0.09688 0
M  V30 7394 C 722.26 -2.01933 -1.11766 0
M  V30 7395 C 723.23 -0.895329 -1.39904 0
M  V30 7396 O 724.415 -1.16119 -1.51397 0
M  V30 7397 C 721.555 -2.44726 -2.43317 0
M  V30 7398 C 720.668 -3.70639 -2.21925 0
M  V30 7399 C 719.803 -4.02318 -3.46862 0
M  V30 7400 C 718.842 -5.21346 -3.20725 0
M  V30 7401 N 717.979 -5.48787 -4.37924 0
M  V30 7402 H 722.819 -2.88919 -0.730075 0
M  V30 7403 H 720.356 -1.42901 -0.348962 0
M  V30 7404 H 722.314 -2.6758 -3.20088 0
M  V30 7405 H 720.944 -1.60753 -2.79926 0
M  V30 7406 H 719.996 -3.55271 -1.35965 0
M  V30 7407 H 721.308 -4.57557 -1.98603 0
M  V30 7408 H 720.462 -4.25939 -4.32042 0
M  V30 7409 H 719.201 -3.13918 -3.73238 0
M  V30 7410 H 718.206 -4.97547 -2.33938 0
M  V30 7411 H 719.431 -6.11343 -2.95697 0
M  V30 7412 H 717.377 -4.63346 -4.64378 0
M  V30 7413 H 717.294 -6.30073 -4.17785 0
M  V30 7414 H 718.562 -5.76943 -5.24173 0
M  V30 7415 N 722.791 0.367657 -1.53252 0
M  V30 7416 C 724.068 1.12606 -1.59935 0
M  V30 7417 C 724.448 2.07167 -0.405606 0
M  V30 7418 O 723.796 2.20364 0.604323 0
M  V30 7419 C 724.006 1.86699 -2.94863 0
M  V30 7420 C 725.354 2.41306 -3.49366 0
M  V30 7421 O 726.378 1.96828 -2.96879 0
M  V30 7422 O 725.237 3.2261 -4.41118 0
M  V30 7423 H 722.331 0.516438 -0.645926 0
M  V30 7424 H 724.877 0.371088 -1.65593 0
M  V30 7425 H 723.649 1.17674 -3.73187 0
M  V30 7426 H 723.272 2.6911 -2.92687 0
M  V30 7427 N 724.269 1.44576 0.627338 0
M  V30 7428 C 725.517 1.47267 1.38408 0
M  V30 7429 C 725.838 0.107971 1.94701 0
M  V30 7430 O 725.108 -0.860206 1.76004 0
M  V30 7431 H 723.688 0.542276 0.513756 0
M  V30 7432 H 726.35 1.80383 0.738099 0
M  V30 7433 H 725.446 2.20025 2.21349 0
M  V30 7434 N 725.747 -0.868086 1.31537 0
M  V30 7435 C 726.694 -1.97548 1.19346 0
M  V30 7436 C 727.664 -1.65913 0.0787922 0
M  V30 7437 O 728.849 -1.89129 0.251985 0
M  V30 7438 C 725.989 -3.32922 0.908692 0
M  V30 7439 C 725.102 -3.77141 2.10687 0
M  V30 7440 C 724.237 -5.01241 1.75873 0
M  V30 7441 C 723.276 -5.37914 2.92088 0
M  V30 7442 N 722.413 -6.53192 2.57457 0
M  V30 7443 H 727.253 -2.07307 2.14074 0
M  V30 7444 H 724.79 -1.01483 1.06487 0
M  V30 7445 H 726.748 -4.10867 0.724138 0
M  V30 7446 H 725.378 -3.228 -0.0017611 0
M  V30 7447 H 724.43 -2.94961 2.40213 0
M  V30 7448 H 725.742 -4.00248 2.97663 0
M  V30 7449 H 724.896 -5.86858 1.53891 0
M  V30 7450 H 723.635 -4.80041 0.86091 0
M  V30 7451 H 722.64 -4.50814 3.14717 0
M  V30 7452 H 723.865 -5.61077 3.82582 0
M  V30 7453 H 721.811 -6.33536 1.702 0
M  V30 7454 H 721.728 -6.76252 3.37963 0
M  V30 7455 H 722.996 -7.41997 2.38873 0
M  V30 7456 N 727.225 -1.14528 -1.08264 0
M  V30 7457 C 728.636 -0.925261 -1.6216 0
M  V30 7458 C 728.987 0.535587 -1.88748 0
M  V30 7459 O 728.112 1.4048 -1.64604 0
M  V30 7460 C 728.707 -1.67316 -2.94603 0
M  V30 7461 C 727.266 -1.49868 -3.45278 0
M  V30 7462 C 726.413 -1.69471 -2.19487 0
M  V30 7463 H 729.364 -1.29687 -0.914707 0
M  V30 7464 H 729.385 -1.13721 -3.63109 0
M  V30 7465 H 728.897 -2.73635 -2.75219 0
M  V30 7466 H 726.998 -0.459032 -3.69762 0
M  V30 7467 H 727.111 -2.2696 -4.21931 0
M  V30 7468 H 725.475 -1.12048 -2.2873 0
M  V30 7469 H 726.258 -2.77136 -2.0261 0
M  V30 7470 N 728.703 1.26451 -0.940633 0
M  V30 7471 C 729.633 2.28773 -0.467479 0
M  V30 7472 C 730.614 1.63218 0.478955 0
M  V30 7473 O 731.799 1.90427 0.380929 0
M  V30 7474 C 728.929 3.46259 0.268656 0
M  V30 7475 C 727.883 4.23898 -0.591171 0
M  V30 7476 C 727.209 5.33993 0.274891 0
M  V30 7477 C 728.509 4.87974 -1.86223 0
M  V30 7478 H 730.203 2.68601 -1.32265 0
M  V30 7479 H 727.749 1.29123 -0.637436 0
M  V30 7480 H 729.702 4.16951 0.610696 0
M  V30 7481 H 728.426 3.05383 1.15796 0
M  V30 7482 H 727.085 3.54969 -0.916098 0
M  V30 7483 H 726.733 4.89358 1.16353 0
M  V30 7484 H 726.433 5.86849 -0.297006 0
M  V30 7485 H 727.957 6.07523 0.612213 0
M  V30 7486 H 729.371 5.50883 -1.58747 0
M  V30 7487 H 727.768 5.50945 -2.37866 0
M  V30 7488 H 728.838 4.10945 -2.57394 0
M  V30 7489 N 730.181 0.707592 1.40822 0
M  V30 7490 C 731.111 0.0644925 2.33411 0
M  V30 7491 C 732.092 -0.754205 1.52466 0
M  V30 7492 O 733.277 -0.704749 1.80961 0
M  V30 7493 C 730.407 -0.863865 3.36385 0
M  V30 7494 C 729.361 -0.15138 4.27732 0
M  V30 7495 C 728.687 -1.19491 5.21177 0
M  V30 7496 C 729.987 0.989607 5.12839 0
M  V30 7497 H 731.681 0.837829 2.87438 0
M  V30 7498 H 729.227 0.404346 1.38207 0
M  V30 7499 H 731.18 -1.32309 4.0009 0
M  V30 7500 H 729.904 -1.66901 2.80734 0
M  V30 7501 H 728.563 0.287937 3.65467 0
M  V30 7502 H 728.211 -1.9929 4.61836 0
M  V30 7503 H 727.911 -0.723123 5.83134 0
M  V30 7504 H 729.435 -1.6544 5.8776 0
M  V30 7505 H 730.849 0.610114 5.70044 0
M  V30 7506 H 729.246 1.38926 5.83798 0
M  V30 7507 H 730.316 1.82389 4.49291 0
M  V30 7508 N 731.66 -1.50943 0.453197 0
M  V30 7509 C 733.071 -1.86699 -0.00619892 0
M  V30 7510 C 733.422 -1.3693 -1.40515 0
M  V30 7511 O 732.547 -0.726715 -2.03833 0
M  V30 7512 C 733.142 -3.38795 -0.018025 0
M  V30 7513 C 731.701 -3.74028 -0.421885 0
M  V30 7514 C 730.848 -2.74752 0.375087 0
M  V30 7515 H 733.799 -1.43942 0.668317 0
M  V30 7516 H 733.82 -3.71468 -0.824125 0
M  V30 7517 H 733.332 -3.74988 1.00028 0
M  V30 7518 H 731.433 -3.43431 -1.44521 0
M  V30 7519 H 731.546 -4.78908 -0.135664 0
M  V30 7520 H 729.91 -2.5414 -0.168794 0
M  V30 7521 H 730.693 -3.13787 1.39256 0
M  V30 7522 N 733.138 -0.185124 -1.56509 0
M  V30 7523 C 734.085 0.739729 -2.18624 0
M  V30 7524 C 735.055 1.217 -1.13042 0
M  V30 7525 O 736.24 1.28268 -1.41251 0
M  V30 7526 C 733.38 1.95787 -2.84186 0
M  V30 7527 C 732.493 1.52289 -4.04267 0
M  V30 7528 C 731.628 2.69576 -4.57714 0
M  V30 7529 C 730.667 2.22636 -5.70175 0
M  V30 7530 N 729.804 3.33065 -6.18071 0
M  V30 7531 H 734.644 0.203269 -2.97306 0
M  V30 7532 H 732.181 0.0885946 -1.46833 0
M  V30 7533 H 734.139 2.67253 -3.20361 0
M  V30 7534 H 732.769 2.4678 -2.08085 0
M  V30 7535 H 731.821 0.704458 -3.7382 0
M  V30 7536 H 733.133 1.13843 -4.85635 0
M  V30 7537 H 732.287 3.4918 -4.96143 0
M  V30 7538 H 731.026 3.1129 -3.75433 0
M  V30 7539 H 730.031 1.41483 -5.31284 0
M  V30 7540 H 731.256 1.81964 -6.54267 0
M  V30 7541 H 729.202 3.74328 -5.38715 0
M  V30 7542 H 729.119 2.98756 -6.94464 0
M  V30 7543 H 730.387 4.12912 -6.61153 0
M  V30 7544 N 734.616 1.57351 0.0885366 0
M  V30 7545 C 735.526 2.05858 1.12516 0
M  V30 7546 C 736.542 0.984758 1.43452 0
M  V30 7547 O 737.718 1.29836 1.53963 0
M  V30 7548 C 734.783 2.47882 2.42395 0
M  V30 7549 C 733.844 3.69487 2.18582 0
M  V30 7550 C 733.077 4.09497 3.42268 0
M  V30 7551 O 733.3 3.49536 4.50755 0
M  V30 7552 O 732.234 5.02406 3.31469 0
M  V30 7553 H 736.06 2.94467 0.743146 0
M  V30 7554 H 733.645 1.46326 0.301507 0
M  V30 7555 H 735.527 2.75509 3.18862 0
M  V30 7556 H 734.202 1.62408 2.8001 0
M  V30 7557 H 733.109 3.46967 1.39875 0
M  V30 7558 H 734.442 4.55761 1.85857 0
M  V30 7559 N 736.094 -0.359525 1.53444 0
M  V30 7560 C 737.319 -1.12644 1.74144 0
M  V30 7561 C 737.744 -1.82082 0.472007 0
M  V30 7562 O 737.102 -1.71962 -0.57436 0
M  V30 7563 C 737.15 -2.12781 2.9113 0
M  V30 7564 O 736.254 -3.19984 2.60162 0
M  V30 7565 H 735.595 -0.326553 0.578152 0
M  V30 7566 H 738.125 -0.414798 2.00351 0
M  V30 7567 H 738.135 -2.56278 3.17467 0
M  V30 7568 H 736.81 -1.61634 3.83207 0
M  V30 7569 H 735.387 -2.81417 2.44661 0
M  V30 7570 N 737.572 -1.44907 -0.619662 0
M  V30 7571 C 738.519 -1.52654 -1.73105 0
M  V30 7572 C 739.489 -0.373334 -1.6185 0
M  V30 7573 O 740.674 -0.585143 -1.81606 0
M  V30 7574 C 737.814 -1.48769 -3.11387 0
M  V30 7575 C 736.927 -2.74551 -3.33535 0
M  V30 7576 C 736.062 -2.62421 -4.61854 0
M  V30 7577 C 735.101 -3.83312 -4.77219 0
M  V30 7578 N 734.238 -3.69789 -5.96826 0
M  V30 7579 H 739.078 -2.47605 -1.65819 0
M  V30 7580 H 736.615 -1.22875 -0.808719 0
M  V30 7581 H 738.573 -1.44507 -3.91374 0
M  V30 7582 H 737.203 -0.573783 -3.1766 0
M  V30 7583 H 736.255 -2.88953 -2.47408 0
M  V30 7584 H 737.567 -3.64253 -3.40765 0
M  V30 7585 H 736.721 -2.56056 -5.50019 0
M  V30 7586 H 735.46 -1.70298 -4.57001 0
M  V30 7587 H 734.465 -3.90049 -3.87481 0
M  V30 7588 H 735.69 -4.76486 -4.83878 0
M  V30 7589 H 733.636 -2.80426 -5.93041 0
M  V30 7590 H 733.553 -4.53116 -6.05163 0
M  V30 7591 H 734.821 -3.67335 -6.87521 0
M  V30 7592 N 739.05 0.861098 -1.31996 0
M  V30 7593 C 739.96 2.00154 -1.22374 0
M  V30 7594 C 740.976 1.73447 -0.138631 0
M  V30 7595 O 742.152 1.98191 -0.358104 0
M  V30 7596 C 739.217 3.33696 -0.940645 0
M  V30 7597 C 738.278 3.73668 -2.11355 0
M  V30 7598 C 737.511 5.00837 -1.84386 0
M  V30 7599 O 737.734 5.64996 -0.783287 0
M  V30 7600 O 736.668 5.37787 -2.70313 0
M  V30 7601 H 740.494 2.11207 -2.18233 0
M  V30 7602 H 738.079 0.990768 -1.11822 0
M  V30 7603 H 739.961 4.13756 -0.798987 0
M  V30 7604 H 738.636 3.23698 -0.0121636 0
M  V30 7605 H 737.543 2.94211 -2.31065 0
M  V30 7606 H 738.876 3.88303 -3.02459 0
M  V30 7607 N 740.528 1.15101 1.07655 0
M  V30 7608 C 741.46 0.802722 2.14684 0
M  V30 7609 C 742.473 -0.183874 1.61758 0
M  V30 7610 O 743.662 0.0389349 1.78458 0
M  V30 7611 C 740.762 0.172135 3.38463 0
M  V30 7612 C 739.935 1.19538 4.20749 0
M  V30 7613 C 738.994 0.58714 5.22914 0
M  V30 7614 O 738.02 1.25224 5.55255 0
M  V30 7615 N 739.222 -0.632566 5.77043 0
M  V30 7616 H 741.987 1.72379 2.45164 0
M  V30 7617 H 739.548 1.04647 1.23534 0
M  V30 7618 H 741.54 -0.247465 4.03943 0
M  V30 7619 H 740.11 -0.652214 3.0572 0
M  V30 7620 H 739.33 1.79165 3.51132 0
M  V30 7621 H 740.618 1.88636 4.7254 0
M  V30 7622 H 740.016 -1.19135 5.53013 0
M  V30 7623 H 738.573 -0.994566 6.44167 0
M  V30 7624 N 742.006 -1.2595 0.947325 0
M  V30 7625 C 742.936 -2.28521 0.479604 0
M  V30 7626 C 743.917 -1.63469 -0.470293 0
M  V30 7627 O 745.102 -1.90627 -0.370824 0
M  V30 7628 C 742.232 -3.46397 -0.250289 0
M  V30 7629 C 741.186 -4.23578 0.613643 0
M  V30 7630 C 740.512 -5.34131 -0.246568 0
M  V30 7631 C 741.812 -4.86979 1.88809 0
M  V30 7632 H 743.506 -2.67895 1.33688 0
M  V30 7633 H 741.052 -1.28783 0.644274 0
M  V30 7634 H 743.005 -4.17269 -0.588576 0
M  V30 7635 H 741.729 -3.05993 -1.14175 0
M  V30 7636 H 740.388 -3.54478 0.93491 0
M  V30 7637 H 740.036 -4.89968 -1.13756 0
M  V30 7638 H 739.736 -5.86683 0.328123 0
M  V30 7639 H 741.26 -6.07839 -0.579986 0
M  V30 7640 H 742.674 -5.50034 1.61666 0
M  V30 7641 H 741.071 -5.49675 2.40784 0
M  V30 7642 H 742.141 -4.09575 2.5957 0
M  V30 7643 N 743.484 -0.715051 -1.40445 0
M  V30 7644 C 744.895 -0.326763 -1.83818 0
M  V30 7645 C 745.246 1.13851 -1.59789 0
M  V30 7646 O 744.371 1.87611 -1.07848 0
M  V30 7647 C 744.966 -0.586297 -3.33688 0
M  V30 7648 C 743.525 -0.251724 -3.75557 0
M  V30 7649 C 742.672 -0.858928 -2.63662 0
M  V30 7650 H 745.623 -0.914241 -1.2972 0
M  V30 7651 H 745.644 0.148636 -3.8021 0
M  V30 7652 H 745.156 -1.65281 -3.51146 0
M  V30 7653 H 743.257 0.809754 -3.63695 0
M  V30 7654 H 743.37 -0.720348 -4.73654 0
M  V30 7655 H 741.734 -0.287013 -2.53078 0
M  V30 7656 H 742.517 -1.9297 -2.83932 0
M  V30 7657 N 744.962 1.50701 -0.461195 0
M  V30 7658 C 746.373 1.867 -0.00370227 0
M  V30 7659 C 746.724 1.37673 1.39787 0
M  V30 7660 O 745.849 0.737515 2.03445 0
M  V30 7661 C 746.444 3.388 5.75786e-05 0
M  V30 7662 C 745.003 3.74247 0.402044 0
M  V30 7663 C 744.15 2.74549 -0.389652 0
M  V30 7664 H 747.101 1.43585 -0.675942 0
M  V30 7665 H 747.122 3.719 0.804414 0
M  V30 7666 H 746.634 3.74452 -1.02015 0
M  V30 7667 H 744.735 3.44192 1.42697 0
M  V30 7668 H 744.848 4.78973 0.110265 0
M  V30 7669 H 743.212 2.54226 0.155314 0
M  V30 7670 H 743.995 3.13044 -1.40919 0
M  V30 7671 N 746.441 0.193421 1.56409 0
M  V30 7672 C 747.374 -0.767384 2.1491 0
M  V30 7673 C 748.352 -1.21075 1.08534 0
M  V30 7674 O 749.536 -1.29856 1.36637 0
M  V30 7675 C 746.663 -2.03615 2.70663 0
M  V30 7676 C 745.709 -1.73505 3.89613 0
M  V30 7677 S 746.542 -0.884645 5.28142 0
M  V30 7678 C 747.698 -2.1636 5.87315 0
M  V30 7679 H 747.931 -0.270053 2.96071 0
M  V30 7680 H 745.464 -0.0215546 1.54385 0
M  V30 7681 H 747.422 -2.7648 3.03429 0
M  V30 7682 H 746.083 -2.50461 1.89547 0
M  V30 7683 H 745.276 -2.67701 4.27027 0
M  V30 7684 H 744.878 -1.08723 3.57848 0
M  V30 7685 H 747.17 -3.11629 6.01576 0
M  V30 7686 H 748.113 -1.8338 6.83943 0
M  V30 7687 H 748.521 -2.29129 5.15907 0
M  V30 7688 N 747.919 -1.57396 -0.0801906 0
M  V30 7689 C 749.144 -1.91437 -0.797909 0
M  V30 7690 C 749.569 -0.789075 -1.70749 0
M  V30 7691 O 748.927 0.25857 -1.79447 0
M  V30 7692 C 748.975 -3.24402 -1.57467 0
M  V30 7693 O 748.079 -3.13043 -2.68473 0
M  V30 7694 H 747.42 -0.627109 -0.218243 0
M  V30 7695 H 749.95 -2.04537 -0.050949 0
M  V30 7696 H 749.96 -3.58072 -1.95571 0
M  V30 7697 H 748.635 -4.05884 -0.907229 0
M  V30 7698 H 747.212 -2.90915 -2.33287 0
M  V30 7699 N 749.397 0.351382 -1.53633 0
M  V30 7700 C 750.307 1.45471 -1.84052 0
M  V30 7701 C 751.323 1.57945 -0.730015 0
M  V30 7702 O 752.499 1.73571 -1.02153 0
M  V30 7703 C 749.564 2.80562 -2.03681 0
M  V30 7704 C 748.625 2.77497 -3.27558 0
M  V30 7705 C 747.858 4.06144 -3.46241 0
M  V30 7706 O 748.081 5.03028 -2.68922 0
M  V30 7707 O 747.015 4.11092 -4.39645 0
M  V30 7708 H 750.841 1.22684 -2.77817 0
M  V30 7709 H 748.426 0.542827 -1.3919 0
M  V30 7710 H 750.308 3.6058 -2.18082 0
M  V30 7711 H 748.983 3.03296 -1.13106 0
M  V30 7712 H 747.89 1.96126 -3.18568 0
M  V30 7713 H 749.223 2.59716 -4.18101 0
M  V30 7714 N 750.875 1.45233 0.611969 0
M  V30 7715 C 752.152 1.39495 1.37115 0
M  V30 7716 C 752.532 0.0633303 2.11005 0
M  V30 7717 O 751.88 -0.954617 2.07604 0
M  V30 7718 C 752.09 2.60579 2.32163 0
M  V30 7719 C 753.438 3.05477 2.94905 0
M  V30 7720 O 754.462 2.60921 2.42485 0
M  V30 7721 O 753.321 3.82787 3.90047 0
M  V30 7722 H 750.415 0.55335 0.614599 0
M  V30 7723 H 752.961 1.57355 0.635423 0
M  V30 7724 H 751.733 3.49085 1.76793 0
M  V30 7725 H 751.356 2.45031 3.13122 0
M  V30 7726 N 752.353 -0.854086 1.3245 0
M  V30 7727 C 753.6 -1.60831 1.23043 0
M  V30 7728 C 753.928 -1.93389 -0.2076 0
M  V30 7729 O 753.183 -1.5756 -1.16075 0
M  V30 7730 C 753.482 -2.93746 2.03587 0
M  V30 7731 C 753.148 -2.80615 3.52939 0
M  V30 7732 C 751.81 -2.76742 3.93659 0
M  V30 7733 C 754.162 -2.66507 4.4791 0
M  V30 7734 C 751.49 -2.56638 5.27592 0
M  V30 7735 C 753.842 -2.47939 5.81987 0
M  V30 7736 C 752.506 -2.42458 6.21909 0
M  V30 7737 H 751.776 -0.588523 0.450247 0
M  V30 7738 H 754.423 -0.990699 1.63882 0
M  V30 7739 H 752.728 -3.5963 1.55478 0
M  V30 7740 H 754.425 -3.51127 1.93677 0
M  V30 7741 H 751.015 -2.84456 3.20598 0
M  V30 7742 H 755.199 -2.68544 4.1737 0
M  V30 7743 H 750.455 -2.50831 5.57579 0
M  V30 7744 H 754.629 -2.36002 6.55192 0
M  V30 7745 H 752.256 -2.2664 7.2563 0
M  V30 7746 N 753.831 -1.1567 -1.07043 0
M  V30 7747 C 754.761 -0.879348 -2.16309 0
M  V30 7748 C 755.742 0.171311 -1.69235 0
M  V30 7749 O 756.927 0.0250175 -1.94184 0
M  V30 7750 C 754.057 -0.371307 -3.45309 0
M  V30 7751 C 753.011 -1.359 -4.05851 0
M  V30 7752 C 752.337 -0.709678 -5.29969 0
M  V30 7753 C 753.637 -2.72606 -4.45514 0
M  V30 7754 H 755.331 -1.79308 -2.39768 0
M  V30 7755 H 752.877 -0.863558 -1.15233 0
M  V30 7756 H 754.83 -0.164798 -4.21078 0
M  V30 7757 H 753.554 0.577906 -3.21446 0
M  V30 7758 H 752.213 -1.55193 -3.32131 0
M  V30 7759 H 751.861 0.245782 -5.02399 0
M  V30 7760 H 751.561 -1.36886 -5.71433 0
M  V30 7761 H 753.085 -0.513015 -6.08441 0
M  V30 7762 H 754.499 -2.57141 -5.12398 0
M  V30 7763 H 752.896 -3.34927 -4.97939 0
M  V30 7764 H 753.966 -3.28434 -3.56734 0
M  V30 7765 N 755.309 1.25446 -0.953992 0
M  V30 7766 C 756.239 2.28264 -0.491717 0
M  V30 7767 C 757.22 1.63717 0.461617 0
M  V30 7768 O 758.405 1.90821 0.36071 0
M  V30 7769 C 755.535 3.46525 0.231915 0
M  V30 7770 C 754.489 4.23247 -0.636098 0
M  V30 7771 C 753.815 5.34254 0.218238 0
M  V30 7772 C 755.115 4.85971 -1.91389 0
M  V30 7773 H 756.809 2.67183 -1.35106 0
M  V30 7774 H 754.355 1.2844 -0.651095 0
M  V30 7775 H 756.308 4.17576 0.566439 0
M  V30 7776 H 755.032 3.06594 1.12551 0
M  V30 7777 H 753.691 3.53978 -0.953696 0
M  V30 7778 H 753.339 4.90564 1.11156 0
M  V30 7779 H 753.039 5.86501 -0.359232 0
M  V30 7780 H 754.563 6.08138 0.547743 0
M  V30 7781 H 755.977 5.49168 -1.64581 0
M  V30 7782 H 754.374 5.48391 -2.43696 0
M  V30 7783 H 755.444 4.08192 -2.61738 0
M  V30 7784 N 756.787 0.722489 1.40064 0
M  V30 7785 C 758.064 0.191829 1.94657 0
M  V30 7786 C 758.444 -1.30389 1.66018 0
M  V30 7787 O 757.792 -2.06342 0.981588 0
M  V30 7788 C 758.002 0.511978 3.45224 0
M  V30 7789 C 759.35 0.454426 4.22161 0
M  V30 7790 O 760.374 0.448438 3.53366 0
M  V30 7791 O 759.233 0.437986 5.44742 0
M  V30 7792 H 756.327 0.0307821 0.826427 0
M  V30 7793 H 758.873 0.800493 1.49634 0
M  V30 7794 H 757.645 1.54622 3.59455 0
M  V30 7795 H 757.268 -0.126296 3.97399 0
M  V30 7796 N 758.265 -1.50454 0.469181 0
M  V30 7797 C 759.228 -2.2703 -0.314643 0
M  V30 7798 C 760.228 -1.31734 -0.922111 0
M  V30 7799 O 761.418 -1.55176 -0.791588 0
M  V30 7800 C 758.55 -3.08616 -1.44806 0
M  V30 7801 H 759.743 -2.97769 0.356892 0
M  V30 7802 H 757.296 -1.54698 0.223191 0
M  V30 7803 H 758.031 -2.42369 -2.1547 0
M  V30 7804 H 757.816 -3.78647 -1.01829 0
M  V30 7805 H 759.306 -3.66536 -2.00103 0
M  V30 7806 N 759.743 -0.201713 -1.56304 0
M  V30 7807 C 760.673 0.71155 -2.22394 0
M  V30 7808 C 761.654 1.21625 -1.18917 0
M  V30 7809 O 762.839 1.26388 -1.47444 0
M  V30 7810 C 759.969 1.92837 -2.88845 0
M  V30 7811 C 758.923 1.55831 -3.98623 0
M  V30 7812 C 758.249 2.85228 -4.52271 0
M  V30 7813 C 759.549 0.763249 -5.16693 0
M  V30 7814 H 761.243 0.160573 -2.98969 0
M  V30 7815 H 758.789 0.0757916 -1.438 0
M  V30 7816 H 760.742 2.57253 -3.33764 0
M  V30 7817 H 759.466 2.50398 -2.09686 0
M  V30 7818 H 758.125 0.9377 -3.54405 0
M  V30 7819 H 757.773 3.40893 -3.69866 0
M  V30 7820 H 757.473 2.6121 -5.26349 0
M  V30 7821 H 758.997 3.50622 -4.99897 0
M  V30 7822 H 760.411 1.31066 -5.58117 0
M  V30 7823 H 758.808 0.620935 -5.96879 0
M  V30 7824 H 759.878 -0.234322 -4.84334 0
M  V30 7825 N 761.222 1.57436 0.0718424 0
M  V30 7826 C 762.447 1.91858 0.787745 0
M  V30 7827 C 762.872 0.798119 1.70328 0
M  V30 7828 O 762.23 -0.24905 1.79581 0
M  V30 7829 C 762.278 3.25232 1.55744 0
M  V30 7830 O 761.382 3.14462 2.6681 0
M  V30 7831 H 760.723 0.628258 0.214914 0
M  V30 7832 H 763.253 2.04561 0.0401012 0
M  V30 7833 H 763.263 3.59105 1.9367 0
M  V30 7834 H 761.938 4.0636 0.885691 0
M  V30 7835 H 760.515 2.92148 2.31741 0
M  V30 7836 N 762.7 -0.34323 1.53817 0
M  V30 7837 C 763.61 -1.44493 1.84821 0
M  V30 7838 C 764.626 -1.57556 0.738381 0
M  V30 7839 O 765.802 -1.73026 1.03072 0
M  V30 7840 C 762.867 -2.79478 2.05166 0
M  V30 7841 C 761.928 -2.75756 3.29025 0
M  V30 7842 C 761.161 -4.04302 3.4839 0
M  V30 7843 O 761.384 -5.01595 2.71586 0
M  V30 7844 O 760.318 -4.08754 4.41819 0
M  V30 7845 H 764.144 -1.21209 2.78464 0
M  V30 7846 H 761.729 -0.535437 1.39476 0
M  V30 7847 H 763.611 -3.59419 2.19991 0
M  V30 7848 H 762.286 -3.02692 1.14713 0
M  V30 7849 H 761.193 -1.94434 3.19603 0
M  V30 7850 H 762.526 -2.57495 4.19472 0
M  V30 7851 N 764.178 -1.45556 -0.604258 0
M  V30 7852 C 765.455 -1.40221 -1.36373 0
M  V30 7853 C 765.835 -0.0745195 -2.10968 0
M  V30 7854 O 765.183 0.943594 -2.08107 0
M  V30 7855 C 765.393 -2.61807 -2.30777 0
M  V30 7856 C 766.741 -3.07037 -2.93281 0
M  V30 7857 O 767.765 -2.62203 -2.41097 0
M  V30 7858 O 766.624 -3.8485 -3.88011 0
M  V30 7859 H 763.718 -0.556602 -0.611656 0
M  V30 7860 H 766.264 -1.57689 -0.627069 0
M  V30 7861 H 765.036 -3.50017 -1.74939 0
M  V30 7862 H 764.659 -2.46688 -3.11818 0
M  V30 7863 N 765.656 0.84705 -1.32902 0
M  V30 7864 C 766.903 1.60176 -1.23894 0
M  V30 7865 C 767.231 1.93496 0.197341 0
M  V30 7866 O 766.486 1.58173 1.15238 0
M  V30 7867 C 766.785 2.92663 -2.05142 0
M  V30 7868 C 766.451 2.7874 -3.54422 0
M  V30 7869 C 765.113 2.7465 -3.95121 0
M  V30 7870 C 767.465 2.64128 -4.49317 0
M  V30 7871 C 764.793 2.53837 -5.28946 0
M  V30 7872 C 767.145 2.44849 -5.83294 0
M  V30 7873 C 765.809 2.39156 -6.23186 0
M  V30 7874 H 765.079 0.586127 -0.453361 0
M  V30 7875 H 767.726 0.981994 -1.64405 0
M  V30 7876 H 766.031 3.588 -1.57383 0
M  V30 7877 H 767.728 3.50095 -1.95537 0
M  V30 7878 H 764.318 2.82751 -3.22102 0
M  V30 7879 H 768.502 2.66327 -4.18788 0
M  V30 7880 H 763.758 2.4787 -5.58901 0
M  V30 7881 H 767.932 2.32524 -6.56434 0
M  V30 7882 H 765.559 2.22789 -7.26821 0
M  V30 7883 N 767.134 1.16236 1.06428 0
M  V30 7884 C 768.359 0.967688 1.83441 0
M  V30 7885 C 768.784 -0.479167 1.81894 0
M  V30 7886 O 768.142 -1.34224 1.21875 0
M  V30 7887 C 768.19 1.49806 3.2801 0
M  V30 7888 O 767.294 0.703481 4.06356 0
M  V30 7889 H 766.635 0.344468 0.56766 0
M  V30 7890 H 769.165 1.54442 1.34197 0
M  V30 7891 H 769.175 1.51495 3.78831 0
M  V30 7892 H 767.85 2.55133 3.2845 0
M  V30 7893 H 766.427 0.756986 3.65136 0
M  V30 7894 N 768.612 -1.24939 0.960631 0
M  V30 7895 C 769.86 -1.92437 0.617441 0
M  V30 7896 C 770.181 -1.75543 -0.849101 0
M  V30 7897 O 769.451 -1.12269 -1.60538 0
M  V30 7898 H 768.031 -0.712192 0.225371 0
M  V30 7899 H 770.693 -1.5198 1.22017 0
M  V30 7900 H 769.789 -3.00247 0.851933 0
M  V30 7901 N 770.09 -0.729906 -1.39679 0
M  V30 7902 C 771.501 -0.346241 -1.83461 0
M  V30 7903 C 771.852 1.1215 -1.60987 0
M  V30 7904 O 770.977 1.86456 -1.09832 0
M  V30 7905 C 771.572 -0.621656 -3.33048 0
M  V30 7906 C 770.131 -0.291543 -3.75269 0
M  V30 7907 C 769.278 -0.886844 -2.62736 0
M  V30 7908 H 772.229 -0.927949 -1.28743 0
M  V30 7909 H 772.25 0.108301 -3.80346 0
M  V30 7910 H 771.762 -1.68996 -3.49373 0
M  V30 7911 H 769.863 0.771133 -3.64533 0
M  V30 7912 H 769.976 -0.770544 -4.72863 0
M  V30 7913 H 768.34 -0.313839 -2.52759 0
M  V30 7914 H 769.123 -1.95971 -2.81869 0
M  V30 7915 N 771.568 1.50203 -0.477153 0
M  V30 7916 C 772.5 2.26508 0.350239 0
M  V30 7917 C 773.513 1.32081 0.95176 0
M  V30 7918 O 774.702 1.57546 0.839139 0
M  V30 7919 C 771.802 3.0361 1.50579 0
M  V30 7920 C 770.975 4.25438 1.01595 0
M  V30 7921 C 770.034 4.84783 2.04626 0
M  V30 7922 O 769.06 5.45528 1.62442 0
M  V30 7923 N 770.262 4.72318 3.37485 0
M  V30 7924 H 773.027 2.98155 -0.30394 0
M  V30 7925 H 770.588 1.58938 -0.308289 0
M  V30 7926 H 772.58 3.4019 2.1921 0
M  V30 7927 H 771.15 2.34724 2.06455 0
M  V30 7928 H 770.37 3.93894 0.155316 0
M  V30 7929 H 771.658 5.04413 0.666694 0
M  V30 7930 H 771.056 4.24022 3.74462 0
M  V30 7931 H 769.613 5.13149 4.01897 0
M  V30 7932 N 773.046 0.209999 1.56195 0
M  V30 7933 C 773.994 -0.721416 2.2113 0
M  V30 7934 C 774.988 -1.20852 1.18706 0
M  V30 7935 O 776.194 -1.16968 1.36815 0
M  V30 7936 H 772.569 -0.251033 0.708863 0
M  V30 7937 H 774.54 -0.150193 2.98022 0
M  V30 7938 C 773.289 -1.92392 2.89621 0
M  V30 7939 H 772.612 -1.5582 3.68185 0
M  V30 7940 H 774.052 -2.55367 3.38473 0
M  V30 7941 C 772.511 -2.77208 1.91461 0
M  V30 7942 O 773.041 -3.75603 1.42426 0
M  V30 7943 N 771.247 -2.43006 1.59363 0
M  V30 7944 H 770.794 -1.63047 1.99433 0
M  V30 7945 H 770.752 -3.00036 0.939449 0
M  V30 7946 N 774.524 -1.57472 -0.0634922 0
M  V30 7947 C 775.487 -2.03268 -1.059 0
M  V30 7948 C 776.487 -0.931028 -1.31105 0
M  V30 7949 O 777.677 -1.19567 -1.26686 0
M  V30 7950 C 774.809 -2.42039 -2.40062 0
M  V30 7951 H 776.002 -2.92454 -0.664119 0
M  V30 7952 H 773.555 -1.53206 -0.309444 0
M  V30 7953 H 774.29 -1.55904 -2.84367 0
M  V30 7954 H 774.075 -3.22437 -2.23108 0
M  V30 7955 H 775.565 -2.78017 -3.11603 0
M  V30 7956 N 776.003 0.335068 -1.53997 0
M  V30 7957 C 777.228 1.09859 -1.75914 0
M  V30 7958 C 777.653 1.81308 -0.500915 0
M  V30 7959 O 777.011 1.72854 0.54693 0
M  V30 7960 C 777.059 2.08122 -2.94478 0
M  V30 7961 O 776.163 3.15805 -2.65219 0
M  V30 7962 H 775.504 0.317313 -0.583274 0
M  V30 7963 H 778.034 0.382872 -2.00986 0
M  V30 7964 H 778.044 2.51195 -3.21504 0
M  V30 7965 H 776.719 1.55517 -3.8573 0
M  V30 7966 H 775.296 2.77489 -2.49107 0
M  V30 7967 N 777.481 1.45874 0.596531 0
M  V30 7968 C 778.706 1.54247 1.38646 0
M  V30 7969 C 779.131 0.179571 1.87241 0
M  V30 7970 O 778.489 -0.837831 1.6078 0
M  V30 7971 C 778.537 2.54015 2.55946 0
M  V30 7972 O 777.641 2.06561 3.5694 0
M  V30 7973 H 776.982 0.519555 0.413471 0
M  V30 7974 H 779.512 1.91327 0.724936 0
M  V30 7975 H 779.522 2.73179 3.03047 0
M  V30 7976 H 778.197 3.52994 2.19928 0
M  V30 7977 H 776.774 1.97324 3.16414 0
M  V30 7978 N 778.959 -0.83999 1.33349 0
M  V30 7979 C 779.889 -1.965 1.26135 0
M  V30 7980 C 780.87 -1.69505 0.142152 0
M  V30 7981 O 782.055 -1.91346 0.331743 0
M  V30 7982 C 779.185 -3.32632 0.99866 0
M  V30 7983 C 778.139 -3.74021 2.08068 0
M  V30 7984 C 777.465 -5.07947 1.67014 0
M  V30 7985 C 778.765 -3.87925 3.49731 0
M  V30 7986 H 780.459 -2.02793 2.20262 0
M  V30 7987 H 778.005 -0.974297 1.06035 0
M  V30 7988 H 779.958 -4.10903 0.934696 0
M  V30 7989 H 778.682 -3.26593 0.0217759 0
M  V30 7990 H 777.341 -2.98012 2.13505 0
M  V30 7991 H 776.989 -4.98378 0.680316 0
M  V30 7992 H 776.689 -5.36611 2.39422 0
M  V30 7993 H 778.213 -5.88695 1.62082 0
M  V30 7994 H 779.627 -4.5651 3.46802 0
M  V30 7995 H 778.024 -4.28023 4.20614 0
M  V30 7996 H 779.094 -2.90407 3.88319 0
M  V30 7997 N 780.437 -1.16799 -1.0581 0
M  V30 7998 C 781.384 -0.87902 -2.13405 0
M  V30 7999 C 782.354 0.174541 -1.6518 0
M  V30 8000 O 783.539 0.0386843 -1.90761 0
M  V30 8001 C 780.679 -0.391616 -3.42871 0
M  V30 8002 C 779.792 -1.50857 -4.04804 0
M  V30 8003 C 778.927 -0.975682 -5.22163 0
M  V30 8004 C 777.966 -2.06851 -5.76089 0
M  V30 8005 N 777.103 -1.55085 -6.84758 0
M  V30 8006 H 781.943 -1.80043 -2.37463 0
M  V30 8007 H 779.48 -0.898083 -1.16503 0
M  V30 8008 H 781.438 -0.0906247 -4.17102 0
M  V30 8009 H 780.068 0.49284 -3.19016 0
M  V30 8010 H 779.12 -1.92542 -3.28073 0
M  V30 8011 H 780.432 -2.33305 -4.40874 0
M  V30 8012 H 779.586 -0.628165 -6.03439 0
M  V30 8013 H 778.325 -0.120566 -4.87551 0
M  V30 8014 H 777.33 -2.42467 -4.93447 0
M  V30 8015 H 778.555 -2.92768 -6.12751 0
M  V30 8016 H 776.501 -0.718345 -6.52055 0
M  V30 8017 H 776.418 -2.31145 -7.19797 0
M  V30 8018 H 777.686 -1.23206 -7.69702 0
M  V30 8019 N 781.915 1.24427 -0.967243 0
M  V30 8020 C 783.162 1.92487 -0.62888 0
M  V30 8021 C 783.49 1.75623 0.835871 0
M  V30 8022 O 782.745 1.1027 1.61675 0
M  V30 8023 C 783.044 3.44568 -0.949096 0
M  V30 8024 C 782.71 3.816 -2.40192 0
M  V30 8025 C 781.372 3.9142 -2.799 0
M  V30 8026 C 783.724 3.99715 -3.34481 0
M  V30 8027 C 781.052 4.16771 -4.12939 0
M  V30 8028 C 783.404 4.26562 -4.67148 0
M  V30 8029 C 782.068 4.34601 -5.06634 0
M  V30 8030 H 781.338 0.704361 -0.230124 0
M  V30 8031 H 783.985 1.4772 -1.21864 0
M  V30 8032 H 782.29 3.90819 -0.277085 0
M  V30 8033 H 783.987 3.95436 -0.665692 0
M  V30 8034 H 780.577 3.74522 -2.08402 0
M  V30 8035 H 784.761 3.91531 -3.04987 0
M  V30 8036 H 780.017 4.21214 -4.43158 0
M  V30 8037 H 784.191 4.39523 -5.40178 0
M  V30 8038 H 781.818 4.53998 -6.09746 0
M  V30 8039 N 783.393 0.737304 1.3929 0
M  V30 8040 C 784.303 0.100464 2.34385 0
M  V30 8041 C 785.319 -0.719282 1.58437 0
M  V30 8042 O 786.495 -0.647216 1.90717 0
M  V30 8043 C 783.56 -0.794325 3.37478 0
M  V30 8044 C 782.621 0.0379345 4.29283 0
M  V30 8045 C 781.854 -0.814241 5.27452 0
M  V30 8046 O 782.077 -2.05288 5.32177 0
M  V30 8047 O 781.011 -0.241679 6.01415 0
M  V30 8048 H 784.837 0.885407 2.90507 0
M  V30 8049 H 782.422 0.497999 1.40856 0
M  V30 8050 H 784.304 -1.30622 4.00644 0
M  V30 8051 H 782.979 -1.55804 2.83737 0
M  V30 8052 H 781.886 0.595405 3.69331 0
M  V30 8053 H 783.219 0.763926 4.86236 0
M  V30 8054 N 784.871 -1.49948 0.485112 0
M  V30 8055 C 786.148 -1.95186 -0.12726 0
M  V30 8056 C 786.528 -1.42605 -1.5565 0
M  V30 8057 O 785.876 -0.632986 -2.19558 0
M  V30 8058 C 786.086 -3.48955 -0.0562117 0
M  V30 8059 C 787.434 -4.23932 -0.238106 0
M  V30 8060 O 788.458 -3.55955 -0.132145 0
M  V30 8061 O 787.317 -5.44614 -0.453658 0
M  V30 8062 H 784.411 -0.820433 -0.104014 0
M  V30 8063 H 786.957 -1.60659 0.546517 0
M  V30 8064 H 785.729 -3.79814 0.941122 0
M  V30 8065 H 785.352 -3.90056 -0.770834 0
M  V30 8066 N 786.349 -0.21828 -1.56081 0
M  V30 8067 C 787.312 0.679633 -2.18892 0
M  V30 8068 C 788.312 1.12405 -1.14986 0
M  V30 8069 O 789.502 1.03339 -1.40238 0
M  V30 8070 C 786.634 1.93063 -2.80962 0
M  V30 8071 H 787.827 0.132066 -2.99609 0
M  V30 8072 H 785.38 0.0313374 -1.56269 0
M  V30 8073 H 786.115 2.52015 -2.04106 0
M  V30 8074 H 785.9 1.62046 -3.57048 0
M  V30 8075 H 787.39 2.57043 -3.29118 0
M  V30 8076 N 787.827 1.57504 0.0551401 0
M  V30 8077 C 788.774 2.04825 1.06373 0
M  V30 8078 C 789.744 0.932108 1.37481 0
M  V30 8079 O 790.929 1.20093 1.48265 0
M  V30 8080 C 788.069 2.51091 2.36743 0
M  V30 8081 C 787.182 3.76392 2.12021 0
M  V30 8082 C 786.317 4.11373 3.36074 0
M  V30 8083 C 785.356 5.29666 3.0679 0
M  V30 8084 N 784.493 5.60205 4.2322 0
M  V30 8085 H 789.333 2.90753 0.653216 0
M  V30 8086 H 786.87 1.43776 0.310951 0
M  V30 8087 H 788.828 2.75973 3.12881 0
M  V30 8088 H 787.458 1.68118 2.75565 0
M  V30 8089 H 786.51 3.58751 1.26498 0
M  V30 8090 H 787.822 4.62662 1.86401 0
M  V30 8091 H 786.976 4.37245 4.20597 0
M  V30 8092 H 785.715 3.23704 3.64784 0
M  V30 8093 H 784.72 5.03574 2.20664 0
M  V30 8094 H 785.945 6.18968 2.79385 0
M  V30 8095 H 783.891 4.75495 4.5193 0
M  V30 8096 H 783.808 6.40928 4.00933 0
M  V30 8097 H 785.076 5.90637 5.08692 0
M  V30 8098 N 789.305 -0.326896 1.54172 0
M  V30 8099 C 790.235 -1.40741 1.86317 0
M  V30 8100 C 791.216 -1.54125 0.719684 0
M  V30 8101 O 792.401 -1.6806 0.973117 0
M  V30 8102 C 789.531 -2.77557 2.08757 0
M  V30 8103 C 788.485 -2.78965 3.24596 0
M  V30 8104 C 787.811 -4.18824 3.32401 0
M  V30 8105 C 789.111 -2.4301 4.62324 0
M  V30 8106 H 790.805 -1.14088 2.76811 0
M  V30 8107 H 788.351 -0.547389 1.3319 0
M  V30 8108 H 790.304 -3.53209 2.29829 0
M  V30 8109 H 789.028 -3.0568 1.15009 0
M  V30 8110 H 787.687 -2.05767 3.03406 0
M  V30 8111 H 787.335 -4.44083 2.36218 0
M  V30 8112 H 787.035 -4.20673 4.10253 0
M  V30 8113 H 788.559 -4.96294 3.55703 0
M  V30 8114 H 789.973 -3.08375 4.83299 0
M  V30 8115 H 788.37 -2.56116 5.42701 0
M  V30 8116 H 789.44 -1.38165 4.64799 0
M  V30 8117 N 790.784 -1.46188 -0.588786 0
M  V30 8118 C 791.747 -1.55882 -1.68029 0
M  V30 8119 C 792.747 -0.436515 -1.54762 0
M  V30 8120 O 793.937 -0.700626 -1.59489 0
M  V30 8121 C 791.069 -1.47332 -3.07418 0
M  V30 8122 H 792.262 -2.5315 -1.60795 0
M  V30 8123 H 789.815 -1.33908 -0.806116 0
M  V30 8124 H 790.55 -0.513193 -3.20214 0
M  V30 8125 H 790.335 -2.28753 -3.18456 0
M  V30 8126 H 791.825 -1.57187 -3.86887 0
M  V30 8127 N 792.262 0.832906 -1.33792 0
M  V30 8128 C 793.225 1.92471 -1.24449 0
M  V30 8129 C 794.225 1.59981 -0.162085 0
M  V30 8130 O 795.415 1.69208 -0.414029 0
M  V30 8131 C 792.547 3.28278 -0.919044 0
M  V30 8132 H 793.74 2.0218 -2.21502 0
M  V30 8133 H 791.293 1.0257 -1.17936 0
M  V30 8134 H 792.028 3.24263 0.048738 0
M  V30 8135 H 791.813 3.53241 -1.70187 0
M  V30 8136 H 793.303 4.08253 -0.878576 0
M  V30 8137 N 793.74 1.17359 1.05189 0
M  V30 8138 C 794.703 0.892604 2.11105 0
M  V30 8139 C 795.703 -0.117236 1.60372 0
M  V30 8140 O 796.893 0.114936 1.7382 0
M  V30 8141 C 794.025 0.337032 3.3923 0
M  V30 8142 H 795.218 1.83169 2.37464 0
M  V30 8143 H 792.771 0.984051 1.21434 0
M  V30 8144 H 793.506 -0.609198 3.18527 0
M  V30 8145 H 793.291 1.06484 3.77364 0
M  V30 8146 H 794.781 0.158763 4.17298 0
M  V30 8147 N 795.218 -1.23913 0.973828 0
M  V30 8148 C 796.467 -1.91455 0.63464 0
M  V30 8149 C 796.78 -1.76893 -0.834759 0
M  V30 8150 O 797.986 -2.3918 -1.28473 0
M  V30 8151 C 796.442 -3.43172 1.08447 0
M  V30 8152 C 796.05 -3.66409 2.57776 0
M  V30 8153 C 797.794 -4.1653 0.818721 0
M  V30 8154 C 795.701 -5.11728 2.9646 0
M  V30 8155 H 794.631 -0.716881 0.233661 0
M  V30 8156 H 797.282 -1.40457 1.18085 0
M  V30 8157 H 795.664 -3.93242 0.466524 0
M  V30 8158 H 796.838 -3.26913 3.24753 0
M  V30 8159 H 795.153 -3.06349 2.82027 0
M  V30 8160 H 797.75 -5.23603 1.08367 0
M  V30 8161 H 798.093 -4.15578 -0.245128 0
M  V30 8162 H 798.626 -3.72428 1.39793 0
M  V30 8163 H 795.365 -5.17806 4.01941 0
M  V30 8164 H 794.885 -5.52199 2.34172 0
M  V30 8165 H 796.564 -5.80009 2.86703 0
M  V30 8166 N 796.696 -0.74468 -1.38897 0
M  V30 8167 C 797.921 -0.306119 -2.05128 0
M  V30 8168 C 798.346 1.0541 -1.55789 0
M  V30 8169 O 797.704 1.66993 -0.705909 0
M  V30 8170 C 797.752 -0.328195 -3.59103 0
M  V30 8171 O 796.856 0.680876 -4.06741 0
M  V30 8172 H 796.197 -0.137209 -0.649669 0
M  V30 8173 H 798.727 -1.01331 -1.77745 0
M  V30 8174 H 798.737 -0.175956 -4.0762 0
M  V30 8175 H 797.412 -1.32067 -3.94374 0
M  V30 8176 H 795.989 0.49398 -3.69614 0
M  V30 8177 N 798.174 1.49689 -0.493057 0
M  V30 8178 C 799.084 2.32746 0.294358 0
M  V30 8179 C 800.1 1.44117 0.975003 0
M  V30 8180 O 801.276 1.77149 0.958138 0
M  V30 8181 C 798.341 3.19358 1.34949 0
M  V30 8182 C 797.402 4.2383 0.683122 0
M  V30 8183 C 796.635 5.06303 1.68798 0
M  V30 8184 O 796.858 4.90172 2.91698 0
M  V30 8185 O 795.792 5.88826 1.24768 0
M  V30 8186 H 799.618 3.01247 -0.385254 0
M  V30 8187 H 797.203 1.47216 -0.254519 0
M  V30 8188 H 799.085 3.73037 1.96014 0
M  V30 8189 H 797.76 2.53561 2.01217 0
M  V30 8190 H 796.667 3.74086 0.0329351 0
M  V30 8191 H 798 4.9216 0.0630192 0
M  V30 8192 N 799.652 0.226554 1.55963 0
M  V30 8193 C 800.898 -0.404387 1.98727 0
M  V30 8194 C 801.231 -1.59059 1.11418 0
M  V30 8195 O 800.506 -1.93729 0.172971 0
M  V30 8196 C 800.789 -0.834081 3.50307 0
M  V30 8197 C 800.642 0.356104 4.48388 0
M  V30 8198 C 801.961 -1.68845 4.06423 0
M  V30 8199 H 799.08 -0.145515 0.722492 0
M  V30 8200 H 801.722 0.323791 1.87221 0
M  V30 8201 H 799.872 -1.45454 3.60244 0
M  V30 8202 H 801.544 0.99432 4.50456 0
M  V30 8203 H 799.787 1.0027 4.22053 0
M  V30 8204 H 800.458 0.0124333 5.51999 0
M  V30 8205 H 802.934 -1.16489 3.99461 0
M  V30 8206 H 801.81 -1.958 5.1279 0
M  V30 8207 H 802.071 -2.65347 3.53615 0
M  V30 8208 N 801.13 -1.57531 -0.0467866 0
M  V30 8209 C 802.376 -1.8873 -0.742218 0
M  V30 8210 C 802.709 -0.822084 -1.75941 0
M  V30 8211 O 801.984 0.164922 -1.938 0
M  V30 8212 C 802.267 -3.30586 -1.42776 0
M  V30 8213 C 802.12 -4.47785 -0.425285 0
M  V30 8214 C 803.439 -3.71068 -2.36636 0
M  V30 8215 H 800.558 -0.686406 -0.268359 0
M  V30 8216 H 803.2 -1.89999 -0.00511341 0
M  V30 8217 H 801.35 -3.29634 -2.05605 0
M  V30 8218 H 803.022 -4.60867 0.199721 0
M  V30 8219 H 801.265 -4.33037 0.25713 0
M  V30 8220 H 801.936 -5.43884 -0.943086 0
M  V30 8221 H 804.412 -3.73273 -1.83866 0
M  V30 8222 H 803.288 -4.71165 -2.81593 0
M  V30 8223 H 803.549 -3.02355 -3.22542 0
M  V30 8224 N 802.608 0.318715 -1.54344 0
M  V30 8225 C 803.833 1.07987 -1.77069 0
M  V30 8226 C 804.258 1.80766 -0.520117 0
M  V30 8227 O 803.616 1.73424 0.528566 0
M  V30 8228 C 803.664 2.04987 -2.96669 0
M  V30 8229 O 802.768 3.12974 -2.68554 0
M  V30 8230 H 802.109 0.311109 -0.586606 0
M  V30 8231 H 804.639 0.361533 -2.0138 0
M  V30 8232 H 804.649 2.47771 -3.2415 0
M  V30 8233 H 803.324 1.51417 -3.87357 0
M  V30 8234 H 801.901 2.74831 -2.52037 0
M  V30 8235 N 804.086 1.46499 0.581025 0
M  V30 8236 C 805.018 1.53225 1.70455 0
M  V30 8237 C 806.031 0.420443 1.57277 0
M  V30 8238 O 807.22 0.688888 1.64671 0
M  V30 8239 C 804.32 1.39803 3.08721 0
M  V30 8240 C 803.493 2.65132 3.47884 0
M  V30 8241 C 802.552 2.45886 4.65217 0
M  V30 8242 O 801.578 3.19615 4.70993 0
M  V30 8243 N 802.78 1.5216 5.60203 0
M  V30 8244 H 805.545 2.50098 1.65139 0
M  V30 8245 H 803.106 1.42576 0.76705 0
M  V30 8246 H 805.098 1.24697 3.8501 0
M  V30 8247 H 803.668 0.51104 3.08394 0
M  V30 8248 H 802.888 2.95169 2.61284 0
M  V30 8249 H 804.176 3.48385 3.70817 0
M  V30 8250 H 803.574 0.913646 5.58273 0
M  V30 8251 H 802.131 1.43017 6.35916 0
M  V30 8252 N 805.565 -0.825799 1.34232 0
M  V30 8253 C 806.793 -1.61363 1.29497 0
M  V30 8254 C 807.208 -1.88341 -0.131536 0
M  V30 8255 O 806.565 -1.47279 -1.07773 0
M  V30 8256 C 806.616 -2.95623 2.08061 0
M  V30 8257 O 806.337 -2.69824 3.45147 0
M  V30 8258 C 807.838 -3.90032 2.10688 0
M  V30 8259 H 805.058 -0.501676 0.445603 0
M  V30 8260 H 807.602 -1.02767 1.76803 0
M  V30 8261 H 805.757 -3.50785 1.64404 0
M  V30 8262 H 806.171 -3.55412 3.85723 0
M  V30 8263 H 807.645 -4.81411 2.70087 0
M  V30 8264 H 808.122 -4.25188 1.10052 0
M  V30 8265 H 808.728 -3.40807 2.54422 0
M  V30 8266 N 807.043 -1.17915 -1.04565 0
M  V30 8267 C 808.454 -0.976383 -1.59134 0
M  V30 8268 C 808.805 0.475267 -1.90357 0
M  V30 8269 O 807.93 1.35172 -1.6899 0
M  V30 8270 C 808.525 -1.76604 -2.89131 0
M  V30 8271 C 807.084 -1.60777 -3.40335 0
M  V30 8272 C 806.231 -1.76369 -2.13985 0
M  V30 8273 H 809.182 -1.32532 -0.872985 0
M  V30 8274 H 809.203 -1.25215 -3.59307 0
M  V30 8275 H 808.715 -2.82252 -2.66375 0
M  V30 8276 H 806.816 -0.576436 -3.68114 0
M  V30 8277 H 806.929 -2.40268 -4.14497 0
M  V30 8278 H 805.293 -1.19268 -2.25049 0
M  V30 8279 H 806.076 -2.83441 -1.9369 0
M  V30 8280 N 808.521 1.23394 -0.980386 0
M  V30 8281 C 809.484 2.23092 -0.525619 0
M  V30 8282 C 810.484 1.56129 0.384745 0
M  V30 8283 O 811.674 1.73284 0.178439 0
M  V30 8284 C 808.806 3.40074 0.23712 0
M  V30 8285 H 809.999 2.64839 -1.40714 0
M  V30 8286 H 807.552 1.36227 -0.766275 0
M  V30 8287 H 808.287 3.03783 1.13518 0
M  V30 8288 H 808.072 3.89883 -0.416356 0
M  V30 8289 H 809.562 4.14043 0.543892 0
M  V30 8290 N 809.999 0.752036 1.385 0
M  V30 8291 C 811.224 0.316993 2.04963 0
M  V30 8292 C 811.649 -1.04582 1.56346 0
M  V30 8293 O 811.007 -1.66616 0.714755 0
M  V30 8294 C 811.055 0.347235 3.58924 0
M  V30 8295 O 810.159 -0.659296 4.07096 0
M  V30 8296 H 809.5 0.140652 0.648932 0
M  V30 8297 H 812.03 1.02272 1.77205 0
M  V30 8298 H 812.04 0.19757 4.07521 0
M  V30 8299 H 810.715 1.34157 3.93668 0
M  V30 8300 H 809.292 -0.474371 3.6987 0
M  V30 8301 N 811.477 -1.49425 0.500989 0
M  V30 8302 C 812.705 -2.06861 -0.0403443 0
M  V30 8303 C 813.12 -1.36132 -1.30819 0
M  V30 8304 O 812.477 -0.439647 -1.77125 0
M  V30 8305 C 812.528 -3.6027 -0.297902 0
M  V30 8306 O 812.249 -4.28338 0.919686 0
M  V30 8307 C 813.75 -4.34419 -0.882876 0
M  V30 8308 H 810.97 -0.670688 0.0204619 0
M  V30 8309 H 813.514 -1.92207 0.698342 0
M  V30 8310 H 811.669 -3.74627 -0.98657 0
M  V30 8311 H 812.083 -5.2004 0.682528 0
M  V30 8312 H 813.557 -5.42631 -1.01268 0
M  V30 8313 H 814.034 -3.96898 -1.88066 0
M  V30 8314 H 814.64 -4.24669 -0.231677 0
M  V30 8315 N 812.955 -0.234822 -1.55841 0
M  V30 8316 C 814.183 0.397745 -2.03041 0
M  V30 8317 C 814.598 1.52405 -1.11437 0
M  V30 8318 O 813.955 1.82061 -0.126466 0
M  V30 8319 C 814.006 0.916919 -3.49678 0
M  V30 8320 O 813.727 -0.164493 -4.37791 0
M  V30 8321 C 815.228 1.62139 -4.12584 0
M  V30 8322 H 812.448 0.0959214 -0.664108 0
M  V30 8323 H 814.992 -0.355156 -2.01392 0
M  V30 8324 H 813.147 1.62004 -3.519 0
M  V30 8325 H 813.561 0.227794 -5.24005 0
M  V30 8326 H 815.035 1.93651 -5.16917 0
M  V30 8327 H 815.512 2.53918 -3.58361 0
M  V30 8328 H 816.118 0.963145 -4.14251 0
M  V30 8329 N 814.433 1.57553 0.0384317 0
M  V30 8330 C 815.365 2.02726 1.06934 0
M  V30 8331 C 816.378 0.938502 1.33026 0
M  V30 8332 O 817.567 1.21595 1.30678 0
M  V30 8333 C 814.667 2.37958 2.41308 0
M  V30 8334 C 813.84 3.69098 2.34703 0
M  V30 8335 C 812.899 3.91623 3.51451 0
M  V30 8336 O 811.925 4.628 3.31368 0
M  V30 8337 N 813.127 3.36538 4.72993 0
M  V30 8338 H 815.892 2.91781 0.684381 0
M  V30 8339 H 813.453 1.60307 0.226542 0
M  V30 8340 H 815.445 2.50172 3.18113 0
M  V30 8341 H 814.015 1.54621 2.71682 0
M  V30 8342 H 813.235 3.67325 1.43059 0
M  V30 8343 H 814.523 4.55144 2.27424 0
M  V30 8344 H 813.921 2.78828 4.92211 0
M  V30 8345 H 812.478 3.54148 5.47195 0
M  V30 8346 N 815.911 -0.310526 1.54511 0
M  V30 8347 C 816.874 -1.3657 1.84068 0
M  V30 8348 C 817.874 -1.44123 0.713097 0
M  V30 8349 O 819.064 -1.43924 0.981399 0
M  V30 8350 C 816.196 -2.75162 2.01243 0
M  V30 8351 H 817.389 -1.1161 2.78358 0
M  V30 8352 H 814.942 -0.546699 1.46427 0
M  V30 8353 H 815.677 -3.05359 1.09208 0
M  V30 8354 H 815.462 -2.71071 2.83307 0
M  V30 8355 H 816.952 -3.51473 2.25514 0
M  V30 8356 N 817.389 -1.46805 -0.573248 0
M  V30 8357 C 818.637 -1.52302 -1.32847 0
M  V30 8358 C 818.958 -0.180159 -1.94166 0
M  V30 8359 O 818.228 0.794291 -1.79075 0
M  V30 8360 H 816.808 -0.56097 -0.493276 0
M  V30 8361 H 819.47 -1.82998 -0.670642 0
M  V30 8362 H 818.566 -2.28089 -2.13031 0
M  V30 8363 N 818.867 0.818669 -1.34668 0
M  V30 8364 C 819.83 1.9114 -1.26483 0
M  V30 8365 C 820.83 1.598 -0.179044 0
M  V30 8366 O 822.02 1.6876 -0.431952 0
M  V30 8367 C 819.152 3.27285 -0.95381 0
M  V30 8368 H 820.345 1.9982 -2.23634 0
M  V30 8369 H 817.898 1.01314 -1.19018 0
M  V30 8370 H 818.633 3.24297 0.0143428 0
M  V30 8371 H 818.418 3.51416 -1.73924 0
M  V30 8372 H 819.908 4.07299 -0.921827 0
M  V30 8373 N 820.346 1.18468 1.03938 0
M  V30 8374 C 821.757 0.984808 1.58614 0
M  V30 8375 C 822.108 -0.465165 1.90606 0
M  V30 8376 O 821.233 -1.34274 1.69704 0
M  V30 8377 C 821.828 1.78135 2.8819 0
M  V30 8378 C 820.387 1.62579 3.39478 0
M  V30 8379 C 819.534 1.77501 2.13046 0
M  V30 8380 H 822.485 1.32993 0.865944 0
M  V30 8381 H 822.506 1.27119 3.58638 0
M  V30 8382 H 822.018 2.83661 2.64874 0
M  V30 8383 H 820.119 0.59595 3.67803 0
M  V30 8384 H 820.232 2.42463 4.13217 0
M  V30 8385 H 818.596 1.2046 2.24414 0
M  V30 8386 H 819.379 2.84464 1.92185 0
M  V30 8387 N 821.824 -1.22873 0.986916 0
M  V30 8388 C 823.235 -1.73264 0.695438 0
M  V30 8389 C 823.586 -1.79679 -0.788023 0
M  V30 8390 O 822.711 -1.43905 -1.61618 0
M  V30 8391 C 823.306 -3.14671 1.2557 0
M  V30 8392 C 821.865 -3.62492 1.01373 0
M  V30 8393 C 821.012 -2.40551 1.37951 0
M  V30 8394 H 823.963 -1.08304 1.15999 0
M  V30 8395 H 823.984 -3.75226 0.631322 0
M  V30 8396 H 823.496 -3.0997 2.33539 0
M  V30 8397 H 821.597 -3.72567 -0.0495917 0
M  V30 8398 H 821.71 -4.48944 1.67289 0
M  V30 8399 H 820.074 -2.41875 0.798033 0
M  V30 8400 H 820.857 -2.38516 2.46911 0
M  V30 8401 N 823.302 -0.75937 -1.38099 0
M  V30 8402 C 824.718 -0.437606 -1.53483 0
M  V30 8403 C 824.918 1.04849 -1.72072 0
M  V30 8404 O 823.974 1.83448 -1.73502 0
M  V30 8405 C 825.287 -1.24189 -2.73857 0
M  V30 8406 C 826.835 -1.23255 -2.8771 0
M  V30 8407 C 827.31 -2.01992 -4.11051 0
M  V30 8408 N 828.801 -1.99282 -4.1814 0
M  V30 8409 C 829.536 -2.56996 -5.12583 0
M  V30 8410 N 829.032 -3.23446 -6.12662 0
M  V30 8411 N 830.825 -2.46894 -5.04975 0
M  V30 8412 H 822.976 -1.72242 -1.24283 0
M  V30 8413 H 825.239 -0.730507 -0.604205 0
M  V30 8414 H 824.945 -2.29449 -2.66545 0
M  V30 8415 H 824.819 -0.862672 -3.67203 0
M  V30 8416 H 827.206 -0.187988 -2.94501 0
M  V30 8417 H 827.287 -1.65132 -1.95359 0
M  V30 8418 H 826.931 -3.06462 -4.05023 0
M  V30 8419 H 826.861 -1.57505 -5.02494 0
M  V30 8420 H 829.352 -1.50893 -3.46467 0
M  V30 8421 H 829.665 -3.6489 -6.81231 0
M  V30 8422 H 828.01 -3.27543 -6.12977 0
M  V30 8423 H 831.201 -1.94604 -4.25731 0
M  V30 8424 H 831.374 -2.92168 -5.78396 0
M  V30 8425 N 824.78 1.49157 -0.508906 0
M  V30 8426 C 826.057 1.95363 0.0961913 0
M  V30 8427 C 826.437 1.45064 1.53362 0
M  V30 8428 O 825.785 0.667835 2.18523 0
M  V30 8429 C 825.995 3.49 0.000688881 0
M  V30 8430 C 827.343 4.24257 0.170632 0
M  V30 8431 O 828.367 3.5612 0.0754994 0
M  V30 8432 O 827.226 5.45267 0.366957 0
M  V30 8433 H 824.32 0.821984 0.0909489 0
M  V30 8434 H 826.866 1.59769 -0.572007 0
M  V30 8435 H 825.638 3.78269 -1.00143 0
M  V30 8436 H 825.261 3.91233 0.708682 0
M  V30 8437 N 826.258 0.243083 1.55714 0
M  V30 8438 C 827.486 -0.386971 2.03249 0
M  V30 8439 C 827.901 -1.51812 1.12243 0
M  V30 8440 O 827.258 -1.81992 0.136119 0
M  V30 8441 C 827.309 -0.898361 3.5016 0
M  V30 8442 O 827.03 0.187708 4.37698 0
M  V30 8443 C 828.531 -1.59949 4.13438 0
M  V30 8444 H 825.751 -0.0923981 0.664608 0
M  V30 8445 H 828.295 0.365832 2.01201 0
M  V30 8446 H 826.45 -1.60136 3.52754 0
M  V30 8447 H 826.864 -0.200001 5.24119 0
M  V30 8448 H 828.338 -1.90907 5.17937 0
M  V30 8449 H 828.815 -2.52014 3.59702 0
M  V30 8450 H 829.421 -0.941163 4.14756 0
M  V30 8451 N 827.736 -1.57571 -0.0300757 0
M  V30 8452 C 828.961 -1.93879 -0.736601 0
M  V30 8453 C 829.386 -0.842998 -1.68152 0
M  V30 8454 O 828.744 0.20135 -1.80178 0
M  V30 8455 C 828.792 -3.29247 -1.47066 0
M  V30 8456 O 827.896 -3.21426 -2.58378 0
M  V30 8457 H 827.237 -0.633735 -0.198181 0
M  V30 8458 H 829.767 -2.04595 0.0141485 0
M  V30 8459 H 829.777 -3.64113 -1.84081 0
M  V30 8460 H 828.452 -4.08565 -0.77764 0
M  V30 8461 H 827.029 -2.98189 -2.23914 0
M  V30 8462 N 829.214 0.302327 -1.54673 0
M  V30 8463 C 830.146 1.39443 -1.81902 0
M  V30 8464 C 831.159 1.46891 -0.701914 0
M  V30 8465 O 832.348 1.49233 -0.979369 0
M  V30 8466 C 829.448 2.77824 -1.9408 0
M  V30 8467 C 828.621 2.93324 -3.24468 0
M  V30 8468 C 827.68 4.12196 -3.27079 0
M  V30 8469 O 826.706 4.04344 -4.00617 0
M  V30 8470 N 827.908 5.22768 -2.52376 0
M  V30 8471 H 830.673 1.1644 -2.76155 0
M  V30 8472 H 828.234 0.492392 -1.54231 0
M  V30 8473 H 830.226 3.5559 -1.9323 0
M  V30 8474 H 828.796 2.9378 -1.06828 0
M  V30 8475 H 828.016 2.02682 -3.38103 0
M  V30 8476 H 829.304 3.0059 -4.10516 0
M  V30 8477 H 828.702 5.32027 -1.92259 0
M  V30 8478 H 827.259 5.98874 -2.57281 0
M  V30 8479 N 830.692 1.47107 0.565454 0
M  V30 8480 C 831.917 1.57153 1.35343 0
M  V30 8481 C 832.342 0.219247 1.86818 0
M  V30 8482 O 831.7 -0.803539 1.62521 0
M  V30 8483 C 831.748 2.59387 2.50501 0
M  V30 8484 O 830.852 2.14086 3.52478 0
M  V30 8485 H 830.193 0.528209 0.402357 0
M  V30 8486 H 832.723 1.92821 0.684189 0
M  V30 8487 H 832.733 2.79546 2.97184 0
M  V30 8488 H 831.408 3.57579 2.12391 0
M  V30 8489 H 829.985 2.03991 3.12157 0
M  V30 8490 N 832.17 -0.811516 1.35101 0
M  V30 8491 C 833.447 -1.55491 1.18667 0
M  V30 8492 C 833.827 -2.09775 -0.236189 0
M  V30 8493 O 833.175 -1.91989 -1.23905 0
M  V30 8494 C 833.385 -2.66732 2.25067 0
M  V30 8495 C 834.733 -3.35201 2.60625 0
M  V30 8496 O 835.757 -2.76998 2.23943 0
M  V30 8497 O 834.616 -4.40334 3.23679 0
M  V30 8498 H 831.71 -0.686783 0.460716 0
M  V30 8499 H 834.256 -0.851903 1.46768 0
M  V30 8500 H 833.028 -2.24457 3.20523 0
M  V30 8501 H 832.651 -3.44673 1.98208 0
M  V30 8502 N 833.648 -1.19017 -1.03309 0
M  V30 8503 C 834.595 -0.924088 -2.11493 0
M  V30 8504 C 835.565 0.139464 -1.65513 0
M  V30 8505 O 836.75 -0.00178761 -1.908 0
M  V30 8506 C 833.89 -0.464255 -3.41963 0
M  V30 8507 C 833.003 -1.5941 -4.01513 0
M  V30 8508 C 832.138 -1.08622 -5.19976 0
M  V30 8509 C 831.177 -2.19024 -5.71572 0
M  V30 8510 N 830.314 -1.69575 -6.81314 0
M  V30 8511 H 835.154 -1.85039 -2.33591 0
M  V30 8512 H 832.691 -0.922593 -1.14572 0
M  V30 8513 H 834.649 -0.179078 -4.16815 0
M  V30 8514 H 833.279 0.425062 -3.19989 0
M  V30 8515 H 832.331 -1.99458 -3.23915 0
M  V30 8516 H 833.643 -2.42604 -4.35826 0
M  V30 8517 H 832.797 -0.756022 -6.01971 0
M  V30 8518 H 831.536 -0.223955 -4.87186 0
M  V30 8519 H 830.541 -2.5288 -4.88193 0
M  V30 8520 H 831.766 -3.05699 -6.06403 0
M  V30 8521 H 829.712 -0.856494 -6.50385 0
M  V30 8522 H 829.629 -2.46361 -7.14732 0
M  V30 8523 H 830.897 -1.39505 -7.66915 0
M  V30 8524 N 835.127 1.22348 -0.993418 0
M  V30 8525 C 836.404 1.86632 -0.585495 0
M  V30 8526 C 836.784 1.89156 0.937187 0
M  V30 8527 O 836.132 1.38247 1.81934 0
M  V30 8528 C 836.342 3.27481 -1.20652 0
M  V30 8529 C 837.69 4.03971 -1.30738 0
M  V30 8530 O 838.714 3.3675 -1.16096 0
M  V30 8531 O 837.573 5.24302 -1.54173 0
M  V30 8532 H 834.667 0.802704 -0.198984 0
M  V30 8533 H 837.213 1.30122 -1.08933 0
M  V30 8534 H 835.985 3.20281 -2.24802 0
M  V30 8535 H 835.608 3.91597 -0.688312 0
M  V30 8536 N 836.605 0.766683 1.37694 0
M  V30 8537 C 837.535 0.163432 2.32927 0
M  V30 8538 C 838.516 -0.688861 1.55527 0
M  V30 8539 O 839.701 -0.627363 1.83787 0
M  V30 8540 C 836.831 -0.720416 3.39746 0
M  V30 8541 C 835.785 0.0301718 4.27989 0
M  V30 8542 C 835.111 -0.972788 5.25776 0
M  V30 8543 C 836.411 1.20623 5.0818 0
M  V30 8544 H 838.105 0.958988 2.83626 0
M  V30 8545 H 835.651 0.462601 1.36367 0
M  V30 8546 H 837.604 -1.15221 4.05342 0
M  V30 8547 H 836.328 -1.54844 2.8756 0
M  V30 8548 H 834.987 0.442685 3.63917 0
M  V30 8549 H 834.635 -1.79522 4.69873 0
M  V30 8550 H 834.335 -0.475145 5.85676 0
M  V30 8551 H 835.859 -1.40362 5.94248 0
M  V30 8552 H 837.273 0.851341 5.66944 0
M  V30 8553 H 835.67 1.63561 5.7738 0
M  V30 8554 H 836.74 2.01281 4.41151 0
M  V30 8555 N 838.083 -1.48885 0.516809 0
M  V30 8556 C 839.36 -1.95412 -0.0858293 0
M  V30 8557 C 839.74 -1.45875 -1.5259 0
M  V30 8558 O 839.088 -0.679415 -2.18166 0
M  V30 8559 C 839.298 -3.48995 0.0178194 0
M  V30 8560 C 840.646 -4.24342 -0.14813 0
M  V30 8561 O 841.67 -3.56155 -0.0566125 0
M  V30 8562 O 840.529 -5.45454 -0.338035 0
M  V30 8563 H 837.623 -0.822455 -0.0865884 0
M  V30 8564 H 840.169 -1.59464 0.580472 0
M  V30 8565 H 838.941 -3.77732 1.02147 0
M  V30 8566 H 838.564 -3.91604 -0.687924 0
M  V30 8567 N 839.561 -0.251338 -1.55583 0
M  V30 8568 C 840.838 0.422729 -1.90977 0
M  V30 8569 C 841.218 1.75534 -1.17265 0
M  V30 8570 O 840.566 2.26632 -0.291588 0
M  V30 8571 C 840.776 0.586448 -3.44037 0
M  V30 8572 C 842.124 0.880294 -4.15375 0
M  V30 8573 O 843.148 0.672148 -3.49801 0
M  V30 8574 O 842.007 1.27694 -5.31372 0
M  V30 8575 H 839.101 0.227622 -0.795058 0
M  V30 8576 H 841.647 -0.295733 -1.67103 0
M  V30 8577 H 840.419 -0.352327 -3.89711 0
M  V30 8578 H 840.042 1.35528 -3.73789 0
M  V30 8579 N 841.039 1.57585 0.0217189 0
M  V30 8580 C 842.002 2.06004 1.00474 0
M  V30 8581 C 843.002 0.965461 1.2859 0
M  V30 8582 O 844.192 1.22884 1.23471 0
M  V30 8583 C 841.324 2.48319 2.33561 0
M  V30 8584 H 842.517 2.94112 0.586346 0
M  V30 8585 H 840.07 1.53973 0.268716 0
M  V30 8586 H 840.805 1.63389 2.80133 0
M  V30 8587 H 840.59 3.28239 2.1448 0
M  V30 8588 H 842.08 2.86181 3.04122 0
M  V30 8589 N 842.517 -0.29412 1.54831 0
M  V30 8590 C 843.447 -1.36757 1.89261 0
M  V30 8591 C 844.428 -1.52564 0.752214 0
M  V30 8592 O 845.613 -1.65958 1.00855 0
M  V30 8593 C 842.743 -2.73066 2.14597 0
M  V30 8594 C 841.697 -2.72017 3.3044 0
M  V30 8595 C 841.023 -4.11679 3.4121 0
M  V30 8596 C 842.323 -2.33149 4.67375 0
M  V30 8597 H 844.017 -1.08191 2.79169 0
M  V30 8598 H 841.563 -0.519014 1.34321 0
M  V30 8599 H 843.516 -3.48255 2.37269 0
M  V30 8600 H 842.24 -3.03172 1.21467 0
M  V30 8601 H 840.899 -1.99285 3.07703 0
M  V30 8602 H 840.547 -4.38973 2.45584 0
M  V30 8603 H 840.247 -4.11877 4.19084 0
M  V30 8604 H 841.771 -4.88637 3.6615 0
M  V30 8605 H 843.185 -2.98054 4.89731 0
M  V30 8606 H 841.582 -2.44546 5.48012 0
M  V30 8607 H 842.652 -1.28275 4.67626 0
M  V30 8608 N 843.995 -1.47404 -0.557645 0
M  V30 8609 C 845.272 -1.44488 -1.31843 0
M  V30 8610 C 845.652 -0.1416 -2.10625 0
M  V30 8611 O 845 0.876908 -2.11004 0
M  V30 8612 C 845.21 -2.69016 -2.22331 0
M  V30 8613 C 846.558 -3.16212 -2.83364 0
M  V30 8614 O 847.582 -2.69741 -2.32634 0
M  V30 8615 O 846.441 -3.96999 -3.75571 0
M  V30 8616 H 843.535 -0.57578 -0.593639 0
M  V30 8617 H 846.081 -1.59605 -0.576584 0
M  V30 8618 H 844.853 -3.55406 -1.63715 0
M  V30 8619 H 844.476 -2.56484 -3.03812 0
M  V30 8620 N 845.473 0.80434 -1.35529 0
M  V30 8621 C 846.42 1.91629 -1.28635 0
M  V30 8622 C 847.39 1.65348 -0.157862 0
M  V30 8623 O 848.575 1.87711 -0.341934 0
M  V30 8624 C 845.715 3.28207 -1.0665 0
M  V30 8625 C 844.828 3.66659 -2.28441 0
M  V30 8626 C 843.963 4.92279 -1.99588 0
M  V30 8627 C 843.002 5.23365 -3.1742 0
M  V30 8628 N 842.139 6.40165 -2.88328 0
M  V30 8629 H 846.979 1.96858 -2.23721 0
M  V30 8630 H 844.516 0.962871 -1.11208 0
M  V30 8631 H 846.474 4.06945 -0.919343 0
M  V30 8632 H 845.104 3.22441 -0.152253 0
M  V30 8633 H 844.156 2.83164 -2.54013 0
M  V30 8634 H 845.468 3.8559 -3.1642 0
M  V30 8635 H 844.622 5.78847 -1.81715 0
M  V30 8636 H 843.361 4.75387 -1.08896 0
M  V30 8637 H 842.366 4.35285 -3.35867 0
M  V30 8638 H 843.591 5.42185 -4.08916 0
M  V30 8639 H 841.537 6.24694 -2.00233 0
M  V30 8640 H 841.454 6.59357 -3.69843 0
M  V30 8641 H 842.722 7.29755 -2.74002 0
M  V30 8642 N 846.951 1.19563 1.02676 0
M  V30 8643 C 847.881 0.959024 2.12897 0
M  V30 8644 C 848.862 -0.108382 1.69754 0
M  V30 8645 O 850.047 0.0470698 1.94143 0
M  V30 8646 C 847.177 0.499211 3.43693 0
M  V30 8647 C 846.131 1.5087 4.00528 0
M  V30 8648 C 845.457 0.905884 5.2697 0
M  V30 8649 C 846.757 2.88954 4.3509 0
M  V30 8650 H 848.451 1.88084 2.32948 0
M  V30 8651 H 845.997 0.905731 1.11949 0
M  V30 8652 H 847.95 0.320965 4.20176 0
M  V30 8653 H 846.674 -0.458205 3.2337 0
M  V30 8654 H 845.333 1.67413 3.26142 0
M  V30 8655 H 844.981 -0.0591506 5.02965 0
M  V30 8656 H 844.681 1.58 5.65959 0
M  V30 8657 H 846.205 0.73848 6.06118 0
M  V30 8658 H 847.619 2.75981 5.02501 0
M  V30 8659 H 846.016 3.53177 4.85166 0
M  V30 8660 H 847.086 3.41447 3.44299 0
M  V30 8661 N 848.429 -1.21819 0.999893 0
M  V30 8662 C 849.654 -1.95298 0.698094 0
M  V30 8663 C 850.079 -1.73273 -0.731982 0
M  V30 8664 O 849.437 -1.01634 -1.50134 0
M  V30 8665 C 849.485 -3.45922 1.01834 0
M  V30 8666 O 848.589 -4.12223 0.120801 0
M  V30 8667 H 847.93 -0.610729 0.260588 0
M  V30 8668 H 850.46 -1.5472 1.33876 0
M  V30 8669 H 850.47 -3.96471 0.963074 0
M  V30 8670 H 849.145 -3.61278 2.06037 0
M  V30 8671 H 847.722 -3.72177 0.232153 0
M  V30 8672 N 849.908 -0.773975 -1.37286 0
M  V30 8673 C 851.185 -0.263942 -1.93811 0
M  V30 8674 C 851.565 1.24138 -1.70743 0
M  V30 8675 O 850.913 2.02557 -1.05749 0
M  V30 8676 C 851.123 -0.639753 -3.43086 0
M  V30 8677 C 852.471 -0.610796 -4.20184 0
M  V30 8678 O 853.495 -0.579278 -3.51458 0
M  V30 8679 O 852.354 -0.639862 -5.42741 0
M  V30 8680 H 849.448 -0.0614331 -0.824715 0
M  V30 8681 H 851.994 -0.855477 -1.46559 0
M  V30 8682 H 850.766 -1.67856 -3.53469 0
M  V30 8683 H 850.389 -0.0212827 -3.97594 0
M  V30 8684 N 851.386 1.48609 -0.524698 0
M  V30 8685 C 852.611 2.07398 0.00952139 0
M  V30 8686 C 853.036 1.37939 1.27884 0
M  V30 8687 O 852.394 0.443633 1.75788 0
M  V30 8688 C 852.442 3.59916 0.221956 0
M  V30 8689 O 851.546 3.91647 1.29175 0
M  V30 8690 H 850.887 0.662981 -0.0367729 0
M  V30 8691 H 853.417 1.91092 -0.7311 0
M  V30 8692 H 853.427 4.05552 0.446236 0
M  V30 8693 H 852.102 4.09876 -0.705306 0
M  V30 8694 H 850.679 3.57796 1.05055 0
M  V30 8695 N 852.864 0.259585 1.55447 0
M  V30 8696 C 853.794 -0.62852 2.24882 0
M  V30 8697 C 854.775 -1.17128 1.23349 0
M  V30 8698 O 855.96 -1.20829 1.52033 0
M  V30 8699 C 853.09 -1.81983 2.95803 0
M  V30 8700 C 852.044 -1.40929 4.04132 0
M  V30 8701 C 851.37 -2.68246 4.62545 0
M  V30 8702 C 852.67 -0.570956 5.1917 0
M  V30 8703 H 854.364 -0.0495021 2.99359 0
M  V30 8704 H 851.91 -0.0223688 1.43983 0
M  V30 8705 H 853.863 -2.44689 3.43082 0
M  V30 8706 H 852.587 -2.42444 2.18835 0
M  V30 8707 H 851.246 -0.805519 3.57641 0
M  V30 8708 H 850.894 -3.26931 3.82263 0
M  V30 8709 H 850.594 -2.41495 5.35681 0
M  V30 8710 H 852.118 -3.31827 5.12565 0
M  V30 8711 H 853.532 -1.10262 5.62597 0
M  V30 8712 H 851.929 -0.398979 5.98772 0
M  V30 8713 H 852.999 0.413918 4.8313 0
M  V30 8714 N 854.342 -1.57594 -0.0133615 0
M  V30 8715 C 855.59 -1.89605 -0.699596 0
M  V30 8716 C 855.911 -0.85926 -1.75048 0
M  V30 8717 O 855.181 0.105112 -1.95618 0
M  V30 8718 H 853.761 -0.699776 -0.261385 0
M  V30 8719 H 856.423 -1.94885 0.0244044 0
M  V30 8720 H 855.519 -2.88962 -1.17928 0
M  V30 8721 N 855.82 0.285905 -1.54985 0
M  V30 8722 C 856.752 1.37505 -1.83371 0
M  V30 8723 C 857.765 1.46138 -0.717454 0
M  V30 8724 O 858.954 1.48186 -0.995142 0
M  V30 8725 C 856.054 2.7575 -1.97016 0
M  V30 8726 C 855.227 2.89866 -3.27561 0
M  V30 8727 C 854.286 4.08704 -3.31433 0
M  V30 8728 O 853.312 4.00073 -4.04883 0
M  V30 8729 N 854.514 5.20062 -2.57907 0
M  V30 8730 H 857.279 1.13505 -2.77375 0
M  V30 8731 H 854.84 0.476006 -1.54744 0
M  V30 8732 H 856.832 3.5352 -1.96991 0
M  V30 8733 H 855.402 2.9263 -1.09938 0
M  V30 8734 H 854.622 1.99085 -3.40234 0
M  V30 8735 H 855.91 2.96219 -4.13681 0
M  V30 8736 H 855.308 5.29958 -1.97891 0
M  V30 8737 H 853.865 5.96111 -2.63619 0
M  V30 8738 N 857.298 1.47698 0.54982 0
M  V30 8739 C 858.714 1.3338 0.876468 0
M  V30 8740 C 858.914 0.329837 1.98782 0
M  V30 8741 O 857.97 -0.256022 2.51199 0
M  V30 8742 C 859.283 2.72903 1.26272 0
M  V30 8743 C 860.831 2.81243 1.37373 0
M  V30 8744 C 861.306 4.21423 1.79351 0
M  V30 8745 N 862.797 4.24 1.86489 0
M  V30 8746 C 863.532 5.29386 2.20313 0
M  V30 8747 N 863.028 6.4507 2.527 0
M  V30 8748 N 864.821 5.16768 2.2115 0
M  V30 8749 H 856.972 2.11603 -0.183781 0
M  V30 8750 H 859.235 0.947798 -0.0195601 0
M  V30 8751 H 858.941 3.47836 0.519889 0
M  V30 8752 H 858.815 3.05151 2.21727 0
M  V30 8753 H 861.202 2.06577 2.10737 0
M  V30 8754 H 861.283 2.52639 0.400882 0
M  V30 8755 H 860.927 4.96597 1.06555 0
M  V30 8756 H 860.857 4.47456 2.77652 0
M  V30 8757 H 863.348 3.40547 1.63817 0
M  V30 8758 H 863.661 7.21236 2.77557 0
M  V30 8759 H 862.006 6.48377 2.50263 0
M  V30 8760 H 865.197 4.25416 1.95293 0
M  V30 8761 H 865.37 5.99004 2.4718 0
M  V30 8762 N 858.776 -0.797141 1.35954 0
M  V30 8763 C 859.708 -1.91782 1.25509 0
M  V30 8764 C 860.721 -1.61843 0.176271 0
M  V30 8765 O 861.91 -1.73235 0.430343 0
M  V30 8766 C 859.01 -3.26396 0.912073 0
M  V30 8767 C 858.183 -3.84171 2.0912 0
M  V30 8768 C 857.242 -4.9721 1.72246 0
M  V30 8769 O 856.268 -5.14136 2.44239 0
M  V30 8770 N 857.47 -5.76831 0.651611 0
M  V30 8771 H 860.235 -2.01266 2.22063 0
M  V30 8772 H 857.796 -0.975033 1.29247 0
M  V30 8773 H 859.788 -3.99499 0.646707 0
M  V30 8774 H 858.358 -3.12579 0.0359079 0
M  V30 8775 H 857.578 -3.03148 2.51982 0
M  V30 8776 H 858.866 -4.19503 2.87914 0
M  V30 8777 H 858.264 -5.65675 0.0536678 0
M  V30 8778 H 856.821 -6.50272 0.44605 0
M  V30 8779 N 860.254 -1.20106 -1.0204 0
M  V30 8780 C 861.665 -1.00992 -1.57027 0
M  V30 8781 C 862.016 0.434782 -1.91322 0
M  V30 8782 O 861.141 1.31557 -1.71819 0
M  V30 8783 C 861.736 -1.82697 -2.85319 0
M  V30 8784 C 860.295 -1.67959 -3.36848 0
M  V30 8785 C 859.442 -1.80868 -2.10195 0
M  V30 8786 H 862.393 -1.34354 -0.844676 0
M  V30 8787 H 862.414 -1.32809 -3.5657 0
M  V30 8788 H 861.926 -2.87839 -2.60328 0
M  V30 8789 H 860.027 -0.654389 -3.66809 0
M  V30 8790 H 860.14 -2.49006 -4.09308 0
M  V30 8791 H 858.504 -1.24015 -2.22469 0
M  V30 8792 H 859.287 -2.87486 -1.87635 0
M  V30 8793 N 861.732 1.21287 -1.00634 0
M  V30 8794 C 863.009 1.86 -0.605257 0
M  V30 8795 C 863.389 1.90139 0.917072 0
M  V30 8796 O 862.737 1.40169 1.80458 0
M  V30 8797 C 862.947 3.26183 -1.24119 0
M  V30 8798 C 864.295 4.02562 -1.35015 0
M  V30 8799 O 865.319 3.35499 -1.19661 0
M  V30 8800 O 864.178 5.22638 -1.59726 0
M  V30 8801 H 861.272 0.800549 -0.207486 0
M  V30 8802 H 863.818 1.28959 -1.10307 0
M  V30 8803 H 862.59 3.17878 -2.28186 0
M  V30 8804 H 862.213 3.90845 -0.729807 0
M  V30 8805 N 863.21 0.781244 1.36873 0
M  V30 8806 C 864.621 0.414093 1.8205 0
M  V30 8807 C 864.972 -1.06098 1.65039 0
M  V30 8808 O 864.097 -1.82251 1.16677 0
M  V30 8809 C 864.692 0.744837 3.30511 0
M  V30 8810 C 863.251 0.430621 3.73929 0
M  V30 8811 C 862.398 0.983746 2.59264 0
M  V30 8812 H 865.349 0.975091 1.2521 0
M  V30 8813 H 865.37 0.032936 3.80486 0
M  V30 8814 H 864.882 1.81847 3.42861 0
M  V30 8815 H 862.983 -0.635308 3.67144 0
M  V30 8816 H 863.096 0.945514 4.69677 0
M  V30 8817 H 861.46 0.407433 2.5142 0
M  V30 8818 H 862.243 2.06297 2.74402 0
M  V30 8819 N 864.689 -1.48329 0.532571 0
M  V30 8820 C 865.966 -1.95492 -0.0650985 0
M  V30 8821 C 866.346 -1.47485 -1.51034 0
M  V30 8822 O 865.694 -0.702516 -2.17433 0
M  V30 8823 C 865.904 -3.48957 0.0548341 0
M  V30 8824 C 867.252 -4.24475 -0.103115 0
M  V30 8825 O 868.276 -3.56195 -0.0188343 0
M  V30 8826 O 867.135 -5.45781 -0.280164 0
M  V30 8827 H 864.229 -0.823327 -0.0778603 0
M  V30 8828 H 866.775 -1.58839 0.597353 0
M  V30 8829 H 865.547 -3.76628 1.06148 0
M  V30 8830 H 865.17 -3.92311 -0.64635 0
M  V30 8831 N 866.167 -0.267825 -1.55308 0
M  V30 8832 C 867.077 0.633055 -2.25897 0
M  V30 8833 C 868.093 1.17613 -1.28231 0
M  V30 8834 O 869.269 1.20797 -1.61153 0
M  V30 8835 C 866.334 1.80397 -2.96071 0
M  V30 8836 C 865.395 1.29829 -4.09198 0
M  V30 8837 C 864.628 2.4134 -4.76016 0
M  V30 8838 O 864.851 3.60537 -4.42006 0
M  V30 8839 O 863.785 2.09909 -5.64111 0
M  V30 8840 H 867.611 0.0614381 -3.03638 0
M  V30 8841 H 865.196 -0.0355072 -1.49358 0
M  V30 8842 H 867.078 2.48685 -3.40197 0
M  V30 8843 H 865.753 2.36281 -2.21253 0
M  V30 8844 H 864.66 0.582086 -3.69544 0
M  V30 8845 H 865.993 0.785288 -4.85895 0
M  V30 8846 N 867.645 1.57599 0.00500368 0
M  V30 8847 C 868.593 2.09223 1.01628 0
M  V30 8848 C 869.587 1.01113 1.35913 0
M  V30 8849 O 870.793 1.19583 1.34536 0
M  V30 8850 H 867.168 0.667999 0.345372 0
M  V30 8851 H 869.139 2.93188 0.555274 0
M  V30 8852 C 867.888 2.60674 2.30097 0
M  V30 8853 H 867.211 3.43491 2.04582 0
M  V30 8854 H 868.651 3.00479 2.99146 0
M  V30 8855 C 867.11 1.51862 3.00731 0
M  V30 8856 O 867.64 0.898651 3.91519 0
M  V30 8857 N 865.846 1.24729 2.62471 0
M  V30 8858 H 865.393 1.7533 1.88725 0
M  V30 8859 H 865.351 0.521437 3.10046 0
M  V30 8860 N 869.123 -0.277682 1.55134 0
M  V30 8861 C 870.07 -1.34313 1.87693 0
M  V30 8862 C 871.04 -1.49298 0.727973 0
M  V30 8863 O 872.225 -1.6378 0.978807 0
M  V30 8864 C 869.365 -2.69922 2.15026 0
M  V30 8865 C 868.478 -2.63197 3.42565 0
M  V30 8866 C 867.613 -3.90955 3.59622 0
M  V30 8867 C 866.652 -3.78722 4.8087 0
M  V30 8868 N 865.789 -4.98303 4.94609 0
M  V30 8869 H 870.629 -1.05847 2.78569 0
M  V30 8870 H 868.166 -0.511469 1.37922 0
M  V30 8871 H 870.124 -3.48817 2.28872 0
M  V30 8872 H 868.754 -2.966 1.2739 0
M  V30 8873 H 867.806 -1.76038 3.37216 0
M  V30 8874 H 869.118 -2.50056 4.31594 0
M  V30 8875 H 868.272 -4.78291 3.7326 0
M  V30 8876 H 867.011 -4.06957 2.6877 0
M  V30 8877 H 866.016 -2.89769 4.67241 0
M  V30 8878 H 867.241 -3.64242 5.73153 0
M  V30 8879 H 865.187 -5.14725 4.06687 0
M  V30 8880 H 865.104 -4.87675 5.77676 0
M  V30 8881 H 866.372 -5.87225 5.12628 0
M  V30 8882 N 870.601 -1.47988 -0.541979 0
M  V30 8883 C 872.012 -1.49073 -1.12402 0
M  V30 8884 C 872.363 -0.253825 -1.94551 0
M  V30 8885 O 871.488 0.640056 -2.06718 0
M  V30 8886 C 872.083 -2.7011 -2.04514 0
M  V30 8887 C 870.642 -2.74105 -2.5796 0
M  V30 8888 C 869.789 -2.42409 -1.3466 0
M  V30 8889 H 872.74 -1.55277 -0.327818 0
M  V30 8890 H 872.761 -2.47946 -2.88623 0
M  V30 8891 H 872.273 -3.60117 -1.44697 0
M  V30 8892 H 870.374 -1.88276 -3.21532 0
M  V30 8893 H 870.487 -3.75213 -2.97913 0
M  V30 8894 H 868.851 -1.9331 -1.65841 0
M  V30 8895 H 869.634 -3.34642 -0.766133 0
M  V30 8896 N 872.079 0.78992 -1.36375 0
M  V30 8897 C 873.012 1.90907 -1.25019 0
M  V30 8898 C 873.99 1.62043 -0.134463 0
M  V30 8899 O 875.174 1.86008 -0.305506 0
M  V30 8900 C 872.301 3.25716 -0.928822 0
M  V30 8901 C 871.347 3.73511 -2.05892 0
M  V30 8902 S 872.18 3.89332 -3.6767 0
M  V30 8903 C 873.336 5.27017 -3.37645 0
M  V30 8904 H 873.569 2.00247 -2.19746 0
M  V30 8905 H 871.102 0.949097 -1.21785 0
M  V30 8906 H 873.06 4.03586 -0.750219 0
M  V30 8907 H 871.721 3.141 0.000658424 0
M  V30 8908 H 870.914 4.71195 -1.78862 0
M  V30 8909 H 870.516 3.02688 -2.19672 0
M  V30 8910 H 872.808 6.1158 -2.91507 0
M  V30 8911 H 873.751 5.5905 -4.3459 0
M  V30 8912 H 874.159 4.94093 -2.73006 0
M  V30 8913 N 873.557 1.20646 1.01402 0
M  V30 8914 C 874.467 0.973385 2.13453 0
M  V30 8915 C 875.483 -0.0715865 1.73853 0
M  V30 8916 O 876.659 0.116438 2.01063 0
M  V30 8917 C 873.724 0.531285 3.42605 0
M  V30 8918 C 872.785 1.64741 3.96433 0
M  V30 8919 C 872.018 1.22631 5.1942 0
M  V30 8920 O 872.241 0.0960891 5.70319 0
M  V30 8921 O 871.175 2.03474 5.66465 0
M  V30 8922 H 875.001 1.91164 2.35987 0
M  V30 8923 H 872.586 0.990553 1.11841 0
M  V30 8924 H 874.468 0.294095 4.20373 0
M  V30 8925 H 873.143 -0.378358 3.21481 0
M  V30 8926 H 872.05 1.93891 3.19933 0
M  V30 8927 H 873.383 2.53415 4.2195 0
M  V30 8928 N 875.035 -1.20752 1.01276 0
M  V30 8929 C 876.312 -1.85676 0.615112 0
M  V30 8930 C 876.692 -1.90623 -0.906976 0
M  V30 8931 O 876.04 -1.41124 -1.79712 0
M  V30 8932 C 876.25 -3.2552 1.25847 0
M  V30 8933 C 877.598 -4.0184 1.37148 0
M  V30 8934 O 878.622 -3.3486 1.21438 0
M  V30 8935 O 877.481 -5.21783 1.62495 0
M  V30 8936 H 874.575 -0.799437 0.211729 0
M  V30 8937 H 877.121 -1.28372 1.10989 0
M  V30 8938 H 875.893 -3.16664 2.29869 0
M  V30 8939 H 875.516 -3.90452 0.750524 0
M  V30 8940 N 876.513 -0.788492 -1.36457 0
M  V30 8941 C 877.46 -0.18435 -2.30063 0
M  V30 8942 C 878.43 0.67128 -1.51931 0
M  V30 8943 O 879.615 0.620152 -1.8044 0
M  V30 8944 C 876.755 0.675596 -3.38422 0
M  V30 8945 C 875.868 -0.198475 -4.31544 0
M  V30 8946 C 875.003 0.667757 -5.26986 0
M  V30 8947 C 874.042 -0.207825 -6.11747 0
M  V30 8948 N 873.179 0.617335 -6.99381 0
M  V30 8949 H 878.019 -0.988056 -2.81143 0
M  V30 8950 H 875.556 -0.498815 -1.38384 0
M  V30 8951 H 877.514 1.18916 -3.99894 0
M  V30 8952 H 876.144 1.44474 -2.88664 0
M  V30 8953 H 875.196 -0.829995 -3.71235 0
M  V30 8954 H 876.508 -0.873163 -4.91098 0
M  V30 8955 H 875.662 1.24716 -5.93743 0
M  V30 8956 H 874.401 1.37607 -4.67884 0
M  V30 8957 H 873.406 -0.799638 -5.43954 0
M  V30 8958 H 874.631 -0.913729 -6.72925 0
M  V30 8959 H 872.577 1.30996 -6.42788 0
M  V30 8960 H 872.494 0.000307255 -7.56 0
M  V30 8961 H 873.762 1.1806 -7.70508 0
M  V30 8962 N 877.991 1.48044 -0.54043 0
M  V30 8963 C 879.237 2.02797 -0.0101718 0
M  V30 8964 C 879.57 1.41565 1.32939 0
M  V30 8965 O 878.845 0.565139 1.86109 0
M  V30 8966 C 879.128 3.59959 0.100758 0
M  V30 8967 C 878.981 4.31654 -1.26471 0
M  V30 8968 C 880.3 4.32347 0.822455 0
M  V30 8969 H 877.419 0.736982 -0.00517052 0
M  V30 8970 H 880.061 1.76656 -0.69948 0
M  V30 8971 H 878.211 3.82363 0.687824 0
M  V30 8972 H 879.883 4.20639 -1.89369 0
M  V30 8973 H 878.126 3.92663 -1.84386 0
M  V30 8974 H 878.797 5.401 -1.13998 0
M  V30 8975 H 881.273 4.14835 0.324164 0
M  V30 8976 H 880.149 5.41978 0.868993 0
M  V30 8977 H 880.41 4.00369 1.87501 0
M  V30 8978 N 879.47 0.276058 1.55163 0
M  V30 8979 C 880.417 -0.611006 2.22565 0
M  V30 8980 C 881.387 -1.14902 1.19945 0
M  V30 8981 O 882.572 -1.19815 1.48489 0
M  V30 8982 C 879.712 -1.78885 2.95117 0
M  V30 8983 C 878.825 -1.2846 4.12458 0
M  V30 8984 C 877.96 -2.42432 4.72652 0
M  V30 8985 C 876.999 -1.89015 5.82185 0
M  V30 8986 N 876.136 -2.96463 6.36439 0
M  V30 8987 H 880.976 -0.0295849 2.97985 0
M  V30 8988 H 878.513 -0.00283607 1.471 0
M  V30 8989 H 880.471 -2.48121 3.35398 0
M  V30 8990 H 879.101 -2.34229 2.22119 0
M  V30 8991 H 878.153 -0.485312 3.77292 0
M  V30 8992 H 879.465 -0.853358 4.91446 0
M  V30 8993 H 878.619 -3.19659 5.15658 0
M  V30 8994 H 877.358 -2.88872 3.92943 0
M  V30 8995 H 876.363 -1.10267 5.38629 0
M  V30 8996 H 877.588 -1.43509 6.63763 0
M  V30 8997 H 875.534 -3.42283 5.59623 0
M  V30 8998 H 875.451 -2.57759 7.10701 0
M  V30 8999 H 876.719 -3.73663 6.84103 0
M  V30 9000 N 880.948 -1.576 0.00335426 0
M  V30 9001 C 881.858 -2.12067 -1.00322 0
M  V30 9002 C 882.874 -1.06672 -1.37467 0
M  V30 9003 O 884.05 -1.38592 -1.46131 0
M  V30 9004 C 881.115 -2.61593 -2.27531 0
M  V30 9005 C 880.176 -3.81602 -1.96668 0
M  V30 9006 C 879.409 -4.28756 -3.17811 0
M  V30 9007 O 879.632 -3.75222 -4.2961 0
M  V30 9008 O 878.566 -5.20877 -3.01613 0
M  V30 9009 H 882.392 -2.98299 -0.570199 0
M  V30 9010 H 879.977 -1.47835 -0.215682 0
M  V30 9011 H 881.859 -2.93631 -3.02256 0
M  V30 9012 H 880.534 -1.78457 -2.70065 0
M  V30 9013 H 879.441 -3.54531 -1.19408 0
M  V30 9014 H 880.774 -4.65822 -1.58968 0
M  V30 9015 N 882.426 0.269451 -1.5528 0
M  V30 9016 C 883.373 1.33316 -1.88403 0
M  V30 9017 C 884.343 1.48909 -0.735881 0
M  V30 9018 O 885.528 1.63259 -0.987479 0
M  V30 9019 C 882.668 2.68778 -2.16454 0
M  V30 9020 C 881.781 2.61377 -3.43956 0
M  V30 9021 C 880.916 3.89042 -3.6169 0
M  V30 9022 C 879.955 3.76166 -4.82872 0
M  V30 9023 N 879.092 4.95673 -4.97245 0
M  V30 9024 H 883.932 1.04368 -2.79126 0
M  V30 9025 H 881.469 0.504147 -1.38191 0
M  V30 9026 H 883.427 3.47599 -2.30719 0
M  V30 9027 H 882.057 2.9592 -1.28961 0
M  V30 9028 H 881.109 1.74247 -3.38145 0
M  V30 9029 H 882.421 2.47764 -4.32914 0
M  V30 9030 H 881.575 4.76304 -3.75791 0
M  V30 9031 H 880.314 4.05526 -2.70924 0
M  V30 9032 H 879.319 2.87287 -4.68771 0
M  V30 9033 H 880.544 3.61198 -5.75077 0
M  V30 9034 H 878.49 5.12561 -4.09411 0
M  V30 9035 H 878.407 4.84605 -5.80254 0
M  V30 9036 H 879.675 5.84498 -5.15735 0
M  V30 9037 N 883.904 1.48273 0.534124 0
M  V30 9038 C 884.867 1.6201 1.62127 0
M  V30 9039 C 885.867 0.493653 1.53035 0
M  V30 9040 O 887.057 0.759337 1.56779 0
M  V30 9041 C 884.189 1.5864 3.01739 0
M  V30 9042 H 885.382 2.58944 1.51288 0
M  V30 9043 H 882.935 1.36808 0.755861 0
M  V30 9044 H 883.67 0.631685 3.18088 0
M  V30 9045 H 883.455 2.40415 3.09747 0
M  V30 9046 H 884.945 1.71438 3.80787 0
M  V30 9047 N 885.382 -0.782676 1.36792 0
M  V30 9048 C 886.329 -1.89558 1.31667 0
M  V30 9049 C 887.299 -1.65076 0.184147 0
M  V30 9050 O 888.484 -1.87143 0.371753 0
M  V30 9051 C 885.624 -3.26469 1.11858 0
M  V30 9052 C 884.737 -3.62978 2.34245 0
M  V30 9053 C 883.872 -4.89041 2.07394 0
M  V30 9054 C 882.911 -5.18249 3.25706 0
M  V30 9055 N 882.048 -6.35497 2.98476 0
M  V30 9056 H 886.888 -1.93274 2.26824 0
M  V30 9057 H 884.425 -0.945057 1.12726 0
M  V30 9058 H 886.383 -4.05431 0.983968 0
M  V30 9059 H 885.013 -3.22158 0.203531 0
M  V30 9060 H 884.065 -2.79087 2.58485 0
M  V30 9061 H 885.377 -3.80507 3.22514 0
M  V30 9062 H 884.531 -5.75883 1.90901 0
M  V30 9063 H 883.27 -4.73594 1.16446 0
M  V30 9064 H 882.275 -4.29887 3.4275 0
M  V30 9065 H 883.5 -5.35611 4.1749 0
M  V30 9066 H 881.446 -6.21429 2.10146 0
M  V30 9067 H 881.363 -6.5339 3.80286 0
M  V30 9068 H 882.631 -7.25304 2.85577 0
M  V30 9069 N 886.86 -1.21182 -1.00761 0
M  V30 9070 C 887.823 -0.970339 -2.07646 0
M  V30 9071 C 888.823 0.0576345 -1.60697 0
M  V30 9072 O 890.013 -0.179369 -1.73274 0
M  V30 9073 C 887.145 -0.462703 -3.37745 0
M  V30 9074 H 888.338 -1.91856 -2.30502 0
M  V30 9075 H 885.891 -1.02844 -1.17698 0
M  V30 9076 H 886.626 0.490559 -3.20568 0
M  V30 9077 H 886.411 -1.20416 -3.73152 0
M  V30 9078 H 887.901 -0.313531 -4.16421 0
M  V30 9079 N 888.338 1.20213 -1.01915 0
M  V30 9080 C 889.248 2.26763 -0.601311 0
M  V30 9081 C 890.264 1.70185 0.362369 0
M  V30 9082 O 891.44 2.00165 0.222682 0
M  V30 9083 C 888.505 3.46662 0.0512879 0
M  V30 9084 C 887.566 4.18459 -0.958659 0
M  V30 9085 C 886.799 5.32634 -0.337107 0
M  V30 9086 O 887.022 5.63841 0.86251 0
M  V30 9087 O 885.956 5.9258 -1.05511 0
M  V30 9088 H 889.782 2.64725 -1.48844 0
M  V30 9089 H 887.367 1.2688 -0.788784 0
M  V30 9090 H 889.249 4.19345 0.41564 0
M  V30 9091 H 887.924 3.1057 0.912572 0
M  V30 9092 H 886.831 3.47937 -1.37442 0
M  V30 9093 H 888.164 4.58498 -1.78999 0
M  V30 9094 N 889.816 0.795718 1.36037 0
M  V30 9095 C 890.766 0.171437 2.27355 0
M  V30 9096 C 891.75 -0.648346 1.47259 0
M  V30 9097 O 892.942 -0.507386 1.69572 0
M  V30 9098 C 890.071 -0.687876 3.36338 0
M  V30 9099 C 889.157 0.141041 4.23865 0
M  V30 9100 N 889.548 1.19868 4.91391 0
M  V30 9101 C 887.846 -0.0791045 4.4593 0
M  V30 9102 C 888.547 1.70382 5.56188 0
M  V30 9103 N 887.523 1.01202 5.34097 0
M  V30 9104 H 891.325 0.980846 2.7705 0
M  V30 9105 H 888.839 0.635798 1.49437 0
M  V30 9106 H 890.836 -1.15107 4.00694 0
M  V30 9107 H 889.496 -1.49576 2.88196 0
M  V30 9108 H 890.507 1.58119 4.93172 0
M  V30 9109 H 887.184 -0.856993 4.0861 0
M  V30 9110 H 888.574 2.58715 6.20093 0
M  V30 9111 N 891.294 -1.47756 0.548274 0
M  V30 9112 C 892.71 -1.58247 0.207401 0
M  V30 9113 C 892.91 -1.54804 -1.28988 0
M  V30 9114 O 891.966 -1.44673 -2.06944 0
M  V30 9115 C 893.279 -2.89129 0.826142 0
M  V30 9116 C 894.827 -3.02695 0.79655 0
M  V30 9117 C 895.302 -4.36264 1.3942 0
M  V30 9118 N 896.793 -4.42877 1.35698 0
M  V30 9119 C 897.528 -5.44773 1.78913 0
M  V30 9120 N 897.024 -6.53528 2.29942 0
M  V30 9121 N 898.817 -5.35765 1.70038 0
M  V30 9122 H 890.968 -1.48236 1.52117 0
M  V30 9123 H 893.231 -0.704957 0.633829 0
M  V30 9124 H 892.937 -2.97358 1.87806 0
M  V30 9125 H 892.811 -3.75891 0.313916 0
M  V30 9126 H 895.198 -2.94067 -0.246655 0
M  V30 9127 H 895.279 -2.17496 1.34644 0
M  V30 9128 H 894.923 -4.45646 2.43642 0
M  V30 9129 H 894.853 -5.20179 0.819827 0
M  V30 9130 H 897.344 -3.64874 0.983623 0
M  V30 9131 H 897.657 -7.27441 2.60863 0
M  V30 9132 H 896.002 -6.54442 2.33947 0
M  V30 9133 H 899.193 -4.49699 1.29955 0
M  V30 9134 H 899.366 -6.1504 2.04035 0
M  V30 9135 N 892.772 -0.284283 -1.55015 0
M  V30 9136 C 894.049 0.382125 -1.91831 0
M  V30 9137 C 894.429 1.73007 -1.20962 0
M  V30 9138 O 893.777 2.25962 -0.339594 0
M  V30 9139 C 893.987 0.513341 -3.45204 0
M  V30 9140 C 895.335 0.791989 -4.17148 0
M  V30 9141 O 896.359 0.597799 -3.51148 0
M  V30 9142 O 895.218 1.16394 -5.33961 0
M  V30 9143 H 892.312 0.210707 -0.799707 0
M  V30 9144 H 894.858 -0.331111 -1.66438 0
M  V30 9145 H 893.63 -0.434911 -3.88876 0
M  V30 9146 H 893.253 1.27569 -3.76579 0
M  V30 9147 N 894.251 1.57596 -0.0117121 0
M  V30 9148 C 895.198 2.09153 0.975897 0
M  V30 9149 C 896.168 0.989579 1.33404 0
M  V30 9150 O 897.353 1.26273 1.43038 0
M  V30 9151 C 894.493 2.60906 2.2588 0
M  V30 9152 C 893.606 3.85046 1.95866 0
M  V30 9153 C 892.741 4.25257 3.18323 0
M  V30 9154 C 891.78 5.42202 2.84049 0
M  V30 9155 N 890.917 5.77651 3.99079 0
M  V30 9156 H 895.757 2.93261 0.52931 0
M  V30 9157 H 893.294 1.44965 0.249691 0
M  V30 9158 H 895.252 2.88995 3.00895 0
M  V30 9159 H 893.882 1.79654 2.68187 0
M  V30 9160 H 892.934 3.63794 1.11168 0
M  V30 9161 H 894.246 4.70151 1.66611 0
M  V30 9162 H 893.4 4.5469 4.01674 0
M  V30 9163 H 892.139 3.38884 3.50726 0
M  V30 9164 H 891.144 5.1248 1.99107 0
M  V30 9165 H 892.369 6.3026 2.52881 0
M  V30 9166 H 890.315 4.94235 4.31356 0
M  V30 9167 H 890.232 6.57356 3.73388 0
M  V30 9168 H 891.5 6.11681 4.83183 0
M  V30 9169 N 895.729 -0.261212 1.5542 0
M  V30 9170 C 896.659 -1.32712 1.92119 0
M  V30 9171 C 897.64 -1.50934 0.784406 0
M  V30 9172 O 898.825 -1.63781 1.04352 0
M  V30 9173 C 895.955 -2.68453 2.20341 0
M  V30 9174 C 894.909 -2.64947 3.36136 0
M  V30 9175 C 894.235 -4.04349 3.49865 0
M  V30 9176 C 895.535 -2.23182 4.72215 0
M  V30 9177 H 897.229 -1.02245 2.81401 0
M  V30 9178 H 894.775 -0.490406 1.35392 0
M  V30 9179 H 896.728 -3.43144 2.44603 0
M  V30 9180 H 895.452 -3.00527 1.27871 0
M  V30 9181 H 894.111 -1.92714 3.11861 0
M  V30 9182 H 893.759 -4.33665 2.5484 0
M  V30 9183 H 893.459 -4.02895 4.27726 0
M  V30 9184 H 894.983 -4.80761 3.76432 0
M  V30 9185 H 896.397 -2.87599 4.95943 0
M  V30 9186 H 894.794 -2.32867 5.53076 0
M  V30 9187 H 895.864 -1.18327 4.70241 0
M  V30 9188 N 897.207 -1.48554 -0.526253 0
M  V30 9189 C 898.455 -1.56452 -1.27935 0
M  V30 9190 C 898.776 -0.24184 -1.93495 0
M  V30 9191 O 898.046 0.736917 -1.81511 0
M  V30 9192 H 896.626 -0.576379 -0.47518 0
M  V30 9193 H 899.288 -1.85039 -0.612083 0
M  V30 9194 H 898.384 -2.34751 -2.05666 0
M  V30 9195 N 898.685 0.775411 -1.37205 0
M  V30 9196 C 899.595 1.91967 -1.34855 0
M  V30 9197 C 900.611 1.72214 -0.248656 0
M  V30 9198 O 901.787 1.95512 -0.483421 0
M  V30 9199 C 898.852 3.27038 -1.15096 0
M  V30 9200 C 897.913 3.5947 -2.34691 0
M  V30 9201 C 897.146 4.88097 -2.15865 0
M  V30 9202 O 897.369 5.58871 -1.14102 0
M  V30 9203 O 896.303 5.19507 -3.03967 0
M  V30 9204 H 900.129 1.969 -2.31223 0
M  V30 9205 H 897.714 0.917647 -1.17897 0
M  V30 9206 H 899.596 4.07837 -1.0605 0
M  V30 9207 H 898.271 3.22965 -0.217999 0
M  V30 9208 H 897.178 2.7892 -2.49308 0
M  V30 9209 H 898.511 3.68282 -3.26541 0
M  V30 9210 N 900.163 1.21714 1.00117 0
M  V30 9211 C 901.579 0.97532 1.26332 0
M  V30 9212 C 901.779 -0.336029 1.98678 0
M  V30 9213 O 900.835 -1.06073 2.29139 0
M  V30 9214 C 902.148 2.16848 2.0832 0
M  V30 9215 C 903.696 2.21115 2.21533 0
M  V30 9216 C 904.171 3.3996 3.06906 0
M  V30 9217 N 905.662 3.40071 3.14494 0
M  V30 9218 C 906.397 4.28678 3.80818 0
M  V30 9219 N 905.893 5.2749 4.49139 0
M  V30 9220 N 907.686 4.16476 3.77497 0
M  V30 9221 H 899.837 2.06039 0.515897 0
M  V30 9222 H 902.1 0.902423 0.290408 0
M  V30 9223 H 901.806 3.119 1.62515 0
M  V30 9224 H 901.68 2.16226 3.09073 0
M  V30 9225 H 904.067 1.26616 2.66557 0
M  V30 9226 H 904.148 2.2578 1.20238 0
M  V30 9227 H 903.792 4.34755 2.62585 0
M  V30 9228 H 903.722 3.32534 4.08324 0
M  V30 9229 H 906.213 2.68563 2.65861 0
M  V30 9230 H 906.526 5.91397 4.97463 0
M  V30 9231 H 904.871 5.31412 4.47914 0
M  V30 9232 H 908.062 3.38539 3.23278 0
M  V30 9233 H 908.235 4.85739 4.28908 0
M  V30 9234 N 901.641 -1.19671 1.02551 0
M  V30 9235 C 902.918 -1.85014 0.634771 0
M  V30 9236 C 903.298 -1.91574 -0.886706 0
M  V30 9237 O 902.646 -1.43022 -1.78205 0
M  V30 9238 C 902.856 -3.24167 1.29292 0
M  V30 9239 C 904.204 -4.00363 1.41402 0
M  V30 9240 O 905.228 -3.33553 1.24983 0
M  V30 9241 O 904.087 -5.2003 1.6802 0
M  V30 9242 H 901.181 -0.797147 0.220196 0
M  V30 9243 H 903.727 -1.27188 1.12345 0
M  V30 9244 H 902.499 -3.14208 2.33215 0
M  V30 9245 H 902.122 -3.89634 0.791895 0
M  V30 9246 N 903.119 -0.802921 -1.35613 0
M  V30 9247 C 904.396 -0.304993 -1.93208 0
M  V30 9248 C 904.776 1.20488 -1.73337 0
M  V30 9249 O 904.124 2.00268 -1.10022 0
M  V30 9250 C 904.334 -0.712383 -3.41652 0
M  V30 9251 C 905.682 -0.699785 -4.18794 0
M  V30 9252 O 906.706 -0.653698 -3.5015 0
M  V30 9253 O 905.565 -0.754842 -5.41262 0
M  V30 9254 H 902.659 -0.0789127 -0.823226 0
M  V30 9255 H 905.205 -0.886372 -1.44712 0
M  V30 9256 H 903.977 -1.75316 -3.49829 0
M  V30 9257 H 903.6 -0.105614 -3.9746 0
M  V30 9258 N 904.597 1.47463 -0.556102 0
M  V30 9259 C 905.825 2.06868 -0.0364585 0
M  V30 9260 C 906.24 1.40893 1.25677 0
M  V30 9261 O 905.597 0.505083 1.75371 0
M  V30 9262 C 905.648 3.61128 0.163984 0
M  V30 9263 O 905.369 4.24629 -1.07803 0
M  V30 9264 C 906.87 4.37397 0.721036 0
M  V30 9265 H 904.09 0.669466 -0.0453399 0
M  V30 9266 H 906.634 1.89482 -0.769198 0
M  V30 9267 H 904.789 3.78031 0.84685 0
M  V30 9268 H 905.203 5.17149 -0.875067 0
M  V30 9269 H 906.677 5.46016 0.810584 0
M  V30 9270 H 907.154 4.03604 1.73206 0
M  V30 9271 H 907.76 4.25236 0.073904 0
M  V30 9272 N 906.075 0.2925 1.54862 0
M  V30 9273 C 907.324 -0.319994 1.99146 0
M  V30 9274 C 907.637 -1.55658 1.18448 0
M  V30 9275 O 908.843 -2.24312 1.52959 0
M  V30 9276 C 907.299 -0.620665 3.54508 0
M  V30 9277 C 906.907 0.597098 4.44003 0
M  V30 9278 C 908.651 -1.19482 4.07338 0
M  V30 9279 C 906.558 0.270049 5.90783 0
M  V30 9280 H 905.488 -0.123342 0.743843 0
M  V30 9281 H 908.139 0.399876 1.7909 0
M  V30 9282 H 906.521 -1.3999 3.7043 0
M  V30 9283 H 907.695 1.37354 4.39853 0
M  V30 9284 H 906.01 1.0893 4.019 0
M  V30 9285 H 908.607 -1.45362 5.14562 0
M  V30 9286 H 908.95 -2.13435 3.57423 0
M  V30 9287 H 909.483 -0.477485 3.94924 0
M  V30 9288 H 906.222 1.17791 6.4483 0
M  V30 9289 H 905.742 -0.469292 5.97961 0
M  V30 9290 H 907.421 -0.131471 6.46866 0
M  V30 9291 N 907.553 -1.57587 0.0200696 0
M  V30 9292 C 908.964 -1.79312 -0.520019 0
M  V30 9293 C 909.315 -0.929475 -1.72787 0
M  V30 9294 O 908.44 -0.137389 -2.15963 0
M  V30 9295 C 909.035 -3.25203 -0.950172 0
M  V30 9296 C 907.594 -3.47954 -1.43543 0
M  V30 9297 C 906.741 -2.74459 -0.395917 0
M  V30 9298 H 909.692 -1.56779 0.246153 0
M  V30 9299 H 909.713 -3.34418 -1.81508 0
M  V30 9300 H 909.225 -3.88035 -0.070883 0
M  V30 9301 H 907.326 -2.90363 -2.33495 0
M  V30 9302 H 907.439 -4.56661 -1.44905 0
M  V30 9303 H 905.803 -2.39669 -0.862022 0
M  V30 9304 H 906.586 -3.40001 0.47475 0
M  V30 9305 N 909.032 0.252966 -1.55557 0
M  V30 9306 C 910.443 0.822503 -1.67606 0
M  V30 9307 C 910.794 1.86265 -0.616411 0
M  V30 9308 O 909.919 2.15082 0.238447 0
M  V30 9309 C 910.514 1.49866 -3.03852 0
M  V30 9310 C 909.073 2.01597 -3.17861 0
M  V30 9311 C 908.22 0.864943 -2.63465 0
M  V30 9312 H 911.171 0.0288958 -1.58674 0
M  V30 9313 H 911.192 2.36646 -2.97958 0
M  V30 9314 H 910.704 0.741378 -3.80953 0
M  V30 9315 H 908.805 2.80224 -2.45571 0
M  V30 9316 H 908.918 2.21752 -4.24692 0
M  V30 9317 H 907.282 1.2638 -2.21134 0
M  V30 9318 H 908.065 0.120847 -3.43087 0
M  V30 9319 N 910.51 1.48831 0.518367 0
M  V30 9320 C 911.42 1.6692 1.64848 0
M  V30 9321 C 912.436 0.551711 1.65022 0
M  V30 9322 O 913.612 0.824251 1.83761 0
M  V30 9323 C 910.677 1.71559 3.01278 0
M  V30 9324 C 909.738 2.9502 3.11868 0
M  V30 9325 C 908.971 2.99428 4.4179 0
M  V30 9326 O 909.194 2.11914 5.29574 0
M  V30 9327 O 908.128 3.91719 4.5699 0
M  V30 9328 H 911.954 2.62623 1.52521 0
M  V30 9329 H 909.539 1.32368 0.692749 0
M  V30 9330 H 911.421 1.77064 3.82396 0
M  V30 9331 H 910.096 0.790316 3.13904 0
M  V30 9332 H 909.003 2.95042 2.30003 0
M  V30 9333 H 910.336 3.8697 3.04163 0
M  V30 9334 N 911.988 -0.768124 1.37614 0
M  V30 9335 C 913.218 -1.555 1.36027 0
M  V30 9336 C 913.626 -1.89119 -0.0554273 0
M  V30 9337 O 912.969 -1.52203 -1.02859 0
M  V30 9338 C 913.031 -2.8906 2.13739 0
M  V30 9339 C 912.695 -2.78058 3.62674 0
M  V30 9340 C 913.692 -2.48841 4.5648 0
M  V30 9341 C 911.377 -2.95966 4.05844 0
M  V30 9342 C 913.371 -2.37665 5.91434 0
M  V30 9343 C 911.058 -2.84411 5.40882 0
M  V30 9344 C 912.056 -2.55301 6.33491 0
M  V30 9345 O 911.744 -2.43779 7.66046 0
M  V30 9346 H 911.476 -0.488263 0.467521 0
M  V30 9347 H 914.03 -0.959583 1.81607 0
M  V30 9348 H 912.26 -3.50735 1.62854 0
M  V30 9349 H 913.949 -3.5048 2.04741 0
M  V30 9350 H 914.715 -2.34687 4.24437 0
M  V30 9351 H 910.594 -3.17625 3.34119 0
M  V30 9352 H 914.138 -2.14865 6.63686 0
M  V30 9353 H 910.035 -2.98134 5.72527 0
M  V30 9354 H 910.803 -2.59101 7.76408 0
M  V30 9355 N 913.466 -1.22244 -0.994698 0
M  V30 9356 C 914.882 -0.982006 -1.25813 0
M  V30 9357 C 915.082 0.325488 -1.98854 0
M  V30 9358 O 914.138 1.04857 -2.29698 0
M  V30 9359 C 915.451 -2.1795 -2.07167 0
M  V30 9360 C 916.999 -2.22287 -2.20358 0
M  V30 9361 C 917.474 -3.41583 -3.05098 0
M  V30 9362 N 918.965 -3.41734 -3.12686 0
M  V30 9363 C 919.7 -4.30692 -3.78539 0
M  V30 9364 N 919.196 -5.29865 -4.46335 0
M  V30 9365 N 920.989 -4.18473 -3.75283 0
M  V30 9366 H 913.14 -2.0631 -0.504963 0
M  V30 9367 H 915.403 -0.90395 -0.285618 0
M  V30 9368 H 915.109 -3.12758 -1.60858 0
M  V30 9369 H 914.983 -2.17862 -3.07922 0
M  V30 9370 H 917.37 -1.28028 -2.65881 0
M  V30 9371 H 917.451 -2.26414 -1.19039 0
M  V30 9372 H 917.095 -4.36141 -2.60275 0
M  V30 9373 H 917.025 -3.34695 -4.06555 0
M  V30 9374 H 919.516 -2.69969 -2.64433 0
M  V30 9375 H 919.829 -5.94027 -4.9432 0
M  V30 9376 H 918.174 -5.3378 -4.45089 0
M  V30 9377 H 921.365 -3.40249 -3.21478 0
M  V30 9378 H 921.538 -4.88007 -4.26326 0
M  V30 9379 N 914.944 1.19125 -1.03184 0
M  V30 9380 C 915.894 2.20348 -0.585731 0
M  V30 9381 C 916.878 1.56656 0.367109 0
M  V30 9382 O 918.07 1.76003 0.187598 0
M  V30 9383 C 915.199 3.43249 0.0590006 0
M  V30 9384 C 914.285 4.1408 -0.916457 0
M  V30 9385 N 914.676 4.61051 -2.08005 0
M  V30 9386 C 912.974 4.39809 -0.74054 0
M  V30 9387 C 913.675 5.15477 -2.69552 0
M  V30 9388 N 912.651 5.06456 -1.97493 0
M  V30 9389 H 916.453 2.54346 -1.47259 0
M  V30 9390 H 913.967 1.35232 -0.899225 0
M  V30 9391 H 915.964 4.15013 0.396236 0
M  V30 9392 H 914.624 3.1075 0.941507 0
M  V30 9393 H 915.635 4.55782 -2.45934 0
M  V30 9394 H 912.312 4.17397 0.0926238 0
M  V30 9395 H 913.702 5.62088 -3.68112 0
M  V30 9396 N 916.422 0.810101 1.35185 0
M  V30 9397 C 917.352 0.237453 2.32289 0
M  V30 9398 C 918.333 -0.639032 1.5764 0
M  V30 9399 O 919.518 -0.568575 1.8569 0
M  V30 9400 C 916.648 -0.611964 3.41866 0
M  V30 9401 C 915.602 0.166318 4.27677 0
M  V30 9402 C 914.928 -0.805024 5.28605 0
M  V30 9403 C 916.228 1.36729 5.04086 0
M  V30 9404 H 917.922 1.04874 2.80432 0
M  V30 9405 H 915.468 0.505751 1.34826 0
M  V30 9406 H 917.421 -1.02267 4.08802 0
M  V30 9407 H 916.145 -1.45617 2.92341 0
M  V30 9408 H 914.804 0.558238 3.62325 0
M  V30 9409 H 914.452 -1.64483 4.75347 0
M  V30 9410 H 914.152 -0.288577 5.86891 0
M  V30 9411 H 915.676 -1.21386 5.98413 0
M  V30 9412 H 917.09 1.03128 5.63948 0
M  V30 9413 H 915.487 1.81848 5.71884 0
M  V30 9414 H 916.557 2.15214 4.34524 0
M  V30 9415 N 917.9 -1.47166 0.563914 0
M  V30 9416 C 918.83 -2.32894 -0.168148 0
M  V30 9417 C 919.811 -1.44202 -0.902214 0
M  V30 9418 O 920.996 -1.73048 -0.881365 0
M  V30 9419 C 918.126 -3.26116 -1.19439 0
M  V30 9420 C 917.08 -4.24101 -0.576363 0
M  V30 9421 C 916.406 -5.06696 -1.70772 0
M  V30 9422 C 917.706 -5.20142 0.47425 0
M  V30 9423 H 919.4 -2.9435 0.547573 0
M  V30 9424 H 916.946 -1.41545 0.264778 0
M  V30 9425 H 918.899 -3.84935 -1.71474 0
M  V30 9426 H 917.623 -2.62728 -1.94014 0
M  V30 9427 H 916.282 -3.66519 -0.0772534 0
M  V30 9428 H 915.93 -4.39707 -2.44268 0
M  V30 9429 H 915.63 -5.7304 -1.29994 0
M  V30 9430 H 917.154 -5.68375 -2.2312 0
M  V30 9431 H 918.568 -5.73286 0.0397035 0
M  V30 9432 H 916.965 -5.94726 0.801287 0
M  V30 9433 H 918.035 -4.65214 1.36764 0
M  V30 9434 N 919.378 -0.300708 -1.54705 0
M  V30 9435 C 920.655 0.361757 -1.92226 0
M  V30 9436 C 921.035 1.71714 -1.2279 0
M  V30 9437 O 920.383 2.2559 -0.363542 0
M  V30 9438 C 920.593 0.476699 -3.45729 0
M  V30 9439 C 921.941 0.7477 -4.17965 0
M  V30 9440 O 922.965 0.560521 -3.51762 0
M  V30 9441 O 921.824 1.10724 -5.35166 0
M  V30 9442 H 918.918 0.202213 -0.801897 0
M  V30 9443 H 921.464 -0.348746 -1.66078 0
M  V30 9444 H 920.236 -0.476132 -3.88392 0
M  V30 9445 H 919.859 1.23568 -3.77911 0
M  V30 9446 N 920.856 1.57574 -0.0284266 0
M  V30 9447 C 922.133 1.83064 0.688979 0
M  V30 9448 C 922.513 0.91219 1.90374 0
M  V30 9449 O 921.861 -0.0323672 2.28477 0
M  V30 9450 C 922.071 3.32262 1.06785 0
M  V30 9451 C 923.419 3.98717 1.45978 0
M  V30 9452 O 924.443 3.36753 1.16085 0
M  V30 9453 O 923.302 5.07927 2.01673 0
M  V30 9454 H 920.396 0.7548 0.337944 0
M  V30 9455 H 922.942 1.69607 -0.0560555 0
M  V30 9456 H 921.714 3.90772 0.203235 0
M  V30 9457 H 921.337 3.50823 1.87107 0
M  V30 9458 N 922.334 -0.244713 1.55689 0
M  V30 9459 C 923.282 -1.32276 1.91326 0
M  V30 9460 C 924.276 -1.49714 0.792589 0
M  V30 9461 O 925.482 -1.51163 0.977227 0
M  V30 9462 H 921.857 -0.442979 0.607679 0
M  V30 9463 H 923.828 -0.99486 2.81327 0
M  V30 9464 C 922.577 -2.67077 2.22633 0
M  V30 9465 H 921.9 -2.54458 3.08368 0
M  V30 9466 H 923.34 -3.41378 2.5147 0
M  V30 9467 C 921.799 -3.20335 1.04342 0
M  V30 9468 O 922.329 -4.00633 0.292543 0
M  V30 9469 N 920.535 -2.78392 0.833457 0
M  V30 9470 H 920.082 -2.13202 1.44577 0
M  V30 9471 H 920.04 -3.1437 0.0436713 0
M  V30 9472 N 923.813 -1.49104 -0.510467 0
M  V30 9473 C 925.061 -1.578 -1.26268 0
M  V30 9474 C 925.382 -0.262349 -1.93227 0
M  V30 9475 O 924.652 0.717624 -1.82283 0
M  V30 9476 H 923.232 -0.581387 -0.46904 0
M  V30 9477 H 925.894 -1.85678 -0.592423 0
M  V30 9478 H 924.99 -2.36919 -2.03165 0
M  V30 9479 N 925.291 0.760815 -1.38019 0
M  V30 9480 C 926.223 1.88387 -1.30549 0
M  V30 9481 C 927.236 1.61319 -0.219119 0
M  V30 9482 O 928.425 1.72033 -0.476122 0
M  V30 9483 C 925.525 3.23863 -0.998291 0
M  V30 9484 C 924.698 3.78492 -2.19232 0
M  V30 9485 C 923.757 4.92468 -1.85368 0
M  V30 9486 O 922.783 5.0748 -2.57785 0
M  V30 9487 N 923.985 5.74901 -0.804319 0
M  V30 9488 H 926.75 1.95308 -2.27322 0
M  V30 9489 H 924.311 0.940423 -1.31786 0
M  V30 9490 H 926.303 3.97644 -0.7524 0
M  V30 9491 H 924.873 3.12374 -0.11877 0
M  V30 9492 H 924.093 2.96361 -2.5993 0
M  V30 9493 H 925.381 4.11722 -2.98935 0
M  V30 9494 H 924.779 5.65333 -0.203628 0
M  V30 9495 H 923.336 6.48861 -0.618301 0
M  V30 9496 N 926.769 1.22769 0.988202 0
M  V30 9497 C 928.046 0.9635 1.70223 0
M  V30 9498 C 928.426 -0.520102 2.04593 0
M  V30 9499 O 927.774 -1.48934 1.73295 0
M  V30 9500 C 927.984 1.86583 2.94937 0
M  V30 9501 C 929.332 2.12469 3.67616 0
M  V30 9502 O 930.356 1.84069 3.04954 0
M  V30 9503 O 929.215 2.60595 4.80367 0
M  V30 9504 H 926.309 0.362737 0.743203 0
M  V30 9505 H 928.855 1.33776 1.04412 0
M  V30 9506 H 927.627 2.86913 2.66077 0
M  V30 9507 H 927.25 1.49344 3.68486 0
M  V30 9508 N 928.247 -1.18576 1.03814 0
M  V30 9509 C 929.194 -2.2212 0.626988 0
M  V30 9510 C 930.164 -1.62064 -0.363912 0
M  V30 9511 O 931.349 -1.89041 -0.258469 0
M  V30 9512 C 928.489 -3.45099 -0.00650133 0
M  V30 9513 C 927.602 -4.19503 1.03156 0
M  V30 9514 C 926.737 -5.29932 0.366852 0
M  V30 9515 C 925.776 -5.96104 1.39018 0
M  V30 9516 N 924.913 -6.98076 0.750625 0
M  V30 9517 H 929.753 -2.56646 1.51449 0
M  V30 9518 H 927.29 -1.26084 0.757702 0
M  V30 9519 H 929.248 -4.15363 -0.391108 0
M  V30 9520 H 927.878 -3.11201 -0.857536 0
M  V30 9521 H 926.93 -3.48092 1.53414 0
M  V30 9522 H 928.242 -4.64843 1.80893 0
M  V30 9523 H 927.396 -6.06657 -0.0720979 0
M  V30 9524 H 926.135 -4.85687 -0.442631 0
M  V30 9525 H 925.14 -5.18122 1.8393 0
M  V30 9526 H 926.365 -6.42432 2.20132 0
M  V30 9527 H 924.311 -6.55989 -0.0385981 0
M  V30 9528 H 924.228 -7.41655 1.46574 0
M  V30 9529 H 925.496 -7.78776 0.335986 0
M  V30 9530 N 929.725 -0.817259 -1.34754 0
M  V30 9531 C 931.136 -0.462215 -1.80888 0
M  V30 9532 C 931.487 1.01685 -1.67794 0
M  V30 9533 O 930.612 1.79094 -1.21468 0
M  V30 9534 C 931.207 -0.832204 -3.2842 0
M  V30 9535 C 929.766 -0.52961 -3.72655 0
M  V30 9536 C 928.913 -1.05214 -2.56564 0
M  V30 9537 H 931.864 -1.00795 -1.22581 0
M  V30 9538 H 931.885 -0.133804 -3.80265 0
M  V30 9539 H 931.397 -1.90873 -3.37919 0
M  V30 9540 H 929.498 0.537743 -3.68699 0
M  V30 9541 H 929.611 -1.06971 -4.67005 0
M  V30 9542 H 927.975 -0.473949 -2.50251 0
M  V30 9543 H 928.758 -2.135 -2.68836 0
M  V30 9544 N 931.203 1.46865 -0.571711 0
M  V30 9545 C 932.449 2.0273 -0.0531858 0
M  V30 9546 C 932.782 1.44353 1.29907 0
M  V30 9547 O 932.057 0.604488 1.84868 0
M  V30 9548 C 932.34 3.60092 0.0243831 0
M  V30 9549 C 932.193 4.28874 -1.35599 0
M  V30 9550 C 933.512 4.33994 0.730563 0
M  V30 9551 H 930.631 0.736706 -0.0208018 0
M  V30 9552 H 933.273 1.75132 -0.736794 0
M  V30 9553 H 931.423 3.83736 0.606565 0
M  V30 9554 H 933.095 4.16527 -1.98249 0
M  V30 9555 H 931.338 3.88664 -1.92674 0
M  V30 9556 H 932.009 5.37561 -1.25429 0
M  V30 9557 H 934.485 4.1543 0.236098 0
M  V30 9558 H 933.361 5.43699 0.753836 0
M  V30 9559 H 933.622 4.04257 1.78967 0
M  V30 9560 N 932.681 0.308908 1.54543 0
M  V30 9561 C 933.628 -0.563659 2.23811 0
M  V30 9562 C 934.598 -1.12332 1.22355 0
M  V30 9563 O 935.783 -1.16638 1.50997 0
M  V30 9564 C 932.923 -1.72585 2.98845 0
M  V30 9565 C 932.036 -1.19682 4.1509 0
M  V30 9566 C 931.171 -2.32351 4.77688 0
M  V30 9567 C 930.21 -1.76623 5.86064 0
M  V30 9568 N 929.347 -2.82896 6.42584 0
M  V30 9569 H 934.187 0.0336288 2.97981 0
M  V30 9570 H 931.724 0.0283666 1.47073 0
M  V30 9571 H 933.682 -2.40951 3.40586 0
M  V30 9572 H 932.312 -2.29464 2.27037 0
M  V30 9573 H 931.364 -0.405173 3.78236 0
M  V30 9574 H 932.676 -0.748923 4.93146 0
M  V30 9575 H 931.83 -3.0865 5.22322 0
M  V30 9576 H 930.569 -2.80472 3.98982 0
M  V30 9577 H 929.574 -0.988171 5.40847 0
M  V30 9578 H 930.799 -1.29398 6.66658 0
M  V30 9579 H 928.745 -3.30336 5.66758 0
M  V30 9580 H 928.662 -2.42626 7.16009 0
M  V30 9581 H 929.93 -3.59068 6.91875 0
M  V30 9582 N 934.159 -1.57557 0.0367827 0
M  V30 9583 C 935.57 -1.79853 -0.500971 0
M  V30 9584 C 935.921 -0.947749 -1.71791 0
M  V30 9585 O 935.046 -0.160287 -2.15806 0
M  V30 9586 C 935.641 -3.26193 -0.915626 0
M  V30 9587 C 934.2 -3.49457 -1.39845 0
M  V30 9588 C 933.347 -2.74864 -0.366784 0
M  V30 9589 H 936.298 -1.56509 0.262768 0
M  V30 9590 H 936.319 -3.36324 -1.7795 0
M  V30 9591 H 935.831 -3.88089 -0.0297227 0
M  V30 9592 H 933.932 -2.92823 -2.30402 0
M  V30 9593 H 934.045 -4.58172 -1.40054 0
M  V30 9594 H 932.409 -2.4057 -0.836554 0
M  V30 9595 H 933.192 -3.39479 0.510785 0
M  V30 9596 N 935.637 0.236453 -1.55816 0
M  V30 9597 C 937.048 0.80468 -1.68469 0
M  V30 9598 C 937.399 1.85601 -0.636133 0
M  V30 9599 O 936.524 2.15323 0.215622 0
M  V30 9600 C 937.119 1.46634 -3.05424 0
M  V30 9601 C 935.678 1.98214 -3.19981 0
M  V30 9602 C 934.825 0.83695 -2.64368 0
M  V30 9603 H 937.776 0.0120647 -1.58695 0
M  V30 9604 H 937.797 2.33472 -3.00451 0
M  V30 9605 H 937.309 0.700931 -3.81718 0
M  V30 9606 H 935.41 2.77604 -2.4853 0
M  V30 9607 H 935.523 2.17235 -4.2702 0
M  V30 9608 H 933.887 1.24028 -2.22462 0
M  V30 9609 H 934.67 0.084451 -3.43196 0
M  V30 9610 N 937.115 1.49373 0.502552 0
M  V30 9611 C 938.343 1.62488 1.28084 0
M  V30 9612 C 938.758 0.295667 1.86471 0
M  V30 9613 O 938.115 -0.718664 1.67754 0
M  V30 9614 C 938.166 2.69249 2.4122 0
M  V30 9615 O 937.887 3.97014 1.85234 0
M  V30 9616 C 939.388 2.93054 3.32617 0
M  V30 9617 H 936.608 0.547068 0.388533 0
M  V30 9618 H 939.152 1.95394 0.603452 0
M  V30 9619 H 937.307 2.39125 3.04792 0
M  V30 9620 H 937.721 4.55809 2.59496 0
M  V30 9621 H 939.195 3.71493 4.08285 0
M  V30 9622 H 939.672 2.02911 3.89517 0
M  V30 9623 H 940.278 3.24589 2.74813 0
M  V30 9624 N 938.594 -0.753485 1.38421 0
M  V30 9625 C 939.541 -1.86723 1.35659 0
M  V30 9626 C 940.511 -1.64648 0.219121 0
M  V30 9627 O 941.696 -1.86313 0.411366 0
M  V30 9628 C 938.836 -3.24023 1.18758 0
M  V30 9629 C 937.949 -3.57928 2.41892 0
M  V30 9630 C 937.084 -4.84532 2.17721 0
M  V30 9631 C 936.123 -5.11224 3.36626 0
M  V30 9632 N 935.26 -6.29023 3.11889 0
M  V30 9633 H 940.1 -1.88419 2.30873 0
M  V30 9634 H 937.637 -0.920934 1.14705 0
M  V30 9635 H 939.595 -4.03252 1.06974 0
M  V30 9636 H 938.225 -3.21654 0.27182 0
M  V30 9637 H 937.277 -2.73541 2.64347 0
M  V30 9638 H 938.589 -3.73581 3.30513 0
M  V30 9639 H 937.743 -5.71704 2.03074 0
M  V30 9640 H 936.482 -4.71018 1.26465 0
M  V30 9641 H 935.487 -4.2252 3.51791 0
M  V30 9642 H 936.712 -5.26635 4.28757 0
M  V30 9643 H 934.658 -6.16832 2.2328 0
M  V30 9644 H 934.575 -6.45177 3.9406 0
M  V30 9645 H 935.843 -7.19083 3.00898 0
M  V30 9646 N 940.072 -1.23292 -0.981677 0
M  V30 9647 C 941.019 -1.01296 -2.07383 0
M  V30 9648 C 941.989 0.069139 -1.65956 0
M  V30 9649 O 943.174 -0.0827108 -1.90621 0
M  V30 9650 C 940.314 -0.608876 -3.39686 0
M  V30 9651 C 939.427 -1.76296 -3.9439 0
M  V30 9652 C 938.562 -1.30578 -5.14901 0
M  V30 9653 C 937.601 -2.4307 -5.61768 0
M  V30 9654 N 936.738 -1.98319 -6.73509 0
M  V30 9655 H 941.578 -1.9478 -2.25532 0
M  V30 9656 H 939.115 -0.970356 -1.10555 0
M  V30 9657 H 941.073 -0.355702 -4.15681 0
M  V30 9658 H 939.703 0.288961 -3.21504 0
M  V30 9659 H 938.755 -2.13017 -3.15163 0
M  V30 9660 H 940.067 -2.60871 -4.25145 0
M  V30 9661 H 939.221 -1.01066 -5.98223 0
M  V30 9662 H 937.96 -0.430386 -4.85797 0
M  V30 9663 H 936.965 -2.73358 -4.77028 0
M  V30 9664 H 938.19 -3.31144 -5.92892 0
M  V30 9665 H 936.136 -1.13157 -6.46167 0
M  V30 9666 H 936.053 -2.76454 -7.0364 0
M  V30 9667 H 937.321 -1.71907 -7.60308 0
M  V30 9668 N 941.55 1.18024 -1.04442 0
M  V30 9669 C 942.775 1.92573 -0.770097 0
M  V30 9670 C 943.2 1.75871 0.667169 0
M  V30 9671 O 942.558 1.07136 1.46258 0
M  V30 9672 C 942.606 3.41904 -1.14602 0
M  V30 9673 O 941.71 4.11491 -0.273712 0
M  V30 9674 H 941.051 0.600636 -0.283076 0
M  V30 9675 H 943.581 1.49645 -1.39526 0
M  V30 9676 H 943.591 3.92623 -1.10956 0
M  V30 9677 H 942.266 3.53382 -2.19304 0
M  V30 9678 H 940.843 3.71059 -0.370124 0
M  V30 9679 N 943.028 0.824394 1.34319 0
M  V30 9680 C 943.938 0.24932 2.33271 0
M  V30 9681 C 944.954 -0.617066 1.62691 0
M  V30 9682 O 946.13 -0.524616 1.94447 0
M  V30 9683 C 943.195 -0.578094 3.41846 0
M  V30 9684 C 942.256 0.310866 4.28173 0
M  V30 9685 C 941.489 -0.477153 5.31563 0
M  V30 9686 O 941.712 -1.71028 5.44156 0
M  V30 9687 O 940.646 0.141287 6.01734 0
M  V30 9688 H 944.472 1.06837 2.84288 0
M  V30 9689 H 942.057 0.58657 1.37403 0
M  V30 9690 H 943.939 -1.04878 4.0814 0
M  V30 9691 H 942.614 -1.37444 2.93071 0
M  V30 9692 H 941.521 0.829081 3.64797 0
M  V30 9693 H 942.854 1.07161 4.80393 0
M  V30 9694 N 944.506 -1.46559 0.579492 0
M  V30 9695 C 945.783 -1.956 -0.00287136 0
M  V30 9696 C 946.163 -1.52215 -1.46266 0
M  V30 9697 O 945.511 -0.771335 -2.15088 0
M  V30 9698 C 945.721 -3.48606 0.165824 0
M  V30 9699 C 947.069 -4.24588 0.0319807 0
M  V30 9700 O 948.093 -3.56075 0.094496 0
M  V30 9701 O 946.952 -5.46396 -0.106386 0
M  V30 9702 H 944.046 -0.825387 -0.0516274 0
M  V30 9703 H 946.592 -1.56858 0.647584 0
M  V30 9704 H 945.364 -3.7306 1.18076 0
M  V30 9705 H 944.987 -3.94169 -0.521212 0
M  V30 9706 N 945.984 -0.3171 -1.54377 0
M  V30 9707 C 947.209 0.292311 -2.0533 0
M  V30 9708 C 947.634 1.45503 -1.19207 0
M  V30 9709 O 946.992 1.80197 -0.199721 0
M  V30 9710 C 947.04 0.710787 -3.53525 0
M  V30 9711 O 946.144 1.81387 -3.70368 0
M  V30 9712 H 945.485 0.0539976 -0.661801 0
M  V30 9713 H 948.015 -0.463629 -1.99278 0
M  V30 9714 H 948.025 0.995216 -3.95676 0
M  V30 9715 H 946.7 -0.139668 -4.15665 0
M  V30 9716 H 945.277 1.52875 -3.40123 0
M  V30 9717 N 947.462 1.57535 -0.0451378 0
M  V30 9718 C 948.409 2.11176 0.931313 0
M  V30 9719 C 949.379 1.01765 1.31275 0
M  V30 9720 O 950.564 1.29279 1.40327 0
M  V30 9721 C 947.704 2.65639 2.20295 0
M  V30 9722 C 946.817 3.89114 1.87654 0
M  V30 9723 C 945.952 4.31914 3.09232 0
M  V30 9724 C 944.991 5.48105 2.72484 0
M  V30 9725 N 944.128 5.85986 3.86736 0
M  V30 9726 H 948.968 2.94318 0.466986 0
M  V30 9727 H 946.505 1.45462 0.218886 0
M  V30 9728 H 948.463 2.95312 2.94697 0
M  V30 9729 H 947.093 1.85303 2.64316 0
M  V30 9730 H 946.145 3.6607 1.03427 0
M  V30 9731 H 947.457 4.7358 1.56601 0
M  V30 9732 H 946.611 4.63108 3.91939 0
M  V30 9733 H 945.35 3.46247 3.43459 0
M  V30 9734 H 944.355 5.16589 1.88192 0
M  V30 9735 H 945.58 6.35482 2.39455 0
M  V30 9736 H 943.526 5.03273 4.20775 0
M  V30 9737 H 943.443 6.65129 3.5936 0
M  V30 9738 H 944.711 6.21793 4.701 0
M  V30 9739 N 948.94 -0.228186 1.55939 0
M  V30 9740 C 949.887 -1.28274 1.91871 0
M  V30 9741 C 950.857 -1.46906 0.775103 0
M  V30 9742 O 952.042 -1.60583 1.03042 0
M  V30 9743 C 949.182 -2.62945 2.23504 0
M  V30 9744 C 948.295 -2.52166 3.50766 0
M  V30 9745 C 947.43 -3.79316 3.71878 0
M  V30 9746 C 946.469 -3.63231 4.92676 0
M  V30 9747 N 945.606 -4.82315 5.10212 0
M  V30 9748 H 950.446 -0.96931 2.81795 0
M  V30 9749 H 947.983 -0.467331 1.39479 0
M  V30 9750 H 949.941 -3.41359 2.39854 0
M  V30 9751 H 948.571 -2.92397 1.36762 0
M  V30 9752 H 947.623 -1.65221 3.42646 0
M  V30 9753 H 948.935 -2.36199 4.39331 0
M  V30 9754 H 948.089 -4.66173 3.88288 0
M  V30 9755 H 946.828 -3.982 2.81581 0
M  V30 9756 H 945.833 -2.74757 4.76223 0
M  V30 9757 H 947.058 -3.45823 5.84451 0
M  V30 9758 H 945.004 -5.01526 4.22856 0
M  V30 9759 H 944.921 -4.6905 5.92898 0
M  V30 9760 H 946.189 -5.70618 5.31051 0
M  V30 9761 N 950.418 -1.49637 -0.494624 0
M  V30 9762 C 951.829 -1.52573 -1.07603 0
M  V30 9763 C 952.18 -0.315591 -1.93645 0
M  V30 9764 O 951.305 0.573966 -2.08649 0
M  V30 9765 C 951.9 -2.7648 -1.95817 0
M  V30 9766 C 950.459 -2.82173 -2.49109 0
M  V30 9767 C 949.606 -2.4657 -1.2688 0
M  V30 9768 H 952.557 -1.56242 -0.278251 0
M  V30 9769 H 952.578 -2.57003 -2.80588 0
M  V30 9770 H 952.09 -3.64538 -1.33167 0
M  V30 9771 H 950.191 -1.9841 -3.15379 0
M  V30 9772 H 950.304 -3.84501 -2.85825 0
M  V30 9773 H 948.668 -1.98489 -1.59607 0
M  V30 9774 H 949.451 -3.3691 -0.659281 0
M  V30 9775 N 951.896 0.746133 -1.38819 0
M  V30 9776 C 952.859 1.84167 -1.36437 0
M  V30 9777 C 953.859 1.58626 -0.263499 0
M  V30 9778 O 955.049 1.66233 -0.520801 0
M  V30 9779 C 952.181 3.21769 -1.12596 0
M  V30 9780 H 953.374 1.87684 -2.33912 0
M  V30 9781 H 950.927 0.948625 -1.24221 0
M  V30 9782 H 951.662 3.23917 -0.15758 0
M  V30 9783 H 951.447 3.41702 -1.92307 0
M  V30 9784 H 952.937 4.0184 -1.13643 0
M  V30 9785 N 953.375 1.23811 0.975125 0
M  V30 9786 C 954.652 0.9815 1.69192 0
M  V30 9787 C 955.032 -0.498373 2.05133 0
M  V30 9788 O 954.38 -1.47087 1.74864 0
M  V30 9789 C 954.59 1.89701 2.92941 0
M  V30 9790 C 955.938 2.16357 3.65342 0
M  V30 9791 O 956.962 1.87293 3.02985 0
M  V30 9792 O 955.821 2.65675 4.77576 0
M  V30 9793 H 952.915 0.370599 0.739314 0
M  V30 9794 H 955.461 1.34876 1.02988 0
M  V30 9795 H 954.233 2.89719 2.63018 0
M  V30 9796 H 953.856 1.53244 3.66881 0
M  V30 9797 N 954.853 -1.17469 1.05066 0
M  V30 9798 C 956.13 -1.83625 0.673872 0
M  V30 9799 C 956.51 -1.93412 -0.845871 0
M  V30 9800 O 955.858 -1.4677 -1.75131 0
M  V30 9801 C 956.068 -3.21352 1.36139 0
M  V30 9802 C 957.416 -3.97274 1.49863 0
M  V30 9803 O 958.44 -3.30827 1.3203 0
M  V30 9804 O 957.299 -5.16349 1.79013 0
M  V30 9805 H 954.393 -0.792297 0.237055 0
M  V30 9806 H 956.939 -1.24776 1.15017 0
M  V30 9807 H 955.711 -3.0919 2.39827 0
M  V30 9808 H 955.334 -3.87867 0.874364 0
M  V30 9809 N 956.331 -0.831506 -1.3388 0
M  V30 9810 C 957.263 -0.216908 -2.28171 0
M  V30 9811 C 958.276 0.598141 -1.51414 0
M  V30 9812 O 959.465 0.426416 -1.73332 0
M  V30 9813 C 956.565 0.713831 -3.31297 0
M  V30 9814 C 955.738 -0.0602673 -4.37358 0
M  V30 9815 C 954.797 0.792696 -5.20195 0
M  V30 9816 O 953.823 0.234564 -5.68716 0
M  V30 9817 N 955.025 2.11119 -5.40748 0
M  V30 9818 H 957.79 -1.02704 -2.81553 0
M  V30 9819 H 955.351 -0.689272 -1.46495 0
M  V30 9820 H 957.343 1.28925 -3.83615 0
M  V30 9821 H 955.913 1.42469 -2.78247 0
M  V30 9822 H 955.133 -0.817041 -3.8564 0
M  V30 9823 H 956.421 -0.592822 -5.05335 0
M  V30 9824 H 955.819 2.58828 -5.03016 0
M  V30 9825 H 954.376 2.63527 -5.96151 0
M  V30 9826 N 957.809 1.4625 -0.587256 0
M  V30 9827 C 959.086 1.95599 -0.00750181 0
M  V30 9828 C 959.466 1.52989 1.45457 0
M  V30 9829 O 958.814 0.782731 2.14676 0
M  V30 9830 C 959.024 3.48513 -0.184309 0
M  V30 9831 C 960.372 4.24565 -0.0544972 0
M  V30 9832 O 961.396 3.5602 -0.113378 0
M  V30 9833 O 960.255 5.46445 0.0774075 0
M  V30 9834 H 957.349 0.825649 0.0472495 0
M  V30 9835 H 959.895 1.56512 -0.655893 0
M  V30 9836 H 958.667 3.72428 -1.20053 0
M  V30 9837 H 958.29 3.9444 0.500301 0
M  V30 9838 N 959.287 0.325282 1.54207 0
M  V30 9839 C 960.698 -0.162426 1.85992 0
M  V30 9840 C 961.049 -1.51482 1.2469 0
M  V30 9841 O 960.174 -2.092 0.553578 0
M  V30 9842 C 960.769 -0.3015 3.37456 0
M  V30 9843 C 959.328 -0.73343 3.69185 0
M  V30 9844 C 958.475 0.143831 2.76927 0
M  V30 9845 H 961.426 0.545508 1.4903 0
M  V30 9846 H 961.447 -1.13212 3.63268 0
M  V30 9847 H 960.959 0.682942 3.82044 0
M  V30 9848 H 959.06 -1.72755 3.30131 0
M  V30 9849 H 959.173 -0.535987 4.76092 0
M  V30 9850 H 957.537 -0.380892 2.51836 0
M  V30 9851 H 958.32 1.12507 3.24341 0
M  V30 9852 N 960.765 -1.57509 0.0534917 0
M  V30 9853 C 962.014 -1.91959 -0.619244 0
M  V30 9854 C 962.327 -0.933882 -1.71866 0
M  V30 9855 O 963.533 -1.17052 -2.44972 0
M  V30 9856 C 961.989 -3.40938 -1.15278 0
M  V30 9857 C 961.597 -4.47919 -0.085348 0
M  V30 9858 C 963.341 -3.84419 -1.80063 0
M  V30 9859 C 961.248 -5.88014 -0.631897 0
M  V30 9860 H 960.178 -0.71642 -0.235072 0
M  V30 9861 H 962.829 -1.83089 0.122758 0
M  V30 9862 H 961.211 -3.44821 -1.94717 0
M  V30 9863 H 962.385 -4.55629 0.688374 0
M  V30 9864 H 960.7 -4.13793 0.465178 0
M  V30 9865 H 963.297 -4.86457 -2.21954 0
M  V30 9866 H 963.64 -3.20791 -2.65328 0
M  V30 9867 H 964.173 -3.83062 -1.07275 0
M  V30 9868 H 960.912 -6.55244 0.183175 0
M  V30 9869 H 960.432 -5.83861 -1.37355 0
M  V30 9870 H 962.111 -6.37336 -1.11407 0
M  V30 9871 N 962.243 0.219913 -1.56058 0
M  V30 9872 C 963.52 0.968493 -1.6994 0
M  V30 9873 C 963.9 2.02358 -0.601219 0
M  V30 9874 O 963.248 2.25121 0.391534 0
M  V30 9875 C 963.458 1.57745 -3.11316 0
M  V30 9876 C 964.806 2.06908 -3.70775 0
M  V30 9877 O 965.83 1.67636 -3.14288 0
M  V30 9878 O 964.689 2.79096 -4.69859 0
M  V30 9879 H 961.783 0.452521 -0.692209 0
M  V30 9880 H 964.329 0.211566 -1.68376 0
M  V30 9881 H 963.101 0.815687 -3.82704 0
M  V30 9882 H 962.724 2.39987 -3.17005 0
M  V30 9883 N 963.721 1.49897 0.486681 0
M  V30 9884 C 964.684 1.67086 1.56891 0
M  V30 9885 C 965.684 0.54209 1.51387 0
M  V30 9886 O 966.874 0.80883 1.54284 0
M  V30 9887 C 964.006 1.68159 2.96539 0
M  V30 9888 H 965.199 2.63626 1.42974 0
M  V30 9889 H 962.752 1.39143 0.711954 0
M  V30 9890 H 963.487 0.732562 3.15918 0
M  V30 9891 H 963.272 2.50147 3.01942 0
M  V30 9892 H 964.762 1.83466 3.7514 0
M  V30 9893 N 965.199 -0.738761 1.39212 0
M  V30 9894 C 966.129 -1.86602 1.40364 0
M  V30 9895 C 967.11 -1.67984 0.267495 0
M  V30 9896 O 968.295 -1.88358 0.472765 0
M  V30 9897 C 965.425 -3.24308 1.24265 0
M  V30 9898 C 964.379 -3.57557 2.35239 0
M  V30 9899 C 963.705 -4.94159 2.04233 0
M  V30 9900 C 965.005 -3.60914 3.77543 0
M  V30 9901 H 966.699 -1.85896 2.34698 0
M  V30 9902 H 964.245 -0.892959 1.1297 0
M  V30 9903 H 966.198 -4.02838 1.23692 0
M  V30 9904 H 964.922 -3.25531 0.263974 0
M  V30 9905 H 963.581 -2.81354 2.35022 0
M  V30 9906 H 963.229 -4.91959 1.04813 0
M  V30 9907 H 962.929 -5.17373 2.78567 0
M  V30 9908 H 964.453 -5.7505 2.05303 0
M  V30 9909 H 965.867 -4.29528 3.79709 0
M  V30 9910 H 964.264 -3.95644 4.51205 0
M  V30 9911 H 965.334 -2.60803 4.08791 0
M  V30 9912 N 966.677 -1.24326 -0.968545 0
M  V30 9913 C 967.902 -1.1104 -1.75171 0
M  V30 9914 C 968.327 0.333109 -1.85127 0
M  V30 9915 O 967.685 1.24115 -1.32156 0
M  V30 9916 C 967.733 -1.75397 -3.15068 0
M  V30 9917 O 966.837 -1.02417 -3.9948 0
M  V30 9918 H 966.178 -0.388488 -0.538491 0
M  V30 9919 H 968.708 -1.64617 -1.215 0
M  V30 9920 H 968.718 -1.8112 -3.65595 0
M  V30 9921 H 967.393 -2.80427 -3.07138 0
M  V30 9922 H 965.97 -1.04475 -3.57966 0
M  V30 9923 N 968.156 1.1691 -1.05688 0
M  V30 9924 C 969.404 1.86922 -0.768409 0
M  V30 9925 C 969.725 1.81735 0.706921 0
M  V30 9926 O 968.995 1.24671 1.51109 0
M  V30 9927 H 967.575 0.69203 -0.281253 0
M  V30 9928 H 970.237 1.41803 -1.33708 0
M  V30 9929 H 969.333 2.92528 -1.08783 0
M  V30 9930 N 969.634 0.838594 1.33437 0
M  V30 9931 C 970.911 0.356112 1.92331 0
M  V30 9932 C 971.291 -1.1585 1.76471 0
M  V30 9933 O 970.639 -1.97281 1.15293 0
M  V30 9934 C 970.849 0.802715 3.39643 0
M  V30 9935 C 972.197 0.810575 4.16791 0
M  V30 9936 O 973.221 0.746304 3.48294 0
M  V30 9937 O 972.08 0.898082 5.3907 0
M  V30 9938 H 969.174 0.100711 0.820845 0
M  V30 9939 H 971.72 0.924428 1.42311 0
M  V30 9940 H 970.492 1.84529 3.45057 0
M  V30 9941 H 970.115 0.210956 3.9704 0
M  V30 9942 N 971.112 -1.45937 0.595003 0
M  V30 9943 C 972.042 -2.33198 -0.11871 0
M  V30 9944 C 973.023 -1.46083 -0.871423 0
M  V30 9945 O 974.208 -1.74879 -0.844461 0
M  V30 9946 C 971.338 -3.28576 -1.12495 0
M  V30 9947 C 970.292 -4.25229 -0.486275 0
M  V30 9948 C 969.618 -5.10204 -1.59986 0
M  V30 9949 C 970.918 -5.19019 0.584473 0
M  V30 9950 H 972.612 -2.93122 0.609886 0
M  V30 9951 H 970.158 -1.40951 0.294742 0
M  V30 9952 H 972.111 -3.88485 -1.6327 0
M  V30 9953 H 970.835 -2.66784 -1.88398 0
M  V30 9954 H 969.494 -3.666 0.000507962 0
M  V30 9955 H 969.142 -4.44789 -2.34886 0
M  V30 9956 H 968.842 -5.75669 -1.1781 0
M  V30 9957 H 970.366 -5.7298 -2.11014 0
M  V30 9958 H 971.78 -5.73073 0.161297 0
M  V30 9959 H 970.177 -5.92893 0.927256 0
M  V30 9960 H 971.247 -4.62208 1.46601 0
M  V30 9961 N 972.59 -0.333456 -1.54032 0
M  V30 9962 C 973.867 0.320902 -1.9295 0
M  V30 9963 C 974.247 1.69071 -1.26405 0
M  V30 9964 O 973.595 2.24768 -0.411311 0
M  V30 9965 C 973.805 0.403257 -3.46662 0
M  V30 9966 C 975.153 0.658875 -4.19457 0
M  V30 9967 O 976.177 0.485781 -3.52872 0
M  V30 9968 O 975.036 0.993475 -5.37394 0
M  V30 9969 H 972.13 0.185158 -0.806006 0
M  V30 9970 H 974.676 -0.383895 -1.65301 0
M  V30 9971 H 973.448 -0.558409 -3.87295 0
M  V30 9972 H 973.071 1.15524 -3.80447 0
M  V30 9973 N 974.068 1.57479 -0.061844 0
M  V30 9974 C 975.293 1.97843 0.622311 0
M  V30 9975 C 975.718 0.939602 1.62951 0
M  V30 9976 O 975.076 -0.095958 1.81046 0
M  V30 9977 C 975.124 3.37262 1.2762 0
M  V30 9978 O 974.228 3.35943 2.39199 0
M  V30 9979 H 973.569 0.644212 0.160896 0
M  V30 9980 H 976.099 2.04165 -0.133409 0
M  V30 9981 H 976.109 3.74226 1.62539 0
M  V30 9982 H 974.784 4.12404 0.538112 0
M  V30 9983 H 973.361 3.10737 2.06148 0
M  V30 9984 N 975.546 -0.211634 1.56173 0
M  V30 9985 C 976.786 -0.941505 1.81425 0
M  V30 9986 C 977.15 -1.8113 0.636862 0
M  V30 9987 O 978.351 -2.57568 0.768907 0
M  V30 9988 C 976.622 -1.75002 3.11623 0
M  V30 9989 S 978.181 -2.53418 3.58225 0
M  V30 9990 H 974.999 -0.316088 0.636875 0
M  V30 9991 H 977.601 -0.206244 1.94409 0
M  V30 9992 H 976.305 -1.10136 3.95346 0
M  V30 9993 H 975.836 -2.5274 3.01473 0
M  V30 9994 H 977.851 -3.77234 3.22349 0
M  V30 9995 N 977.024 -1.50153 -0.478725 0
M  V30 9996 C 978.435 -1.53706 -1.05978 0
M  V30 9997 C 978.786 -0.336112 -1.933 0
M  V30 9998 O 977.911 0.551803 -2.09246 0
M  V30 9999 C 978.506 -2.78541 -1.92874 0
M  V30 10000 C 977.065 -2.848 -2.46102 0
M  V30 10001 C 976.212 -2.47902 -1.24257 0
M  V30 10002 H 979.163 -1.56528 -0.261664 0
M  V30 10003 H 979.184 -2.59964 -2.77847 0
M  V30 10004 H 978.696 -3.6593 -1.29293 0
M  V30 10005 H 976.797 -2.01744 -3.13257 0
M  V30 10006 H 976.91 -3.87511 -2.81731 0
M  V30 10007 H 975.274 -2.0017 -1.57493 0
M  V30 10008 H 976.057 -3.3759 -0.62351 0
M  V30 10009 N 978.502 0.731368 -1.39602 0
M  V30 10010 C 979.727 1.52567 -1.40492 0
M  V30 10011 C 980.152 1.881 -0.00228828 0
M  V30 10012 O 979.51 1.52167 0.985643 0
M  V30 10013 C 979.558 2.78749 -2.2876 0
M  V30 10014 O 978.662 3.7482 -1.71999 0
M  V30 10015 H 978.003 0.460601 -0.478271 0
M  V30 10016 H 980.533 0.902042 -1.83642 0
M  V30 10017 H 980.543 3.27446 -2.43399 0
M  V30 10018 H 979.218 2.5222 -3.30693 0
M  V30 10019 H 977.795 3.33604 -1.66622 0
M  V30 10020 N 979.98 1.24838 0.961938 0
M  V30 10021 C 981.208 1.11871 1.74047 0
M  V30 10022 C 981.623 -0.328209 1.85925 0
M  V30 10023 O 980.98 -1.22616 1.35173 0
M  V30 10024 C 981.031 1.75931 3.15801 0
M  V30 10025 O 980.752 3.14967 3.04512 0
M  V30 10026 C 982.253 1.68649 4.09966 0
M  V30 10027 H 979.473 0.390569 0.545616 0
M  V30 10028 H 982.017 1.65058 1.20732 0
M  V30 10029 H 980.172 1.26733 3.66084 0
M  V30 10030 H 980.586 3.46349 3.93882 0
M  V30 10031 H 982.06 2.18144 5.07067 0
M  V30 10032 H 982.537 0.648831 4.34381 0
M  V30 10033 H 983.143 2.17301 3.65596 0
M  V30 10034 N 981.458 -1.16348 1.06306 0
M  V30 10035 C 982.686 -1.90782 0.800614 0
M  V30 10036 C 983.101 -1.77439 -0.645033 0
M  V30 10037 O 982.458 -1.11912 -1.4416 0
M  V30 10038 C 982.509 -3.41484 1.18621 0
M  V30 10039 O 982.23 -3.54428 2.57512 0
M  V30 10040 C 983.731 -4.32968 0.951525 0
M  V30 10041 H 980.951 -0.604977 0.290247 0
M  V30 10042 H 983.495 -1.47476 1.41672 0
M  V30 10043 H 981.65 -3.82493 0.614633 0
M  V30 10044 H 982.064 -4.4788 2.72954 0
M  V30 10045 H 983.538 -5.37169 1.27095 0
M  V30 10046 H 984.015 -4.39055 -0.112734 0
M  V30 10047 H 984.621 -3.97687 1.50749 0
M  V30 10048 N 982.937 -0.845659 -1.3299 0
M  V30 10049 C 983.847 -0.2864 -2.32845 0
M  V30 10050 C 984.863 0.591105 -1.63652 0
M  V30 10051 O 986.039 0.493615 -1.95257 0
M  V30 10052 C 983.104 0.523636 -3.42723 0
M  V30 10053 C 982.165 -0.378945 -4.27624 0
M  V30 10054 C 981.398 0.392526 -5.32255 0
M  V30 10055 O 981.621 1.6235 -5.46808 0
M  V30 10056 O 980.555 -0.237 -6.01433 0
M  V30 10057 H 984.381 -1.11346 -2.82552 0
M  V30 10058 H 981.966 -0.608356 -1.36453 0
M  V30 10059 H 983.848 0.983718 -4.09757 0
M  V30 10060 H 982.523 1.32764 -2.95221 0
M  V30 10061 H 981.43 -0.887012 -3.63432 0
M  V30 10062 H 982.763 -1.1479 -4.78627 0
M  V30 10063 N 984.415 1.45619 -0.602734 0
M  V30 10064 C 985.643 2.06647 -0.102253 0
M  V30 10065 C 986.058 1.4482 1.21131 0
M  V30 10066 O 985.415 0.560621 1.73676 0
M  V30 10067 C 985.466 3.61467 0.0490113 0
M  V30 10068 O 985.187 4.20985 -1.21257 0
M  V30 10069 C 986.688 4.39469 0.581517 0
M  V30 10070 H 983.908 0.667685 -0.0666155 0
M  V30 10071 H 986.452 1.86939 -0.829091 0
M  V30 10072 H 984.607 3.80534 0.726153 0
M  V30 10073 H 985.021 5.14103 -1.03915 0
M  V30 10074 H 986.495 5.48318 0.636462 0
M  V30 10075 H 986.972 4.0891 1.60277 0
M  V30 10076 H 987.578 4.25256 -0.061419 0
M  V30 10077 N 985.893 0.34162 1.53853 0
M  V30 10078 C 987.118 -0.259608 2.05769 0
M  V30 10079 C 987.543 -1.43588 1.21507 0
M  V30 10080 O 986.901 -1.79856 0.228364 0
M  V30 10081 C 986.949 -0.654455 3.54611 0
M  V30 10082 O 986.053 -1.75472 3.73207 0
M  V30 10083 H 985.394 -0.0434621 0.662576 0
M  V30 10084 H 987.924 0.495274 1.98515 0
M  V30 10085 H 987.934 -0.932142 3.97209 0
M  V30 10086 H 986.609 0.205779 4.15391 0
M  V30 10087 H 985.186 -1.47444 3.42512 0
M  V30 10088 N 987.371 -1.57444 0.0701946 0
M  V30 10089 C 988.303 -2.09611 -0.927142 0
M  V30 10090 C 989.316 -1.02791 -1.26245 0
M  V30 10091 O 990.505 -1.30309 -1.21992 0
M  V30 10092 C 987.605 -2.54015 -2.24342 0
M  V30 10093 C 986.778 -3.84389 -2.08719 0
M  V30 10094 C 985.837 -4.14904 -3.23638 0
M  V30 10095 O 984.863 -4.84528 -2.98699 0
M  V30 10096 N 986.065 -3.68322 -4.48686 0
M  V30 10097 H 988.83 -2.95803 -0.481753 0
M  V30 10098 H 986.391 -1.61487 -0.115572 0
M  V30 10099 H 988.383 -2.71492 -3.00124 0
M  V30 10100 H 986.953 -1.72969 -2.60385 0
M  V30 10101 H 986.173 -3.76308 -1.17415 0
M  V30 10102 H 987.461 -4.69729 -1.9553 0
M  V30 10103 H 986.859 -3.12073 -4.71834 0
M  V30 10104 H 985.416 -3.91002 -5.21499 0
M  V30 10105 N 988.849 0.203349 -1.56283 0
M  V30 10106 C 989.797 1.27157 -1.94766 0
M  V30 10107 C 990.791 1.4756 -0.832005 0
M  V30 10108 O 991.997 1.48519 -1.01696 0
M  V30 10109 H 988.372 0.426712 -0.61921 0
M  V30 10110 H 990.343 0.919921 -2.83866 0
M  V30 10111 C 989.092 2.6108 -2.29636 0
M  V30 10112 H 988.415 2.46193 -3.15006 0
M  V30 10113 H 989.855 3.34591 -2.60433 0
M  V30 10114 C 988.314 3.17456 -1.12799 0
M  V30 10115 O 988.844 3.99717 -0.398661 0
M  V30 10116 N 987.05 2.76084 -0.906975 0
M  V30 10117 H 986.597 2.09294 -1.50179 0
M  V30 10118 H 986.555 3.14143 -0.127005 0
M  V30 10119 N 990.327 1.50405 0.470755 0
M  V30 10120 C 991.555 1.65168 1.24608 0
M  V30 10121 C 991.97 0.335153 1.85801 0
M  V30 10122 O 991.327 -0.682919 1.69241 0
M  V30 10123 C 991.378 2.74305 2.35455 0
M  V30 10124 O 991.099 4.00854 1.76771 0
M  V30 10125 C 992.6 3.00044 3.26326 0
M  V30 10126 H 989.82 0.555186 0.376842 0
M  V30 10127 H 992.364 1.9663 0.56187 0
M  V30 10128 H 990.519 2.45536 2.99651 0
M  V30 10129 H 990.933 4.61211 2.49769 0
M  V30 10130 H 992.407 3.8007 4.00313 0
M  V30 10131 H 992.884 2.11128 3.85126 0
M  V30 10132 H 993.49 3.30345 2.67866 0
M  V30 10133 N 991.805 -0.723954 1.39988 0
M  V30 10134 C 992.768 -1.81973 1.3935 0
M  V30 10135 C 993.768 -1.58187 0.288702 0
M  V30 10136 O 994.958 -1.65383 0.547181 0
M  V30 10137 C 992.09 -3.19937 1.177 0
M  V30 10138 H 993.283 -1.83939 2.36868 0
M  V30 10139 H 990.836 -0.928742 1.25714 0
M  V30 10140 H 991.571 -3.23625 0.209093 0
M  V30 10141 H 991.356 -3.386 1.97719 0
M  V30 10142 H 992.846 -3.99981 1.20022 0
M  V30 10143 N 993.283 -1.25346 -0.955304 0
M  V30 10144 C 994.23 -1.05672 -2.05188 0
M  V30 10145 C 995.2 0.0339217 -1.66065 0
M  V30 10146 O 996.385 -0.123126 -1.90402 0
M  V30 10147 C 993.525 -0.680791 -3.38318 0
M  V30 10148 C 992.638 -1.84622 -3.90562 0
M  V30 10149 C 991.773 -1.41471 -5.12015 0
M  V30 10150 C 990.812 -2.54931 -5.56486 0
M  V30 10151 N 989.949 -2.1256 -6.69151 0
M  V30 10152 H 994.789 -1.9952 -2.2135 0
M  V30 10153 H 992.326 -0.993588 -1.08472 0
M  V30 10154 H 994.284 -0.443794 -4.14833 0
M  V30 10155 H 992.914 0.2207 -3.22045 0
M  V30 10156 H 991.966 -2.19654 -3.10574 0
M  V30 10157 H 993.278 -2.6983 -4.19515 0
M  V30 10158 H 992.432 -1.13732 -5.95945 0
M  V30 10159 H 991.171 -0.533334 -4.84775 0
M  V30 10160 H 990.176 -2.83415 -4.71122 0
M  V30 10161 H 991.401 -3.43645 -5.85734 0
M  V30 10162 H 989.347 -1.26838 -6.43621 0
M  V30 10163 H 989.264 -2.91317 -6.97618 0
M  V30 10164 H 990.532 -1.87996 -7.5649 0
M  V30 10165 N 994.761 1.15782 -1.06922 0
M  V30 10166 C 996.038 1.8253 -0.703 0
M  V30 10167 C 996.418 1.94733 0.814994 0
M  V30 10168 O 995.766 1.49537 1.72774 0
M  V30 10169 C 995.976 3.19145 -1.41234 0
M  V30 10170 C 997.324 3.94839 -1.56164 0
M  V30 10171 O 998.348 3.28685 -1.37277 0
M  V30 10172 O 997.207 5.13436 -1.87205 0
M  V30 10173 H 994.301 0.788425 -0.24963 0
M  V30 10174 H 996.847 1.22931 -1.16988 0
M  V30 10175 H 995.619 3.05336 -2.44715 0
M  V30 10176 H 995.242 3.86427 -0.935959 0
M  V30 10177 N 996.239 0.8527 1.3254 0
M  V30 10178 C 997.186 0.293905 2.28921 0
M  V30 10179 C 998.156 -0.598027 1.54961 0
M  V30 10180 O 999.341 -0.533355 1.83194 0
M  V30 10181 C 996.481 -0.513361 3.4126 0
M  V30 10182 C 995.594 0.404144 4.30105 0
M  V30 10183 C 994.729 -0.415564 5.29572 0
M  V30 10184 C 993.768 0.499461 6.10059 0
M  V30 10185 N 992.905 -0.282949 7.0153 0
M  V30 10186 H 997.745 1.12107 2.76109 0
M  V30 10187 H 995.282 0.564272 1.35847 0
M  V30 10188 H 997.24 -0.997008 4.05112 0
M  V30 10189 H 995.87 -1.30537 2.95229 0
M  V30 10190 H 994.922 1.00617 3.66852 0
M  V30 10191 H 996.234 1.10648 4.86373 0
M  V30 10192 H 995.388 -0.962458 5.99017 0
M  V30 10193 H 994.127 -1.15127 4.73917 0
M  V30 10194 H 993.132 1.05825 5.39519 0
M  V30 10195 H 994.357 1.23375 6.67799 0
M  V30 10196 H 992.303 -1.00179 6.48306 0
M  V30 10197 H 992.22 0.36039 7.55141 0
M  V30 10198 H 993.488 -0.811632 7.75263 0
M  V30 10199 N 997.718 -1.45297 0.610449 0
M  V30 10200 C 998.958 -2.04105 0.109802 0
M  V30 10201 C 999.322 -1.46818 -1.23727 0
M  V30 10202 O 1000.52 -1.96997 -1.82881 0
M  V30 10203 C 998.794 -3.57323 0.0741377 0
M  V30 10204 S 1000.35 -4.3728 -0.364901 0
M  V30 10205 H 997.171 -0.709171 0.050967 0
M  V30 10206 H 999.773 -1.77967 0.809194 0
M  V30 10207 H 998.477 -3.96528 1.05801 0
M  V30 10208 H 998.008 -3.8804 -0.647158 0
M  V30 10209 H 1000.02 -4.69224 -1.61379 0
M  V30 10210 N 999.196 -0.349774 -1.5367 0
M  V30 10211 C 1000.14 0.504121 -2.25227 0
M  V30 10212 C 1001.11 1.09048 -1.2529 0
M  V30 10213 O 1002.3 1.12594 -1.54037 0
M  V30 10214 C 999.438 1.64601 -3.03316 0
M  V30 10215 C 998.551 1.08635 -4.18118 0
M  V30 10216 C 997.686 2.19605 -4.83681 0
M  V30 10217 C 996.725 1.61023 -5.90541 0
M  V30 10218 N 995.862 2.6576 -6.49858 0
M  V30 10219 H 1000.7 -0.112621 -2.97787 0
M  V30 10220 H 998.239 -0.0673503 -1.46946 0
M  V30 10221 H 1000.2 2.31836 -3.46854 0
M  V30 10222 H 998.827 2.23364 -2.33041 0
M  V30 10223 H 997.879 0.304748 -3.79177 0
M  V30 10224 H 999.191 0.617911 -4.94958 0
M  V30 10225 H 998.345 2.94693 -5.30322 0
M  V30 10226 H 997.084 2.69795 -4.06278 0
M  V30 10227 H 996.089 0.844428 -5.43277 0
M  V30 10228 H 997.314 1.11677 -6.69855 0
M  V30 10229 H 995.26 3.15193 -5.75317 0
M  V30 10230 H 995.177 2.23557 -7.2219 0
M  V30 10231 H 996.445 3.40598 -7.01151 0
M  V30 10232 N 1000.67 1.57404 -0.0785433 0
M  V30 10233 C 1001.62 2.13104 0.88631 0
M  V30 10234 C 1002.59 1.04527 1.29086 0
M  V30 10235 O 1003.78 1.32226 1.37553 0
M  V30 10236 C 1000.92 2.70252 2.14611 0
M  V30 10237 C 1000.03 3.93007 1.79358 0
M  V30 10238 C 999.164 4.38376 3 0
M  V30 10239 C 998.203 5.53761 2.60796 0
M  V30 10240 N 997.34 5.94058 3.74219 0
M  V30 10241 H 1002.18 2.95243 0.404452 0
M  V30 10242 H 999.717 1.45894 0.187982 0
M  V30 10243 H 1001.67 3.01497 2.88367 0
M  V30 10244 H 1000.3 1.90868 2.60326 0
M  V30 10245 H 999.357 3.68181 0.956384 0
M  V30 10246 H 1000.67 4.76795 1.4652 0
M  V30 10247 H 999.823 4.71317 3.82027 0
M  V30 10248 H 998.562 3.53455 3.36037 0
M  V30 10249 H 997.567 5.20464 1.77192 0
M  V30 10250 H 998.792 6.40419 2.25922 0
M  V30 10251 H 996.738 5.12085 4.10005 0
M  V30 10252 H 996.655 6.72602 3.45171 0
M  V30 10253 H 997.923 6.31624 4.56805 0
M  V30 10254 N 1002.15 -0.195058 1.56388 0
M  V30 10255 C 1003.11 -1.2254 1.93692 0
M  V30 10256 C 1004.11 -1.38437 0.81804 0
M  V30 10257 O 1005.3 -1.36248 1.08545 0
M  V30 10258 C 1002.44 -2.59476 2.21099 0
M  V30 10259 H 1003.63 -0.906544 2.8587 0
M  V30 10260 H 1001.18 -0.436577 1.50079 0
M  V30 10261 H 1001.92 -2.96417 1.31558 0
M  V30 10262 H 1001.7 -2.4931 3.02634 0
M  V30 10263 H 1003.19 -3.33777 2.50964 0
M  V30 10264 N 1003.63 -1.50653 -0.462772 0
M  V30 10265 C 1004.59 -1.69561 -1.54213 0
M  V30 10266 C 1005.59 -0.566106 -1.50505 0
M  V30 10267 O 1006.78 -0.833273 -1.52978 0
M  V30 10268 C 1003.91 -1.72856 -2.93826 0
M  V30 10269 H 1005.11 -2.65867 -1.38761 0
M  V30 10270 H 1002.66 -1.40259 -0.689728 0
M  V30 10271 H 1003.4 -0.78273 -3.14712 0
M  V30 10272 H 1003.18 -2.54919 -2.97924 0
M  V30 10273 H 1004.67 -1.89411 -3.72174 0
M  V30 10274 N 1005.11 0.71652 -1.4037 0
M  V30 10275 C 1006.33 1.51069 -1.42102 0
M  V30 10276 C 1006.76 1.88087 -0.0222387 0
M  V30 10277 O 1006.12 1.53204 0.969448 0
M  V30 10278 C 1006.16 2.76307 -2.31704 0
M  V30 10279 O 1005.27 3.72975 -1.75964 0
M  V30 10280 H 1004.61 0.455502 -0.483129 0
M  V30 10281 H 1007.14 0.882514 -1.84588 0
M  V30 10282 H 1007.15 3.24846 -2.46859 0
M  V30 10283 H 1005.82 2.48698 -3.3335 0
M  V30 10284 H 1004.4 3.31818 -1.70151 0
M  V30 10285 N 1006.59 1.25851 0.948643 0
M  V30 10286 C 1007.81 1.13813 1.73382 0
M  V30 10287 C 1008.24 -0.303615 1.85633 0
M  V30 10288 O 1007.59 -1.21997 1.34114 0
M  V30 10289 C 1007.64 1.80388 3.12238 0
M  V30 10290 O 1006.75 1.08759 3.978 0
M  V30 10291 H 1006.09 0.397006 0.532243 0
M  V30 10292 H 1008.62 1.66529 1.18866 0
M  V30 10293 H 1008.63 1.86913 3.62667 0
M  V30 10294 H 1007.3 2.85278 3.02637 0
M  V30 10295 H 1005.88 1.10157 3.56258 0
M  V30 10296 N 1008.06 -1.15214 1.07534 0
M  V30 10297 C 1009.29 -1.90463 0.820883 0
M  V30 10298 C 1009.71 -1.77578 -0.620305 0
M  V30 10299 O 1009.07 -1.10976 -1.43366 0
M  V30 10300 C 1009.12 -3.38746 1.23627 0
M  V30 10301 O 1008.22 -4.1062 0.382715 0
M  V30 10302 H 1007.57 -0.59292 0.298901 0
M  V30 10303 H 1010.1 -1.45893 1.43445 0
M  V30 10304 H 1010.11 -3.89543 1.21327 0
M  V30 10305 H 1008.78 -3.47443 2.28596 0
M  V30 10306 H 1007.36 -3.69947 0.468374 0
M  V30 10307 N 1009.54 -0.859717 -1.32086 0
M  V30 10308 C 1010.49 -0.306042 -2.28762 0
M  V30 10309 C 1011.46 0.589801 -1.55276 0
M  V30 10310 O 1012.64 0.523633 -1.83474 0
M  V30 10311 C 1009.78 0.495256 -3.41528 0
M  V30 10312 C 1008.9 -0.426947 -4.29885 0
M  V30 10313 C 1008.03 0.387474 -5.29785 0
M  V30 10314 C 1007.07 -0.531807 -6.09785 0
M  V30 10315 N 1006.21 0.245741 -7.0167 0
M  V30 10316 H 1011.05 -1.1357 -2.7551 0
M  V30 10317 H 1008.59 -0.571468 -1.35546 0
M  V30 10318 H 1010.54 0.97551 -4.05635 0
M  V30 10319 H 1009.17 1.28969 -2.95917 0
M  V30 10320 H 1008.23 -1.02561 -3.66313 0
M  V30 10321 H 1009.54 -1.13226 -4.85779 0
M  V30 10322 H 1008.69 0.930677 -5.99519 0
M  V30 10323 H 1007.43 1.12612 -4.74521 0
M  V30 10324 H 1006.44 -1.08685 -5.3895 0
M  V30 10325 H 1007.66 -1.26915 -6.67135 0
M  V30 10326 H 1005.61 0.967391 -6.48828 0
M  V30 10327 H 1005.52 -0.400432 -7.54939 0
M  V30 10328 H 1006.79 0.770507 -7.75683 0
M  V30 10329 N 1011.02 1.44971 -0.618145 0
M  V30 10330 C 1011.98 2.29044 0.0846739 0
M  V30 10331 C 1012.98 1.40341 0.784921 0
M  V30 10332 O 1014.17 1.62351 0.631479 0
M  V30 10333 C 1011.31 3.21617 1.13027 0
M  V30 10334 H 1012.5 2.92668 -0.654612 0
M  V30 10335 H 1010.05 1.51668 -0.377672 0
M  V30 10336 H 1010.79 2.62815 1.89997 0
M  V30 10337 H 1010.57 3.86969 0.63224 0
M  V30 10338 H 1012.06 3.84805 1.62218 0
M  V30 10339 N 1012.5 0.357919 1.53482 0
M  V30 10340 C 1013.91 -0.122938 1.86295 0
M  V30 10341 C 1014.26 -1.48803 1.27875 0
M  V30 10342 O 1013.39 -2.07978 0.597828 0
M  V30 10343 C 1013.98 -0.229853 3.38019 0
M  V30 10344 C 1012.54 -0.654955 3.70658 0
M  V30 10345 C 1011.69 0.202539 2.76559 0
M  V30 10346 H 1014.64 0.576997 1.47839 0
M  V30 10347 H 1014.66 -1.05481 3.65587 0
M  V30 10348 H 1014.17 0.763825 3.80509 0
M  V30 10349 H 1012.27 -1.65714 3.33721 0
M  V30 10350 H 1012.38 -0.43488 4.77122 0
M  V30 10351 H 1010.75 -0.327388 2.52587 0
M  V30 10352 H 1011.53 1.19361 3.21882 0
M  V30 10353 N 1013.98 -1.5736 0.0868897 0
M  V30 10354 C 1014.92 -2.13571 -0.874996 0
M  V30 10355 C 1015.89 -1.0521 -1.2853 0
M  V30 10356 O 1017.08 -1.32954 -1.3685 0
M  V30 10357 C 1014.22 -2.71386 -2.13175 0
M  V30 10358 C 1013.33 -3.93953 -1.77272 0
M  V30 10359 C 1012.47 -4.3996 -2.97671 0
M  V30 10360 C 1011.51 -5.55137 -2.57856 0
M  V30 10361 N 1010.64 -5.96034 -3.71064 0
M  V30 10362 H 1015.48 -2.95453 -0.388789 0
M  V30 10363 H 1013.02 -1.45992 -0.180242 0
M  V30 10364 H 1014.98 -3.03022 -2.86764 0
M  V30 10365 H 1013.61 -1.92245 -2.5931 0
M  V30 10366 H 1012.66 -3.68683 -0.936845 0
M  V30 10367 H 1013.97 -4.77565 -1.43989 0
M  V30 10368 H 1013.13 -4.73337 -3.79522 0
M  V30 10369 H 1011.86 -3.55232 -3.34158 0
M  V30 10370 H 1010.87 -5.21397 -1.7443 0
M  V30 10371 H 1012.09 -6.41608 -2.22522 0
M  V30 10372 H 1010.04 -5.14253 -4.07284 0
M  V30 10373 H 1009.96 -6.74423 -3.41599 0
M  V30 10374 H 1011.23 -6.34038 -4.53449 0
M  V30 10375 N 1015.45 0.186762 -1.56489 0
M  V30 10376 C 1016.4 1.25084 -1.96104 0
M  V30 10377 C 1017.4 1.4667 -0.847609 0
M  V30 10378 O 1018.6 1.47432 -1.03266 0
M  V30 10379 H 1014.98 0.420121 -0.623701 0
M  V30 10380 H 1016.95 0.889761 -2.84826 0
M  V30 10381 C 1015.7 2.5863 -2.32392 0
M  V30 10382 H 1015.02 2.42838 -3.176 0
M  V30 10383 H 1016.46 3.3181 -2.63967 0
M  V30 10384 C 1014.92 3.16241 -1.16159 0
M  V30 10385 O 1015.45 3.99272 -0.441034 0
M  V30 10386 N 1013.66 2.75106 -0.936206 0
M  V30 10387 H 1013.2 2.0769 -1.5239 0
M  V30 10388 H 1013.16 3.13991 -0.160317 0
M  V30 10389 N 1016.93 1.50896 0.454776 0
M  V30 10390 C 1018.18 1.62378 1.20324 0
M  V30 10391 C 1018.5 0.333883 1.9212 0
M  V30 10392 O 1017.77 -0.649477 1.8482 0
M  V30 10393 H 1016.35 0.598395 0.447139 0
M  V30 10394 H 1019.01 1.87749 0.523102 0
M  V30 10395 H 1018.11 2.44296 1.94232 0
M  V30 10396 N 1018.41 -0.709066 1.40748 0
M  V30 10397 C 1019.66 -1.46611 1.39103 0
M  V30 10398 C 1019.98 -1.95 -0.00365366 0
M  V30 10399 O 1019.25 -1.70791 -0.959541 0
M  V30 10400 H 1017.83 -0.543954 0.511979 0
M  V30 10401 H 1020.49 -0.840141 1.75863 0
M  V30 10402 H 1019.59 -2.33581 2.06994 0
M  V30 10403 N 1019.89 -1.26353 -0.941956 0
M  V30 10404 C 1020.84 -1.07842 -2.04056 0
M  V30 10405 C 1021.81 0.0163064 -1.66092 0
M  V30 10406 O 1022.99 -0.143313 -1.90261 0
M  V30 10407 C 1020.13 -0.716636 -3.37577 0
M  V30 10408 C 1019.24 -1.88754 -3.88582 0
M  V30 10409 C 1018.38 -1.46893 -5.10486 0
M  V30 10410 C 1017.42 -2.60819 -5.53751 0
M  V30 10411 N 1016.56 -2.19646 -6.66858 0
M  V30 10412 H 1021.4 -2.01856 -2.19221 0
M  V30 10413 H 1018.93 -1.00504 -1.07412 0
M  V30 10414 H 1020.89 -0.487768 -4.14339 0
M  V30 10415 H 1019.52 0.18653 -3.22261 0
M  V30 10416 H 1018.57 -2.22936 -3.08227 0
M  V30 10417 H 1019.88 -2.74264 -4.1663 0
M  V30 10418 H 1019.04 -1.20047 -5.94705 0
M  V30 10419 H 1017.78 -0.584721 -4.84182 0
M  V30 10420 H 1016.78 -2.88396 -4.6809 0
M  V30 10421 H 1018.01 -3.49838 -5.82057 0
M  V30 10422 H 1015.95 -1.33657 -6.4224 0
M  V30 10423 H 1015.87 -2.987 -6.94489 0
M  V30 10424 H 1017.14 -1.96009 -7.54454 0
M  V30 10425 N 1021.37 1.14642 -1.08144 0
M  V30 10426 C 1022.33 2.17834 -0.712799 0
M  V30 10427 C 1023.33 1.58828 0.251041 0
M  V30 10428 O 1024.52 1.74173 0.0309381 0
M  V30 10429 C 1021.65 3.4086 -0.0519477 0
M  V30 10430 H 1022.85 2.51961 -1.62653 0
M  V30 10431 H 1020.4 1.29243 -0.878971 0
M  V30 10432 H 1021.13 3.12311 0.873636 0
M  V30 10433 H 1020.92 3.84952 -0.745286 0
M  V30 10434 H 1022.41 4.17163 0.191031 0
M  V30 10435 N 1022.85 0.866709 1.31628 0
M  V30 10436 C 1023.79 0.318169 2.28596 0
M  V30 10437 C 1024.76 -0.581558 1.55586 0
M  V30 10438 O 1025.95 -0.513895 1.83749 0
M  V30 10439 C 1023.09 -0.477137 3.41786 0
M  V30 10440 C 1022.2 0.449739 4.29653 0
M  V30 10441 C 1021.34 -0.359373 5.29983 0
M  V30 10442 C 1020.37 0.564138 6.09495 0
M  V30 10443 N 1019.51 -0.208526 7.0179 0
M  V30 10444 H 1024.35 1.15029 2.74904 0
M  V30 10445 H 1021.89 0.578649 1.35241 0
M  V30 10446 H 1023.85 -0.953985 4.06146 0
M  V30 10447 H 1022.48 -1.27398 2.96597 0
M  V30 10448 H 1021.53 1.04502 3.65764 0
M  V30 10449 H 1022.84 1.158 4.85172 0
M  V30 10450 H 1021.99 -0.89887 6.00004 0
M  V30 10451 H 1020.73 -1.10094 4.75111 0
M  V30 10452 H 1019.74 1.11542 5.38366 0
M  V30 10453 H 1020.96 1.30451 6.66453 0
M  V30 10454 H 1018.91 -0.932969 6.49332 0
M  V30 10455 H 1018.83 0.440463 7.54716 0
M  V30 10456 H 1020.09 -0.72936 7.7608 0
M  V30 10457 N 1024.32 -1.44642 0.625825 0
M  V30 10458 C 1025.6 -1.9551 0.0593587 0
M  V30 10459 C 1025.98 -1.56792 -1.41349 0
M  V30 10460 O 1025.33 -0.839373 -2.12525 0
M  V30 10461 C 1025.54 -3.47902 0.276647 0
M  V30 10462 C 1026.89 -4.24271 0.167044 0
M  V30 10463 O 1027.91 -3.55594 0.207731 0
M  V30 10464 O 1026.77 -5.46458 0.0675 0
M  V30 10465 H 1023.86 -0.826612 -0.0253422 0
M  V30 10466 H 1026.41 -1.54718 0.697159 0
M  V30 10467 H 1025.18 -3.69115 1.29885 0
M  V30 10468 H 1024.8 -3.95628 -0.395547 0
M  V30 10469 N 1025.8 -0.366053 -1.5329 0
M  V30 10470 C 1027.03 0.226839 -2.06156 0
M  V30 10471 C 1027.45 1.41637 -1.23776 0
M  V30 10472 O 1026.81 1.7947 -0.256948 0
M  V30 10473 C 1026.86 0.597956 -3.55608 0
M  V30 10474 O 1025.96 1.69512 -3.75951 0
M  V30 10475 H 1025.3 0.0329156 -0.663184 0
M  V30 10476 H 1027.83 -0.526793 -1.97702 0
M  V30 10477 H 1027.84 0.868831 -3.98642 0
M  V30 10478 H 1026.52 -0.271838 -4.15011 0
M  V30 10479 H 1025.09 1.41976 -3.44815 0
M  V30 10480 N 1027.28 1.57312 -0.0952337 0
M  V30 10481 C 1028.24 2.12889 0.849161 0
M  V30 10482 C 1029.24 1.05819 1.21075 0
M  V30 10483 O 1030.43 1.31704 1.14016 0
M  V30 10484 C 1027.56 2.6496 2.14498 0
M  V30 10485 H 1028.76 2.97651 0.366566 0
M  V30 10486 H 1026.31 1.55542 0.153762 0
M  V30 10487 H 1027.05 1.83718 2.67242 0
M  V30 10488 H 1026.83 3.43244 1.89542 0
M  V30 10489 H 1028.32 3.07952 2.82056 0
M  V30 10490 N 1028.76 -0.17846 1.56586 0
M  V30 10491 C 1029.7 -1.22104 1.95855 0
M  V30 10492 C 1030.67 -1.44366 0.821447 0
M  V30 10493 O 1031.86 -1.57224 1.08098 0
M  V30 10494 C 1029 -2.55701 2.31757 0
M  V30 10495 C 1028.11 -2.40879 3.5861 0
M  V30 10496 C 1027.25 -3.67293 3.83757 0
M  V30 10497 C 1026.29 -3.47373 5.03982 0
M  V30 10498 N 1025.42 -4.65839 5.25298 0
M  V30 10499 H 1030.26 -0.879168 2.84736 0
M  V30 10500 H 1027.8 -0.422721 1.40895 0
M  V30 10501 H 1029.76 -3.33556 2.50592 0
M  V30 10502 H 1028.39 -2.87898 1.45995 0
M  V30 10503 H 1027.44 -1.54236 3.47729 0
M  V30 10504 H 1028.75 -2.22102 4.46623 0
M  V30 10505 H 1027.91 -4.53584 4.02922 0
M  V30 10506 H 1026.65 -3.89041 2.94107 0
M  V30 10507 H 1025.65 -2.59467 4.84723 0
M  V30 10508 H 1026.88 -3.27055 5.95157 0
M  V30 10509 H 1024.82 -4.8782 4.38598 0
M  V30 10510 H 1024.74 -4.4995 6.0752 0
M  V30 10511 H 1026.01 -5.53435 5.48936 0
M  V30 10512 N 1030.24 -1.51135 -0.446768 0
M  V30 10513 C 1031.46 -1.67129 -1.21965 0
M  V30 10514 C 1031.88 -0.36467 -1.85245 0
M  V30 10515 O 1031.24 0.655908 -1.70306 0
M  V30 10516 C 1031.29 -2.78016 -2.31061 0
M  V30 10517 O 1031.01 -4.03615 -1.70371 0
M  V30 10518 C 1032.51 -3.05197 -3.21511 0
M  V30 10519 H 1029.73 -0.561111 -0.367961 0
M  V30 10520 H 1032.27 -1.97499 -0.530517 0
M  V30 10521 H 1030.43 -2.50272 -2.95707 0
M  V30 10522 H 1030.84 -4.65126 -2.424 0
M  V30 10523 H 1032.32 -3.8639 -3.94216 0
M  V30 10524 H 1032.79 -2.17228 -3.81718 0
M  V30 10525 H 1033.4 -3.34565 -2.62577 0
M  V30 10526 N 1031.71 0.701592 -1.41122 0
M  V30 10527 C 1032.94 1.49049 -1.43499 0
M  V30 10528 C 1033.36 1.88761 -0.0385684 0
M  V30 10529 O 1032.71 1.56384 0.940755 0
M  V30 10530 C 1032.76 2.7569 -2.33832 0
M  V30 10531 O 1032.49 2.37653 -3.68039 0
M  V30 10532 C 1033.99 3.69479 -2.44949 0
M  V30 10533 H 1031.21 0.459519 -0.488961 0
M  V30 10534 H 1033.75 0.864318 -1.85337 0
M  V30 10535 H 1031.91 3.34559 -1.95318 0
M  V30 10536 H 1032.32 3.19241 -4.16156 0
M  V30 10537 H 1033.79 4.55139 -3.12334 0
M  V30 10538 H 1034.27 4.13553 -1.47887 0
M  V30 10539 H 1034.88 3.16517 -2.84072 0
M  V30 10540 N 1033.19 1.2685 0.935242 0
M  V30 10541 C 1034.1 1.10716 2.06831 0
M  V30 10542 C 1035.12 0.0391222 1.73956 0
M  V30 10543 O 1036.29 0.244071 1.99916 0
M  V30 10544 C 1033.36 0.748093 3.38533 0
M  V30 10545 C 1032.42 1.89619 3.85153 0
M  V30 10546 C 1031.65 1.55416 5.1057 0
M  V30 10547 O 1031.88 0.458596 5.68553 0
M  V30 10548 O 1030.81 2.39087 5.52378 0
M  V30 10549 H 1034.64 2.05785 2.23352 0
M  V30 10550 H 1032.22 1.05967 1.05315 0
M  V30 10551 H 1034.1 0.560841 4.17651 0
M  V30 10552 H 1032.78 -0.173142 3.23237 0
M  V30 10553 H 1031.68 2.13845 3.06954 0
M  V30 10554 H 1033.02 2.79737 4.04979 0
M  V30 10555 N 1034.67 -1.14067 1.0875 0
M  V30 10556 C 1035.58 -2.22871 0.732498 0
M  V30 10557 C 1036.6 -1.72008 -0.26253 0
M  V30 10558 O 1037.77 -2.01123 -0.105601 0
M  V30 10559 C 1034.84 -3.46371 0.150913 0
M  V30 10560 C 1033.9 -4.12158 1.201 0
M  V30 10561 C 1033.13 -5.29763 0.647075 0
M  V30 10562 O 1033.35 -5.67911 -0.532307 0
M  V30 10563 O 1032.29 -5.8542 1.3988 0
M  V30 10564 H 1036.11 -2.55596 1.64025 0
M  V30 10565 H 1033.7 -1.22065 0.861417 0
M  V30 10566 H 1035.58 -4.21055 -0.170442 0
M  V30 10567 H 1034.26 -3.15362 -0.729948 0
M  V30 10568 H 1033.16 -3.39332 1.57494 0
M  V30 10569 H 1034.5 -4.47282 2.05426 0
M  V30 10570 N 1036.15 -0.873678 -1.31166 0
M  V30 10571 C 1037.38 -0.501043 -2.00742 0
M  V30 10572 C 1037.79 0.907477 -1.65561 0
M  V30 10573 O 1037.15 1.59507 -0.886771 0
M  V30 10574 C 1037.2 -0.652877 -3.55556 0
M  V30 10575 O 1036.92 -2.00593 -3.89479 0
M  V30 10576 C 1038.42 -0.281742 -4.42404 0
M  V30 10577 H 1035.64 -0.194829 -0.642092 0
M  V30 10578 H 1038.19 -1.17587 -1.67313 0
M  V30 10579 H 1036.34 -0.0255627 -3.87392 0
M  V30 10580 H 1036.75 -2.01638 -4.84193 0
M  V30 10581 H 1038.23 -0.43892 -5.50252 0
M  V30 10582 H 1038.71 0.779389 -4.32229 0
M  V30 10583 H 1039.31 -0.88491 -4.15992 0
M  V30 10584 N 1037.63 1.44308 -0.633487 0
M  V30 10585 C 1038.85 2.06897 -0.144347 0
M  V30 10586 C 1039.28 1.47045 1.173 0
M  V30 10587 O 1038.63 0.572806 1.72013 0
M  V30 10588 C 1038.68 3.60571 -0.0456324 0
M  V30 10589 O 1037.79 4.0015 0.997682 0
M  V30 10590 H 1037.13 0.658427 -0.0858499 0
M  V30 10591 H 1039.66 1.85142 -0.870833 0
M  V30 10592 H 1039.67 4.07745 0.144178 0
M  V30 10593 H 1038.34 4.03515 -1.0074 0
M  V30 10594 H 1036.92 3.64603 0.782252 0
M  V30 10595 N 1039.1 0.374177 1.53094 0
M  V30 10596 C 1040.05 -0.468226 2.26001 0
M  V30 10597 C 1041.02 -1.07041 1.27009 0
M  V30 10598 O 1042.21 -1.10129 1.55809 0
M  V30 10599 C 1039.35 -1.59754 3.05896 0
M  V30 10600 C 1038.46 -1.01969 4.19793 0
M  V30 10601 C 1037.59 -2.11882 4.87113 0
M  V30 10602 C 1036.63 -1.51607 5.93028 0
M  V30 10603 N 1035.77 -2.55388 6.54004 0
M  V30 10604 H 1040.61 0.159983 2.9757 0
M  V30 10605 H 1038.15 0.0907196 1.4682 0
M  V30 10606 H 1040.11 -2.26288 3.50499 0
M  V30 10607 H 1038.74 -2.19628 2.36565 0
M  V30 10608 H 1037.79 -0.244386 3.79614 0
M  V30 10609 H 1039.1 -0.539089 4.95878 0
M  V30 10610 H 1038.25 -2.86218 5.34943 0
M  V30 10611 H 1036.99 -2.63297 4.10519 0
M  V30 10612 H 1036 -0.757891 5.44551 0
M  V30 10613 H 1037.22 -1.01006 6.71546 0
M  V30 10614 H 1035.17 -3.06 5.80258 0
M  V30 10615 H 1035.09 -2.12039 7.25655 0
M  V30 10616 H 1036.35 -3.294 7.06481 0
M  V30 10617 N 1040.58 -1.57259 0.103575 0
M  V30 10618 C 1041.99 -1.81816 -0.424239 0
M  V30 10619 C 1042.34 -1.01976 -1.67617 0
M  V30 10620 O 1041.47 -0.251673 -2.14932 0
M  V30 10621 C 1042.06 -3.29783 -0.776453 0
M  V30 10622 C 1040.62 -3.55074 -1.24897 0
M  V30 10623 C 1039.77 -2.76172 -0.249875 0
M  V30 10624 H 1042.72 -1.55254 0.328913 0
M  V30 10625 H 1042.74 -3.43569 -1.63526 0
M  V30 10626 H 1042.25 -3.87865 0.134906 0
M  V30 10627 H 1040.36 -3.02332 -2.17775 0
M  V30 10628 H 1040.47 -4.637 -1.20495 0
M  V30 10629 H 1038.83 -2.43902 -0.733767 0
M  V30 10630 H 1039.62 -3.37007 0.65431 0
M  V30 10631 N 1042.06 0.170153 -1.56679 0
M  V30 10632 C 1043.01 1.21064 -1.965 0
M  V30 10633 C 1043.98 1.43928 -0.829092 0
M  V30 10634 O 1045.16 1.56649 -1.08931 0
M  V30 10635 C 1042.3 2.54468 -2.33109 0
M  V30 10636 C 1041.42 2.38974 -3.59883 0
M  V30 10637 C 1040.55 3.65252 -3.857 0
M  V30 10638 C 1039.59 3.44696 -5.05817 0
M  V30 10639 N 1038.73 4.63047 -5.27761 0
M  V30 10640 H 1043.57 0.864055 -2.85198 0
M  V30 10641 H 1041.1 0.415243 -1.41117 0
M  V30 10642 H 1043.06 3.32222 -2.52358 0
M  V30 10643 H 1041.69 2.8712 -1.4752 0
M  V30 10644 H 1040.74 1.5239 -3.48542 0
M  V30 10645 H 1042.06 2.19731 -4.47794 0
M  V30 10646 H 1041.21 4.51441 -4.05322 0
M  V30 10647 H 1039.95 3.87475 -2.96166 0
M  V30 10648 H 1038.95 2.56893 -4.86092 0
M  V30 10649 H 1040.18 3.23894 -5.96883 0
M  V30 10650 H 1038.12 4.85487 -4.41179 0
M  V30 10651 H 1038.04 4.46722 -6.09898 0
M  V30 10652 H 1039.31 5.50516 -5.51863 0
M  V30 10653 N 1043.54 1.5137 0.438746 0
M  V30 10654 C 1044.82 1.54508 1.19944 0
M  V30 10655 C 1045.2 0.308525 2.08833 0
M  V30 10656 O 1044.54 -0.706461 2.17305 0
M  V30 10657 C 1044.75 2.85833 2.00251 0
M  V30 10658 C 1046.1 3.37729 2.5734 0
M  V30 10659 O 1047.13 2.87374 2.10463 0
M  V30 10660 O 1045.98 4.25589 3.42836 0
M  V30 10661 H 1043.08 0.621132 0.546007 0
M  V30 10662 H 1045.62 1.63682 0.447931 0
M  V30 10663 H 1044.4 3.67291 1.34955 0
M  V30 10664 H 1044.02 2.79815 2.8247 0
M  V30 10665 N 1045.02 -0.694098 1.41492 0
M  V30 10666 C 1046.29 -1.44875 1.31418 0
M  V30 10667 C 1046.67 -2.11022 -0.0575538 0
M  V30 10668 O 1046.02 -2.01799 -1.07188 0
M  V30 10669 C 1046.23 -2.46698 2.46863 0
M  V30 10670 C 1047.58 -3.11907 2.88095 0
M  V30 10671 O 1048.6 -2.57022 2.46613 0
M  V30 10672 O 1047.46 -4.11318 3.59833 0
M  V30 10673 H 1044.56 -0.645266 0.517263 0
M  V30 10674 H 1047.1 -0.724452 1.53459 0
M  V30 10675 H 1045.87 -1.96485 3.38392 0
M  V30 10676 H 1045.5 -3.26634 2.26706 0
M  V30 10677 O 1046.53 -1.38164 -0.836233 0
M  V30 10678 H 1047.22 -1.25159 -1.47834 0
M  V30 END ATOM
M  V30 BEGIN BOND
M  V30 END BOND
M  V30 END CTAB
M  END
$$$$
