drugbank_target|P00646 Colicin-E3 (DB04039; DB04147)
 OpenBabel12092120483D

  0  0  0     0  0            999 V3000
M  V30 BEGIN CTAB
M  V30 COUNTS 8045 8126 0 0 0
M  V30 BEGIN ATOM
M  V30 1 H -0.908 1.98254 -0.117106 0
M  V30 2 N 0 1.576 0 0
M  V30 3 C 0.933 2.03868 1.02534 0
M  V30 4 C 1.911 0.928543 1.3348 0
M  V30 5 O 3.095 1.19667 1.45644 0
M  V30 6 C 0.222 2.43627 2.35294 0
M  V30 7 C -0.732 3.65373 2.2001 0
M  V30 8 S 0.101 5.13292 1.52614 0
M  V30 9 C 1.257 5.56322 2.86805 0
M  V30 10 H 1.49 2.90518 0.631377 0
M  V30 11 H -0.977 1.52953 0.210867 0
M  V30 12 H 0.981 2.67203 3.11629 0
M  V30 13 H -0.358 1.57376 2.7183 0
M  V30 14 H -1.165 3.90944 3.18086 0
M  V30 15 H -1.563 3.418 1.51819 0
M  V30 16 H 0.729 5.58782 3.83104 0
M  V30 17 H 1.672 6.56266 2.65933 0
M  V30 18 H 2.08 4.83886 2.90714 0
M  V30 19 N 1.4781 -0.272755 1.55222 0
M  V30 20 C 2.7031 -1.02683 1.80197 0
M  V30 21 C 3.1281 -1.79142 0.573551 0
M  V30 22 O 2.4861 -1.74917 -0.476849 0
M  V30 23 C 2.5341 -1.9609 3.02624 0
M  V30 24 O 1.6381 -3.04863 2.77727 0
M  V30 25 H 0.9791 -0.293557 0.595584 0
M  V30 26 H 3.5091 -0.30159 2.02365 0
M  V30 27 H 3.5191 -2.38039 3.31363 0
M  V30 28 H 2.1941 -1.39851 3.91682 0
M  V30 29 H 0.7711 -2.67228 2.60084 0
M  V30 30 N 2.9562 -1.48159 -0.537278 0
M  V30 31 C 4.2042 -1.55497 -1.29094 0
M  V30 32 C 4.5252 -0.227454 -1.93669 0
M  V30 33 O 3.7952 0.750386 -1.80959 0
M  V30 34 H 2.3752 -0.572832 -0.47945 0
M  V30 35 H 5.0372 -1.84579 -0.625818 0
M  V30 36 H 4.1332 -2.33216 -2.07405 0
M  V30 37 N 4.4343 0.785586 -1.36625 0
M  V30 38 C 5.6823 1.54057 -1.30808 0
M  V30 39 C 6.0033 1.94683 0.111157 0
M  V30 40 O 5.2733 1.65241 1.05224 0
M  V30 41 H 3.8533 0.571354 -0.481211 0
M  V30 42 H 6.5153 0.935821 -1.70963 0
M  V30 43 H 5.6113 2.44637 -1.93801 0
M  V30 44 N 5.9124 1.20967 1.01018 0
M  V30 45 C 7.1894 0.93264 1.71934 0
M  V30 46 C 7.5694 -0.55692 2.03621 0
M  V30 47 O 6.9174 -1.52035 1.7058 0
M  V30 48 C 7.1274 1.81233 2.98254 0
M  V30 49 C 8.4754 2.05804 3.71389 0
M  V30 50 O 9.4994 1.78539 3.08225 0
M  V30 51 O 8.3584 2.51888 4.84989 0
M  V30 52 H 5.4524 0.349272 0.749625 0
M  V30 53 H 7.9984 1.31871 1.06808 0
M  V30 54 H 6.7704 2.82067 2.71208 0
M  V30 55 H 6.3934 1.42674 3.7112 0
M  V30 56 N 7.3905 -1.2043 1.01659 0
M  V30 57 C 8.6385 -1.89423 0.704522 0
M  V30 58 C 8.9595 -1.79231 -0.768197 0
M  V30 59 O 8.2295 -1.1947 -1.55254 0
M  V30 60 H 6.8095 -0.701178 0.257602 0
M  V30 61 H 9.4715 -1.4626 1.28818 0
M  V30 62 H 8.5675 -2.96052 0.987916 0
M  V30 63 N 8.8686 -0.792821 -1.36206 0
M  V30 64 C 10.2846 -0.474903 -1.52371 0
M  V30 65 C 10.4846 1.00622 -1.74578 0
M  V30 66 O 9.5406 1.79162 -1.77924 0
M  V30 67 C 10.8536 -1.3083 -2.70747 0
M  V30 68 C 12.4016 -1.30234 -2.84619 0
M  V30 69 C 12.8766 -2.11956 -4.06004 0
M  V30 70 N 14.3676 -2.09419 -4.13156 0
M  V30 71 C 15.1026 -2.69419 -5.06163 0
M  V30 72 N 14.5986 -3.3829 -6.04592 0
M  V30 73 N 16.3916 -2.59134 -4.98804 0
M  V30 74 H 8.5426 -1.75222 -1.20046 0
M  V30 75 H 10.8056 -0.745024 -0.586211 0
M  V30 76 H 10.5116 -2.35881 -2.6087 0
M  V30 77 H 10.3856 -0.95196 -3.6499 0
M  V30 78 H 12.7726 -0.259748 -2.93955 0
M  V30 79 H 12.8536 -1.69847 -1.91274 0
M  V30 80 H 12.4976 -3.16248 -3.97429 0
M  V30 81 H 12.4276 -1.69711 -4.98503 0
M  V30 82 H 14.9186 -1.59297 -3.42685 0
M  V30 83 H 15.2316 -3.81394 -6.7213 0
M  V30 84 H 13.5766 -3.42393 -6.04807 0
M  V30 85 H 16.7676 -2.04927 -4.20859 0
M  V30 86 H 16.9406 -3.06185 -5.711 0
M  V30 87 N 10.3467 1.47872 -0.545128 0
M  V30 88 C 11.5947 2.02093 -0.016553 0
M  V30 89 C 11.9157 1.42305 1.3332 0
M  V30 90 O 11.1857 0.593853 1.86682 0
M  V30 91 H 9.7657 0.746993 -0.00313038 0
M  V30 92 H 12.4277 1.81414 -0.712397 0
M  V30 93 H 11.5237 3.11996 0.0805422 0
M  V30 94 N 11.8248 0.280983 1.55075 0
M  V30 95 C 12.7748 -0.618585 2.19448 0
M  V30 96 C 13.7588 -1.11401 1.16098 0
M  V30 97 O 14.9508 -1.0581 1.41891 0
M  V30 98 C 12.0798 -1.79951 2.92357 0
M  V30 99 C 11.1658 -1.321 4.03002 0
M  V30 100 N 11.5568 -0.559044 5.02701 0
M  V30 101 C 9.8548 -1.60346 4.16179 0
M  V30 102 C 10.5558 -0.306722 5.80891 0
M  V30 103 N 9.5318 -0.880825 5.36416 0
M  V30 104 H 13.3338 -0.0286638 2.93886 0
M  V30 105 H 10.8478 0.0848104 1.62178 0
M  V30 106 H 12.8448 -2.45531 3.36927 0
M  V30 107 H 11.5048 -2.39333 2.19431 0
M  V30 108 H 12.5158 -0.205827 5.17491 0
M  V30 109 H 9.1928 -2.20621 3.54447 0
M  V30 110 H 10.5828 0.30391 6.71212 0
M  V30 111 N 13.3029 -1.57598 0.00835791 0
M  V30 112 C 14.2509 -2.10078 -0.998508 0
M  V30 113 C 15.2449 -1.02262 -1.35051 0
M  V30 114 O 16.4509 -1.20719 -1.33518 0
M  V30 115 H 12.8259 -0.670903 -0.339696 0
M  V30 116 H 14.7969 -2.93648 -0.530398 0
M  V30 117 C 13.5459 -2.62615 -2.27879 0
M  V30 118 H 12.8689 -3.45213 -2.01662 0
M  V30 119 H 14.3089 -3.03004 -2.96588 0
M  V30 120 C 12.7679 -1.54407 -2.99433 0
M  V30 121 O 13.2979 -0.931812 -3.90743 0
M  V30 122 N 11.5039 -1.2695 -2.61404 0
M  V30 123 H 11.0509 -1.76924 -1.87232 0
M  V30 124 H 11.0089 -0.547704 -3.09593 0
M  V30 125 N 14.781 0.264519 -1.55364 0
M  V30 126 C 16.009 1.013 -1.80405 0
M  V30 127 C 16.424 1.79618 -0.581622 0
M  V30 128 O 15.781 1.76879 0.449468 0
M  V30 129 C 15.832 1.96487 -3.03439 0
M  V30 130 O 15.553 1.21341 -4.20961 0
M  V30 131 C 17.054 2.83079 -3.41147 0
M  V30 132 H 14.274 0.298875 -0.600762 0
M  V30 133 H 16.818 0.292736 -2.02394 0
M  V30 134 H 14.973 2.63965 -2.83551 0
M  V30 135 H 15.387 1.85573 -4.90574 0
M  V30 136 H 16.861 3.4565 -4.30384 0
M  V30 137 H 17.338 3.53286 -2.60932 0
M  V30 138 H 17.944 2.2108 -3.63323 0
M  V30 139 N 16.2591 1.48442 0.529413 0
M  V30 140 C 17.5071 1.56179 1.28267 0
M  V30 141 C 17.8281 0.237721 1.93546 0
M  V30 142 O 17.0981 -0.740779 1.81354 0
M  V30 143 H 15.6781 0.575367 0.476405 0
M  V30 144 H 18.3401 1.84909 0.61602 0
M  V30 145 H 17.4361 2.34312 2.06165 0
M  V30 146 N 17.7372 -0.778329 1.37039 0
M  V30 147 C 18.7002 -1.87301 1.32102 0
M  V30 148 C 19.7002 -1.59198 0.226405 0
M  V30 149 O 20.8902 -1.67403 0.481861 0
M  V30 150 C 18.0222 -3.24309 1.05055 0
M  V30 151 H 19.2152 -1.93093 2.29467 0
M  V30 152 H 16.7682 -0.977358 1.21973 0
M  V30 153 H 17.5032 -3.24196 0.0819373 0
M  V30 154 H 17.2882 -3.46098 1.84279 0
M  V30 155 H 18.7782 -4.04382 1.04234 0
M  V30 156 N 19.2153 -1.21501 -1.00376 0
M  V30 157 C 20.1653 -0.942843 -2.07592 0
M  V30 158 C 21.1493 0.102384 -1.60574 0
M  V30 159 O 22.3413 -0.10671 -1.76678 0
M  V30 160 C 19.4703 -0.510729 -3.3948 0
M  V30 161 C 18.5563 -1.59009 -3.93163 0
M  V30 162 N 18.9473 -2.81544 -4.20198 0
M  V30 163 C 17.2453 -1.45925 -4.21452 0
M  V30 164 C 17.9463 -3.51261 -4.63671 0
M  V30 165 N 16.9223 -2.78703 -4.66718 0
M  V30 166 H 20.7243 -1.87378 -2.26421 0
M  V30 167 H 18.2383 -1.11093 -1.18458 0
M  V30 168 H 20.2353 -0.297101 -4.1584 0
M  V30 169 H 18.8953 0.413436 -3.22057 0
M  V30 170 H 19.9063 -3.18075 -4.08716 0
M  V30 171 H 16.5833 -0.600467 -4.13159 0
M  V30 172 H 17.9733 -4.56183 -4.93302 0
M  V30 173 N 20.6934 1.19889 -1.02296 0
M  V30 174 C 21.9184 1.9393 -0.735237 0
M  V30 175 C 22.3434 1.74639 0.698782 0
M  V30 176 O 21.7014 1.04481 1.48167 0
M  V30 177 C 21.7494 3.43916 -1.08417 0
M  V30 178 O 20.8534 4.11917 -0.199446 0
M  V30 179 H 20.1944 0.605645 -0.272196 0
M  V30 180 H 22.7244 1.52137 -1.36804 0
M  V30 181 H 22.7344 3.9456 -1.03856 0
M  V30 182 H 21.4094 3.5728 -2.12894 0
M  V30 183 H 19.9864 3.71666 -0.303136 0
M  V30 184 N 22.1715 0.800033 1.35784 0
M  V30 185 C 23.3995 0.389606 2.03199 0
M  V30 186 C 23.8145 -0.997375 1.60306 0
M  V30 187 O 23.1715 -1.64154 0.797481 0
M  V30 188 C 23.2225 0.455855 3.58614 0
M  V30 189 O 22.9435 1.78815 3.99946 0
M  V30 190 C 24.4445 0.0374032 4.43284 0
M  V30 191 H 21.6645 0.159132 0.651857 0
M  V30 192 H 24.2085 1.08183 1.73541 0
M  V30 193 H 22.3635 -0.188057 3.86943 0
M  V30 194 H 22.7775 1.74636 4.94573 0
M  V30 195 H 24.2515 0.134882 5.51835 0
M  V30 196 H 24.7285 -1.01651 4.27275 0
M  V30 197 H 25.3345 0.654215 4.20238 0
M  V30 198 N 23.6496 -1.47581 0.552962 0
M  V30 199 C 24.8746 -2.07378 0.0300593 0
M  V30 200 C 25.2996 -1.40355 -1.25229 0
M  V30 201 O 24.6576 -0.477099 -1.7491 0
M  V30 202 C 24.7056 -3.60274 -0.153231 0
M  V30 203 O 23.8096 -3.94041 -1.21678 0
M  V30 204 H 23.1506 -0.662158 0.0494182 0
M  V30 205 H 25.6806 -1.89662 0.767434 0
M  V30 206 H 25.6906 -4.0633 -0.368761 0
M  V30 207 H 24.3656 -4.08455 0.783397 0
M  V30 208 H 22.9426 -3.59735 -0.982079 0
M  V30 209 N 25.1277 -0.289203 -1.54924 0
M  V30 210 C 26.3757 0.322879 -1.99504 0
M  V30 211 C 26.6967 1.55313 -1.1791 0
M  V30 212 O 25.9667 1.94001 -0.272097 0
M  V30 213 H 24.5467 0.122291 -0.736922 0
M  V30 214 H 27.2087 -0.397802 -1.90797 0
M  V30 215 H 26.3047 0.603061 -3.06218 0
M  V30 216 N 26.6058 1.57591 -0.0167156 0
M  V30 217 C 27.5538 2.10604 0.987353 0
M  V30 218 C 28.5478 1.02977 1.34507 0
M  V30 219 O 29.7538 1.21425 1.32875 0
M  V30 220 H 26.1288 0.672695 0.336134 0
M  V30 221 H 28.0998 2.93925 0.514817 0
M  V30 222 C 26.8488 2.6382 2.26483 0
M  V30 223 H 26.1718 3.46278 1.99829 0
M  V30 224 H 27.6118 3.04573 2.94977 0
M  V30 225 C 26.0708 1.55992 2.9861 0
M  V30 226 O 26.6008 0.952521 3.90243 0
M  V30 227 N 24.8068 1.28335 2.60727 0
M  V30 228 H 24.3538 1.77914 1.86291 0
M  V30 229 H 24.3118 0.564115 3.09298 0
M  V30 230 N 28.0839 -0.256276 1.55502 0
M  V30 231 C 29.3329 -0.983486 1.76098 0
M  V30 232 C 29.6459 -1.86837 0.578896 0
M  V30 233 O 30.8519 -2.63163 0.667648 0
M  V30 234 C 29.3079 -1.79868 3.1173 0
M  V30 235 C 28.9159 -0.961648 4.37557 0
M  V30 236 C 30.6599 -2.51919 3.41668 0
M  V30 237 C 28.5669 -1.77219 5.64223 0
M  V30 238 H 27.4969 -0.370936 0.656447 0
M  V30 239 H 30.1479 -0.238492 1.81944 0
M  V30 240 H 28.5299 -2.58527 2.99966 0
M  V30 241 H 29.7039 -0.218048 4.60284 0
M  V30 242 H 28.0189 -0.354913 4.14885 0
M  V30 243 H 30.6159 -3.12998 4.33516 0
M  V30 244 H 30.9589 -3.23059 2.62562 0
M  V30 245 H 31.4919 -1.80278 3.54605 0
M  V30 246 H 28.2309 -1.10471 6.46124 0
M  V30 247 H 27.7509 -2.49132 5.45613 0
M  V30 248 H 29.4299 -2.34169 6.03137 0
M  V30 249 N 29.562 -1.4872 -0.521534 0
M  V30 250 C 30.51 -1.64328 -1.64618 0
M  V30 251 C 31.504 -0.50953 -1.61555 0
M  V30 252 O 32.71 -0.688525 -1.66311 0
M  V30 253 H 29.085 -0.517805 -0.545328 0
M  V30 254 H 31.056 -2.58767 -1.48601 0
M  V30 255 C 29.805 -1.70805 -3.02855 0
M  V30 256 H 29.128 -2.5741 -3.05909 0
M  V30 257 H 30.568 -1.85766 -3.81139 0
M  V30 258 C 29.027 -0.448479 -3.33902 0
M  V30 259 O 29.557 0.434928 -3.99339 0
M  V30 260 N 27.763 -0.317616 -2.88859 0
M  V30 261 H 27.31 -1.03748 -2.35784 0
M  V30 262 H 27.268 0.524113 -3.10001 0
M  V30 263 N 31.0401 0.771051 -1.3745 0
M  V30 264 C 32.2881 1.52661 -1.32435 0
M  V30 265 C 32.6091 1.9479 0.0905024 0
M  V30 266 O 31.8791 1.66348 1.03466 0
M  V30 267 H 30.4591 0.566218 -0.487244 0
M  V30 268 H 33.1211 0.917636 -1.71946 0
M  V30 269 H 32.2171 2.42568 -1.96385 0
M  V30 270 N 32.5182 1.22032 0.997298 0
M  V30 271 C 33.7662 1.04016 1.73278 0
M  V30 272 C 34.0872 -0.426255 1.90284 0
M  V30 273 O 33.3572 -1.30694 1.45931 0
M  V30 274 H 31.9372 0.381897 0.642 0
M  V30 275 H 34.5992 1.5347 1.20137 0
M  V30 276 H 33.6952 1.51441 2.72896 0
M  V30 277 N 33.9963 -1.19345 1.0293 0
M  V30 278 C 35.4073 -1.70725 0.755633 0
M  V30 279 C 35.7583 -1.82326 -0.724676 0
M  V30 280 O 34.8833 -1.49471 -1.56484 0
M  V30 281 C 35.4783 -3.10084 1.36503 0
M  V30 282 C 34.0373 -3.58723 1.13994 0
M  V30 283 C 33.1843 -2.35577 1.46283 0
M  V30 284 H 36.1353 -1.0418 1.19718 0
M  V30 285 H 36.1563 -3.72787 0.762217 0
M  V30 286 H 35.6683 -3.01609 2.44241 0
M  V30 287 H 33.7693 -3.72512 0.0807901 0
M  V30 288 H 33.8823 -4.42816 1.82894 0
M  V30 289 H 32.2463 -2.38935 0.88217 0
M  V30 290 H 33.0293 -2.29731 2.55105 0
M  V30 291 N 35.4744 -0.807222 -1.35358 0
M  V30 292 C 36.7024 -0.400377 -2.02989 0
M  V30 293 C 37.1174 0.988859 -1.60832 0
M  V30 294 O 36.4744 1.63729 -0.806175 0
M  V30 295 C 36.5254 -0.474867 -3.58368 0
M  V30 296 O 36.2464 -1.80933 -3.98992 0
M  V30 297 C 37.7474 -0.0609112 -4.43258 0
M  V30 298 H 34.9674 -0.162587 -0.651004 0
M  V30 299 H 37.5114 -1.09102 -1.72965 0
M  V30 300 H 35.6664 0.167534 -3.87038 0
M  V30 301 H 36.0804 -1.77256 -4.9364 0
M  V30 302 H 37.5544 -0.164145 -5.51756 0
M  V30 303 H 38.0314 0.993831 -4.27808 0
M  V30 304 H 38.6374 -0.676492 -4.19885 0
M  V30 305 N 36.9525 1.47285 -0.560781 0
M  V30 306 C 38.2005 2.02064 -0.0379868 0
M  V30 307 C 38.5215 1.43711 1.31803 0
M  V30 308 O 37.7915 0.61362 1.86042 0
M  V30 309 H 36.3715 0.746918 -0.0110531 0
M  V30 310 H 39.0335 1.80648 -0.731598 0
M  V30 311 H 38.1295 3.12064 0.0474463 0
M  V30 312 N 38.4306 0.297415 1.54768 0
M  V30 313 C 39.3606 -0.573494 2.26348 0
M  V30 314 C 40.3416 -1.14085 1.26169 0
M  V30 315 O 41.5266 -1.17086 1.54934 0
M  V30 316 C 38.6566 -1.74716 3.00153 0
M  V30 317 C 37.6106 -1.31032 4.07449 0
M  V30 318 C 36.9366 -2.56887 4.68949 0
M  V30 319 C 38.2366 -0.444183 5.20408 0
M  V30 320 H 39.9306 0.0235131 2.99391 0
M  V30 321 H 37.4766 0.0127488 1.43994 0
M  V30 322 H 39.4296 -2.3625 3.48947 0
M  V30 323 H 38.1536 -2.37035 2.24682 0
M  V30 324 H 36.8126 -0.718066 3.59499 0
M  V30 325 H 36.4606 -3.17512 3.90122 0
M  V30 326 H 36.1606 -2.2836 5.41411 0
M  V30 327 H 37.6846 -3.19229 5.20505 0
M  V30 328 H 39.0986 -0.9651 5.65118 0
M  V30 329 H 37.4956 -0.252846 5.99567 0
M  V30 330 H 38.5656 0.531609 4.81977 0
M  V30 331 N 39.9087 -1.5758 0.0250728 0
M  V30 332 C 41.1567 -1.91255 -0.653151 0
M  V30 333 C 41.4777 -0.901691 -1.729 0
M  V30 334 O 40.7477 0.0573785 -1.95816 0
M  V30 335 H 39.3277 -0.705942 -0.244243 0
M  V30 336 H 41.9897 -1.94767 0.0719209 0
M  V30 337 H 41.0857 -2.91752 -1.10847 0
M  V30 338 N 41.3868 0.248026 -1.55636 0
M  V30 339 C 42.6328 0.97767 -1.77678 0
M  V30 340 C 42.9658 1.85016 -0.590135 0
M  V30 341 O 42.2408 1.90095 0.411611 0
M  V30 342 C 42.5238 1.83914 -3.09593 0
M  V30 343 C 42.3768 0.99491 -4.38659 0
M  V30 344 C 43.6958 2.82183 -3.37729 0
M  V30 345 H 40.8148 0.354005 -0.646413 0
M  V30 346 H 43.4568 0.248253 -1.88371 0
M  V30 347 H 41.6068 2.46104 -3.00608 0
M  V30 348 H 43.2788 0.391789 -4.59633 0
M  V30 349 H 41.5218 0.299231 -4.32767 0
M  V30 350 H 42.1928 1.63145 -5.2734 0
M  V30 351 H 44.6688 2.30129 -3.4667 0
M  V30 352 H 43.5448 3.39582 -4.31249 0
M  V30 353 H 43.8058 3.58588 -2.58586 0
M  V30 354 N 42.8649 1.48995 0.513639 0
M  V30 355 C 44.1129 1.57531 1.26604 0
M  V30 356 C 44.4339 0.258236 1.93283 0
M  V30 357 O 43.7039 -0.721502 1.8213 0
M  V30 358 H 42.2839 0.580387 0.470276 0
M  V30 359 H 44.9459 1.85552 0.596373 0
M  V30 360 H 44.0419 2.36486 2.03669 0
M  V30 361 N 44.343 -0.763751 1.37857 0
M  V30 362 C 45.591 -1.51957 1.33243 0
M  V30 363 C 45.912 -1.94835 -0.0801709 0
M  V30 364 O 45.182 -1.66894 -1.02582 0
M  V30 365 H 43.762 -0.563626 0.49024 0
M  V30 366 H 46.424 -0.908504 1.7243 0
M  V30 367 H 45.52 -2.41523 1.97669 0
M  V30 368 N 45.8211 -1.22559 -0.990812 0
M  V30 369 C 47.0691 -1.04933 -1.72724 0
M  V30 370 C 47.3901 0.416158 -1.90508 0
M  V30 371 O 46.6601 1.29918 -1.46622 0
M  V30 372 H 45.2401 -0.385296 -0.639965 0
M  V30 373 H 47.9021 -1.54105 -1.19322 0
M  V30 374 H 46.9981 -1.52886 -2.72089 0
M  V30 375 N 47.2992 1.18797 -1.03562 0
M  V30 376 C 48.2622 2.20464 -0.626769 0
M  V30 377 C 49.2622 1.57721 0.313173 0
M  V30 378 O 50.4522 1.73917 0.0992615 0
M  V30 379 C 47.5842 3.40802 0.0818498 0
M  V30 380 H 48.7772 2.58149 -1.5264 0
M  V30 381 H 46.3302 1.32593 -0.827578 0
M  V30 382 H 47.0652 3.08642 0.995518 0
M  V30 383 H 46.8502 3.8758 -0.593652 0
M  V30 384 H 48.3402 4.16092 0.354584 0
M  V30 385 N 48.7773 0.814389 1.34928 0
M  V30 386 C 50.0023 0.410097 2.03305 0
M  V30 387 C 50.4273 -0.973464 1.60951 0
M  V30 388 O 49.7853 -1.63185 0.789964 0
M  V30 389 C 49.8333 0.51049 3.56968 0
M  V30 390 O 48.9373 -0.473035 4.09678 0
M  V30 391 H 48.2783 0.170088 0.641846 0
M  V30 392 H 50.8083 1.10244 1.72358 0
M  V30 393 H 50.8183 0.383135 4.06197 0
M  V30 394 H 49.4933 1.51963 3.87144 0
M  V30 395 H 48.0703 -0.305272 3.71648 0
M  V30 396 N 50.2554 -1.46986 0.568584 0
M  V30 397 C 51.5324 -1.95592 -0.0174074 0
M  V30 398 C 51.9124 -1.51124 -1.47393 0
M  V30 399 O 51.2604 -0.755329 -2.15655 0
M  V30 400 C 51.4704 -3.48719 0.139913 0
M  V30 401 C 52.8184 -4.246 0.000426376 0
M  V30 402 O 53.8424 -3.56135 0.0680316 0
M  V30 403 O 52.7014 -5.46302 -0.146988 0
M  V30 404 H 49.7954 -0.82498 -0.0577599 0
M  V30 405 H 52.3414 -1.57335 0.635909 0
M  V30 406 H 51.1134 -3.73927 1.15301 0
M  V30 407 H 50.7364 -3.93771 -0.550491 0
M  V30 408 N 51.7335 -0.305618 -1.54608 0
M  V30 409 C 52.9815 0.301701 -1.99835 0
M  V30 410 C 53.3025 1.54054 -1.19551 0
M  V30 411 O 52.5725 1.93702 -0.292658 0
M  V30 412 H 51.1525 0.114468 -0.738178 0
M  V30 413 H 53.8145 -0.418016 -1.90364 0
M  V30 414 H 52.9105 0.570548 -3.06841 0
M  V30 415 N 53.2116 1.57565 -0.0334293 0
M  V30 416 C 54.4366 1.96689 0.657895 0
M  V30 417 C 54.8616 0.910057 1.64619 0
M  V30 418 O 54.2196 -0.128598 1.80843 0
M  V30 419 C 54.2676 3.34905 1.33683 0
M  V30 420 O 53.3716 3.31574 2.45219 0
M  V30 421 H 52.7126 0.641205 0.172489 0
M  V30 422 H 55.2426 2.04372 -0.0965621 0
M  V30 423 H 55.2526 3.71234 1.69262 0
M  V30 424 H 53.9276 4.11366 0.612411 0
M  V30 425 H 52.5046 3.06968 2.11719 0
M  V30 426 N 54.6897 -0.239769 1.55765 0
M  V30 427 C 55.9377 -0.964892 1.77579 0
M  V30 428 C 56.2587 -1.85582 0.598699 0
M  V30 429 O 55.5287 -1.92075 -0.385226 0
M  V30 430 H 54.1087 -0.359265 0.654933 0
M  V30 431 H 56.7707 -0.256001 1.93211 0
M  V30 432 H 55.8667 -1.58243 2.69009 0
M  V30 433 N 56.1678 -1.49265 -0.50573 0
M  V30 434 C 57.4138 -1.59723 -1.25937 0
M  V30 435 C 57.7688 -0.278236 -1.90378 0
M  V30 436 O 57.0618 0.72113 -1.77511 0
M  V30 437 C 57.2558 -2.69008 -2.35308 0
M  V30 438 C 57.0848 -4.11405 -1.81592 0
M  V30 439 C 55.8548 -4.78252 -1.63105 0
M  V30 440 C 58.0528 -4.96792 -1.33048 0
M  V30 441 N 56.0348 -6.0498 -1.04269 0
M  V30 442 C 57.4058 -6.13962 -0.863168 0
M  V30 443 C 59.4608 -4.82828 -1.21577 0
M  V30 444 C 58.1638 -7.18705 -0.292489 0
M  V30 445 C 60.1898 -5.87716 -0.65907 0
M  V30 446 C 59.5518 -7.0411 -0.201954 0
M  V30 447 H 55.6508 -0.638864 -0.450973 0
M  V30 448 H 58.2348 -1.86251 -0.567326 0
M  V30 449 H 56.4058 -2.4426 -3.01979 0
M  V30 450 H 58.1378 -2.69013 -3.02348 0
M  V30 451 H 54.8928 -4.34974 -1.87336 0
M  V30 452 H 55.3168 -6.72631 -0.767919 0
M  V30 453 H 59.9588 -3.93159 -1.55518 0
M  V30 454 H 57.6768 -8.08078 0.0591987 0
M  V30 455 H 61.2628 -5.7897 -0.573156 0
M  V30 456 H 60.1428 -7.83885 0.222101 0
M  V30 457 N 57.6459 0.756429 -1.3826 0
M  V30 458 C 58.8709 1.55077 -1.37717 0
M  V30 459 C 59.2959 1.88073 0.03164 0
M  V30 460 O 58.6539 1.50364 1.01293 0
M  V30 461 C 58.7019 2.8283 -2.23695 0
M  V30 462 O 57.8059 3.77862 -1.6521 0
M  V30 463 H 57.1469 0.469152 -0.469885 0
M  V30 464 H 59.6769 0.935019 -1.81985 0
M  V30 465 H 59.6869 3.31783 -2.37453 0
M  V30 466 H 58.3619 2.58144 -3.2609 0
M  V30 467 H 56.9389 3.36555 -1.60578 0
M  V30 468 N 59.124 1.23083 0.984299 0
M  V30 469 C 60.349 1.088 1.76571 0
M  V30 470 C 60.774 -0.356657 1.84688 0
M  V30 471 O 60.132 -1.25788 1.30565 0
M  V30 472 C 60.18 1.71371 3.17277 0
M  V30 473 O 59.284 0.973213 4.00752 0
M  V30 474 H 58.625 0.381599 0.543395 0
M  V30 475 H 61.155 1.63057 1.23587 0
M  V30 476 H 61.165 1.76449 3.67872 0
M  V30 477 H 59.84 2.76493 3.10684 0
M  V30 478 H 58.417 0.999078 3.59267 0
M  V30 479 N 60.6021 -1.18246 1.0419 0
M  V30 480 C 61.5121 -2.25574 0.644476 0
M  V30 481 C 62.5281 -1.70845 -0.329826 0
M  V30 482 O 63.7041 -2.00554 -0.184443 0
M  V30 483 C 60.7691 -3.46697 0.014877 0
M  V30 484 C 59.8301 -4.16554 1.03834 0
M  V30 485 C 59.0631 -5.31894 0.438692 0
M  V30 486 O 59.2861 -5.65385 -0.754752 0
M  V30 487 O 58.2201 -5.90459 1.168 0
M  V30 488 H 62.0461 -2.61836 1.53869 0
M  V30 489 H 59.6311 -1.25352 0.812854 0
M  V30 490 H 61.5131 -4.20062 -0.335538 0
M  V30 491 H 60.1881 -3.12255 -0.853138 0
M  V30 492 H 59.0951 -3.45251 1.44057 0
M  V30 493 H 60.4281 -4.54998 1.87716 0
M  V30 494 N 62.0802 -0.821533 -1.34494 0
M  V30 495 C 63.0282 -0.230702 -2.31453 0
M  V30 496 C 64.0222 0.627793 -1.57338 0
M  V30 497 O 65.2282 0.519288 -1.72347 0
M  V30 498 H 61.6032 -0.0558577 -0.749923 0
M  V30 499 H 63.5742 -1.06332 -2.78812 0
M  V30 500 C 62.3232 0.59391 -3.4259 0
M  V30 501 H 61.6462 -0.0573588 -3.99759 0
M  V30 502 H 63.0862 0.973446 -4.12674 0
M  V30 503 C 61.5452 1.76568 -2.86924 0
M  V30 504 O 62.0752 2.8638 -2.81691 0
M  V30 505 N 60.2812 1.58198 -2.43766 0
M  V30 506 H 59.8282 0.68872 -2.48222 0
M  V30 507 H 59.7862 2.36752 -2.06871 0
M  V30 508 N 63.5583 1.46682 -0.576371 0
M  V30 509 C 64.5063 2.31953 0.17335 0
M  V30 510 C 65.5003 1.44098 0.89062 0
M  V30 511 O 66.7063 1.60759 0.809728 0
M  V30 512 H 63.0813 0.748273 0.0747727 0
M  V30 513 H 65.0523 2.93007 -0.564738 0
M  V30 514 C 63.8013 3.27142 1.17786 0
M  V30 515 H 63.1243 3.94719 0.635361 0
M  V30 516 H 64.5643 3.896 1.67296 0
M  V30 517 C 63.0233 2.52036 2.23561 0
M  V30 518 O 63.5533 2.27877 3.3081 0
M  V30 519 N 61.7593 2.12709 1.97998 0
M  V30 520 H 61.3063 2.32557 1.10792 0
M  V30 521 H 61.2643 1.62776 2.68982 0
M  V30 522 N 65.0364 0.313813 1.54444 0
M  V30 523 C 66.4474 -0.176243 1.85866 0
M  V30 524 C 66.7984 -1.52405 1.23561 0
M  V30 525 O 65.9234 -2.09605 0.538016 0
M  V30 526 C 66.5184 -0.32657 3.37222 0
M  V30 527 C 65.0774 -0.760846 3.6863 0
M  V30 528 C 64.2244 0.123247 2.77026 0
M  V30 529 H 67.1754 0.534418 1.49431 0
M  V30 530 H 67.1964 -1.15908 3.62416 0
M  V30 531 H 66.7084 0.654531 3.82541 0
M  V30 532 H 64.8094 -1.75204 3.28838 0
M  V30 533 H 64.9224 -0.571353 4.75681 0
M  V30 534 H 63.2864 -0.399597 2.51546 0
M  V30 535 H 64.0694 1.10094 3.25168 0
M  V30 536 N 66.5145 -1.57545 0.0417849 0
M  V30 537 C 67.7605 -1.93424 -0.629168 0
M  V30 538 C 68.1155 -0.919564 -1.69002 0
M  V30 539 O 67.4085 0.0626178 -1.91498 0
M  V30 540 C 67.6025 -3.33794 -1.27735 0
M  V30 541 C 67.4315 -4.48822 -0.280806 0
M  V30 542 C 66.2015 -5.05148 0.123869 0
M  V30 543 C 68.3995 -5.12148 0.470012 0
M  V30 544 N 66.3815 -6.03703 1.11426 0
M  V30 545 C 67.7525 -6.05921 1.31377 0
M  V30 546 C 69.8075 -4.95078 0.529343 0
M  V30 547 C 68.5105 -6.84459 2.21152 0
M  V30 548 C 70.5365 -5.74235 1.41448 0
M  V30 549 C 69.8985 -6.67634 2.24598 0
M  V30 550 H 65.9975 -0.755418 -0.202158 0
M  V30 551 H 68.5815 -1.94378 0.111923 0
M  V30 552 H 66.7525 -3.33635 -1.98852 0
M  V30 553 H 68.4845 -3.56988 -1.90635 0
M  V30 554 H 65.2395 -4.72923 -0.253178 0
M  V30 555 H 65.6635 -6.57674 1.60607 0
M  V30 556 H 70.3055 -4.22683 -0.0992798 0
M  V30 557 H 68.0235 -7.56151 2.85063 0
M  V30 558 H 71.6095 -5.63057 1.46484 0
M  V30 559 H 70.4895 -7.27817 2.9198 0
M  V30 560 N 67.9926 0.231505 -1.5589 0
M  V30 561 C 69.2406 0.955461 -1.78088 0
M  V30 562 C 69.5616 1.85262 -0.608533 0
M  V30 563 O 68.8316 1.92277 0.375035 0
M  V30 564 H 67.4116 0.355787 -0.656829 0
M  V30 565 H 70.0736 0.245751 -1.93344 0
M  V30 566 H 69.1696 1.56814 -2.69844 0
M  V30 567 N 69.4707 1.49531 0.497807 0
M  V30 568 C 70.7187 1.58865 1.24926 0
M  V30 569 C 71.0397 0.278721 1.92998 0
M  V30 570 O 70.3097 -0.702144 1.82885 0
M  V30 571 H 68.8897 0.585343 0.464094 0
M  V30 572 H 71.5517 1.86174 0.57666 0
M  V30 573 H 70.6477 2.38633 2.01149 0
M  V30 574 N 70.9488 -0.749086 1.3866 0
M  V30 575 C 72.1968 -1.50535 1.34847 0
M  V30 576 C 72.5178 -1.94909 -0.0595016 0
M  V30 577 O 71.7878 -1.67973 -1.00806 0
M  V30 578 H 70.3678 -0.558395 0.49619 0
M  V30 579 H 73.0298 -0.890165 1.73384 0
M  V30 580 H 72.1258 -2.39413 2.00219 0
M  V30 581 N 72.4269 -1.23603 -0.977757 0
M  V30 582 C 73.6519 -1.09735 -1.75991 0
M  V30 583 C 74.0769 0.346858 -1.84874 0
M  V30 584 O 73.4349 1.25093 -1.3123 0
M  V30 585 C 73.4829 -1.73051 -3.16363 0
M  V30 586 O 72.5869 -0.994452 -4.0023 0
M  V30 587 H 71.9279 -0.384476 -0.541364 0
M  V30 588 H 74.4579 -1.6371 -1.2272 0
M  V30 589 H 74.4679 -1.78398 -3.66931 0
M  V30 590 H 73.1429 -2.78137 -3.09213 0
M  V30 591 H 71.7199 -1.01812 -3.58732 0
M  V30 592 N 73.905 1.17692 -1.04816 0
M  V30 593 C 75.153 1.87488 -0.754497 0
M  V30 594 C 75.474 1.81205 0.720407 0
M  V30 595 O 74.744 1.23544 1.52032 0
M  V30 596 H 73.324 0.694101 -0.276102 0
M  V30 597 H 75.986 1.42793 -1.32651 0
M  V30 598 H 75.082 2.93328 -1.06606 0
M  V30 599 N 75.3831 0.828654 1.34056 0
M  V30 600 C 76.6081 0.431637 2.02859 0
M  V30 601 C 77.0331 -0.956339 1.61975 0
M  V30 602 O 76.3911 -1.62338 0.807228 0
M  V30 603 C 76.4391 0.548323 3.56407 0
M  V30 604 O 75.5431 -0.429556 4.10157 0
M  V30 605 H 74.8841 0.176886 0.640006 0
M  V30 606 H 77.4141 1.12066 1.71179 0
M  V30 607 H 77.4241 0.426196 4.05768 0
M  V30 608 H 76.0991 1.5606 3.8551 0
M  V30 609 H 74.6761 -0.265836 3.71951 0
M  V30 610 N 76.8612 -1.46375 0.584142 0
M  V30 611 C 78.1092 -2.01978 0.0701287 0
M  V30 612 C 78.4302 -1.4579 -1.295 0
M  V30 613 O 77.7002 -0.64314 -1.85042 0
M  V30 614 H 76.2802 -0.746648 0.0229345 0
M  V30 615 H 78.9422 -1.79461 0.760245 0
M  V30 616 H 78.0382 -3.121 0.0022064 0
M  V30 617 N 78.3393 -0.321999 -1.54275 0
M  V30 618 C 79.5883 0.281931 -1.9972 0
M  V30 619 C 79.9013 1.53369 -1.21397 0
M  V30 620 O 81.1073 2.21352 -1.57211 0
M  V30 621 C 79.5633 0.5529 -3.55628 0
M  V30 622 C 79.1713 -0.681721 -4.42783 0
M  V30 623 C 80.9153 1.11687 -4.09544 0
M  V30 624 C 78.8223 -0.382742 -5.9016 0
M  V30 625 H 77.7523 0.109124 -0.746062 0
M  V30 626 H 80.4033 -0.43398 -1.78294 0
M  V30 627 H 78.7853 1.32896 -3.73035 0
M  V30 628 H 79.9593 -1.45723 -4.37151 0
M  V30 629 H 78.2743 -1.1658 -3.99748 0
M  V30 630 H 80.8713 1.35515 -5.17242 0
M  V30 631 H 81.2143 2.06575 -3.61431 0
M  V30 632 H 81.7473 0.402032 -3.95763 0
M  V30 633 H 78.4863 -1.30076 -6.42464 0
M  V30 634 H 78.0063 0.355094 -5.98748 0
M  V30 635 H 79.6853 0.00800157 -6.47 0
M  V30 636 N 79.8174 1.5752 -0.0501392 0
M  V30 637 C 80.7674 2.07981 0.934231 0
M  V30 638 C 81.7514 0.984745 1.27246 0
M  V30 639 O 82.9434 1.24809 1.25506 0
M  V30 640 C 80.0724 2.62751 2.20945 0
M  V30 641 C 79.1584 3.79225 1.89865 0
M  V30 642 N 79.5494 4.89036 1.29142 0
M  V30 643 C 77.8474 3.88111 2.19741 0
M  V30 644 C 78.5484 5.70084 1.15669 0
M  V30 645 N 77.5244 5.17659 1.65923 0
M  V30 646 H 81.3264 2.90277 0.460053 0
M  V30 647 H 78.8404 1.61665 0.15434 0
M  V30 648 H 80.8374 2.97205 2.9236 0
M  V30 649 H 79.4974 1.81894 2.6897 0
M  V30 650 H 80.5084 5.08854 0.963756 0
M  V30 651 H 77.1854 3.18194 2.70293 0
M  V30 652 H 78.5754 6.68395 0.685356 0
M  V30 653 N 81.2955 -0.223234 1.56011 0
M  V30 654 C 82.5415 -0.944891 1.8012 0
M  V30 655 C 82.8965 -1.82039 0.622862 0
M  V30 656 O 82.1895 -1.8773 -0.383143 0
M  V30 657 C 82.3835 -1.81948 3.0762 0
M  V30 658 C 82.2125 -1.03014 4.37742 0
M  V30 659 C 80.9825 -0.72574 5.00061 0
M  V30 660 C 83.1805 -0.396256 5.12771 0
M  V30 661 N 81.1625 0.0851816 6.13841 0
M  V30 662 C 82.5335 0.278137 6.19376 0
M  V30 663 C 84.5885 -0.309117 4.9694 0
M  V30 664 C 83.2915 1.03133 7.11868 0
M  V30 665 C 85.3175 0.430607 5.8983 0
M  V30 666 C 84.6795 1.09355 6.9586 0
M  V30 667 H 80.7785 -0.326081 0.710771 0
M  V30 668 H 83.3625 -0.215914 1.93499 0
M  V30 669 H 81.5335 -2.52029 2.95527 0
M  V30 670 H 83.2655 -2.47848 3.19927 0
M  V30 671 H 80.0205 -1.04335 4.61964 0
M  V30 672 H 80.4445 0.479428 6.753 0
M  V30 673 H 85.0865 -0.807313 4.15021 0
M  V30 674 H 82.8045 1.54105 7.9327 0
M  V30 675 H 86.3905 0.499012 5.79656 0
M  V30 676 H 85.2705 1.65679 7.66499 0
M  V30 677 N 82.7736 -1.49793 -0.48987 0
M  V30 678 C 84.0216 -1.59525 -1.24081 0
M  V30 679 C 84.3426 -0.288953 -1.92847 0
M  V30 680 O 83.6126 0.692436 -1.83254 0
M  V30 681 H 82.1926 -0.587796 -0.460983 0
M  V30 682 H 84.8546 -1.86477 -0.566778 0
M  V30 683 H 83.9506 -2.39696 -1.99881 0
M  V30 684 N 84.2517 0.741722 -1.39055 0
M  V30 685 C 85.4997 1.49818 -1.35643 0
M  V30 686 C 85.8207 1.94938 0.0491642 0
M  V30 687 O 85.0907 1.68505 0.999141 0
M  V30 688 H 83.6707 0.555755 -0.499144 0
M  V30 689 H 86.3327 0.880957 -1.73854 0
M  V30 690 H 85.4287 2.38348 -2.01486 0
M  V30 691 N 85.7298 1.2412 0.971189 0
M  V30 692 C 86.9778 1.07668 1.71032 0
M  V30 693 C 87.2988 -0.385797 1.91146 0
M  V30 694 O 86.5688 -1.27569 1.4867 0
M  V30 695 H 85.1488 0.395429 0.633755 0
M  V30 696 H 87.8108 1.55984 1.16855 0
M  V30 697 H 86.9068 1.57195 2.69622 0
M  V30 698 N 87.2079 -1.17134 1.05439 0
M  V30 699 C 88.4329 -1.91913 0.786396 0
M  V30 700 C 88.8579 -1.7643 -0.652234 0
M  V30 701 O 88.2159 -1.08372 -1.45345 0
M  V30 702 C 88.2639 -3.40921 1.17497 0
M  V30 703 O 87.3679 -4.11244 0.308589 0
M  V30 704 H 86.7089 -0.598215 0.288158 0
M  V30 705 H 89.2389 -1.48457 1.4079 0
M  V30 706 H 89.2489 -3.91668 1.14281 0
M  V30 707 H 87.9239 -3.5151 2.22292 0
M  V30 708 H 86.5009 -3.70731 0.40157 0
M  V30 709 N 88.686 -0.835752 -1.33615 0
M  V30 710 C 89.934 -0.429109 -1.97492 0
M  V30 711 C 90.255 1.01433 -1.66543 0
M  V30 712 O 89.525 1.70611 -0.962744 0
M  V30 713 H 88.105 -0.155686 -0.730596 0
M  V30 714 H 90.767 -1.06802 -1.63031 0
M  V30 715 H 89.863 -0.55861 -3.0706 0
M  V30 716 N 90.1641 1.46063 -0.591896 0
M  V30 717 C 91.1141 2.27458 0.157172 0
M  V30 718 C 92.0981 1.3641 0.853301 0
M  V30 719 O 93.2901 1.60517 0.74588 0
M  V30 720 C 90.4191 3.22956 1.16423 0
M  V30 721 C 89.5051 4.2149 0.469742 0
M  V30 722 N 89.8961 5.03519 -0.479839 0
M  V30 723 C 88.1941 4.40161 0.719319 0
M  V30 724 C 88.8951 5.74904 -0.886591 0
M  V30 725 N 87.8711 5.43097 -0.233731 0
M  V30 726 H 91.6731 2.88272 -0.572392 0
M  V30 727 H 89.1871 1.57024 -0.414375 0
M  V30 728 H 91.1841 3.79986 1.71513 0
M  V30 729 H 89.8441 2.63701 1.89451 0
M  V30 730 H 90.8551 5.1078 -0.855823 0
M  V30 731 H 87.5321 3.92046 1.43548 0
M  V30 732 H 88.9221 6.50844 -1.66888 0
M  V30 733 N 91.6422 0.330177 1.54103 0
M  V30 734 C 92.8902 -0.269871 2.0029 0
M  V30 735 C 93.2112 -1.52133 1.21986 0
M  V30 736 O 92.4812 -1.93212 0.323438 0
M  V30 737 H 91.0612 -0.10271 0.739905 0
M  V30 738 H 93.7232 0.448249 1.89675 0
M  V30 739 H 92.8192 -0.52166 3.07709 0
M  V30 740 N 93.1203 -1.57491 0.0584922 0
M  V30 741 C 94.0683 -2.13148 -0.931168 0
M  V30 742 C 95.0623 -1.06507 -1.31729 0
M  V30 743 O 96.2683 -1.24906 -1.29609 0
M  V30 744 H 92.6433 -0.68137 -0.31818 0
M  V30 745 H 94.6143 -2.95187 -0.436707 0
M  V30 746 C 93.3633 -2.69732 -2.19408 0
M  V30 747 H 92.6863 -3.51454 -1.90578 0
M  V30 748 H 94.1263 -3.12287 -2.86798 0
M  V30 749 C 92.5853 -1.63855 -2.94369 0
M  V30 750 O 93.1153 -1.05565 -3.87581 0
M  V30 751 N 91.3213 -1.35202 -2.57233 0
M  V30 752 H 90.8683 -1.82791 -1.81508 0
M  V30 753 H 90.8263 -0.645922 -3.07693 0
M  V30 754 N 94.5984 0.214957 -1.56127 0
M  V30 755 C 95.8464 0.936518 -1.79091 0
M  V30 756 C 96.1674 1.84606 -0.628148 0
M  V30 757 O 95.4374 1.92664 0.35462 0
M  V30 758 H 94.0174 0.3488 -0.660566 0
M  V30 759 H 96.6794 0.22523 -1.93594 0
M  V30 760 H 95.7754 1.53943 -2.71492 0
M  V30 761 N 96.0765 1.50051 0.48192 0
M  V30 762 C 97.3245 1.60181 1.23234 0
M  V30 763 C 97.6455 0.299176 1.92691 0
M  V30 764 O 96.9155 -0.682708 1.83619 0
M  V30 765 H 95.4955 0.590232 0.457859 0
M  V30 766 H 98.1575 1.86775 0.556881 0
M  V30 767 H 97.2535 2.40753 1.98607 0
M  V30 768 N 97.5546 -0.734337 1.39446 0
M  V30 769 C 98.8026 -1.49096 1.36436 0
M  V30 770 C 99.1236 -1.94961 -0.0388255 0
M  V30 771 O 98.3936 -1.69033 -0.990191 0
M  V30 772 H 96.9736 -0.5531 0.502085 0
M  V30 773 H 99.6356 -0.871725 1.74319 0
M  V30 774 H 98.7316 -2.37276 2.02747 0
M  V30 775 N 99.0327 -1.24633 -0.964593 0
M  V30 776 C 99.9807 -1.03917 -2.08096 0
M  V30 777 C 100.975 0.0268581 -1.69379 0
M  V30 778 O 102.181 -0.127952 -1.79545 0
M  V30 779 H 98.5557 -0.319044 -0.680966 0
M  V30 780 H 100.527 -1.98581 -2.22729 0
M  V30 781 C 99.2757 -0.663983 -3.41301 0
M  V30 782 H 98.5987 -1.47605 -3.71555 0
M  V30 783 H 100.039 -0.558663 -4.20303 0
M  V30 784 C 98.4977 0.629169 -3.30973 0
M  V30 785 O 99.0277 1.67404 -3.65156 0
M  V30 786 N 97.2337 0.611057 -2.84103 0
M  V30 787 H 96.7807 -0.239593 -2.56483 0
M  V30 788 H 96.7387 1.47647 -2.77575 0
M  V30 789 N 100.511 1.16574 -1.06058 0
M  V30 790 C 101.759 1.86677 -0.77434 0
M  V30 791 C 102.08 1.81959 0.701147 0
M  V30 792 O 101.35 1.2515 1.50713 0
M  V30 793 H 99.9298 0.691134 -0.283449 0
M  V30 794 H 102.592 1.41378 -1.34158 0
M  V30 795 H 101.688 2.92181 -1.09711 0
M  V30 796 N 101.989 0.842826 1.3317 0
M  V30 797 C 102.937 0.267495 2.31057 0
M  V30 798 C 103.931 -0.602682 1.58316 0
M  V30 799 O 105.137 -0.491803 1.73151 0
M  V30 800 H 101.512 0.0677813 0.748939 0
M  V30 801 H 103.483 1.10754 2.77085 0
M  V30 802 C 102.232 -0.539331 3.43492 0
M  V30 803 H 101.555 0.12095 3.99617 0
M  V30 804 H 102.995 -0.90767 4.14171 0
M  V30 805 C 101.454 -1.71981 2.89697 0
M  V30 806 O 101.984 -2.81862 2.86211 0
M  V30 807 N 100.19 -1.54299 2.46252 0
M  V30 808 H 99.7369 -0.649143 2.49287 0
M  V30 809 H 99.6949 -2.33431 2.10612 0
M  V30 810 N 103.467 -1.45747 0.599634 0
M  V30 811 C 104.692 -2.07178 0.0960198 0
M  V30 812 C 105.117 -1.44268 -1.207 0
M  V30 813 O 104.475 -0.532503 -1.73303 0
M  V30 814 C 104.523 -3.60579 -0.0385348 0
M  V30 815 O 103.627 -3.97713 -1.0908 0
M  V30 816 H 102.968 -0.660251 0.0704593 0
M  V30 817 H 105.498 -1.87124 0.827385 0
M  V30 818 H 105.508 -4.07298 -0.239304 0
M  V30 819 H 104.183 -4.05756 0.912947 0
M  V30 820 H 102.76 -3.62678 -0.867135 0
M  V30 821 N 104.945 -0.338344 -1.53925 0
M  V30 822 C 106.193 0.259245 -2.0043 0
M  V30 823 C 106.514 1.51484 -1.22791 0
M  V30 824 O 105.784 1.93037 -0.33368 0
M  V30 825 H 104.364 0.0987845 -0.740439 0
M  V30 826 H 107.026 -0.458302 -1.89435 0
M  V30 827 H 106.122 0.505334 -3.07982 0
M  V30 828 N 106.423 1.57458 -0.0668435 0
M  V30 829 C 107.671 1.92919 0.602214 0
M  V30 830 C 107.992 0.947215 1.70449 0
M  V30 831 O 107.262 -0.00544117 1.95899 0
M  V30 832 H 105.842 0.71217 0.22544 0
M  V30 833 H 108.504 1.94508 -0.123535 0
M  V30 834 H 107.6 2.94589 1.03073 0
M  V30 835 N 107.901 -0.206675 1.56239 0
M  V30 836 C 109.149 -0.927007 1.79586 0
M  V30 837 C 109.47 -1.8427 0.637929 0
M  V30 838 O 108.74 -1.92849 -0.344398 0
M  V30 839 H 107.32 -0.345292 0.662407 0
M  V30 840 H 109.982 -0.21496 1.93711 0
M  V30 841 H 109.078 -1.52501 2.72305 0
M  V30 842 N 109.379 -1.50304 -0.473955 0
M  V30 843 C 110.604 -1.65175 -1.25427 0
M  V30 844 C 111.029 -0.333673 -1.85117 0
M  V30 845 O 110.387 0.702114 -1.67153 0
M  V30 846 C 110.435 -2.74295 -2.34082 0
M  V30 847 O 109.539 -2.35349 -3.38651 0
M  V30 848 H 108.88 -0.551944 -0.369126 0
M  V30 849 H 111.41 -1.96662 -0.564364 0
M  V30 850 H 111.42 -2.97285 -2.79438 0
M  V30 851 H 110.095 -3.69959 -1.90008 0
M  V30 852 H 108.672 -2.22794 -2.99027 0
M  V30 853 N 110.857 0.726932 -1.39834 0
M  V30 854 C 112.105 1.4837 -1.37225 0
M  V30 855 C 112.426 1.94979 0.0284857 0
M  V30 856 O 111.696 1.69555 0.981213 0
M  V30 857 H 110.276 0.55043 -0.505011 0
M  V30 858 H 112.938 0.862468 -1.74778 0
M  V30 859 H 112.034 2.36198 -2.04003 0
M  V30 860 N 112.336 1.25143 0.95797 0
M  V30 861 C 113.564 1.12424 1.73691 0
M  V30 862 C 113.979 -0.322304 1.86029 0
M  V30 863 O 113.336 -1.22186 1.35561 0
M  V30 864 C 113.387 1.76933 3.15241 0
M  V30 865 O 113.108 3.15932 3.03511 0
M  V30 866 C 114.609 1.6995 4.09429 0
M  V30 867 H 111.829 0.3923 0.544373 0
M  V30 868 H 114.373 1.6544 1.20207 0
M  V30 869 H 112.528 1.27895 3.6568 0
M  V30 870 H 112.942 3.47598 3.9278 0
M  V30 871 H 114.416 2.19753 5.06372 0
M  V30 872 H 114.893 0.662619 4.34173 0
M  V30 873 H 115.499 2.18461 3.64904 0
M  V30 874 N 113.814 -1.1601 1.06675 0
M  V30 875 C 115.062 -1.86264 0.784229 0
M  V30 876 C 115.383 -1.82328 -0.691488 0
M  V30 877 O 114.653 -1.25947 -1.50047 0
M  V30 878 H 113.233 -0.689621 0.28711 0
M  V30 879 H 115.895 -1.40664 1.34906 0
M  V30 880 H 114.991 -2.91595 1.11259 0
M  V30 881 N 115.292 -0.849877 -1.32721 0
M  V30 882 C 116.54 -0.450032 -1.97026 0
M  V30 883 C 116.861 0.996604 -1.67609 0
M  V30 884 O 116.131 1.6958 -0.980786 0
M  V30 885 H 114.711 -0.163426 -0.728904 0
M  V30 886 H 117.373 -1.08526 -1.6189 0
M  V30 887 H 116.469 -0.591146 -3.0645 0
M  V30 888 N 116.77 1.45427 -0.607355 0
M  V30 889 C 117.718 2.32269 0.12411 0
M  V30 890 C 118.712 1.45955 0.859854 0
M  V30 891 O 119.918 1.6244 0.775447 0
M  V30 892 H 116.293 0.749691 0.0588839 0
M  V30 893 H 118.264 2.91743 -0.626762 0
M  V30 894 C 117.013 3.29567 1.1082 0
M  V30 895 H 116.336 3.95978 0.551492 0
M  V30 896 H 117.776 3.93061 1.58995 0
M  V30 897 C 116.235 2.56722 2.18164 0
M  V30 898 O 116.765 2.34842 3.25902 0
M  V30 899 N 114.971 2.16861 1.93442 0
M  V30 900 H 114.518 2.34855 1.05834 0
M  V30 901 H 114.476 1.68444 2.65469 0
M  V30 902 N 118.248 0.346503 1.53744 0
M  V30 903 C 119.178 -0.501193 2.28058 0
M  V30 904 C 120.159 -1.10014 1.29734 0
M  V30 905 O 121.344 -1.12097 1.58581 0
M  V30 906 C 118.474 -1.65078 3.05559 0
M  V30 907 C 117.428 -1.18003 4.11411 0
M  V30 908 C 116.754 -2.41837 4.76884 0
M  V30 909 C 118.054 -0.278394 5.21558 0
M  V30 910 H 119.748 0.11875 2.99164 0
M  V30 911 H 117.294 0.0585531 1.43881 0
M  V30 912 H 119.247 -2.25028 3.56287 0
M  V30 913 H 117.971 -2.29767 2.32109 0
M  V30 914 H 116.63 -0.603331 3.61601 0
M  V30 915 H 116.278 -3.0494 4.00026 0
M  V30 916 H 115.978 -2.1102 5.48402 0
M  V30 917 H 117.502 -3.02508 5.30397 0
M  V30 918 H 118.916 -0.784823 5.67903 0
M  V30 919 H 117.313 -0.0619707 6.00068 0
M  V30 920 H 118.383 0.684677 4.80042 0
M  V30 921 N 119.726 -1.57421 0.075193 0
M  V30 922 C 120.951 -1.98364 -0.605515 0
M  V30 923 C 121.376 -0.953383 -1.62149 0
M  V30 924 O 120.734 0.0806053 -1.81121 0
M  V30 925 C 120.782 -3.38332 -1.24756 0
M  V30 926 O 119.886 -3.37959 -2.36342 0
M  V30 927 H 119.227 -0.645553 -0.155428 0
M  V30 928 H 121.757 -2.04044 0.150714 0
M  V30 929 H 121.767 -3.75591 -1.5936 0
M  V30 930 H 120.442 -4.12846 -0.503129 0
M  V30 931 H 119.019 -3.12474 -2.03506 0
M  V30 932 N 121.204 0.198386 -1.56346 0
M  V30 933 C 122.167 1.22952 -1.93431 0
M  V30 934 C 123.167 1.38611 -0.815092 0
M  V30 935 O 124.357 1.36479 -1.08255 0
M  V30 936 C 121.489 2.59946 -2.20546 0
M  V30 937 H 122.682 0.912626 -2.85677 0
M  V30 938 H 120.235 0.43977 -1.49986 0
M  V30 939 H 120.97 2.96696 -1.30927 0
M  V30 940 H 120.755 2.49953 -3.02102 0
M  V30 941 H 122.245 3.3431 -2.50253 0
M  V30 942 N 122.682 1.50554 0.465978 0
M  V30 943 C 123.928 1.62038 1.21949 0
M  V30 944 C 124.261 0.322116 1.9151 0
M  V30 945 O 123.536 -0.676723 1.82348 0
M  V30 946 C 123.819 2.80421 2.25912 0
M  V30 947 C 123.672 4.20144 1.60622 0
M  V30 948 C 124.991 2.94354 3.27176 0
M  V30 949 H 122.11 0.589752 0.441998 0
M  V30 950 H 124.752 1.82956 0.51257 0
M  V30 951 H 122.902 2.62717 2.86203 0
M  V30 952 H 124.574 4.49449 1.03889 0
M  V30 953 H 122.817 4.24165 0.909211 0
M  V30 954 H 123.488 4.98914 2.36196 0
M  V30 955 H 125.964 3.10578 2.76913 0
M  V30 956 H 124.84 3.788 3.97242 0
M  V30 957 H 125.101 2.05186 3.916 0
M  V30 958 N 124.16 -0.719506 1.40217 0
M  V30 959 C 125.123 -1.8153 1.39927 0
M  V30 960 C 126.123 -1.58095 0.293723 0
M  V30 961 O 127.313 -1.65209 0.552429 0
M  V30 962 C 124.445 -3.19561 1.18716 0
M  V30 963 H 125.638 -1.83186 2.37451 0
M  V30 964 H 123.191 -0.924746 1.26008 0
M  V30 965 H 123.926 -3.23557 0.219366 0
M  V30 966 H 123.711 -3.3797 1.98793 0
M  V30 967 H 125.201 -3.99598 1.21291 0
M  V30 968 N 125.638 -1.25649 -0.95132 0
M  V30 969 C 126.601 -1.06399 -2.03007 0
M  V30 970 C 127.601 -0.0156794 -1.60792 0
M  V30 971 O 128.791 -0.25817 -1.72276 0
M  V30 972 C 125.923 -0.616184 -3.35285 0
M  V30 973 H 127.116 -2.02164 -2.21517 0
M  V30 974 H 124.669 -1.08103 -1.12887 0
M  V30 975 H 125.404 0.343917 -3.22471 0
M  V30 976 H 125.189 -1.37301 -3.67275 0
M  V30 977 H 126.679 -0.503032 -4.14559 0
M  V30 978 N 127.117 1.15442 -1.07289 0
M  V30 979 C 128.528 1.67803 -0.818475 0
M  V30 980 C 128.879 1.8489 0.656507 0
M  V30 981 O 128.004 1.55176 1.50829 0
M  V30 982 C 128.599 3.04805 -1.47917 0
M  V30 983 C 127.158 3.54245 -1.27229 0
M  V30 984 C 126.305 2.29986 -1.54925 0
M  V30 985 H 129.256 0.996646 -1.23502 0
M  V30 986 H 129.277 3.69702 -0.90005 0
M  V30 987 H 128.789 2.92336 -2.55267 0
M  V30 988 H 126.89 3.71956 -0.21899 0
M  V30 989 H 127.003 4.35723 -1.99203 0
M  V30 990 H 125.367 2.35496 -0.970242 0
M  V30 991 H 126.15 2.20105 -2.63455 0
M  V30 992 N 128.595 0.856903 1.32268 0
M  V30 993 C 129.841 0.462069 1.97466 0
M  V30 994 C 130.174 -0.980298 1.67642 0
M  V30 995 O 129.449 -1.68824 0.965858 0
M  V30 996 C 129.732 0.704336 3.53145 0
M  V30 997 C 129.585 2.19529 3.9259 0
M  V30 998 C 130.904 0.1622 4.39801 0
M  V30 999 H 128.023 0.169357 0.717278 0
M  V30 1000 H 130.665 1.07574 1.56614 0
M  V30 1001 H 128.815 0.181999 3.88073 0
M  V30 1002 H 130.487 2.78387 3.67829 0
M  V30 1003 H 128.73 2.67292 3.41668 0
M  V30 1004 H 129.401 2.31549 5.01088 0
M  V30 1005 H 131.877 0.608905 4.11621 0
M  V30 1006 H 130.753 0.361265 5.4771 0
M  V30 1007 H 131.014 -0.935158 4.32096 0
M  V30 1008 N 130.073 -1.45103 0.615059 0
M  V30 1009 C 131.036 -2.29025 -0.0895485 0
M  V30 1010 C 132.036 -1.40174 -0.787906 0
M  V30 1011 O 133.226 -1.62217 -0.634933 0
M  V30 1012 C 130.358 -3.21376 -1.13711 0
M  V30 1013 H 131.551 -2.92807 0.648382 0
M  V30 1014 H 129.104 -1.51749 0.374444 0
M  V30 1015 H 129.839 -2.6241 -1.90556 0
M  V30 1016 H 129.624 -3.86834 -0.640475 0
M  V30 1017 H 131.114 -3.84459 -1.63036 0
M  V30 1018 N 131.551 -0.354651 -1.53558 0
M  V30 1019 C 132.798 0.238443 -2.01091 0
M  V30 1020 C 133.126 1.49663 -1.24222 0
M  V30 1021 O 132.381 1.93049 -0.321003 0
M  V30 1022 C 132.68 0.587121 -3.52545 0
M  V30 1023 C 132.346 -0.575472 -4.47213 0
M  V30 1024 C 131.008 -0.894497 -4.72813 0
M  V30 1025 C 133.36 -1.35489 -5.03281 0
M  V30 1026 C 130.688 -1.99511 -5.51736 0
M  V30 1027 C 133.04 -2.44583 -5.83405 0
M  V30 1028 C 131.704 -2.77033 -6.07296 0
M  V30 1029 H 130.974 0.0872526 -0.735845 0
M  V30 1030 H 133.621 -0.484859 -1.8526 0
M  V30 1031 H 131.926 1.39129 -3.66265 0
M  V30 1032 H 133.623 1.05809 -3.86789 0
M  V30 1033 H 130.213 -0.316774 -4.27428 0
M  V30 1034 H 134.397 -1.12167 -4.83459 0
M  V30 1035 H 129.653 -2.25063 -5.68469 0
M  V30 1036 H 133.827 -3.05401 -6.25862 0
M  V30 1037 H 131.454 -3.6244 -6.68237 0
M  V30 1038 N 133.029 1.57378 -0.0835403 0
M  V30 1039 C 134.277 1.93547 0.581718 0
M  V30 1040 C 134.598 0.96524 1.69435 0
M  V30 1041 O 133.868 0.0153369 1.95894 0
M  V30 1042 H 132.448 0.714521 0.217874 0
M  V30 1043 H 135.11 1.94366 -0.144158 0
M  V30 1044 H 134.206 2.95665 0.999423 0
M  V30 1045 N 134.507 -0.190092 1.56449 0
M  V30 1046 C 135.754 -0.909705 1.80916 0
M  V30 1047 C 136.082 -1.83047 0.657583 0
M  V30 1048 O 135.337 -1.92428 -0.356356 0
M  V30 1049 C 135.636 -1.75382 3.1141 0
M  V30 1050 C 135.302 -0.983606 4.40041 0
M  V30 1051 C 133.964 -0.770967 4.74984 0
M  V30 1052 C 136.316 -0.442024 5.19322 0
M  V30 1053 C 133.644 -0.0053448 5.867 0
M  V30 1054 C 135.996 0.310412 6.31838 0
M  V30 1055 C 134.66 0.534023 6.6536 0
M  V30 1056 H 133.93 -0.332885 0.662019 0
M  V30 1057 H 136.577 -0.175762 1.90692 0
M  V30 1058 H 134.882 -2.55659 2.96893 0
M  V30 1059 H 136.579 -2.31331 3.27547 0
M  V30 1060 H 133.169 -1.15936 4.12622 0
M  V30 1061 H 137.353 -0.593693 4.92736 0
M  V30 1062 H 132.609 0.177825 6.11141 0
M  V30 1063 H 136.783 0.737419 6.92485 0
M  V30 1064 H 134.41 1.12918 7.51767 0
M  V30 1065 N 135.985 -1.50799 -0.457987 0
M  V30 1066 C 137.396 -1.55152 -1.0385 0
M  V30 1067 C 137.747 -0.362719 -1.92818 0
M  V30 1068 O 136.872 0.522915 -2.09987 0
M  V30 1069 C 137.467 -2.81173 -1.89017 0
M  V30 1070 C 136.026 -2.88164 -2.42154 0
M  V30 1071 C 135.173 -2.49591 -1.20829 0
M  V30 1072 H 138.124 -1.56874 -0.240068 0
M  V30 1073 H 138.145 -2.63769 -2.74238 0
M  V30 1074 H 137.657 -3.67677 -1.24238 0
M  V30 1075 H 135.758 -2.06042 -3.10447 0
M  V30 1076 H 135.871 -3.91356 -2.76364 0
M  V30 1077 H 134.235 -2.02322 -1.54719 0
M  V30 1078 H 135.018 -3.38418 -0.576927 0
M  V30 1079 N 137.463 0.71206 -1.40597 0
M  V30 1080 C 138.426 1.80785 -1.40888 0
M  V30 1081 C 139.426 1.57937 -0.302103 0
M  V30 1082 O 140.616 1.64913 -0.561182 0
M  V30 1083 C 137.748 3.18927 -1.20409 0
M  V30 1084 H 138.941 1.81924 -2.38419 0
M  V30 1085 H 136.494 0.91805 -1.26497 0
M  V30 1086 H 137.229 3.23436 -0.236522 0
M  V30 1087 H 137.014 3.36911 -2.00582 0
M  V30 1088 H 138.504 3.98949 -1.23408 0
M  V30 1089 N 138.941 1.26152 0.944643 0
M  V30 1090 C 139.871 1.09902 2.06019 0
M  V30 1091 C 140.852 0.00519538 1.70099 0
M  V30 1092 O 142.037 0.176583 1.93396 0
M  V30 1093 C 139.167 0.727562 3.39594 0
M  V30 1094 C 138.121 1.77274 3.89561 0
M  V30 1095 C 137.447 1.25569 5.19747 0
M  V30 1096 C 138.747 3.17357 4.14827 0
M  V30 1097 H 140.441 2.03217 2.19871 0
M  V30 1098 H 137.987 0.978452 1.05652 0
M  V30 1099 H 139.94 0.600777 4.17095 0
M  V30 1100 H 138.664 -0.241287 3.25707 0
M  V30 1101 H 137.323 1.88814 3.14237 0
M  V30 1102 H 136.971 0.276783 5.02238 0
M  V30 1103 H 136.671 1.95433 5.54148 0
M  V30 1104 H 138.195 1.1415 5.99835 0
M  V30 1105 H 139.609 3.08914 4.82954 0
M  V30 1106 H 138.006 3.84781 4.60504 0
M  V30 1107 H 139.076 3.63673 3.20734 0
M  V30 1108 N 140.419 -1.14872 1.07899 0
M  V30 1109 C 141.644 -1.90202 0.826926 0
M  V30 1110 C 142.069 -1.77774 -0.614664 0
M  V30 1111 O 141.427 -1.11431 -1.43013 0
M  V30 1112 C 141.475 -3.38352 1.24702 0
M  V30 1113 O 140.579 -4.10497 0.39575 0
M  V30 1114 H 139.92 -0.591968 0.300782 0
M  V30 1115 H 142.45 -1.45437 1.43907 0
M  V30 1116 H 142.46 -3.89156 1.22563 0
M  V30 1117 H 141.135 -3.46715 2.29698 0
M  V30 1118 H 139.712 -3.69796 0.480117 0
M  V30 1119 N 141.898 -0.863906 -1.31812 0
M  V30 1120 C 143.126 -0.486111 -2.01108 0
M  V30 1121 C 143.541 0.919755 -1.64882 0
M  V30 1122 O 142.898 1.60162 -0.874893 0
M  V30 1123 C 142.949 -0.626435 -3.56031 0
M  V30 1124 O 142.67 -1.97693 -3.90959 0
M  V30 1125 C 144.171 -0.248857 -4.42601 0
M  V30 1126 H 141.391 -0.190052 -0.643523 0
M  V30 1127 H 143.935 -1.1634 -1.68182 0
M  V30 1128 H 142.09 0.00322717 -3.874 0
M  V30 1129 H 142.504 -1.98034 -4.85678 0
M  V30 1130 H 143.978 -0.398016 -5.50563 0
M  V30 1131 H 144.455 0.811489 -4.31638 0
M  V30 1132 H 145.061 -0.853971 -4.16638 0
M  V30 1133 N 143.376 1.44774 -0.622745 0
M  V30 1134 C 144.787 1.85546 -0.207226 0
M  V30 1135 C 145.138 1.52093 1.23944 0
M  V30 1136 O 144.263 0.95492 1.94191 0
M  V30 1137 C 144.858 3.36781 -0.369313 0
M  V30 1138 C 143.417 3.76399 -0.00836847 0
M  V30 1139 C 142.564 2.68664 -0.686651 0
M  V30 1140 H 145.515 1.3536 -0.828454 0
M  V30 1141 H 145.536 3.78453 0.394162 0
M  V30 1142 H 145.048 3.61098 -1.42231 0
M  V30 1143 H 143.149 3.57698 1.04322 0
M  V30 1144 H 143.262 4.7732 -0.412584 0
M  V30 1145 H 141.626 2.54404 -0.122777 0
M  V30 1146 H 142.409 2.95815 -1.74208 0
M  V30 1147 N 144.854 0.36279 1.53368 0
M  V30 1148 C 146.102 -0.227326 2.00817 0
M  V30 1149 C 146.423 -1.49511 1.25186 0
M  V30 1150 O 145.693 -1.92482 0.364348 0
M  V30 1151 H 144.273 -0.0869923 0.741917 0
M  V30 1152 H 146.935 0.488381 1.88682 0
M  V30 1153 H 146.031 -0.456273 3.08747 0
M  V30 1154 N 146.332 -1.57332 0.0918853 0
M  V30 1155 C 147.295 -2.12708 -0.85369 0
M  V30 1156 C 148.295 -1.05561 -1.213 0
M  V30 1157 O 149.485 -1.31461 -1.14296 0
M  V30 1158 C 146.617 -2.64503 -2.15061 0
M  V30 1159 H 147.81 -2.97573 -0.3729 0
M  V30 1160 H 145.363 -1.55509 -0.157072 0
M  V30 1161 H 146.098 -1.83149 -2.67632 0
M  V30 1162 H 145.883 -3.4284 -1.90272 0
M  V30 1163 H 147.373 -3.07351 -2.82711 0
M  V30 1164 N 147.81 0.181792 -1.56548 0
M  V30 1165 C 149.058 0.89832 -1.81038 0
M  V30 1166 C 149.379 1.83232 -0.667164 0
M  V30 1167 O 148.649 1.93372 0.313673 0
M  V30 1168 H 147.229 0.33471 -0.667816 0
M  V30 1169 H 149.891 0.184116 -1.94028 0
M  V30 1170 H 148.987 1.4815 -2.74696 0
M  V30 1171 N 149.288 1.51039 0.449983 0
M  V30 1172 C 150.536 1.62759 1.19808 0
M  V30 1173 C 150.857 0.339981 1.92013 0
M  V30 1174 O 150.127 -0.643606 1.85026 0
M  V30 1175 H 148.707 0.599811 0.445237 0
M  V30 1176 H 151.369 1.87914 0.517138 0
M  V30 1177 H 150.465 2.44911 1.93455 0
M  V30 1178 N 150.766 -0.704594 1.40972 0
M  V30 1179 C 151.696 -1.83124 1.44872 0
M  V30 1180 C 152.677 -1.67281 0.30838 0
M  V30 1181 O 153.862 -1.87149 0.518556 0
M  V30 1182 C 150.992 -3.21181 1.32136 0
M  V30 1183 C 149.946 -3.51714 2.43888 0
M  V30 1184 C 149.272 -4.89032 2.16222 0
M  V30 1185 C 150.572 -3.516 3.86232 0
M  V30 1186 H 152.266 -1.80117 2.39161 0
M  V30 1187 H 149.812 -0.865145 1.15114 0
M  V30 1188 H 151.765 -3.99702 1.33479 0
M  V30 1189 H 150.489 -3.24791 0.343279 0
M  V30 1190 H 149.148 -2.75539 2.41813 0
M  V30 1191 H 148.796 -4.89256 1.16778 0
M  V30 1192 H 148.496 -5.10426 2.911 0
M  V30 1193 H 150.02 -5.69873 2.19265 0
M  V30 1194 H 151.434 -4.2014 3.9007 0
M  V30 1195 H 149.831 -3.84523 4.60719 0
M  V30 1196 H 150.901 -2.50757 4.15029 0
M  V30 1197 N 152.244 -1.26651 -0.937939 0
M  V30 1198 C 153.207 -1.08546 -2.01867 0
M  V30 1199 C 154.207 -0.0327327 -1.60767 0
M  V30 1200 O 155.397 -0.276427 -1.71993 0
M  V30 1201 C 152.529 -0.651711 -3.34613 0
M  V30 1202 H 153.722 -2.04502 -2.1936 0
M  V30 1203 H 151.275 -1.09294 -1.11734 0
M  V30 1204 H 152.01 0.309696 -3.22818 0
M  V30 1205 H 151.795 -1.41189 -3.65798 0
M  V30 1206 H 153.285 -0.546973 -4.14002 0
M  V30 1207 N 153.722 1.14298 -1.08507 0
M  V30 1208 C 154.968 1.85633 -0.816581 0
M  V30 1209 C 155.301 1.82784 0.656021 0
M  V30 1210 O 154.576 1.25926 1.48233 0
M  V30 1211 C 154.859 3.34223 -1.34041 0
M  V30 1212 C 154.712 3.45639 -2.87843 0
M  V30 1213 C 156.031 4.29356 -0.9665 0
M  V30 1214 H 153.15 0.67402 -0.298104 0
M  V30 1215 H 155.792 1.34214 -1.34487 0
M  V30 1216 H 153.942 3.78144 -0.89104 0
M  V30 1217 H 155.614 3.10498 -3.41158 0
M  V30 1218 H 153.857 2.86817 -3.25451 0
M  V30 1219 H 154.528 4.50089 -3.19569 0
M  V30 1220 H 157.004 3.93457 -1.35391 0
M  V30 1221 H 155.88 5.3178 -1.3602 0
M  V30 1222 H 156.141 4.41919 0.126362 0
M  V30 1223 N 155.201 0.870884 1.31352 0
M  V30 1224 C 156.426 0.495957 2.01383 0
M  V30 1225 C 156.851 -0.904324 1.64935 0
M  V30 1226 O 156.209 -1.59687 0.858466 0
M  V30 1227 C 156.257 0.661433 3.54482 0
M  V30 1228 O 155.361 -0.298851 4.11316 0
M  V30 1229 H 154.702 0.197158 0.634054 0
M  V30 1230 H 157.232 1.17455 1.67527 0
M  V30 1231 H 157.242 0.555072 4.04207 0
M  V30 1232 H 155.917 1.68246 3.8035 0
M  V30 1233 H 154.494 -0.147368 3.72609 0
M  V30 1234 N 156.679 -1.44442 0.630414 0
M  V30 1235 C 157.928 -2.01267 0.132073 0
M  V30 1236 C 158.241 -1.50172 -1.25331 0
M  V30 1237 O 159.447 -1.9912 -1.84562 0
M  V30 1238 C 157.903 -3.59422 0.185362 0
M  V30 1239 C 157.511 -4.19514 1.57201 0
M  V30 1240 C 159.255 -4.23724 -0.256553 0
M  V30 1241 C 157.162 -5.69891 1.58045 0
M  V30 1242 H 156.092 -0.752619 0.0456092 0
M  V30 1243 H 158.743 -1.65666 0.789106 0
M  V30 1244 H 157.125 -3.92318 -0.538759 0
M  V30 1245 H 158.299 -3.98156 2.31966 0
M  V30 1246 H 156.614 -3.67496 1.95795 0
M  V30 1247 H 159.211 -5.34019 -0.269767 0
M  V30 1248 H 159.554 -3.96013 -1.28372 0
M  V30 1249 H 160.087 -3.95629 0.41505 0
M  V30 1250 H 156.826 -6.02336 2.58597 0
M  V30 1251 H 156.346 -5.93373 0.875725 0
M  V30 1252 H 158.025 -6.33515 1.31408 0
M  V30 1253 N 158.157 -0.370918 -1.53173 0
M  V30 1254 C 159.382 0.220293 -2.06227 0
M  V30 1255 C 159.807 1.41243 -1.24225 0
M  V30 1256 O 159.165 1.79387 -0.262645 0
M  V30 1257 C 159.213 0.586663 -3.55796 0
M  V30 1258 O 158.317 1.68317 -3.76488 0
M  V30 1259 H 157.658 0.0308099 -0.663285 0
M  V30 1260 H 160.188 -0.533068 -1.97534 0
M  V30 1261 H 160.198 0.85617 -3.98916 0
M  V30 1262 H 158.873 -0.285013 -4.14922 0
M  V30 1263 H 157.45 1.40881 -3.45264 0
M  V30 1264 N 159.635 1.57281 -0.100228 0
M  V30 1265 C 160.598 2.13158 0.842398 0
M  V30 1266 C 161.598 1.06202 1.20738 0
M  V30 1267 O 162.788 1.32066 1.13597 0
M  V30 1268 C 159.92 2.65639 2.13655 0
M  V30 1269 H 161.113 2.97766 0.357114 0
M  V30 1270 H 158.666 1.5559 0.148823 0
M  V30 1271 H 159.401 1.84566 2.66657 0
M  V30 1272 H 159.186 3.43844 1.88451 0
M  V30 1273 H 160.676 3.08846 2.81077 0
M  V30 1274 N 161.113 -0.173488 1.56642 0
M  V30 1275 C 162.361 -0.888706 1.81512 0
M  V30 1276 C 162.682 -1.82875 0.676872 0
M  V30 1277 O 161.952 -1.93536 -0.303414 0
M  V30 1278 H 160.532 -0.331164 0.669582 0
M  V30 1279 H 163.194 -0.173823 1.94123 0
M  V30 1280 H 162.29 -1.46691 2.75478 0
M  V30 1281 N 162.591 -1.51276 -0.441967 0
M  V30 1282 C 163.554 -1.7167 -1.51862 0
M  V30 1283 C 164.554 -0.586793 -1.49711 0
M  V30 1284 O 165.744 -0.854276 -1.51815 0
M  V30 1285 C 162.876 -1.76889 -2.91416 0
M  V30 1286 H 164.069 -2.67754 -1.35084 0
M  V30 1287 H 161.622 -1.41196 -0.670333 0
M  V30 1288 H 162.357 -0.826026 -3.13604 0
M  V30 1289 H 162.142 -2.59001 -2.94382 0
M  V30 1290 H 163.632 -1.94522 -3.69528 0
M  V30 1291 N 164.069 0.697108 -1.41344 0
M  V30 1292 C 164.999 1.82353 -1.45841 0
M  V30 1293 C 165.98 1.67115 -0.317247 0
M  V30 1294 O 167.165 1.86871 -0.528474 0
M  V30 1295 C 164.295 3.20476 -1.33838 0
M  V30 1296 C 163.249 3.50415 -2.4575 0
M  V30 1297 C 162.575 4.87878 -2.18813 0
M  V30 1298 C 163.875 3.49546 -3.88091 0
M  V30 1299 H 165.569 1.78846 -2.40113 0
M  V30 1300 H 163.115 0.859028 -1.15571 0
M  V30 1301 H 165.068 3.98988 -1.35596 0
M  V30 1302 H 163.792 3.24604 -0.360498 0
M  V30 1303 H 162.451 2.74253 -2.43271 0
M  V30 1304 H 162.099 4.8863 -1.19371 0
M  V30 1305 H 161.799 5.08875 -2.93803 0
M  V30 1306 H 163.323 5.68702 -2.22284 0
M  V30 1307 H 164.737 4.18066 -3.92293 0
M  V30 1308 H 163.134 3.82075 -4.62751 0
M  V30 1309 H 164.204 2.48552 -4.16353 0
M  V30 1310 N 165.547 1.27147 0.931209 0
M  V30 1311 C 166.772 1.16191 1.71797 0
M  V30 1312 C 167.197 -0.278004 1.86034 0
M  V30 1313 O 166.555 -1.20137 1.35782 0
M  V30 1314 C 166.603 1.84673 3.09723 0
M  V30 1315 O 165.707 1.14231 3.96264 0
M  V30 1316 H 165.048 0.404303 0.526721 0
M  V30 1317 H 167.578 1.68152 1.1656 0
M  V30 1318 H 167.588 1.91893 3.60057 0
M  V30 1319 H 166.263 2.89421 2.98677 0
M  V30 1320 H 164.84 1.15056 3.54706 0
M  V30 1321 N 167.025 -1.13721 1.09112 0
M  V30 1322 C 167.988 -2.17222 0.731241 0
M  V30 1323 C 168.988 -1.59035 -0.237566 0
M  V30 1324 O 170.178 -1.74192 -0.0161704 0
M  V30 1325 C 167.31 -3.40804 0.0808443 0
M  V30 1326 H 168.503 -2.50573 1.64783 0
M  V30 1327 H 166.056 -1.28493 0.889897 0
M  V30 1328 H 166.791 -3.1304 -0.847127 0
M  V30 1329 H 166.576 -3.84306 0.777896 0
M  V30 1330 H 168.066 -4.1731 -0.155657 0
M  V30 1331 N 168.503 -0.877838 -1.30888 0
M  V30 1332 C 169.466 -0.344265 -2.266 0
M  V30 1333 C 170.466 0.50922 -1.52524 0
M  V30 1334 O 171.656 0.317398 -1.71284 0
M  V30 1335 C 168.788 0.510198 -3.37061 0
M  V30 1336 H 169.981 -1.1893 -2.7531 0
M  V30 1337 H 167.534 -0.654088 -1.41956 0
M  V30 1338 H 168.269 1.37612 -2.93655 0
M  V30 1339 H 168.054 -0.101047 -3.9197 0
M  V30 1340 H 169.544 0.875537 -4.08319 0
M  V30 1341 N 169.982 1.44106 -0.638065 0
M  V30 1342 C 171.231 2.01194 -0.142744 0
M  V30 1343 C 171.544 1.50835 1.24532 0
M  V30 1344 O 172.75 2.00096 1.83504 0
M  V30 1345 C 171.206 3.59319 -0.20442 0
M  V30 1346 C 170.814 4.18674 -1.59423 0
M  V30 1347 C 172.558 4.23854 0.234079 0
M  V30 1348 C 170.465 5.69045 -1.61065 0
M  V30 1349 H 169.395 0.752367 -0.0495998 0
M  V30 1350 H 172.046 1.65246 -0.797881 0
M  V30 1351 H 170.428 3.92598 0.517946 0
M  V30 1352 H 171.602 3.96921 -2.34074 0
M  V30 1353 H 169.917 3.66453 -1.97741 0
M  V30 1354 H 172.514 5.34155 0.241443 0
M  V30 1355 H 172.857 3.96688 1.2627 0
M  V30 1356 H 173.39 3.95403 -0.436025 0
M  V30 1357 H 170.129 6.00956 -2.61787 0
M  V30 1358 H 169.649 5.929 -0.90718 0
M  V30 1359 H 171.328 6.32809 -1.34766 0
M  V30 1360 N 171.46 0.379036 1.52974 0
M  V30 1361 C 172.423 -0.448865 2.24762 0
M  V30 1362 C 173.423 -0.998689 1.26027 0
M  V30 1363 O 174.613 -0.882313 1.50203 0
M  V30 1364 C 171.745 -1.62872 2.99476 0
M  V30 1365 H 172.938 0.179491 2.99362 0
M  V30 1366 H 170.491 0.13096 1.5575 0
M  V30 1367 H 171.226 -2.29479 2.29151 0
M  V30 1368 H 171.011 -1.24128 3.71934 0
M  V30 1369 H 172.501 -2.2151 3.5401 0
M  V30 1370 N 172.938 -1.57226 0.108567 0
M  V30 1371 C 174.215 -1.86333 -0.594939 0
M  V30 1372 C 174.595 -1.00788 -1.85486 0
M  V30 1373 O 173.943 -0.0839293 -2.28346 0
M  V30 1374 C 174.153 -3.37265 -0.897405 0
M  V30 1375 C 175.501 -4.05629 -1.25501 0
M  V30 1376 O 176.525 -3.42224 -0.987998 0
M  V30 1377 O 175.384 -5.17531 -1.75567 0
M  V30 1378 H 172.478 -0.771018 -0.2991 0
M  V30 1379 H 175.024 -1.69102 0.142283 0
M  V30 1380 H 173.796 -3.913 -0.00413806 0
M  V30 1381 H 173.419 -3.59889 -1.69014 0
M  V30 1382 N 174.416 0.165178 -1.56732 0
M  V30 1383 C 175.665 0.879143 -1.81532 0
M  V30 1384 C 175.978 1.83144 -0.686842 0
M  V30 1385 O 177.184 2.58823 -0.819944 0
M  V30 1386 C 175.64 1.61388 -3.21686 0
M  V30 1387 C 175.248 0.704904 -4.4242 0
M  V30 1388 C 176.992 2.3157 -3.55774 0
M  V30 1389 C 174.899 1.44022 -5.73595 0
M  V30 1390 H 173.829 0.332033 -0.676957 0
M  V30 1391 H 176.48 0.132008 -1.83025 0
M  V30 1392 H 174.862 2.40599 -3.14529 0
M  V30 1393 H 176.036 -0.0506815 -4.60772 0
M  V30 1394 H 174.351 0.112419 -4.16248 0
M  V30 1395 H 176.948 2.8719 -4.51028 0
M  V30 1396 H 177.291 3.07201 -2.8095 0
M  V30 1397 H 177.824 1.59297 -3.64513 0
M  V30 1398 H 174.563 0.72612 -6.51466 0
M  V30 1399 H 174.083 2.16898 -5.5921 0
M  V30 1400 H 175.762 1.98606 -6.15764 0
M  V30 1401 N 175.894 1.51508 0.433938 0
M  V30 1402 C 176.827 1.67756 1.54704 0
M  V30 1403 C 177.805 0.525127 1.53887 0
M  V30 1404 O 178.989 0.749393 1.72963 0
M  V30 1405 C 176.116 1.69424 2.9328 0
M  V30 1406 C 175.162 2.90673 3.12108 0
M  V30 1407 S 175.995 4.51431 2.88046 0
M  V30 1408 C 177.151 4.55849 4.28897 0
M  V30 1409 H 177.384 2.61904 1.40689 0
M  V30 1410 H 174.917 1.41235 0.62386 0
M  V30 1411 H 176.875 1.7107 3.73156 0
M  V30 1412 H 175.536 0.764464 3.04655 0
M  V30 1413 H 174.729 2.88251 4.13434 0
M  V30 1414 H 174.331 2.86786 2.40062 0
M  V30 1415 H 176.623 4.31699 5.22152 0
M  V30 1416 H 177.566 5.57676 4.36351 0
M  V30 1417 H 177.974 3.85137 4.12711 0
M  V30 1418 N 177.372 -0.689602 1.41712 0
M  V30 1419 C 178.335 -1.78521 1.43746 0
M  V30 1420 C 179.335 -1.57436 0.327191 0
M  V30 1421 O 180.525 -1.64 0.587348 0
M  V30 1422 C 177.657 -3.16971 1.25467 0
M  V30 1423 H 178.85 -1.78108 2.41283 0
M  V30 1424 H 176.403 -0.89781 1.27942 0
M  V30 1425 H 177.138 -3.23019 0.287948 0
M  V30 1426 H 176.923 -3.33678 2.05917 0
M  V30 1427 H 178.413 -3.96935 1.2974 0
M  V30 1428 N 178.85 -1.27639 -0.924453 0
M  V30 1429 C 179.813 -1.10681 -2.00705 0
M  V30 1430 C 180.813 -0.0497823 -1.60723 0
M  V30 1431 O 182.003 -0.294654 -1.7169 0
M  V30 1432 C 179.135 -0.687164 -3.33902 0
M  V30 1433 H 180.328 -2.06817 -2.17179 0
M  V30 1434 H 177.881 -1.10473 -1.10569 0
M  V30 1435 H 178.616 0.275439 -3.23128 0
M  V30 1436 H 178.401 -1.45061 -3.6428 0
M  V30 1437 H 179.891 -0.590853 -4.13399 0
M  V30 1438 N 180.328 1.1314 -1.09713 0
M  V30 1439 C 181.258 2.20748 -0.761102 0
M  V30 1440 C 182.239 1.68061 0.262566 0
M  V30 1441 O 183.424 1.93765 0.129977 0
M  V30 1442 C 180.554 3.46812 -0.184054 0
M  V30 1443 C 179.508 4.12606 -1.13757 0
M  V30 1444 C 178.834 5.33031 -0.422083 0
M  V30 1445 C 180.134 4.59603 -2.48118 0
M  V30 1446 H 181.828 2.49113 -1.66082 0
M  V30 1447 H 179.374 1.19734 -0.799987 0
M  V30 1448 H 181.327 4.21353 0.0631215 0
M  V30 1449 H 180.051 3.17851 0.750868 0
M  V30 1450 H 178.71 3.40036 -1.37007 0
M  V30 1451 H 178.358 5.00335 0.517072 0
M  V30 1452 H 178.058 5.77999 -1.05788 0
M  V30 1453 H 179.582 6.10325 -0.183277 0
M  V30 1454 H 180.996 5.25552 -2.29059 0
M  V30 1455 H 179.393 5.15321 -3.07514 0
M  V30 1456 H 180.463 3.73971 -3.08665 0
M  V30 1457 N 181.806 0.884767 1.30421 0
M  V30 1458 C 182.753 0.349642 2.28136 0
M  V30 1459 C 183.723 -0.560061 1.56373 0
M  V30 1460 O 184.908 -0.488524 1.8444 0
M  V30 1461 C 182.048 -0.42999 3.42411 0
M  V30 1462 C 181.161 0.508907 4.28992 0
M  V30 1463 C 180.296 -0.286301 5.30428 0
M  V30 1464 C 179.335 0.648079 6.08659 0
M  V30 1465 N 178.472 -0.111792 7.02011 0
M  V30 1466 H 183.312 1.18807 2.73293 0
M  V30 1467 H 180.849 0.597231 1.3443 0
M  V30 1468 H 182.807 -0.897923 4.07423 0
M  V30 1469 H 181.437 -1.23299 2.98324 0
M  V30 1470 H 180.489 1.09533 3.64289 0
M  V30 1471 H 181.801 1.22475 4.8353 0
M  V30 1472 H 180.955 -0.816098 6.01186 0
M  V30 1473 H 179.694 -1.03536 4.76583 0
M  V30 1474 H 178.699 1.18951 5.36778 0
M  V30 1475 H 179.924 1.39623 6.64592 0
M  V30 1476 H 177.87 -0.843395 6.50556 0
M  V30 1477 H 177.787 0.544429 7.54037 0
M  V30 1478 H 179.055 -0.622339 7.77012 0
M  V30 1479 N 183.284 -1.43765 0.645699 0
M  V30 1480 C 184.532 -2.01499 0.155731 0
M  V30 1481 C 184.853 -1.51151 -1.232 0
M  V30 1482 O 184.123 -0.721044 -1.82148 0
M  V30 1483 H 182.703 -0.745003 0.0545817 0
M  V30 1484 H 185.365 -1.76075 0.835677 0
M  V30 1485 H 184.461 -3.1181 0.134577 0
M  V30 1486 N 184.763 -0.387143 -1.52771 0
M  V30 1487 C 186.174 0.0873634 -1.86495 0
M  V30 1488 C 186.525 1.46336 -1.30691 0
M  V30 1489 O 185.65 2.068 -0.637409 0
M  V30 1490 C 186.245 0.165305 -3.38396 0
M  V30 1491 C 184.804 0.584101 -3.7184 0
M  V30 1492 C 183.951 -0.255279 -2.76122 0
M  V30 1493 H 186.902 -0.605104 -1.46711 0
M  V30 1494 H 186.923 0.984848 -3.67534 0
M  V30 1495 H 186.435 -0.836301 -3.78982 0
M  V30 1496 H 184.536 1.59315 -3.36823 0
M  V30 1497 H 184.649 0.343749 -4.77865 0
M  V30 1498 H 183.013 0.279126 -2.53166 0
M  V30 1499 H 183.796 -1.25482 -3.19545 0
M  V30 1500 N 186.241 1.57166 -0.116904 0
M  V30 1501 C 187.488 1.95123 0.541603 0
M  V30 1502 C 187.816 1.00006 1.6682 0
M  V30 1503 O 187.071 0.0235658 1.95686 0
M  V30 1504 C 187.37 3.39508 1.11664 0
M  V30 1505 C 187.036 4.50762 0.111606 0
M  V30 1506 C 185.698 4.80918 -0.164758 0
M  V30 1507 C 188.05 5.18036 -0.573438 0
M  V30 1508 C 185.378 5.75666 -1.13249 0
M  V30 1509 C 187.73 6.13824 -1.52978 0
M  V30 1510 C 186.394 6.42374 -1.81415 0
M  V30 1511 H 185.664 0.714005 0.198187 0
M  V30 1512 H 188.311 1.9048 -0.197365 0
M  V30 1513 H 186.616 3.40835 1.93232 0
M  V30 1514 H 188.313 3.66189 1.63422 0
M  V30 1515 H 184.903 4.27272 0.337192 0
M  V30 1516 H 189.087 4.94896 -0.373092 0
M  V30 1517 H 184.343 5.96092 -1.35958 0
M  V30 1518 H 188.517 6.65039 -2.06629 0
M  V30 1519 H 186.144 7.15599 -2.56557 0
M  V30 1520 N 187.719 -0.156864 1.56817 0
M  V30 1521 C 188.666 -1.19394 1.97519 0
M  V30 1522 C 189.636 -1.4322 0.841265 0
M  V30 1523 O 190.821 -1.55719 1.10255 0
M  V30 1524 C 187.961 -2.52483 2.35258 0
M  V30 1525 C 187.074 -2.35914 3.61896 0
M  V30 1526 C 186.209 -3.61969 3.88782 0
M  V30 1527 C 185.248 -3.40395 5.08722 0
M  V30 1528 N 184.385 -4.58556 5.31668 0
M  V30 1529 H 189.225 -0.839845 2.85921 0
M  V30 1530 H 186.762 -0.403264 1.41464 0
M  V30 1531 H 188.72 -3.30071 2.55165 0
M  V30 1532 H 187.35 -2.85859 1.49949 0
M  V30 1533 H 186.402 -1.49429 3.49821 0
M  V30 1534 H 187.714 -2.15926 4.49641 0
M  V30 1535 H 186.868 -4.47989 4.09135 0
M  V30 1536 H 185.607 -3.84951 2.9944 0
M  V30 1537 H 184.612 -2.52763 4.88253 0
M  V30 1538 H 185.837 -3.18822 5.99608 0
M  V30 1539 H 183.783 -4.81729 4.45279 0
M  V30 1540 H 183.7 -4.41535 6.13664 0
M  V30 1541 H 184.968 -5.45817 5.5651 0
M  V30 1542 N 189.197 -1.51736 -0.425897 0
M  V30 1543 C 190.444 -1.6497 -1.17436 0
M  V30 1544 C 190.772 -0.371445 -1.9092 0
M  V30 1545 O 190.027 0.644963 -1.84767 0
M  V30 1546 C 190.326 -2.81103 -2.20717 0
M  V30 1547 C 189.992 -4.19954 -1.64162 0
M  V30 1548 C 188.654 -4.57725 -1.48462 0
M  V30 1549 C 191.006 -5.06552 -1.22696 0
M  V30 1550 C 188.334 -5.79789 -0.897873 0
M  V30 1551 C 190.686 -6.29205 -0.654464 0
M  V30 1552 C 189.35 -6.6574 -0.484456 0
M  V30 1553 H 188.62 -0.603668 -0.429727 0
M  V30 1554 H 191.267 -1.85798 -0.463829 0
M  V30 1555 H 189.572 -2.54542 -2.97852 0
M  V30 1556 H 191.269 -2.8854 -2.78471 0
M  V30 1557 H 187.859 -3.90181 -1.77361 0
M  V30 1558 H 192.043 -4.77968 -1.33642 0
M  V30 1559 H 187.299 -6.06733 -0.75402 0
M  V30 1560 H 191.473 -6.95643 -0.324694 0
M  V30 1561 H 189.1 -7.60195 -0.0276833 0
M  V30 1562 N 190.675 0.682077 -1.42076 0
M  V30 1563 C 191.923 1.4393 -1.41876 0
M  V30 1564 C 192.244 1.94971 -0.0335599 0
M  V30 1565 O 191.514 1.72591 0.926773 0
M  V30 1566 H 190.094 0.534085 -0.522267 0
M  V30 1567 H 192.756 0.806427 -1.77434 0
M  V30 1568 H 191.852 2.29588 -2.11414 0
M  V30 1569 N 192.153 1.28127 0.917671 0
M  V30 1570 C 193.083 1.14248 2.03641 0
M  V30 1571 C 194.064 0.0412748 1.7005 0
M  V30 1572 O 195.249 0.217566 1.92977 0
M  V30 1573 C 192.379 0.799431 3.37974 0
M  V30 1574 C 191.333 1.85497 3.85713 0
M  V30 1575 C 190.659 1.36565 5.16966 0
M  V30 1576 C 191.959 3.26085 4.08002 0
M  V30 1577 H 193.653 2.07835 2.15511 0
M  V30 1578 H 191.199 1.00064 1.03553 0
M  V30 1579 H 193.152 0.689114 4.15727 0
M  V30 1580 H 191.876 -0.172145 3.26146 0
M  V30 1581 H 190.535 1.95437 3.10161 0
M  V30 1582 H 190.183 0.383253 5.01538 0
M  V30 1583 H 189.883 2.07143 5.49878 0
M  V30 1584 H 191.407 1.26848 5.97279 0
M  V30 1585 H 192.821 3.19089 4.76293 0
M  V30 1586 H 191.218 3.94462 4.52238 0
M  V30 1587 H 192.288 3.70394 3.12948 0
M  V30 1588 N 193.631 -1.12557 1.10312 0
M  V30 1589 C 194.877 -1.84515 0.855901 0
M  V30 1590 C 195.232 -1.82409 -0.611936 0
M  V30 1591 O 194.525 -1.25778 -1.44535 0
M  V30 1592 C 194.719 -3.31462 1.33669 0
M  V30 1593 C 194.548 -3.47879 2.84974 0
M  V30 1594 C 193.318 -3.61589 3.52961 0
M  V30 1595 C 195.516 -3.43152 3.83081 0
M  V30 1596 N 193.498 -3.66359 4.926 0
M  V30 1597 C 194.869 -3.54401 5.08724 0
M  V30 1598 C 196.924 -3.2661 3.75807 0
M  V30 1599 C 195.627 -3.50815 6.2795 0
M  V30 1600 C 197.653 -3.24335 4.94531 0
M  V30 1601 C 197.015 -3.36144 6.19021 0
M  V30 1602 H 193.114 -0.690967 0.366182 0
M  V30 1603 H 195.698 -1.34763 1.40524 0
M  V30 1604 H 193.869 -3.7976 0.814686 0
M  V30 1605 H 195.601 -3.91272 1.03385 0
M  V30 1606 H 192.356 -3.63652 3.03404 0
M  V30 1607 H 192.78 -3.72411 5.65366 0
M  V30 1608 H 197.422 -3.16375 2.80476 0
M  V30 1609 H 195.14 -3.5982 7.23571 0
M  V30 1610 H 198.726 -3.12719 4.9061 0
M  V30 1611 H 197.606 -3.34357 7.09348 0
M  V30 1612 N 195.109 -0.891671 -1.2995 0
M  V30 1613 C 196.357 -0.512486 -1.95494 0
M  V30 1614 C 196.678 0.942776 -1.70695 0
M  V30 1615 O 195.948 1.66374 -1.03424 0
M  V30 1616 H 194.528 -0.186533 -0.723336 0
M  V30 1617 H 197.19 -1.13621 -1.58355 0
M  V30 1618 H 196.286 -0.688342 -3.04415 0
M  V30 1619 N 196.587 1.43421 -0.653314 0
M  V30 1620 C 197.833 2.02111 -0.166992 0
M  V30 1621 C 198.166 1.51423 1.21592 0
M  V30 1622 O 197.441 0.707389 1.8118 0
M  V30 1623 C 197.724 3.5966 -0.177948 0
M  V30 1624 C 197.577 4.20579 -1.59478 0
M  V30 1625 C 198.896 4.37413 0.4856 0
M  V30 1626 H 196.015 0.734374 -0.0621557 0
M  V30 1627 H 198.657 1.70717 -0.834016 0
M  V30 1628 H 196.807 3.86537 0.390032 0
M  V30 1629 H 198.479 4.04732 -2.21336 0
M  V30 1630 H 196.722 3.77226 -2.14204 0
M  V30 1631 H 197.393 5.29665 -1.5543 0
M  V30 1632 H 199.869 4.161 0.00234528 0
M  V30 1633 H 198.745 5.47075 0.447207 0
M  V30 1634 H 199.006 4.13672 1.55974 0
M  V30 1635 N 198.065 0.39524 1.52563 0
M  V30 1636 C 199.028 -0.425001 2.25225 0
M  V30 1637 C 200.028 -0.985266 1.27079 0
M  V30 1638 O 201.218 -0.866332 1.5113 0
M  V30 1639 C 198.35 -1.59686 3.01186 0
M  V30 1640 H 199.543 0.211233 2.99155 0
M  V30 1641 H 197.096 0.147472 1.55603 0
M  V30 1642 H 197.831 -2.27035 2.31572 0
M  V30 1643 H 197.616 -1.20176 3.73229 0
M  V30 1644 H 199.106 -2.17743 3.5634 0
M  V30 1645 N 199.544 -1.57102 0.125237 0
M  V30 1646 C 200.474 -2.18659 -0.819174 0
M  V30 1647 C 201.455 -1.12843 -1.27281 0
M  V30 1648 O 202.64 -1.41104 -1.33429 0
M  V30 1649 C 199.77 -2.79096 -2.06695 0
M  V30 1650 C 198.724 -3.90548 -1.75088 0
M  V30 1651 C 198.05 -4.37821 -3.06948 0
M  V30 1652 C 199.35 -5.12356 -1.01435 0
M  V30 1653 H 201.044 -2.9783 -0.306202 0
M  V30 1654 H 198.59 -1.4326 -0.145839 0
M  V30 1655 H 200.543 -3.2082 -2.73226 0
M  V30 1656 H 199.267 -1.97223 -2.60328 0
M  V30 1657 H 197.926 -3.49409 -1.10944 0
M  V30 1658 H 197.574 -3.52799 -3.58527 0
M  V30 1659 H 197.274 -5.12982 -2.86571 0
M  V30 1660 H 198.798 -4.822 -3.74587 0
M  V30 1661 H 200.212 -5.5106 -1.58132 0
M  V30 1662 H 198.609 -5.9314 -0.911319 0
M  V30 1663 H 199.679 -4.849 -0.00218681 0
M  V30 1664 N 201.022 0.148545 -1.56898 0
M  V30 1665 C 202.252 0.875118 -1.8715 0
M  V30 1666 C 202.66 1.75322 -0.711262 0
M  V30 1667 O 202.003 1.80745 0.328151 0
M  V30 1668 C 202.065 1.7844 -3.12089 0
M  V30 1669 C 201.729 1.08361 -4.43967 0
M  V30 1670 C 202.726 0.438247 -5.1805 0
M  V30 1671 C 200.411 1.07358 -4.90693 0
M  V30 1672 C 202.405 -0.20779 -6.37061 0
M  V30 1673 C 200.092 0.42373 -6.09629 0
M  V30 1674 C 201.09 -0.215829 -6.82659 0
M  V30 1675 O 200.778 -0.855378 -7.99336 0
M  V30 1676 H 200.51 0.258504 -0.624621 0
M  V30 1677 H 203.064 0.14652 -2.04877 0
M  V30 1678 H 201.294 2.55389 -2.90367 0
M  V30 1679 H 202.983 2.38279 -3.286 0
M  V30 1680 H 203.749 0.437817 -4.8302 0
M  V30 1681 H 199.628 1.5608 -4.33774 0
M  V30 1682 H 203.172 -0.70758 -6.94002 0
M  V30 1683 H 199.069 0.421822 -6.4412 0
M  V30 1684 H 199.837 -0.756892 -8.14993 0
M  V30 1685 N 202.5 1.5196 0.417844 0
M  V30 1686 C 203.748 1.65263 1.16329 0
M  V30 1687 C 204.069 0.380634 1.91249 0
M  V30 1688 O 203.339 -0.604214 1.86349 0
M  V30 1689 H 201.919 0.60912 0.432414 0
M  V30 1690 H 204.581 1.88969 0.477162 0
M  V30 1691 H 203.677 2.4896 1.88217 0
M  V30 1692 N 203.978 -0.674533 1.42435 0
M  V30 1693 C 205.224 -1.43671 1.43131 0
M  V30 1694 C 205.557 -1.94142 0.0476021 0
M  V30 1695 O 204.832 -1.70924 -0.928188 0
M  V30 1696 C 205.115 -2.63355 2.45594 0
M  V30 1697 C 204.968 -2.18514 3.93156 0
M  V30 1698 C 206.287 -3.65571 2.45043 0
M  V30 1699 H 203.406 -0.521077 0.521198 0
M  V30 1700 H 206.048 -0.766551 1.7385 0
M  V30 1701 H 204.198 -3.2053 2.19528 0
M  V30 1702 H 205.87 -1.66504 4.30202 0
M  V30 1703 H 204.113 -1.50086 4.07009 0
M  V30 1704 H 204.784 -3.04484 4.60428 0
M  V30 1705 H 207.26 -3.18113 2.68223 0
M  V30 1706 H 206.136 -4.46893 3.18713 0
M  V30 1707 H 206.397 -4.16716 1.47649 0
M  V30 1708 N 205.456 -1.28612 -0.910864 0
M  V30 1709 C 206.386 -1.15326 -2.03032 0
M  V30 1710 C 207.367 -0.0502924 -1.70026 0
M  V30 1711 O 208.552 -0.227797 -1.92859 0
M  V30 1712 C 205.682 -0.817343 -3.37545 0
M  V30 1713 C 204.636 -1.8754 -3.84724 0
M  V30 1714 C 203.962 -1.39305 -5.16235 0
M  V30 1715 C 205.262 -3.28244 -4.06267 0
M  V30 1716 H 206.956 -2.08975 -2.14406 0
M  V30 1717 H 204.502 -1.00612 -1.03021 0
M  V30 1718 H 206.455 -0.711151 -4.15356 0
M  V30 1719 H 205.179 0.154846 -3.26233 0
M  V30 1720 H 203.838 -1.97079 -3.09121 0
M  V30 1721 H 203.486 -0.409846 -5.01328 0
M  V30 1722 H 203.186 -2.10057 -5.48771 0
M  V30 1723 H 204.71 -1.30014 -5.96598 0
M  V30 1724 H 206.124 -3.21611 -4.74594 0
M  V30 1725 H 204.521 -3.96855 -4.5014 0
M  V30 1726 H 205.591 -3.72048 -3.10979 0
M  V30 1727 N 206.934 1.1197 -1.10907 0
M  V30 1728 C 208.345 1.65114 -0.871446 0
M  V30 1729 C 208.696 1.86885 0.597353 0
M  V30 1730 O 207.821 1.59896 1.45816 0
M  V30 1731 C 208.416 2.99944 -1.5754 0
M  V30 1732 C 206.975 3.50018 -1.38435 0
M  V30 1733 C 206.122 2.24941 -1.62164 0
M  V30 1734 H 209.073 0.956851 -1.2661 0
M  V30 1735 H 209.094 3.66651 -1.01721 0
M  V30 1736 H 208.606 2.84067 -2.64438 0
M  V30 1737 H 206.707 3.71071 -0.337214 0
M  V30 1738 H 206.82 4.29165 -2.12965 0
M  V30 1739 H 205.184 2.3229 -1.04467 0
M  V30 1740 H 205.967 2.11612 -2.70324 0
M  V30 1741 N 208.412 0.89855 1.29475 0
M  V30 1742 C 209.637 0.538561 2.00285 0
M  V30 1743 C 210.062 -0.869135 1.66816 0
M  V30 1744 O 209.42 -1.57831 0.892145 0
M  V30 1745 C 209.468 0.736475 3.52999 0
M  V30 1746 O 208.572 -0.211537 4.11857 0
M  V30 1747 H 207.913 0.210563 0.62973 0
M  V30 1748 H 210.443 1.20982 1.64998 0
M  V30 1749 H 210.453 0.640685 4.02938 0
M  V30 1750 H 209.128 1.76276 3.76696 0
M  V30 1751 H 207.705 -0.0682991 3.72837 0
M  V30 1752 N 209.89 -1.43072 0.660911 0
M  V30 1753 C 210.822 -2.29108 -0.0647641 0
M  V30 1754 C 211.835 -1.42928 -0.779448 0
M  V30 1755 O 213.024 -1.66788 -0.635921 0
M  V30 1756 C 210.124 -3.20032 -1.11503 0
M  V30 1757 C 209.297 -4.34792 -0.476955 0
M  V30 1758 C 208.356 -5.06534 -1.42513 0
M  V30 1759 O 207.382 -5.61538 -0.930771 0
M  V30 1760 N 208.584 -5.1075 -2.75889 0
M  V30 1761 H 211.349 -2.92029 0.673731 0
M  V30 1762 H 208.91 -1.53846 0.50427 0
M  V30 1763 H 210.902 -3.64892 -1.75032 0
M  V30 1764 H 209.472 -2.58658 -1.75541 0
M  V30 1765 H 208.692 -3.92752 0.337572 0
M  V30 1766 H 209.98 -5.0879 -0.0318525 0
M  V30 1767 H 209.378 -4.67447 -3.18606 0
M  V30 1768 H 207.935 -5.59302 -3.347 0
M  V30 1769 N 211.368 -0.403325 -1.52352 0
M  V30 1770 C 212.617 0.175668 -2.00934 0
M  V30 1771 C 212.93 1.46718 -1.29356 0
M  V30 1772 O 214.136 2.12708 -1.68724 0
M  V30 1773 C 212.592 0.363612 -3.58058 0
M  V30 1774 C 212.2 -0.915472 -4.38547 0
M  V30 1775 C 213.944 0.89821 -4.14888 0
M  V30 1776 C 211.851 -0.695035 -5.87302 0
M  V30 1777 H 210.781 0.0694234 -0.750797 0
M  V30 1778 H 213.432 -0.527879 -1.75743 0
M  V30 1779 H 211.814 1.12935 -3.79555 0
M  V30 1780 H 212.988 -1.68691 -4.28812 0
M  V30 1781 H 211.303 -1.37606 -3.93006 0
M  V30 1782 H 213.9 1.07907 -5.23699 0
M  V30 1783 H 214.243 1.87126 -3.71873 0
M  V30 1784 H 214.776 0.191681 -3.97338 0
M  V30 1785 H 211.515 -1.63948 -6.34666 0
M  V30 1786 H 211.035 0.0372116 -5.99788 0
M  V30 1787 H 212.714 -0.33497 -6.46132 0
M  V30 1788 N 212.846 1.57033 -0.133567 0
M  V30 1789 C 213.809 2.14897 0.796995 0
M  V30 1790 C 214.809 1.0874 1.18458 0
M  V30 1791 O 215.999 1.34446 1.1077 0
M  V30 1792 C 213.131 2.70112 2.07973 0
M  V30 1793 H 214.324 2.98457 0.293873 0
M  V30 1794 H 211.877 1.55871 0.115787 0
M  V30 1795 H 212.612 1.9018 2.62682 0
M  V30 1796 H 212.397 3.47764 1.81115 0
M  V30 1797 H 213.887 3.14738 2.74462 0
M  V30 1798 N 214.325 -0.140222 1.56975 0
M  V30 1799 C 215.272 -1.17292 1.98774 0
M  V30 1800 C 216.242 -1.4232 0.856408 0
M  V30 1801 O 217.427 -1.54541 1.119 0
M  V30 1802 C 214.567 -2.49973 2.37923 0
M  V30 1803 C 213.68 -2.32062 3.64378 0
M  V30 1804 C 212.815 -3.57825 3.926 0
M  V30 1805 C 211.854 -3.3498 5.12303 0
M  V30 1806 N 210.991 -4.52891 5.36502 0
M  V30 1807 H 215.831 -0.809472 2.86795 0
M  V30 1808 H 213.368 -0.388237 1.41884 0
M  V30 1809 H 215.326 -3.27346 2.58652 0
M  V30 1810 H 213.956 -2.84252 1.52972 0
M  V30 1811 H 213.008 -1.45711 3.51387 0
M  V30 1812 H 214.32 -2.11145 4.51906 0
M  V30 1813 H 213.474 -4.43624 4.13863 0
M  V30 1814 H 212.213 -3.81753 3.03506 0
M  V30 1815 H 211.218 -2.4757 4.90906 0
M  V30 1816 H 212.443 -3.12444 6.02956 0
M  V30 1817 H 210.389 -4.76979 4.50363 0
M  V30 1818 H 210.306 -4.35001 6.18312 0
M  V30 1819 H 211.574 -5.39884 5.62268 0
M  V30 1820 N 215.803 -1.52179 -0.40978 0
M  V30 1821 C 217.08 -1.56769 -1.16974 0
M  V30 1822 C 217.46 -0.348322 -2.08206 0
M  V30 1823 O 216.808 0.664862 -2.18613 0
M  V30 1824 C 217.018 -2.89603 -1.9476 0
M  V30 1825 C 218.366 -3.42579 -2.50849 0
M  V30 1826 O 219.39 -2.91338 -2.04941 0
M  V30 1827 O 218.249 -4.32054 -3.34652 0
M  V30 1828 H 215.343 -0.631439 -0.534054 0
M  V30 1829 H 217.889 -1.64507 -0.416613 0
M  V30 1830 H 216.661 -3.698 -1.27921 0
M  V30 1831 H 216.284 -2.85155 -2.77079 0
M  V30 1832 N 217.281 0.66697 -1.42791 0
M  V30 1833 C 218.558 1.4234 -1.34159 0
M  V30 1834 C 218.938 2.11093 0.0172729 0
M  V30 1835 O 218.286 2.03808 1.03318 0
M  V30 1836 C 218.496 2.41942 -2.51526 0
M  V30 1837 C 219.844 3.06353 -2.93995 0
M  V30 1838 O 220.868 2.52269 -2.51473 0
M  V30 1839 O 219.727 4.04376 -3.67617 0
M  V30 1840 H 216.821 0.635277 -0.529483 0
M  V30 1841 H 219.367 0.695034 -1.54814 0
M  V30 1842 H 218.139 1.89991 -3.42081 0
M  V30 1843 H 217.762 3.22249 -2.32898 0
M  V30 1844 N 218.759 1.29093 0.90403 0
M  V30 1845 C 220.17 1.15186 1.46932 0
M  V30 1846 C 220.521 -0.254587 1.94541 0
M  V30 1847 O 219.646 -1.14972 1.83332 0
M  V30 1848 C 220.241 2.08492 2.67051 0
M  V30 1849 C 218.8 1.98621 3.19729 0
M  V30 1850 C 217.947 1.9967 1.92425 0
M  V30 1851 H 220.898 1.41641 0.715789 0
M  V30 1852 H 220.919 1.65461 3.42641 0
M  V30 1853 H 220.431 3.10847 2.3237 0
M  V30 1854 H 218.532 0.993389 3.59114 0
M  V30 1855 H 218.645 2.86068 3.8432 0
M  V30 1856 H 217.009 1.44208 2.09943 0
M  V30 1857 H 217.792 3.03721 1.60026 0
M  V30 1858 N 220.237 -1.11381 1.11499 0
M  V30 1859 C 221.185 -2.19522 0.768956 0
M  V30 1860 C 222.179 -1.67693 -0.239857 0
M  V30 1861 O 223.385 -1.79727 -0.0990755 0
M  V30 1862 H 219.76 -0.715711 0.230786 0
M  V30 1863 H 221.731 -2.45954 1.68964 0
M  V30 1864 C 220.48 -3.46945 0.229073 0
M  V30 1865 H 219.803 -3.8718 0.996596 0
M  V30 1866 H 221.243 -4.23993 0.0251441 0
M  V30 1867 C 219.702 -3.2042 -1.04079 0
M  V30 1868 O 220.232 -3.41178 -2.12038 0
M  V30 1869 N 218.438 -2.74151 -0.963823 0
M  V30 1870 H 217.985 -2.57459 -0.0851722 0
M  V30 1871 H 217.943 -2.56781 -1.81414 0
M  V30 1872 N 221.715 -0.905404 -1.28997 0
M  V30 1873 C 222.648 -0.331959 -2.25773 0
M  V30 1874 C 223.626 0.559099 -1.52685 0
M  V30 1875 O 224.81 0.50463 -1.8162 0
M  V30 1876 C 221.937 0.526276 -3.34586 0
M  V30 1877 C 220.983 -0.298249 -4.25456 0
M  V30 1878 S 221.816 -1.69968 -5.0781 0
M  V30 1879 C 222.972 -0.848519 -6.20122 0
M  V30 1880 H 223.205 -1.15222 -2.74064 0
M  V30 1881 H 220.738 -0.706112 -1.37308 0
M  V30 1882 H 222.696 1.01565 -3.97737 0
M  V30 1883 H 221.357 1.32084 -2.84978 0
M  V30 1884 H 220.55 0.357607 -5.0273 0
M  V30 1885 H 220.152 -0.720968 -3.66985 0
M  V30 1886 H 222.444 -0.0744325 -6.77459 0
M  V30 1887 H 223.387 -1.59353 -6.89937 0
M  V30 1888 H 223.795 -0.400383 -5.63078 0
M  V30 1889 N 223.193 1.4272 -0.668489 0
M  V30 1890 C 224.126 2.28111 0.0637898 0
M  V30 1891 C 225.104 1.40705 0.814912 0
M  V30 1892 O 226.288 1.70146 0.81134 0
M  V30 1893 C 223.415 3.20429 1.0974 0
M  V30 1894 C 222.461 4.24197 0.442579 0
M  V30 1895 S 223.294 5.29563 -0.795173 0
M  V30 1896 C 224.45 6.25449 0.237516 0
M  V30 1897 H 224.683 2.8987 -0.660521 0
M  V30 1898 H 222.216 1.47456 -0.457821 0
M  V30 1899 H 224.174 3.74158 1.68868 0
M  V30 1900 H 222.835 2.57818 1.79411 0
M  V30 1901 H 222.028 4.88954 1.22227 0
M  V30 1902 H 221.63 3.73925 -0.0749554 0
M  V30 1903 H 223.922 6.68524 1.09915 0
M  V30 1904 H 224.865 7.07104 -0.375421 0
M  V30 1905 H 225.273 5.61511 0.580167 0
M  V30 1906 N 224.671 0.411399 1.52136 0
M  V30 1907 C 225.896 -0.165538 2.06738 0
M  V30 1908 C 226.321 -1.379 1.27926 0
M  V30 1909 O 225.679 -1.78628 0.310114 0
M  V30 1910 C 225.727 -0.492124 3.57226 0
M  V30 1911 O 224.831 -1.58276 3.80818 0
M  V30 1912 H 224.172 -0.0132132 0.663869 0
M  V30 1913 H 226.702 0.585253 1.96051 0
M  V30 1914 H 226.712 -0.750104 4.01045 0
M  V30 1915 H 225.387 0.394922 4.14021 0
M  V30 1916 H 223.964 -1.31677 3.48877 0
M  V30 1917 N 226.149 -1.5696 0.141893 0
M  V30 1918 C 227.096 -2.16501 -0.799737 0
M  V30 1919 C 228.066 -1.09643 -1.24771 0
M  V30 1920 O 229.251 -1.3766 -1.32115 0
M  V30 1921 C 226.391 -2.78679 -2.03549 0
M  V30 1922 C 225.504 -3.99914 -1.6338 0
M  V30 1923 C 224.639 -4.50106 -2.82096 0
M  V30 1924 C 223.678 -5.63819 -2.38275 0
M  V30 1925 N 222.815 -6.08651 -3.49983 0
M  V30 1926 H 227.655 -2.96632 -0.285179 0
M  V30 1927 H 225.192 -1.46533 -0.129053 0
M  V30 1928 H 227.15 -3.1287 -2.75986 0
M  V30 1929 H 225.78 -2.012 -2.52425 0
M  V30 1930 H 224.832 -3.71735 -0.807279 0
M  V30 1931 H 226.144 -4.82311 -1.27192 0
M  V30 1932 H 225.298 -4.86325 -3.62729 0
M  V30 1933 H 224.037 -3.66706 -3.21525 0
M  V30 1934 H 223.042 -5.2718 -1.56081 0
M  V30 1935 H 224.267 -6.49 -1.99938 0
M  V30 1936 H 222.213 -5.28188 -3.89042 0
M  V30 1937 H 222.13 -6.85961 -3.17794 0
M  V30 1938 H 223.398 -6.49515 -4.30988 0
M  V30 1939 N 227.627 0.131896 -1.57047 0
M  V30 1940 C 228.876 0.84044 -1.83356 0
M  V30 1941 C 229.189 1.81646 -0.725535 0
M  V30 1942 O 230.395 2.57025 -0.874659 0
M  V30 1943 C 228.851 1.54528 -3.25037 0
M  V30 1944 C 228.459 0.610902 -4.43815 0
M  V30 1945 C 230.203 2.23972 -3.60606 0
M  V30 1946 C 228.11 1.31823 -5.76521 0
M  V30 1947 H 227.04 0.317599 -0.683847 0
M  V30 1948 H 229.691 0.0931561 -1.83263 0
M  V30 1949 H 228.073 2.33873 -3.19561 0
M  V30 1950 H 229.247 -0.148407 -4.60561 0
M  V30 1951 H 227.562 0.0241016 -4.16393 0
M  V30 1952 H 230.159 2.77558 -4.57018 0
M  V30 1953 H 230.502 3.01173 -2.87403 0
M  V30 1954 H 231.035 1.51529 -3.6781 0
M  V30 1955 H 227.774 0.587771 -6.52859 0
M  V30 1956 H 227.294 2.04987 -5.63685 0
M  V30 1957 H 228.973 1.855 -6.19838 0
M  V30 1958 N 229.106 1.52395 0.401703 0
M  V30 1959 C 230.352 1.67065 1.14966 0
M  V30 1960 C 230.685 0.403052 1.89971 0
M  V30 1961 O 229.96 -0.598774 1.85054 0
M  V30 1962 C 230.243 2.8975 2.13815 0
M  V30 1963 C 230.096 4.26578 1.42658 0
M  V30 1964 C 231.415 3.07965 3.14397 0
M  V30 1965 H 228.534 0.607968 0.416587 0
M  V30 1966 H 231.176 1.84965 0.434511 0
M  V30 1967 H 229.326 2.74619 2.74803 0
M  V30 1968 H 230.998 4.53451 0.847329 0
M  V30 1969 H 229.241 4.27639 0.72849 0
M  V30 1970 H 229.912 5.08483 2.14823 0
M  V30 1971 H 232.388 3.22043 2.63491 0
M  V30 1972 H 231.264 3.95308 3.80819 0
M  V30 1973 H 231.525 2.21611 3.82545 0
M  V30 1974 N 230.584 -0.659388 1.43143 0
M  V30 1975 C 231.812 -1.44723 1.47861 0
M  V30 1976 C 232.227 -1.88563 0.0945886 0
M  V30 1977 O 231.584 -1.59108 -0.893915 0
M  V30 1978 C 231.635 -2.68627 2.41913 0
M  V30 1979 O 231.356 -2.26623 3.74932 0
M  V30 1980 C 232.857 -3.62045 2.55809 0
M  V30 1981 H 230.077 -0.444801 0.502387 0
M  V30 1982 H 232.621 -0.808916 1.87821 0
M  V30 1983 H 230.776 -3.28613 2.05164 0
M  V30 1984 H 231.19 -3.06745 4.2545 0
M  V30 1985 H 232.664 -4.45666 3.25708 0
M  V30 1986 H 233.141 -4.08981 1.60099 0
M  V30 1987 H 233.747 -3.07944 2.93344 0
M  V30 1988 N 232.062 -1.29571 -0.897171 0
M  V30 1989 C 233.287 -1.20705 -1.68656 0
M  V30 1990 C 233.712 0.228582 -1.86706 0
M  V30 1991 O 233.07 1.16494 -1.3892 0
M  V30 1992 C 233.118 -1.9282 -3.04717 0
M  V30 1993 O 232.222 -1.24697 -3.93096 0
M  V30 1994 H 231.563 -0.418126 -0.515816 0
M  V30 1995 H 234.093 -1.71183 -1.12061 0
M  V30 1996 H 234.103 -2.01372 -3.54843 0
M  V30 1997 H 232.778 -2.97239 -2.90899 0
M  V30 1998 H 231.355 -1.2442 -3.51531 0
M  V30 1999 N 233.54 1.10788 -1.12088 0
M  V30 2000 C 234.47 2.19083 -0.807755 0
M  V30 2001 C 235.451 1.6858 0.226859 0
M  V30 2002 O 236.636 1.93997 0.0888475 0
M  V30 2003 C 233.766 3.46344 -0.257576 0
M  V30 2004 C 232.72 4.101 -1.22483 0
M  V30 2005 C 232.046 5.32016 -0.535052 0
M  V30 2006 C 233.346 4.54236 -2.57811 0
M  V30 2007 H 235.04 2.45534 -1.71328 0
M  V30 2008 H 232.586 1.1801 -0.825205 0
M  V30 2009 H 234.539 4.21392 -0.0262679 0
M  V30 2010 H 233.263 3.19373 0.683278 0
M  V30 2011 H 231.922 3.37054 -1.44189 0
M  V30 2012 H 231.57 5.01319 0.410827 0
M  V30 2013 H 231.27 5.75625 -1.18024 0
M  V30 2014 H 232.794 6.09799 -0.312695 0
M  V30 2015 H 234.208 5.20575 -2.40155 0
M  V30 2016 H 232.605 5.08682 -3.18375 0
M  V30 2017 H 233.675 3.6734 -3.16528 0
M  V30 2018 N 235.018 0.912232 1.28515 0
M  V30 2019 C 236.429 0.591352 1.77087 0
M  V30 2020 C 236.78 -0.8933 1.74684 0
M  V30 2021 O 235.905 -1.69876 1.34056 0
M  V30 2022 C 236.5 1.06668 3.2157 0
M  V30 2023 C 235.059 0.79675 3.67871 0
M  V30 2024 C 234.206 1.23427 2.48316 0
M  V30 2025 H 237.157 1.09365 1.15 0
M  V30 2026 H 237.178 0.407455 3.78312 0
M  V30 2027 H 236.69 2.14726 3.23287 0
M  V30 2028 H 234.791 -0.270679 3.71616 0
M  V30 2029 H 234.904 1.40343 4.58084 0
M  V30 2030 H 233.268 0.653036 2.46186 0
M  V30 2031 H 234.051 2.32316 2.52753 0
M  V30 2032 N 236.496 -1.42363 0.676048 0
M  V30 2033 C 237.459 -2.29199 0.00766941 0
M  V30 2034 C 238.459 -1.43389 -0.727745 0
M  V30 2035 O 239.649 -1.64764 -0.56556 0
M  V30 2036 C 236.781 -3.2591 -0.999785 0
M  V30 2037 H 237.974 -2.89794 0.771988 0
M  V30 2038 H 235.527 -1.50024 0.438468 0
M  V30 2039 H 236.262 -2.70256 -1.79255 0
M  V30 2040 H 236.047 -3.89202 -0.475829 0
M  V30 2041 H 237.537 -3.91028 -1.46583 0
M  V30 2042 N 237.974 -0.419461 -1.51915 0
M  V30 2043 C 239.251 0.211999 -1.94448 0
M  V30 2044 C 239.631 1.61703 -1.35703 0
M  V30 2045 O 238.979 2.22102 -0.536931 0
M  V30 2046 C 239.189 0.207872 -3.4838 0
M  V30 2047 C 240.537 0.422192 -4.22496 0
M  V30 2048 O 241.561 0.286778 -3.55044 0
M  V30 2049 O 240.42 0.690009 -5.42126 0
M  V30 2050 H 237.514 0.139586 -0.815135 0
M  V30 2051 H 240.06 -0.476151 -1.62883 0
M  V30 2052 H 238.832 -0.775102 -3.83546 0
M  V30 2053 H 238.455 0.939688 -3.86336 0
M  V30 2054 N 239.452 1.56882 -0.150215 0
M  V30 2055 C 240.729 1.87844 0.545327 0
M  V30 2056 C 241.109 1.0567 1.82749 0
M  V30 2057 O 240.457 0.144442 2.28043 0
M  V30 2058 C 240.667 3.39526 0.80767 0
M  V30 2059 C 242.015 4.08814 1.14703 0
M  V30 2060 O 243.039 3.44723 0.896917 0
M  V30 2061 O 241.898 5.22004 1.61784 0
M  V30 2062 H 238.992 0.778677 0.278553 0
M  V30 2063 H 241.538 1.68666 -0.187068 0
M  V30 2064 H 240.31 3.91173 -0.0996096 0
M  V30 2065 H 239.933 3.64243 1.59413 0
M  V30 2066 N 240.93 -0.123565 1.57115 0
M  V30 2067 C 242.179 -0.830704 1.83799 0
M  V30 2068 C 242.492 -1.81259 0.735158 0
M  V30 2069 O 243.698 -2.56558 0.888278 0
M  V30 2070 C 242.154 -1.52802 3.25852 0
M  V30 2071 C 241.762 -0.587356 4.44133 0
M  V30 2072 C 243.506 -2.22056 3.61789 0
M  V30 2073 C 241.413 -1.28764 5.77212 0
M  V30 2074 H 240.343 -0.313967 0.685522 0
M  V30 2075 H 242.994 -0.0834359 1.8331 0
M  V30 2076 H 241.376 -2.32175 3.20797 0
M  V30 2077 H 242.55 0.172829 4.60476 0
M  V30 2078 H 240.865 -0.00201892 4.164 0
M  V30 2079 H 243.462 -2.75131 4.58483 0
M  V30 2080 H 243.805 -2.99644 2.88997 0
M  V30 2081 H 244.338 -1.49576 3.68608 0
M  V30 2082 H 241.077 -0.55314 6.53162 0
M  V30 2083 H 240.597 -2.01995 5.64764 0
M  V30 2084 H 242.276 -1.8221 6.20813 0
M  V30 2085 N 242.408 -1.52605 -0.393616 0
M  V30 2086 C 243.636 -1.71294 -1.16043 0
M  V30 2087 C 244.051 -0.429259 -1.83855 0
M  V30 2088 O 243.408 0.595921 -1.72496 0
M  V30 2089 C 243.459 -2.8593 -2.21193 0
M  V30 2090 O 243.18 -4.09329 -1.56146 0
M  V30 2091 C 244.681 -3.16259 -3.10636 0
M  V30 2092 H 241.901 -0.573641 -0.348104 0
M  V30 2093 H 244.445 -1.99234 -0.461092 0
M  V30 2094 H 242.6 -2.60465 -2.86769 0
M  V30 2095 H 243.014 -4.73323 -2.25978 0
M  V30 2096 H 244.488 -3.99946 -3.80456 0
M  V30 2097 H 244.965 -2.3045 -3.73884 0
M  V30 2098 H 245.571 -3.43547 -2.50711 0
M  V30 2099 N 243.887 0.651787 -1.4349 0
M  V30 2100 C 244.797 1.79368 -1.5121 0
M  V30 2101 C 245.813 1.69361 -0.399093 0
M  V30 2102 O 246.989 1.90505 -0.653431 0
M  V30 2103 C 244.054 3.15653 -1.43401 0
M  V30 2104 C 243.115 3.37446 -2.65384 0
M  V30 2105 C 242.348 4.67229 -2.57939 0
M  V30 2106 O 242.571 5.46676 -1.62792 0
M  V30 2107 O 241.505 4.90773 -3.48462 0
M  V30 2108 H 245.331 1.7581 -2.47638 0
M  V30 2109 H 242.916 0.810447 -1.25507 0
M  V30 2110 H 244.798 3.96935 -1.41494 0
M  V30 2111 H 243.473 3.19798 -0.501085 0
M  V30 2112 H 242.38 2.55923 -2.72863 0
M  V30 2113 H 243.713 3.38148 -3.57654 0
M  V30 2114 N 245.365 1.30045 0.890287 0
M  V30 2115 C 246.59 1.21598 1.68014 0
M  V30 2116 C 247.015 -0.218678 1.86825 0
M  V30 2117 O 246.373 -1.15756 1.39536 0
M  V30 2118 C 246.421 1.94434 3.03691 0
M  V30 2119 O 245.525 1.2678 3.92429 0
M  V30 2120 H 244.866 0.420856 0.513592 0
M  V30 2121 H 247.396 1.71775 1.11151 0
M  V30 2122 H 247.406 2.03251 3.5377 0
M  V30 2123 H 246.081 2.98777 2.89318 0
M  V30 2124 H 244.658 1.26282 3.50866 0
M  V30 2125 N 246.843 -1.10192 1.12674 0
M  V30 2126 C 248.254 -1.63707 0.897604 0
M  V30 2127 C 248.605 -1.87812 -0.567546 0
M  V30 2128 O 247.73 -1.62196 -1.43253 0
M  V30 2129 C 248.325 -2.974 1.62292 0
M  V30 2130 C 246.884 -3.47772 1.43986 0
M  V30 2131 C 246.031 -2.22332 1.65722 0
M  V30 2132 H 248.982 -0.936587 1.28116 0
M  V30 2133 H 249.003 -3.64986 1.07541 0
M  V30 2134 H 248.515 -2.79824 2.68924 0
M  V30 2135 H 246.616 -3.70487 0.396206 0
M  V30 2136 H 246.729 -4.25723 2.19765 0
M  V30 2137 H 245.093 -2.30599 1.08149 0
M  V30 2138 H 245.876 -2.07285 2.73657 0
M  V30 2139 N 248.321 -0.919034 -1.28029 0
M  V30 2140 C 249.567 -0.555757 -1.95036 0
M  V30 2141 C 249.9 0.899198 -1.72128 0
M  V30 2142 O 249.175 1.64023 -1.04531 0
M  V30 2143 C 249.458 -0.872024 -3.49382 0
M  V30 2144 C 249.311 -2.3801 -3.81669 0
M  V30 2145 C 250.63 -0.37185 -4.38526 0
M  V30 2146 H 247.749 -0.203386 -0.708381 0
M  V30 2147 H 250.391 -1.14924 -1.51303 0
M  V30 2148 H 248.541 -0.366946 -3.86763 0
M  V30 2149 H 250.213 -2.9562 -3.54128 0
M  V30 2150 H 248.456 -2.83289 -3.28526 0
M  V30 2151 H 249.127 -2.55192 -4.8947 0
M  V30 2152 H 251.603 -0.804602 -4.08247 0
M  V30 2153 H 250.479 -0.622173 -5.45362 0
M  V30 2154 H 250.74 0.727934 -4.36066 0
M  V30 2155 N 249.799 1.42003 -0.683588 0
M  V30 2156 C 251.024 2.06265 -0.216647 0
M  V30 2157 C 251.449 1.51059 1.12083 0
M  V30 2158 O 250.807 0.632638 1.69904 0
M  V30 2159 C 250.855 3.60191 -0.171759 0
M  V30 2160 O 249.959 4.03396 0.857069 0
M  V30 2161 H 249.3 0.65502 -0.108834 0
M  V30 2162 H 251.83 1.81982 -0.935077 0
M  V30 2163 H 251.84 4.08 0.0014303 0
M  V30 2164 H 250.515 3.99743 -1.14796 0
M  V30 2165 H 249.092 3.67117 0.654208 0
M  V30 2166 N 251.277 0.427512 1.51691 0
M  V30 2167 C 252.502 -0.143601 2.06902 0
M  V30 2168 C 252.927 -1.36536 1.29382 0
M  V30 2169 O 252.285 -1.78289 0.329043 0
M  V30 2170 C 252.333 -0.454207 3.57728 0
M  V30 2171 O 251.437 -1.54228 3.82475 0
M  V30 2172 H 250.778 -0.00617128 0.663971 0
M  V30 2173 H 253.308 0.606014 1.95419 0
M  V30 2174 H 253.318 -0.707525 4.01818 0
M  V30 2175 H 251.993 0.438812 4.13579 0
M  V30 2176 H 250.57 -1.2797 3.50254 0
M  V30 2177 N 252.755 -1.56801 0.158532 0
M  V30 2178 C 253.685 -2.20347 -0.772609 0
M  V30 2179 C 254.666 -1.15518 -1.24859 0
M  V30 2180 O 255.851 -1.43902 -1.30406 0
M  V30 2181 C 252.981 -2.83417 -2.00729 0
M  V30 2182 C 251.935 -3.94174 -1.66765 0
M  V30 2183 C 251.261 -4.44233 -2.97592 0
M  V30 2184 C 252.561 -5.14392 -0.905447 0
M  V30 2185 H 254.255 -2.98413 -0.242959 0
M  V30 2186 H 251.801 -1.43537 -0.115419 0
M  V30 2187 H 253.754 -3.26543 -2.6636 0
M  V30 2188 H 252.478 -2.02701 -2.56086 0
M  V30 2189 H 251.137 -3.51684 -1.03508 0
M  V30 2190 H 250.785 -3.60325 -3.50963 0
M  V30 2191 H 250.485 -5.18945 -2.75626 0
M  V30 2192 H 252.009 -4.90037 -3.64274 0
M  V30 2193 H 253.423 -5.5429 -1.46408 0
M  V30 2194 H 251.82 -5.9494 -0.7853 0
M  V30 2195 H 252.89 -4.84795 0.100668 0
M  V30 2196 N 254.233 0.115231 -1.57178 0
M  V30 2197 C 255.644 0.67197 -1.74188 0
M  V30 2198 C 255.995 1.80125 -0.777777 0
M  V30 2199 O 255.12 2.16346 0.0484376 0
M  V30 2200 C 255.715 1.22573 -3.1585 0
M  V30 2201 C 254.274 1.72872 -3.34353 0
M  V30 2202 C 253.421 0.629972 -2.70049 0
M  V30 2203 H 256.372 -0.110712 -1.58313 0
M  V30 2204 H 256.393 2.09535 -3.17609 0
M  V30 2205 H 255.905 0.403598 -3.85996 0
M  V30 2206 H 254.006 2.5755 -2.69256 0
M  V30 2207 H 254.119 1.83557 -4.42542 0
M  V30 2208 H 252.483 1.0645 -2.31388 0
M  V30 2209 H 253.266 -0.181241 -3.42821 0
M  V30 2210 N 255.711 1.52812 0.385517 0
M  V30 2211 C 256.641 1.80808 1.47752 0
M  V30 2212 C 257.622 0.660318 1.5676 0
M  V30 2213 O 258.807 0.908246 1.71652 0
M  V30 2214 C 255.937 1.98008 2.85324 0
M  V30 2215 C 254.891 3.13709 2.91154 0
M  V30 2216 C 254.217 3.16169 4.31209 0
M  V30 2217 C 255.517 4.52709 2.60483 0
M  V30 2218 H 257.211 2.72253 1.24573 0
M  V30 2219 H 254.757 1.31003 0.597839 0
M  V30 2220 H 256.71 2.16176 3.61726 0
M  V30 2221 H 255.434 1.03255 3.09848 0
M  V30 2222 H 254.093 2.95329 2.17201 0
M  V30 2223 H 253.741 2.19092 4.52778 0
M  V30 2224 H 253.441 3.93894 4.36029 0
M  V30 2225 H 254.965 3.36496 5.09512 0
M  V30 2226 H 256.379 4.71173 3.26602 0
M  V30 2227 H 254.776 5.32528 2.76648 0
M  V30 2228 H 255.846 4.59186 1.55809 0
M  V30 2229 N 257.189 -0.644168 1.43834 0
M  V30 2230 C 258.466 -1.40188 1.36406 0
M  V30 2231 C 258.846 -2.11094 0.0163124 0
M  V30 2232 O 258.194 -2.05426 -1.00062 0
M  V30 2233 C 258.404 -2.3791 2.55343 0
M  V30 2234 C 259.752 -3.01637 2.98832 0
M  V30 2235 O 260.776 -2.48237 2.55455 0
M  V30 2236 O 259.635 -3.98477 3.74003 0
M  V30 2237 H 256.729 -0.626773 0.539523 0
M  V30 2238 H 259.275 -0.670317 1.559 0
M  V30 2239 H 258.047 -1.84525 3.4506 0
M  V30 2240 H 257.67 -3.18503 2.37995 0
M  V30 2241 N 258.668 -1.30515 -0.883378 0
M  V30 2242 C 259.615 -1.17032 -1.98927 0
M  V30 2243 C 260.585 -0.0594241 -1.65994 0
M  V30 2244 O 261.77 -0.229895 -1.8941 0
M  V30 2245 C 258.91 -0.869777 -3.33959 0
M  V30 2246 C 258.023 -2.06271 -3.79574 0
M  V30 2247 C 257.158 -1.70011 -5.03259 0
M  V30 2248 C 256.197 -2.8579 -5.41286 0
M  V30 2249 N 255.334 -2.49816 -6.56153 0
M  V30 2250 H 260.174 -2.1164 -2.09792 0
M  V30 2251 H 257.711 -1.05296 -1.02719 0
M  V30 2252 H 259.669 -0.676138 -4.11685 0
M  V30 2253 H 258.299 0.0394332 -3.22776 0
M  V30 2254 H 257.351 -2.36755 -2.97744 0
M  V30 2255 H 258.663 -2.92971 -4.03694 0
M  V30 2256 H 257.817 -1.47032 -5.88614 0
M  V30 2257 H 256.556 -0.804829 -4.81013 0
M  V30 2258 H 255.561 -3.09434 -4.54456 0
M  V30 2259 H 256.786 -3.76008 -5.65504 0
M  V30 2260 H 254.732 -1.62795 -6.35479 0
M  V30 2261 H 254.649 -3.30048 -6.8015 0
M  V30 2262 H 255.917 -2.30197 -7.44735 0
M  V30 2263 N 260.146 1.09593 -1.13257 0
M  V30 2264 C 261.109 2.14359 -0.811358 0
M  V30 2265 C 262.109 1.59808 0.178377 0
M  V30 2266 O 263.299 1.74132 -0.0484911 0
M  V30 2267 C 260.431 3.40269 -0.207276 0
M  V30 2268 H 261.624 2.44284 -1.73969 0
M  V30 2269 H 259.177 1.25102 -0.936973 0
M  V30 2270 H 259.912 3.15969 0.73036 0
M  V30 2271 H 259.697 3.81154 -0.919992 0
M  V30 2272 H 261.187 4.176 0.000667944 0
M  V30 2273 N 261.624 0.925811 1.2754 0
M  V30 2274 C 262.852 0.581509 1.9856 0
M  V30 2275 C 263.267 -0.840041 1.69082 0
M  V30 2276 O 262.624 -1.55805 0.950312 0
M  V30 2277 C 262.675 0.795589 3.52637 0
M  V30 2278 O 262.396 2.16121 3.81082 0
M  V30 2279 C 263.897 0.459744 4.4091 0
M  V30 2280 H 261.117 0.220538 0.633722 0
M  V30 2281 H 263.661 1.24232 1.6244 0
M  V30 2282 H 261.816 0.18161 3.86974 0
M  V30 2283 H 262.23 2.2098 4.75676 0
M  V30 2284 H 263.704 0.660244 5.48037 0
M  V30 2285 H 264.181 -0.604625 4.35018 0
M  V30 2286 H 264.787 1.05178 4.12089 0
M  V30 2287 N 263.102 -1.41638 0.69111 0
M  V30 2288 C 264.348 -2.01598 0.220519 0
M  V30 2289 C 264.681 -1.54594 -1.17535 0
M  V30 2290 O 263.956 -0.755177 -1.79241 0
M  V30 2291 C 264.239 -3.59062 0.273243 0
M  V30 2292 C 264.092 -4.16203 1.70573 0
M  V30 2293 C 265.411 -4.38546 -0.369457 0
M  V30 2294 H 262.53 -0.732468 0.0816045 0
M  V30 2295 H 265.172 -1.68445 0.878986 0
M  V30 2296 H 263.322 -3.87435 -0.287411 0
M  V30 2297 H 264.994 -3.98722 2.31989 0
M  V30 2298 H 263.237 -3.71414 2.2413 0
M  V30 2299 H 263.908 -5.25358 1.69419 0
M  V30 2300 H 266.384 -4.1596 0.107977 0
M  V30 2301 H 265.26 -5.48069 -0.302002 0
M  V30 2302 H 265.521 -4.17662 -1.44951 0
M  V30 2303 N 264.58 -0.43555 -1.51462 0
M  V30 2304 C 265.528 0.391205 -2.29287 0
M  V30 2305 C 266.522 1.02247 -1.35062 0
M  V30 2306 O 267.728 0.957646 -1.52411 0
M  V30 2307 H 264.103 0.144968 -0.737895 0
M  V30 2308 H 266.074 -0.286051 -2.97026 0
M  V30 2309 C 264.823 1.48096 -3.14583 0
M  V30 2310 H 264.146 1.00457 -3.86973 0
M  V30 2311 H 265.586 2.03273 -3.72097 0
M  V30 2312 C 264.045 2.46321 -2.29843 0
M  V30 2313 O 264.575 3.50815 -1.95682 0
M  V30 2314 N 262.781 2.17166 -1.931 0
M  V30 2315 H 262.328 1.32218 -2.21079 0
M  V30 2316 H 262.286 2.83127 -1.36698 0
M  V30 2317 N 266.058 1.56714 -0.166846 0
M  V30 2318 C 267.304 1.97039 0.479962 0
M  V30 2319 C 267.637 1.05264 1.63197 0
M  V30 2320 O 266.912 0.0988833 1.94248 0
M  V30 2321 C 267.195 3.46867 0.967212 0
M  V30 2322 C 267.048 4.49421 -0.18466 0
M  V30 2323 C 268.367 3.9968 1.84238 0
M  V30 2324 H 265.486 0.71641 0.172992 0
M  V30 2325 H 268.128 1.8832 -0.252079 0
M  V30 2326 H 266.278 3.54428 1.59101 0
M  V30 2327 H 267.95 4.53924 -0.821621 0
M  V30 2328 H 266.193 4.25573 -0.840837 0
M  V30 2329 H 266.864 5.51644 0.198317 0
M  V30 2330 H 269.34 3.94723 1.31655 0
M  V30 2331 H 268.216 5.04941 2.15234 0
M  V30 2332 H 268.477 3.43226 2.78654 0
M  V30 2333 N 267.536 -0.106894 1.57237 0
M  V30 2334 C 268.484 -1.14944 2.02215 0
M  V30 2335 C 269.478 -1.42167 0.92114 0
M  V30 2336 O 270.684 -1.41987 1.10634 0
M  V30 2337 H 267.059 -0.387841 0.64427 0
M  V30 2338 H 269.03 -0.743683 2.88984 0
M  V30 2339 C 267.779 -2.4647 2.4525 0
M  V30 2340 H 267.102 -2.26363 3.29545 0
M  V30 2341 H 268.542 -3.17948 2.80508 0
M  V30 2342 C 267.001 -3.09921 1.321 0
M  V30 2343 O 267.531 -3.9651 0.643622 0
M  V30 2344 N 265.737 -2.69986 1.07497 0
M  V30 2345 H 265.284 -1.99667 1.62761 0
M  V30 2346 H 265.242 -3.12769 0.319876 0
M  V30 2347 N 269.014 -1.53014 -0.377408 0
M  V30 2348 C 270.26 -1.68872 -1.12294 0
M  V30 2349 C 270.593 -0.433224 -1.89306 0
M  V30 2350 O 269.868 0.569258 -1.85983 0
M  V30 2351 C 270.151 -2.93115 -2.09179 0
M  V30 2352 C 270.004 -4.28794 -1.35853 0
M  V30 2353 C 271.323 -3.12928 -3.09458 0
M  V30 2354 H 268.442 -0.614518 -0.406862 0
M  V30 2355 H 271.084 -1.85633 -0.40503 0
M  V30 2356 H 269.234 -2.78956 -2.70399 0
M  V30 2357 H 270.906 -4.54742 -0.775082 0
M  V30 2358 H 269.149 -4.28744 -0.660364 0
M  V30 2359 H 269.82 -5.11837 -2.06706 0
M  V30 2360 H 272.296 -3.26194 -2.58334 0
M  V30 2361 H 271.172 -4.01316 -3.74482 0
M  V30 2362 H 271.433 -2.27669 -3.78971 0
M  V30 2363 N 270.492 0.636531 -1.44174 0
M  V30 2364 C 271.908 0.954104 -1.27941 0
M  V30 2365 C 272.108 2.0039 -0.211248 0
M  V30 2366 O 271.164 2.49236 0.404695 0
M  V30 2367 C 272.477 1.4225 -2.64925 0
M  V30 2368 C 274.025 1.53827 -2.72592 0
M  V30 2369 C 274.5 2.04053 -4.10032 0
M  V30 2370 N 275.991 2.11331 -4.12182 0
M  V30 2371 C 276.726 2.51352 -5.15374 0
M  V30 2372 N 276.222 2.90549 -6.2893 0
M  V30 2373 N 278.015 2.51438 -5.02728 0
M  V30 2374 H 270.166 -0.0578386 -2.12321 0
M  V30 2375 H 272.429 0.0367406 -0.947288 0
M  V30 2376 H 272.135 0.725466 -3.44136 0
M  V30 2377 H 272.009 2.39451 -2.9145 0
M  V30 2378 H 274.396 2.22628 -1.93702 0
M  V30 2379 H 274.477 0.550154 -2.49814 0
M  V30 2380 H 274.121 1.35848 -4.89395 0
M  V30 2381 H 274.051 3.03726 -4.30184 0
M  V30 2382 H 276.542 1.83745 -3.30222 0
M  V30 2383 H 276.855 3.19884 -7.03487 0
M  V30 2384 H 275.2 2.88313 -6.32377 0
M  V30 2385 H 278.391 2.20203 -4.13072 0
M  V30 2386 H 278.564 2.82304 -5.83274 0
M  V30 2387 N 271.97 1.30982 0.876444 0
M  V30 2388 C 273.216 1.20474 1.63138 0
M  V30 2389 C 273.549 -0.238096 1.92735 0
M  V30 2390 O 272.824 -1.1692 1.55435 0
M  V30 2391 C 273.107 2.04244 2.96574 0
M  V30 2392 C 272.96 3.56793 2.73896 0
M  V30 2393 C 274.279 1.88684 3.97601 0
M  V30 2394 H 271.398 0.439001 0.591985 0
M  V30 2395 H 274.04 1.60704 1.01361 0
M  V30 2396 H 272.19 1.70063 3.493 0
M  V30 2397 H 273.862 4.01077 2.27892 0
M  V30 2398 H 272.105 3.80548 2.08245 0
M  V30 2399 H 272.776 4.10706 3.68815 0
M  V30 2400 H 275.252 2.18584 3.54062 0
M  V30 2401 H 274.128 2.4961 4.88862 0
M  V30 2402 H 274.389 0.848343 4.33884 0
M  V30 2403 N 273.449 -1.08991 1.13837 0
M  V30 2404 C 274.695 -1.81526 0.90422 0
M  V30 2405 C 275.028 -1.85706 -0.568066 0
M  V30 2406 O 274.303 -1.32855 -1.42056 0
M  V30 2407 C 274.586 -3.27447 1.49835 0
M  V30 2408 C 274.439 -3.31512 3.04006 0
M  V30 2409 C 275.758 -4.24256 1.17025 0
M  V30 2410 H 272.877 -0.659029 0.329923 0
M  V30 2411 H 275.519 -1.27644 1.40737 0
M  V30 2412 H 273.669 -3.73462 1.07044 0
M  V30 2413 H 275.341 -2.93867 3.55584 0
M  V30 2414 H 273.584 -2.70963 3.38765 0
M  V30 2415 H 274.255 -4.34329 3.40679 0
M  V30 2416 H 276.731 -3.86549 1.54009 0
M  V30 2417 H 275.607 -5.24684 1.61237 0
M  V30 2418 H 275.868 -4.42019 0.0846274 0
M  V30 2419 N 274.927 -0.932562 -1.27047 0
M  V30 2420 C 276.204 -0.49377 -1.89265 0
M  V30 2421 C 276.584 1.02833 -1.8436 0
M  V30 2422 O 275.932 1.88461 -1.29209 0
M  V30 2423 C 276.142 -1.04536 -3.32976 0
M  V30 2424 C 277.49 -1.10879 -4.09867 0
M  V30 2425 O 278.514 -0.995327 -3.42011 0
M  V30 2426 O 277.373 -1.28417 -5.31198 0
M  V30 2427 H 274.467 -0.159596 -0.811454 0
M  V30 2428 H 277.013 -1.02457 -1.3528 0
M  V30 2429 H 275.785 -2.08913 -3.30864 0
M  V30 2430 H 275.408 -0.496494 -3.94488 0
M  V30 2431 N 276.405 1.4127 -0.698611 0
M  V30 2432 C 277.682 1.94955 -0.158762 0
M  V30 2433 C 278.062 1.63781 1.33188 0
M  V30 2434 O 277.41 0.946423 2.07979 0
M  V30 2435 C 277.62 3.46044 -0.453309 0
M  V30 2436 C 278.968 4.22872 -0.382707 0
M  V30 2437 O 279.992 3.54076 -0.388396 0
M  V30 2438 O 278.851 5.45407 -0.345463 0
M  V30 2439 H 275.945 0.82683 -0.0167505 0
M  V30 2440 H 278.491 1.50971 -0.77498 0
M  V30 2441 H 277.263 3.62028 -1.48498 0
M  V30 2442 H 276.886 3.97128 0.19373 0
M  V30 2443 N 277.883 0.443576 1.51229 0
M  V30 2444 C 279.129 -0.120975 2.02439 0
M  V30 2445 C 279.462 -1.41815 1.32674 0
M  V30 2446 O 278.737 -1.89373 0.443622 0
M  V30 2447 C 279.02 -0.333291 3.58554 0
M  V30 2448 C 278.873 0.982968 4.38928 0
M  V30 2449 C 280.192 -1.10028 4.26124 0
M  V30 2450 H 277.311 -0.0424923 0.735774 0
M  V30 2451 H 279.953 0.583794 1.80809 0
M  V30 2452 H 278.103 -0.933614 3.77115 0
M  V30 2453 H 279.775 1.61775 4.32003 0
M  V30 2454 H 278.018 1.58611 4.03763 0
M  V30 2455 H 278.689 0.788379 5.46341 0
M  V30 2456 H 281.165 -0.591711 4.11871 0
M  V30 2457 H 280.041 -1.21761 5.35225 0
M  V30 2458 H 280.302 -2.12996 3.87408 0
M  V30 2459 N 279.361 -1.56624 0.175154 0
M  V30 2460 C 280.308 -2.18149 -0.753634 0
M  V30 2461 C 281.278 -1.12265 -1.22417 0
M  V30 2462 O 282.463 -1.40432 -1.29165 0
M  V30 2463 C 279.603 -2.82933 -1.97592 0
M  V30 2464 C 278.716 -4.03289 -1.5486 0
M  V30 2465 C 277.851 -4.55988 -2.72485 0
M  V30 2466 C 276.89 -5.68746 -2.26262 0
M  V30 2467 N 276.027 -6.15938 -3.36994 0
M  V30 2468 H 280.867 -2.9717 -0.222195 0
M  V30 2469 H 278.404 -1.46774 -0.0979422 0
M  V30 2470 H 280.362 -3.18653 -2.69288 0
M  V30 2471 H 278.992 -2.06509 -2.481 0
M  V30 2472 H 278.044 -3.73364 -0.728246 0
M  V30 2473 H 279.356 -4.849 -1.16933 0
M  V30 2474 H 278.51 -4.9391 -3.52332 0
M  V30 2475 H 277.249 -3.73443 -3.13674 0
M  V30 2476 H 276.254 -5.30372 -1.44863 0
M  V30 2477 H 277.479 -6.53095 -1.86127 0
M  V30 2478 H 275.425 -5.36321 -3.77751 0
M  V30 2479 H 275.342 -6.92548 -3.03172 0
M  V30 2480 H 276.61 -6.58511 -4.17114 0
M  V30 2481 N 280.839 0.0985539 -1.57292 0
M  V30 2482 C 282.116 0.834155 -1.76921 0
M  V30 2483 C 282.496 1.97101 -0.755928 0
M  V30 2484 O 281.844 2.27474 0.216245 0
M  V30 2485 C 282.054 1.33194 -3.22584 0
M  V30 2486 C 283.402 1.77611 -3.85668 0
M  V30 2487 O 284.426 1.42825 -3.26312 0
M  V30 2488 O 283.285 2.4192 -4.90038 0
M  V30 2489 H 280.379 0.397628 -0.725135 0
M  V30 2490 H 282.925 0.0807044 -1.69508 0
M  V30 2491 H 281.697 0.517248 -3.87866 0
M  V30 2492 H 281.32 2.1475 -3.34616 0
M  V30 2493 N 282.317 1.53212 0.369288 0
M  V30 2494 C 283.227 1.82342 1.47609 0
M  V30 2495 C 284.243 0.711532 1.58787 0
M  V30 2496 O 285.419 1.0012 1.74751 0
M  V30 2497 C 282.484 2.00393 2.8292 0
M  V30 2498 C 281.545 3.24297 2.81301 0
M  V30 2499 C 280.778 3.41478 4.10157 0
M  V30 2500 O 281.001 2.63033 5.06132 0
M  V30 2501 O 279.935 4.34817 4.16194 0
M  V30 2502 H 283.761 2.76366 1.25918 0
M  V30 2503 H 281.346 1.38547 0.559034 0
M  V30 2504 H 283.228 2.13859 3.63101 0
M  V30 2505 H 281.903 1.09559 3.04596 0
M  V30 2506 H 280.81 3.16257 1.99831 0
M  V30 2507 H 282.143 4.15041 2.64578 0
M  V30 2508 N 283.795 -0.628877 1.44509 0
M  V30 2509 C 285.211 -0.947305 1.28446 0
M  V30 2510 C 285.411 -2.00275 0.221872 0
M  V30 2511 O 284.467 -2.49447 -0.391471 0
M  V30 2512 C 285.78 -1.40843 2.65676 0
M  V30 2513 C 287.328 -1.52379 2.73404 0
M  V30 2514 C 287.803 -2.01875 4.11109 0
M  V30 2515 N 289.294 -2.09142 4.13296 0
M  V30 2516 C 290.029 -2.48615 5.16699 0
M  V30 2517 N 289.525 -2.87209 6.30462 0
M  V30 2518 N 291.318 -2.48768 5.04054 0
M  V30 2519 H 283.469 0.0690977 2.12288 0
M  V30 2520 H 285.732 -0.0317164 0.947469 0
M  V30 2521 H 285.438 -0.707206 3.44516 0
M  V30 2522 H 285.312 -2.37902 2.92716 0
M  V30 2523 H 287.699 -2.21598 1.9488 0
M  V30 2524 H 287.78 -0.536898 2.50102 0
M  V30 2525 H 287.424 -1.3325 4.90109 0
M  V30 2526 H 287.354 -3.0144 4.31789 0
M  V30 2527 H 289.845 -1.81991 3.31191 0
M  V30 2528 H 290.158 -3.16149 7.05174 0
M  V30 2529 H 288.503 -2.84955 6.33897 0
M  V30 2530 H 291.694 -2.18009 4.14234 0
M  V30 2531 H 291.867 -2.79207 5.84763 0
M  V30 2532 N 285.273 -1.31445 -0.869486 0
M  V30 2533 C 286.205 -1.14955 -1.98287 0
M  V30 2534 C 287.218 -0.0885037 -1.62559 0
M  V30 2535 O 288.407 -0.336044 -1.75308 0
M  V30 2536 C 285.507 -0.734255 -3.3085 0
M  V30 2537 C 284.68 -1.88042 -3.94917 0
M  V30 2538 C 283.739 -1.4511 -5.05796 0
M  V30 2539 O 282.765 -2.16082 -5.2659 0
M  V30 2540 N 283.967 -0.338763 -5.79511 0
M  V30 2541 H 286.732 -2.10856 -2.12979 0
M  V30 2542 H 284.293 -1.23786 -1.04349 0
M  V30 2543 H 286.285 -0.42975 -4.02412 0
M  V30 2544 H 284.855 0.133158 -3.12316 0
M  V30 2545 H 284.075 -2.35222 -3.1633 0
M  V30 2546 H 285.363 -2.6481 -4.34457 0
M  V30 2547 H 284.761 0.252274 -5.65137 0
M  V30 2548 H 283.318 -0.0937925 -6.51733 0
M  V30 2549 N 286.751 1.08385 -1.14413 0
M  V30 2550 C 287.699 2.17406 -0.826888 0
M  V30 2551 C 288.693 1.6827 0.195312 0
M  V30 2552 O 289.899 1.79927 0.0513892 0
M  V30 2553 H 286.274 0.70934 -0.249681 0
M  V30 2554 H 288.245 2.41388 -1.75426 0
M  V30 2555 C 286.994 3.46215 -0.320979 0
M  V30 2556 H 286.317 3.84401 -1.0989 0
M  V30 2557 H 287.757 4.23777 -0.137549 0
M  V30 2558 C 286.216 3.23067 0.955472 0
M  V30 2559 O 286.746 3.4668 2.02918 0
M  V30 2560 N 284.952 2.7661 0.890798 0
M  V30 2561 H 284.499 2.57594 0.0168815 0
M  V30 2562 H 284.457 2.61501 1.74542 0
M  V30 2563 N 288.23 0.939286 1.26551 0
M  V30 2564 C 289.479 0.581601 1.93133 0
M  V30 2565 C 289.792 -0.883224 1.74524 0
M  V30 2566 O 290.998 -1.3502 2.35546 0
M  V30 2567 C 289.454 0.989425 3.46032 0
M  V30 2568 C 289.062 2.47573 3.73379 0
M  V30 2569 C 290.806 0.703544 4.18629 0
M  V30 2570 C 288.713 2.82235 5.19709 0
M  V30 2571 H 287.643 0.213803 0.723052 0
M  V30 2572 H 290.294 1.14167 1.4366 0
M  V30 2573 H 288.676 0.357902 3.94379 0
M  V30 2574 H 289.85 3.15614 3.35744 0
M  V30 2575 H 288.165 2.73471 3.1401 0
M  V30 2576 H 290.762 0.938869 5.26393 0
M  V30 2577 H 291.105 -0.359639 4.14744 0
M  V30 2578 H 291.638 1.2947 3.76141 0
M  V30 2579 H 288.377 3.87509 5.28694 0
M  V30 2580 H 287.897 2.18854 5.58447 0
M  V30 2581 H 289.576 2.70599 5.87695 0
M  V30 2582 N 289.708 -1.40897 0.706093 0
M  V30 2583 C 290.933 -2.05895 0.249435 0
M  V30 2584 C 291.358 -1.52823 -1.09666 0
M  V30 2585 O 290.716 -0.659589 -1.68876 0
M  V30 2586 C 290.764 -3.59872 0.22904 0
M  V30 2587 O 289.868 -4.04708 -0.792784 0
M  V30 2588 H 289.209 -0.653206 0.119241 0
M  V30 2589 H 291.739 -1.80471 0.96391 0
M  V30 2590 H 291.749 -4.07951 0.0634791 0
M  V30 2591 H 290.424 -3.97866 1.21141 0
M  V30 2592 H 289.001 -3.68111 -0.59572 0
M  V30 2593 N 291.186 -0.45159 -1.50991 0
M  V30 2594 C 292.432 0.110237 -2.025 0
M  V30 2595 C 292.765 1.41109 -1.33424 0
M  V30 2596 O 292.04 1.89135 -0.453659 0
M  V30 2597 C 292.323 0.314271 -3.58726 0
M  V30 2598 C 292.176 -1.00623 -4.38401 0
M  V30 2599 C 293.495 1.07767 -4.26702 0
M  V30 2600 H 290.614 0.0385897 -0.735989 0
M  V30 2601 H 293.256 -0.593374 -1.80497 0
M  V30 2602 H 291.406 0.913601 -3.77605 0
M  V30 2603 H 293.078 -1.64064 -4.31139 0
M  V30 2604 H 291.321 -1.6075 -4.02917 0
M  V30 2605 H 291.992 -0.817341 -5.45915 0
M  V30 2606 H 294.468 0.56986 -4.12179 0
M  V30 2607 H 293.344 1.18921 -5.35863 0
M  V30 2608 H 293.605 2.10939 -3.88532 0
M  V30 2609 N 292.664 1.56529 -0.183458 0
M  V30 2610 C 293.91 1.97537 0.459036 0
M  V30 2611 C 294.243 1.06989 1.62071 0
M  V30 2612 O 293.518 0.11948 1.94133 0
M  V30 2613 C 293.801 3.47874 0.930368 0
M  V30 2614 C 293.654 4.492 -0.232317 0
M  V30 2615 C 294.973 4.01612 1.79989 0
M  V30 2616 H 292.092 0.718204 0.165383 0
M  V30 2617 H 294.734 1.88042 -0.272038 0
M  V30 2618 H 292.884 3.56095 1.55333 0
M  V30 2619 H 294.556 4.53027 -0.86972 0
M  V30 2620 H 292.799 4.24657 -0.885928 0
M  V30 2621 H 293.47 5.51823 0.139796 0
M  V30 2622 H 295.946 3.96097 1.27461 0
M  V30 2623 H 294.822 5.07195 2.09867 0
M  V30 2624 H 295.083 3.46163 2.74998 0
M  V30 2625 N 294.142 -0.090211 1.57342 0
M  V30 2626 C 295.367 -0.810082 1.90925 0
M  V30 2627 C 295.792 -1.71248 0.778187 0
M  V30 2628 O 295.15 -1.79278 -0.269991 0
M  V30 2629 C 295.198 -1.59529 3.23393 0
M  V30 2630 O 294.302 -2.70461 3.11327 0
M  V30 2631 H 293.643 -0.222231 0.625707 0
M  V30 2632 H 296.173 -0.0639716 2.045 0
M  V30 2633 H 296.183 -1.97847 3.5682 0
M  V30 2634 H 294.858 -0.933055 4.05299 0
M  V30 2635 H 293.435 -2.35135 2.89423 0
M  V30 2636 N 295.62 -1.53406 -0.361157 0
M  V30 2637 C 296.868 -1.69467 -1.10115 0
M  V30 2638 C 297.189 -0.451352 -1.89705 0
M  V30 2639 O 296.459 0.534636 -1.88463 0
M  V30 2640 H 295.039 -0.624749 -0.409508 0
M  V30 2641 H 297.701 -1.90609 -0.406699 0
M  V30 2642 H 296.797 -2.55774 -1.78847 0
M  V30 2643 N 297.098 0.621204 -1.44841 0
M  V30 2644 C 298.344 1.3826 -1.48365 0
M  V30 2645 C 298.677 1.93831 -0.119624 0
M  V30 2646 O 297.952 1.74251 0.864111 0
M  V30 2647 C 298.235 2.54058 -2.55199 0
M  V30 2648 C 298.088 2.03772 -4.00995 0
M  V30 2649 C 299.407 3.56225 -2.58442 0
M  V30 2650 H 296.526 0.501374 -0.540179 0
M  V30 2651 H 299.168 0.7015 -1.76576 0
M  V30 2652 H 297.318 3.12162 -2.31274 0
M  V30 2653 H 298.99 1.50423 -4.36086 0
M  V30 2654 H 297.233 1.34876 -4.12299 0
M  V30 2655 H 297.904 2.87185 -4.71411 0
M  V30 2656 H 300.38 3.07939 -2.79844 0
M  V30 2657 H 299.256 4.34756 -3.3508 0
M  V30 2658 H 299.517 4.10949 -1.63013 0
M  V30 2659 N 298.576 1.31904 0.862503 0
M  V30 2660 C 299.987 1.19803 1.43193 0
M  V30 2661 C 300.338 -0.192567 1.95253 0
M  V30 2662 O 299.463 -1.09081 1.86896 0
M  V30 2663 C 300.058 2.16883 2.60283 0
M  V30 2664 C 298.617 2.08692 3.13248 0
M  V30 2665 C 297.764 2.05691 1.85975 0
M  V30 2666 H 300.715 1.43846 0.670365 0
M  V30 2667 H 300.736 1.76278 3.37204 0
M  V30 2668 H 300.248 3.18083 2.22363 0
M  V30 2669 H 298.349 1.10713 3.55771 0
M  V30 2670 H 298.462 2.9815 3.75025 0
M  V30 2671 H 296.826 1.50814 2.05249 0
M  V30 2672 H 297.609 3.08659 1.50282 0
M  V30 2673 N 300.054 -1.07777 1.14986 0
M  V30 2674 C 300.987 -2.14228 0.786243 0
M  V30 2675 C 301.965 -1.60888 -0.235347 0
M  V30 2676 O 303.149 -1.88099 -0.122909 0
M  V30 2677 C 300.276 -3.38281 0.168433 0
M  V30 2678 C 299.322 -4.10387 1.16123 0
M  V30 2679 S 300.155 -4.62371 2.70135 0
M  V30 2680 C 301.311 -5.89704 2.09762 0
M  V30 2681 H 301.544 -2.44741 1.68787 0
M  V30 2682 H 299.077 -1.19984 0.971756 0
M  V30 2683 H 301.035 -4.10098 -0.181588 0
M  V30 2684 H 299.696 -3.05953 -0.710725 0
M  V30 2685 H 298.889 -4.99431 0.677086 0
M  V30 2686 H 298.491 -3.44513 1.45556 0
M  V30 2687 H 300.783 -6.61648 1.45701 0
M  V30 2688 H 301.726 -6.42824 2.96955 0
M  V30 2689 H 302.134 -5.4302 1.54239 0
M  V30 2690 N 301.532 -0.945985 -1.26051 0
M  V30 2691 C 302.757 -0.612525 -1.98149 0
M  V30 2692 C 303.182 0.806623 -1.69927 0
M  V30 2693 O 302.54 1.54411 -0.950108 0
M  V30 2694 C 302.588 -0.866981 -3.50023 0
M  V30 2695 O 301.692 0.0585333 -4.12358 0
M  V30 2696 H 301.033 -0.23379 -0.621481 0
M  V30 2697 H 303.563 -1.27023 -1.60395 0
M  V30 2698 H 303.573 -0.789792 -4.00283 0
M  V30 2699 H 302.248 -1.90135 -3.69894 0
M  V30 2700 H 300.825 -0.0701241 -3.72834 0
M  V30 2701 N 303.011 1.40521 -0.713556 0
M  V30 2702 C 304.257 2.01221 -0.252564 0
M  V30 2703 C 304.59 1.56444 1.1506 0
M  V30 2704 O 303.865 0.783597 1.78017 0
M  V30 2705 C 304.148 3.58582 -0.330332 0
M  V30 2706 C 304.001 4.13437 -1.77173 0
M  V30 2707 C 305.32 4.39079 0.299641 0
M  V30 2708 H 302.439 0.731077 -0.0932471 0
M  V30 2709 H 305.081 1.67026 -0.905673 0
M  V30 2710 H 303.231 3.87844 0.225737 0
M  V30 2711 H 304.903 3.9498 -2.38303 0
M  V30 2712 H 303.146 3.67801 -2.3001 0
M  V30 2713 H 303.817 5.22597 -1.77755 0
M  V30 2714 H 306.293 4.15735 -0.174139 0
M  V30 2715 H 305.169 5.4848 0.214771 0
M  V30 2716 H 305.43 4.19915 1.38288 0
M  V30 2717 N 304.489 0.459591 1.5075 0
M  V30 2718 C 305.9 0.00171547 1.867 0
M  V30 2719 C 306.251 -1.39934 1.37525 0
M  V30 2720 O 305.376 -2.03523 0.735349 0
M  V30 2721 C 305.971 -0.00366298 3.388 0
M  V30 2722 C 304.53 -0.406026 3.74204 0
M  V30 2723 C 303.677 0.38673 2.7459 0
M  V30 2724 H 306.628 0.674413 1.43657 0
M  V30 2725 H 306.649 -0.808371 3.71814 0
M  V30 2726 H 306.161 1.01617 3.74561 0
M  V30 2727 H 304.262 -1.43063 3.4404 0
M  V30 2728 H 304.375 -0.115362 4.78961 0
M  V30 2729 H 302.739 -0.158019 2.54209 0
M  V30 2730 H 303.522 1.40585 3.13194 0
M  V30 2731 N 305.967 -1.56429 0.191757 0
M  V30 2732 C 307.213 -1.97777 -0.448554 0
M  V30 2733 C 307.546 -1.07847 -1.61501 0
M  V30 2734 O 306.821 -0.129774 -1.94067 0
M  V30 2735 C 307.104 -3.48362 -0.911906 0
M  V30 2736 C 306.957 -4.4907 0.256136 0
M  V30 2737 C 308.276 -4.02561 -1.77857 0
M  V30 2738 H 305.395 -0.719071 -0.161572 0
M  V30 2739 H 308.037 -1.87896 0.282007 0
M  V30 2740 H 306.187 -3.56914 -1.53442 0
M  V30 2741 H 307.859 -4.5256 0.893733 0
M  V30 2742 H 306.102 -4.24181 0.908436 0
M  V30 2743 H 306.773 -5.51889 -0.11053 0
M  V30 2744 H 309.249 -3.96767 -1.25359 0
M  V30 2745 H 308.125 -5.08301 -2.07174 0
M  V30 2746 H 308.386 -3.47616 -2.73158 0
M  V30 2747 N 307.445 0.0818655 -1.57387 0
M  V30 2748 C 308.691 0.784074 -1.8703 0
M  V30 2749 C 309.024 1.77729 -0.782689 0
M  V30 2750 O 308.299 1.93384 0.208051 0
M  V30 2751 C 308.582 1.50105 -3.27323 0
M  V30 2752 C 308.435 0.524925 -4.46727 0
M  V30 2753 C 309.754 2.44843 -3.65705 0
M  V30 2754 H 306.873 0.283582 -0.680257 0
M  V30 2755 H 309.515 0.0474352 -1.89941 0
M  V30 2756 H 307.665 2.12897 -3.24972 0
M  V30 2757 H 309.337 -0.0970111 -4.61198 0
M  V30 2758 H 307.58 -0.160606 -4.33503 0
M  V30 2759 H 308.251 1.064 -5.41648 0
M  V30 2760 H 310.727 1.92135 -3.69085 0
M  V30 2761 H 309.603 2.92018 -4.64776 0
M  V30 2762 H 309.864 3.29197 -2.95096 0
M  V30 2763 N 308.923 1.53595 0.353017 0
M  V30 2764 C 310.2 1.61002 1.11075 0
M  V30 2765 C 310.58 0.425356 2.0677 0
M  V30 2766 O 309.928 -0.583267 2.2093 0
M  V30 2767 C 310.138 2.96631 1.83877 0
M  V30 2768 C 311.486 3.51653 2.37961 0
M  V30 2769 O 312.51 2.98743 1.93987 0
M  V30 2770 O 311.369 4.44177 3.18386 0
M  V30 2771 H 308.463 0.650825 0.510251 0
M  V30 2772 H 311.009 1.6594 0.35527 0
M  V30 2773 H 309.781 3.74293 1.14108 0
M  V30 2774 H 309.404 2.95242 2.66304 0
M  V30 2775 N 310.401 -0.613514 1.45168 0
M  V30 2776 C 311.364 -1.7065 1.53007 0
M  V30 2777 C 312.364 -1.5548 0.410184 0
M  V30 2778 O 313.554 -1.60656 0.673455 0
M  V30 2779 C 310.686 -3.09875 1.42093 0
M  V30 2780 H 311.879 -1.65068 2.50385 0
M  V30 2781 H 309.432 -0.828728 1.32521 0
M  V30 2782 H 310.167 -3.21039 0.458769 0
M  V30 2783 H 309.952 -3.22293 2.23315 0
M  V30 2784 H 311.442 -3.895 1.50598 0
M  V30 2785 N 311.879 -1.3236 -0.855495 0
M  V30 2786 C 312.826 -1.21225 -1.964 0
M  V30 2787 C 313.796 -0.0946204 -1.6583 0
M  V30 2788 O 314.981 -0.27002 -1.8888 0
M  V30 2789 C 312.121 -0.940419 -3.32039 0
M  V30 2790 C 311.234 -2.14276 -3.75113 0
M  V30 2791 C 310.369 -1.80648 -4.9954 0
M  V30 2792 C 309.408 -2.97208 -5.35102 0
M  V30 2793 N 308.545 -2.63678 -6.50706 0
M  V30 2794 H 313.385 -2.16042 -2.05255 0
M  V30 2795 H 310.922 -1.07451 -1.00463 0
M  V30 2796 H 312.88 -0.763311 -4.10158 0
M  V30 2797 H 311.51 -0.0290413 -3.22787 0
M  V30 2798 H 310.562 -2.43017 -2.92655 0
M  V30 2799 H 311.874 -3.01468 -3.97389 0
M  V30 2800 H 311.028 -1.59484 -5.85363 0
M  V30 2801 H 309.767 -0.906678 -4.79198 0
M  V30 2802 H 308.772 -3.19004 -4.47791 0
M  V30 2803 H 309.997 -3.87918 -5.57401 0
M  V30 2804 H 307.943 -1.76238 -6.31883 0
M  V30 2805 H 307.86 -3.444 -6.72997 0
M  V30 2806 H 309.128 -2.45942 -7.39684 0
M  V30 2807 N 313.357 1.07166 -1.15556 0
M  V30 2808 C 314.768 1.6127 -0.940693 0
M  V30 2809 C 315.119 1.89251 0.517551 0
M  V30 2810 O 314.244 1.65937 1.38903 0
M  V30 2811 C 314.839 2.92993 -1.7012 0
M  V30 2812 C 313.398 3.43832 -1.53156 0
M  V30 2813 C 312.545 2.1786 -1.71558 0
M  V30 2814 H 315.496 0.90229 -1.30554 0
M  V30 2815 H 315.517 3.62007 -1.17181 0
M  V30 2816 H 315.029 2.72596 -2.76248 0
M  V30 2817 H 313.13 3.69307 -0.494294 0
M  V30 2818 H 313.243 4.19747 -2.30975 0
M  V30 2819 H 311.607 2.2765 -1.14225 0
M  V30 2820 H 312.39 1.99956 -2.79056 0
M  V30 2821 N 314.835 0.952656 1.25548 0
M  V30 2822 C 316.063 0.623496 1.97282 0
M  V30 2823 C 316.478 -0.803987 1.70826 0
M  V30 2824 O 315.835 -1.53755 0.983147 0
M  V30 2825 C 315.886 0.870209 3.5087 0
M  V30 2826 O 315.607 2.24156 3.76412 0
M  V30 2827 C 317.108 0.553164 4.39835 0
M  V30 2828 H 314.328 0.233931 0.628902 0
M  V30 2829 H 316.872 1.27649 1.59768 0
M  V30 2830 H 315.027 0.263652 3.86502 0
M  V30 2831 H 315.441 2.31021 4.70882 0
M  V30 2832 H 316.915 0.776342 5.46513 0
M  V30 2833 H 317.392 -0.512215 4.36203 0
M  V30 2834 H 317.998 1.13896 4.09766 0
M  V30 2835 N 316.313 -1.40141 0.720998 0
M  V30 2836 C 317.223 -2.34486 0.0731031 0
M  V30 2837 C 318.239 -1.57587 -0.737723 0
M  V30 2838 O 319.415 -1.89949 -0.669429 0
M  V30 2839 C 316.48 -3.36528 -0.833656 0
M  V30 2840 C 315.541 -4.29298 -0.0121673 0
M  V30 2841 C 314.774 -5.26466 -0.875742 0
M  V30 2842 O 314.997 -5.29745 -2.11485 0
M  V30 2843 O 313.931 -6.01092 -0.31185 0
M  V30 2844 H 317.757 -2.9152 0.851444 0
M  V30 2845 H 315.342 -1.41427 0.481527 0
M  V30 2846 H 317.224 -3.99093 -1.35289 0
M  V30 2847 H 315.899 -2.81899 -1.59105 0
M  V30 2848 H 314.806 -3.70001 0.552262 0
M  V30 2849 H 316.139 -4.87094 0.707129 0
M  V30 2850 N 317.792 -0.46758 -1.50504 0
M  V30 2851 C 319.208 -0.121533 -1.59137 0
M  V30 2852 C 319.408 1.3717 -1.47603 0
M  V30 2853 O 318.464 2.14464 -1.33272 0
M  V30 2854 C 319.777 -0.6686 -2.93173 0
M  V30 2855 C 321.325 -0.631716 -3.06559 0
M  V30 2856 C 321.8 -1.15627 -4.43164 0
M  V30 2857 N 323.291 -1.11553 -4.49567 0
M  V30 2858 C 324.026 -1.49195 -5.5365 0
M  V30 2859 N 323.522 -1.94269 -6.65005 0
M  V30 2860 N 325.315 -1.4082 -5.44175 0
M  V30 2861 H 317.466 -1.4388 -1.56245 0
M  V30 2862 H 319.729 -0.594784 -0.738198 0
M  V30 2863 H 319.435 -1.71453 -3.07078 0
M  V30 2864 H 319.309 -0.11021 -3.77039 0
M  V30 2865 H 321.696 0.405297 -2.92304 0
M  V30 2866 H 321.777 -1.22687 -2.24458 0
M  V30 2867 H 321.421 -2.1919 -4.58168 0
M  V30 2868 H 321.351 -0.537365 -5.23851 0
M  V30 2869 H 323.842 -0.784895 -3.69659 0
M  V30 2870 H 324.155 -2.21148 -7.40482 0
M  V30 2871 H 322.5 -1.98219 -6.66134 0
M  V30 2872 H 325.691 -1.0545 -4.56068 0
M  V30 2873 H 325.864 -1.70481 -6.25172 0
M  V30 2874 N 319.27 1.56325 -0.20005 0
M  V30 2875 C 320.681 1.8408 0.31167 0
M  V30 2876 C 321.032 1.12087 1.61031 0
M  V30 2877 O 320.157 0.38332 2.12978 0
M  V30 2878 C 320.752 3.33932 0.57226 0
M  V30 2879 C 319.311 3.6208 1.02834 0
M  V30 2880 C 318.458 2.77186 0.079634 0
M  V30 2881 H 321.409 1.52939 -0.423729 0
M  V30 2882 H 321.43 3.52971 1.42096 0
M  V30 2883 H 320.942 3.86303 -0.37308 0
M  V30 2884 H 319.043 3.15147 1.98778 0
M  V30 2885 H 319.156 4.7023 0.917624 0
M  V30 2886 H 317.52 2.47951 0.582448 0
M  V30 2887 H 318.303 3.32347 -0.860238 0
M  V30 2888 N 320.748 -0.0735177 1.57428 0
M  V30 2889 C 321.996 -0.771472 1.86796 0
M  V30 2890 C 322.317 -1.78201 0.791804 0
M  V30 2891 O 321.587 -1.95074 -0.179718 0
M  V30 2892 H 320.167 -0.28791 0.689287 0
M  V30 2893 H 322.829 -0.0500161 1.94836 0
M  V30 2894 H 321.925 -1.28874 2.8425 0
M  V30 2895 N 322.226 -1.5378 -0.344866 0
M  V30 2896 C 323.472 -1.71216 -1.08687 0
M  V30 2897 C 323.805 -0.473281 -1.88345 0
M  V30 2898 O 323.08 0.52968 -1.87149 0
M  V30 2899 C 323.363 -2.97486 -2.02914 0
M  V30 2900 C 323.216 -4.31579 -1.26727 0
M  V30 2901 C 324.535 -3.19422 -3.0275 0
M  V30 2902 H 321.654 -0.62301 -0.393735 0
M  V30 2903 H 324.296 -1.8645 -0.365563 0
M  V30 2904 H 322.446 -2.84629 -2.64421 0
M  V30 2905 H 324.118 -4.56284 -0.67845 0
M  V30 2906 H 322.361 -4.30049 -0.569273 0
M  V30 2907 H 323.032 -5.16106 -1.95803 0
M  V30 2908 H 325.508 -3.316 -2.51357 0
M  V30 2909 H 324.384 -4.09169 -3.65885 0
M  V30 2910 H 324.645 -2.35656 -3.74057 0
M  V30 2911 N 323.704 0.605807 -1.45491 0
M  V30 2912 C 324.951 1.36476 -1.49601 0
M  V30 2913 C 325.279 1.94007 -0.138452 0
M  V30 2914 O 324.534 1.75638 0.863114 0
M  V30 2915 C 324.833 2.53012 -2.52428 0
M  V30 2916 C 324.499 2.13617 -3.97087 0
M  V30 2917 C 323.161 2.02587 -4.36477 0
M  V30 2918 C 325.513 1.82899 -4.88055 0
M  V30 2919 C 322.841 1.59064 -5.64726 0
M  V30 2920 C 325.193 1.40861 -6.16718 0
M  V30 2921 C 323.857 1.28391 -6.55036 0
M  V30 2922 H 323.127 0.499402 -0.547429 0
M  V30 2923 H 325.774 0.684546 -1.78847 0
M  V30 2924 H 324.079 3.26379 -2.16758 0
M  V30 2925 H 325.776 3.1124 -2.52845 0
M  V30 2926 H 322.366 2.23129 -3.65939 0
M  V30 2927 H 326.55 1.90317 -4.58359 0
M  V30 2928 H 321.806 1.48034 -5.93208 0
M  V30 2929 H 325.98 1.16138 -6.86648 0
M  V30 2930 H 323.607 0.944403 -7.54311 0
M  V30 2931 N 325.182 1.32811 0.848464 0
M  V30 2932 C 326.41 1.26739 1.63538 0
M  V30 2933 C 326.825 -0.163484 1.88091 0
M  V30 2934 O 326.182 -1.10258 1.45429 0
M  V30 2935 C 326.233 2.03013 2.99112 0
M  V30 2936 O 325.954 3.40518 2.75643 0
M  V30 2937 C 327.455 2.04038 3.93552 0
M  V30 2938 H 324.675 0.437024 0.509167 0
M  V30 2939 H 327.219 1.75033 1.05753 0
M  V30 2940 H 325.374 1.58426 3.53525 0
M  V30 2941 H 325.788 3.79635 3.61908 0
M  V30 2942 H 327.262 2.61877 4.85926 0
M  V30 2943 H 327.739 1.0282 4.26995 0
M  V30 2944 H 328.345 2.486 3.45077 0
M  V30 2945 N 326.66 -1.06551 1.16123 0
M  V30 2946 C 327.623 -2.12132 0.867906 0
M  V30 2947 C 328.623 -1.60224 -0.135944 0
M  V30 2948 O 329.813 -1.73943 0.0946422 0
M  V30 2949 C 326.945 -3.396 0.297419 0
M  V30 2950 H 328.138 -2.39586 1.80385 0
M  V30 2951 H 325.691 -1.22574 0.969812 0
M  V30 2952 H 326.426 -3.17794 -0.64633 0
M  V30 2953 H 326.211 -3.78581 1.02073 0
M  V30 2954 H 327.701 -4.17455 0.110052 0
M  V30 2955 N 328.138 -0.959301 -1.25041 0
M  V30 2956 C 329.363 -0.633507 -1.97488 0
M  V30 2957 C 329.788 0.788555 -1.70773 0
M  V30 2958 O 329.146 1.53394 -0.966431 0
M  V30 2959 C 329.194 -0.904057 -3.49083 0
M  V30 2960 O 328.298 0.0147939 -4.12397 0
M  V30 2961 H 327.639 -0.240368 -0.618966 0
M  V30 2962 H 330.169 -1.28717 -1.59038 0
M  V30 2963 H 330.179 -0.832203 -3.99423 0
M  V30 2964 H 328.854 -1.94048 -3.67856 0
M  V30 2965 H 327.431 -0.109664 -3.72739 0
M  V30 2966 N 329.616 1.39756 -0.72842 0
M  V30 2967 C 330.865 1.99879 -0.270407 0
M  V30 2968 C 331.178 1.58449 1.14688 0
M  V30 2969 O 332.384 2.11362 1.70407 0
M  V30 2970 C 330.84 3.57292 -0.43252 0
M  V30 2971 C 330.448 4.07688 -1.85727 0
M  V30 2972 C 332.192 4.24485 -0.0359507 0
M  V30 2973 C 330.099 5.5765 -1.96928 0
M  V30 2974 H 329.029 0.747689 -0.0973472 0
M  V30 2975 H 331.68 1.59837 -0.901355 0
M  V30 2976 H 330.062 3.95097 0.267219 0
M  V30 2977 H 331.236 3.81231 -2.58843 0
M  V30 2978 H 329.551 3.53135 -2.20646 0
M  V30 2979 H 332.148 5.34609 -0.0987484 0
M  V30 2980 H 332.491 4.03915 1.00787 0
M  V30 2981 H 333.024 3.9183 -0.686604 0
M  V30 2982 H 329.763 5.8309 -2.99476 0
M  V30 2983 H 329.283 5.8593 -1.28241 0
M  V30 2984 H 330.962 6.22957 -1.74737 0
M  V30 2985 N 331.094 0.475555 1.50254 0
M  V30 2986 C 332.505 0.0215174 1.86688 0
M  V30 2987 C 332.856 -1.38467 1.39001 0
M  V30 2988 O 331.981 -2.02732 0.756894 0
M  V30 2989 C 332.576 0.0322715 3.38785 0
M  V30 2990 C 331.135 -0.366314 3.74613 0
M  V30 2991 C 330.282 0.415832 2.74164 0
M  V30 2992 H 333.233 0.689612 1.42934 0
M  V30 2993 H 333.254 -0.76889 3.7265 0
M  V30 2994 H 332.766 1.05584 3.73462 0
M  V30 2995 H 330.867 -1.39406 3.45538 0
M  V30 2996 H 330.98 -0.064555 4.79057 0
M  V30 2997 H 329.344 -0.131048 2.54363 0
M  V30 2998 H 330.127 1.43899 3.11686 0
M  V30 2999 N 332.573 -1.56217 0.208337 0
M  V30 3000 C 333.821 -1.97558 -0.426076 0
M  V30 3001 C 334.142 -1.09683 -1.61229 0
M  V30 3002 O 333.412 -0.170956 -1.95153 0
M  V30 3003 H 331.992 -0.729575 -0.160405 0
M  V30 3004 H 334.654 -1.92606 0.298155 0
M  V30 3005 H 333.75 -3.02672 -0.761312 0
M  V30 3006 N 334.051 0.0651679 -1.57465 0
M  V30 3007 C 335.014 1.06117 -2.03155 0
M  V30 3008 C 336.014 1.31204 -0.929632 0
M  V30 3009 O 337.204 1.26813 -1.19432 0
M  V30 3010 C 334.336 2.4032 -2.41783 0
M  V30 3011 H 335.529 0.667231 -2.92383 0
M  V30 3012 H 333.082 0.311075 -1.53173 0
M  V30 3013 H 333.817 2.84532 -1.55601 0
M  V30 3014 H 333.602 2.23451 -3.22199 0
M  V30 3015 H 335.092 3.11898 -2.77685 0
M  V30 3016 N 335.529 1.53961 0.336706 0
M  V30 3017 C 336.94 1.62914 0.911925 0
M  V30 3018 C 337.291 0.514795 1.89326 0
M  V30 3019 O 336.416 -0.354395 2.13478 0
M  V30 3020 C 337.011 2.95304 1.66076 0
M  V30 3021 C 335.57 3.06496 2.18489 0
M  V30 3022 C 334.717 2.58403 1.00613 0
M  V30 3023 H 337.668 1.58285 0.114649 0
M  V30 3024 H 337.689 2.84727 2.5241 0
M  V30 3025 H 337.201 3.76387 0.946276 0
M  V30 3026 H 335.302 2.3006 2.93092 0
M  V30 3027 H 335.415 4.1208 2.44391 0
M  V30 3028 H 333.779 2.13977 1.38152 0
M  V30 3029 H 334.562 3.41932 0.306179 0
M  V30 3030 N 337.007 -0.598083 1.45811 0
M  V30 3031 C 338.253 -1.35882 1.50545 0
M  V30 3032 C 338.586 -1.93616 0.150445 0
M  V30 3033 O 337.861 -1.75604 -0.83628 0
M  V30 3034 C 338.144 -2.49966 2.59208 0
M  V30 3035 C 337.997 -1.97367 4.04186 0
M  V30 3036 C 339.316 -3.52068 2.64076 0
M  V30 3037 H 336.435 -0.492717 0.548087 0
M  V30 3038 H 339.077 -0.673319 1.77669 0
M  V30 3039 H 337.227 -3.08443 2.3621 0
M  V30 3040 H 338.899 -1.43466 4.38423 0
M  V30 3041 H 337.142 -1.283 4.14393 0
M  V30 3042 H 337.813 -2.79649 4.75921 0
M  V30 3043 H 340.289 -3.03448 2.84708 0
M  V30 3044 H 339.165 -4.2937 3.41954 0
M  V30 3045 H 339.426 -4.08304 1.69531 0
M  V30 3046 N 338.485 -1.33259 -0.841409 0
M  V30 3047 C 339.415 -1.25926 -1.96634 0
M  V30 3048 C 340.396 -0.140349 -1.6952 0
M  V30 3049 O 341.581 -0.329707 -1.91381 0
M  V30 3050 C 338.711 -0.99512 -3.32738 0
M  V30 3051 C 337.665 -2.0767 -3.74242 0
M  V30 3052 C 336.991 -1.66474 -5.08125 0
M  V30 3053 C 338.291 -3.49318 -3.88297 0
M  V30 3054 H 339.985 -2.20046 -2.03027 0
M  V30 3055 H 337.531 -1.05931 -0.975425 0
M  V30 3056 H 339.484 -0.930323 -4.11002 0
M  V30 3057 H 338.208 -0.0183004 -3.26595 0
M  V30 3058 H 336.867 -2.13187 -2.98239 0
M  V30 3059 H 336.515 -0.675012 -4.9845 0
M  V30 3060 H 336.215 -2.3885 -5.36865 0
M  V30 3061 H 337.739 -1.61455 -5.88867 0
M  V30 3062 H 339.153 -3.46316 -4.56879 0
M  V30 3063 H 337.55 -4.20158 -4.28471 0
M  V30 3064 H 338.62 -3.8801 -2.9082 0
M  V30 3065 N 339.963 1.05934 -1.16686 0
M  V30 3066 C 340.911 2.15603 -0.872817 0
M  V30 3067 C 341.905 1.68647 0.159576 0
M  V30 3068 O 343.111 1.79995 0.0132125 0
M  V30 3069 H 339.486 0.703885 -0.264671 0
M  V30 3070 H 341.457 2.37613 -1.80507 0
M  V30 3071 C 340.206 3.45457 -0.394344 0
M  V30 3072 H 339.529 3.81984 -1.18019 0
M  V30 3073 H 340.969 4.2339 -0.227408 0
M  V30 3074 C 339.428 3.25021 0.88673 0
M  V30 3075 O 339.958 3.50906 1.95519 0
M  V30 3076 N 338.164 2.78437 0.831925 0
M  V30 3077 H 337.711 2.57572 -0.0377619 0
M  V30 3078 H 337.669 2.65144 1.68956 0
M  V30 3079 N 341.441 0.965919 1.2453 0
M  V30 3080 C 342.69 0.622437 1.91856 0
M  V30 3081 C 343.003 -0.846006 1.76358 0
M  V30 3082 O 344.209 -1.29993 2.38357 0
M  V30 3083 C 342.665 1.0626 3.43856 0
M  V30 3084 C 342.273 2.55437 3.68043 0
M  V30 3085 C 344.017 0.792183 4.17043 0
M  V30 3086 C 341.924 2.93196 5.13605 0
M  V30 3087 H 340.854 0.229092 0.718354 0
M  V30 3088 H 343.505 1.17189 1.41206 0
M  V30 3089 H 341.887 0.441476 3.93531 0
M  V30 3090 H 343.061 3.22665 3.28974 0
M  V30 3091 H 341.376 2.8007 3.08139 0
M  V30 3092 H 343.973 1.05031 5.24283 0
M  V30 3093 H 344.316 -0.271584 4.15413 0
M  V30 3094 H 344.849 1.37419 3.73311 0
M  V30 3095 H 341.588 3.98636 5.20355 0
M  V30 3096 H 341.108 2.30651 5.53679 0
M  V30 3097 H 342.787 2.83004 5.81823 0
M  V30 3098 N 342.919 -1.39368 0.735821 0
M  V30 3099 C 344.144 -2.05319 0.293052 0
M  V30 3100 C 344.569 -1.55115 -1.064 0
M  V30 3101 O 343.927 -0.695261 -1.67439 0
M  V30 3102 C 343.975 -3.59305 0.305323 0
M  V30 3103 O 343.079 -4.06299 -0.706761 0
M  V30 3104 H 342.42 -0.650529 0.13307 0
M  V30 3105 H 344.95 -1.78386 1.00197 0
M  V30 3106 H 344.96 -4.07724 0.149997 0
M  V30 3107 H 343.635 -3.95207 1.29553 0
M  V30 3108 H 342.212 -3.69292 -0.517504 0
M  V30 3109 N 344.397 -0.483516 -1.5 0
M  V30 3110 C 345.643 0.0672592 -2.02688 0
M  V30 3111 C 345.976 1.38247 -1.36387 0
M  V30 3112 O 345.251 1.88131 -0.493675 0
M  V30 3113 C 345.534 0.238109 -3.59312 0
M  V30 3114 C 345.387 -1.099 -4.36168 0
M  V30 3115 C 346.706 0.986916 -4.28892 0
M  V30 3116 H 343.825 0.0229696 -0.736642 0
M  V30 3117 H 346.467 -0.631527 -1.79197 0
M  V30 3118 H 344.617 0.8333 -3.79458 0
M  V30 3119 H 346.289 -1.73172 -4.27562 0
M  V30 3120 H 344.532 -1.69261 -3.99416 0
M  V30 3121 H 345.203 -0.932954 -5.44059 0
M  V30 3122 H 347.679 0.482302 -4.13295 0
M  V30 3123 H 346.555 1.07527 -5.38265 0
M  V30 3124 H 346.816 2.0265 -3.92919 0
M  V30 3125 N 345.875 1.56104 -0.216619 0
M  V30 3126 C 346.823 2.21434 0.712036 0
M  V30 3127 C 347.817 1.19218 1.20348 0
M  V30 3128 O 349.023 1.3731 1.16387 0
M  V30 3129 H 345.398 0.70992 0.248026 0
M  V30 3130 H 347.369 2.98083 0.137558 0
M  V30 3131 C 346.118 2.90434 1.91163 0
M  V30 3132 H 345.441 3.68842 1.54258 0
M  V30 3133 H 346.881 3.39552 2.5393 0
M  V30 3134 C 345.34 1.92635 2.76394 0
M  V30 3135 O 345.87 1.44017 3.74996 0
M  V30 3136 N 344.076 1.60392 2.42328 0
M  V30 3137 H 343.623 2.00122 1.622 0
M  V30 3138 H 343.581 0.952159 2.99635 0
M  V30 3139 N 347.353 -0.0568162 1.57498 0
M  V30 3140 C 348.301 -1.08452 2.05769 0
M  V30 3141 C 349.295 -1.39164 0.965903 0
M  V30 3142 O 350.501 -1.38395 1.15095 0
M  V30 3143 H 346.876 -0.367148 0.656282 0
M  V30 3144 H 348.847 -0.651368 2.91204 0
M  V30 3145 C 347.596 -2.38543 2.52968 0
M  V30 3146 H 346.919 -2.15765 3.36579 0
M  V30 3147 H 348.359 -3.08863 2.90481 0
M  V30 3148 C 346.818 -3.05562 1.41893 0
M  V30 3149 O 347.348 -3.94262 0.769442 0
M  V30 3150 N 345.554 -2.6643 1.16032 0
M  V30 3151 H 345.101 -1.94387 1.6903 0
M  V30 3152 H 345.059 -3.11593 0.419219 0
M  V30 3153 N 348.832 -1.54138 -0.328536 0
M  V30 3154 C 350.057 -1.76378 -1.09112 0
M  V30 3155 C 350.482 -0.508596 -1.81094 0
M  V30 3156 O 349.84 0.539598 -1.73084 0
M  V30 3157 C 349.888 -2.95358 -2.06872 0
M  V30 3158 O 348.992 -2.66556 -3.14677 0
M  V30 3159 H 348.333 -0.584614 -0.314838 0
M  V30 3160 H 350.863 -2.01146 -0.374348 0
M  V30 3161 H 350.873 -3.22566 -2.4983 0
M  V30 3162 H 349.548 -3.86385 -1.5388 0
M  V30 3163 H 348.125 -2.50282 -2.7643 0
M  V30 3164 N 350.31 0.590341 -1.46126 0
M  V30 3165 C 351.538 1.37504 -1.54597 0
M  V30 3166 C 351.953 1.87897 -0.184447 0
M  V30 3167 O 351.31 1.63192 0.816984 0
M  V30 3168 C 351.361 2.56779 -2.54454 0
M  V30 3169 O 351.082 2.08476 -3.85317 0
M  V30 3170 C 352.583 3.49427 -2.72792 0
M  V30 3171 H 349.803 0.420325 -0.523037 0
M  V30 3172 H 352.347 0.718383 -1.91467 0
M  V30 3173 H 350.502 3.1845 -2.20609 0
M  V30 3174 H 350.916 2.86097 -4.396 0
M  V30 3175 H 352.39 4.29619 -3.466 0
M  V30 3176 H 352.867 4.00876 -1.79429 0
M  V30 3177 H 353.473 2.93598 -3.07702 0
M  V30 3178 N 351.788 1.33704 0.83433 0
M  V30 3179 C 353.199 1.22813 1.4062 0
M  V30 3180 C 353.55 -0.151107 1.95617 0
M  V30 3181 O 352.675 -1.05092 1.89168 0
M  V30 3182 C 353.27 2.22355 2.55624 0
M  V30 3183 C 351.829 2.1529 3.08751 0
M  V30 3184 C 350.976 2.09589 1.8157 0
M  V30 3185 H 353.927 1.45236 0.639702 0
M  V30 3186 H 353.948 1.83391 3.33389 0
M  V30 3187 H 353.46 3.22728 2.15566 0
M  V30 3188 H 351.561 1.18235 3.53343 0
M  V30 3189 H 351.674 3.06038 3.68616 0
M  V30 3190 H 350.038 1.55134 2.02004 0
M  V30 3191 H 350.821 3.11777 1.43701 0
M  V30 3192 N 353.266 -1.05314 1.17247 0
M  V30 3193 C 354.229 -2.112 0.890357 0
M  V30 3194 C 355.229 -1.60359 -0.118943 0
M  V30 3195 O 356.419 -1.73833 0.113086 0
M  V30 3196 C 353.551 -3.39266 0.333422 0
M  V30 3197 H 354.744 -2.37659 1.82916 0
M  V30 3198 H 352.297 -1.21538 0.982758 0
M  V30 3199 H 353.032 -3.18462 -0.612587 0
M  V30 3200 H 352.817 -3.77477 1.06082 0
M  V30 3201 H 354.307 -4.17315 0.154322 0
M  V30 3202 N 354.744 -0.972509 -1.24016 0
M  V30 3203 C 355.99 -0.637978 -1.92504 0
M  V30 3204 C 356.323 0.825383 -1.75787 0
M  V30 3205 O 355.598 1.59442 -1.11393 0
M  V30 3206 C 355.881 -1.01942 -3.45369 0
M  V30 3207 C 355.734 -2.53983 -3.71231 0
M  V30 3208 C 357.053 -0.55751 -4.36555 0
M  V30 3209 H 354.172 -0.233248 -0.699117 0
M  V30 3210 H 356.814 -1.21238 -1.46292 0
M  V30 3211 H 354.964 -0.530656 -3.84859 0
M  V30 3212 H 356.636 -3.10374 -3.41271 0
M  V30 3213 H 354.879 -2.96968 -3.16216 0
M  V30 3214 H 355.55 -2.75723 -4.78206 0
M  V30 3215 H 358.026 -0.977029 -4.04467 0
M  V30 3216 H 356.902 -0.85292 -5.42233 0
M  V30 3217 H 357.163 0.542328 -4.38761 0
M  V30 3218 N 356.222 1.38976 -0.743202 0
M  V30 3219 C 357.154 2.29096 -0.0689228 0
M  V30 3220 C 358.167 1.47229 0.694791 0
M  V30 3221 O 359.356 1.70212 0.537597 0
M  V30 3222 C 356.456 3.25988 0.926548 0
M  V30 3223 C 355.629 4.36833 0.222647 0
M  V30 3224 C 354.688 5.13981 1.12739 0
M  V30 3225 O 353.714 5.6601 0.601795 0
M  V30 3226 N 354.916 5.25966 2.45641 0
M  V30 3227 H 357.681 2.87604 -0.842846 0
M  V30 3228 H 355.242 1.50645 -0.593109 0
M  V30 3229 H 357.234 3.74476 1.5346 0
M  V30 3230 H 355.804 2.68453 1.60162 0
M  V30 3231 H 355.024 3.90116 -0.565983 0
M  V30 3232 H 356.312 5.0811 -0.264841 0
M  V30 3233 H 355.71 4.85228 2.9081 0
M  V30 3234 H 354.267 5.77865 3.01522 0
M  V30 3235 N 357.7 0.491464 1.49741 0
M  V30 3236 C 358.928 -0.0535151 2.06831 0
M  V30 3237 C 359.343 -1.31683 1.35296 0
M  V30 3238 O 358.7 -1.77402 0.42836 0
M  V30 3239 C 358.751 -0.320835 3.60073 0
M  V30 3240 O 358.472 0.892394 4.28915 0
M  V30 3241 C 359.973 -0.910519 4.33848 0
M  V30 3242 H 357.193 0.0161909 0.670805 0
M  V30 3243 H 359.737 0.68609 1.92647 0
M  V30 3244 H 357.892 -1.0104 3.73991 0
M  V30 3245 H 358.306 0.649401 5.20464 0
M  V30 3246 H 359.78 -1.04721 5.41976 0
M  V30 3247 H 360.257 -1.90589 3.95692 0
M  V30 3248 H 360.863 -0.258712 4.24512 0
M  V30 3249 N 359.178 -1.55987 0.224894 0
M  V30 3250 C 360.108 -2.23426 -0.678457 0
M  V30 3251 C 361.089 -1.20709 -1.19847 0
M  V30 3252 O 362.274 -1.49304 -1.24186 0
M  V30 3253 C 359.404 -2.91676 -1.88527 0
M  V30 3254 C 358.358 -4.00893 -1.49896 0
M  V30 3255 C 357.684 -4.56455 -2.78483 0
M  V30 3256 C 358.984 -5.17769 -0.686461 0
M  V30 3257 H 360.678 -2.99175 -0.116173 0
M  V30 3258 H 358.224 -1.43897 -0.054436 0
M  V30 3259 H 360.177 -3.37547 -2.5227 0
M  V30 3260 H 358.901 -2.1338 -2.47258 0
M  V30 3261 H 357.56 -3.55758 -0.884985 0
M  V30 3262 H 357.208 -3.74886 -3.35365 0
M  V30 3263 H 356.908 -5.30169 -2.53368 0
M  V30 3264 H 358.432 -5.05047 -3.43162 0
M  V30 3265 H 359.846 -5.60001 -1.22767 0
M  V30 3266 H 358.243 -5.97735 -0.532259 0
M  V30 3267 H 359.313 -4.83932 0.306196 0
M  V30 3268 N 360.656 0.0484629 -1.57525 0
M  V30 3269 C 361.881 0.759177 -1.93006 0
M  V30 3270 C 362.306 1.69125 -0.823317 0
M  V30 3271 O 361.664 1.79931 0.222364 0
M  V30 3272 C 361.712 1.50899 -3.27509 0
M  V30 3273 O 360.816 2.62112 -3.18388 0
M  V30 3274 H 360.157 0.205564 -0.631379 0
M  V30 3275 H 362.687 0.00972959 -2.04598 0
M  V30 3276 H 362.697 1.88317 -3.6194 0
M  V30 3277 H 361.372 0.825269 -4.0763 0
M  V30 3278 H 359.949 2.27379 -2.95556 0
M  V30 3279 N 362.134 1.5431 0.320358 0
M  V30 3280 C 363.545 1.63872 0.894594 0
M  V30 3281 C 363.896 0.534847 1.88769 0
M  V30 3282 O 363.021 -0.331732 2.13842 0
M  V30 3283 C 363.616 2.97049 1.62934 0
M  V30 3284 C 362.175 3.08796 2.15226 0
M  V30 3285 C 361.322 2.59456 0.978671 0
M  V30 3286 H 364.273 1.58398 0.0978544 0
M  V30 3287 H 364.294 2.87388 2.49376 0
M  V30 3288 H 363.806 3.7737 0.906302 0
M  V30 3289 H 361.907 2.33156 2.90636 0
M  V30 3290 H 362.02 4.14649 2.40006 0
M  V30 3291 H 360.384 2.1543 1.35875 0
M  V30 3292 H 361.167 3.42237 0.269895 0
M  V30 3293 N 363.613 -0.582584 1.46437 0
M  V30 3294 C 364.861 -1.33814 1.51453 0
M  V30 3295 C 365.182 -1.94277 0.167792 0
M  V30 3296 O 364.452 -1.78566 -0.805677 0
M  V30 3297 H 363.032 -0.496838 0.557818 0
M  V30 3298 H 365.694 -0.682281 1.82568 0
M  V30 3299 H 364.79 -2.14479 2.26728 0
M  V30 3300 N 365.091 -1.34144 -0.827227 0
M  V30 3301 C 366.337 -1.26446 -1.58554 0
M  V30 3302 C 366.67 0.1664 -1.93486 0
M  V30 3303 O 365.945 1.1107 -1.59667 0
M  V30 3304 C 366.228 -2.15111 -2.8879 0
M  V30 3305 C 366.081 -3.66712 -2.60465 0
M  V30 3306 C 367.4 -2.03311 -3.90324 0
M  V30 3307 H 364.519 -0.46067 -0.575284 0
M  V30 3308 H 367.161 -1.64356 -0.953269 0
M  V30 3309 H 365.311 -1.8291 -3.42748 0
M  V30 3310 H 366.983 -4.09259 -2.1285 0
M  V30 3311 H 365.226 -3.88014 -1.93978 0
M  V30 3312 H 365.897 -4.24112 -3.53317 0
M  V30 3313 H 368.373 -2.31574 -3.45706 0
M  V30 3314 H 367.249 -2.67582 -4.79261 0
M  V30 3315 H 367.51 -1.00879 -4.30437 0
M  V30 3316 N 366.569 1.04691 -1.17803 0
M  V30 3317 C 367.797 1.81446 -0.99423 0
M  V30 3318 C 368.212 1.83174 0.457459 0
M  V30 3319 O 367.569 1.26265 1.31771 0
M  V30 3320 C 367.62 3.27334 -1.5341 0
M  V30 3321 O 367.341 3.25798 -2.92895 0
M  V30 3322 C 368.842 4.20759 -1.39559 0
M  V30 3323 H 366.062 0.571599 -0.351447 0
M  V30 3324 H 368.606 1.31982 -1.56208 0
M  V30 3325 H 366.761 3.74052 -1.00815 0
M  V30 3326 H 367.175 4.17144 -3.17949 0
M  V30 3327 H 368.649 5.21084 -1.82141 0
M  V30 3328 H 369.126 4.37856 -0.343394 0
M  V30 3329 H 369.732 3.79901 -1.91195 0
M  V30 3330 N 368.047 0.979072 1.23499 0
M  V30 3331 C 368.995 0.510604 2.26926 0
M  V30 3332 C 369.989 -0.431691 1.63807 0
M  V30 3333 O 371.195 -0.30573 1.77385 0
M  V30 3334 H 367.57 0.146688 0.737554 0
M  V30 3335 H 369.541 1.39466 2.63803 0
M  V30 3336 C 368.29 -0.172658 3.47271 0
M  V30 3337 H 367.613 0.543331 3.96091 0
M  V30 3338 H 369.053 -0.464101 4.21452 0
M  V30 3339 C 367.512 -1.40345 3.06276 0
M  V30 3340 O 368.042 -2.49978 3.14442 0
M  V30 3341 N 366.248 -1.27362 2.61203 0
M  V30 3342 H 365.795 -0.381584 2.54758 0
M  V30 3343 H 365.753 -2.09822 2.34141 0
M  V30 3344 N 369.525 -1.3858 0.750561 0
M  V30 3345 C 370.473 -2.32339 0.110162 0
M  V30 3346 C 371.467 -1.53864 -0.708674 0
M  V30 3347 O 372.673 -1.69417 -0.608112 0
M  V30 3348 H 369.048 -0.751812 0.0168275 0
M  V30 3349 H 371.019 -2.83959 0.917053 0
M  V30 3350 C 369.768 -3.39043 -0.771067 0
M  V30 3351 H 369.091 -3.99517 -0.150374 0
M  V30 3352 H 370.531 -4.07061 -1.1865 0
M  V30 3353 C 368.99 -2.77365 -1.91234 0
M  V30 3354 O 369.52 -2.66434 -3.00626 0
M  V30 3355 N 367.726 -2.35219 -1.70646 0
M  V30 3356 H 367.273 -2.4431 -0.81673 0
M  V30 3357 H 367.231 -1.94294 -2.47178 0
M  V30 3358 N 371.003 -0.499398 -1.49478 0
M  V30 3359 C 372.231 0.0425456 -2.06856 0
M  V30 3360 C 372.646 1.30964 -1.35992 0
M  V30 3361 O 372.003 1.77172 -0.437762 0
M  V30 3362 C 372.054 0.301735 -3.60239 0
M  V30 3363 O 371.775 -0.915127 -4.28436 0
M  V30 3364 C 373.276 0.887499 -4.34325 0
M  V30 3365 H 370.496 -0.0197482 -0.670709 0
M  V30 3366 H 373.04 -0.696297 -1.92281 0
M  V30 3367 H 371.195 0.990556 -3.74522 0
M  V30 3368 H 371.609 -0.676993 -5.20113 0
M  V30 3369 H 373.083 1.01845 -5.42523 0
M  V30 3370 H 373.56 1.88488 -3.96698 0
M  V30 3371 H 374.166 0.236196 -4.24644 0
M  V30 3372 N 372.481 1.55866 -0.233164 0
M  V30 3373 C 373.758 1.90471 0.444988 0
M  V30 3374 C 374.138 1.15209 1.7689 0
M  V30 3375 O 373.486 0.265119 2.26957 0
M  V30 3376 C 373.696 3.4333 0.626559 0
M  V30 3377 C 375.044 4.14319 0.92871 0
M  V30 3378 O 376.068 3.48993 0.712926 0
M  V30 3379 O 374.927 5.29846 1.33887 0
M  V30 3380 H 372.021 0.792347 0.236885 0
M  V30 3381 H 374.567 1.67437 -0.276211 0
M  V30 3382 H 373.339 3.90095 -0.306822 0
M  V30 3383 H 372.962 3.72181 1.39881 0
M  V30 3384 N 373.959 -0.0401083 1.57549 0
M  V30 3385 C 374.906 -1.04413 2.05831 0
M  V30 3386 C 375.876 -1.36585 0.945184 0
M  V30 3387 O 377.061 -1.47112 1.21502 0
M  V30 3388 C 374.201 -2.34336 2.53339 0
M  V30 3389 C 373.314 -2.08419 3.78398 0
M  V30 3390 C 372.449 -3.32133 4.14561 0
M  V30 3391 C 371.488 -3.01721 5.3257 0
M  V30 3392 N 370.625 -4.17855 5.64218 0
M  V30 3393 H 375.465 -0.625442 2.91363 0
M  V30 3394 H 373.002 -0.297218 1.44066 0
M  V30 3395 H 374.96 -3.10234 2.78946 0
M  V30 3396 H 373.59 -2.73948 1.7074 0
M  V30 3397 H 372.642 -1.23069 3.59942 0
M  V30 3398 H 373.954 -1.81978 4.64419 0
M  V30 3399 H 373.108 -4.16406 4.41238 0
M  V30 3400 H 371.847 -3.61678 3.2717 0
M  V30 3401 H 370.852 -2.15849 5.05657 0
M  V30 3402 H 372.077 -2.73466 6.21605 0
M  V30 3403 H 370.023 -4.47372 4.79786 0
M  V30 3404 H 369.94 -3.94798 6.44725 0
M  V30 3405 H 371.208 -5.03033 5.95465 0
M  V30 3406 N 375.437 -1.54477 -0.31217 0
M  V30 3407 C 376.714 -1.63891 -1.06767 0
M  V30 3408 C 377.094 -0.480028 -2.0557 0
M  V30 3409 O 376.442 0.524487 -2.22399 0
M  V30 3410 C 376.652 -3.01402 -1.75948 0
M  V30 3411 C 378 -3.57838 -2.28554 0
M  V30 3412 O 379.024 -3.03782 -1.85998 0
M  V30 3413 O 377.883 -4.52462 -3.06497 0
M  V30 3414 H 374.977 -0.664125 -0.492816 0
M  V30 3415 H 377.523 -1.66823 -0.311149 0
M  V30 3416 H 376.295 -3.77187 -1.04144 0
M  V30 3417 H 375.918 -3.02199 -2.58383 0
M  V30 3418 N 376.915 0.57481 -1.46744 0
M  V30 3419 C 378.161 1.3347 -1.52688 0
M  V30 3420 C 378.494 1.93353 -0.181229 0
M  V30 3421 O 377.769 1.76912 0.808237 0
M  V30 3422 C 378.052 2.45811 -2.63152 0
M  V30 3423 C 377.905 1.90912 -4.07275 0
M  V30 3424 C 379.224 3.47822 -2.69644 0
M  V30 3425 H 376.343 0.483935 -0.555856 0
M  V30 3426 H 378.985 0.644968 -1.78718 0
M  V30 3427 H 377.135 3.04646 -2.41088 0
M  V30 3428 H 378.807 1.36473 -4.4065 0
M  V30 3429 H 377.05 1.21691 -4.16382 0
M  V30 3430 H 377.721 2.72042 -4.80309 0
M  V30 3431 H 380.197 2.9888 -2.895 0
M  V30 3432 H 379.073 4.23876 -3.48742 0
M  V30 3433 H 379.334 4.05555 -1.76005 0
M  V30 3434 N 378.394 1.34581 0.820102 0
M  V30 3435 C 379.81 1.14325 1.11364 0
M  V30 3436 C 380.01 -0.0533648 2.01429 0
M  V30 3437 O 379.066 -0.728044 2.41776 0
M  V30 3438 C 380.379 2.43983 1.75764 0
M  V30 3439 C 381.927 2.50065 1.88246 0
M  V30 3440 C 382.402 3.79732 2.56061 0
M  V30 3441 N 383.893 3.80908 2.63558 0
M  V30 3442 C 384.628 4.77961 3.16766 0
M  V30 3443 N 384.124 5.85397 3.70517 0
M  V30 3444 N 385.917 4.65413 3.15194 0
M  V30 3445 H 378.068 2.11246 0.221096 0
M  V30 3446 H 380.331 0.934289 0.160649 0
M  V30 3447 H 380.037 3.31651 1.1705 0
M  V30 3448 H 379.911 2.57531 2.75604 0
M  V30 3449 H 382.298 1.62834 2.46108 0
M  V30 3450 H 382.379 2.40442 0.873006 0
M  V30 3451 H 382.023 4.67354 1.98853 0
M  V30 3452 H 381.953 3.86639 3.57516 0
M  V30 3453 H 384.444 3.03274 2.25463 0
M  V30 3454 H 384.757 6.55463 4.09376 0
M  V30 3455 H 383.102 5.89107 3.68752 0
M  V30 3456 H 386.293 3.80627 2.72471 0
M  V30 3457 H 386.466 5.41216 3.56356 0
M  V30 3458 N 379.872 -1.04064 1.18357 0
M  V30 3459 C 381.283 -1.58719 0.98312 0
M  V30 3460 C 381.634 -1.90556 -0.467193 0
M  V30 3461 O 380.759 -1.69561 -1.34454 0
M  V30 3462 C 381.354 -2.88379 1.77828 0
M  V30 3463 C 379.913 -3.3965 1.62218 0
M  V30 3464 C 379.06 -2.13235 1.77274 0
M  V30 3465 H 382.011 -0.867359 1.32901 0
M  V30 3466 H 382.032 -3.58773 1.26737 0
M  V30 3467 H 381.544 -2.65176 2.83379 0
M  V30 3468 H 379.645 -3.67866 0.592036 0
M  V30 3469 H 379.758 -4.13475 2.42023 0
M  V30 3470 H 378.122 -2.24542 1.20221 0
M  V30 3471 H 378.905 -1.92487 2.8426 0
M  V30 3472 N 381.35 -0.985608 -1.22978 0
M  V30 3473 C 382.313 -0.535071 -2.22867 0
M  V30 3474 C 383.313 0.378123 -1.56291 0
M  V30 3475 O 384.503 0.171092 -1.73358 0
M  V30 3476 C 381.635 0.222702 -3.40172 0
M  V30 3477 H 382.828 -1.41835 -2.6424 0
M  V30 3478 H 380.381 -0.772042 -1.35901 0
M  V30 3479 H 381.116 1.12229 -3.04262 0
M  V30 3480 H 380.901 -0.43288 -3.89703 0
M  V30 3481 H 382.391 0.526335 -4.1427 0
M  V30 3482 N 382.828 1.3818 -0.7579 0
M  V30 3483 C 384.076 1.99624 -0.315361 0
M  V30 3484 C 384.397 1.60464 1.10799 0
M  V30 3485 O 383.667 0.863507 1.75842 0
M  V30 3486 H 382.247 0.73831 -0.113611 0
M  V30 3487 H 384.909 1.68878 -0.972952 0
M  V30 3488 H 384.005 3.09754 -0.381931 0
M  V30 3489 N 384.306 0.507319 1.49211 0
M  V30 3490 C 385.553 -0.0349529 2.0247 0
M  V30 3491 C 385.881 -1.36409 1.38647 0
M  V30 3492 O 385.136 -1.88841 0.513566 0
M  V30 3493 C 385.435 -0.229513 3.56662 0
M  V30 3494 C 385.101 1.02241 4.39156 0
M  V30 3495 C 383.763 1.36557 4.61417 0
M  V30 3496 C 386.115 1.85428 4.871 0
M  V30 3497 C 383.443 2.53999 5.28868 0
M  V30 3498 C 385.795 3.02028 5.55843 0
M  V30 3499 C 384.459 3.36717 5.76349 0
M  V30 3500 H 383.729 -0.0127902 0.74089 0
M  V30 3501 H 386.376 0.668756 1.79443 0
M  V30 3502 H 384.681 -1.0158 3.78403 0
M  V30 3503 H 386.378 -0.663641 3.9547 0
M  V30 3504 H 382.968 0.745124 4.22073 0
M  V30 3505 H 387.152 1.6023 4.69723 0
M  V30 3506 H 382.408 2.81105 5.42946 0
M  V30 3507 H 386.582 3.66808 5.91967 0
M  V30 3508 H 384.209 4.27821 6.28389 0
M  V30 3509 N 385.784 -1.5574 0.241426 0
M  V30 3510 C 387.012 -2.03208 -0.389134 0
M  V30 3511 C 387.427 -1.12082 -1.51931 0
M  V30 3512 O 386.784 -0.134183 -1.82006 0
M  V30 3513 C 386.835 -3.50064 -0.902087 0
M  V30 3514 O 386.556 -4.37717 0.18305 0
M  V30 3515 C 388.057 -4.13268 -1.60389 0
M  V30 3516 H 385.277 -0.664509 -0.0931053 0
M  V30 3517 H 387.821 -2.0124 0.36369 0
M  V30 3518 H 385.976 -3.52583 -1.60511 0
M  V30 3519 H 386.39 -5.24097 -0.205579 0
M  V30 3520 H 387.864 -5.17733 -1.91458 0
M  V30 3521 H 388.341 -3.59434 -2.52397 0
M  V30 3522 H 388.947 -4.14655 -0.945576 0
M  V30 3523 N 387.262 0.0317525 -1.57568 0
M  V30 3524 C 388.194 1.06073 -2.03178 0
M  V30 3525 C 389.207 1.32627 -0.944132 0
M  V30 3526 O 390.396 1.30162 -1.22148 0
M  V30 3527 C 387.496 2.40297 -2.38978 0
M  V30 3528 C 386.669 2.33137 -3.70089 0
M  V30 3529 C 385.728 3.49787 -3.9311 0
M  V30 3530 O 384.754 3.29403 -4.64201 0
M  V30 3531 N 385.956 4.71562 -3.38541 0
M  V30 3532 H 388.721 0.672006 -2.92069 0
M  V30 3533 H 386.282 0.219745 -1.60402 0
M  V30 3534 H 388.274 3.1705 -2.51518 0
M  V30 3535 H 386.844 2.71024 -1.55771 0
M  V30 3536 H 386.064 1.415 -3.67928 0
M  V30 3537 H 387.352 2.25493 -4.56104 0
M  V30 3538 H 386.75 4.91024 -2.80912 0
M  V30 3539 H 385.307 5.45689 -3.56464 0
M  V30 3540 N 388.74 1.54641 0.303973 0
M  V30 3541 C 389.988 1.73437 1.0375 0
M  V30 3542 C 390.309 0.521449 1.87899 0
M  V30 3543 O 389.579 -0.46432 1.90318 0
M  V30 3544 H 388.159 0.639518 0.386039 0
M  V30 3545 H 390.821 1.91988 0.335675 0
M  V30 3546 H 389.917 2.62235 1.69231 0
M  V30 3547 N 390.218 -0.567019 1.47046 0
M  V30 3548 C 391.466 -1.322 1.52864 0
M  V30 3549 C 391.787 -1.94088 0.188388 0
M  V30 3550 O 391.057 -1.7941 -0.786693 0
M  V30 3551 H 389.637 -0.490894 0.563056 0
M  V30 3552 H 392.299 -0.662879 1.83281 0
M  V30 3553 H 391.395 -2.12062 2.2899 0
M  V30 3554 N 391.696 -1.35014 -0.812953 0
M  V30 3555 C 392.644 -1.27435 -1.94585 0
M  V30 3556 C 393.638 -0.170494 -1.6854 0
M  V30 3557 O 394.844 -0.336085 -1.76835 0
M  V30 3558 H 391.219 -0.396144 -0.639198 0
M  V30 3559 H 393.19 -2.23158 -1.98098 0
M  V30 3560 C 391.939 -1.05677 -3.31252 0
M  V30 3561 H 391.262 -1.89853 -3.51846 0
M  V30 3562 H 392.702 -1.04413 -4.10943 0
M  V30 3563 C 391.161 0.239615 -3.36047 0
M  V30 3564 O 391.691 1.23759 -3.8216 0
M  V30 3565 N 389.897 0.276186 -2.89285 0
M  V30 3566 H 389.444 -0.53653 -2.51951 0
M  V30 3567 H 389.402 1.14332 -2.92875 0
M  V30 3568 N 393.175 1.03435 -1.18907 0
M  V30 3569 C 394.403 1.80381 -1.01342 0
M  V30 3570 C 394.818 1.83649 0.438005 0
M  V30 3571 O 394.175 1.27655 1.30424 0
M  V30 3572 C 394.226 3.25689 -1.56873 0
M  V30 3573 O 393.947 3.22673 -2.96334 0
M  V30 3574 C 395.448 4.19255 -1.44014 0
M  V30 3575 H 392.668 0.56784 -0.35749 0
M  V30 3576 H 395.212 1.30317 -1.576 0
M  V30 3577 H 393.367 3.72962 -1.04777 0
M  V30 3578 H 393.781 4.13748 -3.22355 0
M  V30 3579 H 395.255 5.19123 -1.87657 0
M  V30 3580 H 395.732 4.37467 -0.389815 0
M  V30 3581 H 396.338 3.77851 -1.95214 0
M  V30 3582 N 394.653 0.992116 1.22453 0
M  V30 3583 C 396.069 0.702713 1.43297 0
M  V30 3584 C 396.269 -0.726909 1.87932 0
M  V30 3585 O 395.325 -1.49792 2.0327 0
M  V30 3586 C 396.638 1.70762 2.47509 0
M  V30 3587 C 398.186 1.72298 2.61309 0
M  V30 3588 C 398.661 2.71649 3.68742 0
M  V30 3589 N 400.152 2.70239 3.76199 0
M  V30 3590 C 400.887 3.43778 4.58917 0
M  V30 3591 N 400.383 4.26914 5.45633 0
M  V30 3592 N 402.176 3.32487 4.5322 0
M  V30 3593 H 394.327 1.91543 0.917871 0
M  V30 3594 H 396.59 0.826031 0.465162 0
M  V30 3595 H 396.296 2.73059 2.21657 0
M  V30 3596 H 396.17 1.49985 3.46099 0
M  V30 3597 H 398.557 0.706989 2.86506 0
M  V30 3598 H 398.638 1.97143 1.62997 0
M  V30 3599 H 398.282 3.73397 3.44292 0
M  V30 3600 H 398.212 2.44074 4.66622 0
M  V30 3601 H 400.703 2.09912 3.14237 0
M  V30 3602 H 401.016 4.79855 6.05771 0
M  V30 3603 H 399.361 4.31002 5.45218 0
M  V30 3604 H 402.552 2.6698 3.84499 0
M  V30 3605 H 402.725 3.90058 5.17454 0
M  V30 3606 N 396.131 -1.37776 0.765217 0
M  V30 3607 C 397.408 -1.93975 0.251596 0
M  V30 3608 C 397.788 -1.69949 -1.25222 0
M  V30 3609 O 397.136 -1.04457 -2.03226 0
M  V30 3610 C 397.346 -3.43487 0.617895 0
M  V30 3611 C 398.694 -4.20564 0.584029 0
M  V30 3612 O 399.718 -3.5182 0.556888 0
M  V30 3613 O 398.577 -5.43138 0.605291 0
M  V30 3614 H 395.671 -0.82509 0.0561806 0
M  V30 3615 H 398.217 -1.47101 0.846128 0
M  V30 3616 H 396.989 -3.5453 1.65602 0
M  V30 3617 H 396.612 -3.976 -0.00403411 0
M  V30 3618 N 397.609 -0.515225 -1.4894 0
M  V30 3619 C 398.572 0.244681 -2.2789 0
M  V30 3620 C 399.572 0.881166 -1.34507 0
M  V30 3621 O 400.762 0.743497 -1.57537 0
M  V30 3622 C 397.894 1.35247 -3.12923 0
M  V30 3623 H 399.087 -0.448289 -2.96531 0
M  V30 3624 H 396.64 -0.270656 -1.53939 0
M  V30 3625 H 397.375 2.07916 -2.48881 0
M  V30 3626 H 397.16 0.901374 -3.81599 0
M  V30 3627 H 398.65 1.88737 -3.72516 0
M  V30 3628 N 399.087 1.5561 -0.249682 0
M  V30 3629 C 400.333 1.99306 0.374841 0
M  V30 3630 C 400.666 1.13767 1.57387 0
M  V30 3631 O 399.941 0.201711 1.93451 0
M  V30 3632 C 400.224 3.51507 0.781986 0
M  V30 3633 C 400.077 4.4781 -0.422629 0
M  V30 3634 C 401.396 4.08884 1.62793 0
M  V30 3635 H 398.515 0.724572 0.134773 0
M  V30 3636 H 401.157 1.86719 -0.351549 0
M  V30 3637 H 399.307 3.62363 1.4009 0
M  V30 3638 H 400.979 4.48931 -1.06108 0
M  V30 3639 H 399.222 4.20518 -1.06524 0
M  V30 3640 H 399.893 5.51919 -0.0943766 0
M  V30 3641 H 402.369 4.01147 1.10547 0
M  V30 3642 H 401.245 5.1564 1.88166 0
M  V30 3643 H 401.506 3.57515 2.60068 0
M  V30 3644 N 400.565 -0.0233959 1.57583 0
M  V30 3645 C 401.814 -0.712133 1.8871 0
M  V30 3646 C 402.127 -1.76217 0.848944 0
M  V30 3647 O 403.333 -2.50389 1.04964 0
M  V30 3648 C 401.789 -1.3177 3.3491 0
M  V30 3649 C 401.397 -0.303715 4.46969 0
M  V30 3650 C 403.141 -1.98598 3.75179 0
M  V30 3651 C 401.048 -0.917945 5.84233 0
M  V30 3652 H 399.978 -0.269735 0.704101 0
M  V30 3653 H 402.629 0.0333114 1.8347 0
M  V30 3654 H 401.011 -2.11304 3.34913 0
M  V30 3655 H 402.185 0.465325 4.58445 0
M  V30 3656 H 400.5 0.2628 4.1557 0
M  V30 3657 H 403.097 -2.45416 4.75053 0
M  V30 3658 H 403.44 -2.80659 3.07468 0
M  V30 3659 H 403.973 -1.25831 3.77374 0
M  V30 3660 H 400.712 -0.136633 6.55358 0
M  V30 3661 H 400.232 -1.65669 5.76467 0
M  V30 3662 H 401.911 -1.4236 6.31144 0
M  V30 3663 N 402.043 -1.548 -0.295768 0
M  V30 3664 C 403.459 -1.4613 -0.641722 0
M  V30 3665 C 403.659 -0.656771 -1.90496 0
M  V30 3666 O 402.715 -0.166547 -2.5195 0
M  V30 3667 C 404.028 -2.90141 -0.789852 0
M  V30 3668 C 405.576 -3.00216 -0.885396 0
M  V30 3669 C 406.051 -4.45434 -1.06548 0
M  V30 3670 N 407.542 -4.49166 -1.13156 0
M  V30 3671 C 408.277 -5.58717 -1.28929 0
M  V30 3672 N 407.773 -6.78182 -1.41567 0
M  V30 3673 N 409.566 -5.46415 -1.31859 0
M  V30 3674 H 401.717 -2.05574 0.534147 0
M  V30 3675 H 403.98 -0.931259 0.177372 0
M  V30 3676 H 403.686 -3.51635 0.0675598 0
M  V30 3677 H 403.56 -3.37859 -1.67724 0
M  V30 3678 H 405.947 -2.38833 -1.73329 0
M  V30 3679 H 406.028 -2.55787 0.0261185 0
M  V30 3680 H 405.672 -5.07413 -0.222335 0
M  V30 3681 H 405.602 -4.87499 -1.9913 0
M  V30 3682 H 408.093 -3.631 -1.04721 0
M  V30 3683 H 408.406 -7.57428 -1.53372 0
M  V30 3684 H 406.751 -6.81037 -1.38613 0
M  V30 3685 H 409.942 -4.5203 -1.21601 0
M  V30 3686 H 410.115 -6.31841 -1.43808 0
M  V30 3687 N 403.521 0.559213 -1.47345 0
M  V30 3688 C 404.768 1.31648 -1.53867 0
M  V30 3689 C 405.096 1.93468 -0.200104 0
M  V30 3690 O 404.351 1.78295 0.806799 0
M  V30 3691 C 404.65 2.44853 -2.6035 0
M  V30 3692 C 404.316 2.00876 -4.03683 0
M  V30 3693 C 402.978 1.88599 -4.42701 0
M  V30 3694 C 405.33 1.67279 -4.93626 0
M  V30 3695 C 402.658 1.41017 -5.69501 0
M  V30 3696 C 405.01 1.21169 -6.20887 0
M  V30 3697 C 403.674 1.07487 -6.58789 0
M  V30 3698 H 402.944 0.481734 -0.56304 0
M  V30 3699 H 405.591 0.627301 -1.80934 0
M  V30 3700 H 403.896 3.19318 -2.27032 0
M  V30 3701 H 405.593 3.03039 -2.62619 0
M  V30 3702 H 402.183 2.11374 -3.72853 0
M  V30 3703 H 406.367 1.75638 -4.64182 0
M  V30 3704 H 401.623 1.29086 -5.97618 0
M  V30 3705 H 405.797 0.942345 -6.89995 0
M  V30 3706 H 403.424 0.703946 -7.56934 0
M  V30 3707 N 404.999 1.35443 0.805782 0
M  V30 3708 C 406.41 1.25768 1.37983 0
M  V30 3709 C 406.761 -0.10958 1.95894 0
M  V30 3710 O 405.886 -1.01056 1.91355 0
M  V30 3711 C 406.481 2.27727 2.5085 0
M  V30 3712 C 405.04 2.2179 3.04115 0
M  V30 3713 C 404.187 2.13393 1.77084 0
M  V30 3714 H 407.138 1.4656 0.608752 0
M  V30 3715 H 407.159 1.90422 3.29424 0
M  V30 3716 H 406.671 3.27227 2.08671 0
M  V30 3717 H 404.772 1.25703 3.50756 0
M  V30 3718 H 404.885 3.13788 3.62042 0
M  V30 3719 H 403.249 1.59384 1.98668 0
M  V30 3720 H 404.032 3.14755 1.37056 0
M  V30 3721 N 406.477 -1.02803 1.19454 0
M  V30 3722 C 407.424 -2.11099 0.933046 0
M  V30 3723 C 408.394 -1.65571 -0.132447 0
M  V30 3724 O 409.579 -1.90797 0.00987576 0
M  V30 3725 C 406.719 -3.41763 0.478747 0
M  V30 3726 C 405.832 -4.00833 1.6111 0
M  V30 3727 C 404.967 -5.19511 1.10825 0
M  V30 3728 C 404.006 -5.70639 2.21445 0
M  V30 3729 N 403.143 -6.80589 1.72461 0
M  V30 3730 H 407.983 -2.32804 1.86028 0
M  V30 3731 H 405.52 -1.14179 0.927441 0
M  V30 3732 H 407.478 -4.16736 0.196745 0
M  V30 3733 H 406.108 -3.20166 -0.411493 0
M  V30 3734 H 405.16 -3.23066 2.00829 0
M  V30 3735 H 406.472 -4.34794 2.4445 0
M  V30 3736 H 405.626 -6.01645 0.781533 0
M  V30 3737 H 404.365 -4.87086 0.244606 0
M  V30 3738 H 403.37 -4.87116 2.54947 0
M  V30 3739 H 404.595 -6.05102 3.08267 0
M  V30 3740 H 402.541 -6.50016 0.884056 0
M  V30 3741 H 402.458 -7.13681 2.49389 0
M  V30 3742 H 403.726 -7.66317 1.42755 0
M  V30 3743 N 407.956 -0.998596 -1.21925 0
M  V30 3744 C 409.233 -0.593401 -1.86382 0
M  V30 3745 C 409.613 0.92916 -1.89552 0
M  V30 3746 O 408.961 1.81347 -1.39017 0
M  V30 3747 C 409.171 -1.22039 -3.26967 0
M  V30 3748 C 410.519 -1.32449 -4.03413 0
M  V30 3749 O 411.543 -1.17522 -3.36254 0
M  V30 3750 O 410.402 -1.56395 -5.23644 0
M  V30 3751 H 407.496 -0.202385 -0.801854 0
M  V30 3752 H 410.042 -1.09484 -1.29659 0
M  V30 3753 H 408.814 -2.26158 -3.19325 0
M  V30 3754 H 408.437 -0.704906 -3.91301 0
M  V30 3755 N 409.434 1.37368 -0.772513 0
M  V30 3756 C 410.659 2.0447 -0.347386 0
M  V30 3757 C 411.084 1.57882 1.0225 0
M  V30 3758 O 410.442 0.73941 1.65537 0
M  V30 3759 C 410.49 3.58369 -0.400479 0
M  V30 3760 O 409.594 4.0803 0.598789 0
M  V30 3761 H 408.935 0.646773 -0.15027 0
M  V30 3762 H 411.465 1.75667 -1.04892 0
M  V30 3763 H 411.475 4.07183 -0.258045 0
M  V30 3764 H 410.15 3.91633 -1.39986 0
M  V30 3765 H 408.727 3.70534 0.419411 0
M  V30 3766 N 410.912 0.523116 1.48665 0
M  V30 3767 C 412.16 -0.0134497 2.02096 0
M  V30 3768 C 412.481 -1.35418 1.40311 0
M  V30 3769 O 411.751 -1.87543 0.566074 0
M  V30 3770 H 410.331 -0.00795915 0.746958 0
M  V30 3771 H 412.993 0.685388 1.82451 0
M  V30 3772 H 412.089 -0.126849 3.11842 0
M  V30 3773 N 412.39 -1.55475 0.257931 0
M  V30 3774 C 413.34 -2.18506 -0.651094 0
M  V30 3775 C 414.324 -1.14431 -1.13112 0
M  V30 3776 O 415.516 -1.40305 -1.07905 0
M  V30 3777 C 412.645 -2.89653 -1.84272 0
M  V30 3778 C 411.731 -4.00996 -1.38068 0
M  V30 3779 N 412.122 -5.01816 -0.633609 0
M  V30 3780 C 410.42 -4.13753 -1.66506 0
M  V30 3781 C 411.121 -5.80371 -0.392922 0
M  V30 3782 N 410.097 -5.3505 -0.960359 0
M  V30 3783 H 413.899 -2.93811 -0.0722883 0
M  V30 3784 H 411.413 -1.62286 0.0607256 0
M  V30 3785 H 413.41 -3.33245 -2.50506 0
M  V30 3786 H 412.07 -2.15854 -2.42564 0
M  V30 3787 H 413.081 -5.17128 -0.282626 0
M  V30 3788 H 409.758 -3.51133 -2.25858 0
M  V30 3789 H 411.148 -6.7159 0.204235 0
M  V30 3790 N 413.868 0.0150385 -1.57593 0
M  V30 3791 C 414.816 1.02958 -2.08572 0
M  V30 3792 C 415.81 1.36554 -1.00246 0
M  V30 3793 O 417.016 1.35295 -1.18724 0
M  V30 3794 H 413.391 0.349619 -0.665786 0
M  V30 3795 H 415.362 0.573932 -2.92829 0
M  V30 3796 C 414.111 2.31752 -2.59203 0
M  V30 3797 H 413.434 2.06765 -3.42182 0
M  V30 3798 H 414.874 3.01053 -2.98568 0
M  V30 3799 C 413.333 3.01692 -1.49945 0
M  V30 3800 O 413.863 3.92083 -0.873704 0
M  V30 3801 N 412.069 2.6326 -1.23056 0
M  V30 3802 H 411.616 1.89838 -1.74125 0
M  V30 3803 H 411.574 3.10372 -0.501685 0
M  V30 3804 N 415.346 1.54954 0.287554 0
M  V30 3805 C 416.309 1.86076 1.33823 0
M  V30 3806 C 417.309 0.734414 1.43049 0
M  V30 3807 O 418.499 1.00266 1.42452 0
M  V30 3808 C 415.631 2.05305 2.72144 0
M  V30 3809 H 416.824 2.79984 1.07465 0
M  V30 3810 H 414.377 1.47223 0.524902 0
M  V30 3811 H 415.112 1.1373 3.03704 0
M  V30 3812 H 414.897 2.873 2.66836 0
M  V30 3813 H 416.387 2.30706 3.48087 0
M  V30 3814 N 416.824 -0.551391 1.4764 0
M  V30 3815 C 418.07 -1.31024 1.54792 0
M  V30 3816 C 418.403 -1.9304 0.211967 0
M  V30 3817 O 417.678 -1.78175 -0.77999 0
M  V30 3818 C 417.961 -2.41593 2.67029 0
M  V30 3819 C 417.814 -1.84408 4.10261 0
M  V30 3820 C 419.133 -3.43488 2.75143 0
M  V30 3821 H 416.252 -0.475031 0.563485 0
M  V30 3822 H 418.894 -0.616454 1.79722 0
M  V30 3823 H 417.044 -3.00772 2.45904 0
M  V30 3824 H 418.716 -1.29445 4.42766 0
M  V30 3825 H 416.959 -1.15051 4.18265 0
M  V30 3826 H 417.63 -2.64367 4.84576 0
M  V30 3827 H 420.106 -2.94236 2.94218 0
M  V30 3828 H 418.982 -4.18274 3.55441 0
M  V30 3829 H 419.243 -4.02703 1.82435 0
M  V30 3830 N 418.302 -1.35869 -0.798587 0
M  V30 3831 C 419.532 -1.32529 -1.58491 0
M  V30 3832 C 419.94 0.0975405 -1.88948 0
M  V30 3833 O 419.283 1.06224 -1.49874 0
M  V30 3834 C 419.345 -2.07247 -2.9375 0
M  V30 3835 C 419.009 -3.56391 -2.86068 0
M  V30 3836 C 420.006 -4.50824 -2.58947 0
M  V30 3837 C 417.691 -3.9915 -3.04933 0
M  V30 3838 C 419.685 -5.85993 -2.5078 0
M  V30 3839 C 417.372 -5.34413 -2.96389 0
M  V30 3840 C 418.37 -6.27646 -2.69349 0
M  V30 3841 O 418.058 -7.60426 -2.60782 0
M  V30 3842 H 417.79 -0.456529 -0.498556 0
M  V30 3843 H 420.344 -1.79425 -0.999799 0
M  V30 3844 H 418.574 -1.55001 -3.54276 0
M  V30 3845 H 420.263 -1.96883 -3.54954 0
M  V30 3846 H 421.029 -4.19104 -2.44084 0
M  V30 3847 H 416.908 -3.26961 -3.24989 0
M  V30 3848 H 420.452 -6.58735 -2.29595 0
M  V30 3849 H 416.349 -5.65743 -3.10813 0
M  V30 3850 H 417.117 -7.70444 -2.76331 0
M  V30 3851 N 419.78 1.02168 -1.19998 0
M  V30 3852 C 421.026 1.75945 -1.00852 0
M  V30 3853 C 421.359 1.88702 0.458828 0
M  V30 3854 O 420.634 1.40911 1.34069 0
M  V30 3855 C 420.917 3.18154 -1.68671 0
M  V30 3856 C 420.77 3.13224 -3.22817 0
M  V30 3857 C 422.089 4.16711 -1.41561 0
M  V30 3858 H 419.208 0.638673 -0.367785 0
M  V30 3859 H 421.85 1.19222 -1.4794 0
M  V30 3860 H 420 3.66586 -1.28636 0
M  V30 3861 H 421.672 2.72635 -3.72112 0
M  V30 3862 H 419.915 2.50751 -3.53986 0
M  V30 3863 H 420.586 4.13728 -3.65422 0
M  V30 3864 H 423.062 3.76913 -1.76284 0
M  V30 3865 H 421.938 5.14391 -1.91553 0
M  V30 3866 H 422.199 4.40774 -0.342193 0
M  V30 3867 N 421.258 1.00505 1.21394 0
M  V30 3868 C 422.483 0.706367 1.95001 0
M  V30 3869 C 422.908 -0.72463 1.73582 0
M  V30 3870 O 422.266 -1.49702 1.0227 0
M  V30 3871 C 422.314 1.03299 3.45487 0
M  V30 3872 O 421.418 0.138275 4.12168 0
M  V30 3873 H 420.759 0.263175 0.609619 0
M  V30 3874 H 423.289 1.34531 1.54151 0
M  V30 3875 H 423.299 0.979872 3.96059 0
M  V30 3876 H 421.974 2.07567 3.60401 0
M  V30 3877 H 420.551 0.247928 3.72075 0
M  V30 3878 N 422.737 -1.36956 0.779787 0
M  V30 3879 C 423.983 -1.99787 0.348281 0
M  V30 3880 C 424.316 -1.61756 -1.07465 0
M  V30 3881 O 423.591 -0.867639 -1.74075 0
M  V30 3882 C 423.874 -3.56597 0.50104 0
M  V30 3883 C 423.727 -4.04513 1.96697 0
M  V30 3884 C 425.046 -4.40008 -0.0898097 0
M  V30 3885 H 422.165 -0.725796 0.128022 0
M  V30 3886 H 424.807 -1.62514 0.984331 0
M  V30 3887 H 422.957 -3.88479 -0.0404347 0
M  V30 3888 H 424.629 -3.83161 2.56876 0
M  V30 3889 H 422.872 -3.56408 2.47297 0
M  V30 3890 H 423.543 -5.1352 2.02486 0
M  V30 3891 H 426.019 -4.14431 0.372293 0
M  V30 3892 H 424.895 -5.4888 0.0471605 0
M  V30 3893 H 425.156 -4.26035 -1.18096 0
M  V30 3894 N 424.215 -0.530993 -1.48385 0
M  V30 3895 C 425.44 0.000729535 -2.074 0
M  V30 3896 C 425.865 1.27298 -1.3848 0
M  V30 3897 O 425.223 1.75599 -0.451081 0
M  V30 3898 C 425.271 0.206697 -3.60007 0
M  V30 3899 O 424.375 1.27514 -3.92191 0
M  V30 3900 H 423.716 -0.039583 -0.662819 0
M  V30 3901 H 426.246 -0.739194 -1.9078 0
M  V30 3902 H 426.256 0.42904 -4.05738 0
M  V30 3903 H 424.931 -0.722675 -4.09573 0
M  V30 3904 H 423.508 1.03537 -3.58238 0
M  V30 3905 N 425.693 1.55336 -0.266172 0
M  V30 3906 C 426.97 1.91372 0.404486 0
M  V30 3907 C 427.35 1.18935 1.74407 0
M  V30 3908 O 426.698 0.3132 2.26343 0
M  V30 3909 C 426.908 3.44581 0.553593 0
M  V30 3910 C 428.256 4.16196 0.840618 0
M  V30 3911 O 429.28 3.50426 0.638739 0
M  V30 3912 O 428.139 5.32567 1.22618 0
M  V30 3913 H 425.233 0.797194 0.220025 0
M  V30 3914 H 427.779 1.66813 -0.311664 0
M  V30 3915 H 426.551 3.89357 -0.389498 0
M  V30 3916 H 426.174 3.75065 1.31955 0
M  V30 3917 N 427.171 -0.0066808 1.57599 0
M  V30 3918 C 428.417 -0.693947 1.90558 0
M  V30 3919 C 428.75 -1.73792 0.866594 0
M  V30 3920 O 428.025 -1.94156 -0.115548 0
M  V30 3921 C 428.308 -1.34317 3.34112 0
M  V30 3922 C 428.161 -0.311189 4.48722 0
M  V30 3923 C 429.48 -2.27116 3.7697 0
M  V30 3924 H 426.599 -0.250803 0.693013 0
M  V30 3925 H 429.241 0.043242 1.89951 0
M  V30 3926 H 427.391 -1.9715 3.3476 0
M  V30 3927 H 429.063 0.316944 4.6021 0
M  V30 3928 H 427.306 0.367253 4.32243 0
M  V30 3929 H 427.977 -0.804366 5.46108 0
M  V30 3930 H 430.453 -1.74306 3.77831 0
M  V30 3931 H 429.329 -2.69511 4.78179 0
M  V30 3932 H 429.59 -3.14743 3.10466 0
M  V30 3933 N 428.649 -1.55105 -0.279332 0
M  V30 3934 C 429.579 -1.90557 -1.34945 0
M  V30 3935 C 430.56 -0.766738 -1.51839 0
M  V30 3936 O 431.745 -1.02434 -1.64988 0
M  V30 3937 C 428.875 -2.17193 -2.71006 0
M  V30 3938 C 427.829 -3.33021 -2.68851 0
M  V30 3939 C 427.155 -3.45123 -4.08405 0
M  V30 3940 C 428.455 -4.69578 -2.28678 0
M  V30 3941 H 430.149 -2.80188 -1.05522 0
M  V30 3942 H 427.695 -1.34811 -0.506173 0
M  V30 3943 H 429.648 -2.40581 -3.45975 0
M  V30 3944 H 428.372 -1.24355 -3.01999 0
M  V30 3945 H 427.031 -3.0959 -1.9634 0
M  V30 3946 H 426.679 -2.49762 -4.3661 0
M  V30 3947 H 426.379 -4.22995 -4.07859 0
M  V30 3948 H 427.903 -3.70796 -4.85121 0
M  V30 3949 H 429.317 -4.92553 -2.93368 0
M  V30 3950 H 427.714 -5.5032 -2.39306 0
M  V30 3951 H 428.784 -4.68828 -1.23807 0
M  V30 3952 N 430.127 0.543554 -1.4793 0
M  V30 3953 C 431.352 1.32995 -1.59145 0
M  V30 3954 C 431.777 1.86472 -0.246956 0
M  V30 3955 O 431.135 1.63696 0.779324 0
M  V30 3956 C 431.183 2.46623 -2.63077 0
M  V30 3957 O 430.287 3.49261 -2.19295 0
M  V30 3958 H 429.628 0.394472 -0.534124 0
M  V30 3959 H 432.158 0.655489 -1.93816 0
M  V30 3960 H 432.168 2.93001 -2.83926 0
M  V30 3961 H 430.843 2.07059 -3.60693 0
M  V30 3962 H 429.42 3.09094 -2.08603 0
M  V30 3963 N 431.605 1.3629 0.791371 0
M  V30 3964 C 433.016 1.27225 1.36641 0
M  V30 3965 C 433.367 -0.0887968 1.95999 0
M  V30 3966 O 432.492 -0.990207 1.92416 0
M  V30 3967 C 433.087 2.30375 2.48421 0
M  V30 3968 C 431.646 2.25004 3.01746 0
M  V30 3969 C 430.793 2.15259 1.7481 0
M  V30 3970 H 433.744 1.47198 0.593173 0
M  V30 3971 H 433.765 1.93905 3.27385 0
M  V30 3972 H 433.277 3.29422 2.05189 0
M  V30 3973 H 431.378 1.29417 3.49403 0
M  V30 3974 H 431.491 3.1761 3.58693 0
M  V30 3975 H 429.855 1.61482 1.96966 0
M  V30 3976 H 430.638 3.16191 1.33709 0
M  V30 3977 N 433.083 -1.0153 1.20538 0
M  V30 3978 C 434.36 -1.72327 0.925343 0
M  V30 3979 C 434.74 -2.03383 -0.565547 0
M  V30 3980 O 434.088 -1.69934 -1.52757 0
M  V30 3981 C 434.298 -2.9902 1.79967 0
M  V30 3982 C 435.646 -3.72258 2.04228 0
M  V30 3983 O 436.67 -3.08979 1.77231 0
M  V30 3984 O 435.529 -4.86053 2.4983 0
M  V30 3985 H 432.623 -0.751099 0.346092 0
M  V30 3986 H 435.169 -1.07366 1.31417 0
M  V30 3987 H 433.941 -2.72402 2.80915 0
M  V30 3988 H 433.564 -3.71721 1.41099 0
M  V30 3989 N 434.561 -1.01147 -1.20859 0
M  V30 3990 C 435.493 -0.535546 -2.22855 0
M  V30 3991 C 436.506 0.379323 -1.58319 0
M  V30 3992 O 437.695 0.178489 -1.77605 0
M  V30 3993 C 434.795 0.240962 -3.38042 0
M  V30 3994 C 433.968 -0.674562 -4.32167 0
M  V30 3995 C 433.027 0.053467 -5.26173 0
M  V30 3996 O 432.053 -0.567339 -5.66366 0
M  V30 3997 N 433.255 1.32997 -5.65059 0
M  V30 3998 H 436.02 -1.41268 -2.64317 0
M  V30 3999 H 433.581 -0.888386 -1.35349 0
M  V30 4000 H 435.573 0.737115 -3.97931 0
M  V30 4001 H 434.143 1.01935 -2.95513 0
M  V30 4002 H 433.363 -1.35111 -3.70322 0
M  V30 4003 H 434.651 -1.2974 -4.91981 0
M  V30 4004 H 434.049 1.85536 -5.34409 0
M  V30 4005 H 432.606 1.77095 -6.2728 0
M  V30 4006 N 436.039 1.36541 -0.78704 0
M  V30 4007 C 437.285 1.99599 -0.358872 0
M  V30 4008 C 437.618 1.62323 1.06606 0
M  V30 4009 O 436.893 0.876858 1.73613 0
M  V30 4010 C 437.176 3.56327 -0.519944 0
M  V30 4011 C 437.029 4.03464 -1.98839 0
M  V30 4012 C 438.348 4.4005 0.0664737 0
M  V30 4013 H 435.467 0.725107 -0.131869 0
M  V30 4014 H 438.109 1.6199 -0.992936 0
M  V30 4015 H 436.259 3.88495 0.0198321 0
M  V30 4016 H 437.931 3.81793 -2.58905 0
M  V30 4017 H 436.174 3.55092 -2.49183 0
M  V30 4018 H 436.845 5.12439 -2.05207 0
M  V30 4019 H 439.321 4.14228 -0.394267 0
M  V30 4020 H 438.197 5.48847 -0.0762682 0
M  V30 4021 H 438.458 4.26655 1.15835 0
M  V30 4022 N 437.518 0.538854 1.48102 0
M  V30 4023 C 438.465 -0.219042 2.29758 0
M  V30 4024 C 439.435 -0.925562 1.37922 0
M  V30 4025 O 440.62 -0.924855 1.66886 0
M  V30 4026 C 437.76 -1.25452 3.2149 0
M  V30 4027 C 436.873 -0.555943 4.28408 0
M  V30 4028 C 436.008 -1.57512 5.0731 0
M  V30 4029 C 435.047 -0.860498 6.06021 0
M  V30 4030 N 434.184 -1.82564 6.77949 0
M  V30 4031 H 439.024 0.483449 2.94052 0
M  V30 4032 H 436.561 0.250247 1.44956 0
M  V30 4033 H 438.519 -1.86727 3.7308 0
M  V30 4034 H 437.149 -1.92528 2.591 0
M  V30 4035 H 436.201 0.170938 3.80016 0
M  V30 4036 H 437.513 0.00474616 4.988 0
M  V30 4037 H 436.667 -2.26191 5.62959 0
M  V30 4038 H 435.406 -2.16972 4.36778 0
M  V30 4039 H 434.411 -0.159686 5.49568 0
M  V30 4040 H 435.636 -0.271897 6.78555 0
M  V30 4041 H 433.582 -2.40915 6.10161 0
M  V30 4042 H 433.499 -1.31662 7.44447 0
M  V30 4043 H 434.767 -2.50414 7.38182 0
M  V30 4044 N 438.996 -1.55193 0.274407 0
M  V30 4045 C 439.928 -2.1989 -0.646595 0
M  V30 4046 C 440.941 -1.1834 -1.11801 0
M  V30 4047 O 442.13 -1.4507 -1.04004 0
M  V30 4048 C 439.23 -2.8104 -1.89393 0
M  V30 4049 C 438.403 -4.08274 -1.56943 0
M  V30 4050 C 437.462 -4.53478 -2.66916 0
M  V30 4051 O 436.488 -5.19267 -2.33132 0
M  V30 4052 N 437.69 -4.2356 -3.9696 0
M  V30 4053 H 440.455 -2.99556 -0.0928686 0
M  V30 4054 H 438.016 -1.61618 0.0954783 0
M  V30 4055 H 440.008 -3.08226 -2.62257 0
M  V30 4056 H 438.578 -2.05372 -2.35672 0
M  V30 4057 H 437.798 -3.88384 -0.674655 0
M  V30 4058 H 439.086 -4.91173 -1.32764 0
M  V30 4059 H 438.484 -3.70799 -4.27229 0
M  V30 4060 H 437.041 -4.55518 -4.66205 0
M  V30 4061 N 440.474 -0.00167713 -1.576 0
M  V30 4062 C 441.89 0.354422 -1.55615 0
M  V30 4063 C 442.09 1.74679 -1.00447 0
M  V30 4064 O 441.146 2.4428 -0.639022 0
M  V30 4065 C 442.459 0.22812 -2.99833 0
M  V30 4066 C 444.007 0.302934 -3.11531 0
M  V30 4067 C 444.482 0.205737 -4.57538 0
M  V30 4068 N 445.973 0.263584 -4.62449 0
M  V30 4069 C 446.708 0.211742 -5.73009 0
M  V30 4070 N 446.204 0.110399 -6.92712 0
M  V30 4071 N 447.997 0.263729 -5.61481 0
M  V30 4072 H 440.148 -0.912498 -1.918 0
M  V30 4073 H 442.411 -0.349928 -0.881053 0
M  V30 4074 H 442.117 -0.729934 -3.44042 0
M  V30 4075 H 441.991 1.00951 -3.6344 0
M  V30 4076 H 444.378 1.25143 -2.67251 0
M  V30 4077 H 444.459 -0.508357 -2.50698 0
M  V30 4078 H 444.103 -0.739225 -5.02492 0
M  V30 4079 H 444.033 1.03554 -5.16318 0
M  V30 4080 H 446.524 0.343173 -3.76339 0
M  V30 4081 H 446.837 0.0767828 -7.72762 0
M  V30 4082 H 445.182 0.0760025 -6.94958 0
M  V30 4083 H 448.373 0.34111 -4.66855 0
M  V30 4084 H 448.546 0.219862 -6.47627 0
M  V30 4085 N 441.952 1.55251 0.271103 0
M  V30 4086 C 442.884 1.84675 1.35749 0
M  V30 4087 C 443.897 0.731366 1.45447 0
M  V30 4088 O 445.086 1.00924 1.4723 0
M  V30 4089 C 442.186 1.99638 2.73857 0
M  V30 4090 C 441.359 3.30312 2.86727 0
M  V30 4091 C 440.418 3.35318 4.05522 0
M  V30 4092 O 439.444 4.08682 3.96191 0
M  V30 4093 N 440.646 2.62857 5.17577 0
M  V30 4094 H 443.411 2.78445 1.10853 0
M  V30 4095 H 440.972 1.55191 0.461218 0
M  V30 4096 H 442.964 2.00355 3.51625 0
M  V30 4097 H 441.534 1.12725 2.91568 0
M  V30 4098 H 440.754 3.42118 1.95829 0
M  V30 4099 H 442.042 4.16488 2.92258 0
M  V30 4100 H 441.44 2.02939 5.28046 0
M  V30 4101 H 439.997 2.69295 5.93568 0
M  V30 4102 N 443.43 -0.535701 1.48216 0
M  V30 4103 C 444.707 -1.29683 1.46429 0
M  V30 4104 C 445.087 -2.10391 0.172852 0
M  V30 4105 O 444.435 -2.12282 -0.845488 0
M  V30 4106 C 444.645 -2.18313 2.72287 0
M  V30 4107 C 445.993 -2.78639 3.20383 0
M  V30 4108 O 447.017 -2.28604 2.73164 0
M  V30 4109 O 445.876 -3.69636 4.02531 0
M  V30 4110 H 442.97 -0.585026 0.584529 0
M  V30 4111 H 445.516 -0.552827 1.60443 0
M  V30 4112 H 444.288 -1.58421 3.57797 0
M  V30 4113 H 443.911 -2.99971 2.60966 0
M  V30 4114 N 444.908 -1.36708 -0.784132 0
M  V30 4115 C 445.818 -1.3363 -1.92822 0
M  V30 4116 C 446.834 -0.237686 -1.72369 0
M  V30 4117 O 448.01 -0.470962 -1.95816 0
M  V30 4118 C 445.075 -1.13011 -3.27764 0
M  V30 4119 C 444.136 -2.32397 -3.60957 0
M  V30 4120 C 443.369 -2.12752 -4.89461 0
M  V30 4121 O 443.592 -1.10541 -5.59586 0
M  V30 4122 O 442.526 -3.00653 -5.21432 0
M  V30 4123 H 446.352 -2.29964 -1.98369 0
M  V30 4124 H 443.937 -1.1731 -0.925136 0
M  V30 4125 H 445.819 -1.03451 -4.08504 0
M  V30 4126 H 444.494 -0.19743 -3.23097 0
M  V30 4127 H 443.401 -2.47527 -2.80502 0
M  V30 4128 H 444.734 -3.2419 -3.70354 0
M  V30 4129 N 446.386 1.0089 -1.21074 0
M  V30 4130 C 447.296 2.13039 -0.982425 0
M  V30 4131 C 448.312 1.73881 0.0642161 0
M  V30 4132 O 449.488 2.01012 -0.12496 0
M  V30 4133 C 446.553 3.42377 -0.545803 0
M  V30 4134 C 445.614 3.95731 -1.6642 0
M  V30 4135 C 444.847 5.18896 -1.24832 0
M  V30 4136 O 445.07 5.70273 -0.120265 0
M  V30 4137 O 444.004 5.65597 -2.05873 0
M  V30 4138 H 447.83 2.35175 -1.92163 0
M  V30 4139 H 445.415 1.1142 -0.995285 0
M  V30 4140 H 447.297 4.20244 -0.311912 0
M  V30 4141 H 445.972 3.21639 0.364727 0
M  V30 4142 H 444.879 3.19108 -1.95246 0
M  V30 4143 H 446.212 4.20872 -2.55201 0
M  V30 4144 N 447.864 1.01787 1.20321 0
M  V30 4145 C 448.812 0.58254 2.25187 0
M  V30 4146 C 449.806 -0.379359 1.65098 0
M  V30 4147 O 451.012 -0.249142 1.78267 0
M  V30 4148 H 447.387 0.170078 0.732514 0
M  V30 4149 H 449.358 1.47788 2.59232 0
M  V30 4150 C 448.107 -0.0620885 3.47645 0
M  V30 4151 H 447.43 0.669069 3.94162 0
M  V30 4152 H 448.87 -0.329784 4.22716 0
M  V30 4153 C 447.329 -1.3053 3.10586 0
M  V30 4154 O 447.859 -2.39848 3.22236 0
M  V30 4155 N 446.065 -1.18988 2.65123 0
M  V30 4156 H 445.612 -0.300341 2.55843 0
M  V30 4157 H 445.57 -2.02267 2.40698 0
M  V30 4158 N 449.342 -1.36122 0.79427 0
M  V30 4159 C 450.758 -1.5232 0.476525 0
M  V30 4160 C 450.958 -1.74685 -1.00436 0
M  V30 4161 O 450.014 -1.78115 -1.78973 0
M  V30 4162 C 451.327 -2.70607 1.31119 0
M  V30 4163 C 452.875 -2.8448 1.30537 0
M  V30 4164 C 453.35 -4.05778 2.12387 0
M  V30 4165 N 454.841 -4.12933 2.09859 0
M  V30 4166 C 455.576 -5.05876 2.69957 0
M  V30 4167 N 455.072 -6.04232 3.38934 0
M  V30 4168 N 456.865 -4.98528 2.59665 0
M  V30 4169 H 449.016 -1.1986 1.75349 0
M  V30 4170 H 451.279 -0.585418 0.745647 0
M  V30 4171 H 450.985 -2.60619 2.36158 0
M  V30 4172 H 450.859 -3.64888 0.955843 0
M  V30 4173 H 453.246 -2.93927 0.262876 0
M  V30 4174 H 453.327 -1.91093 1.70051 0
M  V30 4175 H 452.971 -3.97092 3.1667 0
M  V30 4176 H 452.901 -4.98323 1.70242 0
M  V30 4177 H 455.392 -3.42515 1.59662 0
M  V30 4178 H 455.705 -6.71724 3.82109 0
M  V30 4179 H 454.05 -6.04443 3.43036 0
M  V30 4180 H 457.241 -4.20641 2.05375 0
M  V30 4181 H 457.414 -5.70773 3.06793 0
M  V30 4182 N 450.82 -0.546701 -1.47814 0
M  V30 4183 C 452.236 -0.205717 -1.58269 0
M  V30 4184 C 452.436 1.29153 -1.54667 0
M  V30 4185 O 451.492 2.07098 -1.44453 0
M  V30 4186 C 452.805 -0.823065 -2.89216 0
M  V30 4187 C 454.353 -0.793328 -3.02779 0
M  V30 4188 C 454.828 -1.38955 -4.36412 0
M  V30 4189 N 456.319 -1.35227 -4.43021 0
M  V30 4190 C 457.054 -1.78333 -5.44963 0
M  V30 4191 N 456.55 -2.29246 -6.53772 0
M  V30 4192 N 458.343 -1.69467 -5.35945 0
M  V30 4193 H 450.494 -1.5196 -1.48398 0
M  V30 4194 H 452.757 -0.633078 -0.705632 0
M  V30 4195 H 452.463 -1.8749 -2.97558 0
M  V30 4196 H 452.337 -0.309915 -3.75925 0
M  V30 4197 H 454.724 0.249784 -2.94041 0
M  V30 4198 H 454.805 -1.34412 -2.17639 0
M  V30 4199 H 454.449 -2.43168 -4.45906 0
M  V30 4200 H 454.379 -0.814291 -5.20266 0
M  V30 4201 H 456.87 -0.979739 -3.64979 0
M  V30 4202 H 457.183 -2.60089 -7.27718 0
M  V30 4203 H 455.528 -2.3325 -6.5469 0
M  V30 4204 H 458.719 -1.29477 -4.49837 0
M  V30 4205 H 458.892 -2.03381 -6.15256 0
M  V30 4206 N 452.299 1.55045 -0.282633 0
M  V30 4207 C 453.231 2.2023 0.634924 0
M  V30 4208 C 454.244 1.18931 1.11172 0
M  V30 4209 O 455.433 1.4562 1.03233 0
M  V30 4210 C 452.533 2.82041 1.87899 0
M  V30 4211 C 451.706 4.091 1.54776 0
M  V30 4212 C 450.765 4.54887 2.64507 0
M  V30 4213 O 449.791 5.20496 2.30375 0
M  V30 4214 N 450.993 4.25659 3.94709 0
M  V30 4215 H 453.758 2.99601 0.0769811 0
M  V30 4216 H 451.319 1.61565 -0.104048 0
M  V30 4217 H 453.311 3.09613 2.60619 0
M  V30 4218 H 451.881 2.06618 2.3458 0
M  V30 4219 H 451.101 3.88736 0.654049 0
M  V30 4220 H 452.389 4.9187 1.30158 0
M  V30 4221 H 451.787 3.7306 4.25256 0
M  V30 4222 H 450.344 4.57984 4.63782 0
M  V30 4223 N 453.777 0.010035 1.57597 0
M  V30 4224 C 454.709 -1.00649 2.05918 0
M  V30 4225 C 455.722 -1.30077 0.978964 0
M  V30 4226 O 456.911 -1.26878 1.25556 0
M  V30 4227 C 454.011 -2.33876 2.45265 0
M  V30 4228 C 453.184 -2.23242 3.7614 0
M  V30 4229 C 452.243 -3.39242 4.02245 0
M  V30 4230 O 451.269 -3.1698 4.72771 0
M  V30 4231 N 452.471 -4.6242 3.50924 0
M  V30 4232 H 455.236 -0.594333 2.93748 0
M  V30 4233 H 452.797 -0.17714 1.60928 0
M  V30 4234 H 454.789 -3.1027 2.59836 0
M  V30 4235 H 453.359 -2.66799 1.62902 0
M  V30 4236 H 452.579 -1.31696 3.71551 0
M  V30 4237 H 453.867 -2.13321 4.61922 0
M  V30 4238 H 453.265 -4.83404 2.93832 0
M  V30 4239 H 451.822 -5.36046 3.70807 0
M  V30 4240 N 455.255 -1.55392 -0.262866 0
M  V30 4241 C 456.165 -1.92077 -1.34698 0
M  V30 4242 C 457.181 -0.819227 -1.53508 0
M  V30 4243 O 458.357 -1.11921 -1.67439 0
M  V30 4244 C 455.422 -2.19407 -2.68443 0
M  V30 4245 C 454.483 -3.42905 -2.58292 0
M  V30 4246 C 453.716 -3.68921 -3.85659 0
M  V30 4247 O 453.939 -2.97275 -4.8681 0
M  V30 4248 O 452.873 -4.62455 -3.85252 0
M  V30 4249 H 456.699 -2.84384 -1.06581 0
M  V30 4250 H 454.284 -1.42069 -0.462264 0
M  V30 4251 H 456.166 -2.38365 -3.47506 0
M  V30 4252 H 454.841 -1.30282 -2.96325 0
M  V30 4253 H 453.748 -3.29272 -1.7757 0
M  V30 4254 H 455.081 -4.32282 -2.35358 0
M  V30 4255 N 456.733 0.527833 -1.48498 0
M  V30 4256 C 457.979 1.28295 -1.57836 0
M  V30 4257 C 458.334 1.9077 -0.249943 0
M  V30 4258 O 457.627 1.76421 0.747402 0
M  V30 4259 C 457.821 2.39275 -2.65485 0
M  V30 4260 C 457.65 1.87679 -4.08664 0
M  V30 4261 C 456.42 1.70187 -4.75778 0
M  V30 4262 C 458.618 1.40409 -4.94762 0
M  V30 4263 N 456.6 1.13238 -6.03366 0
M  V30 4264 C 457.971 0.954216 -6.12613 0
M  V30 4265 C 460.026 1.28732 -4.8097 0
M  V30 4266 C 458.729 0.39915 -7.18192 0
M  V30 4267 C 460.755 0.746244 -5.86673 0
M  V30 4268 C 460.117 0.306457 -7.03733 0
M  V30 4269 H 456.216 0.460408 -0.632099 0
M  V30 4270 H 458.8 0.594913 -1.85388 0
M  V30 4271 H 456.971 3.05572 -2.3975 0
M  V30 4272 H 458.703 3.06308 -2.64495 0
M  V30 4273 H 455.458 1.93772 -4.32145 0
M  V30 4274 H 455.882 0.867687 -6.71417 0
M  V30 4275 H 460.524 1.61338 -3.90807 0
M  V30 4276 H 458.242 0.0607678 -8.08077 0
M  V30 4277 H 461.828 0.659041 -5.78055 0
M  V30 4278 H 460.708 -0.105708 -7.84129 0
M  V30 4279 N 458.211 1.37122 0.776871 0
M  V30 4280 C 459.488 1.22586 1.52421 0
M  V30 4281 C 459.868 -0.182726 2.10308 0
M  V30 4282 O 459.216 -1.18979 1.9508 0
M  V30 4283 C 459.426 2.31782 2.60918 0
M  V30 4284 C 460.774 2.69071 3.2846 0
M  V30 4285 O 461.798 2.3092 2.71209 0
M  V30 4286 O 460.657 3.3478 4.31954 0
M  V30 4287 H 457.751 0.478045 0.674835 0
M  V30 4288 H 460.297 1.48888 0.814275 0
M  V30 4289 H 459.069 3.26131 2.16227 0
M  V30 4290 H 458.692 2.06916 3.39517 0
M  V30 4291 N 459.689 -1.00246 1.21608 0
M  V30 4292 C 460.652 -2.07233 0.979133 0
M  V30 4293 C 461.652 -1.6072 -0.0508219 0
M  V30 4294 O 462.842 -1.73196 0.186712 0
M  V30 4295 C 459.974 -3.37546 0.477016 0
M  V30 4296 H 461.167 -2.29687 1.92831 0
M  V30 4297 H 458.72 -1.17261 1.03342 0
M  V30 4298 H 459.455 -3.20773 -0.476966 0
M  V30 4299 H 459.24 -3.72638 1.21997 0
M  V30 4300 H 460.73 -4.16285 0.331181 0
M  V30 4301 N 461.167 -1.02423 -1.1978 0
M  V30 4302 C 462.395 -0.737456 -1.93311 0
M  V30 4303 C 462.81 0.703023 -1.75223 0
M  V30 4304 O 462.167 1.47761 -1.07112 0
M  V30 4305 C 462.218 -1.0733 -3.45199 0
M  V30 4306 O 461.939 -2.4572 -3.62702 0
M  V30 4307 C 463.44 -0.80866 -4.35862 0
M  V30 4308 H 460.66 -0.2702 -0.614193 0
M  V30 4309 H 463.204 -1.36747 -1.52054 0
M  V30 4310 H 461.359 -0.488545 -3.84307 0
M  V30 4311 H 461.773 -2.58081 -4.56612 0
M  V30 4312 H 463.247 -1.09365 -5.41057 0
M  V30 4313 H 463.724 0.257025 -4.38447 0
M  V30 4314 H 464.33 -1.37592 -4.02428 0
M  V30 4315 N 462.645 1.35699 -0.801477 0
M  V30 4316 C 463.595 2.2728 -0.181073 0
M  V30 4317 C 464.579 1.47533 0.642098 0
M  V30 4318 O 465.771 1.69785 0.500193 0
M  V30 4319 C 462.9 3.36626 0.673612 0
M  V30 4320 C 461.986 4.23802 -0.159008 0
M  V30 4321 N 462.377 4.90879 -1.2195 0
M  V30 4322 C 460.675 4.45959 0.0602005 0
M  V30 4323 C 461.376 5.5546 -1.72738 0
M  V30 4324 N 460.352 5.33663 -1.03465 0
M  V30 4325 H 464.154 2.76632 -0.992582 0
M  V30 4326 H 461.668 1.49166 -0.642127 0
M  V30 4327 H 463.665 4.01179 1.13408 0
M  V30 4328 H 462.325 2.88828 1.48353 0
M  V30 4329 H 463.336 4.92497 -1.60209 0
M  V30 4330 H 460.013 4.08969 0.839664 0
M  V30 4331 H 461.403 6.18991 -2.61342 0
M  V30 4332 N 464.123 0.554532 1.47522 0
M  V30 4333 C 465.534 0.120446 1.86311 0
M  V30 4334 C 465.885 -1.30904 1.46145 0
M  V30 4335 O 465.01 -1.98434 0.863294 0
M  V30 4336 C 465.605 0.211808 3.38137 0
M  V30 4337 C 464.164 -0.167224 3.76028 0
M  V30 4338 C 463.311 0.560576 2.71575 0
M  V30 4339 H 466.262 0.764408 1.39077 0
M  V30 4340 H 466.283 -0.570275 3.76202 0
M  V30 4341 H 465.795 1.25232 3.6734 0
M  V30 4342 H 463.896 -1.20894 3.52442 0
M  V30 4343 H 464.009 0.189473 4.78725 0
M  V30 4344 H 462.373 0.00396836 2.547 0
M  V30 4345 H 463.156 1.60219 3.0362 0
M  V30 4346 N 465.601 -1.54893 0.290851 0
M  V30 4347 C 466.847 -2.0023 -0.321867 0
M  V30 4348 C 467.18 -1.179 -1.54316 0
M  V30 4349 O 466.455 -0.25293 -1.92848 0
M  V30 4350 C 466.738 -3.53456 -0.688515 0
M  V30 4351 C 466.591 -4.46532 0.541209 0
M  V30 4352 C 467.91 -4.13057 -1.51895 0
M  V30 4353 H 465.029 -0.727891 -0.115515 0
M  V30 4354 H 467.671 -1.85722 0.400931 0
M  V30 4355 H 465.821 -3.6595 -1.30433 0
M  V30 4356 H 467.493 -4.4596 1.17973 0
M  V30 4357 H 465.736 -4.17545 1.17636 0
M  V30 4358 H 466.407 -5.51475 0.240675 0
M  V30 4359 H 468.883 -4.03937 -0.99872 0
M  V30 4360 H 467.759 -5.20448 -1.74429 0
M  V30 4361 H 468.02 -3.64284 -2.50498 0
M  V30 4362 N 467.08 -0.0183926 -1.57589 0
M  V30 4363 C 467.99 0.982943 -2.13015 0
M  V30 4364 C 469.006 1.36443 -1.07979 0
M  V30 4365 O 470.182 1.44802 -1.3998 0
M  V30 4366 C 467.247 2.25024 -2.63752 0
M  V30 4367 C 466.308 1.93018 -3.83461 0
M  V30 4368 C 465.541 3.13706 -4.31769 0
M  V30 4369 O 465.764 4.2601 -3.79305 0
M  V30 4370 O 464.698 2.96629 -5.23732 0
M  V30 4371 H 468.524 0.541709 -2.9883 0
M  V30 4372 H 466.109 0.201565 -1.48034 0
M  V30 4373 H 467.991 2.99441 -2.96502 0
M  V30 4374 H 466.666 2.68349 -1.81026 0
M  V30 4375 H 465.573 1.16019 -3.55655 0
M  V30 4376 H 466.906 1.54516 -4.67317 0
M  V30 4377 N 468.558 1.5553 0.254621 0
M  V30 4378 C 469.521 1.88872 1.29846 0
M  V30 4379 C 470.521 0.764591 1.41459 0
M  V30 4380 O 471.711 1.03265 1.40293 0
M  V30 4381 C 468.843 2.11032 2.67728 0
M  V30 4382 H 470.036 2.82201 1.01502 0
M  V30 4383 H 467.589 1.48303 0.493556 0
M  V30 4384 H 468.324 1.20146 3.01223 0
M  V30 4385 H 468.109 2.92895 2.60682 0
M  V30 4386 H 469.599 2.38038 3.43115 0
M  V30 4387 N 470.036 -0.519951 1.48776 0
M  V30 4388 C 470.999 -1.60574 1.6355 0
M  V30 4389 C 471.999 -1.52557 0.508234 0
M  V30 4390 O 473.189 -1.56047 0.774262 0
M  V30 4391 C 470.321 -3.00211 1.61512 0
M  V30 4392 H 471.514 -1.4881 2.60376 0
M  V30 4393 H 469.067 -0.742772 1.37523 0
M  V30 4394 H 469.802 -3.17471 0.662009 0
M  V30 4395 H 469.587 -3.07439 2.43359 0
M  V30 4396 H 471.077 -3.79134 1.75064 0
M  V30 4397 N 471.514 -1.37532 -0.769588 0
M  V30 4398 C 472.424 -1.35668 -1.91393 0
M  V30 4399 C 473.44 -0.255954 -1.72107 0
M  V30 4400 O 474.616 -0.491704 -1.95305 0
M  V30 4401 C 471.681 -1.16481 -3.26547 0
M  V30 4402 C 470.742 -2.36212 -3.58472 0
M  V30 4403 C 469.975 -2.17932 -4.87177 0
M  V30 4404 O 470.198 -1.1647 -5.58382 0
M  V30 4405 O 469.132 -3.06167 -5.18214 0
M  V30 4406 H 472.958 -2.32055 -1.95918 0
M  V30 4407 H 470.543 -1.18284 -0.912641 0
M  V30 4408 H 472.425 -1.07778 -4.07384 0
M  V30 4409 H 471.1 -0.231687 -3.2287 0
M  V30 4410 H 470.007 -2.50488 -2.77861 0
M  V30 4411 H 471.34 -3.281 -3.66894 0
M  V30 4412 N 472.992 0.995999 -1.22138 0
M  V30 4413 C 474.408 1.25917 -0.980667 0
M  V30 4414 C 474.608 1.98819 0.327604 0
M  V30 4415 O 473.664 2.29587 1.05101 0
M  V30 4416 C 474.977 2.07399 -2.17729 0
M  V30 4417 C 476.525 2.20594 -2.22052 0
M  V30 4418 C 477 3.05462 -3.41258 0
M  V30 4419 N 478.491 3.13049 -3.41401 0
M  V30 4420 C 479.226 3.78997 -4.30289 0
M  V30 4421 N 478.722 4.46899 -5.2939 0
M  V30 4422 N 480.515 3.75728 -4.18073 0
M  V30 4423 H 472.666 0.507158 -2.06256 0
M  V30 4424 H 474.929 0.28658 -0.903646 0
M  V30 4425 H 474.635 1.61191 -3.12586 0
M  V30 4426 H 474.509 3.08154 -2.17534 0
M  V30 4427 H 476.896 2.66017 -1.27745 0
M  V30 4428 H 476.977 1.1928 -2.26287 0
M  V30 4429 H 476.621 2.60739 -4.35864 0
M  V30 4430 H 476.551 4.06911 -3.34262 0
M  V30 4431 H 479.042 2.64721 -2.69688 0
M  V30 4432 H 479.355 4.94952 -5.935 0
M  V30 4433 H 477.7 4.45657 -5.33306 0
M  V30 4434 H 480.891 3.2184 -3.39907 0
M  V30 4435 H 481.064 4.26845 -4.87553 0
M  V30 4436 N 474.47 1.03057 1.19235 0
M  V30 4437 C 475.418 0.606391 2.24557 0
M  V30 4438 C 476.412 -0.361826 1.65491 0
M  V30 4439 O 477.618 -0.23022 1.78522 0
M  V30 4440 H 473.993 0.177838 0.730669 0
M  V30 4441 H 475.964 1.50529 2.5765 0
M  V30 4442 C 474.713 -0.0252127 3.47691 0
M  V30 4443 H 474.036 0.710838 3.9343 0
M  V30 4444 H 475.476 -0.284931 4.23042 0
M  V30 4445 C 473.935 -1.27229 3.11953 0
M  V30 4446 O 474.465 -2.36416 3.24762 0
M  V30 4447 N 472.671 -1.16169 2.6637 0
M  V30 4448 H 472.218 -0.273189 2.56147 0
M  V30 4449 H 472.176 -1.99703 2.42829 0
M  V30 4450 N 475.948 -1.35272 0.808662 0
M  V30 4451 C 477.178 -2.02652 0.401953 0
M  V30 4452 C 477.586 -1.6108 -0.992462 0
M  V30 4453 O 476.929 -0.804984 -1.65123 0
M  V30 4454 C 476.991 -3.57174 0.408246 0
M  V30 4455 C 476.655 -4.22019 1.75353 0
M  V30 4456 C 477.652 -4.43552 2.71215 0
M  V30 4457 C 475.337 -4.59093 2.03811 0
M  V30 4458 C 477.331 -5.01264 3.93717 0
M  V30 4459 C 475.018 -5.16519 3.26576 0
M  V30 4460 C 476.016 -5.37546 4.21347 0
M  V30 4461 O 475.704 -5.93761 5.41944 0
M  V30 4462 H 475.436 -0.656495 0.161216 0
M  V30 4463 H 477.99 -1.73829 1.0942 0
M  V30 4464 H 476.22 -3.85197 -0.340608 0
M  V30 4465 H 477.909 -4.05893 0.0235623 0
M  V30 4466 H 478.675 -4.15288 2.50522 0
M  V30 4467 H 474.554 -4.42039 1.30854 0
M  V30 4468 H 478.098 -5.17592 4.67701 0
M  V30 4469 H 473.995 -5.4421 3.47139 0
M  V30 4470 H 474.763 -6.1221 5.43269 0
M  V30 4471 N 477.426 -0.562348 -1.47226 0
M  V30 4472 C 478.336 0.185466 -2.33866 0
M  V30 4473 C 479.352 0.906713 -1.48508 0
M  V30 4474 O 480.528 0.874458 -1.81425 0
M  V30 4475 C 477.593 1.19904 -3.25306 0
M  V30 4476 C 476.654 0.484669 -4.26555 0
M  V30 4477 C 475.887 1.44996 -5.13626 0
M  V30 4478 O 476.11 2.68515 -5.03245 0
M  V30 4479 O 475.044 0.971642 -5.94006 0
M  V30 4480 H 478.87 -0.525361 -2.99121 0
M  V30 4481 H 476.455 -0.322916 -1.45868 0
M  V30 4482 H 478.337 1.78399 -3.81774 0
M  V30 4483 H 477.012 1.8917 -2.62672 0
M  V30 4484 H 475.919 -0.141605 -3.73832 0
M  V30 4485 H 477.252 -0.166634 -4.91918 0
M  V30 4486 N 478.904 1.54736 -0.299062 0
M  V30 4487 C 480.32 1.59507 0.0543849 0
M  V30 4488 C 480.52 1.31606 1.52585 0
M  V30 4489 O 479.576 1.08853 2.27832 0
M  V30 4490 C 480.889 2.98751 -0.34181 0
M  V30 4491 C 482.437 3.1165 -0.290414 0
M  V30 4492 C 482.912 4.53199 -0.661402 0
M  V30 4493 N 484.403 4.59114 -0.613863 0
M  V30 4494 C 485.138 5.66709 -0.873417 0
M  V30 4495 N 484.634 6.82349 -1.19884 0
M  V30 4496 N 486.427 5.56369 -0.800608 0
M  V30 4497 H 478.578 1.71133 -1.25806 0
M  V30 4498 H 480.841 0.799186 -0.509908 0
M  V30 4499 H 480.547 3.24085 -1.36608 0
M  V30 4500 H 480.421 3.75961 0.305508 0
M  V30 4501 H 482.808 2.86066 0.724605 0
M  V30 4502 H 482.889 2.366 -0.972327 0
M  V30 4503 H 482.533 4.79513 -1.67422 0
M  V30 4504 H 482.463 5.26583 0.0425612 0
M  V30 4505 H 484.954 3.76053 -0.3732 0
M  V30 4506 H 485.267 7.60326 -1.38291 0
M  V30 4507 H 483.612 6.83906 -1.23685 0
M  V30 4508 H 486.803 4.64904 -0.546045 0
M  V30 4509 H 486.976 6.40139 -1.00626 0
M  V30 4510 N 480.382 0.0267497 1.57577 0
M  V30 4511 C 481.345 -0.940916 2.08996 0
M  V30 4512 C 482.345 -1.25561 1.00455 0
M  V30 4513 O 483.535 -1.19634 1.26623 0
M  V30 4514 C 480.667 -2.25814 2.55384 0
M  V30 4515 H 481.86 -0.495628 2.95776 0
M  V30 4516 H 479.413 -0.221241 1.54726 0
M  V30 4517 H 480.148 -2.74976 1.71926 0
M  V30 4518 H 479.933 -2.04285 3.34679 0
M  V30 4519 H 481.423 -2.95178 2.95398 0
M  V30 4520 N 481.861 -1.55662 -0.24637 0
M  V30 4521 C 483.277 -1.48098 -0.594907 0
M  V30 4522 C 483.477 -0.717044 -1.8831 0
M  V30 4523 O 482.533 -0.246618 -2.51293 0
M  V30 4524 C 483.846 -2.92507 -0.697146 0
M  V30 4525 C 485.394 -3.02881 -0.789436 0
M  V30 4526 C 485.869 -4.48598 -0.923232 0
M  V30 4527 N 487.36 -4.52538 -0.988088 0
M  V30 4528 C 488.095 -5.62536 -1.11089 0
M  V30 4529 N 487.591 -6.82342 -1.19919 0
M  V30 4530 N 489.384 -5.50334 -1.14408 0
M  V30 4531 H 481.535 -2.0377 0.599278 0
M  V30 4532 H 483.798 -0.925145 0.20691 0
M  V30 4533 H 483.504 -3.51242 0.179396 0
M  V30 4534 H 483.378 -3.43024 -1.5689 0
M  V30 4535 H 485.765 -2.44226 -1.65643 0
M  V30 4536 H 485.846 -2.55574 0.107482 0
M  V30 4537 H 485.49 -5.07864 -0.0607927 0
M  V30 4538 H 485.42 -4.93587 -1.8352 0
M  V30 4539 H 487.911 -3.66248 -0.931167 0
M  V30 4540 H 488.224 -7.61924 -1.29197 0
M  V30 4541 H 486.569 -6.85102 -1.16876 0
M  V30 4542 H 489.76 -4.5567 -1.07158 0
M  V30 4543 H 489.933 -6.36096 -1.23634 0
M  V30 4544 N 483.339 0.512053 -1.4905 0
M  V30 4545 C 484.302 1.59704 -1.64399 0
M  V30 4546 C 485.302 1.52285 -0.516317 0
M  V30 4547 O 486.492 1.55635 -0.782527 0
M  V30 4548 C 483.624 2.9935 -1.63102 0
M  V30 4549 H 484.817 1.47428 -2.61161 0
M  V30 4550 H 482.37 0.735469 -1.37915 0
M  V30 4551 H 483.105 3.17116 -0.678836 0
M  V30 4552 H 482.89 3.06144 -2.44986 0
M  V30 4553 H 484.38 3.782 -1.77072 0
M  V30 4554 N 484.817 1.37938 0.762283 0
M  V30 4555 C 485.727 1.36681 1.90671 0
M  V30 4556 C 486.743 0.265078 1.71969 0
M  V30 4557 O 487.919 0.502055 1.95042 0
M  V30 4558 C 484.984 1.18211 3.25925 0
M  V30 4559 C 484.045 2.3811 3.57214 0
M  V30 4560 C 483.278 2.20512 4.86014 0
M  V30 4561 O 483.501 1.19429 5.57757 0
M  V30 4562 O 482.435 3.08911 5.16583 0
M  V30 4563 H 486.261 2.33091 1.94685 0
M  V30 4564 H 483.846 1.18767 0.906356 0
M  V30 4565 H 485.728 1.09937 4.06807 0
M  V30 4566 H 484.403 0.248807 3.22742 0
M  V30 4567 H 483.31 2.51958 2.76529 0
M  V30 4568 H 484.643 3.30041 3.65149 0
M  V30 4569 N 486.295 -0.989507 1.22664 0
M  V30 4570 C 487.225 -2.09847 1.02404 0
M  V30 4571 C 488.206 -1.70007 -0.0561303 0
M  V30 4572 O 489.391 -1.93906 0.106748 0
M  V30 4573 C 486.521 -3.41996 0.604663 0
M  V30 4574 C 485.475 -3.95699 1.63115 0
M  V30 4575 C 484.801 -5.23936 1.0675 0
M  V30 4576 C 486.101 -4.25999 3.02196 0
M  V30 4577 H 487.795 -2.27054 1.95158 0
M  V30 4578 H 485.341 -1.09111 0.939727 0
M  V30 4579 H 487.294 -4.1899 0.45002 0
M  V30 4580 H 486.018 -3.24626 -0.35855 0
M  V30 4581 H 484.677 -3.2084 1.77362 0
M  V30 4582 H 484.325 -5.02909 0.0955422 0
M  V30 4583 H 484.025 -5.60833 1.75328 0
M  V30 4584 H 485.549 -6.0356 0.924516 0
M  V30 4585 H 486.963 -4.93777 2.91303 0
M  V30 4586 H 485.36 -4.74076 3.67929 0
M  V30 4587 H 486.43 -3.33636 3.51873 0
M  V30 4588 N 487.773 -1.03688 -1.18687 0
M  V30 4589 C 488.721 -0.618292 -2.24232 0
M  V30 4590 C 489.715 0.353045 -1.6568 0
M  V30 4591 O 490.921 0.220749 -1.78641 0
M  V30 4592 H 487.296 -0.181711 -0.729716 0
M  V30 4593 H 489.267 -1.51893 -2.56848 0
M  V30 4594 C 488.016 0.00677342 -3.47699 0
M  V30 4595 H 487.339 -0.731692 -3.93047 0
M  V30 4596 H 488.779 0.262492 -4.23187 0
M  V30 4597 C 487.238 1.25572 -3.12623 0
M  V30 4598 O 487.768 2.34691 -3.26011 0
M  V30 4599 N 485.974 1.14755 -2.66982 0
M  V30 4600 H 485.521 0.259601 -2.56289 0
M  V30 4601 H 485.479 1.98412 -2.43885 0
M  V30 4602 N 489.251 1.34841 -0.815825 0
M  V30 4603 C 490.183 2.28409 -0.190265 0
M  V30 4604 C 491.196 1.50705 0.615771 0
M  V30 4605 O 492.385 1.72822 0.446616 0
M  V30 4606 C 489.485 3.30441 0.752446 0
M  V30 4607 C 488.658 4.37399 -0.00922152 0
M  V30 4608 C 487.717 5.19234 0.853351 0
M  V30 4609 O 486.743 5.68404 0.300919 0
M  V30 4610 N 487.945 5.38248 2.17416 0
M  V30 4611 H 490.71 2.82732 -0.994114 0
M  V30 4612 H 488.271 1.47289 -0.672129 0
M  V30 4613 H 490.263 3.82084 1.33394 0
M  V30 4614 H 488.833 2.76565 1.45707 0
M  V30 4615 H 488.053 3.86567 -0.771979 0
M  V30 4616 H 489.341 5.05992 -0.533807 0
M  V30 4617 H 488.739 4.99961 2.6468 0
M  V30 4618 H 487.296 5.93035 2.70467 0
M  V30 4619 N 490.729 0.570148 1.46925 0
M  V30 4620 C 491.692 -0.159933 2.28641 0
M  V30 4621 C 492.692 -0.830638 1.37685 0
M  V30 4622 O 493.882 -0.684516 1.60187 0
M  V30 4623 C 491.014 -1.2354 3.17727 0
M  V30 4624 H 492.207 0.558035 2.94662 0
M  V30 4625 H 489.76 0.327603 1.52828 0
M  V30 4626 H 490.495 -1.98535 2.56426 0
M  V30 4627 H 490.28 -0.759125 3.84681 0
M  V30 4628 H 491.77 -1.74782 3.79264 0
M  V30 4629 N 492.207 -1.54576 0.307264 0
M  V30 4630 C 493.155 -2.25208 -0.581723 0
M  V30 4631 C 494.149 -1.26031 -1.13192 0
M  V30 4632 O 495.355 -1.43862 -1.08184 0
M  V30 4633 H 491.73 -0.723173 -0.206214 0
M  V30 4634 H 493.701 -2.98378 0.0364663 0
M  V30 4635 C 492.45 -3.01086 -1.73904 0
M  V30 4636 H 491.773 -3.77208 -1.32491 0
M  V30 4637 H 493.213 -3.5378 -2.33701 0
M  V30 4638 C 491.672 -2.08422 -2.64692 0
M  V30 4639 O 492.202 -1.65636 -3.65961 0
M  V30 4640 N 490.408 -1.74247 -2.32564 0
M  V30 4641 H 489.955 -2.09238 -1.50257 0
M  V30 4642 H 489.913 -1.12524 -2.93574 0
M  V30 4643 N 493.685 -0.035106 -1.57561 0
M  V30 4644 C 494.595 0.960295 -2.14046 0
M  V30 4645 C 495.611 1.3529 -1.0942 0
M  V30 4646 O 496.787 1.43309 -1.41508 0
M  V30 4647 C 493.852 2.22214 -2.66124 0
M  V30 4648 C 492.913 1.8894 -3.85487 0
M  V30 4649 C 492.146 3.09109 -4.35072 0
M  V30 4650 O 492.369 4.21963 -3.83802 0
M  V30 4651 O 491.303 2.91058 -5.26848 0
M  V30 4652 H 495.129 0.509983 -2.99387 0
M  V30 4653 H 492.714 0.185853 -1.48239 0
M  V30 4654 H 494.596 2.96279 -2.99661 0
M  V30 4655 H 493.271 2.66414 -1.83862 0
M  V30 4656 H 492.178 1.12241 -3.56865 0
M  V30 4657 H 493.511 1.49551 -4.6893 0
M  V30 4658 N 495.163 1.55791 0.238111 0
M  V30 4659 C 496.44 1.68798 0.98826 0
M  V30 4660 C 496.82 0.577562 2.03045 0
M  V30 4661 O 496.168 -0.41778 2.24648 0
M  V30 4662 C 496.378 3.09454 1.61367 0
M  V30 4663 C 497.726 3.68335 2.11221 0
M  V30 4664 O 498.75 3.1231 1.71292 0
M  V30 4665 O 497.609 4.6657 2.84561 0
M  V30 4666 H 494.703 0.686881 0.460568 0
M  V30 4667 H 497.249 1.68118 0.231202 0
M  V30 4668 H 496.021 3.81726 0.860295 0
M  V30 4669 H 495.644 3.14182 2.4367 0
M  V30 4670 N 496.642 -0.504142 1.49319 0
M  V30 4671 C 497.888 -1.26033 1.58882 0
M  V30 4672 C 498.221 -1.92268 0.273274 0
M  V30 4673 O 497.496 -1.80567 -0.72291 0
M  V30 4674 C 497.779 -2.32976 2.7458 0
M  V30 4675 C 497.632 -1.71263 4.1592 0
M  V30 4676 C 498.951 -3.34561 2.85932 0
M  V30 4677 H 496.07 -0.456863 0.578312 0
M  V30 4678 H 498.712 -0.558965 1.81592 0
M  V30 4679 H 496.862 -2.92796 2.55348 0
M  V30 4680 H 498.534 -1.15294 4.4666 0
M  V30 4681 H 496.777 -1.01686 4.21714 0
M  V30 4682 H 497.448 -2.48816 4.92742 0
M  V30 4683 H 499.924 -2.84727 3.0343 0
M  V30 4684 H 498.8 -4.06754 3.68568 0
M  V30 4685 H 499.061 -3.96695 1.95154 0
M  V30 4686 N 498.12 -1.38341 -0.754957 0
M  V30 4687 C 499.083 -1.35262 -1.85032 0
M  V30 4688 C 500.083 -0.253393 -1.58791 0
M  V30 4689 O 501.273 -0.510205 -1.66561 0
M  V30 4690 C 498.405 -1.10544 -3.22479 0
M  V30 4691 H 499.598 -2.32712 -1.8917 0
M  V30 4692 H 497.151 -1.23614 -0.956515 0
M  V30 4693 H 497.886 -0.136952 -3.24011 0
M  V30 4694 H 497.671 -1.90127 -3.4292 0
M  V30 4695 H 499.161 -1.11082 -4.02555 0
M  V30 4696 N 499.598 0.982988 -1.23187 0
M  V30 4697 C 501.014 1.2487 -0.993967 0
M  V30 4698 C 501.214 1.99155 0.306498 0
M  V30 4699 O 500.27 2.30688 1.0266 0
M  V30 4700 C 501.583 2.05078 -2.19917 0
M  V30 4701 C 503.131 2.18227 -2.2438 0
M  V30 4702 C 503.606 3.01825 -3.44479 0
M  V30 4703 N 505.097 3.09411 -3.44702 0
M  V30 4704 C 505.832 3.74412 -4.34285 0
M  V30 4705 N 505.328 4.41259 -5.341 0
M  V30 4706 N 507.121 3.71273 -4.22035 0
M  V30 4707 H 499.272 0.485253 -2.06783 0
M  V30 4708 H 501.535 0.276979 -0.906635 0
M  V30 4709 H 501.241 1.57867 -3.14279 0
M  V30 4710 H 501.115 3.05829 -2.2079 0
M  V30 4711 H 503.502 2.64648 -1.30559 0
M  V30 4712 H 503.583 1.16873 -2.2754 0
M  V30 4713 H 503.227 2.56102 -4.38605 0
M  V30 4714 H 503.157 4.03342 -3.38559 0
M  V30 4715 H 505.648 2.61845 -2.7248 0
M  V30 4716 H 505.961 4.88629 -5.98717 0
M  V30 4717 H 504.306 4.39975 -5.38002 0
M  V30 4718 H 507.497 3.18217 -3.43301 0
M  V30 4719 H 507.67 4.21649 -4.92053 0
M  V30 4720 N 501.076 1.04316 1.18135 0
M  V30 4721 C 502.024 0.630175 2.23901 0
M  V30 4722 C 503.018 -0.344254 1.65865 0
M  V30 4723 O 504.224 -0.211273 1.78756 0
M  V30 4724 H 500.599 0.185578 0.728742 0
M  V30 4725 H 502.57 1.53253 2.56039 0
M  V30 4726 C 501.319 0.011666 3.47698 0
M  V30 4727 H 500.642 0.752526 3.92654 0
M  V30 4728 H 502.082 -0.240046 4.2332 0
M  V30 4729 C 500.541 -1.23913 3.13285 0
M  V30 4730 O 501.071 -2.32959 3.27251 0
M  V30 4731 N 499.277 -1.13338 2.67587 0
M  V30 4732 H 498.824 -0.246006 2.56423 0
M  V30 4733 H 498.782 -1.97116 2.44934 0
M  V30 4734 N 502.554 -1.34406 0.822964 0
M  V30 4735 C 503.486 -2.28305 0.202375 0
M  V30 4736 C 504.499 -1.5103 -0.60777 0
M  V30 4737 O 505.688 -1.73057 -0.437444 0
M  V30 4738 C 502.788 -3.30836 -0.734911 0
M  V30 4739 C 501.961 -4.37388 0.0324177 0
M  V30 4740 C 501.02 -5.1968 -0.825803 0
M  V30 4741 O 500.046 -5.68556 -0.270771 0
M  V30 4742 N 501.248 -5.39393 -2.14558 0
M  V30 4743 H 504.013 -2.82201 1.00909 0
M  V30 4744 H 501.574 -1.4693 0.67993 0
M  V30 4745 H 503.566 -3.82786 -1.31365 0
M  V30 4746 H 502.136 -2.77334 -1.44238 0
M  V30 4747 H 501.356 -3.86152 0.792469 0
M  V30 4748 H 502.644 -5.05702 0.560633 0
M  V30 4749 H 502.042 -5.01357 -2.62025 0
M  V30 4750 H 500.599 -5.94461 -2.67318 0
M  V30 4751 N 504.032 -0.577932 -1.46621 0
M  V30 4752 C 504.942 0.160651 -2.34049 0
M  V30 4753 C 505.958 0.890911 -1.49462 0
M  V30 4754 O 507.134 0.855166 -1.82343 0
M  V30 4755 C 504.199 1.16447 -3.26559 0
M  V30 4756 C 503.26 0.4394 -4.27045 0
M  V30 4757 C 502.493 1.3954 -5.15135 0
M  V30 4758 O 502.716 2.63162 -5.06065 0
M  V30 4759 O 501.65 0.908585 -5.95003 0
M  V30 4760 H 505.476 -0.557057 -2.98547 0
M  V30 4761 H 503.061 -0.338369 -1.45518 0
M  V30 4762 H 504.943 1.7434 -3.83645 0
M  V30 4763 H 503.618 1.86373 -2.64663 0
M  V30 4764 H 502.525 -0.181247 -3.73661 0
M  V30 4765 H 503.858 -0.218799 -4.91713 0
M  V30 4766 N 505.51 1.54411 -0.315457 0
M  V30 4767 C 506.926 1.59556 0.037464 0
M  V30 4768 C 507.126 1.33217 1.5118 0
M  V30 4769 O 506.182 1.11264 2.26664 0
M  V30 4770 C 507.495 2.98372 -0.373477 0
M  V30 4771 C 509.043 3.11324 -0.323452 0
M  V30 4772 C 509.518 4.52472 -0.709433 0
M  V30 4773 N 511.009 4.58437 -0.662524 0
M  V30 4774 C 511.744 5.65751 -0.933474 0
M  V30 4775 N 511.24 6.81039 -1.27114 0
M  V30 4776 N 513.033 5.55489 -0.859573 0
M  V30 4777 H 505.184 1.6979 -1.27614 0
M  V30 4778 H 507.447 0.793732 -0.518356 0
M  V30 4779 H 507.153 3.22618 -1.40037 0
M  V30 4780 H 507.027 3.76264 0.265615 0
M  V30 4781 H 509.414 2.86818 0.694223 0
M  V30 4782 H 509.495 2.35555 -0.997367 0
M  V30 4783 H 509.139 4.7771 -1.72498 0
M  V30 4784 H 509.069 5.26598 -0.0132923 0
M  V30 4785 H 511.56 3.75636 -0.413065 0
M  V30 4786 H 511.873 7.58816 -1.46348 0
M  V30 4787 H 510.218 6.82555 -1.30932 0
M  V30 4788 H 513.409 4.64299 -0.595324 0
M  V30 4789 H 513.582 6.39036 -1.0741 0
M  V30 4790 N 506.988 0.0434614 1.5754 0
M  V30 4791 C 507.92 -0.962586 2.08007 0
M  V30 4792 C 508.933 -1.27972 1.00634 0
M  V30 4793 O 510.122 -1.24186 1.28219 0
M  V30 4794 C 507.222 -2.28621 2.50171 0
M  V30 4795 C 506.395 -2.15214 3.80791 0
M  V30 4796 C 505.454 -3.30633 4.09351 0
M  V30 4797 O 504.48 -3.0688 4.79388 0
M  V30 4798 N 505.682 -4.54873 3.60654 0
M  V30 4799 H 508.447 -0.531891 2.94942 0
M  V30 4800 H 506.008 -0.142965 1.61268 0
M  V30 4801 H 508 -3.04689 2.66359 0
M  V30 4802 H 506.57 -2.63283 1.68525 0
M  V30 4803 H 505.79 -1.23785 3.74261 0
M  V30 4804 H 507.078 -2.03475 4.66343 0
M  V30 4805 H 506.476 -4.77063 3.04019 0
M  V30 4806 H 505.033 -5.2806 3.82094 0
M  V30 4807 N 508.466 -1.55915 -0.229846 0
M  V30 4808 C 509.429 -1.90914 -1.26824 0
M  V30 4809 C 510.429 -0.786999 -1.40225 0
M  V30 4810 O 511.619 -1.05484 -1.38632 0
M  V30 4811 C 508.751 -2.15264 -2.64337 0
M  V30 4812 H 509.944 -2.8378 -0.969998 0
M  V30 4813 H 507.497 -1.49069 -0.4699 0
M  V30 4814 H 508.232 -1.24923 -2.99274 0
M  V30 4815 H 508.017 -2.97005 -2.55989 0
M  V30 4816 H 509.507 -2.43467 -3.39284 0
M  V30 4817 N 509.944 0.496216 -1.49584 0
M  V30 4818 C 510.891 1.59722 -1.66606 0
M  V30 4819 C 511.861 1.58158 -0.507477 0
M  V30 4820 O 513.046 1.76072 -0.735076 0
M  V30 4821 C 510.186 2.97844 -1.74308 0
M  V30 4822 C 509.299 3.09388 -3.01502 0
M  V30 4823 C 508.434 4.38271 -3.00153 0
M  V30 4824 C 507.473 4.43466 -4.21906 0
M  V30 4825 N 506.61 5.63784 -4.1844 0
M  V30 4826 H 511.45 1.44515 -2.60613 0
M  V30 4827 H 508.987 0.703048 -1.29212 0
M  V30 4828 H 510.945 3.77907 -1.76754 0
M  V30 4829 H 509.575 3.11743 -0.837619 0
M  V30 4830 H 508.627 2.22357 -3.08645 0
M  V30 4831 H 509.939 3.09085 -3.91494 0
M  V30 4832 H 509.093 5.2666 -3.01188 0
M  V30 4833 H 507.832 4.41146 -2.07947 0
M  V30 4834 H 506.837 3.53478 -4.21109 0
M  V30 4835 H 508.062 4.42303 -5.1531 0
M  V30 4836 H 506.008 5.67491 -3.29074 0
M  V30 4837 H 505.925 5.65118 -5.02173 0
M  V30 4838 H 507.193 6.54367 -4.23585 0
M  V30 4839 N 511.423 1.38739 0.74761 0
M  V30 4840 C 512.386 1.36241 1.84312 0
M  V30 4841 C 513.386 0.261811 1.58654 0
M  V30 4842 O 514.576 0.519031 1.66288 0
M  V30 4843 C 511.708 1.12253 3.21888 0
M  V30 4844 H 512.901 2.33712 1.87933 0
M  V30 4845 H 510.454 1.2412 0.949946 0
M  V30 4846 H 511.189 0.154133 3.23934 0
M  V30 4847 H 510.974 1.91943 3.41907 0
M  V30 4848 H 512.464 1.13215 4.0196 0
M  V30 4849 N 512.901 -0.976442 1.23707 0
M  V30 4850 C 514.147 -1.72081 1.07312 0
M  V30 4851 C 514.48 -1.90275 -0.388476 0
M  V30 4852 O 513.755 -1.4579 -1.28746 0
M  V30 4853 C 514.038 -3.11675 1.80363 0
M  V30 4854 C 513.891 -3.01027 3.3422 0
M  V30 4855 C 515.21 -4.1117 1.5693 0
M  V30 4856 H 512.329 -0.624583 0.391236 0
M  V30 4857 H 514.971 -1.13649 1.52263 0
M  V30 4858 H 513.121 -3.61559 1.42153 0
M  V30 4859 H 514.793 -2.58637 3.81975 0
M  V30 4860 H 513.036 -2.3744 3.63049 0
M  V30 4861 H 513.707 -3.9988 3.80525 0
M  V30 4862 H 516.183 -3.7011 1.90151 0
M  V30 4863 H 515.059 -5.06928 2.10513 0
M  V30 4864 H 515.32 -4.392 0.505548 0
M  V30 4865 N 514.379 -1.04941 -1.1758 0
M  V30 4866 C 515.311 -0.606174 -2.21039 0
M  V30 4867 C 516.324 0.328763 -1.59446 0
M  V30 4868 O 517.513 0.121895 -1.78083 0
M  V30 4869 C 514.613 0.133294 -3.38638 0
M  V30 4870 C 513.786 -0.811711 -4.29802 0
M  V30 4871 C 512.845 -0.113958 -5.26077 0
M  V30 4872 O 511.871 -0.747237 -5.64274 0
M  V30 4873 N 513.073 1.14953 -5.69004 0
M  V30 4874 H 515.838 -1.49606 -2.59689 0
M  V30 4875 H 513.399 -0.930997 -1.32454 0
M  V30 4876 H 515.391 0.610144 -4.00074 0
M  V30 4877 H 513.961 0.924816 -2.98607 0
M  V30 4878 H 513.181 -1.46824 -3.65837 0
M  V30 4879 H 514.469 -1.45326 -4.87604 0
M  V30 4880 H 513.867 1.68441 -5.40041 0
M  V30 4881 H 512.424 1.57049 -6.32597 0
M  V30 4882 N 515.857 1.33968 -0.830081 0
M  V30 4883 C 517.103 1.98357 -0.422191 0
M  V30 4884 C 517.436 1.65633 1.01387 0
M  V30 4885 O 516.711 0.931648 1.70735 0
M  V30 4886 C 516.994 3.54492 -0.633043 0
M  V30 4887 C 516.847 3.96934 -2.11574 0
M  V30 4888 C 518.166 4.40039 -0.0735584 0
M  V30 4889 H 515.285 0.720544 -0.154871 0
M  V30 4890 H 517.927 1.58749 -1.04397 0
M  V30 4891 H 516.077 3.88361 -0.103775 0
M  V30 4892 H 517.749 3.73363 -2.7092 0
M  V30 4893 H 515.992 3.46984 -2.60354 0
M  V30 4894 H 516.663 5.05651 -2.21406 0
M  V30 4895 H 519.139 4.12764 -0.52585 0
M  V30 4896 H 518.015 5.48327 -0.250841 0
M  V30 4897 H 518.276 4.30124 1.02202 0
M  V30 4898 N 517.335 0.585699 1.46312 0
M  V30 4899 C 518.565 0.0780166 2.06453 0
M  V30 4900 C 518.973 -1.2336 1.43454 0
M  V30 4901 O 518.316 -1.75734 0.535086 0
M  V30 4902 C 518.378 -0.158951 3.59148 0
M  V30 4903 C 518.042 1.06752 4.44357 0
M  V30 4904 C 519.039 1.98031 4.80708 0
M  V30 4905 C 516.724 1.2902 4.85447 0
M  V30 4906 C 518.718 3.09924 5.5698 0
M  V30 4907 C 516.405 2.41218 5.61478 0
M  V30 4908 C 517.403 3.31499 5.97158 0
M  V30 4909 O 517.091 4.41747 6.71651 0
M  V30 4910 H 516.823 0.0558894 0.673686 0
M  V30 4911 H 519.377 0.806994 1.88883 0
M  V30 4912 H 517.607 -0.942575 3.75037 0
M  V30 4913 H 519.296 -0.615513 4.01206 0
M  V30 4914 H 520.062 1.82043 4.49539 0
M  V30 4915 H 515.941 0.596567 4.57124 0
M  V30 4916 H 519.485 3.80415 5.84748 0
M  V30 4917 H 515.382 2.57167 5.9206 0
M  V30 4918 H 516.15 4.40152 6.90079 0
M  V30 4919 N 518.813 -1.54241 0.323641 0
M  V30 4920 C 519.761 -2.25813 -0.557804 0
M  V30 4921 C 520.755 -1.27225 -1.11849 0
M  V30 4922 O 521.961 -1.45001 -1.06652 0
M  V30 4923 H 518.336 -0.72532 -0.198532 0
M  V30 4924 H 520.307 -2.98322 0.0681112 0
M  V30 4925 C 519.056 -3.02913 -1.70701 0
M  V30 4926 H 518.379 -3.78593 -1.28482 0
M  V30 4927 H 519.819 -3.56238 -2.29935 0
M  V30 4928 C 518.278 -2.11217 -2.62467 0
M  V30 4929 O 518.808 -1.69508 -3.64184 0
M  V30 4930 N 517.014 -1.76704 -2.30703 0
M  V30 4931 H 516.561 -2.1082 -1.48029 0
M  V30 4932 H 516.519 -1.15631 -2.92364 0
M  V30 4933 N 520.291 -0.0518155 -1.57515 0
M  V30 4934 C 521.516 0.634896 -1.97443 0
M  V30 4935 C 521.941 1.63546 -0.929207 0
M  V30 4936 O 521.299 1.80981 0.107484 0
M  V30 4937 C 521.347 1.29765 -3.36442 0
M  V30 4938 O 520.451 2.41333 -3.34413 0
M  V30 4939 H 519.792 0.164994 -0.643174 0
M  V30 4940 H 522.322 -0.120407 -2.04245 0
M  V30 4941 H 522.332 1.64918 -3.73184 0
M  V30 4942 H 521.007 0.564361 -4.12053 0
M  V30 4943 H 519.584 2.08122 -3.09418 0
M  V30 4944 N 521.769 1.56035 0.221574 0
M  V30 4945 C 523.185 1.49026 0.571271 0
M  V30 4946 C 523.385 0.746912 1.87146 0
M  V30 4947 O 522.441 0.286566 2.50869 0
M  V30 4948 C 523.754 2.93579 0.650522 0
M  V30 4949 C 525.302 3.04099 0.741151 0
M  V30 4950 C 525.777 4.5001 0.851747 0
M  V30 4951 N 527.268 4.54053 0.915968 0
M  V30 4952 C 528.003 5.64232 1.02125 0
M  V30 4953 N 527.499 6.84164 1.09049 0
M  V30 4954 N 529.292 5.52084 1.05639 0
M  V30 4955 H 521.443 2.02791 -0.63162 0
M  V30 4956 H 523.706 0.921736 -0.221602 0
M  V30 4957 H 523.412 3.50912 -0.235253 0
M  V30 4958 H 523.286 3.45476 1.51413 0
M  V30 4959 H 525.673 2.4683 1.61737 0
M  V30 4960 H 525.754 2.55371 -0.148128 0
M  V30 4961 H 525.398 5.07896 -0.0200117 0
M  V30 4962 H 525.328 4.96444 1.75644 0
M  V30 4963 H 527.819 3.67683 0.872782 0
M  V30 4964 H 528.132 7.63883 1.1706 0
M  V30 4965 H 526.477 6.86875 1.05962 0
M  V30 4966 H 529.668 4.57317 0.998953 0
M  V30 4967 H 529.841 6.37983 1.13498 0
M  V30 4968 N 523.247 -0.488276 1.49845 0
M  V30 4969 C 524.194 -1.58836 1.67451 0
M  V30 4970 C 525.164 -1.57886 0.515857 0
M  V30 4971 O 526.349 -1.75679 0.744403 0
M  V30 4972 C 523.489 -2.96915 1.75885 0
M  V30 4973 C 522.602 -3.07784 3.03138 0
M  V30 4974 C 521.737 -4.36673 3.02473 0
M  V30 4975 C 520.776 -4.41222 4.24252 0
M  V30 4976 N 519.913 -5.61557 4.21424 0
M  V30 4977 H 524.753 -1.43131 2.61376 0
M  V30 4978 H 522.29 -0.696186 1.29583 0
M  V30 4979 H 524.248 -3.76965 1.78755 0
M  V30 4980 H 522.878 -3.11295 0.85414 0
M  V30 4981 H 521.93 -2.20717 3.09819 0
M  V30 4982 H 523.242 -3.07005 3.93128 0
M  V30 4983 H 522.396 -5.25055 3.03977 0
M  V30 4984 H 521.135 -4.40037 2.10283 0
M  V30 4985 H 520.14 -3.5124 4.22978 0
M  V30 4986 H 521.365 -4.39564 5.17649 0
M  V30 4987 H 519.311 -5.65738 3.32078 0
M  V30 4988 H 519.228 -5.62447 5.05163 0
M  V30 4989 H 520.496 -6.52111 4.2705 0
M  V30 4990 N 524.725 -1.39134 -0.740242 0
M  V30 4991 C 525.95 -1.39518 -1.53459 0
M  V30 4992 C 526.375 0.00968883 -1.88098 0
M  V30 4993 O 525.733 0.995312 -1.51536 0
M  V30 4994 C 525.781 -2.26981 -2.802 0
M  V30 4995 O 524.885 -1.69609 -3.75908 0
M  V30 4996 H 524.226 -0.475328 -0.463637 0
M  V30 4997 H 526.756 -1.83064 -0.913717 0
M  V30 4998 H 526.766 -2.41309 -3.28989 0
M  V30 4999 H 525.441 -3.29081 -2.5432 0
M  V30 5000 H 524.018 -1.64495 -3.34658 0
M  V30 5001 N 526.204 0.969867 -1.24223 0
M  V30 5002 C 527.114 2.09806 -1.0497 0
M  V30 5003 C 528.13 1.73998 0.00886455 0
M  V30 5004 O 529.306 2.00513 -0.188848 0
M  V30 5005 C 526.371 3.40467 -0.654452 0
M  V30 5006 C 525.432 3.90236 -1.78926 0
M  V30 5007 C 524.665 5.14662 -1.41277 0
M  V30 5008 O 524.888 5.69602 -0.301632 0
M  V30 5009 O 523.822 5.58761 -2.23763 0
M  V30 5010 H 527.648 2.28942 -1.99548 0
M  V30 5011 H 525.233 1.08197 -1.03023 0
M  V30 5012 H 527.115 4.19039 -0.445452 0
M  V30 5013 H 525.79 3.22636 0.262216 0
M  V30 5014 H 524.697 3.12735 -2.05299 0
M  V30 5015 H 526.03 4.1254 -2.68462 0
M  V30 5016 N 527.682 1.05563 1.17022 0
M  V30 5017 C 528.612 0.681026 2.23348 0
M  V30 5018 C 529.593 -0.322983 1.67005 0
M  V30 5019 O 530.778 -0.199746 1.9317 0
M  V30 5020 C 527.908 0.0589053 3.4725 0
M  V30 5021 C 526.862 0.988082 4.16438 0
M  V30 5022 C 526.188 0.229646 5.34207 0
M  V30 5023 C 527.488 2.31388 4.68249 0
M  V30 5024 H 529.182 1.56993 2.54938 0
M  V30 5025 H 526.728 0.756302 1.2254 0
M  V30 5026 H 528.681 -0.214982 4.20851 0
M  V30 5027 H 527.405 -0.864968 3.14938 0
M  V30 5028 H 526.064 1.24659 3.44754 0
M  V30 5029 H 525.712 -0.697111 4.98146 0
M  V30 5030 H 525.412 0.848815 5.81437 0
M  V30 5031 H 526.936 -0.0368694 6.10589 0
M  V30 5032 H 528.35 2.09964 5.33468 0
M  V30 5033 H 526.747 2.88736 5.26072 0
M  V30 5034 H 527.817 2.94982 3.84855 0
M  V30 5035 N 529.16 -1.33526 0.837174 0
M  V30 5036 C 530.437 -1.92369 0.354065 0
M  V30 5037 C 530.817 -1.76348 -1.16038 0
M  V30 5038 O 530.165 -1.15083 -1.97403 0
M  V30 5039 C 530.375 -3.39728 0.799101 0
M  V30 5040 C 531.723 -4.16877 0.806139 0
M  V30 5041 O 532.747 -3.48373 0.742597 0
M  V30 5042 O 531.606 -5.39166 0.892345 0
M  V30 5043 H 528.7 -0.820952 0.0998378 0
M  V30 5044 H 531.246 -1.42409 0.922913 0
M  V30 5045 H 530.018 -3.45254 1.84162 0
M  V30 5046 H 529.641 -3.97062 0.206731 0
M  V30 5047 N 530.638 -0.59345 -1.46 0
M  V30 5048 C 531.601 0.123538 -2.28867 0
M  V30 5049 C 532.601 0.808628 -1.38989 0
M  V30 5050 O 533.791 0.658945 -1.61256 0
M  V30 5051 C 530.923 1.1847 -3.19653 0
M  V30 5052 H 532.116 -0.604843 -2.93737 0
M  V30 5053 H 529.669 -0.351875 -1.52288 0
M  V30 5054 H 530.404 1.94431 -2.59552 0
M  V30 5055 H 530.189 0.69783 -3.8584 0
M  V30 5056 H 531.679 1.68726 -3.81997 0
M  V30 5057 N 532.116 1.54067 -0.331816 0
M  V30 5058 C 533.079 2.23275 0.517768 0
M  V30 5059 C 534.079 1.22897 1.03697 0
M  V30 5060 O 535.269 1.47419 0.928084 0
M  V30 5061 C 532.401 2.94326 1.72004 0
M  V30 5062 H 533.594 2.99773 -0.0873507 0
M  V30 5063 H 531.147 1.56079 -0.0830042 0
M  V30 5064 H 531.882 2.21986 2.36417 0
M  V30 5065 H 531.667 3.67941 1.35507 0
M  V30 5066 H 533.157 3.47031 2.32291 0
M  V30 5067 N 533.594 0.0601682 1.57485 0
M  V30 5068 C 534.542 -0.928899 2.13247 0
M  V30 5069 C 535.536 -1.31616 1.06647 0
M  V30 5070 O 536.742 -1.29476 1.25043 0
M  V30 5071 H 533.117 -0.317455 0.681708 0
M  V30 5072 H 535.088 -0.433566 2.95233 0
M  V30 5073 C 533.837 -2.19121 2.69965 0
M  V30 5074 H 533.16 -1.90204 3.51657 0
M  V30 5075 H 534.6 -2.86465 3.12592 0
M  V30 5076 C 533.059 -2.94195 1.64168 0
M  V30 5077 O 533.589 -3.87468 1.05978 0
M  V30 5078 N 531.795 -2.57089 1.35476 0
M  V30 5079 H 531.342 -1.81314 1.82984 0
M  V30 5080 H 531.3 -3.07624 0.649196 0
M  V30 5081 N 535.072 -1.5615 -0.213296 0
M  V30 5082 C 536.019 -1.93086 -1.26437 0
M  V30 5083 C 536.989 -0.789086 -1.4616 0
M  V30 5084 O 538.174 -1.04569 -1.59593 0
M  V30 5085 C 535.314 -2.26003 -2.608 0
M  V30 5086 C 534.427 -3.53156 -2.48807 0
M  V30 5087 C 533.562 -3.7548 -3.7575 0
M  V30 5088 C 532.601 -4.96119 -3.58514 0
M  V30 5089 N 531.738 -5.14791 -4.77425 0
M  V30 5090 H 536.578 -2.82707 -0.942376 0
M  V30 5091 H 534.115 -1.39919 -0.454001 0
M  V30 5092 H 536.073 -2.431 -3.39055 0
M  V30 5093 H 534.703 -1.39546 -2.91079 0
M  V30 5094 H 533.755 -3.44207 -1.61944 0
M  V30 5095 H 535.067 -4.41565 -2.31996 0
M  V30 5096 H 534.221 -3.92718 -4.62447 0
M  V30 5097 H 532.96 -2.85368 -3.95495 0
M  V30 5098 H 531.965 -4.78823 -2.70201 0
M  V30 5099 H 533.19 -5.87724 -3.40231 0
M  V30 5100 H 531.136 -4.27623 -4.97468 0
M  V30 5101 H 531.053 -5.97347 -4.63371 0
M  V30 5102 H 532.321 -5.36471 -5.65525 0
M  V30 5103 N 536.55 0.480323 -1.50102 0
M  V30 5104 C 537.778 1.25657 -1.64371 0
M  V30 5105 C 538.193 1.86011 -0.323316 0
M  V30 5106 O 537.55 1.68803 0.693682 0
M  V30 5107 C 537.601 2.37197 -2.728 0
M  V30 5108 O 537.322 1.7932 -3.9972 0
M  V30 5109 C 538.823 3.2823 -2.9796 0
M  V30 5110 H 536.043 0.380369 -0.552775 0
M  V30 5111 H 538.587 0.574379 -1.96268 0
M  V30 5112 H 536.742 3.01208 -2.43623 0
M  V30 5113 H 537.156 2.52701 -4.59611 0
M  V30 5114 H 538.63 4.02725 -3.77513 0
M  V30 5115 H 539.107 3.86462 -2.08671 0
M  V30 5116 H 539.713 2.69964 -3.28633 0
M  V30 5117 N 538.028 1.39524 0.732853 0
M  V30 5118 C 538.958 1.41153 1.86005 0
M  V30 5119 C 539.939 0.274614 1.67869 0
M  V30 5120 O 541.124 0.480745 1.88155 0
M  V30 5121 C 538.254 1.25638 3.23778 0
M  V30 5122 C 537.208 2.36752 3.56556 0
M  V30 5123 C 536.534 2.06326 4.93289 0
M  V30 5124 C 537.834 3.79069 3.5931 0
M  V30 5125 H 539.528 2.35484 1.84899 0
M  V30 5126 H 537.074 1.13348 0.888162 0
M  V30 5127 H 539.027 1.25398 4.0231 0
M  V30 5128 H 537.751 0.277772 3.25417 0
M  V30 5129 H 536.41 2.36213 2.80355 0
M  V30 5130 H 536.058 1.06897 4.9151 0
M  V30 5131 H 535.758 2.80757 5.16187 0
M  V30 5132 H 537.282 2.07739 5.74175 0
M  V30 5133 H 538.696 3.81526 4.27914 0
M  V30 5134 H 537.093 4.52878 3.93728 0
M  V30 5135 H 538.163 4.09893 2.59068 0
M  V30 5136 N 539.506 -0.963266 1.24736 0
M  V30 5137 C 540.469 -2.04013 1.04457 0
M  V30 5138 C 541.469 -1.608 0.000335555 0
M  V30 5139 O 542.659 -1.72515 0.241719 0
M  V30 5140 C 539.791 -3.35858 0.584162 0
M  V30 5141 H 540.984 -2.23436 2.00041 0
M  V30 5142 H 538.537 -1.13914 1.07021 0
M  V30 5143 H 539.272 -3.22128 -0.374673 0
M  V30 5144 H 539.057 -3.68568 1.3379 0
M  V30 5145 H 540.547 -4.1502 0.463451 0
M  V30 5146 N 540.985 -1.06182 -1.16461 0
M  V30 5147 C 542.262 -0.691364 -1.82974 0
M  V30 5148 C 542.642 0.827377 -1.9421 0
M  V30 5149 O 541.99 1.73723 -1.48434 0
M  V30 5150 C 542.2 -1.39199 -3.20038 0
M  V30 5151 C 543.548 -1.53647 -3.95825 0
M  V30 5152 O 544.572 -1.35181 -3.29552 0
M  V30 5153 O 543.431 -1.83932 -5.14618 0
M  V30 5154 H 540.525 -0.244605 -0.789998 0
M  V30 5155 H 543.071 -1.16203 -1.23673 0
M  V30 5156 H 541.843 -2.42766 -3.06888 0
M  V30 5157 H 541.466 -0.911335 -3.87015 0
M  V30 5158 N 542.463 1.3308 -0.844243 0
M  V30 5159 C 543.426 2.27403 -0.286485 0
M  V30 5160 C 544.426 1.51179 0.547872 0
M  V30 5161 O 545.616 1.70421 0.360886 0
M  V30 5162 C 542.748 3.35653 0.595813 0
M  V30 5163 H 543.941 2.78248 -1.11885 0
M  V30 5164 H 541.494 1.43574 -0.617749 0
M  V30 5165 H 542.229 2.90058 1.4504 0
M  V30 5166 H 542.014 3.921 -0.00125994 0
M  V30 5167 H 543.504 4.05958 0.979168 0
M  V30 5168 N 543.941 0.601185 1.45683 0
M  V30 5169 C 545.19 0.0914953 2.01492 0
M  V30 5170 C 545.503 -1.28331 1.47616 0
M  V30 5171 O 546.709 -1.88537 1.95362 0
M  V30 5172 C 545.165 0.11291 3.59723 0
M  V30 5173 C 544.773 1.48717 4.22596 0
M  V30 5174 C 546.517 -0.341871 4.23121 0
M  V30 5175 C 544.424 1.46531 5.7296 0
M  V30 5176 H 543.354 0.0304365 0.753385 0
M  V30 5177 H 546.005 0.755568 1.67223 0
M  V30 5178 H 544.387 -0.617692 3.91153 0
M  V30 5179 H 545.561 2.23897 4.02749 0
M  V30 5180 H 543.876 1.88351 3.71366 0
M  V30 5181 H 546.473 -0.377304 5.33367 0
M  V30 5182 H 546.816 -1.36325 3.93346 0
M  V30 5183 H 547.349 0.335256 3.96385 0
M  V30 5184 H 544.088 2.46408 6.07423 0
M  V30 5185 H 543.608 0.755997 5.95017 0
M  V30 5186 H 545.287 1.18618 6.36034 0
M  V30 5187 N 545.419 -1.53889 0.339982 0
M  V30 5188 C 546.382 -2.23547 -0.50592 0
M  V30 5189 C 547.382 -1.23445 -1.03044 0
M  V30 5190 O 548.572 -1.47909 -0.920253 0
M  V30 5191 C 545.704 -2.95234 -1.7044 0
M  V30 5192 H 546.897 -2.99722 0.103247 0
M  V30 5193 H 544.45 -1.56033 0.0912804 0
M  V30 5194 H 545.185 -2.23236 -2.35236 0
M  V30 5195 H 544.97 -3.68654 -1.33553 0
M  V30 5196 H 546.46 -3.48258 -2.30447 0
M  V30 5197 N 546.897 -0.0685191 -1.57451 0
M  V30 5198 C 547.807 0.914677 -2.16034 0
M  V30 5199 C 548.823 1.32938 -1.12265 0
M  V30 5200 O 549.999 1.40275 -1.44516 0
M  V30 5201 C 547.064 2.16519 -2.70777 0
M  V30 5202 C 546.125 1.80721 -3.89408 0
M  V30 5203 C 545.358 2.9981 -4.41531 0
M  V30 5204 O 545.581 4.13727 -3.92666 0
M  V30 5205 O 544.515 2.79817 -5.32903 0
M  V30 5206 H 548.341 0.446364 -3.00402 0
M  V30 5207 H 545.926 0.154367 -1.486 0
M  V30 5208 H 547.808 2.89856 -3.05878 0
M  V30 5209 H 546.483 2.62454 -1.89471 0
M  V30 5210 H 545.39 1.04646 -3.59166 0
M  V30 5211 H 546.723 1.39571 -4.71997 0
M  V30 5212 N 548.375 1.56261 0.205012 0
M  V30 5213 C 549.624 1.79236 0.925058 0
M  V30 5214 C 549.937 0.640011 1.84833 0
M  V30 5215 O 551.143 0.753809 2.60826 0
M  V30 5216 C 549.599 3.17475 1.69522 0
M  V30 5217 C 549.207 4.40482 0.817269 0
M  V30 5218 C 550.951 3.49766 2.4055 0
M  V30 5219 C 548.858 5.69744 1.58573 0
M  V30 5220 H 547.788 0.668287 0.349153 0
M  V30 5221 H 550.439 1.82629 0.178544 0
M  V30 5222 H 548.821 3.08304 2.48526 0
M  V30 5223 H 549.995 4.60752 0.0665988 0
M  V30 5224 H 548.31 4.15827 0.218316 0
M  V30 5225 H 550.907 4.43573 2.98575 0
M  V30 5226 H 551.25 2.73041 3.14252 0
M  V30 5227 H 551.783 3.60341 1.68522 0
M  V30 5228 H 548.522 6.49407 0.891679 0
M  V30 5229 H 548.042 5.53509 2.31059 0
M  V30 5230 H 549.721 6.1051 2.14212 0
M  V30 5231 N 549.853 -0.472356 1.50355 0
M  V30 5232 C 550.8 -1.57051 1.69126 0
M  V30 5233 C 551.77 -1.5733 0.532574 0
M  V30 5234 O 552.955 -1.7488 0.762994 0
M  V30 5235 C 550.095 -2.95033 1.79024 0
M  V30 5236 C 549.208 -3.04552 3.06386 0
M  V30 5237 C 548.343 -4.33441 3.07087 0
M  V30 5238 C 547.382 -4.36697 4.28908 0
M  V30 5239 N 546.519 -5.57056 4.27356 0
M  V30 5240 H 551.359 -1.40351 2.62879 0
M  V30 5241 H 548.896 -0.682403 1.30314 0
M  V30 5242 H 550.854 -3.75048 1.82744 0
M  V30 5243 H 549.484 -3.10371 0.887109 0
M  V30 5244 H 548.536 -2.17419 3.12143 0
M  V30 5245 H 549.848 -3.02818 3.96362 0
M  V30 5246 H 549.002 -5.21801 3.09529 0
M  V30 5247 H 547.741 -4.37782 2.14939 0
M  V30 5248 H 546.746 -3.46734 4.2668 0
M  V30 5249 H 547.971 -4.34049 5.22282 0
M  V30 5250 H 545.917 -5.62184 3.3806 0
M  V30 5251 H 545.834 -5.57058 5.111 0
M  V30 5252 H 547.102 -6.47545 4.33942 0
M  V30 5253 N 551.331 -1.39911 -0.725443 0
M  V30 5254 C 552.263 -1.35301 -1.85003 0
M  V30 5255 C 553.276 -0.260102 -1.60709 0
M  V30 5256 O 554.465 -0.519749 -1.70766 0
M  V30 5257 C 551.565 -1.08039 -3.21218 0
M  V30 5258 C 550.738 -2.28793 -3.7279 0
M  V30 5259 C 549.797 -1.97841 -4.87591 0
M  V30 5260 O 548.823 -2.70616 -5.00755 0
M  V30 5261 N 550.025 -0.950367 -5.72668 0
M  V30 5262 H 552.79 -2.32218 -1.89459 0
M  V30 5263 H 550.351 -1.34137 -0.90658 0
M  V30 5264 H 552.343 -0.853354 -3.95601 0
M  V30 5265 H 550.913 -0.198229 -3.11971 0
M  V30 5266 H 550.133 -2.67388 -2.8965 0
M  V30 5267 H 551.421 -3.09317 -4.03981 0
M  V30 5268 H 550.819 -0.347436 -5.64632 0
M  V30 5269 H 549.376 -0.783232 -6.47077 0
M  V30 5270 N 552.809 0.956637 -1.25245 0
M  V30 5271 C 554.056 1.701 -1.09874 0
M  V30 5272 C 554.384 1.91128 0.36062 0
M  V30 5273 O 553.639 1.47837 1.28229 0
M  V30 5274 C 553.938 3.08996 -1.79601 0
M  V30 5275 C 553.604 3.07774 -3.29523 0
M  V30 5276 C 552.266 3.07149 -3.70423 0
M  V30 5277 C 554.618 3.01257 -4.25316 0
M  V30 5278 C 551.946 2.97752 -5.0553 0
M  V30 5279 C 554.298 2.93403 -5.60444 0
M  V30 5280 C 552.962 2.91111 -6.00675 0
M  V30 5281 H 552.232 0.62244 -0.402056 0
M  V30 5282 H 554.879 1.1178 -1.55491 0
M  V30 5283 H 553.184 3.70848 -1.26408 0
M  V30 5284 H 554.881 3.65407 -1.65162 0
M  V30 5285 H 551.471 3.09032 -2.9698 0
M  V30 5286 H 555.655 3.00861 -3.9471 0
M  V30 5287 H 550.911 2.94346 -5.35883 0
M  V30 5288 H 555.085 2.87321 -6.34366 0
M  V30 5289 H 552.712 2.83586 -7.05325 0
M  V30 5290 N 554.287 1.06798 1.15896 0
M  V30 5291 C 555.235 0.677525 2.22514 0
M  V30 5292 C 556.229 -0.308994 1.66558 0
M  V30 5293 O 557.435 -0.173308 1.79164 0
M  V30 5294 H 553.81 0.200994 0.724642 0
M  V30 5295 H 555.781 1.5865 2.52731 0
M  V30 5296 C 554.53 0.0854153 3.47595 0
M  V30 5297 H 553.853 0.835645 3.90969 0
M  V30 5298 H 555.293 -0.150199 4.23734 0
M  V30 5299 C 553.752 -1.1724 3.15843 0
M  V30 5300 O 554.282 -2.25965 3.32119 0
M  V30 5301 N 552.488 -1.07636 2.69931 0
M  V30 5302 H 552.035 -0.191559 2.56887 0
M  V30 5303 H 551.993 -1.91876 2.4906 0
M  V30 5304 N 555.766 -1.3263 0.851289 0
M  V30 5305 C 557.182 -1.50162 0.5407 0
M  V30 5306 C 557.382 -1.78788 -0.929369 0
M  V30 5307 O 556.438 -1.85545 -1.71258 0
M  V30 5308 C 557.751 -2.64803 1.42478 0
M  V30 5309 C 559.299 -2.78688 1.42485 0
M  V30 5310 C 559.774 -3.96405 2.29407 0
M  V30 5311 N 561.265 -4.0366 2.27184 0
M  V30 5312 C 562 -4.93971 2.9117 0
M  V30 5313 N 561.496 -5.89313 3.64256 0
M  V30 5314 N 563.289 -4.87066 2.80576 0
M  V30 5315 H 555.44 -1.12315 1.80275 0
M  V30 5316 H 557.703 -0.553266 0.769806 0
M  V30 5317 H 557.409 -2.50368 2.46999 0
M  V30 5318 H 557.283 -3.60506 1.10974 0
M  V30 5319 H 559.67 -2.92547 0.387304 0
M  V30 5320 H 559.751 -1.83708 1.78002 0
M  V30 5321 H 559.395 -3.83304 3.33228 0
M  V30 5322 H 559.325 -4.90654 1.91224 0
M  V30 5323 H 561.816 -3.35435 1.74045 0
M  V30 5324 H 562.129 -6.54913 4.10255 0
M  V30 5325 H 560.474 -5.8935 3.68364 0
M  V30 5326 H 563.665 -4.11552 2.23031 0
M  V30 5327 H 563.838 -5.57248 3.30725 0
M  V30 5328 N 557.244 -0.608902 -1.45362 0
M  V30 5329 C 558.491 -0.104607 -2.0223 0
M  V30 5330 C 558.819 1.26534 -1.47714 0
M  V30 5331 O 558.074 1.84855 -0.642435 0
M  V30 5332 C 558.373 -0.0167296 -3.57396 0
M  V30 5333 C 558.039 -1.32251 -4.31069 0
M  V30 5334 C 556.701 -1.68019 -4.50914 0
M  V30 5335 C 559.053 -2.18542 -4.73169 0
M  V30 5336 C 556.381 -2.89828 -5.10114 0
M  V30 5337 C 558.733 -3.39602 -5.33717 0
M  V30 5338 C 557.397 -3.7562 -5.51784 0
M  V30 5339 H 556.667 -0.0382785 -0.740011 0
M  V30 5340 H 559.314 -0.790782 -1.7441 0
M  V30 5341 H 557.619 0.752715 -3.84502 0
M  V30 5342 H 559.316 0.389634 -3.99103 0
M  V30 5343 H 555.906 -1.03411 -4.15938 0
M  V30 5344 H 560.09 -1.92208 -4.5757 0
M  V30 5345 H 555.346 -3.17839 -5.22291 0
M  V30 5346 H 559.52 -4.06716 -5.65292 0
M  V30 5347 H 557.147 -4.70093 -5.97425 0
M  V30 5348 N 558.722 1.53707 -0.348139 0
M  V30 5349 C 559.685 2.23812 0.494058 0
M  V30 5350 C 560.685 1.23989 1.02388 0
M  V30 5351 O 561.875 1.48395 0.912396 0
M  V30 5352 C 559.007 2.96133 1.68872 0
M  V30 5353 H 560.2 2.99663 -0.119141 0
M  V30 5354 H 557.753 1.55983 -0.0995539 0
M  V30 5355 H 558.488 2.24481 2.34049 0
M  V30 5356 H 558.273 3.69357 1.31596 0
M  V30 5357 H 559.763 3.49475 2.28597 0
M  V30 5358 N 560.2 0.0768682 1.57412 0
M  V30 5359 C 561.15 -0.898795 2.09537 0
M  V30 5360 C 562.134 -1.25556 1.0062 0
M  V30 5361 O 563.326 -1.23369 1.26921 0
M  V30 5362 C 560.455 -2.16453 2.66464 0
M  V30 5363 C 559.541 -1.83401 3.82393 0
M  V30 5364 N 559.932 -1.20823 4.91157 0
M  V30 5365 C 558.23 -2.13121 3.91785 0
M  V30 5366 C 558.931 -1.05976 5.71965 0
M  V30 5367 N 557.907 -1.57113 5.204 0
M  V30 5368 H 561.709 -0.410718 2.91016 0
M  V30 5369 H 559.223 -0.126878 1.61904 0
M  V30 5370 H 561.22 -2.87274 3.02125 0
M  V30 5371 H 559.88 -2.65844 1.86433 0
M  V30 5372 H 560.891 -0.877249 5.10416 0
M  V30 5373 H 557.568 -2.64854 3.22736 0
M  V30 5374 H 558.958 -0.571809 6.69462 0
M  V30 5375 N 561.678 -1.56367 -0.196722 0
M  V30 5376 C 562.955 -1.71359 -0.943159 0
M  V30 5377 C 563.335 -0.631192 -2.01443 0
M  V30 5378 O 562.683 0.358071 -2.25677 0
M  V30 5379 C 562.893 -3.13623 -1.53106 0
M  V30 5380 C 564.241 -3.73806 -2.01381 0
M  V30 5381 O 565.265 -3.16742 -1.62951 0
M  V30 5382 O 564.124 -4.73951 -2.7209 0
M  V30 5383 H 561.218 -0.698851 -0.442195 0
M  V30 5384 H 563.764 -1.68672 -0.186547 0
M  V30 5385 H 562.536 -3.83873 -0.758785 0
M  V30 5386 H 562.159 -3.20532 -2.35255 0
M  V30 5387 N 563.156 0.464375 -1.50603 0
M  V30 5388 C 564.567 1.04507 -1.5471 0
M  V30 5389 C 564.918 1.9297 -0.354542 0
M  V30 5390 O 564.043 2.09763 0.531812 0
M  V30 5391 C 564.638 1.90207 -2.80369 0
M  V30 5392 C 563.197 2.43373 -2.87135 0
M  V30 5393 C 562.344 1.21886 -2.49076 0
M  V30 5394 H 565.295 0.246716 -1.56771 0
M  V30 5395 H 565.316 2.75353 -2.62604 0
M  V30 5396 H 564.828 1.25796 -3.67147 0
M  V30 5397 H 562.929 3.11318 -2.04724 0
M  V30 5398 H 563.042 2.7802 -3.90181 0
M  V30 5399 H 561.406 1.55575 -2.01664 0
M  V30 5400 H 562.189 0.591268 -3.3817 0
M  V30 5401 N 564.634 1.40294 0.718013 0
M  V30 5402 C 565.567 1.34767 1.84155 0
M  V30 5403 C 566.545 0.218455 1.61126 0
M  V30 5404 O 567.729 0.401716 1.8417 0
M  V30 5405 C 564.856 1.09676 3.20451 0
M  V30 5406 C 563.902 2.25016 3.62312 0
M  V30 5407 S 564.735 3.87397 3.69707 0
M  V30 5408 C 565.891 3.64565 5.08766 0
M  V30 5409 H 566.124 2.29851 1.88562 0
M  V30 5410 H 563.657 1.2655 0.884555 0
M  V30 5411 H 565.615 0.95885 3.99144 0
M  V30 5412 H 564.276 0.162502 3.13679 0
M  V30 5413 H 563.469 2.03097 4.61268 0
M  V30 5414 H 563.071 2.35098 2.90869 0
M  V30 5415 H 565.363 3.22882 5.95612 0
M  V30 5416 H 566.306 4.63043 5.35721 0
M  V30 5417 H 566.714 2.98303 4.79245 0
M  V30 5418 N 566.112 -0.949982 1.2575 0
M  V30 5419 C 567.075 -2.02894 1.06615 0
M  V30 5420 C 568.075 -1.60791 0.0173905 0
M  V30 5421 O 569.265 -1.72249 0.260003 0
M  V30 5422 C 566.397 -3.35219 0.619751 0
M  V30 5423 H 567.59 -2.21302 2.02399 0
M  V30 5424 H 565.143 -1.12772 1.08223 0
M  V30 5425 H 565.878 -3.22508 -0.340486 0
M  V30 5426 H 565.663 -3.67129 1.37692 0
M  V30 5427 H 567.153 -4.14505 0.507443 0
M  V30 5428 N 567.59 -1.07411 -1.15328 0
M  V30 5429 C 568.838 -0.796073 -1.85761 0
M  V30 5430 C 569.159 0.679864 -1.82764 0
M  V30 5431 O 568.429 1.49242 -1.269 0
M  V30 5432 H 567.009 -0.291495 -0.687779 0
M  V30 5433 H 569.671 -1.35799 -1.39802 0
M  V30 5434 H 568.767 -1.13114 -2.90881 0
M  V30 5435 N 569.068 1.32177 -0.85831 0
M  V30 5436 C 570.316 1.96735 -0.462568 0
M  V30 5437 C 570.637 1.6824 0.985911 0
M  V30 5438 O 569.907 0.991564 1.68952 0
M  V30 5439 H 568.487 0.727849 -0.168064 0
M  V30 5440 H 571.149 1.61195 -1.09554 0
M  V30 5441 H 570.245 3.06068 -0.610647 0
M  V30 5442 N 570.547 0.616602 1.45037 0
M  V30 5443 C 571.497 -0.118543 2.27692 0
M  V30 5444 C 572.481 -0.830025 1.37838 0
M  V30 5445 O 573.673 -0.718528 1.6176 0
M  V30 5446 C 570.802 -1.10924 3.24886 0
M  V30 5447 C 569.888 -0.398134 4.22227 0
M  V30 5448 N 570.279 0.565233 5.02632 0
M  V30 5449 C 568.577 -0.644506 4.41319 0
M  V30 5450 C 569.278 0.984043 5.73316 0
M  V30 5451 N 568.254 0.325879 5.42622 0
M  V30 5452 H 572.056 0.621239 2.87259 0
M  V30 5453 H 569.57 0.440968 1.56299 0
M  V30 5454 H 571.567 -1.65038 3.82842 0
M  V30 5455 H 570.227 -1.84948 2.66879 0
M  V30 5456 H 571.238 0.942395 5.09254 0
M  V30 5457 H 567.915 -1.36873 3.94426 0
M  V30 5458 H 569.305 1.77911 6.47918 0
M  V30 5459 N 572.025 -1.5352 0.356285 0
M  V30 5460 C 573.441 -1.59599 0.00485267 0
M  V30 5461 C 573.641 -1.37179 -1.47595 0
M  V30 5462 O 572.697 -1.17234 -2.23635 0
M  V30 5463 C 574.01 -2.97277 0.452454 0
M  V30 5464 C 575.558 -3.10357 0.405881 0
M  V30 5465 C 576.033 -4.50432 0.829148 0
M  V30 5466 N 577.524 -4.5652 0.783838 0
M  V30 5467 C 578.259 -5.63077 1.08315 0
M  V30 5468 N 577.755 -6.77429 1.45126 0
M  V30 5469 N 579.548 -5.53014 1.00655 0
M  V30 5470 H 571.699 -1.66346 1.32071 0
M  V30 5471 H 573.962 -0.77971 0.539218 0
M  V30 5472 H 573.668 -3.18792 1.48542 0
M  V30 5473 H 573.542 -3.76836 -0.165762 0
M  V30 5474 H 575.929 -2.88558 -0.617934 0
M  V30 5475 H 576.01 -2.32828 1.05947 0
M  V30 5476 H 575.654 -4.72968 1.85103 0
M  V30 5477 H 575.584 -5.26378 0.152906 0
M  V30 5478 H 578.075 -3.74408 0.512513 0
M  V30 5479 H 578.388 -7.54669 1.66415 0
M  V30 5480 H 576.733 -6.78844 1.48983 0
M  V30 5481 H 579.924 -4.62557 0.718215 0
M  V30 5482 H 580.097 -6.35964 1.24315 0
M  V30 5483 N 573.503 -0.0852151 -1.57369 0
M  V30 5484 C 574.436 0.913608 -2.09113 0
M  V30 5485 C 575.414 1.28264 -0.999358 0
M  V30 5486 O 576.598 1.3896 -1.27367 0
M  V30 5487 C 573.725 2.21777 -2.55993 0
M  V30 5488 C 572.771 1.99932 -3.76735 0
M  V30 5489 S 573.604 1.24637 -5.20794 0
M  V30 5490 C 574.76 2.56304 -5.71016 0
M  V30 5491 H 574.993 0.473369 -2.93507 0
M  V30 5492 H 572.526 0.127856 -1.5387 0
M  V30 5493 H 574.484 2.96726 -2.83662 0
M  V30 5494 H 573.145 2.62923 -1.71843 0
M  V30 5495 H 572.338 2.96482 -4.07571 0
M  V30 5496 H 571.94 1.33116 -3.49509 0
M  V30 5497 H 574.232 3.5233 -5.78679 0
M  V30 5498 H 575.175 2.3006 -6.69685 0
M  V30 5499 H 575.583 2.64125 -4.98897 0
M  V30 5500 N 574.981 1.5647 0.188427 0
M  V30 5501 C 576.227 1.82181 0.904534 0
M  V30 5502 C 576.582 0.663258 1.80606 0
M  V30 5503 O 575.875 -0.341231 1.88537 0
M  V30 5504 C 576.069 3.11596 1.7505 0
M  V30 5505 C 575.898 4.39928 0.932372 0
M  V30 5506 C 574.668 5.01554 0.61417 0
M  V30 5507 C 576.866 5.13527 0.281936 0
M  V30 5508 N 574.848 6.13499 -0.221896 0
M  V30 5509 C 576.219 6.18603 -0.416037 0
M  V30 5510 C 578.274 4.97505 0.198345 0
M  V30 5511 C 576.977 7.09394 -1.18965 0
M  V30 5512 C 579.003 5.88725 -0.561887 0
M  V30 5513 C 578.365 6.93251 -1.24828 0
M  V30 5514 H 574.464 0.717858 0.310168 0
M  V30 5515 H 577.048 1.93932 0.172757 0
M  V30 5516 H 575.219 3.01068 2.45383 0
M  V30 5517 H 576.951 3.25369 2.4066 0
M  V30 5518 H 573.706 4.64174 0.940187 0
M  V30 5519 H 574.13 6.74065 -0.629735 0
M  V30 5520 H 578.772 4.16716 0.714665 0
M  V30 5521 H 576.49 7.8964 -1.71737 0
M  V30 5522 H 580.076 5.78401 -0.628009 0
M  V30 5523 H 578.956 7.62618 -1.82712 0
M  V30 5524 N 576.459 -0.456382 1.50847 0
M  V30 5525 C 577.391 -1.57033 1.66953 0
M  V30 5526 C 578.404 -1.53207 0.550593 0
M  V30 5527 O 579.593 -1.58328 0.824285 0
M  V30 5528 C 576.693 -2.95937 1.65149 0
M  V30 5529 C 575.866 -3.24475 2.93317 0
M  V30 5530 C 574.925 -4.43007 2.83957 0
M  V30 5531 O 573.951 -4.42592 3.57912 0
M  V30 5532 N 575.153 -5.45503 1.9851 0
M  V30 5533 H 577.918 -1.43629 2.63042 0
M  V30 5534 H 575.479 -0.645037 1.48495 0
M  V30 5535 H 577.471 -3.73224 1.56481 0
M  V30 5536 H 576.041 -3.03036 0.767343 0
M  V30 5537 H 575.261 -2.35664 3.16 0
M  V30 5538 H 576.549 -3.4036 3.78196 0
M  V30 5539 H 575.947 -5.48668 1.37766 0
M  V30 5540 H 574.504 -6.21716 1.95735 0
M  V30 5541 N 577.937 -1.40673 -0.710563 0
M  V30 5542 C 578.87 -1.35742 -1.83438 0
M  V30 5543 C 579.848 -0.226997 -1.61008 0
M  V30 5544 O 581.032 -0.411477 -1.83954 0
M  V30 5545 C 578.159 -1.11374 -3.19865 0
M  V30 5546 C 577.205 -2.26935 -3.61113 0
M  V30 5547 S 578.038 -3.89352 -3.67648 0
M  V30 5548 C 579.194 -3.67258 -5.06826 0
M  V30 5549 H 579.427 -2.30848 -1.87341 0
M  V30 5550 H 576.96 -1.27018 -0.877831 0
M  V30 5551 H 578.918 -0.980004 -3.9863 0
M  V30 5552 H 577.579 -0.179135 -3.13589 0
M  V30 5553 H 576.772 -2.0554 -4.60184 0
M  V30 5554 H 576.374 -2.36638 -2.89618 0
M  V30 5555 H 578.666 -3.26036 -5.93891 0
M  V30 5556 H 579.609 -4.65878 -5.33257 0
M  V30 5557 H 580.017 -3.0084 -4.77656 0
M  V30 5558 N 579.415 0.9433 -1.26252 0
M  V30 5559 C 580.378 2.02326 -1.07689 0
M  V30 5560 C 581.378 1.60779 -0.0259174 0
M  V30 5561 O 582.568 1.72108 -0.269134 0
M  V30 5562 C 579.7 3.34886 -0.63752 0
M  V30 5563 H 580.893 2.20225 -2.0357 0
M  V30 5564 H 578.446 1.12197 -1.08819 0
M  V30 5565 H 579.181 3.22684 0.323377 0
M  V30 5566 H 578.966 3.66393 -1.39637 0
M  V30 5567 H 580.456 4.14231 -0.529418 0
M  V30 5568 N 580.893 1.08022 1.14757 0
M  V30 5569 C 582.141 0.805913 1.85336 0
M  V30 5570 C 582.462 -0.670162 1.83122 0
M  V30 5571 O 581.732 -1.48567 1.2769 0
M  V30 5572 H 580.312 0.295138 0.686223 0
M  V30 5573 H 582.974 1.36538 1.3908 0
M  V30 5574 H 582.07 1.14655 2.90277 0
M  V30 5575 N 582.371 -1.3172 0.865308 0
M  V30 5576 C 583.301 -2.31109 0.333302 0
M  V30 5577 C 584.282 -1.60148 -0.573301 0
M  V30 5578 O 585.467 -1.87882 -0.491305 0
M  V30 5579 C 582.597 -3.44104 -0.470078 0
M  V30 5580 C 581.551 -4.26623 0.343021 0
M  V30 5581 C 580.877 -5.31482 -0.585756 0
M  V30 5582 C 582.177 -4.98001 1.57456 0
M  V30 5583 H 583.871 -2.75855 1.1638 0
M  V30 5584 H 581.417 -1.3262 0.561069 0
M  V30 5585 H 583.37 -4.12682 -0.852752 0
M  V30 5586 H 582.094 -2.98112 -1.33404 0
M  V30 5587 H 580.753 -3.59707 0.707583 0
M  V30 5588 H 580.401 -4.81741 -1.44686 0
M  V30 5589 H 580.101 -5.87582 -0.0456494 0
M  V30 5590 H 581.625 -6.0292 -0.965375 0
M  V30 5591 H 583.039 -5.59201 1.26359 0
M  V30 5592 H 581.436 -5.63876 2.05339 0
M  V30 5593 H 582.506 -4.25253 2.32997 0
M  V30 5594 N 583.85 -0.624285 -1.44708 0
M  V30 5595 C 584.797 0.0847135 -2.30644 0
M  V30 5596 C 585.767 0.843575 -1.43084 0
M  V30 5597 O 586.952 0.825982 -1.71995 0
M  V30 5598 C 584.091 1.06495 -3.28257 0
M  V30 5599 C 583.205 0.305224 -4.3092 0
M  V30 5600 C 582.34 1.27667 -5.1563 0
M  V30 5601 C 581.379 0.505706 -6.10007 0
M  V30 5602 N 580.516 1.42727 -6.8744 0
M  V30 5603 H 585.356 -0.654068 -2.90733 0
M  V30 5604 H 582.893 -0.334334 -1.4325 0
M  V30 5605 H 584.851 1.64658 -3.83332 0
M  V30 5606 H 583.481 1.77094 -2.69884 0
M  V30 5607 H 582.533 -0.392207 -3.78373 0
M  V30 5608 H 583.845 -0.295553 -4.97924 0
M  V30 5609 H 582.999 1.92984 -5.75189 0
M  V30 5610 H 581.738 1.91137 -4.48685 0
M  V30 5611 H 580.743 -0.160999 -5.49564 0
M  V30 5612 H 581.968 -0.124183 -6.78986 0
M  V30 5613 H 579.913 2.04931 -6.23169 0
M  V30 5614 H 579.831 0.880345 -7.50857 0
M  V30 5615 H 581.099 2.0695 -7.51526 0
M  V30 5616 N 585.328 1.53329 -0.364422 0
M  V30 5617 C 586.291 2.24323 0.470292 0
M  V30 5618 C 587.291 1.25068 1.01067 0
M  V30 5619 O 588.481 1.49354 0.896605 0
M  V30 5620 C 585.613 2.97908 1.65722 0
M  V30 5621 H 586.806 2.9952 -0.150917 0
M  V30 5622 H 584.359 1.55868 -0.116092 0
M  V30 5623 H 585.094 2.2695 2.31655 0
M  V30 5624 H 584.879 3.70732 1.27671 0
M  V30 5625 H 586.369 3.5188 2.24878 0
M  V30 5626 N 586.806 0.0935595 1.57322 0
M  V30 5627 C 587.738 -0.895923 2.10964 0
M  V30 5628 C 588.751 -1.24705 1.04654 0
M  V30 5629 O 589.94 -1.20044 1.32105 0
M  V30 5630 C 587.04 -2.20546 2.57318 0
M  V30 5631 C 586.213 -2.0299 3.87445 0
M  V30 5632 C 585.272 -3.17443 4.19662 0
M  V30 5633 O 584.298 -2.91474 4.88909 0
M  V30 5634 N 585.5 -4.43168 3.74943 0
M  V30 5635 H 588.265 -0.437788 2.96485 0
M  V30 5636 H 585.826 -0.0915863 1.61641 0
M  V30 5637 H 587.818 -2.9606 2.75917 0
M  V30 5638 H 586.388 -2.57789 1.76816 0
M  V30 5639 H 585.608 -1.11815 3.78009 0
M  V30 5640 H 586.896 -1.88535 4.7258 0
M  V30 5641 H 586.294 -4.67149 3.19043 0
M  V30 5642 H 584.851 -5.15637 3.987 0
M  V30 5643 N 588.284 -1.56567 -0.180126 0
M  V30 5644 C 589.7 -1.50488 -0.531559 0
M  V30 5645 C 589.9 -0.796267 -1.851 0
M  V30 5646 O 588.956 -0.352978 -2.50021 0
M  V30 5647 C 590.269 -2.95201 -0.572456 0
M  V30 5648 C 591.817 -3.05957 -0.660264 0
M  V30 5649 C 592.292 -4.5211 -0.732135 0
M  V30 5650 N 593.783 -4.56322 -0.795262 0
M  V30 5651 C 594.518 -5.66742 -0.871296 0
M  V30 5652 N 594.014 -6.86815 -0.908708 0
M  V30 5653 N 595.807 -5.54691 -0.909639 0
M  V30 5654 H 587.958 -2.01045 0.685165 0
M  V30 5655 H 590.221 -0.915536 0.245962 0
M  V30 5656 H 589.927 -3.50165 0.328208 0
M  V30 5657 H 589.801 -3.49369 -1.422 0
M  V30 5658 H 592.188 -2.51032 -1.55136 0
M  V30 5659 H 592.269 -2.54888 0.215783 0
M  V30 5660 H 591.913 -5.07664 0.154664 0
M  V30 5661 H 591.843 -5.00926 -1.6242 0
M  V30 5662 H 594.334 -3.69868 -0.77499 0
M  V30 5663 H 594.647 -7.66718 -0.967654 0
M  V30 5664 H 592.992 -6.89443 -0.877132 0
M  V30 5665 H 596.183 -4.59804 -0.877353 0
M  V30 5666 H 596.356 -6.40768 -0.965434 0
M  V30 5667 N 589.762 0.448376 -1.51087 0
M  V30 5668 C 590.725 1.52588 -1.71025 0
M  V30 5669 C 591.725 1.49958 -0.580442 0
M  V30 5670 O 592.915 1.52176 -0.847833 0
M  V30 5671 C 590.047 2.92163 -1.75652 0
M  V30 5672 H 591.24 1.36218 -2.67179 0
M  V30 5673 H 588.793 0.676313 -1.4091 0
M  V30 5674 H 589.528 3.13951 -0.812724 0
M  V30 5675 H 589.313 2.95478 -2.57751 0
M  V30 5676 H 590.803 3.70349 -1.92953 0
M  V30 5677 N 591.24 1.41047 0.703093 0
M  V30 5678 C 592.172 1.38228 1.82827 0
M  V30 5679 C 593.185 0.285637 1.60275 0
M  V30 5680 O 594.374 0.54685 1.69917 0
M  V30 5681 C 591.474 1.13136 3.19458 0
M  V30 5682 C 590.647 2.34695 3.69103 0
M  V30 5683 C 589.706 2.05574 4.84382 0
M  V30 5684 O 588.732 2.78549 4.96386 0
M  V30 5685 N 589.934 1.04135 5.71083 0
M  V30 5686 H 592.699 2.35203 1.85741 0
M  V30 5687 H 590.26 1.35562 0.885125 0
M  V30 5688 H 592.252 0.916183 3.94193 0
M  V30 5689 H 590.822 0.247836 3.11616 0
M  V30 5690 H 590.042 2.71963 2.85359 0
M  V30 5691 H 591.33 3.15705 3.99009 0
M  V30 5692 H 590.728 0.43722 5.64008 0
M  V30 5693 H 589.285 0.886078 6.45749 0
M  V30 5694 N 592.718 -0.936591 1.26751 0
M  V30 5695 C 593.946 -1.71758 1.15355 0
M  V30 5696 C 594.361 -1.86549 -0.290683 0
M  V30 5697 O 593.718 -1.37616 -1.19868 0
M  V30 5698 C 593.769 -3.12193 1.82258 0
M  V30 5699 O 593.49 -2.98105 3.21038 0
M  V30 5700 C 594.991 -4.06485 1.76875 0
M  V30 5701 H 592.211 -0.537636 0.401483 0
M  V30 5702 H 594.755 -1.17382 1.67457 0
M  V30 5703 H 592.91 -3.63456 1.34083 0
M  V30 5704 H 593.324 -3.86824 3.54214 0
M  V30 5705 H 594.798 -5.02569 2.28316 0
M  V30 5706 H 595.275 -4.32986 0.736216 0
M  V30 5707 H 595.881 -3.61144 2.24623 0
M  V30 5708 N 594.196 -1.08629 -1.14182 0
M  V30 5709 C 595.473 -0.73002 -1.81466 0
M  V30 5710 C 595.853 0.785996 -1.95922 0
M  V30 5711 O 595.201 1.70535 -1.52086 0
M  V30 5712 C 595.411 -1.45957 -3.17014 0
M  V30 5713 C 596.759 -1.62008 -3.92477 0
M  V30 5714 O 597.783 -1.42141 -3.26611 0
M  V30 5715 O 596.642 -1.94806 -5.106 0
M  V30 5716 H 593.736 -0.261307 -0.784632 0
M  V30 5717 H 596.282 -1.188 -1.2118 0
M  V30 5718 H 595.054 -2.49221 -3.01669 0
M  V30 5719 H 594.677 -0.993222 -3.84995 0
M  V30 5720 N 595.674 1.31259 -0.872281 0
M  V30 5721 C 596.92 1.96913 -0.485083 0
M  V30 5722 C 597.253 1.68774 0.960667 0
M  V30 5723 O 596.528 0.985495 1.67685 0
M  V30 5724 C 596.811 3.52299 -0.745502 0
M  V30 5725 C 596.664 3.90002 -2.24095 0
M  V30 5726 C 597.983 4.39582 -0.213516 0
M  V30 5727 H 595.102 0.715252 -0.177716 0
M  V30 5728 H 597.744 1.55347 -1.09395 0
M  V30 5729 H 595.894 3.87835 -0.227276 0
M  V30 5730 H 597.566 3.64555 -2.82661 0
M  V30 5731 H 595.809 3.38526 -2.71261 0
M  V30 5732 H 596.48 4.98352 -2.37381 0
M  V30 5733 H 598.956 4.10882 -0.656902 0
M  V30 5734 H 597.832 5.47251 -0.42516 0
M  V30 5735 H 598.093 4.33158 0.884666 0
M  V30 5736 N 597.152 0.631951 1.44375 0
M  V30 5737 C 598.1 -0.0846693 2.32446 0
M  V30 5738 C 599.094 -0.834957 1.47393 0
M  V30 5739 O 600.3 -0.747764 1.63733 0
M  V30 5740 H 596.675 -0.0461508 0.750583 0
M  V30 5741 H 598.646 0.67619 2.90638 0
M  V30 5742 C 597.395 -1.05211 3.314 0
M  V30 5743 H 596.718 -0.484203 3.96857 0
M  V30 5744 H 598.158 -1.523 3.95703 0
M  V30 5745 C 596.617 -2.13776 2.60387 0
M  V30 5746 O 597.147 -3.21869 2.4034 0
M  V30 5747 N 595.353 -1.89733 2.20113 0
M  V30 5748 H 594.9 -1.01833 2.36618 0
M  V30 5749 H 594.858 -2.62572 1.72926 0
M  V30 5750 N 598.631 -1.53133 0.372548 0
M  V30 5751 C 599.579 -2.27473 -0.485681 0
M  V30 5752 C 600.573 -1.30719 -1.07745 0
M  V30 5753 O 601.779 -1.48321 -1.01985 0
M  V30 5754 H 598.154 -0.731269 -0.175356 0
M  V30 5755 H 600.125 -2.97955 0.162986 0
M  V30 5756 C 598.874 -3.08191 -1.60978 0
M  V30 5757 H 598.197 -3.82488 -1.16373 0
M  V30 5758 H 599.637 -3.63373 -2.18485 0
M  V30 5759 C 598.096 -2.19461 -2.55614 0
M  V30 5760 O 598.626 -1.81008 -3.58607 0
M  V30 5761 N 596.832 -1.83955 -2.24965 0
M  V30 5762 H 596.379 -2.15423 -1.41247 0
M  V30 5763 H 596.337 -1.24874 -2.88538 0
M  V30 5764 N 600.109 -0.101901 -1.5727 0
M  V30 5765 C 601.056 0.854577 -2.14396 0
M  V30 5766 C 602.026 1.27521 -1.06432 0
M  V30 5767 O 603.211 1.35575 -1.34253 0
M  V30 5768 C 600.351 2.10576 -2.73408 0
M  V30 5769 C 599.464 1.73504 -3.95626 0
M  V30 5770 C 598.599 2.9346 -4.42781 0
M  V30 5771 C 597.638 2.52547 -5.57572 0
M  V30 5772 N 596.775 3.65359 -5.99547 0
M  V30 5773 H 601.615 0.360578 -2.9581 0
M  V30 5774 H 599.152 0.166303 -1.46157 0
M  V30 5775 H 601.11 2.83859 -3.05745 0
M  V30 5776 H 599.74 2.57463 -1.94711 0
M  V30 5777 H 598.792 0.901622 -3.6956 0
M  V30 5778 H 600.104 1.39426 -4.78917 0
M  V30 5779 H 599.258 3.74988 -4.76937 0
M  V30 5780 H 597.997 3.30753 -3.58404 0
M  V30 5781 H 597.002 1.69446 -5.23037 0
M  V30 5782 H 598.227 2.1639 -6.43702 0
M  V30 5783 H 596.173 4.02358 -5.18116 0
M  V30 5784 H 596.09 3.35148 -6.77652 0
M  V30 5785 H 597.358 4.47378 -6.38336 0
M  V30 5786 N 601.587 1.56661 0.17182 0
M  V30 5787 C 602.519 1.92934 1.2373 0
M  V30 5788 C 603.532 0.822385 1.40502 0
M  V30 5789 O 604.721 1.10083 1.40514 0
M  V30 5790 C 601.821 2.16651 2.60607 0
M  V30 5791 C 600.994 3.47878 2.6514 0
M  V30 5792 C 600.053 3.60429 3.83377 0
M  V30 5793 O 599.079 4.33051 3.69398 0
M  V30 5794 N 600.281 2.95241 4.99813 0
M  V30 5795 H 603.046 2.84931 0.929205 0
M  V30 5796 H 600.607 1.5781 0.361588 0
M  V30 5797 H 602.599 2.22312 3.38171 0
M  V30 5798 H 601.169 1.3104 2.83809 0
M  V30 5799 H 600.389 3.53879 1.73675 0
M  V30 5800 H 601.677 4.34232 2.6518 0
M  V30 5801 H 601.075 2.3611 5.14071 0
M  V30 5802 H 599.632 3.06499 5.75241 0
M  V30 5803 N 603.065 -0.440357 1.51323 0
M  V30 5804 C 604.028 -1.51679 1.71832 0
M  V30 5805 C 605.028 -1.49648 0.588386 0
M  V30 5806 O 606.218 -1.51724 0.855891 0
M  V30 5807 C 603.35 -2.91228 1.77199 0
M  V30 5808 H 604.543 -1.34799 2.67898 0
M  V30 5809 H 602.096 -0.66883 1.41267 0
M  V30 5810 H 602.831 -3.13516 0.829363 0
M  V30 5811 H 602.616 -2.94107 2.59314 0
M  V30 5812 H 604.106 -3.69321 1.94915 0
M  V30 5813 N 604.543 -1.41418 -0.695603 0
M  V30 5814 C 605.506 -1.42988 -1.79129 0
M  V30 5815 C 606.506 -0.320514 -1.57573 0
M  V30 5816 O 607.696 -0.58039 -1.64247 0
M  V30 5817 C 604.828 -1.24122 -3.175 0
M  V30 5818 H 606.021 -2.40526 -1.7913 0
M  V30 5819 H 603.574 -1.2756 -0.903225 0
M  V30 5820 H 604.309 -0.274253 -3.23138 0
M  V30 5821 H 604.094 -2.045 -3.34547 0
M  V30 5822 H 605.584 -1.28056 -3.97481 0
M  V30 5823 N 606.021 0.929856 -1.27246 0
M  V30 5824 C 607.268 1.67731 -1.13457 0
M  V30 5825 C 607.596 1.9185 0.319998 0
M  V30 5826 O 606.851 1.50524 1.25064 0
M  V30 5827 C 607.15 3.05116 -1.86115 0
M  V30 5828 C 606.816 3.00715 -3.35978 0
M  V30 5829 C 605.478 2.99222 -3.76855 0
M  V30 5830 C 607.83 2.92168 -4.3161 0
M  V30 5831 C 605.158 2.86962 -5.11732 0
M  V30 5832 C 607.51 2.81449 -5.66542 0
M  V30 5833 C 606.174 2.78305 -6.06715 0
M  V30 5834 H 605.444 0.613772 -0.415168 0
M  V30 5835 H 608.091 1.08456 -1.57827 0
M  V30 5836 H 606.396 3.68083 -1.34246 0
M  V30 5837 H 608.093 3.61822 -1.72876 0
M  V30 5838 H 604.683 3.02664 -3.03468 0
M  V30 5839 H 608.867 2.92421 -4.01003 0
M  V30 5840 H 604.123 2.82913 -5.42006 0
M  V30 5841 H 608.297 2.738 -6.40317 0
M  V30 5842 H 605.924 2.68561 -7.11181 0
M  V30 5843 N 607.499 1.09233 1.13605 0
M  V30 5844 C 608.776 0.739633 1.81077 0
M  V30 5845 C 609.156 -0.775595 1.96336 0
M  V30 5846 O 608.504 -1.69726 1.52988 0
M  V30 5847 C 608.714 1.47636 3.16235 0
M  V30 5848 C 610.062 1.64087 3.91613 0
M  V30 5849 O 611.086 1.43871 3.25852 0
M  V30 5850 O 609.945 1.97511 5.0956 0
M  V30 5851 H 607.039 0.265464 0.783236 0
M  V30 5852 H 609.585 1.19441 1.20549 0
M  V30 5853 H 608.357 2.50818 3.00344 0
M  V30 5854 H 607.98 1.01362 3.84462 0
M  V30 5855 N 608.977 -1.30795 0.87923 0
M  V30 5856 C 609.94 -2.26563 0.346676 0
M  V30 5857 C 610.94 -1.52578 -0.507597 0
M  V30 5858 O 612.13 -1.71318 -0.315575 0
M  V30 5859 C 609.262 -3.37115 -0.506611 0
M  V30 5860 H 610.455 -2.75183 1.19223 0
M  V30 5861 H 608.008 -1.41886 0.655598 0
M  V30 5862 H 608.743 -2.93802 -1.37299 0
M  V30 5863 H 608.528 -3.91959 0.105218 0
M  V30 5864 H 610.018 -4.08412 -0.871192 0
M  V30 5865 N 610.455 -0.639598 -1.44038 0
M  V30 5866 C 611.418 0.0506628 -2.29144 0
M  V30 5867 C 612.418 0.764001 -1.41491 0
M  V30 5868 O 613.608 0.607309 -1.63271 0
M  V30 5869 C 610.74 1.0824 -3.2326 0
M  V30 5870 H 611.933 -0.697987 -2.91664 0
M  V30 5871 H 609.486 -0.400146 -1.51091 0
M  V30 5872 H 610.221 1.86075 -2.65606 0
M  V30 5873 H 610.006 0.574725 -3.87865 0
M  V30 5874 H 611.496 1.56487 -3.87171 0
M  V30 5875 N 611.933 1.52934 -0.380664 0
M  V30 5876 C 612.896 2.24809 0.446473 0
M  V30 5877 C 613.896 1.26133 0.997347 0
M  V30 5878 O 615.086 1.50297 0.880714 0
M  V30 5879 C 612.218 2.99649 1.62553 0
M  V30 5880 H 613.411 2.99343 -0.182677 0
M  V30 5881 H 610.964 1.55736 -0.132618 0
M  V30 5882 H 611.699 2.29395 2.29235 0
M  V30 5883 H 611.484 3.72066 1.23732 0
M  V30 5884 H 612.974 3.54246 2.21133 0
M  V30 5885 N 613.412 0.11024 1.57214 0
M  V30 5886 C 614.359 -0.843195 2.14846 0
M  V30 5887 C 615.329 -1.26954 1.07107 0
M  V30 5888 O 616.514 -1.34861 1.34971 0
M  V30 5889 C 613.654 -2.09123 2.74521 0
M  V30 5890 C 612.767 -1.71404 3.96541 0
M  V30 5891 C 611.902 -2.91107 4.44331 0
M  V30 5892 C 610.941 -2.49586 5.58903 0
M  V30 5893 N 610.078 -3.62175 6.01477 0
M  V30 5894 H 614.918 -0.344886 2.95998 0
M  V30 5895 H 612.455 -0.15855 1.46243 0
M  V30 5896 H 614.413 -2.82234 3.07246 0
M  V30 5897 H 613.043 -2.56427 1.96074 0
M  V30 5898 H 612.095 -0.88201 3.70033 0
M  V30 5899 H 613.407 -1.36884 4.7965 0
M  V30 5900 H 612.561 -3.72454 4.78919 0
M  V30 5901 H 611.3 -3.28848 3.60153 0
M  V30 5902 H 610.305 -1.6667 5.23929 0
M  V30 5903 H 611.53 -2.12973 6.4484 0
M  V30 5904 H 609.476 -3.99605 5.20242 0
M  V30 5905 H 609.393 -3.3155 6.79419 0
M  V30 5906 H 610.661 -4.43987 6.407 0
M  V30 5907 N 614.89 -1.56749 -0.16351 0
M  V30 5908 C 615.8 -2.00255 -1.2221 0
M  V30 5909 C 616.816 -0.915194 -1.47987 0
M  V30 5910 O 617.992 -1.22342 -1.59982 0
M  V30 5911 C 615.057 -2.36035 -2.53946 0
M  V30 5912 C 614.118 -3.58637 -2.35962 0
M  V30 5913 C 613.351 -3.92701 -3.61416 0
M  V30 5914 O 613.574 -3.27632 -4.66919 0
M  V30 5915 O 612.508 -4.86019 -3.55062 0
M  V30 5916 H 616.334 -2.90586 -0.882794 0
M  V30 5917 H 613.919 -1.44721 -0.370978 0
M  V30 5918 H 615.801 -2.59982 -3.31643 0
M  V30 5919 H 614.476 -1.48863 -2.8744 0
M  V30 5920 H 613.383 -3.39898 -1.5627 0
M  V30 5921 H 614.716 -4.46374 -2.0739 0
M  V30 5922 N 616.368 0.432326 -1.51554 0
M  V30 5923 C 617.315 1.52512 -1.7323 0
M  V30 5924 C 618.285 1.55863 -0.5741 0
M  V30 5925 O 619.47 1.72796 -0.809093 0
M  V30 5926 C 616.61 2.90183 -1.86783 0
M  V30 5927 C 615.723 2.96322 -3.14352 0
M  V30 5928 C 614.858 4.25147 -3.18471 0
M  V30 5929 C 613.897 4.25172 -4.40335 0
M  V30 5930 N 613.034 5.45529 -4.41975 0
M  V30 5931 H 617.874 1.33332 -2.66508 0
M  V30 5932 H 615.411 0.647613 -1.32077 0
M  V30 5933 H 617.369 3.70071 -1.92623 0
M  V30 5934 H 615.999 3.0791 -0.969087 0
M  V30 5935 H 615.051 2.09066 -3.17798 0
M  V30 5936 H 616.363 2.92203 -4.04251 0
M  V30 5937 H 615.517 5.13411 -3.23255 0
M  V30 5938 H 614.256 4.31929 -2.2647 0
M  V30 5939 H 613.261 3.353 -4.35723 0
M  V30 5940 H 614.486 4.20049 -5.33606 0
M  V30 5941 H 612.432 5.53024 -3.52847 0
M  V30 5942 H 612.349 5.43311 -5.25689 0
M  V30 5943 H 613.617 6.35812 -4.50958 0
M  V30 5944 N 617.846 1.41785 0.688094 0
M  V30 5945 C 619.071 1.45117 1.48175 0
M  V30 5946 C 619.496 0.060129 1.88004 0
M  V30 5947 O 618.854 -0.938385 1.55126 0
M  V30 5948 C 618.902 2.37224 2.71583 0
M  V30 5949 O 618.006 1.83443 3.69354 0
M  V30 5950 H 617.347 0.492208 0.445676 0
M  V30 5951 H 619.877 1.86329 0.845145 0
M  V30 5952 H 619.887 2.53353 3.19806 0
M  V30 5953 H 618.562 3.38293 2.41931 0
M  V30 5954 H 617.139 1.76802 3.28322 0
M  V30 5955 N 619.324 -0.923095 1.27737 0
M  V30 5956 C 620.601 -1.64989 1.05062 0
M  V30 5957 C 620.981 -2.07018 -0.413124 0
M  V30 5958 O 620.329 -1.80797 -1.39731 0
M  V30 5959 C 620.539 -2.84847 2.01652 0
M  V30 5960 C 621.887 -3.56083 2.31279 0
M  V30 5961 O 622.911 -2.94981 1.99662 0
M  V30 5962 O 621.77 -4.66182 2.85196 0
M  V30 5963 H 618.864 -0.723357 0.400853 0
M  V30 5964 H 621.41 -0.973224 1.3902 0
M  V30 5965 H 620.182 -2.50814 3.00347 0
M  V30 5966 H 619.805 -3.60231 1.68284 0
M  V30 5967 N 620.802 -1.09834 -1.13024 0
M  V30 5968 C 621.765 -0.745058 -2.16752 0
M  V30 5969 C 622.765 0.227435 -1.59183 0
M  V30 5970 O 623.955 0.0050786 -1.74199 0
M  V30 5971 C 621.087 -0.102543 -3.40746 0
M  V30 5972 H 622.28 -1.66375 -2.49518 0
M  V30 5973 H 619.833 -0.898061 -1.27924 0
M  V30 5974 H 620.568 0.827177 -3.13573 0
M  V30 5975 H 620.353 -0.80235 -3.83803 0
M  V30 5976 H 621.843 0.129082 -4.174 0
M  V30 5977 N 622.28 1.30327 -0.886154 0
M  V30 5978 C 623.557 1.90922 -0.425217 0
M  V30 5979 C 623.937 1.80533 1.09413 0
M  V30 5980 O 623.285 1.2233 1.92996 0
M  V30 5981 C 623.495 3.36529 -0.924638 0
M  V30 5982 C 624.843 4.13598 -0.960305 0
M  V30 5983 O 625.867 3.45377 -0.871382 0
M  V30 5984 O 624.726 5.35482 -1.09184 0
M  V30 5985 H 621.82 0.81668 -0.130238 0
M  V30 5986 H 624.366 1.38886 -0.975132 0
M  V30 5987 H 623.138 3.38181 -1.96849 0
M  V30 5988 H 622.761 3.96021 -0.353955 0
M  V30 5989 N 623.758 0.647228 1.43697 0
M  V30 5990 C 624.721 -0.0385101 2.29168 0
M  V30 5991 C 625.721 -0.756487 1.41894 0
M  V30 5992 O 626.911 -0.598641 1.63591 0
M  V30 5993 C 624.043 -1.06524 3.23829 0
M  V30 5994 H 625.236 0.713445 2.9129 0
M  V30 5995 H 622.789 0.408153 1.50877 0
M  V30 5996 H 623.524 -1.84664 2.66589 0
M  V30 5997 H 623.309 -0.554147 3.88164 0
M  V30 5998 H 624.799 -1.54432 3.87996 0
M  V30 5999 N 625.236 -1.5273 0.388769 0
M  V30 6000 C 626.199 -2.25043 -0.434544 0
M  V30 6001 C 627.199 -1.26661 -0.990644 0
M  V30 6002 O 628.389 -1.50762 -0.872731 0
M  V30 6003 C 625.521 -3.00507 -1.60961 0
M  V30 6004 H 626.714 -2.99242 0.198549 0
M  V30 6005 H 624.267 -1.55664 0.140875 0
M  V30 6006 H 625.002 -2.30607 -2.28015 0
M  V30 6007 H 624.787 -3.72716 -1.21757 0
M  V30 6008 H 626.277 -3.55413 -2.19251 0
M  V30 6009 N 626.714 -0.118576 -1.57153 0
M  V30 6010 C 627.644 0.828436 -2.1831 0
M  V30 6011 C 628.625 1.27758 -1.12303 0
M  V30 6012 O 629.81 1.34026 -1.40537 0
M  V30 6013 C 626.94 2.07876 -2.78217 0
M  V30 6014 C 625.894 1.76742 -3.89803 0
M  V30 6015 C 625.22 3.08801 -4.36516 0
M  V30 6016 C 626.52 1.03606 -5.11921 0
M  V30 6017 H 628.214 0.318824 -2.97698 0
M  V30 6018 H 625.76 0.151911 -1.43196 0
M  V30 6019 H 627.713 2.74584 -3.19659 0
M  V30 6020 H 626.437 2.61161 -1.96118 0
M  V30 6021 H 625.096 1.12424 -3.48936 0
M  V30 6022 H 624.744 3.6002 -3.51276 0
M  V30 6023 H 624.444 2.88743 -5.11763 0
M  V30 6024 H 625.968 3.76627 -4.80608 0
M  V30 6025 H 627.382 1.60467 -5.50385 0
M  V30 6026 H 625.779 0.936454 -5.92748 0
M  V30 6027 H 626.849 0.0227421 -4.84895 0
M  V30 6028 N 628.193 1.56834 0.155195 0
M  V30 6029 C 629.418 1.87412 0.888337 0
M  V30 6030 C 629.843 0.70671 1.74319 0
M  V30 6031 O 629.201 -0.343892 1.78009 0
M  V30 6032 C 629.249 3.1652 1.72765 0
M  V30 6033 O 628.353 2.99877 2.83103 0
M  V30 6034 H 627.694 0.615983 0.247914 0
M  V30 6035 H 630.224 2.04061 0.148478 0
M  V30 6036 H 630.234 3.48334 2.12433 0
M  V30 6037 H 628.909 4.01094 1.09985 0
M  V30 6038 H 627.486 2.79453 2.46902 0
M  V30 6039 N 629.671 -0.424282 1.51781 0
M  V30 6040 C 630.896 -1.19928 1.6921 0
M  V30 6041 C 631.321 -1.8392 0.394355 0
M  V30 6042 O 630.679 -1.69371 -0.646778 0
M  V30 6043 C 630.727 -2.24937 2.81843 0
M  V30 6044 O 629.831 -3.3073 2.46356 0
M  V30 6045 H 629.172 -0.35078 0.563781 0
M  V30 6046 H 631.702 -0.499401 1.98412 0
M  V30 6047 H 631.712 -2.69512 3.06312 0
M  V30 6048 H 630.387 -1.77742 3.76006 0
M  V30 6049 H 628.964 -2.9154 2.32505 0
M  V30 6050 N 631.149 -1.42148 -0.680565 0
M  V30 6051 C 632.112 -1.4488 -1.77602 0
M  V30 6052 C 633.112 -0.337209 -1.57224 0
M  V30 6053 O 634.302 -0.597778 -1.63622 0
M  V30 6054 C 631.434 -1.27483 -3.16166 0
M  V30 6055 H 632.627 -2.42412 -1.76568 0
M  V30 6056 H 630.18 -1.28511 -0.889645 0
M  V30 6057 H 630.915 -0.30851 -3.22829 0
M  V30 6058 H 630.7 -2.08037 -3.3236 0
M  V30 6059 H 632.19 -1.32265 -3.96101 0
M  V30 6060 N 632.627 0.916307 -1.28225 0
M  V30 6061 C 633.56 2.01954 -1.06254 0
M  V30 6062 C 634.538 1.62587 0.0205983 0
M  V30 6063 O 635.722 1.88073 -0.126824 0
M  V30 6064 C 632.849 3.33086 -0.614141 0
M  V30 6065 C 631.895 3.91435 -1.69354 0
M  V30 6066 S 632.728 4.22603 -3.28887 0
M  V30 6067 C 633.884 5.568 -2.85876 0
M  V30 6068 H 634.117 2.20281 -1.99659 0
M  V30 6069 H 631.65 1.06085 -1.12184 0
M  V30 6070 H 633.608 4.089 -0.36213 0
M  V30 6071 H 632.269 3.12664 0.300036 0
M  V30 6072 H 631.462 4.86098 -1.33136 0
M  V30 6073 H 631.064 3.22248 -1.89821 0
M  V30 6074 H 633.356 6.3658 -2.31888 0
M  V30 6075 H 634.299 5.97927 -3.79326 0
M  V30 6076 H 634.707 5.17865 -2.24669 0
M  V30 6077 N 634.105 1.10431 1.1244 0
M  V30 6078 C 635.015 0.765502 2.21759 0
M  V30 6079 C 636.031 -0.236966 1.72379 0
M  V30 6080 O 637.207 -0.0757329 2.01258 0
M  V30 6081 C 634.272 0.202316 3.46109 0
M  V30 6082 C 633.333 1.26205 4.1033 0
M  V30 6083 C 632.566 0.725648 5.28744 0
M  V30 6084 O 632.789 -0.447942 5.68638 0
M  V30 6085 O 631.723 1.48555 5.83279 0
M  V30 6086 H 635.549 1.67801 2.53133 0
M  V30 6087 H 633.134 0.879443 1.20773 0
M  V30 6088 H 635.016 -0.107918 4.21262 0
M  V30 6089 H 633.691 -0.683052 3.16411 0
M  V30 6090 H 632.598 1.62514 3.36957 0
M  V30 6091 H 633.931 2.12044 4.44183 0
M  V30 6092 N 635.583 -1.29855 0.893053 0
M  V30 6093 C 636.808 -2.00512 0.530066 0
M  V30 6094 C 637.233 -1.66446 -0.876199 0
M  V30 6095 O 636.591 -0.885446 -1.58207 0
M  V30 6096 C 636.639 -3.53308 0.721505 0
M  V30 6097 O 635.743 -4.11764 -0.228994 0
M  V30 6098 H 635.084 -0.630617 0.207891 0
M  V30 6099 H 637.614 -1.6551 1.20282 0
M  V30 6100 H 637.624 -4.03206 0.623599 0
M  V30 6101 H 636.299 -3.77439 1.74678 0
M  V30 6102 H 634.876 -3.72805 -0.0841034 0
M  V30 6103 N 637.061 -0.65484 -1.43351 0
M  V30 6104 C 638.477 -0.32255 -1.56307 0
M  V30 6105 C 638.677 1.17324 -1.63821 0
M  V30 6106 O 637.733 1.95813 -1.59417 0
M  V30 6107 C 639.046 -1.03533 -2.82314 0
M  V30 6108 C 640.594 -1.01574 -2.9606 0
M  V30 6109 C 641.069 -1.70945 -4.24902 0
M  V30 6110 N 642.56 -1.67716 -4.3177 0
M  V30 6111 C 643.295 -2.18265 -5.30234 0
M  V30 6112 N 642.791 -2.7711 -6.34966 0
M  V30 6113 N 644.584 -2.08756 -5.21898 0
M  V30 6114 H 636.735 -1.62549 -1.36717 0
M  V30 6115 H 638.998 -0.683676 -0.656727 0
M  V30 6116 H 638.704 -2.09045 -2.8283 0
M  V30 6117 H 638.578 -0.587913 -3.7259 0
M  V30 6118 H 640.965 0.0309834 -2.95084 0
M  V30 6119 H 641.046 -1.50186 -2.07069 0
M  V30 6120 H 640.69 -2.75574 -4.26639 0
M  V30 6121 H 640.62 -1.19797 -5.12793 0
M  V30 6122 H 643.111 -1.24777 -3.56706 0
M  V30 6123 H 643.424 -3.13353 -7.06421 0
M  V30 6124 H 641.769 -2.81171 -6.35585 0
M  V30 6125 H 644.96 -1.62488 -4.38994 0
M  V30 6126 H 645.133 -2.48459 -5.98475 0
M  V30 6127 N 638.539 1.52521 -0.396863 0
M  V30 6128 C 639.486 2.26671 0.434624 0
M  V30 6129 C 640.456 1.28584 1.05144 0
M  V30 6130 O 641.641 1.57426 1.07804 0
M  V30 6131 C 638.781 3.08234 1.55196 0
M  V30 6132 C 637.894 4.21261 0.957262 0
M  V30 6133 C 637.029 4.90205 2.04627 0
M  V30 6134 C 636.068 5.95213 1.42787 0
M  V30 6135 N 635.205 6.57723 2.45651 0
M  V30 6136 H 640.045 2.973 -0.204139 0
M  V30 6137 H 637.582 1.46669 -0.112505 0
M  V30 6138 H 639.54 3.53819 2.2106 0
M  V30 6139 H 638.17 2.398 2.16092 0
M  V30 6140 H 637.222 3.79935 0.188005 0
M  V30 6141 H 638.534 4.96624 0.465416 0
M  V30 6142 H 637.688 5.39133 2.78246 0
M  V30 6143 H 636.427 4.14383 2.57174 0
M  V30 6144 H 635.432 5.45616 0.676968 0
M  V30 6145 H 636.657 6.72972 0.910255 0
M  V30 6146 H 634.603 5.84737 2.97353 0
M  V30 6147 H 634.52 7.28723 2.01243 0
M  V30 6148 H 635.788 7.11293 3.18876 0
M  V30 6149 N 640.017 0.126909 1.57088 0
M  V30 6150 C 640.964 -0.82036 2.15728 0
M  V30 6151 C 641.934 -1.25811 1.08447 0
M  V30 6152 O 643.119 -1.33422 1.36393 0
M  V30 6153 C 640.259 -2.06199 2.76724 0
M  V30 6154 C 639.372 -1.67188 3.98337 0
M  V30 6155 C 638.507 -2.86378 4.47393 0
M  V30 6156 C 637.546 -2.43644 5.61519 0
M  V30 6157 N 636.683 -3.55775 6.05284 0
M  V30 6158 H 641.523 -0.313472 2.96347 0
M  V30 6159 H 639.06 -0.14303 1.46403 0
M  V30 6160 H 641.018 -2.78959 3.10222 0
M  V30 6161 H 639.648 -2.54333 1.98782 0
M  V30 6162 H 638.7 -0.842714 3.70948 0
M  V30 6163 H 640.012 -1.31789 4.81075 0
M  V30 6164 H 639.166 -3.67353 4.82842 0
M  V30 6165 H 637.905 -3.25009 3.63621 0
M  V30 6166 H 636.91 -1.61104 5.25667 0
M  V30 6167 H 638.135 -2.06122 6.47063 0
M  V30 6168 H 636.081 -3.94065 5.24451 0
M  V30 6169 H 635.998 -3.24325 6.82898 0
M  V30 6170 H 637.266 -4.37166 6.45373 0
M  V30 6171 N 641.495 -1.56914 -0.146875 0
M  V30 6172 C 642.442 -1.98275 -1.18134 0
M  V30 6173 C 643.412 -0.850367 -1.42681 0
M  V30 6174 O 644.597 -1.11244 -1.55014 0
M  V30 6175 C 641.737 -2.36861 -2.5098 0
M  V30 6176 C 640.85 -3.63391 -2.33605 0
M  V30 6177 C 639.985 -3.91079 -3.59486 0
M  V30 6178 C 639.024 -5.10879 -3.37149 0
M  V30 6179 N 638.161 -5.34577 -4.55161 0
M  V30 6180 H 643.001 -2.8645 -0.821622 0
M  V30 6181 H 640.538 -1.41718 -0.394248 0
M  V30 6182 H 642.496 -2.57262 -3.28439 0
M  V30 6183 H 641.126 -1.51766 -2.84898 0
M  V30 6184 H 640.178 -3.50766 -1.47199 0
M  V30 6185 H 641.49 -4.51007 -2.13059 0
M  V30 6186 H 640.644 -4.11979 -4.45374 0
M  V30 6187 H 639.383 -3.01885 -3.83036 0
M  V30 6188 H 638.388 -4.89853 -2.49649 0
M  V30 6189 H 639.613 -6.01626 -3.14997 0
M  V30 6190 H 637.559 -4.48337 -4.78884 0
M  V30 6191 H 637.476 -6.16463 -4.37618 0
M  V30 6192 H 638.744 -5.59975 -5.42263 0
M  V30 6193 N 642.974 0.416227 -1.52004 0
M  V30 6194 C 643.884 1.53147 -1.77717 0
M  V30 6195 C 644.9 1.609 -0.662368 0
M  V30 6196 O 646.076 1.77747 -0.946991 0
M  V30 6197 C 643.141 2.88948 -1.91598 0
M  V30 6198 C 642.202 2.9114 -3.15493 0
M  V30 6199 C 641.435 4.20464 -3.28703 0
M  V30 6200 O 641.658 5.13981 -2.47345 0
M  V30 6201 O 640.592 4.29368 -4.21813 0
M  V30 6202 H 644.418 1.34357 -2.72363 0
M  V30 6203 H 642.003 0.601373 -1.36762 0
M  V30 6204 H 643.885 3.69505 -2.02593 0
M  V30 6205 H 642.56 3.07821 -1.00141 0
M  V30 6206 H 641.467 2.09461 -3.09962 0
M  V30 6207 H 642.8 2.77216 -4.06709 0
M  V30 6208 N 644.452 1.42507 0.673017 0
M  V30 6209 C 645.729 1.33554 1.42908 0
M  V30 6210 C 646.109 -0.0262211 2.11084 0
M  V30 6211 O 645.457 -1.04181 2.03368 0
M  V30 6212 C 645.667 2.50498 2.43006 0
M  V30 6213 C 647.015 2.92694 3.07596 0
M  V30 6214 O 648.039 2.50401 2.53333 0
M  V30 6215 O 646.898 3.65899 4.05931 0
M  V30 6216 H 643.992 0.526785 0.637516 0
M  V30 6217 H 646.538 1.54518 0.701591 0
M  V30 6218 H 645.31 3.41272 1.9144 0
M  V30 6219 H 644.933 2.3153 3.23233 0
M  V30 6220 N 645.93 -0.909495 1.28709 0
M  V30 6221 C 646.877 -2.01245 1.13 0
M  V30 6222 C 647.847 -1.6608 0.0259684 0
M  V30 6223 O 649.032 -1.89835 0.191687 0
M  V30 6224 C 646.172 -3.35644 0.802315 0
M  V30 6225 C 645.285 -3.83653 1.98582 0
M  V30 6226 C 644.42 -5.06582 1.59837 0
M  V30 6227 C 643.459 -5.46934 2.74827 0
M  V30 6228 N 642.596 -6.61053 2.36546 0
M  V30 6229 H 647.436 -2.14013 2.0737 0
M  V30 6230 H 644.973 -1.0482 1.03205 0
M  V30 6231 H 646.931 -4.12963 0.593057 0
M  V30 6232 H 645.561 -3.22631 -0.104457 0
M  V30 6233 H 644.613 -3.02454 2.30708 0
M  V30 6234 H 645.925 -4.09515 2.84779 0
M  V30 6235 H 645.079 -5.91457 1.35143 0
M  V30 6236 H 643.818 -4.82537 0.707753 0
M  V30 6237 H 642.823 -4.60599 3.00215 0
M  V30 6238 H 644.048 -5.72965 3.64538 0
M  V30 6239 H 641.994 -6.3863 1.49959 0
M  V30 6240 H 641.911 -6.86662 3.16277 0
M  V30 6241 H 643.179 -7.49221 2.15146 0
M  V30 6242 N 647.408 -1.11026 -1.11852 0
M  V30 6243 C 648.355 -0.764662 -2.17765 0
M  V30 6244 C 649.325 0.261854 -1.64023 0
M  V30 6245 O 650.51 0.139748 -1.90288 0
M  V30 6246 C 647.65 -0.209317 -3.44465 0
M  V30 6247 C 646.763 -1.29187 -4.12231 0
M  V30 6248 C 645.898 -0.697523 -5.266 0
M  V30 6249 C 644.937 -1.76023 -5.86244 0
M  V30 6250 N 644.074 -1.18569 -6.92016 0
M  V30 6251 H 648.914 -1.67202 -2.46673 0
M  V30 6252 H 646.451 -0.835065 -1.21099 0
M  V30 6253 H 648.409 0.130599 -4.16996 0
M  V30 6254 H 647.039 0.661251 -3.15955 0
M  V30 6255 H 646.091 -1.74881 -3.37818 0
M  V30 6256 H 647.403 -2.09607 -4.52622 0
M  V30 6257 H 646.557 -0.307412 -6.05921 0
M  V30 6258 H 645.296 0.138044 -4.87505 0
M  V30 6259 H 644.301 -2.1597 -5.05606 0
M  V30 6260 H 645.526 -2.59875 -6.27409 0
M  V30 6261 H 643.472 -0.371695 -6.54946 0
M  V30 6262 H 643.389 -1.92666 -7.31038 0
M  V30 6263 H 644.657 -0.82233 -7.7515 0
M  V30 6264 N 648.886 1.2938 -0.899927 0
M  V30 6265 C 650.302 1.48052 -0.596059 0
M  V30 6266 C 650.502 1.82114 0.862372 0
M  V30 6267 O 649.558 1.91774 1.64253 0
M  V30 6268 C 650.871 2.59332 -1.52208 0
M  V30 6269 C 652.419 2.73208 -1.5273 0
M  V30 6270 C 652.894 3.87617 -2.43961 0
M  V30 6271 N 654.385 3.9495 -2.42009 0
M  V30 6272 C 655.12 4.82824 -3.09303 0
M  V30 6273 N 654.616 5.75387 -3.85877 0
M  V30 6274 N 656.409 4.76317 -2.98459 0
M  V30 6275 H 648.56 1.05546 -1.8432 0
M  V30 6276 H 650.823 0.524314 -0.78981 0
M  V30 6277 H 650.529 2.41029 -2.56121 0
M  V30 6278 H 650.403 3.56139 -1.24278 0
M  V30 6279 H 652.79 2.90908 -0.495614 0
M  V30 6280 H 652.871 1.76975 -1.84698 0
M  V30 6281 H 652.515 3.70672 -3.47224 0
M  V30 6282 H 652.445 4.83218 -2.09303 0
M  V30 6283 H 654.936 3.28744 -1.86375 0
M  V30 6284 H 655.249 6.39235 -4.34279 0
M  V30 6285 H 653.594 5.75272 -3.89984 0
M  V30 6286 H 656.785 4.0299 -2.38152 0
M  V30 6287 H 656.958 5.44589 -3.51179 0
M  V30 6288 N 650.364 0.662433 1.43002 0
M  V30 6289 C 651.589 0.186003 2.06564 0
M  V30 6290 C 652.014 -1.14314 1.49379 0
M  V30 6291 O 651.372 -1.70824 0.607346 0
M  V30 6292 C 651.42 0.118269 3.60406 0
M  V30 6293 O 650.524 -0.916859 4.02079 0
M  V30 6294 H 649.865 0.0990981 0.656563 0
M  V30 6295 H 652.395 0.907958 1.8335 0
M  V30 6296 H 652.405 -0.0619981 4.07953 0
M  V30 6297 H 651.08 1.08849 4.01403 0
M  V30 6298 H 649.657 -0.708635 3.66105 0
M  V30 6299 N 651.842 -1.52309 0.404946 0
M  V30 6300 C 652.805 -2.25491 -0.410651 0
M  V30 6301 C 653.805 -1.27704 -0.977154 0
M  V30 6302 O 654.995 -1.51679 -0.856691 0
M  V30 6303 C 652.127 -3.02197 -1.57765 0
M  V30 6304 H 653.32 -2.99015 0.230277 0
M  V30 6305 H 650.873 -1.55506 0.157377 0
M  V30 6306 H 651.608 -2.33013 -2.25556 0
M  V30 6307 H 651.393 -3.73987 -1.17797 0
M  V30 6308 H 652.883 -3.57719 -2.15469 0
M  V30 6309 N 653.32 -0.135238 -1.57019 0
M  V30 6310 C 654.23 0.822226 -2.19719 0
M  V30 6311 C 655.246 1.28057 -1.17802 0
M  V30 6312 O 656.422 1.3402 -1.50335 0
M  V30 6313 C 653.487 2.0484 -2.79717 0
M  V30 6314 C 652.548 1.64042 -3.96723 0
M  V30 6315 C 651.781 2.80814 -4.53849 0
M  V30 6316 O 652.004 3.967 -4.0986 0
M  V30 6317 O 650.938 2.56963 -5.44292 0
M  V30 6318 H 654.764 0.318552 -3.02025 0
M  V30 6319 H 652.349 0.0912021 -1.49121 0
M  V30 6320 H 654.231 2.76622 -3.17897 0
M  V30 6321 H 652.906 2.54182 -2.00432 0
M  V30 6322 H 651.813 0.893182 -3.63281 0
M  V30 6323 H 653.146 1.19426 -4.77492 0
M  V30 6324 N 654.798 1.5699 0.138552 0
M  V30 6325 C 655.746 1.99858 1.18994 0
M  V30 6326 C 656.74 0.89231 1.43994 0
M  V30 6327 O 657.946 1.0775 1.44187 0
M  V30 6328 H 654.321 0.636325 0.400743 0
M  V30 6329 H 656.292 2.87427 0.801755 0
M  V30 6330 C 655.041 2.40235 2.51361 0
M  V30 6331 H 654.364 3.24917 2.32957 0
M  V30 6332 H 655.804 2.74045 3.23535 0
M  V30 6333 C 654.263 1.25829 3.1252 0
M  V30 6334 O 654.793 0.563604 3.97727 0
M  V30 6335 N 652.999 1.02036 2.72097 0
M  V30 6336 H 652.546 1.58705 2.02905 0
M  V30 6337 H 652.504 0.256796 3.1335 0
M  V30 6338 N 656.276 -0.40816 1.52223 0
M  V30 6339 C 657.224 -1.51788 1.76248 0
M  V30 6340 C 658.218 -1.57264 0.629638 0
M  V30 6341 O 659.424 -1.60659 0.811704 0
M  V30 6342 H 655.799 -0.504823 0.557367 0
M  V30 6343 H 657.77 -1.2871 2.69214 0
M  V30 6344 C 656.519 -2.89145 1.93107 0
M  V30 6345 H 655.842 -2.85674 2.79697 0
M  V30 6346 H 657.282 -3.66082 2.13916 0
M  V30 6347 C 655.741 -3.29581 0.698431 0
M  V30 6348 O 656.271 -4.01479 -0.133238 0
M  V30 6349 N 654.477 -2.85651 0.53405 0
M  V30 6350 H 654.024 -2.2731 1.21194 0
M  V30 6351 H 653.982 -3.13065 -0.289387 0
M  V30 6352 N 657.755 -1.42862 -0.66545 0
M  V30 6353 C 658.685 -1.49867 -1.79059 0
M  V30 6354 C 659.666 -0.354394 -1.66367 0
M  V30 6355 O 660.851 -0.569969 -1.85647 0
M  V30 6356 C 657.981 -1.40943 -3.17415 0
M  V30 6357 C 656.935 -2.53495 -3.44854 0
M  V30 6358 C 656.261 -2.29626 -4.82883 0
M  V30 6359 C 657.561 -3.95781 -3.40815 0
M  V30 6360 H 659.255 -2.44037 -1.73453 0
M  V30 6361 H 656.801 -1.17456 -0.833071 0
M  V30 6362 H 658.754 -1.4445 -3.95869 0
M  V30 6363 H 657.478 -0.432716 -3.23721 0
M  V30 6364 H 656.137 -2.4932 -2.68766 0
M  V30 6365 H 655.785 -1.30226 -4.8585 0
M  V30 6366 H 655.485 -3.05065 -5.02204 0
M  V30 6367 H 657.009 -2.34897 -5.63609 0
M  V30 6368 H 658.423 -4.01508 -4.09224 0
M  V30 6369 H 656.82 -4.71148 -3.71672 0
M  V30 6370 H 657.89 -4.21786 -2.39216 0
M  V30 6371 N 659.233 0.902656 -1.29189 0
M  V30 6372 C 660.181 2.0278 -1.13943 0
M  V30 6373 C 661.175 1.69308 -0.055787 0
M  V30 6374 O 662.381 1.78707 -0.215371 0
M  V30 6375 H 658.756 0.664595 -0.351877 0
M  V30 6376 H 660.727 2.12778 -2.09208 0
M  V30 6377 C 659.476 3.37657 -0.82966 0
M  V30 6378 H 658.799 3.63913 -1.65551 0
M  V30 6379 H 660.239 4.17078 -0.762998 0
M  V30 6380 C 658.698 3.33648 0.466991 0
M  V30 6381 O 659.228 3.72886 1.49395 0
M  V30 6382 N 657.434 2.86745 0.471761 0
M  V30 6383 H 656.981 2.55009 -0.364406 0
M  V30 6384 H 656.939 2.84446 1.33933 0
M  V30 6385 N 660.711 1.11618 1.11262 0
M  V30 6386 C 661.988 0.777876 1.79467 0
M  V30 6387 C 662.368 -0.733774 1.97937 0
M  V30 6388 O 661.716 -1.66443 1.56554 0
M  V30 6389 C 661.926 1.5431 3.13032 0
M  V30 6390 C 663.274 1.72357 3.88044 0
M  V30 6391 O 664.298 1.5075 3.22727 0
M  V30 6392 O 663.157 2.08276 5.05256 0
M  V30 6393 H 660.251 0.282018 0.777428 0
M  V30 6394 H 662.797 1.21971 1.17988 0
M  V30 6395 H 661.569 2.57132 2.94956 0
M  V30 6396 H 661.192 1.09495 3.82226 0
M  V30 6397 N 662.189 -1.289 0.906776 0
M  V30 6398 C 663.099 -2.31256 0.394707 0
M  V30 6399 C 664.115 -1.66231 -0.514121 0
M  V30 6400 O 665.291 -1.97347 -0.401994 0
M  V30 6401 C 662.356 -3.44792 -0.363191 0
M  V30 6402 C 661.417 -4.25391 0.578012 0
M  V30 6403 C 660.65 -5.33506 -0.143811 0
M  V30 6404 O 660.873 -5.53786 -1.36665 0
M  V30 6405 O 659.807 -5.99673 0.5173 0
M  V30 6406 H 663.633 -2.77051 1.24405 0
M  V30 6407 H 661.218 -1.33466 0.671346 0
M  V30 6408 H 663.1 -4.139 -0.791503 0
M  V30 6409 H 661.775 -3.01093 -1.18848 0
M  V30 6410 H 660.682 -3.58899 1.05558 0
M  V30 6411 H 662.015 -4.72752 1.36992 0
M  V30 6412 N 663.667 -0.670007 -1.42649 0
M  V30 6413 C 664.614 0.0112928 -2.30797 0
M  V30 6414 C 665.584 0.797627 -1.45695 0
M  V30 6415 O 666.769 0.770845 -1.74535 0
M  V30 6416 C 663.909 0.95998 -3.31479 0
M  V30 6417 C 663.022 0.167975 -4.31673 0
M  V30 6418 C 662.157 1.11198 -5.19431 0
M  V30 6419 C 661.196 0.311381 -6.11307 0
M  V30 6420 N 660.333 1.20784 -6.91633 0
M  V30 6421 H 665.173 -0.746231 -2.88505 0
M  V30 6422 H 662.71 -0.379739 -1.42114 0
M  V30 6423 H 664.668 1.52379 -3.88377 0
M  V30 6424 H 663.298 1.68419 -2.75382 0
M  V30 6425 H 662.35 -0.512385 -3.76933 0
M  V30 6426 H 663.662 -0.453814 -4.96731 0
M  V30 6427 H 662.816 1.74587 -5.81037 0
M  V30 6428 H 661.555 1.76766 -4.54538 0
M  V30 6429 H 660.56 -0.335758 -5.48774 0
M  V30 6430 H 661.785 -0.340135 -6.78248 0
M  V30 6431 H 659.731 1.85001 -6.29373 0
M  V30 6432 H 659.648 0.64102 -7.53277 0
M  V30 6433 H 660.916 1.82936 -7.5773 0
M  V30 6434 N 665.145 1.52092 -0.413018 0
M  V30 6435 C 666.093 2.28681 0.425199 0
M  V30 6436 C 667.087 1.3353 1.04241 0
M  V30 6437 O 668.293 1.50973 0.980166 0
M  V30 6438 H 664.668 0.735661 0.155906 0
M  V30 6439 H 666.639 2.97418 -0.241926 0
M  V30 6440 C 665.388 3.1235 1.5275 0
M  V30 6441 H 664.711 3.85439 1.06191 0
M  V30 6442 H 666.151 3.69038 2.08774 0
M  V30 6443 C 664.61 2.26161 2.49706 0
M  V30 6444 O 665.14 1.90452 3.53682 0
M  V30 6445 N 663.346 1.89854 2.20008 0
M  V30 6446 H 662.893 2.19092 1.35486 0
M  V30 6447 H 662.851 1.3248 2.85125 0
M  V30 6448 N 666.623 0.143563 1.56945 0
M  V30 6449 C 667.57 -0.797433 2.16586 0
M  V30 6450 C 668.54 -1.24654 1.09775 0
M  V30 6451 O 669.725 -1.31968 1.37801 0
M  V30 6452 C 666.865 -2.03253 2.78895 0
M  V30 6453 C 665.978 -1.62954 4.00087 0
M  V30 6454 C 665.113 -2.81617 4.50406 0
M  V30 6455 C 664.152 -2.37675 5.64072 0
M  V30 6456 N 663.289 -3.49335 6.09023 0
M  V30 6457 H 668.129 -0.282023 2.96662 0
M  V30 6458 H 665.666 -0.127494 1.46546 0
M  V30 6459 H 667.624 -2.75653 3.13163 0
M  V30 6460 H 666.254 -2.52211 2.01469 0
M  V30 6461 H 665.306 -0.803322 3.71821 0
M  V30 6462 H 666.618 -1.26679 4.82446 0
M  V30 6463 H 665.772 -3.62212 4.86711 0
M  V30 6464 H 664.511 -3.21134 3.67048 0
M  V30 6465 H 663.516 -1.55519 5.27346 0
M  V30 6466 H 664.741 -1.99247 6.49213 0
M  V30 6467 H 662.687 -3.8848 5.28601 0
M  V30 6468 H 662.604 -3.17064 6.86299 0
M  V30 6469 H 663.872 -4.30297 6.49973 0
M  V30 6470 N 668.101 -1.57061 -0.130224 0
M  V30 6471 C 669.512 -1.73539 -0.68856 0
M  V30 6472 C 669.863 -0.760554 -1.80859 0
M  V30 6473 O 668.988 0.0690796 -2.1629 0
M  V30 6474 C 669.583 -3.14666 -1.25581 0
M  V30 6475 C 668.142 -3.32689 -1.76055 0
M  V30 6476 C 667.289 -2.69436 -0.655712 0
M  V30 6477 H 670.24 -1.58412 0.0956002 0
M  V30 6478 H 670.261 -3.15595 -2.12556 0
M  V30 6479 H 669.773 -3.85593 -0.440412 0
M  V30 6480 H 667.874 -2.66786 -2.60108 0
M  V30 6481 H 667.987 -4.4077 -1.87772 0
M  V30 6482 H 666.351 -2.30362 -1.08654 0
M  V30 6483 H 667.134 -3.42979 0.14852 0
M  V30 6484 N 669.579 0.400081 -1.52437 0
M  V30 6485 C 670.995 0.739359 -1.41441 0
M  V30 6486 C 671.195 1.94512 -0.526053 0
M  V30 6487 O 670.251 2.525 0.00472502 0
M  V30 6488 C 671.564 0.984824 -2.84116 0
M  V30 6489 C 673.112 1.08698 -2.93519 0
M  V30 6490 C 673.587 1.36515 -4.37181 0
M  V30 6491 N 675.078 1.43361 -4.40457 0
M  V30 6492 C 675.813 1.66528 -5.48686 0
M  V30 6493 N 675.309 1.87239 -6.67018 0
M  V30 6494 N 677.102 1.68617 -5.36213 0
M  V30 6495 H 669.253 -0.393484 -2.08723 0
M  V30 6496 H 671.516 -0.1138 -0.941145 0
M  V30 6497 H 671.222 0.171096 -3.51284 0
M  V30 6498 H 671.096 1.90253 -3.25705 0
M  V30 6499 H 673.483 1.89129 -2.26526 0
M  V30 6500 H 673.564 0.147432 -2.55375 0
M  V30 6501 H 673.208 0.565982 -5.04737 0
M  V30 6502 H 673.138 2.31737 -4.7287 0
M  V30 6503 H 675.629 1.29108 -3.55161 0
M  V30 6504 H 675.942 2.04392 -7.45281 0
M  V30 6505 H 674.287 1.84486 -6.70067 0
M  V30 6506 H 677.478 1.5198 -4.42741 0
M  V30 6507 H 677.651 1.86332 -6.20632 0
M  V30 6508 N 671.057 1.43213 0.657864 0
M  V30 6509 C 672.004 1.48011 1.77092 0
M  V30 6510 C 672.974 0.330291 1.62783 0
M  V30 6511 O 674.159 0.536787 1.83094 0
M  V30 6512 C 671.299 1.40461 3.15222 0
M  V30 6513 C 670.412 2.65612 3.40697 0
M  V30 6514 C 669.547 2.50083 4.68649 0
M  V30 6515 C 668.586 3.70525 4.87214 0
M  V30 6516 N 667.723 3.53835 6.0642 0
M  V30 6517 H 672.563 2.43121 1.72326 0
M  V30 6518 H 670.1 1.20687 0.841013 0
M  V30 6519 H 672.058 1.34079 3.95068 0
M  V30 6520 H 670.688 0.489359 3.19069 0
M  V30 6521 H 669.74 2.82292 2.54982 0
M  V30 6522 H 671.052 3.5509 3.50303 0
M  V30 6523 H 670.206 2.41383 5.56614 0
M  V30 6524 H 668.945 1.58121 4.61356 0
M  V30 6525 H 667.95 3.79639 3.97686 0
M  V30 6526 H 669.175 4.63489 4.96341 0
M  V30 6527 H 667.121 2.64604 6.00267 0
M  V30 6528 H 667.038 4.36912 6.16963 0
M  V30 6529 H 668.306 3.48978 6.97019 0
M  V30 6530 N 672.536 -0.895792 1.29666 0
M  V30 6531 C 673.784 -1.64339 1.17631 0
M  V30 6532 C 674.105 -1.93099 -0.271643 0
M  V30 6533 O 673.375 -1.55981 -1.18518 0
M  V30 6534 H 671.955 -0.609162 0.432354 0
M  V30 6535 H 674.617 -1.07389 1.62646 0
M  V30 6536 H 673.713 -2.59815 1.72924 0
M  V30 6537 N 674.014 -1.12206 -1.10668 0
M  V30 6538 C 675.261 -0.875875 -1.82578 0
M  V30 6539 C 675.589 0.598342 -1.85068 0
M  V30 6540 O 674.844 1.45818 -1.3052 0
M  V30 6541 C 675.143 -1.39276 -3.29146 0
M  V30 6542 C 674.809 -2.8816 -3.46806 0
M  V30 6543 C 673.471 -3.28813 -3.51334 0
M  V30 6544 C 675.823 -3.8401 -3.52399 0
M  V30 6545 C 673.151 -4.64028 -3.59019 0
M  V30 6546 C 675.503 -5.19053 -3.61617 0
M  V30 6547 C 674.167 -5.59252 -3.64408 0
M  V30 6548 H 673.437 -0.320505 -0.6681 0
M  V30 6549 H 676.084 -1.40184 -1.30464 0
M  V30 6550 H 674.389 -0.787207 -3.8381 0
M  V30 6551 H 676.086 -1.17851 -3.83291 0
M  V30 6552 H 672.676 -2.55716 -3.43958 0
M  V30 6553 H 676.86 -3.53698 -3.48154 0
M  V30 6554 H 672.116 -4.94568 -3.59461 0
M  V30 6555 H 676.29 -5.93152 -3.64889 0
M  V30 6556 H 673.917 -6.64017 -3.70116 0
M  V30 6557 N 675.492 1.28418 -0.913599 0
M  V30 6558 C 676.439 2.27301 -0.400373 0
M  V30 6559 C 677.409 1.57582 0.52509 0
M  V30 6560 O 678.594 1.85482 0.447318 0
M  V30 6561 C 675.734 3.43284 0.35361 0
M  V30 6562 C 674.847 4.27752 -0.604341 0
M  V30 6563 C 673.982 5.30934 0.168075 0
M  V30 6564 C 673.021 6.07065 -0.783499 0
M  V30 6565 N 672.158 7.02086 -0.0446112 0
M  V30 6566 H 676.998 2.70579 -1.24865 0
M  V30 6567 H 674.535 1.33067 -0.627028 0
M  V30 6568 H 676.493 4.09322 0.806945 0
M  V30 6569 H 675.123 3.00997 1.16623 0
M  V30 6570 H 674.175 3.61759 -1.17621 0
M  V30 6571 H 675.487 4.80682 -1.33216 0
M  V30 6572 H 674.641 6.02855 0.681979 0
M  V30 6573 H 673.38 4.78771 0.928947 0
M  V30 6574 H 672.385 5.33995 -1.30878 0
M  V30 6575 H 673.61 6.61317 -1.54392 0
M  V30 6576 H 671.556 6.52273 0.698272 0
M  V30 6577 H 671.473 7.52637 -0.712258 0
M  V30 6578 H 672.741 7.78205 0.449102 0
M  V30 6579 N 676.97 0.677563 1.42291 0
M  V30 6580 C 678.247 0.129803 1.95169 0
M  V30 6581 C 678.627 -1.35605 1.61786 0
M  V30 6582 O 677.975 -2.09361 0.915444 0
M  V30 6583 C 678.185 0.401889 3.46678 0
M  V30 6584 C 679.533 0.319889 4.23393 0
M  V30 6585 O 680.557 0.33579 3.54614 0
M  V30 6586 O 679.416 0.264459 5.4586 0
M  V30 6587 H 676.51 0.00447433 0.826988 0
M  V30 6588 H 679.056 0.752483 1.52105 0
M  V30 6589 H 677.828 1.43108 3.64192 0
M  V30 6590 H 677.451 -0.252662 3.96796 0
M  V30 6591 N 678.448 -1.51871 0.421078 0
M  V30 6592 C 679.678 -2.06057 -0.149723 0
M  V30 6593 C 680.086 -1.29002 -1.38402 0
M  V30 6594 O 679.429 -0.338385 -1.80556 0
M  V30 6595 C 679.491 -3.55216 -0.553339 0
M  V30 6596 C 679.155 -4.53408 0.571879 0
M  V30 6597 C 680.152 -4.99586 1.4391 0
M  V30 6598 C 677.837 -4.967 0.747979 0
M  V30 6599 C 679.831 -5.87711 2.46727 0
M  V30 6600 C 677.518 -5.84619 1.77944 0
M  V30 6601 C 678.516 -6.30021 2.63748 0
M  V30 6602 O 678.204 -7.16197 3.65126 0
M  V30 6603 H 677.936 -0.675744 -0.0186102 0
M  V30 6604 H 680.49 -1.96618 0.594166 0
M  V30 6605 H 678.72 -3.62381 -1.34969 0
M  V30 6606 H 680.409 -3.91992 -1.05342 0
M  V30 6607 H 681.175 -4.66846 1.31451 0
M  V30 6608 H 677.054 -4.60913 0.0897357 0
M  V30 6609 H 680.598 -6.2307 3.13734 0
M  V30 6610 H 676.495 -6.16771 1.90429 0
M  V30 6611 H 677.263 -7.34337 3.61512 0
M  V30 6612 N 679.926 -0.151884 -1.56866 0
M  V30 6613 C 681.174 0.497021 -1.95893 0
M  V30 6614 C 681.495 1.65078 -1.03799 0
M  V30 6615 O 680.765 1.95642 -0.10049 0
M  V30 6616 H 679.345 0.186603 -0.723318 0
M  V30 6617 H 682.007 -0.228525 -1.93556 0
M  V30 6618 H 681.103 0.869933 -2.99731 0
M  V30 6619 N 681.404 1.57128 0.121893 0
M  V30 6620 C 682.354 1.96556 1.15541 0
M  V30 6621 C 683.338 0.840147 1.37224 0
M  V30 6622 O 684.53 1.10382 1.38365 0
M  V30 6623 C 681.659 2.37097 2.48274 0
M  V30 6624 C 680.745 3.56265 2.30078 0
M  V30 6625 N 681.136 4.72041 1.81688 0
M  V30 6626 C 679.434 3.61841 2.60744 0
M  V30 6627 C 680.135 5.54075 1.77132 0
M  V30 6628 N 679.111 4.96483 2.21371 0
M  V30 6629 H 682.913 2.83531 0.77378 0
M  V30 6630 H 680.427 1.59019 0.329672 0
M  V30 6631 H 682.424 2.6356 3.2302 0
M  V30 6632 H 681.084 1.51486 2.87197 0
M  V30 6633 H 682.095 4.95313 1.51278 0
M  V30 6634 H 678.772 2.8683 3.03373 0
M  V30 6635 H 680.162 6.56939 1.40998 0
M  V30 6636 N 682.882 -0.391992 1.52647 0
M  V30 6637 C 684.159 -1.15136 1.58123 0
M  V30 6638 C 684.539 -2.07786 0.372597 0
M  V30 6639 O 683.887 -2.19374 -0.639304 0
M  V30 6640 C 684.097 -1.91367 2.91856 0
M  V30 6641 C 685.445 -2.46833 3.45483 0
M  V30 6642 O 686.469 -2.01527 2.9371 0
M  V30 6643 O 685.328 -3.29587 4.3593 0
M  V30 6644 H 682.422 -0.526649 0.637629 0
M  V30 6645 H 684.968 -0.397386 1.64982 0
M  V30 6646 H 683.74 -1.23597 3.71268 0
M  V30 6647 H 683.363 -2.73732 2.88369 0
M  V30 6648 N 684.36 -1.4356 -0.65026 0
M  V30 6649 C 685.59 -1.48563 -1.4357 0
M  V30 6650 C 685.998 -0.103041 -1.88919 0
M  V30 6651 O 685.341 0.897602 -1.60277 0
M  V30 6652 C 685.403 -2.37181 -2.70158 0
M  V30 6653 C 685.067 -3.84673 -2.4673 0
M  V30 6654 C 686.064 -4.75704 -2.09765 0
M  V30 6655 C 683.749 -4.29189 -2.60963 0
M  V30 6656 C 685.743 -6.09249 -1.87334 0
M  V30 6657 C 683.43 -5.62787 -2.38147 0
M  V30 6658 C 684.428 -6.52634 -2.01389 0
M  V30 6659 O 684.116 -7.83761 -1.78813 0
M  V30 6660 H 683.848 -0.506743 -0.447423 0
M  V30 6661 H 686.402 -1.89001 -0.80423 0
M  V30 6662 H 684.632 -1.91636 -3.35876 0
M  V30 6663 H 686.321 -2.33354 -3.32116 0
M  V30 6664 H 687.087 -4.42589 -1.98343 0
M  V30 6665 H 682.966 -3.59529 -2.88548 0
M  V30 6666 H 686.51 -6.7934 -1.58567 0
M  V30 6667 H 682.407 -5.95469 -2.49173 0
M  V30 6668 H 683.175 -7.95368 -1.93214 0
M  V30 6669 N 685.838 0.888903 -1.30139 0
M  V30 6670 C 686.788 1.9814 -1.12803 0
M  V30 6671 C 687.772 1.60839 -0.0443137 0
M  V30 6672 O 688.964 1.74971 -0.267208 0
M  V30 6673 C 686.093 3.33416 -0.817849 0
M  V30 6674 C 685.179 3.77043 -1.94163 0
M  V30 6675 N 685.57 3.92805 -3.18651 0
M  V30 6676 C 683.868 4.06407 -1.8371 0
M  V30 6677 C 684.569 4.29746 -3.92038 0
M  V30 6678 N 683.545 4.3939 -3.20059 0
M  V30 6679 H 687.347 2.08411 -2.07225 0
M  V30 6680 H 684.861 1.07845 -1.21421 0
M  V30 6681 H 686.858 4.11405 -0.674668 0
M  V30 6682 H 685.518 3.24484 0.118344 0
M  V30 6683 H 686.529 3.78042 -3.53984 0
M  V30 6684 H 683.206 4.05972 -0.974331 0
M  V30 6685 H 684.596 4.49695 -4.99223 0
M  V30 6686 N 687.317 1.12792 1.10072 0
M  V30 6687 C 688.728 0.899346 1.63611 0
M  V30 6688 C 689.079 -0.565547 1.87872 0
M  V30 6689 O 688.204 -1.43081 1.62348 0
M  V30 6690 C 688.799 1.62608 2.97227 0
M  V30 6691 C 687.358 1.44356 3.47618 0
M  V30 6692 C 686.505 1.65958 2.22156 0
M  V30 6693 H 689.456 1.28216 0.935223 0
M  V30 6694 H 689.477 1.0793 3.64872 0
M  V30 6695 H 688.989 2.69221 2.79538 0
M  V30 6696 H 687.09 0.400148 3.70445 0
M  V30 6697 H 687.203 2.20218 4.25489 0
M  V30 6698 H 685.567 1.08395 2.30484 0
M  V30 6699 H 686.35 2.73877 2.06993 0
M  V30 6700 N 688.795 -1.27931 0.920396 0
M  V30 6701 C 689.758 -2.25345 0.41858 0
M  V30 6702 C 690.758 -1.54116 -0.458798 0
M  V30 6703 O 691.948 -1.72235 -0.260912 0
M  V30 6704 C 689.08 -3.38556 -0.399104 0
M  V30 6705 H 690.273 -2.71251 1.27918 0
M  V30 6706 H 687.826 -1.39728 0.700406 0
M  V30 6707 H 688.561 -2.98021 -1.27882 0
M  V30 6708 H 688.346 -3.91426 0.229863 0
M  V30 6709 H 689.836 -4.10976 -0.740817 0
M  V30 6710 N 690.273 -0.685099 -1.4193 0
M  V30 6711 C 691.684 -0.287699 -1.8447 0
M  V30 6712 C 692.035 1.17215 -1.57338 0
M  V30 6713 O 691.16 1.89856 -1.03845 0
M  V30 6714 C 691.755 -0.515385 -3.34857 0
M  V30 6715 C 690.314 -0.172006 -3.76007 0
M  V30 6716 C 689.461 -0.802808 -2.65425 0
M  V30 6717 H 692.412 -0.88652 -1.3163 0
M  V30 6718 H 692.433 0.229251 -3.79809 0
M  V30 6719 H 691.945 -1.57796 -3.54573 0
M  V30 6720 H 690.046 0.886716 -3.61895 0
M  V30 6721 H 690.159 -0.619717 -4.75075 0
M  V30 6722 H 688.523 -0.233267 -2.5363 0
M  V30 6723 H 689.306 -1.86904 -2.87961 0
M  V30 6724 N 691.751 1.51645 -0.429126 0
M  V30 6725 C 692.698 2.27542 0.386446 0
M  V30 6726 C 693.668 1.30786 1.02393 0
M  V30 6727 O 694.853 1.59678 1.0444 0
M  V30 6728 C 691.993 3.11457 1.48623 0
M  V30 6729 C 691.106 4.23196 0.867691 0
M  V30 6730 C 690.241 4.94435 1.94183 0
M  V30 6731 C 689.28 5.98108 1.30129 0
M  V30 6732 N 688.417 6.62786 2.31644 0
M  V30 6733 H 693.257 2.968 -0.267155 0
M  V30 6734 H 690.794 1.46397 -0.143591 0
M  V30 6735 H 692.752 3.58429 2.13506 0
M  V30 6736 H 691.382 2.44329 2.10957 0
M  V30 6737 H 690.434 3.80248 0.107373 0
M  V30 6738 H 691.746 4.97499 0.35997 0
M  V30 6739 H 690.9 5.44914 2.66747 0
M  V30 6740 H 689.639 4.19744 2.48326 0
M  V30 6741 H 688.644 5.4693 0.561082 0
M  V30 6742 H 689.869 6.74751 0.767303 0
M  V30 6743 H 687.815 5.90913 2.84883 0
M  V30 6744 H 687.732 7.32828 1.85741 0
M  V30 6745 H 689 7.17897 3.03717 0
M  V30 6746 N 693.229 0.160201 1.56784 0
M  V30 6747 C 694.457 -0.494165 2.00912 0
M  V30 6748 C 694.872 -1.57548 1.04038 0
M  V30 6749 O 694.229 -1.82457 0.0394581 0
M  V30 6750 C 694.28 -1.08271 3.44905 0
M  V30 6751 O 694.001 -0.0445704 4.38077 0
M  V30 6752 C 695.502 -1.8164 4.04378 0
M  V30 6753 H 692.722 -0.127498 0.658776 0
M  V30 6754 H 695.266 0.258665 2.02858 0
M  V30 6755 H 693.421 -1.78609 3.4377 0
M  V30 6756 H 693.835 -0.477544 5.22322 0
M  V30 6757 H 695.309 -2.18094 5.07089 0
M  V30 6758 H 695.786 -2.70727 3.45838 0
M  V30 6759 H 696.392 -1.15969 4.09184 0
M  V30 6760 N 694.707 -1.5719 -0.113559 0
M  V30 6761 C 695.617 -2.04041 -1.15777 0
M  V30 6762 C 696.633 -0.961812 -1.45001 0
M  V30 6763 O 697.809 -1.2737 -1.56009 0
M  V30 6764 C 694.874 -2.43994 -2.46308 0
M  V30 6765 C 693.935 -3.65962 -2.24433 0
M  V30 6766 C 693.168 -4.04 -3.4874 0
M  V30 6767 O 693.391 -3.42321 -4.56259 0
M  V30 6768 O 692.325 -4.97069 -3.3942 0
M  V30 6769 H 696.151 -2.93248 -0.789899 0
M  V30 6770 H 693.736 -1.45828 -0.324748 0
M  V30 6771 H 695.618 -2.70401 -3.23204 0
M  V30 6772 H 694.293 -1.57932 -2.82558 0
M  V30 6773 H 693.2 -3.44697 -1.45377 0
M  V30 6774 H 694.533 -4.52746 -1.93084 0
M  V30 6775 N 696.185 0.383891 -1.52853 0
M  V30 6776 C 697.133 1.48965 -1.7864 0
M  V30 6777 C 698.127 1.56242 -0.654577 0
M  V30 6778 O 699.333 1.59347 -0.83716 0
M  V30 6779 H 695.708 0.495892 -0.565328 0
M  V30 6780 H 697.679 1.24411 -2.71228 0
M  V30 6781 C 696.428 2.86036 -1.97683 0
M  V30 6782 H 695.751 2.81188 -2.84206 0
M  V30 6783 H 697.191 3.62632 -2.19713 0
M  V30 6784 C 695.65 3.28428 -0.750776 0
M  V30 6785 O 696.18 4.0164 0.0693491 0
M  V30 6786 N 694.386 2.84765 -0.579427 0
M  V30 6787 H 693.933 2.25353 -1.24795 0
M  V30 6788 H 693.891 3.13486 0.239544 0
M  V30 6789 N 697.663 1.43903 0.642637 0
M  V30 6790 C 698.912 1.45362 1.39831 0
M  V30 6791 C 699.225 0.0856289 1.95412 0
M  V30 6792 O 700.431 -0.0222856 2.71491 0
M  V30 6793 C 698.887 2.55857 2.53111 0
M  V30 6794 C 698.495 3.98811 2.04092 0
M  V30 6795 C 700.239 2.66524 3.30402 0
M  V30 6796 C 698.146 5.00751 3.14647 0
M  V30 6797 H 697.076 0.540777 0.52543 0
M  V30 6798 H 699.727 1.69929 0.692559 0
M  V30 6799 H 698.109 2.2451 3.26207 0
M  V30 6800 H 699.283 4.3967 1.37938 0
M  V30 6801 H 697.598 3.92284 1.39651 0
M  V30 6802 H 700.195 3.39858 4.12796 0
M  V30 6803 H 700.538 1.71949 3.79129 0
M  V30 6804 H 701.071 2.97224 2.64392 0
M  V30 6805 H 697.81 5.96914 2.70876 0
M  V30 6806 H 697.33 4.64495 3.79479 0
M  V30 6807 H 699.009 5.23933 3.79609 0
M  V30 6808 N 699.141 -0.881989 1.30609 0
M  V30 6809 C 700.088 -1.98803 1.17244 0
M  V30 6810 C 701.058 -1.65987 0.0611905 0
M  V30 6811 O 702.243 -1.89385 0.231911 0
M  V30 6812 C 699.383 -3.33867 0.87333 0
M  V30 6813 C 698.496 -3.79354 2.06675 0
M  V30 6814 C 697.631 -5.03078 1.70547 0
M  V30 6815 C 696.67 -5.40981 2.86366 0
M  V30 6816 N 695.807 -6.55886 2.50514 0
M  V30 6817 H 700.647 -2.09566 2.11863 0
M  V30 6818 H 698.184 -1.02607 1.05405 0
M  V30 6819 H 700.142 -4.11612 0.680519 0
M  V30 6820 H 698.772 -3.2278 -0.0359983 0
M  V30 6821 H 697.824 -2.97492 2.37071 0
M  V30 6822 H 699.136 -4.03382 2.93401 0
M  V30 6823 H 698.29 -5.88457 1.47658 0
M  V30 6824 H 697.029 -4.80927 0.809947 0
M  V30 6825 H 696.034 -4.54127 3.09917 0
M  V30 6826 H 697.259 -5.65104 3.76609 0
M  V30 6827 H 695.205 -6.35306 1.63471 0
M  V30 6828 H 695.122 -6.79799 3.30771 0
M  V30 6829 H 696.39 -7.44489 2.30989 0
M  V30 6830 N 700.619 -1.13374 -1.09472 0
M  V30 6831 C 701.867 -0.893422 -1.8128 0
M  V30 6832 C 702.188 0.582029 -1.86111 0
M  V30 6833 O 701.458 1.42305 -1.34633 0
M  V30 6834 H 700.038 -0.327543 -0.67136 0
M  V30 6835 H 702.7 -1.43018 -1.32408 0
M  V30 6836 H 701.796 -1.28374 -2.84476 0
M  V30 6837 N 702.098 1.27442 -0.927168 0
M  V30 6838 C 703.028 2.29256 -0.443188 0
M  V30 6839 C 704.009 1.62701 0.49624 0
M  V30 6840 O 705.194 1.90013 0.401105 0
M  V30 6841 C 702.324 3.45955 0.305366 0
M  V30 6842 C 701.278 4.24501 -0.546178 0
M  V30 6843 C 700.604 5.33671 0.331512 0
M  V30 6844 C 701.904 4.89921 -1.81037 0
M  V30 6845 H 703.598 2.69988 -1.29409 0
M  V30 6846 H 701.144 1.29792 -0.623705 0
M  V30 6847 H 703.097 4.1628 0.654885 0
M  V30 6848 H 701.821 3.04138 1.19029 0
M  V30 6849 H 700.48 3.55921 -0.878398 0
M  V30 6850 H 700.128 4.88096 1.21537 0
M  V30 6851 H 699.828 5.87131 -0.234746 0
M  V30 6852 H 701.352 6.0684 0.676614 0
M  V30 6853 H 702.766 5.52536 -1.52895 0
M  V30 6854 H 701.163 5.53436 -2.32009 0
M  V30 6855 H 702.233 4.13652 -2.53021 0
M  V30 6856 N 703.576 0.692616 1.41565 0
M  V30 6857 C 704.824 0.221896 2.00878 0
M  V30 6858 C 705.145 -1.18164 1.5512 0
M  V30 6859 O 704.415 -1.79679 0.78054 0
M  V30 6860 H 702.995 0.0790463 0.742806 0
M  V30 6861 H 705.657 0.893115 1.73232 0
M  V30 6862 H 704.753 0.23702 3.11199 0
M  V30 6863 N 705.054 -1.51416 0.437162 0
M  V30 6864 C 706.331 -1.94682 -0.189292 0
M  V30 6865 C 706.711 -1.37581 -1.60108 0
M  V30 6866 O 706.059 -0.562815 -2.2146 0
M  V30 6867 C 706.269 -3.48599 -0.167201 0
M  V30 6868 C 707.617 -4.2296 -0.372856 0
M  V30 6869 O 708.641 -3.55354 -0.245323 0
M  V30 6870 O 707.5 -5.42895 -0.626693 0
M  V30 6871 H 704.594 -0.816708 -0.130063 0
M  V30 6872 H 707.14 -1.62316 0.495128 0
M  V30 6873 H 705.912 -3.82616 0.81981 0
M  V30 6874 H 705.535 -3.87406 -0.894537 0
M  V30 6875 N 706.532 -0.168513 -1.56696 0
M  V30 6876 C 707.462 0.758563 -2.20835 0
M  V30 6877 C 708.443 1.24121 -1.1631 0
M  V30 6878 O 709.628 1.29487 -1.4473 0
M  V30 6879 C 706.758 1.9892 -2.8469 0
M  V30 6880 C 705.712 1.64252 -3.95228 0
M  V30 6881 C 705.038 2.94757 -4.46119 0
M  V30 6882 C 706.338 0.872675 -5.14958 0
M  V30 6883 H 708.032 0.223953 -2.98561 0
M  V30 6884 H 705.578 0.106277 -1.43607 0
M  V30 6885 H 707.531 2.64275 -3.28233 0
M  V30 6886 H 706.255 2.5479 -2.04327 0
M  V30 6887 H 704.914 1.01266 -3.52336 0
M  V30 6888 H 704.562 3.48662 -3.62552 0
M  V30 6889 H 704.262 2.72316 -5.2069 0
M  V30 6890 H 705.786 3.61147 -4.92347 0
M  V30 6891 H 707.2 1.42875 -5.55211 0
M  V30 6892 H 705.597 0.747402 -5.95428 0
M  V30 6893 H 706.667 -0.131535 -4.84722 0
M  V30 6894 N 708.01 1.57248 0.105221 0
M  V30 6895 C 708.957 2.01338 1.12835 0
M  V30 6896 C 709.927 0.887897 1.40377 0
M  V30 6897 O 711.112 1.15315 1.5201 0
M  V30 6898 C 708.252 2.43432 2.44611 0
M  V30 6899 C 707.365 3.69457 2.23888 0
M  V30 6900 C 706.5 4.00473 3.48991 0
M  V30 6901 C 705.539 5.19638 3.23485 0
M  V30 6902 N 704.676 5.46457 4.40828 0
M  V30 6903 H 709.516 2.88527 0.745386 0
M  V30 6904 H 707.053 1.42714 0.356535 0
M  V30 6905 H 709.011 2.65879 3.21503 0
M  V30 6906 H 707.641 1.59266 2.80774 0
M  V30 6907 H 706.693 3.54545 1.37847 0
M  V30 6908 H 708.005 4.56497 2.01026 0
M  V30 6909 H 707.159 4.23642 4.34295 0
M  V30 6910 H 705.898 3.11935 3.74897 0
M  V30 6911 H 704.903 4.96299 2.36574 0
M  V30 6912 H 706.128 6.09766 2.98935 0
M  V30 6913 H 704.074 4.60876 4.66829 0
M  V30 6914 H 703.991 6.27849 4.2112 0
M  V30 6915 H 705.259 5.74155 5.27225 0
M  V30 6916 N 709.488 -0.375779 1.53054 0
M  V30 6917 C 710.899 -0.95309 1.6054 0
M  V30 6918 C 711.25 -1.90575 0.466446 0
M  V30 6919 O 710.375 -2.12507 -0.408609 0
M  V30 6920 C 710.97 -1.73537 2.90982 0
M  V30 6921 C 709.529 -2.26218 3.00836 0
M  V30 6922 C 708.676 -1.07157 2.55759 0
M  V30 6923 H 711.627 -0.154895 1.57942 0
M  V30 6924 H 711.648 -2.59574 2.78211 0
M  V30 6925 H 711.16 -1.04176 3.73857 0
M  V30 6926 H 709.261 -2.98852 2.22527 0
M  V30 6927 H 709.374 -2.54799 4.05727 0
M  V30 6928 H 707.738 -1.43553 2.10391 0
M  V30 6929 H 708.521 -0.393099 3.41042 0
M  V30 6930 N 710.966 -1.44241 -0.634997 0
M  V30 6931 C 712.214 -1.46531 -1.39187 0
M  V30 6932 C 712.535 -0.0976441 -1.94755 0
M  V30 6933 O 711.805 0.869528 -1.75545 0
M  V30 6934 H 710.385 -0.539544 -0.516625 0
M  V30 6935 H 713.047 -1.79989 -0.747655 0
M  V30 6936 H 712.143 -2.18848 -2.22513 0
M  V30 6937 N 712.444 0.87505 -1.31075 0
M  V30 6938 C 713.693 1.62245 -1.19831 0
M  V30 6939 C 714.006 1.94078 0.24357 0
M  V30 6940 O 715.212 2.67265 0.477646 0
M  V30 6941 C 713.668 2.92464 -2.09744 0
M  V30 6942 C 713.276 2.68134 -3.58898 0
M  V30 6943 C 715.02 3.70449 -2.07287 0
M  V30 6944 C 712.927 3.9423 -4.40836 0
M  V30 6945 H 711.857 0.608741 -0.444916 0
M  V30 6946 H 714.508 0.967947 -1.55894 0
M  V30 6947 H 712.89 3.59262 -1.66574 0
M  V30 6948 H 714.064 2.09776 -4.10281 0
M  V30 6949 H 712.379 2.03511 -3.6328 0
M  V30 6950 H 714.976 4.63983 -2.65752 0
M  V30 6951 H 715.319 4.02611 -1.05876 0
M  V30 6952 H 715.852 3.10528 -2.48631 0
M  V30 6953 H 712.591 3.67221 -5.42982 0
M  V30 6954 H 712.111 4.52058 -3.94213 0
M  V30 6955 H 713.79 4.62162 -4.52786 0
M  V30 6956 N 713.922 1.13953 1.08869 0
M  V30 6957 C 715.333 0.916649 1.62648 0
M  V30 6958 C 715.684 -0.545589 1.88462 0
M  V30 6959 O 714.809 -1.41351 1.63856 0
M  V30 6960 C 715.404 1.65751 2.95486 0
M  V30 6961 C 713.963 1.48034 3.46068 0
M  V30 6962 C 713.11 1.68305 2.20383 0
M  V30 6963 H 716.061 1.292 0.921572 0
M  V30 6964 H 716.082 1.11794 3.63707 0
M  V30 6965 H 715.594 2.72171 2.76667 0
M  V30 6966 H 713.695 0.439416 3.7 0
M  V30 6967 H 713.808 2.24719 4.23129 0
M  V30 6968 H 712.172 1.10833 2.29321 0
M  V30 6969 H 712.955 2.76057 2.04077 0
M  V30 6970 N 715.4 -1.26948 0.933913 0
M  V30 6971 C 716.347 -2.26635 0.436484 0
M  V30 6972 C 717.317 -1.58397 -0.499953 0
M  V30 6973 O 718.502 -1.86171 -0.417753 0
M  V30 6974 C 715.642 -3.43803 -0.298951 0
M  V30 6975 C 714.755 -4.26736 0.672316 0
M  V30 6976 C 713.89 -5.31134 -0.0835872 0
M  V30 6977 C 712.929 -6.05742 0.879979 0
M  V30 6978 N 712.066 -7.01926 0.156301 0
M  V30 6979 H 716.906 -2.68558 1.29154 0
M  V30 6980 H 714.443 -1.32052 0.648118 0
M  V30 6981 H 716.401 -4.10554 -0.741723 0
M  V30 6982 H 715.031 -3.02814 -1.1182 0
M  V30 6983 H 714.083 -3.59842 1.23361 0
M  V30 6984 H 715.395 -4.78502 1.40846 0
M  V30 6985 H 714.549 -6.03863 -0.585984 0
M  V30 6986 H 713.288 -4.80188 -0.852661 0
M  V30 6987 H 712.293 -5.31846 1.39357 0
M  V30 6988 H 713.518 -6.58777 1.64894 0
M  V30 6989 H 711.464 -6.53301 -0.594413 0
M  V30 6990 H 711.381 -7.51409 0.831906 0
M  V30 6991 H 712.649 -7.78821 -0.325239 0
M  V30 6992 N 716.879 -0.700114 -1.41195 0
M  V30 6993 C 718.107 -0.242179 -2.05478 0
M  V30 6994 C 718.522 1.11029 -1.52702 0
M  V30 6995 O 717.879 1.69473 -0.677127 0
M  V30 6996 C 717.93 -0.196271 -3.60967 0
M  V30 6997 O 717.651 -1.49532 -4.11791 0
M  V30 6998 C 719.152 0.282102 -4.42401 0
M  V30 6999 H 716.372 -0.111749 -0.661629 0
M  V30 7000 H 718.916 -0.953975 -1.80885 0
M  V30 7001 H 717.071 0.46638 -3.84582 0
M  V30 7002 H 717.485 -1.38545 -5.05871 0
M  V30 7003 H 718.959 0.263093 -5.51373 0
M  V30 7004 H 719.436 1.32174 -4.1884 0
M  V30 7005 H 720.042 -0.349712 -4.2386 0
M  V30 7006 N 718.357 1.51182 -0.445186 0
M  V30 7007 C 719.768 1.86693 0.0160999 0
M  V30 7008 C 720.119 1.36183 1.4124 0
M  V30 7009 O 719.244 0.715895 2.04215 0
M  V30 7010 C 719.839 3.38781 0.0359918 0
M  V30 7011 C 718.398 3.73799 0.441715 0
M  V30 7012 C 717.545 2.74947 -0.360511 0
M  V30 7013 H 720.496 1.44294 -0.660674 0
M  V30 7014 H 720.517 3.71026 0.843813 0
M  V30 7015 H 720.029 3.75513 -0.980378 0
M  V30 7016 H 718.13 3.42659 1.4634 0
M  V30 7017 H 718.243 4.78829 0.16106 0
M  V30 7018 H 716.607 2.54047 0.182269 0
M  V30 7019 H 717.39 3.14521 -1.3759 0
M  V30 7020 N 719.835 0.176821 1.56605 0
M  V30 7021 C 720.782 -0.751312 2.18229 0
M  V30 7022 C 721.752 -1.22297 1.12395 0
M  V30 7023 O 722.937 -1.29015 1.40569 0
M  V30 7024 C 720.077 -1.97291 2.83143 0
M  V30 7025 C 719.19 -1.54431 4.03454 0
M  V30 7026 C 718.325 -2.72 4.56278 0
M  V30 7027 C 717.364 -2.25657 5.68986 0
M  V30 7028 N 716.501 -3.36338 6.16296 0
M  V30 7029 H 721.341 -0.219033 2.97194 0
M  V30 7030 H 718.878 -0.0963803 1.46784 0
M  V30 7031 H 720.836 -2.68949 3.1894 0
M  V30 7032 H 719.466 -2.4788 2.06773 0
M  V30 7033 H 718.518 -0.724273 3.73441 0
M  V30 7034 H 719.83 -1.16417 4.85024 0
M  V30 7035 H 718.984 -3.51806 4.94285 0
M  V30 7036 H 717.723 -3.13277 3.73777 0
M  V30 7037 H 716.728 -1.44299 5.30526 0
M  V30 7038 H 717.953 -1.85432 6.53293 0
M  V30 7039 H 715.899 -3.7718 5.36723 0
M  V30 7040 H 715.816 -3.02435 6.9287 0
M  V30 7041 H 717.084 -4.16413 6.58954 0
M  V30 7042 N 721.313 -1.57302 -0.09688 0
M  V30 7043 C 722.245 -1.98618 -1.14384 0
M  V30 7044 C 723.258 -0.888483 -1.36418 0
M  V30 7045 O 724.447 -1.16661 -1.35101 0
M  V30 7046 C 721.547 -2.28838 -2.49973 0
M  V30 7047 C 720.72 -3.60132 -2.48241 0
M  V30 7048 C 719.779 -3.7831 -3.65743 0
M  V30 7049 O 718.805 -4.50183 -3.48316 0
M  V30 7050 N 720.007 -3.18752 -4.85157 0
M  V30 7051 H 722.772 -2.8904 -0.792202 0
M  V30 7052 H 720.333 -1.59356 -0.285883 0
M  V30 7053 H 722.325 -2.38193 -3.27179 0
M  V30 7054 H 720.895 -1.44431 -2.77233 0
M  V30 7055 H 720.115 -3.61763 -1.56593 0
M  V30 7056 H 721.403 -4.46389 -2.4416 0
M  V30 7057 H 720.801 -2.60368 -5.0222 0
M  V30 7058 H 719.358 -3.33595 -5.59962 0
M  V30 7059 N 722.791 0.367657 -1.53252 0
M  V30 7060 C 723.739 1.47061 -1.8021 0
M  V30 7061 C 724.733 1.55539 -0.671112 0
M  V30 7062 O 725.939 1.58451 -0.854014 0
M  V30 7063 H 722.314 0.489868 -0.570555 0
M  V30 7064 H 724.285 1.21527 -2.72532 0
M  V30 7065 C 723.034 2.83924 -2.00706 0
M  V30 7066 H 722.357 2.78158 -2.87172 0
M  V30 7067 H 723.797 3.60281 -2.23547 0
M  V30 7068 C 722.256 3.27613 -0.785568 0
M  V30 7069 O 722.786 4.01691 0.0267459 0
M  V30 7070 N 720.992 2.84134 -0.609597 0
M  V30 7071 H 720.539 2.24017 -1.27178 0
M  V30 7072 H 720.497 3.13723 0.206281 0
M  V30 7073 N 724.269 1.44576 0.627338 0
M  V30 7074 C 725.517 1.47267 1.38408 0
M  V30 7075 C 725.838 0.107971 1.94701 0
M  V30 7076 O 725.108 -0.860206 1.76004 0
M  V30 7077 H 723.688 0.542276 0.513756 0
M  V30 7078 H 726.35 1.80383 0.738099 0
M  V30 7079 H 725.446 2.20025 2.21349 0
M  V30 7080 N 725.747 -0.868086 1.31537 0
M  V30 7081 C 726.995 -1.61807 1.21091 0
M  V30 7082 C 727.316 -1.93631 -0.230623 0
M  V30 7083 O 726.586 -1.5846 -1.15183 0
M  V30 7084 H 725.166 -0.599854 0.445178 0
M  V30 7085 H 727.828 -1.03915 1.64887 0
M  V30 7086 H 726.924 -2.56088 1.78396 0
M  V30 7087 N 727.225 -1.14528 -1.08264 0
M  V30 7088 C 728.473 -0.912599 -1.80322 0
M  V30 7089 C 728.794 0.562256 -1.86718 0
M  V30 7090 O 728.064 1.40869 -1.36135 0
M  V30 7091 H 726.644 -0.334645 -0.667849 0
M  V30 7092 H 729.306 -1.44415 -1.30883 0
M  V30 7093 H 728.402 -1.31384 -2.83098 0
M  V30 7094 N 728.703 1.26451 -0.940633 0
M  V30 7095 C 729.65 2.264 -0.448497 0
M  V30 7096 C 730.62 1.5866 0.491546 0
M  V30 7097 O 731.805 1.86389 0.407874 0
M  V30 7098 C 728.945 3.43956 0.280715 0
M  V30 7099 C 728.058 4.26374 -0.694937 0
M  V30 7100 C 727.193 5.31171 0.0554186 0
M  V30 7101 C 726.232 6.05266 -0.912091 0
M  V30 7102 N 725.369 7.01833 -0.193524 0
M  V30 7103 H 730.209 2.67869 -1.30576 0
M  V30 7104 H 727.746 1.31707 -0.655112 0
M  V30 7105 H 729.704 4.10941 0.71994 0
M  V30 7106 H 728.334 3.03403 1.10212 0
M  V30 7107 H 727.386 3.59183 -1.25267 0
M  V30 7108 H 728.698 4.77748 -1.43382 0
M  V30 7109 H 727.852 6.04166 0.553951 0
M  V30 7110 H 726.591 4.80634 0.827183 0
M  V30 7111 H 725.596 5.31099 -1.42175 0
M  V30 7112 H 726.821 6.57893 -1.68385 0
M  V30 7113 H 724.767 6.53607 0.559758 0
M  V30 7114 H 724.684 7.50957 -0.871744 0
M  V30 7115 H 725.952 7.78983 0.283932 0
M  V30 7116 N 730.181 0.707592 1.40822 0
M  V30 7117 C 731.597 0.38034 1.55002 0
M  V30 7118 C 731.797 -1.11163 1.68062 0
M  V30 7119 O 730.853 -1.89761 1.66574 0
M  V30 7120 C 732.166 1.1394 2.78277 0
M  V30 7121 C 733.714 1.12492 2.92087 0
M  V30 7122 C 734.189 1.86597 4.18265 0
M  V30 7123 N 735.68 1.83626 4.25248 0
M  V30 7124 C 736.415 2.37794 5.21768 0
M  V30 7125 N 735.911 3.00485 6.24244 0
M  V30 7126 N 737.704 2.27982 5.13791 0
M  V30 7127 H 729.855 1.67511 1.3059 0
M  V30 7128 H 732.118 0.707579 0.630901 0
M  V30 7129 H 731.824 2.19398 2.74877 0
M  V30 7130 H 731.698 0.725793 3.70151 0
M  V30 7131 H 734.085 0.0785564 2.94995 0
M  V30 7132 H 734.166 1.57768 2.01353 0
M  V30 7133 H 733.81 2.91219 4.16118 0
M  V30 7134 H 733.74 1.38746 5.07993 0
M  V30 7135 H 736.231 1.3793 3.51829 0
M  V30 7136 H 736.544 3.39355 6.94304 0
M  V30 7137 H 734.889 3.04567 6.24711 0
M  V30 7138 H 738.08 1.78669 4.3266 0
M  V30 7139 H 738.253 2.70499 5.88841 0
M  V30 7140 N 731.66 -1.50943 0.453197 0
M  V30 7141 C 732.607 -2.28128 -0.350197 0
M  V30 7142 C 733.577 -1.32398 -1.00299 0
M  V30 7143 O 734.762 -1.61319 -1.01887 0
M  V30 7144 C 731.902 -3.13782 -1.43649 0
M  V30 7145 C 731.015 -4.24523 -0.800255 0
M  V30 7146 C 730.15 -4.97462 -1.86293 0
M  V30 7147 C 729.189 -6.00102 -1.20598 0
M  V30 7148 N 728.326 -6.66387 -2.21071 0
M  V30 7149 H 733.166 -2.96337 0.31434 0
M  V30 7150 H 730.703 -1.46151 0.166863 0
M  V30 7151 H 732.661 -3.6178 -2.07776 0
M  V30 7152 H 731.291 -2.47655 -2.07044 0
M  V30 7153 H 730.343 -3.80371 -0.0468651 0
M  V30 7154 H 731.655 -4.98009 -0.280777 0
M  V30 7155 H 730.809 -5.49088 -2.58044 0
M  V30 7156 H 729.548 -4.23642 -2.41617 0
M  V30 7157 H 728.553 -5.47753 -0.474 0
M  V30 7158 H 729.778 -6.75887 -0.659859 0
M  V30 7159 H 727.724 -5.9537 -2.75446 0
M  V30 7160 H 727.641 -7.3569 -1.74058 0
M  V30 7161 H 728.909 -7.22638 -2.92257 0
M  V30 7162 N 733.138 -0.185124 -1.56509 0
M  V30 7163 C 734.554 0.170865 -1.58683 0
M  V30 7164 C 734.754 1.61799 -1.20098 0
M  V30 7165 O 733.81 2.35181 -0.919038 0
M  V30 7166 C 735.123 -0.122459 -3.00451 0
M  V30 7167 C 736.671 -0.0617699 -3.12939 0
M  V30 7168 C 737.146 -0.328269 -4.56822 0
M  V30 7169 N 738.637 -0.276533 -4.62374 0
M  V30 7170 C 739.372 -0.456722 -5.71578 0
M  V30 7171 N 738.868 -0.69672 -6.89288 0
M  V30 7172 N 740.661 -0.391669 -5.60734 0
M  V30 7173 H 732.812 -1.12956 -1.79874 0
M  V30 7174 H 735.075 -0.45011 -0.834329 0
M  V30 7175 H 734.781 -1.12546 -3.33206 0
M  V30 7176 H 734.655 0.579578 -3.72721 0
M  V30 7177 H 737.042 0.931826 -2.80002 0
M  V30 7178 H 737.123 -0.796732 -2.43076 0
M  V30 7179 H 736.767 -1.31914 -4.9047 0
M  V30 7180 H 736.697 0.427465 -5.24862 0
M  V30 7181 H 739.188 -0.0972458 -3.77775 0
M  V30 7182 H 739.501 -0.823291 -7.68402 0
M  V30 7183 H 737.846 -0.733497 -6.91119 0
M  V30 7184 H 741.037 -0.204663 -4.67652 0
M  V30 7185 H 741.21 -0.535518 -6.45783 0
M  V30 7186 N 734.616 1.57351 0.0885366 0
M  V30 7187 C 735.862 1.87564 0.786842 0
M  V30 7188 C 736.217 0.776774 1.76023 0
M  V30 7189 O 735.51 -0.220637 1.90325 0
M  V30 7190 C 735.704 3.22098 1.5488 0
M  V30 7191 C 735.533 4.44967 0.650706 0
M  V30 7192 C 734.303 5.04444 0.293957 0
M  V30 7193 C 736.501 5.1428 -0.0452187 0
M  V30 7194 N 734.483 6.10846 -0.611609 0
M  V30 7195 C 735.854 6.14704 -0.808603 0
M  V30 7196 C 737.909 4.97759 -0.118451 0
M  V30 7197 C 736.612 7.00392 -1.63839 0
M  V30 7198 C 738.638 5.8396 -0.935157 0
M  V30 7199 C 738 6.83909 -1.68664 0
M  V30 7200 H 734.099 0.73613 0.263887 0
M  V30 7201 H 736.683 1.94638 0.049074 0
M  V30 7202 H 734.854 3.16064 2.2574 0
M  V30 7203 H 736.586 3.40015 2.19481 0
M  V30 7204 H 733.341 4.69214 0.643086 0
M  V30 7205 H 733.765 6.68695 -1.05714 0
M  V30 7206 H 738.407 4.20418 0.448202 0
M  V30 7207 H 736.125 7.7712 -2.21608 0
M  V30 7208 H 739.711 5.73236 -0.994579 0
M  V30 7209 H 738.591 7.49454 -2.30842 0
M  V30 7210 N 736.094 -0.359525 1.53444 0
M  V30 7211 C 737.322 -1.12198 1.73837 0
M  V30 7212 C 737.737 -1.82854 0.470107 0
M  V30 7213 O 737.094 -1.73781 -0.557349 0
M  V30 7214 C 737.145 -2.14769 2.90786 0
M  V30 7215 O 736.866 -1.46989 4.12706 0
M  V30 7216 C 738.367 -3.03514 3.231 0
M  V30 7217 H 735.587 -0.33524 0.581253 0
M  V30 7218 H 738.131 -0.416598 2.00212 0
M  V30 7219 H 736.286 -2.80896 2.66788 0
M  V30 7220 H 736.7 -2.15378 4.78239 0
M  V30 7221 H 738.174 -3.71453 4.08322 0
M  V30 7222 H 738.651 -3.68658 2.38721 0
M  V30 7223 H 739.257 -2.42996 3.49046 0
M  V30 7224 N 737.572 -1.44907 -0.619662 0
M  V30 7225 C 738.82 -1.47999 -1.37625 0
M  V30 7226 C 739.141 -0.118295 -1.94641 0
M  V30 7227 O 738.411 0.85086 -1.76457 0
M  V30 7228 H 736.991 -0.544993 -0.510873 0
M  V30 7229 H 739.653 -1.80772 -0.728522 0
M  V30 7230 H 738.749 -2.21196 -2.20179 0
M  V30 7231 N 739.05 0.861098 -1.31996 0
M  V30 7232 C 740.327 1.59788 -1.12814 0
M  V30 7233 C 740.707 2.08753 0.313882 0
M  V30 7234 O 740.055 1.87258 1.30946 0
M  V30 7235 C 740.265 2.74901 -2.15012 0
M  V30 7236 C 741.613 3.44643 -2.48004 0
M  V30 7237 O 742.637 2.85119 -2.13508 0
M  V30 7238 O 741.496 4.52044 -3.07113 0
M  V30 7239 H 738.59 0.703408 -0.434909 0
M  V30 7240 H 741.136 0.905788 -1.43505 0
M  V30 7241 H 739.908 2.36198 -3.11971 0
M  V30 7242 H 739.531 3.51792 -1.85279 0
M  V30 7243 N 740.528 1.15101 1.07655 0
M  V30 7244 C 741.475 0.844958 2.14777 0
M  V30 7245 C 742.445 -0.200798 1.64882 0
M  V30 7246 O 743.63 -0.0690278 1.90675 0
M  V30 7247 C 740.77 0.337018 3.4345 0
M  V30 7248 C 739.883 1.44398 4.07153 0
M  V30 7249 C 739.018 0.892487 5.23649 0
M  V30 7250 C 738.057 1.9766 5.79307 0
M  V30 7251 N 737.194 1.44171 6.87138 0
M  V30 7252 H 742.034 1.76242 2.40297 0
M  V30 7253 H 739.571 0.879435 1.17917 0
M  V30 7254 H 741.529 0.024256 4.17193 0
M  V30 7255 H 740.159 -0.543531 3.18191 0
M  V30 7256 H 739.211 1.87299 3.31094 0
M  V30 7257 H 740.523 2.26262 4.4453 0
M  V30 7258 H 739.677 0.532083 6.04362 0
M  V30 7259 H 738.416 0.0429854 4.87681 0
M  V30 7260 H 737.421 2.34586 4.97242 0
M  V30 7261 H 738.646 2.82982 6.17331 0
M  V30 7262 H 736.592 0.614518 6.53115 0
M  V30 7263 H 736.509 2.19665 7.23383 0
M  V30 7264 H 737.777 1.10945 7.71564 0
M  V30 7265 N 742.006 -1.2595 0.947325 0
M  V30 7266 C 743.254 -1.93081 0.596996 0
M  V30 7267 C 743.575 -1.74632 -0.867672 0
M  V30 7268 O 742.845 -1.1056 -1.6172 0
M  V30 7269 H 741.425 -0.714542 0.217805 0
M  V30 7270 H 744.087 -1.53265 1.20398 0
M  V30 7271 H 743.183 -3.01134 0.82004 0
M  V30 7272 N 743.484 -0.715051 -1.40445 0
M  V30 7273 C 744.9 -0.388555 -1.54798 0
M  V30 7274 C 745.1 1.10271 -1.68649 0
M  V30 7275 O 744.156 1.88875 -1.67578 0
M  V30 7276 C 745.469 -1.15414 -2.77669 0
M  V30 7277 C 747.017 -1.14039 -2.91486 0
M  V30 7278 C 747.492 -1.88812 -4.1727 0
M  V30 7279 N 748.983 -1.85878 -4.24268 0
M  V30 7280 C 749.718 -2.40558 -5.20499 0
M  V30 7281 N 749.214 -3.03791 -6.22642 0
M  V30 7282 N 751.007 -2.30703 -5.12574 0
M  V30 7283 H 743.158 -1.68201 -1.297 0
M  V30 7284 H 745.421 -0.710915 -0.627139 0
M  V30 7285 H 745.127 -2.20853 -2.7371 0
M  V30 7286 H 745.001 -0.745412 -3.69761 0
M  V30 7287 H 747.388 -0.0941996 -2.9495 0
M  V30 7288 H 747.469 -1.58834 -2.00513 0
M  V30 7289 H 747.113 -2.93422 -4.14568 0
M  V30 7290 H 747.043 -1.41438 -5.0725 0
M  V30 7291 H 749.534 -1.39794 -3.51093 0
M  V30 7292 H 749.847 -3.43032 -6.92495 0
M  V30 7293 H 748.192 -3.07875 -6.23087 0
M  V30 7294 H 751.383 -1.80961 -4.31707 0
M  V30 7295 H 751.556 -2.73618 -5.87398 0
M  V30 7296 N 744.962 1.50701 -0.461195 0
M  V30 7297 C 745.909 2.2831 0.338094 0
M  V30 7298 C 746.879 1.32928 0.995957 0
M  V30 7299 O 748.064 1.61857 1.0103 0
M  V30 7300 C 745.204 3.14539 1.41983 0
M  V30 7301 C 744.317 4.24942 0.77773 0
M  V30 7302 C 743.452 4.98443 1.83652 0
M  V30 7303 C 742.491 6.00733 1.17413 0
M  V30 7304 N 741.628 6.6755 2.17533 0
M  V30 7305 H 746.468 2.96167 -0.330051 0
M  V30 7306 H 744.005 1.4606 -0.174611 0
M  V30 7307 H 745.963 3.62877 2.05855 0
M  V30 7308 H 744.593 2.48749 2.05727 0
M  V30 7309 H 743.645 3.80391 0.0266924 0
M  V30 7310 H 744.957 4.98151 0.254362 0
M  V30 7311 H 744.111 5.50449 2.55129 0
M  V30 7312 H 742.85 4.24917 2.39367 0
M  V30 7313 H 741.855 5.47997 0.444944 0
M  V30 7314 H 743.08 6.76227 0.624006 0
M  V30 7315 H 741.026 5.96823 2.72284 0
M  V30 7316 H 740.943 7.36603 1.70154 0
M  V30 7317 H 742.211 7.24178 2.88421 0
M  V30 7318 N 746.441 0.193421 1.56409 0
M  V30 7319 C 747.69 -0.445995 1.96707 0
M  V30 7320 C 748.003 -1.62876 1.08309 0
M  V30 7321 O 749.209 -2.33586 1.38383 0
M  V30 7322 C 747.665 -0.844863 3.49843 0
M  V30 7323 C 747.273 0.31352 4.46902 0
M  V30 7324 C 749.017 -1.45146 3.98915 0
M  V30 7325 C 746.924 -0.106214 5.91305 0
M  V30 7326 H 745.854 -0.170398 0.734493 0
M  V30 7327 H 748.505 0.285172 1.81271 0
M  V30 7328 H 746.887 -1.63265 3.60778 0
M  V30 7329 H 748.061 1.09103 4.47698 0
M  V30 7330 H 746.376 0.8315 4.08014 0
M  V30 7331 H 748.973 -1.77792 5.04276 0
M  V30 7332 H 749.316 -2.35734 3.43126 0
M  V30 7333 H 749.849 -0.727675 3.91088 0
M  V30 7334 H 746.588 0.765442 6.51016 0
M  V30 7335 H 746.108 -0.848623 5.93766 0
M  V30 7336 H 747.787 -0.542588 6.44721 0
M  V30 7337 N 747.919 -1.57396 -0.0801906 0
M  V30 7338 C 749.149 -1.90778 -0.792924 0
M  V30 7339 C 749.557 -0.786814 -1.72064 0
M  V30 7340 O 748.9 0.249259 -1.82001 0
M  V30 7341 C 748.962 -3.19552 -1.64702 0
M  V30 7342 C 748.626 -4.48259 -0.889567 0
M  V30 7343 C 749.623 -5.19465 -0.212602 0
M  V30 7344 C 747.308 -4.94896 -0.859229 0
M  V30 7345 C 749.302 -6.35555 0.484566 0
M  V30 7346 C 746.989 -6.10895 -0.158284 0
M  V30 7347 C 747.987 -6.81075 0.512421 0
M  V30 7348 O 747.675 -7.94862 1.20209 0
M  V30 7349 H 747.407 -0.63527 -0.231103 0
M  V30 7350 H 749.961 -2.0532 -0.0573081 0
M  V30 7351 H 748.191 -3.01196 -2.42524 0
M  V30 7352 H 749.88 -3.38649 -2.23767 0
M  V30 7353 H 750.646 -4.84467 -0.227403 0
M  V30 7354 H 746.525 -4.4015 -1.37073 0
M  V30 7355 H 750.069 -6.9027 1.00864 0
M  V30 7356 H 745.966 -6.45345 -0.141381 0
M  V30 7357 H 746.734 -8.10932 1.11051 0
M  V30 7358 N 749.397 0.351382 -1.53633 0
M  V30 7359 C 750.307 1.45471 -1.84052 0
M  V30 7360 C 751.323 1.57945 -0.730015 0
M  V30 7361 O 752.499 1.73571 -1.02153 0
M  V30 7362 C 749.564 2.80562 -2.03681 0
M  V30 7363 C 748.625 2.77497 -3.27558 0
M  V30 7364 C 747.858 4.06144 -3.46241 0
M  V30 7365 O 748.081 5.03028 -2.68922 0
M  V30 7366 O 747.015 4.11092 -4.39645 0
M  V30 7367 H 750.841 1.22684 -2.77817 0
M  V30 7368 H 748.426 0.542827 -1.3919 0
M  V30 7369 H 750.308 3.6058 -2.18082 0
M  V30 7370 H 748.983 3.03296 -1.13106 0
M  V30 7371 H 747.89 1.96126 -3.18568 0
M  V30 7372 H 749.223 2.59716 -4.18101 0
M  V30 7373 N 750.875 1.45233 0.611969 0
M  V30 7374 C 752.121 1.50233 1.37119 0
M  V30 7375 C 752.476 0.140336 1.91888 0
M  V30 7376 O 751.769 -0.847161 1.71854 0
M  V30 7377 C 751.963 2.51353 2.54079 0
M  V30 7378 C 751.792 3.97251 2.10764 0
M  V30 7379 C 750.562 4.65256 1.97141 0
M  V30 7380 C 752.76 4.85914 1.68499 0
M  V30 7381 N 750.742 5.95895 1.4759 0
M  V30 7382 C 752.113 6.06147 1.30331 0
M  V30 7383 C 754.168 4.72813 1.56051 0
M  V30 7384 C 752.871 7.14729 0.809591 0
M  V30 7385 C 754.897 5.8144 1.08083 0
M  V30 7386 C 754.259 7.00825 0.708775 0
M  V30 7387 H 750.358 0.604708 0.495835 0
M  V30 7388 H 752.942 1.81679 0.700055 0
M  V30 7389 H 751.113 2.21866 3.18795 0
M  V30 7390 H 752.845 2.46528 3.20945 0
M  V30 7391 H 749.6 4.20345 2.18191 0
M  V30 7392 H 750.024 6.65349 1.25059 0
M  V30 7393 H 754.666 3.80931 1.83443 0
M  V30 7394 H 752.384 8.06404 0.523215 0
M  V30 7395 H 755.97 5.73335 0.988842 0
M  V30 7396 H 754.85 7.83448 0.343305 0
M  V30 7397 N 752.353 -0.854086 1.3245 0
M  V30 7398 C 753.63 -1.59188 1.1366 0
M  V30 7399 C 754.01 -2.08917 -0.302807 0
M  V30 7400 O 753.358 -1.8795 -1.29951 0
M  V30 7401 C 753.568 -2.73757 2.16467 0
M  V30 7402 C 754.916 -3.43323 2.49829 0
M  V30 7403 O 755.94 -2.83983 2.15017 0
M  V30 7404 O 754.799 -4.50409 3.09506 0
M  V30 7405 H 751.893 -0.701092 0.438633 0
M  V30 7406 H 754.439 -0.898165 1.43983 0
M  V30 7407 H 753.211 -2.3454 3.1322 0
M  V30 7408 H 752.834 -3.50804 1.87142 0
M  V30 7409 N 753.831 -1.1567 -1.07043 0
M  V30 7410 C 755.056 -0.957946 -1.83952 0
M  V30 7411 C 755.481 0.488807 -1.81638 0
M  V30 7412 O 754.839 1.34869 -1.21162 0
M  V30 7413 C 754.887 -1.48064 -3.288 0
M  V30 7414 O 753.991 -0.681921 -4.06723 0
M  V30 7415 H 753.332 -0.341453 -0.569479 0
M  V30 7416 H 755.862 -1.53728 -1.35015 0
M  V30 7417 H 755.872 -1.49484 -3.7963 0
M  V30 7418 H 754.547 -2.53388 -3.29799 0
M  V30 7419 H 753.124 -0.737612 -3.65532 0
M  V30 7420 N 755.309 1.25446 -0.953992 0
M  V30 7421 C 756.241 2.25111 -0.431004 0
M  V30 7422 C 757.254 1.56377 0.452764 0
M  V30 7423 O 758.443 1.76579 0.261144 0
M  V30 7424 C 755.543 3.3655 0.39839 0
M  V30 7425 C 754.716 4.34843 -0.472229 0
M  V30 7426 C 753.775 5.25351 0.29886 0
M  V30 7427 O 752.801 5.68396 -0.302522 0
M  V30 7428 N 754.003 5.5824 1.59211 0
M  V30 7429 H 756.768 2.70619 -1.28785 0
M  V30 7430 H 754.329 1.39346 -0.824281 0
M  V30 7431 H 756.321 3.94059 0.921941 0
M  V30 7432 H 754.891 2.90436 1.15609 0
M  V30 7433 H 754.111 3.76222 -1.17689 0
M  V30 7434 H 755.399 4.97497 -1.06648 0
M  V30 7435 H 754.797 5.25172 2.10264 0
M  V30 7436 H 753.354 6.18336 2.06164 0
M  V30 7437 N 756.787 0.722489 1.40064 0
M  V30 7438 C 757.737 0.0506801 2.27944 0
M  V30 7439 C 758.721 -0.725493 1.43615 0
M  V30 7440 O 759.913 -0.596559 1.66644 0
M  V30 7441 C 757.042 -0.865195 3.32219 0
M  V30 7442 C 756.128 -0.0838393 4.24017 0
M  V30 7443 N 756.519 0.936516 4.97054 0
M  V30 7444 C 754.817 -0.315371 4.44884 0
M  V30 7445 C 755.518 1.4066 5.64437 0
M  V30 7446 N 754.494 0.727485 5.3871 0
M  V30 7447 H 758.296 0.832609 2.8186 0
M  V30 7448 H 755.81 0.555691 1.52597 0
M  V30 7449 H 757.807 -1.36186 3.94029 0
M  V30 7450 H 756.467 -1.64642 2.79862 0
M  V30 7451 H 757.478 1.31755 5.0086 0
M  V30 7452 H 754.155 -1.07238 4.03492 0
M  V30 7453 H 755.545 2.25482 6.32936 0
M  V30 7454 N 758.265 -1.50454 0.469181 0
M  V30 7455 C 759.513 -2.01916 -0.0862982 0
M  V30 7456 C 759.834 -1.35337 -1.40388 0
M  V30 7457 O 759.104 -0.498096 -1.89462 0
M  V30 7458 H 757.684 -0.746185 -0.0348825 0
M  V30 7459 H 760.346 -1.84804 0.619167 0
M  V30 7460 H 759.442 -3.11182 -0.239189 0
M  V30 7461 N 759.743 -0.201713 -1.56304 0
M  V30 7462 C 760.653 0.728296 -2.23009 0
M  V30 7463 C 761.669 1.22945 -1.23128 0
M  V30 7464 O 762.845 1.27523 -1.55884 0
M  V30 7465 C 759.91 1.92792 -2.88153 0
M  V30 7466 C 758.971 1.47068 -4.03323 0
M  V30 7467 C 758.204 2.61312 -4.65351 0
M  V30 7468 O 758.427 3.7896 -4.26317 0
M  V30 7469 O 757.361 2.33646 -5.54701 0
M  V30 7470 H 761.187 0.190166 -3.03104 0
M  V30 7471 H 758.772 0.0278725 -1.49374 0
M  V30 7472 H 760.654 2.6289 -3.29343 0
M  V30 7473 H 759.329 2.45452 -2.11033 0
M  V30 7474 H 758.236 0.738299 -3.66742 0
M  V30 7475 H 759.569 0.990666 -4.82127 0
M  V30 7476 N 761.222 1.57436 0.0718424 0
M  V30 7477 C 762.152 2.06724 1.08571 0
M  V30 7478 C 763.133 0.960731 1.40371 0
M  V30 7479 O 764.318 1.23345 1.49999 0
M  V30 7480 C 761.448 2.51112 2.39916 0
M  V30 7481 C 760.402 3.65639 2.22469 0
M  V30 7482 C 759.728 3.96082 3.59198 0
M  V30 7483 C 761.028 4.95687 1.64596 0
M  V30 7484 H 762.722 2.91679 0.675569 0
M  V30 7485 H 760.268 1.40319 0.32352 0
M  V30 7486 H 762.221 2.84206 3.11135 0
M  V30 7487 H 760.945 1.63186 2.8291 0
M  V30 7488 H 759.604 3.32828 1.53691 0
M  V30 7489 H 759.252 3.05287 3.99761 0
M  V30 7490 H 758.952 4.73199 3.48362 0
M  V30 7491 H 760.476 4.31672 4.31847 0
M  V30 7492 H 761.89 5.27011 2.25681 0
M  V30 7493 H 760.287 5.77126 1.64457 0
M  V30 7494 H 761.357 4.8108 0.60744 0
M  V30 7495 N 762.7 -0.34323 1.53817 0
M  V30 7496 C 763.61 -1.44493 1.84821 0
M  V30 7497 C 764.626 -1.57556 0.738381 0
M  V30 7498 O 765.802 -1.73026 1.03072 0
M  V30 7499 C 762.867 -2.79478 2.05166 0
M  V30 7500 C 761.928 -2.75756 3.29025 0
M  V30 7501 C 761.161 -4.04302 3.4839 0
M  V30 7502 O 761.384 -5.01595 2.71586 0
M  V30 7503 O 760.318 -4.08754 4.41819 0
M  V30 7504 H 764.144 -1.21209 2.78464 0
M  V30 7505 H 761.729 -0.535437 1.39476 0
M  V30 7506 H 763.611 -3.59419 2.19991 0
M  V30 7507 H 762.286 -3.02692 1.14713 0
M  V30 7508 H 761.193 -1.94434 3.19603 0
M  V30 7509 H 762.526 -2.57495 4.19472 0
M  V30 7510 N 764.178 -1.45556 -0.604258 0
M  V30 7511 C 765.426 -1.4945 -1.36048 0
M  V30 7512 C 765.747 -0.138933 -1.94504 0
M  V30 7513 O 765.017 0.832097 -1.7735 0
M  V30 7514 H 763.597 -0.550381 -0.505064 0
M  V30 7515 H 766.259 -1.81535 -0.709308 0
M  V30 7516 H 765.355 -2.23519 -2.17821 0
M  V30 7517 N 765.656 0.84705 -1.32902 0
M  V30 7518 C 766.886 1.63166 -1.26729 0
M  V30 7519 C 767.294 1.88474 0.165595 0
M  V30 7520 O 766.637 1.45947 1.11558 0
M  V30 7521 C 766.699 3.0103 -1.96522 0
M  V30 7522 C 766.363 2.9873 -3.45846 0
M  V30 7523 C 767.36 2.75032 -4.41196 0
M  V30 7524 C 765.045 3.19125 -3.87898 0
M  V30 7525 C 767.039 2.71743 -5.76571 0
M  V30 7526 C 764.726 3.15462 -5.2338 0
M  V30 7527 C 765.724 2.91801 -6.17528 0
M  V30 7528 O 765.412 2.88027 -7.5053 0
M  V30 7529 H 765.144 0.51469 -0.438258 0
M  V30 7530 H 767.698 1.06383 -1.75704 0
M  V30 7531 H 765.928 3.59634 -1.42128 0
M  V30 7532 H 767.617 3.61821 -1.83958 0
M  V30 7533 H 768.383 2.59034 -4.10032 0
M  V30 7534 H 764.262 3.36565 -3.15032 0
M  V30 7535 H 767.806 2.53194 -6.5003 0
M  V30 7536 H 763.703 3.31006 -5.54171 0
M  V30 7537 H 764.471 3.03927 -7.59981 0
M  V30 7538 N 767.134 1.16236 1.06428 0
M  V30 7539 C 768.55 0.906983 1.31324 0
M  V30 7540 C 768.75 -0.440872 1.96618 0
M  V30 7541 O 767.806 -1.1807 2.23194 0
M  V30 7542 C 769.119 2.05501 2.19522 0
M  V30 7543 C 770.667 2.09061 2.32943 0
M  V30 7544 C 771.142 3.23214 3.24495 0
M  V30 7545 N 772.633 3.22922 3.32078 0
M  V30 7546 C 773.368 4.07889 4.03006 0
M  V30 7547 N 772.864 5.02941 4.76469 0
M  V30 7548 N 774.657 3.95881 3.99043 0
M  V30 7549 H 766.808 2.03015 0.624388 0
M  V30 7550 H 769.071 0.88576 0.337835 0
M  V30 7551 H 768.777 3.02847 1.78819 0
M  V30 7552 H 768.651 1.99538 3.201 0
M  V30 7553 H 771.038 1.12308 2.72893 0
M  V30 7554 H 771.119 2.19089 1.32037 0
M  V30 7555 H 770.763 4.20225 2.85261 0
M  V30 7556 H 770.693 3.10423 4.25377 0
M  V30 7557 H 773.184 2.54093 2.79724 0
M  V30 7558 H 773.497 5.64196 5.28112 0
M  V30 7559 H 771.842 5.06922 4.75453 0
M  V30 7560 H 775.033 3.20927 3.40769 0
M  V30 7561 H 775.206 4.62321 4.54052 0
M  V30 7562 N 768.612 -1.24939 0.960631 0
M  V30 7563 C 769.575 -2.239 0.49006 0
M  V30 7564 C 770.575 -1.55497 -0.409535 0
M  V30 7565 O 771.765 -1.72978 -0.205984 0
M  V30 7566 C 768.897 -3.39654 -0.291193 0
M  V30 7567 H 770.09 -2.67044 1.36482 0
M  V30 7568 H 767.643 -1.37429 0.744505 0
M  V30 7569 H 768.378 -3.01939 -1.18336 0
M  V30 7570 H 768.163 -3.90496 0.354276 0
M  V30 7571 H 769.653 -4.13125 -0.609693 0
M  V30 7572 N 770.09 -0.729906 -1.39679 0
M  V30 7573 C 771.315 -0.284345 -2.05442 0
M  V30 7574 C 771.74 1.07056 -1.54663 0
M  V30 7575 O 771.098 1.67732 -0.688157 0
M  V30 7576 C 771.146 -0.290089 -3.59431 0
M  V30 7577 O 770.25 0.723978 -4.05995 0
M  V30 7578 H 769.591 -0.130311 -0.651088 0
M  V30 7579 H 772.121 -0.994403 -1.78809 0
M  V30 7580 H 772.131 -0.132712 -4.07784 0
M  V30 7581 H 770.806 -1.27877 -3.95753 0
M  V30 7582 H 769.383 0.533154 -3.69069 0
M  V30 7583 N 771.568 1.50203 -0.477153 0
M  V30 7584 C 772.845 1.95115 0.137609 0
M  V30 7585 C 773.225 1.41778 1.56404 0
M  V30 7586 O 772.573 0.621333 2.1989 0
M  V30 7587 C 772.783 3.4892 0.0747168 0
M  V30 7588 C 774.131 4.238 0.260585 0
M  V30 7589 O 775.155 3.5588 0.151021 0
M  V30 7590 O 774.014 5.44366 0.482534 0
M  V30 7591 H 771.108 0.81987 0.108364 0
M  V30 7592 H 773.654 1.60946 -0.537989 0
M  V30 7593 H 772.426 3.80308 -0.920966 0
M  V30 7594 H 772.049 3.89642 0.791509 0
M  V30 7595 N 773.046 0.209999 1.56195 0
M  V30 7596 C 774.294 -0.423974 1.97603 0
M  V30 7597 C 774.615 -1.61112 1.09854 0
M  V30 7598 O 773.885 -1.95134 0.173032 0
M  V30 7599 H 772.465 -0.159629 0.729745 0
M  V30 7600 H 775.127 0.300205 1.92574 0
M  V30 7601 H 774.223 -0.75809 3.02753 0
M  V30 7602 N 774.524 -1.57472 -0.0634922 0
M  V30 7603 C 775.456 -2.00999 -1.10145 0
M  V30 7604 C 776.469 -0.917219 -1.34503 0
M  V30 7605 O 777.658 -1.19501 -1.32596 0
M  V30 7606 C 774.758 -2.34089 -2.45063 0
M  V30 7607 C 773.931 -3.65317 -2.40546 0
M  V30 7608 C 772.99 -3.85982 -3.57637 0
M  V30 7609 O 772.016 -4.5747 -3.38689 0
M  V30 7610 N 773.218 -3.28971 -4.78287 0
M  V30 7611 H 775.983 -2.90656 -0.730714 0
M  V30 7612 H 773.544 -1.59926 -0.252017 0
M  V30 7613 H 775.536 -2.4508 -3.22053 0
M  V30 7614 H 774.106 -1.50279 -2.74107 0
M  V30 7615 H 773.326 -3.65003 -1.48885 0
M  V30 7616 H 774.614 -4.51468 -2.34636 0
M  V30 7617 H 774.012 -2.70962 -4.96584 0
M  V30 7618 H 772.569 -3.45398 -5.5276 0
M  V30 7619 N 776.003 0.335068 -1.53997 0
M  V30 7620 C 776.953 1.4127 -1.7896 0
M  V30 7621 C 777.937 1.474 -0.64513 0
M  V30 7622 O 779.129 1.52127 -0.904785 0
M  V30 7623 C 776.258 2.78292 -2.01018 0
M  V30 7624 C 775.344 2.7652 -3.21555 0
M  V30 7625 N 775.735 2.44374 -4.42849 0
M  V30 7626 C 774.033 3.0766 -3.22895 0
M  V30 7627 C 774.734 2.51049 -5.24737 0
M  V30 7628 N 773.71 2.8702 -4.6165 0
M  V30 7629 H 777.512 1.15327 -2.70327 0
M  V30 7630 H 775.026 0.543483 -1.53036 0
M  V30 7631 H 777.023 3.55949 -2.17039 0
M  V30 7632 H 775.683 3.05175 -1.10898 0
M  V30 7633 H 776.694 2.17422 -4.70051 0
M  V30 7634 H 773.371 3.3966 -2.42771 0
M  V30 7635 H 774.761 2.29283 -6.31569 0
M  V30 7636 N 777.481 1.45874 0.596531 0
M  V30 7637 C 778.411 1.5824 1.71705 0
M  V30 7638 C 779.392 0.433366 1.64487 0
M  V30 7639 O 780.577 0.657895 1.82717 0
M  V30 7640 C 777.707 1.55927 3.10329 0
M  V30 7641 C 776.661 2.69659 3.32367 0
M  V30 7642 C 775.987 2.52403 4.71377 0
M  V30 7643 C 777.287 4.11591 3.21544 0
M  V30 7644 H 778.981 2.52035 1.61613 0
M  V30 7645 H 776.527 1.21297 0.776082 0
M  V30 7646 H 778.48 1.63173 3.88526 0
M  V30 7647 H 777.204 0.586674 3.21288 0
M  V30 7648 H 775.863 2.61859 2.56564 0
M  V30 7649 H 775.511 1.53258 4.79083 0
M  V30 7650 H 775.211 3.28679 4.87077 0
M  V30 7651 H 776.735 2.6152 5.5176 0
M  V30 7652 H 778.149 4.20576 3.89601 0
M  V30 7653 H 776.546 4.88344 3.4877 0
M  V30 7654 H 777.616 4.32719 2.1882 0
M  V30 7655 N 778.959 -0.83999 1.33349 0
M  V30 7656 C 780.207 -1.59202 1.24496 0
M  V30 7657 C 780.528 -1.94077 -0.189499 0
M  V30 7658 O 779.798 -1.60868 -1.11796 0
M  V30 7659 H 778.378 -0.590276 0.457802 0
M  V30 7660 H 781.04 -1.00394 1.67054 0
M  V30 7661 H 780.136 -2.52247 1.83788 0
M  V30 7662 N 780.437 -1.16799 -1.0581 0
M  V30 7663 C 781.662 -0.977402 -1.82925 0
M  V30 7664 C 782.087 0.469514 -1.82146 0
M  V30 7665 O 781.445 1.33576 -1.22585 0
M  V30 7666 C 781.493 -1.51543 -3.27211 0
M  V30 7667 O 780.597 -0.725021 -4.05977 0
M  V30 7668 H 779.938 -0.347474 -0.565825 0
M  V30 7669 H 782.468 -1.55151 -1.33376 0
M  V30 7670 H 782.478 -1.53502 -3.78023 0
M  V30 7671 H 781.153 -2.56872 -3.27093 0
M  V30 7672 H 779.73 -0.77634 -3.64729 0
M  V30 7673 N 781.915 1.24427 -0.967243 0
M  V30 7674 C 783.162 1.92487 -0.62888 0
M  V30 7675 C 783.49 1.75623 0.835871 0
M  V30 7676 O 782.745 1.1027 1.61675 0
M  V30 7677 C 783.044 3.44568 -0.949096 0
M  V30 7678 C 782.71 3.816 -2.40192 0
M  V30 7679 C 781.372 3.9142 -2.799 0
M  V30 7680 C 783.724 3.99715 -3.34481 0
M  V30 7681 C 781.052 4.16771 -4.12939 0
M  V30 7682 C 783.404 4.26562 -4.67148 0
M  V30 7683 C 782.068 4.34601 -5.06634 0
M  V30 7684 H 781.338 0.704361 -0.230124 0
M  V30 7685 H 783.985 1.4772 -1.21864 0
M  V30 7686 H 782.29 3.90819 -0.277085 0
M  V30 7687 H 783.987 3.95436 -0.665692 0
M  V30 7688 H 780.577 3.74522 -2.08402 0
M  V30 7689 H 784.761 3.91531 -3.04987 0
M  V30 7690 H 780.017 4.21214 -4.43158 0
M  V30 7691 H 784.191 4.39523 -5.40178 0
M  V30 7692 H 781.818 4.53998 -6.09746 0
M  V30 7693 N 783.393 0.737304 1.3929 0
M  V30 7694 C 784.67 0.212464 1.94443 0
M  V30 7695 C 785.05 -1.28621 1.67391 0
M  V30 7696 O 784.398 -2.0529 1.00342 0
M  V30 7697 C 784.608 0.548565 3.44662 0
M  V30 7698 C 785.956 0.499177 4.21656 0
M  V30 7699 O 786.98 0.485892 3.5287 0
M  V30 7700 O 785.839 0.495739 5.44247 0
M  V30 7701 H 782.933 0.0395457 0.826054 0
M  V30 7702 H 785.479 0.816319 1.48776 0
M  V30 7703 H 784.251 1.58426 3.57795 0
M  V30 7704 H 783.874 -0.0841399 3.97511 0
M  V30 7705 N 784.871 -1.49948 0.485112 0
M  V30 7706 C 786.282 -1.8667 0.0334041 0
M  V30 7707 C 786.633 -1.3988 -1.37579 0
M  V30 7708 O 785.758 -0.769788 -2.02245 0
M  V30 7709 C 786.353 -3.38757 0.0538426 0
M  V30 7710 C 784.912 -3.74839 -0.342453 0
M  V30 7711 C 784.059 -2.73894 0.433281 0
M  V30 7712 H 787.01 -1.42492 0.698699 0
M  V30 7713 H 787.031 -3.73132 -0.745146 0
M  V30 7714 H 786.543 -3.72782 1.07959 0
M  V30 7715 H 784.644 -3.46419 -1.37203 0
M  V30 7716 H 784.757 -4.79088 -0.0340503 0
M  V30 7717 H 783.121 -2.54441 -0.114849 0
M  V30 7718 H 783.904 -3.10763 1.45881 0
M  V30 7719 N 786.349 -0.21828 -1.56081 0
M  V30 7720 C 787.296 0.693189 -2.20144 0
M  V30 7721 C 788.266 1.19274 -1.15598 0
M  V30 7722 O 789.451 1.25243 -1.4394 0
M  V30 7723 C 786.591 1.89715 -2.88275 0
M  V30 7724 C 785.704 1.4368 -4.07407 0
M  V30 7725 C 784.839 2.59807 -4.63329 0
M  V30 7726 C 783.878 2.10492 -5.74769 0
M  V30 7727 N 783.015 3.1988 -6.24997 0
M  V30 7728 H 787.855 0.14016 -2.9767 0
M  V30 7729 H 785.392 0.0574292 -1.46988 0
M  V30 7730 H 787.35 2.60398 -3.25958 0
M  V30 7731 H 785.98 2.42311 -2.13273 0
M  V30 7732 H 785.032 0.625007 -3.7523 0
M  V30 7733 H 786.344 1.03517 -4.8794 0
M  V30 7734 H 785.498 3.38577 -5.03438 0
M  V30 7735 H 784.237 3.03256 -3.81951 0
M  V30 7736 H 783.242 1.30182 -5.34165 0
M  V30 7737 H 784.467 1.68045 -6.5798 0
M  V30 7738 H 782.413 3.62817 -5.46534 0
M  V30 7739 H 782.33 2.83958 -7.00645 0
M  V30 7740 H 783.598 3.98796 -6.69763 0
M  V30 7741 N 787.827 1.57504 0.0551401 0
M  V30 7742 C 789.055 1.92294 0.76358 0
M  V30 7743 C 789.47 0.815774 1.70266 0
M  V30 7744 O 788.827 -0.209772 1.8129 0
M  V30 7745 C 788.878 3.26914 1.54302 0
M  V30 7746 O 788.599 4.33375 0.641666 0
M  V30 7747 C 790.1 3.75825 2.35097 0
M  V30 7748 H 787.32 0.635229 0.216159 0
M  V30 7749 H 789.864 2.0449 0.0204385 0
M  V30 7750 H 788.019 3.16196 2.23828 0
M  V30 7751 H 788.433 5.10927 1.1855 0
M  V30 7752 H 789.907 4.72603 2.8522 0
M  V30 7753 H 790.384 3.0568 3.15367 0
M  V30 7754 H 790.99 3.89542 1.70696 0
M  V30 7755 N 789.305 -0.326896 1.54172 0
M  V30 7756 C 790.553 -1.06313 1.71878 0
M  V30 7757 C 790.874 -1.88652 0.493498 0
M  V30 7758 O 790.144 -1.89608 -0.492522 0
M  V30 7759 H 788.724 -0.39549 0.633716 0
M  V30 7760 H 791.386 -0.364139 1.91468 0
M  V30 7761 H 790.482 -1.73105 2.59694 0
M  V30 7762 N 790.784 -1.46188 -0.588786 0
M  V30 7763 C 791.732 -1.56653 -1.71938 0
M  V30 7764 C 792.726 -0.435354 -1.6371 0
M  V30 7765 O 793.932 -0.611996 -1.69277 0
M  V30 7766 H 790.307 -0.492408 -0.568365 0
M  V30 7767 H 792.278 -2.51724 -1.60242 0
M  V30 7768 C 791.027 -1.56822 -3.10326 0
M  V30 7769 H 790.35 -2.43198 -3.17325 0
M  V30 7770 H 791.79 -1.68199 -3.89211 0
M  V30 7771 C 790.249 -0.295802 -3.35599 0
M  V30 7772 O 790.779 0.616515 -3.96941 0
M  V30 7773 N 788.985 -0.185609 -2.90007 0
M  V30 7774 H 788.532 -0.928914 -2.40269 0
M  V30 7775 H 788.49 0.664883 -3.07289 0
M  V30 7776 N 792.262 0.832906 -1.33792 0
M  V30 7777 C 793.194 1.95042 -1.2038 0
M  V30 7778 C 794.207 1.62253 -0.133299 0
M  V30 7779 O 795.396 1.74315 -0.384261 0
M  V30 7780 C 792.496 3.287 -0.825215 0
M  V30 7781 C 791.669 3.89581 -1.98861 0
M  V30 7782 C 790.728 5.01602 -1.59003 0
M  V30 7783 O 789.754 5.20431 -2.30522 0
M  V30 7784 N 790.956 5.78356 -0.498446 0
M  V30 7785 H 793.721 2.07083 -2.16649 0
M  V30 7786 H 791.282 1.00896 -1.26616 0
M  V30 7787 H 793.274 4.01074 -0.540559 0
M  V30 7788 H 791.844 3.12565 0.0469796 0
M  V30 7789 H 791.064 3.09723 -2.43856 0
M  V30 7790 H 792.352 4.26989 -2.76691 0
M  V30 7791 H 791.75 5.65618 0.0963297 0
M  V30 7792 H 790.307 6.51226 -0.273485 0
M  V30 7793 N 793.74 1.17359 1.05189 0
M  V30 7794 C 794.67 0.91365 2.14883 0
M  V30 7795 C 795.651 -0.144365 1.69486 0
M  V30 7796 O 796.836 0.00587861 1.94199 0
M  V30 7797 C 793.966 0.426196 3.44675 0
M  V30 7798 C 792.92 1.4234 4.03638 0
M  V30 7799 C 792.246 0.793902 5.28773 0
M  V30 7800 C 793.546 2.7966 4.41121 0
M  V30 7801 H 795.24 1.831 2.36885 0
M  V30 7802 H 792.786 0.881781 1.13845 0
M  V30 7803 H 794.739 0.231767 4.20762 0
M  V30 7804 H 793.463 -0.526693 3.22325 0
M  V30 7805 H 792.122 1.60457 3.2962 0
M  V30 7806 H 791.77 -0.165824 5.02727 0
M  V30 7807 H 791.47 1.45959 5.69183 0
M  V30 7808 H 792.994 0.609747 6.07548 0
M  V30 7809 H 794.408 2.6526 5.08242 0
M  V30 7810 H 792.805 3.42807 4.92548 0
M  V30 7811 H 793.875 3.34068 3.51464 0
M  V30 7812 N 795.218 -1.23913 0.973828 0
M  V30 7813 C 796.165 -2.25132 0.508366 0
M  V30 7814 C 797.135 -1.59908 -0.449307 0
M  V30 7815 O 798.32 -1.87405 -0.358313 0
M  V30 7816 C 795.46 -3.4458 -0.189422 0
M  V30 7817 C 794.573 -4.24381 0.807738 0
M  V30 7818 C 793.708 -5.31131 0.0854315 0
M  V30 7819 C 792.747 -6.02635 1.07225 0
M  V30 7820 N 791.884 -7.01073 0.379535 0
M  V30 7821 H 796.724 -2.64313 1.37632 0
M  V30 7822 H 794.261 -1.29924 0.689802 0
M  V30 7823 H 796.219 -4.12706 -0.610733 0
M  V30 7824 H 794.849 -3.06218 -1.02129 0
M  V30 7825 H 793.901 -3.55735 1.34747 0
M  V30 7826 H 795.213 -4.73778 1.55998 0
M  V30 7827 H 794.367 -6.05422 -0.393572 0
M  V30 7828 H 793.106 -4.82658 -0.699461 0
M  V30 7829 H 792.111 -5.27143 1.56207 0
M  V30 7830 H 793.336 -6.53197 1.85769 0
M  V30 7831 H 791.282 -6.54862 -0.386269 0
M  V30 7832 H 791.199 -7.48382 1.07054 0
M  V30 7833 H 792.467 -7.79462 -0.0772984 0
M  V30 7834 N 796.696 -0.74468 -1.38897 0
M  V30 7835 C 797.944 -0.296298 -1.99916 0
M  V30 7836 C 798.265 1.12325 -1.59399 0
M  V30 7837 O 797.535 1.76658 -0.846689 0
M  V30 7838 H 796.115 -0.106561 -0.73936 0
M  V30 7839 H 798.777 -0.956793 -1.69798 0
M  V30 7840 H 797.873 -0.352356 -3.10105 0
M  V30 7841 N 798.174 1.49689 -0.493057 0
M  V30 7842 C 799.585 1.8665 -0.0433032 0
M  V30 7843 C 799.936 1.40607 1.36836 0
M  V30 7844 O 799.061 0.780503 2.01834 0
M  V30 7845 C 799.656 3.38724 -0.0718069 0
M  V30 7846 C 798.215 3.75015 0.32257 0
M  V30 7847 C 797.362 2.7366 -0.4478 0
M  V30 7848 H 800.313 1.42119 -0.706246 0
M  V30 7849 H 800.334 3.73522 0.725347 0
M  V30 7850 H 799.846 3.72204 -1.09935 0
M  V30 7851 H 797.947 3.47142 1.35364 0
M  V30 7852 H 798.06 4.79099 0.00864259 0
M  V30 7853 H 796.424 2.54498 0.101354 0
M  V30 7854 H 797.207 3.09985 -1.47527 0
M  V30 7855 N 799.652 0.226554 1.55963 0
M  V30 7856 C 800.929 -0.453058 1.90281 0
M  V30 7857 C 801.309 -1.77377 1.14458 0
M  V30 7858 O 800.657 -2.27067 0.255496 0
M  V30 7859 C 800.867 -0.641108 3.43061 0
M  V30 7860 C 802.215 -0.946265 4.13921 0
M  V30 7861 O 803.239 -0.727713 3.48687 0
M  V30 7862 O 802.098 -1.36131 5.29274 0
M  V30 7863 H 799.192 -0.240242 0.791336 0
M  V30 7864 H 801.738 0.26911 1.67553 0
M  V30 7865 H 800.51 0.290283 3.90222 0
M  V30 7866 H 800.133 -1.41458 3.71585 0
M  V30 7867 N 801.13 -1.57531 -0.0467866 0
M  V30 7868 C 802.541 -1.76945 -0.595603 0
M  V30 7869 C 802.892 -0.855354 -1.76573 0
M  V30 7870 O 802.017 -0.045668 -2.16352 0
M  V30 7871 C 802.612 -3.20881 -1.08725 0
M  V30 7872 C 801.171 -3.41553 -1.58172 0
M  V30 7873 C 800.318 -2.72533 -0.511968 0
M  V30 7874 H 803.269 -1.57682 0.179436 0
M  V30 7875 H 803.29 -3.26419 -1.95528 0
M  V30 7876 H 802.802 -3.87385 -0.235398 0
M  V30 7877 H 800.903 -2.80199 -2.456 0
M  V30 7878 H 801.016 -4.50104 -1.64143 0
M  V30 7879 H 799.38 -2.35797 -0.962899 0
M  V30 7880 H 800.163 -3.41709 0.330117 0
M  V30 7881 N 802.608 0.318715 -1.54344 0
M  V30 7882 C 803.555 1.39242 -1.84066 0
M  V30 7883 C 804.525 1.51175 -0.688134 0
M  V30 7884 O 805.71 1.66318 -0.935039 0
M  V30 7885 C 802.85 2.75528 -2.07794 0
M  V30 7886 C 801.963 2.72187 -3.35467 0
M  V30 7887 C 801.098 4.00352 -3.4913 0
M  V30 7888 C 800.137 3.91338 -4.7066 0
M  V30 7889 N 799.274 5.11242 -4.81224 0
M  V30 7890 H 804.114 1.13196 -2.75664 0
M  V30 7891 H 801.651 0.547857 -1.36517 0
M  V30 7892 H 803.609 3.54763 -2.19543 0
M  V30 7893 H 802.239 2.99873 -1.19482 0
M  V30 7894 H 801.291 1.84917 -3.3243 0
M  V30 7895 H 802.603 2.61411 -4.24812 0
M  V30 7896 H 801.757 4.88019 -3.60448 0
M  V30 7897 H 800.496 4.1394 -2.57886 0
M  V30 7898 H 799.501 3.02055 -4.59394 0
M  V30 7899 H 800.726 3.7931 -5.63294 0
M  V30 7900 H 798.672 5.25327 -3.92897 0
M  V30 7901 H 798.589 5.0282 -5.64543 0
M  V30 7902 H 799.857 6.0061 -4.96879 0
M  V30 7903 N 804.086 1.46499 0.581025 0
M  V30 7904 C 805.502 1.31491 0.904563 0
M  V30 7905 C 805.702 0.287598 1.99437 0
M  V30 7906 O 804.758 -0.309247 2.50599 0
M  V30 7907 C 806.071 2.70163 1.32032 0
M  V30 7908 C 807.619 2.78266 1.43308 0
M  V30 7909 C 808.094 4.17524 1.8825 0
M  V30 7910 N 809.585 4.19949 1.9544 0
M  V30 7911 C 810.32 5.24594 2.31493 0
M  V30 7912 N 809.816 6.39564 2.66326 0
M  V30 7913 N 811.609 5.11961 2.32062 0
M  V30 7914 H 803.76 2.11946 -0.138856 0
M  V30 7915 H 806.023 0.948 0.000548528 0
M  V30 7916 H 805.729 3.46655 0.593554 0
M  V30 7917 H 805.603 3.00379 2.2815 0
M  V30 7918 H 807.99 2.02061 2.15071 0
M  V30 7919 H 808.071 2.51732 0.45438 0
M  V30 7920 H 807.715 4.94225 1.17065 0
M  V30 7921 H 807.645 4.41466 2.87081 0
M  V30 7922 H 810.136 3.36996 1.71004 0
M  V30 7923 H 810.449 7.15187 2.92793 0
M  V30 7924 H 808.794 6.42923 2.6396 0
M  V30 7925 H 811.985 4.21177 2.04272 0
M  V30 7926 H 812.158 5.93626 2.5983 0
M  V30 7927 N 805.565 -0.825799 1.34232 0
M  V30 7928 C 806.513 -1.95792 1.25572 0
M  V30 7929 C 807.507 -1.68695 0.154404 0
M  V30 7930 O 808.713 -1.77147 0.319196 0
M  V30 7931 H 805.088 -0.642949 0.390027 0
M  V30 7932 H 807.059 -2.00219 2.21258 0
M  V30 7933 C 805.808 -3.32245 1.02511 0
M  V30 7934 H 805.131 -3.53642 1.86487 0
M  V30 7935 H 806.571 -4.1192 1.00487 0
M  V30 7936 C 805.03 -3.35803 -0.27167 0
M  V30 7937 O 805.56 -3.80962 -1.274 0
M  V30 7938 N 803.766 -2.89008 -0.303778 0
M  V30 7939 H 803.313 -2.52451 0.512464 0
M  V30 7940 H 803.271 -2.9177 -1.17121 0
M  V30 7941 N 807.043 -1.17915 -1.04565 0
M  V30 7942 C 808.292 -0.965816 -1.77073 0
M  V30 7943 C 808.605 0.506005 -1.88942 0
M  V30 7944 O 809.811 0.837717 -2.58253 0
M  V30 7945 C 808.267 -1.67894 -3.18339 0
M  V30 7946 C 807.875 -3.18972 -3.1458 0
M  V30 7947 C 809.619 -1.54823 -3.9526 0
M  V30 7948 C 807.526 -3.82946 -4.50674 0
M  V30 7949 H 806.456 -0.357729 -0.663736 0
M  V30 7950 H 809.107 -1.41235 -1.17153 0
M  V30 7951 H 807.489 -1.16016 -3.78624 0
M  V30 7952 H 808.663 -3.77835 -2.63776 0
M  V30 7953 H 806.978 -3.32127 -2.51159 0
M  V30 7954 H 809.575 -1.99984 -4.95894 0
M  V30 7955 H 809.918 -0.499727 -4.1329 0
M  V30 7956 H 810.451 -2.03953 -3.41538 0
M  V30 7957 H 807.19 -4.8782 -4.37849 0
M  V30 7958 H 806.71 -3.2887 -5.01602 0
M  V30 7959 H 808.389 -3.85518 -5.196 0
M  V30 7960 N 808.521 1.23394 -0.980386 0
M  V30 7961 C 809.468 2.24859 -0.520298 0
M  V30 7962 C 810.438 1.60144 0.440821 0
M  V30 7963 O 811.623 1.87593 0.348369 0
M  V30 7964 C 808.763 3.44675 0.171145 0
M  V30 7965 C 807.876 4.23947 -0.830233 0
M  V30 7966 C 807.011 5.31079 -0.113597 0
M  V30 7967 C 806.05 6.02058 -1.10419 0
M  V30 7968 N 805.187 7.00862 -0.416709 0
M  V30 7969 H 810.027 2.63579 -1.39032 0
M  V30 7970 H 807.564 1.29556 -0.696682 0
M  V30 7971 H 809.522 4.13024 0.588838 0
M  V30 7972 H 808.152 3.06755 1.00504 0
M  V30 7973 H 807.204 3.55016 -1.36631 0
M  V30 7974 H 808.516 4.72945 -1.58508 0
M  V30 7975 H 807.67 6.05622 0.36146 0
M  V30 7976 H 806.409 4.83022 0.673854 0
M  V30 7977 H 805.414 5.26307 -1.59 0
M  V30 7978 H 806.639 6.52203 -1.8923 0
M  V30 7979 H 804.585 6.55057 0.351535 0
M  V30 7980 H 804.502 7.47804 -1.11021 0
M  V30 7981 H 805.77 7.79492 0.0359606 0
M  V30 7982 N 809.999 0.752036 1.385 0
M  V30 7983 C 810.946 0.123288 2.3047 0
M  V30 7984 C 811.916 -0.711326 1.50098 0
M  V30 7985 O 813.101 -0.667775 1.78733 0
M  V30 7986 C 810.241 -0.765085 3.36512 0
M  V30 7987 C 809.354 0.0839885 4.31918 0
M  V30 7988 C 808.489 -0.807243 5.25031 0
M  V30 7989 C 807.528 0.0455583 6.12083 0
M  V30 7990 N 806.665 -0.802547 6.97498 0
M  V30 7991 H 811.505 0.913169 2.83664 0
M  V30 7992 H 809.042 0.46195 1.39658 0
M  V30 7993 H 811 -1.29476 3.966 0
M  V30 7994 H 809.63 -1.52077 2.84732 0
M  V30 7995 H 808.682 0.731276 3.73305 0
M  V30 7996 H 809.994 0.74265 4.9324 0
M  V30 7997 H 809.148 -1.40414 5.90228 0
M  V30 7998 H 807.887 -1.49964 4.64071 0
M  V30 7999 H 806.892 0.655137 5.45883 0
M  V30 8000 H 808.117 0.734994 6.75111 0
M  V30 8001 H 806.063 -1.47992 6.39089 0
M  V30 8002 H 805.98 -0.200747 7.55733 0
M  V30 8003 H 807.248 -1.38447 7.67107 0
M  V30 8004 N 811.477 -1.49425 0.500989 0
M  V30 8005 C 812.707 -2.06561 -0.0402858 0
M  V30 8006 C 813.115 -1.36157 -1.31369 0
M  V30 8007 O 812.458 -0.433618 -1.78509 0
M  V30 8008 C 812.52 -3.5765 -0.364269 0
M  V30 8009 C 812.184 -4.49739 0.811417 0
M  V30 8010 C 813.181 -4.91255 1.7019 0
M  V30 8011 C 810.866 -4.92036 1.01022 0
M  V30 8012 C 812.86 -5.73806 2.77534 0
M  V30 8013 C 810.547 -5.74364 2.08683 0
M  V30 8014 C 811.545 -6.15154 2.96774 0
M  V30 8015 O 811.233 -6.95836 4.02577 0
M  V30 8016 H 810.965 -0.67578 0.0172357 0
M  V30 8017 H 813.519 -1.93193 0.697553 0
M  V30 8018 H 811.749 -3.69026 -1.1557 0
M  V30 8019 H 813.438 -3.97025 -0.844156 0
M  V30 8020 H 814.204 -4.59222 1.56013 0
M  V30 8021 H 810.083 -4.59789 0.333929 0
M  V30 8022 H 813.627 -6.05564 3.4632 0
M  V30 8023 H 809.524 -6.0581 2.22855 0
M  V30 8024 H 810.292 -7.14142 3.9993 0
M  V30 8025 N 812.955 -0.234822 -1.55841 0
M  V30 8026 C 813.885 0.664217 -2.23854 0
M  V30 8027 C 814.866 1.19076 -1.2147 0
M  V30 8028 O 816.051 1.23232 -1.50091 0
M  V30 8029 C 813.181 1.86666 -2.9287 0
M  V30 8030 C 812.135 1.47341 -4.01839 0
M  V30 8031 C 811.461 2.75571 -4.58219 0
M  V30 8032 C 812.761 0.653479 -5.18196 0
M  V30 8033 H 814.455 0.0971213 -2.99242 0
M  V30 8034 H 812.001 0.0452724 -1.43929 0
M  V30 8035 H 813.954 2.50116 -3.39146 0
M  V30 8036 H 812.678 2.45894 -2.1495 0
M  V30 8037 H 811.337 0.862314 -3.56314 0
M  V30 8038 H 810.985 3.32971 -3.77014 0
M  V30 8039 H 810.685 2.49987 -5.31771 0
M  V30 8040 H 812.209 3.39939 -5.07221 0
M  V30 8041 H 813.623 1.19198 -5.60771 0
M  V30 8042 H 812.02 0.494188 -5.98062 0
M  V30 8043 H 813.09 -0.337004 -4.83728 0
M  V30 8044 O 814.472 1.61196 -0.0990213 0
M  V30 8045 H 815.163 1.87057 0.50292 0
M  V30 END ATOM
M  V30 BEGIN BOND
M  V30 END BOND
M  V30 END CTAB
M  END
$$$$
