drugbank_target|P68826 Peptide deformylase (DB04310)
 OpenBabel12092120223D

  0  0  0     0  0            999 V3000
M  V30 BEGIN CTAB
M  V30 COUNTS 2899 2925 0 0 0
M  V30 BEGIN ATOM
M  V30 1 H -0.908 1.98254 -0.117106 0
M  V30 2 N 0 1.576 0 0
M  V30 3 C 0.933 2.03868 1.02534 0
M  V30 4 C 1.911 0.928543 1.3348 0
M  V30 5 O 3.095 1.19667 1.45644 0
M  V30 6 C 0.222 2.43627 2.35294 0
M  V30 7 C -0.732 3.65373 2.2001 0
M  V30 8 S 0.101 5.13292 1.52614 0
M  V30 9 C 1.257 5.56322 2.86805 0
M  V30 10 H 1.49 2.90518 0.631377 0
M  V30 11 H -0.977 1.52953 0.210867 0
M  V30 12 H 0.981 2.67203 3.11629 0
M  V30 13 H -0.358 1.57376 2.7183 0
M  V30 14 H -1.165 3.90944 3.18086 0
M  V30 15 H -1.563 3.418 1.51819 0
M  V30 16 H 0.729 5.58782 3.83104 0
M  V30 17 H 1.672 6.56266 2.65933 0
M  V30 18 H 2.08 4.83886 2.90714 0
M  V30 19 N 1.4781 -0.272755 1.55222 0
M  V30 20 C 2.4081 -1.34136 1.91127 0
M  V30 21 C 3.3891 -1.51513 0.773168 0
M  V30 22 O 4.5741 -1.64552 1.03132 0
M  V30 23 C 1.7041 -2.70083 2.1834 0
M  V30 24 C 0.6581 -2.67437 3.34158 0
M  V30 25 C -0.0159 -4.06938 3.46851 0
M  V30 26 C 1.2841 -2.26686 4.70543 0
M  V30 27 H 2.9781 -1.04333 2.80633 0
M  V30 28 H 0.5241 -0.500454 1.35024 0
M  V30 29 H 2.4771 -3.44952 2.42046 0
M  V30 30 H 1.2011 -3.01469 1.25634 0
M  V30 31 H -0.1399 -1.95026 3.1042 0
M  V30 32 H -0.4919 -4.35547 2.51611 0
M  V30 33 H -0.7919 -4.06062 4.2472 0
M  V30 34 H 0.7321 -4.83545 3.72849 0
M  V30 35 H 2.1461 -2.91277 4.93792 0
M  V30 36 H 0.5431 -2.36971 5.5133 0
M  V30 37 H 1.6131 -1.21818 4.69349 0
M  V30 38 N 2.9562 -1.48159 -0.537278 0
M  V30 39 C 4.1842 -1.59454 -1.31841 0
M  V30 40 C 4.5992 -0.252065 -1.8711 0
M  V30 41 O 3.9562 0.757621 -1.66031 0
M  V30 42 C 4.0072 -2.63546 -2.47439 0
M  V30 43 O 3.7282 -3.92583 -1.94449 0
M  V30 44 C 5.2292 -2.85212 -3.39366 0
M  V30 45 H 2.4492 -0.53785 -0.401196 0
M  V30 46 H 4.9932 -1.93932 -0.648891 0
M  V30 47 H 3.1482 -2.31946 -3.1029 0
M  V30 48 H 3.5622 -4.49629 -2.70063 0
M  V30 49 H 5.0362 -3.61863 -4.16844 0
M  V30 50 H 5.5132 -1.93765 -3.94147 0
M  V30 51 H 6.1192 -3.18086 -2.82314 0
M  V30 52 N 4.4343 0.785586 -1.36625 0
M  V30 53 C 5.3673 1.90509 -1.25625 0
M  V30 54 C 6.3453 1.62 -0.139607 0
M  V30 55 O 7.5293 1.8591 -0.31141 0
M  V30 56 C 4.6563 3.25419 -0.939158 0
M  V30 57 C 3.7023 3.72856 -2.07077 0
M  V30 58 S 4.5353 3.88162 -3.68904 0
M  V30 59 C 5.6913 5.25942 -3.39317 0
M  V30 60 H 5.9243 1.99549 -2.20381 0
M  V30 61 H 3.4573 0.945226 -1.22085 0
M  V30 62 H 5.4153 4.03346 -0.763029 0
M  V30 63 H 4.0763 3.14099 -0.00931402 0
M  V30 64 H 3.2693 4.70624 -1.80357 0
M  V30 65 H 2.8713 3.01989 -2.20632 0
M  V30 66 H 5.1633 6.10651 -2.93447 0
M  V30 67 H 6.1063 5.57668 -4.36363 0
M  V30 68 H 6.5143 4.93224 -2.74573 0
M  V30 69 N 5.9124 1.20967 1.01018 0
M  V30 70 C 6.8594 0.964281 2.09691 0
M  V30 71 C 7.8294 -0.107853 1.65749 0
M  V30 72 O 9.0144 0.0381987 1.90762 0
M  V30 73 C 6.1544 0.52943 3.41015 0
M  V30 74 C 5.2674 1.67043 3.98398 0
M  V30 75 C 4.4024 1.18525 5.17808 0
M  V30 76 C 3.4414 2.29892 5.67288 0
M  V30 77 N 2.5784 1.82546 6.77954 0
M  V30 78 H 7.4184 1.89463 2.30017 0
M  V30 79 H 4.9554 0.944289 1.1279 0
M  V30 80 H 6.9134 0.258588 4.16398 0
M  V30 81 H 5.5434 -0.363919 3.20742 0
M  V30 82 H 4.5954 2.05603 3.20049 0
M  V30 83 H 5.9074 2.50877 4.31117 0
M  V30 84 H 5.0614 0.870762 6.00419 0
M  V30 85 H 3.8004 0.316887 4.86669 0
M  V30 86 H 2.8054 2.6215 4.83278 0
M  V30 87 H 4.0304 3.17216 6.00459 0
M  V30 88 H 1.9764 0.980454 6.48632 0
M  V30 89 H 1.8934 2.59956 7.09901 0
M  V30 90 H 3.1614 1.54115 7.64113 0
M  V30 91 N 7.3905 -1.2043 1.01659 0
M  V30 92 C 8.6675 -1.8548 0.621004 0
M  V30 93 C 9.0475 -1.9091 -0.900919 0
M  V30 94 O 8.3955 -1.41694 -1.79263 0
M  V30 95 C 8.6055 -3.25119 1.2688 0
M  V30 96 C 9.9535 -4.01403 1.38423 0
M  V30 97 O 10.9775 -3.34473 1.22501 0
M  V30 98 O 9.8365 -5.21265 1.64151 0
M  V30 99 H 6.9305 -0.798761 0.214266 0
M  V30 100 H 9.4765 -1.28019 1.11396 0
M  V30 101 H 8.2485 -3.15932 2.30873 0
M  V30 102 H 7.8715 -3.90212 0.762917 0
M  V30 103 N 8.8686 -0.792821 -1.36206 0
M  V30 104 C 10.1176 -0.363353 -1.984 0
M  V30 105 C 10.4306 1.07172 -1.63626 0
M  V30 106 O 11.6366 1.60362 -2.19081 0
M  V30 107 C 10.0926 -0.59872 -3.54885 0
M  V30 108 C 9.7006 -2.04543 -3.9858 0
M  V30 109 C 11.4446 -0.233926 -4.23855 0
M  V30 110 C 9.3516 -2.22727 -5.47856 0
M  V30 111 H 8.2816 -0.13212 -0.742334 0
M  V30 112 H 10.9326 -0.974935 -1.55458 0
M  V30 113 H 9.3146 0.0826222 -3.95914 0
M  V30 114 H 10.4886 -2.76345 -3.68741 0
M  V30 115 H 8.8036 -2.36879 -3.42458 0
M  V30 116 H 11.4006 -0.348027 -5.33566 0
M  V30 117 H 11.7436 0.818351 -4.08177 0
M  V30 118 H 12.2766 -0.868639 -3.882 0
M  V30 119 H 9.0156 -3.2635 -5.68486 0
M  V30 120 H 8.5356 -1.55434 -5.7931 0
M  V30 121 H 10.2146 -2.03607 -6.14128 0
M  V30 122 N 10.3467 1.47872 -0.545128 0
M  V30 123 C 11.5957 2.01695 -0.0145033 0
M  V30 124 C 11.9087 1.42609 1.33873 0
M  V30 125 O 13.1147 1.88021 1.95858 0
M  V30 126 C 11.5707 3.59892 0.0245068 0
M  V30 127 C 11.1787 4.27966 -1.32475 0
M  V30 128 C 12.9227 4.21507 0.50316 0
M  V30 129 C 10.8297 5.78136 -1.2455 0
M  V30 130 H 9.7597 0.753998 -0.00165172 0
M  V30 131 H 12.4107 1.69985 -0.691175 0
M  V30 132 H 10.7927 3.88509 0.766575 0
M  V30 133 H 11.9667 4.11003 -2.08357 0
M  V30 134 H 10.2817 3.78286 -1.74036 0
M  V30 135 H 12.8787 5.31538 0.580656 0
M  V30 136 H 13.2217 3.87855 1.51243 0
M  V30 137 H 13.7547 3.97376 -0.183681 0
M  V30 138 H 10.4937 6.16388 -2.23039 0
M  V30 139 H 10.0137 5.97469 -0.528282 0
M  V30 140 H 11.6927 6.40099 -0.942488 0
M  V30 141 N 11.8248 0.280983 1.55075 0
M  V30 142 C 13.2408 -0.0729964 1.59433 0
M  V30 143 C 13.4408 -1.5411 1.29817 0
M  V30 144 O 12.4968 -2.29086 1.06187 0
M  V30 145 C 13.8098 0.306921 2.9913 0
M  V30 146 C 15.3578 0.254023 3.11968 0
M  V30 147 C 15.8328 0.608467 4.5394 0
M  V30 148 N 17.3238 0.560241 4.59799 0
M  V30 149 C 18.0588 0.80722 5.6769 0
M  V30 150 N 17.5548 1.11912 6.83701 0
M  V30 151 N 19.3478 0.735623 5.57266 0
M  V30 152 H 11.4988 1.238 1.7259 0
M  V30 153 H 13.7618 0.500547 0.805082 0
M  V30 154 H 13.4678 1.32816 3.25657 0
M  V30 155 H 13.3418 -0.349363 3.75579 0
M  V30 156 H 15.7288 -0.75794 2.852 0
M  V30 157 H 15.8098 0.944649 2.37718 0
M  V30 158 H 15.4538 1.61814 4.81434 0
M  V30 159 H 15.3838 -0.104013 5.26497 0
M  V30 160 H 17.8748 0.329288 3.76463 0
M  V30 161 H 18.1878 1.29409 7.61888 0
M  V30 162 H 16.5328 1.15695 6.85303 0
M  V30 163 H 19.7238 0.491752 4.6551 0
M  V30 164 H 19.8968 0.931482 6.4127 0
M  V30 165 N 13.3029 -1.57598 0.00835791 0
M  V30 166 C 14.5799 -1.82172 -0.712235 0
M  V30 167 C 14.9599 -0.887873 -1.9152 0
M  V30 168 O 14.3079 0.06146 -2.28417 0
M  V30 169 C 14.5179 -3.30875 -1.11008 0
M  V30 170 C 15.8659 -3.96826 -1.51044 0
M  V30 171 O 16.8899 -3.35248 -1.20364 0
M  V30 172 O 15.7489 -5.05318 -2.08125 0
M  V30 173 H 12.8429 -0.750435 -0.347529 0
M  V30 174 H 15.3889 -1.69665 0.0344523 0
M  V30 175 H 14.1609 -3.90481 -0.252982 0
M  V30 176 H 13.7839 -3.48412 -1.9156 0
M  V30 177 N 14.781 0.264519 -1.55364 0
M  V30 178 C 16.029 0.993021 -1.76021 0
M  V30 179 C 16.35 1.86511 -0.569099 0
M  V30 180 O 15.62 1.91438 0.415735 0
M  V30 181 H 14.2 0.369639 -0.649135 0
M  V30 182 H 16.862 0.286707 -1.9278 0
M  V30 183 H 15.958 1.62502 -2.66457 0
M  V30 184 N 16.2591 1.48442 0.529413 0
M  V30 185 C 17.2091 1.59407 1.63014 0
M  V30 186 C 18.1931 0.451166 1.54445 0
M  V30 187 O 19.3851 0.702635 1.62456 0
M  V30 188 C 16.5141 1.63746 3.01732 0
M  V30 189 C 15.6001 2.83518 3.15402 0
M  V30 190 N 15.9911 4.07929 2.99045 0
M  V30 191 C 14.2891 2.80862 3.46457 0
M  V30 192 C 14.9901 4.8829 3.16146 0
M  V30 193 N 13.9661 4.21117 3.43746 0
M  V30 194 H 17.7681 2.53343 1.48978 0
M  V30 195 H 15.2821 1.44821 0.734885 0
M  V30 196 H 17.2791 1.69695 3.80801 0
M  V30 197 H 15.9391 0.709264 3.16859 0
M  V30 198 H 16.9501 4.38357 2.75796 0
M  V30 199 H 13.6271 1.97301 3.67938 0
M  V30 200 H 15.0171 5.97028 3.08232 0
M  V30 201 N 17.7372 -0.778329 1.37039 0
M  V30 202 C 19.1482 -1.35421 1.28523 0
M  V30 203 C 19.4992 -1.96075 -0.0700901 0
M  V30 204 O 18.6242 -1.93352 -0.971801 0
M  V30 205 C 19.2192 -2.46211 2.32735 0
M  V30 206 C 17.7782 -2.99585 2.27873 0
M  V30 207 C 16.9252 -1.72748 2.16918 0
M  V30 208 H 19.8762 -0.5791 1.47757 0
M  V30 209 H 19.8972 -3.2552 1.9702 0
M  V30 210 H 19.4092 -2.02036 3.31365 0
M  V30 211 H 17.5102 -3.48152 1.32745 0
M  V30 212 H 17.6232 -3.55646 3.21018 0
M  V30 213 H 15.9872 -1.95416 1.63354 0
M  V30 214 H 16.7702 -1.30686 3.17452 0
M  V30 215 N 19.2153 -1.21501 -1.00376 0
M  V30 216 C 20.4433 -1.059 -1.77744 0
M  V30 217 C 20.8583 0.391125 -1.84704 0
M  V30 218 O 20.2153 1.27133 -1.30933 0
M  V30 219 C 20.2663 -1.65111 -3.21591 0
M  V30 220 O 19.9873 -3.0445 -3.15027 0
M  V30 221 C 21.4883 -1.54637 -4.15454 0
M  V30 222 H 18.7083 -0.371825 -0.558558 0
M  V30 223 H 21.2523 -1.60865 -1.26264 0
M  V30 224 H 19.4073 -1.14235 -3.70175 0
M  V30 225 H 19.8213 -3.3278 -4.0541 0
M  V30 226 H 21.2953 -2.00808 -5.14179 0
M  V30 227 H 21.7723 -0.501022 -4.36333 0
M  V30 228 H 22.3783 -2.04767 -3.72761 0
M  V30 229 N 20.6934 1.19889 -1.02296 0
M  V30 230 C 21.6234 2.25141 -0.619174 0
M  V30 231 C 22.6044 1.66051 0.368915 0
M  V30 232 O 23.7894 1.92546 0.252941 0
M  V30 233 C 20.9194 3.4728 0.0368783 0
M  V30 234 C 19.8734 4.19005 -0.872865 0
M  V30 235 C 19.1994 5.34637 -0.0822402 0
M  V30 236 C 20.4994 4.74452 -2.18387 0
M  V30 237 H 22.1934 2.59171 -1.49903 0
M  V30 238 H 19.7394 1.24579 -0.722222 0
M  V30 239 H 21.6924 4.20098 0.330958 0
M  V30 240 H 20.4164 3.12433 0.95149 0
M  V30 241 H 19.0754 3.48061 -1.15105 0
M  V30 242 H 18.7234 4.96034 0.83422 0
M  V30 243 H 18.4234 5.83557 -0.688149 0
M  V30 244 H 19.9474 6.10255 0.205238 0
M  V30 245 H 21.3614 5.39055 -1.95172 0
M  V30 246 H 19.7584 5.33834 -2.74119 0
M  V30 247 H 20.8284 3.92844 -2.84257 0
M  V30 248 N 22.1715 0.800033 1.35784 0
M  V30 249 C 23.5875 0.482977 1.52117 0
M  V30 250 C 23.7875 -0.996948 1.75109 0
M  V30 251 O 22.8435 -1.78216 1.78872 0
M  V30 252 C 24.1565 1.32264 2.70049 0
M  V30 253 C 25.7045 1.31742 2.83924 0
M  V30 254 C 26.1795 2.14106 4.04874 0
M  V30 255 N 27.6705 2.11607 4.12039 0
M  V30 256 C 28.4055 2.72099 5.04727 0
M  V30 257 N 27.9015 3.41492 6.02789 0
M  V30 258 N 29.6945 2.61776 4.97423 0
M  V30 259 H 21.8455 1.75856 1.19115 0
M  V30 260 H 24.1085 0.748122 0.582252 0
M  V30 261 H 23.8145 2.37261 2.59616 0
M  V30 262 H 23.6885 0.971303 3.6448 0
M  V30 263 H 26.0755 0.275333 2.93813 0
M  V30 264 H 26.1565 1.70859 1.9037 0
M  V30 265 H 25.8005 3.18351 3.95746 0
M  V30 266 H 25.7305 1.72353 4.97596 0
M  V30 267 H 28.2215 1.61112 3.41835 0
M  V30 268 H 28.5345 3.84953 6.70098 0
M  V30 269 H 26.8795 3.45596 6.02983 0
M  V30 270 H 30.0705 2.07157 4.19766 0
M  V30 271 H 30.2435 3.0921 5.69468 0
M  V30 272 N 23.6496 -1.47581 0.552962 0
M  V30 273 C 24.5816 -2.27997 -0.234533 0
M  V30 274 C 25.5946 -1.36753 -0.883321 0
M  V30 275 O 26.7836 -1.61612 -0.757889 0
M  V30 276 C 23.8836 -3.10879 -1.34935 0
M  V30 277 C 23.0566 -4.30056 -0.798158 0
M  V30 278 C 22.1156 -4.94567 -1.79694 0
M  V30 279 O 21.1416 -5.53087 -1.34474 0
M  V30 280 N 22.3436 -4.88878 -3.13015 0
M  V30 281 H 25.1086 -2.96222 0.455255 0
M  V30 282 H 22.6696 -1.57163 0.388761 0
M  V30 283 H 24.6616 -3.50903 -2.01616 0
M  V30 284 H 23.2316 -2.44924 -1.94244 0
M  V30 285 H 22.4516 -3.94174 0.0453079 0
M  V30 286 H 23.7396 -5.07152 -0.409173 0
M  V30 287 H 23.1376 -4.42526 -3.52402 0
M  V30 288 H 21.6946 -5.32934 -3.75266 0
M  V30 289 N 25.1277 -0.289203 -1.54924 0
M  V30 290 C 26.0747 0.592115 -2.23075 0
M  V30 291 C 27.0447 1.13881 -1.20915 0
M  V30 292 O 28.2297 1.18551 -1.495 0
M  V30 293 C 25.3697 1.76376 -2.96623 0
M  V30 294 C 24.4827 1.24959 -4.13533 0
M  V30 295 C 23.6177 2.38416 -4.74691 0
M  V30 296 C 22.6567 1.84072 -5.83767 0
M  V30 297 N 21.7937 2.91057 -6.38929 0
M  V30 298 H 26.6337 0.00432038 -2.98 0
M  V30 299 H 24.1707 -0.00963529 -1.47097 0
M  V30 300 H 26.1287 2.45268 -3.3749 0
M  V30 301 H 24.7587 2.32337 -2.24097 0
M  V30 302 H 23.8107 0.453307 -3.77689 0
M  V30 303 H 25.1227 0.811662 -4.92152 0
M  V30 304 H 24.2767 3.15276 -5.18349 0
M  V30 305 H 23.0157 2.8553 -3.95378 0
M  V30 306 H 22.0207 1.05697 -5.39545 0
M  V30 307 H 23.2457 1.37877 -6.64956 0
M  V30 308 H 21.1917 3.37526 -5.62505 0
M  V30 309 H 21.1087 2.51724 -7.12861 0
M  V30 310 H 22.3767 3.6785 -6.87246 0
M  V30 311 N 26.6058 1.57591 -0.0167156 0
M  V30 312 C 27.5688 2.08393 0.954204 0
M  V30 313 C 28.5688 0.996531 1.26198 0
M  V30 314 O 29.7588 1.25858 1.20438 0
M  V30 315 C 26.8908 2.5394 2.27436 0
M  V30 316 H 28.0838 2.95455 0.514451 0
M  V30 317 H 25.6368 1.54582 0.231089 0
M  V30 318 H 26.3718 1.70171 2.76066 0
M  V30 319 H 26.1568 3.33371 2.06412 0
M  V30 320 H 27.6468 2.93512 2.97053 0
M  V30 321 N 28.0839 -0.256276 1.55502 0
M  V30 322 C 29.0469 -1.30047 1.88734 0
M  V30 323 C 30.0469 -1.4154 0.763086 0
M  V30 324 O 31.2369 -1.40403 1.03115 0
M  V30 325 C 28.3689 -2.67953 2.10747 0
M  V30 326 H 29.5619 -1.01802 2.82093 0
M  V30 327 H 27.1149 -0.495134 1.4825 0
M  V30 328 H 27.8499 -3.01351 1.19825 0
M  V30 329 H 27.6349 -2.60993 2.92617 0
M  V30 330 H 29.1249 -3.43368 2.37673 0
M  V30 331 N 29.562 -1.4872 -0.521534 0
M  V30 332 C 30.472 -1.66569 -1.65203 0
M  V30 333 C 31.488 -0.548197 -1.65139 0
M  V30 334 O 32.664 -0.820339 -1.83936 0
M  V30 335 C 29.729 -1.70917 -3.01642 0
M  V30 336 C 28.79 -2.94356 -3.12495 0
M  V30 337 C 28.023 -2.98487 -4.42426 0
M  V30 338 O 28.246 -2.10786 -5.30024 0
M  V30 339 O 27.18 -3.90746 -4.57822 0
M  V30 340 H 31.006 -2.62298 -1.5308 0
M  V30 341 H 28.591 -1.3222 -0.695565 0
M  V30 342 H 30.473 -1.7625 -3.82771 0
M  V30 343 H 29.148 -0.783633 -3.14071 0
M  V30 344 H 28.055 -2.94552 -2.3063 0
M  V30 345 H 29.388 -3.86322 -3.04986 0
M  V30 346 N 31.0401 0.771051 -1.3745 0
M  V30 347 C 31.9701 1.89827 -1.3597 0
M  V30 348 C 32.9511 1.68562 -0.228216 0
M  V30 349 O 34.1361 1.8941 -0.428675 0
M  V30 350 C 31.2661 3.2712 -1.16662 0
M  V30 351 C 30.2201 3.6295 -2.2683 0
M  V30 352 C 29.5461 4.98791 -1.92644 0
M  V30 353 C 30.8461 3.69627 -3.69017 0
M  V30 354 H 32.5401 1.91323 -2.30295 0
M  V30 355 H 30.0861 0.919082 -1.10855 0
M  V30 356 H 32.0391 4.05615 -1.14256 0
M  V30 357 H 30.7631 3.26059 -0.187926 0
M  V30 358 H 29.4221 2.86763 -2.28392 0
M  V30 359 H 29.0701 4.94271 -0.933021 0
M  V30 360 H 28.7701 5.23733 -2.66416 0
M  V30 361 H 30.2941 5.79685 -1.91826 0
M  V30 362 H 31.7081 4.38273 -3.69581 0
M  V30 363 H 30.1051 4.06067 -4.41848 0
M  V30 364 H 31.1751 2.70273 -4.02592 0
M  V30 365 N 32.5182 1.22032 0.997298 0
M  V30 366 C 33.4282 1.00271 2.12092 0
M  V30 367 C 34.4442 -0.047621 1.73935 0
M  V30 368 O 35.6202 0.144136 2.00884 0
M  V30 369 C 32.6852 0.578449 3.4184 0
M  V30 370 C 31.7462 1.70189 3.94125 0
M  V30 371 C 30.9792 1.29778 5.17681 0
M  V30 372 O 31.2022 0.174676 5.70132 0
M  V30 373 O 30.1362 2.11261 5.63607 0
M  V30 374 H 33.9622 1.94398 2.3333 0
M  V30 375 H 31.5472 1.00587 1.10465 0
M  V30 376 H 33.4292 0.351998 4.19927 0
M  V30 377 H 32.1042 -0.334019 3.21972 0
M  V30 378 H 31.0112 1.98282 3.1723 0
M  V30 379 H 32.3442 2.59206 4.18417 0
M  V30 380 N 33.9963 -1.19345 1.0293 0
M  V30 381 C 34.9263 -2.2481 0.631105 0
M  V30 382 C 35.9073 -1.66245 -0.360104 0
M  V30 383 O 37.0923 -1.92677 -0.242726 0
M  V30 384 C 34.2223 -3.47295 -0.0184607 0
M  V30 385 C 33.1763 -4.18536 0.895073 0
M  V30 386 C 32.5023 -5.34586 0.110592 0
M  V30 387 C 33.8023 -4.73287 2.209 0
M  V30 388 H 35.4963 -2.58372 1.51275 0
M  V30 389 H 33.0423 -1.24194 0.728818 0
M  V30 390 H 34.9953 -4.20268 -0.308675 0
M  V30 391 H 33.7193 -3.12933 -0.934907 0
M  V30 392 H 32.3783 -3.47446 1.16949 0
M  V30 393 H 32.0263 -4.96469 -0.807902 0
M  V30 394 H 31.7263 -5.83183 0.719087 0
M  V30 395 H 33.2503 -6.10355 -0.172871 0
M  V30 396 H 34.6643 -5.38013 1.98028 0
M  V30 397 H 33.0613 -5.32373 2.76946 0
M  V30 398 H 34.1313 -3.91331 2.86336 0
M  V30 399 N 35.4744 -0.807222 -1.35358 0
M  V30 400 C 36.8854 -0.44876 -1.81226 0
M  V30 401 C 37.2364 1.02929 -1.67033 0
M  V30 402 O 36.3614 1.79991 -1.20133 0
M  V30 403 C 36.9564 -0.807774 -3.2903 0
M  V30 404 C 35.5154 -0.501901 -3.73039 0
M  V30 405 C 34.6624 -1.03304 -2.57339 0
M  V30 406 H 37.6134 -0.998808 -1.23327 0
M  V30 407 H 37.6344 -0.10554 -3.80354 0
M  V30 408 H 37.1464 -1.88357 -3.39328 0
M  V30 409 H 35.2474 0.565128 -3.68289 0
M  V30 410 H 35.3604 -1.03497 -4.67787 0
M  V30 411 H 33.7244 -0.455339 -2.50597 0
M  V30 412 H 34.5074 -2.11496 -2.70415 0
M  V30 413 N 36.9525 1.47285 -0.560781 0
M  V30 414 C 37.8825 2.32857 0.173105 0
M  V30 415 C 38.8635 1.44009 0.905281 0
M  V30 416 O 40.0485 1.7286 0.885046 0
M  V30 417 C 37.1785 3.25861 1.20133 0
M  V30 418 C 36.1325 4.23978 0.585388 0
M  V30 419 C 35.4585 5.06332 1.7185 0
M  V30 420 C 36.7585 5.20242 -0.463178 0
M  V30 421 H 38.4525 2.94466 -0.541307 0
M  V30 422 H 35.9985 1.41601 -0.261764 0
M  V30 423 H 37.9515 3.84569 1.72293 0
M  V30 424 H 36.6755 2.62315 1.94573 0
M  V30 425 H 35.3345 3.66501 0.085054 0
M  V30 426 H 34.9825 4.39186 2.45203 0
M  V30 427 H 34.6825 5.72762 1.31213 0
M  V30 428 H 36.2065 5.67899 2.24329 0
M  V30 429 H 37.6205 5.73293 -0.027502 0
M  V30 430 H 36.0175 5.94896 -0.788627 0
M  V30 431 H 37.0875 4.65504 -1.35773 0
M  V30 432 N 38.4306 0.297415 1.54768 0
M  V30 433 C 39.6586 -0.315623 2.04478 0
M  V30 434 C 40.0736 -1.47792 1.17486 0
M  V30 435 O 39.4306 -1.81404 0.19971 0
M  V30 436 C 39.4816 -0.7753 3.53088 0
M  V30 437 O 39.2026 0.340732 4.36773 0
M  V30 438 C 40.7036 -1.45386 4.18781 0
M  V30 439 H 37.9236 -0.0690887 0.667434 0
M  V30 440 H 40.4676 0.436003 1.99798 0
M  V30 441 H 38.6226 -1.47696 3.58141 0
M  V30 442 H 39.0366 -0.0165035 5.24497 0
M  V30 443 H 40.5106 -1.72669 5.24299 0
M  V30 444 H 40.9876 -2.39275 3.68299 0
M  V30 445 H 41.5936 -0.795475 4.17795 0
M  V30 446 N 39.9087 -1.5758 0.0250728 0
M  V30 447 C 40.8557 -2.09973 -0.958129 0
M  V30 448 C 41.8257 -1.00085 -1.3256 0
M  V30 449 O 43.0107 -1.27481 -1.41962 0
M  V30 450 C 40.1507 -2.62812 -2.2366 0
M  V30 451 C 39.2637 -3.86693 -1.92594 0
M  V30 452 C 38.3987 -4.27941 -3.14707 0
M  V30 453 C 37.4377 -5.44591 -2.79442 0
M  V30 454 N 36.5747 -5.81014 -3.94167 0
M  V30 455 H 41.4147 -2.937 -0.504428 0
M  V30 456 H 38.9517 -1.45172 -0.237392 0
M  V30 457 H 40.9097 -2.91536 -2.98434 0
M  V30 458 H 39.5397 -1.81922 -2.66654 0
M  V30 459 H 38.5917 -3.64723 -1.0808 0
M  V30 460 H 39.9037 -4.71547 -1.62619 0
M  V30 461 H 39.0577 -4.58079 -3.97804 0
M  V30 462 H 37.7967 -3.41845 -3.4784 0
M  V30 463 H 36.8017 -5.1415 -1.94755 0
M  V30 464 H 38.0267 -6.32382 -2.47528 0
M  V30 465 H 35.9727 -4.97874 -4.2715 0
M  V30 466 H 35.8897 -6.60498 -3.67801 0
M  V30 467 H 37.1577 -6.15756 -4.7798 0
M  V30 468 N 41.3868 0.248026 -1.55636 0
M  V30 469 C 42.2968 1.32859 -1.93354 0
M  V30 470 C 43.3128 1.52719 -0.833838 0
M  V30 471 O 44.4888 1.66363 -1.13513 0
M  V30 472 C 41.5538 2.66337 -2.21958 0
M  V30 473 C 40.6148 2.55008 -3.45354 0
M  V30 474 C 39.8478 3.82121 -3.72584 0
M  V30 475 O 40.0708 4.83951 -3.01907 0
M  V30 476 O 39.0048 3.80822 -4.6611 0
M  V30 477 H 42.8308 1.03862 -2.85388 0
M  V30 478 H 40.4158 0.448686 -1.42503 0
M  V30 479 H 42.2978 3.45216 -2.4167 0
M  V30 480 H 40.9728 2.95068 -1.33103 0
M  V30 481 H 39.8798 1.7442 -3.30951 0
M  V30 482 H 41.2128 2.31222 -4.34508 0
M  V30 483 N 42.8649 1.48995 0.513639 0
M  V30 484 C 43.7749 1.67443 1.64317 0
M  V30 485 C 44.7909 0.556947 1.64846 0
M  V30 486 O 45.9669 0.830082 1.83498 0
M  V30 487 C 43.0319 1.72515 3.00732 0
M  V30 488 C 42.0929 2.96009 3.1093 0
M  V30 489 C 41.3259 3.00829 4.40837 0
M  V30 490 O 41.5489 2.13594 5.28898 0
M  V30 491 O 40.4829 3.93168 4.55744 0
M  V30 492 H 44.3089 2.63106 1.51687 0
M  V30 493 H 41.8939 1.32588 0.688543 0
M  V30 494 H 43.7759 1.78277 3.81831 0
M  V30 495 H 42.4509 0.800278 3.13651 0
M  V30 496 H 41.3579 2.9577 2.29065 0
M  V30 497 H 42.6909 3.87934 3.02933 0
M  V30 498 N 44.343 -0.763751 1.37857 0
M  V30 499 C 45.29 -1.87726 1.34267 0
M  V30 500 C 46.26 -1.64807 0.206879 0
M  V30 501 O 47.445 -1.86613 0.397508 0
M  V30 502 C 44.585 -3.24896 1.16346 0
M  V30 503 C 43.698 -3.59716 2.39225 0
M  V30 504 C 42.833 -4.86137 2.14114 0
M  V30 505 C 41.872 -5.13711 3.32817 0
M  V30 506 N 41.009 -6.31323 3.07206 0
M  V30 507 H 45.849 -1.90129 2.29466 0
M  V30 508 H 43.386 -0.929433 1.14017 0
M  V30 509 H 45.344 -4.04036 1.03975 0
M  V30 510 H 43.974 -3.21847 0.247909 0
M  V30 511 H 43.026 -2.75498 2.62307 0
M  V30 512 H 44.338 -3.76027 3.27728 0
M  V30 513 H 43.492 -5.73198 1.9882 0
M  V30 514 H 42.231 -4.71945 1.22961 0
M  V30 515 H 41.236 -4.25123 3.48641 0
M  V30 516 H 42.461 -5.29807 4.24832 0
M  V30 517 H 40.407 -6.18474 2.1869 0
M  V30 518 H 40.324 -6.48087 3.89254 0
M  V30 519 H 41.592 -7.213 2.95546 0
M  V30 520 N 45.8211 -1.22559 -0.990812 0
M  V30 521 C 46.7311 -1.01394 -2.11557 0
M  V30 522 C 47.7471 0.0383962 -1.73958 0
M  V30 523 O 48.9231 -0.154787 -2.00804 0
M  V30 524 C 45.9881 -0.596569 -3.41529 0
M  V30 525 C 45.0491 -1.72276 -3.93217 0
M  V30 526 C 44.2821 -1.32521 -5.16985 0
M  V30 527 O 44.5051 -0.204909 -5.70032 0
M  V30 528 O 43.4391 -2.14247 -5.62478 0
M  V30 529 H 47.2651 -1.95633 -2.32296 0
M  V30 530 H 44.8501 -1.01172 -1.0993 0
M  V30 531 H 46.7321 -0.374263 -4.19735 0
M  V30 532 H 45.4071 0.316939 -3.22145 0
M  V30 533 H 44.3141 -1.99961 -3.16174 0
M  V30 534 H 45.6471 -2.61421 -4.17037 0
M  V30 535 N 47.2992 1.18797 -1.03562 0
M  V30 536 C 48.5272 1.92599 -0.755869 0
M  V30 537 C 48.9422 1.75886 0.686271 0
M  V30 538 O 48.2992 1.08517 1.46732 0
M  V30 539 C 48.3502 3.44159 -1.10619 0
M  V30 540 O 48.0712 3.60341 -2.4917 0
M  V30 541 C 49.5722 4.3507 -0.850214 0
M  V30 542 H 46.7922 0.611587 -0.276048 0
M  V30 543 H 49.3362 1.50742 -1.38192 0
M  V30 544 H 47.4912 3.83823 -0.525194 0
M  V30 545 H 47.9052 4.54128 -2.62427 0
M  V30 546 H 49.3792 5.39989 -1.14523 0
M  V30 547 H 49.8562 4.38673 0.215176 0
M  V30 548 H 50.4622 4.01097 -1.41426 0
M  V30 549 N 48.7773 0.814389 1.34928 0
M  V30 550 C 49.7073 0.244827 2.32213 0
M  V30 551 C 50.6883 -0.634024 1.57842 0
M  V30 552 O 51.8733 -0.562676 1.8587 0
M  V30 553 C 49.0033 -0.601106 3.42058 0
M  V30 554 C 47.9573 0.179896 4.27622 0
M  V30 555 C 47.2833 -0.788237 5.28858 0
M  V30 556 C 48.5833 1.38329 5.03649 0
M  V30 557 H 50.2773 1.05763 2.80097 0
M  V30 558 H 47.8233 0.510029 1.34665 0
M  V30 559 H 49.7763 -1.00968 4.09125 0
M  V30 560 H 48.5003 -1.44688 2.92802 0
M  V30 561 H 47.1593 0.569739 3.62146 0
M  V30 562 H 46.8073 -1.62973 4.75866 0
M  V30 563 H 46.5073 -0.269942 5.8698 0
M  V30 564 H 48.0313 -1.19485 5.98795 0
M  V30 565 H 49.4453 1.04918 5.63618 0
M  V30 566 H 47.8423 1.83662 5.71304 0
M  V30 567 H 48.9123 2.16592 4.33839 0
M  V30 568 N 50.2554 -1.46986 0.568584 0
M  V30 569 C 51.5044 -2.01646 0.0465894 0
M  V30 570 C 51.8174 -1.44721 -1.31587 0
M  V30 571 O 53.0234 -1.91113 -1.92842 0
M  V30 572 C 51.4794 -3.59885 0.032752 0
M  V30 573 C 51.0874 -4.25804 1.39266 0
M  V30 574 C 52.8314 -4.22255 -0.436038 0
M  V30 575 C 50.7384 -5.76081 1.33732 0
M  V30 576 H 49.6684 -0.753876 0.013647 0
M  V30 577 H 52.3194 -1.68864 0.718131 0
M  V30 578 H 50.7014 -3.8968 -0.704669 0
M  V30 579 H 51.8754 -4.07637 2.1487 0
M  V30 580 H 50.1904 -3.7547 1.80032 0
M  V30 581 H 52.7874 -5.32394 -0.49602 0
M  V30 582 H 53.1304 -3.90212 -1.45053 0
M  V30 583 H 53.6634 -3.97033 0.246877 0
M  V30 584 H 50.4024 -6.12761 2.32817 0
M  V30 585 H 49.9224 -5.96553 0.623267 0
M  V30 586 H 51.6014 -6.38518 1.0442 0
M  V30 587 N 51.7335 -0.305618 -1.54608 0
M  V30 588 C 52.6965 0.555591 -2.22364 0
M  V30 589 C 53.6965 1.05768 -1.21119 0
M  V30 590 O 54.8865 0.952972 -1.45822 0
M  V30 591 C 52.0185 1.76974 -2.91364 0
M  V30 592 H 53.2115 -0.0364572 -2.99878 0
M  V30 593 H 50.7645 -0.0565007 -1.56198 0
M  V30 594 H 51.4995 2.40151 -2.17941 0
M  V30 595 H 51.2845 1.41732 -3.65588 0
M  V30 596 H 52.7745 2.38148 -3.43038 0
M  V30 597 N 53.2116 1.57565 -0.0334293 0
M  V30 598 C 54.1446 2.05997 0.981866 0
M  V30 599 C 55.1226 0.956647 1.3148 0
M  V30 600 O 56.3066 1.22729 1.43073 0
M  V30 601 C 53.4336 2.48564 2.30074 0
M  V30 602 C 52.4796 3.69958 2.12211 0
M  V30 603 S 53.3126 5.16414 1.41692 0
M  V30 604 C 54.4686 5.6228 2.7494 0
M  V30 605 H 54.7016 2.91792 0.569612 0
M  V30 606 H 52.2346 1.53366 0.178376 0
M  V30 607 H 54.1926 2.73753 3.05892 0
M  V30 608 H 52.8536 1.63106 2.68431 0
M  V30 609 H 52.0466 3.97603 3.09722 0
M  V30 610 H 51.6486 3.44943 1.44535 0
M  V30 611 H 53.9406 5.66783 3.71165 0
M  V30 612 H 54.8836 6.61759 2.51953 0
M  V30 613 H 55.2916 4.89944 2.80384 0
M  V30 614 N 54.6897 -0.239769 1.55765 0
M  V30 615 C 56.1057 -0.588624 1.48349 0
M  V30 616 C 56.3057 -1.88005 0.72502 0
M  V30 617 O 55.3617 -2.51186 0.257269 0
M  V30 618 C 56.6747 -0.68474 2.928 0
M  V30 619 C 58.2227 -0.77659 3.03213 0
M  V30 620 C 58.6977 -0.904207 4.48986 0
M  V30 621 N 60.1887 -0.968896 4.52953 0
M  V30 622 C 60.9237 -1.08703 5.63002 0
M  V30 623 N 60.4197 -1.17026 6.82845 0
M  V30 624 N 62.2127 -1.12074 5.50814 0
M  V30 625 H 54.3637 0.607911 2.03515 0
M  V30 626 H 56.6267 0.21083 0.924259 0
M  V30 627 H 56.3327 0.194284 3.51163 0
M  V30 628 H 56.2067 -1.55435 3.43686 0
M  V30 629 H 58.5937 -1.64606 2.44926 0
M  V30 630 H 58.6747 0.118315 2.55526 0
M  V30 631 H 58.3187 -0.0392633 5.07885 0
M  V30 632 H 58.2487 -1.81426 4.9436 0
M  V30 633 H 60.7397 -0.915633 3.6664 0
M  V30 634 H 61.0527 -1.25966 7.62465 0
M  V30 635 H 59.3977 -1.13971 6.85591 0
M  V30 636 H 62.5887 -1.05226 4.5612 0
M  V30 637 H 62.7617 -1.20936 6.36615 0
M  V30 638 N 56.1678 -1.49265 -0.50573 0
M  V30 639 C 57.0778 -1.68312 -1.63427 0
M  V30 640 C 58.0938 -0.565682 -1.64548 0
M  V30 641 O 59.2698 -0.839801 -1.83055 0
M  V30 642 C 56.3348 -1.74107 -2.99813 0
M  V30 643 C 55.3958 -2.97653 -3.09356 0
M  V30 644 C 54.6288 -3.03163 -4.39236 0
M  V30 645 O 54.8518 -2.16396 -5.27758 0
M  V30 646 O 53.7858 -3.9558 -4.53652 0
M  V30 647 H 57.6118 -2.63907 -1.50289 0
M  V30 648 H 55.1968 -1.32951 -0.681502 0
M  V30 649 H 57.0788 -1.803 -3.80881 0
M  V30 650 H 55.7538 -0.816901 -3.13223 0
M  V30 651 H 54.6608 -2.96981 -2.27493 0
M  V30 652 H 55.9938 -3.89535 -3.00871 0
M  V30 653 N 57.6459 0.756429 -1.3826 0
M  V30 654 C 58.8929 1.51547 -1.34312 0
M  V30 655 C 59.2209 1.94382 0.0677144 0
M  V30 656 O 58.4759 1.65514 1.04421 0
M  V30 657 C 58.7749 2.78313 -2.24224 0
M  V30 658 C 58.4409 2.54455 -3.72241 0
M  V30 659 C 57.1029 2.47657 -4.12576 0
M  V30 660 C 59.4549 2.3354 -4.65949 0
M  V30 661 C 56.7829 2.17956 -5.44713 0
M  V30 662 C 59.1349 2.05359 -5.9834 0
M  V30 663 C 57.7989 1.97016 -6.37762 0
M  V30 664 H 57.0689 0.55455 -0.491482 0
M  V30 665 H 59.7159 0.870039 -1.70595 0
M  V30 666 H 58.0209 3.47492 -1.80987 0
M  V30 667 H 59.7179 3.36259 -2.18474 0
M  V30 668 H 56.3079 2.60616 -3.40261 0
M  V30 669 H 60.4919 2.37772 -4.35635 0
M  V30 670 H 55.7479 2.10003 -5.74203 0
M  V30 671 H 59.9219 1.88179 -6.70494 0
M  V30 672 H 57.5489 1.73766 -7.40074 0
M  V30 673 N 59.124 1.23083 0.984299 0
M  V30 674 C 60.054 1.03292 2.09411 0
M  V30 675 C 61.035 -0.048923 1.7003 0
M  V30 676 O 62.22 0.114967 1.93859 0
M  V30 677 C 59.35 0.619155 3.41736 0
M  V30 678 C 58.304 1.64791 3.95004 0
M  V30 679 C 57.63 1.0897 5.23478 0
M  V30 680 C 58.93 3.03999 4.24714 0
M  V30 681 H 60.624 1.96119 2.26225 0
M  V30 682 H 58.17 0.944344 1.08711 0
M  V30 683 H 60.123 0.467777 4.18796 0
M  V30 684 H 58.847 -0.344786 3.24775 0
M  V30 685 H 57.506 1.78721 3.20085 0
M  V30 686 H 57.154 0.11686 5.02864 0
M  V30 687 H 56.854 1.77704 5.60085 0
M  V30 688 H 58.378 0.950093 6.03163 0
M  V30 689 H 59.792 2.93393 4.92538 0
M  V30 690 H 58.189 3.69936 4.72512 0
M  V30 691 H 59.259 3.53285 3.32142 0
M  V30 692 N 60.6021 -1.18246 1.0419 0
M  V30 693 C 61.8481 -1.88536 0.747122 0
M  V30 694 C 62.1811 -1.80223 -0.723409 0
M  V30 695 O 61.4561 -1.20337 -1.52804 0
M  V30 696 C 61.7391 -3.38968 1.21544 0
M  V30 697 C 61.5921 -3.56084 2.74816 0
M  V30 698 C 62.9111 -4.32648 0.806482 0
M  V30 699 H 60.0301 -0.684619 0.272883 0
M  V30 700 H 62.6721 -1.39113 1.29413 0
M  V30 701 H 60.8221 -3.8119 0.750081 0
M  V30 702 H 62.4941 -3.22946 3.29399 0
M  V30 703 H 60.7371 -2.98699 3.14582 0
M  V30 704 H 61.4081 -4.61639 3.02644 0
M  V30 705 H 63.8841 -3.98211 1.20695 0
M  V30 706 H 62.7601 -5.36462 1.1619 0
M  V30 707 H 63.0211 -4.41146 -0.29029 0
M  V30 708 N 62.0802 -0.821533 -1.34494 0
M  V30 709 C 63.0282 -0.230702 -2.31453 0
M  V30 710 C 64.0222 0.627793 -1.57338 0
M  V30 711 O 65.2282 0.519288 -1.72347 0
M  V30 712 H 61.6032 -0.0558577 -0.749923 0
M  V30 713 H 63.5742 -1.06332 -2.78812 0
M  V30 714 C 62.3232 0.59391 -3.4259 0
M  V30 715 H 61.6462 -0.0573588 -3.99759 0
M  V30 716 H 63.0862 0.973446 -4.12674 0
M  V30 717 C 61.5452 1.76568 -2.86924 0
M  V30 718 O 62.0752 2.8638 -2.81691 0
M  V30 719 N 60.2812 1.58198 -2.43766 0
M  V30 720 H 59.8282 0.68872 -2.48222 0
M  V30 721 H 59.7862 2.36752 -2.06871 0
M  V30 722 N 63.5583 1.46682 -0.576371 0
M  V30 723 C 64.7833 2.07304 -0.0630475 0
M  V30 724 C 65.2083 1.42329 1.2298 0
M  V30 725 O 64.5663 0.504865 1.74129 0
M  V30 726 C 64.6143 3.60472 0.095895 0
M  V30 727 O 63.7183 3.95927 1.15394 0
M  V30 728 H 63.0593 0.661288 -0.0599463 0
M  V30 729 H 65.5893 1.88417 -0.797511 0
M  V30 730 H 65.5993 4.06865 0.304071 0
M  V30 731 H 64.2743 4.07157 -0.84828 0
M  V30 732 H 62.8513 3.61252 0.924724 0
M  V30 733 N 65.0364 0.313813 1.54444 0
M  V30 734 C 65.9684 -0.590425 2.21465 0
M  V30 735 C 66.9814 -1.08753 1.21147 0
M  V30 736 O 68.1704 -1.00278 1.4767 0
M  V30 737 C 65.2704 -1.82179 2.85769 0
M  V30 738 C 64.4434 -1.46502 4.12136 0
M  V30 739 C 63.5024 -2.55288 4.60124 0
M  V30 740 O 62.5284 -2.19842 5.25032 0
M  V30 741 N 63.7304 -3.86053 4.33525 0
M  V30 742 H 66.4954 -0.0166033 2.99695 0
M  V30 743 H 64.0564 0.136578 1.61323 0
M  V30 744 H 66.0484 -2.54328 3.14801 0
M  V30 745 H 64.6184 -2.30369 2.11303 0
M  V30 746 H 63.8384 -0.575595 3.89975 0
M  V30 747 H 65.1264 -1.20221 4.94393 0
M  V30 748 H 64.5244 -4.17654 3.81552 0
M  V30 749 H 63.0814 -4.54461 4.67235 0
M  V30 750 N 66.5145 -1.57545 0.0417849 0
M  V30 751 C 67.7915 -1.83642 -0.673433 0
M  V30 752 C 68.1715 -0.928298 -1.89594 0
M  V30 753 O 67.5195 0.0129955 -2.28496 0
M  V30 754 C 67.7295 -3.33155 -1.03964 0
M  V30 755 C 69.0775 -3.99941 -1.42592 0
M  V30 756 O 70.1015 -3.37725 -1.13226 0
M  V30 757 O 68.9605 -5.09619 -1.9736 0
M  V30 758 H 66.0545 -0.757638 -0.331533 0
M  V30 759 H 68.6005 -1.69554 0.070433 0
M  V30 760 H 67.3725 -3.9093 -0.170098 0
M  V30 761 H 66.9955 -3.52396 -1.84126 0
M  V30 762 N 67.9926 0.231505 -1.5589 0
M  V30 763 C 68.9026 1.308 -1.94752 0
M  V30 764 C 69.9186 1.51826 -0.849989 0
M  V30 765 O 71.0946 1.6515 -1.15271 0
M  V30 766 C 68.1596 2.63968 -2.24771 0
M  V30 767 C 67.2206 2.51331 -3.48039 0
M  V30 768 C 66.4536 3.78148 -3.76616 0
M  V30 769 O 66.6766 4.80722 -3.07022 0
M  V30 770 O 65.6106 3.75857 -4.70123 0
M  V30 771 H 69.4366 1.0083 -2.86474 0
M  V30 772 H 67.0216 0.433547 -1.42971 0
M  V30 773 H 68.9036 3.42633 -2.45318 0
M  V30 774 H 67.5786 2.9364 -1.36225 0
M  V30 775 H 66.4856 1.709 -3.32782 0
M  V30 776 H 67.8186 2.26601 -4.36936 0
M  V30 777 N 69.4707 1.49531 0.497807 0
M  V30 778 C 70.3807 1.69176 1.62532 0
M  V30 779 C 71.3967 0.5744 1.64246 0
M  V30 780 O 72.5727 0.849497 1.82608 0
M  V30 781 C 69.6377 1.75695 2.98885 0
M  V30 782 C 68.6987 2.9929 3.07773 0
M  V30 783 C 67.9317 3.05488 4.37622 0
M  V30 784 O 68.1547 2.19192 5.26603 0
M  V30 785 O 67.0887 3.9798 4.51548 0
M  V30 786 H 70.9147 2.647 1.48887 0
M  V30 787 H 68.4997 1.3331 0.674441 0
M  V30 788 H 70.3817 1.82317 3.79919 0
M  V30 789 H 69.0567 0.8335 3.12785 0
M  V30 790 H 67.9637 2.98183 2.25915 0
M  V30 791 H 69.2967 3.91125 2.98801 0
M  V30 792 N 70.9488 -0.749086 1.3866 0
M  V30 793 C 72.1978 -1.50371 1.3443 0
M  V30 794 C 72.5108 -1.95503 -0.0616397 0
M  V30 795 O 73.7168 -2.70554 -0.226489 0
M  V30 796 C 72.1728 -2.71644 2.36088 0
M  V30 797 C 71.7808 -2.3352 3.82325 0
M  V30 798 C 73.5248 -3.49518 2.40909 0
M  V30 799 C 71.4318 -3.51431 4.75658 0
M  V30 800 H 70.3618 -0.564628 0.499712 0
M  V30 801 H 73.0128 -0.818449 1.64237 0
M  V30 802 H 71.3948 -3.42175 1.9933 0
M  V30 803 H 72.5688 -1.70627 4.28046 0
M  V30 804 H 70.8838 -1.6877 3.80665 0
M  V30 805 H 73.4808 -4.37197 3.07836 0
M  V30 806 H 73.8238 -3.90992 1.42937 0
M  V30 807 H 74.3568 -2.86005 2.76489 0
M  V30 808 H 71.0958 -3.15019 5.74842 0
M  V30 809 H 70.6158 -4.13352 4.34627 0
M  V30 810 H 72.2948 -4.17953 4.93887 0
M  V30 811 N 72.4269 -1.23603 -0.977757 0
M  V30 812 C 73.3899 -1.02069 -2.05218 0
M  V30 813 C 74.3899 0.0184305 -1.60789 0
M  V30 814 O 75.5799 -0.221569 -1.72785 0
M  V30 815 C 72.7119 -0.544926 -3.36517 0
M  V30 816 H 73.9049 -1.9742 -2.25755 0
M  V30 817 H 71.4579 -1.05684 -1.15155 0
M  V30 818 H 72.1929 0.412241 -3.21669 0
M  V30 819 H 71.9779 -1.2948 -3.70105 0
M  V30 820 H 73.4679 -0.414985 -4.15533 0
M  V30 821 N 73.905 1.17692 -1.04816 0
M  V30 822 C 74.852 2.21581 -0.645797 0
M  V30 823 C 75.822 1.62367 0.350159 0
M  V30 824 O 77.007 1.89254 0.242433 0
M  V30 825 C 74.147 3.45092 -0.0227568 0
M  V30 826 C 73.26 4.18613 -1.06709 0
M  V30 827 C 72.395 5.29602 -0.411767 0
M  V30 828 C 71.434 5.94904 -1.44067 0
M  V30 829 N 70.571 6.97414 -0.809781 0
M  V30 830 H 75.411 2.55353 -1.5362 0
M  V30 831 H 72.948 1.25438 -0.768364 0
M  V30 832 H 74.906 4.15679 0.35588 0
M  V30 833 H 73.536 3.11917 0.831122 0
M  V30 834 H 72.588 3.46779 -1.5636 0
M  V30 835 H 73.9 4.63293 -1.84827 0
M  V30 836 H 73.054 6.06696 0.0206623 0
M  V30 837 H 71.793 4.86045 0.401438 0
M  V30 838 H 70.798 5.16544 -1.88316 0
M  V30 839 H 72.023 6.40542 -2.25571 0
M  V30 840 H 69.969 6.55998 -0.0170186 0
M  V30 841 H 69.886 7.40386 -1.52856 0
M  V30 842 H 71.154 7.78463 -0.401999 0
M  V30 843 N 75.3831 0.828654 1.34056 0
M  V30 844 C 76.7991 0.515135 1.51058 0
M  V30 845 C 76.9991 -0.959581 1.77184 0
M  V30 846 O 76.0551 -1.74382 1.82612 0
M  V30 847 C 77.3681 1.37963 2.67183 0
M  V30 848 C 78.9161 1.37735 2.81066 0
M  V30 849 C 79.3911 2.22645 4.00241 0
M  V30 850 N 80.8821 2.203 4.07458 0
M  V30 851 C 81.6171 2.82744 4.98842 0
M  V30 852 N 81.1131 3.54201 5.9541 0
M  V30 853 N 82.9061 2.72268 4.91759 0
M  V30 854 H 75.0571 1.78343 1.15358 0
M  V30 855 H 77.3201 0.760304 0.566252 0
M  V30 856 H 77.0261 2.42714 2.54525 0
M  V30 857 H 76.9001 1.0484 3.62338 0
M  V30 858 H 79.2871 0.337593 2.93163 0
M  V30 859 H 79.3681 1.74859 1.86703 0
M  V30 860 H 79.0121 3.26674 3.88905 0
M  V30 861 H 78.9421 1.82869 4.93829 0
M  V30 862 H 81.4331 1.68327 3.38341 0
M  V30 863 H 81.7461 3.9908 6.61782 0
M  V30 864 H 80.0911 3.58308 5.95517 0
M  V30 865 H 83.2821 2.16014 4.15278 0
M  V30 866 H 83.4551 3.21219 5.62781 0
M  V30 867 N 76.8612 -1.46375 0.584142 0
M  V30 868 C 78.0912 -2.06461 0.0758195 0
M  V30 869 C 78.4992 -1.43322 -1.23512 0
M  V30 870 O 77.8422 -0.533216 -1.75791 0
M  V30 871 C 77.9042 -3.59131 -0.162773 0
M  V30 872 C 77.5682 -4.4447 1.06279 0
M  V30 873 C 78.5652 -4.80918 1.97519 0
M  V30 874 C 76.2502 -4.85584 1.28504 0
M  V30 875 C 78.2442 -5.57309 3.09331 0
M  V30 876 C 75.9312 -5.61734 2.4062 0
M  V30 877 C 76.9292 -5.9751 3.30863 0
M  V30 878 O 76.6172 -6.72121 4.41032 0
M  V30 879 H 76.3492 -0.673745 0.0551725 0
M  V30 880 H 78.9032 -1.88969 0.804984 0
M  V30 881 H 77.1332 -3.74936 -0.946565 0
M  V30 882 H 78.8222 -4.0114 -0.619782 0
M  V30 883 H 79.5882 -4.49732 1.81565 0
M  V30 884 H 75.4672 -4.57187 0.591702 0
M  V30 885 H 79.0112 -5.85152 3.79793 0
M  V30 886 H 74.9082 -5.92334 2.56537 0
M  V30 887 H 75.6762 -6.90547 4.39417 0
M  V30 888 N 78.3393 -0.321999 -1.54275 0
M  V30 889 C 79.5873 0.280489 -2.00144 0
M  V30 890 C 79.9083 1.52777 -1.21178 0
M  V30 891 O 79.1783 1.9338 -0.313187 0
M  V30 892 H 77.7583 0.106632 -0.73935 0
M  V30 893 H 80.4203 -0.438184 -1.8991 0
M  V30 894 H 79.5163 0.537972 -3.07428 0
M  V30 895 N 79.8174 1.5752 -0.0501392 0
M  V30 896 C 80.7474 2.14502 0.922566 0
M  V30 897 C 81.7284 1.06642 1.3252 0
M  V30 898 O 82.9134 1.34577 1.4001 0
M  V30 899 C 80.0434 2.68916 2.19776 0
M  V30 900 C 78.9974 3.8175 1.93523 0
M  V30 901 C 78.3234 4.22677 3.27487 0
M  V30 902 C 79.6234 5.06932 1.25765 0
M  V30 903 H 81.3174 2.9603 0.447952 0
M  V30 904 H 78.8634 1.42401 0.214024 0
M  V30 905 H 80.8164 3.07419 2.88222 0
M  V30 906 H 79.5404 1.84578 2.69441 0
M  V30 907 H 78.1994 3.43718 1.27489 0
M  V30 908 H 77.8474 3.35291 3.74952 0
M  V30 909 H 77.5474 4.98725 3.1072 0
M  V30 910 H 79.0714 4.63779 3.97166 0
M  V30 911 H 80.4854 5.42888 1.84244 0
M  V30 912 H 78.8824 5.88116 1.19328 0
M  V30 913 H 79.9524 4.84337 0.233536 0
M  V30 914 N 81.2955 -0.223234 1.56011 0
M  V30 915 C 82.7115 -0.572856 1.48965 0
M  V30 916 C 82.9115 -1.87225 0.74492 0
M  V30 917 O 81.9675 -2.50899 0.283896 0
M  V30 918 C 83.2805 -0.653646 2.9351 0
M  V30 919 C 84.8285 -0.744386 3.0402 0
M  V30 920 C 85.3035 -0.856535 4.49919 0
M  V30 921 N 86.7945 -0.9208 4.53955 0
M  V30 922 C 87.5295 -1.02726 5.64123 0
M  V30 923 N 87.0255 -1.09777 6.84047 0
M  V30 924 N 88.8185 -1.06226 5.51971 0
M  V30 925 H 80.9695 0.629462 2.02858 0
M  V30 926 H 83.2325 0.220621 0.921971 0
M  V30 927 H 82.9385 0.231518 3.50937 0
M  V30 928 H 82.8125 -1.51781 3.45315 0
M  V30 929 H 85.1995 -1.61999 2.46658 0
M  V30 930 H 85.2805 0.14541 2.55386 0
M  V30 931 H 84.9245 0.0146069 5.07898 0
M  V30 932 H 84.8545 -1.76172 4.96257 0
M  V30 933 H 87.3455 -0.876694 3.6759 0
M  V30 934 H 87.6585 -1.17872 7.63758 0
M  V30 935 H 86.0035 -1.06693 6.86762 0
M  V30 936 H 89.1945 -1.00382 4.5721 0
M  V30 937 H 89.3675 -1.14177 6.37862 0
M  V30 938 N 82.7736 -1.49793 -0.48987 0
M  V30 939 C 83.9986 -1.63836 -1.27172 0
M  V30 940 C 84.4236 -0.31402 -1.8546 0
M  V30 941 O 83.7816 0.719803 -1.66399 0
M  V30 942 C 83.8296 -2.71797 -2.36978 0
M  V30 943 O 82.9336 -2.31744 -3.41128 0
M  V30 944 H 82.2746 -0.547997 -0.37496 0
M  V30 945 H 84.8046 -1.96053 -0.585191 0
M  V30 946 H 84.8146 -2.94305 -2.82575 0
M  V30 947 H 83.4896 -3.67923 -1.93921 0
M  V30 948 H 82.0666 -2.1961 -3.01373 0
M  V30 949 N 84.2517 0.741722 -1.39055 0
M  V30 950 C 85.4997 1.49818 -1.35643 0
M  V30 951 C 85.8207 1.94938 0.0491642 0
M  V30 952 O 85.0907 1.68505 0.999141 0
M  V30 953 H 83.6707 0.555755 -0.499144 0
M  V30 954 H 86.3327 0.880957 -1.73854 0
M  V30 955 H 85.4287 2.38348 -2.01486 0
M  V30 956 N 85.7298 1.2412 0.971189 0
M  V30 957 C 86.9758 1.08041 1.71625 0
M  V30 958 C 87.3088 -0.380407 1.90438 0
M  V30 959 O 86.5838 -1.28127 1.46334 0
M  V30 960 C 86.8668 1.81682 3.10908 0
M  V30 961 C 86.7198 3.35493 2.99608 0
M  V30 962 C 88.0388 1.58671 4.10501 0
M  V30 963 H 85.1578 0.39388 0.622919 0
M  V30 964 H 87.7998 1.52743 1.13003 0
M  V30 965 H 85.9498 1.43684 3.60953 0
M  V30 966 H 87.6218 3.83068 2.57015 0
M  V30 967 H 85.8648 3.64052 2.35899 0
M  V30 968 H 86.5358 3.82217 3.98264 0
M  V30 969 H 89.0118 1.91719 3.69301 0
M  V30 970 H 87.8878 2.1266 5.06031 0
M  V30 971 H 88.1488 0.524161 4.38982 0
M  V30 972 N 87.2079 -1.17134 1.05439 0
M  V30 973 C 88.4559 -1.87085 0.764429 0
M  V30 974 C 88.7769 -1.81584 -0.710787 0
M  V30 975 O 88.0469 -1.24349 -1.51374 0
M  V30 976 H 86.6269 -0.692627 0.279779 0
M  V30 977 H 89.2889 -1.42087 1.33406 0
M  V30 978 H 88.3849 -2.92759 1.0816 0
M  V30 979 N 88.686 -0.835752 -1.33615 0
M  V30 980 C 89.616 -0.281739 -2.31794 0
M  V30 981 C 90.597 0.608833 -1.58831 0
M  V30 982 O 91.782 0.533035 -1.86741 0
M  V30 983 C 88.912 0.546612 -3.42971 0
M  V30 984 C 87.866 -0.247904 -4.27281 0
M  V30 985 C 87.192 0.704001 -5.30045 0
M  V30 986 C 88.492 -1.46324 -5.01385 0
M  V30 987 H 90.186 -1.10206 -2.78379 0
M  V30 988 H 87.732 -0.531388 -1.33837 0
M  V30 989 H 89.685 0.944467 -4.1068 0
M  V30 990 H 88.409 1.40011 -2.95067 0
M  V30 991 H 87.068 -0.627281 -3.61194 0
M  V30 992 H 86.716 1.55381 -4.78399 0
M  V30 993 H 86.416 0.176524 -5.87335 0
M  V30 994 H 87.94 1.09944 -6.0062 0
M  V30 995 H 89.354 -1.13871 -5.61877 0
M  V30 996 H 87.751 -1.92728 -5.6831 0
M  V30 997 H 88.821 -2.23467 -4.30338 0
M  V30 998 N 90.1641 1.46063 -0.591896 0
M  V30 999 C 91.1271 2.28854 0.125973 0
M  V30 1000 C 92.1271 1.38903 0.810107 0
M  V30 1001 O 93.3171 1.61186 0.66066 0
M  V30 1002 C 90.4491 3.19526 1.1881 0
M  V30 1003 H 91.6421 2.93802 -0.601717 0
M  V30 1004 H 89.1951 1.52325 -0.350254 0
M  V30 1005 H 89.9301 2.59345 1.94707 0
M  V30 1006 H 89.7151 3.85766 0.701936 0
M  V30 1007 H 91.2051 3.81817 1.69132 0
M  V30 1008 N 91.6422 0.330177 1.54103 0
M  V30 1009 C 92.6052 -0.520144 2.2322 0
M  V30 1010 C 93.6052 -1.03828 1.22786 0
M  V30 1011 O 94.7952 -0.929652 1.4732 0
M  V30 1012 C 91.9272 -1.72317 2.94142 0
M  V30 1013 H 93.1202 0.0841605 2.99782 0
M  V30 1014 H 90.6732 0.0813433 1.56088 0
M  V30 1015 H 91.4082 -2.36653 2.21734 0
M  V30 1016 H 91.1932 -1.35898 3.67796 0
M  V30 1017 H 92.6832 -2.3266 3.46784 0
M  V30 1018 N 93.1203 -1.57491 0.0584922 0
M  V30 1019 C 94.5313 -1.80526 -0.476138 0
M  V30 1020 C 94.8823 -0.971334 -1.70469 0
M  V30 1021 O 94.0073 -0.190012 -2.15564 0
M  V30 1022 C 94.6023 -3.27424 -0.870587 0
M  V30 1023 C 93.1613 -3.51351 -1.35015 0
M  V30 1024 C 92.3083 -2.75343 -0.32887 0
M  V30 1025 H 95.2593 -1.56133 0.284312 0
M  V30 1026 H 95.2803 -3.38745 -1.73299 0
M  V30 1027 H 94.7923 -3.88093 0.0237627 0
M  V30 1028 H 92.8933 -2.95971 -2.26345 0
M  V30 1029 H 93.0063 -4.60059 -1.33726 0
M  V30 1030 H 91.3703 -2.417 -0.803321 0
M  V30 1031 H 92.1533 -3.38743 0.557521 0
M  V30 1032 N 94.5984 0.214957 -1.56127 0
M  V30 1033 C 95.5304 1.29004 -1.89448 0
M  V30 1034 C 96.5434 1.42716 -0.783326 0
M  V30 1035 O 97.7324 1.43496 -1.06166 0
M  V30 1036 C 94.8324 2.66482 -2.09381 0
M  V30 1037 C 94.0054 2.74633 -3.40434 0
M  V30 1038 C 93.0644 3.9317 -3.49719 0
M  V30 1039 O 92.0904 3.812 -4.227 0
M  V30 1040 N 93.2924 5.07765 -2.81346 0
M  V30 1041 H 96.0574 1.00743 -2.82261 0
M  V30 1042 H 93.6184 0.40497 -1.56753 0
M  V30 1043 H 95.6104 3.44173 -2.12901 0
M  V30 1044 H 94.1804 2.87314 -1.23163 0
M  V30 1045 H 93.4004 1.83368 -3.48955 0
M  V30 1046 H 94.6884 2.77054 -4.26754 0
M  V30 1047 H 94.0864 5.20386 -2.21843 0
M  V30 1048 H 92.6434 5.83474 -2.90519 0
M  V30 1049 N 96.0765 1.50051 0.48192 0
M  V30 1050 C 97.3255 1.59741 1.23149 0
M  V30 1051 C 97.6385 0.298163 1.93314 0
M  V30 1052 O 98.8445 0.273835 2.70116 0
M  V30 1053 C 97.3005 2.81926 2.23708 0
M  V30 1054 C 96.9085 4.18685 1.59396 0
M  V30 1055 C 98.6525 3.00956 2.99375 0
M  V30 1056 C 96.5595 5.3207 2.58178 0
M  V30 1057 H 95.4895 0.594838 0.46334 0
M  V30 1058 H 98.1405 1.76467 0.503169 0
M  V30 1059 H 96.5225 2.58736 2.99786 0
M  V30 1060 H 97.6965 4.52088 0.891811 0
M  V30 1061 H 96.0115 4.05171 0.960503 0
M  V30 1062 H 98.6085 3.82836 3.73283 0
M  V30 1063 H 98.9515 2.12258 3.58123 0
M  V30 1064 H 99.4845 3.24277 2.30411 0
M  V30 1065 H 96.2235 6.22888 2.04184 0
M  V30 1066 H 95.7435 5.03098 3.26577 0
M  V30 1067 H 97.4225 5.62196 3.20225 0
M  V30 1068 N 97.5546 -0.734337 1.39446 0
M  V30 1069 C 98.5026 -1.86971 1.38364 0
M  V30 1070 C 99.4966 -1.67288 0.266687 0
M  V30 1071 O 100.703 -1.74621 0.436755 0
M  V30 1072 H 97.0776 -0.615474 0.432082 0
M  V30 1073 H 99.0486 -1.85 2.34132 0
M  V30 1074 C 97.7976 -3.2466 1.24465 0
M  V30 1075 H 97.1206 -3.40402 2.09682 0
M  V30 1076 H 98.5606 -4.04292 1.27764 0
M  V30 1077 C 97.0196 -3.36867 -0.0468674 0
M  V30 1078 O 97.5496 -3.88618 -1.01681 0
M  V30 1079 N 95.7556 -2.90391 -0.110145 0
M  V30 1080 H 95.3026 -2.48466 0.679868 0
M  V30 1081 H 95.2606 -2.98939 -0.973799 0
M  V30 1082 N 99.0327 -1.24633 -0.964593 0
M  V30 1083 C 100.282 -1.08188 -1.7023 0
M  V30 1084 C 100.595 0.37873 -1.91898 0
M  V30 1085 O 101.801 0.663427 -2.6327 0
M  V30 1086 C 100.257 -1.88773 -3.06419 0
M  V30 1087 C 99.8647 -3.39263 -2.92582 0
M  V30 1088 C 101.609 -1.80867 -3.84041 0
M  V30 1089 C 99.5157 -4.1218 -4.24101 0
M  V30 1090 H 98.4457 -0.401245 -0.638372 0
M  V30 1091 H 101.097 -1.48742 -1.07462 0
M  V30 1092 H 99.4787 -1.41035 -3.70034 0
M  V30 1093 H 100.653 -3.94603 -2.37961 0
M  V30 1094 H 98.9677 -3.48154 -2.28424 0
M  V30 1095 H 101.565 -2.32646 -4.81435 0
M  V30 1096 H 101.908 -0.774543 -4.09031 0
M  V30 1097 H 102.441 -2.26301 -3.27159 0
M  V30 1098 H 99.1797 -5.15965 -4.04303 0
M  V30 1099 H 98.6997 -3.61626 -4.78526 0
M  V30 1100 H 100.379 -4.19349 -4.92702 0
M  V30 1101 N 100.511 1.16574 -1.06058 0
M  V30 1102 C 101.736 1.91493 -0.796562 0
M  V30 1103 C 102.161 1.76773 0.642868 0
M  V30 1104 O 101.519 1.09142 1.44768 0
M  V30 1105 C 101.567 3.40293 -1.19303 0
M  V30 1106 O 100.671 4.11074 -0.330394 0
M  V30 1107 H 100.012 0.596678 -0.291326 0
M  V30 1108 H 102.542 1.47708 -1.41575 0
M  V30 1109 H 102.552 3.91057 -1.16356 0
M  V30 1110 H 101.227 3.50326 -2.24153 0
M  V30 1111 H 99.8038 3.70513 -0.421225 0
M  V30 1112 N 101.989 0.842826 1.3317 0
M  V30 1113 C 102.936 0.276885 2.29133 0
M  V30 1114 C 103.906 -0.609527 1.54512 0
M  V30 1115 O 105.091 -0.546955 1.82792 0
M  V30 1116 C 102.231 -0.538707 3.40869 0
M  V30 1117 C 101.344 0.372169 4.30394 0
M  V30 1118 C 100.479 -0.454908 5.29249 0
M  V30 1119 C 99.5179 0.45411 6.10413 0
M  V30 1120 N 98.6549 -0.335075 7.013 0
M  V30 1121 H 103.495 1.10052 2.76934 0
M  V30 1122 H 101.032 0.554161 1.36262 0
M  V30 1123 H 102.99 -1.02709 4.0436 0
M  V30 1124 H 101.62 -1.32727 2.9425 0
M  V30 1125 H 100.672 0.97888 3.6759 0
M  V30 1126 H 101.984 1.0703 4.87182 0
M  V30 1127 H 101.138 -1.00695 5.98285 0
M  V30 1128 H 99.8769 -1.18646 4.73048 0
M  V30 1129 H 98.8819 1.01813 5.40291 0
M  V30 1130 H 100.107 1.18409 6.68697 0
M  V30 1131 H 98.0529 -1.04994 6.47543 0
M  V30 1132 H 97.9699 0.304262 7.55387 0
M  V30 1133 H 99.2379 -0.869224 7.74638 0
M  V30 1134 N 103.467 -1.45747 0.599634 0
M  V30 1135 C 104.883 -1.57424 0.26264 0
M  V30 1136 C 105.083 -1.59222 -1.23493 0
M  V30 1137 O 104.139 -1.51825 -2.01756 0
M  V30 1138 C 105.452 -2.86061 0.926795 0
M  V30 1139 C 107 -2.99722 0.901967 0
M  V30 1140 C 107.475 -4.31119 1.54598 0
M  V30 1141 N 108.966 -4.37858 1.5111 0
M  V30 1142 C 109.701 -5.3818 1.97863 0
M  V30 1143 N 109.197 -6.45083 2.52666 0
M  V30 1144 N 110.99 -5.29487 1.88679 0
M  V30 1145 H 103.141 -1.42823 1.57211 0
M  V30 1146 H 105.404 -0.68235 0.658105 0
M  V30 1147 H 105.11 -2.90605 1.98095 0
M  V30 1148 H 104.984 -3.74563 0.445238 0
M  V30 1149 H 107.371 -2.9475 -0.143617 0
M  V30 1150 H 107.452 -2.12652 1.42171 0
M  V30 1151 H 107.096 -4.36849 2.59085 0
M  V30 1152 H 107.026 -5.16992 1.00132 0
M  V30 1153 H 109.517 -3.61209 1.11068 0
M  V30 1154 H 109.83 -7.17869 2.86155 0
M  V30 1155 H 108.175 -6.45856 2.56701 0
M  V30 1156 H 111.366 -4.44877 1.4561 0
M  V30 1157 H 111.539 -6.07524 2.25429 0
M  V30 1158 N 104.945 -0.338344 -1.53925 0
M  V30 1159 C 105.878 0.563758 -2.21127 0
M  V30 1160 C 106.856 1.10433 -1.19345 0
M  V30 1161 O 108.04 1.16557 -1.48144 0
M  V30 1162 C 105.167 1.77505 -2.88461 0
M  V30 1163 C 104.213 1.3644 -4.04087 0
M  V30 1164 S 105.046 0.388593 -5.34088 0
M  V30 1165 C 106.202 1.60683 -6.04923 0
M  V30 1166 H 106.435 -0.00704546 -2.97299 0
M  V30 1167 H 103.968 -0.122418 -1.53914 0
M  V30 1168 H 105.926 2.46999 -3.27875 0
M  V30 1169 H 104.587 2.31706 -2.12064 0
M  V30 1170 H 103.78 2.26739 -4.50117 0
M  V30 1171 H 103.382 0.748998 -3.66423 0
M  V30 1172 H 105.674 2.54209 -6.28 0
M  V30 1173 H 106.617 1.18842 -6.98056 0
M  V30 1174 H 107.025 1.80052 -5.35015 0
M  V30 1175 N 106.423 1.57458 -0.0668435 0
M  V30 1176 C 107.672 1.92477 0.602947 0
M  V30 1177 C 107.985 0.948419 1.71068 0
M  V30 1178 O 109.191 1.19124 2.43971 0
M  V30 1179 C 107.647 3.41903 1.12383 0
M  V30 1180 C 107.255 4.47975 0.04737 0
M  V30 1181 C 108.999 3.85931 1.76797 0
M  V30 1182 C 106.906 5.88529 0.582022 0
M  V30 1183 H 105.836 0.718387 0.22899 0
M  V30 1184 H 108.487 1.82978 -0.138276 0
M  V30 1185 H 106.869 3.46459 1.91787 0
M  V30 1186 H 108.043 4.55029 -0.726978 0
M  V30 1187 H 106.358 4.13384 -0.500243 0
M  V30 1188 H 108.955 4.88322 2.17821 0
M  V30 1189 H 109.298 3.23029 2.62599 0
M  V30 1190 H 109.831 3.83958 1.04024 0
M  V30 1191 H 106.57 6.55065 -0.238721 0
M  V30 1192 H 106.09 5.85004 1.324 0
M  V30 1193 H 107.769 6.38258 1.05999 0
M  V30 1194 N 107.901 -0.206675 1.56239 0
M  V30 1195 C 108.864 -1.23976 1.92776 0
M  V30 1196 C 109.864 -1.39041 0.807729 0
M  V30 1197 O 111.054 -1.37051 1.0753 0
M  V30 1198 C 108.186 -2.61112 2.19165 0
M  V30 1199 H 109.379 -0.927764 2.85189 0
M  V30 1200 H 106.932 -0.447718 1.4975 0
M  V30 1201 H 107.667 -2.97386 1.29352 0
M  V30 1202 H 107.452 -2.51552 3.00772 0
M  V30 1203 H 108.942 -3.35633 2.48476 0
M  V30 1204 N 109.379 -1.50304 -0.473955 0
M  V30 1205 C 110.625 -1.61389 -1.22806 0
M  V30 1206 C 110.958 -0.311955 -1.91678 0
M  V30 1207 O 110.233 0.686384 -1.81986 0
M  V30 1208 C 110.516 -2.79219 -2.27396 0
M  V30 1209 C 110.369 -4.19286 -1.62848 0
M  V30 1210 C 111.688 -2.92614 -3.28732 0
M  V30 1211 H 108.807 -0.587399 -0.445119 0
M  V30 1212 H 111.449 -1.82681 -0.522265 0
M  V30 1213 H 109.599 -2.61195 -2.87592 0
M  V30 1214 H 111.271 -4.48892 -1.06271 0
M  V30 1215 H 109.514 -4.23677 -0.931693 0
M  V30 1216 H 110.185 -4.97655 -2.38838 0
M  V30 1217 H 112.661 -3.09105 -2.78556 0
M  V30 1218 H 111.537 -3.76688 -3.99246 0
M  V30 1219 H 111.798 -2.03107 -3.92683 0
M  V30 1220 N 110.857 0.726932 -1.39834 0
M  V30 1221 C 111.787 1.85405 -1.41941 0
M  V30 1222 C 112.768 1.67751 -0.281728 0
M  V30 1223 O 113.953 1.8795 -0.488717 0
M  V30 1224 C 111.083 3.23243 -1.2701 0
M  V30 1225 C 110.037 3.55549 -2.38262 0
M  V30 1226 C 109.363 4.9241 -2.08415 0
M  V30 1227 C 110.663 3.577 -3.80589 0
M  V30 1228 H 112.357 1.83899 -2.36266 0
M  V30 1229 H 109.903 0.883349 -1.13723 0
M  V30 1230 H 111.856 4.01775 -1.27103 0
M  V30 1231 H 110.58 3.25296 -0.291564 0
M  V30 1232 H 109.239 2.79351 -2.37399 0
M  V30 1233 H 108.887 4.91052 -1.0898 0
M  V30 1234 H 108.587 5.14992 -2.82943 0
M  V30 1235 H 110.111 5.73289 -2.10171 0
M  V30 1236 H 111.525 4.26293 -3.83337 0
M  V30 1237 H 109.922 3.91804 -4.54543 0
M  V30 1238 H 110.992 2.57328 -4.10987 0
M  V30 1239 N 112.336 1.25143 0.95797 0
M  V30 1240 C 113.585 1.0909 1.69654 0
M  V30 1241 C 113.898 -0.368548 1.92097 0
M  V30 1242 O 115.104 -0.649455 2.63618 0
M  V30 1243 C 113.56 1.90395 3.05414 0
M  V30 1244 C 113.168 3.4081 2.90779 0
M  V30 1245 C 114.912 1.82901 3.83076 0
M  V30 1246 C 112.819 4.14423 4.21909 0
M  V30 1247 H 111.749 0.404625 0.636235 0
M  V30 1248 H 114.4 1.4931 1.06672 0
M  V30 1249 H 112.782 1.42996 3.69281 0
M  V30 1250 H 113.956 3.95859 2.35865 0
M  V30 1251 H 112.271 3.49361 2.26575 0
M  V30 1252 H 114.868 2.35196 4.80195 0
M  V30 1253 H 115.211 0.796224 4.08615 0
M  V30 1254 H 115.744 2.28033 3.25954 0
M  V30 1255 H 112.483 5.18102 4.01561 0
M  V30 1256 H 112.003 3.64159 4.76601 0
M  V30 1257 H 113.682 4.21956 4.90471 0
M  V30 1258 N 113.814 -1.1601 1.06675 0
M  V30 1259 C 115.225 -1.68235 0.809565 0
M  V30 1260 C 115.576 -1.8454 -0.666303 0
M  V30 1261 O 114.701 -1.54374 -1.5165 0
M  V30 1262 C 115.296 -3.05585 1.46299 0
M  V30 1263 C 113.855 -3.54915 1.25349 0
M  V30 1264 C 113.002 -2.30804 1.53703 0
M  V30 1265 H 115.953 -1.00318 1.22971 0
M  V30 1266 H 115.974 -3.70174 0.880431 0
M  V30 1267 H 115.486 -2.93686 2.53713 0
M  V30 1268 H 113.587 -3.72067 0.199261 0
M  V30 1269 H 113.7 -4.36774 1.9689 0
M  V30 1270 H 112.064 -2.36007 0.957739 0
M  V30 1271 H 112.847 -2.21499 2.62284 0
M  V30 1272 N 115.292 -0.849877 -1.32721 0
M  V30 1273 C 116.569 -0.372405 -1.92022 0
M  V30 1274 C 116.949 1.1435 -1.77447 0
M  V30 1275 O 116.297 1.96296 -1.16962 0
M  V30 1276 C 116.507 -0.831482 -3.3895 0
M  V30 1277 C 117.855 -0.845882 -4.16089 0
M  V30 1278 O 118.879 -0.775806 -3.47649 0
M  V30 1279 O 117.738 -0.943753 -5.38289 0
M  V30 1280 H 114.832 -0.107667 -0.819961 0
M  V30 1281 H 117.378 -0.93646 -1.41522 0
M  V30 1282 H 116.15 -1.87448 -3.4348 0
M  V30 1283 H 115.773 -0.24461 -3.96847 0
M  V30 1284 N 116.77 1.45427 -0.607355 0
M  V30 1285 C 118.047 1.9557 -0.0344566 0
M  V30 1286 C 118.427 1.54979 1.43334 0
M  V30 1287 O 117.775 0.812241 2.13576 0
M  V30 1288 C 117.985 3.48226 -0.232321 0
M  V30 1289 C 119.333 4.2445 -0.113001 0
M  V30 1290 O 120.357 3.55829 -0.162431 0
M  V30 1291 O 119.216 5.465 0.00209442 0
M  V30 1292 H 116.31 0.826222 0.0358667 0
M  V30 1293 H 118.856 1.55594 -0.6774 0
M  V30 1294 H 117.628 3.70739 -1.25174 0
M  V30 1295 H 117.251 3.95092 0.445896 0
M  V30 1296 N 118.248 0.346503 1.53744 0
M  V30 1297 C 119.496 -0.248612 2.00565 0
M  V30 1298 C 119.817 -1.5083 1.23593 0
M  V30 1299 O 119.087 -1.92858 0.343912 0
M  V30 1300 H 117.667 -0.0948564 0.740953 0
M  V30 1301 H 120.329 0.468341 1.89189 0
M  V30 1302 H 119.425 -0.488994 3.08245 0
M  V30 1303 N 119.726 -1.57421 0.075193 0
M  V30 1304 C 120.951 -1.98364 -0.605515 0
M  V30 1305 C 121.376 -0.953383 -1.62149 0
M  V30 1306 O 120.734 0.0806053 -1.81121 0
M  V30 1307 C 120.782 -3.38332 -1.24756 0
M  V30 1308 O 119.886 -3.37959 -2.36342 0
M  V30 1309 H 119.227 -0.645553 -0.155428 0
M  V30 1310 H 121.757 -2.04044 0.150714 0
M  V30 1311 H 121.767 -3.75591 -1.5936 0
M  V30 1312 H 120.442 -4.12846 -0.503129 0
M  V30 1313 H 119.019 -3.12474 -2.03506 0
M  V30 1314 N 121.204 0.198386 -1.56346 0
M  V30 1315 C 122.452 0.91747 -1.80075 0
M  V30 1316 C 122.773 1.83929 -0.647692 0
M  V30 1317 O 122.043 1.93029 0.334166 0
M  V30 1318 H 120.623 0.341774 -0.664228 0
M  V30 1319 H 123.285 0.204684 -1.93822 0
M  V30 1320 H 122.381 1.51055 -2.7311 0
M  V30 1321 N 122.682 1.50554 0.465978 0
M  V30 1322 C 123.629 1.6979 1.56333 0
M  V30 1323 C 124.599 0.539239 1.57103 0
M  V30 1324 O 125.784 0.770401 1.74555 0
M  V30 1325 C 122.924 1.80273 2.94271 0
M  V30 1326 C 122.037 3.07674 3.0325 0
M  V30 1327 C 121.172 3.08922 4.32135 0
M  V30 1328 C 120.211 4.30755 4.34875 0
M  V30 1329 N 119.348 4.29714 5.55239 0
M  V30 1330 H 124.188 2.63472 1.39235 0
M  V30 1331 H 121.725 1.30602 0.676873 0
M  V30 1332 H 123.683 1.84332 3.74269 0
M  V30 1333 H 122.313 0.900258 3.09992 0
M  V30 1334 H 121.365 3.13062 2.16094 0
M  V30 1335 H 122.677 3.97642 3.01135 0
M  V30 1336 H 121.831 3.11738 5.20485 0
M  V30 1337 H 120.57 2.16792 4.36866 0
M  V30 1338 H 119.575 4.28146 3.44922 0
M  V30 1339 H 120.8 5.24117 4.31831 0
M  V30 1340 H 118.746 3.4044 5.60746 0
M  V30 1341 H 118.663 5.13456 5.54886 0
M  V30 1342 H 119.931 4.36683 6.457 0
M  V30 1343 N 124.16 -0.719506 1.40217 0
M  V30 1344 C 125.385 -1.51371 1.4178 0
M  V30 1345 C 125.81 -1.88091 0.0182355 0
M  V30 1346 O 125.168 -1.52997 -0.972707 0
M  V30 1347 C 125.216 -2.768 2.31115 0
M  V30 1348 O 124.32 -3.73349 1.7517 0
M  V30 1349 H 123.661 -0.456529 0.482159 0
M  V30 1350 H 126.191 -0.88644 1.844 0
M  V30 1351 H 126.201 -3.25371 2.46167 0
M  V30 1352 H 124.876 -2.49407 3.3282 0
M  V30 1353 H 123.453 -3.32179 1.69444 0
M  V30 1354 N 125.638 -1.25649 -0.95132 0
M  V30 1355 C 126.868 -1.13179 -1.72841 0
M  V30 1356 C 127.276 0.316827 -1.86528 0
M  V30 1357 O 126.619 1.22948 -1.3649 0
M  V30 1358 C 126.681 -1.71644 -3.15878 0
M  V30 1359 C 126.345 -3.20667 -3.25609 0
M  V30 1360 C 127.342 -4.17616 -3.09666 0
M  V30 1361 C 125.027 -3.6094 -3.49324 0
M  V30 1362 C 127.021 -5.52817 -3.17289 0
M  V30 1363 C 124.708 -4.96278 -3.56584 0
M  V30 1364 C 125.706 -5.92025 -3.40581 0
M  V30 1365 O 125.394 -7.24899 -3.47528 0
M  V30 1366 H 125.126 -0.395389 -0.54831 0
M  V30 1367 H 127.68 -1.66566 -1.20187 0
M  V30 1368 H 125.91 -1.12707 -3.69911 0
M  V30 1369 H 127.599 -1.54225 -3.75459 0
M  V30 1370 H 128.365 -3.87842 -2.91211 0
M  V30 1371 H 124.244 -2.86907 -3.6084 0
M  V30 1372 H 127.788 -6.2753 -3.04716 0
M  V30 1373 H 123.685 -5.25716 -3.74556 0
M  V30 1374 H 124.453 -7.33039 -3.64138 0
M  V30 1375 N 127.117 1.15442 -1.07289 0
M  V30 1376 C 128.394 1.82306 -0.708792 0
M  V30 1377 C 128.774 1.94991 0.808807 0
M  V30 1378 O 128.122 1.50085 1.72298 0
M  V30 1379 C 128.332 3.18695 -1.42247 0
M  V30 1380 C 129.68 3.94341 -1.57417 0
M  V30 1381 O 130.704 3.28247 -1.38319 0
M  V30 1382 O 129.563 5.12839 -1.88834 0
M  V30 1383 H 126.657 0.787628 -0.252132 0
M  V30 1384 H 129.203 1.22559 -1.17377 0
M  V30 1385 H 127.975 3.04557 -2.45684 0
M  V30 1386 H 127.598 3.86128 -0.948223 0
M  V30 1387 N 128.595 0.856903 1.32268 0
M  V30 1388 C 129.825 0.47475 2.01071 0
M  V30 1389 C 130.233 -0.933746 1.64553 0
M  V30 1390 O 129.576 -1.62114 0.863989 0
M  V30 1391 C 129.638 0.536746 3.55471 0
M  V30 1392 C 129.302 1.90453 4.15423 0
M  V30 1393 C 130.299 2.87029 4.33486 0
M  V30 1394 C 127.984 2.20229 4.51447 0
M  V30 1395 C 129.978 4.11532 4.86744 0
M  V30 1396 C 127.665 3.44984 5.0441 0
M  V30 1397 C 128.663 4.40452 5.22007 0
M  V30 1398 O 128.351 5.62998 5.73837 0
M  V30 1399 H 128.083 0.184778 0.650256 0
M  V30 1400 H 130.637 1.15615 1.69771 0
M  V30 1401 H 128.867 -0.20152 3.86175 0
M  V30 1402 H 130.556 0.169875 4.05544 0
M  V30 1403 H 131.322 2.6533 4.05986 0
M  V30 1404 H 127.201 1.46705 4.37034 0
M  V30 1405 H 130.745 4.86056 5.00395 0
M  V30 1406 H 126.642 3.66532 5.31342 0
M  V30 1407 H 127.41 5.64987 5.92226 0
M  V30 1408 N 130.073 -1.45103 0.615059 0
M  V30 1409 C 131.006 -2.27717 -0.148408 0
M  V30 1410 C 131.984 -1.37584 -0.866572 0
M  V30 1411 O 133.168 -1.67017 -0.87393 0
M  V30 1412 C 130.295 -3.16136 -1.21557 0
M  V30 1413 C 129.341 -4.22263 -0.599712 0
M  V30 1414 S 130.174 -5.3215 0.598081 0
M  V30 1415 C 131.33 -6.24137 -0.469484 0
M  V30 1416 H 131.563 -2.92121 0.552483 0
M  V30 1417 H 129.096 -1.49054 0.402778 0
M  V30 1418 H 131.054 -3.67633 -1.82638 0
M  V30 1419 H 129.715 -2.50982 -1.88857 0
M  V30 1420 H 128.908 -4.84081 -1.4029 0
M  V30 1421 H 128.51 -3.73945 -0.063876 0
M  V30 1422 H 130.802 -6.63984 -1.34652 0
M  V30 1423 H 131.745 -7.0801 0.112725 0
M  V30 1424 H 132.153 -5.58971 -0.788168 0
M  V30 1425 N 131.551 -0.354651 -1.53558 0
M  V30 1426 C 132.481 0.489091 -2.2832 0
M  V30 1427 C 133.462 1.09324 -1.30316 0
M  V30 1428 O 134.647 1.11255 -1.59173 0
M  V30 1429 C 131.777 1.63456 -3.0643 0
M  V30 1430 C 130.731 1.1582 -4.12031 0
M  V30 1431 C 130.057 2.39305 -4.7816 0
M  V30 1432 C 131.357 0.250731 -5.21698 0
M  V30 1433 H 133.051 -0.134614 -2.99097 0
M  V30 1434 H 130.597 -0.0661826 -1.43848 0
M  V30 1435 H 132.55 2.23136 -3.57475 0
M  V30 1436 H 131.274 2.28533 -2.33325 0
M  V30 1437 H 129.933 0.584146 -3.61916 0
M  V30 1438 H 129.581 3.02814 -4.01637 0
M  V30 1439 H 129.281 2.08109 -5.49513 0
M  V30 1440 H 130.805 2.99691 -5.31994 0
M  V30 1441 H 132.219 0.754695 -5.68311 0
M  V30 1442 H 130.616 0.0301468 -6.00092 0
M  V30 1443 H 131.686 -0.710125 -4.79672 0
M  V30 1444 N 133.029 1.57378 -0.0835403 0
M  V30 1445 C 134.275 1.94217 0.583733 0
M  V30 1446 C 134.608 0.964653 1.68547 0
M  V30 1447 O 133.883 -0.00422258 1.945 0
M  V30 1448 C 134.166 3.41253 1.14972 0
M  V30 1449 C 134.019 4.49768 0.0538277 0
M  V30 1450 C 135.338 3.89352 2.05166 0
M  V30 1451 H 132.457 0.706233 0.210724 0
M  V30 1452 H 135.099 1.89392 -0.1519 0
M  V30 1453 H 133.249 3.45496 1.77665 0
M  V30 1454 H 134.921 4.57641 -0.579851 0
M  V30 1455 H 133.164 4.29432 -0.614068 0
M  V30 1456 H 133.835 5.49817 0.490452 0
M  V30 1457 H 136.311 3.87189 1.52393 0
M  V30 1458 H 135.187 4.92822 2.41698 0
M  V30 1459 H 135.448 3.27973 2.96456 0
M  V30 1460 N 134.507 -0.190092 1.56449 0
M  V30 1461 C 135.455 -1.25501 1.95837 0
M  V30 1462 C 136.449 -1.4685 0.844485 0
M  V30 1463 O 137.655 -1.47651 1.02952 0
M  V30 1464 H 134.03 -0.421447 0.622805 0
M  V30 1465 H 136.001 -0.895821 2.84636 0
M  V30 1466 C 134.75 -2.59124 2.31841 0
M  V30 1467 H 134.073 -2.43514 3.17082 0
M  V30 1468 H 135.513 -3.32371 2.6326 0
M  V30 1469 C 133.972 -3.16488 1.15486 0
M  V30 1470 O 134.502 -3.99365 0.432535 0
M  V30 1471 N 132.708 -2.75305 0.930349 0
M  V30 1472 H 132.255 -2.08013 1.51948 0
M  V30 1473 H 132.213 -3.14024 0.153634 0
M  V30 1474 N 135.985 -1.50799 -0.457987 0
M  V30 1475 C 137.396 -1.55152 -1.0385 0
M  V30 1476 C 137.747 -0.362719 -1.92818 0
M  V30 1477 O 136.872 0.522915 -2.09987 0
M  V30 1478 C 137.467 -2.81173 -1.89017 0
M  V30 1479 C 136.026 -2.88164 -2.42154 0
M  V30 1480 C 135.173 -2.49591 -1.20829 0
M  V30 1481 H 138.124 -1.56874 -0.240068 0
M  V30 1482 H 138.145 -2.63769 -2.74238 0
M  V30 1483 H 137.657 -3.67677 -1.24238 0
M  V30 1484 H 135.758 -2.06042 -3.10447 0
M  V30 1485 H 135.871 -3.91356 -2.76364 0
M  V30 1486 H 134.235 -2.02322 -1.54719 0
M  V30 1487 H 135.018 -3.38418 -0.576927 0
M  V30 1488 N 137.463 0.71206 -1.40597 0
M  V30 1489 C 138.41 1.82613 -1.41142 0
M  V30 1490 C 139.38 1.63925 -0.267903 0
M  V30 1491 O 140.565 1.85009 -0.466495 0
M  V30 1492 C 137.705 3.20354 -1.28324 0
M  V30 1493 C 136.818 3.50589 -2.52411 0
M  V30 1494 C 135.953 4.77855 -2.32009 0
M  V30 1495 C 134.992 5.01005 -3.51654 0
M  V30 1496 N 134.129 6.19487 -3.30425 0
M  V30 1497 H 138.969 1.81482 -2.36365 0
M  V30 1498 H 136.506 0.886475 -1.17388 0
M  V30 1499 H 138.464 3.99899 -1.18899 0
M  V30 1500 H 137.094 3.20705 -0.367189 0
M  V30 1501 H 136.146 2.65573 -2.72351 0
M  V30 1502 H 137.458 3.63604 -3.41458 0
M  V30 1503 H 136.612 5.65424 -2.19956 0
M  V30 1504 H 135.351 4.67056 -1.40392 0
M  V30 1505 H 134.356 4.1189 -3.64179 0
M  V30 1506 H 135.581 5.13674 -4.44202 0
M  V30 1507 H 133.527 6.09932 -2.41494 0
M  V30 1508 H 133.444 6.33194 -4.13039 0
M  V30 1509 H 134.712 7.09834 -3.22113 0
M  V30 1510 N 138.941 1.26152 0.944643 0
M  V30 1511 C 140.19 1.10883 1.68487 0
M  V30 1512 C 140.503 -0.348153 1.92477 0
M  V30 1513 O 141.709 -0.621459 2.64292 0
M  V30 1514 C 140.165 1.93624 3.03377 0
M  V30 1515 C 139.773 3.43875 2.87148 0
M  V30 1516 C 141.517 1.86954 3.81115 0
M  V30 1517 C 139.424 4.18875 4.1749 0
M  V30 1518 H 138.354 0.41135 0.631907 0
M  V30 1519 H 141.005 1.50433 1.05082 0
M  V30 1520 H 139.387 1.46904 3.67743 0
M  V30 1521 H 140.561 3.98338 2.31653 0
M  V30 1522 H 138.876 3.51744 2.22856 0
M  V30 1523 H 141.473 2.40275 4.77673 0
M  V30 1524 H 141.816 0.839518 4.07747 0
M  V30 1525 H 142.349 2.31477 3.23517 0
M  V30 1526 H 139.088 5.22332 3.96043 0
M  V30 1527 H 138.608 3.69193 4.72712 0
M  V30 1528 H 140.287 4.27134 4.85968 0
M  V30 1529 N 140.419 -1.14872 1.07899 0
M  V30 1530 C 141.665 -1.86064 0.806725 0
M  V30 1531 C 141.998 -1.82434 -0.665706 0
M  V30 1532 O 141.273 -1.25138 -1.48899 0
M  V30 1533 C 141.556 -3.34929 1.32267 0
M  V30 1534 C 141.409 -3.47161 2.86006 0
M  V30 1535 C 142.728 -4.29863 0.943717 0
M  V30 1536 H 139.847 -0.675591 0.294526 0
M  V30 1537 H 142.489 -1.34925 1.33773 0
M  V30 1538 H 140.639 -3.78611 0.870974 0
M  V30 1539 H 142.311 -3.12302 3.39507 0
M  V30 1540 H 140.554 -2.88539 3.23925 0
M  V30 1541 H 141.225 -4.51777 3.17177 0
M  V30 1542 H 143.701 -3.9417 1.33302 0
M  V30 1543 H 142.577 -5.32494 1.33198 0
M  V30 1544 H 142.838 -4.41846 -0.149796 0
M  V30 1545 N 141.898 -0.863906 -1.31812 0
M  V30 1546 C 143.123 -0.48527 -2.01643 0
M  V30 1547 C 143.548 0.913058 -1.64453 0
M  V30 1548 O 142.906 1.6014 -0.849985 0
M  V30 1549 C 142.954 -0.642625 -3.54828 0
M  V30 1550 O 142.058 0.320659 -4.11151 0
M  V30 1551 H 141.399 -0.193793 -0.635091 0
M  V30 1552 H 143.929 -1.16565 -1.68148 0
M  V30 1553 H 143.939 -0.533628 -4.04495 0
M  V30 1554 H 142.614 -1.66227 -3.81237 0
M  V30 1555 H 141.191 0.167126 -3.72525 0
M  V30 1556 N 143.376 1.44774 -0.622745 0
M  V30 1557 C 144.326 2.2774 0.108889 0
M  V30 1558 C 145.31 1.38189 0.824175 0
M  V30 1559 O 146.502 1.62063 0.711664 0
M  V30 1560 C 143.631 3.25353 1.09546 0
M  V30 1561 C 142.717 4.22392 0.380232 0
M  V30 1562 N 143.108 5.02388 -0.586535 0
M  V30 1563 C 141.406 4.41588 0.625792 0
M  V30 1564 C 142.107 5.72894 -1.00834 0
M  V30 1565 N 141.083 5.42479 -0.348878 0
M  V30 1566 H 144.885 2.86993 -0.63341 0
M  V30 1567 H 142.399 1.5611 -0.447589 0
M  V30 1568 H 144.396 3.83538 1.63414 0
M  V30 1569 H 143.056 2.6766 1.83815 0
M  V30 1570 H 144.067 5.0885 -0.963975 0
M  V30 1571 H 140.744 3.95003 1.352 0
M  V30 1572 H 142.134 6.47158 -1.80656 0
M  V30 1573 N 144.854 0.36279 1.53368 0
M  V30 1574 C 146.079 -0.231226 2.06107 0
M  V30 1575 C 146.504 -1.419 1.23474 0
M  V30 1576 O 145.862 -1.79524 0.253128 0
M  V30 1577 C 145.91 -0.605523 3.5548 0
M  V30 1578 O 145.014 -1.70312 3.7559 0
M  V30 1579 H 144.355 -0.034327 0.663112 0
M  V30 1580 H 146.885 0.522584 1.97814 0
M  V30 1581 H 146.895 -0.877314 3.98456 0
M  V30 1582 H 145.57 0.263004 4.15068 0
M  V30 1583 H 144.147 -1.4271 3.44512 0
M  V30 1584 N 146.332 -1.57332 0.0918853 0
M  V30 1585 C 147.578 -1.94524 -0.573425 0
M  V30 1586 C 147.911 -0.973578 -1.68033 0
M  V30 1587 O 147.186 -0.00609226 -1.94499 0
M  V30 1588 C 147.469 -3.41858 -1.13161 0
M  V30 1589 C 147.322 -4.4979 -0.0299747 0
M  V30 1590 C 148.641 -3.90435 -2.03098 0
M  V30 1591 H 145.76 -0.70734 -0.206975 0
M  V30 1592 H 148.402 -1.89309 0.161942 0
M  V30 1593 H 146.552 -3.46433 -1.7583 0
M  V30 1594 H 148.224 -4.57327 0.604112 0
M  V30 1595 H 146.467 -4.291 0.636833 0
M  V30 1596 H 147.138 -5.50069 -0.461287 0
M  V30 1597 H 149.614 -3.87992 -1.50338 0
M  V30 1598 H 148.49 -4.94097 -2.39081 0
M  V30 1599 H 148.751 -3.29541 -2.94712 0
M  V30 1600 N 147.81 0.181792 -1.56548 0
M  V30 1601 C 148.742 1.24956 -1.92142 0
M  V30 1602 C 149.755 1.41022 -0.813422 0
M  V30 1603 O 150.944 1.41212 -1.09186 0
M  V30 1604 C 148.044 2.61981 -2.14987 0
M  V30 1605 C 147.217 2.6735 -3.46183 0
M  V30 1606 C 146.276 3.85664 -3.5798 0
M  V30 1607 O 145.302 3.72148 -4.30691 0
M  V30 1608 N 146.504 5.01683 -2.92053 0
M  V30 1609 H 149.269 0.947329 -2.84334 0
M  V30 1610 H 146.83 0.371629 -1.57577 0
M  V30 1611 H 148.822 3.3958 -2.20154 0
M  V30 1612 H 147.392 2.84637 -1.2923 0
M  V30 1613 H 146.612 1.75925 -3.52766 0
M  V30 1614 H 147.9 2.67939 -4.32534 0
M  V30 1615 H 147.298 5.15564 -2.32832 0
M  V30 1616 H 145.855 5.77181 -3.0283 0
M  V30 1617 N 149.288 1.51039 0.449983 0
M  V30 1618 C 150.198 1.74261 1.57067 0
M  V30 1619 C 151.214 0.626363 1.62335 0
M  V30 1620 O 152.39 0.907162 1.79812 0
M  V30 1621 C 149.455 1.85114 2.93144 0
M  V30 1622 C 148.516 3.0893 2.98095 0
M  V30 1623 C 147.749 3.19256 4.27681 0
M  V30 1624 O 147.972 2.35835 5.19363 0
M  V30 1625 O 146.906 4.12144 4.38658 0
M  V30 1626 H 150.732 2.69303 1.40391 0
M  V30 1627 H 148.317 1.35389 0.631688 0
M  V30 1628 H 150.199 1.94311 3.73926 0
M  V30 1629 H 148.874 0.932588 3.09975 0
M  V30 1630 H 147.781 3.0522 2.16314 0
M  V30 1631 H 149.114 4.00433 2.86206 0
M  V30 1632 N 150.766 -0.704594 1.40972 0
M  V30 1633 C 151.729 -1.80035 1.41845 0
M  V30 1634 C 152.729 -1.57774 0.310474 0
M  V30 1635 O 153.919 -1.64613 0.56992 0
M  V30 1636 C 151.051 -3.18284 1.22098 0
M  V30 1637 H 152.244 -1.80658 2.3938 0
M  V30 1638 H 149.797 -0.911329 1.26982 0
M  V30 1639 H 150.532 -3.23306 0.253672 0
M  V30 1640 H 150.317 -3.35843 2.02366 0
M  V30 1641 H 151.807 -3.98289 1.25522 0
M  V30 1642 N 152.244 -1.26651 -0.937939 0
M  V30 1643 C 153.474 -1.15006 -1.71631 0
M  V30 1644 C 153.882 0.297026 -1.86854 0
M  V30 1645 O 153.225 1.21493 -1.37786 0
M  V30 1646 C 153.287 -1.74984 -3.14039 0
M  V30 1647 C 152.951 -3.24103 -3.2219 0
M  V30 1648 C 153.948 -4.20877 -3.05219 0
M  V30 1649 C 151.633 -3.64625 -3.45476 0
M  V30 1650 C 153.627 -5.56151 -3.11408 0
M  V30 1651 C 151.314 -5.00032 -3.513 0
M  V30 1652 C 152.312 -5.95604 -3.34282 0
M  V30 1653 O 152 -7.28545 -3.3982 0
M  V30 1654 H 151.732 -0.401183 -0.544085 0
M  V30 1655 H 154.286 -1.67832 -1.18413 0
M  V30 1656 H 152.516 -1.16624 -3.68695 0
M  V30 1657 H 154.205 -1.58199 -3.73802 0
M  V30 1658 H 154.971 -3.90908 -2.87081 0
M  V30 1659 H 150.85 -2.90718 -3.57777 0
M  V30 1660 H 154.394 -6.30727 -2.98043 0
M  V30 1661 H 150.291 -5.29659 -3.68959 0
M  V30 1662 H 151.059 -7.3686 -3.56343 0
M  V30 1663 N 153.722 1.14298 -1.08507 0
M  V30 1664 C 154.652 2.21542 -0.737646 0
M  V30 1665 C 155.633 1.67773 0.280377 0
M  V30 1666 O 156.818 1.93616 0.150521 0
M  V30 1667 C 153.948 3.46988 -0.147259 0
M  V30 1668 C 152.902 4.13789 -1.09374 0
M  V30 1669 C 152.228 5.33449 -0.365524 0
M  V30 1670 C 153.528 4.62208 -2.4323 0
M  V30 1671 H 155.222 2.5086 -1.6343 0
M  V30 1672 H 152.768 1.20576 -0.787243 0
M  V30 1673 H 154.721 4.21262 0.107808 0
M  V30 1674 H 153.445 3.17037 0.784538 0
M  V30 1675 H 152.104 3.4147 -1.33393 0
M  V30 1676 H 151.752 4.99759 0.57011 0
M  V30 1677 H 151.452 5.79088 -0.996512 0
M  V30 1678 H 152.976 6.10485 -0.118534 0
M  V30 1679 H 154.39 5.27952 -2.23472 0
M  V30 1680 H 152.787 5.18553 -3.02031 0
M  V30 1681 H 153.857 3.77224 -3.04681 0
M  V30 1682 N 155.201 0.870884 1.31352 0
M  V30 1683 C 156.612 0.534714 1.78879 0
M  V30 1684 C 156.963 -0.948423 1.71754 0
M  V30 1685 O 156.088 -1.74055 1.28584 0
M  V30 1686 C 156.683 0.963839 3.24801 0
M  V30 1687 C 155.242 0.679311 3.70219 0
M  V30 1688 C 154.389 1.15465 2.52117 0
M  V30 1689 H 157.34 1.05651 1.18421 0
M  V30 1690 H 157.361 0.286892 3.79417 0
M  V30 1691 H 156.873 2.04332 3.29955 0
M  V30 1692 H 154.974 -0.388769 3.70566 0
M  V30 1693 H 155.087 1.25698 4.62317 0
M  V30 1694 H 153.451 0.574383 2.48139 0
M  V30 1695 H 154.234 2.24157 2.60016 0
M  V30 1696 N 156.679 -1.44442 0.630414 0
M  V30 1697 C 157.907 -2.06414 0.141671 0
M  V30 1698 C 158.322 -1.47105 -1.18345 0
M  V30 1699 O 157.679 -0.593662 -1.72574 0
M  V30 1700 C 157.73 -3.61494 0.0199784 0
M  V30 1701 O 157.451 -4.18594 1.29269 0
M  V30 1702 C 158.952 -4.40499 -0.497544 0
M  V30 1703 H 156.172 -0.666292 0.0793452 0
M  V30 1704 H 158.716 -1.85323 0.864614 0
M  V30 1705 H 156.871 -3.8185 -0.653402 0
M  V30 1706 H 157.285 -5.12026 1.13707 0
M  V30 1707 H 158.759 -5.49433 -0.531708 0
M  V30 1708 H 159.236 -4.11895 -1.52445 0
M  V30 1709 H 159.842 -4.25061 0.142562 0
M  V30 1710 N 158.157 -0.370918 -1.53173 0
M  V30 1711 C 159.405 0.216673 -2.00935 0
M  V30 1712 C 159.726 1.48845 -1.25977 0
M  V30 1713 O 158.996 1.92286 -0.374551 0
M  V30 1714 H 157.576 0.0830565 -0.742368 0
M  V30 1715 H 160.238 -0.49838 -1.8842 0
M  V30 1716 H 159.334 0.439893 -3.08984 0
M  V30 1717 N 159.635 1.57281 -0.100228 0
M  V30 1718 C 160.545 2.17833 0.870965 0
M  V30 1719 C 161.561 1.14921 1.30649 0
M  V30 1720 O 162.737 1.47313 1.37335 0
M  V30 1721 C 159.802 2.75085 2.1102 0
M  V30 1722 C 158.863 3.9297 1.72838 0
M  V30 1723 C 158.096 4.47482 2.90854 0
M  V30 1724 O 158.319 4.00922 4.05731 0
M  V30 1725 O 157.253 5.38433 2.69023 0
M  V30 1726 H 161.079 3.0124 0.38575 0
M  V30 1727 H 158.664 1.48881 0.124397 0
M  V30 1728 H 160.546 3.11656 2.83634 0
M  V30 1729 H 159.221 1.94721 2.58584 0
M  V30 1730 H 158.128 3.61201 0.973883 0
M  V30 1731 H 159.461 4.74713 1.30033 0
M  V30 1732 N 161.113 -0.173488 1.56642 0
M  V30 1733 C 162.361 -0.888706 1.81512 0
M  V30 1734 C 162.682 -1.82875 0.676872 0
M  V30 1735 O 161.952 -1.93536 -0.303414 0
M  V30 1736 H 160.532 -0.331164 0.669582 0
M  V30 1737 H 163.194 -0.173823 1.94123 0
M  V30 1738 H 162.29 -1.46691 2.75478 0
M  V30 1739 N 162.591 -1.51276 -0.441967 0
M  V30 1740 C 163.831 -1.65372 -1.20132 0
M  V30 1741 C 164.195 -0.359871 -1.88597 0
M  V30 1742 O 165.396 -0.376551 -2.66149 0
M  V30 1743 C 163.667 -2.8207 -2.1948 0
M  V30 1744 S 165.226 -3.16467 -3.03964 0
M  V30 1745 H 162.044 -0.582669 -0.407453 0
M  V30 1746 H 164.646 -1.89166 -0.493609 0
M  V30 1747 H 163.35 -3.74523 -1.67812 0
M  V30 1748 H 162.881 -2.6045 -2.94838 0
M  V30 1749 H 164.896 -2.62543 -4.21053 0
M  V30 1750 N 164.069 0.697108 -1.41344 0
M  V30 1751 C 164.999 1.82353 -1.45841 0
M  V30 1752 C 165.98 1.67115 -0.317247 0
M  V30 1753 O 167.165 1.86871 -0.528474 0
M  V30 1754 C 164.295 3.20476 -1.33838 0
M  V30 1755 C 163.249 3.50415 -2.4575 0
M  V30 1756 C 162.575 4.87878 -2.18813 0
M  V30 1757 C 163.875 3.49546 -3.88091 0
M  V30 1758 H 165.569 1.78846 -2.40113 0
M  V30 1759 H 163.115 0.859028 -1.15571 0
M  V30 1760 H 165.068 3.98988 -1.35596 0
M  V30 1761 H 163.792 3.24604 -0.360498 0
M  V30 1762 H 162.451 2.74253 -2.43271 0
M  V30 1763 H 162.099 4.8863 -1.19371 0
M  V30 1764 H 161.799 5.08875 -2.93803 0
M  V30 1765 H 163.323 5.68702 -2.22284 0
M  V30 1766 H 164.737 4.18066 -3.92293 0
M  V30 1767 H 163.134 3.82075 -4.62751 0
M  V30 1768 H 164.204 2.48552 -4.16353 0
M  V30 1769 N 165.547 1.27147 0.931209 0
M  V30 1770 C 166.772 1.16191 1.71797 0
M  V30 1771 C 167.197 -0.278004 1.86034 0
M  V30 1772 O 166.555 -1.20137 1.35782 0
M  V30 1773 C 166.603 1.84673 3.09723 0
M  V30 1774 O 165.707 1.14231 3.96264 0
M  V30 1775 H 165.048 0.404303 0.526721 0
M  V30 1776 H 167.578 1.68152 1.1656 0
M  V30 1777 H 167.588 1.91893 3.60057 0
M  V30 1778 H 166.263 2.89421 2.98677 0
M  V30 1779 H 164.84 1.15056 3.54706 0
M  V30 1780 N 167.025 -1.13721 1.09112 0
M  V30 1781 C 168.271 -1.85198 0.826414 0
M  V30 1782 C 168.604 -1.83129 -0.646319 0
M  V30 1783 O 167.879 -1.2671 -1.47563 0
M  V30 1784 C 168.162 -3.33507 1.35812 0
M  V30 1785 C 168.015 -3.44108 2.89672 0
M  V30 1786 C 169.334 -4.28838 0.989256 0
M  V30 1787 H 166.453 -0.67243 0.301675 0
M  V30 1788 H 169.095 -1.33499 1.35197 0
M  V30 1789 H 167.245 -3.77666 0.911082 0
M  V30 1790 H 168.917 -3.08684 3.428 0
M  V30 1791 H 167.16 -2.85087 3.26967 0
M  V30 1792 H 167.831 -4.48388 3.21951 0
M  V30 1793 H 170.307 -3.92734 1.37475 0
M  V30 1794 H 169.183 -5.31051 1.38838 0
M  V30 1795 H 169.444 -4.4198 -0.102924 0
M  V30 1796 N 168.503 -0.877838 -1.30888 0
M  V30 1797 C 169.78 -0.413052 -1.91189 0
M  V30 1798 C 170.16 1.1056 -1.79832 0
M  V30 1799 O 169.508 1.93771 -1.21099 0
M  V30 1800 C 169.718 -0.903191 -3.3711 0
M  V30 1801 C 171.066 -0.93395 -4.14201 0
M  V30 1802 O 172.09 -0.849373 -3.45925 0
M  V30 1803 O 170.949 -1.05772 -5.36167 0
M  V30 1804 H 168.043 -0.125035 -0.817493 0
M  V30 1805 H 170.589 -0.966269 -1.39504 0
M  V30 1806 H 169.361 -1.94692 -3.39427 0
M  V30 1807 H 168.984 -0.328732 -3.96239 0
M  V30 1808 N 169.982 1.44106 -0.638065 0
M  V30 1809 C 171.259 1.95453 -0.0759321 0
M  V30 1810 C 171.639 1.57984 1.40015 0
M  V30 1811 O 170.987 0.857361 2.11806 0
M  V30 1812 C 171.197 3.47655 -0.306132 0
M  V30 1813 C 172.545 4.24114 -0.203008 0
M  V30 1814 O 173.569 3.55405 -0.237871 0
M  V30 1815 O 172.428 5.46381 -0.113827 0
M  V30 1816 H 169.522 0.826797 0.0183332 0
M  V30 1817 H 172.068 1.54122 -0.710251 0
M  V30 1818 H 170.84 3.68 -1.3301 0
M  V30 1819 H 170.463 3.95949 0.361991 0
M  V30 1820 N 171.46 0.379036 1.52974 0
M  V30 1821 C 172.408 -0.476033 2.27677 0
M  V30 1822 C 173.402 -1.0719 1.31174 0
M  V30 1823 O 174.608 -1.01355 1.48752 0
M  V30 1824 H 170.983 -0.172255 0.732006 0
M  V30 1825 H 172.954 0.175615 2.97883 0
M  V30 1826 C 171.703 -1.5967 3.0887 0
M  V30 1827 H 171.026 -1.1475 3.82978 0
M  V30 1828 H 172.466 -2.16943 3.64296 0
M  V30 1829 C 170.925 -2.54682 2.20542 0
M  V30 1830 O 171.455 -3.57836 1.82527 0
M  V30 1831 N 169.661 -2.24183 1.84907 0
M  V30 1832 H 169.208 -1.40333 2.1602 0
M  V30 1833 H 169.166 -2.88006 1.26096 0
M  V30 1834 N 172.938 -1.57226 0.108567 0
M  V30 1835 C 174.184 -1.95121 -0.552761 0
M  V30 1836 C 174.517 -0.991345 -1.66991 0
M  V30 1837 O 173.792 -0.0267211 -1.94482 0
M  V30 1838 C 174.075 -3.43039 -1.09528 0
M  V30 1839 C 173.928 -4.49797 0.0177332 0
M  V30 1840 C 175.247 -3.92567 -1.98945 0
M  V30 1841 H 172.366 -0.709496 -0.199461 0
M  V30 1842 H 175.008 -1.89126 0.182011 0
M  V30 1843 H 173.158 -3.48279 -1.72146 0
M  V30 1844 H 174.83 -4.56661 0.652584 0
M  V30 1845 H 173.073 -4.284 0.682309 0
M  V30 1846 H 173.744 -5.50528 -0.402919 0
M  V30 1847 H 176.22 -3.89565 -1.46214 0
M  V30 1848 H 175.096 -4.96605 -2.33827 0
M  V30 1849 H 175.357 -3.32648 -2.91201 0
M  V30 1850 N 174.416 0.165178 -1.56732 0
M  V30 1851 C 175.379 1.18822 -1.95995 0
M  V30 1852 C 176.379 1.3685 -0.84431 0
M  V30 1853 O 177.569 1.34152 -1.11126 0
M  V30 1854 C 174.701 2.5521 -2.26011 0
M  V30 1855 H 175.894 0.851825 -2.87548 0
M  V30 1856 H 173.447 0.407857 -1.50885 0
M  V30 1857 H 174.182 2.93852 -1.37191 0
M  V30 1858 H 173.967 2.43489 -3.07336 0
M  V30 1859 H 175.457 3.28927 -2.57288 0
M  V30 1860 N 175.894 1.51508 0.433938 0
M  V30 1861 C 177.142 1.6402 1.18075 0
M  V30 1862 C 177.463 0.360328 1.91642 0
M  V30 1863 O 176.733 -0.623945 1.85698 0
M  V30 1864 H 175.313 0.6045 0.43885 0
M  V30 1865 H 177.975 1.88452 0.497178 0
M  V30 1866 H 177.071 2.46949 1.90847 0
M  V30 1867 N 177.372 -0.689602 1.41712 0
M  V30 1868 C 178.302 -1.81577 1.46806 0
M  V30 1869 C 179.283 -1.66945 0.326105 0
M  V30 1870 O 180.468 -1.86588 0.538377 0
M  V30 1871 C 177.598 -3.19762 1.35535 0
M  V30 1872 C 176.552 -3.49107 2.47605 0
M  V30 1873 C 175.878 -4.86711 2.21397 0
M  V30 1874 C 177.178 -3.47483 3.89939 0
M  V30 1875 H 178.872 -1.7757 2.41058 0
M  V30 1876 H 176.418 -0.852887 1.16025 0
M  V30 1877 H 178.371 -3.98263 1.3771 0
M  V30 1878 H 177.095 -3.24409 0.377708 0
M  V30 1879 H 175.754 -2.72959 2.44722 0
M  V30 1880 H 175.402 -4.8799 1.21961 0
M  V30 1881 H 175.102 -5.0731 2.96497 0
M  V30 1882 H 176.626 -5.67515 2.25297 0
M  V30 1883 H 178.04 -4.1598 3.94505 0
M  V30 1884 H 176.437 -3.79615 4.64771 0
M  V30 1885 H 177.507 -2.46341 4.17665 0
M  V30 1886 N 178.85 -1.27639 -0.924453 0
M  V30 1887 C 180.096 -1.14336 -1.67497 0
M  V30 1888 C 180.429 0.309465 -1.91718 0
M  V30 1889 O 179.704 1.22608 -1.50989 0
M  V30 1890 C 179.987 -1.93096 -3.0395 0
M  V30 1891 C 179.84 -3.46381 -2.8695 0
M  V30 1892 C 181.159 -1.73798 -4.0433 0
M  V30 1893 H 178.278 -0.416728 -0.607871 0
M  V30 1894 H 180.92 -1.56832 -1.07256 0
M  V30 1895 H 179.07 -1.56982 -3.55372 0
M  V30 1896 H 180.742 -3.92343 -2.42621 0
M  V30 1897 H 178.985 -3.72557 -2.22225 0
M  V30 1898 H 179.656 -3.96735 -3.83804 0
M  V30 1899 H 182.132 -2.05293 -3.61931 0
M  V30 1900 H 181.008 -2.31294 -4.97789 0
M  V30 1901 H 181.269 -0.686725 -4.36734 0
M  V30 1902 N 180.328 1.1314 -1.09713 0
M  V30 1903 C 181.278 2.16709 -0.708593 0
M  V30 1904 C 182.262 1.58471 0.278523 0
M  V30 1905 O 183.454 1.76779 0.088427 0
M  V30 1906 C 180.583 3.43039 -0.133923 0
M  V30 1907 C 179.669 4.08277 -1.14763 0
M  V30 1908 N 180.06 4.48637 -2.33577 0
M  V30 1909 C 178.358 4.34954 -0.986446 0
M  V30 1910 C 179.059 4.9952 -2.98085 0
M  V30 1911 N 178.035 4.94561 -2.25632 0
M  V30 1912 H 181.837 2.45672 -1.61315 0
M  V30 1913 H 179.351 1.29967 -0.973775 0
M  V30 1914 H 181.348 4.16583 0.162465 0
M  V30 1915 H 180.008 3.15549 0.765447 0
M  V30 1916 H 181.019 4.41246 -2.7115 0
M  V30 1917 H 177.696 4.17258 -0.142008 0
M  V30 1918 H 179.086 5.40521 -3.99108 0
M  V30 1919 N 181.806 0.884767 1.30421 0
M  V30 1920 C 183.222 0.57874 1.48737 0
M  V30 1921 C 183.422 -0.883567 1.81095 0
M  V30 1922 O 182.478 -1.6648 1.89844 0
M  V30 1923 C 183.791 1.49171 2.61091 0
M  V30 1924 C 185.339 1.49532 2.74971 0
M  V30 1925 C 185.814 2.39421 3.90438 0
M  V30 1926 N 187.305 2.37383 3.97748 0
M  V30 1927 C 188.04 3.03647 4.86401 0
M  V30 1928 N 187.536 3.79136 5.79852 0
M  V30 1929 N 189.329 2.9288 4.79768 0
M  V30 1930 H 181.48 1.83075 1.0769 0
M  V30 1931 H 183.743 0.783637 0.533495 0
M  V30 1932 H 183.449 2.53291 2.44001 0
M  V30 1933 H 183.323 1.20113 3.57565 0
M  V30 1934 H 185.71 0.46163 2.91467 0
M  V30 1935 H 185.791 1.8262 1.79119 0
M  V30 1936 H 185.435 3.42874 3.74699 0
M  V30 1937 H 185.365 2.03649 4.85628 0
M  V30 1938 H 187.856 1.82525 3.30897 0
M  V30 1939 H 188.169 4.26789 6.4426 0
M  V30 1940 H 186.514 3.83243 5.79784 0
M  V30 1941 H 189.705 2.33433 4.05742 0
M  V30 1942 H 189.878 3.448 5.4865 0
M  V30 1943 N 183.284 -1.43765 0.645699 0
M  V30 1944 C 184.234 -2.27884 -0.0726442 0
M  V30 1945 C 185.218 -1.39483 -0.802086 0
M  V30 1946 O 186.41 -1.63174 -0.685791 0
M  V30 1947 C 183.539 -3.27055 -1.04356 0
M  V30 1948 C 182.625 -4.22944 -0.312985 0
M  V30 1949 N 183.016 -5.01391 0.666386 0
M  V30 1950 C 181.314 -4.42528 -0.55546 0
M  V30 1951 C 182.015 -5.71217 1.09935 0
M  V30 1952 N 180.991 -5.41856 0.435137 0
M  V30 1953 H 184.793 -2.85949 0.678988 0
M  V30 1954 H 182.307 -1.55378 0.472368 0
M  V30 1955 H 184.304 -3.86089 -1.57292 0
M  V30 1956 H 182.964 -2.70551 -1.79534 0
M  V30 1957 H 183.975 -5.07252 1.04481 0
M  V30 1958 H 180.652 -3.97104 -1.28899 0
M  V30 1959 H 182.042 -6.44202 1.90929 0
M  V30 1960 N 184.763 -0.387143 -1.52771 0
M  V30 1961 C 185.711 0.463953 -2.27926 0
M  V30 1962 C 186.705 1.06493 -1.31741 0
M  V30 1963 O 187.911 1.00565 -1.49287 0
M  V30 1964 H 184.286 0.16837 -0.732909 0
M  V30 1965 H 186.257 -0.19141 -2.97785 0
M  V30 1966 C 185.006 1.5803 -3.09713 0
M  V30 1967 H 184.329 1.12718 -3.83581 0
M  V30 1968 H 185.769 2.15008 -3.65442 0
M  V30 1969 C 184.228 2.53509 -2.2189 0
M  V30 1970 O 184.758 3.56863 -1.84422 0
M  V30 1971 N 182.964 2.23199 -1.86093 0
M  V30 1972 H 182.511 1.39185 -2.16761 0
M  V30 1973 H 182.469 2.87333 -1.27621 0
M  V30 1974 N 186.241 1.57166 -0.116904 0
M  V30 1975 C 187.657 1.5779 0.239693 0
M  V30 1976 C 187.857 1.1295 1.66867 0
M  V30 1977 O 186.913 0.81592 2.38954 0
M  V30 1978 C 188.226 3.00699 0.00828202 0
M  V30 1979 C 189.774 3.12912 0.0743438 0
M  V30 1980 C 190.249 4.57817 -0.129348 0
M  V30 1981 N 191.74 4.63139 -0.075247 0
M  V30 1982 C 192.475 5.73023 -0.207788 0
M  V30 1983 N 191.971 6.91665 -0.396382 0
M  V30 1984 N 193.764 5.61906 -0.14751 0
M  V30 1985 H 185.915 1.84615 -1.05029 0
M  V30 1986 H 188.178 0.85311 -0.41341 0
M  V30 1987 H 187.884 3.37784 -0.979531 0
M  V30 1988 H 187.758 3.69848 0.741077 0
M  V30 1989 H 190.145 2.75686 1.05268 0
M  V30 1990 H 190.226 2.4631 -0.690297 0
M  V30 1991 H 189.87 4.95742 -1.10465 0
M  V30 1992 H 189.8 5.22507 0.655253 0
M  V30 1993 H 192.291 3.7784 0.0670898 0
M  V30 1994 H 192.604 7.71255 -0.488437 0
M  V30 1995 H 190.949 6.93654 -0.432329 0
M  V30 1996 H 194.14 4.681 -0.00115036 0
M  V30 1997 H 194.313 6.47501 -0.254247 0
M  V30 1998 N 187.719 -0.156864 1.56817 0
M  V30 1999 C 188.968 -0.869504 1.81996 0
M  V30 2000 C 189.281 -1.82777 0.696545 0
M  V30 2001 O 190.487 -2.58384 0.833658 0
M  V30 2002 C 188.943 -1.59679 3.22538 0
M  V30 2003 C 188.551 -0.681431 4.42787 0
M  V30 2004 C 190.295 -2.2968 3.56997 0
M  V30 2005 C 188.202 -1.40978 5.74351 0
M  V30 2006 H 187.132 -0.328438 0.678708 0
M  V30 2007 H 189.783 -0.1223 1.83092 0
M  V30 2008 H 188.165 -2.38927 3.158 0
M  V30 2009 H 189.339 0.0751166 4.60739 0
M  V30 2010 H 187.654 -0.0903431 4.16302 0
M  V30 2011 H 190.251 -2.84794 4.52544 0
M  V30 2012 H 190.594 -3.05707 2.82576 0
M  V30 2013 H 191.127 -1.57361 3.65352 0
M  V30 2014 H 187.866 -0.691561 6.51842 0
M  V30 2015 H 187.386 -2.13929 5.60352 0
M  V30 2016 H 189.065 -1.95337 6.16808 0
M  V30 2017 N 189.197 -1.51736 -0.425897 0
M  V30 2018 C 190.425 -1.68794 -1.1965 0
M  V30 2019 C 190.84 -0.390164 -1.84725 0
M  V30 2020 O 190.197 0.632376 -1.71194 0
M  V30 2021 C 190.248 -2.81174 -2.27208 0
M  V30 2022 O 189.969 -4.05925 -1.64793 0
M  V30 2023 C 191.47 -3.09599 -3.17275 0
M  V30 2024 H 188.69 -0.566128 -0.360194 0
M  V30 2025 H 191.234 -1.98211 -0.503249 0
M  V30 2026 H 189.389 -2.54324 -2.9223 0
M  V30 2027 H 189.803 -4.68423 -2.35967 0
M  V30 2028 H 191.277 -3.91786 -3.88854 0
M  V30 2029 H 191.754 -2.22468 -3.78688 0
M  V30 2030 H 192.36 -3.38151 -2.57941 0
M  V30 2031 N 190.675 0.682077 -1.42076 0
M  V30 2032 C 191.924 1.43786 -1.41451 0
M  V30 2033 C 192.237 1.95574 -0.0317074 0
M  V30 2034 O 193.443 2.71326 0.0971462 0
M  V30 2035 C 191.899 2.60071 -2.48779 0
M  V30 2036 C 191.507 2.15013 -3.93031 0
M  V30 2037 C 193.251 3.37626 -2.57311 0
M  V30 2038 C 191.158 3.28336 -4.91883 0
M  V30 2039 H 190.088 0.540143 -0.526082 0
M  V30 2040 H 192.739 0.739157 -1.67955 0
M  V30 2041 H 191.121 3.32275 -2.15429 0
M  V30 2042 H 192.295 1.5001 -4.35699 0
M  V30 2043 H 190.61 1.50416 -3.88284 0
M  V30 2044 H 193.207 4.22012 -3.28345 0
M  V30 2045 H 193.55 3.83727 -1.61429 0
M  V30 2046 H 194.083 2.72488 -2.89819 0
M  V30 2047 H 190.822 2.87234 -5.89217 0
M  V30 2048 H 190.342 3.92145 -4.53853 0
M  V30 2049 H 192.021 3.93913 -5.13265 0
M  V30 2050 N 192.153 1.28127 0.917671 0
M  V30 2051 C 193.1 1.11717 2.0196 0
M  V30 2052 C 194.07 0.0153929 1.66093 0
M  V30 2053 O 195.255 0.179596 1.89953 0
M  V30 2054 C 192.395 0.780927 3.36148 0
M  V30 2055 C 191.508 1.96135 3.84909 0
M  V30 2056 C 190.643 1.56609 5.0759 0
M  V30 2057 C 189.682 2.71339 5.48673 0
M  V30 2058 N 188.819 2.32332 6.62545 0
M  V30 2059 H 193.659 2.06003 2.15329 0
M  V30 2060 H 191.196 1.02535 1.05475 0
M  V30 2061 H 193.154 0.56675 4.13333 0
M  V30 2062 H 191.784 -0.124998 3.22558 0
M  V30 2063 H 190.836 2.28777 3.03916 0
M  V30 2064 H 192.148 2.82165 4.1132 0
M  V30 2065 H 191.302 1.31374 5.92305 0
M  V30 2066 H 190.041 0.677014 4.82978 0
M  V30 2067 H 189.046 2.97276 4.62501 0
M  V30 2068 H 190.271 3.60882 5.75274 0
M  V30 2069 H 188.217 1.45889 6.39572 0
M  V30 2070 H 188.134 3.11899 6.88662 0
M  V30 2071 H 189.402 2.10371 7.50576 0
M  V30 2072 N 193.631 -1.12557 1.10312 0
M  V30 2073 C 194.594 -2.16434 0.75424 0
M  V30 2074 C 195.594 -1.59278 -0.220685 0
M  V30 2075 O 196.784 -1.742 0.00230591 0
M  V30 2076 C 193.916 -3.40699 0.116987 0
M  V30 2077 H 195.109 -2.48811 1.67431 0
M  V30 2078 H 192.662 -1.27542 0.903475 0
M  V30 2079 H 193.397 -3.13921 -0.813877 0
M  V30 2080 H 193.182 -3.83459 0.818613 0
M  V30 2081 H 194.672 -4.17451 -0.111387 0
M  V30 2082 N 195.109 -0.891671 -1.2995 0
M  V30 2083 C 196.056 -0.361736 -2.27948 0
M  V30 2084 C 197.026 0.551761 -1.56668 0
M  V30 2085 O 198.211 0.478736 -1.84696 0
M  V30 2086 C 195.351 0.411825 -3.42634 0
M  V30 2087 C 194.464 -0.531651 -4.28716 0
M  V30 2088 C 193.599 0.258167 -5.30572 0
M  V30 2089 C 192.638 -0.680349 -6.08307 0
M  V30 2090 N 191.775 0.0745613 -7.0206 0
M  V30 2091 H 196.615 -1.20254 -2.72659 0
M  V30 2092 H 194.152 -0.604352 -1.34112 0
M  V30 2093 H 196.11 0.876304 -4.07893 0
M  V30 2094 H 194.74 1.21715 -2.98974 0
M  V30 2095 H 193.792 -1.11463 -3.63703 0
M  V30 2096 H 195.104 -1.25038 -4.82874 0
M  V30 2097 H 194.258 0.784204 -6.0161 0
M  V30 2098 H 192.997 1.01008 -4.77126 0
M  V30 2099 H 192.002 -1.21796 -5.3614 0
M  V30 2100 H 193.227 -1.43145 -6.63842 0
M  V30 2101 H 191.173 0.808883 -6.50994 0
M  V30 2102 H 191.09 -0.584409 -7.53738 0
M  V30 2103 H 192.358 0.581123 -7.77331 0
M  V30 2104 N 196.587 1.43421 -0.653314 0
M  V30 2105 C 197.864 1.95361 -0.0966581 0
M  V30 2106 C 198.244 1.59461 1.38331 0
M  V30 2107 O 197.592 0.879777 2.10884 0
M  V30 2108 C 197.802 3.47311 -0.342988 0
M  V30 2109 C 199.15 4.23875 -0.24798 0
M  V30 2110 O 200.174 3.55133 -0.275553 0
M  V30 2111 O 199.033 5.4623 -0.171771 0
M  V30 2112 H 196.127 0.826945 0.00956291 0
M  V30 2113 H 198.673 1.5336 -0.726558 0
M  V30 2114 H 197.445 3.66569 -1.36906 0
M  V30 2115 H 197.068 3.9631 0.319975 0
M  V30 2116 N 198.065 0.39524 1.52563 0
M  V30 2117 C 199.314 -0.186321 2.00838 0
M  V30 2118 C 199.627 -1.47402 1.28577 0
M  V30 2119 O 200.833 -2.13599 1.67593 0
M  V30 2120 C 199.289 -0.382595 3.57861 0
M  V30 2121 C 198.897 0.892202 4.39026 0
M  V30 2122 C 200.641 -0.9202 4.14406 0
M  V30 2123 C 198.548 0.66388 5.87662 0
M  V30 2124 H 197.478 -0.0734041 0.750418 0
M  V30 2125 H 200.129 0.518552 1.76021 0
M  V30 2126 H 198.511 -1.14946 3.7895 0
M  V30 2127 H 199.685 1.66414 4.29701 0
M  V30 2128 H 198 1.35519 3.9373 0
M  V30 2129 H 200.597 -1.10683 5.23119 0
M  V30 2130 H 200.94 -1.89096 3.70875 0
M  V30 2131 H 201.473 -0.212751 3.97231 0
M  V30 2132 H 198.212 1.6058 6.35527 0
M  V30 2133 H 197.732 -0.0690193 5.9976 0
M  V30 2134 H 199.411 0.300699 6.46301 0
M  V30 2135 N 199.544 -1.57102 0.125237 0
M  V30 2136 C 200.454 -2.19191 -0.8362 0
M  V30 2137 C 201.47 -1.16985 -1.28805 0
M  V30 2138 O 202.646 -1.49479 -1.34974 0
M  V30 2139 C 199.711 -2.78407 -2.06617 0
M  V30 2140 C 198.772 -3.9567 -1.66565 0
M  V30 2141 C 198.005 -4.52052 -2.83698 0
M  V30 2142 O 198.228 -4.07326 -3.99302 0
M  V30 2143 O 197.162 -5.42645 -2.60423 0
M  V30 2144 H 200.988 -3.01816 -0.337776 0
M  V30 2145 H 198.573 -1.4906 -0.100695 0
M  V30 2146 H 200.455 -3.16129 -2.7864 0
M  V30 2147 H 199.13 -1.9881 -2.55453 0
M  V30 2148 H 198.037 -3.62705 -0.916296 0
M  V30 2149 H 199.37 -4.76722 -1.22464 0
M  V30 2150 N 201.022 0.148545 -1.56898 0
M  V30 2151 C 202.27 0.859717 -1.82902 0
M  V30 2152 C 202.591 1.81775 -0.70588 0
M  V30 2153 O 201.861 1.93994 0.272586 0
M  V30 2154 H 200.441 0.320469 -0.674766 0
M  V30 2155 H 203.103 0.142918 -1.94375 0
M  V30 2156 H 202.199 1.4229 -2.77777 0
M  V30 2157 N 202.5 1.5196 0.417844 0
M  V30 2158 C 203.448 1.75278 1.52907 0
M  V30 2159 C 204.442 0.619611 1.57662 0
M  V30 2160 O 205.648 0.801457 1.61173 0
M  V30 2161 H 202.023 0.554141 0.508362 0
M  V30 2162 H 203.994 2.68389 1.30422 0
M  V30 2163 C 202.743 1.91262 2.90369 0
M  V30 2164 H 202.066 2.77872 2.8745 0
M  V30 2165 H 203.506 2.11581 3.67436 0
M  V30 2166 C 201.965 0.677431 3.30019 0
M  V30 2167 O 202.495 -0.158799 4.01386 0
M  V30 2168 N 200.701 0.515851 2.85985 0
M  V30 2169 H 200.248 1.19744 2.28077 0
M  V30 2170 H 200.206 -0.309315 3.12875 0
M  V30 2171 N 203.978 -0.674533 1.42435 0
M  V30 2172 C 205.255 -1.4305 1.33402 0
M  V30 2173 C 205.635 -2.11081 -0.0284674 0
M  V30 2174 O 204.983 -2.03257 -1.04397 0
M  V30 2175 C 205.193 -2.43272 2.50239 0
M  V30 2176 C 206.541 -3.07907 2.92367 0
M  V30 2177 O 207.565 -2.53599 2.50132 0
M  V30 2178 O 206.424 -4.0632 3.65467 0
M  V30 2179 H 203.518 -0.638076 0.526106 0
M  V30 2180 H 206.064 -0.703235 1.54443 0
M  V30 2181 H 204.836 -1.91803 3.41068 0
M  V30 2182 H 204.459 -3.23479 2.31186 0
M  V30 2183 N 205.456 -1.28612 -0.910864 0
M  V30 2184 C 206.705 -1.15311 -1.65488 0
M  V30 2185 C 207.018 0.296999 -1.93332 0
M  V30 2186 O 208.224 0.551168 -2.65847 0
M  V30 2187 C 206.68 -2.01599 -2.98137 0
M  V30 2188 C 206.288 -3.51367 -2.7793 0
M  V30 2189 C 208.032 -1.96993 -3.76024 0
M  V30 2190 C 205.939 -4.29797 -4.06237 0
M  V30 2191 H 204.869 -0.42796 -0.620779 0
M  V30 2192 H 207.52 -1.53166 -1.01057 0
M  V30 2193 H 205.902 -1.56603 -3.63719 0
M  V30 2194 H 207.076 -4.0434 -2.21011 0
M  V30 2195 H 205.391 -3.57529 -2.13452 0
M  V30 2196 H 207.988 -2.52856 -4.71135 0
M  V30 2197 H 208.331 -0.94733 -4.05378 0
M  V30 2198 H 208.864 -2.39973 -3.17266 0
M  V30 2199 H 205.603 -5.32648 -3.82055 0
M  V30 2200 H 205.123 -3.81596 -4.62757 0
M  V30 2201 H 206.802 -4.39869 -4.74473 0
M  V30 2202 N 206.934 1.1197 -1.10907 0
M  V30 2203 C 207.866 2.17592 -0.720175 0
M  V30 2204 C 208.879 1.60938 0.245495 0
M  V30 2205 O 210.068 1.78476 0.0292245 0
M  V30 2206 C 207.168 3.38873 -0.0427917 0
M  V30 2207 C 206.341 4.25006 -1.03388 0
M  V30 2208 C 205.4 5.24774 -0.387075 0
M  V30 2209 O 204.426 5.59631 -1.03934 0
M  V30 2210 N 205.628 5.74208 0.852407 0
M  V30 2211 H 208.393 2.51567 -1.62893 0
M  V30 2212 H 205.954 1.27439 -0.998543 0
M  V30 2213 H 207.946 4.02703 0.401501 0
M  V30 2214 H 206.516 3.03007 0.768456 0
M  V30 2215 H 205.736 3.57716 -1.65629 0
M  V30 2216 H 207.024 4.79397 -1.70458 0
M  V30 2217 H 206.422 5.48062 1.40161 0
M  V30 2218 H 204.979 6.39901 1.23977 0
M  V30 2219 N 208.412 0.89855 1.29475 0
M  V30 2220 C 209.342 0.39201 2.30186 0
M  V30 2221 C 210.323 -0.532359 1.61555 0
M  V30 2222 O 211.508 -0.443331 1.89072 0
M  V30 2223 C 208.638 -0.382353 3.45189 0
M  V30 2224 C 207.592 0.451483 4.25612 0
M  V30 2225 C 206.918 -0.450307 5.328 0
M  V30 2226 C 208.218 1.70079 4.93832 0
M  V30 2227 H 209.912 1.23362 2.72804 0
M  V30 2228 H 207.458 0.594638 1.31149 0
M  V30 2229 H 209.411 -0.747451 4.14718 0
M  V30 2230 H 208.135 -1.25774 3.01411 0
M  V30 2231 H 206.794 0.798897 3.57789 0
M  V30 2232 H 206.442 -1.32379 4.85268 0
M  V30 2233 H 206.142 0.103902 5.87508 0
M  V30 2234 H 207.666 -0.811623 6.05182 0
M  V30 2235 H 209.08 1.40549 5.55805 0
M  V30 2236 H 207.477 2.19623 5.58467 0
M  V30 2237 H 208.547 2.43744 4.19186 0
M  V30 2238 N 209.89 -1.43072 0.660911 0
M  V30 2239 C 211.306 -1.56169 0.329173 0
M  V30 2240 C 211.506 -1.64317 -1.16629 0
M  V30 2241 O 210.562 -1.60245 -1.95135 0
M  V30 2242 C 211.875 -2.81873 1.04729 0
M  V30 2243 C 213.423 -2.95627 1.02828 0
M  V30 2244 C 213.898 -4.24174 1.72744 0
M  V30 2245 N 215.389 -4.31055 1.69545 0
M  V30 2246 C 216.124 -5.29304 2.20511 0
M  V30 2247 N 215.62 -6.33786 2.79799 0
M  V30 2248 N 217.413 -5.21008 2.10966 0
M  V30 2249 H 209.564 -1.36027 1.63127 0
M  V30 2250 H 211.827 -0.653823 0.686454 0
M  V30 2251 H 211.533 -2.81942 2.10242 0
M  V30 2252 H 211.407 -3.72338 0.603702 0
M  V30 2253 H 213.794 -2.95094 -0.0184742 0
M  V30 2254 H 213.875 -2.06431 1.51063 0
M  V30 2255 H 213.519 -4.25467 2.7738 0
M  V30 2256 H 213.449 -5.1228 1.2197 0
M  V30 2257 H 215.94 -3.56174 1.26288 0
M  V30 2258 H 216.253 -7.05086 3.16344 0
M  V30 2259 H 214.598 -6.34387 2.83863 0
M  V30 2260 H 217.789 -4.38301 1.64347 0
M  V30 2261 H 217.962 -5.97416 2.50993 0
M  V30 2262 N 211.368 -0.403325 -1.52352 0
M  V30 2263 C 212.298 0.416205 -2.29761 0
M  V30 2264 C 213.279 1.05123 -1.33728 0
M  V30 2265 O 214.464 1.06134 -1.62632 0
M  V30 2266 C 211.594 1.53624 -3.11475 0
M  V30 2267 C 210.548 1.02653 -4.15507 0
M  V30 2268 C 209.874 2.23971 -4.85532 0
M  V30 2269 C 211.174 0.08463 -5.22231 0
M  V30 2270 H 212.868 -0.229701 -2.98518 0
M  V30 2271 H 210.414 -0.111913 -1.43564 0
M  V30 2272 H 212.367 2.1165 -3.64393 0
M  V30 2273 H 211.091 2.20994 -2.40477 0
M  V30 2274 H 209.75 0.46871 -3.63591 0
M  V30 2275 H 209.398 2.89883 -4.11068 0
M  V30 2276 H 209.098 1.90521 -5.55856 0
M  V30 2277 H 210.622 2.82614 -5.41259 0
M  V30 2278 H 212.036 0.573509 -5.70424 0
M  V30 2279 H 210.433 -0.160783 -5.99885 0
M  V30 2280 H 211.503 -0.86237 -4.7717 0
M  V30 2281 N 212.846 1.57033 -0.133567 0
M  V30 2282 C 213.793 2.16074 0.811208 0
M  V30 2283 C 214.763 1.08979 1.2535 0
M  V30 2284 O 215.948 1.36958 1.32843 0
M  V30 2285 C 213.088 2.77595 2.05024 0
M  V30 2286 C 212.201 3.99042 1.65498 0
M  V30 2287 C 211.336 4.48603 2.84479 0
M  V30 2288 C 210.375 5.62547 2.41262 0
M  V30 2289 N 209.512 6.06787 3.53206 0
M  V30 2290 H 214.352 2.96477 0.300906 0
M  V30 2291 H 211.889 1.46462 0.136822 0
M  V30 2292 H 213.847 3.11402 2.77642 0
M  V30 2293 H 212.477 1.99859 2.53488 0
M  V30 2294 H 211.529 3.71302 0.826981 0
M  V30 2295 H 212.841 4.81629 1.29748 0
M  V30 2296 H 211.995 4.84395 3.65303 0
M  V30 2297 H 210.734 3.64995 3.23465 0
M  V30 2298 H 209.739 5.26345 1.58874 0
M  V30 2299 H 210.964 6.47931 2.03377 0
M  V30 2300 H 208.91 5.26117 3.91838 0
M  V30 2301 H 208.827 6.84266 3.21427 0
M  V30 2302 H 210.095 6.4722 4.34427 0
M  V30 2303 N 214.325 -0.140222 1.56975 0
M  V30 2304 C 215.573 -0.850005 1.83356 0
M  V30 2305 C 215.894 -1.81399 0.71551 0
M  V30 2306 O 215.164 -1.94136 -0.262294 0
M  V30 2307 H 213.744 -0.316886 0.676456 0
M  V30 2308 H 216.406 -0.132608 1.94448 0
M  V30 2309 H 215.502 -1.40814 2.78528 0
M  V30 2310 N 215.803 -1.52179 -0.40978 0
M  V30 2311 C 217.033 -1.69807 -1.17682 0
M  V30 2312 C 217.441 -0.406908 -1.84773 0
M  V30 2313 O 216.784 0.626863 -1.72673 0
M  V30 2314 C 216.846 -2.77712 -2.2829 0
M  V30 2315 C 216.51 -4.19481 -1.81341 0
M  V30 2316 C 217.507 -5.03345 -1.30154 0
M  V30 2317 C 215.192 -4.65713 -1.88194 0
M  V30 2318 C 217.186 -6.31511 -0.864416 0
M  V30 2319 C 214.873 -5.93869 -1.44093 0
M  V30 2320 C 215.871 -6.76597 -0.933023 0
M  V30 2321 O 215.559 -8.02354 -0.49838 0
M  V30 2322 H 215.291 -0.572372 -0.359675 0
M  V30 2323 H 217.845 -1.99511 -0.488311 0
M  V30 2324 H 216.075 -2.43383 -3.00502 0
M  V30 2325 H 217.764 -2.83946 -2.90051 0
M  V30 2326 H 218.53 -4.68819 -1.24232 0
M  V30 2327 H 214.409 -4.01424 -2.26671 0
M  V30 2328 H 217.953 -6.96033 -0.467286 0
M  V30 2329 H 213.85 -6.27903 -1.49694 0
M  V30 2330 H 214.618 -8.16135 -0.621747 0
M  V30 2331 N 217.281 0.66697 -1.42791 0
M  V30 2332 C 218.692 1.2478 -1.38877 0
M  V30 2333 C 219.043 1.96012 -0.0859426 0
M  V30 2334 O 218.168 2.00463 0.815081 0
M  V30 2335 C 218.763 2.26938 -2.51564 0
M  V30 2336 C 217.322 2.80529 -2.50959 0
M  V30 2337 C 216.469 1.54965 -2.29959 0
M  V30 2338 H 219.42 0.459853 -1.51892 0
M  V30 2339 H 219.441 3.08834 -2.22265 0
M  V30 2340 H 218.953 1.75065 -3.46372 0
M  V30 2341 H 217.054 3.36502 -1.59991 0
M  V30 2342 H 217.167 3.29012 -3.48265 0
M  V30 2343 H 215.531 1.81817 -1.78366 0
M  V30 2344 H 216.314 1.05047 -3.26833 0
M  V30 2345 N 218.759 1.29093 0.90403 0
M  V30 2346 C 219.722 1.1386 1.98919 0
M  V30 2347 C 220.722 0.0753457 1.60623 0
M  V30 2348 O 221.912 0.321931 1.71199 0
M  V30 2349 C 219.044 0.740198 3.32767 0
M  V30 2350 H 220.237 2.10246 2.13861 0
M  V30 2351 H 217.79 1.12218 1.08797 0
M  V30 2352 H 218.525 -0.223997 3.23525 0
M  V30 2353 H 218.31 1.50838 3.61926 0
M  V30 2354 H 219.8 0.656546 4.12407 0
M  V30 2355 N 220.237 -1.11381 1.11499 0
M  V30 2356 C 221.486 -1.82494 0.858993 0
M  V30 2357 C 221.799 -1.85605 -0.617278 0
M  V30 2358 O 223.005 -2.52824 -0.989552 0
M  V30 2359 C 221.461 -3.27745 1.48699 0
M  V30 2360 C 221.069 -3.32961 2.99735 0
M  V30 2361 C 222.813 -4.03754 1.31085 0
M  V30 2362 C 220.72 -4.72612 3.55516 0
M  V30 2363 H 219.65 -0.683802 0.317696 0
M  V30 2364 H 222.301 -1.25331 1.34031 0
M  V30 2365 H 220.683 -3.84844 0.933339 0
M  V30 2366 H 221.857 -2.85741 3.61509 0
M  V30 2367 H 220.172 -2.70433 3.16631 0
M  V30 2368 H 222.769 -5.06891 1.70192 0
M  V30 2369 H 223.112 -4.15527 0.253496 0
M  V30 2370 H 223.645 -3.53043 1.83318 0
M  V30 2371 H 220.384 -4.66036 4.60967 0
M  V30 2372 H 219.904 -5.2024 2.98513 0
M  V30 2373 H 221.583 -5.4157 3.53992 0
M  V30 2374 N 221.715 -0.905404 -1.28997 0
M  V30 2375 C 222.961 -0.535039 -1.95615 0
M  V30 2376 C 223.294 0.917404 -1.71165 0
M  V30 2377 O 222.569 1.65123 -1.02785 0
M  V30 2378 C 222.852 -0.834918 -3.50287 0
M  V30 2379 C 222.705 -2.33948 -3.84172 0
M  V30 2380 C 224.024 -0.325318 -4.38896 0
M  V30 2381 H 221.143 -0.195861 -0.710498 0
M  V30 2382 H 223.785 -1.13313 -1.52513 0
M  V30 2383 H 221.935 -0.325904 -3.87131 0
M  V30 2384 H 223.607 -2.91847 -3.57243 0
M  V30 2385 H 221.85 -2.79789 -3.31513 0
M  V30 2386 H 222.521 -2.49987 -4.92149 0
M  V30 2387 H 224.997 -0.761256 -4.09077 0
M  V30 2388 H 223.873 -0.564295 -5.45992 0
M  V30 2389 H 224.134 0.774144 -4.35269 0
M  V30 2390 N 223.193 1.4272 -0.668489 0
M  V30 2391 C 224.44 2.01624 -0.18814 0
M  V30 2392 C 224.768 1.5282 1.20317 0
M  V30 2393 O 224.023 0.718323 1.8204 0
M  V30 2394 C 224.322 3.57021 -0.164499 0
M  V30 2395 C 223.988 4.25232 -1.49962 0
M  V30 2396 C 222.65 4.4358 -1.8652 0
M  V30 2397 C 225.002 4.63727 -2.37921 0
M  V30 2398 C 222.33 4.97694 -3.10674 0
M  V30 2399 C 224.682 5.19218 -3.6138 0
M  V30 2400 C 223.346 5.3578 -3.98115 0
M  V30 2401 H 222.616 0.737795 -0.0688454 0
M  V30 2402 H 225.263 1.70991 -0.862225 0
M  V30 2403 H 223.568 3.87285 0.593079 0
M  V30 2404 H 225.265 4.00372 0.224271 0
M  V30 2405 H 221.855 4.11306 -1.20522 0
M  V30 2406 H 226.039 4.4923 -2.10964 0
M  V30 2407 H 221.295 5.08702 -3.39164 0
M  V30 2408 H 225.469 5.4799 -4.29743 0
M  V30 2409 H 223.096 5.77475 -4.94395 0
M  V30 2410 N 224.671 0.411399 1.52136 0
M  V30 2411 C 225.603 -0.448386 2.24771 0
M  V30 2412 C 226.616 -1.00828 1.27818 0
M  V30 2413 O 227.805 -0.906841 1.53749 0
M  V30 2414 C 224.905 -1.63636 2.96777 0
M  V30 2415 C 224.078 -1.19995 4.20618 0
M  V30 2416 C 223.137 -2.25509 4.75428 0
M  V30 2417 O 222.163 -1.86007 5.3795 0
M  V30 2418 N 223.365 -3.577 4.57199 0
M  V30 2419 H 226.13 0.174025 2.99194 0
M  V30 2420 H 223.691 0.238897 1.60128 0
M  V30 2421 H 225.683 -2.33793 3.30338 0
M  V30 2422 H 224.253 -2.16465 2.25526 0
M  V30 2423 H 223.473 -0.326421 3.92846 0
M  V30 2424 H 224.761 -0.885365 5.01038 0
M  V30 2425 H 224.159 -3.92543 4.07341 0
M  V30 2426 H 222.716 -4.23827 4.95191 0
M  V30 2427 N 226.149 -1.5696 0.141893 0
M  V30 2428 C 227.099 -2.13074 -0.811383 0
M  V30 2429 C 228.083 -1.05726 -1.21288 0
M  V30 2430 O 229.275 -1.31914 -1.18015 0
M  V30 2431 C 226.404 -2.75186 -2.0525 0
M  V30 2432 C 225.49 -3.8965 -1.67432 0
M  V30 2433 N 225.881 -4.95733 -1.0041 0
M  V30 2434 C 224.179 -4.00262 -1.96739 0
M  V30 2435 C 224.88 -5.75858 -0.822345 0
M  V30 2436 N 223.856 -5.26452 -1.3546 0
M  V30 2437 H 227.658 -2.92465 -0.290031 0
M  V30 2438 H 225.172 -1.6229 -0.0598218 0
M  V30 2439 H 227.169 -3.13745 -2.74535 0
M  V30 2440 H 225.829 -1.97266 -2.57907 0
M  V30 2441 H 226.84 -5.13607 -0.665441 0
M  V30 2442 H 223.517 -3.33412 -2.51282 0
M  V30 2443 H 224.907 -6.71254 -0.294496 0
M  V30 2444 N 227.627 0.131896 -1.57047 0
M  V30 2445 C 228.537 1.1815 -2.02676 0
M  V30 2446 C 229.553 1.46113 -0.944824 0
M  V30 2447 O 230.729 1.57485 -1.25541 0
M  V30 2448 C 227.794 2.49139 -2.41103 0
M  V30 2449 C 226.855 2.28688 -3.63318 0
M  V30 2450 C 226.088 3.53431 -3.99903 0
M  V30 2451 O 226.311 4.60223 -3.36973 0
M  V30 2452 O 225.245 3.45198 -4.93074 0
M  V30 2453 H 229.071 0.824069 -2.92306 0
M  V30 2454 H 226.656 0.341745 -1.45439 0
M  V30 2455 H 228.538 3.26338 -2.66611 0
M  V30 2456 H 227.213 2.84382 -1.54624 0
M  V30 2457 H 226.12 1.4939 -3.42977 0
M  V30 2458 H 227.453 1.98355 -4.50462 0
M  V30 2459 N 229.106 1.52395 0.401703 0
M  V30 2460 C 230.355 1.66044 1.14509 0
M  V30 2461 C 230.668 0.400216 1.91462 0
M  V30 2462 O 231.874 0.416632 2.68284 0
M  V30 2463 C 230.33 2.93388 2.0845 0
M  V30 2464 C 229.938 4.26545 1.36978 0
M  V30 2465 C 231.682 3.16402 2.83001 0
M  V30 2466 C 229.589 5.45007 2.29611 0
M  V30 2467 H 228.519 0.618562 0.431158 0
M  V30 2468 H 231.17 1.78886 0.40892 0
M  V30 2469 H 229.552 2.74263 2.8565 0
M  V30 2470 H 230.726 4.56179 0.650916 0
M  V30 2471 H 229.041 4.09692 0.74438 0
M  V30 2472 H 231.638 4.02085 3.52465 0
M  V30 2473 H 231.981 2.30943 3.46368 0
M  V30 2474 H 232.514 3.36034 2.12898 0
M  V30 2475 H 229.253 6.32835 1.70879 0
M  V30 2476 H 228.773 5.19702 2.9945 0
M  V30 2477 H 230.452 5.7838 2.89974 0
M  V30 2478 N 230.584 -0.659388 1.43143 0
M  V30 2479 C 231.861 -1.41627 1.34912 0
M  V30 2480 C 232.241 -2.11099 -0.00607785 0
M  V30 2481 O 231.589 -2.04353 -1.02236 0
M  V30 2482 C 231.799 -2.40604 2.52805 0
M  V30 2483 C 233.147 -3.04789 2.95616 0
M  V30 2484 O 234.171 -2.50932 2.52807 0
M  V30 2485 O 233.03 -4.02421 3.69756 0
M  V30 2486 H 230.124 -0.63246 0.532844 0
M  V30 2487 H 232.67 -0.686814 1.5518 0
M  V30 2488 H 231.442 -1.88174 3.43083 0
M  V30 2489 H 231.065 -3.21009 2.34604 0
M  V30 2490 N 232.062 -1.29571 -0.897171 0
M  V30 2491 C 233.012 -1.11539 -1.98855 0
M  V30 2492 C 233.996 -0.0340716 -1.60864 0
M  V30 2493 O 235.188 -0.256062 -1.75138 0
M  V30 2494 C 232.317 -0.796603 -3.3393 0
M  V30 2495 C 231.403 -1.91758 -3.78272 0
M  V30 2496 N 231.794 -3.16143 -3.94826 0
M  V30 2497 C 230.092 -1.81119 -4.07568 0
M  V30 2498 C 230.793 -3.89293 -4.32233 0
M  V30 2499 N 229.769 -3.17255 -4.41419 0
M  V30 2500 H 233.571 -2.05894 -2.09726 0
M  V30 2501 H 231.085 -1.20732 -1.08616 0
M  V30 2502 H 233.082 -0.648459 -4.11826 0
M  V30 2503 H 231.742 0.139003 -3.24402 0
M  V30 2504 H 232.753 -3.5157 -3.80288 0
M  V30 2505 H 229.43 -0.948461 -4.06584 0
M  V30 2506 H 230.82 -4.9635 -4.52865 0
M  V30 2507 N 233.54 1.10788 -1.12088 0
M  V30 2508 C 234.47 2.19083 -0.807755 0
M  V30 2509 C 235.451 1.6858 0.226859 0
M  V30 2510 O 236.636 1.93997 0.0888475 0
M  V30 2511 C 233.766 3.46344 -0.257576 0
M  V30 2512 C 232.72 4.101 -1.22483 0
M  V30 2513 C 232.046 5.32016 -0.535052 0
M  V30 2514 C 233.346 4.54236 -2.57811 0
M  V30 2515 H 235.04 2.45534 -1.71328 0
M  V30 2516 H 232.586 1.1801 -0.825205 0
M  V30 2517 H 234.539 4.21392 -0.0262679 0
M  V30 2518 H 233.263 3.19373 0.683278 0
M  V30 2519 H 231.922 3.37054 -1.44189 0
M  V30 2520 H 231.57 5.01319 0.410827 0
M  V30 2521 H 231.27 5.75625 -1.18024 0
M  V30 2522 H 232.794 6.09799 -0.312695 0
M  V30 2523 H 234.208 5.20575 -2.40155 0
M  V30 2524 H 232.605 5.08682 -3.18375 0
M  V30 2525 H 233.675 3.6734 -3.16528 0
M  V30 2526 N 235.018 0.912232 1.28515 0
M  V30 2527 C 235.966 0.389597 2.29314 0
M  V30 2528 C 236.96 -0.517915 1.61289 0
M  V30 2529 O 238.166 -0.399328 1.75515 0
M  V30 2530 H 234.541 0.107386 0.744293 0
M  V30 2531 H 236.512 1.25286 2.70825 0
M  V30 2532 C 235.261 -0.356496 3.45868 0
M  V30 2533 H 234.584 0.332608 3.98414 0
M  V30 2534 H 236.024 -0.686851 4.184 0
M  V30 2535 C 234.483 -1.56383 2.98406 0
M  V30 2536 O 235.013 -2.66294 3.00749 0
M  V30 2537 N 233.219 -1.41029 2.54085 0
M  V30 2538 H 232.766 -0.516089 2.52377 0
M  V30 2539 H 232.724 -2.21939 2.22689 0
M  V30 2540 N 236.496 -1.42363 0.676048 0
M  V30 2541 C 237.744 -2.01123 0.198437 0
M  V30 2542 C 238.065 -1.53731 -1.19966 0
M  V30 2543 O 237.335 -0.759518 -1.80577 0
M  V30 2544 H 235.915 -0.743678 0.0703721 0
M  V30 2545 H 238.577 -1.74263 0.872837 0
M  V30 2546 H 237.673 -3.11454 0.200686 0
M  V30 2547 N 237.974 -0.419461 -1.51915 0
M  V30 2548 C 239.22 0.153166 -2.02221 0
M  V30 2549 C 239.553 1.43907 -1.30401 0
M  V30 2550 O 238.828 1.90055 -0.413438 0
M  V30 2551 C 239.111 0.390291 -3.57979 0
M  V30 2552 C 238.964 -0.913014 -4.40436 0
M  V30 2553 C 240.283 1.16794 -4.2432 0
M  V30 2554 H 237.402 0.0541924 -0.735005 0
M  V30 2555 H 240.044 -0.554955 -1.81715 0
M  V30 2556 H 238.194 0.993491 -3.75582 0
M  V30 2557 H 239.866 -1.54882 -4.34522 0
M  V30 2558 H 238.109 -1.52168 -4.06236 0
M  V30 2559 H 238.78 -0.701361 -5.47526 0
M  V30 2560 H 241.256 0.657161 -4.10878 0
M  V30 2561 H 240.132 1.3026 -5.3322 0
M  V30 2562 H 240.393 2.19132 -3.83971 0
M  V30 2563 N 239.452 1.56882 -0.150215 0
M  V30 2564 C 240.385 2.12712 0.826358 0
M  V30 2565 C 241.363 1.05154 1.24022 0
M  V30 2566 O 242.547 1.33004 1.33575 0
M  V30 2567 C 239.674 2.64945 2.11002 0
M  V30 2568 C 238.72 3.8468 1.84183 0
M  V30 2569 S 239.553 5.25502 1.02995 0
M  V30 2570 C 240.709 5.81125 2.32474 0
M  V30 2571 H 240.942 2.95214 0.351598 0
M  V30 2572 H 238.475 1.54267 0.0641211 0
M  V30 2573 H 240.433 2.95689 2.84742 0
M  V30 2574 H 239.094 1.82568 2.55593 0
M  V30 2575 H 238.287 4.19482 2.79375 0
M  V30 2576 H 237.889 3.54714 1.1855 0
M  V30 2577 H 240.181 5.92753 3.281 0
M  V30 2578 H 241.124 6.78625 2.02171 0
M  V30 2579 H 241.532 5.09392 2.43269 0
M  V30 2580 N 240.93 -0.123565 1.57115 0
M  V30 2581 C 242.177 -0.832153 1.84612 0
M  V30 2582 C 242.505 -1.80093 0.734627 0
M  V30 2583 O 241.76 -1.93766 -0.27442 0
M  V30 2584 C 242.059 -1.62016 3.18568 0
M  V30 2585 C 241.725 -0.796084 4.43817 0
M  V30 2586 C 240.387 -0.568816 4.77826 0
M  V30 2587 C 242.739 -0.221364 5.2073 0
M  V30 2588 C 240.067 0.243499 5.86194 0
M  V30 2589 C 242.419 0.578117 6.29953 0
M  V30 2590 C 241.083 0.815744 6.62497 0
M  V30 2591 H 240.353 -0.304507 0.675542 0
M  V30 2592 H 243 -0.0947248 1.91266 0
M  V30 2593 H 241.305 -2.42837 3.0747 0
M  V30 2594 H 243.002 -2.17231 3.37064 0
M  V30 2595 H 239.592 -0.983307 4.17168 0
M  V30 2596 H 243.776 -0.384173 4.94811 0
M  V30 2597 H 239.032 0.436871 6.09837 0
M  V30 2598 H 243.206 1.03046 6.88734 0
M  V30 2599 H 240.833 1.44701 7.46301 0
M  V30 2600 N 242.408 -1.52605 -0.393616 0
M  V30 2601 C 243.638 -1.71046 -1.15874 0
M  V30 2602 C 244.046 -0.426483 -1.84331 0
M  V30 2603 O 243.389 0.608513 -1.73329 0
M  V30 2604 C 243.451 -2.80118 -2.25332 0
M  V30 2605 C 243.115 -4.21381 -1.76881 0
M  V30 2606 C 244.112 -5.04697 -1.24808 0
M  V30 2607 C 241.797 -4.67683 -1.83244 0
M  V30 2608 C 243.791 -6.32393 -0.797387 0
M  V30 2609 C 241.478 -5.95364 -1.37787 0
M  V30 2610 C 242.476 -6.77549 -0.861208 0
M  V30 2611 O 242.164 -8.02837 -0.413252 0
M  V30 2612 H 241.896 -0.576155 -0.353583 0
M  V30 2613 H 244.45 -2.00018 -0.467123 0
M  V30 2614 H 242.68 -2.46557 -2.97904 0
M  V30 2615 H 244.369 -2.87006 -2.87023 0
M  V30 2616 H 245.135 -4.70111 -1.19252 0
M  V30 2617 H 241.014 -4.03805 -2.22401 0
M  V30 2618 H 244.558 -6.9649 -0.393437 0
M  V30 2619 H 240.455 -6.29455 -1.43026 0
M  V30 2620 H 241.223 -8.16749 -0.53515 0
M  V30 2621 N 243.887 0.651787 -1.4349 0
M  V30 2622 C 245.164 1.40909 -1.35661 0
M  V30 2623 C 245.544 2.11099 -0.00511733 0
M  V30 2624 O 244.892 2.04892 1.0115 0
M  V30 2625 C 245.102 2.3926 -2.54078 0
M  V30 2626 C 246.45 3.03217 -2.97228 0
M  V30 2627 O 247.474 2.49588 -2.54135 0
M  V30 2628 O 246.333 4.00455 -3.71885 0
M  V30 2629 H 243.427 0.629625 -0.536191 0
M  V30 2630 H 245.973 0.678575 -1.55542 0
M  V30 2631 H 244.745 1.86352 -3.44076 0
M  V30 2632 H 244.368 3.1976 -2.36303 0
M  V30 2633 N 245.365 1.30045 0.890287 0
M  V30 2634 C 246.315 1.12592 1.9826 0
M  V30 2635 C 247.299 0.0426021 1.60844 0
M  V30 2636 O 248.491 0.265346 1.75 0
M  V30 2637 C 245.62 0.814301 3.33503 0
M  V30 2638 C 244.706 1.93761 3.7725 0
M  V30 2639 N 245.097 3.18232 3.93143 0
M  V30 2640 C 243.395 1.83277 4.06602 0
M  V30 2641 C 244.096 3.9158 4.30163 0
M  V30 2642 N 243.072 3.19591 4.3973 0
M  V30 2643 H 246.874 2.07003 2.08631 0
M  V30 2644 H 244.388 1.21307 1.07974 0
M  V30 2645 H 246.385 0.67029 4.11476 0
M  V30 2646 H 245.045 -0.121797 3.24471 0
M  V30 2647 H 246.056 3.53581 3.78419 0
M  V30 2648 H 242.733 0.97001 4.06075 0
M  V30 2649 H 244.123 4.98744 4.50226 0
M  V30 2650 N 246.843 -1.10192 1.12674 0
M  V30 2651 C 248.092 -1.81573 0.8783 0
M  V30 2652 C 248.405 -1.86249 -0.597557 0
M  V30 2653 O 249.611 -2.5386 -0.962681 0
M  V30 2654 C 248.067 -3.26149 1.52167 0
M  V30 2655 C 247.675 -3.29763 3.03249 0
M  V30 2656 C 249.419 -4.0234 1.3536 0
M  V30 2657 C 247.326 -4.68815 3.60508 0
M  V30 2658 H 246.256 -0.680394 0.324931 0
M  V30 2659 H 248.907 -1.23902 1.35353 0
M  V30 2660 H 247.289 -3.83832 0.974104 0
M  V30 2661 H 248.463 -2.8189 3.6452 0
M  V30 2662 H 246.778 -2.67059 3.19481 0
M  V30 2663 H 249.375 -5.05058 1.75559 0
M  V30 2664 H 249.718 -4.15235 0.297554 0
M  V30 2665 H 250.251 -3.51079 1.87052 0
M  V30 2666 H 246.99 -4.61121 4.65884 0
M  V30 2667 H 246.51 -5.17045 3.04014 0
M  V30 2668 H 248.189 -5.37785 3.59717 0
M  V30 2669 N 248.321 -0.919034 -1.28029 0
M  V30 2670 C 249.598 -0.473668 -1.89778 0
M  V30 2671 C 249.978 1.04783 -1.83259 0
M  V30 2672 O 249.326 1.8982 -1.27202 0
M  V30 2673 C 249.536 -1.00998 -3.34066 0
M  V30 2674 C 250.884 -1.06525 -4.1102 0
M  V30 2675 O 251.908 -0.958996 -3.43048 0
M  V30 2676 O 250.767 -1.22776 -5.3253 0
M  V30 2677 H 247.861 -0.15098 -0.813101 0
M  V30 2678 H 250.407 -1.01016 -1.36359 0
M  V30 2679 H 249.179 -2.05392 -3.33061 0
M  V30 2680 H 248.802 -0.454626 -3.94992 0
M  V30 2681 N 249.799 1.42003 -0.683588 0
M  V30 2682 C 250.746 2.30798 -0.0107309 0
M  V30 2683 C 251.716 1.4645 0.783688 0
M  V30 2684 O 252.901 1.75263 0.754156 0
M  V30 2685 C 250.041 3.3238 0.928306 0
M  V30 2686 C 249.154 4.31814 0.126776 0
M  V30 2687 C 248.289 5.20468 1.06236 0
M  V30 2688 C 247.328 6.11577 0.253035 0
M  V30 2689 N 246.465 6.92754 1.14179 0
M  V30 2690 H 251.305 2.8778 -0.773727 0
M  V30 2691 H 248.842 1.41745 -0.393283 0
M  V30 2692 H 250.8 3.89813 1.48666 0
M  V30 2693 H 249.43 2.76976 1.65783 0
M  V30 2694 H 248.482 3.76427 -0.54833 0
M  V30 2695 H 249.794 4.96276 -0.501192 0
M  V30 2696 H 248.948 5.82677 1.69035 0
M  V30 2697 H 247.687 4.56204 1.7242 0
M  V30 2698 H 246.692 5.48428 -0.388108 0
M  V30 2699 H 247.917 6.77892 -0.404839 0
M  V30 2700 H 245.863 6.3111 1.78987 0
M  V30 2701 H 245.78 7.53855 0.569111 0
M  V30 2702 H 247.048 7.59441 1.75697 0
M  V30 2703 N 251.277 0.427512 1.51691 0
M  V30 2704 C 252.225 -0.403359 2.29076 0
M  V30 2705 C 253.219 -1.02962 1.34518 0
M  V30 2706 O 254.425 -0.965715 1.51901 0
M  V30 2707 H 250.8 -0.148879 0.737115 0
M  V30 2708 H 252.771 0.270295 2.97173 0
M  V30 2709 C 251.52 -1.49763 3.13794 0
M  V30 2710 H 250.843 -1.02508 3.86435 0
M  V30 2711 H 252.283 -2.05244 3.71014 0
M  V30 2712 C 250.742 -2.47536 2.28533 0
M  V30 2713 O 251.272 -3.51848 1.93819 0
M  V30 2714 N 249.478 -2.18187 1.91945 0
M  V30 2715 H 249.025 -1.33389 2.20375 0
M  V30 2716 H 248.983 -2.83848 1.35195 0
M  V30 2717 N 252.755 -1.56801 0.158532 0
M  V30 2718 C 253.705 -2.13923 -0.788738 0
M  V30 2719 C 254.689 -1.07006 -1.2016 0
M  V30 2720 O 255.881 -1.33159 -1.1661 0
M  V30 2721 C 253.01 -2.77348 -2.02319 0
M  V30 2722 C 252.096 -3.91404 -1.6329 0
M  V30 2723 N 252.487 -4.9677 -0.951463 0
M  V30 2724 C 250.785 -4.02326 -1.92482 0
M  V30 2725 C 251.486 -5.76698 -0.761221 0
M  V30 2726 N 250.462 -5.27859 -1.29869 0
M  V30 2727 H 254.264 -2.92757 -0.258995 0
M  V30 2728 H 251.778 -1.62344 -0.0426055 0
M  V30 2729 H 253.775 -3.16639 -2.71192 0
M  V30 2730 H 252.435 -1.99991 -2.558 0
M  V30 2731 H 253.446 -5.14284 -0.610928 0
M  V30 2732 H 250.123 -3.36059 -2.47732 0
M  V30 2733 H 251.513 -6.71529 -0.223284 0
M  V30 2734 N 254.233 0.115231 -1.57178 0
M  V30 2735 C 255.644 0.67197 -1.74188 0
M  V30 2736 C 255.995 1.80125 -0.777777 0
M  V30 2737 O 255.12 2.16346 0.0484376 0
M  V30 2738 C 255.715 1.22573 -3.1585 0
M  V30 2739 C 254.274 1.72872 -3.34353 0
M  V30 2740 C 253.421 0.629972 -2.70049 0
M  V30 2741 H 256.372 -0.110712 -1.58313 0
M  V30 2742 H 256.393 2.09535 -3.17609 0
M  V30 2743 H 255.905 0.403598 -3.85996 0
M  V30 2744 H 254.006 2.5755 -2.69256 0
M  V30 2745 H 254.119 1.83557 -4.42542 0
M  V30 2746 H 252.483 1.0645 -2.31388 0
M  V30 2747 H 253.266 -0.181241 -3.42821 0
M  V30 2748 N 255.711 1.52812 0.385517 0
M  V30 2749 C 256.641 1.80808 1.47752 0
M  V30 2750 C 257.622 0.660318 1.5676 0
M  V30 2751 O 258.807 0.908246 1.71652 0
M  V30 2752 C 255.937 1.98008 2.85324 0
M  V30 2753 C 254.891 3.13709 2.91154 0
M  V30 2754 C 254.217 3.16169 4.31209 0
M  V30 2755 C 255.517 4.52709 2.60483 0
M  V30 2756 H 257.211 2.72253 1.24573 0
M  V30 2757 H 254.757 1.31003 0.597839 0
M  V30 2758 H 256.71 2.16176 3.61726 0
M  V30 2759 H 255.434 1.03255 3.09848 0
M  V30 2760 H 254.093 2.95329 2.17201 0
M  V30 2761 H 253.741 2.19092 4.52778 0
M  V30 2762 H 253.441 3.93894 4.36029 0
M  V30 2763 H 254.965 3.36496 5.09512 0
M  V30 2764 H 256.379 4.71173 3.26602 0
M  V30 2765 H 254.776 5.32528 2.76648 0
M  V30 2766 H 255.846 4.59186 1.55809 0
M  V30 2767 N 257.189 -0.644168 1.43834 0
M  V30 2768 C 258.121 -1.76955 1.45669 0
M  V30 2769 C 259.134 -1.58956 0.351666 0
M  V30 2770 O 260.323 -1.6751 0.616644 0
M  V30 2771 C 257.423 -3.14507 1.26248 0
M  V30 2772 C 256.596 -3.59083 2.49757 0
M  V30 2773 C 255.655 -4.75467 2.25427 0
M  V30 2774 O 254.681 -4.84444 2.98836 0
M  V30 2775 N 255.883 -5.66289 1.27661 0
M  V30 2776 H 258.648 -1.75856 2.42682 0
M  V30 2777 H 256.209 -0.828312 1.39106 0
M  V30 2778 H 258.201 -3.90067 1.0784 0
M  V30 2779 H 256.771 -3.10325 0.376478 0
M  V30 2780 H 255.991 -2.7387 2.8353 0
M  V30 2781 H 257.279 -3.85613 3.31934 0
M  V30 2782 H 256.677 -5.61718 0.670064 0
M  V30 2783 H 255.234 -6.41533 1.15234 0
M  V30 2784 N 258.668 -1.30515 -0.883378 0
M  V30 2785 C 260.079 -1.17509 -1.45081 0
M  V30 2786 C 260.43 0.223605 -1.94922 0
M  V30 2787 O 259.555 1.12041 -1.85137 0
M  V30 2788 C 260.15 -2.12715 -2.63701 0
M  V30 2789 C 258.709 -2.03682 -3.16529 0
M  V30 2790 C 257.856 -2.02706 -1.89224 0
M  V30 2791 H 260.807 -1.42762 -0.693165 0
M  V30 2792 H 260.828 -1.70891 -3.39965 0
M  V30 2793 H 260.34 -3.14505 -2.27395 0
M  V30 2794 H 258.441 -1.05039 -3.57488 0
M  V30 2795 H 258.554 -2.92146 -3.7972 0
M  V30 2796 H 256.918 -1.4753 -2.07622 0
M  V30 2797 H 257.701 -3.06229 -1.55174 0
M  V30 2798 N 260.146 1.09593 -1.13257 0
M  V30 2799 C 261.096 2.14345 -0.777179 0
M  V30 2800 C 262.08 1.59277 0.227966 0
M  V30 2801 O 263.272 1.76971 0.0321413 0
M  V30 2802 C 260.401 3.42439 -0.242991 0
M  V30 2803 C 259.487 4.04419 -1.27694 0
M  V30 2804 N 259.878 4.40979 -2.47732 0
M  V30 2805 C 258.176 4.31596 -1.12432 0
M  V30 2806 C 258.877 4.89784 -3.13826 0
M  V30 2807 N 257.853 4.87133 -2.41252 0
M  V30 2808 H 261.655 2.40415 -1.69049 0
M  V30 2809 H 259.169 1.26803 -1.01463 0
M  V30 2810 H 261.166 4.16889 0.0298496 0
M  V30 2811 H 259.826 3.17824 0.66467 0
M  V30 2812 H 260.837 4.32396 -2.85051 0
M  V30 2813 H 257.514 4.16595 -0.274684 0
M  V30 2814 H 258.904 5.2755 -4.16102 0
M  V30 2815 N 261.624 0.925811 1.2754 0
M  V30 2816 C 262.852 0.581509 1.9856 0
M  V30 2817 C 263.267 -0.840041 1.69082 0
M  V30 2818 O 262.624 -1.55805 0.950312 0
M  V30 2819 C 262.675 0.795589 3.52637 0
M  V30 2820 O 262.396 2.16121 3.81082 0
M  V30 2821 C 263.897 0.459744 4.4091 0
M  V30 2822 H 261.117 0.220538 0.633722 0
M  V30 2823 H 263.661 1.24232 1.6244 0
M  V30 2824 H 261.816 0.18161 3.86974 0
M  V30 2825 H 262.23 2.2098 4.75676 0
M  V30 2826 H 263.704 0.660244 5.48037 0
M  V30 2827 H 264.181 -0.604625 4.35018 0
M  V30 2828 H 264.787 1.05178 4.12089 0
M  V30 2829 N 263.102 -1.41638 0.69111 0
M  V30 2830 C 264.379 -1.95036 0.148421 0
M  V30 2831 C 264.759 -1.63072 -1.34055 0
M  V30 2832 O 264.107 -0.93538 -2.08478 0
M  V30 2833 C 264.317 -3.46279 0.434951 0
M  V30 2834 C 265.665 -4.23069 0.360275 0
M  V30 2835 O 266.689 -3.54277 0.369613 0
M  V30 2836 O 265.548 -5.45583 0.316534 0
M  V30 2837 H 262.642 -0.826908 0.0123654 0
M  V30 2838 H 265.188 -1.5138 0.766963 0
M  V30 2839 H 263.96 -3.6281 1.46576 0
M  V30 2840 H 263.583 -3.97019 -0.214787 0
M  V30 2841 N 264.58 -0.43555 -1.51462 0
M  V30 2842 C 265.543 0.365137 -2.26273 0
M  V30 2843 C 266.543 0.951227 -1.29647 0
M  V30 2844 O 267.733 0.825958 -1.53374 0
M  V30 2845 C 264.865 1.51645 -3.05314 0
M  V30 2846 H 266.058 -0.290474 -2.9849 0
M  V30 2847 H 263.611 -0.188676 -1.55157 0
M  V30 2848 H 264.346 2.20816 -2.3751 0
M  V30 2849 H 264.131 1.10238 -3.76284 0
M  V30 2850 H 265.621 2.08218 -3.61987 0
M  V30 2851 N 266.058 1.56714 -0.166846 0
M  V30 2852 C 267.304 1.97039 0.479962 0
M  V30 2853 C 267.637 1.05264 1.63197 0
M  V30 2854 O 266.912 0.0988833 1.94248 0
M  V30 2855 C 267.195 3.46867 0.967212 0
M  V30 2856 C 267.048 4.49421 -0.18466 0
M  V30 2857 C 268.367 3.9968 1.84238 0
M  V30 2858 H 265.486 0.71641 0.172992 0
M  V30 2859 H 268.128 1.8832 -0.252079 0
M  V30 2860 H 266.278 3.54428 1.59101 0
M  V30 2861 H 267.95 4.53924 -0.821621 0
M  V30 2862 H 266.193 4.25573 -0.840837 0
M  V30 2863 H 266.864 5.51644 0.198317 0
M  V30 2864 H 269.34 3.94723 1.31655 0
M  V30 2865 H 268.216 5.04941 2.15234 0
M  V30 2866 H 268.477 3.43226 2.78654 0
M  V30 2867 N 267.536 -0.106894 1.57237 0
M  V30 2868 C 268.446 -1.14911 2.0453 0
M  V30 2869 C 269.462 -1.44592 0.96795 0
M  V30 2870 O 270.638 -1.55468 1.2803 0
M  V30 2871 C 267.703 -2.45272 2.45036 0
M  V30 2872 C 266.764 -2.22879 3.66911 0
M  V30 2873 C 265.997 -3.47024 4.05475 0
M  V30 2874 O 266.22 -4.54804 3.44252 0
M  V30 2875 O 265.154 -3.3731 4.98504 0
M  V30 2876 H 268.98 -0.777461 2.9358 0
M  V30 2877 H 266.565 -0.318563 1.45964 0
M  V30 2878 H 268.447 -3.22055 2.71769 0
M  V30 2879 H 267.122 -2.81886 1.59129 0
M  V30 2880 H 266.029 -1.43915 3.45311 0
M  V30 2881 H 267.362 -1.91163 4.53561 0
M  V30 2882 N 269.014 -1.53014 -0.377408 0
M  V30 2883 C 270.26 -1.68872 -1.12294 0
M  V30 2884 C 270.593 -0.433224 -1.89306 0
M  V30 2885 O 269.868 0.569258 -1.85983 0
M  V30 2886 C 270.151 -2.93115 -2.09179 0
M  V30 2887 C 270.004 -4.28794 -1.35853 0
M  V30 2888 C 271.323 -3.12928 -3.09458 0
M  V30 2889 H 268.442 -0.614518 -0.406862 0
M  V30 2890 H 271.084 -1.85633 -0.40503 0
M  V30 2891 H 269.234 -2.78956 -2.70399 0
M  V30 2892 H 270.906 -4.54742 -0.775082 0
M  V30 2893 H 269.149 -4.28744 -0.660364 0
M  V30 2894 H 269.82 -5.11837 -2.06706 0
M  V30 2895 H 272.296 -3.26194 -2.58334 0
M  V30 2896 H 271.172 -4.01316 -3.74482 0
M  V30 2897 H 271.433 -2.27669 -3.78971 0
M  V30 2898 O 270.531 0.523369 -1.52784 0
M  V30 2899 H 271.222 1.17844 -1.53728 0
M  V30 END ATOM
M  V30 BEGIN BOND
M  V30 END BOND
M  V30 END CTAB
M  END
$$$$
