drugbank_target|Q7DC80 Phenazine biosynthesis protein PhzD (DB01942; DB02793)
 OpenBabel12092120233D

  0  0  0     0  0            999 V3000
M  V30 BEGIN CTAB
M  V30 COUNTS 3242 3282 0 0 0
M  V30 BEGIN ATOM
M  V30 1 H -0.908 1.98254 -0.117106 0
M  V30 2 N 0 1.576 0 0
M  V30 3 C 0.933 2.03868 1.02534 0
M  V30 4 C 1.911 0.928543 1.3348 0
M  V30 5 O 3.095 1.19667 1.45644 0
M  V30 6 C 0.222 2.43627 2.35294 0
M  V30 7 C -0.732 3.65373 2.2001 0
M  V30 8 S 0.101 5.13292 1.52614 0
M  V30 9 C 1.257 5.56322 2.86805 0
M  V30 10 H 1.49 2.90518 0.631377 0
M  V30 11 H -0.977 1.52953 0.210867 0
M  V30 12 H 0.981 2.67203 3.11629 0
M  V30 13 H -0.358 1.57376 2.7183 0
M  V30 14 H -1.165 3.90944 3.18086 0
M  V30 15 H -1.563 3.418 1.51819 0
M  V30 16 H 0.729 5.58782 3.83104 0
M  V30 17 H 1.672 6.56266 2.65933 0
M  V30 18 H 2.08 4.83886 2.90714 0
M  V30 19 N 1.4781 -0.272755 1.55222 0
M  V30 20 C 2.7031 -1.02683 1.80197 0
M  V30 21 C 3.1281 -1.79142 0.573551 0
M  V30 22 O 2.4861 -1.74917 -0.476849 0
M  V30 23 C 2.5341 -1.9609 3.02624 0
M  V30 24 O 1.6381 -3.04863 2.77727 0
M  V30 25 H 0.9791 -0.293557 0.595584 0
M  V30 26 H 3.5091 -0.30159 2.02365 0
M  V30 27 H 3.5191 -2.38039 3.31363 0
M  V30 28 H 2.1941 -1.39851 3.91682 0
M  V30 29 H 0.7711 -2.67228 2.60084 0
M  V30 30 N 2.9562 -1.48159 -0.537278 0
M  V30 31 C 4.2042 -1.55497 -1.29094 0
M  V30 32 C 4.5252 -0.227454 -1.93669 0
M  V30 33 O 3.7952 0.750386 -1.80959 0
M  V30 34 H 2.3752 -0.572832 -0.47945 0
M  V30 35 H 5.0372 -1.84579 -0.625818 0
M  V30 36 H 4.1332 -2.33216 -2.07405 0
M  V30 37 N 4.4343 0.785586 -1.36625 0
M  V30 38 C 5.6833 1.53883 -1.30396 0
M  V30 39 C 5.9963 1.95271 0.113452 0
M  V30 40 O 7.2023 2.69858 0.298142 0
M  V30 41 C 5.6583 2.77808 -2.28802 0
M  V30 42 C 5.2663 2.43574 -3.75999 0
M  V30 43 C 7.0103 3.55783 -2.31558 0
M  V30 44 C 4.9173 3.63919 -4.66173 0
M  V30 45 H 3.8473 0.577678 -0.484566 0
M  V30 46 H 6.4983 0.861705 -1.62009 0
M  V30 47 H 4.8803 3.47339 -1.90188 0
M  V30 48 H 6.0543 1.81916 -4.23371 0
M  V30 49 H 4.3693 1.78803 -3.76056 0
M  V30 50 H 6.9663 4.45205 -2.96137 0
M  V30 51 H 7.3093 3.94644 -1.3252 0
M  V30 52 H 7.8423 2.93235 -2.68809 0
M  V30 53 H 4.5813 3.3015 -5.66287 0
M  V30 54 H 4.1013 4.2473 -4.23515 0
M  V30 55 H 5.7803 4.30901 -4.82632 0
M  V30 56 N 5.9124 1.20967 1.01018 0
M  V30 57 C 7.3234 1.02319 1.56165 0
M  V30 58 C 7.6744 -0.418546 1.91684 0
M  V30 59 O 6.7994 -1.30096 1.72928 0
M  V30 60 C 7.3944 1.85109 2.8376 0
M  V30 61 C 5.9534 1.70809 3.35412 0
M  V30 62 C 5.1004 1.82643 2.08655 0
M  V30 63 H 8.0514 1.35065 0.833255 0
M  V30 64 H 8.0724 1.35827 3.55431 0
M  V30 65 H 7.5844 2.90035 2.57878 0
M  V30 66 H 5.6854 0.685464 3.66241 0
M  V30 67 H 5.7984 2.52467 4.07182 0
M  V30 68 H 4.1624 1.25896 2.21409 0
M  V30 69 H 4.9454 2.89066 1.85191 0
M  V30 70 N 7.3905 -1.2043 1.01659 0
M  V30 71 C 8.3005 -2.2689 0.596484 0
M  V30 72 C 9.3165 -1.70107 -0.36599 0
M  V30 73 O 10.4925 -2.00117 -0.226942 0
M  V30 74 C 7.5575 -3.4665 -0.0586659 0
M  V30 75 C 6.6185 -4.18662 0.949751 0
M  V30 76 C 5.8515 -5.32705 0.32577 0
M  V30 77 O 6.0745 -5.63656 -0.874509 0
M  V30 78 O 5.0085 -5.92803 1.04249 0
M  V30 79 H 8.8345 -2.65041 1.4828 0
M  V30 80 H 6.4195 -1.27048 0.786082 0
M  V30 81 H 8.3015 -4.19256 -0.424564 0
M  V30 82 H 6.9765 -3.10375 -0.91918 0
M  V30 83 H 5.8835 -3.48229 1.36702 0
M  V30 84 H 7.2165 -4.58878 1.78023 0
M  V30 85 N 8.8686 -0.792821 -1.36206 0
M  V30 86 C 10.1176 -0.363353 -1.984 0
M  V30 87 C 10.4306 1.07172 -1.63626 0
M  V30 88 O 11.6366 1.60362 -2.19081 0
M  V30 89 C 10.0926 -0.59872 -3.54885 0
M  V30 90 C 9.7006 -2.04543 -3.9858 0
M  V30 91 C 11.4446 -0.233926 -4.23855 0
M  V30 92 C 9.3516 -2.22727 -5.47856 0
M  V30 93 H 8.2816 -0.13212 -0.742334 0
M  V30 94 H 10.9326 -0.974935 -1.55458 0
M  V30 95 H 9.3146 0.0826222 -3.95914 0
M  V30 96 H 10.4886 -2.76345 -3.68741 0
M  V30 97 H 8.8036 -2.36879 -3.42458 0
M  V30 98 H 11.4006 -0.348027 -5.33566 0
M  V30 99 H 11.7436 0.818351 -4.08177 0
M  V30 100 H 12.2766 -0.868639 -3.882 0
M  V30 101 H 9.0156 -3.2635 -5.68486 0
M  V30 102 H 8.5356 -1.55434 -5.7931 0
M  V30 103 H 10.2146 -2.03607 -6.14128 0
M  V30 104 N 10.3467 1.47872 -0.545128 0
M  V30 105 C 11.5747 2.06889 -0.021084 0
M  V30 106 C 11.9897 1.39955 1.2672 0
M  V30 107 O 11.3467 0.492036 1.75742 0
M  V30 108 C 11.3977 3.60996 0.190817 0
M  V30 109 O 11.1187 4.25419 -1.04644 0
M  V30 110 C 12.6197 4.36849 0.753521 0
M  V30 111 H 9.8397 0.669785 -0.0403635 0
M  V30 112 H 12.3837 1.90049 -0.755095 0
M  V30 113 H 10.5387 3.77391 0.87492 0
M  V30 114 H 10.9527 5.17785 -0.836611 0
M  V30 115 H 12.4267 5.45399 0.851139 0
M  V30 116 H 12.9037 4.02306 1.762 0
M  V30 117 H 13.5097 4.25169 0.105503 0
M  V30 118 N 11.8248 0.280983 1.55075 0
M  V30 119 C 12.7878 -0.590896 2.21452 0
M  V30 120 C 13.7878 -1.07682 1.19421 0
M  V30 121 O 14.9778 -0.97605 1.44288 0
M  V30 122 C 12.1098 -1.81587 2.88511 0
M  V30 123 H 13.3028 -0.0112554 2.99898 0
M  V30 124 H 10.8558 0.0316438 1.56268 0
M  V30 125 H 11.5908 -2.43587 2.14093 0
M  V30 126 H 11.3758 -1.4753 3.63287 0
M  V30 127 H 12.8658 -2.43575 3.39206 0
M  V30 128 N 13.3029 -1.57598 0.00835791 0
M  V30 129 C 14.5329 -1.94931 -0.684496 0
M  V30 130 C 14.9409 -0.882233 -1.67372 0
M  V30 131 O 14.2839 0.146621 -1.83114 0
M  V30 132 C 14.3459 -3.283 -1.4649 0
M  V30 133 C 14.0099 -4.52548 -0.63634 0
M  V30 134 C 15.0069 -5.19839 0.0795586 0
M  V30 135 C 12.6919 -4.98942 -0.579849 0
M  V30 136 C 14.6859 -6.3183 0.840843 0
M  V30 137 C 12.3729 -6.10819 0.185155 0
M  V30 138 C 13.3709 -6.77121 0.894227 0
M  V30 139 O 13.0589 -7.86853 1.64673 0
M  V30 140 H 12.7909 -0.647249 -0.19505 0
M  V30 141 H 15.3449 -2.05318 0.0581272 0
M  V30 142 H 13.5749 -3.14345 -2.2522 0
M  V30 143 H 15.2639 -3.50685 -2.04389 0
M  V30 144 H 16.0299 -4.84979 0.0451202 0
M  V30 145 H 11.9089 -4.47155 -1.1213 0
M  V30 146 H 15.4529 -6.83513 1.39483 0
M  V30 147 H 11.3499 -6.4512 0.221384 0
M  V30 148 H 12.1179 -8.03412 1.56432 0
M  V30 149 N 14.781 0.264519 -1.55364 0
M  V30 150 C 16.192 0.834936 -1.6699 0
M  V30 151 C 16.543 1.86718 -0.602552 0
M  V30 152 O 15.668 2.14899 0.254425 0
M  V30 153 C 16.263 1.5212 -3.02729 0
M  V30 154 C 14.822 2.03954 -3.16354 0
M  V30 155 C 13.969 0.884498 -2.62815 0
M  V30 156 H 16.92 0.0406869 -1.58648 0
M  V30 157 H 16.941 2.38853 -2.96191 0
M  V30 158 H 16.453 0.769668 -3.80392 0
M  V30 159 H 14.554 2.82041 -2.43482 0
M  V30 160 H 14.667 2.24902 -4.23032 0
M  V30 161 H 13.031 1.2802 -2.20188 0
M  V30 162 H 13.814 0.14634 -3.42988 0
M  V30 163 N 16.2591 1.48442 0.529413 0
M  V30 164 C 17.1891 1.65902 1.64313 0
M  V30 165 C 18.1701 0.507897 1.6234 0
M  V30 166 O 19.3551 0.740503 1.79528 0
M  V30 167 C 16.4851 1.69911 3.02898 0
M  V30 168 C 15.4391 2.8453 3.19729 0
M  V30 169 C 14.7651 2.73629 4.59381 0
M  V30 170 C 16.0651 4.25821 3.02447 0
M  V30 171 H 17.7591 2.5914 1.49955 0
M  V30 172 H 15.3051 1.24709 0.719982 0
M  V30 173 H 17.2581 1.80715 3.80684 0
M  V30 174 H 15.9821 0.732524 3.18279 0
M  V30 175 H 14.6411 2.73283 2.44361 0
M  V30 176 H 14.2891 1.74938 4.71599 0
M  V30 177 H 13.9891 3.50541 4.71588 0
M  V30 178 H 15.5131 2.86401 5.39265 0
M  V30 179 H 16.9271 4.37898 3.70024 0
M  V30 180 H 15.3241 5.03735 3.26146 0
M  V30 181 H 16.3941 4.42244 1.98867 0
M  V30 182 N 17.7372 -0.778329 1.37039 0
M  V30 183 C 19.1482 -1.35421 1.28523 0
M  V30 184 C 19.4992 -1.96075 -0.0700901 0
M  V30 185 O 18.6242 -1.93352 -0.971801 0
M  V30 186 C 19.2192 -2.46211 2.32735 0
M  V30 187 C 17.7782 -2.99585 2.27873 0
M  V30 188 C 16.9252 -1.72748 2.16918 0
M  V30 189 H 19.8762 -0.5791 1.47757 0
M  V30 190 H 19.8972 -3.2552 1.9702 0
M  V30 191 H 19.4092 -2.02036 3.31365 0
M  V30 192 H 17.5102 -3.48152 1.32745 0
M  V30 193 H 17.6232 -3.55646 3.21018 0
M  V30 194 H 15.9872 -1.95416 1.63354 0
M  V30 195 H 16.7702 -1.30686 3.17452 0
M  V30 196 N 19.2153 -1.21501 -1.00376 0
M  V30 197 C 20.4433 -1.059 -1.77744 0
M  V30 198 C 20.8583 0.391125 -1.84704 0
M  V30 199 O 20.2153 1.27133 -1.30933 0
M  V30 200 C 20.2663 -1.65111 -3.21591 0
M  V30 201 O 19.9873 -3.0445 -3.15027 0
M  V30 202 C 21.4883 -1.54637 -4.15454 0
M  V30 203 H 18.7083 -0.371825 -0.558558 0
M  V30 204 H 21.2523 -1.60865 -1.26264 0
M  V30 205 H 19.4073 -1.14235 -3.70175 0
M  V30 206 H 19.8213 -3.3278 -4.0541 0
M  V30 207 H 21.2953 -2.00808 -5.14179 0
M  V30 208 H 21.7723 -0.501022 -4.36333 0
M  V30 209 H 22.3783 -2.04767 -3.72761 0
M  V30 210 N 20.6934 1.19889 -1.02296 0
M  V30 211 C 21.6564 2.21116 -0.603351 0
M  V30 212 C 22.6564 1.5738 0.329884 0
M  V30 213 O 23.8464 1.73802 0.117702 0
M  V30 214 C 20.9784 3.40696 0.117992 0
M  V30 215 H 22.1714 2.59754 -1.49893 0
M  V30 216 H 19.7244 1.33463 -0.813468 0
M  V30 217 H 20.4594 3.07569 1.0282 0
M  V30 218 H 20.2444 3.88188 -0.552511 0
M  V30 219 H 21.7344 4.15692 0.398696 0
M  V30 220 N 22.1715 0.800033 1.35784 0
M  V30 221 C 23.1035 0.163596 2.28615 0
M  V30 222 C 24.1165 -0.633317 1.49976 0
M  V30 223 O 25.3055 -0.466754 1.72289 0
M  V30 224 C 22.4055 -0.790958 3.29541 0
M  V30 225 C 21.5785 -0.0418255 4.3738 0
M  V30 226 C 20.6375 -0.91389 5.18203 0
M  V30 227 O 19.6635 -0.367234 5.68014 0
M  V30 228 N 20.8655 -2.23682 5.35674 0
M  V30 229 H 23.6305 0.96105 2.83873 0
M  V30 230 H 21.1915 0.654894 1.48063 0
M  V30 231 H 23.1835 -1.37844 3.80501 0
M  V30 232 H 21.7535 -1.48925 2.74846 0
M  V30 233 H 20.9735 0.726813 3.87442 0
M  V30 234 H 22.2615 0.474719 5.06581 0
M  V30 235 H 21.6595 -2.70497 4.96838 0
M  V30 236 H 20.2165 -2.77369 5.89839 0
M  V30 237 N 23.6496 -1.47581 0.552962 0
M  V30 238 C 24.5816 -2.27997 -0.234533 0
M  V30 239 C 25.5946 -1.36753 -0.883321 0
M  V30 240 O 26.7836 -1.61612 -0.757889 0
M  V30 241 C 23.8836 -3.10879 -1.34935 0
M  V30 242 C 23.0566 -4.30056 -0.798158 0
M  V30 243 C 22.1156 -4.94567 -1.79694 0
M  V30 244 O 21.1416 -5.53087 -1.34474 0
M  V30 245 N 22.3436 -4.88878 -3.13015 0
M  V30 246 H 25.1086 -2.96222 0.455255 0
M  V30 247 H 22.6696 -1.57163 0.388761 0
M  V30 248 H 24.6616 -3.50903 -2.01616 0
M  V30 249 H 23.2316 -2.44924 -1.94244 0
M  V30 250 H 22.4516 -3.94174 0.0453079 0
M  V30 251 H 23.7396 -5.07152 -0.409173 0
M  V30 252 H 23.1376 -4.42526 -3.52402 0
M  V30 253 H 21.6946 -5.32934 -3.75266 0
M  V30 254 N 25.1277 -0.289203 -1.54924 0
M  V30 255 C 26.0577 0.58549 -2.2604 0
M  V30 256 C 27.0387 1.14753 -1.25562 0
M  V30 257 O 28.2237 1.17906 -1.54311 0
M  V30 258 C 25.3537 1.76305 -2.99222 0
M  V30 259 C 24.3077 1.33191 -4.06748 0
M  V30 260 C 23.6337 2.5937 -4.6758 0
M  V30 261 C 24.9337 0.471775 -5.20165 0
M  V30 262 H 26.6277 -0.00763532 -2.99399 0
M  V30 263 H 24.1737 -0.00511229 -1.43999 0
M  V30 264 H 26.1267 2.38097 -3.47689 0
M  V30 265 H 24.8507 2.38223 -2.23422 0
M  V30 266 H 23.5097 0.737121 -3.59113 0
M  V30 267 H 23.1577 3.19576 -3.88433 0
M  V30 268 H 22.8577 2.31228 -5.40192 0
M  V30 269 H 24.3817 3.21985 -5.18804 0
M  V30 270 H 25.7957 0.995056 -5.64599 0
M  V30 271 H 24.1927 0.284639 -5.99425 0
M  V30 272 H 25.2627 -0.506041 -4.82252 0
M  V30 273 N 26.6058 1.57591 -0.0167156 0
M  V30 274 C 28.0168 1.79201 0.523834 0
M  V30 275 C 28.3678 0.925796 1.72984 0
M  V30 276 O 27.4928 0.132792 2.15992 0
M  V30 277 C 28.0878 3.25 0.957091 0
M  V30 278 C 26.6468 3.47648 1.44283 0
M  V30 279 C 25.7938 2.74374 0.401757 0
M  V30 280 H 28.7448 1.56831 -0.242816 0
M  V30 281 H 28.7658 3.34031 1.82219 0
M  V30 282 H 28.2778 3.88019 0.0791415 0
M  V30 283 H 26.3788 2.89866 2.34113 0
M  V30 284 H 26.4918 4.56352 1.45877 0
M  V30 285 H 24.8558 2.39485 0.867121 0
M  V30 286 H 25.6388 3.40102 -0.467513 0
M  V30 287 N 28.0839 -0.256276 1.55502 0
M  V30 288 C 29.0469 -1.30047 1.88734 0
M  V30 289 C 30.0469 -1.4154 0.763086 0
M  V30 290 O 31.2369 -1.40403 1.03115 0
M  V30 291 C 28.3689 -2.67953 2.10747 0
M  V30 292 H 29.5619 -1.01802 2.82093 0
M  V30 293 H 27.1149 -0.495134 1.4825 0
M  V30 294 H 27.8499 -3.01351 1.19825 0
M  V30 295 H 27.6349 -2.60993 2.92617 0
M  V30 296 H 29.1249 -3.43368 2.37673 0
M  V30 297 N 29.562 -1.4872 -0.521534 0
M  V30 298 C 30.51 -1.64328 -1.64618 0
M  V30 299 C 31.504 -0.50953 -1.61555 0
M  V30 300 O 32.71 -0.688525 -1.66311 0
M  V30 301 H 29.085 -0.517805 -0.545328 0
M  V30 302 H 31.056 -2.58767 -1.48601 0
M  V30 303 C 29.805 -1.70805 -3.02855 0
M  V30 304 H 29.128 -2.5741 -3.05909 0
M  V30 305 H 30.568 -1.85766 -3.81139 0
M  V30 306 C 29.027 -0.448479 -3.33902 0
M  V30 307 O 29.557 0.434928 -3.99339 0
M  V30 308 N 27.763 -0.317616 -2.88859 0
M  V30 309 H 27.31 -1.03748 -2.35784 0
M  V30 310 H 27.268 0.524113 -3.10001 0
M  V30 311 N 31.0401 0.771051 -1.3745 0
M  V30 312 C 31.9701 1.89827 -1.3597 0
M  V30 313 C 32.9511 1.68562 -0.228216 0
M  V30 314 O 34.1361 1.8941 -0.428675 0
M  V30 315 C 31.2661 3.2712 -1.16662 0
M  V30 316 C 30.2201 3.6295 -2.2683 0
M  V30 317 C 29.5461 4.98791 -1.92644 0
M  V30 318 C 30.8461 3.69627 -3.69017 0
M  V30 319 H 32.5401 1.91323 -2.30295 0
M  V30 320 H 30.0861 0.919082 -1.10855 0
M  V30 321 H 32.0391 4.05615 -1.14256 0
M  V30 322 H 30.7631 3.26059 -0.187926 0
M  V30 323 H 29.4221 2.86763 -2.28392 0
M  V30 324 H 29.0701 4.94271 -0.933021 0
M  V30 325 H 28.7701 5.23733 -2.66416 0
M  V30 326 H 30.2941 5.79685 -1.91826 0
M  V30 327 H 31.7081 4.38273 -3.69581 0
M  V30 328 H 30.1051 4.06067 -4.41848 0
M  V30 329 H 31.1751 2.70273 -4.02592 0
M  V30 330 N 32.5182 1.22032 0.997298 0
M  V30 331 C 33.4812 0.987909 2.06816 0
M  V30 332 C 34.4812 -0.0440084 1.6074 0
M  V30 333 O 35.6712 0.194053 1.73116 0
M  V30 334 C 32.8032 0.49132 3.37341 0
M  V30 335 H 33.9962 1.93803 2.28868 0
M  V30 336 H 31.5492 1.03838 1.16822 0
M  V30 337 H 32.2842 -0.463364 3.20973 0
M  V30 338 H 32.0692 1.23575 3.72118 0
M  V30 339 H 33.5592 0.348824 4.16141 0
M  V30 340 N 33.9963 -1.19345 1.0293 0
M  V30 341 C 35.4123 -1.41069 0.746446 0
M  V30 342 C 35.6123 -1.90078 -0.668776 0
M  V30 343 O 34.6683 -2.0778 -1.4347 0
M  V30 344 C 35.9813 -2.42141 1.78292 0
M  V30 345 C 37.5293 -2.55887 1.80252 0
M  V30 346 C 38.0043 -3.60214 2.8286 0
M  V30 347 N 39.4953 -3.67711 2.81679 0
M  V30 348 C 40.2303 -4.48128 3.57727 0
M  V30 349 N 39.7263 -5.32248 4.43491 0
M  V30 350 N 41.5193 -4.42782 3.46267 0
M  V30 351 H 33.6703 -0.858536 1.94275 0
M  V30 352 H 35.9333 -0.439541 0.839945 0
M  V30 353 H 35.6393 -2.13155 2.79746 0
M  V30 354 H 35.5133 -3.41323 1.60557 0
M  V30 355 H 37.9003 -2.84196 0.794757 0
M  V30 356 H 37.9813 -1.56858 2.02062 0
M  V30 357 H 37.6253 -3.32647 3.83807 0
M  V30 358 H 37.5553 -4.58895 2.58307 0
M  V30 359 H 40.0463 -3.07634 2.19476 0
M  V30 360 H 40.3593 -5.90729 4.98256 0
M  V30 361 H 38.7043 -5.31707 4.47564 0
M  V30 362 H 41.8953 -3.76107 2.78677 0
M  V30 363 H 42.0683 -5.05215 4.05785 0
M  V30 364 N 35.4744 -0.807222 -1.35358 0
M  V30 365 C 36.7204 -0.397594 -1.99476 0
M  V30 366 C 37.0754 1.02405 -1.62883 0
M  V30 367 O 36.3684 1.70077 -0.882282 0
M  V30 368 C 36.5624 -0.519036 -3.53611 0
M  V30 369 C 36.3914 -1.95094 -4.05177 0
M  V30 370 C 35.1614 -2.57945 -4.34503 0
M  V30 371 C 37.3594 -2.91558 -4.23673 0
M  V30 372 N 35.3414 -3.92539 -4.72003 0
M  V30 373 C 36.7124 -4.11024 -4.64176 0
M  V30 374 C 38.7674 -2.88381 -4.05883 0
M  V30 375 C 37.4704 -5.27745 -4.88751 0
M  V30 376 C 39.4964 -4.04306 -4.31614 0
M  V30 377 C 38.8584 -5.22519 -4.72391 0
M  V30 378 H 34.9574 -0.193274 -0.75774 0
M  V30 379 H 37.5414 -1.0486 -1.6405 0
M  V30 380 H 35.7124 0.101979 -3.88266 0
M  V30 381 H 37.4444 -0.0839321 -4.04613 0
M  V30 382 H 34.1994 -2.09295 -4.24844 0
M  V30 383 H 34.6234 -4.61836 -4.95011 0
M  V30 384 H 39.2654 -1.98137 -3.73499 0
M  V30 385 H 36.9834 -6.1856 -5.20008 0
M  V30 386 H 40.5694 -4.03229 -4.19402 0
M  V30 387 H 39.4494 -6.1073 -4.91913 0
M  V30 388 N 36.9525 1.47285 -0.560781 0
M  V30 389 C 38.1775 2.07359 -0.0410566 0
M  V30 390 C 38.6025 1.41017 1.24483 0
M  V30 391 O 37.9605 0.486368 1.74654 0
M  V30 392 C 38.0085 3.6035 0.134123 0
M  V30 393 O 37.1125 3.94681 1.19587 0
M  V30 394 H 36.4535 0.661887 -0.0529291 0
M  V30 395 H 38.9835 1.89252 -0.777482 0
M  V30 396 H 38.9935 4.0652 0.347207 0
M  V30 397 H 37.6685 4.08034 -0.805047 0
M  V30 398 H 36.2455 3.60251 0.962987 0
M  V30 399 N 38.4306 0.297415 1.54768 0
M  V30 400 C 39.3606 -0.573494 2.26348 0
M  V30 401 C 40.3416 -1.14085 1.26169 0
M  V30 402 O 41.5266 -1.17086 1.54934 0
M  V30 403 C 38.6566 -1.74716 3.00153 0
M  V30 404 C 37.6106 -1.31032 4.07449 0
M  V30 405 C 36.9366 -2.56887 4.68949 0
M  V30 406 C 38.2366 -0.444183 5.20408 0
M  V30 407 H 39.9306 0.0235131 2.99391 0
M  V30 408 H 37.4766 0.0127488 1.43994 0
M  V30 409 H 39.4296 -2.3625 3.48947 0
M  V30 410 H 38.1536 -2.37035 2.24682 0
M  V30 411 H 36.8126 -0.718066 3.59499 0
M  V30 412 H 36.4606 -3.17512 3.90122 0
M  V30 413 H 36.1606 -2.2836 5.41411 0
M  V30 414 H 37.6846 -3.19229 5.20505 0
M  V30 415 H 39.0986 -0.9651 5.65118 0
M  V30 416 H 37.4956 -0.252846 5.99567 0
M  V30 417 H 38.5656 0.531609 4.81977 0
M  V30 418 N 39.9087 -1.5758 0.0250728 0
M  V30 419 C 40.8187 -2.1343 -0.973905 0
M  V30 420 C 41.8347 -1.08556 -1.35984 0
M  V30 421 O 43.0107 -1.40592 -1.44207 0
M  V30 422 C 40.0757 -2.64703 -2.23904 0
M  V30 423 C 39.1367 -3.84276 -1.91391 0
M  V30 424 C 38.3697 -4.33095 -3.11873 0
M  V30 425 O 38.5927 -3.81107 -4.24398 0
M  V30 426 O 37.5267 -5.24984 -2.94406 0
M  V30 427 H 41.3527 -2.99057 -0.529036 0
M  V30 428 H 38.9377 -1.48118 -0.195288 0
M  V30 429 H 40.8197 -2.97769 -2.98181 0
M  V30 430 H 39.4947 -1.82161 -2.6758 0
M  V30 431 H 38.4017 -3.56143 -1.14511 0
M  V30 432 H 39.7347 -4.67968 -1.52534 0
M  V30 433 N 41.3868 0.248026 -1.55636 0
M  V30 434 C 42.7978 0.817177 -1.67866 0
M  V30 435 C 43.1488 1.86069 -0.622322 0
M  V30 436 O 42.2738 2.15157 0.231618 0
M  V30 437 C 42.8688 1.489 -3.04326 0
M  V30 438 C 41.4278 2.00587 -3.185 0
M  V30 439 C 40.5748 0.856573 -2.63739 0
M  V30 440 H 43.5258 0.0238579 -1.58682 0
M  V30 441 H 43.5468 2.35698 -2.98708 0
M  V30 442 H 43.0588 0.729279 -3.81186 0
M  V30 443 H 41.1598 2.79443 -2.4646 0
M  V30 444 H 41.2728 2.20402 -4.25393 0
M  V30 445 H 39.6368 1.25678 -2.21534 0
M  V30 446 H 40.4198 0.109953 -3.43124 0
M  V30 447 N 42.8649 1.48995 0.513639 0
M  V30 448 C 44.2809 1.35478 0.843682 0
M  V30 449 C 44.4809 0.378213 1.97919 0
M  V30 450 O 43.5369 -0.194689 2.51748 0
M  V30 451 C 44.8499 2.75901 1.1958 0
M  V30 452 C 46.3979 2.84509 1.30474 0
M  V30 453 C 46.8729 4.25671 1.69021 0
M  V30 454 N 48.3639 4.28422 1.76094 0
M  V30 455 C 49.0989 5.34601 2.07338 0
M  V30 456 N 48.5949 6.5104 2.36894 0
M  V30 457 N 50.3879 5.22007 2.08483 0
M  V30 458 H 42.5389 2.11092 -0.235328 0
M  V30 459 H 44.8019 0.947039 -0.0426669 0
M  V30 460 H 44.5079 3.49001 0.434913 0
M  V30 461 H 44.3819 3.10467 2.1422 0
M  V30 462 H 46.7689 2.11655 2.05637 0
M  V30 463 H 46.8499 2.53542 0.339155 0
M  V30 464 H 46.4939 4.99048 0.944135 0
M  V30 465 H 46.4239 4.54094 2.66658 0
M  V30 466 H 48.9149 3.44441 1.55464 0
M  V30 467 H 49.2279 7.2779 2.59887 0
M  V30 468 H 47.5729 6.54287 2.34378 0
M  V30 469 H 50.7639 4.30051 1.84861 0
M  V30 470 H 50.9369 6.04854 2.325 0
M  V30 471 N 44.343 -0.763751 1.37857 0
M  V30 472 C 45.759 -1.06542 1.18832 0
M  V30 473 C 45.959 -2.01478 0.0299722 0
M  V30 474 O 45.015 -2.4458 -0.627447 0
M  V30 475 C 46.328 -1.65525 2.51042 0
M  V30 476 C 47.876 -1.77745 2.57635 0
M  V30 477 C 48.351 -2.4014 3.89996 0
M  V30 478 N 49.842 -2.47582 3.91481 0
M  V30 479 C 50.577 -2.96732 4.9065 0
M  V30 480 N 50.073 -3.45993 6.00217 0
M  V30 481 N 51.866 -2.95679 4.78048 0
M  V30 482 H 44.017 -0.133556 2.1198 0
M  V30 483 H 46.28 -0.121879 0.940133 0
M  V30 484 H 45.986 -1.03236 3.36207 0
M  V30 485 H 45.86 -2.64719 2.68707 0
M  V30 486 H 48.247 -2.39164 1.72872 0
M  V30 487 H 48.328 -0.772836 2.43846 0
M  V30 488 H 47.972 -1.79358 4.75177 0
M  V30 489 H 47.902 -3.41223 4.01092 0
M  V30 490 H 50.393 -2.1273 3.12337 0
M  V30 491 H 50.706 -3.81922 6.7183 0
M  V30 492 H 49.051 -3.44077 6.03851 0
M  V30 493 H 52.242 -2.56499 3.91568 0
M  V30 494 H 52.415 -3.33672 5.55488 0
M  V30 495 N 45.8211 -1.22559 -0.990812 0
M  V30 496 C 46.7841 -0.998863 -2.0629 0
M  V30 497 C 47.7841 0.0354834 -1.60761 0
M  V30 498 O 48.9741 -0.203231 -1.7301 0
M  V30 499 C 46.1061 -0.509203 -3.37076 0
M  V30 500 H 47.2991 -1.95014 -2.27837 0
M  V30 501 H 44.8521 -1.04456 -1.16269 0
M  V30 502 H 45.5871 0.446335 -3.21214 0
M  V30 503 H 45.3721 -1.25547 -3.71457 0
M  V30 504 H 46.8621 -0.370888 -4.1595 0
M  V30 505 N 47.2992 1.18797 -1.03562 0
M  V30 506 C 48.5452 1.8893 -0.737113 0
M  V30 507 C 48.8782 1.79837 0.732956 0
M  V30 508 O 48.1532 1.19525 1.5344 0
M  V30 509 C 48.4362 3.39607 -1.19745 0
M  V30 510 C 48.2892 3.57537 -2.72924 0
M  V30 511 C 49.6082 4.33069 -0.783526 0
M  V30 512 H 46.7272 0.686057 -0.269249 0
M  V30 513 H 49.3692 1.39797 -1.28673 0
M  V30 514 H 47.5192 3.81583 -0.729855 0
M  V30 515 H 49.1912 3.24688 -3.27682 0
M  V30 516 H 47.4342 3.00363 -3.12993 0
M  V30 517 H 48.1052 4.63238 -3.00191 0
M  V30 518 H 50.5812 3.98846 -1.18581 0
M  V30 519 H 49.4572 5.3707 -1.13343 0
M  V30 520 H 49.7182 4.40986 0.313681 0
M  V30 521 N 48.7773 0.814389 1.34928 0
M  V30 522 C 49.7073 0.244827 2.32213 0
M  V30 523 C 50.6883 -0.634024 1.57842 0
M  V30 524 O 51.8733 -0.562676 1.8587 0
M  V30 525 C 49.0033 -0.601106 3.42058 0
M  V30 526 C 47.9573 0.179896 4.27622 0
M  V30 527 C 47.2833 -0.788237 5.28858 0
M  V30 528 C 48.5833 1.38329 5.03649 0
M  V30 529 H 50.2773 1.05763 2.80097 0
M  V30 530 H 47.8233 0.510029 1.34665 0
M  V30 531 H 49.7763 -1.00968 4.09125 0
M  V30 532 H 48.5003 -1.44688 2.92802 0
M  V30 533 H 47.1593 0.569739 3.62146 0
M  V30 534 H 46.8073 -1.62973 4.75866 0
M  V30 535 H 46.5073 -0.269942 5.8698 0
M  V30 536 H 48.0313 -1.19485 5.98795 0
M  V30 537 H 49.4453 1.04918 5.63618 0
M  V30 538 H 47.8423 1.83662 5.71304 0
M  V30 539 H 48.9123 2.16592 4.33839 0
M  V30 540 N 50.2554 -1.46986 0.568584 0
M  V30 541 C 51.1854 -2.32946 -0.160753 0
M  V30 542 C 52.1664 -1.44487 -0.897631 0
M  V30 543 O 53.3514 -1.73327 -0.875867 0
M  V30 544 C 50.4814 -3.26494 -1.18403 0
M  V30 545 C 49.4354 -4.24282 -0.562895 0
M  V30 546 C 48.7614 -5.07236 -1.69163 0
M  V30 547 C 50.0614 -5.19989 0.490761 0
M  V30 548 H 51.7554 -2.94175 0.556916 0
M  V30 549 H 49.3014 -1.4146 0.26927 0
M  V30 550 H 51.2544 -3.85477 -1.70251 0
M  V30 551 H 49.9784 -2.63343 -1.93179 0
M  V30 552 H 48.6374 -3.66541 -0.0656164 0
M  V30 553 H 48.2854 -4.4048 -2.42871 0
M  V30 554 H 47.9854 -5.7345 -1.28174 0
M  V30 555 H 49.5094 -5.6908 -2.21314 0
M  V30 556 H 50.9234 -5.73271 0.0579047 0
M  V30 557 H 49.3204 -5.94469 0.820165 0
M  V30 558 H 50.3904 -4.64777 1.3824 0
M  V30 559 N 51.7335 -0.305618 -1.54608 0
M  V30 560 C 52.9795 0.302746 -2.00528 0
M  V30 561 C 53.3125 1.53184 -1.19367 0
M  V30 562 O 52.5875 1.92598 -0.271321 0
M  V30 563 C 52.8705 0.654756 -3.54097 0
M  V30 564 C 52.7235 -0.583793 -4.45995 0
M  V30 565 C 54.0425 1.47947 -4.14487 0
M  V30 566 H 51.1615 0.108564 -0.72896 0
M  V30 567 H 53.8035 -0.418634 -1.85331 0
M  V30 568 H 51.9535 1.26935 -3.67178 0
M  V30 569 H 53.6255 -1.22224 -4.44814 0
M  V30 570 H 51.8685 -1.21615 -4.16404 0
M  V30 571 H 52.5395 -0.293287 -5.5122 0
M  V30 572 H 55.0155 0.96013 -4.04871 0
M  V30 573 H 53.8915 1.69454 -5.22088 0
M  V30 574 H 54.1525 2.47011 -3.66658 0
M  V30 575 N 53.2116 1.57565 -0.0334293 0
M  V30 576 C 54.1616 2.06978 0.956237 0
M  V30 577 C 55.1456 0.971193 1.28283 0
M  V30 578 O 56.3376 1.23471 1.26822 0
M  V30 579 C 53.4666 2.60393 2.23719 0
M  V30 580 C 52.5526 3.7719 1.93877 0
M  V30 581 N 52.9436 4.87639 1.34321 0
M  V30 582 C 51.2416 3.85758 2.23845 0
M  V30 583 C 51.9426 5.68825 1.21709 0
M  V30 584 N 50.9186 5.1587 1.71404 0
M  V30 585 H 54.7206 2.89773 0.490815 0
M  V30 586 H 52.2346 1.61492 0.171478 0
M  V30 587 H 54.2316 2.94088 2.95496 0
M  V30 588 H 52.8916 1.79031 2.70884 0
M  V30 589 H 53.9026 5.07803 1.01767 0
M  V30 590 H 50.5796 3.1531 2.73653 0
M  V30 591 H 51.9696 6.67631 0.75621 0
M  V30 592 N 54.6897 -0.239769 1.55765 0
M  V30 593 C 55.9667 -0.990056 1.68693 0
M  V30 594 C 56.3467 -2.03107 0.5754 0
M  V30 595 O 55.6947 -2.24604 -0.42017 0
M  V30 596 C 55.9047 -1.61696 3.09282 0
M  V30 597 C 57.2527 -2.11613 3.6811 0
M  V30 598 O 58.2767 -1.71624 3.12127 0
M  V30 599 O 57.1357 -2.85057 4.66267 0
M  V30 600 H 54.2297 -0.461299 0.686391 0
M  V30 601 H 56.7757 -0.232991 1.68093 0
M  V30 602 H 55.5477 -0.864357 3.81634 0
M  V30 603 H 55.1707 -2.44005 3.13923 0
M  V30 604 N 56.1678 -1.49265 -0.50573 0
M  V30 605 C 57.1008 -1.60183 -1.62532 0
M  V30 606 C 58.0788 -0.451107 -1.56217 0
M  V30 607 O 59.2628 -0.666016 -1.76342 0
M  V30 608 C 56.3898 -1.55238 -3.01029 0
M  V30 609 C 55.4358 -2.7545 -3.25621 0
M  V30 610 S 56.2688 -4.37174 -3.09256 0
M  V30 611 C 57.4248 -4.34866 -4.50158 0
M  V30 612 H 57.6578 -2.54894 -1.53025 0
M  V30 613 H 55.1908 -1.38098 -0.690535 0
M  V30 614 H 57.1488 -1.53071 -3.80893 0
M  V30 615 H 55.8098 -0.618238 -3.07956 0
M  V30 616 H 55.0028 -2.68197 -4.26716 0
M  V30 617 H 54.6048 -2.75005 -2.53472 0
M  V30 618 H 56.8968 -4.06295 -5.42154 0
M  V30 619 H 57.8398 -5.36223 -4.62462 0
M  V30 620 H 58.2478 -3.65007 -4.30616 0
M  V30 621 N 57.6459 0.756429 -1.3826 0
M  V30 622 C 58.5779 1.87971 -1.31147 0
M  V30 623 C 59.5909 1.61248 -0.224239 0
M  V30 624 O 60.7799 1.71881 -0.481581 0
M  V30 625 C 57.8799 3.23545 -1.00857 0
M  V30 626 C 57.0529 3.77794 -2.20432 0
M  V30 627 C 56.1119 4.91877 -1.86931 0
M  V30 628 O 55.1379 5.06659 -2.59395 0
M  V30 629 N 56.3399 5.74643 -0.822568 0
M  V30 630 H 59.1049 1.94585 -2.2794 0
M  V30 631 H 56.6659 0.936234 -1.32084 0
M  V30 632 H 58.6579 3.97403 -0.765021 0
M  V30 633 H 57.2279 3.12335 -0.128687 0
M  V30 634 H 56.4479 2.95534 -2.6087 0
M  V30 635 H 57.7359 4.10771 -3.00241 0
M  V30 636 H 57.1339 5.65266 -0.221575 0
M  V30 637 H 55.6909 6.48661 -0.638899 0
M  V30 638 N 59.124 1.23083 0.984299 0
M  V30 639 C 60.54 0.992637 1.24975 0
M  V30 640 C 60.74 -0.308618 1.99123 0
M  V30 641 O 59.796 -1.02905 2.30579 0
M  V30 642 C 61.109 2.19698 2.05312 0
M  V30 643 C 62.657 2.24147 2.18465 0
M  V30 644 C 63.132 3.44157 3.02192 0
M  V30 645 N 64.623 3.44372 3.09777 0
M  V30 646 C 65.358 4.33886 3.74874 0
M  V30 647 N 64.854 5.3363 4.41827 0
M  V30 648 N 66.647 4.21639 3.71721 0
M  V30 649 H 58.798 2.06731 0.487453 0
M  V30 650 H 61.061 0.906339 0.277944 0
M  V30 651 H 60.767 3.1411 1.58201 0
M  V30 652 H 60.641 2.20465 3.06064 0
M  V30 653 H 63.028 1.30277 2.64786 0
M  V30 654 H 63.109 2.27415 1.17115 0
M  V30 655 H 62.753 4.38332 2.56568 0
M  V30 656 H 62.683 3.3813 4.03702 0
M  V30 657 H 65.174 2.72201 2.62135 0
M  V30 658 H 65.487 5.98196 4.89266 0
M  V30 659 H 63.832 5.37534 4.40548 0
M  V30 660 H 67.023 3.42962 3.18582 0
M  V30 661 H 67.196 4.91604 4.22173 0
M  V30 662 N 60.6021 -1.18246 1.0419 0
M  V30 663 C 61.8321 -1.91916 0.764961 0
M  V30 664 C 62.2401 -1.76485 -0.681898 0
M  V30 665 O 61.5831 -1.09275 -1.47664 0
M  V30 666 C 61.6451 -3.4373 1.05309 0
M  V30 667 C 61.3091 -3.8294 2.4941 0
M  V30 668 C 62.3061 -3.86621 3.47592 0
M  V30 669 C 59.9911 -4.142 2.84155 0
M  V30 670 C 61.9851 -4.21013 4.78568 0
M  V30 671 C 59.6721 -4.48262 4.15337 0
M  V30 672 C 60.6701 -4.51645 5.12353 0
M  V30 673 O 60.3581 -4.84911 6.41183 0
M  V30 674 H 60.0901 -0.61606 0.278292 0
M  V30 675 H 62.6441 -1.50947 1.39299 0
M  V30 676 H 60.8741 -3.84946 0.367933 0
M  V30 677 H 62.5631 -3.9865 0.763752 0
M  V30 678 H 63.3291 -3.62607 3.22089 0
M  V30 679 H 59.2081 -4.10743 2.09311 0
M  V30 680 H 62.7521 -4.23568 5.54289 0
M  V30 681 H 58.6491 -4.71737 4.40607 0
M  V30 682 H 59.4171 -5.02809 6.45852 0
M  V30 683 N 62.0802 -0.821533 -1.34494 0
M  V30 684 C 63.3272 -0.408946 -1.98328 0
M  V30 685 C 63.6552 1.02764 -1.65136 0
M  V30 686 O 62.9102 1.73026 -0.914349 0
M  V30 687 C 63.2092 -0.556512 -3.53041 0
M  V30 688 C 62.8752 -1.95861 -4.0614 0
M  V30 689 C 61.5372 -2.34217 -4.20352 0
M  V30 690 C 63.8892 -2.87523 -4.34718 0
M  V30 691 C 61.2172 -3.63572 -4.6047 0
M  V30 692 C 63.5692 -4.1634 -4.76281 0
M  V30 693 C 62.2332 -4.54675 -4.88699 0
M  V30 694 H 61.5032 -0.149644 -0.725732 0
M  V30 695 H 64.1502 -1.04521 -1.6046 0
M  V30 696 H 62.4552 0.163148 -3.9146 0
M  V30 697 H 64.1522 -0.217826 -4.00408 0
M  V30 698 H 60.7422 -1.65066 -3.95539 0
M  V30 699 H 64.9262 -2.59133 -4.23277 0
M  V30 700 H 60.1822 -3.93101 -4.68275 0
M  V30 701 H 64.3562 -4.87455 -4.97354 0
M  V30 702 H 61.9832 -5.54959 -5.19542 0
M  V30 703 N 63.5583 1.46682 -0.576371 0
M  V30 704 C 64.4883 2.33028 0.148397 0
M  V30 705 C 65.4693 1.44961 0.889956 0
M  V30 706 O 66.6543 1.73789 0.866662 0
M  V30 707 C 63.7843 3.27117 1.1667 0
M  V30 708 C 62.7383 4.24575 0.540386 0
M  V30 709 C 62.0643 5.08126 1.6647 0
M  V30 710 C 63.3643 5.19722 -0.518331 0
M  V30 711 H 65.0583 2.93875 -0.572509 0
M  V30 712 H 62.6043 1.41315 -0.276768 0
M  V30 713 H 64.5573 3.86374 1.68204 0
M  V30 714 H 63.2813 2.64364 1.9178 0
M  V30 715 H 61.9403 3.66571 0.0461769 0
M  V30 716 H 61.5883 4.41762 2.40531 0
M  V30 717 H 61.2883 5.74122 1.25131 0
M  V30 718 H 62.8123 5.70246 2.18293 0
M  V30 719 H 64.2263 5.73232 -0.0883058 0
M  V30 720 H 62.6233 5.94026 -0.851679 0
M  V30 721 H 63.6933 4.64037 -1.40703 0
M  V30 722 N 65.0364 0.313813 1.54444 0
M  V30 723 C 66.4524 -0.0391619 1.59552 0
M  V30 724 C 66.6524 -1.51322 1.33056 0
M  V30 725 O 65.7084 -2.26782 1.11022 0
M  V30 726 C 67.0214 0.370302 2.98411 0
M  V30 727 C 68.5694 0.320139 3.11358 0
M  V30 728 C 69.0444 0.704617 4.52547 0
M  V30 729 N 70.5354 0.657645 4.58508 0
M  V30 730 C 71.2704 0.927453 5.6585 0
M  V30 731 N 70.7664 1.26389 6.81174 0
M  V30 732 N 72.5594 0.853662 5.5558 0
M  V30 733 H 64.7104 1.27433 1.69925 0
M  V30 734 H 66.9734 0.517511 0.794284 0
M  V30 735 H 66.6794 1.39694 3.22767 0
M  V30 736 H 66.5534 -0.269619 3.76235 0
M  V30 737 H 68.9404 -0.697275 2.86744 0
M  V30 738 H 69.0214 0.99486 2.35661 0
M  V30 739 H 68.6654 1.7199 4.77893 0
M  V30 740 H 68.5954 0.00768843 5.26599 0
M  V30 741 H 71.0864 0.409067 3.75679 0
M  V30 742 H 71.3994 1.4554 7.58972 0
M  V30 743 H 69.7444 1.30206 6.82694 0
M  V30 744 H 72.9354 0.590383 4.64362 0
M  V30 745 H 73.1084 1.0673 6.3915 0
M  V30 746 N 66.5145 -1.57545 0.0417849 0
M  V30 747 C 67.9255 -1.80011 -0.495259 0
M  V30 748 C 68.2765 -0.953199 -1.71489 0
M  V30 749 O 67.4015 -0.167138 -2.15754 0
M  V30 750 C 67.9965 -3.26482 -0.905265 0
M  V30 751 C 66.5555 -3.499 -1.38734 0
M  V30 752 C 65.7025 -2.74979 -0.358056 0
M  V30 753 H 68.6535 -1.56425 0.267736 0
M  V30 754 H 68.6745 -3.36887 -1.76882 0
M  V30 755 H 68.1865 -3.88096 -0.017401 0
M  V30 756 H 66.2875 -2.93553 -2.29471 0
M  V30 757 H 66.4005 -4.58615 -1.38598 0
M  V30 758 H 64.7645 -2.40834 -0.828912 0
M  V30 759 H 65.5475 -3.39315 0.521561 0
M  V30 760 N 67.9926 0.231505 -1.5589 0
M  V30 761 C 68.9226 1.29022 -1.94617 0
M  V30 762 C 69.9036 1.4941 -0.813067 0
M  V30 763 O 71.0886 1.6176 -1.07459 0
M  V30 764 C 68.2186 2.64199 -2.25424 0
M  V30 765 C 67.1726 2.58484 -3.41131 0
M  V30 766 C 66.4986 3.97599 -3.57518 0
M  V30 767 C 67.7986 2.1413 -4.76388 0
M  V30 768 H 69.4926 0.968563 -2.83301 0
M  V30 769 H 67.0386 0.464479 -1.36303 0
M  V30 770 H 68.9916 3.38413 -2.51107 0
M  V30 771 H 67.7156 2.98032 -1.33583 0
M  V30 772 H 66.3746 1.86727 -3.15481 0
M  V30 773 H 66.0226 4.28723 -2.6307 0
M  V30 774 H 65.7226 3.94659 -4.35337 0
M  V30 775 H 67.2466 4.7349 -3.85538 0
M  V30 776 H 68.6606 2.78083 -5.01341 0
M  V30 777 H 67.0576 2.2227 -5.57419 0
M  V30 778 H 68.1276 1.09331 -4.72414 0
M  V30 779 N 69.4707 1.49531 0.497807 0
M  V30 780 C 70.8817 1.52344 1.07927 0
M  V30 781 C 71.2327 0.311469 1.93712 0
M  V30 782 O 70.3577 -0.578405 2.08527 0
M  V30 783 C 70.9527 2.76062 1.96405 0
M  V30 784 C 69.5117 2.81643 2.49709 0
M  V30 785 C 68.6587 2.46299 1.27404 0
M  V30 786 H 71.6097 1.56182 0.281576 0
M  V30 787 H 71.6307 2.56405 2.81135 0
M  V30 788 H 71.1427 3.64254 1.33943 0
M  V30 789 H 69.2437 1.97739 3.15801 0
M  V30 790 H 69.3567 3.83891 2.86643 0
M  V30 791 H 67.7207 1.98148 1.60029 0
M  V30 792 H 68.5037 3.36769 0.66645 0
M  V30 793 N 70.9488 -0.749086 1.3866 0
M  V30 794 C 71.8588 -1.89358 1.38494 0
M  V30 795 C 72.8748 -1.71708 0.281476 0
M  V30 796 O 74.0508 -1.94554 0.520643 0
M  V30 797 C 71.1158 -3.24782 1.21316 0
M  V30 798 C 70.1768 -3.54926 2.41508 0
M  V30 799 C 69.4098 -4.83888 2.2514 0
M  V30 800 O 69.6328 -5.56592 1.24746 0
M  V30 801 O 68.5668 -5.13612 3.13826 0
M  V30 802 H 72.3928 -1.92452 2.34938 0
M  V30 803 H 69.9778 -0.894981 1.19626 0
M  V30 804 H 71.8598 -4.05739 1.13814 0
M  V30 805 H 70.5348 -3.2249 0.279592 0
M  V30 806 H 69.4418 -2.74112 2.54585 0
M  V30 807 H 70.7748 -3.61983 3.3351 0
M  V30 808 N 72.4269 -1.23603 -0.977757 0
M  V30 809 C 73.6519 -1.09735 -1.75991 0
M  V30 810 C 74.0769 0.346858 -1.84874 0
M  V30 811 O 73.4349 1.25093 -1.3123 0
M  V30 812 C 73.4829 -1.73051 -3.16363 0
M  V30 813 O 72.5869 -0.994452 -4.0023 0
M  V30 814 H 71.9279 -0.384476 -0.541364 0
M  V30 815 H 74.4579 -1.6371 -1.2272 0
M  V30 816 H 74.4679 -1.78398 -3.66931 0
M  V30 817 H 73.1429 -2.78137 -3.09213 0
M  V30 818 H 71.7199 -1.01812 -3.58732 0
M  V30 819 N 73.905 1.17692 -1.04816 0
M  V30 820 C 74.835 2.23777 -0.666791 0
M  V30 821 C 75.816 1.66796 0.33361 0
M  V30 822 O 77.001 1.93039 0.212042 0
M  V30 823 C 74.131 3.47281 -0.0367933 0
M  V30 824 C 73.085 4.17059 -0.961546 0
M  V30 825 C 72.411 5.34342 -0.195626 0
M  V30 826 C 73.711 4.69713 -2.28402 0
M  V30 827 H 75.405 2.55933 -1.55367 0
M  V30 828 H 72.951 1.23019 -0.748484 0
M  V30 829 H 74.904 4.20706 0.241775 0
M  V30 830 H 73.628 3.14381 0.885004 0
M  V30 831 H 72.287 3.45541 -1.22462 0
M  V30 832 H 71.935 4.97692 0.728816 0
M  V30 833 H 71.635 5.81966 -0.811775 0
M  V30 834 H 73.159 6.10553 0.0757473 0
M  V30 835 H 74.573 5.34794 -2.06563 0
M  V30 836 H 72.97 5.279 -2.8538 0
M  V30 837 H 74.04 3.86726 -2.92525 0
M  V30 838 N 75.3831 0.828654 1.34056 0
M  V30 839 C 76.7991 0.515135 1.51058 0
M  V30 840 C 76.9991 -0.959581 1.77184 0
M  V30 841 O 76.0551 -1.74382 1.82612 0
M  V30 842 C 77.3681 1.37963 2.67183 0
M  V30 843 C 78.9161 1.37735 2.81066 0
M  V30 844 C 79.3911 2.22645 4.00241 0
M  V30 845 N 80.8821 2.203 4.07458 0
M  V30 846 C 81.6171 2.82744 4.98842 0
M  V30 847 N 81.1131 3.54201 5.9541 0
M  V30 848 N 82.9061 2.72268 4.91759 0
M  V30 849 H 75.0571 1.78343 1.15358 0
M  V30 850 H 77.3201 0.760304 0.566252 0
M  V30 851 H 77.0261 2.42714 2.54525 0
M  V30 852 H 76.9001 1.0484 3.62338 0
M  V30 853 H 79.2871 0.337593 2.93163 0
M  V30 854 H 79.3681 1.74859 1.86703 0
M  V30 855 H 79.0121 3.26674 3.88905 0
M  V30 856 H 78.9421 1.82869 4.93829 0
M  V30 857 H 81.4331 1.68327 3.38341 0
M  V30 858 H 81.7461 3.9908 6.61782 0
M  V30 859 H 80.0911 3.58308 5.95517 0
M  V30 860 H 83.2821 2.16014 4.15278 0
M  V30 861 H 83.4551 3.21219 5.62781 0
M  V30 862 N 76.8612 -1.46375 0.584142 0
M  V30 863 C 77.8242 -2.28784 -0.138108 0
M  V30 864 C 78.8242 -1.38471 -0.817462 0
M  V30 865 O 80.0142 -1.60833 -0.669199 0
M  V30 866 C 77.1462 -3.18892 -1.20503 0
M  V30 867 H 78.3392 -2.94117 0.586127 0
M  V30 868 H 75.8922 -1.52509 0.342171 0
M  V30 869 H 76.6272 -2.58309 -1.96079 0
M  V30 870 H 76.4122 -3.85388 -0.722384 0
M  V30 871 H 77.9022 -3.80914 -1.71155 0
M  V30 872 N 78.3393 -0.321999 -1.54275 0
M  V30 873 C 79.5873 0.280489 -2.00144 0
M  V30 874 C 79.9083 1.52777 -1.21178 0
M  V30 875 O 79.1783 1.9338 -0.313187 0
M  V30 876 H 77.7583 0.106632 -0.73935 0
M  V30 877 H 80.4203 -0.438184 -1.8991 0
M  V30 878 H 79.5163 0.537972 -3.07428 0
M  V30 879 N 79.8174 1.5752 -0.0501392 0
M  V30 880 C 80.7474 2.14502 0.922566 0
M  V30 881 C 81.7284 1.06642 1.3252 0
M  V30 882 O 82.9134 1.34577 1.4001 0
M  V30 883 C 80.0434 2.68916 2.19776 0
M  V30 884 C 78.9974 3.8175 1.93523 0
M  V30 885 C 78.3234 4.22677 3.27487 0
M  V30 886 C 79.6234 5.06932 1.25765 0
M  V30 887 H 81.3174 2.9603 0.447952 0
M  V30 888 H 78.8634 1.42401 0.214024 0
M  V30 889 H 80.8164 3.07419 2.88222 0
M  V30 890 H 79.5404 1.84578 2.69441 0
M  V30 891 H 78.1994 3.43718 1.27489 0
M  V30 892 H 77.8474 3.35291 3.74952 0
M  V30 893 H 77.5474 4.98725 3.1072 0
M  V30 894 H 79.0714 4.63779 3.97166 0
M  V30 895 H 80.4854 5.42888 1.84244 0
M  V30 896 H 78.8824 5.88116 1.19328 0
M  V30 897 H 79.9524 4.84337 0.233536 0
M  V30 898 N 81.2955 -0.223234 1.56011 0
M  V30 899 C 82.5415 -0.949279 1.79211 0
M  V30 900 C 82.8745 -1.84054 0.619494 0
M  V30 901 O 82.1495 -1.90726 -0.381317 0
M  V30 902 C 82.4325 -1.78965 3.12479 0
M  V30 903 C 82.2855 -0.924997 4.40186 0
M  V30 904 C 83.6045 -2.76774 3.42175 0
M  V30 905 H 80.7235 -0.343676 0.651963 0
M  V30 906 H 83.3655 -0.218253 1.88742 0
M  V30 907 H 81.5155 -2.41291 3.04485 0
M  V30 908 H 83.1875 -0.318615 4.60198 0
M  V30 909 H 81.4305 -0.230344 4.33188 0
M  V30 910 H 82.1015 -1.54735 5.29869 0
M  V30 911 H 84.5775 -2.24584 3.50287 0
M  V30 912 H 83.4535 -3.32678 4.36597 0
M  V30 913 H 83.7145 -3.54429 2.64258 0
M  V30 914 N 82.7736 -1.49793 -0.48987 0
M  V30 915 C 83.7366 -1.66752 -1.57246 0
M  V30 916 C 84.7366 -0.538867 -1.51502 0
M  V30 917 O 85.9266 -0.805545 -1.54456 0
M  V30 918 C 83.0586 -1.67528 -2.96896 0
M  V30 919 H 84.2516 -2.63321 -1.43534 0
M  V30 920 H 81.8046 -1.38992 -0.714914 0
M  V30 921 H 82.5396 -0.725837 -3.16073 0
M  V30 922 H 82.3246 -2.49504 -3.02473 0
M  V30 923 H 83.8146 -1.82667 -3.7553 0
M  V30 924 N 84.2517 0.741722 -1.39055 0
M  V30 925 C 85.1997 1.87702 -1.3737 0
M  V30 926 C 86.1937 1.67427 -0.257812 0
M  V30 927 O 87.3997 1.7485 -0.427489 0
M  V30 928 H 83.7747 0.617757 -0.428812 0
M  V30 929 H 85.7457 1.86239 -2.33147 0
M  V30 930 C 84.4947 3.25315 -1.22741 0
M  V30 931 H 83.8177 3.41509 -2.07873 0
M  V30 932 H 85.2577 4.04964 -1.25618 0
M  V30 933 C 83.7167 3.36838 0.0647316 0
M  V30 934 O 84.2467 3.88073 1.03741 0
M  V30 935 N 82.4527 2.90329 0.125544 0
M  V30 936 H 81.9997 2.48823 -0.666682 0
M  V30 937 H 81.9577 2.98418 0.989639 0
M  V30 938 N 85.7298 1.2412 0.971189 0
M  V30 939 C 86.6928 1.03156 2.04674 0
M  V30 940 C 87.6928 -0.00990322 1.60797 0
M  V30 941 O 88.8828 0.230729 1.72665 0
M  V30 942 C 86.0148 0.562765 3.36223 0
M  V30 943 H 87.2078 1.98614 2.24705 0
M  V30 944 H 84.7608 1.06293 1.14593 0
M  V30 945 H 85.4958 -0.395176 3.21883 0
M  V30 946 H 85.2808 1.31441 3.69413 0
M  V30 947 H 86.7708 0.437015 4.15307 0
M  V30 948 N 87.2079 -1.17134 1.05439 0
M  V30 949 C 88.1709 -2.19439 0.661764 0
M  V30 950 C 89.1709 -1.58199 -0.288042 0
M  V30 951 O 90.3609 -1.74053 -0.0715803 0
M  V30 952 C 87.4929 -3.40889 -0.0276209 0
M  V30 953 H 88.6859 -2.55688 1.56728 0
M  V30 954 H 86.2389 -1.31259 0.848567 0
M  V30 955 H 86.9739 -3.10187 -0.94629 0
M  V30 956 H 86.7589 -3.86586 0.655238 0
M  V30 957 H 88.2489 -4.16603 -0.288342 0
M  V30 958 N 88.686 -0.835752 -1.33615 0
M  V30 959 C 90.102 -0.523139 -1.50783 0
M  V30 960 C 90.302 0.950171 -1.77691 0
M  V30 961 O 89.358 1.73411 -1.83534 0
M  V30 962 C 90.671 -1.39378 -2.66448 0
M  V30 963 C 92.219 -1.39223 -2.80332 0
M  V30 964 C 92.694 -2.24765 -3.99055 0
M  V30 965 N 94.185 -2.22458 -4.06284 0
M  V30 966 C 94.92 -2.85386 -4.97336 0
M  V30 967 N 94.416 -3.57354 -5.93523 0
M  V30 968 N 96.209 -2.74872 -4.90308 0
M  V30 969 H 88.36 -1.78952 -1.14411 0
M  V30 970 H 90.623 -0.763297 -0.562212 0
M  V30 971 H 90.329 -2.44061 -2.53234 0
M  V30 972 H 90.203 -1.0676 -3.61776 0
M  V30 973 H 92.59 -0.353136 -2.92979 0
M  V30 974 H 92.671 -1.75846 -1.85773 0
M  V30 975 H 92.315 -3.28732 -3.87167 0
M  V30 976 H 92.245 -1.85485 -4.92852 0
M  V30 977 H 94.736 -1.70119 -3.37443 0
M  V30 978 H 95.049 -4.02584 -6.59656 0
M  V30 979 H 93.394 -3.61461 -5.93608 0
M  V30 980 H 96.585 -2.18213 -4.14126 0
M  V30 981 H 96.758 -3.24199 -5.61069 0
M  V30 982 N 90.1641 1.46063 -0.591896 0
M  V30 983 C 91.0941 2.33172 0.123673 0
M  V30 984 C 92.0751 1.45897 0.87453 0
M  V30 985 O 93.2601 1.74698 0.848181 0
M  V30 986 C 90.3901 3.28336 1.13194 0
M  V30 987 C 89.3441 4.25124 0.495324 0
M  V30 988 C 88.6701 5.09863 1.61071 0
M  V30 989 C 89.9701 5.19143 -0.573425 0
M  V30 990 H 91.6641 2.93252 -0.603646 0
M  V30 991 H 89.2101 1.41014 -0.291741 0
M  V30 992 H 91.1631 3.88137 1.64097 0
M  V30 993 H 89.8871 2.66383 1.88965 0
M  V30 994 H 88.5461 3.66599 0.00729452 0
M  V30 995 H 88.1941 4.44288 2.35832 0
M  V30 996 H 87.8941 5.75417 1.19035 0
M  V30 997 H 89.4181 5.72529 2.12233 0
M  V30 998 H 90.8321 5.73106 -0.1491 0
M  V30 999 H 89.2291 5.93089 -0.914636 0
M  V30 1000 H 90.2991 4.62519 -1.45617 0
M  V30 1001 N 91.6422 0.330177 1.54103 0
M  V30 1002 C 93.0582 -0.0222371 1.59585 0
M  V30 1003 C 93.2582 -1.49902 1.34654 0
M  V30 1004 O 92.3142 -2.25592 1.13421 0
M  V30 1005 C 93.6272 0.401932 2.98002 0
M  V30 1006 C 95.1752 0.353145 3.11001 0
M  V30 1007 C 95.6502 0.752576 4.51775 0
M  V30 1008 N 97.1412 0.706239 4.57784 0
M  V30 1009 C 97.8762 0.987417 5.64834 0
M  V30 1010 N 97.3722 1.33607 6.79795 0
M  V30 1011 N 99.1652 0.91254 5.54643 0
M  V30 1012 H 91.3162 1.29228 1.68564 0
M  V30 1013 H 93.5792 0.525906 0.78875 0
M  V30 1014 H 93.2852 1.4311 3.21267 0
M  V30 1015 H 93.1592 -0.229699 3.765 0
M  V30 1016 H 95.5462 -0.666822 2.87467 0
M  V30 1017 H 95.6272 1.0198 2.34593 0
M  V30 1018 H 95.2712 1.77049 4.76042 0
M  V30 1019 H 95.2012 0.0635409 5.26562 0
M  V30 1020 H 97.6922 0.44889 3.75224 0
M  V30 1021 H 98.0052 1.53582 7.57385 0
M  V30 1022 H 96.3502 1.37439 6.81275 0
M  V30 1023 H 99.5412 0.639601 4.6371 0
M  V30 1024 H 99.7142 1.13503 6.37982 0
M  V30 1025 N 93.1203 -1.57491 0.0584922 0
M  V30 1026 C 94.5363 -1.56792 -0.298091 0
M  V30 1027 C 94.7363 -1.06679 -1.70944 0
M  V30 1028 O 93.7923 -0.726672 -2.41818 0
M  V30 1029 C 95.1053 -3.00461 -0.119879 0
M  V30 1030 C 96.6533 -3.1242 -0.190428 0
M  V30 1031 C 97.1283 -4.57982 -0.0406567 0
M  V30 1032 N 98.6193 -4.63099 -0.0966958 0
M  V30 1033 C 99.3543 -5.734 -0.00502943 0
M  V30 1034 N 98.8503 -6.9266 0.139402 0
M  V30 1035 N 100.643 -5.62067 -0.0611391 0
M  V30 1036 H 92.7943 -1.88386 0.98105 0
M  V30 1037 H 95.0573 -0.867865 0.381463 0
M  V30 1038 H 94.7633 -3.41187 0.85349 0
M  V30 1039 H 94.6373 -3.66843 -0.877833 0
M  V30 1040 H 97.0243 -2.71589 -1.15427 0
M  V30 1041 H 97.1053 -2.48702 0.598405 0
M  V30 1042 H 96.7493 -4.995 0.919897 0
M  V30 1043 H 96.6793 -5.19715 -0.848727 0
M  V30 1044 H 99.1703 -3.77331 -0.207277 0
M  V30 1045 H 99.4833 -7.72536 0.201855 0
M  V30 1046 H 97.8283 -6.94781 0.174586 0
M  V30 1047 H 101.019 -4.67782 -0.172583 0
M  V30 1048 H 101.192 -6.47999 0.0137562 0
M  V30 1049 N 94.5984 0.214957 -1.56127 0
M  V30 1050 C 95.8444 0.935325 -1.80619 0
M  V30 1051 C 96.1994 1.81706 -0.632507 0
M  V30 1052 O 95.4924 1.87931 0.373182 0
M  V30 1053 C 95.6864 1.80314 -3.0858 0
M  V30 1054 C 95.5154 1.00691 -4.38282 0
M  V30 1055 C 94.2854 0.699211 -5.00439 0
M  V30 1056 C 96.4834 0.369057 -5.12974 0
M  V30 1057 N 94.4654 -0.117734 -6.13787 0
M  V30 1058 C 95.8364 -0.310981 -6.1922 0
M  V30 1059 C 97.8914 0.282759 -4.97096 0
M  V30 1060 C 96.5944 -1.06907 -7.11311 0
M  V30 1061 C 98.6204 -0.461881 -5.89594 0
M  V30 1062 C 97.9824 -1.13044 -6.9527 0
M  V30 1063 H 94.0814 0.322307 -0.71249 0
M  V30 1064 H 96.6654 0.205649 -1.93611 0
M  V30 1065 H 94.8364 2.50458 -2.96859 0
M  V30 1066 H 96.5684 2.46148 -3.21237 0
M  V30 1067 H 93.3234 1.01884 -4.62511 0
M  V30 1068 H 93.7474 -0.515235 -6.75037 0
M  V30 1069 H 98.3894 0.785292 -4.15443 0
M  V30 1070 H 96.1074 -1.5831 -7.92442 0
M  V30 1071 H 99.6934 -0.529746 -5.79383 0
M  V30 1072 H 98.5734 -1.69742 -7.65609 0
M  V30 1073 N 96.0765 1.50051 0.48192 0
M  V30 1074 C 97.3165 1.62128 1.24474 0
M  V30 1075 C 97.6805 0.309742 1.89485 0
M  V30 1076 O 98.8815 0.305854 2.67054 0
M  V30 1077 C 97.1525 2.76151 2.26882 0
M  V30 1078 S 98.7115 3.08297 3.12247 0
M  V30 1079 H 95.5295 0.571661 0.422759 0
M  V30 1080 H 98.1315 1.87791 0.54359 0
M  V30 1081 H 96.8355 3.69942 1.77683 0
M  V30 1082 H 96.3665 2.52541 3.0164 0
M  V30 1083 H 98.3815 2.51287 4.27866 0
M  V30 1084 N 97.5546 -0.734337 1.39446 0
M  V30 1085 C 98.8006 -1.49613 1.36908 0
M  V30 1086 C 99.1336 -1.94169 -0.0347829 0
M  V30 1087 O 98.4086 -1.66833 -0.999847 0
M  V30 1088 C 98.6916 -2.73534 2.34203 0
M  V30 1089 C 98.5446 -2.34993 3.83534 0
M  V30 1090 C 99.8636 -3.75635 2.29317 0
M  V30 1091 H 96.9826 -0.542714 0.498629 0
M  V30 1092 H 99.6246 -0.839597 1.70443 0
M  V30 1093 H 97.7746 -3.29553 2.05736 0
M  V30 1094 H 99.4466 -1.84601 4.22753 0
M  V30 1095 H 97.6896 -1.67213 4.00278 0
M  V30 1096 H 98.3606 -3.23738 4.47099 0
M  V30 1097 H 100.837 -3.29203 2.54489 0
M  V30 1098 H 99.7126 -4.60008 2.99472 0
M  V30 1099 H 99.9736 -4.22603 1.29842 0
M  V30 1100 N 99.0327 -1.24633 -0.964593 0
M  V30 1101 C 99.9427 -1.05859 -2.09359 0
M  V30 1102 C 100.959 0.00148855 -1.74 0
M  V30 1103 O 102.135 -0.197346 -2.00431 0
M  V30 1104 C 99.1997 -0.668879 -3.40187 0
M  V30 1105 C 98.2607 -1.80578 -3.89474 0
M  V30 1106 C 97.4937 -1.43457 -5.14058 0
M  V30 1107 O 97.7167 -0.325775 -5.69469 0
M  V30 1108 O 96.6507 -2.2613 -5.57807 0
M  V30 1109 H 100.477 -2.00516 -2.28094 0
M  V30 1110 H 98.0617 -1.03481 -1.0776 0
M  V30 1111 H 99.9437 -0.463211 -4.18846 0
M  V30 1112 H 98.6187 0.248536 -3.22744 0
M  V30 1113 H 97.5257 -2.06623 -3.11862 0
M  V30 1114 H 98.8587 -2.70208 -4.11398 0
M  V30 1115 N 100.511 1.16574 -1.06058 0
M  V30 1116 C 101.443 2.2045 -0.627239 0
M  V30 1117 C 102.456 1.59752 0.313534 0
M  V30 1118 O 103.645 1.78192 0.104896 0
M  V30 1119 C 100.745 3.3875 0.100974 0
M  V30 1120 C 99.9178 4.29008 -0.852687 0
M  V30 1121 C 98.9768 5.25944 -0.164152 0
M  V30 1122 O 98.0028 5.63535 -0.801047 0
M  V30 1123 N 99.2048 5.70075 1.09518 0
M  V30 1124 H 101.97 2.58249 -1.52077 0
M  V30 1125 H 99.5308 1.3156 -0.943594 0
M  V30 1126 H 101.523 4.00638 0.57194 0
M  V30 1127 H 100.093 2.99476 0.89628 0
M  V30 1128 H 99.3128 3.64419 -1.50308 0
M  V30 1129 H 100.601 4.86195 -1.49972 0
M  V30 1130 H 99.9988 5.41624 1.6328 0
M  V30 1131 H 98.5558 6.34067 1.51006 0
M  V30 1132 N 101.989 0.842826 1.3317 0
M  V30 1133 C 103.237 0.439577 1.97262 0
M  V30 1134 C 103.558 -1.00548 1.67078 0
M  V30 1135 O 102.828 -1.70098 0.971779 0
M  V30 1136 H 101.408 0.159558 0.72976 0
M  V30 1137 H 104.07 1.07665 1.62463 0
M  V30 1138 H 103.166 0.574886 3.0676 0
M  V30 1139 N 103.467 -1.45747 0.599634 0
M  V30 1140 C 104.713 -2.02592 0.0918643 0
M  V30 1141 C 105.046 -1.46806 -1.27128 0
M  V30 1142 O 104.321 -0.639658 -1.83681 0
M  V30 1143 C 104.604 -3.60073 0.0443398 0
M  V30 1144 C 104.457 -4.26208 1.43759 0
M  V30 1145 C 105.776 -4.35309 -0.647608 0
M  V30 1146 H 102.895 -0.736175 0.034857 0
M  V30 1147 H 105.537 -1.73694 0.770081 0
M  V30 1148 H 103.687 -3.84823 -0.533224 0
M  V30 1149 H 105.359 -4.12668 2.06162 0
M  V30 1150 H 103.602 -3.84916 2.00056 0
M  V30 1151 H 104.273 -5.35069 1.35665 0
M  V30 1152 H 106.749 -4.15805 -0.156776 0
M  V30 1153 H 105.625 -5.45038 -0.649942 0
M  V30 1154 H 105.886 -4.07598 -1.71219 0
M  V30 1155 N 104.945 -0.338344 -1.53925 0
M  V30 1156 C 105.877 0.555117 -2.22376 0
M  V30 1157 C 106.89 1.06812 -1.22862 0
M  V30 1158 O 108.079 0.979163 -1.49247 0
M  V30 1159 C 105.179 1.77609 -2.88631 0
M  V30 1160 C 104.352 1.39927 -4.14414 0
M  V30 1161 C 103.411 2.47936 -4.64127 0
M  V30 1162 O 102.437 2.11461 -5.28463 0
M  V30 1163 N 103.639 3.79107 -4.39612 0
M  V30 1164 H 106.404 -0.0310778 -2.99684 0
M  V30 1165 H 103.965 -0.162226 -1.61085 0
M  V30 1166 H 105.957 2.49287 -3.18807 0
M  V30 1167 H 104.527 2.26978 -2.14941 0
M  V30 1168 H 103.747 0.513481 -3.90841 0
M  V30 1169 H 105.035 1.12341 -4.96243 0
M  V30 1170 H 104.433 4.11531 -3.88148 0
M  V30 1171 H 102.99 4.4697 -4.74406 0
M  V30 1172 N 106.423 1.57458 -0.0668435 0
M  V30 1173 C 107.672 1.92477 0.602947 0
M  V30 1174 C 107.985 0.948419 1.71068 0
M  V30 1175 O 109.191 1.19124 2.43971 0
M  V30 1176 C 107.647 3.41903 1.12383 0
M  V30 1177 C 107.255 4.47975 0.04737 0
M  V30 1178 C 108.999 3.85931 1.76797 0
M  V30 1179 C 106.906 5.88529 0.582022 0
M  V30 1180 H 105.836 0.718387 0.22899 0
M  V30 1181 H 108.487 1.82978 -0.138276 0
M  V30 1182 H 106.869 3.46459 1.91787 0
M  V30 1183 H 108.043 4.55029 -0.726978 0
M  V30 1184 H 106.358 4.13384 -0.500243 0
M  V30 1185 H 108.955 4.88322 2.17821 0
M  V30 1186 H 109.298 3.23029 2.62599 0
M  V30 1187 H 109.831 3.83958 1.04024 0
M  V30 1188 H 106.57 6.55065 -0.238721 0
M  V30 1189 H 106.09 5.85004 1.324 0
M  V30 1190 H 107.769 6.38258 1.05999 0
M  V30 1191 N 107.901 -0.206675 1.56239 0
M  V30 1192 C 108.864 -1.23976 1.92776 0
M  V30 1193 C 109.864 -1.39041 0.807729 0
M  V30 1194 O 111.054 -1.37051 1.0753 0
M  V30 1195 C 108.186 -2.61112 2.19165 0
M  V30 1196 H 109.379 -0.927764 2.85189 0
M  V30 1197 H 106.932 -0.447718 1.4975 0
M  V30 1198 H 107.667 -2.97386 1.29352 0
M  V30 1199 H 107.452 -2.51552 3.00772 0
M  V30 1200 H 108.942 -3.35633 2.48476 0
M  V30 1201 N 109.379 -1.50304 -0.473955 0
M  V30 1202 C 110.609 -1.64663 -1.24778 0
M  V30 1203 C 111.017 -0.328174 -1.86332 0
M  V30 1204 O 110.36 0.699536 -1.69859 0
M  V30 1205 C 110.422 -2.6778 -2.39863 0
M  V30 1206 C 110.086 -4.11413 -1.98969 0
M  V30 1207 C 111.083 -4.97372 -1.51385 0
M  V30 1208 C 108.768 -4.57312 -2.07777 0
M  V30 1209 C 110.762 -6.27277 -1.13148 0
M  V30 1210 C 108.449 -5.87223 -1.69152 0
M  V30 1211 C 109.447 -6.72031 -1.21915 0
M  V30 1212 O 109.135 -7.99518 -0.838237 0
M  V30 1213 H 108.867 -0.556602 -0.383627 0
M  V30 1214 H 111.421 -1.9726 -0.572491 0
M  V30 1215 H 109.651 -2.30419 -3.10554 0
M  V30 1216 H 111.34 -2.71388 -3.01833 0
M  V30 1217 H 112.106 -4.63128 -1.44004 0
M  V30 1218 H 107.985 -3.91449 -2.43493 0
M  V30 1219 H 111.529 -6.93425 -0.762077 0
M  V30 1220 H 107.426 -6.20989 -1.76191 0
M  V30 1221 H 108.194 -8.12764 -0.967339 0
M  V30 1222 N 110.857 0.726932 -1.39834 0
M  V30 1223 C 112.085 1.51613 -1.40787 0
M  V30 1224 C 112.5 1.88799 -0.00451505 0
M  V30 1225 O 111.857 1.54662 0.968809 0
M  V30 1226 C 111.908 2.79863 -2.28821 0
M  V30 1227 O 111.629 2.44253 -3.63692 0
M  V30 1228 C 113.13 3.73837 -2.38245 0
M  V30 1229 H 110.35 0.468264 -0.480593 0
M  V30 1230 H 112.894 0.897607 -1.83748 0
M  V30 1231 H 111.049 3.38027 -1.89252 0
M  V30 1232 H 111.463 3.26695 -4.1033 0
M  V30 1233 H 112.937 4.60699 -3.04073 0
M  V30 1234 H 113.414 4.16153 -1.40403 0
M  V30 1235 H 114.02 3.21589 -2.78317 0
M  V30 1236 N 112.336 1.25143 0.95797 0
M  V30 1237 C 113.299 1.05321 2.03569 0
M  V30 1238 C 114.299 0.007152 1.60798 0
M  V30 1239 O 115.489 0.24903 1.72411 0
M  V30 1240 C 112.621 0.598394 3.35607 0
M  V30 1241 H 113.814 2.00986 2.22586 0
M  V30 1242 H 111.367 1.07502 1.13459 0
M  V30 1243 H 112.102 -0.361014 3.22284 0
M  V30 1244 H 111.887 1.35351 3.67998 0
M  V30 1245 H 113.377 0.48104 4.1482 0
M  V30 1246 N 113.814 -1.1601 1.06675 0
M  V30 1247 C 114.746 -2.20115 0.638921 0
M  V30 1248 C 115.759 -1.59916 -0.305057 0
M  V30 1249 O 116.948 -1.78245 -0.0954446 0
M  V30 1250 C 114.048 -3.38798 -0.0830083 0
M  V30 1251 C 113.221 -4.2855 0.875426 0
M  V30 1252 C 112.28 -5.25849 0.192042 0
M  V30 1253 O 111.306 -5.63102 0.830921 0
M  V30 1254 N 112.508 -5.70648 -1.06493 0
M  V30 1255 H 115.273 -2.57439 1.53444 0
M  V30 1256 H 112.834 -1.31057 0.950557 0
M  V30 1257 H 114.826 -4.00936 -0.550685 0
M  V30 1258 H 113.396 -2.99947 -0.880386 0
M  V30 1259 H 112.616 -3.63617 1.52238 0
M  V30 1260 H 113.904 -4.85393 1.52548 0
M  V30 1261 H 113.302 -5.42482 -1.60405 0
M  V30 1262 H 111.859 -6.34859 -1.47641 0
M  V30 1263 N 115.292 -0.849877 -1.32721 0
M  V30 1264 C 116.703 -0.506188 -1.79707 0
M  V30 1265 C 117.054 0.975627 -1.70223 0
M  V30 1266 O 116.179 1.76078 -1.25799 0
M  V30 1267 C 116.774 -0.912044 -3.26293 0
M  V30 1268 C 115.333 -0.620326 -3.71253 0
M  V30 1269 C 114.48 -1.11439 -2.53922 0
M  V30 1270 H 117.431 -1.03754 -1.20087 0
M  V30 1271 H 117.452 -0.226493 -3.79825 0
M  V30 1272 H 116.964 -1.99057 -3.33164 0
M  V30 1273 H 115.065 0.447674 -3.69901 0
M  V30 1274 H 115.178 -1.18327 -4.64258 0
M  V30 1275 H 113.542 -0.534834 -2.49021 0
M  V30 1276 H 114.325 -2.19992 -2.6355 0
M  V30 1277 N 116.77 1.45427 -0.607355 0
M  V30 1278 C 118.018 2.01841 -0.102253 0
M  V30 1279 C 118.339 1.47832 1.27164 0
M  V30 1280 O 117.609 0.672497 1.83995 0
M  V30 1281 H 116.189 0.746188 -0.0348101 0
M  V30 1282 H 118.851 1.78229 -0.7887 0
M  V30 1283 H 117.947 3.12057 -0.0518585 0
M  V30 1284 N 118.248 0.346503 1.53744 0
M  V30 1285 C 119.473 -0.253074 2.0585 0
M  V30 1286 C 119.898 -1.43202 1.21962 0
M  V30 1287 O 119.256 -1.79783 0.234073 0
M  V30 1288 C 119.304 -0.643193 3.54817 0
M  V30 1289 O 118.408 -1.74286 3.73762 0
M  V30 1290 H 117.749 -0.0413583 0.662711 0
M  V30 1291 H 120.279 0.501574 1.98357 0
M  V30 1292 H 120.289 -0.919526 3.97503 0
M  V30 1293 H 118.964 0.218966 4.15323 0
M  V30 1294 H 117.541 -1.46356 3.42979 0
M  V30 1295 N 119.726 -1.57421 0.075193 0
M  V30 1296 C 120.659 -2.08528 -0.926904 0
M  V30 1297 C 121.637 -0.991171 -1.28898 0
M  V30 1298 O 122.821 -1.26479 -1.39769 0
M  V30 1299 C 119.948 -2.54576 -2.23402 0
M  V30 1300 C 118.994 -3.75454 -2.02327 0
M  V30 1301 S 119.827 -5.19989 -1.27951 0
M  V30 1302 C 120.983 -5.69372 -2.59935 0
M  V30 1303 H 121.216 -2.932 -0.492048 0
M  V30 1304 H 118.749 -1.53785 -0.137651 0
M  V30 1305 H 120.707 -2.81767 -2.98526 0
M  V30 1306 H 119.368 -1.70166 -2.64012 0
M  V30 1307 H 118.561 -4.05675 -2.99071 0
M  V30 1308 H 118.163 -3.48654 -1.35339 0
M  V30 1309 H 120.455 -5.76424 -3.56008 0
M  V30 1310 H 121.398 -6.68207 -2.34319 0
M  V30 1311 H 121.806 -4.97205 -2.67296 0
M  V30 1312 N 121.204 0.198386 -1.56346 0
M  V30 1313 C 122.432 0.935572 -1.84539 0
M  V30 1314 C 122.847 1.76989 -0.657281 0
M  V30 1315 O 122.204 1.78626 0.374043 0
M  V30 1316 C 122.255 1.8344 -3.11499 0
M  V30 1317 O 121.976 1.03377 -4.25728 0
M  V30 1318 C 123.477 2.68355 -3.52846 0
M  V30 1319 H 120.697 0.273126 -0.612897 0
M  V30 1320 H 123.241 0.20663 -2.03453 0
M  V30 1321 H 121.396 2.51701 -2.94492 0
M  V30 1322 H 121.81 1.64599 -4.98003 0
M  V30 1323 H 123.284 3.27085 -4.44657 0
M  V30 1324 H 123.761 3.41901 -2.75681 0
M  V30 1325 H 124.367 2.05471 -3.72373 0
M  V30 1326 N 122.682 1.50554 0.465978 0
M  V30 1327 C 123.592 1.72585 1.58907 0
M  V30 1328 C 124.608 0.60911 1.6299 0
M  V30 1329 O 125.784 0.88804 1.80765 0
M  V30 1330 C 122.849 1.81995 2.95091 0
M  V30 1331 C 121.91 3.05751 3.01355 0
M  V30 1332 C 121.143 3.14702 4.31043 0
M  V30 1333 O 121.366 2.30313 5.21835 0
M  V30 1334 O 120.3 4.07468 4.43005 0
M  V30 1335 H 124.126 2.67799 1.43239 0
M  V30 1336 H 121.711 1.34711 0.646013 0
M  V30 1337 H 123.593 1.90335 3.75966 0
M  V30 1338 H 122.268 0.899659 3.10947 0
M  V30 1339 H 121.175 3.02908 2.19539 0
M  V30 1340 H 122.508 3.97375 2.90437 0
M  V30 1341 N 124.16 -0.719506 1.40217 0
M  V30 1342 C 125.07 -1.86378 1.42479 0
M  V30 1343 C 126.086 -1.71073 0.317834 0
M  V30 1344 O 127.262 -1.93406 0.561794 0
M  V30 1345 C 124.327 -3.22136 1.28178 0
M  V30 1346 C 123.388 -3.49723 2.48982 0
M  V30 1347 C 122.621 -4.79004 2.35353 0
M  V30 1348 O 122.844 -5.53821 1.36524 0
M  V30 1349 O 121.778 -5.06839 3.2465 0
M  V30 1350 H 125.604 -1.87425 2.38968 0
M  V30 1351 H 123.189 -0.869405 1.21498 0
M  V30 1352 H 125.071 -4.03234 1.22395 0
M  V30 1353 H 123.746 -3.21825 0.347934 0
M  V30 1354 H 122.653 -2.6865 2.60342 0
M  V30 1355 H 123.986 -3.54828 3.41113 0
M  V30 1356 N 125.638 -1.25649 -0.95132 0
M  V30 1357 C 126.57 -1.02112 -2.05197 0
M  V30 1358 C 127.583 0.0150571 -1.62793 0
M  V30 1359 O 128.772 -0.223874 -1.77091 0
M  V30 1360 C 125.872 -0.522361 -3.3485 0
M  V30 1361 C 125.045 -1.62546 -4.06076 0
M  V30 1362 C 124.104 -1.12649 -5.14001 0
M  V30 1363 O 123.13 -1.82156 -5.39266 0
M  V30 1364 N 124.332 0.03047 -5.80492 0
M  V30 1365 H 127.097 -1.96885 -2.25957 0
M  V30 1366 H 124.658 -1.16899 -1.1201 0
M  V30 1367 H 126.65 -0.172961 -4.0433 0
M  V30 1368 H 125.22 0.33151 -3.10837 0
M  V30 1369 H 124.44 -2.14628 -3.30649 0
M  V30 1370 H 125.728 -2.36644 -4.50419 0
M  V30 1371 H 125.126 0.611169 -5.62389 0
M  V30 1372 H 123.683 0.320875 -6.5101 0
M  V30 1373 N 127.117 1.15442 -1.07289 0
M  V30 1374 C 128.533 1.38201 -0.798288 0
M  V30 1375 C 128.733 1.92429 0.597769 0
M  V30 1376 O 127.789 2.12962 1.3566 0
M  V30 1377 C 129.102 2.35357 -1.87156 0
M  V30 1378 C 130.65 2.49021 -1.89624 0
M  V30 1379 C 131.125 3.49468 -2.96034 0
M  V30 1380 N 132.616 3.57003 -2.95132 0
M  V30 1381 C 133.351 4.34543 -3.74112 0
M  V30 1382 N 132.847 5.15421 -4.6294 0
M  V30 1383 N 134.64 4.29625 -3.62462 0
M  V30 1384 H 126.791 0.78584 -1.97328 0
M  V30 1385 H 129.054 0.408065 -0.855679 0
M  V30 1386 H 128.76 2.02626 -2.87464 0
M  V30 1387 H 128.634 3.35129 -1.73114 0
M  V30 1388 H 131.021 2.81051 -0.899687 0
M  V30 1389 H 131.102 1.4925 -2.07745 0
M  V30 1390 H 130.746 3.18173 -3.95889 0
M  V30 1391 H 130.676 4.48992 -2.75161 0
M  V30 1392 H 133.167 2.99276 -2.30743 0
M  V30 1393 H 133.48 5.7183 -5.19837 0
M  V30 1394 H 131.825 5.14729 -4.66989 0
M  V30 1395 H 135.016 3.65505 -2.92444 0
M  V30 1396 H 135.189 4.89807 -4.24256 0
M  V30 1397 N 128.595 0.856903 1.32268 0
M  V30 1398 C 129.843 0.460474 1.96784 0
M  V30 1399 C 130.164 -0.987701 1.68135 0
M  V30 1400 O 129.434 -1.69058 0.989765 0
M  V30 1401 H 128.014 0.167289 0.728027 0
M  V30 1402 H 130.676 1.09383 1.61312 0
M  V30 1403 H 129.772 0.60739 3.06133 0
M  V30 1404 N 130.073 -1.45103 0.615059 0
M  V30 1405 C 131.003 -2.33339 -0.0865619 0
M  V30 1406 C 131.984 -1.4727 -0.851209 0
M  V30 1407 O 133.169 -1.76026 -0.820281 0
M  V30 1408 C 130.299 -3.30095 -1.07956 0
M  V30 1409 C 129.253 -4.25858 -0.427628 0
M  V30 1410 C 128.579 -5.12361 -1.5294 0
M  V30 1411 C 129.879 -5.18165 0.655944 0
M  V30 1412 H 131.573 -2.92254 0.650224 0
M  V30 1413 H 129.119 -1.40532 0.314138 0
M  V30 1414 H 131.072 -3.90698 -1.57901 0
M  V30 1415 H 129.796 -2.69355 -1.84703 0
M  V30 1416 H 128.455 -3.66564 0.0510292 0
M  V30 1417 H 128.103 -4.47984 -2.28734 0
M  V30 1418 H 127.803 -5.77238 -1.09865 0
M  V30 1419 H 129.327 -5.75833 -2.03098 0
M  V30 1420 H 130.741 -5.72796 0.240257 0
M  V30 1421 H 129.138 -5.91559 1.00888 0
M  V30 1422 H 130.208 -4.60144 1.52957 0
M  V30 1423 N 131.551 -0.354651 -1.53558 0
M  V30 1424 C 132.481 0.489091 -2.2832 0
M  V30 1425 C 133.462 1.09324 -1.30316 0
M  V30 1426 O 134.647 1.11255 -1.59173 0
M  V30 1427 C 131.777 1.63456 -3.0643 0
M  V30 1428 C 130.731 1.1582 -4.12031 0
M  V30 1429 C 130.057 2.39305 -4.7816 0
M  V30 1430 C 131.357 0.250731 -5.21698 0
M  V30 1431 H 133.051 -0.134614 -2.99097 0
M  V30 1432 H 130.597 -0.0661826 -1.43848 0
M  V30 1433 H 132.55 2.23136 -3.57475 0
M  V30 1434 H 131.274 2.28533 -2.33325 0
M  V30 1435 H 129.933 0.584146 -3.61916 0
M  V30 1436 H 129.581 3.02814 -4.01637 0
M  V30 1437 H 129.281 2.08109 -5.49513 0
M  V30 1438 H 130.805 2.99691 -5.31994 0
M  V30 1439 H 132.219 0.754695 -5.68311 0
M  V30 1440 H 130.616 0.0301468 -6.00092 0
M  V30 1441 H 131.686 -0.710125 -4.79672 0
M  V30 1442 N 133.029 1.57378 -0.0835403 0
M  V30 1443 C 133.976 2.13384 0.879539 0
M  V30 1444 C 134.946 1.04936 1.28754 0
M  V30 1445 O 136.131 1.32662 1.37133 0
M  V30 1446 C 133.271 2.70932 2.13752 0
M  V30 1447 C 132.384 3.93575 1.7811 0
M  V30 1448 C 131.519 4.39326 2.98607 0
M  V30 1449 C 130.558 5.54587 2.59037 0
M  V30 1450 N 129.695 5.95243 3.72331 0
M  V30 1451 H 134.535 2.9537 0.395076 0
M  V30 1452 H 132.072 1.45953 0.183349 0
M  V30 1453 H 134.03 3.02411 2.87408 0
M  V30 1454 H 132.66 1.91693 2.59718 0
M  V30 1455 H 131.712 3.68483 0.94469 0
M  V30 1456 H 133.024 4.77258 1.45005 0
M  V30 1457 H 132.178 4.72528 3.80529 0
M  V30 1458 H 130.917 3.5452 3.34913 0
M  V30 1459 H 129.922 5.21024 1.75539 0
M  V30 1460 H 131.147 6.41133 2.23887 0
M  V30 1461 H 129.093 5.13385 4.08378 0
M  V30 1462 H 129.01 6.73694 3.43034 0
M  V30 1463 H 130.278 6.33072 4.54797 0
M  V30 1464 N 134.507 -0.190092 1.56449 0
M  V30 1465 C 135.784 -0.935886 1.71757 0
M  V30 1466 C 136.164 -2.01173 0.639726 0
M  V30 1467 O 135.512 -2.25827 -0.348502 0
M  V30 1468 C 135.722 -1.51775 3.1427 0
M  V30 1469 C 137.07 -1.99794 3.74656 0
M  V30 1470 O 138.094 -1.61607 3.1743 0
M  V30 1471 O 136.953 -2.70079 4.751 0
M  V30 1472 H 134.047 -0.439229 0.700719 0
M  V30 1473 H 136.593 -0.179395 1.68749 0
M  V30 1474 H 135.365 -0.742505 3.84191 0
M  V30 1475 H 134.988 -2.33894 3.21527 0
M  V30 1476 N 135.985 -1.50799 -0.457987 0
M  V30 1477 C 137.232 -1.62442 -1.20908 0
M  V30 1478 C 137.56 -0.330865 -1.91665 0
M  V30 1479 O 136.815 0.68401 -1.83357 0
M  V30 1480 C 137.114 -2.76358 -2.2663 0
M  V30 1481 C 136.78 -4.16378 -1.73033 0
M  V30 1482 C 135.442 -4.54473 -1.58138 0
M  V30 1483 C 137.794 -5.03836 -1.33413 0
M  V30 1484 C 135.122 -5.77754 -1.02065 0
M  V30 1485 C 137.474 -6.27676 -0.78778 0
M  V30 1486 C 136.138 -6.64562 -0.625561 0
M  V30 1487 H 135.408 -0.594417 -0.442435 0
M  V30 1488 H 138.055 -1.84772 -0.503136 0
M  V30 1489 H 136.36 -2.48167 -3.03184 0
M  V30 1490 H 138.057 -2.82568 -2.84528 0
M  V30 1491 H 134.647 -3.86331 -1.85598 0
M  V30 1492 H 138.831 -4.75026 -1.4375 0
M  V30 1493 H 134.087 -6.04997 -0.882547 0
M  V30 1494 H 138.261 -6.94797 -0.472177 0
M  V30 1495 H 135.888 -7.59965 -0.188926 0
M  V30 1496 N 137.463 0.71206 -1.40597 0
M  V30 1497 C 138.709 1.47292 -1.40274 0
M  V30 1498 C 139.064 1.92399 -0.00576812 0
M  V30 1499 O 138.357 1.65507 0.965297 0
M  V30 1500 C 138.551 2.71039 -2.32965 0
M  V30 1501 C 138.38 2.38035 -3.81536 0
M  V30 1502 C 137.15 2.29203 -4.50327 0
M  V30 1503 C 139.348 2.02076 -4.72938 0
M  V30 1504 N 137.33 1.88911 -5.84111 0
M  V30 1505 C 138.701 1.72412 -5.95545 0
M  V30 1506 C 140.756 1.88742 -4.60739 0
M  V30 1507 C 139.459 1.30756 -7.07316 0
M  V30 1508 C 141.485 1.4849 -5.72455 0
M  V30 1509 C 140.847 1.19726 -6.94151 0
M  V30 1510 H 136.946 0.536919 -0.568544 0
M  V30 1511 H 139.53 0.825424 -1.76337 0
M  V30 1512 H 137.701 3.33533 -1.99023 0
M  V30 1513 H 139.433 3.37404 -2.23474 0
M  V30 1514 H 136.188 2.47059 -4.04053 0
M  V30 1515 H 136.612 1.71293 -6.54972 0
M  V30 1516 H 141.254 2.0964 -3.67166 0
M  V30 1517 H 138.972 1.08601 -8.00769 0
M  V30 1518 H 142.558 1.38747 -5.65014 0
M  V30 1519 H 141.438 0.890482 -7.79128 0
M  V30 1520 N 138.941 1.26152 0.944643 0
M  V30 1521 C 140.189 1.11271 1.6871 0
M  V30 1522 C 140.51 -0.345166 1.91921 0
M  V30 1523 O 139.78 -1.24387 1.51343 0
M  V30 1524 H 138.36 0.408783 0.625224 0
M  V30 1525 H 141.022 1.58427 1.1352 0
M  V30 1526 H 140.118 1.62879 2.66227 0
M  V30 1527 N 140.419 -1.14872 1.07899 0
M  V30 1528 C 141.83 -1.67367 0.827363 0
M  V30 1529 C 142.181 -1.85236 -0.646693 0
M  V30 1530 O 141.306 -1.55974 -1.50004 0
M  V30 1531 C 141.901 -3.04016 1.49532 0
M  V30 1532 C 140.46 -3.53566 1.29106 0
M  V30 1533 C 139.607 -2.29161 1.56143 0
M  V30 1534 H 142.558 -0.990083 1.24028 0
M  V30 1535 H 142.579 -3.69219 0.919643 0
M  V30 1536 H 142.091 -2.90978 2.56814 0
M  V30 1537 H 140.192 -3.71835 0.238713 0
M  V30 1538 H 140.305 -4.34661 2.01511 0
M  V30 1539 H 138.669 -2.34978 0.982717 0
M  V30 1540 H 139.452 -2.18705 2.64619 0
M  V30 1541 N 141.898 -0.863906 -1.31812 0
M  V30 1542 C 143.146 -0.470904 -1.96537 0
M  V30 1543 C 143.467 0.978771 -1.68657 0
M  V30 1544 O 142.737 1.6853 -0.998717 0
M  V30 1545 H 141.317 -0.171148 -0.72713 0
M  V30 1546 H 143.979 -1.10236 -1.60729 0
M  V30 1547 H 143.075 -0.623616 -3.05806 0
M  V30 1548 N 143.376 1.44774 -0.622745 0
M  V30 1549 C 144.309 2.27792 0.136329 0
M  V30 1550 C 145.287 1.38041 0.859264 0
M  V30 1551 O 146.471 1.67478 0.86506 0
M  V30 1552 C 143.598 3.16776 1.19878 0
M  V30 1553 C 142.644 4.22575 0.57731 0
M  V30 1554 S 143.477 5.31825 -0.626294 0
M  V30 1555 C 144.633 6.24377 0.436378 0
M  V30 1556 H 144.866 2.91824 -0.567967 0
M  V30 1557 H 142.399 1.48838 -0.410677 0
M  V30 1558 H 144.357 3.68596 1.80686 0
M  V30 1559 H 143.018 2.5198 1.87523 0
M  V30 1560 H 142.211 4.84818 1.37721 0
M  V30 1561 H 141.813 3.73974 0.0440439 0
M  V30 1562 H 144.105 6.64689 1.31128 0
M  V30 1563 H 145.048 7.07941 -0.150271 0
M  V30 1564 H 145.456 5.59381 0.758513 0
M  V30 1565 N 144.854 0.36279 1.53368 0
M  V30 1566 C 146.27 0.0116182 1.59596 0
M  V30 1567 C 146.47 -1.47012 1.37803 0
M  V30 1568 O 145.526 -2.23136 1.18181 0
M  V30 1569 C 146.839 0.465052 2.97082 0
M  V30 1570 C 148.387 0.419033 3.10182 0
M  V30 1571 C 148.862 0.848235 4.50077 0
M  V30 1572 N 150.353 0.803183 4.56183 0
M  V30 1573 C 151.088 1.107 5.62613 0
M  V30 1574 N 150.584 1.47996 6.76808 0
M  V30 1575 N 152.377 1.02998 5.52583 0
M  V30 1576 H 144.528 1.32775 1.65785 0
M  V30 1577 H 146.791 0.542518 0.777417 0
M  V30 1578 H 146.497 1.49892 3.18159 0
M  V30 1579 H 146.371 -0.149786 3.76902 0
M  V30 1580 H 148.758 -0.605696 2.88817 0
M  V30 1581 H 148.839 1.06933 2.32377 0
M  V30 1582 H 148.483 1.87107 4.7218 0
M  V30 1583 H 148.413 0.175218 5.26308 0
M  V30 1584 H 150.904 0.52838 3.74188 0
M  V30 1585 H 151.217 1.69613 7.53957 0
M  V30 1586 H 149.562 1.51859 6.78206 0
M  V30 1587 H 152.753 0.737817 4.62249 0
M  V30 1588 H 152.926 1.2701 6.35431 0
M  V30 1589 N 146.332 -1.57332 0.0918853 0
M  V30 1590 C 147.295 -2.12708 -0.85369 0
M  V30 1591 C 148.295 -1.05561 -1.213 0
M  V30 1592 O 149.485 -1.31461 -1.14296 0
M  V30 1593 C 146.617 -2.64503 -2.15061 0
M  V30 1594 H 147.81 -2.97573 -0.3729 0
M  V30 1595 H 145.363 -1.55509 -0.157072 0
M  V30 1596 H 146.098 -1.83149 -2.67632 0
M  V30 1597 H 145.883 -3.4284 -1.90272 0
M  V30 1598 H 147.373 -3.07351 -2.82711 0
M  V30 1599 N 147.81 0.181792 -1.56548 0
M  V30 1600 C 149.035 0.920019 -1.85877 0
M  V30 1601 C 149.46 1.75494 -0.677021 0
M  V30 1602 O 148.818 1.77399 0.374056 0
M  V30 1603 C 148.866 1.78112 -3.13542 0
M  V30 1604 O 147.97 2.88152 -2.95029 0
M  V30 1605 H 147.311 0.258334 -0.611686 0
M  V30 1606 H 149.841 0.183092 -2.03779 0
M  V30 1607 H 149.851 2.18314 -3.44678 0
M  V30 1608 H 148.526 1.16777 -3.99169 0
M  V30 1609 H 147.103 2.51609 -2.75222 0
M  V30 1610 N 149.288 1.51039 0.449983 0
M  V30 1611 C 150.699 1.557 1.03026 0
M  V30 1612 C 151.05 0.372939 1.92623 0
M  V30 1613 O 150.175 -0.511771 2.10261 0
M  V30 1614 C 150.77 2.82171 1.87523 0
M  V30 1615 C 149.329 2.89444 2.40622 0
M  V30 1616 C 148.476 2.50228 1.19504 0
M  V30 1617 H 151.427 1.56999 0.231745 0
M  V30 1618 H 151.448 2.65219 2.72835 0
M  V30 1619 H 150.96 3.68331 1.22286 0
M  V30 1620 H 149.061 2.07685 3.0935 0
M  V30 1621 H 149.174 3.92816 2.74285 0
M  V30 1622 H 147.538 2.03139 1.53644 0
M  V30 1623 H 148.321 3.38719 0.558972 0
M  V30 1624 N 150.766 -0.704594 1.40972 0
M  V30 1625 C 151.729 -1.80035 1.41845 0
M  V30 1626 C 152.729 -1.57774 0.310474 0
M  V30 1627 O 153.919 -1.64613 0.56992 0
M  V30 1628 C 151.051 -3.18284 1.22098 0
M  V30 1629 H 152.244 -1.80658 2.3938 0
M  V30 1630 H 149.797 -0.911329 1.26982 0
M  V30 1631 H 150.532 -3.23306 0.253672 0
M  V30 1632 H 150.317 -3.35843 2.02366 0
M  V30 1633 H 151.807 -3.98289 1.25522 0
M  V30 1634 N 152.244 -1.26651 -0.937939 0
M  V30 1635 C 153.521 -1.0313 -1.66204 0
M  V30 1636 C 153.901 0.437256 -2.06522 0
M  V30 1637 O 153.249 1.41831 -1.79154 0
M  V30 1638 C 153.459 -1.98314 -2.87181 0
M  V30 1639 C 154.807 -2.27107 -3.58758 0
M  V30 1640 O 155.831 -1.96205 -2.97291 0
M  V30 1641 O 154.69 -2.79736 -4.69479 0
M  V30 1642 H 151.784 -0.392384 -0.727986 0
M  V30 1643 H 154.33 -1.37874 -0.989382 0
M  V30 1644 H 153.102 -2.97399 -2.54302 0
M  V30 1645 H 152.725 -1.64068 -3.6217 0
M  V30 1646 N 153.722 1.14298 -1.08507 0
M  V30 1647 C 155.138 1.37347 -0.812901 0
M  V30 1648 C 155.338 1.93052 0.577325 0
M  V30 1649 O 154.394 2.14389 1.33393 0
M  V30 1650 C 155.707 2.33359 -1.89642 0
M  V30 1651 C 157.255 2.46996 -1.92255 0
M  V30 1652 C 157.73 3.46309 -2.99724 0
M  V30 1653 N 159.221 3.53853 -2.98902 0
M  V30 1654 C 159.956 4.3055 -3.787 0
M  V30 1655 N 159.452 5.10482 -4.6838 0
M  V30 1656 N 161.245 4.25757 -3.66998 0
M  V30 1657 H 153.396 0.764867 -1.9815 0
M  V30 1658 H 155.659 0.398966 -0.859959 0
M  V30 1659 H 155.365 1.99565 -2.89597 0
M  V30 1660 H 155.239 3.33274 -1.76659 0
M  V30 1661 H 157.626 2.80081 -0.929445 0
M  V30 1662 H 157.707 1.47039 -2.09316 0
M  V30 1663 H 157.351 3.13957 -3.99241 0
M  V30 1664 H 157.281 4.46049 -2.79907 0
M  V30 1665 H 159.772 2.96812 -2.33904 0
M  V30 1666 H 160.085 5.66284 -5.25873 0
M  V30 1667 H 158.43 5.09747 -4.72422 0
M  V30 1668 H 161.621 3.62383 -2.96304 0
M  V30 1669 H 161.794 4.85279 -4.29427 0
M  V30 1670 N 155.201 0.870884 1.31352 0
M  V30 1671 C 156.111 0.330783 2.32256 0
M  V30 1672 C 157.127 -0.559767 1.6475 0
M  V30 1673 O 158.303 -0.456263 1.96164 0
M  V30 1674 C 155.368 -0.458137 3.4366 0
M  V30 1675 C 154.429 0.460482 4.26823 0
M  V30 1676 C 153.662 -0.290881 5.32907 0
M  V30 1677 O 153.885 -1.51885 5.49806 0
M  V30 1678 O 152.819 0.351732 6.00871 0
M  V30 1679 H 156.645 1.16718 2.80376 0
M  V30 1680 H 154.23 0.634285 1.35267 0
M  V30 1681 H 156.112 -0.905343 4.1156 0
M  V30 1682 H 154.787 -1.27106 2.97701 0
M  V30 1683 H 153.694 0.956207 3.61673 0
M  V30 1684 H 155.027 1.23903 4.7635 0
M  V30 1685 N 156.679 -1.44442 0.630414 0
M  V30 1686 C 157.925 -2.02351 0.134816 0
M  V30 1687 C 158.258 -1.4947 -1.23986 0
M  V30 1688 O 157.533 -0.678475 -1.82283 0
M  V30 1689 C 157.816 -3.59898 0.120707 0
M  V30 1690 C 157.669 -4.23063 1.52767 0
M  V30 1691 C 158.988 -4.36585 -0.555127 0
M  V30 1692 H 156.107 -0.73527 0.0504646 0
M  V30 1693 H 158.749 -1.72022 0.806751 0
M  V30 1694 H 156.899 -3.85868 -0.451477 0
M  V30 1695 H 158.571 -4.08202 2.14869 0
M  V30 1696 H 156.814 -3.80586 2.08175 0
M  V30 1697 H 157.485 -5.32071 1.46984 0
M  V30 1698 H 159.961 -4.16044 -0.0685429 0
M  V30 1699 H 158.837 -5.46294 -0.534185 0
M  V30 1700 H 159.098 -4.11138 -1.62535 0
M  V30 1701 N 158.157 -0.370918 -1.53173 0
M  V30 1702 C 159.403 0.217423 -2.01631 0
M  V30 1703 C 159.736 1.47983 -1.25756 0
M  V30 1704 O 159.011 1.91274 -0.352764 0
M  V30 1705 C 159.294 0.503982 -3.56556 0
M  V30 1706 C 159.147 -0.77243 -4.43118 0
M  V30 1707 C 160.466 1.30234 -4.20389 0
M  V30 1708 H 157.585 0.0775486 -0.732909 0
M  V30 1709 H 160.227 -0.496863 -1.83388 0
M  V30 1710 H 158.377 1.11248 -3.72231 0
M  V30 1711 H 160.049 -1.4098 -4.39229 0
M  V30 1712 H 158.292 -1.39167 -4.10871 0
M  V30 1713 H 158.963 -0.526815 -5.4948 0
M  V30 1714 H 161.439 0.787546 -4.08579 0
M  V30 1715 H 160.315 1.47158 -5.28806 0
M  V30 1716 H 160.576 2.31237 -3.76805 0
M  V30 1717 N 159.635 1.57281 -0.100228 0
M  V30 1718 C 160.545 2.17833 0.870965 0
M  V30 1719 C 161.561 1.14921 1.30649 0
M  V30 1720 O 162.737 1.47313 1.37335 0
M  V30 1721 C 159.802 2.75085 2.1102 0
M  V30 1722 C 158.863 3.9297 1.72838 0
M  V30 1723 C 158.096 4.47482 2.90854 0
M  V30 1724 O 158.319 4.00922 4.05731 0
M  V30 1725 O 157.253 5.38433 2.69023 0
M  V30 1726 H 161.079 3.0124 0.38575 0
M  V30 1727 H 158.664 1.48881 0.124397 0
M  V30 1728 H 160.546 3.11656 2.83634 0
M  V30 1729 H 159.221 1.94721 2.58584 0
M  V30 1730 H 158.128 3.61201 0.973883 0
M  V30 1731 H 159.461 4.74713 1.30033 0
M  V30 1732 N 161.113 -0.173488 1.56642 0
M  V30 1733 C 162.023 -1.23482 1.99473 0
M  V30 1734 C 163.039 -1.48567 0.905752 0
M  V30 1735 O 164.215 -1.60758 1.21321 0
M  V30 1736 C 161.28 -2.55444 2.34413 0
M  V30 1737 C 160.341 -2.38241 3.57127 0
M  V30 1738 C 159.574 -3.63909 3.90392 0
M  V30 1739 O 159.797 -4.68996 3.24653 0
M  V30 1740 O 158.731 -3.58149 4.83749 0
M  V30 1741 H 162.557 -0.901279 2.90018 0
M  V30 1742 H 160.142 -0.380185 1.44482 0
M  V30 1743 H 162.024 -3.33292 2.57865 0
M  V30 1744 H 160.699 -2.88382 1.4703 0
M  V30 1745 H 159.606 -1.58431 3.38896 0
M  V30 1746 H 160.939 -2.10228 4.45045 0
M  V30 1747 N 162.591 -1.51276 -0.441967 0
M  V30 1748 C 163.521 -1.752 -1.54361 0
M  V30 1749 C 164.502 -0.601682 -1.59103 0
M  V30 1750 O 165.687 -0.843913 -1.74905 0
M  V30 1751 C 162.817 -1.87282 -2.92477 0
M  V30 1752 C 161.771 -3.02687 -3.02596 0
M  V30 1753 C 161.097 -2.99947 -4.42647 0
M  V30 1754 C 162.397 -4.4273 -2.77106 0
M  V30 1755 H 164.091 -2.67442 -1.34592 0
M  V30 1756 H 161.637 -1.28694 -0.646048 0
M  V30 1757 H 163.59 -2.02602 -3.695 0
M  V30 1758 H 162.314 -0.916844 -3.13467 0
M  V30 1759 H 160.973 -2.87065 -2.28012 0
M  V30 1760 H 160.621 -2.02136 -4.60597 0
M  V30 1761 H 160.321 -3.77439 -4.50348 0
M  V30 1762 H 161.845 -3.17354 -5.2165 0
M  V30 1763 H 163.259 -4.58727 -3.43864 0
M  V30 1764 H 161.656 -5.21893 -2.96222 0
M  V30 1765 H 162.726 -4.53087 -1.72744 0
M  V30 1766 N 164.069 0.697108 -1.41344 0
M  V30 1767 C 165.032 1.79281 -1.42797 0
M  V30 1768 C 166.032 1.57607 -0.318837 0
M  V30 1769 O 167.222 1.64309 -0.578642 0
M  V30 1770 C 164.354 3.17632 -1.23785 0
M  V30 1771 H 165.547 1.79385 -2.40335 0
M  V30 1772 H 163.1 0.904582 -1.27464 0
M  V30 1773 H 163.835 3.23167 -0.270814 0
M  V30 1774 H 163.62 3.34765 -2.04144 0
M  V30 1775 H 165.11 3.97617 -1.27633 0
M  V30 1776 N 165.547 1.27147 0.931209 0
M  V30 1777 C 166.958 1.12044 1.49342 0
M  V30 1778 C 167.309 -0.295795 1.93957 0
M  V30 1779 O 166.434 -1.18835 1.80852 0
M  V30 1780 C 167.029 2.02781 2.71414 0
M  V30 1781 C 165.588 1.91794 3.2387 0
M  V30 1782 C 164.735 1.95543 1.96617 0
M  V30 1783 H 167.686 1.40091 0.745672 0
M  V30 1784 H 167.707 1.58156 3.46074 0
M  V30 1785 H 167.219 3.05848 2.38911 0
M  V30 1786 H 165.32 0.916992 3.6114 0
M  V30 1787 H 165.433 2.77852 3.90302 0
M  V30 1788 H 163.797 1.39722 2.12955 0
M  V30 1789 H 164.58 3.00259 1.66432 0
M  V30 1790 N 167.025 -1.13721 1.09112 0
M  V30 1791 C 168.273 -1.84559 0.823562 0
M  V30 1792 C 168.594 -1.83754 -0.652658 0
M  V30 1793 O 167.864 -1.29102 -1.47342 0
M  V30 1794 H 166.444 -0.683376 0.301673 0
M  V30 1795 H 169.106 -1.37771 1.37859 0
M  V30 1796 H 168.202 -2.8917 1.17419 0
M  V30 1797 N 168.503 -0.877838 -1.30888 0
M  V30 1798 C 169.914 -0.544193 -1.78593 0
M  V30 1799 C 170.265 0.939301 -1.72254 0
M  V30 1800 O 169.39 1.7337 -1.29505 0
M  V30 1801 C 169.985 -0.98105 -3.24285 0
M  V30 1802 C 168.544 -0.698935 -3.69854 0
M  V30 1803 C 167.691 -1.168 -2.51502 0
M  V30 1804 H 170.642 -1.06278 -1.17859 0
M  V30 1805 H 170.663 -0.307009 -3.79259 0
M  V30 1806 H 170.175 -2.06079 -3.28866 0
M  V30 1807 H 168.276 0.369112 -3.70767 0
M  V30 1808 H 168.389 -1.28148 -4.61644 0
M  V30 1809 H 166.753 -0.587535 -2.47831 0
M  V30 1810 H 167.536 -2.25533 -2.58824 0
M  V30 1811 N 169.982 1.44106 -0.638065 0
M  V30 1812 C 171.259 1.95453 -0.0759321 0
M  V30 1813 C 171.639 1.57984 1.40015 0
M  V30 1814 O 170.987 0.857361 2.11806 0
M  V30 1815 C 171.197 3.47655 -0.306132 0
M  V30 1816 C 172.545 4.24114 -0.203008 0
M  V30 1817 O 173.569 3.55405 -0.237871 0
M  V30 1818 O 172.428 5.46381 -0.113827 0
M  V30 1819 H 169.522 0.826797 0.0183332 0
M  V30 1820 H 172.068 1.54122 -0.710251 0
M  V30 1821 H 170.84 3.68 -1.3301 0
M  V30 1822 H 170.463 3.95949 0.361991 0
M  V30 1823 N 171.46 0.379036 1.52974 0
M  V30 1824 C 172.737 -0.263479 1.93817 0
M  V30 1825 C 173.117 -1.65244 1.31368 0
M  V30 1826 O 172.465 -2.23448 0.477856 0
M  V30 1827 C 172.675 -0.300166 3.47707 0
M  V30 1828 C 174.023 -0.534061 4.21228 0
M  V30 1829 O 175.047 -0.38081 3.54159 0
M  V30 1830 O 173.906 -0.833501 5.40106 0
M  V30 1831 H 171 -0.161149 0.811147 0
M  V30 1832 H 173.546 0.432798 1.64088 0
M  V30 1833 H 172.318 0.673138 3.85467 0
M  V30 1834 H 171.941 -1.04179 3.83709 0
M  V30 1835 N 172.938 -1.57226 0.108567 0
M  V30 1836 C 174.184 -1.95919 -0.546564 0
M  V30 1837 C 174.539 -0.990417 -1.6495 0
M  V30 1838 O 173.832 -0.0186593 -1.91591 0
M  V30 1839 C 174.026 -3.38911 -1.13463 0
M  V30 1840 C 173.855 -4.4961 -0.0901926 0
M  V30 1841 C 172.625 -5.04168 0.338008 0
M  V30 1842 C 174.823 -5.09693 0.686808 0
M  V30 1843 N 172.805 -5.98434 1.36931 0
M  V30 1844 C 174.176 -5.99804 1.56958 0
M  V30 1845 C 176.231 -4.92388 0.738846 0
M  V30 1846 C 174.934 -6.74463 2.49983 0
M  V30 1847 C 176.96 -5.67719 1.65676 0
M  V30 1848 C 176.322 -6.57507 2.52713 0
M  V30 1849 H 172.421 -0.763312 -0.169936 0
M  V30 1850 H 175.005 -1.93728 0.194264 0
M  V30 1851 H 173.176 -3.41769 -1.84522 0
M  V30 1852 H 174.908 -3.64752 -1.75322 0
M  V30 1853 H 171.663 -4.73571 -0.0523673 0
M  V30 1854 H 172.087 -6.5027 1.88356 0
M  V30 1855 H 176.729 -4.22724 0.080084 0
M  V30 1856 H 174.447 -7.4338 3.16878 0
M  V30 1857 H 178.033 -5.56338 1.70233 0
M  V30 1858 H 176.913 -7.14778 3.22586 0
M  V30 1859 N 174.416 0.165178 -1.56732 0
M  V30 1860 C 175.346 1.20651 -1.99914 0
M  V30 1861 C 176.327 1.45827 -0.875705 0
M  V30 1862 O 177.512 1.57057 -1.14223 0
M  V30 1863 C 174.642 2.54401 -2.36427 0
M  V30 1864 C 173.596 2.43782 -3.51787 0
M  V30 1865 C 172.922 3.82078 -3.7406 0
M  V30 1866 C 174.222 1.93732 -4.85041 0
M  V30 1867 H 175.916 0.847534 -2.87154 0
M  V30 1868 H 173.462 0.40625 -1.38151 0
M  V30 1869 H 175.415 3.27458 -2.65234 0
M  V30 1870 H 174.139 2.92098 -1.46103 0
M  V30 1871 H 172.798 1.73178 -3.23117 0
M  V30 1872 H 172.446 4.17179 -2.81017 0
M  V30 1873 H 172.146 3.7584 -4.51684 0
M  V30 1874 H 173.67 4.56712 -4.05274 0
M  V30 1875 H 175.084 2.56569 -5.12684 0
M  V30 1876 H 173.481 1.98428 -5.66345 0
M  V30 1877 H 174.551 0.891962 -4.76626 0
M  V30 1878 N 175.894 1.51508 0.433938 0
M  V30 1879 C 176.824 1.76016 1.53429 0
M  V30 1880 C 177.805 0.610112 1.58782 0
M  V30 1881 O 178.99 0.853177 1.74455 0
M  V30 1882 C 176.12 1.88831 2.9148 0
M  V30 1883 C 175.074 3.04288 3.00987 0
M  V30 1884 C 174.4 3.0229 4.4105 0
M  V30 1885 C 175.7 4.44193 2.74754 0
M  V30 1886 H 177.394 2.68152 1.33171 0
M  V30 1887 H 174.94 1.29035 0.639214 0
M  V30 1888 H 176.893 2.04559 3.6842 0
M  V30 1889 H 175.617 0.933455 3.12976 0
M  V30 1890 H 174.276 2.8827 2.26486 0
M  V30 1891 H 173.924 2.04576 4.59519 0
M  V30 1892 H 173.624 3.79822 4.4834 0
M  V30 1893 H 175.148 3.20116 5.1996 0
M  V30 1894 H 176.562 4.60544 3.41426 0
M  V30 1895 H 174.959 5.23457 2.9345 0
M  V30 1896 H 176.029 4.53996 1.70339 0
M  V30 1897 N 177.372 -0.689602 1.41712 0
M  V30 1898 C 178.6 -1.47827 1.44758 0
M  V30 1899 C 179.015 -1.88721 0.0545703 0
M  V30 1900 O 178.372 -1.57176 -0.927463 0
M  V30 1901 C 178.423 -2.73698 2.3616 0
M  V30 1902 O 178.144 -2.34524 3.7004 0
M  V30 1903 C 179.645 -3.67389 2.48072 0
M  V30 1904 H 176.865 -0.455357 0.49284 0
M  V30 1905 H 179.409 -0.848574 1.86063 0
M  V30 1906 H 177.564 -3.32891 1.98148 0
M  V30 1907 H 177.978 -3.15701 4.18847 0
M  V30 1908 H 179.452 -4.52475 3.16181 0
M  V30 1909 H 179.929 -4.12284 1.51388 0
M  V30 1910 H 180.535 -3.14097 2.86746 0
M  V30 1911 N 178.85 -1.27639 -0.924453 0
M  V30 1912 C 179.797 -1.10644 -2.0255 0
M  V30 1913 C 180.767 -0.00658438 -1.66099 0
M  V30 1914 O 181.952 -0.16952 -1.90045 0
M  V30 1915 C 179.092 -0.76309 -3.36557 0
M  V30 1916 C 178.205 -1.94091 -3.85944 0
M  V30 1917 C 177.34 -1.53914 -5.08413 0
M  V30 1918 C 176.379 -2.68425 -5.50104 0
M  V30 1919 N 175.516 -2.28815 -6.63768 0
M  V30 1920 H 180.356 -2.04858 -2.16419 0
M  V30 1921 H 177.893 -1.01974 -1.06017 0
M  V30 1922 H 179.851 -0.544822 -4.13627 0
M  V30 1923 H 178.481 0.142102 -3.22487 0
M  V30 1924 H 177.533 -2.27162 -3.05125 0
M  V30 1925 H 178.845 -2.7998 -4.12811 0
M  V30 1926 H 177.999 -1.28231 -5.92994 0
M  V30 1927 H 176.738 -0.651391 -4.8333 0
M  V30 1928 H 175.743 -2.94819 -4.64071 0
M  V30 1929 H 176.968 -3.57826 -5.7718 0
M  V30 1930 H 174.914 -1.42495 -6.40337 0
M  V30 1931 H 174.831 -3.08242 -6.90306 0
M  V30 1932 H 176.099 -2.06387 -7.51681 0
M  V30 1933 N 180.328 1.1314 -1.09713 0
M  V30 1934 C 181.574 1.84967 -0.846104 0
M  V30 1935 C 181.929 1.82082 0.621601 0
M  V30 1936 O 181.222 1.2501 1.452 0
M  V30 1937 C 181.416 3.32167 -1.3191 0
M  V30 1938 C 181.245 3.49386 -2.83125 0
M  V30 1939 C 180.015 3.63456 -3.51038 0
M  V30 1940 C 182.213 3.45179 -3.81256 0
M  V30 1941 N 180.195 3.68966 -4.9065 0
M  V30 1942 C 181.566 3.57094 -5.06837 0
M  V30 1943 C 183.621 3.28598 -3.74069 0
M  V30 1944 C 182.324 3.5414 -6.26081 0
M  V30 1945 C 184.35 3.26953 -4.92804 0
M  V30 1946 C 183.712 3.39422 -6.17229 0
M  V30 1947 H 179.811 0.692899 -0.362512 0
M  V30 1948 H 182.395 1.35506 -1.39808 0
M  V30 1949 H 180.566 3.80186 -0.794535 0
M  V30 1950 H 182.298 3.91815 -1.01308 0
M  V30 1951 H 179.053 3.65256 -3.01471 0
M  V30 1952 H 179.477 3.75404 -5.63383 0
M  V30 1953 H 184.119 3.17858 -2.78794 0
M  V30 1954 H 181.837 3.63653 -7.21653 0
M  V30 1955 H 185.423 3.15316 -4.88945 0
M  V30 1956 H 184.303 3.38114 -7.07565 0
M  V30 1957 N 181.806 0.884767 1.30421 0
M  V30 1958 C 183.222 0.57874 1.48737 0
M  V30 1959 C 183.422 -0.883567 1.81095 0
M  V30 1960 O 182.478 -1.6648 1.89844 0
M  V30 1961 C 183.791 1.49171 2.61091 0
M  V30 1962 C 185.339 1.49532 2.74971 0
M  V30 1963 C 185.814 2.39421 3.90438 0
M  V30 1964 N 187.305 2.37383 3.97748 0
M  V30 1965 C 188.04 3.03647 4.86401 0
M  V30 1966 N 187.536 3.79136 5.79852 0
M  V30 1967 N 189.329 2.9288 4.79768 0
M  V30 1968 H 181.48 1.83075 1.0769 0
M  V30 1969 H 183.743 0.783637 0.533495 0
M  V30 1970 H 183.449 2.53291 2.44001 0
M  V30 1971 H 183.323 1.20113 3.57565 0
M  V30 1972 H 185.71 0.46163 2.91467 0
M  V30 1973 H 185.791 1.8262 1.79119 0
M  V30 1974 H 185.435 3.42874 3.74699 0
M  V30 1975 H 185.365 2.03649 4.85628 0
M  V30 1976 H 187.856 1.82525 3.30897 0
M  V30 1977 H 188.169 4.26789 6.4426 0
M  V30 1978 H 186.514 3.83243 5.79784 0
M  V30 1979 H 189.705 2.33433 4.05742 0
M  V30 1980 H 189.878 3.448 5.4865 0
M  V30 1981 N 183.284 -1.43765 0.645699 0
M  V30 1982 C 184.514 -2.05953 0.163318 0
M  V30 1983 C 184.922 -1.48432 -1.17322 0
M  V30 1984 O 184.265 -0.607295 -1.73371 0
M  V30 1985 C 184.327 -3.59499 -0.0103065 0
M  V30 1986 C 183.991 -4.39563 1.25035 0
M  V30 1987 C 184.988 -4.72108 2.17739 0
M  V30 1988 C 182.673 -4.79697 1.48983 0
M  V30 1989 C 184.667 -5.43688 3.3269 0
M  V30 1990 C 182.354 -5.51023 2.64229 0
M  V30 1991 C 183.352 -5.8294 3.55908 0
M  V30 1992 O 183.04 -6.5281 4.69142 0
M  V30 1993 H 182.772 -0.670798 0.0836986 0
M  V30 1994 H 185.326 -1.85384 0.884407 0
M  V30 1995 H 183.556 -3.78613 -0.78669 0
M  V30 1996 H 185.245 -4.03408 -0.449087 0
M  V30 1997 H 186.011 -4.41627 2.00476 0
M  V30 1998 H 181.89 -4.54266 0.785078 0
M  V30 1999 H 185.434 -5.68517 4.04269 0
M  V30 2000 H 181.331 -5.8092 2.81429 0
M  V30 2001 H 182.099 -6.71288 4.6831 0
M  V30 2002 N 184.763 -0.387143 -1.52771 0
M  V30 2003 C 185.988 0.198407 -2.06449 0
M  V30 2004 C 186.413 1.39918 -1.25716 0
M  V30 2005 O 185.771 1.79099 -0.281657 0
M  V30 2006 C 185.819 0.548893 -3.56398 0
M  V30 2007 O 184.923 1.64315 -3.78252 0
M  V30 2008 H 184.264 0.0237731 -0.663574 0
M  V30 2009 H 186.794 -0.553989 -1.96957 0
M  V30 2010 H 186.804 0.813812 -3.99801 0
M  V30 2011 H 185.479 -0.329005 -4.14597 0
M  V30 2012 H 184.056 1.37211 -3.46738 0
M  V30 2013 N 186.241 1.57166 -0.116904 0
M  V30 2014 C 187.204 2.14039 0.819742 0
M  V30 2015 C 188.204 1.07477 1.19605 0
M  V30 2016 O 189.394 1.33263 1.1219 0
M  V30 2017 C 186.526 2.67891 2.10826 0
M  V30 2018 H 187.719 2.98128 0.325511 0
M  V30 2019 H 185.272 1.55739 0.132312 0
M  V30 2020 H 186.007 1.87384 2.64685 0
M  V30 2021 H 185.792 3.45823 1.84793 0
M  V30 2022 H 187.282 3.11809 2.77785 0
M  V30 2023 N 187.719 -0.156864 1.56817 0
M  V30 2024 C 188.966 -0.871125 1.82805 0
M  V30 2025 C 189.294 -1.81611 0.696262 0
M  V30 2026 O 188.549 -1.93141 -0.315459 0
M  V30 2027 C 188.848 -1.68737 3.1506 0
M  V30 2028 C 188.514 -0.890045 4.42028 0
M  V30 2029 C 187.176 -0.670042 4.76512 0
M  V30 2030 C 189.528 -0.331769 5.20143 0
M  V30 2031 C 186.856 0.119104 5.86579 0
M  V30 2032 C 189.208 0.444365 6.31037 0
M  V30 2033 C 187.872 0.675035 6.64078 0
M  V30 2034 H 187.142 -0.318767 0.668931 0
M  V30 2035 H 189.789 -0.135274 1.91022 0
M  V30 2036 H 188.094 -2.49304 3.0225 0
M  V30 2037 H 189.791 -2.24331 3.3238 0
M  V30 2038 H 186.381 -1.07157 4.14988 0
M  V30 2039 H 190.565 -0.489043 4.93885 0
M  V30 2040 H 185.821 0.307417 6.10627 0
M  V30 2041 H 189.995 0.884139 6.90765 0
M  V30 2042 H 187.622 1.28839 7.49203 0
M  V30 2043 N 189.197 -1.51736 -0.425897 0
M  V30 2044 C 190.444 -1.6497 -1.17436 0
M  V30 2045 C 190.772 -0.371445 -1.9092 0
M  V30 2046 O 190.027 0.644963 -1.84767 0
M  V30 2047 C 190.326 -2.81103 -2.20717 0
M  V30 2048 C 189.992 -4.19954 -1.64162 0
M  V30 2049 C 188.654 -4.57725 -1.48462 0
M  V30 2050 C 191.006 -5.06552 -1.22696 0
M  V30 2051 C 188.334 -5.79789 -0.897873 0
M  V30 2052 C 190.686 -6.29205 -0.654464 0
M  V30 2053 C 189.35 -6.6574 -0.484456 0
M  V30 2054 H 188.62 -0.603668 -0.429727 0
M  V30 2055 H 191.267 -1.85798 -0.463829 0
M  V30 2056 H 189.572 -2.54542 -2.97852 0
M  V30 2057 H 191.269 -2.8854 -2.78471 0
M  V30 2058 H 187.859 -3.90181 -1.77361 0
M  V30 2059 H 192.043 -4.77968 -1.33642 0
M  V30 2060 H 187.299 -6.06733 -0.75402 0
M  V30 2061 H 191.473 -6.95643 -0.324694 0
M  V30 2062 H 189.1 -7.60195 -0.0276833 0
M  V30 2063 N 190.675 0.682077 -1.42076 0
M  V30 2064 C 191.625 1.78823 -1.41444 0
M  V30 2065 C 192.609 1.58323 -0.28681 0
M  V30 2066 O 193.801 1.68926 -0.528498 0
M  V30 2067 C 190.93 3.17232 -1.3122 0
M  V30 2068 C 190.016 3.4338 -2.489 0
M  V30 2069 N 190.407 3.40152 -3.7434 0
M  V30 2070 C 188.705 3.73986 -2.43003 0
M  V30 2071 C 189.406 3.65581 -4.52466 0
M  V30 2072 N 188.382 3.85989 -3.8277 0
M  V30 2073 H 192.184 1.7471 -2.36334 0
M  V30 2074 H 189.698 0.882622 -1.36321 0
M  V30 2075 H 191.695 3.96489 -1.2885 0
M  V30 2076 H 190.355 3.22547 -0.373263 0
M  V30 2077 H 191.366 3.20221 -4.07037 0
M  V30 2078 H 188.043 3.86591 -1.57651 0
M  V30 2079 H 189.433 3.69108 -5.61435 0
M  V30 2080 N 192.153 1.28127 0.917671 0
M  V30 2081 C 193.378 1.18007 1.70555 0
M  V30 2082 C 193.803 -0.258257 1.86319 0
M  V30 2083 O 193.161 -1.1869 1.37049 0
M  V30 2084 C 193.209 1.87948 3.07746 0
M  V30 2085 O 192.313 1.18427 3.9503 0
M  V30 2086 H 191.654 0.409867 0.522403 0
M  V30 2087 H 194.184 1.69379 1.1477 0
M  V30 2088 H 194.194 1.95701 3.58001 0
M  V30 2089 H 192.869 2.92573 2.95591 0
M  V30 2090 H 191.446 1.18811 3.53466 0
M  V30 2091 N 193.631 -1.12557 1.10312 0
M  V30 2092 C 194.908 -1.80363 0.756878 0
M  V30 2093 C 195.288 -1.97067 -0.756824 0
M  V30 2094 O 194.636 -1.54601 -1.68259 0
M  V30 2095 C 194.846 -3.14812 1.50647 0
M  V30 2096 C 196.194 -3.90029 1.67817 0
M  V30 2097 O 197.218 -3.24464 1.46974 0
M  V30 2098 O 196.077 -5.07652 2.02365 0
M  V30 2099 H 193.171 -0.780667 0.272926 0
M  V30 2100 H 195.717 -1.19404 1.20586 0
M  V30 2101 H 194.489 -2.97936 2.53672 0
M  V30 2102 H 194.112 -3.83478 1.05026 0
M  V30 2103 N 195.109 -0.891671 -1.2995 0
M  V30 2104 C 196.039 -0.379797 -2.30391 0
M  V30 2105 C 197.02 0.540919 -1.6127 0
M  V30 2106 O 198.205 0.453352 -1.88834 0
M  V30 2107 C 195.335 0.400654 -3.44981 0
M  V30 2108 C 194.289 -0.428905 -4.25846 0
M  V30 2109 C 193.615 0.478557 -5.32554 0
M  V30 2110 C 194.915 -1.67458 -4.94727 0
M  V30 2111 H 196.609 -1.21914 -2.73454 0
M  V30 2112 H 194.155 -0.587675 -1.31462 0
M  V30 2113 H 196.108 0.769434 -4.14316 0
M  V30 2114 H 194.832 1.27371 -3.0074 0
M  V30 2115 H 193.491 -0.779911 -3.58208 0
M  V30 2116 H 193.139 1.34951 -4.84559 0
M  V30 2117 H 192.839 -0.0727433 -5.87555 0
M  V30 2118 H 194.363 0.843705 -6.04743 0
M  V30 2119 H 195.777 -1.376 -5.56542 0
M  V30 2120 H 194.174 -2.16659 -5.59624 0
M  V30 2121 H 195.244 -2.41518 -4.20473 0
M  V30 2122 N 196.587 1.43421 -0.653314 0
M  V30 2123 C 197.517 2.33487 0.0246656 0
M  V30 2124 C 198.498 1.49475 0.811863 0
M  V30 2125 O 199.683 1.78139 0.773322 0
M  V30 2126 C 196.813 3.32841 0.99166 0
M  V30 2127 C 195.767 4.26842 0.314568 0
M  V30 2128 C 195.093 5.16236 1.39302 0
M  V30 2129 C 196.393 5.16243 -0.793095 0
M  V30 2130 H 198.087 2.90427 -0.727481 0
M  V30 2131 H 195.633 1.39649 -0.351287 0
M  V30 2132 H 197.586 3.94747 1.47487 0
M  V30 2133 H 196.31 2.74158 1.77497 0
M  V30 2134 H 194.969 3.663 -0.148199 0
M  V30 2135 H 194.617 4.53891 2.16776 0
M  V30 2136 H 194.317 5.79948 0.945223 0
M  V30 2137 H 195.841 5.81015 1.87759 0
M  V30 2138 H 197.255 5.71958 -0.392039 0
M  V30 2139 H 195.652 5.88676 -1.16536 0
M  V30 2140 H 196.722 4.55927 -1.65103 0
M  V30 2141 N 198.065 0.39524 1.52563 0
M  V30 2142 C 198.997 -0.472201 2.24283 0
M  V30 2143 C 200.01 -1.02178 1.26742 0
M  V30 2144 O 201.199 -0.923097 1.52778 0
M  V30 2145 C 198.299 -1.66775 2.95024 0
M  V30 2146 C 197.472 -1.2445 4.19322 0
M  V30 2147 C 196.531 -2.30539 4.7301 0
M  V30 2148 O 195.557 -1.91702 5.35947 0
M  V30 2149 N 196.759 -3.6253 4.53379 0
M  V30 2150 H 199.524 0.142282 2.99362 0
M  V30 2151 H 197.085 0.2219 1.60372 0
M  V30 2152 H 199.077 -2.37283 3.27839 0
M  V30 2153 H 197.647 -2.18845 2.23217 0
M  V30 2154 H 196.867 -0.368069 3.92478 0
M  V30 2155 H 198.155 -0.938457 5.0007 0
M  V30 2156 H 197.553 -3.96841 4.03154 0
M  V30 2157 H 196.11 -4.29055 4.90668 0
M  V30 2158 N 199.544 -1.57102 0.125237 0
M  V30 2159 C 200.96 -1.57915 -0.231322 0
M  V30 2160 C 201.16 -1.13833 -1.66266 0
M  V30 2161 O 200.216 -0.828581 -2.38518 0
M  V30 2162 C 201.529 -3.00699 0.00766489 0
M  V30 2163 C 203.077 -3.12947 -0.0577483 0
M  V30 2164 C 203.552 -4.57742 0.153626 0
M  V30 2165 N 205.043 -4.63092 0.0998073 0
M  V30 2166 C 205.778 -5.72905 0.238174 0
M  V30 2167 N 205.274 -6.91445 0.433057 0
M  V30 2168 N 207.067 -5.6182 0.177308 0
M  V30 2169 H 199.218 -1.84055 1.06007 0
M  V30 2170 H 201.481 -0.850905 0.417929 0
M  V30 2171 H 201.187 -3.3726 0.997431 0
M  V30 2172 H 201.061 -3.70236 -0.721452 0
M  V30 2173 H 203.448 -2.7624 -1.03804 0
M  V30 2174 H 203.529 -2.4594 0.70335 0
M  V30 2175 H 203.173 -4.95149 1.13092 0
M  V30 2176 H 203.103 -5.22848 -0.627534 0
M  V30 2177 H 205.594 -3.77871 -0.047051 0
M  V30 2178 H 205.907 -7.70985 0.529332 0
M  V30 2179 H 204.252 -6.93415 0.469109 0
M  V30 2180 H 207.443 -4.68093 0.0259748 0
M  V30 2181 H 207.616 -6.47357 0.288582 0
M  V30 2182 N 201.022 0.148545 -1.56898 0
M  V30 2183 C 201.955 1.21293 -1.93296 0
M  V30 2184 C 202.933 1.41637 -0.798599 0
M  V30 2185 O 204.117 1.56275 -1.05406 0
M  V30 2186 C 201.244 2.5721 -2.20365 0
M  V30 2187 C 200.29 2.53469 -3.4301 0
M  V30 2188 S 201.123 2.00315 -4.96623 0
M  V30 2189 C 202.279 3.37964 -5.26812 0
M  V30 2190 H 202.512 0.902393 -2.83274 0
M  V30 2191 H 200.045 0.354094 -1.50285 0
M  V30 2192 H 202.003 3.35427 -2.36641 0
M  V30 2193 H 200.664 2.85454 -1.31054 0
M  V30 2194 H 199.857 3.53518 -3.59223 0
M  V30 2195 H 199.459 1.83359 -3.25968 0
M  V30 2196 H 201.751 4.34066 -5.20185 0
M  V30 2197 H 202.694 3.26606 -6.28279 0
M  V30 2198 H 203.102 3.35028 -4.54331 0
M  V30 2199 N 202.5 1.5196 0.417844 0
M  V30 2200 C 203.916 1.40569 0.755816 0
M  V30 2201 C 204.116 0.503316 1.95113 0
M  V30 2202 O 203.172 -0.0341925 2.52477 0
M  V30 2203 C 204.485 2.82947 1.01791 0
M  V30 2204 C 206.033 2.92231 1.12116 0
M  V30 2205 C 206.508 4.35559 1.41608 0
M  V30 2206 N 207.999 4.38753 1.48491 0
M  V30 2207 C 208.734 5.46705 1.7292 0
M  V30 2208 N 208.23 6.64788 1.95011 0
M  V30 2209 N 210.023 5.34209 1.74863 0
M  V30 2210 H 202.174 2.09168 -0.369098 0
M  V30 2211 H 204.437 0.942409 -0.102809 0
M  V30 2212 H 204.143 3.5106 0.212081 0
M  V30 2213 H 204.017 3.23462 1.94042 0
M  V30 2214 H 206.404 2.24304 1.9176 0
M  V30 2215 H 206.485 2.55185 0.177225 0
M  V30 2216 H 206.129 5.04042 0.624848 0
M  V30 2217 H 206.059 4.70133 2.37239 0
M  V30 2218 H 208.55 3.5363 1.33244 0
M  V30 2219 H 208.863 7.42845 2.13076 0
M  V30 2220 H 207.208 6.67869 1.92293 0
M  V30 2221 H 210.399 4.40937 1.57137 0
M  V30 2222 H 210.572 6.18415 1.93563 0
M  V30 2223 N 203.978 -0.674533 1.42435 0
M  V30 2224 C 204.941 -1.76986 1.45632 0
M  V30 2225 C 205.941 -1.5708 0.343871 0
M  V30 2226 O 207.131 -1.63367 0.604709 0
M  V30 2227 C 204.263 -3.15623 1.28822 0
M  V30 2228 H 205.456 -1.75539 2.43158 0
M  V30 2229 H 203.009 -0.884189 1.28887 0
M  V30 2230 H 203.744 -3.22696 0.322193 0
M  V30 2231 H 203.529 -3.31475 2.09444 0
M  V30 2232 H 205.019 -3.95537 1.33942 0
M  V30 2233 N 205.456 -1.28612 -0.910864 0
M  V30 2234 C 206.419 -1.12803 -1.9952 0
M  V30 2235 C 207.419 -0.0668264 -1.60661 0
M  V30 2236 O 208.609 -0.312847 -1.71368 0
M  V30 2237 C 205.741 -0.72254 -3.33155 0
M  V30 2238 H 206.934 -2.09109 -2.14973 0
M  V30 2239 H 204.487 -1.11639 -1.09391 0
M  V30 2240 H 205.222 0.241152 -3.23402 0
M  V30 2241 H 205.007 -1.48916 -3.62721 0
M  V30 2242 H 206.497 -0.634666 -4.12749 0
M  V30 2243 N 206.934 1.1197 -1.10907 0
M  V30 2244 C 208.182 1.83225 -0.852819 0
M  V30 2245 C 208.503 1.84769 0.623341 0
M  V30 2246 O 207.773 1.3143 1.45269 0
M  V30 2247 H 206.353 0.67849 -0.312507 0
M  V30 2248 H 209.015 1.3556 -1.40033 0
M  V30 2249 H 208.111 2.87265 -1.22005 0
M  V30 2250 N 208.412 0.89855 1.29475 0
M  V30 2251 C 209.828 0.594483 1.48115 0
M  V30 2252 C 210.028 -0.86431 1.82022 0
M  V30 2253 O 209.084 -1.64457 1.91599 0
M  V30 2254 C 210.397 1.51932 2.59494 0
M  V30 2255 C 211.945 1.5244 2.7337 0
M  V30 2256 C 212.42 2.43548 3.87877 0
M  V30 2257 N 213.911 2.41589 3.95208 0
M  V30 2258 C 214.646 3.08789 4.83153 0
M  V30 2259 N 214.142 3.85265 5.75798 0
M  V30 2260 N 215.935 2.97952 4.76635 0
M  V30 2261 H 208.086 1.84207 1.05742 0
M  V30 2262 H 210.349 0.789251 0.525154 0
M  V30 2263 H 210.055 2.55865 2.41301 0
M  V30 2264 H 209.929 1.23899 3.56271 0
M  V30 2265 H 212.316 0.492518 2.90961 0
M  V30 2266 H 212.397 1.8451 1.77172 0
M  V30 2267 H 212.041 3.46829 3.71041 0
M  V30 2268 H 211.971 2.08788 4.83441 0
M  V30 2269 H 214.462 1.86025 3.28943 0
M  V30 2270 H 214.775 4.33598 6.39697 0
M  V30 2271 H 213.12 3.89371 5.75687 0
M  V30 2272 H 216.311 2.37723 4.03244 0
M  V30 2273 H 216.484 3.50599 5.44962 0
M  V30 2274 N 209.89 -1.43072 0.660911 0
M  V30 2275 C 211.167 -1.95307 0.107017 0
M  V30 2276 C 211.547 -1.60192 -1.37484 0
M  V30 2277 O 210.895 -0.890949 -2.10415 0
M  V30 2278 C 211.105 -3.47124 0.361402 0
M  V30 2279 C 212.453 -4.23738 0.270455 0
M  V30 2280 O 213.477 -3.54981 0.294382 0
M  V30 2281 O 212.336 -5.46131 0.200737 0
M  V30 2282 H 209.43 -0.826984 -0.00517729 0
M  V30 2283 H 211.976 -1.52972 0.734681 0
M  V30 2284 H 210.748 -3.65837 1.38848 0
M  V30 2285 H 210.371 -3.96475 -0.298953 0
M  V30 2286 N 211.368 -0.403325 -1.52352 0
M  V30 2287 C 212.3 0.4603 -2.2453 0
M  V30 2288 C 213.313 1.01505 -1.27282 0
M  V30 2289 O 214.502 0.914982 -1.53266 0
M  V30 2290 C 211.602 1.65208 -2.95905 0
M  V30 2291 C 210.775 1.22224 -4.19976 0
M  V30 2292 C 209.834 2.28028 -4.74226 0
M  V30 2293 O 208.86 1.88857 -5.36956 0
M  V30 2294 N 210.062 3.6012 -4.55295 0
M  V30 2295 H 212.827 -0.158156 -2.99282 0
M  V30 2296 H 210.388 -0.230402 -1.60252 0
M  V30 2297 H 212.38 2.35541 -3.29093 0
M  V30 2298 H 210.95 2.17658 -2.24374 0
M  V30 2299 H 210.17 0.34725 -3.92668 0
M  V30 2300 H 211.458 0.911924 -5.00561 0
M  V30 2301 H 210.856 3.94698 -4.05253 0
M  V30 2302 H 209.413 4.26447 -4.92936 0
M  V30 2303 N 212.846 1.57033 -0.133567 0
M  V30 2304 C 213.776 2.1909 0.807567 0
M  V30 2305 C 214.757 1.13517 1.26681 0
M  V30 2306 O 215.942 1.41809 1.32679 0
M  V30 2307 C 213.072 2.80188 2.05212 0
M  V30 2308 C 212.026 3.91471 1.73015 0
M  V30 2309 C 211.352 4.39443 3.04622 0
M  V30 2310 C 212.652 5.12886 0.987168 0
M  V30 2311 H 214.346 2.97988 0.290403 0
M  V30 2312 H 211.892 1.43335 0.138239 0
M  V30 2313 H 213.845 3.22264 2.71521 0
M  V30 2314 H 212.569 1.98601 2.59278 0
M  V30 2315 H 211.228 3.49993 1.0909 0
M  V30 2316 H 210.876 3.54695 3.56651 0
M  V30 2317 H 210.576 5.14495 2.83847 0
M  V30 2318 H 212.1 4.8418 3.72024 0
M  V30 2319 H 213.514 5.51891 1.55208 0
M  V30 2320 H 211.911 5.93615 0.87985 0
M  V30 2321 H 212.981 4.84894 -0.0235286 0
M  V30 2322 N 214.325 -0.140222 1.56975 0
M  V30 2323 C 215.571 -0.852949 1.83991 0
M  V30 2324 C 215.904 -1.80512 0.716187 0
M  V30 2325 O 215.179 -1.92479 -0.279681 0
M  V30 2326 C 215.462 -1.6215 3.21527 0
M  V30 2327 C 215.315 -0.690363 4.4447 0
M  V30 2328 C 216.634 -2.58247 3.56366 0
M  V30 2329 H 213.753 -0.308634 0.669264 0
M  V30 2330 H 216.395 -0.117898 1.89634 0
M  V30 2331 H 214.545 -2.24812 3.16847 0
M  V30 2332 H 216.217 -0.0742264 4.6124 0
M  V30 2333 H 214.46 -0.000396433 4.338 0
M  V30 2334 H 215.131 -1.2643 5.37326 0
M  V30 2335 H 217.607 -2.05701 3.61699 0
M  V30 2336 H 216.483 -3.09067 4.53617 0
M  V30 2337 H 216.744 -3.39923 2.82674 0
M  V30 2338 N 215.803 -1.52179 -0.40978 0
M  V30 2339 C 216.733 -1.78435 -1.5061 0
M  V30 2340 C 217.714 -0.635295 -1.57791 0
M  V30 2341 O 218.899 -0.880823 -1.73076 0
M  V30 2342 C 216.029 -1.93444 -2.88439 0
M  V30 2343 C 214.983 -3.09038 -2.96108 0
M  V30 2344 C 214.309 -3.09268 -4.36185 0
M  V30 2345 C 215.609 -4.48508 -2.67652 0
M  V30 2346 H 217.303 -2.70237 -1.28889 0
M  V30 2347 H 214.849 -1.30036 -0.618605 0
M  V30 2348 H 216.802 -2.10394 -3.65119 0
M  V30 2349 H 215.526 -0.983129 -3.11452 0
M  V30 2350 H 214.185 -2.91837 -2.21872 0
M  V30 2351 H 213.833 -2.11861 -4.56206 0
M  V30 2352 H 213.533 -3.86907 -4.42241 0
M  V30 2353 H 215.057 -3.28348 -5.14801 0
M  V30 2354 H 216.471 -4.65918 -3.34056 0
M  V30 2355 H 214.868 -5.28059 -2.85085 0
M  V30 2356 H 215.938 -4.56649 -1.63095 0
M  V30 2357 N 217.281 0.66697 -1.42791 0
M  V30 2358 C 218.521 1.43892 -1.4517 0
M  V30 2359 C 218.885 1.91877 -0.0687551 0
M  V30 2360 O 220.086 2.6878 0.0327455 0
M  V30 2361 C 218.357 2.59839 -2.45395 0
M  V30 2362 S 219.916 3.48572 -2.66539 0
M  V30 2363 H 216.734 0.491356 -0.513897 0
M  V30 2364 H 219.336 0.775656 -1.79454 0
M  V30 2365 H 218.04 2.22838 -3.44632 0
M  V30 2366 H 217.571 3.3103 -2.12562 0
M  V30 2367 H 219.586 4.56094 -1.95429 0
M  V30 2368 N 218.759 1.29093 0.90403 0
M  V30 2369 C 220.007 1.16583 1.65085 0
M  V30 2370 C 220.328 -0.283933 1.92922 0
M  V30 2371 O 219.598 -1.19509 1.55224 0
M  V30 2372 H 218.178 0.428467 0.611903 0
M  V30 2373 H 220.84 1.61959 1.08422 0
M  V30 2374 H 219.936 1.71266 2.6091 0
M  V30 2375 N 220.237 -1.11381 1.11499 0
M  V30 2376 C 221.483 -1.83403 0.865512 0
M  V30 2377 C 221.816 -1.84459 -0.607329 0
M  V30 2378 O 221.091 -1.29811 -1.44842 0
M  V30 2379 C 221.374 -3.30552 1.42855 0
M  V30 2380 C 221.227 -3.37886 2.96906 0
M  V30 2381 C 222.546 -4.26643 1.08 0
M  V30 2382 H 219.665 -0.665879 0.31587 0
M  V30 2383 H 222.307 -1.30601 1.37998 0
M  V30 2384 H 220.457 -3.75648 0.990985 0
M  V30 2385 H 222.129 -3.01343 3.49271 0
M  V30 2386 H 220.372 -2.78088 3.32941 0
M  V30 2387 H 221.043 -4.41458 3.31389 0
M  V30 2388 H 223.519 -3.89729 1.45775 0
M  V30 2389 H 222.395 -5.27986 1.50072 0
M  V30 2390 H 222.656 -4.42099 -0.00915037 0
M  V30 2391 N 221.715 -0.905404 -1.28997 0
M  V30 2392 C 222.945 -0.549049 -1.99171 0
M  V30 2393 C 223.353 0.87203 -1.67906 0
M  V30 2394 O 222.696 1.58796 -0.923561 0
M  V30 2395 C 222.758 -0.668306 -3.53234 0
M  V30 2396 C 222.422 -2.0574 -4.08069 0
M  V30 2397 C 223.419 -3.0292 -4.22534 0
M  V30 2398 C 221.104 -2.36833 -4.42962 0
M  V30 2399 C 223.098 -4.29314 -4.71135 0
M  V30 2400 C 220.785 -3.63467 -4.91258 0
M  V30 2401 C 221.783 -4.59522 -5.053 0
M  V30 2402 O 221.471 -5.83907 -5.52546 0
M  V30 2403 H 221.203 -0.208784 -0.64295 0
M  V30 2404 H 223.757 -1.21836 -1.65363 0
M  V30 2405 H 221.987 0.0580547 -3.86656 0
M  V30 2406 H 223.676 -0.320273 -4.04634 0
M  V30 2407 H 224.442 -2.80216 -3.95859 0
M  V30 2408 H 220.321 -1.62824 -4.31288 0
M  V30 2409 H 223.865 -5.04293 -4.8201 0
M  V30 2410 H 219.762 -3.86 -5.17372 0
M  V30 2411 H 220.53 -5.86578 -5.70849 0
M  V30 2412 N 223.193 1.4272 -0.668489 0
M  V30 2413 C 224.156 2.292 0.00448567 0
M  V30 2414 C 225.156 1.43001 0.735339 0
M  V30 2415 O 226.346 1.64461 0.57429 0
M  V30 2416 C 223.478 3.25375 1.01705 0
M  V30 2417 H 224.671 2.90199 -0.756608 0
M  V30 2418 H 222.224 1.50254 -0.430506 0
M  V30 2419 H 222.959 2.69301 1.80686 0
M  V30 2420 H 222.744 3.88944 0.496463 0
M  V30 2421 H 224.234 3.90245 1.48655 0
M  V30 2422 N 224.671 0.411399 1.52136 0
M  V30 2423 C 225.621 -0.430376 2.23901 0
M  V30 2424 C 226.605 -1.0116 1.25121 0
M  V30 2425 O 227.797 -0.934044 1.50348 0
M  V30 2426 C 224.926 -1.54527 3.06556 0
M  V30 2427 C 224.012 -0.9747 4.12747 0
M  V30 2428 N 224.403 -0.130991 5.0563 0
M  V30 2429 C 222.701 -1.24497 4.28271 0
M  V30 2430 C 223.402 0.186689 5.814 0
M  V30 2431 N 222.378 -0.42304 5.41951 0
M  V30 2432 H 226.18 0.220509 2.93072 0
M  V30 2433 H 223.694 0.221952 1.60876 0
M  V30 2434 H 225.691 -2.16093 3.56524 0
M  V30 2435 H 224.351 -2.19875 2.38925 0
M  V30 2436 H 225.362 0.23349 5.17373 0
M  V30 2437 H 222.039 -1.89787 3.7187 0
M  V30 2438 H 223.429 0.871673 6.66222 0
M  V30 2439 N 226.149 -1.5696 0.141893 0
M  V30 2440 C 227.395 -1.9625 -0.511248 0
M  V30 2441 C 227.728 -1.02654 -1.64851 0
M  V30 2442 O 227.003 -0.0679676 -1.94381 0
M  V30 2443 C 227.286 -3.45285 -1.02227 0
M  V30 2444 C 227.139 -4.49658 0.113138 0
M  V30 2445 C 228.458 -3.96698 -1.90574 0
M  V30 2446 H 225.577 -0.713567 -0.184367 0
M  V30 2447 H 228.219 -1.88698 0.222087 0
M  V30 2448 H 226.369 -3.51852 -1.64719 0
M  V30 2449 H 228.041 -4.55174 0.749302 0
M  V30 2450 H 226.284 -4.26857 0.773026 0
M  V30 2451 H 226.955 -5.51258 -0.286053 0
M  V30 2452 H 229.431 -3.92578 -1.37918 0
M  V30 2453 H 228.307 -5.01453 -2.2324 0
M  V30 2454 H 228.568 -3.3875 -2.84079 0
M  V30 2455 N 227.627 0.131896 -1.57047 0
M  V30 2456 C 228.875 0.840269 -1.83804 0
M  V30 2457 C 229.196 1.81017 -0.72512 0
M  V30 2458 O 228.466 1.94272 0.251995 0
M  V30 2459 H 227.046 0.313294 -0.678127 0
M  V30 2460 H 229.708 0.122294 -1.94516 0
M  V30 2461 H 228.804 1.39335 -2.79271 0
M  V30 2462 N 229.106 1.52395 0.401703 0
M  V30 2463 C 230.352 1.67065 1.14966 0
M  V30 2464 C 230.685 0.403052 1.89971 0
M  V30 2465 O 229.96 -0.598774 1.85054 0
M  V30 2466 C 230.243 2.8975 2.13815 0
M  V30 2467 C 230.096 4.26578 1.42658 0
M  V30 2468 C 231.415 3.07965 3.14397 0
M  V30 2469 H 228.534 0.607968 0.416587 0
M  V30 2470 H 231.176 1.84965 0.434511 0
M  V30 2471 H 229.326 2.74619 2.74803 0
M  V30 2472 H 230.998 4.53451 0.847329 0
M  V30 2473 H 229.241 4.27639 0.72849 0
M  V30 2474 H 229.912 5.08483 2.14823 0
M  V30 2475 H 232.388 3.22043 2.63491 0
M  V30 2476 H 231.264 3.95308 3.80819 0
M  V30 2477 H 231.525 2.21611 3.82545 0
M  V30 2478 N 230.584 -0.659388 1.43143 0
M  V30 2479 C 231.514 -1.78422 1.50625 0
M  V30 2480 C 232.495 -1.66216 0.361443 0
M  V30 2481 O 233.68 -1.85404 0.577834 0
M  V30 2482 C 230.81 -3.16815 1.42287 0
M  V30 2483 C 229.764 -3.43777 2.54954 0
M  V30 2484 C 229.09 -4.81905 2.31671 0
M  V30 2485 C 230.39 -3.39134 3.97222 0
M  V30 2486 H 232.084 -1.72417 2.44771 0
M  V30 2487 H 229.63 -0.828084 1.17808 0
M  V30 2488 H 231.583 -3.95253 1.46127 0
M  V30 2489 H 230.307 -3.23534 0.446435 0
M  V30 2490 H 228.966 -2.67707 2.50457 0
M  V30 2491 H 228.614 -4.85294 1.32284 0
M  V30 2492 H 228.314 -5.00906 3.07192 0
M  V30 2493 H 229.838 -5.62609 2.37284 0
M  V30 2494 H 231.252 -4.07518 4.03239 0
M  V30 2495 H 229.649 -3.69671 4.72719 0
M  V30 2496 H 230.719 -2.37426 4.22797 0
M  V30 2497 N 232.062 -1.29571 -0.897171 0
M  V30 2498 C 233.311 -1.1706 -1.64256 0
M  V30 2499 C 233.624 0.276476 -1.93636 0
M  V30 2500 O 234.83 0.52294 -2.66416 0
M  V30 2501 C 233.286 -2.0475 -2.95982 0
M  V30 2502 C 232.894 -3.54295 -2.74187 0
M  V30 2503 C 234.638 -2.0097 -3.73914 0
M  V30 2504 C 232.545 -4.34081 -4.01656 0
M  V30 2505 H 231.475 -0.43452 -0.616205 0
M  V30 2506 H 234.126 -1.54229 -0.994268 0
M  V30 2507 H 232.508 -1.60452 -3.62038 0
M  V30 2508 H 233.682 -4.06662 -2.1671 0
M  V30 2509 H 231.997 -3.59773 -2.09648 0
M  V30 2510 H 234.594 -2.57838 -4.68427 0
M  V30 2511 H 234.937 -0.990273 -4.0435 0
M  V30 2512 H 235.47 -2.43325 -3.14703 0
M  V30 2513 H 232.209 -5.36671 -3.76384 0
M  V30 2514 H 231.729 -3.86483 -4.58684 0
M  V30 2515 H 233.408 -4.44877 -4.69781 0
M  V30 2516 N 233.54 1.10788 -1.12088 0
M  V30 2517 C 234.765 1.87002 -0.896949 0
M  V30 2518 C 235.19 1.79933 0.548261 0
M  V30 2519 O 234.548 1.16662 1.38779 0
M  V30 2520 C 234.596 3.3349 -1.37174 0
M  V30 2521 O 233.7 4.08745 -0.547831 0
M  V30 2522 H 233.041 0.580397 -0.322545 0
M  V30 2523 H 235.571 1.39996 -1.49206 0
M  V30 2524 H 235.581 3.84339 -1.36922 0
M  V30 2525 H 234.256 3.37951 -2.42408 0
M  V30 2526 H 232.833 3.6776 -0.617034 0
M  V30 2527 N 235.018 0.912232 1.28515 0
M  V30 2528 C 236.246 0.560416 1.99166 0
M  V30 2529 C 236.661 -0.857927 1.68182 0
M  V30 2530 O 236.018 -1.56805 0.933733 0
M  V30 2531 C 236.069 0.758142 3.53461 0
M  V30 2532 O 235.79 2.12067 3.83352 0
M  V30 2533 C 237.291 0.412954 4.41372 0
M  V30 2534 H 234.511 0.213805 0.636026 0
M  V30 2535 H 237.055 1.22502 1.63749 0
M  V30 2536 H 235.21 0.140556 3.87145 0
M  V30 2537 H 235.624 2.15923 4.77993 0
M  V30 2538 H 237.098 0.60208 5.48707 0
M  V30 2539 H 237.575 -0.65073 4.34353 0
M  V30 2540 H 238.181 1.00802 4.13182 0
M  V30 2541 N 236.496 -1.42363 0.676048 0
M  V30 2542 C 237.742 -2.0182 0.199125 0
M  V30 2543 C 238.075 -1.53339 -1.19168 0
M  V30 2544 O 237.35 -0.736124 -1.80032 0
M  V30 2545 C 237.633 -3.59331 0.235144 0
M  V30 2546 C 237.486 -4.17989 1.66149 0
M  V30 2547 C 238.805 -4.3813 -0.41595 0
M  V30 2548 H 235.924 -0.733293 0.0738311 0
M  V30 2549 H 238.566 -1.69368 0.86107 0
M  V30 2550 H 236.716 -3.87109 -0.328487 0
M  V30 2551 H 238.388 -4.0116 2.27747 0
M  V30 2552 H 236.631 -3.7377 2.20178 0
M  V30 2553 H 237.302 -5.27126 1.63837 0
M  V30 2554 H 239.778 -4.16051 0.0638529 0
M  V30 2555 H 238.654 -5.47717 -0.360115 0
M  V30 2556 H 238.915 -4.16101 -1.49373 0
M  V30 2557 N 237.974 -0.419461 -1.51915 0
M  V30 2558 C 239.251 0.211999 -1.94448 0
M  V30 2559 C 239.631 1.61703 -1.35703 0
M  V30 2560 O 238.979 2.22102 -0.536931 0
M  V30 2561 C 239.189 0.207872 -3.4838 0
M  V30 2562 C 240.537 0.422192 -4.22496 0
M  V30 2563 O 241.561 0.286778 -3.55044 0
M  V30 2564 O 240.42 0.690009 -5.42126 0
M  V30 2565 H 237.514 0.139586 -0.815135 0
M  V30 2566 H 240.06 -0.476151 -1.62883 0
M  V30 2567 H 238.832 -0.775102 -3.83546 0
M  V30 2568 H 238.455 0.939688 -3.86336 0
M  V30 2569 N 239.452 1.56882 -0.150215 0
M  V30 2570 C 240.415 2.1573 0.774157 0
M  V30 2571 C 241.415 1.0999 1.17298 0
M  V30 2572 O 242.605 1.35613 1.09338 0
M  V30 2573 C 239.737 2.72302 2.05096 0
M  V30 2574 H 240.93 2.98752 0.262201 0
M  V30 2575 H 238.483 1.55985 0.099248 0
M  V30 2576 H 239.218 1.92956 2.6065 0
M  V30 2577 H 239.003 3.49665 1.77416 0
M  V30 2578 H 240.493 3.17632 2.71109 0
M  V30 2579 N 240.93 -0.123565 1.57115 0
M  V30 2580 C 242.16 -0.845233 1.88519 0
M  V30 2581 C 242.568 -1.74168 0.739064 0
M  V30 2582 O 241.911 -1.81244 -0.299355 0
M  V30 2583 C 241.973 -1.73452 3.14888 0
M  V30 2584 C 241.637 -1.01285 4.45635 0
M  V30 2585 C 242.634 -0.355774 5.18681 0
M  V30 2586 C 240.319 -0.99538 4.92339 0
M  V30 2587 C 242.313 0.309114 6.3665 0
M  V30 2588 C 240 -0.32669 6.10226 0
M  V30 2589 C 240.998 0.324406 6.82229 0
M  V30 2590 O 240.686 0.982437 7.97874 0
M  V30 2591 H 240.418 -0.248534 0.628655 0
M  V30 2592 H 242.972 -0.113907 2.05084 0
M  V30 2593 H 241.202 -2.50737 2.94394 0
M  V30 2594 H 242.891 -2.33021 3.32349 0
M  V30 2595 H 243.657 -0.360918 4.83655 0
M  V30 2596 H 239.536 -1.49159 4.36202 0
M  V30 2597 H 243.08 0.8179 6.92789 0
M  V30 2598 H 238.977 -0.319294 6.4471 0
M  V30 2599 H 239.745 0.886454 8.13686 0
M  V30 2600 N 242.408 -1.52605 -0.393616 0
M  V30 2601 C 243.633 -1.71592 -1.16495 0
M  V30 2602 C 244.058 -0.43133 -1.83088 0
M  V30 2603 O 243.416 0.612523 -1.7064 0
M  V30 2604 C 243.464 -2.86318 -2.19213 0
M  V30 2605 O 242.568 -2.52969 -3.257 0
M  V30 2606 H 241.909 -0.570734 -0.33935 0
M  V30 2607 H 244.439 -1.99377 -0.459324 0
M  V30 2608 H 244.449 -3.1168 -2.63286 0
M  V30 2609 H 243.124 -3.79511 -1.7013 0
M  V30 2610 H 241.701 -2.38332 -2.86797 0
M  V30 2611 N 243.887 0.651787 -1.4349 0
M  V30 2612 C 244.835 1.78586 -1.49029 0
M  V30 2613 C 245.829 1.65448 -0.363767 0
M  V30 2614 O 247.035 1.71777 -0.537821 0
M  V30 2615 H 243.41 0.589236 -0.467231 0
M  V30 2616 H 245.381 1.71035 -2.44519 0
M  V30 2617 C 244.13 3.16851 -1.43181 0
M  V30 2618 H 243.453 3.27598 -2.29171 0
M  V30 2619 H 244.893 3.96156 -1.51118 0
M  V30 2620 C 243.352 3.36568 -0.149616 0
M  V30 2621 O 243.882 3.93885 0.788509 0
M  V30 2622 N 242.088 2.90539 -0.0593484 0
M  V30 2623 H 241.635 2.4408 -0.823575 0
M  V30 2624 H 241.593 3.04108 0.797853 0
M  V30 2625 N 245.365 1.30045 0.890287 0
M  V30 2626 C 246.642 1.09227 1.62262 0
M  V30 2627 C 247.022 -0.360305 2.08002 0
M  V30 2628 O 246.37 -1.35084 1.84295 0
M  V30 2629 C 246.58 2.08835 2.79623 0
M  V30 2630 C 247.928 2.40266 3.50082 0
M  V30 2631 O 248.952 2.07104 2.89804 0
M  V30 2632 O 247.811 2.96967 4.58773 0
M  V30 2633 H 244.905 0.419132 0.712922 0
M  V30 2634 H 247.451 1.41451 0.937529 0
M  V30 2635 H 246.223 3.06633 2.43089 0
M  V30 2636 H 245.846 1.77397 3.55832 0
M  V30 2637 N 246.843 -1.10192 1.12674 0
M  V30 2638 C 248.092 -1.81573 0.8783 0
M  V30 2639 C 248.405 -1.86249 -0.597557 0
M  V30 2640 O 249.611 -2.5386 -0.962681 0
M  V30 2641 C 248.067 -3.26149 1.52167 0
M  V30 2642 C 247.675 -3.29763 3.03249 0
M  V30 2643 C 249.419 -4.0234 1.3536 0
M  V30 2644 C 247.326 -4.68815 3.60508 0
M  V30 2645 H 246.256 -0.680394 0.324931 0
M  V30 2646 H 248.907 -1.23902 1.35353 0
M  V30 2647 H 247.289 -3.83832 0.974104 0
M  V30 2648 H 248.463 -2.8189 3.6452 0
M  V30 2649 H 246.778 -2.67059 3.19481 0
M  V30 2650 H 249.375 -5.05058 1.75559 0
M  V30 2651 H 249.718 -4.15235 0.297554 0
M  V30 2652 H 250.251 -3.51079 1.87052 0
M  V30 2653 H 246.99 -4.61121 4.65884 0
M  V30 2654 H 246.51 -5.17045 3.04014 0
M  V30 2655 H 248.189 -5.37785 3.59717 0
M  V30 2656 N 248.321 -0.919034 -1.28029 0
M  V30 2657 C 249.253 -0.368762 -2.26214 0
M  V30 2658 C 250.266 0.495716 -1.55069 0
M  V30 2659 O 251.455 0.30974 -1.75792 0
M  V30 2660 C 248.555 0.491049 -3.35324 0
M  V30 2661 C 247.728 -0.352133 -4.3598 0
M  V30 2662 C 246.787 0.443622 -5.24327 0
M  V30 2663 O 245.813 -0.14566 -5.69014 0
M  V30 2664 N 247.015 1.74545 -5.53637 0
M  V30 2665 H 249.78 -1.21273 -2.74068 0
M  V30 2666 H 247.341 -0.785541 -1.41566 0
M  V30 2667 H 249.333 1.03026 -3.91366 0
M  V30 2668 H 247.903 1.23574 -2.87138 0
M  V30 2669 H 247.123 -1.07269 -3.79324 0
M  V30 2670 H 248.411 -0.928883 -5.00249 0
M  V30 2671 H 247.809 2.24666 -5.19174 0
M  V30 2672 H 246.366 2.23138 -6.12416 0
M  V30 2673 N 249.799 1.42003 -0.683588 0
M  V30 2674 C 251.21 1.84501 -0.285736 0
M  V30 2675 C 251.561 1.57213 1.17382 0
M  V30 2676 O 250.686 1.03642 1.89966 0
M  V30 2677 C 251.281 3.34912 -0.511821 0
M  V30 2678 C 249.84 3.76025 -0.168005 0
M  V30 2679 C 248.987 2.6551 -0.799983 0
M  V30 2680 H 251.938 1.31724 -0.885119 0
M  V30 2681 H 251.959 3.79784 0.233292 0
M  V30 2682 H 251.471 3.54741 -1.57418 0
M  V30 2683 H 249.572 3.61801 0.890567 0
M  V30 2684 H 249.685 4.75141 -0.614661 0
M  V30 2685 H 248.049 2.53654 -0.230568 0
M  V30 2686 H 248.832 2.8816 -1.86597 0
M  V30 2687 N 251.277 0.427512 1.51691 0
M  V30 2688 C 252.524 -0.142229 2.02 0
M  V30 2689 C 252.852 -1.43566 1.31221 0
M  V30 2690 O 252.107 -1.91298 0.412744 0
M  V30 2691 C 252.406 -0.418249 3.54944 0
M  V30 2692 C 252.072 0.788187 4.43958 0
M  V30 2693 C 250.734 1.11906 4.68007 0
M  V30 2694 C 253.086 1.59347 4.96244 0
M  V30 2695 C 250.414 2.25608 5.41588 0
M  V30 2696 C 252.766 2.7214 5.71072 0
M  V30 2697 C 251.43 3.05692 5.93387 0
M  V30 2698 H 250.7 -0.0520451 0.73917 0
M  V30 2699 H 253.347 0.572697 1.82736 0
M  V30 2700 H 251.652 -1.21496 3.72486 0
M  V30 2701 H 253.349 -0.872339 3.91397 0
M  V30 2702 H 249.939 0.520344 4.2543 0
M  V30 2703 H 254.123 1.35106 4.77556 0
M  V30 2704 H 249.379 2.51929 5.57083 0
M  V30 2705 H 253.553 3.34914 6.10578 0
M  V30 2706 H 251.18 3.9391 6.50184 0
M  V30 2707 N 252.755 -1.56801 0.158532 0
M  V30 2708 C 253.685 -2.20347 -0.772609 0
M  V30 2709 C 254.666 -1.15518 -1.24859 0
M  V30 2710 O 255.851 -1.43902 -1.30406 0
M  V30 2711 C 252.981 -2.83417 -2.00729 0
M  V30 2712 C 251.935 -3.94174 -1.66765 0
M  V30 2713 C 251.261 -4.44233 -2.97592 0
M  V30 2714 C 252.561 -5.14392 -0.905447 0
M  V30 2715 H 254.255 -2.98413 -0.242959 0
M  V30 2716 H 251.801 -1.43537 -0.115419 0
M  V30 2717 H 253.754 -3.26543 -2.6636 0
M  V30 2718 H 252.478 -2.02701 -2.56086 0
M  V30 2719 H 251.137 -3.51684 -1.03508 0
M  V30 2720 H 250.785 -3.60325 -3.50963 0
M  V30 2721 H 250.485 -5.18945 -2.75626 0
M  V30 2722 H 252.009 -4.90037 -3.64274 0
M  V30 2723 H 253.423 -5.5429 -1.46408 0
M  V30 2724 H 251.82 -5.9494 -0.7853 0
M  V30 2725 H 252.89 -4.84795 0.100668 0
M  V30 2726 N 254.233 0.115231 -1.57178 0
M  V30 2727 C 255.479 0.82357 -1.85325 0
M  V30 2728 C 255.812 1.79349 -0.744814 0
M  V30 2729 O 255.087 1.92899 0.249024 0
M  V30 2730 C 255.37 1.57014 -3.24066 0
M  V30 2731 C 255.223 0.619565 -4.45513 0
M  V30 2732 C 256.542 2.52545 -3.60429 0
M  V30 2733 H 253.661 0.297948 -0.674089 0
M  V30 2734 H 256.303 0.0877138 -1.89797 0
M  V30 2735 H 254.453 2.19742 -3.20383 0
M  V30 2736 H 256.125 0.000837639 -4.613 0
M  V30 2737 H 254.368 -0.0686174 -4.33746 0
M  V30 2738 H 255.039 1.17866 -5.3927 0
M  V30 2739 H 257.515 1.9992 -3.64926 0
M  V30 2740 H 256.391 3.01811 -4.58477 0
M  V30 2741 H 256.652 3.35383 -2.88047 0
M  V30 2742 N 255.711 1.52812 0.385517 0
M  V30 2743 C 256.674 1.77188 1.45386 0
M  V30 2744 C 257.674 0.641953 1.4743 0
M  V30 2745 O 258.864 0.910033 1.4854 0
M  V30 2746 C 255.996 1.87582 2.8465 0
M  V30 2747 H 257.189 2.72583 1.25054 0
M  V30 2748 H 254.742 1.43586 0.617467 0
M  V30 2749 H 255.477 0.941849 3.10322 0
M  V30 2750 H 255.262 2.69748 2.84567 0
M  V30 2751 H 256.752 2.08102 3.62054 0
M  V30 2752 N 257.189 -0.644168 1.43834 0
M  V30 2753 C 258.466 -1.40188 1.36406 0
M  V30 2754 C 258.846 -2.11094 0.0163124 0
M  V30 2755 O 258.194 -2.05426 -1.00062 0
M  V30 2756 C 258.404 -2.3791 2.55343 0
M  V30 2757 C 259.752 -3.01637 2.98832 0
M  V30 2758 O 260.776 -2.48237 2.55455 0
M  V30 2759 O 259.635 -3.98477 3.74003 0
M  V30 2760 H 256.729 -0.626773 0.539523 0
M  V30 2761 H 259.275 -0.670317 1.559 0
M  V30 2762 H 258.047 -1.84525 3.4506 0
M  V30 2763 H 257.67 -3.18503 2.37995 0
M  V30 2764 N 258.668 -1.30515 -0.883378 0
M  V30 2765 C 259.631 -1.1701 -1.97082 0
M  V30 2766 C 260.631 -0.10089 -1.60483 0
M  V30 2767 O 261.821 -0.349127 -1.70666 0
M  V30 2768 C 258.953 -0.793045 -3.31547 0
M  V30 2769 H 260.146 -2.13622 -2.10489 0
M  V30 2770 H 257.699 -1.13935 -1.06998 0
M  V30 2771 H 258.434 0.172499 -3.23841 0
M  V30 2772 H 258.219 -1.56576 -3.5948 0
M  V30 2773 H 259.709 -0.722073 -4.1131 0
M  V30 2774 N 260.146 1.09593 -1.13257 0
M  V30 2775 C 261.395 1.81105 -0.887917 0
M  V30 2776 C 261.708 1.86563 0.587672 0
M  V30 2777 O 262.914 2.54367 0.949204 0
M  V30 2778 C 261.37 3.25338 -1.53895 0
M  V30 2779 C 260.978 3.28151 -3.04994 0
M  V30 2780 C 262.722 4.01617 -1.37492 0
M  V30 2781 C 260.629 4.66897 -3.6299 0
M  V30 2782 H 259.559 0.678661 -0.328534 0
M  V30 2783 H 262.21 1.23183 -1.36008 0
M  V30 2784 H 260.592 3.8331 -0.994446 0
M  V30 2785 H 261.766 2.79953 -3.66009 0
M  V30 2786 H 260.081 2.65361 -3.20893 0
M  V30 2787 H 262.678 5.04119 -1.78235 0
M  V30 2788 H 263.021 4.15072 -0.31957 0
M  V30 2789 H 263.554 3.50082 -1.88912 0
M  V30 2790 H 260.293 4.58643 -4.68323 0
M  V30 2791 H 259.813 5.15426 -3.06752 0
M  V30 2792 H 261.492 5.3587 -3.62563 0
M  V30 2793 N 261.624 0.925811 1.2754 0
M  V30 2794 C 262.587 0.428129 2.25166 0
M  V30 2795 C 263.587 -0.452261 1.54309 0
M  V30 2796 O 264.777 -0.253608 1.72344 0
M  V30 2797 C 261.909 -0.384749 3.38722 0
M  V30 2798 H 263.102 1.29066 2.70706 0
M  V30 2799 H 260.655 0.706323 1.3943 0
M  V30 2800 H 261.39 -1.26618 2.98561 0
M  V30 2801 H 261.175 0.246454 3.91325 0
M  V30 2802 H 262.665 -0.723389 4.11287 0
M  V30 2803 N 263.102 -1.41638 0.69111 0
M  V30 2804 C 264.379 -1.95036 0.148421 0
M  V30 2805 C 264.759 -1.63072 -1.34055 0
M  V30 2806 O 264.107 -0.93538 -2.08478 0
M  V30 2807 C 264.317 -3.46279 0.434951 0
M  V30 2808 C 265.665 -4.23069 0.360275 0
M  V30 2809 O 266.689 -3.54277 0.369613 0
M  V30 2810 O 265.548 -5.45583 0.316534 0
M  V30 2811 H 262.642 -0.826908 0.0123654 0
M  V30 2812 H 265.188 -1.5138 0.766963 0
M  V30 2813 H 263.96 -3.6281 1.46576 0
M  V30 2814 H 263.583 -3.97019 -0.214787 0
M  V30 2815 N 264.58 -0.43555 -1.51462 0
M  V30 2816 C 265.827 0.131514 -2.02072 0
M  V30 2817 C 266.155 1.42868 -1.31981 0
M  V30 2818 O 265.41 1.91076 -0.422883 0
M  V30 2819 C 265.709 0.39942 -3.55161 0
M  V30 2820 C 265.375 -0.81172 -4.43533 0
M  V30 2821 C 264.037 -1.14387 -4.67407 0
M  V30 2822 C 266.389 -1.61976 -4.95392 0
M  V30 2823 C 263.717 -2.28477 -5.40384 0
M  V30 2824 C 266.069 -2.75164 -5.6962 0
M  V30 2825 C 264.733 -3.08835 -5.91758 0
M  V30 2826 H 264.003 0.0481244 -0.739436 0
M  V30 2827 H 266.65 -0.58238 -1.8243 0
M  V30 2828 H 264.955 1.19519 -3.73125 0
M  V30 2829 H 266.652 0.85157 -3.91854 0
M  V30 2830 H 263.242 -0.542898 -4.25148 0
M  V30 2831 H 267.426 -1.37637 -4.76833 0
M  V30 2832 H 262.682 -2.5488 -5.55739 0
M  V30 2833 H 266.856 -3.38147 -6.08793 0
M  V30 2834 H 264.483 -3.97353 -6.48086 0
M  V30 2835 N 266.058 1.56714 -0.166846 0
M  V30 2836 C 267.283 2.01557 0.488833 0
M  V30 2837 C 267.708 1.0463 1.56314 0
M  V30 2838 O 267.066 0.0251304 1.81283 0
M  V30 2839 C 267.114 3.4503 1.04818 0
M  V30 2840 O 266.218 3.51163 2.16236 0
M  V30 2841 H 265.559 0.653516 0.117526 0
M  V30 2842 H 268.089 2.02818 -0.269421 0
M  V30 2843 H 268.099 3.84243 1.37191 0
M  V30 2844 H 266.774 4.15077 0.261572 0
M  V30 2845 H 265.351 3.23807 1.84942 0
M  V30 2846 N 267.536 -0.106894 1.57237 0
M  V30 2847 C 268.446 -1.14911 2.0453 0
M  V30 2848 C 269.462 -1.44592 0.96795 0
M  V30 2849 O 270.638 -1.55468 1.2803 0
M  V30 2850 C 267.703 -2.45272 2.45036 0
M  V30 2851 C 266.764 -2.22879 3.66911 0
M  V30 2852 C 265.997 -3.47024 4.05475 0
M  V30 2853 O 266.22 -4.54804 3.44252 0
M  V30 2854 O 265.154 -3.3731 4.98504 0
M  V30 2855 H 268.98 -0.777461 2.9358 0
M  V30 2856 H 266.565 -0.318563 1.45964 0
M  V30 2857 H 268.447 -3.22055 2.71769 0
M  V30 2858 H 267.122 -2.81886 1.59129 0
M  V30 2859 H 266.029 -1.43915 3.45311 0
M  V30 2860 H 267.362 -1.91163 4.53561 0
M  V30 2861 N 269.014 -1.53014 -0.377408 0
M  V30 2862 C 269.977 -1.77957 -1.44444 0
M  V30 2863 C 270.977 -0.649763 -1.47087 0
M  V30 2864 O 272.167 -0.917897 -1.48055 0
M  V30 2865 C 269.299 -1.89089 -2.83651 0
M  V30 2866 H 270.492 -2.73243 -1.23606 0
M  V30 2867 H 268.045 -1.43912 -0.609844 0
M  V30 2868 H 268.78 -0.958293 -3.09818 0
M  V30 2869 H 268.565 -2.71254 -2.83132 0
M  V30 2870 H 270.055 -2.1002 -3.60945 0
M  V30 2871 N 270.492 0.636531 -1.44174 0
M  V30 2872 C 271.442 1.74233 -1.47061 0
M  V30 2873 C 272.426 1.57331 -0.337034 0
M  V30 2874 O 273.618 1.67159 -0.581973 0
M  V30 2875 C 270.747 3.12897 -1.41246 0
M  V30 2876 C 269.833 3.35288 -2.59698 0
M  V30 2877 N 270.224 3.2807 -3.84972 0
M  V30 2878 C 268.522 3.66065 -2.54778 0
M  V30 2879 C 269.223 3.51001 -4.63867 0
M  V30 2880 N 268.199 3.73616 -3.94857 0
M  V30 2881 H 272.001 1.67103 -2.41773 0
M  V30 2882 H 269.515 0.838806 -1.3906 0
M  V30 2883 H 271.512 3.92189 -1.41398 0
M  V30 2884 H 270.172 3.21197 -0.47569 0
M  V30 2885 H 271.183 3.07109 -4.17019 0
M  V30 2886 H 267.86 3.81379 -1.6987 0
M  V30 2887 H 269.25 3.51059 -5.72894 0
M  V30 2888 N 271.97 1.30982 0.876444 0
M  V30 2889 C 272.92 1.14688 1.97055 0
M  V30 2890 C 273.904 0.0596593 1.60789 0
M  V30 2891 O 275.096 0.283892 1.74708 0
M  V30 2892 C 272.225 0.849627 3.3262 0
M  V30 2893 C 271.311 1.97752 3.75173 0
M  V30 2894 N 271.702 3.22384 3.89746 0
M  V30 2895 C 270 1.8758 4.04635 0
M  V30 2896 C 270.701 3.96121 4.25985 0
M  V30 2897 N 269.677 3.24237 4.36315 0
M  V30 2898 H 273.479 2.09204 2.06424 0
M  V30 2899 H 270.993 1.22445 1.06682 0
M  V30 2900 H 272.99 0.713895 4.10742 0
M  V30 2901 H 271.65 -0.087376 3.24582 0
M  V30 2902 H 272.661 3.57575 3.74647 0
M  V30 2903 H 269.338 1.01303 4.05024 0
M  V30 2904 H 270.728 5.03491 4.44911 0
M  V30 2905 N 273.449 -1.08991 1.13837 0
M  V30 2906 C 274.865 -1.33312 0.877506 0
M  V30 2907 C 275.065 -1.95587 -0.48456 0
M  V30 2908 O 274.121 -2.20509 -1.23013 0
M  V30 2909 C 275.434 -2.24045 2.0056 0
M  V30 2910 C 276.982 -2.37542 2.03821 0
M  V30 2911 C 277.457 -3.31614 3.15905 0
M  V30 2912 N 278.948 -3.39189 3.15445 0
M  V30 2913 C 279.683 -4.11992 3.98811 0
M  V30 2914 N 279.179 -4.87553 4.92203 0
M  V30 2915 N 280.972 -4.07762 3.86894 0
M  V30 2916 H 273.123 -0.669456 2.01574 0
M  V30 2917 H 275.386 -0.357482 0.878015 0
M  V30 2918 H 275.092 -1.85521 2.98789 0
M  V30 2919 H 274.966 -3.24466 1.92359 0
M  V30 2920 H 277.353 -2.75327 1.06202 0
M  V30 2921 H 277.434 -1.36884 2.16093 0
M  V30 2922 H 277.078 -2.94551 4.13766 0
M  V30 2923 H 277.008 -4.32186 3.0087 0
M  V30 2924 H 279.499 -2.85314 2.47799 0
M  V30 2925 H 279.812 -5.40549 5.52292 0
M  V30 2926 H 278.157 -4.86627 4.96205 0
M  V30 2927 H 281.348 -3.47833 3.13257 0
M  V30 2928 H 281.521 -4.64238 4.52092 0
M  V30 2929 N 274.927 -0.932562 -1.27047 0
M  V30 2930 C 275.86 -0.379774 -2.25018 0
M  V30 2931 C 276.838 0.526587 -1.53837 0
M  V30 2932 O 278.022 0.465992 -1.82649 0
M  V30 2933 C 275.149 0.455187 -3.35627 0
M  V30 2934 C 274.195 -0.388428 -4.24728 0
M  V30 2935 S 275.028 -1.80701 -5.04091 0
M  V30 2936 C 276.184 -0.979865 -6.18182 0
M  V30 2937 H 276.417 -1.2101 -2.71558 0
M  V30 2938 H 273.95 -0.735078 -1.35779 0
M  V30 2939 H 275.908 0.931052 -3.99802 0
M  V30 2940 H 274.569 1.26009 -2.87716 0
M  V30 2941 H 273.762 0.25089 -5.03375 0
M  V30 2942 H 273.364 -0.798649 -3.65373 0
M  V30 2943 H 275.656 -0.218115 -6.77149 0
M  V30 2944 H 276.599 -1.73951 -6.86401 0
M  V30 2945 H 277.007 -0.51973 -5.62102 0
M  V30 2946 N 276.405 1.4127 -0.698611 0
M  V30 2947 C 277.368 2.29158 -0.044132 0
M  V30 2948 C 278.368 1.44529 0.704841 0
M  V30 2949 O 279.558 1.65643 0.539276 0
M  V30 2950 C 276.69 3.27459 0.947809 0
M  V30 2951 H 277.883 2.88529 -0.817994 0
M  V30 2952 H 275.436 1.49307 -0.46228 0
M  V30 2953 H 276.171 2.73073 1.74933 0
M  V30 2954 H 275.956 3.8991 0.41385 0
M  V30 2955 H 277.446 3.93311 1.40344 0
M  V30 2956 N 277.883 0.443576 1.51229 0
M  V30 2957 C 278.813 -0.355142 2.30783 0
M  V30 2958 C 279.794 -1.0154 1.36468 0
M  V30 2959 O 280.979 -1.01785 1.65389 0
M  V30 2960 C 278.109 -1.45312 3.15439 0
M  V30 2961 C 277.063 -0.916002 4.18083 0
M  V30 2962 C 276.389 -2.1102 4.91299 0
M  V30 2963 C 277.689 0.0538602 5.22272 0
M  V30 2964 H 279.383 0.308767 2.97804 0
M  V30 2965 H 276.929 0.149937 1.43217 0
M  V30 2966 H 278.882 -2.01914 3.69876 0
M  V30 2967 H 277.606 -2.14541 2.46252 0
M  V30 2968 H 276.265 -0.372145 3.64706 0
M  V30 2969 H 275.913 -2.78882 4.18609 0
M  V30 2970 H 275.613 -1.75717 5.60712 0
M  V30 2971 H 277.137 -2.68164 5.48562 0
M  V30 2972 H 278.551 -0.422069 5.71744 0
M  V30 2973 H 276.948 0.319776 5.99247 0
M  V30 2974 H 278.018 0.98858 4.74716 0
M  V30 2975 N 279.361 -1.56624 0.175154 0
M  V30 2976 C 280.271 -2.21741 -0.766042 0
M  V30 2977 C 281.287 -1.21023 -1.25018 0
M  V30 2978 O 282.463 -1.53697 -1.3015 0
M  V30 2979 C 279.528 -2.84839 -1.97655 0
M  V30 2980 C 278.589 -4.00769 -1.53892 0
M  V30 2981 C 277.822 -4.60849 -2.69173 0
M  V30 2982 O 278.045 -4.19823 -3.86141 0
M  V30 2983 O 276.979 -5.50655 -2.43028 0
M  V30 2984 H 280.805 -3.02738 -0.241585 0
M  V30 2985 H 278.39 -1.49305 -0.053222 0
M  V30 2986 H 280.272 -3.24834 -2.68442 0
M  V30 2987 H 278.947 -2.06836 -2.48999 0
M  V30 2988 H 277.854 -3.65436 -0.80044 0
M  V30 2989 H 279.187 -4.80376 -1.07236 0
M  V30 2990 N 280.839 0.0985539 -1.57292 0
M  V30 2991 C 282.069 0.815135 -1.8984 0
M  V30 2992 C 282.477 1.7297 -0.766679 0
M  V30 2993 O 281.82 1.81698 0.270483 0
M  V30 2994 C 281.882 1.6842 -3.17608 0
M  V30 2995 C 281.546 0.94182 -4.4719 0
M  V30 2996 C 282.543 0.273212 -5.19182 0
M  V30 2997 C 280.228 0.916927 -4.9386 0
M  V30 2998 C 282.222 -0.410361 -6.36078 0
M  V30 2999 C 279.909 0.229567 -6.10669 0
M  V30 3000 C 280.907 -0.432902 -6.81627 0
M  V30 3001 O 280.595 -1.10925 -7.9621 0
M  V30 3002 H 280.327 0.238501 -0.632529 0
M  V30 3003 H 282.881 0.0812659 -2.05239 0
M  V30 3004 H 281.111 2.46022 -2.98345 0
M  V30 3005 H 282.8 2.27704 -3.36015 0
M  V30 3006 H 283.566 0.283927 -4.84168 0
M  V30 3007 H 279.445 1.42201 -4.3852 0
M  V30 3008 H 282.989 -0.928013 -6.914 0
M  V30 3009 H 278.886 0.216686 -6.45136 0
M  V30 3010 H 279.654 -1.01579 -8.12172 0
M  V30 3011 N 282.317 1.53212 0.369288 0
M  V30 3012 C 283.28 1.7872 1.43498 0
M  V30 3013 C 284.28 0.657554 1.46741 0
M  V30 3014 O 285.47 0.925736 1.47566 0
M  V30 3015 C 282.602 1.90591 2.82645 0
M  V30 3016 H 283.795 2.73894 1.22156 0
M  V30 3017 H 281.348 1.44233 0.602203 0
M  V30 3018 H 282.083 0.974709 3.09306 0
M  V30 3019 H 281.868 2.72751 2.8169 0
M  V30 3020 H 283.358 2.11931 3.59826 0
M  V30 3021 N 283.795 -0.628877 1.44509 0
M  V30 3022 C 284.758 -1.72263 1.51188 0
M  V30 3023 C 285.758 -1.55907 0.39367 0
M  V30 3024 O 286.948 -1.61361 0.656377 0
M  V30 3025 C 284.08 -3.11365 1.38798 0
M  V30 3026 H 285.273 -1.67714 2.4862 0
M  V30 3027 H 282.826 -0.842737 1.31634 0
M  V30 3028 H 283.561 -3.21507 0.424693 0
M  V30 3029 H 283.346 -3.24644 2.19884 0
M  V30 3030 H 284.836 -3.91075 1.46458 0
M  V30 3031 N 285.273 -1.31445 -0.869486 0
M  V30 3032 C 286.498 -1.24256 -1.66058 0
M  V30 3033 C 286.923 0.188928 -1.87149 0
M  V30 3034 O 286.281 1.13522 -1.4136 0
M  V30 3035 C 286.329 -1.9924 -3.00559 0
M  V30 3036 O 285.433 -1.33007 -3.90362 0
M  V30 3037 H 284.774 -0.428973 -0.506831 0
M  V30 3038 H 287.304 -1.73521 -1.08404 0
M  V30 3039 H 287.314 -2.08854 -3.50491 0
M  V30 3040 H 285.989 -3.03342 -2.84528 0
M  V30 3041 H 284.566 -1.31848 -3.48813 0
M  V30 3042 N 286.751 1.08385 -1.14413 0
M  V30 3043 C 288.167 1.32844 -0.884563 0
M  V30 3044 C 288.367 1.95841 0.474181 0
M  V30 3045 O 287.423 2.21158 1.21842 0
M  V30 3046 C 288.736 2.22978 -2.01745 0
M  V30 3047 C 290.284 2.36458 -2.05077 0
M  V30 3048 C 290.759 3.29934 -3.1766 0
M  V30 3049 N 292.25 3.37511 -3.17239 0
M  V30 3050 C 292.985 4.09871 -4.0099 0
M  V30 3051 N 292.481 4.84936 -4.94781 0
M  V30 3052 N 294.274 4.05704 -3.89051 0
M  V30 3053 H 286.425 0.658756 -2.01926 0
M  V30 3054 H 288.688 0.352821 -0.879899 0
M  V30 3055 H 288.394 1.83934 -2.99769 0
M  V30 3056 H 288.268 3.23441 -1.94077 0
M  V30 3057 H 290.655 2.7476 -1.0766 0
M  V30 3058 H 290.736 1.35736 -2.16816 0
M  V30 3059 H 290.38 2.92352 -4.15322 0
M  V30 3060 H 290.31 4.30584 -3.03158 0
M  V30 3061 H 292.801 2.83996 -2.49308 0
M  V30 3062 H 293.114 5.37612 -5.55151 0
M  V30 3063 H 291.459 4.83988 -4.98779 0
M  V30 3064 H 294.65 3.46167 -3.15097 0
M  V30 3065 H 294.823 4.61834 -4.54547 0
M  V30 3066 N 288.23 0.939286 1.26551 0
M  V30 3067 C 289.47 0.5933 1.956 0
M  V30 3068 C 289.834 -0.851515 1.72085 0
M  V30 3069 O 291.035 -1.30634 2.34921 0
M  V30 3070 C 289.306 0.923996 3.45249 0
M  V30 3071 S 290.865 0.688269 4.33369 0
M  V30 3072 H 287.683 0.218591 0.676564 0
M  V30 3073 H 290.285 1.2102 1.5354 0
M  V30 3074 H 288.989 1.97297 3.59864 0
M  V30 3075 H 288.52 0.296746 3.92279 0
M  V30 3076 H 290.535 -0.448434 4.9417 0
M  V30 3077 N 289.708 -1.40897 0.706093 0
M  V30 3078 C 290.671 -2.29131 0.0562841 0
M  V30 3079 C 291.671 -1.44901 -0.697166 0
M  V30 3080 O 292.861 -1.65926 -0.530484 0
M  V30 3081 C 289.993 -3.27957 -0.93043 0
M  V30 3082 H 291.186 -2.88091 0.833284 0
M  V30 3083 H 288.739 -1.4906 0.470192 0
M  V30 3084 H 289.474 -2.73997 -1.73482 0
M  V30 3085 H 289.259 -3.90124 -0.393166 0
M  V30 3086 H 290.749 -3.94049 -1.38256 0
M  V30 3087 N 291.186 -0.45159 -1.50991 0
M  V30 3088 C 292.119 0.398179 -2.24699 0
M  V30 3089 C 293.097 1.01276 -1.27208 0
M  V30 3090 O 294.281 1.05247 -1.56382 0
M  V30 3091 C 291.408 1.55618 -3.00833 0
M  V30 3092 C 290.454 1.0609 -4.13095 0
M  V30 3093 S 291.287 -0.00865136 -5.35499 0
M  V30 3094 C 292.443 1.15369 -6.15175 0
M  V30 3095 H 292.676 -0.227555 -2.96428 0
M  V30 3096 H 290.209 -0.236251 -1.52582 0
M  V30 3097 H 292.167 2.21997 -3.45293 0
M  V30 3098 H 290.828 2.15337 -2.28667 0
M  V30 3099 H 290.021 1.92726 -4.65696 0
M  V30 3100 H 289.623 0.47513 -3.7097 0
M  V30 3101 H 291.915 2.06925 -6.45126 0
M  V30 3102 H 292.858 0.667344 -7.04948 0
M  V30 3103 H 293.266 1.3987 -5.46897 0
M  V30 3104 N 292.664 1.56529 -0.183458 0
M  V30 3105 C 293.91 1.97537 0.459036 0
M  V30 3106 C 294.243 1.06989 1.62071 0
M  V30 3107 O 293.518 0.11948 1.94133 0
M  V30 3108 C 293.801 3.47874 0.930368 0
M  V30 3109 C 293.654 4.492 -0.232317 0
M  V30 3110 C 294.973 4.01612 1.79989 0
M  V30 3111 H 292.092 0.718204 0.165383 0
M  V30 3112 H 294.734 1.88042 -0.272038 0
M  V30 3113 H 292.884 3.56095 1.55333 0
M  V30 3114 H 294.556 4.53027 -0.86972 0
M  V30 3115 H 292.799 4.24657 -0.885928 0
M  V30 3116 H 293.47 5.51823 0.139796 0
M  V30 3117 H 295.946 3.96097 1.27461 0
M  V30 3118 H 294.822 5.07195 2.09867 0
M  V30 3119 H 295.083 3.46163 2.74998 0
M  V30 3120 N 294.142 -0.090211 1.57342 0
M  V30 3121 C 295.388 -0.793982 1.86611 0
M  V30 3122 C 295.721 -1.78142 0.773252 0
M  V30 3123 O 294.996 -1.93271 -0.218304 0
M  V30 3124 C 295.279 -1.51839 3.26523 0
M  V30 3125 C 295.132 -0.548609 4.46442 0
M  V30 3126 C 296.451 -2.46779 3.64401 0
M  V30 3127 H 293.57 -0.287186 0.678744 0
M  V30 3128 H 296.212 -0.0575076 1.89913 0
M  V30 3129 H 294.362 -2.14617 3.23839 0
M  V30 3130 H 296.034 0.0725513 4.61243 0
M  V30 3131 H 294.277 0.137614 4.33582 0
M  V30 3132 H 294.948 -1.09271 5.41076 0
M  V30 3133 H 297.424 -1.94089 3.68061 0
M  V30 3134 H 296.3 -2.94479 4.63221 0
M  V30 3135 H 296.561 -3.30758 2.93346 0
M  V30 3136 N 295.62 -1.53406 -0.361157 0
M  V30 3137 C 296.848 -1.73717 -1.12383 0
M  V30 3138 C 297.263 -0.468161 -1.82904 0
M  V30 3139 O 296.62 0.559198 -1.73722 0
M  V30 3140 C 296.671 -2.90558 -2.15078 0
M  V30 3141 O 296.392 -4.12549 -1.47428 0
M  V30 3142 C 297.893 -3.22777 -3.03858 0
M  V30 3143 H 295.113 -0.580896 -0.335858 0
M  V30 3144 H 297.657 -2.00167 -0.418728 0
M  V30 3145 H 295.812 -2.66489 -2.8118 0
M  V30 3146 H 296.226 -4.78009 -2.15887 0
M  V30 3147 H 297.7 -4.07927 -3.71887 0
M  V30 3148 H 298.177 -2.38329 -3.68912 0
M  V30 3149 H 298.783 -3.48787 -2.43367 0
M  V30 3150 N 297.098 0.621204 -1.44841 0
M  V30 3151 C 298.326 1.40752 -1.51646 0
M  V30 3152 C 298.741 1.88246 -0.144549 0
M  V30 3153 O 298.098 1.61422 0.851416 0
M  V30 3154 C 298.149 2.62119 -2.4895 0
M  V30 3155 O 297.87 2.16602 -3.80808 0
M  V30 3156 C 299.371 3.55135 -2.65319 0
M  V30 3157 H 296.591 0.431325 -0.514004 0
M  V30 3158 H 299.135 0.758835 -1.899 0
M  V30 3159 H 297.29 3.23058 -2.13805 0
M  V30 3160 H 297.704 2.95358 -4.33433 0
M  V30 3161 H 299.178 4.36874 -3.37409 0
M  V30 3162 H 299.655 4.04592 -1.70886 0
M  V30 3163 H 300.261 3.00058 -3.01405 0
M  V30 3164 N 298.576 1.31904 0.862503 0
M  V30 3165 C 299.853 1.12644 1.59908 0
M  V30 3166 C 300.233 -0.316104 2.0872 0
M  V30 3167 O 299.581 -1.31145 1.87118 0
M  V30 3168 C 299.791 2.1472 2.7513 0
M  V30 3169 C 301.139 2.47637 3.44907 0
M  V30 3170 O 302.163 2.13205 2.85346 0
M  V30 3171 O 301.022 3.06632 4.52371 0
M  V30 3172 H 298.116 0.43416 0.703871 0
M  V30 3173 H 300.662 1.43408 0.907314 0
M  V30 3174 H 299.434 3.1172 2.3653 0
M  V30 3175 H 299.057 1.84905 3.51989 0
M  V30 3176 N 300.054 -1.07777 1.14986 0
M  V30 3177 C 300.964 -2.18404 0.856546 0
M  V30 3178 C 301.98 -1.73211 -0.165485 0
M  V30 3179 O 303.156 -2.01399 0.00755219 0
M  V30 3180 C 300.221 -3.44977 0.34526 0
M  V30 3181 C 299.282 -4.0476 1.43065 0
M  V30 3182 C 298.515 -5.25291 0.943663 0
M  V30 3183 O 298.738 -5.70004 -0.212426 0
M  V30 3184 O 297.672 -5.76638 1.72547 0
M  V30 3185 H 301.498 -2.45978 1.78125 0
M  V30 3186 H 299.083 -1.17033 0.928631 0
M  V30 3187 H 300.965 -4.21348 0.0663671 0
M  V30 3188 H 299.64 -3.18965 -0.551631 0
M  V30 3189 H 298.547 -3.29949 1.76309 0
M  V30 3190 H 299.88 -4.35035 2.30229 0
M  V30 3191 N 301.532 -0.945985 -1.26051 0
M  V30 3192 C 302.778 -0.597002 -1.93814 0
M  V30 3193 C 303.111 0.862484 -1.73997 0
M  V30 3194 O 302.386 1.61769 -1.07986 0
M  V30 3195 C 302.669 -0.945937 -3.47454 0
M  V30 3196 C 302.522 -2.46052 -3.76535 0
M  V30 3197 C 303.841 -0.464785 -4.37639 0
M  V30 3198 H 300.96 -0.218366 -0.703907 0
M  V30 3199 H 303.602 -1.18107 -1.48831 0
M  V30 3200 H 301.752 -0.448902 -3.85898 0
M  V30 3201 H 303.424 -3.03065 -3.47778 0
M  V30 3202 H 301.667 -2.90194 -3.22444 0
M  V30 3203 H 302.338 -2.65517 -4.83947 0
M  V30 3204 H 304.814 -0.891016 -4.06448 0
M  V30 3205 H 303.69 -0.737712 -5.4392 0
M  V30 3206 H 303.951 0.635274 -4.37512 0
M  V30 3207 N 303.011 1.40521 -0.713556 0
M  V30 3208 C 303.941 2.33381 -0.0743864 0
M  V30 3209 C 304.922 1.52784 0.747735 0
M  V30 3210 O 306.107 1.81258 0.697071 0
M  V30 3211 C 303.237 3.36748 0.849598 0
M  V30 3212 C 302.191 4.27793 0.133247 0
M  V30 3213 C 301.517 5.21679 1.17281 0
M  V30 3214 C 302.817 5.12415 -1.01134 0
M  V30 3215 H 304.511 2.87081 -0.850007 0
M  V30 3216 H 302.057 1.38034 -0.410201 0
M  V30 3217 H 304.01 4.00648 1.30612 0
M  V30 3218 H 302.734 2.81439 1.65709 0
M  V30 3219 H 301.393 3.65342 -0.303426 0
M  V30 3220 H 301.041 4.62677 1.9733 0
M  V30 3221 H 300.741 5.83435 0.698397 0
M  V30 3222 H 302.265 5.88456 1.62947 0
M  V30 3223 H 303.679 5.69781 -0.634274 0
M  V30 3224 H 302.076 5.83203 -1.41399 0
M  V30 3225 H 303.146 4.48514 -1.84292 0
M  V30 3226 N 304.489 0.459591 1.5075 0
M  V30 3227 C 305.399 -0.34613 2.32033 0
M  V30 3228 C 306.415 -1.00686 1.41909 0
M  V30 3229 O 307.591 -0.997361 1.7497 0
M  V30 3230 C 304.656 -1.42029 3.16273 0
M  V30 3231 C 303.717 -0.777362 4.22203 0
M  V30 3232 C 302.95 -1.80034 5.02418 0
M  V30 3233 O 303.173 -3.02544 4.83553 0
M  V30 3234 O 302.107 -1.37853 5.85901 0
M  V30 3235 H 305.933 0.318054 3.0203 0
M  V30 3236 H 303.518 0.221663 1.47746 0
M  V30 3237 H 305.4 -2.04275 3.68578 0
M  V30 3238 H 304.075 -2.06815 2.49016 0
M  V30 3239 H 302.982 -0.116256 3.73919 0
M  V30 3240 H 304.315 -0.172634 4.91897 0
M  V30 3241 O 306.006 -1.58029 0.333053 0
M  V30 3242 H 306.697 -1.92392 -0.224736 0
M  V30 END ATOM
M  V30 BEGIN BOND
M  V30 END BOND
M  V30 END CTAB
M  END
$$$$
