drugbank_target|P01848 T-cell receptor alpha chain C region (DB02740)
 OpenBabel12092120393D

  0  0  0     0  0            999 V3000
M  V30 BEGIN CTAB
M  V30 COUNTS 2204 2226 0 0 0
M  V30 BEGIN ATOM
M  V30 1 H -0.908 1.98254 -0.117106 0
M  V30 2 N 0 1.576 0 0
M  V30 3 C 1.411 1.78635 0.542811 0
M  V30 4 C 1.762 0.907396 1.73956 0
M  V30 5 O 0.887 0.109876 2.16121 0
M  V30 6 C 1.482 3.23967 0.991508 0
M  V30 7 C 0.041 3.46098 1.47963 0
M  V30 8 C -0.812 2.73933 0.430836 0
M  V30 9 H 2.139 1.5708 -0.226168 0
M  V30 10 H 2.16 3.32079 1.85751 0
M  V30 11 H 1.672 3.87914 0.120292 0
M  V30 12 H -0.227 2.87366 2.37174 0
M  V30 13 H -0.114 4.54779 1.50709 0
M  V30 14 H -1.75 2.38552 0.892473 0
M  V30 15 H -0.967 3.40578 -0.431414 0
M  V30 16 N 1.4781 -0.272755 1.55222 0
M  V30 17 C 2.4261 -1.35705 1.88909 0
M  V30 18 C 3.4201 -1.5112 0.765456 0
M  V30 19 O 4.6261 -1.52901 0.949802 0
M  V30 20 H 1.0011 -0.453868 0.59959 0
M  V30 21 H 2.9721 -1.04544 2.79487 0
M  V30 22 C 1.7211 -2.71049 2.17779 0
M  V30 23 H 1.0441 -2.59979 3.03728 0
M  V30 24 H 2.4841 -3.45858 2.45272 0
M  V30 25 C 0.9431 -3.22165 0.985473 0
M  V30 26 O 1.4731 -4.01096 0.220233 0
M  V30 27 N -0.3209 -2.7985 0.783108 0
M  V30 28 H -0.7739 -2.15775 1.40708 0
M  V30 29 H -0.8159 -3.14397 -0.0130392 0
M  V30 30 N 2.9562 -1.48159 -0.537278 0
M  V30 31 C 4.2052 -1.5506 -1.28993 0
M  V30 32 C 4.5182 -0.226211 -1.94288 0
M  V30 33 O 5.7242 -0.173395 -2.70946 0
M  V30 34 C 4.1802 -2.73429 -2.34018 0
M  V30 35 C 3.7882 -4.1248 -1.74825 0
M  V30 36 C 5.5322 -2.89638 -3.10339 0
M  V30 37 C 3.4392 -5.22121 -2.77747 0
M  V30 38 H 2.3692 -0.577231 -0.485098 0
M  V30 39 H 5.0202 -1.74478 -0.568317 0
M  V30 40 H 3.4022 -2.47431 -3.09182 0
M  V30 41 H 4.5762 -4.48466 -1.05899 0
M  V30 42 H 2.8912 -4.01327 -1.11022 0
M  V30 43 H 5.4882 -3.68718 -3.87235 0
M  V30 44 H 5.8312 -1.9882 -3.65754 0
M  V30 45 H 6.3642 -3.15502 -2.42288 0
M  V30 46 H 3.1032 -6.1488 -2.27161 0
M  V30 47 H 2.6232 -4.90631 -3.45024 0
M  V30 48 H 4.3022 -5.49924 -3.4087 0
M  V30 49 N 4.4343 0.785586 -1.36625 0
M  V30 50 C 5.3663 1.90711 -1.2713 0
M  V30 51 C 6.3793 1.61688 -0.189986 0
M  V30 52 O 7.5683 1.72864 -0.445014 0
M  V30 53 C 4.6683 3.25611 -0.939713 0
M  V30 54 C 3.8413 3.82385 -2.12369 0
M  V30 55 C 2.9003 4.95732 -1.76456 0
M  V30 56 O 1.9263 5.12047 -2.48589 0
M  V30 57 N 3.1283 5.76258 -0.700492 0
M  V30 58 H 5.8933 1.99376 -2.23762 0
M  V30 59 H 3.4543 0.964041 -1.30069 0
M  V30 60 H 5.4463 3.98937 -0.680554 0
M  V30 61 H 4.0163 3.12538 -0.0624074 0
M  V30 62 H 3.2363 3.01001 -2.54543 0
M  V30 63 H 4.5243 4.17047 -2.9146 0
M  V30 64 H 3.9223 5.65609 -0.101624 0
M  V30 65 H 2.4793 6.4987 -0.501165 0
M  V30 66 N 5.9124 1.20967 1.01018 0
M  V30 67 C 6.8604 0.961223 2.1181 0
M  V30 68 C 7.8544 -0.0897034 1.69162 0
M  V30 69 O 9.0604 0.0612271 1.79896 0
M  V30 70 H 5.4354 0.29355 0.692338 0
M  V30 71 H 7.4064 1.90178 2.29946 0
M  V30 72 C 6.1554 0.536854 3.4353 0
M  V30 73 H 5.4784 1.33713 3.76777 0
M  V30 74 H 6.9184 0.402286 4.22087 0
M  V30 75 C 5.3774 -0.751574 3.2841 0
M  V30 76 O 5.9074 -1.80841 3.58691 0
M  V30 77 N 4.1134 -0.716079 2.81639 0
M  V30 78 H 3.6604 0.144236 2.57196 0
M  V30 79 H 3.6184 -1.57847 2.71904 0
M  V30 80 N 7.3905 -1.2043 1.01659 0
M  V30 81 C 8.8015 -1.71517 0.737482 0
M  V30 82 C 9.1525 -1.81547 -0.743973 0
M  V30 83 O 8.2775 -1.47803 -1.58061 0
M  V30 84 C 8.8725 -3.11515 1.33206 0
M  V30 85 C 7.4315 -3.59912 1.10183 0
M  V30 86 C 6.5785 -2.37116 1.43776 0
M  V30 87 H 9.5295 -1.05444 1.18606 0
M  V30 88 H 9.5505 -3.73575 0.722636 0
M  V30 89 H 9.0625 -3.04182 2.41028 0
M  V30 90 H 7.1635 -3.72577 0.0412756 0
M  V30 91 H 7.2765 -4.44731 1.78188 0
M  V30 92 H 5.6405 -2.39857 0.856778 0
M  V30 93 H 6.4235 -2.32424 2.52654 0
M  V30 94 N 8.8686 -0.792821 -1.36206 0
M  V30 95 C 10.1456 -0.290627 -1.93429 0
M  V30 96 C 10.5256 1.21773 -1.72437 0
M  V30 97 O 9.8736 2.0108 -1.08531 0
M  V30 98 C 10.0836 -0.686973 -3.42172 0
M  V30 99 C 11.4316 -0.668643 -4.19302 0
M  V30 100 O 12.4556 -0.627658 -3.50626 0
M  V30 101 O 11.3146 -0.714597 -5.41808 0
M  V30 102 H 8.4086 -0.0727927 -0.82379 0
M  V30 103 H 10.9546 -0.875593 -1.45367 0
M  V30 104 H 9.7266 -1.72711 -3.51122 0
M  V30 105 H 9.3496 -0.0760733 -3.97527 0
M  V30 106 N 10.3467 1.47872 -0.545128 0
M  V30 107 C 11.7577 1.86384 -0.108581 0
M  V30 108 C 12.1087 1.45309 1.31832 0
M  V30 109 O 11.2337 0.850641 1.9898 0
M  V30 110 C 11.8287 3.38265 -0.190274 0
M  V30 111 C 10.3877 3.75914 0.191164 0
M  V30 112 C 9.5347 2.71926 -0.543273 0
M  V30 113 H 12.4857 1.39561 -0.755537 0
M  V30 114 H 12.5067 3.75831 0.594217 0
M  V30 115 H 12.0187 3.6813 -1.2289 0
M  V30 116 H 10.1197 3.51665 1.23136 0
M  V30 117 H 10.2327 4.78836 -0.158987 0
M  V30 118 H 8.5967 2.54697 0.0122495 0
M  V30 119 H 9.3797 3.04634 -1.58282 0
M  V30 120 N 11.8248 0.280983 1.55075 0
M  V30 121 C 12.7878 -0.590896 2.21452 0
M  V30 122 C 13.7878 -1.07682 1.19421 0
M  V30 123 O 14.9778 -0.97605 1.44288 0
M  V30 124 C 12.1098 -1.81587 2.88511 0
M  V30 125 H 13.3028 -0.0112554 2.99898 0
M  V30 126 H 10.8558 0.0316438 1.56268 0
M  V30 127 H 11.5908 -2.43587 2.14093 0
M  V30 128 H 11.3758 -1.4753 3.63287 0
M  V30 129 H 12.8658 -2.43575 3.39206 0
M  V30 130 N 13.3029 -1.57598 0.00835791 0
M  V30 131 C 14.5489 -1.91211 -0.675732 0
M  V30 132 C 14.8819 -0.883139 -1.72958 0
M  V30 133 O 14.1569 0.097016 -1.94258 0
M  V30 134 C 14.4399 -3.35379 -1.31123 0
M  V30 135 C 14.2929 -4.48999 -0.268356 0
M  V30 136 C 15.6119 -3.7912 -2.23508 0
M  V30 137 H 12.7309 -0.695374 -0.244179 0
M  V30 138 H 15.3729 -1.89901 0.0613655 0
M  V30 139 H 13.5229 -3.36626 -1.93946 0
M  V30 140 H 15.1949 -4.59887 0.360844 0
M  V30 141 H 13.4379 -4.31873 0.408482 0
M  V30 142 H 14.1089 -5.46851 -0.752218 0
M  V30 143 H 16.5849 -3.79477 -1.70693 0
M  V30 144 H 15.4609 -4.80729 -2.64936 0
M  V30 145 H 15.7219 -3.13455 -3.11766 0
M  V30 146 N 14.781 0.264519 -1.55364 0
M  V30 147 C 16.011 1.01153 -1.80143 0
M  V30 148 C 16.419 1.80115 -0.579253 0
M  V30 149 O 15.762 1.77813 0.46132 0
M  V30 150 C 15.824 2.01098 -2.97993 0
M  V30 151 C 15.488 1.40995 -4.34706 0
M  V30 152 C 16.485 0.821316 -5.13372 0
M  V30 153 C 14.17 1.43461 -4.81378 0
M  V30 154 C 16.164 0.265339 -6.36847 0
M  V30 155 C 13.851 0.874771 -6.04807 0
M  V30 156 C 14.849 0.291146 -6.82379 0
M  V30 157 O 14.537 -0.260093 -8.03479 0
M  V30 158 H 14.269 0.304125 -0.603725 0
M  V30 159 H 16.823 0.298089 -2.03225 0
M  V30 160 H 15.053 2.76224 -2.70623 0
M  V30 161 H 16.742 2.61997 -3.1002 0
M  V30 162 H 17.508 0.794903 -4.78442 0
M  V30 163 H 13.387 1.87826 -4.21002 0
M  V30 164 H 16.931 -0.190837 -6.97339 0
M  V30 165 H 12.828 0.898452 -6.39217 0
M  V30 166 H 13.596 -0.150265 -8.18362 0
M  V30 167 N 16.2591 1.48442 0.529413 0
M  V30 168 C 17.1911 1.59095 1.64989 0
M  V30 169 C 18.2041 0.475212 1.5571 0
M  V30 170 O 19.3931 0.746081 1.6216 0
M  V30 171 C 16.4931 1.50518 3.0364 0
M  V30 172 C 15.6661 2.77142 3.38395 0
M  V30 173 C 14.7251 2.62012 4.56329 0
M  V30 174 O 13.7511 3.35898 4.59522 0
M  V30 175 N 14.9531 1.71667 5.54536 0
M  V30 176 H 17.7181 2.55723 1.56287 0
M  V30 177 H 15.2791 1.45173 0.716697 0
M  V30 178 H 17.2711 1.38091 3.80412 0
M  V30 179 H 15.8411 0.618627 3.06418 0
M  V30 180 H 15.0611 3.0413 2.50796 0
M  V30 181 H 16.3491 3.61146 3.58401 0
M  V30 182 H 15.7471 1.10841 5.54735 0
M  V30 183 H 14.3041 1.65178 6.30523 0
M  V30 184 N 17.7372 -0.778329 1.37039 0
M  V30 185 C 18.6672 -1.90546 1.34962 0
M  V30 186 C 19.6482 -1.68681 0.219274 0
M  V30 187 O 20.8332 -1.89634 0.418624 0
M  V30 188 C 17.9632 -3.27734 1.14925 0
M  V30 189 C 16.9172 -3.64147 2.24902 0
M  V30 190 C 16.2432 -4.99806 1.89996 0
M  V30 191 C 17.5432 -3.71579 3.67051 0
M  V30 192 H 19.2372 -1.92541 2.29277 0
M  V30 193 H 16.7832 -0.924948 1.10366 0
M  V30 194 H 18.7362 -4.06215 1.12104 0
M  V30 195 H 17.4602 -3.26154 0.170631 0
M  V30 196 H 16.1192 -2.8797 2.26868 0
M  V30 197 H 15.7672 -4.94759 0.906796 0
M  V30 198 H 15.4672 -5.25139 2.63634 0
M  V30 199 H 16.9912 -5.80694 1.88749 0
M  V30 200 H 18.4052 -4.40227 3.67251 0
M  V30 201 H 16.8022 -4.08405 4.39688 0
M  V30 202 H 17.8722 -2.72404 4.01154 0
M  V30 203 N 19.2153 -1.21501 -1.00376 0
M  V30 204 C 20.6313 -0.972629 -1.26539 0
M  V30 205 C 20.8313 0.340257 -1.98606 0
M  V30 206 O 19.8873 1.06561 -2.28913 0
M  V30 207 C 21.2003 -2.16404 -2.08781 0
M  V30 208 C 22.7483 -2.20643 -2.22004 0
M  V30 209 C 23.2233 -3.39306 -3.07629 0
M  V30 210 N 24.7143 -3.39401 -3.15217 0
M  V30 211 C 25.4493 -4.27867 -3.81729 0
M  V30 212 N 24.9453 -5.26533 -4.5026 0
M  V30 213 N 26.7383 -4.15672 -3.78382 0
M  V30 214 H 18.8893 -2.05929 -0.520281 0
M  V30 215 H 21.1523 -0.901803 -0.292328 0
M  V30 216 H 20.8583 -3.11554 -1.63178 0
M  V30 217 H 20.7323 -2.15567 -3.09533 0
M  V30 218 H 23.1193 -1.26048 -2.66825 0
M  V30 219 H 23.2003 -2.25523 -1.20718 0
M  V30 220 H 22.8443 -4.34195 -2.63509 0
M  V30 221 H 22.7743 -3.31665 -4.09031 0
M  V30 222 H 25.2653 -2.67997 -2.66432 0
M  V30 223 H 25.5783 -5.90337 -4.98721 0
M  V30 224 H 23.9233 -5.30457 -4.49044 0
M  V30 225 H 27.1143 -3.3785 -3.23998 0
M  V30 226 H 27.2873 -4.84825 -4.2994 0
M  V30 227 N 20.6934 1.19889 -1.02296 0
M  V30 228 C 21.9704 1.85148 -0.630832 0
M  V30 229 C 22.3504 1.91385 0.890782 0
M  V30 230 O 21.6984 1.42642 1.78509 0
M  V30 231 C 21.9084 3.24442 -1.28602 0
M  V30 232 C 23.2564 4.00663 -1.4055 0
M  V30 233 O 24.2804 3.33818 -1.24273 0
M  V30 234 O 23.1394 5.20387 -1.66913 0
M  V30 235 H 20.2334 0.797613 -0.218499 0
M  V30 236 H 22.7794 1.27427 -1.12074 0
M  V30 237 H 21.5514 3.14704 -2.32545 0
M  V30 238 H 21.1744 3.89802 -0.7836 0
M  V30 239 N 22.1715 0.800033 1.35784 0
M  V30 240 C 23.3965 0.388511 2.03729 0
M  V30 241 C 23.8215 -0.990481 1.5991 0
M  V30 242 O 23.1795 -1.64013 0.772612 0
M  V30 243 C 23.2275 0.4726 3.5749 0
M  V30 244 O 22.3315 -0.51646 4.09153 0
M  V30 245 H 21.6725 0.163271 0.643614 0
M  V30 246 H 24.2025 1.0841 1.73518 0
M  V30 247 H 24.2125 0.34003 4.06581 0
M  V30 248 H 22.8875 1.47848 3.88734 0
M  V30 249 H 21.4645 -0.344673 3.71304 0
M  V30 250 N 23.6496 -1.47581 0.552962 0
M  V30 251 C 24.5966 -2.29957 -0.197108 0
M  V30 252 C 25.5666 -1.38799 -0.912359 0
M  V30 253 O 26.7516 -1.67761 -0.908888 0
M  V30 254 C 23.8916 -3.22672 -1.22379 0
M  V30 255 C 23.0046 -4.28919 -0.515038 0
M  V30 256 C 22.1396 -5.0879 -1.52664 0
M  V30 257 C 21.1786 -6.06815 -0.802631 0
M  V30 258 N 20.3156 -6.7966 -1.76086 0
M  V30 259 H 25.1556 -2.93578 0.511486 0
M  V30 260 H 22.6926 -1.4471 0.264067 0
M  V30 261 H 24.6506 -3.74845 -1.83159 0
M  V30 262 H 23.2806 -2.60925 -1.90047 0
M  V30 263 H 22.3326 -3.79835 0.207192 0
M  V30 264 H 23.6446 -4.98773 0.0523425 0
M  V30 265 H 22.7986 -5.65091 -2.20809 0
M  V30 266 H 21.5376 -4.38828 -2.12794 0
M  V30 267 H 20.5426 -5.49695 -0.107238 0
M  V30 268 H 21.7676 -6.78784 -0.207135 0
M  V30 269 H 19.7136 -6.12432 -2.35081 0
M  V30 270 H 19.6306 -7.45669 -1.24552 0
M  V30 271 H 20.8986 -7.40538 -2.43359 0
M  V30 272 N 25.1277 -0.289203 -1.54924 0
M  V30 273 C 26.3527 0.329299 -2.04769 0
M  V30 274 C 26.7777 1.4763 -1.16564 0
M  V30 275 O 26.1357 1.80527 -0.167186 0
M  V30 276 C 26.1837 0.774438 -3.52186 0
M  V30 277 O 25.2877 1.88038 -3.67036 0
M  V30 278 H 24.6287 0.0659259 -0.660719 0
M  V30 279 H 27.1587 -0.42761 -2.00082 0
M  V30 280 H 27.1687 1.06642 -3.93816 0
M  V30 281 H 25.8437 -0.0646707 -4.1585 0
M  V30 282 H 24.4207 1.58985 -3.3731 0
M  V30 283 N 26.6058 1.57591 -0.0167156 0
M  V30 284 C 27.8308 1.9598 0.67872 0
M  V30 285 C 28.2558 0.892546 1.65575 0
M  V30 286 O 27.6138 -0.147772 1.80697 0
M  V30 287 C 27.6618 3.33468 1.37227 0
M  V30 288 O 26.7658 3.28954 2.48722 0
M  V30 289 H 26.1068 0.639339 0.17928 0
M  V30 290 H 28.6368 2.04463 -0.0748802 0
M  V30 291 H 28.6468 3.69417 1.7319 0
M  V30 292 H 27.3218 4.10694 0.656007 0
M  V30 293 H 25.8988 3.04705 2.14963 0
M  V30 294 N 28.0839 -0.256276 1.55502 0
M  V30 295 C 29.3609 -1.00789 1.67633 0
M  V30 296 C 29.7409 -2.03706 0.553826 0
M  V30 297 O 29.0889 -2.24145 -0.443969 0
M  V30 298 C 29.2989 -1.64968 3.07549 0
M  V30 299 C 30.6469 -2.15505 3.65845 0
M  V30 300 O 31.6709 -1.74925 3.1029 0
M  V30 301 O 30.5299 -2.89986 4.63217 0
M  V30 302 H 27.6239 -0.468553 0.681459 0
M  V30 303 H 30.1699 -0.250806 1.67836 0
M  V30 304 H 28.9419 -0.904785 3.80696 0
M  V30 305 H 28.5649 -2.47321 3.11317 0
M  V30 306 N 29.562 -1.4872 -0.521534 0
M  V30 307 C 30.509 -1.63871 -1.62527 0
M  V30 308 C 31.479 -0.480559 -1.58996 0
M  V30 309 O 32.664 -0.705085 -1.77294 0
M  V30 310 C 29.804 -1.69227 -3.00759 0
M  V30 311 C 28.917 -2.96207 -3.14461 0
M  V30 312 C 28.052 -2.92671 -4.43303 0
M  V30 313 C 27.091 -4.14318 -4.50563 0
M  V30 314 N 26.228 -4.0881 -5.70805 0
M  V30 315 H 31.068 -2.58123 -1.48918 0
M  V30 316 H 28.605 -1.28 -0.724878 0
M  V30 317 H 30.563 -1.70314 -3.80853 0
M  V30 318 H 29.193 -0.784586 -3.1312 0
M  V30 319 H 28.245 -3.04826 -2.27564 0
M  V30 320 H 29.557 -3.86192 -3.15686 0
M  V30 321 H 28.711 -2.92206 -5.31696 0
M  V30 322 H 27.45 -2.00429 -4.44612 0
M  V30 323 H 26.455 -4.15049 -3.60575 0
M  V30 324 H 27.68 -5.07729 -4.50986 0
M  V30 325 H 25.626 -3.19394 -5.72995 0
M  V30 326 H 25.543 -4.92509 -5.7356 0
M  V30 327 H 26.811 -4.12418 -6.61462 0
M  V30 328 N 31.0401 0.771051 -1.3745 0
M  V30 329 C 32.2651 1.56529 -1.36065 0
M  V30 330 C 32.6901 1.88029 0.0515859 0
M  V30 331 O 32.0481 1.49282 1.02882 0
M  V30 332 C 32.0961 2.85187 -2.20683 0
M  V30 333 O 31.2001 3.79593 -1.61193 0
M  V30 334 H 30.5411 0.47411 -0.464883 0
M  V30 335 H 33.0711 0.954269 -1.80983 0
M  V30 336 H 33.0811 3.34283 -2.33921 0
M  V30 337 H 31.7561 2.61588 -3.23334 0
M  V30 338 H 30.3331 3.38239 -1.56999 0
M  V30 339 N 32.5182 1.22032 0.997298 0
M  V30 340 C 33.7642 1.04376 1.73878 0
M  V30 341 C 34.0972 -0.420716 1.89588 0
M  V30 342 O 33.3722 -1.31202 1.43583 0
M  V30 343 C 33.6552 1.75047 3.14691 0
M  V30 344 C 33.5082 3.29062 3.06656 0
M  V30 345 C 34.8272 1.49928 4.13775 0
M  V30 346 H 31.9462 0.380578 0.631133 0
M  V30 347 H 34.5882 1.50312 1.16217 0
M  V30 348 H 32.7382 1.35996 3.63919 0
M  V30 349 H 34.4102 3.7753 2.65083 0
M  V30 350 H 32.6532 3.58967 2.43568 0
M  V30 351 H 33.3242 3.73683 4.06282 0
M  V30 352 H 35.8002 1.83842 3.73285 0
M  V30 353 H 34.6762 2.01878 5.10428 0
M  V30 354 H 34.9372 0.430929 4.39995 0
M  V30 355 N 33.9963 -1.19345 1.0293 0
M  V30 356 C 35.2363 -1.90738 0.734727 0
M  V30 357 C 35.6003 -1.7785 -0.723414 0
M  V30 358 O 36.8013 -2.43844 -1.13108 0
M  V30 359 C 35.0723 -3.37569 1.17396 0
M  V30 360 S 36.6313 -4.27176 1.00329 0
M  V30 361 H 33.4493 -0.658771 0.267474 0
M  V30 362 H 36.0513 -1.4428 1.31922 0
M  V30 363 H 34.7553 -3.44475 2.23081 0
M  V30 364 H 34.2863 -3.8906 0.582772 0
M  V30 365 H 36.3013 -4.96126 -0.0859152 0
M  V30 366 N 35.4744 -0.807222 -1.35358 0
M  V30 367 C 36.4044 -0.232509 -2.3234 0
M  V30 368 C 37.3854 0.642386 -1.57504 0
M  V30 369 O 38.5704 0.572526 -1.85569 0
M  V30 370 C 35.7004 0.619238 -3.41735 0
M  V30 371 C 34.6544 -0.157215 -4.27711 0
M  V30 372 C 33.9804 0.816273 -5.28433 0
M  V30 373 C 35.2804 -1.35656 -5.04376 0
M  V30 374 H 36.9744 -1.04276 -2.80654 0
M  V30 375 H 34.5204 -0.50288 -1.34934 0
M  V30 376 H 36.4734 1.03137 -4.08584 0
M  V30 377 H 35.1974 1.46239 -2.92031 0
M  V30 378 H 33.8564 -0.550525 -3.62443 0
M  V30 379 H 33.5044 1.65494 -4.74996 0
M  V30 380 H 33.2044 0.301067 -5.86828 0
M  V30 381 H 34.7284 1.22659 -5.98153 0
M  V30 382 H 36.1424 -1.01927 -5.64166 0
M  V30 383 H 34.5394 -1.8063 -5.7227 0
M  V30 384 H 35.6094 -2.14288 -4.34981 0
M  V30 385 N 36.9525 1.47285 -0.560781 0
M  V30 386 C 38.1995 2.02464 -0.038062 0
M  V30 387 C 38.5275 1.43474 1.31322 0
M  V30 388 O 37.7825 0.581311 1.86867 0
M  V30 389 C 38.0815 3.57258 0.100784 0
M  V30 390 C 37.7475 4.35184 -1.18007 0
M  V30 391 C 36.4095 4.56194 -1.53103 0
M  V30 392 C 38.7615 4.80098 -2.02867 0
M  V30 393 C 36.0895 5.19367 -2.729 0
M  V30 394 C 38.4415 5.44593 -3.21871 0
M  V30 395 C 37.1055 5.63835 -3.57276 0
M  V30 396 H 36.3755 0.740869 -0.0139279 0
M  V30 397 H 39.0225 1.76916 -0.733012 0
M  V30 398 H 37.3275 3.81819 0.878724 0
M  V30 399 H 39.0245 3.97606 0.520639 0
M  V30 400 H 35.6145 4.19113 -0.8968 0
M  V30 401 H 39.7985 4.63642 -1.7706 0
M  V30 402 H 35.0545 5.32459 -3.00496 0
M  V30 403 H 39.2285 5.78358 -3.87911 0
M  V30 404 H 36.8555 6.12557 -4.50197 0
M  V30 405 N 38.4306 0.297415 1.54768 0
M  V30 406 C 39.6586 -0.315623 2.04478 0
M  V30 407 C 40.0736 -1.47792 1.17486 0
M  V30 408 O 39.4306 -1.81404 0.19971 0
M  V30 409 C 39.4816 -0.7753 3.53088 0
M  V30 410 O 39.2026 0.340732 4.36773 0
M  V30 411 C 40.7036 -1.45386 4.18781 0
M  V30 412 H 37.9236 -0.0690887 0.667434 0
M  V30 413 H 40.4676 0.436003 1.99798 0
M  V30 414 H 38.6226 -1.47696 3.58141 0
M  V30 415 H 39.0366 -0.0165035 5.24497 0
M  V30 416 H 40.5106 -1.72669 5.24299 0
M  V30 417 H 40.9876 -2.39275 3.68299 0
M  V30 418 H 41.5936 -0.795475 4.17795 0
M  V30 419 N 39.9087 -1.5758 0.0250728 0
M  V30 420 C 41.1857 -1.82917 -0.692873 0
M  V30 421 C 41.5657 -0.908137 -1.90568 0
M  V30 422 O 40.9137 0.0372298 -2.2847 0
M  V30 423 C 41.1237 -3.32034 -1.07492 0
M  V30 424 C 42.4717 -3.98406 -1.46826 0
M  V30 425 O 43.4957 -3.36505 -1.16801 0
M  V30 426 O 42.3547 -5.07497 -2.02754 0
M  V30 427 H 39.4487 -0.754079 -0.33955 0
M  V30 428 H 41.9947 -1.69619 0.0524456 0
M  V30 429 H 40.7667 -3.90728 -0.211552 0
M  V30 430 H 40.3897 -3.50424 -1.87854 0
M  V30 431 N 41.3868 0.248026 -1.55636 0
M  V30 432 C 42.6338 0.976224 -1.77415 0
M  V30 433 C 42.9618 1.85361 -0.589193 0
M  V30 434 O 42.2168 1.90973 0.427529 0
M  V30 435 C 42.5158 1.86819 -3.04686 0
M  V30 436 C 42.1818 1.14625 -4.36087 0
M  V30 437 C 40.8438 0.946723 -4.71795 0
M  V30 438 C 43.1958 0.634463 -5.17324 0
M  V30 439 C 40.5238 0.223091 -5.86276 0
M  V30 440 C 42.8758 -0.0756959 -6.32555 0
M  V30 441 C 41.5398 -0.286711 -6.66884 0
M  V30 442 H 40.8098 0.357226 -0.649208 0
M  V30 443 H 43.4568 0.246415 -1.89908 0
M  V30 444 H 41.7618 2.66502 -2.872 0
M  V30 445 H 43.4588 2.43329 -3.18735 0
M  V30 446 H 40.0488 1.3117 -4.08035 0
M  V30 447 H 44.2328 0.77616 -4.90193 0
M  V30 448 H 39.4888 0.0491185 -6.1138 0
M  V30 449 H 43.6628 -0.479899 -6.94745 0
M  V30 450 H 41.2898 -0.849389 -7.5544 0
M  V30 451 N 42.8649 1.48995 0.513639 0
M  V30 452 C 44.1419 1.48338 1.27495 0
M  V30 453 C 44.5219 0.204065 2.10111 0
M  V30 454 O 43.8699 -0.813881 2.13514 0
M  V30 455 C 44.0799 2.75498 2.14247 0
M  V30 456 C 45.4279 3.24484 2.73852 0
M  V30 457 O 46.4519 2.76528 2.24523 0
M  V30 458 O 45.3109 4.07974 3.6362 0
M  V30 459 H 42.4049 0.593149 0.576284 0
M  V30 460 H 44.9509 1.61246 0.528948 0
M  V30 461 H 43.7229 3.60109 1.53092 0
M  V30 462 H 43.3459 2.6539 2.96064 0
M  V30 463 N 44.343 -0.763751 1.37857 0
M  V30 464 C 45.568 -1.55805 1.36893 0
M  V30 465 C 45.993 -1.88054 -0.0416135 0
M  V30 466 O 45.351 -1.49825 -1.02089 0
M  V30 467 C 45.399 -2.84012 2.22192 0
M  V30 468 O 44.503 -3.78732 1.63204 0
M  V30 469 H 43.844 -0.471638 0.46739 0
M  V30 470 H 46.374 -0.944657 1.81487 0
M  V30 471 H 46.384 -3.33037 2.35691 0
M  V30 472 H 45.059 -2.59869 3.24716 0
M  V30 473 H 43.636 -3.37402 1.58791 0
M  V30 474 N 45.8211 -1.22559 -0.990812 0
M  V30 475 C 46.7531 -0.955325 -2.08342 0
M  V30 476 C 47.7661 0.0668408 -1.62663 0
M  V30 477 O 48.9551 -0.167421 -1.77713 0
M  V30 478 C 46.0551 -0.415566 -3.36342 0
M  V30 479 C 45.2281 -1.49544 -4.11042 0
M  V30 480 C 44.2871 -0.962399 -5.17324 0
M  V30 481 O 43.3131 -1.64907 -5.44788 0
M  V30 482 N 44.5151 0.215134 -5.80101 0
M  V30 483 H 47.2801 -1.89596 -2.32106 0
M  V30 484 H 44.8411 -1.13276 -1.15673 0
M  V30 485 H 46.8331 -0.0442386 -4.04676 0
M  V30 486 H 45.4031 0.430232 -3.09625 0
M  V30 487 H 44.6231 -2.04 -3.37309 0
M  V30 488 H 45.9111 -2.22195 -4.57719 0
M  V30 489 H 45.3091 0.789779 -5.6016 0
M  V30 490 H 43.8661 0.527826 -6.49659 0
M  V30 491 N 47.2992 1.18797 -1.03562 0
M  V30 492 C 48.5272 1.92599 -0.755869 0
M  V30 493 C 48.9422 1.75886 0.686271 0
M  V30 494 O 48.2992 1.08517 1.46732 0
M  V30 495 C 48.3502 3.44159 -1.10619 0
M  V30 496 O 48.0712 3.60341 -2.4917 0
M  V30 497 C 49.5722 4.3507 -0.850214 0
M  V30 498 H 46.7922 0.611587 -0.276048 0
M  V30 499 H 49.3362 1.50742 -1.38192 0
M  V30 500 H 47.4912 3.83823 -0.525194 0
M  V30 501 H 47.9052 4.54128 -2.62427 0
M  V30 502 H 49.3792 5.39989 -1.14523 0
M  V30 503 H 49.8562 4.38673 0.215176 0
M  V30 504 H 50.4622 4.01097 -1.41426 0
M  V30 505 N 48.7773 0.814389 1.34928 0
M  V30 506 C 49.7253 0.218424 2.31572 0
M  V30 507 C 50.7193 -0.636128 1.57002 0
M  V30 508 O 51.9253 -0.52842 1.72069 0
M  V30 509 H 48.3003 0.0518799 0.750208 0
M  V30 510 H 50.2713 1.04852 2.79372 0
M  V30 511 C 49.0203 -0.61207 3.4227 0
M  V30 512 H 48.3433 0.0361578 3.99784 0
M  V30 513 H 49.7833 -0.995317 4.12152 0
M  V30 514 C 48.2423 -1.78087 2.85984 0
M  V30 515 O 48.7723 -2.8787 2.80168 0
M  V30 516 N 46.9783 -1.59488 2.42924 0
M  V30 517 H 46.5253 -0.701874 2.47854 0
M  V30 518 H 46.4833 -2.37846 2.05613 0
M  V30 519 N 50.2554 -1.46986 0.568584 0
M  V30 520 C 51.5014 -2.02741 0.0488709 0
M  V30 521 C 51.8344 -1.44077 -1.30214 0
M  V30 522 O 51.1094 -0.600552 -1.84996 0
M  V30 523 C 51.3924 -3.60086 -0.032047 0
M  V30 524 C 51.2454 -4.29162 1.34686 0
M  V30 525 C 52.5644 -4.33838 -0.739798 0
M  V30 526 H 49.6834 -0.736749 0.0192338 0
M  V30 527 H 52.3254 -1.75289 0.733065 0
M  V30 528 H 50.4754 -3.83606 -0.61473 0
M  V30 529 H 52.1474 -4.16948 1.97362 0
M  V30 530 H 50.3904 -3.89073 1.91846 0
M  V30 531 H 51.0614 -5.37826 1.24285 0
M  V30 532 H 53.5374 -4.15378 -0.244939 0
M  V30 533 H 52.4134 -5.43537 -0.765406 0
M  V30 534 H 52.6744 -4.03875 -1.79827 0
M  V30 535 N 51.7335 -0.305618 -1.54608 0
M  V30 536 C 52.9585 0.307562 -2.05107 0
M  V30 537 C 53.3835 1.46385 -1.18123 0
M  V30 538 O 52.7415 1.8034 -0.186324 0
M  V30 539 C 52.7895 0.73704 -3.52987 0
M  V30 540 O 51.8935 1.84134 -3.6901 0
M  V30 541 H 51.2345 0.0589143 -0.661381 0
M  V30 542 H 53.7645 -0.448807 -1.99617 0
M  V30 543 H 53.7745 1.02459 -3.94925 0
M  V30 544 H 52.4495 -0.108773 -4.15758 0
M  V30 545 H 51.0265 1.55398 -3.38978 0
M  V30 546 N 53.2116 1.57565 -0.0334293 0
M  V30 547 C 54.1436 2.0739 0.975811 0
M  V30 548 C 55.1566 0.998166 1.2861 0
M  V30 549 O 56.3456 1.27426 1.25 0
M  V30 550 C 53.4456 2.4871 2.30209 0
M  V30 551 C 52.6186 3.79413 2.17634 0
M  V30 552 C 51.6776 4.07237 3.33233 0
M  V30 553 O 50.7036 4.77425 3.09927 0
M  V30 554 N 51.9056 3.5775 4.5716 0
M  V30 555 H 54.6706 2.94598 0.55066 0
M  V30 556 H 52.2316 1.61173 0.15323 0
M  V30 557 H 54.2236 2.64413 3.06378 0
M  V30 558 H 52.7936 1.66845 2.64351 0
M  V30 559 H 52.0136 3.73465 1.26165 0
M  V30 560 H 53.3016 4.65038 2.0644 0
M  V30 561 H 52.6996 3.00976 4.78989 0
M  V30 562 H 51.2566 3.78724 5.30482 0
M  V30 563 N 54.6897 -0.239769 1.55765 0
M  V30 564 C 55.9147 -0.988373 1.82335 0
M  V30 565 C 56.3397 -1.77886 0.611421 0
M  V30 566 O 55.6977 -1.75889 -0.439639 0
M  V30 567 C 55.7457 -1.89627 3.06715 0
M  V30 568 O 54.8497 -2.98904 2.84131 0
M  V30 569 H 54.1907 -0.280858 0.601677 0
M  V30 570 H 56.7207 -0.258597 2.02959 0
M  V30 571 H 56.7307 -2.30957 3.36338 0
M  V30 572 H 55.4057 -1.31511 3.9456 0
M  V30 573 H 53.9827 -2.61651 2.65694 0
M  V30 574 N 56.1678 -1.49265 -0.50573 0
M  V30 575 C 57.1148 -1.65585 -1.6078 0
M  V30 576 C 58.0848 -0.497396 -1.58478 0
M  V30 577 O 59.2698 -0.72385 -1.76536 0
M  V30 578 C 56.4098 -1.72408 -2.98948 0
M  V30 579 C 55.5228 -2.99525 -3.11301 0
M  V30 580 C 54.6578 -2.97356 -4.40174 0
M  V30 581 C 53.6968 -4.19074 -4.46143 0
M  V30 582 N 52.8338 -4.14841 -5.66437 0
M  V30 583 H 57.6738 -2.59688 -1.46172 0
M  V30 584 H 55.2108 -1.28761 -0.711261 0
M  V30 585 H 57.1688 -1.74344 -3.79025 0
M  V30 586 H 55.7988 -0.817753 -3.1227 0
M  V30 587 H 54.8508 -3.07222 -2.24318 0
M  V30 588 H 56.1628 -3.89518 -3.11572 0
M  V30 589 H 55.3168 -2.97829 -5.28567 0
M  V30 590 H 54.0558 -2.05133 -4.42461 0
M  V30 591 H 53.0608 -4.1885 -3.56153 0
M  V30 592 H 54.2858 -5.12483 -4.45575 0
M  V30 593 H 52.2318 -3.25453 -5.69575 0
M  V30 594 H 52.1488 -4.98564 -5.68304 0
M  V30 595 H 53.4168 -4.1941 -6.57051 0
M  V30 596 N 57.6459 0.756429 -1.3826 0
M  V30 597 C 58.9229 1.50584 -1.24835 0
M  V30 598 C 59.3029 2.10556 0.151485 0
M  V30 599 O 58.6509 1.96825 1.1607 0
M  V30 600 C 58.8609 2.57448 -2.3563 0
M  V30 601 C 60.2089 3.24429 -2.73917 0
M  V30 602 O 61.2329 2.67751 -2.34921 0
M  V30 603 O 60.0919 4.26937 -3.41156 0
M  V30 604 H 57.1859 0.667664 -0.48801 0
M  V30 605 H 59.7319 0.792083 -1.5008 0
M  V30 606 H 58.5039 2.11362 -3.29305 0
M  V30 607 H 58.1269 3.36408 -2.11933 0
M  V30 608 N 59.124 1.23083 0.984299 0
M  V30 609 C 60.349 1.088 1.76571 0
M  V30 610 C 60.774 -0.356657 1.84688 0
M  V30 611 O 60.132 -1.25788 1.30565 0
M  V30 612 C 60.18 1.71371 3.17277 0
M  V30 613 O 59.284 0.973213 4.00752 0
M  V30 614 H 58.625 0.381599 0.543395 0
M  V30 615 H 61.155 1.63057 1.23587 0
M  V30 616 H 61.165 1.76449 3.67872 0
M  V30 617 H 59.84 2.76493 3.10684 0
M  V30 618 H 58.417 0.999078 3.59267 0
M  V30 619 N 60.6021 -1.18246 1.0419 0
M  V30 620 C 61.8791 -1.84121 0.660208 0
M  V30 621 C 62.2591 -1.92778 -0.860221 0
M  V30 622 O 61.6071 -1.45464 -1.76217 0
M  V30 623 C 61.8171 -3.22355 1.33747 0
M  V30 624 C 63.1651 -3.98376 1.46906 0
M  V30 625 O 64.1891 -3.31799 1.29568 0
M  V30 626 O 63.0481 -5.17665 1.75171 0
M  V30 627 H 60.1421 -0.794036 0.231161 0
M  V30 628 H 62.6881 -1.25628 1.14087 0
M  V30 629 H 61.4601 -3.10964 2.37522 0
M  V30 630 H 61.0831 -3.88506 0.845515 0
M  V30 631 N 62.0802 -0.821533 -1.34494 0
M  V30 632 C 63.3262 -0.409552 -1.98622 0
M  V30 633 C 63.6592 1.0244 -1.64984 0
M  V30 634 O 62.9342 1.71325 -0.920758 0
M  V30 635 C 63.2172 -0.610458 -3.54888 0
M  V30 636 C 63.0702 -2.09043 -3.98273 0
M  V30 637 C 64.3892 -0.0455379 -4.40076 0
M  V30 638 H 61.5082 -0.15028 -0.721516 0
M  V30 639 H 64.1502 -1.03384 -1.59411 0
M  V30 640 H 62.3002 -0.079044 -3.8842 0
M  V30 641 H 63.9722 -2.68537 -3.75081 0
M  V30 642 H 62.2152 -2.58139 -3.48635 0
M  V30 643 H 62.8862 -2.18182 -5.07051 0
M  V30 644 H 65.3622 -0.499557 -4.1309 0
M  V30 645 H 64.2382 -0.215922 -5.48475 0
M  V30 646 H 64.4992 1.04939 -4.29465 0
M  V30 647 N 63.5583 1.46682 -0.576371 0
M  V30 648 C 64.7883 2.06498 -0.0648694 0
M  V30 649 C 65.1963 1.42665 1.24271 0
M  V30 650 O 64.5393 0.523886 1.76071 0
M  V30 651 C 64.6013 3.5904 0.181816 0
M  V30 652 C 64.2653 4.45028 -1.0392 0
M  V30 653 C 65.2623 4.81959 -1.94966 0
M  V30 654 C 62.9473 4.86259 -1.25927 0
M  V30 655 C 64.9413 5.58942 -3.06371 0
M  V30 656 C 62.6283 5.63002 -2.37638 0
M  V30 657 C 63.6263 5.99257 -3.2769 0
M  V30 658 O 63.3143 6.7445 -4.37461 0
M  V30 659 H 63.0463 0.674028 -0.0515987 0
M  V30 660 H 65.6003 1.89393 -0.794951 0
M  V30 661 H 63.8303 3.74429 0.966436 0
M  V30 662 H 65.5193 4.00806 0.641047 0
M  V30 663 H 66.2853 4.50689 -1.79177 0
M  V30 664 H 62.1643 4.57494 -0.567448 0
M  V30 665 H 65.7083 5.87158 -3.76684 0
M  V30 666 H 61.6053 5.93686 -2.53392 0
M  V30 667 H 62.3733 6.92867 -4.35749 0
M  V30 668 N 65.0364 0.313813 1.54444 0
M  V30 669 C 66.2854 -0.292519 1.99568 0
M  V30 670 C 66.5984 -1.54011 1.20582 0
M  V30 671 O 67.8044 -2.22183 1.56035 0
M  V30 672 C 66.2604 -0.571752 3.55329 0
M  V30 673 C 65.8684 0.658229 4.43138 0
M  V30 674 C 67.6124 -1.13857 4.08946 0
M  V30 675 C 65.5194 0.351439 5.90355 0
M  V30 676 H 64.4494 -0.113079 0.745472 0
M  V30 677 H 67.1004 0.424518 1.78522 0
M  V30 678 H 65.4824 -1.34872 3.72325 0
M  V30 679 H 66.6564 1.43403 4.37918 0
M  V30 680 H 64.9714 1.14458 4.0036 0
M  V30 681 H 67.5684 -1.38257 5.16516 0
M  V30 682 H 67.9114 -2.08489 3.6033 0
M  V30 683 H 68.4444 -0.423015 3.95544 0
M  V30 684 H 65.1834 1.26667 6.43145 0
M  V30 685 H 64.7034 -0.386842 5.98551 0
M  V30 686 H 66.3824 -0.0423134 6.46986 0
M  V30 687 N 66.5145 -1.57545 0.0417849 0
M  V30 688 C 67.7425 -1.96624 -0.643928 0
M  V30 689 C 68.1575 -0.918897 -1.64929 0
M  V30 690 O 67.5145 0.0979323 -1.82237 0
M  V30 691 C 67.5655 -3.35781 -1.33914 0
M  V30 692 O 67.2865 -4.365 -0.374048 0
M  V30 693 C 68.7875 -3.89566 -2.1155 0
M  V30 694 H 66.0075 -0.647316 -0.176702 0
M  V30 695 H 68.5515 -2.04229 0.105304 0
M  V30 696 H 66.7065 -3.29357 -2.03968 0
M  V30 697 H 67.1205 -5.17248 -0.869179 0
M  V30 698 H 68.5945 -4.89242 -2.55628 0
M  V30 699 H 69.0715 -3.24488 -2.9598 0
M  V30 700 H 69.6775 -3.99298 -1.46427 0
M  V30 701 N 67.9926 0.231505 -1.5589 0
M  V30 702 C 69.2696 0.981096 -1.69215 0
M  V30 703 C 69.6496 2.02799 -0.586164 0
M  V30 704 O 68.9976 2.24823 0.408253 0
M  V30 705 C 69.2076 1.60054 -3.10135 0
M  V30 706 C 70.5556 2.09658 -3.69227 0
M  V30 707 O 71.5796 1.69967 -3.13033 0
M  V30 708 O 70.4386 2.8258 -4.67772 0
M  V30 709 H 67.5326 0.457653 -0.688827 0
M  V30 710 H 70.0786 0.224073 -1.68214 0
M  V30 711 H 68.8506 0.844105 -3.82087 0
M  V30 712 H 68.4736 2.42336 -3.15212 0
M  V30 713 N 69.4707 1.49531 0.497807 0
M  V30 714 C 70.4177 1.66436 1.59899 0
M  V30 715 C 71.3877 0.505793 1.58212 0
M  V30 716 O 72.5727 0.733202 1.7615 0
M  V30 717 C 69.7127 1.7399 2.98029 0
M  V30 718 C 68.8257 3.01172 3.09708 0
M  V30 719 C 67.9607 2.99686 4.38591 0
M  V30 720 C 66.9997 4.21434 4.43914 0
M  V30 721 N 66.1367 4.1784 5.64229 0
M  V30 722 H 70.9767 2.60459 1.44793 0
M  V30 723 H 68.5137 1.29137 0.704423 0
M  V30 724 H 70.4717 1.76352 3.78095 0
M  V30 725 H 69.1017 0.834301 3.11832 0
M  V30 726 H 68.1537 3.08408 2.22685 0
M  V30 727 H 69.4657 3.91165 3.09502 0
M  V30 728 H 68.6197 3.00628 5.2698 0
M  V30 729 H 67.3587 2.07477 4.41367 0
M  V30 730 H 66.3637 4.20733 3.53926 0
M  V30 731 H 67.5887 5.14839 4.42851 0
M  V30 732 H 65.5347 3.28469 5.67841 0
M  V30 733 H 65.4517 5.01571 5.65652 0
M  V30 734 H 66.7197 4.22889 6.54817 0
M  V30 735 N 70.9488 -0.749086 1.3866 0
M  V30 736 C 72.1768 -1.53834 1.38358 0
M  V30 737 C 72.5918 -1.88783 -0.0255219 0
M  V30 738 O 71.9488 -1.53101 -0.993292 0
M  V30 739 C 71.9998 -2.83468 2.2434 0
M  V30 740 O 71.7208 -2.50008 3.5976 0
M  V30 741 C 73.2218 -3.7758 2.32267 0
M  V30 742 H 70.4418 -0.47585 0.473083 0
M  V30 743 H 72.9858 -0.926726 1.82297 0
M  V30 744 H 71.1408 -3.40995 1.83851 0
M  V30 745 H 71.5548 -3.33182 4.05081 0
M  V30 746 H 73.0288 -4.65478 2.96706 0
M  V30 747 H 73.5058 -4.18334 1.33765 0
M  V30 748 H 74.1118 -3.25976 2.73166 0
M  V30 749 N 72.4269 -1.23603 -0.977757 0
M  V30 750 C 73.6729 -1.07129 -1.72195 0
M  V30 751 C 74.0059 0.390501 -1.90233 0
M  V30 752 O 73.2809 1.28902 -1.45653 0
M  V30 753 C 73.5639 -1.80031 -3.11867 0
M  V30 754 C 73.4169 -3.33899 -3.01383 0
M  V30 755 C 74.7359 -1.56492 -4.11337 0
M  V30 756 H 71.8549 -0.390571 -0.624999 0
M  V30 757 H 74.4969 -1.52142 -1.13811 0
M  V30 758 H 72.6469 -1.41768 -3.6171 0
M  V30 759 H 74.3189 -3.81699 -2.59043 0
M  V30 760 H 72.5619 -3.62796 -2.37827 0
M  V30 761 H 73.2329 -3.801 -4.00285 0
M  V30 762 H 75.7089 -1.89757 -3.70313 0
M  V30 763 H 74.5849 -2.09973 -5.07151 0
M  V30 764 H 74.8459 -0.500874 -4.39254 0
M  V30 765 N 73.905 1.17692 -1.04816 0
M  V30 766 C 74.835 2.23777 -0.666791 0
M  V30 767 C 75.816 1.66796 0.33361 0
M  V30 768 O 77.001 1.93039 0.212042 0
M  V30 769 C 74.131 3.47281 -0.0367933 0
M  V30 770 C 73.085 4.17059 -0.961546 0
M  V30 771 C 72.411 5.34342 -0.195626 0
M  V30 772 C 73.711 4.69713 -2.28402 0
M  V30 773 H 75.405 2.55933 -1.55367 0
M  V30 774 H 72.951 1.23019 -0.748484 0
M  V30 775 H 74.904 4.20706 0.241775 0
M  V30 776 H 73.628 3.14381 0.885004 0
M  V30 777 H 72.287 3.45541 -1.22462 0
M  V30 778 H 71.935 4.97692 0.728816 0
M  V30 779 H 71.635 5.81966 -0.811775 0
M  V30 780 H 73.159 6.10553 0.0757473 0
M  V30 781 H 74.573 5.34794 -2.06563 0
M  V30 782 H 72.97 5.279 -2.8538 0
M  V30 783 H 74.04 3.86726 -2.92525 0
M  V30 784 N 75.3831 0.828654 1.34056 0
M  V30 785 C 76.6601 0.341809 1.9259 0
M  V30 786 C 77.0401 -1.17158 1.75605 0
M  V30 787 O 76.3881 -1.98132 1.13824 0
M  V30 788 C 76.5981 0.777453 3.4023 0
M  V30 789 C 77.9461 0.779579 4.17382 0
M  V30 790 O 78.9701 0.7204 3.48839 0
M  V30 791 O 77.8291 0.857996 5.39723 0
M  V30 792 H 74.9231 0.0946085 0.821571 0
M  V30 793 H 77.4691 0.913827 1.42994 0
M  V30 794 H 76.2411 1.8196 3.46419 0
M  V30 795 H 75.8641 0.181444 3.97186 0
M  V30 796 N 76.8612 -1.46375 0.584142 0
M  V30 797 C 77.7942 -2.27351 -0.196676 0
M  V30 798 C 78.7722 -1.35715 -0.895561 0
M  V30 799 O 79.9562 -1.65126 -0.90916 0
M  V30 800 C 77.0832 -3.13486 -1.28235 0
M  V30 801 C 76.1292 -4.20896 -0.689145 0
M  V30 802 S 76.9622 -5.33299 0.48507 0
M  V30 803 C 78.1182 -6.23 -0.601767 0
M  V30 804 H 78.3512 -2.93228 0.490395 0
M  V30 805 H 75.8842 -1.49875 0.371071 0
M  V30 806 H 77.8422 -3.63676 -1.90395 0
M  V30 807 H 76.5032 -2.4692 -1.94138 0
M  V30 808 H 75.6962 -4.80997 -1.50527 0
M  V30 809 H 75.2982 -3.73726 -0.143181 0
M  V30 810 H 77.5902 -6.60979 -1.48705 0
M  V30 811 H 78.5332 -7.0809 -0.0374799 0
M  V30 812 H 78.9412 -5.57173 -0.906557 0
M  V30 813 N 78.3393 -0.321999 -1.54275 0
M  V30 814 C 79.7553 0.0306999 -1.5957 0
M  V30 815 C 79.9553 1.50614 -1.33857 0
M  V30 816 O 79.0113 2.2619 -1.12223 0
M  V30 817 C 80.3243 -0.386122 -2.98211 0
M  V30 818 C 81.8723 -0.336647 -3.11184 0
M  V30 819 C 82.3473 -0.728607 -4.52167 0
M  V30 820 N 83.8383 -0.681952 -4.58152 0
M  V30 821 C 84.5733 -0.957449 -5.6535 0
M  V30 822 N 84.0693 -1.3 -6.80494 0
M  V30 823 N 85.8623 -0.883113 -5.55119 0
M  V30 824 H 78.0133 -1.28332 -1.69247 0
M  V30 825 H 80.2763 -0.521716 -0.791528 0
M  V30 826 H 79.9823 -1.41404 -3.22022 0
M  V30 827 H 79.8563 0.249662 -3.76373 0
M  V30 828 H 82.2433 0.682058 -2.8711 0
M  V30 829 H 82.3243 -1.00734 -2.3513 0
M  V30 830 H 81.9683 -1.74522 -4.76974 0
M  V30 831 H 81.8983 -0.0356152 -5.26588 0
M  V30 832 H 84.3893 -0.428985 -3.75457 0
M  V30 833 H 84.7023 -1.49563 -7.58189 0
M  V30 834 H 83.0473 -1.33824 -6.81994 0
M  V30 835 H 86.2383 -0.615001 -4.64042 0
M  V30 836 H 86.4113 -1.10118 -6.38575 0
M  V30 837 N 79.8174 1.5752 -0.0501392 0
M  V30 838 C 81.0424 1.97376 0.636997 0
M  V30 839 C 81.4674 0.927466 1.63645 0
M  V30 840 O 80.8254 -0.10941 1.8097 0
M  V30 841 C 80.8734 3.36304 1.30123 0
M  V30 842 O 79.9774 3.34156 2.41689 0
M  V30 843 H 79.3184 0.642998 0.165679 0
M  V30 844 H 81.8484 2.04258 -0.118233 0
M  V30 845 H 81.8584 3.73008 1.65315 0
M  V30 846 H 80.5334 4.11993 0.568746 0
M  V30 847 H 79.1104 3.09196 2.08451 0
M  V30 848 N 81.2955 -0.223234 1.56011 0
M  V30 849 C 82.2285 -1.30377 1.87289 0
M  V30 850 C 83.2065 -1.45286 0.730112 0
M  V30 851 O 84.3905 -1.61126 0.978302 0
M  V30 852 C 81.5175 -2.67431 2.07843 0
M  V30 853 C 80.5635 -2.69546 3.30526 0
M  V30 854 S 81.3965 -2.23781 4.865 0
M  V30 855 C 82.5525 -3.62714 5.10088 0
M  V30 856 H 82.7855 -1.03652 2.78646 0
M  V30 857 H 80.3185 -0.425393 1.48424 0
M  V30 858 H 82.2765 -3.46336 2.20368 0
M  V30 859 H 80.9375 -2.91381 1.17285 0
M  V30 860 H 80.1305 -3.70255 3.41947 0
M  V30 861 H 79.7325 -1.98703 3.16849 0
M  V30 862 H 82.0245 -4.58391 4.98883 0
M  V30 863 H 82.9675 -3.5621 6.11981 0
M  V30 864 H 83.3755 -3.56323 4.37829 0
M  V30 865 N 82.7736 -1.49793 -0.48987 0
M  V30 866 C 84.0506 -1.50348 -1.25119 0
M  V30 867 C 84.4306 -0.237466 -2.0976 0
M  V30 868 O 83.7786 0.77981 -2.14782 0
M  V30 869 C 83.9886 -2.78872 -2.09837 0
M  V30 870 C 85.3366 -3.288 -2.68655 0
M  V30 871 O 86.3606 -2.80065 -2.20096 0
M  V30 872 O 85.2196 -4.13707 -3.57083 0
M  V30 873 H 82.3136 -0.602242 -0.566775 0
M  V30 874 H 84.8596 -1.62067 -0.503229 0
M  V30 875 H 83.6316 -3.62499 -1.47343 0
M  V30 876 H 83.2546 -2.70066 -2.91805 0
M  V30 877 N 84.2517 0.741722 -1.39055 0
M  V30 878 C 85.4987 1.50114 -1.35912 0
M  V30 879 C 85.8267 1.94443 0.0470937 0
M  V30 880 O 85.0817 1.66612 1.02659 0
M  V30 881 C 85.3807 2.7592 -2.27163 0
M  V30 882 C 85.0467 2.50493 -3.74919 0
M  V30 883 C 83.7087 2.43267 -4.1518 0
M  V30 884 C 86.0607 2.28585 -4.684 0
M  V30 885 C 83.3887 2.12166 -5.46994 0
M  V30 886 C 85.7407 1.99002 -6.00484 0
M  V30 887 C 84.4047 1.90241 -6.39816 0
M  V30 888 H 83.6747 0.549306 -0.497336 0
M  V30 889 H 86.3217 0.851896 -1.71508 0
M  V30 890 H 84.6267 3.45553 -1.84663 0
M  V30 891 H 86.3237 3.33923 -2.22028 0
M  V30 892 H 82.9137 2.56992 -3.43006 0
M  V30 893 H 87.0977 2.33139 -4.38132 0
M  V30 894 H 82.3537 2.03901 -5.76398 0
M  V30 895 H 86.5277 1.81057 -6.72452 0
M  V30 896 H 84.1547 1.65907 -7.41875 0
M  V30 897 N 85.7298 1.2412 0.971189 0
M  V30 898 C 86.6768 1.0305 2.06517 0
M  V30 899 C 87.6468 -0.0550666 1.66009 0
M  V30 900 O 88.8318 0.0988688 1.90544 0
M  V30 901 C 85.9718 0.637653 3.39158 0
M  V30 902 C 85.0848 1.79633 3.92882 0
M  V30 903 C 84.2198 1.34939 5.13775 0
M  V30 904 C 83.2588 2.47823 5.59687 0
M  V30 905 N 82.3958 2.04022 6.71803 0
M  V30 906 H 87.2358 1.96685 2.23873 0
M  V30 907 H 84.7728 0.979694 1.09729 0
M  V30 908 H 86.7308 0.390931 4.15364 0
M  V30 909 H 85.3608 -0.261693 3.21737 0
M  V30 910 H 84.4128 2.15681 3.13346 0
M  V30 911 H 85.7248 2.64466 4.22918 0
M  V30 912 H 84.8788 1.06134 5.97345 0
M  V30 913 H 83.6178 0.471557 4.85415 0
M  V30 914 H 82.6228 2.77392 4.74693 0
M  V30 915 H 83.8478 3.36158 5.90063 0
M  V30 916 H 81.7938 1.18632 6.45184 0
M  V30 917 H 81.7108 2.82409 7.01271 0
M  V30 918 H 82.9788 1.78347 7.58823 0
M  V30 919 N 87.2079 -1.17134 1.05439 0
M  V30 920 C 88.4329 -1.91913 0.786396 0
M  V30 921 C 88.8579 -1.7643 -0.652234 0
M  V30 922 O 88.2159 -1.08372 -1.45345 0
M  V30 923 C 88.2639 -3.40921 1.17497 0
M  V30 924 O 87.3679 -4.11244 0.308589 0
M  V30 925 H 86.7089 -0.598215 0.288158 0
M  V30 926 H 89.2389 -1.48457 1.4079 0
M  V30 927 H 89.2489 -3.91668 1.14281 0
M  V30 928 H 87.9239 -3.5151 2.22292 0
M  V30 929 H 86.5009 -3.70731 0.40157 0
M  V30 930 N 88.686 -0.835752 -1.33615 0
M  V30 931 C 89.634 -0.255238 -2.31195 0
M  V30 932 C 90.628 0.61107 -1.57995 0
M  V30 933 O 91.834 0.500979 -1.72888 0
M  V30 934 H 88.209 -0.0638085 -0.749288 0
M  V30 935 H 90.18 -1.09283 -2.77669 0
M  V30 936 C 88.929 0.55754 -3.43201 0
M  V30 937 H 88.252 -0.0997553 -3.99676 0
M  V30 938 H 89.692 0.929622 -4.13683 0
M  V30 939 C 88.151 1.73515 -2.88781 0
M  V30 940 O 88.681 2.83376 -2.84712 0
M  V30 941 N 86.887 1.55603 -2.4543 0
M  V30 942 H 86.434 0.662354 -2.48939 0
M  V30 943 H 86.392 2.34545 -2.09371 0
M  V30 944 N 90.1641 1.46063 -0.591896 0
M  V30 945 C 91.3891 2.07226 -0.0850314 0
M  V30 946 C 91.8141 1.43625 1.21463 0
M  V30 947 O 91.1721 0.523305 1.73583 0
M  V30 948 C 91.2201 3.60554 0.0576567 0
M  V30 949 O 90.3241 3.97128 1.11188 0
M  V30 950 H 89.6651 0.660615 -0.0669568 0
M  V30 951 H 92.1951 1.8756 -0.81745 0
M  V30 952 H 92.2051 4.07165 0.2609 0
M  V30 953 H 90.8801 4.06235 -0.891416 0
M  V30 954 H 89.4571 3.62213 0.886356 0
M  V30 955 N 91.6422 0.330177 1.54103 0
M  V30 956 C 92.6052 -0.520144 2.2322 0
M  V30 957 C 93.6052 -1.03828 1.22786 0
M  V30 958 O 94.7952 -0.929652 1.4732 0
M  V30 959 C 91.9272 -1.72317 2.94142 0
M  V30 960 H 93.1202 0.0841605 2.99782 0
M  V30 961 H 90.6732 0.0813433 1.56088 0
M  V30 962 H 91.4082 -2.36653 2.21734 0
M  V30 963 H 91.1932 -1.35898 3.67796 0
M  V30 964 H 92.6832 -2.3266 3.46784 0
M  V30 965 N 93.1203 -1.57491 0.0584922 0
M  V30 966 C 94.3663 -1.93264 -0.614558 0
M  V30 967 C 94.6993 -0.937717 -1.7006 0
M  V30 968 O 93.9743 0.0351652 -1.94468 0
M  V30 969 C 94.2573 -3.3938 -1.20386 0
M  V30 970 C 94.1103 -4.49625 -0.125375 0
M  V30 971 C 95.4293 -3.86039 -2.11334 0
M  V30 972 H 92.5483 -0.702791 -0.221933 0
M  V30 973 H 95.1903 -1.8961 0.12175 0
M  V30 974 H 93.3403 -3.42626 -1.83139 0
M  V30 975 H 95.0123 -4.58506 0.506971 0
M  V30 976 H 93.2553 -4.30354 0.545672 0
M  V30 977 H 93.9263 -5.48967 -0.577861 0
M  V30 978 H 96.4023 -3.84716 -1.58534 0
M  V30 979 H 95.2783 -4.88914 -2.49507 0
M  V30 980 H 95.5393 -3.23215 -3.01636 0
M  V30 981 N 94.5984 0.214957 -1.56127 0
M  V30 982 C 95.5614 1.24997 -1.92116 0
M  V30 983 C 96.5614 1.39467 -0.800344 0
M  V30 984 O 97.7514 1.37619 -1.06802 0
M  V30 985 C 94.8834 2.62271 -2.17777 0
M  V30 986 H 96.0764 0.942875 -2.84693 0
M  V30 987 H 93.6294 0.455654 -1.49511 0
M  V30 988 H 94.3644 2.98068 -1.27773 0
M  V30 989 H 94.1494 2.53143 -2.99434 0
M  V30 990 H 95.6394 3.36946 -2.46693 0
M  V30 991 N 96.0765 1.50051 0.48192 0
M  V30 992 C 97.3225 1.61706 1.2338 0
M  V30 993 C 97.6775 0.308488 1.89911 0
M  V30 994 O 96.9705 -0.692798 1.78636 0
M  V30 995 C 97.1645 2.72717 2.30998 0
M  V30 996 C 96.9935 4.14242 1.75024 0
M  V30 997 C 95.7635 4.80786 1.55476 0
M  V30 998 C 97.9615 4.98846 1.25128 0
M  V30 999 N 95.9435 6.06563 0.946311 0
M  V30 1000 C 97.3145 6.15258 0.765382 0
M  V30 1001 C 99.3695 4.84702 1.13881 0
M  V30 1002 C 98.0725 7.19079 0.178113 0
M  V30 1003 C 100.098 5.8869 0.565486 0
M  V30 1004 C 99.4605 7.04343 0.0899105 0
M  V30 1005 H 95.5595 0.645958 0.440753 0
M  V30 1006 H 98.1435 1.8713 0.537624 0
M  V30 1007 H 96.3145 2.49033 2.98055 0
M  V30 1008 H 98.0465 2.73789 2.9803 0
M  V30 1009 H 94.8015 4.37899 1.80392 0
M  V30 1010 H 95.2255 6.73767 0.660812 0
M  V30 1011 H 99.8675 3.95583 1.49244 0
M  V30 1012 H 97.5855 8.07882 -0.187749 0
M  V30 1013 H 101.171 5.79808 0.480974 0
M  V30 1014 H 100.051 7.83433 -0.346782 0
M  V30 1015 N 97.5546 -0.734337 1.39446 0
M  V30 1016 C 98.7796 -1.52866 1.40167 0
M  V30 1017 C 99.2046 -1.881 -0.00171513 0
M  V30 1018 O 98.5626 -1.51957 -0.988879 0
M  V30 1019 C 98.6106 -2.79235 2.28167 0
M  V30 1020 O 97.7146 -3.75185 1.71201 0
M  V30 1021 H 97.0556 -0.461618 0.477289 0
M  V30 1022 H 99.5856 -0.905949 1.8345 0
M  V30 1023 H 99.5956 -3.27963 2.42702 0
M  V30 1024 H 98.2706 -2.52923 3.30156 0
M  V30 1025 H 96.8476 -3.33958 1.65912 0
M  V30 1026 N 99.0327 -1.24633 -0.964593 0
M  V30 1027 C 99.9807 -1.03917 -2.08096 0
M  V30 1028 C 100.975 0.0268581 -1.69379 0
M  V30 1029 O 102.181 -0.127952 -1.79545 0
M  V30 1030 H 98.5557 -0.319044 -0.680966 0
M  V30 1031 H 100.527 -1.98581 -2.22729 0
M  V30 1032 C 99.2757 -0.663983 -3.41301 0
M  V30 1033 H 98.5987 -1.47605 -3.71555 0
M  V30 1034 H 100.039 -0.558663 -4.20303 0
M  V30 1035 C 98.4977 0.629169 -3.30973 0
M  V30 1036 O 99.0277 1.67404 -3.65156 0
M  V30 1037 N 97.2337 0.611057 -2.84103 0
M  V30 1038 H 96.7807 -0.239593 -2.56483 0
M  V30 1039 H 96.7387 1.47647 -2.77575 0
M  V30 1040 N 100.511 1.16574 -1.06058 0
M  V30 1041 C 101.458 2.20883 -0.669263 0
M  V30 1042 C 102.428 1.62729 0.332918 0
M  V30 1043 O 103.613 1.895 0.222346 0
M  V30 1044 C 100.753 3.45049 -0.0593572 0
M  V30 1045 C 99.8658 4.17458 -1.11143 0
M  V30 1046 C 99.0008 5.29135 -0.467916 0
M  V30 1047 C 98.0398 5.93343 -1.50369 0
M  V30 1048 N 97.1768 6.96516 -0.883706 0
M  V30 1049 H 102.017 2.53709 -1.5632 0
M  V30 1050 H 99.5538 1.24616 -0.781625 0
M  V30 1051 H 101.512 4.16033 0.311771 0
M  V30 1052 H 100.142 3.12781 0.797992 0
M  V30 1053 H 99.1938 3.45101 -1.60029 0
M  V30 1054 H 100.506 4.61307 -1.89731 0
M  V30 1055 H 99.6598 6.06684 -0.0436871 0
M  V30 1056 H 98.3988 4.86443 0.349864 0
M  V30 1057 H 97.4038 5.14517 -1.93784 0
M  V30 1058 H 98.6288 6.38114 -2.32352 0
M  V30 1059 H 96.5748 6.55943 -0.086595 0
M  V30 1060 H 96.4918 7.38723 -1.607 0
M  V30 1061 H 97.7598 7.77993 -0.484543 0
M  V30 1062 N 101.989 0.842826 1.3317 0
M  V30 1063 C 103.214 0.453129 2.02389 0
M  V30 1064 C 103.639 -0.939105 1.6298 0
M  V30 1065 O 102.997 -1.61472 0.8244 0
M  V30 1066 C 103.045 0.586094 3.55805 0
M  V30 1067 O 102.149 -0.386029 4.10589 0
M  V30 1068 H 101.49 0.183664 0.638094 0
M  V30 1069 H 104.02 1.13875 1.69981 0
M  V30 1070 H 104.03 0.469209 4.05293 0
M  V30 1071 H 102.705 1.6014 3.83833 0
M  V30 1072 H 101.282 -0.226371 3.72212 0
M  V30 1073 N 103.467 -1.45747 0.599634 0
M  V30 1074 C 104.744 -1.95585 0.0240846 0
M  V30 1075 C 105.124 -1.54217 -1.44154 0
M  V30 1076 O 104.472 -0.800903 -2.14004 0
M  V30 1077 C 104.682 -3.48344 0.21385 0
M  V30 1078 C 106.03 -4.24504 0.0904902 0
M  V30 1079 O 107.054 -3.55911 0.143558 0
M  V30 1080 O 105.913 -5.46491 -0.0310766 0
M  V30 1081 H 103.007 -0.82602 -0.0402478 0
M  V30 1082 H 105.553 -1.55951 0.669139 0
M  V30 1083 H 104.325 -3.71397 1.23206 0
M  V30 1084 H 103.948 -3.9485 -0.466842 0
M  V30 1085 N 104.945 -0.338344 -1.53925 0
M  V30 1086 C 106.192 0.259758 -2.00827 0
M  V30 1087 C 106.52 1.50973 -1.22628 0
M  V30 1088 O 105.775 1.93379 -0.300509 0
M  V30 1089 C 106.074 0.62448 -3.51902 0
M  V30 1090 C 105.74 -0.528006 -4.47798 0
M  V30 1091 C 104.402 -0.844298 -4.73735 0
M  V30 1092 C 106.754 -1.30143 -5.0469 0
M  V30 1093 C 104.082 -1.93648 -5.53821 0
M  V30 1094 C 106.434 -2.38382 -5.85967 0
M  V30 1095 C 105.098 -2.70576 -6.10201 0
M  V30 1096 H 104.368 0.0950523 -0.734878 0
M  V30 1097 H 107.015 -0.465182 -1.85764 0
M  V30 1098 H 105.32 1.43006 -3.64769 0
M  V30 1099 H 107.017 1.09905 -3.85645 0
M  V30 1100 H 103.607 -0.271421 -4.2774 0
M  V30 1101 H 107.791 -1.07033 -4.84621 0
M  V30 1102 H 103.047 -2.19021 -5.70824 0
M  V30 1103 H 107.221 -2.98746 -6.29066 0
M  V30 1104 H 104.848 -3.55333 -6.72044 0
M  V30 1105 N 106.423 1.57458 -0.0668435 0
M  V30 1106 C 107.386 2.11323 0.887422 0
M  V30 1107 C 108.386 1.03618 1.22964 0
M  V30 1108 O 109.576 1.29626 1.16373 0
M  V30 1109 C 106.708 2.61048 2.19242 0
M  V30 1110 H 107.901 2.96942 0.420194 0
M  V30 1111 H 105.454 1.55239 0.181793 0
M  V30 1112 H 106.189 1.78868 2.70512 0
M  V30 1113 H 105.974 3.39769 1.95702 0
M  V30 1114 H 107.464 3.02814 2.87565 0
M  V30 1115 N 107.901 -0.206675 1.56239 0
M  V30 1116 C 109.141 -0.93574 1.81723 0
M  V30 1117 C 109.505 -1.80927 0.642609 0
M  V30 1118 O 110.706 -2.57323 0.777081 0
M  V30 1119 C 108.977 -1.74012 3.12177 0
M  V30 1120 S 110.536 -2.52279 3.59028 0
M  V30 1121 H 107.354 -0.314065 0.637875 0
M  V30 1122 H 109.956 -0.200071 1.94474 0
M  V30 1123 H 108.66 -1.0888 3.95693 0
M  V30 1124 H 108.191 -2.51782 3.02274 0
M  V30 1125 H 110.206 -3.76209 3.23545 0
M  V30 1126 N 109.379 -1.50304 -0.473955 0
M  V30 1127 C 110.342 -1.6841 -1.55469 0
M  V30 1128 C 111.342 -0.554905 -1.50922 0
M  V30 1129 O 112.532 -0.821882 -1.53593 0
M  V30 1130 C 109.664 -1.70667 -2.95102 0
M  V30 1131 H 110.857 -2.64828 -1.40733 0
M  V30 1132 H 108.41 -1.39742 -0.700132 0
M  V30 1133 H 109.145 -0.75932 -3.15285 0
M  V30 1134 H 108.93 -2.52698 -2.9981 0
M  V30 1135 H 110.42 -1.8664 -3.73571 0
M  V30 1136 N 110.857 0.726932 -1.39834 0
M  V30 1137 C 111.805 1.86235 -1.39353 0
M  V30 1138 C 112.799 1.67144 -0.275555 0
M  V30 1139 O 114.005 1.74387 -0.44601 0
M  V30 1140 H 110.38 0.613174 -0.43534 0
M  V30 1141 H 112.351 1.83756 -2.35109 0
M  V30 1142 C 111.1 3.23995 -1.26185 0
M  V30 1143 H 110.423 3.39285 -2.11484 0
M  V30 1144 H 111.863 4.03609 -1.29907 0
M  V30 1145 C 110.322 3.36888 0.0290018 0
M  V30 1146 O 110.852 3.89152 0.99619 0
M  V30 1147 N 109.058 2.90446 0.0947437 0
M  V30 1148 H 108.605 2.48102 -0.693035 0
M  V30 1149 H 108.563 2.99451 0.957932 0
M  V30 1150 N 112.336 1.25143 0.95797 0
M  V30 1151 C 113.299 1.05321 2.03569 0
M  V30 1152 C 114.299 0.007152 1.60798 0
M  V30 1153 O 115.489 0.24903 1.72411 0
M  V30 1154 C 112.621 0.598394 3.35607 0
M  V30 1155 H 113.814 2.00986 2.22586 0
M  V30 1156 H 111.367 1.07502 1.13459 0
M  V30 1157 H 112.102 -0.361014 3.22284 0
M  V30 1158 H 111.887 1.35351 3.67998 0
M  V30 1159 H 113.377 0.48104 4.1482 0
M  V30 1160 N 113.814 -1.1601 1.06675 0
M  V30 1161 C 115.061 -1.86633 0.785781 0
M  V30 1162 C 115.389 -1.81929 -0.687896 0
M  V30 1163 O 114.644 -1.23253 -1.52011 0
M  V30 1164 C 114.943 -3.35547 1.23057 0
M  V30 1165 C 114.609 -3.60448 2.70902 0
M  V30 1166 C 113.271 -3.66954 3.11285 0
M  V30 1167 C 115.623 -3.7071 3.66365 0
M  V30 1168 C 112.951 -3.81225 4.45965 0
M  V30 1169 C 115.303 -3.86503 5.00797 0
M  V30 1170 C 113.967 -3.91252 5.40813 0
M  V30 1171 H 113.237 -0.682937 0.287538 0
M  V30 1172 H 115.884 -1.37146 1.33654 0
M  V30 1173 H 114.189 -3.87193 0.59907 0
M  V30 1174 H 115.886 -3.88583 0.990163 0
M  V30 1175 H 112.476 -3.56021 2.38636 0
M  V30 1176 H 116.66 -3.64991 3.36296 0
M  V30 1177 H 111.916 -3.83155 4.76447 0
M  V30 1178 H 116.09 -3.93385 5.74649 0
M  V30 1179 H 113.717 -4.02062 6.45174 0
M  V30 1180 N 115.292 -0.849877 -1.32721 0
M  V30 1181 C 116.24 -0.279745 -2.30912 0
M  V30 1182 C 117.234 0.594278 -1.58634 0
M  V30 1183 O 118.44 0.482613 -1.73409 0
M  V30 1184 H 114.815 -0.0717521 -0.748569 0
M  V30 1185 H 116.786 -1.12222 -2.76494 0
M  V30 1186 C 115.535 0.521108 -3.43773 0
M  V30 1187 H 114.858 -0.142141 -3.99547 0
M  V30 1188 H 116.298 0.885693 -4.14646 0
M  V30 1189 C 114.757 1.70442 -2.90605 0
M  V30 1190 O 115.287 2.8034 -2.87702 0
M  V30 1191 N 113.493 1.52991 -2.47067 0
M  V30 1192 H 113.04 0.635914 -2.49628 0
M  V30 1193 H 112.998 2.32311 -2.11847 0
M  V30 1194 N 116.77 1.45427 -0.607355 0
M  V30 1195 C 117.718 2.32269 0.12411 0
M  V30 1196 C 118.712 1.45955 0.859854 0
M  V30 1197 O 119.918 1.6244 0.775447 0
M  V30 1198 H 116.293 0.749691 0.0588839 0
M  V30 1199 H 118.264 2.91743 -0.626762 0
M  V30 1200 C 117.013 3.29567 1.1082 0
M  V30 1201 H 116.336 3.95978 0.551492 0
M  V30 1202 H 117.776 3.93061 1.58995 0
M  V30 1203 C 116.235 2.56722 2.18164 0
M  V30 1204 O 116.765 2.34842 3.25902 0
M  V30 1205 N 114.971 2.16861 1.93442 0
M  V30 1206 H 114.518 2.34855 1.05834 0
M  V30 1207 H 114.476 1.68444 2.65469 0
M  V30 1208 N 118.248 0.346503 1.53744 0
M  V30 1209 C 119.473 -0.253074 2.0585 0
M  V30 1210 C 119.898 -1.43202 1.21962 0
M  V30 1211 O 119.256 -1.79783 0.234073 0
M  V30 1212 C 119.304 -0.643193 3.54817 0
M  V30 1213 O 118.408 -1.74286 3.73762 0
M  V30 1214 H 117.749 -0.0413583 0.662711 0
M  V30 1215 H 120.279 0.501574 1.98357 0
M  V30 1216 H 120.289 -0.919526 3.97503 0
M  V30 1217 H 118.964 0.218966 4.15323 0
M  V30 1218 H 117.541 -1.46356 3.42979 0
M  V30 1219 N 119.726 -1.57421 0.075193 0
M  V30 1220 C 120.975 -1.92794 -0.592731 0
M  V30 1221 C 121.288 -0.957478 -1.70563 0
M  V30 1222 O 122.494 -1.20417 -2.43335 0
M  V30 1223 C 120.95 -3.42495 -1.10569 0
M  V30 1224 C 120.558 -4.47994 -0.0236121 0
M  V30 1225 C 122.302 -3.86864 -1.74748 0
M  V30 1226 C 120.209 -5.88829 -0.550803 0
M  V30 1227 H 119.139 -0.719591 -0.225177 0
M  V30 1228 H 121.79 -1.82902 0.147978 0
M  V30 1229 H 120.172 -3.47471 -1.89947 0
M  V30 1230 H 121.346 -4.54637 0.751099 0
M  V30 1231 H 119.661 -4.13113 0.522159 0
M  V30 1232 H 122.258 -4.8947 -2.15229 0
M  V30 1233 H 122.601 -3.24417 -2.60882 0
M  V30 1234 H 123.134 -3.84504 -1.01986 0
M  V30 1235 H 119.873 -6.54929 0.273457 0
M  V30 1236 H 119.393 -5.85698 -1.29296 0
M  V30 1237 H 121.072 -6.38811 -1.02613 0
M  V30 1238 N 121.204 0.198386 -1.56346 0
M  V30 1239 C 122.453 0.917451 -1.79627 0
M  V30 1240 C 122.766 1.8456 -0.64784 0
M  V30 1241 O 123.972 2.60504 -0.764859 0
M  V30 1242 C 122.428 1.68175 -3.18191 0
M  V30 1243 C 122.036 0.798589 -4.40825 0
M  V30 1244 C 123.78 2.39065 -3.50782 0
M  V30 1245 C 121.687 1.56157 -5.70411 0
M  V30 1246 H 120.617 0.346317 -0.669762 0
M  V30 1247 H 123.268 0.170801 -1.82703 0
M  V30 1248 H 121.65 2.47216 -3.09354 0
M  V30 1249 H 122.824 0.0470665 -4.60776 0
M  V30 1250 H 121.139 0.200686 -4.15916 0
M  V30 1251 H 123.736 2.96692 -4.44835 0
M  V30 1252 H 124.079 3.13091 -2.74371 0
M  V30 1253 H 124.612 1.66993 -3.61052 0
M  V30 1254 H 121.351 0.864142 -6.49779 0
M  V30 1255 H 120.871 2.2871 -5.54483 0
M  V30 1256 H 122.55 2.11622 -6.11412 0
M  V30 1257 N 122.682 1.50554 0.465978 0
M  V30 1258 C 124.093 1.54599 1.04671 0
M  V30 1259 C 124.444 0.352488 1.93008 0
M  V30 1260 O 123.569 -0.534044 2.09707 0
M  V30 1261 C 124.164 2.80166 1.90505 0
M  V30 1262 C 122.723 2.86876 2.43678 0
M  V30 1263 C 121.87 2.48947 1.22151 0
M  V30 1264 H 124.821 1.56744 0.248384 0
M  V30 1265 H 124.842 2.62311 2.75633 0
M  V30 1266 H 124.354 3.67013 1.26186 0
M  V30 1267 H 122.455 2.04393 3.11536 0
M  V30 1268 H 122.568 3.89885 2.78436 0
M  V30 1269 H 120.932 2.01498 1.5579 0
M  V30 1270 H 121.715 3.38107 0.594866 0
M  V30 1271 N 124.16 -0.719506 1.40217 0
M  V30 1272 C 125.07 -1.86378 1.42479 0
M  V30 1273 C 126.086 -1.71073 0.317834 0
M  V30 1274 O 127.262 -1.93406 0.561794 0
M  V30 1275 C 124.327 -3.22136 1.28178 0
M  V30 1276 C 123.388 -3.49723 2.48982 0
M  V30 1277 C 122.621 -4.79004 2.35353 0
M  V30 1278 O 122.844 -5.53821 1.36524 0
M  V30 1279 O 121.778 -5.06839 3.2465 0
M  V30 1280 H 125.604 -1.87425 2.38968 0
M  V30 1281 H 123.189 -0.869405 1.21498 0
M  V30 1282 H 125.071 -4.03234 1.22395 0
M  V30 1283 H 123.746 -3.21825 0.347934 0
M  V30 1284 H 122.653 -2.6865 2.60342 0
M  V30 1285 H 123.986 -3.54828 3.41113 0
M  V30 1286 N 125.638 -1.25649 -0.95132 0
M  V30 1287 C 126.915 -1.01361 -1.67288 0
M  V30 1288 C 127.295 0.459135 -2.06046 0
M  V30 1289 O 126.643 1.43723 -1.7764 0
M  V30 1290 C 126.853 -1.95256 -2.89268 0
M  V30 1291 C 128.201 -2.23289 -3.61147 0
M  V30 1292 O 129.225 -1.93041 -2.99355 0
M  V30 1293 O 128.084 -2.74741 -4.72419 0
M  V30 1294 H 125.178 -0.38464 -0.732107 0
M  V30 1295 H 127.724 -1.36817 -1.00395 0
M  V30 1296 H 126.496 -2.94685 -2.57442 0
M  V30 1297 H 126.119 -1.60218 -3.6389 0
M  V30 1298 N 127.117 1.15442 -1.07289 0
M  V30 1299 C 128.345 1.90096 -0.81676 0
M  V30 1300 C 128.76 1.7798 0.629966 0
M  V30 1301 O 128.117 1.1313 1.43206 0
M  V30 1302 C 128.168 3.40466 -1.21512 0
M  V30 1303 O 127.889 3.52232 -2.60508 0
M  V30 1304 C 129.39 4.32145 -0.988198 0
M  V30 1305 H 126.61 0.602495 -0.295366 0
M  V30 1306 H 129.154 1.4627 -1.42918 0
M  V30 1307 H 127.309 3.81958 -0.647039 0
M  V30 1308 H 127.723 4.45549 -2.76742 0
M  V30 1309 H 129.197 5.36072 -1.31645 0
M  V30 1310 H 129.674 4.39135 0.0755063 0
M  V30 1311 H 130.28 3.96395 -1.54115 0
M  V30 1312 N 128.595 0.856903 1.32268 0
M  V30 1313 C 129.842 0.461386 1.97174 0
M  V30 1314 C 130.17 -0.983491 1.67803 0
M  V30 1315 O 129.425 -1.70541 0.959903 0
M  V30 1316 C 129.724 0.649919 3.51441 0
M  V30 1317 C 129.39 2.0656 4.00804 0
M  V30 1318 C 128.052 2.45279 4.13995 0
M  V30 1319 C 130.404 2.98947 4.26943 0
M  V30 1320 C 127.732 3.75653 4.50668 0
M  V30 1321 C 130.084 4.28822 4.65075 0
M  V30 1322 C 128.748 4.67472 4.76472 0
M  V30 1323 H 128.018 0.168833 0.72151 0
M  V30 1324 H 130.665 1.08739 1.57633 0
M  V30 1325 H 128.97 -0.0593018 3.91755 0
M  V30 1326 H 130.667 0.32391 3.9969 0
M  V30 1327 H 127.257 1.75495 3.91024 0
M  V30 1328 H 131.441 2.70265 4.16258 0
M  V30 1329 H 126.697 4.05379 4.57688 0
M  V30 1330 H 130.871 5.0047 4.84255 0
M  V30 1331 H 128.498 5.68539 5.04646 0
M  V30 1332 N 130.073 -1.45103 0.615059 0
M  V30 1333 C 131.32 -2.02183 0.113179 0
M  V30 1334 C 131.648 -1.48249 -1.25906 0
M  V30 1335 O 130.903 -0.650265 -1.84581 0
M  V30 1336 C 131.202 -3.57386 0.0318797 0
M  V30 1337 C 130.868 -4.30505 1.34077 0
M  V30 1338 C 129.53 -4.50197 1.69929 0
M  V30 1339 C 131.882 -4.72238 2.20546 0
M  V30 1340 C 129.21 -5.08881 2.91988 0
M  V30 1341 C 131.562 -5.32272 3.41861 0
M  V30 1342 C 130.226 -5.50187 3.77956 0
M  V30 1343 H 129.496 -0.739842 0.0414151 0
M  V30 1344 H 132.143 -1.74073 0.798168 0
M  V30 1345 H 130.448 -3.84817 -0.736409 0
M  V30 1346 H 132.145 -3.99264 -0.372712 0
M  V30 1347 H 128.735 -4.15496 1.05173 0
M  V30 1348 H 132.919 -4.56751 1.94146 0
M  V30 1349 H 128.175 -5.20939 3.2005 0
M  V30 1350 H 132.349 -5.63563 4.09109 0
M  V30 1351 H 129.976 -5.95427 4.72622 0
M  V30 1352 N 131.551 -0.354651 -1.53558 0
M  V30 1353 C 132.962 0.126902 -1.86268 0
M  V30 1354 C 133.313 1.49075 -1.27558 0
M  V30 1355 O 132.438 2.08105 -0.5934 0
M  V30 1356 C 133.033 0.237046 -3.3797 0
M  V30 1357 C 131.592 0.662842 -3.70518 0
M  V30 1358 C 130.739 -0.196652 -2.76602 0
M  V30 1359 H 133.69 -0.573849 -1.47962 0
M  V30 1360 H 133.711 1.06259 -3.65362 0
M  V30 1361 H 133.223 -0.755725 -3.80671 0
M  V30 1362 H 131.324 1.66424 -3.33367 0
M  V30 1363 H 131.437 0.445034 -4.77029 0
M  V30 1364 H 129.801 0.332763 -2.52517 0
M  V30 1365 H 130.584 -1.18676 -3.22135 0
M  V30 1366 N 133.029 1.57378 -0.0835403 0
M  V30 1367 C 134.254 1.98682 0.594987 0
M  V30 1368 C 134.679 0.961969 1.61641 0
M  V30 1369 O 134.037 -0.0709989 1.81161 0
M  V30 1370 C 134.085 3.38988 1.2296 0
M  V30 1371 O 133.189 3.39208 2.34546 0
M  V30 1372 H 132.53 0.646368 0.152002 0
M  V30 1373 H 135.06 2.03961 -0.161533 0
M  V30 1374 H 135.07 3.76431 1.57366 0
M  V30 1375 H 133.745 4.13107 0.481228 0
M  V30 1376 H 132.322 3.13548 2.01846 0
M  V30 1377 N 134.507 -0.190092 1.56449 0
M  V30 1378 C 135.918 -0.754312 1.70784 0
M  V30 1379 C 136.269 -1.83631 0.690951 0
M  V30 1380 O 135.394 -2.15868 -0.151604 0
M  V30 1381 C 135.989 -1.37503 3.09642 0
M  V30 1382 C 134.548 -1.88628 3.25725 0
M  V30 1383 C 133.695 -0.758098 2.66736 0
M  V30 1384 H 136.646 0.0350524 1.58661 0
M  V30 1385 H 136.667 -2.2445 3.0725 0
M  V30 1386 H 136.179 -0.587302 3.83631 0
M  V30 1387 H 134.28 -2.70103 2.56661 0
M  V30 1388 H 134.393 -2.04462 4.3328 0
M  V30 1389 H 132.757 -1.17369 2.26046 0
M  V30 1390 H 133.54 0.0174705 3.43296 0
M  V30 1391 N 135.985 -1.50799 -0.457987 0
M  V30 1392 C 136.895 -1.73426 -1.57989 0
M  V30 1393 C 137.911 -0.617745 -1.62665 0
M  V30 1394 O 139.087 -0.897614 -1.80291 0
M  V30 1395 C 136.152 -1.83557 -2.94122 0
M  V30 1396 C 135.213 -3.07345 -2.99729 0
M  V30 1397 C 134.446 -3.16983 -4.29368 0
M  V30 1398 O 134.669 -2.33077 -5.20607 0
M  V30 1399 O 133.603 -4.09812 -4.40837 0
M  V30 1400 H 137.429 -2.68555 -1.41817 0
M  V30 1401 H 135.014 -1.35052 -0.638859 0
M  V30 1402 H 136.896 -1.92326 -3.74952 0
M  V30 1403 H 135.571 -0.916137 -3.10465 0
M  V30 1404 H 134.478 -3.04068 -2.1793 0
M  V30 1405 H 135.811 -3.9891 -2.88326 0
M  V30 1406 N 137.463 0.71206 -1.40597 0
M  V30 1407 C 138.688 1.50617 -1.42581 0
M  V30 1408 C 139.113 1.88079 -0.0282102 0
M  V30 1409 O 138.471 1.53511 0.964579 0
M  V30 1410 C 138.519 2.7557 -2.3258 0
M  V30 1411 O 137.623 3.72414 -1.77148 0
M  V30 1412 H 136.964 0.453966 -0.484573 0
M  V30 1413 H 139.494 0.876649 -1.84868 0
M  V30 1414 H 139.504 3.2406 -2.47889 0
M  V30 1415 H 138.179 2.47639 -3.34138 0
M  V30 1416 H 136.756 3.31276 -1.71204 0
M  V30 1417 N 138.941 1.26152 0.944643 0
M  V30 1418 C 140.166 1.14363 1.7302 0
M  V30 1419 C 140.591 -0.29772 1.85729 0
M  V30 1420 O 139.949 -1.2157 1.34501 0
M  V30 1421 C 139.997 1.81378 3.11664 0
M  V30 1422 O 139.101 1.10022 3.97453 0
M  V30 1423 H 138.442 0.398694 0.53098 0
M  V30 1424 H 140.972 1.66906 1.18337 0
M  V30 1425 H 140.982 1.88064 3.62072 0
M  V30 1426 H 139.657 2.86237 3.0173 0
M  V30 1427 H 138.234 1.11287 3.55907 0
M  V30 1428 N 140.419 -1.14872 1.07899 0
M  V30 1429 C 141.659 -1.8745 0.814965 0
M  V30 1430 C 142.023 -1.80758 -0.64733 0
M  V30 1431 O 143.224 -2.48422 -1.02664 0
M  V30 1432 C 141.495 -3.32286 1.31607 0
M  V30 1433 S 143.054 -4.22537 1.18357 0
M  V30 1434 H 139.872 -0.646833 0.295174 0
M  V30 1435 H 142.474 -1.38555 1.37923 0
M  V30 1436 H 141.178 -3.34703 2.37491 0
M  V30 1437 H 140.709 -3.86238 0.747261 0
M  V30 1438 H 142.724 -4.96044 0.124586 0
M  V30 1439 N 141.898 -0.863906 -1.31812 0
M  V30 1440 C 143.175 -0.39275 -1.91616 0
M  V30 1441 C 143.555 1.12461 -1.7865 0
M  V30 1442 O 142.903 1.95045 -1.19037 0
M  V30 1443 C 143.113 -0.867385 -3.38049 0
M  V30 1444 C 144.461 -0.889966 -4.15168 0
M  V30 1445 O 145.485 -0.812635 -3.46806 0
M  V30 1446 O 144.344 -1.00079 -5.37258 0
M  V30 1447 H 141.438 -0.116358 -0.818773 0
M  V30 1448 H 143.984 -0.951418 -1.40521 0
M  V30 1449 H 142.756 -1.91081 -3.41473 0
M  V30 1450 H 142.379 -0.286687 -3.96565 0
M  V30 1451 N 143.376 1.44774 -0.622745 0
M  V30 1452 C 144.622 2.0242 -0.124083 0
M  V30 1453 C 144.955 1.4881 1.24777 0
M  V30 1454 O 144.23 0.668799 1.8264 0
M  V30 1455 C 144.513 3.59957 -0.101619 0
M  V30 1456 C 144.366 4.23867 -1.50521 0
M  V30 1457 C 145.685 4.36284 0.578272 0
M  V30 1458 H 142.804 0.735528 -0.0465645 0
M  V30 1459 H 145.446 1.72447 -0.797617 0
M  V30 1460 H 143.596 3.85623 0.471934 0
M  V30 1461 H 145.268 4.09336 -2.12701 0
M  V30 1462 H 143.511 3.81684 -2.06154 0
M  V30 1463 H 144.182 5.32843 -1.4416 0
M  V30 1464 H 146.658 4.16001 0.0906057 0
M  V30 1465 H 145.534 5.46004 0.563149 0
M  V30 1466 H 145.795 4.10271 1.64713 0
M  V30 1467 N 144.854 0.36279 1.53368 0
M  V30 1468 C 145.801 -0.485008 2.25646 0
M  V30 1469 C 146.771 -1.07982 1.2621 0
M  V30 1470 O 147.956 -1.11284 1.54986 0
M  V30 1471 C 145.096 -1.62023 3.04701 0
M  V30 1472 C 144.209 -1.05086 4.19024 0
M  V30 1473 C 143.344 -2.15496 4.85525 0
M  V30 1474 C 142.383 -1.5601 5.91884 0
M  V30 1475 N 141.52 -2.60241 6.52088 0
M  V30 1476 H 146.36 0.137864 2.97681 0
M  V30 1477 H 143.897 0.0798061 1.46883 0
M  V30 1478 H 145.855 -2.28887 3.48807 0
M  V30 1479 H 144.485 -2.2138 2.34927 0
M  V30 1480 H 143.537 -0.27259 3.79422 0
M  V30 1481 H 144.849 -0.575926 4.95464 0
M  V30 1482 H 144.003 -2.90186 5.32801 0
M  V30 1483 H 142.742 -2.66341 4.08551 0
M  V30 1484 H 141.747 -0.798338 5.43973 0
M  V30 1485 H 142.972 -1.05994 6.70777 0
M  V30 1486 H 140.918 -3.10304 5.77968 0
M  V30 1487 H 140.835 -2.17426 7.24059 0
M  V30 1488 H 142.103 -3.34641 7.04014 0
M  V30 1489 N 146.332 -1.57332 0.0918853 0
M  V30 1490 C 147.262 -2.16872 -0.865371 0
M  V30 1491 C 148.243 -1.10118 -1.29646 0
M  V30 1492 O 149.428 -1.38242 -1.36392 0
M  V30 1493 C 146.558 -2.74649 -2.12569 0
M  V30 1494 C 145.512 -3.86747 -1.83333 0
M  V30 1495 C 144.838 -4.31212 -3.16166 0
M  V30 1496 C 146.138 -5.10089 -1.1228 0
M  V30 1497 H 147.832 -2.97114 -0.369307 0
M  V30 1498 H 145.378 -1.42918 -0.176194 0
M  V30 1499 H 147.331 -3.14952 -2.7997 0
M  V30 1500 H 146.055 -1.91657 -2.64452 0
M  V30 1501 H 144.714 -3.46978 -1.18331 0
M  V30 1502 H 144.362 -3.45115 -3.6593 0
M  V30 1503 H 144.062 -5.06788 -2.97388 0
M  V30 1504 H 145.586 -4.74146 -3.84731 0
M  V30 1505 H 147 -5.47582 -1.69785 0
M  V30 1506 H 145.397 -5.91073 -1.03693 0
M  V30 1507 H 146.467 -4.84786 -0.105041 0
M  V30 1508 N 147.81 0.181792 -1.56548 0
M  V30 1509 C 149.056 0.901431 -1.81665 0
M  V30 1510 C 149.389 1.82347 -0.668075 0
M  V30 1511 O 148.664 1.91669 0.330615 0
M  V30 1512 C 148.947 1.70618 -3.17115 0
M  V30 1513 C 148.8 0.807964 -4.42484 0
M  V30 1514 C 150.119 2.67605 -3.49393 0
M  V30 1515 H 147.238 0.32627 -0.660846 0
M  V30 1516 H 149.88 0.168134 -1.89255 0
M  V30 1517 H 148.03 2.33133 -3.10775 0
M  V30 1518 H 149.702 0.19649 -4.60881 0
M  V30 1519 H 147.945 0.115411 -4.33646 0
M  V30 1520 H 148.616 1.40632 -5.33785 0
M  V30 1521 H 151.092 2.15218 -3.56118 0
M  V30 1522 H 149.968 3.20985 -4.45264 0
M  V30 1523 H 150.229 3.47298 -2.73563 0
M  V30 1524 N 149.288 1.51039 0.449983 0
M  V30 1525 C 150.198 1.74261 1.57067 0
M  V30 1526 C 151.214 0.626363 1.62335 0
M  V30 1527 O 152.39 0.907162 1.79812 0
M  V30 1528 C 149.455 1.85114 2.93144 0
M  V30 1529 C 148.516 3.0893 2.98095 0
M  V30 1530 C 147.749 3.19256 4.27681 0
M  V30 1531 O 147.972 2.35835 5.19363 0
M  V30 1532 O 146.906 4.12144 4.38658 0
M  V30 1533 H 150.732 2.69303 1.40391 0
M  V30 1534 H 148.317 1.35389 0.631688 0
M  V30 1535 H 150.199 1.94311 3.73926 0
M  V30 1536 H 148.874 0.932588 3.09975 0
M  V30 1537 H 147.781 3.0522 2.16314 0
M  V30 1538 H 149.114 4.00433 2.86206 0
M  V30 1539 N 150.766 -0.704594 1.40972 0
M  V30 1540 C 151.713 -1.81862 1.42109 0
M  V30 1541 C 152.683 -1.63781 0.276593 0
M  V30 1542 O 153.868 -1.84759 0.4763 0
M  V30 1543 C 151.008 -3.19669 1.30022 0
M  V30 1544 C 150.121 -3.49246 2.54267 0
M  V30 1545 C 149.256 -4.76618 2.3454 0
M  V30 1546 C 148.295 -4.99133 3.54306 0
M  V30 1547 N 147.432 -6.17726 3.33706 0
M  V30 1548 H 152.272 -1.80226 2.37324 0
M  V30 1549 H 149.809 -0.880238 1.17857 0
M  V30 1550 H 151.767 -3.99263 1.21018 0
M  V30 1551 H 150.397 -3.20506 0.384192 0
M  V30 1552 H 149.449 -2.64125 2.73756 0
M  V30 1553 H 150.761 -3.61788 3.43381 0
M  V30 1554 H 149.915 -5.64249 2.22952 0
M  V30 1555 H 148.654 -4.66305 1.42867 0
M  V30 1556 H 147.659 -4.09953 3.66359 0
M  V30 1557 H 148.884 -5.11311 4.4692 0
M  V30 1558 H 146.83 -6.08642 2.44725 0
M  V30 1559 H 146.747 -6.30995 4.16391 0
M  V30 1560 H 148.015 -7.08115 3.25873 0
M  V30 1561 N 152.244 -1.26651 -0.937939 0
M  V30 1562 C 153.469 -1.15279 -1.72411 0
M  V30 1563 C 153.894 0.287866 -1.85884 0
M  V30 1564 O 153.252 1.20855 -1.35143 0
M  V30 1565 C 153.3 -1.83028 -3.10698 0
M  V30 1566 O 152.404 -1.12128 -3.96864 0
M  V30 1567 H 151.745 -0.401504 -0.528858 0
M  V30 1568 H 154.275 -1.67531 -1.1745 0
M  V30 1569 H 154.285 -1.89981 -3.6107 0
M  V30 1570 H 152.96 -2.87833 -3.00208 0
M  V30 1571 H 151.537 -1.13173 -3.55312 0
M  V30 1572 N 153.722 1.14298 -1.08507 0
M  V30 1573 C 154.969 1.85359 -0.815373 0
M  V30 1574 C 155.297 1.83001 0.658865 0
M  V30 1575 O 154.552 1.25655 1.50031 0
M  V30 1576 C 154.851 3.33547 -1.28379 0
M  V30 1577 C 154.517 3.56093 -2.76602 0
M  V30 1578 C 153.179 3.61955 -3.17084 0
M  V30 1579 C 155.531 3.64834 -3.72217 0
M  V30 1580 C 152.859 3.74082 -4.51973 0
M  V30 1581 C 155.211 3.78487 -5.06883 0
M  V30 1582 C 153.875 3.82598 -5.46969 0
M  V30 1583 H 153.145 0.678276 -0.298366 0
M  V30 1584 H 155.792 1.35002 -1.35819 0
M  V30 1585 H 154.097 3.86191 -0.660593 0
M  V30 1586 H 155.794 3.86959 -1.05186 0
M  V30 1587 H 152.384 3.52179 -2.4427 0
M  V30 1588 H 156.568 3.59595 -3.42061 0
M  V30 1589 H 151.824 3.75527 -4.82483 0
M  V30 1590 H 155.998 3.84193 -5.80834 0
M  V30 1591 H 153.625 3.91747 -6.51489 0
M  V30 1592 N 155.201 0.870884 1.31352 0
M  V30 1593 C 156.111 0.330783 2.32256 0
M  V30 1594 C 157.127 -0.559767 1.6475 0
M  V30 1595 O 158.303 -0.456263 1.96164 0
M  V30 1596 C 155.368 -0.458137 3.4366 0
M  V30 1597 C 154.429 0.460482 4.26823 0
M  V30 1598 C 153.662 -0.290881 5.32907 0
M  V30 1599 O 153.885 -1.51885 5.49806 0
M  V30 1600 O 152.819 0.351732 6.00871 0
M  V30 1601 H 156.645 1.16718 2.80376 0
M  V30 1602 H 154.23 0.634285 1.35267 0
M  V30 1603 H 156.112 -0.905343 4.1156 0
M  V30 1604 H 154.787 -1.27106 2.97701 0
M  V30 1605 H 153.694 0.956207 3.61673 0
M  V30 1606 H 155.027 1.23903 4.7635 0
M  V30 1607 N 156.679 -1.44442 0.630414 0
M  V30 1608 C 157.907 -2.06414 0.141671 0
M  V30 1609 C 158.322 -1.47105 -1.18345 0
M  V30 1610 O 157.679 -0.593662 -1.72574 0
M  V30 1611 C 157.73 -3.61494 0.0199784 0
M  V30 1612 O 157.451 -4.18594 1.29269 0
M  V30 1613 C 158.952 -4.40499 -0.497544 0
M  V30 1614 H 156.172 -0.666292 0.0793452 0
M  V30 1615 H 158.716 -1.85323 0.864614 0
M  V30 1616 H 156.871 -3.8185 -0.653402 0
M  V30 1617 H 157.285 -5.12026 1.13707 0
M  V30 1618 H 158.759 -5.49433 -0.531708 0
M  V30 1619 H 159.236 -4.11895 -1.52445 0
M  V30 1620 H 159.842 -4.25061 0.142562 0
M  V30 1621 N 158.157 -0.370918 -1.53173 0
M  V30 1622 C 159.434 0.273754 -1.93675 0
M  V30 1623 C 159.814 1.65938 -1.3049 0
M  V30 1624 O 159.162 2.23698 -0.465999 0
M  V30 1625 C 159.372 0.318602 -3.47543 0
M  V30 1626 C 160.72 0.556392 -4.20939 0
M  V30 1627 O 161.744 0.399587 -3.53952 0
M  V30 1628 O 160.603 0.862133 -5.39657 0
M  V30 1629 H 157.697 0.165448 -0.810281 0
M  V30 1630 H 160.243 -0.42409 -1.64315 0
M  V30 1631 H 159.015 -0.652687 -3.85818 0
M  V30 1632 H 158.638 1.06212 -3.83151 0
M  V30 1633 N 159.635 1.57281 -0.100228 0
M  V30 1634 C 160.863 1.98879 0.570509 0
M  V30 1635 C 161.278 0.979476 1.61405 0
M  V30 1636 O 160.635 -0.0302288 1.82475 0
M  V30 1637 C 160.686 3.4052 1.2136 0
M  V30 1638 O 160.407 4.37588 0.211786 0
M  V30 1639 C 161.908 3.97149 1.96945 0
M  V30 1640 H 159.128 0.653428 0.152555 0
M  V30 1641 H 161.672 2.03697 -0.18103 0
M  V30 1642 H 159.827 3.367 1.91603 0
M  V30 1643 H 160.241 5.20118 0.676607 0
M  V30 1644 H 161.715 4.98393 2.37294 0
M  V30 1645 H 162.192 3.3525 2.83733 0
M  V30 1646 H 162.798 4.04458 1.31506 0
M  V30 1647 N 161.113 -0.173488 1.56642 0
M  V30 1648 C 162.061 -1.23417 1.97157 0
M  V30 1649 C 163.055 -1.45946 0.860013 0
M  V30 1650 O 164.261 -1.46551 1.04512 0
M  V30 1651 H 160.636 -0.414818 0.62724 0
M  V30 1652 H 162.607 -0.865582 2.8557 0
M  V30 1653 C 161.356 -2.5665 2.34576 0
M  V30 1654 H 160.679 -2.40137 3.19647 0
M  V30 1655 H 162.119 -3.2956 2.6677 0
M  V30 1656 C 160.578 -3.15245 1.18836 0
M  V30 1657 O 161.108 -3.98883 0.474869 0
M  V30 1658 N 159.314 -2.74303 0.959497 0
M  V30 1659 H 158.861 -2.0639 1.54146 0
M  V30 1660 H 158.819 -3.13844 0.186932 0
M  V30 1661 N 162.591 -1.51276 -0.441967 0
M  V30 1662 C 163.521 -1.752 -1.54361 0
M  V30 1663 C 164.502 -0.601682 -1.59103 0
M  V30 1664 O 165.687 -0.843913 -1.74905 0
M  V30 1665 C 162.817 -1.87282 -2.92477 0
M  V30 1666 C 161.771 -3.02687 -3.02596 0
M  V30 1667 C 161.097 -2.99947 -4.42647 0
M  V30 1668 C 162.397 -4.4273 -2.77106 0
M  V30 1669 H 164.091 -2.67442 -1.34592 0
M  V30 1670 H 161.637 -1.28694 -0.646048 0
M  V30 1671 H 163.59 -2.02602 -3.695 0
M  V30 1672 H 162.314 -0.916844 -3.13467 0
M  V30 1673 H 160.973 -2.87065 -2.28012 0
M  V30 1674 H 160.621 -2.02136 -4.60597 0
M  V30 1675 H 160.321 -3.77439 -4.50348 0
M  V30 1676 H 161.845 -3.17354 -5.2165 0
M  V30 1677 H 163.259 -4.58727 -3.43864 0
M  V30 1678 H 161.656 -5.21893 -2.96222 0
M  V30 1679 H 162.726 -4.53087 -1.72744 0
M  V30 1680 N 164.069 0.697108 -1.41344 0
M  V30 1681 C 165.017 1.83237 -1.43272 0
M  V30 1682 C 166.011 1.66522 -0.310947 0
M  V30 1683 O 167.217 1.73402 -0.482899 0
M  V30 1684 H 163.592 0.603802 -0.448249 0
M  V30 1685 H 165.563 1.78727 -2.38954 0
M  V30 1686 C 164.312 3.21245 -1.33029 0
M  V30 1687 H 163.635 3.34723 -2.18633 0
M  V30 1688 H 165.075 4.00763 -1.38439 0
M  V30 1689 C 163.534 3.36873 -0.0424635 0
M  V30 1690 O 164.064 3.91177 0.913421 0
M  V30 1691 N 162.27 2.90581 0.0331145 0
M  V30 1692 H 161.817 2.46577 -0.745506 0
M  V30 1693 H 161.775 3.01416 0.894199 0
M  V30 1694 N 165.547 1.27147 0.931209 0
M  V30 1695 C 166.794 1.13278 1.67852 0
M  V30 1696 C 167.122 -0.32204 1.91815 0
M  V30 1697 O 166.377 -1.25224 1.50391 0
M  V30 1698 C 166.676 1.8579 3.05314 0
M  V30 1699 C 166.342 3.35657 3.01073 0
M  V30 1700 C 165.004 3.76536 2.99623 0
M  V30 1701 C 167.356 4.31299 2.92627 0
M  V30 1702 C 164.684 5.11426 2.87506 0
M  V30 1703 C 167.036 5.66242 2.82051 0
M  V30 1704 C 165.7 6.06418 2.7895 0
M  V30 1705 H 164.97 0.414515 0.614214 0
M  V30 1706 H 167.617 1.57712 1.08624 0
M  V30 1707 H 165.922 1.33854 3.68226 0
M  V30 1708 H 167.619 1.72491 3.62005 0
M  V30 1709 H 164.209 3.03146 3.02986 0
M  V30 1710 H 168.393 4.00692 2.92848 0
M  V30 1711 H 163.649 5.41705 2.83489 0
M  V30 1712 H 167.823 6.40026 2.74481 0
M  V30 1713 H 165.45 7.10895 2.69318 0
M  V30 1714 N 167.025 -1.13721 1.09112 0
M  V30 1715 C 167.957 -2.1871 0.685467 0
M  V30 1716 C 168.97 -1.60527 -0.271068 0
M  V30 1717 O 170.159 -1.78407 -0.0576148 0
M  V30 1718 C 167.259 -3.38898 -0.0111255 0
M  V30 1719 C 166.432 -4.26597 0.966131 0
M  V30 1720 C 165.491 -5.25324 0.303539 0
M  V30 1721 O 164.517 -5.61213 0.950177 0
M  V30 1722 N 165.719 -5.72779 -0.943651 0
M  V30 1723 H 168.484 -2.54126 1.58871 0
M  V30 1724 H 166.045 -1.29012 0.978143 0
M  V30 1725 H 168.037 -4.02014 -0.465517 0
M  V30 1726 H 166.607 -3.01747 -0.816565 0
M  V30 1727 H 165.827 -3.60306 1.59917 0
M  V30 1728 H 167.115 -4.82048 1.6281 0
M  V30 1729 H 166.513 -5.45762 -1.48862 0
M  V30 1730 H 165.07 -6.37847 -1.34142 0
M  V30 1731 N 168.503 -0.877838 -1.30888 0
M  V30 1732 C 169.451 -0.328662 -2.30266 0
M  V30 1733 C 170.445 0.560496 -1.59859 0
M  V30 1734 O 171.651 0.445722 -1.74394 0
M  V30 1735 H 168.026 -0.0876142 -0.746879 0
M  V30 1736 H 169.997 -1.18061 -2.74051 0
M  V30 1737 C 168.746 0.448071 -3.44801 0
M  V30 1738 H 168.069 -0.226859 -3.99156 0
M  V30 1739 H 169.509 0.797541 -4.16432 0
M  V30 1740 C 167.968 1.64239 -2.94155 0
M  V30 1741 O 168.498 2.74175 -2.93583 0
M  V30 1742 N 166.704 1.47716 -2.50256 0
M  V30 1743 H 166.251 0.582821 -2.5092 0
M  V30 1744 H 166.209 2.27765 -2.16727 0
M  V30 1745 N 169.982 1.44106 -0.638065 0
M  V30 1746 C 170.912 2.33448 0.0494287 0
M  V30 1747 C 171.893 1.48606 0.827672 0
M  V30 1748 O 173.078 1.77308 0.792173 0
M  V30 1749 C 170.208 3.31771 1.02691 0
M  V30 1750 C 169.162 4.26485 0.359823 0
M  V30 1751 C 168.488 5.14729 1.44769 0
M  V30 1752 C 169.788 5.17056 -0.738296 0
M  V30 1753 H 171.482 2.91183 -0.696636 0
M  V30 1754 H 169.028 1.40014 -0.336456 0
M  V30 1755 H 170.981 3.93161 1.51666 0
M  V30 1756 H 169.705 2.7226 1.80395 0
M  V30 1757 H 168.364 3.66437 -0.10934 0
M  V30 1758 H 168.012 4.51566 2.21578 0
M  V30 1759 H 167.712 5.78913 1.00668 0
M  V30 1760 H 169.236 5.78991 1.93911 0
M  V30 1761 H 170.65 5.72342 -0.331354 0
M  V30 1762 H 169.047 5.89879 -1.10286 0
M  V30 1763 H 170.117 4.57652 -1.60258 0
M  V30 1764 N 171.46 0.379036 1.52974 0
M  V30 1765 C 172.685 -0.209353 2.06341 0
M  V30 1766 C 173.11 -1.40583 1.24972 0
M  V30 1767 O 172.468 -1.79246 0.272155 0
M  V30 1768 C 172.516 -0.567786 3.56102 0
M  V30 1769 O 171.62 -1.66318 3.77375 0
M  V30 1770 H 170.961 -0.0272919 0.663439 0
M  V30 1771 H 173.491 0.543536 1.97248 0
M  V30 1772 H 173.501 -0.835003 3.99364 0
M  V30 1773 H 172.176 0.307013 4.14765 0
M  V30 1774 H 170.753 -1.39048 3.46006 0
M  V30 1775 N 172.938 -1.57226 0.108567 0
M  V30 1776 C 174.184 -1.95121 -0.552761 0
M  V30 1777 C 174.517 -0.991345 -1.66991 0
M  V30 1778 O 173.792 -0.0267211 -1.94482 0
M  V30 1779 C 174.075 -3.43039 -1.09528 0
M  V30 1780 C 173.928 -4.49797 0.0177332 0
M  V30 1781 C 175.247 -3.92567 -1.98945 0
M  V30 1782 H 172.366 -0.709496 -0.199461 0
M  V30 1783 H 175.008 -1.89126 0.182011 0
M  V30 1784 H 173.158 -3.48279 -1.72146 0
M  V30 1785 H 174.83 -4.56661 0.652584 0
M  V30 1786 H 173.073 -4.284 0.682309 0
M  V30 1787 H 173.744 -5.50528 -0.402919 0
M  V30 1788 H 176.22 -3.89565 -1.46214 0
M  V30 1789 H 175.096 -4.96605 -2.33827 0
M  V30 1790 H 175.357 -3.32648 -2.91201 0
M  V30 1791 N 174.416 0.165178 -1.56732 0
M  V30 1792 C 175.665 0.879143 -1.81532 0
M  V30 1793 C 175.978 1.83144 -0.686842 0
M  V30 1794 O 177.184 2.58823 -0.819944 0
M  V30 1795 C 175.64 1.61388 -3.21686 0
M  V30 1796 C 175.248 0.704904 -4.4242 0
M  V30 1797 C 176.992 2.3157 -3.55774 0
M  V30 1798 C 174.899 1.44022 -5.73595 0
M  V30 1799 H 173.829 0.332033 -0.676957 0
M  V30 1800 H 176.48 0.132008 -1.83025 0
M  V30 1801 H 174.862 2.40599 -3.14529 0
M  V30 1802 H 176.036 -0.0506815 -4.60772 0
M  V30 1803 H 174.351 0.112419 -4.16248 0
M  V30 1804 H 176.948 2.8719 -4.51028 0
M  V30 1805 H 177.291 3.07201 -2.8095 0
M  V30 1806 H 177.824 1.59297 -3.64513 0
M  V30 1807 H 174.563 0.72612 -6.51466 0
M  V30 1808 H 174.083 2.16898 -5.5921 0
M  V30 1809 H 175.762 1.98606 -6.15764 0
M  V30 1810 N 175.894 1.51508 0.433938 0
M  V30 1811 C 177.142 1.6402 1.18075 0
M  V30 1812 C 177.463 0.360328 1.91642 0
M  V30 1813 O 176.733 -0.623945 1.85698 0
M  V30 1814 H 175.313 0.6045 0.43885 0
M  V30 1815 H 177.975 1.88452 0.497178 0
M  V30 1816 H 177.071 2.46949 1.90847 0
M  V30 1817 N 177.372 -0.689602 1.41712 0
M  V30 1818 C 178.619 -1.44966 1.4139 0
M  V30 1819 C 178.947 -1.94484 0.025105 0
M  V30 1820 O 178.202 -1.70307 -0.964048 0
M  V30 1821 C 178.501 -2.67298 2.37247 0
M  V30 1822 C 178.167 -2.36405 3.83958 0
M  V30 1823 C 176.829 -2.27691 4.23923 0
M  V30 1824 C 179.181 -2.11043 4.76561 0
M  V30 1825 C 176.509 -1.91719 5.54492 0
M  V30 1826 C 178.861 -1.76578 6.07456 0
M  V30 1827 C 177.525 -1.66363 6.46436 0
M  V30 1828 H 176.795 -0.53047 0.517381 0
M  V30 1829 H 179.442 -0.787655 1.74552 0
M  V30 1830 H 177.747 -3.38461 1.9736 0
M  V30 1831 H 179.444 -3.25452 2.34269 0
M  V30 1832 H 176.034 -2.44085 3.52308 0
M  V30 1833 H 180.218 -2.16717 4.46483 0
M  V30 1834 H 175.474 -1.82367 5.83568 0
M  V30 1835 H 179.648 -1.55974 6.78708 0
M  V30 1836 H 177.275 -1.38258 7.47522 0
M  V30 1837 N 178.85 -1.27639 -0.924453 0
M  V30 1838 C 180.266 -1.05113 -1.20097 0
M  V30 1839 C 180.466 0.213262 -2.00368 0
M  V30 1840 O 179.522 0.91787 -2.35226 0
M  V30 1841 C 180.835 -2.29244 -1.94596 0
M  V30 1842 C 182.383 -2.34315 -2.07522 0
M  V30 1843 C 182.858 -3.58183 -2.85427 0
M  V30 1844 N 184.349 -3.5876 -2.92994 0
M  V30 1845 C 185.084 -4.51277 -3.53746 0
M  V30 1846 N 184.58 -5.54102 -4.15863 0
M  V30 1847 N 186.373 -4.38894 -3.51181 0
M  V30 1848 H 178.524 -2.08821 -0.388264 0
M  V30 1849 H 180.787 -0.918568 -0.234385 0
M  V30 1850 H 180.493 -3.21301 -1.43034 0
M  V30 1851 H 180.367 -2.34816 -2.95197 0
M  V30 1852 H 182.754 -1.42762 -2.58269 0
M  V30 1853 H 182.835 -2.32744 -1.06131 0
M  V30 1854 H 182.479 -4.50074 -2.35363 0
M  V30 1855 H 182.409 -3.57006 -3.8711 0
M  V30 1856 H 184.9 -2.84398 -2.4885 0
M  V30 1857 H 185.213 -6.20859 -4.60168 0
M  V30 1858 H 183.558 -5.57941 -4.144 0
M  V30 1859 H 186.749 -3.57772 -3.01856 0
M  V30 1860 H 186.922 -5.11186 -3.98237 0
M  V30 1861 N 180.328 1.1314 -1.09713 0
M  V30 1862 C 181.577 1.83838 -0.829851 0
M  V30 1863 C 181.89 1.84599 0.646728 0
M  V30 1864 O 183.096 2.51218 1.02965 0
M  V30 1865 C 181.552 3.30069 -1.43466 0
M  V30 1866 C 181.16 3.37688 -2.94399 0
M  V30 1867 C 182.904 4.05788 -1.24645 0
M  V30 1868 C 180.811 4.78209 -3.47952 0
M  V30 1869 H 179.741 0.68877 -0.306777 0
M  V30 1870 H 182.392 1.27448 -1.3202 0
M  V30 1871 H 180.774 3.8628 -0.871996 0
M  V30 1872 H 181.948 2.91456 -3.56918 0
M  V30 1873 H 180.263 2.75436 -3.12289 0
M  V30 1874 H 182.86 5.09535 -1.62107 0
M  V30 1875 H 183.203 4.15878 -0.187357 0
M  V30 1876 H 183.736 3.55915 -1.77678 0
M  V30 1877 H 180.475 4.73311 -4.53495 0
M  V30 1878 H 179.995 5.24924 -2.90198 0
M  V30 1879 H 181.674 5.47133 -3.45332 0
M  V30 1880 N 181.806 0.884767 1.30421 0
M  V30 1881 C 182.736 0.367574 2.30589 0
M  V30 1882 C 183.717 -0.549464 1.60981 0
M  V30 1883 O 184.902 -0.46336 1.88591 0
M  V30 1884 C 182.032 -0.418944 3.44764 0
M  V30 1885 C 180.986 0.406316 4.26067 0
M  V30 1886 C 180.312 -0.506793 5.32293 0
M  V30 1887 C 181.612 1.64832 4.95608 0
M  V30 1888 H 183.306 1.20462 2.74097 0
M  V30 1889 H 180.852 0.580695 1.31772 0
M  V30 1890 H 182.805 -0.791395 4.13902 0
M  V30 1891 H 181.529 -1.28964 3.0006 0
M  V30 1892 H 180.188 0.760903 3.58617 0
M  V30 1893 H 179.836 -1.37519 4.83836 0
M  V30 1894 H 179.536 0.0415828 5.87585 0
M  V30 1895 H 181.06 -0.875764 6.04287 0
M  V30 1896 H 182.474 1.34646 5.57264 0
M  V30 1897 H 180.871 2.13688 5.60765 0
M  V30 1898 H 181.941 2.39284 4.21748 0
M  V30 1899 N 183.284 -1.43765 0.645699 0
M  V30 1900 C 184.214 -2.33471 -0.0370477 0
M  V30 1901 C 185.195 -1.49042 -0.819779 0
M  V30 1902 O 186.38 -1.77726 -0.782758 0
M  V30 1903 C 183.51 -3.32311 -1.0093 0
M  V30 1904 C 182.464 -4.2667 -0.337201 0
M  V30 1905 C 181.79 -5.1549 -1.42037 0
M  V30 1906 C 183.09 -5.16657 0.765706 0
M  V30 1907 H 184.784 -2.90809 0.712069 0
M  V30 1908 H 182.33 -1.39834 0.343876 0
M  V30 1909 H 184.283 -3.9396 -1.49578 0
M  V30 1910 H 183.007 -2.73213 -1.78948 0
M  V30 1911 H 181.666 -3.66374 0.128771 0
M  V30 1912 H 181.314 -4.52735 -2.1918 0
M  V30 1913 H 181.014 -5.79438 -0.975966 0
M  V30 1914 H 182.538 -5.80012 -1.90838 0
M  V30 1915 H 183.952 -5.72158 0.361702 0
M  V30 1916 H 182.349 -5.89286 1.13413 0
M  V30 1917 H 183.419 -4.56796 1.62683 0
M  V30 1918 N 184.763 -0.387143 -1.52771 0
M  V30 1919 C 185.693 0.440551 -2.29306 0
M  V30 1920 C 186.674 1.06535 -1.32606 0
M  V30 1921 O 187.859 1.07853 -1.61497 0
M  V30 1922 C 184.989 1.56919 -3.09829 0
M  V30 1923 C 183.943 1.07054 -4.14395 0
M  V30 1924 C 183.269 2.29109 -4.83129 0
M  V30 1925 C 184.569 0.140015 -5.22112 0
M  V30 1926 H 186.263 -0.198026 -2.98744 0
M  V30 1927 H 183.809 -0.09668 -1.43675 0
M  V30 1928 H 185.762 2.15503 -3.62128 0
M  V30 1929 H 184.486 2.23532 -2.3812 0
M  V30 1930 H 183.145 0.507247 -3.63074 0
M  V30 1931 H 182.793 2.94227 -4.0797 0
M  V30 1932 H 182.493 1.96406 -5.53804 0
M  V30 1933 H 184.017 2.88339 -5.38231 0
M  V30 1934 H 185.431 0.633978 -5.69784 0
M  V30 1935 H 183.828 -0.0971485 -6.00021 0
M  V30 1936 H 184.898 -0.811711 -4.78058 0
M  V30 1937 N 186.241 1.57166 -0.116904 0
M  V30 1938 C 187.188 2.15202 0.83408 0
M  V30 1939 C 188.158 1.07644 1.26499 0
M  V30 1940 O 189.343 1.35541 1.34288 0
M  V30 1941 C 186.483 2.75405 2.07957 0
M  V30 1942 C 185.596 3.97264 1.69721 0
M  V30 1943 C 184.731 4.45561 2.89221 0
M  V30 1944 C 183.77 5.59956 2.47215 0
M  V30 1945 N 182.907 6.03006 3.59622 0
M  V30 1946 H 187.747 2.96141 0.332335 0
M  V30 1947 H 185.284 1.46309 0.152349 0
M  V30 1948 H 187.242 3.08439 2.80929 0
M  V30 1949 H 185.872 1.97159 2.55594 0
M  V30 1950 H 184.924 3.70404 0.866316 0
M  V30 1951 H 186.236 4.80226 1.34849 0
M  V30 1952 H 185.39 4.80493 3.7042 0
M  V30 1953 H 184.129 3.61544 3.27318 0
M  V30 1954 H 183.134 5.2463 1.64448 0
M  V30 1955 H 184.359 6.45738 2.10238 0
M  V30 1956 H 182.305 5.21931 3.97396 0
M  V30 1957 H 182.222 6.80819 3.28667 0
M  V30 1958 H 183.49 6.42576 4.41267 0
M  V30 1959 N 187.719 -0.156864 1.56817 0
M  V30 1960 C 188.965 -0.872416 1.83076 0
M  V30 1961 C 189.298 -1.81261 0.697001 0
M  V30 1962 O 188.573 -1.92171 -0.30008 0
M  V30 1963 C 188.856 -1.65551 3.19789 0
M  V30 1964 C 188.709 -0.737467 4.43713 0
M  V30 1965 C 190.028 -2.62012 3.53606 0
M  V30 1966 H 187.147 -0.315715 0.665953 0
M  V30 1967 H 189.789 -0.138004 1.89498 0
M  V30 1968 H 187.939 -2.28159 3.14445 0
M  V30 1969 H 189.611 -0.123143 4.61136 0
M  V30 1970 H 187.854 -0.0464067 4.33775 0
M  V30 1971 H 188.525 -1.32122 5.35955 0
M  V30 1972 H 191.001 -2.09525 3.59497 0
M  V30 1973 H 189.877 -3.13861 4.50314 0
M  V30 1974 H 190.138 -3.42902 2.79053 0
M  V30 1975 N 189.197 -1.51736 -0.425897 0
M  V30 1976 C 190.16 -1.73271 -1.50032 0
M  V30 1977 C 191.16 -0.602639 -1.4908 0
M  V30 1978 O 192.35 -0.87033 -1.509 0
M  V30 1979 C 189.482 -1.79969 -2.89523 0
M  V30 1980 H 190.675 -2.69172 -1.32237 0
M  V30 1981 H 188.228 -1.41899 -0.65532 0
M  V30 1982 H 188.963 -0.859241 -3.1271 0
M  V30 1983 H 188.748 -2.62109 -2.91619 0
M  V30 1984 H 190.238 -1.9843 -3.67444 0
M  V30 1985 N 190.675 0.682077 -1.42076 0
M  V30 1986 C 191.923 1.4393 -1.41876 0
M  V30 1987 C 192.244 1.94971 -0.0335599 0
M  V30 1988 O 191.514 1.72591 0.926773 0
M  V30 1989 H 190.094 0.534085 -0.522267 0
M  V30 1990 H 192.756 0.806427 -1.77434 0
M  V30 1991 H 191.852 2.29588 -2.11414 0
M  V30 1992 N 192.153 1.28127 0.917671 0
M  V30 1993 C 193.4 1.15052 1.66641 0
M  V30 1994 C 193.728 -0.301677 1.92146 0
M  V30 1995 O 192.983 -1.23622 1.51711 0
M  V30 1996 C 193.282 1.89018 3.03327 0
M  V30 1997 C 192.948 3.38832 2.97496 0
M  V30 1998 C 191.61 3.79693 2.95613 0
M  V30 1999 C 193.962 4.34378 2.88036 0
M  V30 2000 C 191.29 5.14447 2.82066 0
M  V30 2001 C 193.642 5.69201 2.7603 0
M  V30 2002 C 192.306 6.09343 2.72502 0
M  V30 2003 H 191.576 0.421006 0.609783 0
M  V30 2004 H 194.223 1.58855 1.06945 0
M  V30 2005 H 192.528 1.37752 3.66785 0
M  V30 2006 H 194.225 1.76321 3.60156 0
M  V30 2007 H 190.815 3.06342 2.99754 0
M  V30 2008 H 194.999 4.03775 2.88581 0
M  V30 2009 H 190.255 5.44681 2.77728 0
M  V30 2010 H 194.429 6.42901 2.67678 0
M  V30 2011 H 192.056 7.13712 2.61762 0
M  V30 2012 N 193.631 -1.12557 1.10312 0
M  V30 2013 C 194.579 -2.20325 0.745629 0
M  V30 2014 C 195.573 -1.67429 -0.25763 0
M  V30 2015 O 196.779 -1.79612 -0.118132 0
M  V30 2016 H 193.154 -0.718118 0.223182 0
M  V30 2017 H 195.125 -2.47733 1.66346 0
M  V30 2018 C 193.874 -3.47168 0.192262 0
M  V30 2019 H 193.197 -3.88215 0.955475 0
M  V30 2020 H 194.637 -4.23995 -0.0198274 0
M  V30 2021 C 193.096 -3.19298 -1.07472 0
M  V30 2022 O 193.626 -3.3891 -2.15645 0
M  V30 2023 N 191.832 -2.73113 -0.992847 0
M  V30 2024 H 191.379 -2.57354 -0.112474 0
M  V30 2025 H 191.337 -2.54842 -1.84127 0
M  V30 2026 N 195.109 -0.891671 -1.2995 0
M  V30 2027 C 196.039 -0.379797 -2.30391 0
M  V30 2028 C 197.02 0.540919 -1.6127 0
M  V30 2029 O 198.205 0.453352 -1.88834 0
M  V30 2030 C 195.335 0.400654 -3.44981 0
M  V30 2031 C 194.289 -0.428905 -4.25846 0
M  V30 2032 C 193.615 0.478557 -5.32554 0
M  V30 2033 C 194.915 -1.67458 -4.94727 0
M  V30 2034 H 196.609 -1.21914 -2.73454 0
M  V30 2035 H 194.155 -0.587675 -1.31462 0
M  V30 2036 H 196.108 0.769434 -4.14316 0
M  V30 2037 H 194.832 1.27371 -3.0074 0
M  V30 2038 H 193.491 -0.779911 -3.58208 0
M  V30 2039 H 193.139 1.34951 -4.84559 0
M  V30 2040 H 192.839 -0.0727433 -5.87555 0
M  V30 2041 H 194.363 0.843705 -6.04743 0
M  V30 2042 H 195.777 -1.376 -5.56542 0
M  V30 2043 H 194.174 -2.16659 -5.59624 0
M  V30 2044 H 195.244 -2.41518 -4.20473 0
M  V30 2045 N 196.587 1.43421 -0.653314 0
M  V30 2046 C 197.517 2.33487 0.0246656 0
M  V30 2047 C 198.498 1.49475 0.811863 0
M  V30 2048 O 199.683 1.78139 0.773322 0
M  V30 2049 C 196.813 3.32841 0.99166 0
M  V30 2050 C 195.767 4.26842 0.314568 0
M  V30 2051 C 195.093 5.16236 1.39302 0
M  V30 2052 C 196.393 5.16243 -0.793095 0
M  V30 2053 H 198.087 2.90427 -0.727481 0
M  V30 2054 H 195.633 1.39649 -0.351287 0
M  V30 2055 H 197.586 3.94747 1.47487 0
M  V30 2056 H 196.31 2.74158 1.77497 0
M  V30 2057 H 194.969 3.663 -0.148199 0
M  V30 2058 H 194.617 4.53891 2.16776 0
M  V30 2059 H 194.317 5.79948 0.945223 0
M  V30 2060 H 195.841 5.81015 1.87759 0
M  V30 2061 H 197.255 5.71958 -0.392039 0
M  V30 2062 H 195.652 5.88676 -1.16536 0
M  V30 2063 H 196.722 4.55927 -1.65103 0
M  V30 2064 N 198.065 0.39524 1.52563 0
M  V30 2065 C 198.998 -0.4813 2.23067 0
M  V30 2066 C 199.976 -1.05927 1.23362 0
M  V30 2067 O 201.16 -1.10979 1.52368 0
M  V30 2068 C 198.287 -1.66676 2.9485 0
M  V30 2069 C 197.333 -1.21348 4.08873 0
M  V30 2070 S 198.166 -0.190102 5.35162 0
M  V30 2071 C 199.322 -1.38121 6.1047 0
M  V30 2072 H 199.555 0.117381 2.97068 0
M  V30 2073 H 197.088 0.179458 1.53354 0
M  V30 2074 H 199.046 -2.3466 3.36816 0
M  V30 2075 H 197.707 -2.23676 2.20518 0
M  V30 2076 H 196.9 -2.09877 4.58222 0
M  V30 2077 H 196.502 -0.612486 3.68951 0
M  V30 2078 H 198.794 -2.30726 6.37002 0
M  V30 2079 H 199.737 -0.928521 7.01986 0
M  V30 2080 H 200.145 -1.60071 5.41329 0
M  V30 2081 N 199.544 -1.57102 0.125237 0
M  V30 2082 C 200.772 -1.99761 -0.538797 0
M  V30 2083 C 201.187 -1.00503 -1.59827 0
M  V30 2084 O 200.544 0.00119474 -1.825 0
M  V30 2085 C 200.595 -3.42408 -1.15927 0
M  V30 2086 O 200.316 -4.37869 -0.142143 0
M  V30 2087 C 201.817 -4.00232 -1.90602 0
M  V30 2088 H 199.037 -0.655772 -0.14214 0
M  V30 2089 H 201.581 -2.03383 0.213413 0
M  V30 2090 H 199.736 -3.39706 -1.86223 0
M  V30 2091 H 200.15 -5.21128 -0.593775 0
M  V30 2092 H 201.624 -5.02105 -2.29335 0
M  V30 2093 H 202.101 -3.39721 -2.78363 0
M  V30 2094 H 202.707 -4.06499 -1.25055 0
M  V30 2095 N 201.022 0.148545 -1.56898 0
M  V30 2096 C 201.952 1.18524 -2.01182 0
M  V30 2097 C 202.933 1.4489 -0.891123 0
M  V30 2098 O 204.118 1.55836 -1.15882 0
M  V30 2099 C 201.248 2.51879 -2.39112 0
M  V30 2100 C 200.202 2.40038 -3.54353 0
M  V30 2101 C 199.528 3.78089 -3.78091 0
M  V30 2102 C 200.828 1.88577 -4.87069 0
M  V30 2103 H 202.522 0.817029 -2.88036 0
M  V30 2104 H 200.068 0.391575 -1.38574 0
M  V30 2105 H 202.021 3.24627 -2.68692 0
M  V30 2106 H 200.745 2.90532 -1.49193 0
M  V30 2107 H 199.404 1.69742 -3.24936 0
M  V30 2108 H 199.052 4.14175 -2.85426 0
M  V30 2109 H 198.752 3.71028 -4.55645 0
M  V30 2110 H 200.276 4.52387 -4.10095 0
M  V30 2111 H 201.69 2.51117 -5.15377 0
M  V30 2112 H 200.087 1.9241 -5.68417 0
M  V30 2113 H 201.157 0.84136 -4.77545 0
M  V30 2114 N 202.5 1.5196 0.417844 0
M  V30 2115 C 203.916 1.40569 0.755816 0
M  V30 2116 C 204.116 0.503316 1.95113 0
M  V30 2117 O 203.172 -0.0341925 2.52477 0
M  V30 2118 C 204.485 2.82947 1.01791 0
M  V30 2119 C 206.033 2.92231 1.12116 0
M  V30 2120 C 206.508 4.35559 1.41608 0
M  V30 2121 N 207.999 4.38753 1.48491 0
M  V30 2122 C 208.734 5.46705 1.7292 0
M  V30 2123 N 208.23 6.64788 1.95011 0
M  V30 2124 N 210.023 5.34209 1.74863 0
M  V30 2125 H 202.174 2.09168 -0.369098 0
M  V30 2126 H 204.437 0.942409 -0.102809 0
M  V30 2127 H 204.143 3.5106 0.212081 0
M  V30 2128 H 204.017 3.23462 1.94042 0
M  V30 2129 H 206.404 2.24304 1.9176 0
M  V30 2130 H 206.485 2.55185 0.177225 0
M  V30 2131 H 206.129 5.04042 0.624848 0
M  V30 2132 H 206.059 4.70133 2.37239 0
M  V30 2133 H 208.55 3.5363 1.33244 0
M  V30 2134 H 208.863 7.42845 2.13076 0
M  V30 2135 H 207.208 6.67869 1.92293 0
M  V30 2136 H 210.399 4.40937 1.57137 0
M  V30 2137 H 210.572 6.18415 1.93563 0
M  V30 2138 N 203.978 -0.674533 1.42435 0
M  V30 2139 C 204.908 -1.80009 1.48724 0
M  V30 2140 C 205.889 -1.6659 0.343793 0
M  V30 2141 O 207.074 -1.86007 0.558137 0
M  V30 2142 C 204.204 -3.18306 1.38919 0
M  V30 2143 C 203.158 -3.46461 2.51294 0
M  V30 2144 C 202.484 -4.84335 2.26547 0
M  V30 2145 C 203.784 -3.43328 3.93603 0
M  V30 2146 H 205.478 -1.75004 2.42928 0
M  V30 2147 H 203.024 -0.840533 1.16923 0
M  V30 2148 H 204.977 -3.9678 1.41927 0
M  V30 2149 H 203.701 -3.2399 0.412094 0
M  V30 2150 H 202.36 -2.70348 2.47604 0
M  V30 2151 H 202.008 -4.86669 1.2713 0
M  V30 2152 H 201.708 -5.04136 3.01861 0
M  V30 2153 H 203.232 -5.65094 2.31304 0
M  V30 2154 H 204.646 -4.11772 3.98894 0
M  V30 2155 H 203.043 -3.74664 4.68771 0
M  V30 2156 H 204.113 -2.41897 4.20255 0
M  V30 2157 N 205.456 -1.28612 -0.910864 0
M  V30 2158 C 206.702 -1.17116 -1.66299 0
M  V30 2159 C 207.057 0.276917 -1.90397 0
M  V30 2160 O 206.35 1.19795 -1.49532 0
M  V30 2161 C 206.544 -1.90624 -3.0232 0
M  V30 2162 C 206.373 -3.42431 -2.91498 0
M  V30 2163 C 205.143 -4.11773 -2.92867 0
M  V30 2164 C 207.341 -4.38124 -2.69355 0
M  V30 2165 N 205.323 -5.50025 -2.72664 0
M  V30 2166 C 206.694 -5.63759 -2.58023 0
M  V30 2167 C 208.749 -4.28016 -2.54375 0
M  V30 2168 C 207.452 -6.80436 -2.33238 0
M  V30 2169 C 209.478 -5.44433 -2.30969 0
M  V30 2170 C 208.84 -6.69034 -2.20394 0
M  V30 2171 H 204.939 -0.483506 -0.61461 0
M  V30 2172 H 207.523 -1.62299 -1.0755 0
M  V30 2173 H 205.694 -1.4787 -3.5915 0
M  V30 2174 H 207.426 -1.71488 -3.66571 0
M  V30 2175 H 204.181 -3.63378 -3.03732 0
M  V30 2176 H 204.605 -6.22705 -2.65646 0
M  V30 2177 H 209.247 -3.32388 -2.613 0
M  V30 2178 H 206.965 -7.7613 -2.25051 0
M  V30 2179 H 210.551 -5.38504 -2.20238 0
M  V30 2180 H 209.431 -7.57595 -2.02531 0
M  V30 2181 N 206.934 1.1197 -1.10907 0
M  V30 2182 C 208.159 1.87942 -0.877064 0
M  V30 2183 C 208.584 1.79341 0.567314 0
M  V30 2184 O 207.942 1.15184 1.40009 0
M  V30 2185 C 207.99 3.34926 -1.33629 0
M  V30 2186 O 207.094 4.09303 -0.504447 0
M  V30 2187 H 206.435 0.583785 -0.316371 0
M  V30 2188 H 208.965 1.4157 -1.47712 0
M  V30 2189 H 208.975 3.8577 -1.32837 0
M  V30 2190 H 207.65 3.40504 -2.3881 0
M  V30 2191 H 206.227 3.68393 -0.577993 0
M  V30 2192 N 208.412 0.89855 1.29475 0
M  V30 2193 C 209.637 0.538561 2.00285 0
M  V30 2194 C 210.062 -0.869135 1.66816 0
M  V30 2195 O 209.42 -1.57831 0.892145 0
M  V30 2196 C 209.468 0.736475 3.52999 0
M  V30 2197 O 208.572 -0.211537 4.11857 0
M  V30 2198 H 207.913 0.210563 0.62973 0
M  V30 2199 H 210.443 1.20982 1.64998 0
M  V30 2200 H 210.453 0.640685 4.02938 0
M  V30 2201 H 209.128 1.76276 3.76696 0
M  V30 2202 H 207.705 -0.0682991 3.72837 0
M  V30 2203 O 209.929 -1.40275 0.80033 0
M  V30 2204 H 210.62 -1.90048 0.374337 0
M  V30 END ATOM
M  V30 BEGIN BOND
M  V30 END BOND
M  V30 END CTAB
M  END
$$$$
