drugbank_target|P10599 Thioredoxin (DB12695)
 OpenBabel12092121013D

  0  0  0     0  0            999 V3000
M  V30 BEGIN CTAB
M  V30 COUNTS 1632 1647 0 0 0
M  V30 BEGIN ATOM
M  V30 1 H -0.908 1.98254 -0.117106 0
M  V30 2 N 0 1.576 0 0
M  V30 3 C 0.933 2.03868 1.02534 0
M  V30 4 C 1.911 0.928543 1.3348 0
M  V30 5 O 3.095 1.19667 1.45644 0
M  V30 6 C 0.222 2.43627 2.35294 0
M  V30 7 C -0.732 3.65373 2.2001 0
M  V30 8 S 0.101 5.13292 1.52614 0
M  V30 9 C 1.257 5.56322 2.86805 0
M  V30 10 H 1.49 2.90518 0.631377 0
M  V30 11 H -0.977 1.52953 0.210867 0
M  V30 12 H 0.981 2.67203 3.11629 0
M  V30 13 H -0.358 1.57376 2.7183 0
M  V30 14 H -1.165 3.90944 3.18086 0
M  V30 15 H -1.563 3.418 1.51819 0
M  V30 16 H 0.729 5.58782 3.83104 0
M  V30 17 H 1.672 6.56266 2.65933 0
M  V30 18 H 2.08 4.83886 2.90714 0
M  V30 19 N 1.4781 -0.272755 1.55222 0
M  V30 20 C 2.7241 -1.00581 1.761 0
M  V30 21 C 3.0571 -1.85932 0.560625 0
M  V30 22 O 2.3321 -1.89416 -0.441801 0
M  V30 23 C 2.6151 -1.88816 3.06628 0
M  V30 24 C 2.4681 -1.06457 4.37021 0
M  V30 25 C 3.7871 -2.8752 3.33197 0
M  V30 26 H 0.9061 -0.364244 0.640699 0
M  V30 27 H 3.5481 -0.278189 1.87952 0
M  V30 28 H 1.6981 -2.50856 2.96654 0
M  V30 29 H 3.3701 -0.464863 4.58952 0
M  V30 30 H 1.6131 -0.368043 4.32236 0
M  V30 31 H 2.2841 -1.71514 5.24678 0
M  V30 32 H 4.7601 -2.35615 3.42965 0
M  V30 33 H 3.6361 -3.46399 4.25792 0
M  V30 34 H 3.8971 -3.62657 2.52849 0
M  V30 35 N 2.9562 -1.48159 -0.537278 0
M  V30 36 C 3.9032 -1.62138 -1.64256 0
M  V30 37 C 4.8732 -0.463668 -1.59497 0
M  V30 38 O 6.0582 -0.686241 -1.78032 0
M  V30 39 C 3.1982 -1.66028 -3.02537 0
M  V30 40 C 2.3112 -2.92855 -3.17585 0
M  V30 41 C 1.4462 -2.87952 -4.46382 0
M  V30 42 C 0.4852 -4.09516 -4.54932 0
M  V30 43 N -0.3778 -4.02733 -5.75109 0
M  V30 44 H 4.4622 -2.56529 -1.51647 0
M  V30 45 H 1.9992 -1.27224 -0.738414 0
M  V30 46 H 3.9572 -1.66265 -3.82638 0
M  V30 47 H 2.5872 -0.751331 -3.13934 0
M  V30 48 H 1.6392 -3.02395 -2.30784 0
M  V30 49 H 2.9512 -3.82822 -3.19764 0
M  V30 50 H 2.1052 -2.8655 -5.34765 0
M  V30 51 H 0.8442 -1.95702 -4.46712 0
M  V30 52 H -0.1508 -4.11201 -3.64957 0
M  V30 53 H 1.0742 -5.02917 -4.56346 0
M  V30 54 H -0.9798 -3.13299 -5.76351 0
M  V30 55 H -1.0628 -4.86397 -5.78752 0
M  V30 56 H 0.2052 -4.05379 -6.65799 0
M  V30 57 N 4.4343 0.785586 -1.36625 0
M  V30 58 C 5.3663 1.90711 -1.2713 0
M  V30 59 C 6.3793 1.61688 -0.189986 0
M  V30 60 O 7.5683 1.72864 -0.445014 0
M  V30 61 C 4.6683 3.25611 -0.939713 0
M  V30 62 C 3.8413 3.82385 -2.12369 0
M  V30 63 C 2.9003 4.95732 -1.76456 0
M  V30 64 O 1.9263 5.12047 -2.48589 0
M  V30 65 N 3.1283 5.76258 -0.700492 0
M  V30 66 H 5.8933 1.99376 -2.23762 0
M  V30 67 H 3.4543 0.964041 -1.30069 0
M  V30 68 H 5.4463 3.98937 -0.680554 0
M  V30 69 H 4.0163 3.12538 -0.0624074 0
M  V30 70 H 3.2363 3.01001 -2.54543 0
M  V30 71 H 4.5243 4.17047 -2.9146 0
M  V30 72 H 3.9223 5.65609 -0.101624 0
M  V30 73 H 2.4793 6.4987 -0.501165 0
M  V30 74 N 5.9124 1.20967 1.01018 0
M  V30 75 C 7.1614 1.01796 1.74128 0
M  V30 76 C 7.4744 -0.449691 1.90361 0
M  V30 77 O 8.6804 -0.76068 2.60626 0
M  V30 78 C 7.1364 1.7727 3.13215 0
M  V30 79 C 6.7444 3.28171 3.04972 0
M  V30 80 C 8.4884 1.66489 3.90489 0
M  V30 81 C 6.3954 3.96156 4.39107 0
M  V30 82 H 5.3254 0.377276 0.652824 0
M  V30 83 H 7.9764 1.44651 1.12909 0
M  V30 84 H 6.3584 1.27205 3.75013 0
M  V30 85 H 7.5324 3.85499 2.52443 0
M  V30 86 H 5.8474 3.39437 2.41188 0
M  V30 87 H 8.4444 2.14617 4.89738 0
M  V30 88 H 8.7874 0.6222 4.11624 0
M  V30 89 H 9.3204 2.14003 3.35332 0
M  V30 90 H 6.0594 5.00604 4.23174 0
M  V30 91 H 5.5794 3.43617 4.91617 0
M  V30 92 H 7.2584 4.00774 5.07926 0
M  V30 93 N 7.3905 -1.2043 1.01659 0
M  V30 94 C 8.3005 -2.2689 0.596484 0
M  V30 95 C 9.3165 -1.70107 -0.36599 0
M  V30 96 O 10.4925 -2.00117 -0.226942 0
M  V30 97 C 7.5575 -3.4665 -0.0586659 0
M  V30 98 C 6.6185 -4.18662 0.949751 0
M  V30 99 C 5.8515 -5.32705 0.32577 0
M  V30 100 O 6.0745 -5.63656 -0.874509 0
M  V30 101 O 5.0085 -5.92803 1.04249 0
M  V30 102 H 8.8345 -2.65041 1.4828 0
M  V30 103 H 6.4195 -1.27048 0.786082 0
M  V30 104 H 8.3015 -4.19256 -0.424564 0
M  V30 105 H 6.9765 -3.10375 -0.91918 0
M  V30 106 H 5.8835 -3.48229 1.36702 0
M  V30 107 H 7.2165 -4.58878 1.78023 0
M  V30 108 N 8.8686 -0.792821 -1.36206 0
M  V30 109 C 10.0936 -0.377701 -2.03932 0
M  V30 110 C 10.5186 0.998947 -1.59382 0
M  V30 111 O 9.8766 1.64421 -0.763903 0
M  V30 112 C 9.9246 -0.453635 -3.57735 0
M  V30 113 O 9.0286 0.538151 -4.08874 0
M  V30 114 H 8.3696 -0.159855 -0.644471 0
M  V30 115 H 10.8996 -1.07488 -1.7409 0
M  V30 116 H 10.9096 -0.318464 -4.06755 0
M  V30 117 H 9.5846 -1.45784 -3.89512 0
M  V30 118 H 8.1616 0.364359 -3.71116 0
M  V30 119 N 10.3467 1.47872 -0.545128 0
M  V30 120 C 11.2937 2.29849 0.2093 0
M  V30 121 C 12.2637 1.38313 0.919707 0
M  V30 122 O 13.4487 1.67277 0.917772 0
M  V30 123 C 10.5887 3.22019 1.24088 0
M  V30 124 C 9.7017 4.2864 0.537778 0
M  V30 125 C 8.8367 5.07973 1.5536 0
M  V30 126 C 7.8757 6.06381 0.8348 0
M  V30 127 N 7.0127 6.78717 1.79688 0
M  V30 128 H 11.8527 2.93845 -0.49591 0
M  V30 129 H 9.3897 1.44848 -0.256389 0
M  V30 130 H 11.3477 3.73868 1.85144 0
M  V30 131 H 9.9777 2.59914 1.91428 0
M  V30 132 H 9.0297 3.7994 -0.187046 0
M  V30 133 H 10.3417 4.98793 -0.0258907 0
M  V30 134 H 9.4957 5.63912 2.23803 0
M  V30 135 H 8.2347 4.37693 2.15118 0
M  V30 136 H 7.2397 5.49631 0.136388 0
M  V30 137 H 8.4647 6.78665 0.24313 0
M  V30 138 H 6.4107 6.11177 2.38326 0
M  V30 139 H 6.3277 7.44998 1.28505 0
M  V30 140 H 7.5957 7.39237 2.47282 0
M  V30 141 N 11.8248 0.280983 1.55075 0
M  V30 142 C 13.0528 -0.337293 2.04132 0
M  V30 143 C 13.4678 -1.4903 1.15912 0
M  V30 144 O 12.8248 -1.81606 0.180459 0
M  V30 145 C 12.8758 -0.812706 3.52246 0
M  V30 146 O 12.5968 0.294387 4.3711 0
M  V30 147 C 14.0978 -1.4982 4.17216 0
M  V30 148 H 11.3178 -0.0761638 0.666663 0
M  V30 149 H 13.8618 0.414787 2.00249 0
M  V30 150 H 12.0168 -1.51486 3.56554 0
M  V30 151 H 12.4308 -0.0721325 5.2445 0
M  V30 152 H 13.9048 -1.7822 5.22438 0
M  V30 153 H 14.3818 -2.43168 3.65741 0
M  V30 154 H 14.9878 -0.839742 4.16927 0
M  V30 155 N 13.3029 -1.57598 0.00835791 0
M  V30 156 C 14.2659 -2.07884 -0.965242 0
M  V30 157 C 15.2659 -0.989825 -1.26725 0
M  V30 158 O 16.4559 -1.25218 -1.21104 0
M  V30 159 C 13.5879 -2.52731 -2.28779 0
M  V30 160 H 14.7809 -2.95178 -0.530112 0
M  V30 161 H 12.3339 -1.54458 -0.239283 0
M  V30 162 H 13.0689 -1.68705 -2.76964 0
M  V30 163 H 12.8539 -3.32272 -2.08177 0
M  V30 164 H 14.3439 -2.91933 -2.98605 0
M  V30 165 N 14.781 0.264519 -1.55364 0
M  V30 166 C 16.028 0.994986 -1.7637 0
M  V30 167 C 16.356 1.85976 -0.5695 0
M  V30 168 O 15.611 1.90509 0.44776 0
M  V30 169 C 15.91 1.9004 -3.02687 0
M  V30 170 C 15.576 1.19243 -4.34847 0
M  V30 171 C 14.238 0.996709 -4.70764 0
M  V30 172 C 16.59 0.689296 -5.16622 0
M  V30 173 C 13.918 0.285261 -5.86006 0
M  V30 174 C 16.27 -0.00860079 -6.32599 0
M  V30 175 C 14.934 -0.215963 -6.67151 0
M  V30 176 H 14.204 0.364091 -0.645383 0
M  V30 177 H 16.851 0.266543 -1.89636 0
M  V30 178 H 15.156 2.69533 -2.84357 0
M  V30 179 H 16.853 2.46695 -3.16137 0
M  V30 180 H 13.443 1.3549 -4.06621 0
M  V30 181 H 17.627 0.828108 -4.89342 0
M  V30 182 H 12.883 0.113961 -6.11294 0
M  V30 183 H 17.057 -0.406186 -6.95214 0
M  V30 184 H 14.684 -0.769217 -7.56298 0
M  V30 185 N 16.2591 1.48442 0.529413 0
M  V30 186 C 17.1911 1.59095 1.64989 0
M  V30 187 C 18.2041 0.475212 1.5571 0
M  V30 188 O 19.3931 0.746081 1.6216 0
M  V30 189 C 16.4931 1.50518 3.0364 0
M  V30 190 C 15.6661 2.77142 3.38395 0
M  V30 191 C 14.7251 2.62012 4.56329 0
M  V30 192 O 13.7511 3.35898 4.59522 0
M  V30 193 N 14.9531 1.71667 5.54536 0
M  V30 194 H 17.7181 2.55723 1.56287 0
M  V30 195 H 15.2791 1.45173 0.716697 0
M  V30 196 H 17.2711 1.38091 3.80412 0
M  V30 197 H 15.8411 0.618627 3.06418 0
M  V30 198 H 15.0611 3.0413 2.50796 0
M  V30 199 H 16.3491 3.61146 3.58401 0
M  V30 200 H 15.7471 1.10841 5.54735 0
M  V30 201 H 14.3041 1.65178 6.30523 0
M  V30 202 N 17.7372 -0.778329 1.37039 0
M  V30 203 C 18.6472 -1.92253 1.34446 0
M  V30 204 C 19.6632 -1.72267 0.244991 0
M  V30 205 O 20.8392 -1.95615 0.479258 0
M  V30 206 C 17.9042 -3.27282 1.144 0
M  V30 207 C 16.9652 -3.59969 2.33925 0
M  V30 208 C 16.1982 -4.88555 2.14825 0
M  V30 209 O 16.4212 -5.59113 1.12912 0
M  V30 210 O 15.3552 -5.20153 3.02861 0
M  V30 211 H 19.1812 -1.97392 2.30803 0
M  V30 212 H 16.7662 -0.920154 1.17701 0
M  V30 213 H 18.6482 -4.08062 1.05182 0
M  V30 214 H 17.3232 -3.23011 0.211124 0
M  V30 215 H 16.2302 -2.7945 2.48714 0
M  V30 216 H 17.5632 -3.68976 3.25757 0
M  V30 217 N 19.2153 -1.21501 -1.00376 0
M  V30 218 C 20.1783 -0.976927 -2.07337 0
M  V30 219 C 21.1783 0.0525322 -1.60714 0
M  V30 220 O 22.3683 -0.184869 -1.73216 0
M  V30 221 C 19.5003 -0.473423 -3.37597 0
M  V30 222 H 20.6933 -1.92587 -2.29892 0
M  V30 223 H 18.2463 -1.03217 -1.17371 0
M  V30 224 H 18.9813 0.480379 -3.20722 0
M  V30 225 H 18.7663 -1.216 -3.72768 0
M  V30 226 H 20.2563 -0.32675 -4.1632 0
M  V30 227 N 20.6934 1.19889 -1.02296 0
M  V30 228 C 21.6234 2.25141 -0.619174 0
M  V30 229 C 22.6044 1.66051 0.368915 0
M  V30 230 O 23.7894 1.92546 0.252941 0
M  V30 231 C 20.9194 3.4728 0.0368783 0
M  V30 232 C 19.8734 4.19005 -0.872865 0
M  V30 233 C 19.1994 5.34637 -0.0822402 0
M  V30 234 C 20.4994 4.74452 -2.18387 0
M  V30 235 H 22.1934 2.59171 -1.49903 0
M  V30 236 H 19.7394 1.24579 -0.722222 0
M  V30 237 H 21.6924 4.20098 0.330958 0
M  V30 238 H 20.4164 3.12433 0.95149 0
M  V30 239 H 19.0754 3.48061 -1.15105 0
M  V30 240 H 18.7234 4.96034 0.83422 0
M  V30 241 H 18.4234 5.83557 -0.688149 0
M  V30 242 H 19.9474 6.10255 0.205238 0
M  V30 243 H 21.3614 5.39055 -1.95172 0
M  V30 244 H 19.7584 5.33834 -2.74119 0
M  V30 245 H 20.8284 3.92844 -2.84257 0
M  V30 246 N 22.1715 0.800033 1.35784 0
M  V30 247 C 23.4485 0.30088 1.93272 0
M  V30 248 C 23.8285 -1.20857 1.73081 0
M  V30 249 O 23.1765 -2.00502 1.09596 0
M  V30 250 C 23.3865 0.70511 3.41803 0
M  V30 251 C 24.7345 0.690871 4.18942 0
M  V30 252 O 25.7585 0.646244 3.50289 0
M  V30 253 O 24.6175 0.74332 5.41421 0
M  V30 254 H 21.7115 0.0771605 0.823393 0
M  V30 255 H 24.2575 0.88329 1.449 0
M  V30 256 H 23.0295 1.74571 3.50201 0
M  V30 257 H 22.6525 0.0971541 3.97481 0
M  V30 258 N 23.6496 -1.47581 0.552962 0
M  V30 259 C 24.6126 -2.28439 -0.186605 0
M  V30 260 C 25.6126 -1.36706 -0.84665 0
M  V30 261 O 26.8026 -1.59378 -0.703164 0
M  V30 262 C 23.9346 -3.16264 -1.2724 0
M  V30 263 H 25.1276 -2.95294 0.523609 0
M  V30 264 H 22.6806 -1.532 0.309745 0
M  V30 265 H 23.4156 -2.54091 -2.01514 0
M  V30 266 H 23.2006 -3.83769 -0.803968 0
M  V30 267 H 24.6906 -3.77198 -1.79196 0
M  V30 268 N 25.1277 -0.289203 -1.54924 0
M  V30 269 C 26.0907 0.579144 -2.21762 0
M  V30 270 C 27.0907 1.07047 -1.1999 0
M  V30 271 O 28.2807 0.968384 -1.44803 0
M  V30 272 C 25.4127 1.80055 -2.8947 0
M  V30 273 H 26.6057 -0.00464908 -2.999 0
M  V30 274 H 24.1587 -0.0399306 -1.56249 0
M  V30 275 H 24.8937 2.42449 -2.15381 0
M  V30 276 H 24.6787 1.45602 -3.64064 0
M  V30 277 H 26.1687 2.41773 -3.40493 0
M  V30 278 N 26.6058 1.57591 -0.0167156 0
M  V30 279 C 27.8538 1.90906 0.663285 0
M  V30 280 C 28.1748 0.892509 1.73376 0
M  V30 281 O 27.4448 -0.0677623 1.95783 0
M  V30 282 H 26.0248 0.704637 0.247983 0
M  V30 283 H 28.6868 1.94803 -0.0615909 0
M  V30 284 H 27.7828 2.9116 1.12393 0
M  V30 285 N 28.0839 -0.256276 1.55502 0
M  V30 286 C 29.3609 -1.00789 1.67633 0
M  V30 287 C 29.7409 -2.03706 0.553826 0
M  V30 288 O 29.0889 -2.24145 -0.443969 0
M  V30 289 C 29.2989 -1.64968 3.07549 0
M  V30 290 C 30.6469 -2.15505 3.65845 0
M  V30 291 O 31.6709 -1.74925 3.1029 0
M  V30 292 O 30.5299 -2.89986 4.63217 0
M  V30 293 H 27.6239 -0.468553 0.681459 0
M  V30 294 H 30.1699 -0.250806 1.67836 0
M  V30 295 H 28.9419 -0.904785 3.80696 0
M  V30 296 H 28.5649 -2.47321 3.11317 0
M  V30 297 N 29.562 -1.4872 -0.521534 0
M  V30 298 C 30.509 -1.63871 -1.62527 0
M  V30 299 C 31.479 -0.480559 -1.58996 0
M  V30 300 O 32.664 -0.705085 -1.77294 0
M  V30 301 C 29.804 -1.69227 -3.00759 0
M  V30 302 C 28.917 -2.96207 -3.14461 0
M  V30 303 C 28.052 -2.92671 -4.43303 0
M  V30 304 C 27.091 -4.14318 -4.50563 0
M  V30 305 N 26.228 -4.0881 -5.70805 0
M  V30 306 H 31.068 -2.58123 -1.48918 0
M  V30 307 H 28.605 -1.28 -0.724878 0
M  V30 308 H 30.563 -1.70314 -3.80853 0
M  V30 309 H 29.193 -0.784586 -3.1312 0
M  V30 310 H 28.245 -3.04826 -2.27564 0
M  V30 311 H 29.557 -3.86192 -3.15686 0
M  V30 312 H 28.711 -2.92206 -5.31696 0
M  V30 313 H 27.45 -2.00429 -4.44612 0
M  V30 314 H 26.455 -4.15049 -3.60575 0
M  V30 315 H 27.68 -5.07729 -4.50986 0
M  V30 316 H 25.626 -3.19394 -5.72995 0
M  V30 317 H 25.543 -4.92509 -5.7356 0
M  V30 318 H 26.811 -4.12418 -6.61462 0
M  V30 319 N 31.0401 0.771051 -1.3745 0
M  V30 320 C 31.9701 1.89827 -1.3597 0
M  V30 321 C 32.9511 1.68562 -0.228216 0
M  V30 322 O 34.1361 1.8941 -0.428675 0
M  V30 323 C 31.2661 3.2712 -1.16662 0
M  V30 324 C 30.2201 3.6295 -2.2683 0
M  V30 325 C 29.5461 4.98791 -1.92644 0
M  V30 326 C 30.8461 3.69627 -3.69017 0
M  V30 327 H 32.5401 1.91323 -2.30295 0
M  V30 328 H 30.0861 0.919082 -1.10855 0
M  V30 329 H 32.0391 4.05615 -1.14256 0
M  V30 330 H 30.7631 3.26059 -0.187926 0
M  V30 331 H 29.4221 2.86763 -2.28392 0
M  V30 332 H 29.0701 4.94271 -0.933021 0
M  V30 333 H 28.7701 5.23733 -2.66416 0
M  V30 334 H 30.2941 5.79685 -1.91826 0
M  V30 335 H 31.7081 4.38273 -3.69581 0
M  V30 336 H 30.1051 4.06067 -4.41848 0
M  V30 337 H 31.1751 2.70273 -4.02592 0
M  V30 338 N 32.5182 1.22032 0.997298 0
M  V30 339 C 33.7642 1.04376 1.73878 0
M  V30 340 C 34.0972 -0.420716 1.89588 0
M  V30 341 O 33.3722 -1.31202 1.43583 0
M  V30 342 C 33.6552 1.75047 3.14691 0
M  V30 343 C 33.5082 3.29062 3.06656 0
M  V30 344 C 34.8272 1.49928 4.13775 0
M  V30 345 H 31.9462 0.380578 0.631133 0
M  V30 346 H 34.5882 1.50312 1.16217 0
M  V30 347 H 32.7382 1.35996 3.63919 0
M  V30 348 H 34.4102 3.7753 2.65083 0
M  V30 349 H 32.6532 3.58967 2.43568 0
M  V30 350 H 33.3242 3.73683 4.06282 0
M  V30 351 H 35.8002 1.83842 3.73285 0
M  V30 352 H 34.6762 2.01878 5.10428 0
M  V30 353 H 34.9372 0.430929 4.39995 0
M  V30 354 N 33.9963 -1.19345 1.0293 0
M  V30 355 C 35.2423 -1.89318 0.727083 0
M  V30 356 C 35.5753 -1.79446 -0.742483 0
M  V30 357 O 34.8503 -1.1871 -1.54072 0
M  V30 358 C 35.1333 -3.40238 1.17942 0
M  V30 359 C 34.9863 -3.58979 2.71024 0
M  V30 360 C 36.3053 -4.33479 0.760548 0
M  V30 361 H 33.4243 -0.687475 0.265606 0
M  V30 362 H 36.0663 -1.40477 1.2793 0
M  V30 363 H 34.2163 -3.81964 0.709608 0
M  V30 364 H 35.8883 -3.26421 3.25955 0
M  V30 365 H 34.1313 -3.02018 3.11396 0
M  V30 366 H 34.8023 -4.64823 2.9773 0
M  V30 367 H 37.2783 -3.99469 1.16464 0
M  V30 368 H 36.1543 -5.37664 1.10493 0
M  V30 369 H 36.4153 -4.40813 -0.337063 0
M  V30 370 N 35.4744 -0.807222 -1.35358 0
M  V30 371 C 36.7204 -0.388463 -1.99045 0
M  V30 372 C 37.0534 1.04184 -1.63888 0
M  V30 373 O 36.3284 1.72292 -0.902535 0
M  V30 374 C 36.6114 -0.572783 -3.55515 0
M  V30 375 C 36.4644 -2.04807 -4.00468 0
M  V30 376 C 37.7834 0.00114064 -4.401 0
M  V30 377 H 34.9024 -0.142619 -0.723069 0
M  V30 378 H 37.5444 -1.01687 -1.60498 0
M  V30 379 H 35.6944 -0.0378425 -3.88482 0
M  V30 380 H 37.3664 -2.64544 -3.77908 0
M  V30 381 H 35.6094 -2.54427 -3.51353 0
M  V30 382 H 36.2804 -2.12792 -5.09337 0
M  V30 383 H 38.7564 -0.455716 -4.13597 0
M  V30 384 H 37.6324 -0.157737 -5.48673 0
M  V30 385 H 37.8934 1.09488 -4.28328 0
M  V30 386 N 36.9525 1.47285 -0.560781 0
M  V30 387 C 38.2295 1.9558 0.0277798 0
M  V30 388 C 38.6095 1.5034 1.48192 0
M  V30 389 O 37.9575 0.743882 2.16052 0
M  V30 390 C 38.1675 3.48789 -0.121418 0
M  V30 391 C 39.5155 4.24594 0.0220912 0
M  V30 392 O 40.5395 3.56166 -0.0491439 0
M  V30 393 O 39.3985 5.46217 0.175958 0
M  V30 394 H 36.4925 0.824663 0.0621342 0
M  V30 395 H 39.0385 1.5767 -0.627556 0
M  V30 396 H 37.8105 3.74533 -1.13316 0
M  V30 397 H 37.4335 3.93473 0.571366 0
M  V30 398 N 38.4306 0.297415 1.54768 0
M  V30 399 C 39.6776 -0.312913 2.00068 0
M  V30 400 C 40.0056 -1.54171 1.18582 0
M  V30 401 O 39.2606 -1.94108 0.249133 0
M  V30 402 C 39.5596 -0.717561 3.50123 0
M  V30 403 C 39.2256 0.409095 4.4904 0
M  V30 404 C 37.8876 0.718399 4.75807 0
M  V30 405 C 40.2396 1.16717 5.07963 0
M  V30 406 C 37.5676 1.78896 5.5876 0
M  V30 407 C 39.9196 2.22762 5.92081 0
M  V30 408 C 38.5836 2.54303 6.1716 0
M  V30 409 H 37.8536 -0.114503 0.7321 0
M  V30 410 H 40.5006 0.415767 1.86932 0
M  V30 411 H 38.8056 -1.52627 3.60849 0
M  V30 412 H 40.5026 -1.20091 3.82595 0
M  V30 413 H 37.0926 0.157918 4.28309 0
M  V30 414 H 41.2766 0.941466 4.87289 0
M  V30 415 H 36.5326 2.0381 5.7643 0
M  V30 416 H 40.7066 2.81962 6.36765 0
M  V30 417 H 38.3336 3.3739 6.81229 0
M  V30 418 N 39.9087 -1.5758 0.0250728 0
M  V30 419 C 41.1337 -1.96337 -0.668317 0
M  V30 420 C 41.5587 -0.901314 -1.651 0
M  V30 421 O 40.9167 0.138187 -1.80773 0
M  V30 422 C 40.9647 -3.34191 -1.35457 0
M  V30 423 O 40.0687 -3.30269 -2.46974 0
M  V30 424 H 39.4097 -0.640281 -0.175887 0
M  V30 425 H 41.9397 -2.0442 0.0857224 0
M  V30 426 H 41.9497 -3.70331 -1.71228 0
M  V30 427 H 40.6247 -4.11036 -0.634218 0
M  V30 428 H 39.2017 -3.05841 -2.13344 0
M  V30 429 N 41.3868 0.248026 -1.55636 0
M  V30 430 C 42.3498 1.29044 -1.89421 0
M  V30 431 C 43.3498 1.41134 -0.770581 0
M  V30 432 O 44.5398 1.39854 -1.03858 0
M  V30 433 C 41.6718 2.66831 -2.12165 0
M  V30 434 H 42.8648 1.00305 -2.82629 0
M  V30 435 H 40.4178 0.487265 -1.48511 0
M  V30 436 H 41.1528 3.00711 -1.21422 0
M  V30 437 H 40.9378 2.59438 -2.93997 0
M  V30 438 H 42.4278 3.42103 -2.3949 0
M  V30 439 N 42.8649 1.48995 0.513639 0
M  V30 440 C 44.0929 1.61531 1.29288 0
M  V30 441 C 44.5079 0.281801 1.86685 0
M  V30 442 O 43.8649 -0.731111 1.67215 0
M  V30 443 C 43.9159 2.67449 2.43215 0
M  V30 444 O 43.6369 3.95626 1.88179 0
M  V30 445 C 45.1379 2.90575 3.34785 0
M  V30 446 H 42.3579 0.544165 0.392588 0
M  V30 447 H 44.9019 1.9494 0.617956 0
M  V30 448 H 43.0569 2.36853 3.0656 0
M  V30 449 H 43.4709 4.53868 2.62876 0
M  V30 450 H 44.9449 3.68449 4.11035 0
M  V30 451 H 45.4219 2.00011 3.91015 0
M  V30 452 H 46.0279 3.22538 2.77218 0
M  V30 453 N 44.343 -0.763751 1.37857 0
M  V30 454 C 45.589 -1.52396 1.3471 0
M  V30 455 C 45.944 -1.92288 -0.0656435 0
M  V30 456 O 45.237 -1.6181 -1.02606 0
M  V30 457 C 45.431 -2.79499 2.22745 0
M  V30 458 C 45.26 -2.52031 3.72438 0
M  V30 459 C 44.03 -2.45759 4.4151 0
M  V30 460 C 46.228 -2.19489 4.65112 0
M  V30 461 N 44.21 -2.1046 5.76697 0
M  V30 462 C 45.581 -1.94396 5.88736 0
M  V30 463 C 47.636 -2.05712 4.53417 0
M  V30 464 C 46.339 -1.56917 7.01975 0
M  V30 465 C 48.365 -1.69634 5.66549 0
M  V30 466 C 47.727 -1.45407 6.89229 0
M  V30 467 H 43.826 -0.55765 0.548225 0
M  V30 468 H 46.41 -0.890302 1.73152 0
M  V30 469 H 44.581 -3.4069 1.86507 0
M  V30 470 H 46.313 -3.45465 2.10798 0
M  V30 471 H 43.068 -2.61885 3.94605 0
M  V30 472 H 43.492 -1.95484 6.48163 0
M  V30 473 H 48.134 -2.23123 3.59133 0
M  V30 474 H 45.852 -1.38246 7.96187 0
M  V30 475 H 49.438 -1.59621 5.59475 0
M  V30 476 H 48.318 -1.17904 7.75286 0
M  V30 477 N 45.8211 -1.22559 -0.990812 0
M  V30 478 C 47.0611 -1.06302 -1.74583 0
M  V30 479 C 47.4251 0.394737 -1.87898 0
M  V30 480 O 48.6261 0.678214 -2.60103 0
M  V30 481 C 46.8971 -1.75699 -3.11231 0
M  V30 482 S 48.4561 -1.74882 -4.02445 0
M  V30 483 H 45.2741 -0.380639 -0.600529 0
M  V30 484 H 47.8761 -1.55532 -1.18449 0
M  V30 485 H 46.5801 -2.80923 -2.99183 0
M  V30 486 H 46.1111 -1.26708 -3.72436 0
M  V30 487 H 48.1261 -0.799997 -4.89709 0
M  V30 488 N 47.2992 1.18797 -1.03562 0
M  V30 489 C 48.5472 1.88278 -0.734569 0
M  V30 490 C 48.8682 1.8043 0.739586 0
M  V30 491 O 48.1382 1.21925 1.53333 0
M  V30 492 H 46.7182 0.696991 -0.268725 0
M  V30 493 H 49.3802 1.44192 -1.31129 0
M  V30 494 H 48.4762 2.94443 -1.03489 0
M  V30 495 N 48.7773 0.814389 1.34928 0
M  V30 496 C 50.1883 0.458364 1.80986 0
M  V30 497 C 50.5393 -1.02042 1.67577 0
M  V30 498 O 49.6643 -1.79352 1.21086 0
M  V30 499 C 50.2593 0.825212 3.28597 0
M  V30 500 C 48.8183 0.521677 3.72767 0
M  V30 501 C 47.9653 1.04668 2.56788 0
M  V30 502 H 50.9163 1.00533 1.22795 0
M  V30 503 H 50.9373 0.12571 3.80292 0
M  V30 504 H 50.4493 1.90154 3.38324 0
M  V30 505 H 48.5503 -0.545589 3.68584 0
M  V30 506 H 48.6633 1.05977 4.67232 0
M  V30 507 H 47.0273 0.468622 2.50352 0
M  V30 508 H 47.8103 2.12927 2.6929 0
M  V30 509 N 50.2554 -1.46986 0.568584 0
M  V30 510 C 51.4954 -2.04336 0.0512999 0
M  V30 511 C 51.8594 -1.43214 -1.27881 0
M  V30 512 O 53.0604 -1.91679 -1.88448 0
M  V30 513 C 51.3314 -3.57389 -0.0282328 0
M  V30 514 S 52.8904 -4.36056 -0.489991 0
M  V30 515 H 49.7084 -0.71034 0.0306349 0
M  V30 516 H 52.3104 -1.80212 0.757891 0
M  V30 517 H 51.0144 -3.99395 0.944011 0
M  V30 518 H 50.5454 -3.86028 -0.75803 0
M  V30 519 H 52.5604 -4.6441 -1.74752 0
M  V30 520 N 51.7335 -0.305618 -1.54608 0
M  V30 521 C 52.6805 0.568421 -2.23691 0
M  V30 522 C 53.6505 1.12592 -1.22116 0
M  V30 523 O 54.8355 1.16959 -1.50749 0
M  V30 524 C 51.9755 1.7322 -2.98477 0
M  V30 525 C 51.0885 1.20566 -4.14835 0
M  V30 526 C 50.2235 2.33368 -4.77193 0
M  V30 527 C 49.2625 1.7787 -5.85686 0
M  V30 528 N 48.3995 2.84263 -6.4198 0
M  V30 529 H 53.2395 -0.0272867 -2.97988 0
M  V30 530 H 50.7765 -0.0252363 -1.47078 0
M  V30 531 H 52.7345 2.41675 -3.40072 0
M  V30 532 H 51.3645 2.29947 -2.26548 0
M  V30 533 H 50.4165 0.413223 -3.78149 0
M  V30 534 H 51.7285 0.759417 -4.92985 0
M  V30 535 H 50.8825 3.09761 -5.21664 0
M  V30 536 H 49.6215 2.8132 -3.98385 0
M  V30 537 H 48.6265 0.99968 -5.40635 0
M  V30 538 H 49.8515 1.30816 -6.66381 0
M  V30 539 H 47.7975 3.31541 -5.66053 0
M  V30 540 H 47.7145 2.44149 -7.15491 0
M  V30 541 H 48.9825 3.6054 -6.91109 0
M  V30 542 N 53.2116 1.57565 -0.0334293 0
M  V30 543 C 54.1446 2.05997 0.981866 0
M  V30 544 C 55.1226 0.956647 1.3148 0
M  V30 545 O 56.3066 1.22729 1.43073 0
M  V30 546 C 53.4336 2.48564 2.30074 0
M  V30 547 C 52.4796 3.69958 2.12211 0
M  V30 548 S 53.3126 5.16414 1.41692 0
M  V30 549 C 54.4686 5.6228 2.7494 0
M  V30 550 H 54.7016 2.91792 0.569612 0
M  V30 551 H 52.2346 1.53366 0.178376 0
M  V30 552 H 54.1926 2.73753 3.05892 0
M  V30 553 H 52.8536 1.63106 2.68431 0
M  V30 554 H 52.0466 3.97603 3.09722 0
M  V30 555 H 51.6486 3.44943 1.44535 0
M  V30 556 H 53.9406 5.66783 3.71165 0
M  V30 557 H 54.8836 6.61759 2.51953 0
M  V30 558 H 55.2916 4.89944 2.80384 0
M  V30 559 N 54.6897 -0.239769 1.55765 0
M  V30 560 C 55.9387 -0.964754 1.77131 0
M  V30 561 C 56.2517 -1.86213 0.59868 0
M  V30 562 O 57.4577 -2.6244 0.695522 0
M  V30 563 C 55.9137 -1.76552 3.1362 0
M  V30 564 C 55.5217 -0.915185 4.38553 0
M  V30 565 C 57.2657 -2.48281 3.44321 0
M  V30 566 C 55.1727 -1.71225 5.66071 0
M  V30 567 H 54.1027 -0.363953 0.660344 0
M  V30 568 H 56.7537 -0.219181 1.82186 0
M  V30 569 H 55.1357 -2.55331 3.02691 0
M  V30 570 H 56.3097 -0.169217 4.60489 0
M  V30 571 H 54.6247 -0.310889 4.15238 0
M  V30 572 H 57.2217 -3.08382 4.36812 0
M  V30 573 H 57.5647 -3.20256 2.65973 0
M  V30 574 H 58.0977 -1.76507 3.56497 0
M  V30 575 H 54.8367 -1.03612 6.4726 0
M  V30 576 H 54.3567 -2.43331 5.48224 0
M  V30 577 H 56.0357 -2.27758 6.05587 0
M  V30 578 N 56.1678 -1.49265 -0.50573 0
M  V30 579 C 57.1148 -1.65585 -1.6078 0
M  V30 580 C 58.0848 -0.497396 -1.58478 0
M  V30 581 O 59.2698 -0.72385 -1.76536 0
M  V30 582 C 56.4098 -1.72408 -2.98948 0
M  V30 583 C 55.5228 -2.99525 -3.11301 0
M  V30 584 C 54.6578 -2.97356 -4.40174 0
M  V30 585 C 53.6968 -4.19074 -4.46143 0
M  V30 586 N 52.8338 -4.14841 -5.66437 0
M  V30 587 H 57.6738 -2.59688 -1.46172 0
M  V30 588 H 55.2108 -1.28761 -0.711261 0
M  V30 589 H 57.1688 -1.74344 -3.79025 0
M  V30 590 H 55.7988 -0.817753 -3.1227 0
M  V30 591 H 54.8508 -3.07222 -2.24318 0
M  V30 592 H 56.1628 -3.89518 -3.11572 0
M  V30 593 H 55.3168 -2.97829 -5.28567 0
M  V30 594 H 54.0558 -2.05133 -4.42461 0
M  V30 595 H 53.0608 -4.1885 -3.56153 0
M  V30 596 H 54.2858 -5.12483 -4.45575 0
M  V30 597 H 52.2318 -3.25453 -5.69575 0
M  V30 598 H 52.1488 -4.98564 -5.68304 0
M  V30 599 H 53.4168 -4.1941 -6.57051 0
M  V30 600 N 57.6459 0.756429 -1.3826 0
M  V30 601 C 59.0569 1.33359 -1.30661 0
M  V30 602 C 59.4079 1.96161 0.0388875 0
M  V30 603 O 58.5329 1.94874 0.940918 0
M  V30 604 C 59.1279 2.42477 -2.36622 0
M  V30 605 C 57.6869 2.95922 -2.3261 0
M  V30 606 C 56.8339 1.69275 -2.19639 0
M  V30 607 H 59.7849 0.55552 -1.4866 0
M  V30 608 H 59.8059 3.22345 -2.02174 0
M  V30 609 H 59.3179 1.96739 -3.34538 0
M  V30 610 H 57.4189 3.45996 -1.38267 0
M  V30 611 H 57.5319 3.50494 -3.26636 0
M  V30 612 H 55.8959 1.92793 -1.66442 0
M  V30 613 H 56.6789 1.25619 -3.19491 0
M  V30 614 N 59.124 1.23083 0.984299 0
M  V30 615 C 60.371 1.06057 1.72505 0
M  V30 616 C 60.699 -0.403105 1.90277 0
M  V30 617 O 59.954 -1.3149 1.44944 0
M  V30 618 C 60.253 1.72673 3.1292 0
M  V30 619 C 59.919 3.22586 3.15038 0
M  V30 620 C 58.581 3.63489 3.15324 0
M  V30 621 C 60.933 4.185 3.10657 0
M  V30 622 C 58.261 4.98772 3.08939 0
M  V30 623 C 60.613 5.53769 3.05814 0
M  V30 624 C 59.277 5.94041 3.04419 0
M  V30 625 H 58.547 0.388091 0.631242 0
M  V30 626 H 61.194 1.52963 1.15215 0
M  V30 627 H 59.499 1.18116 3.73572 0
M  V30 628 H 61.196 1.56982 3.68996 0
M  V30 629 H 57.786 2.90022 3.15571 0
M  V30 630 H 61.97 3.87911 3.09579 0
M  V30 631 H 57.226 5.29193 3.0621 0
M  V30 632 H 61.4 6.27808 3.0138 0
M  V30 633 H 59.027 6.98833 2.99227 0
M  V30 634 N 60.6021 -1.18246 1.0419 0
M  V30 635 C 61.8491 -1.88257 0.746017 0
M  V30 636 C 62.1771 -1.80429 -0.726331 0
M  V30 637 O 61.4321 -1.2 -1.54591 0
M  V30 638 C 61.7311 -3.38082 1.15911 0
M  V30 639 C 61.3971 -3.66114 2.63195 0
M  V30 640 C 60.0591 -3.73474 3.03432 0
M  V30 641 C 62.4111 -3.78398 3.5842 0
M  V30 642 C 59.7391 -3.90599 4.37778 0
M  V30 643 C 62.0911 -3.97039 4.92487 0
M  V30 644 C 60.7551 -4.02635 5.32392 0
M  V30 645 H 60.0251 -0.688883 0.272987 0
M  V30 646 H 62.6721 -1.3995 1.30715 0
M  V30 647 H 60.9771 -3.88377 0.516806 0
M  V30 648 H 62.6741 -3.90596 0.907516 0
M  V30 649 H 59.2641 -3.61003 2.3103 0
M  V30 650 H 63.4481 -3.72042 3.28479 0
M  V30 651 H 58.7041 -3.93175 4.68213 0
M  V30 652 H 62.8781 -4.05486 5.66175 0
M  V30 653 H 60.5051 -4.15657 6.36501 0
M  V30 654 N 62.0802 -0.821533 -1.34494 0
M  V30 655 C 63.0302 -0.214793 -2.26986 0
M  V30 656 C 64.0142 0.620125 -1.4847 0
M  V30 657 O 65.2062 0.474933 -1.70509 0
M  V30 658 C 62.3352 0.623566 -3.37589 0
M  V30 659 C 61.4212 -0.221904 -4.23519 0
M  V30 660 N 61.8122 -1.29223 -4.89014 0
M  V30 661 C 60.1102 -0.00600922 -4.46 0
M  V30 662 C 60.8112 -1.80965 -5.52835 0
M  V30 663 N 59.7872 -1.11376 -5.32068 0
M  V30 664 H 63.5892 -1.03354 -2.75128 0
M  V30 665 H 61.1032 -0.6642 -1.48196 0
M  V30 666 H 63.1002 1.0744 -4.02818 0
M  V30 667 H 61.7602 1.44049 -2.90998 0
M  V30 668 H 62.7712 -1.67502 -4.90065 0
M  V30 669 H 59.4482 0.77886 -4.10171 0
M  V30 670 H 60.8382 -2.70502 -6.15043 0
M  V30 671 N 63.5583 1.46682 -0.576371 0
M  V30 672 C 64.7833 2.07304 -0.0630475 0
M  V30 673 C 65.2083 1.42329 1.2298 0
M  V30 674 O 64.5663 0.504865 1.74129 0
M  V30 675 C 64.6143 3.60472 0.095895 0
M  V30 676 O 63.7183 3.95927 1.15394 0
M  V30 677 H 63.0593 0.661288 -0.0599463 0
M  V30 678 H 65.5893 1.88417 -0.797511 0
M  V30 679 H 65.5993 4.06865 0.304071 0
M  V30 680 H 64.2743 4.07157 -0.84828 0
M  V30 681 H 62.8513 3.61252 0.924724 0
M  V30 682 N 65.0364 0.313813 1.54444 0
M  V30 683 C 65.9664 -0.549454 2.26943 0
M  V30 684 C 66.9474 -1.12741 1.27372 0
M  V30 685 O 68.1324 -1.15436 1.56167 0
M  V30 686 C 65.2624 -1.71523 3.01989 0
M  V30 687 C 64.2164 -1.26703 4.08816 0
M  V30 688 C 63.5424 -2.51898 4.71647 0
M  V30 689 C 64.8424 -0.388962 5.2085 0
M  V30 690 H 66.5364 0.0552661 2.99349 0
M  V30 691 H 64.0824 0.0280207 1.43973 0
M  V30 692 H 66.0354 -2.32535 3.51433 0
M  V30 693 H 64.7594 -2.34639 2.27183 0
M  V30 694 H 63.4184 -0.679896 3.6024 0
M  V30 695 H 63.0664 -3.13356 3.93468 0
M  V30 696 H 62.7664 -2.22605 5.43802 0
M  V30 697 H 64.2904 -3.1369 5.23861 0
M  V30 698 H 65.7044 -0.905107 5.6611 0
M  V30 699 H 64.1014 -0.18924 5.99802 0
M  V30 700 H 65.1714 0.582699 4.81386 0
M  V30 701 N 66.5145 -1.57545 0.0417849 0
M  V30 702 C 67.7395 -1.97035 -0.647455 0
M  V30 703 C 68.1645 -0.918775 -1.64135 0
M  V30 704 O 67.5225 0.119006 -1.80909 0
M  V30 705 C 67.5705 -3.35609 -1.31905 0
M  V30 706 O 66.6745 -3.3287 -2.43457 0
M  V30 707 H 66.0155 -0.64211 -0.169086 0
M  V30 708 H 68.5455 -2.04318 0.107399 0
M  V30 709 H 68.5555 -3.72126 -1.67291 0
M  V30 710 H 67.2305 -4.11685 -0.590586 0
M  V30 711 H 65.8075 -3.08087 -2.10088 0
M  V30 712 N 67.9926 0.231505 -1.5589 0
M  V30 713 C 68.9026 1.308 -1.94752 0
M  V30 714 C 69.9186 1.51826 -0.849989 0
M  V30 715 O 71.0946 1.6515 -1.15271 0
M  V30 716 C 68.1596 2.63968 -2.24771 0
M  V30 717 C 67.2206 2.51331 -3.48039 0
M  V30 718 C 66.4536 3.78148 -3.76616 0
M  V30 719 O 66.6766 4.80722 -3.07022 0
M  V30 720 O 65.6106 3.75857 -4.70123 0
M  V30 721 H 69.4366 1.0083 -2.86474 0
M  V30 722 H 67.0216 0.433547 -1.42971 0
M  V30 723 H 68.9036 3.42633 -2.45318 0
M  V30 724 H 67.5786 2.9364 -1.36225 0
M  V30 725 H 66.4856 1.709 -3.32782 0
M  V30 726 H 67.8186 2.26601 -4.36936 0
M  V30 727 N 69.4707 1.49531 0.497807 0
M  V30 728 C 70.4177 1.66436 1.59899 0
M  V30 729 C 71.3877 0.505793 1.58212 0
M  V30 730 O 72.5727 0.733202 1.7615 0
M  V30 731 C 69.7127 1.7399 2.98029 0
M  V30 732 C 68.8257 3.01172 3.09708 0
M  V30 733 C 67.9607 2.99686 4.38591 0
M  V30 734 C 66.9997 4.21434 4.43914 0
M  V30 735 N 66.1367 4.1784 5.64229 0
M  V30 736 H 70.9767 2.60459 1.44793 0
M  V30 737 H 68.5137 1.29137 0.704423 0
M  V30 738 H 70.4717 1.76352 3.78095 0
M  V30 739 H 69.1017 0.834301 3.11832 0
M  V30 740 H 68.1537 3.08408 2.22685 0
M  V30 741 H 69.4657 3.91165 3.09502 0
M  V30 742 H 68.6197 3.00628 5.2698 0
M  V30 743 H 67.3587 2.07477 4.41367 0
M  V30 744 H 66.3637 4.20733 3.53926 0
M  V30 745 H 67.5887 5.14839 4.42851 0
M  V30 746 H 65.5347 3.28469 5.67841 0
M  V30 747 H 65.4517 5.01571 5.65652 0
M  V30 748 H 66.7197 4.22889 6.54817 0
M  V30 749 N 70.9488 -0.749086 1.3866 0
M  V30 750 C 72.1788 -1.53611 1.38157 0
M  V30 751 C 72.5868 -1.89177 -0.0293595 0
M  V30 752 O 71.9298 -1.53606 -1.00752 0
M  V30 753 C 71.9918 -2.86087 2.17702 0
M  V30 754 C 71.6558 -2.73034 3.66472 0
M  V30 755 C 72.6528 -2.42526 4.59866 0
M  V30 756 C 70.3378 -2.90345 4.09884 0
M  V30 757 C 72.3318 -2.29492 5.94653 0
M  V30 758 C 70.0188 -2.7693 5.4475 0
M  V30 759 C 71.0168 -2.46547 6.36949 0
M  V30 760 O 70.7048 -2.33199 7.69333 0
M  V30 761 H 70.4368 -0.481773 0.474205 0
M  V30 762 H 72.9908 -0.934465 1.82912 0
M  V30 763 H 71.2208 -3.48458 1.67672 0
M  V30 764 H 72.9098 -3.47625 2.09551 0
M  V30 765 H 73.6758 -2.28816 4.27631 0
M  V30 766 H 69.5548 -3.1299 3.38464 0
M  V30 767 H 73.0988 -2.05698 6.66584 0
M  V30 768 H 68.9958 -2.90215 5.76581 0
M  V30 769 H 69.7638 -2.48376 7.79905 0
M  V30 770 N 72.4269 -1.23603 -0.977757 0
M  V30 771 C 73.6519 -1.09735 -1.75991 0
M  V30 772 C 74.0769 0.346858 -1.84874 0
M  V30 773 O 73.4349 1.25093 -1.3123 0
M  V30 774 C 73.4829 -1.73051 -3.16363 0
M  V30 775 O 72.5869 -0.994452 -4.0023 0
M  V30 776 H 71.9279 -0.384476 -0.541364 0
M  V30 777 H 74.4579 -1.6371 -1.2272 0
M  V30 778 H 74.4679 -1.78398 -3.66931 0
M  V30 779 H 73.1429 -2.78137 -3.09213 0
M  V30 780 H 71.7199 -1.01812 -3.58732 0
M  V30 781 N 73.905 1.17692 -1.04816 0
M  V30 782 C 74.853 2.23632 -0.63966 0
M  V30 783 C 75.847 1.6601 0.337219 0
M  V30 784 O 77.053 1.78844 0.203693 0
M  V30 785 H 73.428 0.727949 -0.188665 0
M  V30 786 H 75.399 2.55387 -1.54337 0
M  V30 787 C 74.148 3.4769 -0.0264051 0
M  V30 788 H 73.471 3.92331 -0.769164 0
M  V30 789 H 74.911 4.23418 0.222098 0
M  V30 790 C 73.37 3.13807 1.22584 0
M  V30 791 O 73.9 3.28236 2.31569 0
M  V30 792 N 72.106 2.68065 1.12202 0
M  V30 793 H 71.653 2.56525 0.235133 0
M  V30 794 H 71.611 2.45767 1.96076 0
M  V30 795 N 75.3831 0.828654 1.34056 0
M  V30 796 C 76.6291 0.42008 1.98402 0
M  V30 797 C 76.9621 -1.01564 1.65525 0
M  V30 798 O 76.2371 -1.70834 0.929831 0
M  V30 799 C 76.5201 0.62927 3.54559 0
M  V30 800 C 76.3731 2.11152 3.97159 0
M  V30 801 C 77.6921 0.0688756 4.40046 0
M  V30 802 H 74.8111 0.154104 0.720709 0
M  V30 803 H 77.4531 1.04228 1.5886 0
M  V30 804 H 75.6031 0.0996418 3.88372 0
M  V30 805 H 77.2751 2.70522 3.73651 0
M  V30 806 H 75.5181 2.59985 3.47261 0
M  V30 807 H 76.1891 2.20868 5.05887 0
M  V30 808 H 78.6651 0.521458 4.1282 0
M  V30 809 H 77.5411 0.245006 5.48353 0
M  V30 810 H 77.8021 -1.0266 4.30015 0
M  V30 811 N 76.8612 -1.46375 0.584142 0
M  V30 812 C 78.1102 -2.01585 0.0679741 0
M  V30 813 C 78.4232 -1.46109 -1.30045 0
M  V30 814 O 79.6292 -1.93148 -1.90804 0
M  V30 815 C 78.0852 -3.5983 0.0709207 0
M  V30 816 C 77.6932 -4.24303 1.43775 0
M  V30 817 C 79.4372 -4.22693 -0.391228 0
M  V30 818 C 77.3442 -5.74631 1.39834 0
M  V30 819 H 76.2742 -0.753689 0.0216421 0
M  V30 820 H 78.9252 -1.68093 0.736001 0
M  V30 821 H 77.3072 -3.90405 -0.663299 0
M  V30 822 H 78.4812 -4.05335 2.19181 0
M  V30 823 H 76.7962 -3.73539 1.84004 0
M  V30 824 H 79.3932 -5.3289 -0.439524 0
M  V30 825 H 79.7362 -3.91728 -1.40906 0
M  V30 826 H 80.2692 -3.96749 0.288974 0
M  V30 827 H 77.0082 -6.10258 2.39303 0
M  V30 828 H 76.5282 -5.95858 0.686505 0
M  V30 829 H 78.2072 -6.37375 1.11187 0
M  V30 830 N 78.3393 -0.321999 -1.54275 0
M  V30 831 C 79.5863 0.281044 -2.0054 0
M  V30 832 C 79.9143 1.52265 -1.21019 0
M  V30 833 O 79.1693 1.93687 -0.279982 0
M  V30 834 C 79.4683 0.661769 -3.5122 0
M  V30 835 C 79.1343 -0.480482 -4.48333 0
M  V30 836 C 77.7963 -0.794005 -4.74604 0
M  V30 837 C 80.1483 -1.24783 -5.06042 0
M  V30 838 C 77.4763 -1.87763 -5.55844 0
M  V30 839 C 79.8283 -2.32153 -5.88462 0
M  V30 840 C 78.4923 -2.64089 -6.13036 0
M  V30 841 H 77.7623 0.102841 -0.733829 0
M  V30 842 H 80.4093 -0.445453 -1.86247 0
M  V30 843 H 78.7143 1.46867 -3.63232 0
M  V30 844 H 80.4113 1.13989 -3.84457 0
M  V30 845 H 77.0013 -0.226039 -4.28004 0
M  V30 846 H 81.1853 -1.01887 -4.85729 0
M  V30 847 H 76.4413 -2.12954 -5.73115 0
M  V30 848 H 80.6153 -2.92057 -6.32199 0
M  V30 849 H 78.2423 -3.48185 -6.75775 0
M  V30 850 N 79.8174 1.5752 -0.0501392 0
M  V30 851 C 80.7474 2.14502 0.922566 0
M  V30 852 C 81.7284 1.06642 1.3252 0
M  V30 853 O 82.9134 1.34577 1.4001 0
M  V30 854 C 80.0434 2.68916 2.19776 0
M  V30 855 C 78.9974 3.8175 1.93523 0
M  V30 856 C 78.3234 4.22677 3.27487 0
M  V30 857 C 79.6234 5.06932 1.25765 0
M  V30 858 H 81.3174 2.9603 0.447952 0
M  V30 859 H 78.8634 1.42401 0.214024 0
M  V30 860 H 80.8164 3.07419 2.88222 0
M  V30 861 H 79.5404 1.84578 2.69441 0
M  V30 862 H 78.1994 3.43718 1.27489 0
M  V30 863 H 77.8474 3.35291 3.74952 0
M  V30 864 H 77.5474 4.98725 3.1072 0
M  V30 865 H 79.0714 4.63779 3.97166 0
M  V30 866 H 80.4854 5.42888 1.84244 0
M  V30 867 H 78.8824 5.88116 1.19328 0
M  V30 868 H 79.9524 4.84337 0.233536 0
M  V30 869 N 81.2955 -0.223234 1.56011 0
M  V30 870 C 82.2055 -1.29766 1.95443 0
M  V30 871 C 83.2215 -1.51373 0.858028 0
M  V30 872 O 84.3975 -1.64536 1.16146 0
M  V30 873 C 81.4625 -2.62772 2.26167 0
M  V30 874 C 80.5235 -2.49482 3.49367 0
M  V30 875 C 79.7565 -3.76145 3.78616 0
M  V30 876 O 79.9795 -4.79087 3.09568 0
M  V30 877 O 78.9135 -3.73358 4.72109 0
M  V30 878 H 82.7395 -0.99309 2.87004 0
M  V30 879 H 80.3245 -0.425958 1.43199 0
M  V30 880 H 82.2065 -3.41327 2.47131 0
M  V30 881 H 80.8815 -2.92913 1.37781 0
M  V30 882 H 79.7885 -1.69133 3.33684 0
M  V30 883 H 81.1215 -2.2428 4.38131 0
M  V30 884 N 82.7736 -1.49793 -0.48987 0
M  V30 885 C 84.0196 -1.60078 -1.24511 0
M  V30 886 C 84.3526 -0.291608 -1.91998 0
M  V30 887 O 83.6276 0.705647 -1.81248 0
M  V30 888 C 83.9106 -2.76791 -2.30345 0
M  V30 889 C 83.7636 -4.17535 -1.67286 0
M  V30 890 C 85.0826 -2.89111 -3.31817 0
M  V30 891 H 82.2016 -0.582645 -0.451324 0
M  V30 892 H 84.8436 -1.82117 -0.541612 0
M  V30 893 H 82.9936 -2.5813 -2.90346 0
M  V30 894 H 84.6656 -4.4774 -1.11026 0
M  V30 895 H 82.9086 -4.22665 -0.976577 0
M  V30 896 H 83.5796 -4.95094 -2.44103 0
M  V30 897 H 86.0556 -3.06133 -2.81819 0
M  V30 898 H 84.9316 -3.72433 -4.03219 0
M  V30 899 H 85.1926 -1.9893 -3.94815 0
M  V30 900 N 84.2517 0.741722 -1.39055 0
M  V30 901 C 85.5287 1.49252 -1.26425 0
M  V30 902 C 85.9087 2.10705 0.129144 0
M  V30 903 O 85.2567 1.98045 1.13976 0
M  V30 904 C 85.4667 2.54934 -2.38347 0
M  V30 905 C 86.8147 3.21506 -2.77343 0
M  V30 906 O 87.8387 2.65245 -2.37747 0
M  V30 907 O 86.6977 4.23294 -3.45665 0
M  V30 908 H 83.7917 0.662451 -0.495064 0
M  V30 909 H 86.3377 0.776121 -1.50912 0
M  V30 910 H 85.1097 2.07857 -3.31529 0
M  V30 911 H 84.7327 3.34141 -2.15489 0
M  V30 912 N 85.7298 1.2412 0.971189 0
M  V30 913 C 86.9758 1.08041 1.71625 0
M  V30 914 C 87.3088 -0.380407 1.90438 0
M  V30 915 O 86.5838 -1.28127 1.46334 0
M  V30 916 C 86.8668 1.81682 3.10908 0
M  V30 917 C 86.7198 3.35493 2.99608 0
M  V30 918 C 88.0388 1.58671 4.10501 0
M  V30 919 H 85.1578 0.39388 0.622919 0
M  V30 920 H 87.7998 1.52743 1.13003 0
M  V30 921 H 85.9498 1.43684 3.60953 0
M  V30 922 H 87.6218 3.83068 2.57015 0
M  V30 923 H 85.8648 3.64052 2.35899 0
M  V30 924 H 86.5358 3.82217 3.98264 0
M  V30 925 H 89.0118 1.91719 3.69301 0
M  V30 926 H 87.8878 2.1266 5.06031 0
M  V30 927 H 88.1488 0.524161 4.38982 0
M  V30 928 N 87.2079 -1.17134 1.05439 0
M  V30 929 C 88.4849 -1.83411 0.679699 0
M  V30 930 C 88.8649 -1.9368 -0.839726 0
M  V30 931 O 88.2129 -1.47325 -1.74664 0
M  V30 932 C 88.4229 -3.20918 1.37159 0
M  V30 933 C 89.7709 -3.96796 1.51123 0
M  V30 934 O 90.7949 -3.30406 1.3308 0
M  V30 935 O 89.6539 -5.15778 1.80651 0
M  V30 936 H 86.7479 -0.79154 0.239569 0
M  V30 937 H 89.2939 -1.24411 1.15413 0
M  V30 938 H 88.0659 -3.08428 2.40807 0
M  V30 939 H 87.6889 -3.87587 0.886674 0
M  V30 940 N 88.686 -0.835752 -1.33615 0
M  V30 941 C 89.963 -0.352017 -1.92406 0
M  V30 942 C 90.343 1.16225 -1.76224 0
M  V30 943 O 89.691 1.97526 -1.14873 0
M  V30 944 C 89.901 -0.795485 -3.39813 0
M  V30 945 C 91.249 -0.801703 -4.16963 0
M  V30 946 O 92.273 -0.738889 -3.48452 0
M  V30 947 O 91.132 -0.886607 -5.3926 0
M  V30 948 H 88.226 -0.0989641 -0.821057 0
M  V30 949 H 90.772 -0.921397 -1.42507 0
M  V30 950 H 89.544 -1.83795 -3.45449 0
M  V30 951 H 89.167 -0.202505 -3.97084 0
M  V30 952 N 90.1641 1.46063 -0.591896 0
M  V30 953 C 91.4041 2.04228 -0.0838014 0
M  V30 954 C 91.7681 1.45231 1.25587 0
M  V30 955 O 92.9691 1.94653 1.85375 0
M  V30 956 C 91.2401 3.57389 -0.0286282 0
M  V30 957 S 92.7991 4.3678 0.420557 0
M  V30 958 H 89.6171 0.709762 -0.0419319 0
M  V30 959 H 92.2191 1.78983 -0.786465 0
M  V30 960 H 90.9231 3.97843 -1.00743 0
M  V30 961 H 90.4541 3.87185 0.69652 0
M  V30 962 H 92.4691 4.67131 1.67341 0
M  V30 963 N 91.6422 0.330177 1.54103 0
M  V30 964 C 92.5742 -0.566902 2.22079 0
M  V30 965 C 93.5872 -1.07462 1.22294 0
M  V30 966 O 94.7762 -0.987065 1.48726 0
M  V30 967 C 91.8762 -1.79138 2.87685 0
M  V30 968 C 91.0492 -1.42123 4.13666 0
M  V30 969 C 90.1082 -2.50394 4.62806 0
M  V30 970 O 89.1342 -2.14261 5.27334 0
M  V30 971 N 90.3362 -3.81433 4.37595 0
M  V30 972 H 93.1012 0.0151844 2.99696 0
M  V30 973 H 90.6622 0.153681 1.61169 0
M  V30 974 H 92.6542 -2.50975 3.1748 0
M  V30 975 H 91.2242 -2.28115 2.13734 0
M  V30 976 H 90.4442 -0.534201 3.90564 0
M  V30 977 H 91.7322 -1.14971 4.9564 0
M  V30 978 H 91.1302 -4.13584 3.8596 0
M  V30 979 H 89.6872 -4.4948 4.72029 0
M  V30 980 N 93.1203 -1.57491 0.0584922 0
M  V30 981 C 94.3973 -1.84346 -0.653918 0
M  V30 982 C 94.7773 -0.948355 -1.88599 0
M  V30 983 O 94.1253 -0.0112403 -2.28497 0
M  V30 984 C 94.3353 -3.34239 -1.00425 0
M  V30 985 C 95.6833 -4.01431 -1.38342 0
M  V30 986 O 96.7073 -3.38907 -1.09637 0
M  V30 987 O 95.5663 -5.11683 -1.91943 0
M  V30 988 H 92.6603 -0.761112 -0.323478 0
M  V30 989 H 95.2063 -1.6947 0.0884125 0
M  V30 990 H 93.9783 -3.91089 -0.128625 0
M  V30 991 H 93.6013 -3.54329 -1.80378 0
M  V30 992 N 94.5984 0.214957 -1.56127 0
M  V30 993 C 95.8444 0.939762 -1.79712 0
M  V30 994 C 96.1774 1.83723 -0.629247 0
M  V30 995 O 95.4524 1.90925 0.371197 0
M  V30 996 C 95.7354 1.77306 -3.13424 0
M  V30 997 C 95.5884 0.90164 -4.40671 0
M  V30 998 C 96.9074 2.74956 -3.43638 0
M  V30 999 H 94.0264 0.340214 -0.653776 0
M  V30 1000 H 96.6684 0.20824 -1.88855 0
M  V30 1001 H 94.8184 2.39673 -3.0576 0
M  V30 1002 H 96.4904 0.294206 -4.60361 0
M  V30 1003 H 94.7334 0.207368 -4.33304 0
M  V30 1004 H 95.4044 1.51923 -5.30682 0
M  V30 1005 H 97.8804 2.22724 -3.51473 0
M  V30 1006 H 96.7564 3.30358 -4.38355 0
M  V30 1007 H 97.0174 3.53023 -2.66134 0
M  V30 1008 N 96.0765 1.50051 0.48192 0
M  V30 1009 C 97.0395 1.67584 1.5636 0
M  V30 1010 C 98.0395 0.546894 1.51214 0
M  V30 1011 O 99.2295 0.813725 1.54026 0
M  V30 1012 C 96.3615 1.691 2.96003 0
M  V30 1013 H 97.5545 2.64078 1.42136 0
M  V30 1014 H 95.1075 1.39369 0.707533 0
M  V30 1015 H 95.8425 0.742589 3.15684 0
M  V30 1016 H 95.6275 2.51105 3.01146 0
M  V30 1017 H 97.1175 1.84656 3.74556 0
M  V30 1018 N 97.5546 -0.734337 1.39446 0
M  V30 1019 C 98.7796 -1.52866 1.40167 0
M  V30 1020 C 99.2046 -1.881 -0.00171513 0
M  V30 1021 O 98.5626 -1.51957 -0.988879 0
M  V30 1022 C 98.6106 -2.79235 2.28167 0
M  V30 1023 O 97.7146 -3.75185 1.71201 0
M  V30 1024 H 97.0556 -0.461618 0.477289 0
M  V30 1025 H 99.5856 -0.905949 1.8345 0
M  V30 1026 H 99.5956 -3.27963 2.42702 0
M  V30 1027 H 98.2706 -2.52923 3.30156 0
M  V30 1028 H 96.8476 -3.33958 1.65912 0
M  V30 1029 N 99.0327 -1.24633 -0.964593 0
M  V30 1030 C 99.9427 -1.05859 -2.09359 0
M  V30 1031 C 100.959 0.00148855 -1.74 0
M  V30 1032 O 102.135 -0.197346 -2.00431 0
M  V30 1033 C 99.1997 -0.668879 -3.40187 0
M  V30 1034 C 98.2607 -1.80578 -3.89474 0
M  V30 1035 C 97.4937 -1.43457 -5.14058 0
M  V30 1036 O 97.7167 -0.325775 -5.69469 0
M  V30 1037 O 96.6507 -2.2613 -5.57807 0
M  V30 1038 H 100.477 -2.00516 -2.28094 0
M  V30 1039 H 98.0617 -1.03481 -1.0776 0
M  V30 1040 H 99.9437 -0.463211 -4.18846 0
M  V30 1041 H 98.6187 0.248536 -3.22744 0
M  V30 1042 H 97.5257 -2.06623 -3.11862 0
M  V30 1043 H 98.8587 -2.70208 -4.11398 0
M  V30 1044 N 100.511 1.16574 -1.06058 0
M  V30 1045 C 101.751 1.88723 -0.78504 0
M  V30 1046 C 102.115 1.79706 0.676006 0
M  V30 1047 O 103.316 2.46757 1.06603 0
M  V30 1048 C 101.587 3.34338 -1.26304 0
M  V30 1049 S 103.146 4.24366 -1.1162 0
M  V30 1050 H 99.9638 0.651448 -0.284846 0
M  V30 1051 H 102.566 1.40732 -1.35701 0
M  V30 1052 H 101.27 3.38439 -2.32136 0
M  V30 1053 H 100.801 3.87378 -0.685719 0
M  V30 1054 H 102.816 4.96179 -0.0456539 0
M  V30 1055 N 101.989 0.842826 1.3317 0
M  V30 1056 C 102.899 0.281444 2.32906 0
M  V30 1057 C 103.915 -0.594587 1.63526 0
M  V30 1058 O 105.091 -0.49777 1.95152 0
M  V30 1059 C 102.156 -0.530929 3.42611 0
M  V30 1060 C 101.217 0.369843 4.27704 0
M  V30 1061 C 100.45 -0.403853 5.3217 0
M  V30 1062 O 100.673 -1.63513 5.46461 0
M  V30 1063 O 99.6069 0.224199 6.01482 0
M  V30 1064 H 103.433 1.10744 2.82789 0
M  V30 1065 H 101.018 0.60545 1.36582 0
M  V30 1066 H 102.9 -0.992437 4.09547 0
M  V30 1067 H 101.575 -1.33392 2.94938 0
M  V30 1068 H 100.482 0.879275 3.6362 0
M  V30 1069 H 101.815 1.13771 4.78871 0
M  V30 1070 N 103.467 -1.45747 0.599634 0
M  V30 1071 C 104.713 -2.02592 0.0918643 0
M  V30 1072 C 105.046 -1.46806 -1.27128 0
M  V30 1073 O 104.321 -0.639658 -1.83681 0
M  V30 1074 C 104.604 -3.60073 0.0443398 0
M  V30 1075 C 104.457 -4.26208 1.43759 0
M  V30 1076 C 105.776 -4.35309 -0.647608 0
M  V30 1077 H 102.895 -0.736175 0.034857 0
M  V30 1078 H 105.537 -1.73694 0.770081 0
M  V30 1079 H 103.687 -3.84823 -0.533224 0
M  V30 1080 H 105.359 -4.12668 2.06162 0
M  V30 1081 H 103.602 -3.84916 2.00056 0
M  V30 1082 H 104.273 -5.35069 1.35665 0
M  V30 1083 H 106.749 -4.15805 -0.156776 0
M  V30 1084 H 105.625 -5.45038 -0.649942 0
M  V30 1085 H 105.886 -4.07598 -1.71219 0
M  V30 1086 N 104.945 -0.338344 -1.53925 0
M  V30 1087 C 105.892 0.520845 -2.24846 0
M  V30 1088 C 106.862 1.09976 -1.24477 0
M  V30 1089 O 108.047 1.13735 -1.53196 0
M  V30 1090 C 105.187 1.6685 -3.02084 0
M  V30 1091 C 104.3 1.11739 -4.17299 0
M  V30 1092 C 103.435 2.23193 -4.82036 0
M  V30 1093 C 102.474 1.65407 -5.89328 0
M  V30 1094 N 101.611 2.70582 -6.47866 0
M  V30 1095 H 106.451 -0.0904881 -2.97863 0
M  V30 1096 H 103.988 -0.0564282 -1.46992 0
M  V30 1097 H 105.946 2.34407 -3.45122 0
M  V30 1098 H 104.576 2.2509 -2.31375 0
M  V30 1099 H 103.628 0.332919 -3.7894 0
M  V30 1100 H 104.94 0.654677 -4.94485 0
M  V30 1101 H 104.094 2.98626 -5.28117 0
M  V30 1102 H 102.833 2.72807 -4.04262 0
M  V30 1103 H 101.838 0.884779 -5.42634 0
M  V30 1104 H 103.063 1.16652 -6.69006 0
M  V30 1105 H 101.009 3.1946 -5.72959 0
M  V30 1106 H 100.926 2.28917 -7.20509 0
M  V30 1107 H 102.194 3.45799 -6.98601 0
M  V30 1108 N 106.423 1.57458 -0.0668435 0
M  V30 1109 C 107.663 1.95175 0.607116 0
M  V30 1110 C 108.027 0.946039 1.67075 0
M  V30 1111 O 109.228 1.2107 2.39991 0
M  V30 1112 C 107.499 3.37582 1.17358 0
M  V30 1113 S 109.058 3.97271 1.86336 0
M  V30 1114 H 105.876 0.682604 0.19893 0
M  V30 1115 H 108.478 1.95002 -0.139519 0
M  V30 1116 H 107.182 4.08566 0.387553 0
M  V30 1117 H 106.713 3.41288 1.95669 0
M  V30 1118 H 108.728 3.83772 3.14537 0
M  V30 1119 N 107.901 -0.206675 1.56239 0
M  V30 1120 C 108.834 -1.28383 1.88661 0
M  V30 1121 C 109.812 -1.44504 0.745481 0
M  V30 1122 O 110.996 -1.60079 0.995336 0
M  V30 1123 C 108.123 -2.65211 2.10667 0
M  V30 1124 C 107.169 -2.66025 3.33366 0
M  V30 1125 S 108.002 -2.18609 4.88846 0
M  V30 1126 C 109.158 -3.57283 5.13906 0
M  V30 1127 H 109.391 -1.00691 2.7973 0
M  V30 1128 H 106.924 -0.409627 1.48867 0
M  V30 1129 H 108.882 -3.43979 2.24029 0
M  V30 1130 H 107.543 -2.90121 1.20369 0
M  V30 1131 H 106.736 -3.66607 3.45855 0
M  V30 1132 H 106.338 -1.95331 3.18938 0
M  V30 1133 H 108.63 -4.53074 5.03717 0
M  V30 1134 H 109.573 -3.49699 6.15724 0
M  V30 1135 H 109.981 -3.51659 4.41583 0
M  V30 1136 N 109.379 -1.50304 -0.473955 0
M  V30 1137 C 110.79 -1.54042 -1.0549 0
M  V30 1138 C 111.141 -0.342248 -1.93192 0
M  V30 1139 O 110.266 0.545157 -2.09421 0
M  V30 1140 C 110.861 -2.79152 -1.91989 0
M  V30 1141 C 109.42 -2.8558 -2.45196 0
M  V30 1142 C 108.567 -2.48295 -1.2347 0
M  V30 1143 H 111.518 -1.5661 -0.256693 0
M  V30 1144 H 111.539 -2.60845 -2.7702 0
M  V30 1145 H 111.051 -3.66339 -1.28131 0
M  V30 1146 H 109.152 -2.02738 -3.12615 0
M  V30 1147 H 109.265 -3.88403 -2.80499 0
M  V30 1148 H 107.629 -2.00669 -1.56856 0
M  V30 1149 H 108.412 -3.37787 -0.612789 0
M  V30 1150 N 110.857 0.726932 -1.39834 0
M  V30 1151 C 112.085 1.51613 -1.40787 0
M  V30 1152 C 112.5 1.88799 -0.00451505 0
M  V30 1153 O 111.857 1.54662 0.968809 0
M  V30 1154 C 111.908 2.79863 -2.28821 0
M  V30 1155 O 111.629 2.44253 -3.63692 0
M  V30 1156 C 113.13 3.73837 -2.38245 0
M  V30 1157 H 110.35 0.468264 -0.480593 0
M  V30 1158 H 112.894 0.897607 -1.83748 0
M  V30 1159 H 111.049 3.38027 -1.89252 0
M  V30 1160 H 111.463 3.26695 -4.1033 0
M  V30 1161 H 112.937 4.60699 -3.04073 0
M  V30 1162 H 113.414 4.16153 -1.40403 0
M  V30 1163 H 114.02 3.21589 -2.78317 0
M  V30 1164 N 112.336 1.25143 0.95797 0
M  V30 1165 C 113.583 1.09692 1.70217 0
M  V30 1166 C 113.911 -0.362654 1.91089 0
M  V30 1167 O 113.166 -1.28386 1.47701 0
M  V30 1168 C 113.465 1.79272 3.09187 0
M  V30 1169 C 113.131 3.29196 3.08125 0
M  V30 1170 C 111.793 3.70096 3.07543 0
M  V30 1171 C 114.145 4.24995 3.0171 0
M  V30 1172 C 111.473 5.05213 2.9829 0
M  V30 1173 C 113.825 5.60132 2.93999 0
M  V30 1174 C 112.489 6.00365 2.9175 0
M  V30 1175 H 111.759 0.401393 0.622868 0
M  V30 1176 H 114.406 1.55372 1.11945 0
M  V30 1177 H 112.711 1.26014 3.70982 0
M  V30 1178 H 114.408 1.64773 3.65583 0
M  V30 1179 H 110.998 2.96651 3.09348 0
M  V30 1180 H 115.182 3.9439 3.01281 0
M  V30 1181 H 110.438 5.35569 2.94916 0
M  V30 1182 H 114.612 6.3406 2.87996 0
M  V30 1183 H 112.239 7.05023 2.84336 0
M  V30 1184 N 113.814 -1.1601 1.06675 0
M  V30 1185 C 114.746 -2.20115 0.638921 0
M  V30 1186 C 115.759 -1.59916 -0.305057 0
M  V30 1187 O 116.948 -1.78245 -0.0954446 0
M  V30 1188 C 114.048 -3.38798 -0.0830083 0
M  V30 1189 C 113.221 -4.2855 0.875426 0
M  V30 1190 C 112.28 -5.25849 0.192042 0
M  V30 1191 O 111.306 -5.63102 0.830921 0
M  V30 1192 N 112.508 -5.70648 -1.06493 0
M  V30 1193 H 115.273 -2.57439 1.53444 0
M  V30 1194 H 112.834 -1.31057 0.950557 0
M  V30 1195 H 114.826 -4.00936 -0.550685 0
M  V30 1196 H 113.396 -2.99947 -0.880386 0
M  V30 1197 H 112.616 -3.63617 1.52238 0
M  V30 1198 H 113.904 -4.85393 1.52548 0
M  V30 1199 H 113.302 -5.42482 -1.60405 0
M  V30 1200 H 111.859 -6.34859 -1.47641 0
M  V30 1201 N 115.292 -0.849877 -1.32721 0
M  V30 1202 C 116.539 -0.450923 -1.97416 0
M  V30 1203 C 116.867 0.992376 -1.67279 0
M  V30 1204 O 116.122 1.71048 -0.950845 0
M  V30 1205 C 116.421 -0.631272 -3.51781 0
M  V30 1206 C 116.087 -2.04432 -4.01894 0
M  V30 1207 C 114.749 -2.4308 -4.1529 0
M  V30 1208 C 117.101 -2.96679 -4.28522 0
M  V30 1209 C 114.429 -3.73257 -4.52654 0
M  V30 1210 C 116.781 -4.26349 -4.67343 0
M  V30 1211 C 115.445 -4.64939 -4.78945 0
M  V30 1212 H 114.715 -0.165004 -0.722395 0
M  V30 1213 H 117.362 -1.07901 -1.58207 0
M  V30 1214 H 115.667 0.0800767 -3.91718 0
M  V30 1215 H 117.364 -0.302709 -3.99856 0
M  V30 1216 H 113.954 -1.73419 -3.91949 0
M  V30 1217 H 118.138 -2.68054 -4.17685 0
M  V30 1218 H 113.394 -4.02946 -4.59831 0
M  V30 1219 H 117.568 -4.97895 -4.86902 0
M  V30 1220 H 115.195 -5.65855 -5.07654 0
M  V30 1221 N 116.77 1.45427 -0.607355 0
M  V30 1222 C 118.017 2.02241 -0.102455 0
M  V30 1223 C 118.345 1.4758 1.26691 0
M  V30 1224 O 117.6 0.640468 1.84923 0
M  V30 1225 C 117.899 3.57398 -0.0129263 0
M  V30 1226 C 117.565 4.3121 -1.31792 0
M  V30 1227 C 116.227 4.51092 -1.67539 0
M  V30 1228 C 118.579 4.73401 -2.18039 0
M  V30 1229 C 115.907 5.10422 -2.89285 0
M  V30 1230 C 118.259 5.34078 -3.39034 0
M  V30 1231 C 116.923 5.52184 -3.75033 0
M  V30 1232 H 116.193 0.740051 -0.037491 0
M  V30 1233 H 118.84 1.74494 -0.788926 0
M  V30 1234 H 117.145 3.84421 0.756806 0
M  V30 1235 H 118.842 3.99061 0.393881 0
M  V30 1236 H 115.432 4.16047 -1.02968 0
M  V30 1237 H 119.616 4.57774 -1.91721 0
M  V30 1238 H 114.872 5.22629 -3.17283 0
M  V30 1239 H 119.046 5.65724 -4.06115 0
M  V30 1240 H 116.673 5.97925 -4.69457 0
M  V30 1241 N 118.248 0.346503 1.53744 0
M  V30 1242 C 119.195 -0.508914 2.25119 0
M  V30 1243 C 120.165 -1.09315 1.25058 0
M  V30 1244 O 121.35 -1.12921 1.53797 0
M  V30 1245 C 118.49 -1.65246 3.02965 0
M  V30 1246 C 117.603 -1.09525 4.17886 0
M  V30 1247 C 116.738 -2.20634 4.83212 0
M  V30 1248 C 115.777 -1.62279 5.90196 0
M  V30 1249 N 114.914 -2.67143 6.49291 0
M  V30 1250 H 119.754 0.106283 2.9781 0
M  V30 1251 H 117.291 0.0642227 1.4696 0
M  V30 1252 H 119.249 -2.32574 3.4636 0
M  V30 1253 H 117.879 -2.2386 2.32565 0
M  V30 1254 H 116.931 -0.312818 3.79112 0
M  V30 1255 H 118.243 -0.628444 4.94825 0
M  V30 1256 H 117.397 -2.95821 5.29693 0
M  V30 1257 H 116.136 -2.70659 4.05703 0
M  V30 1258 H 115.141 -0.855989 5.43096 0
M  V30 1259 H 116.366 -1.13102 6.69615 0
M  V30 1260 H 114.312 -3.16417 5.74645 0
M  V30 1261 H 114.229 -2.25093 7.21713 0
M  V30 1262 H 115.497 -3.4209 7.00425 0
M  V30 1263 N 119.726 -1.57421 0.075193 0
M  V30 1264 C 120.673 -2.12915 -0.890843 0
M  V30 1265 C 121.643 -1.04252 -1.29309 0
M  V30 1266 O 122.828 -1.31933 -1.37834 0
M  V30 1267 C 119.968 -2.69795 -2.15186 0
M  V30 1268 C 119.081 -3.92624 -1.80194 0
M  V30 1269 C 118.216 -4.37736 -3.00933 0
M  V30 1270 C 117.255 -5.53205 -2.61974 0
M  V30 1271 N 116.392 -5.9326 -3.75483 0
M  V30 1272 H 121.232 -2.95156 -0.410735 0
M  V30 1273 H 118.769 -1.45854 -0.191086 0
M  V30 1274 H 120.727 -3.00883 -2.89008 0
M  V30 1275 H 119.357 -1.90313 -2.60731 0
M  V30 1276 H 118.409 -3.67977 -0.964218 0
M  V30 1277 H 119.721 -4.76482 -1.47534 0
M  V30 1278 H 118.875 -4.70503 -3.8303 0
M  V30 1279 H 117.614 -3.52739 -3.36789 0
M  V30 1280 H 116.619 -5.20086 -1.783 0
M  V30 1281 H 117.844 -6.39936 -2.27284 0
M  V30 1282 H 115.79 -5.11212 -4.11094 0
M  V30 1283 H 115.707 -6.71865 -3.46602 0
M  V30 1284 H 116.975 -6.30651 -4.58148 0
M  V30 1285 N 121.204 0.198386 -1.56346 0
M  V30 1286 C 122.452 0.91747 -1.80075 0
M  V30 1287 C 122.773 1.83929 -0.647692 0
M  V30 1288 O 122.043 1.93029 0.334166 0
M  V30 1289 H 120.623 0.341774 -0.664228 0
M  V30 1290 H 123.285 0.204684 -1.93822 0
M  V30 1291 H 122.381 1.51055 -2.7311 0
M  V30 1292 N 122.682 1.50554 0.465978 0
M  V30 1293 C 123.614 1.65949 1.58093 0
M  V30 1294 C 124.627 0.540827 1.53554 0
M  V30 1295 O 125.816 0.814187 1.5885 0
M  V30 1296 C 122.916 1.63261 2.96983 0
M  V30 1297 C 122.089 2.91245 3.26336 0
M  V30 1298 C 121.148 2.8113 4.44806 0
M  V30 1299 O 120.174 3.55086 4.44862 0
M  V30 1300 N 121.376 1.95032 5.46756 0
M  V30 1301 H 124.141 2.62122 1.45301 0
M  V30 1302 H 121.702 1.48082 0.65448 0
M  V30 1303 H 123.694 1.54101 3.74212 0
M  V30 1304 H 122.264 0.748032 3.03518 0
M  V30 1305 H 121.484 3.14493 2.37672 0
M  V30 1306 H 122.772 3.76022 3.42761 0
M  V30 1307 H 122.17 1.3427 5.49534 0
M  V30 1308 H 120.727 1.91772 6.2295 0
M  V30 1309 N 124.16 -0.719506 1.40217 0
M  V30 1310 C 125.107 -1.83359 1.40172 0
M  V30 1311 C 126.077 -1.64065 0.259206 0
M  V30 1312 O 127.262 -1.85254 0.456677 0
M  V30 1313 C 124.402 -3.2103 1.26624 0
M  V30 1314 C 123.515 -3.51923 2.50548 0
M  V30 1315 C 122.65 -4.79079 2.29471 0
M  V30 1316 C 121.689 -5.02863 3.48992 0
M  V30 1317 N 120.826 -6.2123 3.27135 0
M  V30 1318 H 125.666 -1.82733 2.35399 0
M  V30 1319 H 123.203 -0.892688 1.16917 0
M  V30 1320 H 125.161 -4.00524 1.16776 0
M  V30 1321 H 123.791 -3.20895 0.350176 0
M  V30 1322 H 122.843 -2.67014 2.70939 0
M  V30 1323 H 124.155 -3.6541 3.39525 0
M  V30 1324 H 123.309 -5.66582 2.16955 0
M  V30 1325 H 122.048 -4.67794 1.37913 0
M  V30 1326 H 121.053 -4.13816 3.6199 0
M  V30 1327 H 122.278 -5.16023 4.41472 0
M  V30 1328 H 120.224 -6.11204 2.38256 0
M  V30 1329 H 120.141 -6.35375 4.09675 0
M  V30 1330 H 121.409 -7.11532 3.18344 0
M  V30 1331 N 125.638 -1.25649 -0.95132 0
M  V30 1332 C 126.884 -1.10757 -1.69884 0
M  V30 1333 C 127.217 0.350061 -1.91019 0
M  V30 1334 O 126.492 1.25783 -1.48354 0
M  V30 1335 C 126.775 -1.86606 -3.07978 0
M  V30 1336 C 126.628 -3.40217 -2.94232 0
M  V30 1337 C 127.947 -1.65182 -4.07925 0
M  V30 1338 H 125.066 -0.40374 -0.616574 0
M  V30 1339 H 127.708 -1.54521 -1.10558 0
M  V30 1340 H 125.858 -1.49409 -3.58621 0
M  V30 1341 H 127.53 -3.87108 -2.50889 0
M  V30 1342 H 125.773 -3.67759 -2.30078 0
M  V30 1343 H 126.444 -3.88505 -3.92133 0
M  V30 1344 H 128.92 -1.9757 -3.66204 0
M  V30 1345 H 127.796 -2.20683 -5.02583 0
M  V30 1346 H 128.057 -0.593933 -4.38092 0
M  V30 1347 N 127.117 1.15442 -1.07289 0
M  V30 1348 C 128.365 1.85845 -0.794096 0
M  V30 1349 C 128.686 1.82692 0.681809 0
M  V30 1350 O 127.956 1.26741 1.49377 0
M  V30 1351 H 126.536 0.688089 -0.290763 0
M  V30 1352 H 129.198 1.39947 -1.3565 0
M  V30 1353 H 128.294 2.91001 -1.12804 0
M  V30 1354 N 128.595 0.856903 1.32268 0
M  V30 1355 C 129.505 0.306131 2.32594 0
M  V30 1356 C 130.521 -0.577209 1.64147 0
M  V30 1357 O 131.697 -0.477043 1.95669 0
M  V30 1358 C 128.762 -0.494561 3.43154 0
M  V30 1359 C 127.823 0.415186 4.27288 0
M  V30 1360 C 127.056 -0.347387 5.32568 0
M  V30 1361 O 127.279 -1.57708 5.48165 0
M  V30 1362 O 126.213 0.287982 6.01211 0
M  V30 1363 H 130.039 1.13737 2.81598 0
M  V30 1364 H 127.624 0.619902 1.35932 0
M  V30 1365 H 129.506 -0.948944 4.10576 0
M  V30 1366 H 128.181 -1.30257 2.96336 0
M  V30 1367 H 127.088 0.917793 3.62667 0
M  V30 1368 H 128.421 1.18844 4.77637 0
M  V30 1369 N 130.073 -1.45103 0.615059 0
M  V30 1370 C 131.32 -2.02183 0.113179 0
M  V30 1371 C 131.648 -1.48249 -1.25906 0
M  V30 1372 O 130.903 -0.650265 -1.84581 0
M  V30 1373 C 131.202 -3.57386 0.0318797 0
M  V30 1374 C 130.868 -4.30505 1.34077 0
M  V30 1375 C 129.53 -4.50197 1.69929 0
M  V30 1376 C 131.882 -4.72238 2.20546 0
M  V30 1377 C 129.21 -5.08881 2.91988 0
M  V30 1378 C 131.562 -5.32272 3.41861 0
M  V30 1379 C 130.226 -5.50187 3.77956 0
M  V30 1380 H 129.496 -0.739842 0.0414151 0
M  V30 1381 H 132.143 -1.74073 0.798168 0
M  V30 1382 H 130.448 -3.84817 -0.736409 0
M  V30 1383 H 132.145 -3.99264 -0.372712 0
M  V30 1384 H 128.735 -4.15496 1.05173 0
M  V30 1385 H 132.919 -4.56751 1.94146 0
M  V30 1386 H 128.175 -5.20939 3.2005 0
M  V30 1387 H 132.349 -5.63563 4.09109 0
M  V30 1388 H 129.976 -5.95427 4.72622 0
M  V30 1389 N 131.551 -0.354651 -1.53558 0
M  V30 1390 C 132.776 0.242153 -2.05981 0
M  V30 1391 C 133.201 1.42553 -1.2272 0
M  V30 1392 O 132.559 1.79656 -0.243604 0
M  V30 1393 C 132.607 0.624367 -3.55154 0
M  V30 1394 O 131.711 1.72301 -3.74681 0
M  V30 1395 H 131.052 0.0378432 -0.662921 0
M  V30 1396 H 133.582 -0.512087 -1.98088 0
M  V30 1397 H 133.592 0.898433 -3.97985 0
M  V30 1398 H 132.267 -0.240989 -4.15201 0
M  V30 1399 H 130.844 1.44535 -3.4375 0
M  V30 1400 N 133.029 1.57378 -0.0835403 0
M  V30 1401 C 134.277 1.93547 0.581718 0
M  V30 1402 C 134.598 0.96524 1.69435 0
M  V30 1403 O 133.868 0.0153369 1.95894 0
M  V30 1404 H 132.448 0.714521 0.217874 0
M  V30 1405 H 135.11 1.94366 -0.144158 0
M  V30 1406 H 134.206 2.95665 0.999423 0
M  V30 1407 N 134.507 -0.190092 1.56449 0
M  V30 1408 C 135.47 -1.21925 1.9408 0
M  V30 1409 C 136.47 -1.38176 0.822431 0
M  V30 1410 O 137.66 -1.35903 1.08977 0
M  V30 1411 C 134.792 -2.58773 2.21922 0
M  V30 1412 H 135.985 -0.897464 2.86157 0
M  V30 1413 H 133.538 -0.43181 1.50217 0
M  V30 1414 H 134.273 -2.95998 1.32499 0
M  V30 1415 H 134.058 -2.48348 3.03424 0
M  V30 1416 H 135.548 -3.32978 2.52022 0
M  V30 1417 N 135.985 -1.50799 -0.457987 0
M  V30 1418 C 136.933 -1.71162 -1.575 0
M  V30 1419 C 137.927 -0.577592 -1.59249 0
M  V30 1420 O 139.133 -0.758443 -1.63241 0
M  V30 1421 H 135.508 -0.540468 -0.522875 0
M  V30 1422 H 137.479 -2.64837 -1.37492 0
M  V30 1423 C 136.228 -1.83496 -2.95338 0
M  V30 1424 H 135.551 -2.70153 -2.94716 0
M  V30 1425 H 136.991 -2.01765 -3.72917 0
M  V30 1426 C 135.45 -0.589694 -3.31699 0
M  V30 1427 O 135.98 0.265163 -4.00824 0
M  V30 1428 N 134.186 -0.439845 -2.87252 0
M  V30 1429 H 133.733 -1.13655 -2.31172 0
M  V30 1430 H 133.691 0.392159 -3.11945 0
M  V30 1431 N 137.463 0.71206 -1.40597 0
M  V30 1432 C 138.41 1.82613 -1.41142 0
M  V30 1433 C 139.38 1.63925 -0.267903 0
M  V30 1434 O 140.565 1.85009 -0.466495 0
M  V30 1435 C 137.705 3.20354 -1.28324 0
M  V30 1436 C 136.818 3.50589 -2.52411 0
M  V30 1437 C 135.953 4.77855 -2.32009 0
M  V30 1438 C 134.992 5.01005 -3.51654 0
M  V30 1439 N 134.129 6.19487 -3.30425 0
M  V30 1440 H 138.969 1.81482 -2.36365 0
M  V30 1441 H 136.506 0.886475 -1.17388 0
M  V30 1442 H 138.464 3.99899 -1.18899 0
M  V30 1443 H 137.094 3.20705 -0.367189 0
M  V30 1444 H 136.146 2.65573 -2.72351 0
M  V30 1445 H 137.458 3.63604 -3.41458 0
M  V30 1446 H 136.612 5.65424 -2.19956 0
M  V30 1447 H 135.351 4.67056 -1.40392 0
M  V30 1448 H 134.356 4.1189 -3.64179 0
M  V30 1449 H 135.581 5.13674 -4.44202 0
M  V30 1450 H 133.527 6.09932 -2.41494 0
M  V30 1451 H 133.444 6.33194 -4.13039 0
M  V30 1452 H 134.712 7.09834 -3.22113 0
M  V30 1453 N 138.941 1.26152 0.944643 0
M  V30 1454 C 139.851 1.09176 2.07648 0
M  V30 1455 C 140.867 0.0261935 1.7398 0
M  V30 1456 O 142.043 0.229208 2.00091 0
M  V30 1457 C 139.108 0.722915 3.39079 0
M  V30 1458 C 138.169 1.86752 3.86552 0
M  V30 1459 C 137.402 1.51617 5.11711 0
M  V30 1460 O 137.625 0.416331 5.68879 0
M  V30 1461 O 136.559 2.34975 5.54139 0
M  V30 1462 H 140.385 2.0412 2.24875 0
M  V30 1463 H 137.97 1.05182 1.061 0
M  V30 1464 H 139.852 0.529787 4.18056 0
M  V30 1465 H 138.527 -0.197159 3.23099 0
M  V30 1466 H 137.434 2.11558 3.08535 0
M  V30 1467 H 138.767 2.76719 4.07047 0
M  V30 1468 N 140.419 -1.14872 1.07899 0
M  V30 1469 C 141.366 -2.19791 0.704319 0
M  V30 1470 C 142.336 -1.63238 -0.306987 0
M  V30 1471 O 143.521 -1.8983 -0.192171 0
M  V30 1472 C 140.661 -3.44911 0.114244 0
M  V30 1473 C 139.774 -4.15637 1.1777 0
M  V30 1474 C 138.909 -5.28324 0.552037 0
M  V30 1475 C 137.948 -5.90875 1.59789 0
M  V30 1476 N 137.085 -6.95022 0.994404 0
M  V30 1477 H 141.925 -2.5119 1.60336 0
M  V30 1478 H 139.462 -1.23356 0.801352 0
M  V30 1479 H 141.42 -4.16477 -0.245544 0
M  V30 1480 H 140.05 -3.14011 -0.74813 0
M  V30 1481 H 139.102 -3.42512 1.65499 0
M  V30 1482 H 140.414 -4.5823 1.97046 0
M  V30 1483 H 139.568 -6.06538 0.1402 0
M  V30 1484 H 138.307 -4.86939 -0.272431 0
M  V30 1485 H 137.312 -5.11369 2.01945 0
M  V30 1486 H 138.537 -6.34337 2.42474 0
M  V30 1487 H 136.483 -6.55722 0.190939 0
M  V30 1488 H 136.4 -7.36073 1.72432 0
M  V30 1489 H 137.668 -7.77123 0.608253 0
M  V30 1490 N 141.898 -0.863906 -1.31812 0
M  V30 1491 C 142.828 -0.330843 -2.31144 0
M  V30 1492 C 143.809 0.575005 -1.60087 0
M  V30 1493 O 144.994 0.493304 -1.8783 0
M  V30 1494 C 142.124 0.47374 -3.44054 0
M  V30 1495 C 141.078 -0.338481 -4.26659 0
M  V30 1496 C 140.404 0.591412 -5.31419 0
M  V30 1497 C 141.704 -1.56926 -4.98168 0
M  V30 1498 H 143.398 -1.16086 -2.75979 0
M  V30 1499 H 140.944 -0.559657 -1.32679 0
M  V30 1500 H 142.897 0.857143 -4.12591 0
M  V30 1501 H 141.621 1.33721 -2.9797 0
M  V30 1502 H 140.28 -0.703754 -3.59782 0
M  V30 1503 H 139.928 1.45199 -4.81587 0
M  V30 1504 H 139.628 0.0519022 -5.87577 0
M  V30 1505 H 141.152 0.97179 -6.02817 0
M  V30 1506 H 142.566 -1.25764 -5.59336 0
M  V30 1507 H 140.963 -2.04739 -5.64094 0
M  V30 1508 H 142.033 -2.32544 -4.25501 0
M  V30 1509 N 143.376 1.44774 -0.622745 0
M  V30 1510 C 144.286 2.34433 0.0886031 0
M  V30 1511 C 145.302 1.52131 0.844529 0
M  V30 1512 O 146.478 1.84886 0.798691 0
M  V30 1513 C 143.543 3.29986 1.0635 0
M  V30 1514 C 142.604 4.28195 0.307873 0
M  V30 1515 C 141.837 5.19183 1.23633 0
M  V30 1516 O 142.06 5.13918 2.47476 0
M  V30 1517 O 140.994 5.97515 0.725189 0
M  V30 1518 H 144.82 2.96693 -0.648599 0
M  V30 1519 H 142.405 1.44408 -0.382957 0
M  V30 1520 H 144.287 3.88825 1.6246 0
M  V30 1521 H 142.962 2.70269 1.78146 0
M  V30 1522 H 141.869 3.72927 -0.296064 0
M  V30 1523 H 143.202 4.90808 -0.3699 0
M  V30 1524 N 144.854 0.36279 1.53368 0
M  V30 1525 C 145.817 -0.472679 2.24273 0
M  V30 1526 C 146.817 -1.012 1.24961 0
M  V30 1527 O 148.007 -0.898194 1.49259 0
M  V30 1528 C 145.139 -1.66039 2.97731 0
M  V30 1529 H 146.332 0.14773 2.99536 0
M  V30 1530 H 143.885 0.114434 1.55881 0
M  V30 1531 H 144.62 -2.31896 2.26704 0
M  V30 1532 H 144.405 -1.28066 3.70596 0
M  V30 1533 H 145.895 -2.25252 3.51641 0
M  V30 1534 N 146.332 -1.57332 0.0918853 0
M  V30 1535 C 147.56 -1.98574 -0.581048 0
M  V30 1536 C 147.975 -0.970903 -1.61923 0
M  V30 1537 O 147.332 0.0399054 -1.82456 0
M  V30 1538 C 147.383 -3.39872 -1.23164 0
M  V30 1539 O 147.104 -4.37469 -0.234989 0
M  V30 1540 C 148.605 -3.96099 -1.99049 0
M  V30 1541 H 145.825 -0.65261 -0.156018 0
M  V30 1542 H 148.369 -2.0379 0.170225 0
M  V30 1543 H 146.524 -3.35679 -1.93386 0
M  V30 1544 H 146.938 -5.19751 -0.70418 0
M  V30 1545 H 148.412 -4.97127 -2.39934 0
M  V30 1546 H 148.889 -3.3374 -2.85507 0
M  V30 1547 H 149.495 -4.03755 -1.3365 0
M  V30 1548 N 147.81 0.181792 -1.56548 0
M  V30 1549 C 149.059 0.898348 -1.8059 0
M  V30 1550 C 149.372 1.83862 -0.667379 0
M  V30 1551 O 150.578 2.59678 -0.792446 0
M  V30 1552 C 149.034 1.64791 -3.19956 0
M  V30 1553 C 148.642 0.751789 -4.41647 0
M  V30 1554 C 150.386 2.35331 -3.53298 0
M  V30 1555 C 148.293 1.50098 -5.72035 0
M  V30 1556 H 147.223 0.339194 -0.673397 0
M  V30 1557 H 149.874 0.151413 -1.82874 0
M  V30 1558 H 148.256 2.43921 -3.11959 0
M  V30 1559 H 149.43 -0.0018076 -4.608 0
M  V30 1560 H 147.745 0.156562 -4.16106 0
M  V30 1561 H 150.342 2.91958 -4.47956 0
M  V30 1562 H 150.685 3.10164 -2.77676 0
M  V30 1563 H 151.218 1.63154 -3.62803 0
M  V30 1564 H 147.957 0.795175 -6.50659 0
M  V30 1565 H 147.477 2.22817 -5.56878 0
M  V30 1566 H 149.156 2.05125 -6.13622 0
M  V30 1567 N 149.288 1.51039 0.449983 0
M  V30 1568 C 150.236 1.71995 1.5659 0
M  V30 1569 C 151.23 0.586029 1.5894 0
M  V30 1570 O 152.436 0.76709 1.62837 0
M  V30 1571 H 148.811 0.543233 0.520001 0
M  V30 1572 H 150.782 2.65562 1.36085 0
M  V30 1573 C 149.531 1.8506 2.9436 0
M  V30 1574 H 148.854 2.71712 2.93279 0
M  V30 1575 H 150.294 2.0374 3.71842 0
M  V30 1576 C 148.753 0.607277 3.31382 0
M  V30 1577 O 149.283 -0.243903 4.00959 0
M  V30 1578 N 147.489 0.455073 2.87015 0
M  V30 1579 H 147.036 1.14879 2.30566 0
M  V30 1580 H 146.994 -0.375611 3.12148 0
M  V30 1581 N 150.766 -0.704594 1.40972 0
M  V30 1582 C 151.676 -1.84856 1.44448 0
M  V30 1583 C 152.692 -1.70726 0.335961 0
M  V30 1584 O 153.868 -1.92799 0.582276 0
M  V30 1585 C 150.933 -3.20758 1.31587 0
M  V30 1586 C 149.994 -3.47063 2.52677 0
M  V30 1587 C 149.227 -4.76481 2.4042 0
M  V30 1588 O 149.45 -5.52341 1.42391 0
M  V30 1589 O 148.384 -5.03367 3.30007 0
M  V30 1590 H 152.21 -1.8488 2.40942 0
M  V30 1591 H 149.795 -0.85647 1.22413 0
M  V30 1592 H 151.677 -4.01913 1.26665 0
M  V30 1593 H 150.352 -3.21438 0.382049 0
M  V30 1594 H 149.259 -2.65873 2.63177 0
M  V30 1595 H 150.592 -3.5119 3.44858 0
M  V30 1596 N 152.244 -1.26651 -0.937939 0
M  V30 1597 C 153.174 -1.10993 -2.05433 0
M  V30 1598 C 154.155 -0.0142161 -1.70094 0
M  V30 1599 O 155.34 -0.186837 -1.93299 0
M  V30 1600 C 152.47 -0.745561 -3.39203 0
M  V30 1601 C 151.424 -1.79337 -3.88616 0
M  V30 1602 C 150.75 -1.28324 -5.19073 0
M  V30 1603 C 152.05 -3.19553 -4.13138 0
M  V30 1604 H 153.744 -2.0438 -2.1879 0
M  V30 1605 H 151.29 -0.984041 -1.05131 0
M  V30 1606 H 153.243 -0.622888 -4.16771 0
M  V30 1607 H 151.967 0.22401 -3.25831 0
M  V30 1608 H 150.626 -1.90477 -3.13231 0
M  V30 1609 H 150.274 -0.303414 -5.02084 0
M  V30 1610 H 149.974 -1.98369 -5.53103 0
M  V30 1611 H 151.498 -1.1733 -5.99221 0
M  V30 1612 H 152.912 -3.11471 -4.81309 0
M  V30 1613 H 151.309 -3.87218 -4.58457 0
M  V30 1614 H 152.379 -3.65368 -3.18801 0
M  V30 1615 N 153.722 1.14298 -1.08507 0
M  V30 1616 C 154.968 1.85633 -0.816581 0
M  V30 1617 C 155.301 1.82784 0.656021 0
M  V30 1618 O 154.576 1.25926 1.48233 0
M  V30 1619 C 154.859 3.34223 -1.34041 0
M  V30 1620 C 154.712 3.45639 -2.87843 0
M  V30 1621 C 156.031 4.29356 -0.9665 0
M  V30 1622 H 153.15 0.67402 -0.298104 0
M  V30 1623 H 155.792 1.34214 -1.34487 0
M  V30 1624 H 153.942 3.78144 -0.89104 0
M  V30 1625 H 155.614 3.10498 -3.41158 0
M  V30 1626 H 153.857 2.86817 -3.25451 0
M  V30 1627 H 154.528 4.50089 -3.19569 0
M  V30 1628 H 157.004 3.93457 -1.35391 0
M  V30 1629 H 155.88 5.3178 -1.3602 0
M  V30 1630 H 156.141 4.41919 0.126362 0
M  V30 1631 O 155.239 1.00442 1.26466 0
M  V30 1632 H 155.93 0.659114 1.82141 0
M  V30 END ATOM
M  V30 BEGIN BOND
M  V30 END BOND
M  V30 END CTAB
M  END
$$$$
