drugbank_target|P11309 Serine/threonine-protein kinase pim-1 (DB01754; DB02010; DB02656; DB03366; DB03650; DB03777; DB04216; DB04395; DB04522; DB04530; DB04715; DB07151; DB07242; DB07524; DB08022; DB08166; DB08230; DB08705; DB08707; DB08708; DB08709; DB12010)
 OpenBabel12092119513D

  0  0  0     0  0            999 V3000
M  V30 BEGIN CTAB
M  V30 COUNTS 6329 6419 0 0 0
M  V30 BEGIN ATOM
M  V30 1 H -0.908 1.98254 -0.117106 0
M  V30 2 N 0 1.576 0 0
M  V30 3 C 0.933 2.03868 1.02534 0
M  V30 4 C 1.911 0.928543 1.3348 0
M  V30 5 O 3.095 1.19667 1.45644 0
M  V30 6 C 0.222 2.43627 2.35294 0
M  V30 7 C -0.732 3.65373 2.2001 0
M  V30 8 S 0.101 5.13292 1.52614 0
M  V30 9 C 1.257 5.56322 2.86805 0
M  V30 10 H 1.49 2.90518 0.631377 0
M  V30 11 H -0.977 1.52953 0.210867 0
M  V30 12 H 0.981 2.67203 3.11629 0
M  V30 13 H -0.358 1.57376 2.7183 0
M  V30 14 H -1.165 3.90944 3.18086 0
M  V30 15 H -1.563 3.418 1.51819 0
M  V30 16 H 0.729 5.58782 3.83104 0
M  V30 17 H 1.672 6.56266 2.65933 0
M  V30 18 H 2.08 4.83886 2.90714 0
M  V30 19 N 1.4781 -0.272755 1.55222 0
M  V30 20 C 2.8891 -0.84378 1.66545 0
M  V30 21 C 3.2401 -1.87035 0.592641 0
M  V30 22 O 2.3651 -2.14761 -0.265818 0
M  V30 23 C 2.9601 -1.53723 3.01918 0
M  V30 24 C 1.5191 -2.05628 3.15268 0
M  V30 25 C 0.6661 -0.898424 2.62343 0
M  V30 26 H 3.6171 -0.0490998 1.58624 0
M  V30 27 H 3.6381 -2.40421 2.94921 0
M  V30 28 H 3.1501 -0.78983 3.79978 0
M  V30 29 H 1.2511 -2.83329 2.41983 0
M  V30 30 H 1.3641 -2.27142 4.21833 0
M  V30 31 H -0.2719 -1.29186 2.19506 0
M  V30 32 H 0.5111 -0.164528 3.42906 0
M  V30 33 N 2.9562 -1.48159 -0.537278 0
M  V30 34 C 3.9062 -1.5854 -1.63857 0
M  V30 35 C 4.8902 -0.442969 -1.54682 0
M  V30 36 O 6.0822 -0.69401 -1.62827 0
M  V30 37 C 3.2112 -1.62144 -3.02596 0
M  V30 38 C 2.2972 -2.81841 -3.16901 0
M  V30 39 N 2.6882 -4.06337 -3.01204 0
M  V30 40 C 0.9862 -2.79021 -3.47942 0
M  V30 41 C 1.6872 -4.86606 -3.18731 0
M  V30 42 N 0.6632 -4.19288 -3.45974 0
M  V30 43 H 4.4652 -2.5255 -1.50319 0
M  V30 44 H 1.9792 -1.4443 -0.742555 0
M  V30 45 H 3.9762 -1.67674 -3.81695 0
M  V30 46 H 2.6362 -0.69245 -3.17231 0
M  V30 47 H 3.6472 -4.36888 -2.78117 0
M  V30 48 H 0.3242 -1.95347 -3.6898 0
M  V30 49 H 1.7142 -5.95385 -3.11394 0
M  V30 50 N 4.4343 0.785586 -1.36625 0
M  V30 51 C 5.3443 1.92964 -1.33425 0
M  V30 52 C 6.3603 1.72394 -0.235851 0
M  V30 53 O 7.5363 1.95866 -0.468878 0
M  V30 54 C 4.6013 3.27884 -1.12662 0
M  V30 55 C 3.6623 3.61204 -2.32013 0
M  V30 56 C 2.8953 4.89687 -2.12231 0
M  V30 57 O 3.1183 5.59704 -1.09945 0
M  V30 58 O 2.0523 5.21752 -3.00098 0
M  V30 59 H 5.8783 1.98613 -2.29753 0
M  V30 60 H 3.4633 0.926384 -1.17211 0
M  V30 61 H 5.3453 4.08614 -1.03016 0
M  V30 62 H 4.0203 3.23118 -0.193991 0
M  V30 63 H 2.9273 2.80765 -2.47228 0
M  V30 64 H 4.2603 3.70698 -3.23796 0
M  V30 65 N 5.9124 1.20967 1.01018 0
M  V30 66 C 7.3234 1.02319 1.56165 0
M  V30 67 C 7.6744 -0.418546 1.91684 0
M  V30 68 O 6.7994 -1.30096 1.72928 0
M  V30 69 C 7.3944 1.85109 2.8376 0
M  V30 70 C 5.9534 1.70809 3.35412 0
M  V30 71 C 5.1004 1.82643 2.08655 0
M  V30 72 H 8.0514 1.35065 0.833255 0
M  V30 73 H 8.0724 1.35827 3.55431 0
M  V30 74 H 7.5844 2.90035 2.57878 0
M  V30 75 H 5.6854 0.685464 3.66241 0
M  V30 76 H 5.7984 2.52467 4.07182 0
M  V30 77 H 4.1624 1.25896 2.21409 0
M  V30 78 H 4.9454 2.89066 1.85191 0
M  V30 79 N 7.3905 -1.2043 1.01659 0
M  V30 80 C 8.3405 -2.21076 0.557623 0
M  V30 81 C 9.3245 -1.56176 -0.387029 0
M  V30 82 O 10.5165 -1.7575 -0.209996 0
M  V30 83 C 7.6455 -3.43146 -0.102707 0
M  V30 84 C 6.7315 -4.15213 0.863652 0
M  V30 85 N 7.1225 -4.63662 2.02117 0
M  V30 86 C 5.4205 -4.40716 0.684472 0
M  V30 87 C 6.1215 -5.18868 2.62966 0
M  V30 88 N 5.0975 -5.0893 1.91027 0
M  V30 89 H 8.8995 -2.56201 1.44008 0
M  V30 90 H 6.4135 -1.36366 0.881931 0
M  V30 91 H 8.4105 -4.14475 -0.449054 0
M  V30 92 H 7.0705 -3.09526 -0.981003 0
M  V30 93 H 8.0815 -4.58877 2.40109 0
M  V30 94 H 4.7585 -4.17245 -0.14577 0
M  V30 95 H 6.1485 -5.6673 3.60924 0
M  V30 96 N 8.8686 -0.792821 -1.36206 0
M  V30 97 C 9.7786 -0.194808 -2.3379 0
M  V30 98 C 10.7946 0.654869 -1.61206 0
M  V30 99 O 11.9706 0.569856 -1.9317 0
M  V30 100 C 9.0356 0.657721 -3.40404 0
M  V30 101 C 8.0966 -0.210849 -4.28782 0
M  V30 102 C 7.3296 0.601086 -5.30304 0
M  V30 103 O 7.5526 1.83682 -5.40016 0
M  V30 104 O 6.4866 -0.000808277 -6.019 0
M  V30 105 H 10.3126 -1.00172 -2.86704 0
M  V30 106 H 7.8976 -0.554341 -1.38735 0
M  V30 107 H 9.7796 1.14375 -4.05581 0
M  V30 108 H 8.4546 1.44247 -2.89784 0
M  V30 109 H 7.3616 -0.743714 -3.66633 0
M  V30 110 H 8.6946 -0.959195 -4.82763 0
M  V30 111 N 10.3467 1.47872 -0.545128 0
M  V30 112 C 11.7577 1.86384 -0.108581 0
M  V30 113 C 12.1087 1.45309 1.31832 0
M  V30 114 O 11.2337 0.850641 1.9898 0
M  V30 115 C 11.8287 3.38265 -0.190274 0
M  V30 116 C 10.3877 3.75914 0.191164 0
M  V30 117 C 9.5347 2.71926 -0.543273 0
M  V30 118 H 12.4857 1.39561 -0.755537 0
M  V30 119 H 12.5067 3.75831 0.594217 0
M  V30 120 H 12.0187 3.6813 -1.2289 0
M  V30 121 H 10.1197 3.51665 1.23136 0
M  V30 122 H 10.2327 4.78836 -0.158987 0
M  V30 123 H 8.5967 2.54697 0.0122495 0
M  V30 124 H 9.3797 3.04634 -1.58282 0
M  V30 125 N 11.8248 0.280983 1.55075 0
M  V30 126 C 12.7548 -0.597469 2.25727 0
M  V30 127 C 13.7358 -1.15417 1.24952 0
M  V30 128 O 14.9208 -1.18722 1.53684 0
M  V30 129 C 12.0508 -1.7789 2.98283 0
M  V30 130 C 11.0048 -1.35347 4.06036 0
M  V30 131 C 10.3308 -2.61846 4.66198 0
M  V30 132 C 11.6308 -0.499354 5.19907 0
M  V30 133 H 13.3248 -0.00824265 2.99399 0
M  V30 134 H 10.8708 -0.0025244 1.44 0
M  V30 135 H 12.8238 -2.39937 3.46422 0
M  V30 136 H 11.5478 -2.39405 2.22155 0
M  V30 137 H 10.2068 -0.756156 3.58717 0
M  V30 138 H 9.8548 -3.21632 3.86732 0
M  V30 139 H 9.5548 -2.3409 5.38958 0
M  V30 140 H 11.0788 -3.24732 5.1709 0
M  V30 141 H 12.4928 -1.02498 5.64063 0
M  V30 142 H 10.8898 -0.316424 5.99265 0
M  V30 143 H 11.9598 0.480459 4.82514 0
M  V30 144 N 13.3029 -1.57598 0.00835791 0
M  V30 145 C 14.5309 -1.95214 -0.68549 0
M  V30 146 C 14.9459 -0.883706 -1.66841 0
M  V30 147 O 14.3029 0.136565 -1.81988 0
M  V30 148 C 14.3539 -3.32865 -1.41007 0
M  V30 149 O 14.0749 -4.35609 -0.466552 0
M  V30 150 C 15.5759 -3.84991 -2.19765 0
M  V30 151 H 12.7959 -0.643422 -0.190392 0
M  V30 152 H 15.3399 -2.04406 0.0619607 0
M  V30 153 H 13.4949 -3.24956 -2.10908 0
M  V30 154 H 13.9089 -5.15288 -0.978699 0
M  V30 155 H 15.3829 -4.8371 -2.65948 0
M  V30 156 H 15.8599 -3.18137 -3.02796 0
M  V30 157 H 16.4659 -3.96103 -1.54864 0
M  V30 158 N 14.781 0.264519 -1.55364 0
M  V30 159 C 16.192 0.834936 -1.6699 0
M  V30 160 C 16.543 1.86718 -0.602552 0
M  V30 161 O 15.668 2.14899 0.254425 0
M  V30 162 C 16.263 1.5212 -3.02729 0
M  V30 163 C 14.822 2.03954 -3.16354 0
M  V30 164 C 13.969 0.884498 -2.62815 0
M  V30 165 H 16.92 0.0406869 -1.58648 0
M  V30 166 H 16.941 2.38853 -2.96191 0
M  V30 167 H 16.453 0.769668 -3.80392 0
M  V30 168 H 14.554 2.82041 -2.43482 0
M  V30 169 H 14.667 2.24902 -4.23032 0
M  V30 170 H 13.031 1.2802 -2.20188 0
M  V30 171 H 13.814 0.14634 -3.42988 0
M  V30 172 N 16.2591 1.48442 0.529413 0
M  V30 173 C 17.6701 1.5002 1.11134 0
M  V30 174 C 18.0211 0.27031 1.94329 0
M  V30 175 O 17.1461 -0.622507 2.07253 0
M  V30 176 C 17.7411 2.71834 2.02217 0
M  V30 177 C 16.3001 2.76283 2.55627 0
M  V30 178 C 15.4471 2.43542 1.326 0
M  V30 179 H 18.3981 1.5555 0.314641 0
M  V30 180 H 18.4191 2.50384 2.8651 0
M  V30 181 H 17.9311 3.61331 1.41639 0
M  V30 182 H 16.0321 1.90995 3.19924 0
M  V30 183 H 16.1451 3.77725 2.94721 0
M  V30 184 H 14.5091 1.94709 1.64196 0
M  V30 185 H 15.2921 3.3528 0.737734 0
M  V30 186 N 17.7372 -0.778329 1.37039 0
M  V30 187 C 18.9842 -1.53665 1.31884 0
M  V30 188 C 19.3122 -1.9425 -0.0986303 0
M  V30 189 O 18.5672 -1.63832 -1.07041 0
M  V30 190 C 18.8662 -2.81845 2.19768 0
M  V30 191 C 18.5322 -2.60345 3.68146 0
M  V30 192 C 17.1942 -2.5419 4.08584 0
M  V30 193 C 19.5462 -2.40923 4.62175 0
M  V30 194 C 16.8742 -2.26594 5.41177 0
M  V30 195 C 19.2262 -2.14852 5.94997 0
M  V30 196 C 17.8902 -2.07137 6.34547 0
M  V30 197 H 17.1602 -0.562299 0.482598 0
M  V30 198 H 19.8072 -0.897069 1.69189 0
M  V30 199 H 18.1122 -3.50328 1.75436 0
M  V30 200 H 19.8092 -3.39692 2.13097 0
M  V30 201 H 16.3992 -2.65996 3.36072 0
M  V30 202 H 20.5832 -2.44673 4.31797 0
M  V30 203 H 15.8392 -2.19111 5.70789 0
M  V30 204 H 20.0132 -1.98822 6.67415 0
M  V30 205 H 17.6402 -1.85518 7.37216 0
M  V30 206 N 19.2153 -1.21501 -1.00376 0
M  V30 207 C 20.4403 -1.05977 -1.78279 0
M  V30 208 C 20.8653 0.385994 -1.84097 0
M  V30 209 O 20.2233 1.27849 -1.28547 0
M  V30 210 C 20.2713 -1.66302 -3.19963 0
M  V30 211 O 19.3753 -0.909333 -4.0225 0
M  V30 212 H 18.7163 -0.372906 -0.549397 0
M  V30 213 H 21.2463 -1.6107 -1.26165 0
M  V30 214 H 21.2563 -1.70574 -3.70632 0
M  V30 215 H 19.9313 -2.71515 -3.15043 0
M  V30 216 H 18.5083 -0.941795 -3.60811 0
M  V30 217 N 20.6934 1.19889 -1.02296 0
M  V30 218 C 21.6564 2.21116 -0.603351 0
M  V30 219 C 22.6564 1.5738 0.329884 0
M  V30 220 O 23.8464 1.73802 0.117702 0
M  V30 221 C 20.9784 3.40696 0.117992 0
M  V30 222 H 22.1714 2.59754 -1.49893 0
M  V30 223 H 19.7244 1.33463 -0.813468 0
M  V30 224 H 20.4594 3.07569 1.0282 0
M  V30 225 H 20.2444 3.88188 -0.552511 0
M  V30 226 H 21.7344 4.15692 0.398696 0
M  V30 227 N 22.1715 0.800033 1.35784 0
M  V30 228 C 23.1015 0.220184 2.3246 0
M  V30 229 C 24.0825 -0.65073 1.57161 0
M  V30 230 O 25.2675 -0.582359 1.85263 0
M  V30 231 C 22.3975 -0.637353 3.41402 0
M  V30 232 C 21.3515 0.134531 4.27789 0
M  V30 233 C 20.6775 -0.844285 5.27992 0
M  V30 234 C 21.9775 1.32979 5.05088 0
M  V30 235 H 23.6715 1.02787 2.81203 0
M  V30 236 H 21.2175 0.495717 1.35199 0
M  V30 237 H 23.1705 -1.05302 4.08031 0
M  V30 238 H 21.8945 -1.47785 2.91251 0
M  V30 239 H 20.5535 0.531296 3.6273 0
M  V30 240 H 20.2015 -1.68011 4.74111 0
M  V30 241 H 19.9015 -0.332184 5.8666 0
M  V30 242 H 21.4255 -1.2583 5.97494 0
M  V30 243 H 22.8395 0.98934 5.64699 0
M  V30 244 H 21.2365 1.77593 5.7322 0
M  V30 245 H 22.3065 2.11978 4.36111 0
M  V30 246 N 23.6496 -1.47581 0.552962 0
M  V30 247 C 25.0606 -1.86324 0.118463 0
M  V30 248 C 25.4116 -1.46006 -1.3106 0
M  V30 249 O 24.5366 -0.861182 -1.98526 0
M  V30 250 C 25.1316 -3.3816 0.20821 0
M  V30 251 C 23.6906 -3.7601 -0.171226 0
M  V30 252 C 22.8376 -2.71634 0.557686 0
M  V30 253 H 25.7886 -1.39159 0.762928 0
M  V30 254 H 25.8096 -3.76141 -0.574278 0
M  V30 255 H 25.3216 -3.67473 1.24841 0
M  V30 256 H 23.4226 -3.52313 -1.21269 0
M  V30 257 H 23.5356 -4.78745 0.184379 0
M  V30 258 H 21.8996 -2.547 0.00125792 0
M  V30 259 H 22.6826 -3.0379 1.59896 0
M  V30 260 N 25.1277 -0.289203 -1.54924 0
M  V30 261 C 26.4047 0.376032 -1.91951 0
M  V30 262 C 26.7847 1.72622 -1.21511 0
M  V30 263 O 26.1327 2.25853 -0.346767 0
M  V30 264 C 26.3427 0.502378 -3.45365 0
M  V30 265 C 27.6907 0.778741 -4.17398 0
M  V30 266 O 28.7147 0.586647 -3.51336 0
M  V30 267 O 27.5737 1.14698 -5.34328 0
M  V30 268 H 24.6677 0.208167 -0.800372 0
M  V30 269 H 27.2137 -0.336394 -1.66332 0
M  V30 270 H 25.9857 -0.447255 -3.88736 0
M  V30 271 H 25.6087 1.26373 -3.76982 0
M  V30 272 N 26.6058 1.57591 -0.0167156 0
M  V30 273 C 28.0168 1.79201 0.523834 0
M  V30 274 C 28.3678 0.925796 1.72984 0
M  V30 275 O 27.4928 0.132792 2.15992 0
M  V30 276 C 28.0878 3.25 0.957091 0
M  V30 277 C 26.6468 3.47648 1.44283 0
M  V30 278 C 25.7938 2.74374 0.401757 0
M  V30 279 H 28.7448 1.56831 -0.242816 0
M  V30 280 H 28.7658 3.34031 1.82219 0
M  V30 281 H 28.2778 3.88019 0.0791415 0
M  V30 282 H 26.3788 2.89866 2.34113 0
M  V30 283 H 26.4918 4.56352 1.45877 0
M  V30 284 H 24.8558 2.39485 0.867121 0
M  V30 285 H 25.6388 3.40102 -0.467513 0
M  V30 286 N 28.0839 -0.256276 1.55502 0
M  V30 287 C 29.0469 -1.30047 1.88734 0
M  V30 288 C 30.0469 -1.4154 0.763086 0
M  V30 289 O 31.2369 -1.40403 1.03115 0
M  V30 290 C 28.3689 -2.67953 2.10747 0
M  V30 291 H 29.5619 -1.01802 2.82093 0
M  V30 292 H 27.1149 -0.495134 1.4825 0
M  V30 293 H 27.8499 -3.01351 1.19825 0
M  V30 294 H 27.6349 -2.60993 2.92617 0
M  V30 295 H 29.1249 -3.43368 2.37673 0
M  V30 296 N 29.562 -1.4872 -0.521534 0
M  V30 297 C 30.81 -1.56857 -1.27437 0
M  V30 298 C 31.131 -0.247982 -1.93417 0
M  V30 299 O 30.401 0.731151 -1.81744 0
M  V30 300 H 28.981 -0.577885 -0.473347 0
M  V30 301 H 31.643 -1.85233 -0.606205 0
M  V30 302 H 30.739 -2.35402 -2.0492 0
M  V30 303 N 31.0401 0.771051 -1.3745 0
M  V30 304 C 32.0031 1.86598 -1.33093 0
M  V30 305 C 33.0031 1.59076 -0.234845 0
M  V30 306 O 34.1931 1.67145 -0.490732 0
M  V30 307 C 31.3251 3.23747 -1.06773 0
M  V30 308 H 32.5181 1.91873 -2.30488 0
M  V30 309 H 30.0711 0.970876 -1.2249 0
M  V30 310 H 30.8061 3.24148 -0.099129 0
M  V30 311 H 30.5911 3.45115 -1.86112 0
M  V30 312 H 32.0811 4.03824 -1.06377 0
M  V30 313 N 32.5182 1.22032 0.997298 0
M  V30 314 C 33.9292 1.0397 1.55071 0
M  V30 315 C 34.2802 -0.398192 1.92117 0
M  V30 316 O 33.4052 -1.28254 1.74298 0
M  V30 317 C 34.0002 1.88109 2.81781 0
M  V30 318 C 32.5592 1.74357 3.33581 0
M  V30 319 C 31.7062 1.84846 2.06706 0
M  V30 320 H 34.6572 1.35941 0.818883 0
M  V30 321 H 34.6782 1.39589 3.53971 0
M  V30 322 H 34.1902 2.92754 2.54787 0
M  V30 323 H 32.2912 0.72427 3.65493 0
M  V30 324 H 32.4042 2.56772 4.04481 0
M  V30 325 H 30.7682 1.28238 2.20062 0
M  V30 326 H 31.5512 2.91014 1.82114 0
M  V30 327 N 33.9963 -1.19345 1.0293 0
M  V30 328 C 35.2213 -1.93538 0.745511 0
M  V30 329 C 35.6463 -1.75007 -0.689511 0
M  V30 330 O 35.0043 -1.05265 -1.47611 0
M  V30 331 C 35.0523 -3.43336 1.10239 0
M  V30 332 O 34.1563 -4.11806 0.221289 0
M  V30 333 H 33.4973 -0.604193 0.275404 0
M  V30 334 H 36.0273 -1.5141 1.37609 0
M  V30 335 H 36.0373 -3.94004 1.05947 0
M  V30 336 H 34.7123 -3.56146 2.14786 0
M  V30 337 H 33.2893 -3.715 0.322842 0
M  V30 338 N 35.4744 -0.807222 -1.35358 0
M  V30 339 C 36.8904 -0.491038 -1.51858 0
M  V30 340 C 37.0904 0.987648 -1.75635 0
M  V30 341 O 36.1464 1.77265 -1.79815 0
M  V30 342 C 37.4594 -1.33695 -2.69344 0
M  V30 343 C 39.0074 -1.33246 -2.83222 0
M  V30 344 C 39.4824 -2.1625 -4.03733 0
M  V30 345 N 40.9734 -2.1379 -4.10911 0
M  V30 346 C 41.7084 -2.74772 -5.03277 0
M  V30 347 N 41.2044 -3.44684 -6.0097 0
M  V30 348 N 42.9974 -2.6441 -4.96028 0
M  V30 349 H 35.1484 -1.76485 -1.18181 0
M  V30 350 H 37.4114 -0.751199 -0.578276 0
M  V30 351 H 37.1174 -2.38634 -2.58354 0
M  V30 352 H 36.9914 -0.990618 -3.6396 0
M  V30 353 H 39.3784 -0.290911 -2.93663 0
M  V30 354 H 39.4594 -1.71866 -1.89461 0
M  V30 355 H 39.1034 -3.20445 -3.94052 0
M  V30 356 H 39.0334 -1.74989 -4.96675 0
M  V30 357 H 41.5244 -1.62923 -3.40976 0
M  V30 358 H 41.8374 -3.88501 -6.68047 0
M  V30 359 H 40.1824 -3.48788 -6.01142 0
M  V30 360 H 43.3734 -2.0938 -4.18662 0
M  V30 361 H 43.5464 -3.12225 -5.6782 0
M  V30 362 N 36.9525 1.47285 -0.560781 0
M  V30 363 C 38.3685 1.58065 -0.22081 0
M  V30 364 C 38.5685 1.55892 1.27671 0
M  V30 365 O 37.6245 1.46422 2.0571 0
M  V30 366 C 38.9375 2.88418 -0.850625 0
M  V30 367 C 40.4855 3.02009 -0.822184 0
M  V30 368 C 40.9605 4.35066 -1.43113 0
M  V30 369 N 42.4515 4.41711 -1.39448 0
M  V30 370 C 43.1865 5.43237 -1.83525 0
M  V30 371 N 42.6825 6.51555 -2.35474 0
M  V30 372 N 44.4755 5.34304 -1.74574 0
M  V30 373 H 36.6265 1.46941 -1.53369 0
M  V30 374 H 38.8895 0.699558 -0.639783 0
M  V30 375 H 38.5955 2.95755 -1.9032 0
M  V30 376 H 38.4695 3.75612 -0.345773 0
M  V30 377 H 40.8565 2.94266 0.221714 0
M  V30 378 H 40.9375 2.16347 -1.36483 0
M  V30 379 H 40.5815 4.43565 -2.47412 0
M  V30 380 H 40.5115 5.19465 -0.863899 0
M  V30 381 H 43.0025 3.64027 -1.01452 0
M  V30 382 H 43.3155 7.25203 -2.67021 0
M  V30 383 H 41.6605 6.52435 -2.39487 0
M  V30 384 H 44.8515 4.48581 -1.33763 0
M  V30 385 H 45.0245 6.13288 -2.09242 0
M  V30 386 N 38.4306 0.297415 1.54768 0
M  V30 387 C 39.3626 -0.613881 2.20826 0
M  V30 388 C 40.3756 -1.10032 1.19987 0
M  V30 389 O 41.5646 -1.01839 1.46598 0
M  V30 390 C 38.6646 -1.852 2.83821 0
M  V30 391 C 37.8376 -1.50865 4.10559 0
M  V30 392 C 36.8966 -2.60154 4.57391 0
M  V30 393 O 35.9226 -2.25398 5.2267 0
M  V30 394 N 37.1246 -3.90629 4.29406 0
M  V30 395 H 39.8896 -0.048389 2.99661 0
M  V30 396 H 37.4506 0.11946 1.61459 0
M  V30 397 H 39.4426 -2.57652 3.12086 0
M  V30 398 H 38.0126 -2.32597 2.08847 0
M  V30 399 H 37.2326 -0.616925 3.89343 0
M  V30 400 H 38.5206 -1.25458 4.9309 0
M  V30 401 H 37.9186 -4.21677 3.77101 0
M  V30 402 H 36.4756 -4.59391 4.62388 0
M  V30 403 N 39.9087 -1.5758 0.0250728 0
M  V30 404 C 41.1337 -1.96337 -0.668317 0
M  V30 405 C 41.5587 -0.901314 -1.651 0
M  V30 406 O 40.9167 0.138187 -1.80773 0
M  V30 407 C 40.9647 -3.34191 -1.35457 0
M  V30 408 O 40.0687 -3.30269 -2.46974 0
M  V30 409 H 39.4097 -0.640281 -0.175887 0
M  V30 410 H 41.9397 -2.0442 0.0857224 0
M  V30 411 H 41.9497 -3.70331 -1.71228 0
M  V30 412 H 40.6247 -4.11036 -0.634218 0
M  V30 413 H 39.2017 -3.05841 -2.13344 0
M  V30 414 N 41.3868 0.248026 -1.55636 0
M  V30 415 C 42.8028 0.596483 -1.48035 0
M  V30 416 C 43.0028 1.88386 -0.715039 0
M  V30 417 O 42.0588 2.51319 -0.243944 0
M  V30 418 C 43.3718 0.700258 -2.92433 0
M  V30 419 C 44.9198 0.792659 -3.02797 0
M  V30 420 C 45.3948 0.928005 -4.485 0
M  V30 421 N 46.8858 0.992903 -4.52433 0
M  V30 422 C 47.6208 1.11687 -5.62418 0
M  V30 423 N 47.1168 1.20645 -6.82214 0
M  V30 424 N 48.9098 1.14994 -5.50212 0
M  V30 425 H 41.0608 -0.597109 -2.03834 0
M  V30 426 H 43.3238 -0.205925 -0.925364 0
M  V30 427 H 43.0298 -0.175658 -3.51261 0
M  V30 428 H 42.9038 1.57255 -3.42857 0
M  V30 429 H 45.2908 1.65903 -2.4405 0
M  V30 430 H 45.3718 -0.104762 -2.55585 0
M  V30 431 H 45.0158 0.0661971 -5.07857 0
M  V30 432 H 44.9458 1.84045 -4.93391 0
M  V30 433 H 47.4368 0.935064 -3.66149 0
M  V30 434 H 47.7498 1.30008 -7.61786 0
M  V30 435 H 46.0948 1.17605 -6.84977 0
M  V30 436 H 49.2858 1.07643 -4.55555 0
M  V30 437 H 49.4588 1.24311 -6.35965 0
M  V30 438 N 42.8649 1.48995 0.513639 0
M  V30 439 C 43.7969 1.60836 1.63293 0
M  V30 440 C 44.8099 0.491701 1.55197 0
M  V30 441 O 45.9989 0.763238 1.6136 0
M  V30 442 C 43.0989 1.53731 3.02027 0
M  V30 443 C 42.2719 2.80715 3.35437 0
M  V30 444 C 41.3309 2.66837 4.53525 0
M  V30 445 O 40.3569 3.40753 4.55934 0
M  V30 446 N 41.5589 1.77539 5.52684 0
M  V30 447 H 44.3239 2.57366 1.53566 0
M  V30 448 H 41.8849 1.45925 0.701259 0
M  V30 449 H 43.8769 1.42118 3.78926 0
M  V30 450 H 42.4469 0.651092 3.05744 0
M  V30 451 H 41.6669 3.06772 2.47557 0
M  V30 452 H 42.9549 3.64927 3.54551 0
M  V30 453 H 42.3529 1.16719 5.53528 0
M  V30 454 H 40.9099 1.71856 6.28736 0
M  V30 455 N 44.343 -0.763751 1.37857 0
M  V30 456 C 45.759 -1.06542 1.18832 0
M  V30 457 C 45.959 -2.01478 0.0299722 0
M  V30 458 O 45.015 -2.4458 -0.627447 0
M  V30 459 C 46.328 -1.65525 2.51042 0
M  V30 460 C 47.876 -1.77745 2.57635 0
M  V30 461 C 48.351 -2.4014 3.89996 0
M  V30 462 N 49.842 -2.47582 3.91481 0
M  V30 463 C 50.577 -2.96732 4.9065 0
M  V30 464 N 50.073 -3.45993 6.00217 0
M  V30 465 N 51.866 -2.95679 4.78048 0
M  V30 466 H 44.017 -0.133556 2.1198 0
M  V30 467 H 46.28 -0.121879 0.940133 0
M  V30 468 H 45.986 -1.03236 3.36207 0
M  V30 469 H 45.86 -2.64719 2.68707 0
M  V30 470 H 48.247 -2.39164 1.72872 0
M  V30 471 H 48.328 -0.772836 2.43846 0
M  V30 472 H 47.972 -1.79358 4.75177 0
M  V30 473 H 47.902 -3.41223 4.01092 0
M  V30 474 H 50.393 -2.1273 3.12337 0
M  V30 475 H 50.706 -3.81922 6.7183 0
M  V30 476 H 49.051 -3.44077 6.03851 0
M  V30 477 H 52.242 -2.56499 3.91568 0
M  V30 478 H 52.415 -3.33672 5.55488 0
M  V30 479 N 45.8211 -1.22559 -0.990812 0
M  V30 480 C 47.2321 -1.04791 -1.54518 0
M  V30 481 C 47.5831 0.387998 -1.92325 0
M  V30 482 O 46.7081 1.27328 -1.74976 0
M  V30 483 C 47.3031 -1.896 -2.80779 0
M  V30 484 C 45.8621 -1.76124 -3.32652 0
M  V30 485 C 45.0091 -1.8594 -2.05722 0
M  V30 486 H 47.9601 -1.36374 -0.811662 0
M  V30 487 H 47.9811 -1.41464 -3.53225 0
M  V30 488 H 47.4931 -2.94101 -2.53231 0
M  V30 489 H 45.5941 -0.743643 -3.65104 0
M  V30 490 H 45.7071 -2.58913 -4.03114 0
M  V30 491 H 44.0711 -1.29403 -2.19379 0
M  V30 492 H 44.8541 -2.91976 -1.80568 0
M  V30 493 N 47.2992 1.18797 -1.03562 0
M  V30 494 C 48.2312 2.21731 -0.580337 0
M  V30 495 C 49.2442 1.59051 0.347349 0
M  V30 496 O 50.4332 1.77929 0.142669 0
M  V30 497 C 47.5332 3.38459 0.172805 0
M  V30 498 C 46.7062 4.3072 -0.761496 0
M  V30 499 C 45.7652 5.26174 -0.0525547 0
M  V30 500 O 44.7912 5.65108 -0.681333 0
M  V30 501 N 45.9932 5.67624 1.21586 0
M  V30 502 H 48.7582 2.61417 -1.46565 0
M  V30 503 H 46.3192 1.33531 -0.915476 0
M  V30 504 H 48.3112 3.99335 0.656793 0
M  V30 505 H 46.8812 2.97507 0.959602 0
M  V30 506 H 46.1012 3.67525 -1.42544 0
M  V30 507 H 47.3892 4.89267 -1.39626 0
M  V30 508 H 46.7872 5.38038 1.74732 0
M  V30 509 H 45.3442 6.30721 1.64421 0
M  V30 510 N 48.7773 0.814389 1.34928 0
M  V30 511 C 49.7073 0.244827 2.32213 0
M  V30 512 C 50.6883 -0.634024 1.57842 0
M  V30 513 O 51.8733 -0.562676 1.8587 0
M  V30 514 C 49.0033 -0.601106 3.42058 0
M  V30 515 C 47.9573 0.179896 4.27622 0
M  V30 516 C 47.2833 -0.788237 5.28858 0
M  V30 517 C 48.5833 1.38329 5.03649 0
M  V30 518 H 50.2773 1.05763 2.80097 0
M  V30 519 H 47.8233 0.510029 1.34665 0
M  V30 520 H 49.7763 -1.00968 4.09125 0
M  V30 521 H 48.5003 -1.44688 2.92802 0
M  V30 522 H 47.1593 0.569739 3.62146 0
M  V30 523 H 46.8073 -1.62973 4.75866 0
M  V30 524 H 46.5073 -0.269942 5.8698 0
M  V30 525 H 48.0313 -1.19485 5.98795 0
M  V30 526 H 49.4453 1.04918 5.63618 0
M  V30 527 H 47.8423 1.83662 5.71304 0
M  V30 528 H 48.9123 2.16592 4.33839 0
M  V30 529 N 50.2554 -1.46986 0.568584 0
M  V30 530 C 51.4804 -2.07335 0.0520528 0
M  V30 531 C 51.9054 -1.41675 -1.23733 0
M  V30 532 O 51.2634 -0.495623 -1.74394 0
M  V30 533 C 51.3114 -3.60417 -0.11501 0
M  V30 534 O 50.4154 -3.95309 -1.17492 0
M  V30 535 H 49.7564 -0.661597 0.0564385 0
M  V30 536 H 52.2864 -1.88837 0.787507 0
M  V30 537 H 52.2964 -4.06698 -0.325644 0
M  V30 538 H 50.9714 -4.07601 0.826675 0
M  V30 539 H 49.5484 -3.60757 -0.943869 0
M  V30 540 N 51.7335 -0.305618 -1.54608 0
M  V30 541 C 52.9585 0.307562 -2.05107 0
M  V30 542 C 53.3835 1.46385 -1.18123 0
M  V30 543 O 52.7415 1.8034 -0.186324 0
M  V30 544 C 52.7895 0.73704 -3.52987 0
M  V30 545 O 51.8935 1.84134 -3.6901 0
M  V30 546 H 51.2345 0.0589143 -0.661381 0
M  V30 547 H 53.7645 -0.448807 -1.99617 0
M  V30 548 H 53.7745 1.02459 -3.94925 0
M  V30 549 H 52.4495 -0.108773 -4.15758 0
M  V30 550 H 51.0265 1.55398 -3.38978 0
M  V30 551 N 53.2116 1.57565 -0.0334293 0
M  V30 552 C 54.4886 1.83282 0.683163 0
M  V30 553 C 54.8686 0.91823 1.90084 0
M  V30 554 O 54.2166 -0.025113 2.28486 0
M  V30 555 C 54.4266 3.32599 1.0573 0
M  V30 556 C 55.7746 3.99179 1.44711 0
M  V30 557 O 56.7986 3.3712 1.15015 0
M  V30 558 O 55.6576 5.08565 2.0006 0
M  V30 559 H 52.7516 0.755869 0.335546 0
M  V30 560 H 55.2976 1.69589 -0.0614402 0
M  V30 561 H 54.0696 3.90834 0.190828 0
M  V30 562 H 53.6926 3.51415 1.85993 0
M  V30 563 N 54.6897 -0.239769 1.55765 0
M  V30 564 C 55.9147 -0.988373 1.82335 0
M  V30 565 C 56.3397 -1.77886 0.611421 0
M  V30 566 O 55.6977 -1.75889 -0.439639 0
M  V30 567 C 55.7457 -1.89627 3.06715 0
M  V30 568 O 54.8497 -2.98904 2.84131 0
M  V30 569 H 54.1907 -0.280858 0.601677 0
M  V30 570 H 56.7207 -0.258597 2.02959 0
M  V30 571 H 56.7307 -2.30957 3.36338 0
M  V30 572 H 55.4057 -1.31511 3.9456 0
M  V30 573 H 53.9827 -2.61651 2.65694 0
M  V30 574 N 56.1678 -1.49265 -0.50573 0
M  V30 575 C 57.5788 -1.51769 -1.08734 0
M  V30 576 C 57.9298 -0.301192 -1.93874 0
M  V30 577 O 57.0548 0.589456 -2.08217 0
M  V30 578 C 57.6498 -2.75017 -1.97867 0
M  V30 579 C 56.2088 -2.80314 -2.51199 0
M  V30 580 C 55.3558 -2.4562 -1.28709 0
M  V30 581 H 58.3068 -1.56031 -0.289855 0
M  V30 582 H 58.3278 -2.5491 -2.82491 0
M  V30 583 H 57.8398 -3.63539 -1.35873 0
M  V30 584 H 55.9408 -1.96061 -3.16845 0
M  V30 585 H 56.0538 -3.82366 -2.88675 0
M  V30 586 H 54.4178 -1.97297 -1.61078 0
M  V30 587 H 55.2008 -3.36411 -0.6843 0
M  V30 588 N 57.6459 0.756429 -1.3826 0
M  V30 589 C 58.8709 1.55077 -1.37717 0
M  V30 590 C 59.2959 1.88073 0.03164 0
M  V30 591 O 58.6539 1.50364 1.01293 0
M  V30 592 C 58.7019 2.8283 -2.23695 0
M  V30 593 O 57.8059 3.77862 -1.6521 0
M  V30 594 H 57.1469 0.469152 -0.469885 0
M  V30 595 H 59.6769 0.935019 -1.81985 0
M  V30 596 H 59.6869 3.31783 -2.37453 0
M  V30 597 H 58.3619 2.58144 -3.2609 0
M  V30 598 H 56.9389 3.36555 -1.60578 0
M  V30 599 N 59.124 1.23083 0.984299 0
M  V30 600 C 60.087 1.00979 2.05757 0
M  V30 601 C 61.087 -0.0269573 1.60777 0
M  V30 602 O 62.277 0.212403 1.729 0
M  V30 603 C 59.409 0.527072 3.36801 0
M  V30 604 H 60.602 1.9622 2.26799 0
M  V30 605 H 58.155 1.05072 1.15714 0
M  V30 606 H 58.89 -0.429294 3.21446 0
M  V30 607 H 58.675 1.27515 3.70786 0
M  V30 608 H 60.165 0.392942 4.15747 0
M  V30 609 N 60.6021 -1.18246 1.0419 0
M  V30 610 C 61.8491 -1.88257 0.746017 0
M  V30 611 C 62.1771 -1.80429 -0.726331 0
M  V30 612 O 61.4321 -1.2 -1.54591 0
M  V30 613 C 61.7311 -3.38082 1.15911 0
M  V30 614 C 61.3971 -3.66114 2.63195 0
M  V30 615 C 60.0591 -3.73474 3.03432 0
M  V30 616 C 62.4111 -3.78398 3.5842 0
M  V30 617 C 59.7391 -3.90599 4.37778 0
M  V30 618 C 62.0911 -3.97039 4.92487 0
M  V30 619 C 60.7551 -4.02635 5.32392 0
M  V30 620 H 60.0251 -0.688883 0.272987 0
M  V30 621 H 62.6721 -1.3995 1.30715 0
M  V30 622 H 60.9771 -3.88377 0.516806 0
M  V30 623 H 62.6741 -3.90596 0.907516 0
M  V30 624 H 59.2641 -3.61003 2.3103 0
M  V30 625 H 63.4481 -3.72042 3.28479 0
M  V30 626 H 58.7041 -3.93175 4.68213 0
M  V30 627 H 62.8781 -4.05486 5.66175 0
M  V30 628 H 60.5051 -4.15657 6.36501 0
M  V30 629 N 62.0802 -0.821533 -1.34494 0
M  V30 630 C 63.4962 -0.507117 -1.51329 0
M  V30 631 C 63.6962 0.968964 -1.76673 0
M  V30 632 O 62.7522 1.75348 -1.81685 0
M  V30 633 C 64.0652 -1.36544 -2.67911 0
M  V30 634 C 65.6132 -1.36242 -2.81793 0
M  V30 635 C 66.0882 -2.2052 -4.01416 0
M  V30 636 N 67.5792 -2.18136 -4.08621 0
M  V30 637 C 68.3142 -2.80095 -5.00334 0
M  V30 638 N 67.8102 -3.51039 -5.9728 0
M  V30 639 N 69.6032 -2.69656 -4.93196 0
M  V30 640 H 61.7542 -1.77729 -1.16302 0
M  V30 641 H 64.0172 -0.757291 -0.570276 0
M  V30 642 H 63.7232 -2.41361 -2.55808 0
M  V30 643 H 63.5972 -1.02917 -3.62888 0
M  V30 644 H 65.9842 -0.322041 -2.93338 0
M  V30 645 H 66.0652 -1.73866 -1.87628 0
M  V30 646 H 65.7092 -3.24607 -3.90631 0
M  V30 647 H 65.6392 -1.80247 -4.94791 0
M  V30 648 H 68.1302 -1.6653 -3.39229 0
M  V30 649 H 68.4432 -3.95565 -6.63889 0
M  V30 650 H 66.7882 -3.55145 -5.97409 0
M  V30 651 H 69.9792 -2.13808 -4.16418 0
M  V30 652 H 70.1522 -3.1823 -5.64476 0
M  V30 653 N 63.5583 1.46682 -0.576371 0
M  V30 654 C 64.5213 2.28707 0.150239 0
M  V30 655 C 65.5213 1.38035 0.824794 0
M  V30 656 O 66.7113 1.60476 0.677719 0
M  V30 657 C 63.8433 3.18248 1.22192 0
M  V30 658 H 65.0363 2.94423 -0.570521 0
M  V30 659 H 62.5893 1.52688 -0.334078 0
M  V30 660 H 63.3243 2.57265 1.97447 0
M  V30 661 H 63.1093 3.85 0.742812 0
M  V30 662 H 64.5993 3.80001 1.73172 0
M  V30 663 N 65.0364 0.313813 1.54444 0
M  V30 664 C 66.2614 -0.296681 2.05267 0
M  V30 665 C 66.6864 -1.45757 1.18897 0
M  V30 666 O 66.0444 -1.80239 0.195886 0
M  V30 667 C 66.0924 -0.71831 3.53373 0
M  V30 668 O 65.1964 -1.82175 3.69981 0
M  V30 669 H 64.5374 -0.0554061 0.661684 0
M  V30 670 H 67.0674 0.459387 1.99376 0
M  V30 671 H 67.0774 -1.00364 3.95463 0
M  V30 672 H 65.7524 0.130821 4.15694 0
M  V30 673 H 64.3294 -1.53598 3.39797 0
M  V30 674 N 66.5145 -1.57545 0.0417849 0
M  V30 675 C 67.9305 -1.56467 -0.314704 0
M  V30 676 C 68.1305 -1.04859 -1.72066 0
M  V30 677 O 67.1865 -0.700983 -2.42575 0
M  V30 678 C 68.4995 -3.00317 -0.15174 0
M  V30 679 C 70.0475 -3.12201 -0.223553 0
M  V30 680 C 70.5225 -4.57913 -0.0892295 0
M  V30 681 N 72.0135 -4.6297 -0.145808 0
M  V30 682 C 72.7485 -5.73362 -0.0658459 0
M  V30 683 N 72.2445 -6.92769 0.0659282 0
M  V30 684 N 74.0375 -5.6197 -0.12075 0
M  V30 685 H 66.1885 -1.89416 0.961014 0
M  V30 686 H 68.4515 -0.871862 0.372237 0
M  V30 687 H 68.1575 -3.42073 0.817254 0
M  V30 688 H 68.0315 -3.65892 -0.916692 0
M  V30 689 H 70.4185 -2.70349 -1.18301 0
M  V30 690 H 70.4995 -2.49323 0.571994 0
M  V30 691 H 70.1435 -5.00448 0.866867 0
M  V30 692 H 70.0735 -5.18786 -0.903802 0
M  V30 693 H 72.5645 -3.7709 -0.247286 0
M  V30 694 H 72.8775 -7.72707 0.119905 0
M  V30 695 H 71.2225 -6.94927 0.100885 0
M  V30 696 H 74.4135 -4.67572 -0.222187 0
M  V30 697 H 74.5865 -6.47977 -0.0549735 0
M  V30 698 N 67.9926 0.231505 -1.5589 0
M  V30 699 C 69.2176 0.978689 -1.82856 0
M  V30 700 C 69.6426 1.77559 -0.620846 0
M  V30 701 O 69.0006 1.76119 0.430305 0
M  V30 702 C 69.0486 1.87997 -3.07716 0
M  V30 703 O 68.1526 2.97393 -2.85712 0
M  V30 704 H 67.4936 0.277663 -0.603158 0
M  V30 705 H 70.0236 0.24783 -2.03093 0
M  V30 706 H 70.0336 2.2917 -3.37558 0
M  V30 707 H 68.7086 1.29417 -3.95252 0
M  V30 708 H 67.2856 2.60238 -2.67078 0
M  V30 709 N 69.4707 1.49531 0.497807 0
M  V30 710 C 70.4207 1.62829 1.59596 0
M  V30 711 C 71.4047 0.483824 1.53453 0
M  V30 712 O 72.5967 0.736937 1.60929 0
M  V30 713 C 69.7257 1.7011 2.98191 0
M  V30 714 C 68.8117 2.90144 3.09317 0
M  V30 715 N 69.2027 4.1418 2.90324 0
M  V30 716 C 67.5007 2.88148 3.40422 0
M  V30 717 C 68.2017 4.94886 3.05717 0
M  V30 718 N 67.1777 4.28314 3.34736 0
M  V30 719 H 70.9797 2.56446 1.4357 0
M  V30 720 H 68.4937 1.46347 0.704001 0
M  V30 721 H 70.4907 1.77735 3.77115 0
M  V30 722 H 69.1507 0.776315 3.15283 0
M  V30 723 H 70.1617 4.44109 2.66436 0
M  V30 724 H 66.8387 2.05061 3.63671 0
M  V30 725 H 68.2287 6.03432 2.95499 0
M  V30 726 N 70.9488 -0.749086 1.3866 0
M  V30 727 C 72.1738 -1.54344 1.38538 0
M  V30 728 C 72.5988 -1.88088 -0.0216655 0
M  V30 729 O 71.9568 -1.50899 -1.00494 0
M  V30 730 C 72.0048 -2.8164 2.25192 0
M  V30 731 O 71.1088 -3.7698 1.67212 0
M  V30 732 H 70.4498 -0.466654 0.472367 0
M  V30 733 H 72.9798 -0.925355 1.82478 0
M  V30 734 H 72.9898 -3.30519 2.3921 0
M  V30 735 H 71.6648 -2.56411 3.27454 0
M  V30 736 H 70.2418 -3.35699 1.6236 0
M  V30 737 N 72.4269 -1.23603 -0.977757 0
M  V30 738 C 73.8429 -0.999251 -1.24447 0
M  V30 739 C 74.0429 0.298053 -1.99283 0
M  V30 740 O 73.0989 1.01681 -2.31122 0
M  V30 741 C 74.4119 -2.20784 -2.04144 0
M  V30 742 C 75.9599 -2.25303 -2.17273 0
M  V30 743 C 76.4349 -3.45755 -3.00362 0
M  V30 744 N 77.9259 -3.4601 -3.07947 0
M  V30 745 C 78.6609 -4.35868 -3.72568 0
M  V30 746 N 78.1569 -5.35966 -4.38991 0
M  V30 747 N 79.9499 -4.23605 -3.6948 0
M  V30 748 H 72.1009 -2.06986 -0.476483 0
M  V30 749 H 74.3639 -0.907801 -0.273134 0
M  V30 750 H 74.0699 -3.14945 -1.56533 0
M  V30 751 H 73.9439 -2.22085 -3.04891 0
M  V30 752 H 76.3309 -1.3168 -2.64092 0
M  V30 753 H 76.4119 -2.28033 -1.15907 0
M  V30 754 H 76.0559 -4.39687 -2.5424 0
M  V30 755 H 75.9859 -3.40266 -4.01904 0
M  V30 756 H 78.4769 -2.73588 -2.60688 0
M  V30 757 H 78.7899 -6.00783 -4.86086 0
M  V30 758 H 77.1349 -5.39863 -4.37691 0
M  V30 759 H 80.3259 -3.44647 -3.16759 0
M  V30 760 H 80.4989 -4.93836 -4.1956 0
M  V30 761 N 73.905 1.17692 -1.04816 0
M  V30 762 C 74.853 2.23632 -0.63966 0
M  V30 763 C 75.847 1.6601 0.337219 0
M  V30 764 O 77.053 1.78844 0.203693 0
M  V30 765 H 73.428 0.727949 -0.188665 0
M  V30 766 H 75.399 2.55387 -1.54337 0
M  V30 767 C 74.148 3.4769 -0.0264051 0
M  V30 768 H 73.471 3.92331 -0.769164 0
M  V30 769 H 74.911 4.23418 0.222098 0
M  V30 770 C 73.37 3.13807 1.22584 0
M  V30 771 O 73.9 3.28236 2.31569 0
M  V30 772 N 72.106 2.68065 1.12202 0
M  V30 773 H 71.653 2.56525 0.235133 0
M  V30 774 H 71.611 2.45767 1.96076 0
M  V30 775 N 75.3831 0.828654 1.34056 0
M  V30 776 C 76.3461 0.259927 2.27721 0
M  V30 777 C 77.3461 -0.565478 1.50529 0
M  V30 778 O 78.5361 -0.38075 1.69988 0
M  V30 779 C 75.6681 -0.634944 3.34935 0
M  V30 780 H 76.8611 1.0863 2.79534 0
M  V30 781 H 74.4141 0.600951 1.44285 0
M  V30 782 H 75.1491 -1.48416 2.88346 0
M  V30 783 H 74.9341 -0.0444999 3.92075 0
M  V30 784 H 76.4241 -1.02648 4.04788 0
M  V30 785 N 76.8612 -1.46375 0.584142 0
M  V30 786 C 78.0892 -2.06761 0.0759296 0
M  V30 787 C 78.5042 -1.43266 -1.22965 0
M  V30 788 O 77.8612 -0.538458 -1.74376 0
M  V30 789 C 77.9122 -3.61375 -0.0950384 0
M  V30 790 O 77.6332 -4.22495 1.15887 0
M  V30 791 C 79.1342 -4.38693 -0.637434 0
M  V30 792 H 76.3542 -0.668479 0.0581075 0
M  V30 793 H 78.8982 -1.8798 0.805218 0
M  V30 794 H 77.0532 -3.79578 -0.774554 0
M  V30 795 H 77.4672 -5.15385 0.973598 0
M  V30 796 H 78.9412 -5.47464 -0.706237 0
M  V30 797 H 79.4182 -4.06836 -1.65472 0
M  V30 798 H 80.0242 -4.25299 0.00725967 0
M  V30 799 N 78.3393 -0.321999 -1.54275 0
M  V30 800 C 79.7553 0.0306999 -1.5957 0
M  V30 801 C 79.9553 1.50614 -1.33857 0
M  V30 802 O 79.0113 2.2619 -1.12223 0
M  V30 803 C 80.3243 -0.386122 -2.98211 0
M  V30 804 C 81.8723 -0.336647 -3.11184 0
M  V30 805 C 82.3473 -0.728607 -4.52167 0
M  V30 806 N 83.8383 -0.681952 -4.58152 0
M  V30 807 C 84.5733 -0.957449 -5.6535 0
M  V30 808 N 84.0693 -1.3 -6.80494 0
M  V30 809 N 85.8623 -0.883113 -5.55119 0
M  V30 810 H 78.0133 -1.28332 -1.69247 0
M  V30 811 H 80.2763 -0.521716 -0.791528 0
M  V30 812 H 79.9823 -1.41404 -3.22022 0
M  V30 813 H 79.8563 0.249662 -3.76373 0
M  V30 814 H 82.2433 0.682058 -2.8711 0
M  V30 815 H 82.3243 -1.00734 -2.3513 0
M  V30 816 H 81.9683 -1.74522 -4.76974 0
M  V30 817 H 81.8983 -0.0356152 -5.26588 0
M  V30 818 H 84.3893 -0.428985 -3.75457 0
M  V30 819 H 84.7023 -1.49563 -7.58189 0
M  V30 820 H 83.0473 -1.33824 -6.81994 0
M  V30 821 H 86.2383 -0.615001 -4.64042 0
M  V30 822 H 86.4113 -1.10118 -6.38575 0
M  V30 823 N 79.8174 1.5752 -0.0501392 0
M  V30 824 C 81.0424 1.97376 0.636997 0
M  V30 825 C 81.4674 0.927466 1.63645 0
M  V30 826 O 80.8254 -0.10941 1.8097 0
M  V30 827 C 80.8734 3.36304 1.30123 0
M  V30 828 O 79.9774 3.34156 2.41689 0
M  V30 829 H 79.3184 0.642998 0.165679 0
M  V30 830 H 81.8484 2.04258 -0.118233 0
M  V30 831 H 81.8584 3.73008 1.65315 0
M  V30 832 H 80.5334 4.11993 0.568746 0
M  V30 833 H 79.1104 3.09196 2.08451 0
M  V30 834 N 81.2955 -0.223234 1.56011 0
M  V30 835 C 82.2455 -1.28008 1.88674 0
M  V30 836 C 83.2295 -1.42369 0.749663 0
M  V30 837 O 84.4215 -1.45212 1.01205 0
M  V30 838 C 81.5505 -2.63084 2.20548 0
M  V30 839 C 80.6365 -2.52632 3.40643 0
M  V30 840 N 81.0275 -2.11829 4.59306 0
M  V30 841 C 79.3255 -2.83594 3.44224 0
M  V30 842 C 80.0265 -2.12587 5.41463 0
M  V30 843 N 79.0025 -2.5301 4.81131 0
M  V30 844 H 82.8045 -0.955487 2.77935 0
M  V30 845 H 80.3185 -0.431801 1.56554 0
M  V30 846 H 82.3155 -3.39385 2.42122 0
M  V30 847 H 80.9755 -2.96391 1.32599 0
M  V30 848 H 81.9865 -1.82988 4.84496 0
M  V30 849 H 78.6635 -3.21284 2.66614 0
M  V30 850 H 80.0535 -1.83179 6.46448 0
M  V30 851 N 82.7736 -1.49793 -0.48987 0
M  V30 852 C 83.9986 -1.63836 -1.27172 0
M  V30 853 C 84.4236 -0.31402 -1.8546 0
M  V30 854 O 83.7816 0.719803 -1.66399 0
M  V30 855 C 83.8296 -2.71797 -2.36978 0
M  V30 856 O 82.9336 -2.31744 -3.41128 0
M  V30 857 H 82.2746 -0.547997 -0.37496 0
M  V30 858 H 84.8046 -1.96053 -0.585191 0
M  V30 859 H 84.8146 -2.94305 -2.82575 0
M  V30 860 H 83.4896 -3.67923 -1.93921 0
M  V30 861 H 82.0666 -2.1961 -3.01373 0
M  V30 862 N 84.2517 0.741722 -1.39055 0
M  V30 863 C 85.2017 1.84661 -1.33732 0
M  V30 864 C 86.1857 1.59397 -0.219401 0
M  V30 865 O 87.3777 1.71015 -0.456375 0
M  V30 866 C 84.5067 3.22512 -1.17647 0
M  V30 867 C 83.5927 3.53628 -2.34112 0
M  V30 868 N 83.9837 3.55723 -3.59576 0
M  V30 869 C 82.2817 3.83956 -2.26923 0
M  V30 870 C 82.9827 3.84443 -4.36553 0
M  V30 871 N 81.9587 4.01877 -3.66055 0
M  V30 872 H 85.7607 1.84576 -2.28711 0
M  V30 873 H 83.2747 0.939647 -1.32455 0
M  V30 874 H 85.2717 4.01597 -1.11917 0
M  V30 875 H 83.9317 3.2384 -0.236124 0
M  V30 876 H 84.9427 3.37196 -3.93089 0
M  V30 877 H 81.6197 3.92929 -1.41113 0
M  V30 878 H 83.0097 3.92588 -5.45274 0
M  V30 879 N 85.7298 1.2412 0.971189 0
M  V30 880 C 86.9548 1.10667 1.75407 0
M  V30 881 C 87.3798 -0.337048 1.85056 0
M  V30 882 O 86.7378 -1.24396 1.31892 0
M  V30 883 C 86.7858 1.74726 3.15441 0
M  V30 884 O 85.8898 1.01566 3.99697 0
M  V30 885 H 85.2308 0.387341 0.539317 0
M  V30 886 H 87.7608 1.64358 1.2185 0
M  V30 887 H 87.7708 1.80341 3.6598 0
M  V30 888 H 86.4458 2.79773 3.07734 0
M  V30 889 H 85.0228 1.03713 3.58187 0
M  V30 890 N 87.2079 -1.17134 1.05439 0
M  V30 891 C 88.1579 -2.1919 0.627675 0
M  V30 892 C 89.1419 -1.57328 -0.337147 0
M  V30 893 O 90.3339 -1.76329 -0.153976 0
M  V30 894 C 87.4629 -3.43299 0.00651435 0
M  V30 895 C 86.5489 -4.12255 0.995312 0
M  V30 896 N 86.9399 -4.56997 2.16765 0
M  V30 897 C 85.2379 -4.38316 0.824336 0
M  V30 898 C 85.9389 -5.10239 2.7934 0
M  V30 899 N 84.9149 -5.02595 2.07122 0
M  V30 900 H 88.7169 -2.5149 1.52086 0
M  V30 901 H 86.2309 -1.33491 0.924868 0
M  V30 902 H 88.2279 -4.15693 -0.316965 0
M  V30 903 H 86.8879 -3.1249 -0.882033 0
M  V30 904 H 87.8989 -4.51006 2.54587 0
M  V30 905 H 84.5759 -4.17498 -0.0129526 0
M  V30 906 H 85.9659 -5.54961 3.78772 0
M  V30 907 N 88.686 -0.835752 -1.33615 0
M  V30 908 C 89.911 -0.442389 -2.02627 0
M  V30 909 C 90.336 0.947735 -1.62479 0
M  V30 910 O 89.694 1.61907 -0.815826 0
M  V30 911 C 89.742 -0.567216 -3.56111 0
M  V30 912 O 88.846 0.407799 -4.10379 0
M  V30 913 H 88.187 -0.180278 -0.639059 0
M  V30 914 H 90.717 -1.12972 -1.70583 0
M  V30 915 H 90.727 -0.447708 -4.05536 0
M  V30 916 H 89.402 -1.58103 -3.84677 0
M  V30 917 H 87.979 0.246107 -3.72087 0
M  V30 918 N 90.1641 1.46063 -0.591896 0
M  V30 919 C 91.5751 1.85944 -0.167822 0
M  V30 920 C 91.9261 1.49429 1.27143 0
M  V30 921 O 91.0511 0.913515 1.96173 0
M  V30 922 C 91.6461 3.37489 -0.297794 0
M  V30 923 C 90.2051 3.76332 0.0714732 0
M  V30 924 C 89.3521 2.7006 -0.629509 0
M  V30 925 H 92.3031 1.37087 -0.799555 0
M  V30 926 H 92.3241 3.77532 0.474349 0
M  V30 927 H 91.8361 3.64034 -1.3454 0
M  V30 928 H 89.9371 3.55405 1.11886 0
M  V30 929 H 90.0501 4.78088 -0.311245 0
M  V30 930 H 88.4141 2.54607 -0.0687867 0
M  V30 931 H 89.1971 2.99444 -1.67894 0
M  V30 932 N 91.6422 0.330177 1.54103 0
M  V30 933 C 93.0582 -0.0222371 1.59585 0
M  V30 934 C 93.2582 -1.49902 1.34654 0
M  V30 935 O 92.3142 -2.25592 1.13421 0
M  V30 936 C 93.6272 0.401932 2.98002 0
M  V30 937 C 95.1752 0.353145 3.11001 0
M  V30 938 C 95.6502 0.752576 4.51775 0
M  V30 939 N 97.1412 0.706239 4.57784 0
M  V30 940 C 97.8762 0.987417 5.64834 0
M  V30 941 N 97.3722 1.33607 6.79795 0
M  V30 942 N 99.1652 0.91254 5.54643 0
M  V30 943 H 91.3162 1.29228 1.68564 0
M  V30 944 H 93.5792 0.525906 0.78875 0
M  V30 945 H 93.2852 1.4311 3.21267 0
M  V30 946 H 93.1592 -0.229699 3.765 0
M  V30 947 H 95.5462 -0.666822 2.87467 0
M  V30 948 H 95.6272 1.0198 2.34593 0
M  V30 949 H 95.2712 1.77049 4.76042 0
M  V30 950 H 95.2012 0.0635409 5.26562 0
M  V30 951 H 97.6922 0.44889 3.75224 0
M  V30 952 H 98.0052 1.53582 7.57385 0
M  V30 953 H 96.3502 1.37439 6.81275 0
M  V30 954 H 99.5412 0.639601 4.6371 0
M  V30 955 H 99.7142 1.13503 6.37982 0
M  V30 956 N 93.1203 -1.57491 0.0584922 0
M  V30 957 C 94.0703 -2.08474 -0.923188 0
M  V30 958 C 95.0543 -0.991479 -1.26722 0
M  V30 959 O 96.2463 -1.25473 -1.24842 0
M  V30 960 C 93.3753 -2.6392 -2.19548 0
M  V30 961 C 92.4613 -3.80227 -1.87852 0
M  V30 962 N 92.8523 -4.89714 -1.26546 0
M  V30 963 C 91.1503 -3.89271 -2.17679 0
M  V30 964 C 91.8513 -5.70689 -1.12644 0
M  V30 965 N 90.8273 -5.18531 -1.63176 0
M  V30 966 H 94.6293 -2.90517 -0.444653 0
M  V30 967 H 92.1433 -1.61745 -0.145764 0
M  V30 968 H 94.1403 -2.98752 -2.9078 0
M  V30 969 H 92.8003 -1.83318 -2.68001 0
M  V30 970 H 93.8113 -5.09358 -0.936757 0
M  V30 971 H 90.4883 -3.19623 -2.68602 0
M  V30 972 H 91.8783 -6.6875 -0.6499 0
M  V30 973 N 94.5984 0.214957 -1.56127 0
M  V30 974 C 95.8234 0.95924 -1.83884 0
M  V30 975 C 96.2484 1.7689 -0.639644 0
M  V30 976 O 95.6064 1.76566 0.411601 0
M  V30 977 C 95.6544 1.84723 -3.09693 0
M  V30 978 O 94.7584 2.94346 -2.8885 0
M  V30 979 H 94.0994 0.27125 -0.606069 0
M  V30 980 H 96.6294 0.226276 -2.03345 0
M  V30 981 H 96.6394 2.25576 -3.39969 0
M  V30 982 H 95.3144 1.25218 -3.96602 0
M  V30 983 H 93.8914 2.57391 -2.69823 0
M  V30 984 N 96.0765 1.50051 0.48192 0
M  V30 985 C 97.0065 1.71046 1.58951 0
M  V30 986 C 97.9875 0.559288 1.60642 0
M  V30 987 O 99.1725 0.797243 1.77081 0
M  V30 988 C 96.3025 1.79462 2.97339 0
M  V30 989 C 95.2565 2.94558 3.10515 0
M  V30 990 C 94.5825 2.88105 4.50444 0
M  V30 991 C 95.8825 4.35227 2.88747 0
M  V30 992 H 97.5765 2.6378 1.41635 0
M  V30 993 H 95.1225 1.26936 0.679942 0
M  V30 994 H 97.0755 1.92734 3.74742 0
M  V30 995 H 95.7995 0.833412 3.15788 0
M  V30 996 H 94.4585 2.80918 2.35543 0
M  V30 997 H 94.1065 1.89853 4.65795 0
M  V30 998 H 93.8065 3.65366 4.60197 0
M  V30 999 H 95.3305 3.03412 5.29881 0
M  V30 1000 H 96.7445 4.49449 3.55905 0
M  V30 1001 H 95.1415 5.13856 3.09955 0
M  V30 1002 H 96.2115 4.48347 1.84696 0
M  V30 1003 N 97.5546 -0.734337 1.39446 0
M  V30 1004 C 98.9706 -1.03997 1.21065 0
M  V30 1005 C 99.1706 -2.01369 0.0727019 0
M  V30 1006 O 98.2266 -2.45856 -0.575426 0
M  V30 1007 C 99.5396 -1.60163 2.54496 0
M  V30 1008 C 101.088 -1.7224 2.61347 0
M  V30 1009 C 101.563 -2.31814 3.95002 0
M  V30 1010 N 103.054 -2.39223 3.96644 0
M  V30 1011 C 103.789 -2.86258 4.96834 0
M  V30 1012 N 103.285 -3.33184 6.07421 0
M  V30 1013 N 105.078 -2.85473 4.84213 0
M  V30 1014 H 97.2286 -0.0885624 2.12215 0
M  V30 1015 H 99.4916 -0.10191 0.942506 0
M  V30 1016 H 99.1976 -0.960811 3.38321 0
M  V30 1017 H 99.0716 -2.5896 2.74262 0
M  V30 1018 H 101.459 -2.35443 1.77906 0
M  V30 1019 H 101.54 -0.720939 2.4543 0
M  V30 1020 H 101.184 -1.69238 4.78875 0
M  V30 1021 H 101.114 -3.32638 4.08239 0
M  V30 1022 H 103.605 -2.06057 3.16779 0
M  V30 1023 H 103.918 -3.67586 6.7978 0
M  V30 1024 H 102.263 -3.31191 6.11013 0
M  V30 1025 H 105.454 -2.48136 3.96921 0
M  V30 1026 H 105.627 -3.21814 5.62441 0
M  V30 1027 N 99.0327 -1.24633 -0.964593 0
M  V30 1028 C 99.9827 -1.00841 -2.04487 0
M  V30 1029 C 100.967 0.0512468 -1.60818 0
M  V30 1030 O 102.159 -0.162865 -1.76249 0
M  V30 1031 C 99.2877 -0.618474 -3.37683 0
M  V30 1032 C 98.3737 -1.71437 -3.87905 0
M  V30 1033 N 98.7647 -2.9477 -4.11029 0
M  V30 1034 C 97.0627 -1.5926 -4.16596 0
M  V30 1035 C 97.7637 -3.65834 -4.52261 0
M  V30 1036 N 96.7397 -2.9341 -4.57615 0
M  V30 1037 H 100.542 -1.94487 -2.20345 0
M  V30 1038 H 98.0557 -1.14805 -1.14863 0
M  V30 1039 H 100.053 -0.429247 -4.14684 0
M  V30 1040 H 98.7127 0.310766 -3.23209 0
M  V30 1041 H 99.7237 -3.30917 -3.9839 0
M  V30 1042 H 96.4007 -0.731606 -4.1104 0
M  V30 1043 H 97.7907 -4.71646 -4.78539 0
M  V30 1044 N 100.511 1.16574 -1.06058 0
M  V30 1045 C 101.736 1.91493 -0.796562 0
M  V30 1046 C 102.161 1.76773 0.642868 0
M  V30 1047 O 101.519 1.09142 1.44768 0
M  V30 1048 C 101.567 3.40293 -1.19303 0
M  V30 1049 O 100.671 4.11074 -0.330394 0
M  V30 1050 H 100.012 0.596678 -0.291326 0
M  V30 1051 H 102.542 1.47708 -1.41575 0
M  V30 1052 H 102.552 3.91057 -1.16356 0
M  V30 1053 H 101.227 3.50326 -2.24153 0
M  V30 1054 H 99.8038 3.70513 -0.421225 0
M  V30 1055 N 101.989 0.842826 1.3317 0
M  V30 1056 C 103.4 0.496651 1.79973 0
M  V30 1057 C 103.751 -0.984641 1.69703 0
M  V30 1058 O 102.876 -1.76743 1.24863 0
M  V30 1059 C 103.471 0.894727 3.26772 0
M  V30 1060 C 102.03 0.600629 3.71577 0
M  V30 1061 C 101.177 1.10091 2.5451 0
M  V30 1062 H 104.128 1.03116 1.20635 0
M  V30 1063 H 104.149 0.206347 3.7994 0
M  V30 1064 H 103.661 1.97287 3.34215 0
M  V30 1065 H 101.762 -0.467284 3.69658 0
M  V30 1066 H 101.875 1.15863 4.64879 0
M  V30 1067 H 100.239 0.52162 2.49301 0
M  V30 1068 H 101.022 2.18591 2.64713 0
M  V30 1069 N 103.467 -1.45747 0.599634 0
M  V30 1070 C 104.715 -2.01893 0.0915472 0
M  V30 1071 C 105.036 -1.47155 -1.27946 0
M  V30 1072 O 104.306 -0.66273 -1.84349 0
M  V30 1073 H 102.886 -0.746363 0.0308524 0
M  V30 1074 H 105.548 -1.78645 0.779237 0
M  V30 1075 H 104.644 -3.1208 0.0353086 0
M  V30 1076 N 104.945 -0.338344 -1.53925 0
M  V30 1077 C 106.17 0.263987 -2.05713 0
M  V30 1078 C 106.595 1.43847 -1.21201 0
M  V30 1079 O 105.953 1.79904 -0.224535 0
M  V30 1080 C 106.001 0.662 -3.54471 0
M  V30 1081 O 105.105 1.76265 -3.72833 0
M  V30 1082 H 104.446 0.0448722 -0.662482 0
M  V30 1083 H 106.976 -0.491048 -1.9862 0
M  V30 1084 H 106.986 0.940594 -3.9701 0
M  V30 1085 H 105.661 -0.196937 -4.15433 0
M  V30 1086 H 104.238 1.48173 -3.42198 0
M  V30 1087 N 106.423 1.57458 -0.0668435 0
M  V30 1088 C 107.671 1.92919 0.602214 0
M  V30 1089 C 107.992 0.947215 1.70449 0
M  V30 1090 O 107.262 -0.00544117 1.95899 0
M  V30 1091 H 105.842 0.71217 0.22544 0
M  V30 1092 H 108.504 1.94508 -0.123535 0
M  V30 1093 H 107.6 2.94589 1.03073 0
M  V30 1094 N 107.901 -0.206675 1.56239 0
M  V30 1095 C 109.126 -0.949474 1.8439 0
M  V30 1096 C 109.551 -1.76549 0.649016 0
M  V30 1097 O 108.909 -1.76782 -0.402231 0
M  V30 1098 C 108.957 -1.83078 3.10668 0
M  V30 1099 O 108.061 -2.9281 2.90407 0
M  V30 1100 H 107.402 -0.268033 0.607499 0
M  V30 1101 H 109.932 -0.215488 2.03462 0
M  V30 1102 H 109.942 -2.2377 3.41161 0
M  V30 1103 H 108.617 -1.23112 3.97261 0
M  V30 1104 H 107.194 -2.55956 2.71184 0
M  V30 1105 N 109.379 -1.50304 -0.473955 0
M  V30 1106 C 110.619 -1.62786 -1.23612 0
M  V30 1107 C 110.983 -0.319786 -1.89318 0
M  V30 1108 O 112.184 -0.320012 -2.66888 0
M  V30 1109 C 110.455 -2.77351 -2.25414 0
M  V30 1110 S 112.014 -3.09948 -3.10608 0
M  V30 1111 H 108.832 -0.573895 -0.419721 0
M  V30 1112 H 111.434 -1.88076 -0.533623 0
M  V30 1113 H 110.138 -3.70879 -1.75719 0
M  V30 1114 H 109.669 -2.54137 -3.00296 0
M  V30 1115 H 111.684 -2.53553 -4.26527 0
M  V30 1116 N 110.857 0.726932 -1.39834 0
M  V30 1117 C 112.105 1.4837 -1.37225 0
M  V30 1118 C 112.426 1.94979 0.0284857 0
M  V30 1119 O 111.696 1.69555 0.981213 0
M  V30 1120 H 110.276 0.55043 -0.505011 0
M  V30 1121 H 112.938 0.862468 -1.74778 0
M  V30 1122 H 112.034 2.36198 -2.04003 0
M  V30 1123 N 112.336 1.25143 0.95797 0
M  V30 1124 C 113.561 1.12521 1.74223 0
M  V30 1125 C 113.986 -0.317402 1.85403 0
M  V30 1126 O 113.344 -1.2299 1.33204 0
M  V30 1127 C 113.392 1.78062 3.1357 0
M  V30 1128 O 112.496 1.058 3.98598 0
M  V30 1129 H 111.837 0.39304 0.535178 0
M  V30 1130 H 114.367 1.65641 1.201 0
M  V30 1131 H 114.377 1.84213 3.64046 0
M  V30 1132 H 113.052 2.83021 3.04749 0
M  V30 1133 H 111.629 1.07506 3.57067 0
M  V30 1134 N 113.814 -1.1601 1.06675 0
M  V30 1135 C 115.039 -1.91068 0.806706 0
M  V30 1136 C 115.464 -1.77112 -0.633485 0
M  V30 1137 O 114.822 -1.09908 -1.44187 0
M  V30 1138 C 114.87 -3.39655 1.21106 0
M  V30 1139 O 113.974 -4.10893 0.352189 0
M  V30 1140 H 113.315 -0.595125 0.294486 0
M  V30 1141 H 115.845 -1.46955 1.42356 0
M  V30 1142 H 115.855 -3.90434 1.18428 0
M  V30 1143 H 114.53 -3.49132 2.26008 0
M  V30 1144 H 113.107 -3.70285 0.440868 0
M  V30 1145 N 115.292 -0.849877 -1.32721 0
M  V30 1146 C 116.517 -0.463856 -2.02146 0
M  V30 1147 C 116.942 0.930449 -1.63476 0
M  V30 1148 O 116.3 1.61033 -0.832952 0
M  V30 1149 C 116.348 -0.604955 -3.55489 0
M  V30 1150 O 115.452 0.36425 -4.10788 0
M  V30 1151 H 114.793 -0.187046 -0.637111 0
M  V30 1152 H 117.323 -1.14775 -1.69375 0
M  V30 1153 H 117.333 -0.490696 -4.05038 0
M  V30 1154 H 116.008 -1.62174 -3.82978 0
M  V30 1155 H 114.585 0.206628 -3.72327 0
M  V30 1156 N 116.77 1.45427 -0.607355 0
M  V30 1157 C 118.018 2.01841 -0.102253 0
M  V30 1158 C 118.339 1.47832 1.27164 0
M  V30 1159 O 117.609 0.672497 1.83995 0
M  V30 1160 H 116.189 0.746188 -0.0348101 0
M  V30 1161 H 118.851 1.78229 -0.7887 0
M  V30 1162 H 117.947 3.12057 -0.0518585 0
M  V30 1163 N 118.248 0.346503 1.53744 0
M  V30 1164 C 119.198 -0.524953 2.21874 0
M  V30 1165 C 120.182 -1.06376 1.20718 0
M  V30 1166 O 121.374 -0.996972 1.46251 0
M  V30 1167 C 118.503 -1.6739 2.99726 0
M  V30 1168 C 117.589 -1.14888 4.08242 0
M  V30 1169 N 117.98 -0.345329 5.0462 0
M  V30 1170 C 116.278 -1.4255 4.22606 0
M  V30 1171 C 116.979 -0.0600706 5.81669 0
M  V30 1172 N 115.955 -0.65252 5.39669 0
M  V30 1173 H 119.757 0.0960091 2.93743 0
M  V30 1174 H 117.271 0.15352 1.61673 0
M  V30 1175 H 119.268 -2.3102 3.47038 0
M  V30 1176 H 117.928 -2.29811 2.29384 0
M  V30 1177 H 118.939 0.0138439 5.17898 0
M  V30 1178 H 115.616 -2.05389 3.63486 0
M  V30 1179 H 117.006 0.588321 6.69319 0
M  V30 1180 N 119.726 -1.57421 0.075193 0
M  V30 1181 C 121.142 -1.57099 -0.281444 0
M  V30 1182 C 121.342 -1.08486 -1.69803 0
M  V30 1183 O 120.398 -0.752279 -2.41033 0
M  V30 1184 C 121.711 -3.00571 -0.0880041 0
M  V30 1185 C 123.259 -3.12605 -0.157281 0
M  V30 1186 C 123.734 -4.57999 0.0079207 0
M  V30 1187 N 125.225 -4.63176 -0.0475725 0
M  V30 1188 C 125.96 -5.73373 0.0557876 0
M  V30 1189 N 125.456 -6.92473 0.21286 0
M  V30 1190 N 127.249 -5.621 -0.00152098 0
M  V30 1191 H 119.4 -1.87335 1.00098 0
M  V30 1192 H 121.663 -0.86377 0.390646 0
M  V30 1193 H 121.369 -3.40262 0.889629 0
M  V30 1194 H 121.243 -3.67754 -0.838875 0
M  V30 1195 H 123.63 -2.72798 -1.1254 0
M  V30 1196 H 123.711 -2.48053 0.62475 0
M  V30 1197 H 123.355 -4.98496 0.972824 0
M  V30 1198 H 123.285 -5.20586 -0.793556 0
M  V30 1199 H 125.776 -3.7753 -0.167244 0
M  V30 1200 H 126.089 -7.72279 0.283781 0
M  V30 1201 H 124.434 -6.94556 0.248267 0
M  V30 1202 H 127.625 -4.67938 -0.122958 0
M  V30 1203 H 127.798 -6.47948 0.0824844 0
M  V30 1204 N 121.204 0.198386 -1.56346 0
M  V30 1205 C 122.615 0.763358 -1.70381 0
M  V30 1206 C 122.966 1.83995 -0.681203 0
M  V30 1207 O 122.091 2.15785 0.16305 0
M  V30 1208 C 122.686 1.39143 -3.08909 0
M  V30 1209 C 121.245 1.90352 -3.2472 0
M  V30 1210 C 120.392 0.772233 -2.6633 0
M  V30 1211 H 123.343 -0.0266377 -1.58678 0
M  V30 1212 H 123.364 2.26076 -3.06055 0
M  V30 1213 H 122.876 0.607638 -3.83314 0
M  V30 1214 H 120.977 2.71461 -2.55225 0
M  V30 1215 H 121.09 2.06757 -4.3219 0
M  V30 1216 H 119.454 1.18566 -2.2542 0
M  V30 1217 H 120.237 0.00073556 -3.433 0
M  V30 1218 N 122.682 1.50554 0.465978 0
M  V30 1219 C 123.922 1.63439 1.22747 0
M  V30 1220 C 124.286 0.329822 1.89146 0
M  V30 1221 O 125.487 0.334161 2.66715 0
M  V30 1222 C 123.758 2.78542 2.2394 0
M  V30 1223 S 125.317 3.11591 3.0896 0
M  V30 1224 H 122.135 0.576113 0.416672 0
M  V30 1225 H 124.737 1.88357 0.523641 0
M  V30 1226 H 123.441 3.71805 1.7375 0
M  V30 1227 H 122.972 2.55726 2.98944 0
M  V30 1228 H 124.987 2.55811 4.25176 0
M  V30 1229 N 124.16 -0.719506 1.40217 0
M  V30 1230 C 125.123 -1.8153 1.39927 0
M  V30 1231 C 126.123 -1.58095 0.293723 0
M  V30 1232 O 127.313 -1.65209 0.552429 0
M  V30 1233 C 124.445 -3.19561 1.18716 0
M  V30 1234 H 125.638 -1.83186 2.37451 0
M  V30 1235 H 123.191 -0.924746 1.26008 0
M  V30 1236 H 123.926 -3.23557 0.219366 0
M  V30 1237 H 123.711 -3.3797 1.98793 0
M  V30 1238 H 125.201 -3.99598 1.21291 0
M  V30 1239 N 125.638 -1.25649 -0.95132 0
M  V30 1240 C 126.915 -1.01361 -1.67288 0
M  V30 1241 C 127.295 0.459135 -2.06046 0
M  V30 1242 O 126.643 1.43723 -1.7764 0
M  V30 1243 C 126.853 -1.95256 -2.89268 0
M  V30 1244 C 128.201 -2.23289 -3.61147 0
M  V30 1245 O 129.225 -1.93041 -2.99355 0
M  V30 1246 O 128.084 -2.74741 -4.72419 0
M  V30 1247 H 125.178 -0.38464 -0.732107 0
M  V30 1248 H 127.724 -1.36817 -1.00395 0
M  V30 1249 H 126.496 -2.94685 -2.57442 0
M  V30 1250 H 126.119 -1.60218 -3.6389 0
M  V30 1251 N 127.117 1.15442 -1.07289 0
M  V30 1252 C 128.366 1.85557 -0.790669 0
M  V30 1253 C 128.679 1.83186 0.685739 0
M  V30 1254 O 129.885 2.48977 1.0827 0
M  V30 1255 C 128.341 3.33038 -1.36433 0
M  V30 1256 C 127.949 3.43856 -2.8717 0
M  V30 1257 C 129.693 4.0834 -1.1601 0
M  V30 1258 C 127.6 4.85482 -3.3773 0
M  V30 1259 H 126.53 0.695122 -0.292098 0
M  V30 1260 H 129.181 1.30219 -1.29287 0
M  V30 1261 H 127.563 3.88043 -0.789864 0
M  V30 1262 H 128.737 2.98961 -3.50655 0
M  V30 1263 H 127.052 2.81998 -3.06376 0
M  V30 1264 H 129.649 5.12859 -1.51262 0
M  V30 1265 H 129.992 4.16182 -0.0991007 0
M  V30 1266 H 130.525 3.59603 -1.70089 0
M  V30 1267 H 127.264 4.82823 -4.43353 0
M  V30 1268 H 126.784 5.30961 -2.78999 0
M  V30 1269 H 128.463 5.54335 -3.33648 0
M  V30 1270 N 128.595 0.856903 1.32268 0
M  V30 1271 C 129.525 0.31858 2.31316 0
M  V30 1272 C 130.506 -0.583487 1.59779 0
M  V30 1273 O 131.691 -0.503259 1.87566 0
M  V30 1274 C 128.821 -0.491979 3.43798 0
M  V30 1275 C 127.775 0.315849 4.26833 0
M  V30 1276 C 127.101 -0.619586 5.31098 0
M  V30 1277 C 128.401 1.54282 4.98993 0
M  V30 1278 H 130.095 1.14621 2.76591 0
M  V30 1279 H 127.641 0.552613 1.32974 0
M  V30 1280 H 129.594 -0.879012 4.1213 0
M  V30 1281 H 128.318 -1.35299 2.97257 0
M  V30 1282 H 126.977 0.684664 3.6015 0
M  V30 1283 H 126.625 -1.47751 4.8081 0
M  V30 1284 H 126.325 -0.0830621 5.87541 0
M  V30 1285 H 127.849 -1.00375 6.02293 0
M  V30 1286 H 129.263 1.22796 5.59995 0
M  V30 1287 H 127.66 2.01745 5.65172 0
M  V30 1288 H 128.73 2.30285 4.26728 0
M  V30 1289 N 130.073 -1.45103 0.615059 0
M  V30 1290 C 130.983 -2.34382 -0.101034 0
M  V30 1291 C 131.999 -1.51681 -0.852585 0
M  V30 1292 O 133.175 -1.8446 -0.808484 0
M  V30 1293 C 130.24 -3.29417 -1.08099 0
M  V30 1294 C 129.301 -4.28025 -0.330577 0
M  V30 1295 C 128.534 -5.1852 -1.26385 0
M  V30 1296 O 128.757 -5.12598 -2.50198 0
M  V30 1297 O 127.691 -5.97122 -0.756866 0
M  V30 1298 H 131.517 -2.97033 0.632855 0
M  V30 1299 H 129.102 -1.4461 0.375293 0
M  V30 1300 H 130.984 -3.87958 -1.6452 0
M  V30 1301 H 129.659 -2.69321 -1.79577 0
M  V30 1302 H 128.566 -3.73078 0.276283 0
M  V30 1303 H 129.899 -4.90997 0.343866 0
M  V30 1304 N 131.551 -0.354651 -1.53558 0
M  V30 1305 C 132.797 0.238797 -2.01389 0
M  V30 1306 C 133.13 1.49309 -1.2418 0
M  V30 1307 O 132.405 1.91638 -0.332457 0
M  V30 1308 C 132.688 0.541771 -3.56001 0
M  V30 1309 C 132.541 -0.725388 -4.43912 0
M  V30 1310 C 133.86 1.34685 -4.18984 0
M  V30 1311 H 130.979 0.0853177 -0.732045 0
M  V30 1312 H 133.621 -0.477384 -1.83905 0
M  V30 1313 H 131.771 1.15189 -3.71031 0
M  V30 1314 H 133.443 -1.36313 -4.407 0
M  V30 1315 H 131.686 -1.34801 -4.12324 0
M  V30 1316 H 132.357 -0.468505 -5.50008 0
M  V30 1317 H 134.833 0.830837 -4.07721 0
M  V30 1318 H 133.709 1.52759 -5.27215 0
M  V30 1319 H 133.97 2.35221 -3.74331 0
M  V30 1320 N 133.029 1.57378 -0.0835403 0
M  V30 1321 C 134.277 1.93547 0.581718 0
M  V30 1322 C 134.598 0.96524 1.69435 0
M  V30 1323 O 133.868 0.0153369 1.95894 0
M  V30 1324 H 132.448 0.714521 0.217874 0
M  V30 1325 H 135.11 1.94366 -0.144158 0
M  V30 1326 H 134.206 2.95665 0.999423 0
M  V30 1327 N 134.507 -0.190092 1.56449 0
M  V30 1328 C 135.44 -1.26375 1.90012 0
M  V30 1329 C 136.418 -1.43705 0.760765 0
M  V30 1330 O 137.602 -1.59014 1.01226 0
M  V30 1331 C 134.729 -2.62962 2.13468 0
M  V30 1332 C 133.775 -2.62474 3.36169 0
M  V30 1333 S 134.608 -2.13412 4.91137 0
M  V30 1334 C 135.764 -3.51812 5.17667 0
M  V30 1335 H 135.997 -0.977181 2.80782 0
M  V30 1336 H 133.53 -0.393814 1.49293 0
M  V30 1337 H 135.488 -3.41583 2.27664 0
M  V30 1338 H 134.149 -2.88828 1.23439 0
M  V30 1339 H 133.342 -3.62918 3.49723 0
M  V30 1340 H 132.944 -1.91937 3.20992 0
M  V30 1341 H 135.236 -4.47706 5.08494 0
M  V30 1342 H 136.179 -3.43148 6.19399 0
M  V30 1343 H 136.587 -3.46956 4.45288 0
M  V30 1344 N 135.985 -1.50799 -0.457987 0
M  V30 1345 C 136.915 -1.73553 -1.5621 0
M  V30 1346 C 137.896 -0.584774 -1.59732 0
M  V30 1347 O 139.081 -0.825314 -1.7579 0
M  V30 1348 C 136.211 -1.84169 -2.94447 0
M  V30 1349 C 135.165 -2.99461 -3.0579 0
M  V30 1350 C 134.491 -2.95235 -4.45803 0
M  V30 1351 C 135.791 -4.39766 -2.81786 0
M  V30 1352 H 137.485 -2.66 -1.37421 0
M  V30 1353 H 135.031 -1.28002 -0.659662 0
M  V30 1354 H 136.984 -1.98672 -3.71628 0
M  V30 1355 H 135.708 -0.883545 -3.14422 0
M  V30 1356 H 134.367 -2.8463 -2.31044 0
M  V30 1357 H 134.015 -1.97239 -4.62715 0
M  V30 1358 H 133.715 -3.72642 -4.54326 0
M  V30 1359 H 135.239 -3.11803 -5.24987 0
M  V30 1360 H 136.653 -4.55054 -3.4871 0
M  V30 1361 H 135.05 -5.18722 -3.0174 0
M  V30 1362 H 136.12 -4.51229 -1.7754 0
M  V30 1363 N 137.463 0.71206 -1.40597 0
M  V30 1364 C 138.393 1.83889 -1.43899 0
M  V30 1365 C 139.374 1.67442 -0.299504 0
M  V30 1366 O 140.559 1.87421 -0.508624 0
M  V30 1367 C 137.689 3.21877 -1.30431 0
M  V30 1368 C 136.643 3.53002 -2.42019 0
M  V30 1369 C 135.969 4.90172 -2.13626 0
M  V30 1370 C 137.269 3.53643 -3.84362 0
M  V30 1371 H 138.963 1.81383 -2.38203 0
M  V30 1372 H 136.509 0.871237 -1.14654 0
M  V30 1373 H 138.462 4.00404 -1.31357 0
M  V30 1374 H 137.186 3.24968 -0.326049 0
M  V30 1375 H 135.845 2.76818 -2.40349 0
M  V30 1376 H 135.493 4.89869 -1.14182 0
M  V30 1377 H 135.193 5.11962 -2.88389 0
M  V30 1378 H 136.717 5.71028 -2.1624 0
M  V30 1379 H 138.131 4.22203 -3.87837 0
M  V30 1380 H 136.528 3.86961 -4.58673 0
M  V30 1381 H 137.598 2.52954 -4.13693 0
M  V30 1382 N 138.941 1.26152 0.944643 0
M  V30 1383 C 140.166 1.14363 1.7302 0
M  V30 1384 C 140.591 -0.29772 1.85729 0
M  V30 1385 O 139.949 -1.2157 1.34501 0
M  V30 1386 C 139.997 1.81378 3.11664 0
M  V30 1387 O 139.101 1.10022 3.97453 0
M  V30 1388 H 138.442 0.398694 0.53098 0
M  V30 1389 H 140.972 1.66906 1.18337 0
M  V30 1390 H 140.982 1.88064 3.62072 0
M  V30 1391 H 139.657 2.86237 3.0173 0
M  V30 1392 H 138.234 1.11287 3.55907 0
M  V30 1393 N 140.419 -1.14872 1.07899 0
M  V30 1394 C 141.366 -2.19791 0.704319 0
M  V30 1395 C 142.336 -1.63238 -0.306987 0
M  V30 1396 O 143.521 -1.8983 -0.192171 0
M  V30 1397 C 140.661 -3.44911 0.114244 0
M  V30 1398 C 139.774 -4.15637 1.1777 0
M  V30 1399 C 138.909 -5.28324 0.552037 0
M  V30 1400 C 137.948 -5.90875 1.59789 0
M  V30 1401 N 137.085 -6.95022 0.994404 0
M  V30 1402 H 141.925 -2.5119 1.60336 0
M  V30 1403 H 139.462 -1.23356 0.801352 0
M  V30 1404 H 141.42 -4.16477 -0.245544 0
M  V30 1405 H 140.05 -3.14011 -0.74813 0
M  V30 1406 H 139.102 -3.42512 1.65499 0
M  V30 1407 H 140.414 -4.5823 1.97046 0
M  V30 1408 H 139.568 -6.06538 0.1402 0
M  V30 1409 H 138.307 -4.86939 -0.272431 0
M  V30 1410 H 137.312 -5.11369 2.01945 0
M  V30 1411 H 138.537 -6.34337 2.42474 0
M  V30 1412 H 136.483 -6.55722 0.190939 0
M  V30 1413 H 136.4 -7.36073 1.72432 0
M  V30 1414 H 137.668 -7.77123 0.608253 0
M  V30 1415 N 141.898 -0.863906 -1.31812 0
M  V30 1416 C 143.147 -0.46801 -1.96195 0
M  V30 1417 C 143.46 0.983474 -1.69077 0
M  V30 1418 O 144.666 1.48523 -2.27273 0
M  V30 1419 C 143.122 -0.785995 -3.51212 0
M  V30 1420 C 142.73 -2.25383 -3.87178 0
M  V30 1421 C 144.474 -0.458274 -4.22019 0
M  V30 1422 C 142.381 -2.51455 -5.3528 0
M  V30 1423 H 141.311 -0.171283 -0.734287 0
M  V30 1424 H 143.962 -1.05597 -1.50072 0
M  V30 1425 H 142.344 -0.127359 -3.95795 0
M  V30 1426 H 143.518 -2.95502 -3.53575 0
M  V30 1427 H 141.833 -2.54698 -3.2942 0
M  V30 1428 H 144.43 -0.630369 -5.30971 0
M  V30 1429 H 144.773 0.600834 -4.11941 0
M  V30 1430 H 145.306 -1.07319 -3.8305 0
M  V30 1431 H 142.045 -3.56025 -5.50387 0
M  V30 1432 H 141.565 -1.85923 -5.70257 0
M  V30 1433 H 143.244 -2.35874 -6.02472 0
M  V30 1434 N 143.376 1.44774 -0.622745 0
M  V30 1435 C 144.324 2.32387 0.0994683 0
M  V30 1436 C 145.318 1.46859 0.844326 0
M  V30 1437 O 146.524 1.63254 0.758174 0
M  V30 1438 H 142.899 0.750273 0.0509291 0
M  V30 1439 H 144.87 2.91062 -0.65767 0
M  V30 1440 C 143.619 3.30723 1.07319 0
M  V30 1441 H 142.942 3.96541 0.509462 0
M  V30 1442 H 144.382 3.94725 1.54817 0
M  V30 1443 C 142.841 2.59021 2.15429 0
M  V30 1444 O 143.371 2.38286 3.23393 0
M  V30 1445 N 141.577 2.189 1.91131 0
M  V30 1446 H 141.124 2.35964 1.03337 0
M  V30 1447 H 141.082 1.71251 2.63668 0
M  V30 1448 N 144.854 0.36279 1.53368 0
M  V30 1449 C 146.079 -0.231226 2.06107 0
M  V30 1450 C 146.504 -1.419 1.23474 0
M  V30 1451 O 145.862 -1.79524 0.253128 0
M  V30 1452 C 145.91 -0.605523 3.5548 0
M  V30 1453 O 145.014 -1.70312 3.7559 0
M  V30 1454 H 144.355 -0.034327 0.663112 0
M  V30 1455 H 146.885 0.522584 1.97814 0
M  V30 1456 H 146.895 -0.877314 3.98456 0
M  V30 1457 H 145.57 0.263004 4.15068 0
M  V30 1458 H 144.147 -1.4271 3.44512 0
M  V30 1459 N 146.332 -1.57332 0.0918853 0
M  V30 1460 C 147.262 -2.16872 -0.865371 0
M  V30 1461 C 148.243 -1.10118 -1.29646 0
M  V30 1462 O 149.428 -1.38242 -1.36392 0
M  V30 1463 C 146.558 -2.74649 -2.12569 0
M  V30 1464 C 145.512 -3.86747 -1.83333 0
M  V30 1465 C 144.838 -4.31212 -3.16166 0
M  V30 1466 C 146.138 -5.10089 -1.1228 0
M  V30 1467 H 147.832 -2.97114 -0.369307 0
M  V30 1468 H 145.378 -1.42918 -0.176194 0
M  V30 1469 H 147.331 -3.14952 -2.7997 0
M  V30 1470 H 146.055 -1.91657 -2.64452 0
M  V30 1471 H 144.714 -3.46978 -1.18331 0
M  V30 1472 H 144.362 -3.45115 -3.6593 0
M  V30 1473 H 144.062 -5.06788 -2.97388 0
M  V30 1474 H 145.586 -4.74146 -3.84731 0
M  V30 1475 H 147 -5.47582 -1.69785 0
M  V30 1476 H 145.397 -5.91073 -1.03693 0
M  V30 1477 H 146.467 -4.84786 -0.105041 0
M  V30 1478 N 147.81 0.181792 -1.56548 0
M  V30 1479 C 148.773 1.20894 -1.94724 0
M  V30 1480 C 149.773 1.37738 -0.829747 0
M  V30 1481 O 150.963 1.35323 -1.09697 0
M  V30 1482 C 148.095 2.57593 -2.23291 0
M  V30 1483 H 149.288 0.882275 -2.86629 0
M  V30 1484 H 146.841 0.423838 -1.50444 0
M  V30 1485 H 147.576 2.95291 -1.34067 0
M  V30 1486 H 147.361 2.46735 -3.04736 0
M  V30 1487 H 148.851 3.31637 -2.53785 0
M  V30 1488 N 149.288 1.51039 0.449983 0
M  V30 1489 C 150.238 1.67824 1.54335 0
M  V30 1490 C 151.222 0.5324 1.51836 0
M  V30 1491 O 152.414 0.787762 1.58503 0
M  V30 1492 C 149.543 1.7951 2.92628 0
M  V30 1493 C 148.629 2.99838 2.9993 0
M  V30 1494 N 149.02 4.23207 2.77001 0
M  V30 1495 C 147.318 2.98832 3.31082 0
M  V30 1496 C 148.019 5.04361 2.89818 0
M  V30 1497 N 146.995 4.38746 3.2094 0
M  V30 1498 H 150.797 2.60884 1.35339 0
M  V30 1499 H 148.311 1.48513 0.657085 0
M  V30 1500 H 150.308 1.89642 3.7127 0
M  V30 1501 H 148.968 0.876227 3.12654 0
M  V30 1502 H 149.979 4.5236 2.52172 0
M  V30 1503 H 146.656 2.16527 3.56963 0
M  V30 1504 H 148.046 6.12528 2.76151 0
M  V30 1505 N 150.766 -0.704594 1.40972 0
M  V30 1506 C 151.696 -1.83124 1.44872 0
M  V30 1507 C 152.677 -1.67281 0.30838 0
M  V30 1508 O 153.862 -1.87149 0.518556 0
M  V30 1509 C 150.992 -3.21181 1.32136 0
M  V30 1510 C 149.946 -3.51714 2.43888 0
M  V30 1511 C 149.272 -4.89032 2.16222 0
M  V30 1512 C 150.572 -3.516 3.86232 0
M  V30 1513 H 152.266 -1.80117 2.39161 0
M  V30 1514 H 149.812 -0.865145 1.15114 0
M  V30 1515 H 151.765 -3.99702 1.33479 0
M  V30 1516 H 150.489 -3.24791 0.343279 0
M  V30 1517 H 149.148 -2.75539 2.41813 0
M  V30 1518 H 148.796 -4.89256 1.16778 0
M  V30 1519 H 148.496 -5.10426 2.911 0
M  V30 1520 H 150.02 -5.69873 2.19265 0
M  V30 1521 H 151.434 -4.2014 3.9007 0
M  V30 1522 H 149.831 -3.84523 4.60719 0
M  V30 1523 H 150.901 -2.50757 4.15029 0
M  V30 1524 N 152.244 -1.26651 -0.937939 0
M  V30 1525 C 153.66 -1.03834 -1.21205 0
M  V30 1526 C 153.86 0.234502 -2.00131 0
M  V30 1527 O 152.916 0.942767 -2.3424 0
M  V30 1528 C 154.229 -2.27167 -1.97017 0
M  V30 1529 C 155.777 -2.32101 -2.09996 0
M  V30 1530 C 156.252 -3.55136 -2.8921 0
M  V30 1531 N 157.743 -3.55632 -2.96783 0
M  V30 1532 C 158.478 -4.475 -3.58512 0
M  V30 1533 N 157.974 -5.4966 -4.21717 0
M  V30 1534 N 159.767 -4.35145 -3.55816 0
M  V30 1535 H 151.918 -2.08398 -0.410391 0
M  V30 1536 H 154.181 -0.916031 -0.244114 0
M  V30 1537 H 153.887 -3.19765 -1.46434 0
M  V30 1538 H 153.761 -2.31672 -2.97671 0
M  V30 1539 H 156.148 -1.40015 -2.59769 0
M  V30 1540 H 156.229 -2.31605 -1.08594 0
M  V30 1541 H 155.873 -4.47553 -2.40123 0
M  V30 1542 H 155.803 -3.5288 -3.90875 0
M  V30 1543 H 158.294 -2.81743 -2.51852 0
M  V30 1544 H 158.607 -6.15943 -4.66727 0
M  V30 1545 H 156.952 -5.53514 -4.20294 0
M  V30 1546 H 160.143 -3.5455 -3.05634 0
M  V30 1547 H 160.316 -5.06934 -4.03636 0
M  V30 1548 N 153.722 1.14298 -1.08507 0
M  V30 1549 C 154.685 2.17607 -0.719711 0
M  V30 1550 C 155.685 1.58907 0.245997 0
M  V30 1551 O 156.875 1.74181 0.0254081 0
M  V30 1552 C 154.007 3.40842 -0.0627695 0
M  V30 1553 H 155.2 2.51443 -1.63452 0
M  V30 1554 H 152.753 1.28963 -0.88307 0
M  V30 1555 H 153.488 3.12587 0.863716 0
M  V30 1556 H 153.273 3.84713 -0.757504 0
M  V30 1557 H 154.763 4.17221 0.177786 0
M  V30 1558 N 155.201 0.870884 1.31352 0
M  V30 1559 C 156.164 0.332243 2.26779 0
M  V30 1560 C 157.164 -0.517302 1.52252 0
M  V30 1561 O 158.354 -0.326477 1.71113 0
M  V30 1562 C 155.486 -0.528066 3.36785 0
M  V30 1563 H 156.679 1.17469 2.75937 0
M  V30 1564 H 154.232 0.64655 1.423 0
M  V30 1565 H 154.967 -1.39167 2.92922 0
M  V30 1566 H 154.752 0.0802582 3.92018 0
M  V30 1567 H 156.242 -0.897179 4.07849 0
M  V30 1568 N 156.679 -1.44442 0.630414 0
M  V30 1569 C 158.09 -1.85434 0.217063 0
M  V30 1570 C 158.441 -1.52748 -1.23136 0
M  V30 1571 O 157.566 -0.965205 -1.93682 0
M  V30 1572 C 158.161 -3.36581 0.387168 0
M  V30 1573 C 156.72 -3.76389 0.0283297 0
M  V30 1574 C 155.867 -2.68296 0.700889 0
M  V30 1575 H 158.818 -1.34919 0.83562 0
M  V30 1576 H 158.839 -3.78657 -0.374086 0
M  V30 1577 H 158.351 -3.60339 1.44144 0
M  V30 1578 H 156.452 -3.58246 -1.02423 0
M  V30 1579 H 156.565 -4.77095 0.437892 0
M  V30 1580 H 154.929 -2.54335 0.136267 0
M  V30 1581 H 155.712 -2.94887 1.75774 0
M  V30 1582 N 158.157 -0.370918 -1.53173 0
M  V30 1583 C 159.397 0.217106 -2.03244 0
M  V30 1584 C 159.761 1.45558 -1.25207 0
M  V30 1585 O 160.962 2.11957 -1.65311 0
M  V30 1586 C 159.233 0.496664 -3.53932 0
M  V30 1587 S 160.792 1.0576 -4.25864 0
M  V30 1588 H 157.61 0.0627827 -0.708223 0
M  V30 1589 H 160.212 -0.515019 -1.88594 0
M  V30 1590 H 158.916 -0.412096 -4.08326 0
M  V30 1591 H 158.447 1.25772 -3.72753 0
M  V30 1592 H 160.462 2.34145 -4.37482 0
M  V30 1593 N 159.635 1.57281 -0.100228 0
M  V30 1594 C 160.583 2.15542 0.874328 0
M  V30 1595 C 161.577 1.09962 1.28859 0
M  V30 1596 O 162.783 1.28298 1.26252 0
M  V30 1597 H 159.158 0.689567 0.300003 0
M  V30 1598 H 161.129 2.96241 0.35829 0
M  V30 1599 C 159.878 2.75454 2.1218 0
M  V30 1600 H 159.201 3.56384 1.81193 0
M  V30 1601 H 160.641 3.19781 2.78417 0
M  V30 1602 C 159.1 1.71602 2.89921 0
M  V30 1603 O 159.63 1.15804 3.84646 0
M  V30 1604 N 157.836 1.41975 2.53558 0
M  V30 1605 H 157.383 1.87539 1.76598 0
M  V30 1606 H 157.341 0.727274 3.05873 0
M  V30 1607 N 161.113 -0.173488 1.56642 0
M  V30 1608 C 162.39 -0.917617 1.7274 0
M  V30 1609 C 162.77 -2.00484 0.661027 0
M  V30 1610 O 162.118 -2.26184 -0.32453 0
M  V30 1611 C 162.328 -1.48433 3.15862 0
M  V30 1612 C 163.676 -1.95809 3.76754 0
M  V30 1613 O 164.7 -1.58231 3.19126 0
M  V30 1614 O 163.559 -2.65024 4.77938 0
M  V30 1615 H 160.653 -0.431772 0.705338 0
M  V30 1616 H 163.199 -0.161487 1.6893 0
M  V30 1617 H 161.971 -0.701715 3.84957 0
M  V30 1618 H 161.594 -2.30471 3.23989 0
M  V30 1619 N 162.591 -1.51276 -0.441967 0
M  V30 1620 C 163.521 -1.752 -1.54361 0
M  V30 1621 C 164.502 -0.601682 -1.59103 0
M  V30 1622 O 165.687 -0.843913 -1.74905 0
M  V30 1623 C 162.817 -1.87282 -2.92477 0
M  V30 1624 C 161.771 -3.02687 -3.02596 0
M  V30 1625 C 161.097 -2.99947 -4.42647 0
M  V30 1626 C 162.397 -4.4273 -2.77106 0
M  V30 1627 H 164.091 -2.67442 -1.34592 0
M  V30 1628 H 161.637 -1.28694 -0.646048 0
M  V30 1629 H 163.59 -2.02602 -3.695 0
M  V30 1630 H 162.314 -0.916844 -3.13467 0
M  V30 1631 H 160.973 -2.87065 -2.28012 0
M  V30 1632 H 160.621 -2.02136 -4.60597 0
M  V30 1633 H 160.321 -3.77439 -4.50348 0
M  V30 1634 H 161.845 -3.17354 -5.2165 0
M  V30 1635 H 163.259 -4.58727 -3.43864 0
M  V30 1636 H 161.656 -5.21893 -2.96222 0
M  V30 1637 H 162.726 -4.53087 -1.72744 0
M  V30 1638 N 164.069 0.697108 -1.41344 0
M  V30 1639 C 165.019 1.80313 -1.39539 0
M  V30 1640 C 166.003 1.58618 -0.270001 0
M  V30 1641 O 167.195 1.69477 -0.510551 0
M  V30 1642 C 164.324 3.18606 -1.27848 0
M  V30 1643 C 163.41 3.46001 -2.45244 0
M  V30 1644 N 163.801 3.44103 -3.70711 0
M  V30 1645 C 162.099 3.76542 -2.39023 0
M  V30 1646 C 162.8 3.7036 -4.48563 0
M  V30 1647 N 161.776 3.90027 -3.78655 0
M  V30 1648 H 165.578 1.77207 -2.34468 0
M  V30 1649 H 163.092 0.897031 -1.35378 0
M  V30 1650 H 165.089 3.97833 -1.24637 0
M  V30 1651 H 163.749 3.22925 -0.339032 0
M  V30 1652 H 164.76 3.2452 -4.03618 0
M  V30 1653 H 161.437 3.88241 -1.53542 0
M  V30 1654 H 162.827 3.75042 -5.57488 0
M  V30 1655 N 165.547 1.27147 0.931209 0
M  V30 1656 C 166.51 1.09615 2.01289 0
M  V30 1657 C 167.51 0.0412581 1.60747 0
M  V30 1658 O 168.7 0.285545 1.71844 0
M  V30 1659 C 165.832 0.669447 3.34262 0
M  V30 1660 H 167.025 2.05662 2.18273 0
M  V30 1661 H 164.578 1.09885 1.11153 0
M  V30 1662 H 165.313 -0.292572 3.22978 0
M  V30 1663 H 165.098 1.43127 3.65044 0
M  V30 1664 H 166.588 0.568921 4.13706 0
M  V30 1665 N 167.025 -1.13721 1.09112 0
M  V30 1666 C 168.253 -1.88773 0.846899 0
M  V30 1667 C 168.668 -1.7896 -0.601572 0
M  V30 1668 O 168.025 -1.15394 -1.41388 0
M  V30 1669 C 168.076 -3.3849 1.26913 0
M  V30 1670 O 167.797 -3.48043 2.66079 0
M  V30 1671 C 169.298 -4.30518 1.05682 0
M  V30 1672 H 166.518 -0.59772 0.304914 0
M  V30 1673 H 169.062 -1.43977 1.45227 0
M  V30 1674 H 167.217 -3.80881 0.707723 0
M  V30 1675 H 167.631 -4.4109 2.83795 0
M  V30 1676 H 169.105 -5.3391 1.40156 0
M  V30 1677 H 169.582 -4.392 -0.00563416 0
M  V30 1678 H 170.188 -3.93893 1.60402 0
M  V30 1679 N 168.503 -0.877838 -1.30888 0
M  V30 1680 C 169.45 -0.337538 -2.28318 0
M  V30 1681 C 170.42 0.568346 -1.56074 0
M  V30 1682 O 171.605 0.498298 -1.84178 0
M  V30 1683 C 168.745 0.448142 -3.42178 0
M  V30 1684 C 167.858 -0.48615 -4.29256 0
M  V30 1685 C 166.993 0.314427 -5.30269 0
M  V30 1686 C 166.032 -0.615791 -6.08995 0
M  V30 1687 N 165.169 0.14902 -7.01942 0
M  V30 1688 H 170.009 -1.17356 -2.73919 0
M  V30 1689 H 167.546 -0.590094 -1.34745 0
M  V30 1690 H 169.504 0.919517 -4.06941 0
M  V30 1691 H 168.134 1.24879 -2.97666 0
M  V30 1692 H 167.186 -1.076 -3.64865 0
M  V30 1693 H 168.498 -1.19909 -4.84173 0
M  V30 1694 H 167.652 0.847969 -6.00745 0
M  V30 1695 H 166.391 1.06062 -4.76027 0
M  V30 1696 H 165.396 -1.16102 -5.37401 0
M  V30 1697 H 166.621 -1.36097 -6.65323 0
M  V30 1698 H 164.567 0.877884 -6.50099 0
M  V30 1699 H 164.484 -0.504433 -7.54315 0
M  V30 1700 H 165.752 0.663537 -7.76671 0
M  V30 1701 N 169.982 1.44106 -0.638065 0
M  V30 1702 C 170.912 2.33448 0.0494287 0
M  V30 1703 C 171.893 1.48606 0.827672 0
M  V30 1704 O 173.078 1.77308 0.792173 0
M  V30 1705 C 170.208 3.31771 1.02691 0
M  V30 1706 C 169.162 4.26485 0.359823 0
M  V30 1707 C 168.488 5.14729 1.44769 0
M  V30 1708 C 169.788 5.17056 -0.738296 0
M  V30 1709 H 171.482 2.91183 -0.696636 0
M  V30 1710 H 169.028 1.40014 -0.336456 0
M  V30 1711 H 170.981 3.93161 1.51666 0
M  V30 1712 H 169.705 2.7226 1.80395 0
M  V30 1713 H 168.364 3.66437 -0.10934 0
M  V30 1714 H 168.012 4.51566 2.21578 0
M  V30 1715 H 167.712 5.78913 1.00668 0
M  V30 1716 H 169.236 5.78991 1.93911 0
M  V30 1717 H 170.65 5.72342 -0.331354 0
M  V30 1718 H 169.047 5.89879 -1.10286 0
M  V30 1719 H 170.117 4.57652 -1.60258 0
M  V30 1720 N 171.46 0.379036 1.52974 0
M  V30 1721 C 172.423 -0.448865 2.24762 0
M  V30 1722 C 173.423 -0.998689 1.26027 0
M  V30 1723 O 174.613 -0.882313 1.50203 0
M  V30 1724 C 171.745 -1.62872 2.99476 0
M  V30 1725 H 172.938 0.179491 2.99362 0
M  V30 1726 H 170.491 0.13096 1.5575 0
M  V30 1727 H 171.226 -2.29479 2.29151 0
M  V30 1728 H 171.011 -1.24128 3.71934 0
M  V30 1729 H 172.501 -2.2151 3.5401 0
M  V30 1730 N 172.938 -1.57226 0.108567 0
M  V30 1731 C 174.349 -1.8195 -0.418464 0
M  V30 1732 C 174.7 -1.02508 -1.67292 0
M  V30 1733 O 173.825 -0.258496 -2.14851 0
M  V30 1734 C 174.42 -3.30028 -0.765979 0
M  V30 1735 C 172.979 -3.55469 -1.23769 0
M  V30 1736 C 172.126 -2.7625 -0.241106 0
M  V30 1737 H 175.077 -1.55149 0.33384 0
M  V30 1738 H 175.098 -3.44086 -1.62434 0
M  V30 1739 H 174.61 -3.87821 0.147219 0
M  V30 1740 H 172.711 -3.03022 -2.16814 0
M  V30 1741 H 172.824 -4.6408 -1.19022 0
M  V30 1742 H 171.188 -2.44133 -0.72602 0
M  V30 1743 H 171.971 -3.36797 0.665007 0
M  V30 1744 N 174.416 0.165178 -1.56732 0
M  V30 1745 C 175.664 0.879068 -1.8198 0
M  V30 1746 C 175.985 1.82514 -0.686561 0
M  V30 1747 O 175.255 1.93694 0.293146 0
M  V30 1748 H 173.835 0.327608 -0.671329 0
M  V30 1749 H 176.497 0.163526 -1.94213 0
M  V30 1750 H 175.593 1.45228 -2.76252 0
M  V30 1751 N 175.894 1.51508 0.433938 0
M  V30 1752 C 176.841 1.73068 1.52696 0
M  V30 1753 C 177.811 0.572441 1.55924 0
M  V30 1754 O 178.996 0.807253 1.72882 0
M  V30 1755 C 176.136 1.86474 2.90381 0
M  V30 1756 C 175.249 3.14037 2.96656 0
M  V30 1757 C 174.384 3.18019 4.25485 0
M  V30 1758 C 173.423 4.39882 4.2564 0
M  V30 1759 N 172.56 4.41394 5.45999 0
M  V30 1760 H 177.4 2.66366 1.33615 0
M  V30 1761 H 174.937 1.32008 0.649018 0
M  V30 1762 H 176.895 1.92229 3.70275 0
M  V30 1763 H 175.525 0.965809 3.08013 0
M  V30 1764 H 174.577 3.17575 2.09404 0
M  V30 1765 H 175.889 4.0394 2.92633 0
M  V30 1766 H 175.043 3.22708 5.13755 0
M  V30 1767 H 173.782 2.2601 4.3217 0
M  V30 1768 H 172.787 4.35366 3.35763 0
M  V30 1769 H 174.012 5.33159 4.20617 0
M  V30 1770 H 171.958 3.52258 5.53399 0
M  V30 1771 H 171.875 5.25111 5.4387 0
M  V30 1772 H 173.143 4.50281 6.36292 0
M  V30 1773 N 177.372 -0.689602 1.41712 0
M  V30 1774 C 178.282 -1.83314 1.46401 0
M  V30 1775 C 179.298 -1.7036 0.35405 0
M  V30 1776 O 180.474 -1.92171 0.602692 0
M  V30 1777 C 177.539 -3.19344 1.34982 0
M  V30 1778 C 176.6 -3.44363 2.56344 0
M  V30 1779 C 175.833 -4.73904 2.45461 0
M  V30 1780 O 176.056 -5.508 1.48241 0
M  V30 1781 O 174.99 -4.99839 3.35328 0
M  V30 1782 H 178.816 -1.82314 2.42889 0
M  V30 1783 H 176.401 -0.843438 1.23315 0
M  V30 1784 H 178.283 -4.00547 1.3092 0
M  V30 1785 H 176.958 -3.21014 0.41612 0
M  V30 1786 H 175.865 -2.63067 2.65982 0
M  V30 1787 H 177.198 -3.47512 3.48563 0
M  V30 1788 N 178.85 -1.27639 -0.924453 0
M  V30 1789 C 179.797 -1.10644 -2.0255 0
M  V30 1790 C 180.767 -0.00658438 -1.66099 0
M  V30 1791 O 181.952 -0.16952 -1.90045 0
M  V30 1792 C 179.092 -0.76309 -3.36557 0
M  V30 1793 C 178.205 -1.94091 -3.85944 0
M  V30 1794 C 177.34 -1.53914 -5.08413 0
M  V30 1795 C 176.379 -2.68425 -5.50104 0
M  V30 1796 N 175.516 -2.28815 -6.63768 0
M  V30 1797 H 180.356 -2.04858 -2.16419 0
M  V30 1798 H 177.893 -1.01974 -1.06017 0
M  V30 1799 H 179.851 -0.544822 -4.13627 0
M  V30 1800 H 178.481 0.142102 -3.22487 0
M  V30 1801 H 177.533 -2.27162 -3.05125 0
M  V30 1802 H 178.845 -2.7998 -4.12811 0
M  V30 1803 H 177.999 -1.28231 -5.92994 0
M  V30 1804 H 176.738 -0.651391 -4.8333 0
M  V30 1805 H 175.743 -2.94819 -4.64071 0
M  V30 1806 H 176.968 -3.57826 -5.7718 0
M  V30 1807 H 174.914 -1.42495 -6.40337 0
M  V30 1808 H 174.831 -3.08242 -6.90306 0
M  V30 1809 H 176.099 -2.06387 -7.51681 0
M  V30 1810 N 180.328 1.1314 -1.09713 0
M  V30 1811 C 181.238 2.22242 -0.751367 0
M  V30 1812 C 182.254 1.72224 0.247938 0
M  V30 1813 O 183.43 2.01205 0.0885463 0
M  V30 1814 C 180.495 3.46231 -0.180274 0
M  V30 1815 C 179.556 4.11125 -1.2359 0
M  V30 1816 C 178.789 5.29195 -0.691966 0
M  V30 1817 O 179.012 5.68342 0.48414 0
M  V30 1818 O 177.946 5.84214 -1.44838 0
M  V30 1819 H 181.772 2.54197 -1.66186 0
M  V30 1820 H 179.357 1.21331 -0.871735 0
M  V30 1821 H 181.239 4.21185 0.134739 0
M  V30 1822 H 179.914 3.1597 0.703185 0
M  V30 1823 H 178.821 3.37985 -1.60366 0
M  V30 1824 H 180.154 4.45524 -2.09211 0
M  V30 1825 N 181.806 0.884767 1.30421 0
M  V30 1826 C 183.217 0.553656 1.78302 0
M  V30 1827 C 183.568 -0.930153 1.7275 0
M  V30 1828 O 182.693 -1.72681 1.30423 0
M  V30 1829 C 183.288 0.998234 3.2376 0
M  V30 1830 C 181.847 0.71854 3.69478 0
M  V30 1831 C 180.994 1.18132 2.50879 0
M  V30 1832 H 183.945 1.06901 1.17294 0
M  V30 1833 H 183.966 0.327118 3.79091 0
M  V30 1834 H 183.478 2.0782 3.27769 0
M  V30 1835 H 181.579 -0.349444 3.70958 0
M  V30 1836 H 181.692 1.30595 4.60958 0
M  V30 1837 H 180.056 0.600669 2.47516 0
M  V30 1838 H 180.839 2.26902 2.57624 0
M  V30 1839 N 183.284 -1.43765 0.645699 0
M  V30 1840 C 184.214 -2.33471 -0.0370477 0
M  V30 1841 C 185.195 -1.49042 -0.819779 0
M  V30 1842 O 186.38 -1.77726 -0.782758 0
M  V30 1843 C 183.51 -3.32311 -1.0093 0
M  V30 1844 C 182.464 -4.2667 -0.337201 0
M  V30 1845 C 181.79 -5.1549 -1.42037 0
M  V30 1846 C 183.09 -5.16657 0.765706 0
M  V30 1847 H 184.784 -2.90809 0.712069 0
M  V30 1848 H 182.33 -1.39834 0.343876 0
M  V30 1849 H 184.283 -3.9396 -1.49578 0
M  V30 1850 H 183.007 -2.73213 -1.78948 0
M  V30 1851 H 181.666 -3.66374 0.128771 0
M  V30 1852 H 181.314 -4.52735 -2.1918 0
M  V30 1853 H 181.014 -5.79438 -0.975966 0
M  V30 1854 H 182.538 -5.80012 -1.90838 0
M  V30 1855 H 183.952 -5.72158 0.361702 0
M  V30 1856 H 182.349 -5.89286 1.13413 0
M  V30 1857 H 183.419 -4.56796 1.62683 0
M  V30 1858 N 184.763 -0.387143 -1.52771 0
M  V30 1859 C 185.673 0.456442 -2.30117 0
M  V30 1860 C 186.689 1.07342 -1.36944 0
M  V30 1861 O 187.865 1.07971 -1.70013 0
M  V30 1862 C 184.93 1.56957 -3.09136 0
M  V30 1863 C 183.991 0.977916 -4.18014 0
M  V30 1864 C 183.224 2.038 -4.93256 0
M  V30 1865 O 183.447 3.25271 -4.68567 0
M  V30 1866 O 182.381 1.6565 -5.78657 0
M  V30 1867 H 186.207 -0.17359 -3.03203 0
M  V30 1868 H 183.792 -0.150919 -1.48636 0
M  V30 1869 H 185.674 2.21628 -3.58412 0
M  V30 1870 H 184.349 2.18461 -2.38865 0
M  V30 1871 H 183.256 0.294525 -3.72939 0
M  V30 1872 H 184.589 0.407128 -4.90513 0
M  V30 1873 N 186.241 1.57166 -0.116904 0
M  V30 1874 C 187.466 1.999 0.55271 0
M  V30 1875 C 187.891 0.996039 1.59564 0
M  V30 1876 O 187.249 -0.032556 1.81271 0
M  V30 1877 C 187.297 3.4152 1.15742 0
M  V30 1878 O 186.401 3.44106 2.27299 0
M  V30 1879 H 185.742 0.649447 0.138258 0
M  V30 1880 H 188.272 2.03573 -0.204759 0
M  V30 1881 H 188.282 3.79684 1.49346 0
M  V30 1882 H 186.957 4.14034 0.393493 0
M  V30 1883 H 185.534 3.17759 1.9515 0
M  V30 1884 N 187.719 -0.156864 1.56817 0
M  V30 1885 C 188.651 -1.21883 1.94106 0
M  V30 1886 C 189.664 -1.3971 0.835754 0
M  V30 1887 O 190.853 -1.39457 1.11418 0
M  V30 1888 C 187.953 -2.58527 2.19127 0
M  V30 1889 C 187.126 -2.61809 3.50393 0
M  V30 1890 C 186.185 -3.7992 3.64071 0
M  V30 1891 O 185.211 -3.65249 4.36557 0
M  V30 1892 N 186.413 -4.96973 2.99997 0
M  V30 1893 H 189.178 -0.901974 2.85805 0
M  V30 1894 H 186.739 -0.346513 1.58148 0
M  V30 1895 H 188.731 -3.36034 2.25529 0
M  V30 1896 H 187.301 -2.82545 1.33742 0
M  V30 1897 H 186.521 -1.7029 3.5552 0
M  V30 1898 H 187.809 -2.61024 4.36742 0
M  V30 1899 H 187.207 -5.11794 2.41004 0
M  V30 1900 H 185.764 -5.7229 3.11974 0
M  V30 1901 N 189.197 -1.51736 -0.425897 0
M  V30 1902 C 190.427 -1.68549 -1.19476 0
M  V30 1903 C 190.835 -0.387288 -1.85194 0
M  V30 1904 O 190.178 0.645142 -1.71999 0
M  V30 1905 C 190.24 -2.75275 -2.31223 0
M  V30 1906 C 189.904 -4.17534 -1.8578 0
M  V30 1907 C 190.901 -5.01936 -1.35485 0
M  V30 1908 C 188.586 -4.6369 -1.93123 0
M  V30 1909 C 190.58 -6.30559 -0.931347 0
M  V30 1910 C 188.267 -5.92307 -1.50384 0
M  V30 1911 C 189.265 -6.75569 -1.00473 0
M  V30 1912 O 188.953 -8.0178 -0.583452 0
M  V30 1913 H 188.685 -0.568525 -0.365725 0
M  V30 1914 H 191.239 -1.98982 -0.509444 0
M  V30 1915 H 189.469 -2.40182 -3.03067 0
M  V30 1916 H 191.158 -2.80853 -2.93047 0
M  V30 1917 H 191.924 -4.67475 -1.29197 0
M  V30 1918 H 187.803 -3.98997 -2.30916 0
M  V30 1919 H 191.347 -6.95498 -0.541084 0
M  V30 1920 H 187.244 -6.2628 -1.56346 0
M  V30 1921 H 188.012 -8.1543 -0.708275 0
M  V30 1922 N 190.675 0.682077 -1.42076 0
M  V30 1923 C 191.607 1.80755 -1.40926 0
M  V30 1924 C 192.62 1.59833 -0.309398 0
M  V30 1925 O 193.809 1.69087 -0.572014 0
M  V30 1926 C 190.909 3.17744 -1.17865 0
M  V30 1927 C 190.082 3.65578 -2.40149 0
M  V30 1928 C 189.141 4.81277 -2.12742 0
M  V30 1929 O 188.167 4.92197 -2.85887 0
M  V30 1930 N 189.369 5.69474 -1.12602 0
M  V30 1931 H 192.134 1.82229 -2.37935 0
M  V30 1932 H 189.695 0.864903 -1.36861 0
M  V30 1933 H 191.687 3.9279 -0.9746 0
M  V30 1934 H 190.257 3.11214 -0.294068 0
M  V30 1935 H 189.477 2.81291 -2.76169 0
M  V30 1936 H 190.765 3.94278 -3.21593 0
M  V30 1937 H 190.163 5.63297 -0.520899 0
M  V30 1938 H 188.72 6.44363 -0.981842 0
M  V30 1939 N 192.153 1.28127 0.917671 0
M  V30 1940 C 193.399 1.15223 1.66888 0
M  V30 1941 C 193.732 -0.299293 1.9188 0
M  V30 1942 O 193.007 -1.21805 1.51637 0
M  V30 1943 C 193.29 1.94706 3.02922 0
M  V30 1944 C 193.143 3.47898 2.85109 0
M  V30 1945 C 194.462 1.75939 4.03402 0
M  V30 1946 H 191.581 0.419946 0.605652 0
M  V30 1947 H 194.223 1.57398 1.06423 0
M  V30 1948 H 192.373 1.58864 3.54534 0
M  V30 1949 H 194.045 3.93624 2.40537 0
M  V30 1950 H 192.288 3.7373 2.20246 0
M  V30 1951 H 192.959 3.98765 3.81694 0
M  V30 1952 H 195.435 2.07209 3.60837 0
M  V30 1953 H 194.311 2.33931 4.96556 0
M  V30 1954 H 194.572 0.709877 4.36364 0
M  V30 1955 N 193.631 -1.12557 1.10312 0
M  V30 1956 C 194.879 -1.83675 0.843091 0
M  V30 1957 C 195.2 -1.84435 -0.633131 0
M  V30 1958 O 194.47 -1.30657 -1.45964 0
M  V30 1959 H 193.05 -0.680138 0.308904 0
M  V30 1960 H 195.712 -1.36301 1.39313 0
M  V30 1961 H 194.808 -2.87908 1.2048 0
M  V30 1962 N 195.109 -0.891671 -1.2995 0
M  V30 1963 C 196.52 -0.563104 -1.78006 0
M  V30 1964 C 196.871 0.920978 -1.73241 0
M  V30 1965 O 195.996 1.71987 -1.31337 0
M  V30 1966 C 196.591 -1.01539 -3.23226 0
M  V30 1967 C 195.15 -0.738124 -3.69092 0
M  V30 1968 C 194.297 -1.19461 -2.50249 0
M  V30 1969 H 197.248 -1.07522 -1.16725 0
M  V30 1970 H 197.269 -0.347217 -3.78912 0
M  V30 1971 H 196.781 -2.09555 -3.26662 0
M  V30 1972 H 194.882 0.329766 -3.71138 0
M  V30 1973 H 194.995 -1.33037 -4.60259 0
M  V30 1974 H 193.359 -0.613787 -2.47194 0
M  V30 1975 H 194.142 -2.28265 -2.56417 0
M  V30 1976 N 196.587 1.43421 -0.653314 0
M  V30 1977 C 197.517 2.33487 0.0246656 0
M  V30 1978 C 198.498 1.49475 0.811863 0
M  V30 1979 O 199.683 1.78139 0.773322 0
M  V30 1980 C 196.813 3.32841 0.99166 0
M  V30 1981 C 195.767 4.26842 0.314568 0
M  V30 1982 C 195.093 5.16236 1.39302 0
M  V30 1983 C 196.393 5.16243 -0.793095 0
M  V30 1984 H 198.087 2.90427 -0.727481 0
M  V30 1985 H 195.633 1.39649 -0.351287 0
M  V30 1986 H 197.586 3.94747 1.47487 0
M  V30 1987 H 196.31 2.74158 1.77497 0
M  V30 1988 H 194.969 3.663 -0.148199 0
M  V30 1989 H 194.617 4.53891 2.16776 0
M  V30 1990 H 194.317 5.79948 0.945223 0
M  V30 1991 H 195.841 5.81015 1.87759 0
M  V30 1992 H 197.255 5.71958 -0.392039 0
M  V30 1993 H 195.652 5.88676 -1.16536 0
M  V30 1994 H 196.722 4.55927 -1.65103 0
M  V30 1995 N 198.065 0.39524 1.52563 0
M  V30 1996 C 198.995 -0.428384 2.29537 0
M  V30 1997 C 199.976 -1.05831 1.33169 0
M  V30 1998 O 201.161 -1.06995 1.62067 0
M  V30 1999 C 198.291 -1.55274 3.10656 0
M  V30 2000 C 197.245 -1.04855 4.14957 0
M  V30 2001 C 196.571 -2.26543 4.84337 0
M  V30 2002 C 197.871 -0.112324 5.22179 0
M  V30 2003 H 199.565 0.213867 2.98635 0
M  V30 2004 H 197.111 0.104298 1.43622 0
M  V30 2005 H 199.064 -2.1358 3.63265 0
M  V30 2006 H 197.788 -2.22266 2.39302 0
M  V30 2007 H 196.447 -0.487985 3.63338 0
M  V30 2008 H 196.095 -2.92059 4.09525 0
M  V30 2009 H 195.795 -1.93466 5.54837 0
M  V30 2010 H 197.319 -2.85481 5.39753 0
M  V30 2011 H 198.733 -0.603752 5.70112 0
M  V30 2012 H 197.13 0.128968 5.99961 0
M  V30 2013 H 198.2 0.837052 4.77621 0
M  V30 2014 N 199.544 -1.57102 0.125237 0
M  V30 2015 C 200.792 -1.95021 -0.530198 0
M  V30 2016 C 201.113 -1.00982 -1.66816 0
M  V30 2017 O 200.383 -0.0672693 -1.95784 0
M  V30 2018 H 198.963 -0.720046 -0.198853 0
M  V30 2019 H 201.625 -1.93916 0.19564 0
M  V30 2020 H 200.721 -2.98211 -0.920681 0
M  V30 2021 N 201.022 0.148545 -1.56898 0
M  V30 2022 C 202.247 0.880385 -1.87787 0
M  V30 2023 C 202.672 1.74018 -0.714093 0
M  V30 2024 O 202.03 1.78153 0.336343 0
M  V30 2025 C 202.078 1.71422 -3.17249 0
M  V30 2026 O 201.182 2.8183 -3.01074 0
M  V30 2027 H 200.523 0.245301 -0.617028 0
M  V30 2028 H 203.053 0.139826 -2.04122 0
M  V30 2029 H 203.063 2.10954 -3.49231 0
M  V30 2030 H 201.738 1.08284 -4.01556 0
M  V30 2031 H 200.315 2.45715 -2.80497 0
M  V30 2032 N 202.5 1.5196 0.417844 0
M  V30 2033 C 203.748 1.65263 1.16329 0
M  V30 2034 C 204.069 0.380634 1.91249 0
M  V30 2035 O 203.339 -0.604214 1.86349 0
M  V30 2036 H 201.919 0.60912 0.432414 0
M  V30 2037 H 204.581 1.88969 0.477162 0
M  V30 2038 H 203.677 2.4896 1.88217 0
M  V30 2039 N 203.978 -0.674533 1.42435 0
M  V30 2040 C 205.226 -1.43175 1.42637 0
M  V30 2041 C 205.547 -1.94951 0.0438992 0
M  V30 2042 O 204.817 -1.7308 -0.917607 0
M  V30 2043 H 203.397 -0.531307 0.525092 0
M  V30 2044 H 206.059 -0.797006 1.77859 0
M  V30 2045 H 205.155 -2.28463 2.12629 0
M  V30 2046 N 205.456 -1.28612 -0.910864 0
M  V30 2047 C 206.703 -1.15934 -1.66029 0
M  V30 2048 C 207.031 0.291483 -1.92303 0
M  V30 2049 O 206.286 1.22816 -1.52364 0
M  V30 2050 C 206.585 -1.90624 -3.0232 0
M  V30 2051 C 206.251 -3.40405 -2.95695 0
M  V30 2052 C 204.913 -3.81255 -2.93595 0
M  V30 2053 C 207.265 -4.359 -2.85728 0
M  V30 2054 C 204.593 -5.15936 -2.79334 0
M  V30 2055 C 206.945 -5.70657 -2.73007 0
M  V30 2056 C 205.609 -6.10779 -2.69267 0
M  V30 2057 H 204.879 -0.424234 -0.607541 0
M  V30 2058 H 207.526 -1.5942 -1.06101 0
M  V30 2059 H 205.831 -1.39696 -3.6605 0
M  V30 2060 H 207.528 -1.78228 -3.59215 0
M  V30 2061 H 204.118 -3.07927 -2.98125 0
M  V30 2062 H 208.302 -4.053 -2.86436 0
M  V30 2063 H 203.558 -5.46146 -2.74835 0
M  V30 2064 H 207.732 -6.44311 -2.64264 0
M  V30 2065 H 205.359 -7.1509 -2.57974 0
M  V30 2066 N 206.934 1.1197 -1.10907 0
M  V30 2067 C 208.182 1.83225 -0.852819 0
M  V30 2068 C 208.503 1.84769 0.623341 0
M  V30 2069 O 207.773 1.3143 1.45269 0
M  V30 2070 H 206.353 0.67849 -0.312507 0
M  V30 2071 H 209.015 1.3556 -1.40033 0
M  V30 2072 H 208.111 2.87265 -1.22005 0
M  V30 2073 N 208.412 0.89855 1.29475 0
M  V30 2074 C 209.637 0.538561 2.00285 0
M  V30 2075 C 210.062 -0.869135 1.66816 0
M  V30 2076 O 209.42 -1.57831 0.892145 0
M  V30 2077 C 209.468 0.736475 3.52999 0
M  V30 2078 O 208.572 -0.211537 4.11857 0
M  V30 2079 H 207.913 0.210563 0.62973 0
M  V30 2080 H 210.443 1.20982 1.64998 0
M  V30 2081 H 210.453 0.640685 4.02938 0
M  V30 2082 H 209.128 1.76276 3.76696 0
M  V30 2083 H 207.705 -0.0682991 3.72837 0
M  V30 2084 N 209.89 -1.43072 0.660911 0
M  V30 2085 C 211.136 -2.0202 0.177708 0
M  V30 2086 C 211.469 -1.52066 -1.20787 0
M  V30 2087 O 210.744 -0.716987 -1.80802 0
M  V30 2088 C 211.027 -3.59561 0.197019 0
M  V30 2089 C 210.88 -4.19727 1.61706 0
M  V30 2090 C 212.199 -4.37664 -0.462396 0
M  V30 2091 H 209.318 -0.734034 0.0660494 0
M  V30 2092 H 211.96 -1.70272 0.843058 0
M  V30 2093 H 210.11 -3.86739 -0.369527 0
M  V30 2094 H 211.782 -4.03553 2.23479 0
M  V30 2095 H 210.025 -3.76084 2.16201 0
M  V30 2096 H 210.696 -5.28834 1.58237 0
M  V30 2097 H 213.172 -4.16095 0.0197215 0
M  V30 2098 H 212.048 -5.47305 -0.418188 0
M  V30 2099 H 212.309 -4.14493 -1.53778 0
M  V30 2100 N 211.368 -0.403325 -1.52352 0
M  V30 2101 C 212.598 0.17376 -2.05868 0
M  V30 2102 C 213.006 1.39898 -1.27378 0
M  V30 2103 O 212.349 1.80939 -0.31729 0
M  V30 2104 C 212.411 0.594756 -3.54546 0
M  V30 2105 C 212.075 -0.518926 -4.54044 0
M  V30 2106 C 213.072 -1.3807 -5.01231 0
M  V30 2107 C 210.757 -0.689961 -4.97539 0
M  V30 2108 C 212.751 -2.39852 -5.90551 0
M  V30 2109 C 210.438 -1.71109 -5.86656 0
M  V30 2110 C 211.436 -2.56378 -6.33056 0
M  V30 2111 O 211.124 -3.56743 -7.20409 0
M  V30 2112 H 210.856 0.0264951 -0.675481 0
M  V30 2113 H 213.41 -0.571179 -1.97299 0
M  V30 2114 H 211.64 1.39189 -3.60782 0
M  V30 2115 H 213.329 1.0991 -3.90736 0
M  V30 2116 H 214.095 -1.25994 -4.68349 0
M  V30 2117 H 209.974 -0.035939 -4.60986 0
M  V30 2118 H 213.518 -3.06441 -6.26689 0
M  V30 2119 H 209.415 -1.83218 -6.18952 0
M  V30 2120 H 210.183 -3.52918 -7.38506 0
M  V30 2121 N 212.846 1.57033 -0.133567 0
M  V30 2122 C 214.071 2.00475 0.531477 0
M  V30 2123 C 214.496 1.01291 1.58499 0
M  V30 2124 O 213.854 -0.0133279 1.81295 0
M  V30 2125 C 213.902 3.42729 1.12113 0
M  V30 2126 O 213.006 3.46498 2.23636 0
M  V30 2127 H 212.347 0.650876 0.131362 0
M  V30 2128 H 214.877 2.03344 -0.22634 0
M  V30 2129 H 214.887 3.81246 1.4531 0
M  V30 2130 H 213.562 4.14428 0.349557 0
M  V30 2131 H 212.139 3.19811 1.91769 0
M  V30 2132 N 214.325 -0.140222 1.56975 0
M  V30 2133 C 215.573 -0.850005 1.83356 0
M  V30 2134 C 215.894 -1.81399 0.71551 0
M  V30 2135 O 215.164 -1.94136 -0.262294 0
M  V30 2136 H 213.744 -0.316886 0.676456 0
M  V30 2137 H 216.406 -0.132608 1.94448 0
M  V30 2138 H 215.502 -1.40814 2.78528 0
M  V30 2139 N 215.803 -1.52179 -0.40978 0
M  V30 2140 C 217.052 -1.65434 -1.15388 0
M  V30 2141 C 217.365 -0.390056 -1.91671 0
M  V30 2142 O 218.571 -0.402399 -2.68501 0
M  V30 2143 C 217.027 -2.92279 -2.10003 0
M  V30 2144 C 216.635 -4.25813 -1.39239 0
M  V30 2145 C 218.379 -3.14897 -2.84675 0
M  V30 2146 C 216.286 -5.43782 -2.32498 0
M  V30 2147 H 215.216 -0.616267 -0.434432 0
M  V30 2148 H 217.867 -1.78666 -0.418401 0
M  V30 2149 H 216.249 -2.72744 -2.871 0
M  V30 2150 H 217.423 -4.55828 -0.675099 0
M  V30 2151 H 215.738 -4.09292 -0.766097 0
M  V30 2152 H 218.335 -4.0021 -3.54593 0
M  V30 2153 H 218.678 -2.29103 -3.47588 0
M  V30 2154 H 219.211 -3.34901 -2.14677 0
M  V30 2155 H 215.95 -6.3192 -1.74233 0
M  V30 2156 H 215.47 -5.18106 -3.02201 0
M  V30 2157 H 217.149 -5.76834 -2.93038 0
M  V30 2158 N 217.281 0.66697 -1.42791 0
M  V30 2159 C 218.697 0.981027 -1.25889 0
M  V30 2160 C 218.897 2.00793 -0.168695 0
M  V30 2161 O 217.953 2.48321 0.45747 0
M  V30 2162 C 219.266 1.47838 -2.61848 0
M  V30 2163 C 220.814 1.59575 -2.69267 0
M  V30 2164 C 221.289 2.12704 -4.05612 0
M  V30 2165 N 222.78 2.20026 -4.07606 0
M  V30 2166 C 223.515 2.62227 -5.09926 0
M  V30 2167 N 223.011 3.03824 -6.22626 0
M  V30 2168 N 224.804 2.62045 -4.97281 0
M  V30 2169 H 216.955 -0.0127891 -2.12396 0
M  V30 2170 H 219.218 0.0568258 -0.946295 0
M  V30 2171 H 218.924 0.798299 -3.4252 0
M  V30 2172 H 218.798 2.45579 -2.86305 0
M  V30 2173 H 221.185 2.26687 -1.88936 0
M  V30 2174 H 221.266 0.60302 -2.48591 0
M  V30 2175 H 220.91 1.46198 -4.86404 0
M  V30 2176 H 220.84 3.12782 -4.23645 0
M  V30 2177 H 223.331 1.90708 -3.2625 0
M  V30 2178 H 223.644 3.34734 -6.96544 0
M  V30 2179 H 221.989 3.01662 -6.26119 0
M  V30 2180 H 225.18 2.28916 -4.08308 0
M  V30 2181 H 225.353 2.94613 -5.77154 0
M  V30 2182 N 218.759 1.29093 0.90403 0
M  V30 2183 C 220.005 1.16986 1.65656 0
M  V30 2184 C 220.338 -0.278925 1.92186 0
M  V30 2185 O 219.613 -1.2019 1.5292 0
M  V30 2186 C 219.896 1.97908 3.0084 0
M  V30 2187 C 219.749 3.50903 2.81403 0
M  V30 2188 C 221.068 1.80208 4.01513 0
M  V30 2189 H 218.187 0.426346 0.601164 0
M  V30 2190 H 220.829 1.58518 1.04747 0
M  V30 2191 H 218.979 1.62616 3.52829 0
M  V30 2192 H 220.651 3.96153 2.36348 0
M  V30 2193 H 218.894 3.76045 2.1627 0
M  V30 2194 H 219.565 4.02791 3.77443 0
M  V30 2195 H 222.041 2.11025 3.58619 0
M  V30 2196 H 220.917 2.39184 4.94047 0
M  V30 2197 H 221.178 0.756119 4.35586 0
M  V30 2198 N 220.237 -1.11381 1.11499 0
M  V30 2199 C 221.462 -1.87475 0.887019 0
M  V30 2200 C 221.887 -1.79639 -0.557796 0
M  V30 2201 O 221.245 -1.15924 -1.39396 0
M  V30 2202 C 221.293 -3.34213 1.35403 0
M  V30 2203 O 220.397 -4.0903 0.526146 0
M  V30 2204 H 219.738 -0.582099 0.319463 0
M  V30 2205 H 222.268 -1.40785 1.48461 0
M  V30 2206 H 222.278 -3.8506 1.34881 0
M  V30 2207 H 220.953 -3.39232 2.40612 0
M  V30 2208 H 219.53 -3.68082 0.597522 0
M  V30 2209 N 221.715 -0.905404 -1.28997 0
M  V30 2210 C 222.992 -0.453513 -1.9027 0
M  V30 2211 C 223.372 1.06721 -1.82137 0
M  V30 2212 O 222.72 1.91159 -1.25182 0
M  V30 2213 C 222.93 -0.974494 -3.35119 0
M  V30 2214 C 224.278 -1.0216 -4.12127 0
M  V30 2215 O 225.302 -0.922557 -3.44046 0
M  V30 2216 O 224.161 -1.17121 -5.33802 0
M  V30 2217 H 221.255 -0.142347 -0.814657 0
M  V30 2218 H 223.801 -0.995642 -1.37423 0
M  V30 2219 H 222.573 -2.01848 -3.35221 0
M  V30 2220 H 222.196 -0.412706 -3.95452 0
M  V30 2221 N 223.193 1.4272 -0.668489 0
M  V30 2222 C 224.141 2.32586 0.0254857 0
M  V30 2223 C 225.135 1.49471 0.797176 0
M  V30 2224 O 226.341 1.65583 0.705853 0
M  V30 2225 H 222.716 0.751514 0.0270339 0
M  V30 2226 H 224.687 2.88823 -0.749936 0
M  V30 2227 C 223.436 3.3397 0.967427 0
M  V30 2228 H 222.759 3.97961 0.383048 0
M  V30 2229 H 224.199 3.9945 1.42181 0
M  V30 2230 C 222.658 2.65744 2.0708 0
M  V30 2231 O 223.188 2.48454 3.15648 0
M  V30 2232 N 221.394 2.2487 1.8407 0
M  V30 2233 H 220.941 2.39132 0.95778 0
M  V30 2234 H 220.899 1.79552 2.58086 0
M  V30 2235 N 224.671 0.411399 1.52136 0
M  V30 2236 C 225.601 -0.404015 2.29978 0
M  V30 2237 C 226.582 -1.04412 1.34284 0
M  V30 2238 O 227.767 -1.0527 1.63192 0
M  V30 2239 C 224.897 -1.5197 3.12286 0
M  V30 2240 C 223.851 -1.00448 4.16046 0
M  V30 2241 C 223.177 -2.21393 4.86712 0
M  V30 2242 C 224.477 -0.0569336 5.22269 0
M  V30 2243 H 226.171 0.245529 2.98392 0
M  V30 2244 H 223.717 0.119525 1.43503 0
M  V30 2245 H 225.67 -2.09715 3.6551 0
M  V30 2246 H 224.394 -2.19716 2.41646 0
M  V30 2247 H 223.053 -0.449421 3.63835 0
M  V30 2248 H 222.701 -2.87699 4.12599 0
M  V30 2249 H 222.401 -1.87571 5.56858 0
M  V30 2250 H 223.925 -2.7974 5.4275 0
M  V30 2251 H 225.339 -0.54325 5.7072 0
M  V30 2252 H 223.736 0.192594 5.99791 0
M  V30 2253 H 224.806 0.887663 4.76706 0
M  V30 2254 N 226.149 -1.5696 0.141893 0
M  V30 2255 C 227.56 -1.82797 -0.379776 0
M  V30 2256 C 227.911 -1.06033 -1.6508 0
M  V30 2257 O 227.036 -0.304011 -2.14254 0
M  V30 2258 C 227.631 -3.31578 -0.695802 0
M  V30 2259 C 226.19 -3.58014 -1.16201 0
M  V30 2260 C 225.337 -2.76699 -0.182455 0
M  V30 2261 H 228.288 -1.54406 0.366675 0
M  V30 2262 H 228.309 -3.47454 -1.55099 0
M  V30 2263 H 227.821 -3.87421 0.229449 0
M  V30 2264 H 225.922 -3.07553 -2.10338 0
M  V30 2265 H 226.035 -4.66501 -1.09151 0
M  V30 2266 H 224.399 -2.45618 -0.674072 0
M  V30 2267 H 225.182 -3.35311 0.736297 0
M  V30 2268 N 227.627 0.131896 -1.57047 0
M  V30 2269 C 228.873 0.843179 -1.84441 0
M  V30 2270 C 229.206 1.80129 -0.725749 0
M  V30 2271 O 228.481 1.92624 0.269469 0
M  V30 2272 C 228.764 1.60442 -3.22382 0
M  V30 2273 C 228.617 0.666782 -4.4483 0
M  V30 2274 C 229.936 2.56354 -3.5773 0
M  V30 2275 H 227.055 0.305081 -0.670891 0
M  V30 2276 H 229.697 0.107839 -1.89694 0
M  V30 2277 H 227.847 2.23128 -3.18035 0
M  V30 2278 H 229.519 0.0497646 -4.61273 0
M  V30 2279 H 227.762 -0.022609 -4.33794 0
M  V30 2280 H 228.433 1.23579 -5.37989 0
M  V30 2281 H 230.909 2.0378 -3.62785 0
M  V30 2282 H 229.785 3.06657 -4.5525 0
M  V30 2283 H 230.046 3.38419 -2.84473 0
M  V30 2284 N 229.106 1.52395 0.401703 0
M  V30 2285 C 230.069 1.75636 1.47257 0
M  V30 2286 C 231.069 0.62628 1.48103 0
M  V30 2287 O 232.259 0.894227 1.49497 0
M  V30 2288 C 229.391 1.84553 2.86624 0
M  V30 2289 H 230.584 2.71241 1.27938 0
M  V30 2290 H 228.137 1.42923 0.632662 0
M  V30 2291 H 228.872 0.908882 3.11303 0
M  V30 2292 H 228.657 2.66715 2.87412 0
M  V30 2293 H 230.147 2.04251 3.64241 0
M  V30 2294 N 230.584 -0.659388 1.43143 0
M  V30 2295 C 231.833 -1.41518 1.43721 0
M  V30 2296 C 232.146 -1.95499 0.0628176 0
M  V30 2297 O 233.352 -2.71446 -0.0539683 0
M  V30 2298 C 231.808 -2.5608 2.52885 0
M  V30 2299 C 231.416 -2.08733 3.96402 0
M  V30 2300 C 233.16 -3.3349 2.62649 0
M  V30 2301 C 231.067 -3.20469 4.97045 0
M  V30 2302 H 229.997 -0.531705 0.534608 0
M  V30 2303 H 232.648 -0.712343 1.69109 0
M  V30 2304 H 231.03 -3.28805 2.20688 0
M  V30 2305 H 232.204 -1.43059 4.3803 0
M  V30 2306 H 230.519 -1.44219 3.90627 0
M  V30 2307 H 233.116 -4.16734 3.35017 0
M  V30 2308 H 233.459 -3.8111 1.67513 0
M  V30 2309 H 233.992 -2.67842 2.94118 0
M  V30 2310 H 230.731 -2.77824 5.93712 0
M  V30 2311 H 230.251 -3.84874 4.60034 0
M  V30 2312 H 231.93 -3.85698 5.19467 0
M  V30 2313 N 232.062 -1.29571 -0.897171 0
M  V30 2314 C 233.009 -1.14916 -2.00158 0
M  V30 2315 C 233.979 -0.0418149 -1.66047 0
M  V30 2316 O 235.164 -0.209793 -1.89643 0
M  V30 2317 C 232.304 -0.834307 -3.34863 0
M  V30 2318 C 231.417 -2.02234 -3.8174 0
M  V30 2319 C 230.552 -1.64664 -5.05034 0
M  V30 2320 C 229.591 -2.80033 -5.44286 0
M  V30 2321 N 228.728 -2.42843 -6.58765 0
M  V30 2322 H 233.568 -2.09403 -2.12025 0
M  V30 2323 H 231.105 -1.042 -1.0383 0
M  V30 2324 H 233.063 -0.632436 -4.12379 0
M  V30 2325 H 231.693 0.0736656 -3.22716 0
M  V30 2326 H 230.745 -2.33583 -3.00238 0
M  V30 2327 H 232.057 -2.88673 -4.06779 0
M  V30 2328 H 231.211 -1.4078 -5.9014 0
M  V30 2329 H 229.95 -0.753766 -4.8184 0
M  V30 2330 H 228.955 -3.04596 -4.57713 0
M  V30 2331 H 230.18 -3.69989 -5.6946 0
M  V30 2332 H 228.126 -1.56046 -6.3717 0
M  V30 2333 H 228.043 -3.22815 -6.83613 0
M  V30 2334 H 229.311 -2.22285 -7.47134 0
M  V30 2335 N 233.54 1.10788 -1.12088 0
M  V30 2336 C 234.49 2.15158 -0.754401 0
M  V30 2337 C 235.474 1.59026 0.244846 0
M  V30 2338 O 236.666 1.76927 0.0509097 0
M  V30 2339 C 233.795 3.42677 -0.206657 0
M  V30 2340 C 232.881 4.05751 -1.23398 0
M  V30 2341 N 233.272 4.43582 -2.43041 0
M  V30 2342 C 231.57 4.32764 -1.07848 0
M  V30 2343 C 232.271 4.93085 -3.08613 0
M  V30 2344 N 231.247 4.89664 -2.36072 0
M  V30 2345 H 235.049 2.42195 -1.6649 0
M  V30 2346 H 232.563 1.27872 -1.00112 0
M  V30 2347 H 234.56 4.16834 0.0740646 0
M  V30 2348 H 233.22 3.17101 0.698342 0
M  V30 2349 H 234.231 4.35395 -2.80449 0
M  V30 2350 H 230.908 4.16863 -0.230483 0
M  V30 2351 H 232.298 5.31933 -4.10483 0
M  V30 2352 N 235.018 0.912232 1.28515 0
M  V30 2353 C 236.264 0.545405 1.95328 0
M  V30 2354 C 236.597 -0.908313 1.71649 0
M  V30 2355 O 235.872 -1.64575 1.03659 0
M  V30 2356 C 236.155 0.853483 3.4984 0
M  V30 2357 C 236.008 2.35982 3.82926 0
M  V30 2358 C 237.327 0.348589 4.38717 0
M  V30 2359 H 234.446 0.199626 0.709449 0
M  V30 2360 H 237.088 1.1412 1.5191 0
M  V30 2361 H 235.238 0.34643 3.86952 0
M  V30 2362 H 236.91 2.93738 3.55691 0
M  V30 2363 H 235.153 2.81543 3.30024 0
M  V30 2364 H 235.824 2.52593 4.90816 0
M  V30 2365 H 238.3 0.78294 4.08668 0
M  V30 2366 H 237.176 0.593242 5.45685 0
M  V30 2367 H 237.437 -0.751049 4.35674 0
M  V30 2368 N 236.496 -1.42363 0.676048 0
M  V30 2369 C 237.406 -2.346 -0.00153389 0
M  V30 2370 C 238.422 -1.5516 -0.787485 0
M  V30 2371 O 239.598 -1.87723 -0.729521 0
M  V30 2372 C 236.663 -3.33705 -0.940298 0
M  V30 2373 C 235.724 -4.29042 -0.148739 0
M  V30 2374 C 234.957 -5.23413 -1.04279 0
M  V30 2375 O 235.18 -5.22749 -2.28232 0
M  V30 2376 O 234.114 -5.99795 -0.502925 0
M  V30 2377 H 237.94 -2.94082 0.758268 0
M  V30 2378 H 235.525 -1.42888 0.436289 0
M  V30 2379 H 237.407 -3.94586 -1.47917 0
M  V30 2380 H 236.082 -2.76695 -1.67993 0
M  V30 2381 H 234.989 -3.71571 0.43427 0
M  V30 2382 H 236.322 -4.89097 0.551805 0
M  V30 2383 N 237.974 -0.419461 -1.51915 0
M  V30 2384 C 238.921 0.400927 -2.27291 0
M  V30 2385 C 239.891 1.03224 -1.30131 0
M  V30 2386 O 241.076 1.05455 -1.59009 0
M  V30 2387 C 238.216 1.50603 -3.10504 0
M  V30 2388 C 237.329 0.89462 -4.22635 0
M  V30 2389 C 236.464 1.97328 -4.93189 0
M  V30 2390 C 235.503 1.33935 -5.97267 0
M  V30 2391 N 234.64 2.3586 -6.61298 0
M  V30 2392 H 239.48 -0.248251 -2.96964 0
M  V30 2393 H 237.017 -0.134266 -1.46486 0
M  V30 2394 H 238.975 2.15783 -3.57062 0
M  V30 2395 H 237.605 2.12509 -2.42981 0
M  V30 2396 H 236.657 0.131583 -3.80172 0
M  V30 2397 H 237.969 0.391641 -4.9726 0
M  V30 2398 H 237.123 2.70211 -5.43204 0
M  V30 2399 H 235.862 2.50994 -4.18155 0
M  V30 2400 H 234.867 0.595896 -5.46561 0
M  V30 2401 H 236.092 0.810252 -6.74249 0
M  V30 2402 H 234.038 2.88639 -5.89087 0
M  V30 2403 H 233.955 1.90403 -7.3163 0
M  V30 2404 H 235.223 3.08282 -7.15949 0
M  V30 2405 N 239.452 1.56882 -0.150215 0
M  V30 2406 C 240.729 1.87844 0.545327 0
M  V30 2407 C 241.109 1.0567 1.82749 0
M  V30 2408 O 240.457 0.144442 2.28043 0
M  V30 2409 C 240.667 3.39526 0.80767 0
M  V30 2410 C 242.015 4.08814 1.14703 0
M  V30 2411 O 243.039 3.44723 0.896917 0
M  V30 2412 O 241.898 5.22004 1.61784 0
M  V30 2413 H 238.992 0.778677 0.278553 0
M  V30 2414 H 241.538 1.68666 -0.187068 0
M  V30 2415 H 240.31 3.91173 -0.0996096 0
M  V30 2416 H 239.933 3.64243 1.59413 0
M  V30 2417 N 240.93 -0.123565 1.57115 0
M  V30 2418 C 242.346 -0.476961 1.52306 0
M  V30 2419 C 242.546 -1.82109 0.86248 0
M  V30 2420 O 241.602 -2.48586 0.442884 0
M  V30 2421 C 242.915 -0.465661 2.97073 0
M  V30 2422 C 244.463 -0.549534 3.08138 0
M  V30 2423 C 244.938 -0.568669 4.54456 0
M  V30 2424 N 246.429 -0.630237 4.58892 0
M  V30 2425 C 247.164 -0.666415 5.69514 0
M  V30 2426 N 246.66 -0.660514 6.89644 0
M  V30 2427 N 248.453 -0.709077 5.5761 0
M  V30 2428 H 240.604 0.757198 1.98445 0
M  V30 2429 H 242.867 0.278808 0.906074 0
M  V30 2430 H 242.573 0.454232 3.48754 0
M  V30 2431 H 242.447 -1.29513 3.54269 0
M  V30 2432 H 244.834 -1.45985 2.56461 0
M  V30 2433 H 244.915 0.307532 2.53945 0
M  V30 2434 H 244.559 0.337581 5.06777 0
M  V30 2435 H 244.489 -1.44256 5.06456 0
M  V30 2436 H 246.98 -0.641146 3.72421 0
M  V30 2437 H 247.293 -0.690616 7.69708 0
M  V30 2438 H 245.638 -0.628012 6.92157 0
M  V30 2439 H 248.829 -0.711019 4.62668 0
M  V30 2440 H 249.002 -0.733804 6.43832 0
M  V30 2441 N 242.408 -1.52605 -0.393616 0
M  V30 2442 C 243.657 -1.66649 -1.13627 0
M  V30 2443 C 243.97 -0.410364 -1.91247 0
M  V30 2444 O 245.176 -0.430854 -2.68059 0
M  V30 2445 C 243.632 -2.9449 -2.06891 0
M  V30 2446 C 243.24 -4.27266 -1.34714 0
M  V30 2447 C 244.984 -3.17899 -2.81319 0
M  V30 2448 C 242.891 -5.46217 -2.26717 0
M  V30 2449 H 241.821 -0.62084 -0.427871 0
M  V30 2450 H 244.472 -1.791 -0.399428 0
M  V30 2451 H 242.854 -2.75774 -2.84191 0
M  V30 2452 H 244.028 -4.56518 -0.626714 0
M  V30 2453 H 242.343 -4.10081 -0.722643 0
M  V30 2454 H 244.94 -4.03949 -3.50328 0
M  V30 2455 H 245.283 -2.32777 -3.45139 0
M  V30 2456 H 245.816 -3.37159 -2.11113 0
M  V30 2457 H 242.555 -6.33733 -1.67521 0
M  V30 2458 H 242.075 -5.21283 -2.96689 0
M  V30 2459 H 243.754 -5.7991 -2.86903 0
M  V30 2460 N 243.887 0.651787 -1.4349 0
M  V30 2461 C 245.112 1.44434 -1.48841 0
M  V30 2462 C 245.537 1.8779 -0.107955 0
M  V30 2463 O 244.895 1.57464 0.898602 0
M  V30 2464 C 244.943 2.65458 -2.44059 0
M  V30 2465 O 244.047 3.64566 -1.92784 0
M  V30 2466 H 243.388 0.433005 -0.503391 0
M  V30 2467 H 245.918 0.797451 -1.88419 0
M  V30 2468 H 245.928 3.13255 -2.6141 0
M  V30 2469 H 244.603 2.33244 -3.4434 0
M  V30 2470 H 243.18 3.23716 -1.851 0
M  V30 2471 N 245.365 1.30045 0.890287 0
M  V30 2472 C 246.642 1.09227 1.62262 0
M  V30 2473 C 247.022 -0.360305 2.08002 0
M  V30 2474 O 246.37 -1.35084 1.84295 0
M  V30 2475 C 246.58 2.08835 2.79623 0
M  V30 2476 C 247.928 2.40266 3.50082 0
M  V30 2477 O 248.952 2.07104 2.89804 0
M  V30 2478 O 247.811 2.96967 4.58773 0
M  V30 2479 H 244.905 0.419132 0.712922 0
M  V30 2480 H 247.451 1.41451 0.937529 0
M  V30 2481 H 246.223 3.06633 2.43089 0
M  V30 2482 H 245.846 1.77397 3.55832 0
M  V30 2483 N 246.843 -1.10192 1.12674 0
M  V30 2484 C 248.089 -1.82658 0.894847 0
M  V30 2485 C 248.444 -1.83666 -0.573107 0
M  V30 2486 O 247.737 -1.28816 -1.41835 0
M  V30 2487 C 247.931 -3.28552 1.4067 0
M  V30 2488 C 247.76 -3.41756 2.92289 0
M  V30 2489 C 246.53 -3.54021 3.60551 0
M  V30 2490 C 248.728 -3.34949 3.90274 0
M  V30 2491 N 246.71 -3.55827 5.0026 0
M  V30 2492 C 248.081 -3.43531 5.16127 0
M  V30 2493 C 250.136 -3.18565 3.8265 0
M  V30 2494 C 248.839 -3.37416 6.3525 0
M  V30 2495 C 250.865 -3.13772 5.01299 0
M  V30 2496 C 250.227 -3.22938 6.26012 0
M  V30 2497 H 246.326 -0.683044 0.380756 0
M  V30 2498 H 248.91 -1.31752 1.43351 0
M  V30 2499 H 247.081 -3.77946 0.895055 0
M  V30 2500 H 248.813 -3.88991 1.11661 0
M  V30 2501 H 245.568 -3.57135 3.1105 0
M  V30 2502 H 245.992 -3.60335 5.73138 0
M  V30 2503 H 250.634 -3.10354 2.87124 0
M  V30 2504 H 248.352 -3.44391 7.3104 0
M  V30 2505 H 251.938 -3.02242 4.97133 0
M  V30 2506 H 250.818 -3.19235 7.16281 0
M  V30 2507 N 248.321 -0.919034 -1.28029 0
M  V30 2508 C 249.569 -0.553838 -1.94363 0
M  V30 2509 C 249.89 0.906357 -1.72656 0
M  V30 2510 O 249.16 1.64143 -1.0693 0
M  V30 2511 H 247.74 -0.201834 -0.719216 0
M  V30 2512 H 250.402 -1.16954 -1.55909 0
M  V30 2513 H 249.498 -0.752758 -3.02886 0
M  V30 2514 N 249.799 1.42003 -0.683588 0
M  V30 2515 C 250.709 2.34597 -0.0109075 0
M  V30 2516 C 251.725 1.55576 0.779245 0
M  V30 2517 O 252.901 1.88107 0.719555 0
M  V30 2518 C 249.966 3.34199 0.922588 0
M  V30 2519 C 249.027 4.29115 0.125984 0
M  V30 2520 C 248.26 5.23959 1.01502 0
M  V30 2521 O 248.483 5.23952 2.25456 0
M  V30 2522 O 247.417 6.00053 0.47111 0
M  V30 2523 H 251.243 2.93675 -0.773853 0
M  V30 2524 H 248.828 1.42654 -0.443861 0
M  V30 2525 H 250.71 3.95365 1.45823 0
M  V30 2526 H 249.385 2.77582 1.66523 0
M  V30 2527 H 248.292 3.71335 -0.453969 0
M  V30 2528 H 249.625 4.88798 -0.577736 0
M  V30 2529 N 251.277 0.427512 1.51691 0
M  V30 2530 C 252.207 -0.3796 2.30394 0
M  V30 2531 C 253.188 -1.02982 1.35384 0
M  V30 2532 O 254.373 -1.03534 1.643 0
M  V30 2533 C 251.503 -1.48649 3.1388 0
M  V30 2534 C 250.457 -0.960294 4.17088 0
M  V30 2535 C 249.783 -2.16219 4.89033 0
M  V30 2536 C 251.083 -0.00153679 5.223 0
M  V30 2537 H 252.777 0.277164 2.98114 0
M  V30 2538 H 250.323 0.134739 1.43368 0
M  V30 2539 H 252.276 -2.05826 3.67714 0
M  V30 2540 H 251 -2.1714 2.43962 0
M  V30 2541 H 249.659 -0.410806 3.64291 0
M  V30 2542 H 249.307 -2.83307 4.15628 0
M  V30 2543 H 249.007 -1.81654 5.58816 0
M  V30 2544 H 250.531 -2.73968 5.45687 0
M  V30 2545 H 251.945 -0.482687 5.71264 0
M  V30 2546 H 250.342 0.256199 5.99553 0
M  V30 2547 H 251.412 0.938174 4.75738 0
M  V30 2548 N 252.755 -1.56801 0.158532 0
M  V30 2549 C 254.166 -1.83189 -0.360366 0
M  V30 2550 C 254.517 -1.07778 -1.63946 0
M  V30 2551 O 253.642 -0.326718 -2.13919 0
M  V30 2552 C 254.237 -3.32297 -0.660595 0
M  V30 2553 C 252.796 -3.59227 -1.12398 0
M  V30 2554 C 251.943 -2.76877 -0.153097 0
M  V30 2555 H 254.894 -1.54008 0.383031 0
M  V30 2556 H 254.915 -3.4908 -1.51405 0
M  V30 2557 H 254.427 -3.87156 0.270527 0
M  V30 2558 H 252.528 -3.09766 -2.07064 0
M  V30 2559 H 252.641 -4.67632 -1.04197 0
M  V30 2560 H 251.005 -2.46319 -0.647983 0
M  V30 2561 H 251.788 -3.34511 0.77182 0
M  V30 2562 N 254.233 0.115231 -1.57178 0
M  V30 2563 C 255.181 1.16014 -2.01602 0
M  V30 2564 C 256.175 1.42653 -0.913587 0
M  V30 2565 O 257.381 1.42571 -1.09879 0
M  V30 2566 H 253.756 0.391252 -0.642204 0
M  V30 2567 H 255.727 0.758998 -2.88586 0
M  V30 2568 C 254.476 2.47767 -2.4394 0
M  V30 2569 H 253.799 2.28108 -3.28339 0
M  V30 2570 H 255.239 3.19432 -2.78818 0
M  V30 2571 C 253.698 3.10617 -1.30455 0
M  V30 2572 O 254.228 3.96846 -0.622585 0
M  V30 2573 N 252.434 2.70553 -1.06064 0
M  V30 2574 H 251.981 2.00527 -1.61699 0
M  V30 2575 H 251.939 3.12934 -0.303284 0
M  V30 2576 N 255.711 1.52812 0.385517 0
M  V30 2577 C 256.959 1.67694 1.12797 0
M  V30 2578 C 257.28 0.421115 1.90399 0
M  V30 2579 O 256.55 -0.564551 1.87589 0
M  V30 2580 H 255.13 0.618155 0.419396 0
M  V30 2581 H 257.792 1.89938 0.436972 0
M  V30 2582 H 256.888 2.52896 1.82894 0
M  V30 2583 N 257.189 -0.644168 1.43834 0
M  V30 2584 C 258.417 -1.43147 1.49387 0
M  V30 2585 C 258.832 -1.88452 0.114583 0
M  V30 2586 O 258.189 -1.60047 -0.876989 0
M  V30 2587 C 258.24 -2.66046 2.44748 0
M  V30 2588 O 257.961 -2.22633 3.77314 0
M  V30 2589 C 259.462 -3.59311 2.59635 0
M  V30 2590 H 256.682 -0.439447 0.507077 0
M  V30 2591 H 259.226 -0.78895 1.88669 0
M  V30 2592 H 257.381 -3.26418 2.08638 0
M  V30 2593 H 257.795 -3.02216 4.28679 0
M  V30 2594 H 259.269 -4.42187 3.30416 0
M  V30 2595 H 259.746 -4.07259 1.64427 0
M  V30 2596 H 260.352 -3.04816 2.96593 0
M  V30 2597 N 258.668 -1.30515 -0.883378 0
M  V30 2598 C 260.084 -1.08881 -1.16692 0
M  V30 2599 C 260.284 0.149409 -2.00945 0
M  V30 2600 O 259.34 0.84257 -2.38027 0
M  V30 2601 C 260.653 -2.35319 -1.87204 0
M  V30 2602 C 262.201 -2.40799 -1.99962 0
M  V30 2603 C 262.676 -3.67083 -2.73887 0
M  V30 2604 N 264.167 -3.679 -2.81432 0
M  V30 2605 C 264.902 -4.62303 -3.3921 0
M  V30 2606 N 264.398 -5.67052 -3.98025 0
M  V30 2607 N 266.191 -4.49845 -3.3704 0
M  V30 2608 H 258.342 -2.09951 -0.321633 0
M  V30 2609 H 260.605 -0.92556 -0.205043 0
M  V30 2610 H 260.311 -3.25689 -1.3274 0
M  V30 2611 H 260.185 -2.44089 -2.87577 0
M  V30 2612 H 262.572 -1.50907 -2.53597 0
M  V30 2613 H 262.653 -2.36003 -0.98673 0
M  V30 2614 H 262.297 -4.57334 -2.20925 0
M  V30 2615 H 262.227 -3.69141 -3.75556 0
M  V30 2616 H 264.718 -2.92171 -2.39676 0
M  V30 2617 H 265.031 -6.35184 -4.40183 0
M  V30 2618 H 263.376 -5.70842 -3.96439 0
M  V30 2619 H 266.567 -3.67194 -2.90321 0
M  V30 2620 H 266.74 -5.23597 -3.81772 0
M  V30 2621 N 260.146 1.09593 -1.13257 0
M  V30 2622 C 261.392 1.82003 -0.89458 0
M  V30 2623 C 261.725 1.85402 0.577906 0
M  V30 2624 O 261 1.32099 1.42759 0
M  V30 2625 C 261.283 3.28237 -1.48096 0
M  V30 2626 C 261.136 3.3312 -3.02244 0
M  V30 2627 C 262.455 4.24871 -1.14774 0
M  V30 2628 H 259.574 0.66077 -0.326424 0
M  V30 2629 H 262.216 1.28389 -1.40058 0
M  V30 2630 H 260.366 3.74024 -1.05062 0
M  V30 2631 H 262.038 2.95748 -3.54021 0
M  V30 2632 H 260.281 2.72756 -3.37323 0
M  V30 2633 H 260.952 4.3613 -3.38371 0
M  V30 2634 H 263.428 3.87361 -1.51957 0
M  V30 2635 H 262.304 5.25532 -1.58452 0
M  V30 2636 H 262.565 4.42058 -0.0611849 0
M  V30 2637 N 261.624 0.925811 1.2754 0
M  V30 2638 C 263.035 0.610102 1.7645 0
M  V30 2639 C 263.386 -0.874723 1.75622 0
M  V30 2640 O 262.511 -1.68444 1.35851 0
M  V30 2641 C 263.106 1.10073 3.20421 0
M  V30 2642 C 261.665 0.835723 3.67005 0
M  V30 2643 C 260.812 1.26054 2.46993 0
M  V30 2644 H 263.763 1.10579 1.13833 0
M  V30 2645 H 263.784 0.447557 3.77859 0
M  V30 2646 H 263.296 2.18143 3.20991 0
M  V30 2647 H 261.397 -0.231249 3.71882 0
M  V30 2648 H 261.51 1.45193 4.56569 0
M  V30 2649 H 259.874 0.679111 2.45479 0
M  V30 2650 H 260.657 2.34984 2.50275 0
M  V30 2651 N 263.102 -1.41638 0.69111 0
M  V30 2652 C 264.035 -2.28183 -0.0274913 0
M  V30 2653 C 265.013 -1.41984 -0.792424 0
M  V30 2654 O 266.197 -1.71415 -0.784169 0
M  V30 2655 C 263.324 -3.22135 -1.04628 0
M  V30 2656 C 262.37 -4.24848 -0.375037 0
M  V30 2657 S 263.203 -5.28231 0.879321 0
M  V30 2658 C 264.359 -6.25748 -0.137983 0
M  V30 2659 H 264.592 -2.88782 0.706553 0
M  V30 2660 H 262.125 -1.46709 0.481222 0
M  V30 2661 H 264.083 -3.76797 -1.62894 0
M  V30 2662 H 262.744 -2.6064 -1.75287 0
M  V30 2663 H 261.937 -4.90837 -1.14433 0
M  V30 2664 H 261.539 -3.73758 0.134434 0
M  V30 2665 H 263.831 -6.70188 -0.992659 0
M  V30 2666 H 264.774 -7.06417 0.487867 0
M  V30 2667 H 265.182 -5.62363 -0.490762 0
M  V30 2668 N 264.58 -0.43555 -1.51462 0
M  V30 2669 C 265.49 0.383001 -2.31453 0
M  V30 2670 C 266.506 1.02931 -1.4029 0
M  V30 2671 O 267.682 1.02507 -1.73362 0
M  V30 2672 C 264.747 1.47043 -3.13973 0
M  V30 2673 C 263.808 0.844433 -4.20913 0
M  V30 2674 C 263.041 1.88004 -4.9949 0
M  V30 2675 O 263.264 3.10199 -4.78678 0
M  V30 2676 O 262.198 1.47157 -5.83634 0
M  V30 2677 H 266.024 -0.269964 -3.02498 0
M  V30 2678 H 263.609 -0.19813 -1.4808 0
M  V30 2679 H 265.491 2.10113 -3.65281 0
M  V30 2680 H 264.166 2.10751 -2.45695 0
M  V30 2681 H 263.073 0.175729 -3.73687 0
M  V30 2682 H 264.406 0.250869 -4.9156 0
M  V30 2683 N 266.058 1.56714 -0.166846 0
M  V30 2684 C 267.304 1.97039 0.479962 0
M  V30 2685 C 267.637 1.05264 1.63197 0
M  V30 2686 O 266.912 0.0988833 1.94248 0
M  V30 2687 C 267.195 3.46867 0.967212 0
M  V30 2688 C 267.048 4.49421 -0.18466 0
M  V30 2689 C 268.367 3.9968 1.84238 0
M  V30 2690 H 265.486 0.71641 0.172992 0
M  V30 2691 H 268.128 1.8832 -0.252079 0
M  V30 2692 H 266.278 3.54428 1.59101 0
M  V30 2693 H 267.95 4.53924 -0.821621 0
M  V30 2694 H 266.193 4.25573 -0.840837 0
M  V30 2695 H 266.864 5.51644 0.198317 0
M  V30 2696 H 269.34 3.94723 1.31655 0
M  V30 2697 H 268.216 5.04941 2.15234 0
M  V30 2698 H 268.477 3.43226 2.78654 0
M  V30 2699 N 267.536 -0.106894 1.57237 0
M  V30 2700 C 268.782 -0.81373 1.85759 0
M  V30 2701 C 269.115 -1.78952 0.754315 0
M  V30 2702 O 268.39 -1.93029 -0.23879 0
M  V30 2703 C 268.673 -1.55293 3.24894 0
M  V30 2704 C 268.526 -0.595929 4.45835 0
M  V30 2705 C 269.845 -2.5063 3.61763 0
M  V30 2706 H 266.964 -0.294369 0.67566 0
M  V30 2707 H 269.606 -0.0776472 1.89841 0
M  V30 2708 H 267.756 -2.1804 3.21544 0
M  V30 2709 H 269.428 0.0236262 4.61294 0
M  V30 2710 H 267.671 0.0916191 4.33703 0
M  V30 2711 H 268.342 -1.15004 5.39887 0
M  V30 2712 H 270.818 -1.97982 3.65981 0
M  V30 2713 H 269.694 -2.99376 4.60071 0
M  V30 2714 H 269.955 -3.3385 2.89821 0
M  V30 2715 N 269.014 -1.53014 -0.377408 0
M  V30 2716 C 269.944 -1.81589 -1.46791 0
M  V30 2717 C 270.925 -0.668622 -1.56408 0
M  V30 2718 O 272.11 -0.917337 -1.71168 0
M  V30 2719 C 269.24 -1.99519 -2.8427 0
M  V30 2720 C 268.194 -3.15249 -2.89486 0
M  V30 2721 C 267.52 -3.18451 -4.29527 0
M  V30 2722 C 268.82 -4.54084 -2.58079 0
M  V30 2723 H 270.514 -2.7291 -1.23127 0
M  V30 2724 H 268.06 -1.31319 -0.590883 0
M  V30 2725 H 270.013 -2.18092 -3.60575 0
M  V30 2726 H 268.737 -1.04897 -3.09296 0
M  V30 2727 H 267.396 -2.96477 -2.15631 0
M  V30 2728 H 267.044 -2.2149 -4.5161 0
M  V30 2729 H 266.744 -3.962 -4.33934 0
M  V30 2730 H 268.268 -3.39193 -5.07721 0
M  V30 2731 H 269.682 -4.72899 -3.24098 0
M  V30 2732 H 268.079 -5.33987 -2.7382 0
M  V30 2733 H 269.149 -4.60006 -1.53372 0
M  V30 2734 N 270.492 0.636531 -1.44174 0
M  V30 2735 C 271.422 1.76003 -1.53444 0
M  V30 2736 C 272.403 1.65619 -0.387841 0
M  V30 2737 O 273.588 1.84461 -0.607257 0
M  V30 2738 C 270.718 3.14511 -1.4731 0
M  V30 2739 C 269.672 3.39677 -2.60391 0
M  V30 2740 C 268.998 4.78159 -2.39308 0
M  V30 2741 C 270.298 3.32772 -4.02567 0
M  V30 2742 H 271.992 1.68501 -2.47483 0
M  V30 2743 H 269.538 0.809237 -1.19111 0
M  V30 2744 H 271.491 3.92878 -1.52397 0
M  V30 2745 H 270.215 3.22783 -0.49785 0
M  V30 2746 H 268.874 2.63688 -2.54684 0
M  V30 2747 H 268.522 4.83128 -1.39988 0
M  V30 2748 H 268.222 4.95956 -3.15122 0
M  V30 2749 H 269.746 5.58762 -2.46205 0
M  V30 2750 H 271.16 4.01051 -4.09672 0
M  V30 2751 H 269.557 3.62104 -4.7854 0
M  V30 2752 H 270.627 2.30669 -4.2652 0
M  V30 2753 N 271.97 1.30982 0.876444 0
M  V30 2754 C 272.917 1.18085 1.98304 0
M  V30 2755 C 273.887 0.0682263 1.6596 0
M  V30 2756 O 275.072 0.239937 1.89285 0
M  V30 2757 C 272.212 0.887475 3.33493 0
M  V30 2758 C 271.325 2.08281 3.78475 0
M  V30 2759 C 270.46 1.72678 5.0235 0
M  V30 2760 C 269.499 2.88657 5.39762 0
M  V30 2761 N 268.636 2.53292 6.54819 0
M  V30 2762 H 273.476 2.1275 2.08666 0
M  V30 2763 H 271.013 1.05839 1.02159 0
M  V30 2764 H 272.971 0.697961 4.1132 0
M  V30 2765 H 271.601 -0.022315 3.22792 0
M  V30 2766 H 270.653 2.3833 2.96484 0
M  V30 2767 H 271.965 2.95108 4.02135 0
M  V30 2768 H 271.119 1.50151 5.87826 0
M  V30 2769 H 269.858 0.830327 4.8058 0
M  V30 2770 H 268.863 3.1184 4.52809 0
M  V30 2771 H 270.088 3.79002 5.63502 0
M  V30 2772 H 268.034 1.66163 6.34607 0
M  V30 2773 H 267.951 3.3365 6.7839 0
M  V30 2774 H 269.219 2.34143 7.43503 0
M  V30 2775 N 273.449 -1.08991 1.13837 0
M  V30 2776 C 274.396 -2.15748 0.819835 0
M  V30 2777 C 275.366 -1.64636 -0.220026 0
M  V30 2778 O 276.551 -1.90582 -0.0912757 0
M  V30 2779 C 273.691 -3.4382 0.296913 0
M  V30 2780 C 272.804 -4.0881 1.39636 0
M  V30 2781 C 271.939 -5.24655 0.831314 0
M  V30 2782 C 270.978 -5.81575 1.90886 0
M  V30 2783 N 270.115 -6.88774 1.36142 0
M  V30 2784 H 274.955 -2.42338 1.73426 0
M  V30 2785 H 272.492 -1.18935 0.865613 0
M  V30 2786 H 274.45 -4.17193 -0.0244339 0
M  V30 2787 H 273.08 -3.17535 -0.580628 0
M  V30 2788 H 272.132 -3.33258 1.83422 0
M  V30 2789 H 273.444 -4.47141 2.21058 0
M  V30 2790 H 272.598 -6.04942 0.461515 0
M  V30 2791 H 271.337 -4.87698 -0.013932 0
M  V30 2792 H 270.342 -4.99946 2.28767 0
M  V30 2793 H 271.567 -6.20592 2.75758 0
M  V30 2794 H 269.513 -6.53788 0.538254 0
M  V30 2795 H 269.43 -7.25898 2.11208 0
M  V30 2796 H 270.698 -7.72806 1.01933 0
M  V30 2797 N 274.927 -0.932562 -1.27047 0
M  V30 2798 C 276.173 -0.576412 -1.94436 0
M  V30 2799 C 276.506 0.880891 -1.73072 0
M  V30 2800 O 275.781 1.62905 -1.06264 0
M  V30 2801 C 276.064 -0.909031 -3.48437 0
M  V30 2802 C 275.917 -2.42044 -3.79123 0
M  V30 2803 C 277.236 -0.418341 -4.38107 0
M  V30 2804 H 274.355 -0.210888 -0.706184 0
M  V30 2805 H 276.997 -1.16522 -1.50075 0
M  V30 2806 H 275.147 -0.407947 -3.86352 0
M  V30 2807 H 276.819 -2.99359 -3.50973 0
M  V30 2808 H 275.062 -2.86758 -3.25503 0
M  V30 2809 H 275.733 -2.6037 -4.86736 0
M  V30 2810 H 278.209 -0.847856 -4.0737 0
M  V30 2811 H 277.085 -0.679981 -5.44672 0
M  V30 2812 H 277.346 0.681642 -4.36814 0
M  V30 2813 N 276.405 1.4127 -0.698611 0
M  V30 2814 C 277.63 2.06024 -0.238512 0
M  V30 2815 C 278.055 1.5224 1.10475 0
M  V30 2816 O 277.413 0.650623 1.69223 0
M  V30 2817 C 277.461 3.59988 -0.209952 0
M  V30 2818 O 276.565 4.04282 0.814235 0
M  V30 2819 H 275.906 0.653829 -0.115775 0
M  V30 2820 H 278.436 1.8098 -0.954326 0
M  V30 2821 H 278.446 4.07979 -0.0418436 0
M  V30 2822 H 277.121 3.98503 -1.1903 0
M  V30 2823 H 275.698 3.6779 0.615234 0
M  V30 2824 N 277.883 0.443576 1.51229 0
M  V30 2825 C 279.108 -0.121648 2.07043 0
M  V30 2826 C 279.533 -1.35156 1.30823 0
M  V30 2827 O 278.891 -1.7793 0.347934 0
M  V30 2828 C 278.939 -0.41624 3.5819 0
M  V30 2829 O 278.043 -1.50163 3.8409 0
M  V30 2830 H 277.384 0.000871367 0.663999 0
M  V30 2831 H 279.914 0.626706 1.94765 0
M  V30 2832 H 279.924 -0.664867 4.02546 0
M  V30 2833 H 278.599 0.482653 4.1309 0
M  V30 2834 H 277.176 -1.24248 3.51592 0
M  V30 2835 N 279.361 -1.56624 0.175154 0
M  V30 2836 C 280.609 -1.96609 -0.467885 0
M  V30 2837 C 280.93 -1.06238 -1.63519 0
M  V30 2838 O 280.2 -0.129523 -1.95471 0
M  V30 2839 H 278.78 -0.726008 -0.175845 0
M  V30 2840 H 281.442 -1.93195 0.257234 0
M  V30 2841 H 280.538 -3.00989 -0.825342 0
M  V30 2842 N 280.839 0.0985539 -1.57292 0
M  V30 2843 C 282.086 0.802678 -1.85912 0
M  V30 2844 C 282.414 1.78901 -0.763186 0
M  V30 2845 O 281.669 1.94178 0.243559 0
M  V30 2846 C 281.968 1.56927 -3.21105 0
M  V30 2847 C 281.634 0.725376 -4.45027 0
M  V30 2848 C 280.296 0.492726 -4.78671 0
M  V30 2849 C 282.648 0.138493 -5.21016 0
M  V30 2850 C 279.976 -0.336727 -5.85733 0
M  V30 2851 C 282.328 -0.678264 -6.28953 0
M  V30 2852 C 280.992 -0.921039 -6.61115 0
M  V30 2853 H 280.262 0.293721 -0.680301 0
M  V30 2854 H 282.909 0.0642841 -1.91392 0
M  V30 2855 H 281.214 2.37914 -3.11294 0
M  V30 2856 H 282.911 2.11841 -3.40477 0
M  V30 2857 H 279.501 0.916815 -4.18679 0
M  V30 2858 H 283.685 0.305404 -4.95359 0
M  V30 2859 H 278.941 -0.533836 -6.09065 0
M  V30 2860 H 283.115 -1.1399 -6.87007 0
M  V30 2861 H 280.742 -1.56556 -7.43905 0
M  V30 2862 N 282.317 1.53212 0.369288 0
M  V30 2863 C 283.542 1.73423 1.1375 0
M  V30 2864 C 283.967 0.460404 1.82378 0
M  V30 2865 O 283.325 -0.585298 1.71592 0
M  V30 2866 C 283.373 2.89769 2.1463 0
M  V30 2867 O 282.477 2.58119 3.21634 0
M  V30 2868 H 281.818 0.576061 0.330227 0
M  V30 2869 H 284.348 2.00083 0.427547 0
M  V30 2870 H 284.358 3.15829 2.58294 0
M  V30 2871 H 283.033 3.8217 1.64071 0
M  V30 2872 H 281.61 2.42864 2.82969 0
M  V30 2873 N 283.795 -0.628877 1.44509 0
M  V30 2874 C 285.043 -1.38565 1.4712 0
M  V30 2875 C 285.364 -1.94712 0.105899 0
M  V30 2876 O 284.634 -1.75912 -0.862079 0
M  V30 2877 H 283.214 -0.514333 0.541729 0
M  V30 2878 H 285.876 -0.740018 1.80305 0
M  V30 2879 H 284.972 -2.21583 2.19789 0
M  V30 2880 N 285.273 -1.31445 -0.869486 0
M  V30 2881 C 286.519 -1.21337 -1.62496 0
M  V30 2882 C 286.852 0.227872 -1.92858 0
M  V30 2883 O 286.127 1.16094 -1.56053 0
M  V30 2884 C 286.41 -2.05814 -2.95487 0
M  V30 2885 C 286.263 -3.5824 -2.72 0
M  V30 2886 C 287.582 -1.9079 -3.96594 0
M  V30 2887 H 284.701 -0.442135 -0.589649 0
M  V30 2888 H 287.343 -1.6124 -1.00507 0
M  V30 2889 H 285.493 -1.71913 -3.48394 0
M  V30 2890 H 287.165 -4.0228 -2.25762 0
M  V30 2891 H 285.408 -3.81647 -2.06224 0
M  V30 2892 H 286.079 -4.12657 -3.66631 0
M  V30 2893 H 288.555 -2.20459 -3.52898 0
M  V30 2894 H 287.431 -2.52199 -4.87531 0
M  V30 2895 H 287.692 -0.871341 -4.33428 0
M  V30 2896 N 286.751 1.08385 -1.14413 0
M  V30 2897 C 288 1.80153 -0.907076 0
M  V30 2898 C 288.313 1.87176 0.567851 0
M  V30 2899 O 289.519 2.55359 0.922172 0
M  V30 2900 C 287.975 3.23687 -1.57336 0
M  V30 2901 C 287.583 3.24897 -3.08457 0
M  V30 2902 C 289.327 4.00136 -1.41744 0
M  V30 2903 C 287.234 4.6302 -3.67921 0
M  V30 2904 H 286.164 0.675139 -0.335714 0
M  V30 2905 H 288.815 1.21733 -1.37307 0
M  V30 2906 H 287.197 3.82234 -1.03505 0
M  V30 2907 H 288.371 2.76055 -3.68958 0
M  V30 2908 H 286.686 2.61943 -3.2369 0
M  V30 2909 H 289.283 5.02201 -1.83572 0
M  V30 2910 H 289.626 4.14709 -0.363576 0
M  V30 2911 H 290.159 3.48058 -1.92614 0
M  V30 2912 H 286.898 4.5365 -4.73161 0
M  V30 2913 H 286.418 5.12143 -3.12201 0
M  V30 2914 H 288.097 5.31994 -3.68227 0
M  V30 2915 N 288.23 0.939286 1.26551 0
M  V30 2916 C 289.646 0.641304 1.46149 0
M  V30 2917 C 289.846 -0.805964 1.84679 0
M  V30 2918 O 288.902 -1.58278 1.96734 0
M  V30 2919 C 290.215 1.6011 2.54529 0
M  V30 2920 C 291.763 1.6106 2.68382 0
M  V30 2921 C 292.238 2.55765 3.79932 0
M  V30 2922 N 293.729 2.5404 3.87322 0
M  V30 2923 C 294.464 3.24004 4.73085 0
M  V30 2924 N 293.96 4.03388 5.63249 0
M  V30 2925 N 295.753 3.12965 4.66914 0
M  V30 2926 H 287.904 1.87478 0.998285 0
M  V30 2927 H 290.167 0.805559 0.499779 0
M  V30 2928 H 289.873 2.63412 2.33039 0
M  V30 2929 H 289.747 1.35171 3.52149 0
M  V30 2930 H 292.134 0.584835 2.89247 0
M  V30 2931 H 292.215 1.90053 1.71212 0
M  V30 2932 H 291.859 3.58458 3.5982 0
M  V30 2933 H 291.789 2.24063 4.76554 0
M  V30 2934 H 294.28 1.96396 3.22858 0
M  V30 2935 H 294.593 4.5373 6.25579 0
M  V30 2936 H 292.938 4.07489 5.63008 0
M  V30 2937 H 296.129 2.50432 3.95476 0
M  V30 2938 H 296.302 3.67759 5.33533 0
M  V30 2939 N 289.708 -1.40897 0.706093 0
M  V30 2940 C 290.638 -2.33418 0.0620085 0
M  V30 2941 C 291.619 -1.52385 -0.755827 0
M  V30 2942 O 292.804 -1.80886 -0.706674 0
M  V30 2943 C 289.934 -3.36293 -0.867445 0
M  V30 2944 C 288.888 -4.27716 -0.155932 0
M  V30 2945 C 288.214 -5.2105 -1.20046 0
M  V30 2946 C 289.514 -5.12944 0.984149 0
M  V30 2947 H 291.208 -2.87527 0.83477 0
M  V30 2948 H 288.754 -1.38249 0.402875 0
M  V30 2949 H 290.707 -3.99949 -1.32735 0
M  V30 2950 H 289.431 -2.80556 -1.67199 0
M  V30 2951 H 288.09 -3.65498 0.284047 0
M  V30 2952 H 287.738 -4.61624 -1.99781 0
M  V30 2953 H 287.438 -5.83056 -0.729328 0
M  V30 2954 H 288.962 -5.87584 -1.66066 0
M  V30 2955 H 290.376 -5.70109 0.604048 0
M  V30 2956 H 288.773 -5.83945 1.38304 0
M  V30 2957 H 289.843 -4.49485 1.81911 0
M  V30 2958 N 291.186 -0.45159 -1.50991 0
M  V30 2959 C 292.116 0.342898 -2.30969 0
M  V30 2960 C 293.097 1.00815 -1.37005 0
M  V30 2961 O 294.282 1.00907 -1.65926 0
M  V30 2962 C 291.412 1.43637 -3.16205 0
M  V30 2963 C 290.366 0.893818 -4.18563 0
M  V30 2964 C 289.692 2.08411 -4.92411 0
M  V30 2965 C 290.992 -0.0815568 -5.22236 0
M  V30 2966 H 292.686 -0.324556 -2.97636 0
M  V30 2967 H 290.232 -0.157531 -1.43136 0
M  V30 2968 H 292.185 1.9995 -3.70942 0
M  V30 2969 H 290.909 2.13232 -2.47386 0
M  V30 2970 H 289.568 0.352798 -3.64898 0
M  V30 2971 H 289.216 2.76658 -4.20082 0
M  V30 2972 H 288.916 1.72741 -5.61636 0
M  V30 2973 H 290.44 2.65251 -5.49976 0
M  V30 2974 H 291.854 0.391742 -5.7196 0
M  V30 2975 H 290.251 -0.351551 -5.99069 0
M  V30 2976 H 291.321 -1.01374 -4.74185 0
M  V30 2977 N 292.664 1.56529 -0.183458 0
M  V30 2978 C 293.941 1.88959 0.50536 0
M  V30 2979 C 294.321 1.09523 1.80466 0
M  V30 2980 O 293.669 0.19278 2.27685 0
M  V30 2981 C 293.879 3.41162 0.73547 0
M  V30 2982 C 295.227 4.11155 1.06005 0
M  V30 2983 O 296.251 3.46548 0.823594 0
M  V30 2984 O 295.11 5.25318 1.50675 0
M  V30 2985 H 292.204 0.78441 0.261973 0
M  V30 2986 H 294.75 1.68231 -0.222802 0
M  V30 2987 H 293.522 3.90874 -0.182561 0
M  V30 2988 H 293.145 3.67543 1.51651 0
M  V30 2989 N 294.142 -0.090211 1.57342 0
M  V30 2990 C 295.388 -0.788838 1.8748 0
M  V30 2991 C 295.743 -1.76105 0.7749 0
M  V30 2992 O 295.036 -1.90302 -0.222663 0
M  V30 2993 C 295.23 -1.55222 3.21933 0
M  V30 2994 C 295.059 -0.655441 4.44898 0
M  V30 2995 C 293.829 -0.299325 5.04413 0
M  V30 2996 C 296.027 0.0397458 5.14285 0
M  V30 2997 N 294.009 0.605108 6.10911 0
M  V30 2998 C 295.38 0.802061 6.1479 0
M  V30 2999 C 297.435 0.113154 4.97771 0
M  V30 3000 C 296.138 1.63093 7.00566 0
M  V30 3001 C 298.164 0.928942 5.84059 0
M  V30 3002 C 297.526 1.67936 6.84088 0
M  V30 3003 H 293.625 -0.26467 0.735849 0
M  V30 3004 H 296.209 -0.0511453 1.94633 0
M  V30 3005 H 294.38 -2.26076 3.15823 0
M  V30 3006 H 296.112 -2.19843 3.39781 0
M  V30 3007 H 292.867 -0.648079 4.69145 0
M  V30 3008 H 293.291 1.05002 6.68808 0
M  V30 3009 H 297.933 -0.452676 4.2037 0
M  V30 3010 H 295.651 2.20781 7.77355 0
M  V30 3011 H 299.237 0.988478 5.73341 0
M  V30 3012 H 298.117 2.30044 7.49699 0
M  V30 3013 N 295.62 -1.53406 -0.361157 0
M  V30 3014 C 296.867 -1.69802 -1.10333 0
M  V30 3015 C 297.195 -0.452087 -1.89173 0
M  V30 3016 O 296.45 0.566017 -1.87336 0
M  V30 3017 C 296.749 -2.90211 -2.08596 0
M  V30 3018 C 296.415 -4.26539 -1.46203 0
M  V30 3019 C 295.077 -4.6361 -1.28915 0
M  V30 3020 C 297.429 -5.113 -1.01101 0
M  V30 3021 C 294.757 -5.83075 -0.651157 0
M  V30 3022 C 297.109 -6.31415 -0.387007 0
M  V30 3023 C 295.773 -6.67195 -0.201657 0
M  V30 3024 H 295.043 -0.621351 -0.403737 0
M  V30 3025 H 297.69 -1.87598 -0.384609 0
M  V30 3026 H 295.995 -2.66946 -2.86788 0
M  V30 3027 H 297.692 -3.00091 -2.65982 0
M  V30 3028 H 294.282 -3.97352 -1.60653 0
M  V30 3029 H 298.466 -4.83206 -1.13249 0
M  V30 3030 H 293.722 -6.09385 -0.496006 0
M  V30 3031 H 297.896 -6.96394 -0.0293563 0
M  V30 3032 H 295.523 -7.59628 0.294766 0
M  V30 3033 N 297.098 0.621204 -1.44841 0
M  V30 3034 C 298.008 1.7612 -1.5498 0
M  V30 3035 C 299.024 1.68477 -0.434927 0
M  V30 3036 O 300.2 1.89076 -0.693693 0
M  V30 3037 C 297.265 3.1254 -1.50065 0
M  V30 3038 C 296.326 3.31741 -2.72482 0
M  V30 3039 C 295.559 4.61653 -2.67792 0
M  V30 3040 O 295.782 5.431 -1.74352 0
M  V30 3041 O 294.716 4.83271 -3.58794 0
M  V30 3042 H 298.542 1.70518 -2.51311 0
M  V30 3043 H 296.127 0.783643 -1.27198 0
M  V30 3044 H 298.009 3.93844 -1.49882 0
M  V30 3045 H 296.684 3.18663 -0.568806 0
M  V30 3046 H 295.591 2.50077 -2.7823 0
M  V30 3047 H 296.924 3.30486 -3.64746 0
M  V30 3048 N 298.576 1.31904 0.862503 0
M  V30 3049 C 299.992 1.10724 1.14945 0
M  V30 3050 C 300.192 -0.117421 2.01158 0
M  V30 3051 O 299.248 -0.804595 2.39338 0
M  V30 3052 C 300.561 2.38267 1.83437 0
M  V30 3053 C 302.109 2.43949 1.96106 0
M  V30 3054 C 302.584 3.71394 2.68013 0
M  V30 3055 N 304.075 3.72331 2.75543 0
M  V30 3056 C 304.81 4.67641 3.31812 0
M  V30 3057 N 304.306 5.73313 3.88953 0
M  V30 3058 N 306.099 4.5515 3.29841 0
M  V30 3059 H 298.25 2.10436 0.288191 0
M  V30 3060 H 300.513 0.928705 0.190292 0
M  V30 3061 H 300.219 3.27759 1.27542 0
M  V30 3062 H 300.093 2.48633 2.83657 0
M  V30 3063 H 302.48 1.54922 2.51164 0
M  V30 3064 H 302.561 2.37543 0.949059 0
M  V30 3065 H 302.205 4.60791 2.13621 0
M  V30 3066 H 302.135 3.75069 3.69636 0
M  V30 3067 H 304.626 2.95947 2.34997 0
M  V30 3068 H 304.939 6.42107 4.30022 0
M  V30 3069 H 303.284 5.77077 3.87308 0
M  V30 3070 H 306.475 3.71766 2.84443 0
M  V30 3071 H 306.648 5.29604 3.73394 0
M  V30 3072 N 300.054 -1.07777 1.14986 0
M  V30 3073 C 301.465 -1.61766 0.932127 0
M  V30 3074 C 301.816 -1.88974 -0.527581 0
M  V30 3075 O 300.941 -1.65198 -1.39781 0
M  V30 3076 C 301.536 -2.93891 1.68563 0
M  V30 3077 C 300.095 -3.44639 1.5133 0
M  V30 3078 C 299.242 -2.18767 1.704 0
M  V30 3079 H 302.193 -0.909201 1.30074 0
M  V30 3080 H 302.214 -3.62623 1.15259 0
M  V30 3081 H 301.726 -2.74057 2.74799 0
M  V30 3082 H 299.827 -3.69564 0.474702 0
M  V30 3083 H 299.94 -4.20966 2.28746 0
M  V30 3084 H 298.304 -2.28253 1.13016 0
M  V30 3085 H 299.087 -2.01433 2.77992 0
M  V30 3086 N 301.532 -0.945985 -1.26051 0
M  V30 3087 C 302.809 -0.513816 -1.88731 0
M  V30 3088 C 303.189 1.00872 -1.8544 0
M  V30 3089 O 302.537 1.8708 -1.312 0
M  V30 3090 C 302.747 -1.08062 -3.31849 0
M  V30 3091 C 304.095 -1.1522 -4.08668 0
M  V30 3092 O 305.119 -1.03155 -3.40936 0
M  V30 3093 O 303.978 -1.34044 -5.29806 0
M  V30 3094 H 301.072 -0.168193 -0.809716 0
M  V30 3095 H 303.618 -1.03886 -1.34186 0
M  V30 3096 H 302.39 -2.1241 -3.2863 0
M  V30 3097 H 302.013 -0.538307 -3.93939 0
M  V30 3098 N 303.011 1.40521 -0.713556 0
M  V30 3099 C 304.236 2.05759 -0.26035 0
M  V30 3100 C 304.661 1.53403 1.08854 0
M  V30 3101 O 304.019 0.668535 1.68524 0
M  V30 3102 C 304.067 3.59745 -0.248122 0
M  V30 3103 O 303.171 4.05123 0.77131 0
M  V30 3104 H 302.512 0.652564 -0.122703 0
M  V30 3105 H 305.042 1.79958 -0.973467 0
M  V30 3106 H 305.052 4.07911 -0.0851129 0
M  V30 3107 H 303.727 3.97218 -1.2325 0
M  V30 3108 H 302.304 3.68422 0.57619 0
M  V30 3109 N 304.489 0.459591 1.5075 0
M  V30 3110 C 305.736 -0.0993495 2.02256 0
M  V30 3111 C 306.064 -1.40751 1.34237 0
M  V30 3112 O 305.319 -1.90379 0.453228 0
M  V30 3113 C 305.618 -0.342866 3.55752 0
M  V30 3114 C 305.284 0.88218 4.42186 0
M  V30 3115 C 303.946 1.21808 4.65528 0
M  V30 3116 C 306.298 1.69837 4.92752 0
M  V30 3117 C 303.626 2.37045 5.36681 0
M  V30 3118 C 305.978 2.84192 5.65171 0
M  V30 3119 C 304.642 3.1821 5.8677 0
M  V30 3120 H 303.912 -0.0363545 0.740108 0
M  V30 3121 H 306.559 0.611329 1.8148 0
M  V30 3122 H 304.864 -1.13567 3.7498 0
M  V30 3123 H 306.561 -0.789121 3.93159 0
M  V30 3124 H 303.151 0.610467 4.2423 0
M  V30 3125 H 307.335 1.45205 4.74583 0
M  V30 3126 H 302.591 2.63689 5.51614 0
M  V30 3127 H 306.765 3.4779 6.03337 0
M  V30 3128 H 304.392 4.07613 6.41682 0
M  V30 3129 N 305.967 -1.56429 0.191757 0
M  V30 3130 C 307.213 -1.97777 -0.448554 0
M  V30 3131 C 307.546 -1.07847 -1.61501 0
M  V30 3132 O 306.821 -0.129774 -1.94067 0
M  V30 3133 C 307.104 -3.48362 -0.911906 0
M  V30 3134 C 306.957 -4.4907 0.256136 0
M  V30 3135 C 308.276 -4.02561 -1.77857 0
M  V30 3136 H 305.395 -0.719071 -0.161572 0
M  V30 3137 H 308.037 -1.87896 0.282007 0
M  V30 3138 H 306.187 -3.56914 -1.53442 0
M  V30 3139 H 307.859 -4.5256 0.893733 0
M  V30 3140 H 306.102 -4.24181 0.908436 0
M  V30 3141 H 306.773 -5.51889 -0.11053 0
M  V30 3142 H 309.249 -3.96767 -1.25359 0
M  V30 3143 H 308.125 -5.08301 -2.07174 0
M  V30 3144 H 308.386 -3.47616 -2.73158 0
M  V30 3145 N 307.445 0.0818655 -1.57387 0
M  V30 3146 C 308.375 1.09885 -2.06028 0
M  V30 3147 C 309.356 1.4098 -0.951774 0
M  V30 3148 O 310.541 1.50781 -1.22387 0
M  V30 3149 C 307.671 2.4151 -2.4958 0
M  V30 3150 C 306.625 2.24792 -3.64215 0
M  V30 3151 C 305.951 3.61712 -3.93787 0
M  V30 3152 C 307.251 1.67749 -4.94629 0
M  V30 3153 H 308.945 0.694128 -2.91243 0
M  V30 3154 H 306.491 0.332448 -1.4011 0
M  V30 3155 H 308.444 3.12939 -2.82219 0
M  V30 3156 H 307.168 2.83943 -1.61381 0
M  V30 3157 H 305.827 1.55807 -3.31843 0
M  V30 3158 H 305.475 4.01697 -3.02735 0
M  V30 3159 H 305.175 3.51368 -4.70971 0
M  V30 3160 H 306.699 4.34587 -4.28913 0
M  V30 3161 H 308.113 2.29032 -5.25564 0
M  V30 3162 H 306.51 1.68128 -5.76067 0
M  V30 3163 H 307.58 0.638059 -4.80684 0
M  V30 3164 N 308.923 1.53595 0.353017 0
M  V30 3165 C 310.172 1.69603 1.09168 0
M  V30 3166 C 310.485 0.460925 1.90092 0
M  V30 3167 O 311.691 0.501774 2.66823 0
M  V30 3168 C 310.147 2.99872 1.9901 0
M  V30 3169 C 309.755 4.30687 1.23339 0
M  V30 3170 C 311.499 3.25246 2.72792 0
M  V30 3171 C 309.406 5.52036 2.12156 0
M  V30 3172 H 308.336 0.631966 0.411261 0
M  V30 3173 H 310.987 1.80096 0.351802 0
M  V30 3174 H 309.369 2.83212 2.7678 0
M  V30 3175 H 310.543 4.58019 0.505456 0
M  V30 3176 H 308.858 4.11853 0.613663 0
M  V30 3177 H 311.455 4.13095 3.39495 0
M  V30 3178 H 311.798 2.41846 3.38846 0
M  V30 3179 H 312.331 3.42638 2.021 0
M  V30 3180 H 309.07 6.37951 1.50659 0
M  V30 3181 H 308.59 5.28966 2.82764 0
M  V30 3182 H 310.269 5.87313 2.71427 0
M  V30 3183 N 310.401 -0.613514 1.45168 0
M  V30 3184 C 311.331 -1.7354 1.56225 0
M  V30 3185 C 312.312 -1.64981 0.41414 0
M  V30 3186 O 313.497 -1.83472 0.636526 0
M  V30 3187 C 310.627 -3.12128 1.52295 0
M  V30 3188 C 309.581 -3.35491 2.65762 0
M  V30 3189 C 308.907 -4.74291 2.46885 0
M  V30 3190 C 310.207 -3.26325 4.0781 0
M  V30 3191 H 311.901 -1.64543 2.50132 0
M  V30 3192 H 309.447 -0.790185 1.20383 0
M  V30 3193 H 311.4 -3.90404 1.58628 0
M  V30 3194 H 310.124 -3.2195 0.549139 0
M  V30 3195 H 308.783 -2.59603 2.58847 0
M  V30 3196 H 308.431 -4.80839 1.47657 0
M  V30 3197 H 308.131 -4.9088 3.22972 0
M  V30 3198 H 309.655 -5.54775 2.55063 0
M  V30 3199 H 311.069 -3.94483 4.16 0
M  V30 3200 H 309.466 -3.54445 4.8424 0
M  V30 3201 H 310.536 -2.23855 4.30136 0
M  V30 3202 N 311.879 -1.3236 -0.855495 0
M  V30 3203 C 312.789 -1.23221 -1.99634 0
M  V30 3204 C 313.805 -0.145983 -1.73387 0
M  V30 3205 O 314.981 -0.366502 -1.98037 0
M  V30 3206 C 312.046 -0.954782 -3.33294 0
M  V30 3207 C 311.107 -2.12937 -3.72769 0
M  V30 3208 C 310.34 -1.86508 -5.00051 0
M  V30 3209 O 310.563 -0.807231 -5.64659 0
M  V30 3210 O 309.497 -2.72591 -5.36636 0
M  V30 3211 H 313.323 -2.19126 -2.1028 0
M  V30 3212 H 310.908 -1.12241 -0.986018 0
M  V30 3213 H 312.79 -0.816519 -4.13414 0
M  V30 3214 H 311.465 -0.0258854 -3.2369 0
M  V30 3215 H 310.372 -2.3231 -2.93228 0
M  V30 3216 H 311.705 -3.04102 -3.87018 0
M  V30 3217 N 313.357 1.07166 -1.15556 0
M  V30 3218 C 314.773 1.31899 -0.898603 0
M  V30 3219 C 314.973 1.96333 0.453383 0
M  V30 3220 O 314.029 2.22438 1.19489 0
M  V30 3221 C 315.342 2.20826 -2.04099 0
M  V30 3222 C 316.89 2.34269 -2.07574 0
M  V30 3223 C 317.365 3.26546 -3.21141 0
M  V30 3224 N 318.856 3.34127 -3.20801 0
M  V30 3225 C 319.591 4.05595 -4.05315 0
M  V30 3226 N 319.087 4.79661 -4.99897 0
M  V30 3227 N 320.88 4.01555 -3.93332 0
M  V30 3228 H 313.031 0.637302 -2.02613 0
M  V30 3229 H 315.294 0.343468 -0.883591 0
M  V30 3230 H 315 1.80744 -3.01703 0
M  V30 3231 H 314.874 3.21364 -1.97496 0
M  V30 3232 H 317.261 2.73603 -1.10568 0
M  V30 3233 H 317.342 1.33429 -2.18244 0
M  V30 3234 H 316.986 2.87931 -4.184 0
M  V30 3235 H 316.916 4.27345 -3.07708 0
M  V30 3236 H 319.407 2.81336 -2.52306 0
M  V30 3237 H 319.72 5.31694 -5.60822 0
M  V30 3238 H 318.065 4.78671 -5.03884 0
M  V30 3239 H 321.256 3.42806 -3.18751 0
M  V30 3240 H 321.429 4.56987 -4.5942 0
M  V30 3241 N 314.835 0.952656 1.25548 0
M  V30 3242 C 316.246 0.647392 1.75116 0
M  V30 3243 C 316.597 -0.837274 1.77438 0
M  V30 3244 O 315.722 -1.65525 1.39393 0
M  V30 3245 C 316.317 1.16845 3.18014 0
M  V30 3246 C 314.876 0.913382 3.6515 0
M  V30 3247 C 314.023 1.31265 2.44264 0
M  V30 3248 H 316.974 1.12968 1.11462 0
M  V30 3249 H 316.995 0.527606 3.76824 0
M  V30 3250 H 316.507 2.24902 3.16292 0
M  V30 3251 H 314.608 -0.152316 3.72289 0
M  V30 3252 H 314.721 1.54845 4.53387 0
M  V30 3253 H 313.085 0.731028 2.43984 0
M  V30 3254 H 313.868 2.40239 2.45234 0
M  V30 3255 N 316.313 -1.40141 0.720998 0
M  V30 3256 C 317.223 -2.34486 0.0731031 0
M  V30 3257 C 318.239 -1.57587 -0.737723 0
M  V30 3258 O 319.415 -1.89949 -0.669429 0
M  V30 3259 C 316.48 -3.36528 -0.833656 0
M  V30 3260 C 315.541 -4.29298 -0.0121673 0
M  V30 3261 C 314.774 -5.26466 -0.875742 0
M  V30 3262 O 314.997 -5.29745 -2.11485 0
M  V30 3263 O 313.931 -6.01092 -0.31185 0
M  V30 3264 H 317.757 -2.9152 0.851444 0
M  V30 3265 H 315.342 -1.41427 0.481527 0
M  V30 3266 H 317.224 -3.99093 -1.35289 0
M  V30 3267 H 315.899 -2.81899 -1.59105 0
M  V30 3268 H 314.806 -3.70001 0.552262 0
M  V30 3269 H 316.139 -4.87094 0.707129 0
M  V30 3270 N 317.792 -0.46758 -1.50504 0
M  V30 3271 C 319.203 -0.0116166 -1.86696 0
M  V30 3272 C 319.554 1.39202 -1.38265 0
M  V30 3273 O 318.679 2.0313 -0.746132 0
M  V30 3274 C 319.274 -0.0143044 -3.38797 0
M  V30 3275 C 317.833 0.386175 -3.74414 0
M  V30 3276 C 316.98 -0.401287 -2.74381 0
M  V30 3277 H 319.931 -0.682022 -1.43297 0
M  V30 3278 H 319.952 0.788641 -3.72237 0
M  V30 3279 H 319.464 -1.03602 -3.74016 0
M  V30 3280 H 317.565 1.41237 -3.44794 0
M  V30 3281 H 317.678 0.0899596 -4.79016 0
M  V30 3282 H 316.042 0.144536 -2.5429 0
M  V30 3283 H 316.825 -1.42244 -3.12444 0
M  V30 3284 N 319.27 1.56325 -0.20005 0
M  V30 3285 C 320.516 1.98012 0.438059 0
M  V30 3286 C 320.849 1.08702 1.60927 0
M  V30 3287 O 320.124 0.140064 1.93995 0
M  V30 3288 C 320.407 3.48841 0.893419 0
M  V30 3289 C 320.26 4.48928 -0.279947 0
M  V30 3290 C 321.579 4.03498 1.75719 0
M  V30 3291 H 318.698 0.719918 0.157757 0
M  V30 3292 H 321.34 1.87743 -0.291968 0
M  V30 3293 H 319.49 3.57723 1.51547 0
M  V30 3294 H 321.162 4.52079 -0.91772 0
M  V30 3295 H 319.405 4.23694 -0.930919 0
M  V30 3296 H 320.076 5.5194 0.0812601 0
M  V30 3297 H 322.552 3.97427 1.23253 0
M  V30 3298 H 321.428 5.09393 2.04476 0
M  V30 3299 H 321.689 3.4906 2.71311 0
M  V30 3300 N 320.748 -0.0735177 1.57428 0
M  V30 3301 C 321.68 -1.11423 2.00294 0
M  V30 3302 C 322.693 -1.35084 0.908637 0
M  V30 3303 O 323.882 -1.33355 1.18654 0
M  V30 3304 C 320.982 -2.46548 2.32523 0
M  V30 3305 C 320.155 -2.42867 3.63778 0
M  V30 3306 C 319.214 -3.60087 3.83697 0
M  V30 3307 O 318.24 -3.41595 4.55304 0
M  V30 3308 N 319.442 -4.80372 3.25919 0
M  V30 3309 H 322.207 -0.749206 2.90184 0
M  V30 3310 H 319.768 -0.262195 1.59763 0
M  V30 3311 H 321.76 -3.23607 2.43024 0
M  V30 3312 H 320.33 -2.75059 1.48531 0
M  V30 3313 H 319.55 -1.51206 3.64047 0
M  V30 3314 H 320.838 -2.37506 4.49965 0
M  V30 3315 H 320.236 -4.983 2.67795 0
M  V30 3316 H 318.793 -5.54948 3.41871 0
M  V30 3317 N 322.226 -1.5378 -0.344866 0
M  V30 3318 C 323.503 -1.61589 -1.10219 0
M  V30 3319 C 323.883 -0.436316 -2.06542 0
M  V30 3320 O 323.231 0.571543 -2.21237 0
M  V30 3321 C 323.441 -2.97602 -1.82301 0
M  V30 3322 C 324.789 -3.5291 -2.36093 0
M  V30 3323 O 325.813 -2.99768 -1.924 0
M  V30 3324 O 324.672 -4.45859 -3.16026 0
M  V30 3325 H 321.766 -0.653522 -0.506792 0
M  V30 3326 H 324.312 -1.66126 -0.346465 0
M  V30 3327 H 323.084 -3.74893 -1.12121 0
M  V30 3328 H 322.707 -2.9665 -2.64735 0
M  V30 3329 N 323.704 0.605807 -1.45491 0
M  V30 3330 C 324.634 1.72709 -1.57143 0
M  V30 3331 C 325.615 1.6476 -0.422884 0
M  V30 3332 O 326.8 1.83132 -0.646247 0
M  V30 3333 C 323.93 3.11316 -1.53948 0
M  V30 3334 C 322.884 3.34077 -2.67537 0
M  V30 3335 C 322.21 4.72975 -2.49397 0
M  V30 3336 C 323.51 3.24158 -4.09535 0
M  V30 3337 H 325.204 1.63214 -2.51001 0
M  V30 3338 H 322.75 0.78379 -1.208 0
M  V30 3339 H 324.703 3.89557 -1.60696 0
M  V30 3340 H 323.427 3.21655 -0.566205 0
M  V30 3341 H 322.086 2.58227 -2.6022 0
M  V30 3342 H 321.734 4.8005 -1.50205 0
M  V30 3343 H 321.434 4.8916 -3.25571 0
M  V30 3344 H 322.958 5.53414 -2.58002 0
M  V30 3345 H 324.372 3.92271 -4.18086 0
M  V30 3346 H 322.769 3.51872 -4.86113 0
M  V30 3347 H 323.839 2.2157 -4.31317 0
M  V30 3348 N 325.182 1.32811 0.848464 0
M  V30 3349 C 326.429 1.23724 1.60308 0
M  V30 3350 C 326.757 -0.1994 1.93475 0
M  V30 3351 O 326.012 -1.15406 1.5805 0
M  V30 3352 C 326.311 2.04831 2.92881 0
M  V30 3353 C 325.977 3.54125 2.79117 0
M  V30 3354 C 324.639 3.94829 2.7507 0
M  V30 3355 C 326.991 4.49036 2.64606 0
M  V30 3356 C 324.319 5.28675 2.544 0
M  V30 3357 C 326.671 5.83033 2.4547 0
M  V30 3358 C 325.335 6.22931 2.39819 0
M  V30 3359 H 324.605 0.452737 0.586609 0
M  V30 3360 H 327.252 1.64301 0.983743 0
M  V30 3361 H 325.557 1.57001 3.58968 0
M  V30 3362 H 327.254 1.95164 3.50303 0
M  V30 3363 H 323.844 3.21801 2.83094 0
M  V30 3364 H 328.028 4.18505 2.66772 0
M  V30 3365 H 323.284 5.58637 2.48465 0
M  V30 3366 H 327.458 6.56186 2.33222 0
M  V30 3367 H 325.085 7.26584 2.23562 0
M  V30 3368 N 326.66 -1.06551 1.16123 0
M  V30 3369 C 327.937 -1.76097 0.85142 0
M  V30 3370 C 328.317 -2.00802 -0.6513 0
M  V30 3371 O 327.665 -1.63302 -1.59827 0
M  V30 3372 C 327.875 -3.06384 1.67122 0
M  V30 3373 C 329.223 -3.80585 1.88255 0
M  V30 3374 O 330.247 -3.16218 1.63966 0
M  V30 3375 O 329.106 -4.96212 2.2899 0
M  V30 3376 H 326.2 -0.765102 0.313923 0
M  V30 3377 H 328.746 -1.12844 1.26745 0
M  V30 3378 H 327.518 -2.84071 2.69108 0
M  V30 3379 H 327.141 -3.77371 1.25206 0
M  V30 3380 N 328.138 -0.959301 -1.25041 0
M  V30 3381 C 329.385 -0.616611 -1.92884 0
M  V30 3382 C 329.713 0.847036 -1.75087 0
M  V30 3383 O 328.968 1.62374 -1.09239 0
M  V30 3384 C 329.267 -0.927136 -3.45165 0
M  V30 3385 C 328.933 -2.37757 -3.83122 0
M  V30 3386 C 327.595 -2.77402 -3.93194 0
M  V30 3387 C 329.947 -3.31929 -4.01836 0
M  V30 3388 C 327.275 -4.10277 -4.19392 0
M  V30 3389 C 329.627 -4.64423 -4.29528 0
M  V30 3390 C 328.291 -5.03857 -4.37818 0
M  V30 3391 H 327.561 -0.225634 -0.705812 0
M  V30 3392 H 330.208 -1.20921 -1.48493 0
M  V30 3393 H 328.513 -0.252195 -3.90987 0
M  V30 3394 H 330.21 -0.6405 -3.95852 0
M  V30 3395 H 326.8 -2.06013 -3.75841 0
M  V30 3396 H 330.984 -3.02488 -3.93465 0
M  V30 3397 H 326.24 -4.40467 -4.24027 0
M  V30 3398 H 330.414 -5.37369 -4.42953 0
M  V30 3399 H 328.041 -6.06843 -4.57871 0
M  V30 3400 N 329.616 1.39756 -0.72842 0
M  V30 3401 C 330.865 1.99879 -0.270407 0
M  V30 3402 C 331.178 1.58449 1.14688 0
M  V30 3403 O 332.384 2.11362 1.70407 0
M  V30 3404 C 330.84 3.57292 -0.43252 0
M  V30 3405 C 330.448 4.07688 -1.85727 0
M  V30 3406 C 332.192 4.24485 -0.0359507 0
M  V30 3407 C 330.099 5.5765 -1.96928 0
M  V30 3408 H 329.029 0.747689 -0.0973472 0
M  V30 3409 H 331.68 1.59837 -0.901355 0
M  V30 3410 H 330.062 3.95097 0.267219 0
M  V30 3411 H 331.236 3.81231 -2.58843 0
M  V30 3412 H 329.551 3.53135 -2.20646 0
M  V30 3413 H 332.148 5.34609 -0.0987484 0
M  V30 3414 H 332.491 4.03915 1.00787 0
M  V30 3415 H 333.024 3.9183 -0.686604 0
M  V30 3416 H 329.763 5.8309 -2.99476 0
M  V30 3417 H 329.283 5.8593 -1.28241 0
M  V30 3418 H 330.962 6.22957 -1.74737 0
M  V30 3419 N 331.094 0.475555 1.50254 0
M  V30 3420 C 332.322 -0.0754493 2.06762 0
M  V30 3421 C 332.737 -1.33111 1.33891 0
M  V30 3422 O 332.094 -1.77846 0.40952 0
M  V30 3423 C 332.145 -0.359008 3.59713 0
M  V30 3424 O 331.866 0.846851 4.29837 0
M  V30 3425 C 333.367 -0.956484 4.32858 0
M  V30 3426 H 330.587 0.00907525 0.670939 0
M  V30 3427 H 333.131 0.665618 1.93364 0
M  V30 3428 H 331.286 -1.05001 3.72899 0
M  V30 3429 H 331.7 0.594162 5.21124 0
M  V30 3430 H 333.174 -1.10463 5.40834 0
M  V30 3431 H 333.651 -1.94775 3.93649 0
M  V30 3432 H 334.257 -0.303723 4.24214 0
M  V30 3433 N 332.573 -1.56217 0.208337 0
M  V30 3434 C 333.483 -2.23316 -0.718836 0
M  V30 3435 C 334.499 -1.23648 -1.22422 0
M  V30 3436 O 335.675 -1.56423 -1.26861 0
M  V30 3437 C 332.74 -2.88968 -1.91568 0
M  V30 3438 C 331.801 -4.03943 -1.45357 0
M  V30 3439 C 331.034 -4.66455 -2.59337 0
M  V30 3440 O 331.257 -4.27919 -3.77149 0
M  V30 3441 O 330.191 -5.55686 -2.31293 0
M  V30 3442 H 334.017 -3.03182 -0.177315 0
M  V30 3443 H 331.602 -1.49384 -0.0215402 0
M  V30 3444 H 333.484 -3.30455 -2.61491 0
M  V30 3445 H 332.159 -2.12071 -2.44556 0
M  V30 3446 H 331.066 -3.67052 -0.722746 0
M  V30 3447 H 332.399 -4.82543 -0.970219 0
M  V30 3448 N 334.051 0.0651679 -1.57465 0
M  V30 3449 C 335.467 0.420105 -1.53972 0
M  V30 3450 C 335.667 1.78782 -0.929474 0
M  V30 3451 O 334.723 2.46771 -0.534839 0
M  V30 3452 C 336.036 0.355084 -2.98596 0
M  V30 3453 C 337.584 0.434792 -3.09965 0
M  V30 3454 C 338.059 0.399609 -4.56253 0
M  V30 3455 N 339.55 0.459488 -4.60915 0
M  V30 3456 C 340.285 0.454584 -5.71595 0
M  V30 3457 N 339.781 0.404102 -6.9162 0
M  V30 3458 N 341.574 0.501635 -5.59857 0
M  V30 3459 H 333.725 -0.830328 -1.95498 0
M  V30 3460 H 335.988 -0.312244 -0.895102 0
M  V30 3461 H 335.694 -0.583357 -3.46828 0
M  V30 3462 H 335.568 1.16275 -3.58831 0
M  V30 3463 H 337.955 1.36366 -2.61703 0
M  V30 3464 H 338.036 -0.40157 -2.52628 0
M  V30 3465 H 337.68 -0.525436 -5.05175 0
M  V30 3466 H 337.61 1.25359 -5.11461 0
M  V30 3467 H 340.101 0.502482 -3.74544 0
M  V30 3468 H 340.414 0.404468 -7.71741 0
M  V30 3469 H 338.759 0.37069 -6.94011 0
M  V30 3470 H 341.95 0.538812 -4.64989 0
M  V30 3471 H 342.123 0.494345 -6.46112 0
M  V30 3472 N 335.529 1.53961 0.336706 0
M  V30 3473 C 336.777 1.71197 1.07405 0
M  V30 3474 C 337.098 0.481475 1.88962 0
M  V30 3475 O 336.368 -0.504585 1.8929 0
M  V30 3476 H 334.948 0.631185 0.399517 0
M  V30 3477 H 337.61 1.91232 0.376323 0
M  V30 3478 H 336.706 2.58587 1.74755 0
M  V30 3479 N 337.007 -0.598083 1.45811 0
M  V30 3480 C 337.97 -1.69018 1.54808 0
M  V30 3481 C 338.97 -1.55037 0.426652 0
M  V30 3482 O 340.16 -1.59932 0.690456 0
M  V30 3483 C 337.292 -3.0835 1.45371 0
M  V30 3484 H 338.485 -1.62403 2.52121 0
M  V30 3485 H 336.038 -0.814626 1.33392 0
M  V30 3486 H 336.773 -3.20534 0.492793 0
M  V30 3487 H 336.558 -3.19907 2.26721 0
M  V30 3488 H 338.048 -3.8788 1.54721 0
M  V30 3489 N 338.485 -1.33259 -0.841409 0
M  V30 3490 C 339.415 -1.25926 -1.96634 0
M  V30 3491 C 340.396 -0.140349 -1.6952 0
M  V30 3492 O 341.581 -0.329707 -1.91381 0
M  V30 3493 C 338.711 -0.99512 -3.32738 0
M  V30 3494 C 337.665 -2.0767 -3.74242 0
M  V30 3495 C 336.991 -1.66474 -5.08125 0
M  V30 3496 C 338.291 -3.49318 -3.88297 0
M  V30 3497 H 339.985 -2.20046 -2.03027 0
M  V30 3498 H 337.531 -1.05931 -0.975425 0
M  V30 3499 H 339.484 -0.930323 -4.11002 0
M  V30 3500 H 338.208 -0.0183004 -3.26595 0
M  V30 3501 H 336.867 -2.13187 -2.98239 0
M  V30 3502 H 336.515 -0.675012 -4.9845 0
M  V30 3503 H 336.215 -2.3885 -5.36865 0
M  V30 3504 H 337.739 -1.61455 -5.88867 0
M  V30 3505 H 339.153 -3.46316 -4.56879 0
M  V30 3506 H 337.55 -4.20158 -4.28471 0
M  V30 3507 H 338.62 -3.8801 -2.9082 0
M  V30 3508 N 339.963 1.05934 -1.16686 0
M  V30 3509 C 340.895 2.13468 -0.834503 0
M  V30 3510 C 341.908 1.62013 0.15984 0
M  V30 3511 O 343.097 1.7838 -0.0654228 0
M  V30 3512 C 340.197 3.3817 -0.222361 0
M  V30 3513 C 339.37 4.18928 -1.25771 0
M  V30 3514 C 338.429 5.21985 -0.664703 0
M  V30 3515 O 337.455 5.53334 -1.33453 0
M  V30 3516 N 338.657 5.77919 0.546834 0
M  V30 3517 H 341.422 2.42578 -1.75999 0
M  V30 3518 H 338.983 1.21967 -1.06469 0
M  V30 3519 H 340.975 4.04266 0.187472 0
M  V30 3520 H 339.545 3.06655 0.606758 0
M  V30 3521 H 338.765 3.48433 -1.84358 0
M  V30 3522 H 340.053 4.69687 -1.95631 0
M  V30 3523 H 339.451 5.54721 1.10912 0
M  V30 3524 H 338.008 6.45573 0.898829 0
M  V30 3525 N 341.441 0.965919 1.2453 0
M  V30 3526 C 342.351 0.502154 2.29163 0
M  V30 3527 C 343.367 -0.436017 1.68448 0
M  V30 3528 O 344.543 -0.309497 1.99008 0
M  V30 3529 C 341.608 -0.201956 3.46111 0
M  V30 3530 C 340.669 0.775821 4.22232 0
M  V30 3531 C 339.902 0.105217 5.33596 0
M  V30 3532 O 340.125 -1.10683 5.59558 0
M  V30 3533 O 339.059 0.796475 5.96607 0
M  V30 3534 H 342.885 1.37194 2.70946 0
M  V30 3535 H 340.47 0.732875 1.30189 0
M  V30 3536 H 342.352 -0.597564 4.17142 0
M  V30 3537 H 341.027 -1.04673 3.06309 0
M  V30 3538 H 339.934 1.22185 3.53584 0
M  V30 3539 H 341.267 1.58896 4.65846 0
M  V30 3540 N 342.919 -1.39368 0.735821 0
M  V30 3541 C 343.829 -2.34395 0.0979693 0
M  V30 3542 C 344.845 -1.58361 -0.720968 0
M  V30 3543 O 346.021 -1.90648 -0.649245 0
M  V30 3544 C 343.086 -3.37393 -0.797916 0
M  V30 3545 C 342.147 -4.29287 0.0333662 0
M  V30 3546 C 341.38 -5.27365 -0.819854 0
M  V30 3547 O 341.603 -5.31959 -2.05855 0
M  V30 3548 O 340.537 -6.01389 -0.248079 0
M  V30 3549 H 344.363 -2.90601 0.882315 0
M  V30 3550 H 341.948 -1.40909 0.4965 0
M  V30 3551 H 343.83 -4.00505 -1.31048 0
M  V30 3552 H 342.505 -2.83571 -1.56106 0
M  V30 3553 H 341.412 -3.69395 0.591475 0
M  V30 3554 H 342.745 -4.86317 0.758752 0
M  V30 3555 N 344.397 -0.483516 -1.5 0
M  V30 3556 C 345.327 0.293829 -2.31644 0
M  V30 3557 C 346.308 0.978864 -1.39112 0
M  V30 3558 O 347.493 0.973644 -1.68029 0
M  V30 3559 C 344.623 1.36897 -3.19181 0
M  V30 3560 C 343.577 0.804833 -4.20365 0
M  V30 3561 C 342.903 1.9792 -4.96721 0
M  V30 3562 C 344.203 -0.192313 -5.21946 0
M  V30 3563 H 345.897 -0.387616 -2.9688 0
M  V30 3564 H 343.443 -0.187856 -1.42769 0
M  V30 3565 H 345.396 1.92037 -3.751 0
M  V30 3566 H 344.12 2.07936 -2.51853 0
M  V30 3567 H 342.779 0.275319 -3.65565 0
M  V30 3568 H 342.427 2.67686 -4.25856 0
M  V30 3569 H 342.127 1.60789 -5.65173 0
M  V30 3570 H 343.651 2.53526 -5.55479 0
M  V30 3571 H 345.065 0.270333 -5.72662 0
M  V30 3572 H 343.462 -0.478543 -5.98189 0
M  V30 3573 H 344.532 -1.11409 -4.71928 0
M  V30 3574 N 345.875 1.56104 -0.216619 0
M  V30 3575 C 346.838 2.18819 0.681962 0
M  V30 3576 C 347.838 1.14866 1.12528 0
M  V30 3577 O 349.028 1.40128 1.03488 0
M  V30 3578 C 346.16 2.80756 1.93362 0
M  V30 3579 H 347.353 2.99595 0.135254 0
M  V30 3580 H 344.906 1.56265 0.0330003 0
M  V30 3581 H 345.641 2.03837 2.52232 0
M  V30 3582 H 345.426 3.56876 1.62426 0
M  V30 3583 H 346.916 3.28844 2.57393 0
M  V30 3584 N 347.353 -0.0568162 1.57498 0
M  V30 3585 C 348.769 -0.411933 1.54192 0
M  V30 3586 C 348.969 -1.78287 0.938942 0
M  V30 3587 O 348.025 -2.46483 0.547919 0
M  V30 3588 C 349.338 -0.339244 2.9878 0
M  V30 3589 C 350.886 -0.418348 3.10192 0
M  V30 3590 C 351.361 -0.375407 4.56459 0
M  V30 3591 N 352.852 -0.435038 4.61153 0
M  V30 3592 C 353.587 -0.424265 5.71828 0
M  V30 3593 N 353.083 -0.367418 6.91825 0
M  V30 3594 N 354.876 -0.471938 5.60115 0
M  V30 3595 H 347.027 0.840684 1.95055 0
M  V30 3596 H 349.29 0.316987 0.893433 0
M  V30 3597 H 348.996 0.601742 3.46514 0
M  V30 3598 H 348.87 -1.14371 3.59443 0
M  V30 3599 H 351.257 -1.34976 2.62422 0
M  V30 3600 H 351.338 0.414962 2.52412 0
M  V30 3601 H 350.982 0.552219 5.04889 0
M  V30 3602 H 350.912 -1.22645 5.12119 0
M  V30 3603 H 353.403 -0.482612 3.74806 0
M  V30 3604 H 353.716 -0.363535 7.71944 0
M  V30 3605 H 352.061 -0.333879 6.94198 0
M  V30 3606 H 355.252 -0.514145 4.65268 0
M  V30 3607 H 355.425 -0.460073 6.46365 0
M  V30 3608 N 348.832 -1.54138 -0.328536 0
M  V30 3609 C 350.057 -1.76378 -1.09112 0
M  V30 3610 C 350.482 -0.508596 -1.81094 0
M  V30 3611 O 349.84 0.539598 -1.73084 0
M  V30 3612 C 349.888 -2.95358 -2.06872 0
M  V30 3613 O 348.992 -2.66556 -3.14677 0
M  V30 3614 H 348.333 -0.584614 -0.314838 0
M  V30 3615 H 350.863 -2.01146 -0.374348 0
M  V30 3616 H 350.873 -3.22566 -2.4983 0
M  V30 3617 H 349.548 -3.86385 -1.5388 0
M  V30 3618 H 348.125 -2.50282 -2.7643 0
M  V30 3619 N 350.31 0.590341 -1.46126 0
M  V30 3620 C 351.557 1.34882 -1.5104 0
M  V30 3621 C 351.885 1.93849 -0.159021 0
M  V30 3622 O 351.14 1.76544 0.844436 0
M  V30 3623 C 351.439 2.5032 -2.55097 0
M  V30 3624 C 351.105 2.09394 -3.99331 0
M  V30 3625 C 349.767 1.97947 -4.38601 0
M  V30 3626 C 352.119 1.77712 -4.89967 0
M  V30 3627 C 349.447 1.53065 -5.66381 0
M  V30 3628 C 351.799 1.34312 -6.18177 0
M  V30 3629 C 350.463 1.21436 -6.56361 0
M  V30 3630 H 349.733 0.493568 -0.552695 0
M  V30 3631 H 352.38 0.665539 -1.79563 0
M  V30 3632 H 350.685 3.24062 -2.20207 0
M  V30 3633 H 352.382 3.08541 -2.56132 0
M  V30 3634 H 348.972 2.19235 -3.68285 0
M  V30 3635 H 353.156 1.85445 -4.60352 0
M  V30 3636 H 348.412 1.41733 -5.94745 0
M  V30 3637 H 352.586 1.08849 -6.87841 0
M  V30 3638 H 350.213 0.864345 -7.5527 0
M  V30 3639 N 351.788 1.33704 0.83433 0
M  V30 3640 C 353.035 1.25417 1.58987 0
M  V30 3641 C 353.363 -0.178869 1.93676 0
M  V30 3642 O 352.618 -1.13723 1.59265 0
M  V30 3643 C 352.917 2.07926 2.90692 0
M  V30 3644 C 352.583 3.57066 2.75345 0
M  V30 3645 C 351.245 3.97724 2.70867 0
M  V30 3646 C 353.597 4.51817 2.59828 0
M  V30 3647 C 350.925 5.31344 2.48778 0
M  V30 3648 C 353.277 5.85604 2.39272 0
M  V30 3649 C 351.941 6.25439 2.33199 0
M  V30 3650 H 351.211 0.458934 0.581774 0
M  V30 3651 H 353.858 1.65335 0.966261 0
M  V30 3652 H 352.163 1.608 3.57282 0
M  V30 3653 H 353.86 1.98868 3.48213 0
M  V30 3654 H 350.45 3.24785 2.79665 0
M  V30 3655 H 354.634 4.21311 2.62319 0
M  V30 3656 H 349.89 5.61241 2.42526 0
M  V30 3657 H 354.064 6.58623 2.2625 0
M  V30 3658 H 351.691 7.28914 2.15843 0
M  V30 3659 N 353.266 -1.05314 1.17247 0
M  V30 3660 C 354.512 -1.78699 0.971513 0
M  V30 3661 C 354.867 -1.85932 -0.494692 0
M  V30 3662 O 354.16 -1.34716 -1.36243 0
M  V30 3663 C 354.354 -3.2229 1.54479 0
M  V30 3664 C 354.183 -3.29052 3.06521 0
M  V30 3665 C 352.953 -3.3841 3.75242 0
M  V30 3666 C 355.151 -3.18095 4.04129 0
M  V30 3667 N 353.133 -3.34289 5.14902 0
M  V30 3668 C 354.504 -3.21331 5.30232 0
M  V30 3669 C 356.559 -3.02049 3.95817 0
M  V30 3670 C 355.262 -3.10169 6.4899 0
M  V30 3671 C 357.288 -2.92228 5.14156 0
M  V30 3672 C 356.65 -2.96096 6.39145 0
M  V30 3673 H 352.749 -0.66628 0.409383 0
M  V30 3674 H 355.333 -1.25553 1.4881 0
M  V30 3675 H 353.504 -3.7381 1.05455 0
M  V30 3676 H 355.236 -3.83905 1.28059 0
M  V30 3677 H 351.991 -3.43621 3.25917 0
M  V30 3678 H 352.415 -3.35702 5.87906 0
M  V30 3679 H 357.057 -2.97897 3.00029 0
M  V30 3680 H 354.775 -3.13076 7.44989 0
M  V30 3681 H 358.361 -2.80885 5.09505 0
M  V30 3682 H 357.241 -2.88568 7.29176 0
M  V30 3683 N 354.744 -0.972509 -1.24016 0
M  V30 3684 C 355.676 -0.464375 -2.24446 0
M  V30 3685 C 356.689 0.4295 -1.57032 0
M  V30 3686 O 357.878 0.234902 -1.76948 0
M  V30 3687 C 354.978 0.348385 -3.37105 0
M  V30 3688 C 354.151 -0.53673 -4.34094 0
M  V30 3689 C 353.21 0.220838 -5.25736 0
M  V30 3690 O 352.236 -0.386867 -5.67884 0
M  V30 3691 N 353.438 1.50907 -5.60542 0
M  V30 3692 H 356.203 -1.32788 -2.68677 0
M  V30 3693 H 353.764 -0.844877 -1.38107 0
M  V30 3694 H 355.756 0.863341 -3.95384 0
M  V30 3695 H 354.326 1.11285 -2.92121 0
M  V30 3696 H 353.546 -1.23261 -3.74433 0
M  V30 3697 H 354.834 -1.14022 -4.95859 0
M  V30 3698 H 354.232 2.02444 -5.28236 0
M  V30 3699 H 352.789 1.96962 -6.21329 0
M  V30 3700 N 356.222 1.38976 -0.743202 0
M  V30 3701 C 357.468 2.0064 -0.295189 0
M  V30 3702 C 357.801 1.5885 1.11716 0
M  V30 3703 O 357.076 0.821181 1.76315 0
M  V30 3704 C 357.359 3.578 -0.406318 0
M  V30 3705 C 357.212 4.09586 -1.85903 0
M  V30 3706 C 358.531 4.39616 0.206439 0
M  V30 3707 H 355.65 0.728935 -0.108733 0
M  V30 3708 H 358.292 1.65067 -0.940897 0
M  V30 3709 H 356.442 3.88235 0.143419 0
M  V30 3710 H 358.114 3.89837 -2.46627 0
M  V30 3711 H 356.357 3.6284 -2.3776 0
M  V30 3712 H 357.028 5.18708 -1.888 0
M  V30 3713 H 359.504 4.15273 -0.262283 0
M  V30 3714 H 358.38 5.48812 0.0983819 0
M  V30 3715 H 358.641 4.22754 1.2935 0
M  V30 3716 N 357.7 0.491464 1.49741 0
M  V30 3717 C 358.63 -0.28154 2.31796 0
M  V30 3718 C 359.611 -0.971473 1.3963 0
M  V30 3719 O 360.796 -0.964719 1.68543 0
M  V30 3720 C 357.926 -1.35203 3.19902 0
M  V30 3721 C 356.88 -0.782529 4.20786 0
M  V30 3722 C 356.206 -1.95283 4.97764 0
M  V30 3723 C 357.506 0.21999 5.21837 0
M  V30 3724 H 359.2 0.403355 2.96671 0
M  V30 3725 H 356.746 0.195425 1.42668 0
M  V30 3726 H 358.699 -1.90045 3.76113 0
M  V30 3727 H 357.423 -2.06598 2.52953 0
M  V30 3728 H 356.082 -0.255928 3.65706 0
M  V30 3729 H 355.73 -2.65423 4.2727 0
M  V30 3730 H 355.43 -1.57789 5.66018 0
M  V30 3731 H 356.954 -2.50577 5.56816 0
M  V30 3732 H 358.368 -0.23996 5.72798 0
M  V30 3733 H 356.765 0.51026 5.97927 0
M  V30 3734 H 357.835 1.13911 4.7133 0
M  V30 3735 N 359.178 -1.55987 0.224894 0
M  V30 3736 C 360.088 -2.24066 -0.69511 0
M  V30 3737 C 361.104 -1.24939 -1.21104 0
M  V30 3738 O 362.28 -1.5776 -1.25195 0
M  V30 3739 C 359.345 -2.90983 -1.88493 0
M  V30 3740 C 358.406 -4.05462 -1.41064 0
M  V30 3741 C 357.639 -4.69179 -2.54375 0
M  V30 3742 O 357.862 -4.31895 -3.72589 0
M  V30 3743 O 356.796 -5.58108 -2.25386 0
M  V30 3744 H 360.622 -3.03353 -0.145149 0
M  V30 3745 H 358.207 -1.49399 -0.00569476 0
M  V30 3746 H 360.089 -3.33209 -2.57972 0
M  V30 3747 H 358.764 -2.14653 -2.42293 0
M  V30 3748 H 357.671 -3.67798 -0.683774 0
M  V30 3749 H 359.004 -4.83545 -0.918985 0
M  V30 3750 N 360.656 0.0484629 -1.57525 0
M  V30 3751 C 361.619 1.03956 -2.04269 0
M  V30 3752 C 362.619 1.30211 -0.943496 0
M  V30 3753 O 363.809 1.25539 -1.20771 0
M  V30 3754 C 360.941 2.37742 -2.44319 0
M  V30 3755 H 362.134 0.636182 -2.93075 0
M  V30 3756 H 359.687 0.294811 -1.53494 0
M  V30 3757 H 360.422 2.82866 -1.5861 0
M  V30 3758 H 360.207 2.20021 -3.24551 0
M  V30 3759 H 361.697 3.08936 -2.80978 0
M  V30 3760 N 362.134 1.5431 0.320358 0
M  V30 3761 C 363.38 1.72924 1.05949 0
M  V30 3762 C 363.713 0.503185 1.87568 0
M  V30 3763 O 362.988 -0.499839 1.87968 0
M  V30 3764 C 363.271 3.00676 1.98156 0
M  V30 3765 C 363.124 4.3354 1.19845 0
M  V30 3766 C 364.443 3.24198 2.9763 0
M  V30 3767 H 361.562 0.629195 0.383774 0
M  V30 3768 H 364.204 1.87008 0.335854 0
M  V30 3769 H 362.354 2.888 2.59859 0
M  V30 3770 H 364.026 4.57305 0.605773 0
M  V30 3771 H 362.269 4.309 0.500784 0
M  V30 3772 H 362.94 5.19156 1.87567 0
M  V30 3773 H 365.416 3.35557 2.4605 0
M  V30 3774 H 364.292 4.14938 3.59329 0
M  V30 3775 H 364.553 2.41577 3.7026 0
M  V30 3776 N 363.613 -0.582584 1.46437 0
M  V30 3777 C 365.029 -0.905962 1.31394 0
M  V30 3778 C 365.229 -1.99468 0.285476 0
M  V30 3779 O 364.285 -2.50566 -0.311914 0
M  V30 3780 C 365.598 -1.3232 2.70022 0
M  V30 3781 C 367.146 -1.43604 2.78113 0
M  V30 3782 C 367.621 -1.88694 4.17323 0
M  V30 3783 N 369.112 -1.95887 4.19741 0
M  V30 3784 C 369.847 -2.32051 5.24347 0
M  V30 3785 N 369.343 -2.67006 6.39281 0
M  V30 3786 N 371.136 -2.32606 5.11713 0
M  V30 3787 H 363.287 0.1366 2.1196 0
M  V30 3788 H 365.55 -0.00155736 0.947999 0
M  V30 3789 H 365.256 -0.597242 3.46592 0
M  V30 3790 H 365.13 -2.28469 3.00136 0
M  V30 3791 H 367.517 -2.15286 2.01832 0
M  V30 3792 H 367.598 -0.457059 2.51684 0
M  V30 3793 H 367.242 -1.1759 4.941 0
M  V30 3794 H 367.172 -2.8755 4.4116 0
M  V30 3795 H 369.663 -1.71362 3.36814 0
M  V30 3796 H 369.976 -2.93554 7.14875 0
M  V30 3797 H 368.321 -2.64644 6.42642 0
M  V30 3798 H 371.512 -2.04721 4.2096 0
M  V30 3799 H 371.685 -2.60462 5.93349 0
M  V30 3800 N 365.091 -1.34144 -0.827227 0
M  V30 3801 C 366.041 -1.21923 -1.92663 0
M  V30 3802 C 367.025 -0.119294 -1.60457 0
M  V30 3803 O 368.217 -0.348539 -1.73534 0
M  V30 3804 C 365.346 -0.972492 -3.29238 0
M  V30 3805 C 364.432 -2.1154 -3.67576 0
M  V30 3806 N 364.823 -3.36627 -3.77512 0
M  V30 3807 C 363.121 -2.02468 -3.97395 0
M  V30 3808 C 363.822 -4.11658 -4.1099 0
M  V30 3809 N 362.798 -3.40207 -4.23981 0
M  V30 3810 H 366.6 -2.16721 -1.98517 0
M  V30 3811 H 364.114 -1.2632 -1.02064 0
M  V30 3812 H 366.111 -0.865847 -4.0781 0
M  V30 3813 H 364.771 -0.0331509 -3.24683 0
M  V30 3814 H 365.782 -3.71234 -3.61118 0
M  V30 3815 H 362.459 -1.16265 -4.00985 0
M  V30 3816 H 363.849 -5.19657 -4.25918 0
M  V30 3817 N 366.569 1.04691 -1.17803 0
M  V30 3818 C 367.809 1.79352 -0.980423 0
M  V30 3819 C 368.173 1.85853 0.481958 0
M  V30 3820 O 369.374 2.56656 0.798809 0
M  V30 3821 C 367.645 3.19088 -1.6099 0
M  V30 3822 S 369.204 4.10164 -1.55918 0
M  V30 3823 H 366.022 0.617631 -0.352211 0
M  V30 3824 H 368.624 1.25575 -1.49837 0
M  V30 3825 H 367.328 3.11962 -2.66661 0
M  V30 3826 H 366.859 3.77941 -1.09197 0
M  V30 3827 H 368.874 4.92907 -0.570685 0
M  V30 3828 N 368.047 0.979072 1.23499 0
M  V30 3829 C 368.997 0.489378 2.22686 0
M  V30 3830 C 369.981 -0.434871 1.54912 0
M  V30 3831 O 371.173 -0.263941 1.75021 0
M  V30 3832 C 368.302 -0.208178 3.42668 0
M  V30 3833 C 367.388 0.735563 4.17672 0
M  V30 3834 N 367.779 1.87763 4.69658 0
M  V30 3835 C 366.077 0.548625 4.42613 0
M  V30 3836 C 366.778 2.46886 5.26709 0
M  V30 3837 N 365.754 1.75287 5.14563 0
M  V30 3838 H 369.556 1.36062 2.60508 0
M  V30 3839 H 367.07 0.83958 1.39014 0
M  V30 3840 H 369.067 -0.576295 4.12898 0
M  V30 3841 H 367.727 -1.07572 3.06363 0
M  V30 3842 H 368.738 2.25885 4.66043 0
M  V30 3843 H 365.415 -0.274006 4.166 0
M  V30 3844 H 366.805 3.43326 5.77561 0
M  V30 3845 N 369.525 -1.3858 0.750561 0
M  V30 3846 C 370.473 -2.32339 0.110162 0
M  V30 3847 C 371.467 -1.53864 -0.708674 0
M  V30 3848 O 372.673 -1.69417 -0.608112 0
M  V30 3849 H 369.048 -0.751812 0.0168275 0
M  V30 3850 H 371.019 -2.83959 0.917053 0
M  V30 3851 C 369.768 -3.39043 -0.771067 0
M  V30 3852 H 369.091 -3.99517 -0.150374 0
M  V30 3853 H 370.531 -4.07061 -1.1865 0
M  V30 3854 C 368.99 -2.77365 -1.91234 0
M  V30 3855 O 369.52 -2.66434 -3.00626 0
M  V30 3856 N 367.726 -2.35219 -1.70646 0
M  V30 3857 H 367.273 -2.4431 -0.81673 0
M  V30 3858 H 367.231 -1.94294 -2.47178 0
M  V30 3859 N 371.003 -0.499398 -1.49478 0
M  V30 3860 C 372.243 0.0440751 -2.04352 0
M  V30 3861 C 372.607 1.34423 -1.37093 0
M  V30 3862 O 373.808 1.97184 -1.82679 0
M  V30 3863 C 372.079 0.194918 -3.56868 0
M  V30 3864 S 373.638 0.69287 -4.33295 0
M  V30 3865 H 370.456 0.00253458 -0.710995 0
M  V30 3866 H 373.058 -0.673 -1.83551 0
M  V30 3867 H 371.762 -0.756672 -4.03364 0
M  V30 3868 H 371.293 0.93728 -3.82071 0
M  V30 3869 H 373.308 1.96226 -4.55752 0
M  V30 3870 N 372.481 1.55866 -0.233164 0
M  V30 3871 C 373.729 1.9821 0.394593 0
M  V30 3872 C 374.05 1.12234 1.59463 0
M  V30 3873 O 373.32 0.201981 1.94856 0
M  V30 3874 H 371.9 0.732034 0.148778 0
M  V30 3875 H 374.562 1.92107 -0.32876 0
M  V30 3876 H 373.658 3.03845 0.713063 0
M  V30 3877 N 373.959 -0.0401083 1.57549 0
M  V30 3878 C 375.205 -0.734211 1.89043 0
M  V30 3879 C 375.538 -1.75591 0.829535 0
M  V30 3880 O 374.813 -1.93868 -0.156706 0
M  V30 3881 C 375.096 -1.41374 3.31188 0
M  V30 3882 C 374.949 -0.406299 4.47961 0
M  V30 3883 C 376.268 -2.35061 3.72068 0
M  V30 3884 H 373.387 -0.265447 0.687537 0
M  V30 3885 H 376.029 0.00294087 1.9 0
M  V30 3886 H 374.179 -2.04206 3.30503 0
M  V30 3887 H 375.851 0.219255 4.60779 0
M  V30 3888 H 374.094 0.275485 4.32924 0
M  V30 3889 H 374.765 -0.920022 5.44279 0
M  V30 3890 H 377.241 -1.82282 3.74049 0
M  V30 3891 H 376.117 -2.79593 4.72355 0
M  V30 3892 H 376.378 -3.21258 3.0372 0
M  V30 3893 N 375.437 -1.54477 -0.31217 0
M  V30 3894 C 376.367 -1.87652 -1.38957 0
M  V30 3895 C 377.348 -0.734358 -1.53431 0
M  V30 3896 O 378.533 -0.98911 -1.67123 0
M  V30 3897 C 375.663 -2.11396 -2.75552 0
M  V30 3898 C 374.617 -3.27243 -2.75855 0
M  V30 3899 C 373.943 -3.36382 -4.15633 0
M  V30 3900 C 375.243 -4.64622 -2.38587 0
M  V30 3901 H 376.937 -2.77887 -1.11442 0
M  V30 3902 H 374.483 -1.33707 -0.534655 0
M  V30 3903 H 376.436 -2.33189 -3.51 0
M  V30 3904 H 375.16 -1.17921 -3.04569 0
M  V30 3905 H 373.819 -3.05356 -2.02863 0
M  V30 3906 H 373.467 -2.40445 -4.41809 0
M  V30 3907 H 373.167 -4.14249 -4.1674 0
M  V30 3908 H 374.691 -3.60422 -4.92877 0
M  V30 3909 H 376.105 -4.86219 -3.03749 0
M  V30 3910 H 374.502 -5.45121 -2.50925 0
M  V30 3911 H 375.572 -4.66097 -1.33723 0
M  V30 3912 N 376.915 0.57481 -1.46744 0
M  V30 3913 C 377.865 1.67838 -1.54319 0
M  V30 3914 C 378.849 1.55759 -0.40346 0
M  V30 3915 O 380.041 1.6454 -0.652347 0
M  V30 3916 C 377.17 3.06624 -1.5439 0
M  V30 3917 C 376.256 3.23971 -2.73685 0
M  V30 3918 N 376.647 3.11447 -3.9854 0
M  V30 3919 C 374.945 3.5493 -2.70075 0
M  V30 3920 C 375.646 3.31011 -4.78337 0
M  V30 3921 N 374.622 3.56533 -4.10348 0
M  V30 3922 H 378.424 1.56698 -2.48642 0
M  V30 3923 H 375.938 0.779071 -1.42493 0
M  V30 3924 H 377.935 3.85839 -1.57905 0
M  V30 3925 H 376.595 3.1889 -0.611493 0
M  V30 3926 H 377.606 2.89145 -4.29669 0
M  V30 3927 H 374.283 3.73832 -1.85893 0
M  V30 3928 H 375.673 3.26445 -5.87268 0
M  V30 3929 N 378.394 1.34581 0.820102 0
M  V30 3930 C 379.81 1.14325 1.11364 0
M  V30 3931 C 380.01 -0.0533648 2.01429 0
M  V30 3932 O 379.066 -0.728044 2.41776 0
M  V30 3933 C 380.379 2.43983 1.75764 0
M  V30 3934 C 381.927 2.50065 1.88246 0
M  V30 3935 C 382.402 3.79732 2.56061 0
M  V30 3936 N 383.893 3.80908 2.63558 0
M  V30 3937 C 384.628 4.77961 3.16766 0
M  V30 3938 N 384.124 5.85397 3.70517 0
M  V30 3939 N 385.917 4.65413 3.15194 0
M  V30 3940 H 378.068 2.11246 0.221096 0
M  V30 3941 H 380.331 0.934289 0.160649 0
M  V30 3942 H 380.037 3.31651 1.1705 0
M  V30 3943 H 379.911 2.57531 2.75604 0
M  V30 3944 H 382.298 1.62834 2.46108 0
M  V30 3945 H 382.379 2.40442 0.873006 0
M  V30 3946 H 382.023 4.67354 1.98853 0
M  V30 3947 H 381.953 3.86639 3.57516 0
M  V30 3948 H 384.444 3.03274 2.25463 0
M  V30 3949 H 384.757 6.55463 4.09376 0
M  V30 3950 H 383.102 5.89107 3.68752 0
M  V30 3951 H 386.293 3.80627 2.72471 0
M  V30 3952 H 386.466 5.41216 3.56356 0
M  V30 3953 N 379.872 -1.04064 1.18357 0
M  V30 3954 C 381.149 -1.74252 0.888581 0
M  V30 3955 C 381.529 -2.02138 -0.60856 0
M  V30 3956 O 380.877 -1.66656 -1.56327 0
M  V30 3957 C 381.087 -3.0277 1.73584 0
M  V30 3958 C 382.435 -3.76506 1.96286 0
M  V30 3959 O 383.459 -3.12668 1.70637 0
M  V30 3960 O 382.318 -4.91243 2.39464 0
M  V30 3961 H 379.412 -0.758271 0.330082 0
M  V30 3962 H 381.958 -1.1013 1.2911 0
M  V30 3963 H 380.73 -2.78299 2.75073 0
M  V30 3964 H 380.353 -3.74631 1.33183 0
M  V30 3965 N 381.35 -0.985608 -1.22978 0
M  V30 3966 C 382.599 -0.652881 -1.90841 0
M  V30 3967 C 382.912 0.817842 -1.77681 0
M  V30 3968 O 384.118 1.26185 -2.40395 0
M  V30 3969 C 382.574 -1.11717 -3.42122 0
M  V30 3970 C 382.182 -2.6126 -3.63933 0
M  V30 3971 C 383.926 -0.85843 -4.1573 0
M  V30 3972 C 381.833 -3.0133 -5.08876 0
M  V30 3973 H 380.763 -0.240491 -0.714619 0
M  V30 3974 H 383.414 -1.1942 -1.39324 0
M  V30 3975 H 381.796 -0.504027 -3.92779 0
M  V30 3976 H 382.97 -3.27858 -3.23799 0
M  V30 3977 H 381.285 -2.84937 -3.03644 0
M  V30 3978 H 383.882 -1.13359 -5.22546 0
M  V30 3979 H 384.225 0.205461 -4.15793 0
M  V30 3980 H 384.758 -1.43341 -3.71077 0
M  V30 3981 H 381.497 -4.06864 -5.13947 0
M  V30 3982 H 381.017 -2.3943 -5.49939 0
M  V30 3983 H 382.696 -2.92224 -5.77247 0
M  V30 3984 N 382.828 1.3818 -0.7579 0
M  V30 3985 C 383.775 2.30416 -0.133057 0
M  V30 3986 C 384.745 1.50398 0.704957 0
M  V30 3987 O 385.93 1.79014 0.660192 0
M  V30 3988 C 383.07 3.36834 0.750813 0
M  V30 3989 C 382.183 4.31879 -0.102297 0
M  V30 3990 C 381.318 5.25368 0.784979 0
M  V30 3991 C 380.357 6.12058 -0.0715046 0
M  V30 3992 N 379.494 6.97832 0.772972 0
M  V30 3993 H 384.334 2.83274 -0.925186 0
M  V30 3994 H 381.871 1.39461 -0.467866 0
M  V30 3995 H 383.829 3.97145 1.27794 0
M  V30 3996 H 382.459 2.85374 1.50868 0
M  V30 3997 H 381.511 3.72991 -0.747095 0
M  V30 3998 H 382.823 4.92921 -0.763552 0
M  V30 3999 H 381.977 5.90818 1.37911 0
M  V30 4000 H 380.716 4.64703 1.47996 0
M  V30 4001 H 379.721 5.456 -0.678272 0
M  V30 4002 H 380.946 6.74793 -0.763606 0
M  V30 4003 H 378.892 6.3971 1.45282 0
M  V30 4004 H 378.809 7.55812 0.168709 0
M  V30 4005 H 380.077 7.67687 1.35194 0
M  V30 4006 N 384.306 0.507319 1.49211 0
M  V30 4007 C 385.583 -0.0982702 1.95353 0
M  V30 4008 C 385.963 -1.53516 1.449 0
M  V30 4009 O 385.311 -2.18594 0.66551 0
M  V30 4010 C 385.521 -0.00440283 3.49 0
M  V30 4011 C 386.869 -0.175147 4.24239 0
M  V30 4012 O 387.893 -0.0792891 3.56112 0
M  V30 4013 O 386.752 -0.37276 5.45227 0
M  V30 4014 H 383.846 -0.0918236 0.821887 0
M  V30 4015 H 386.392 0.570307 1.5983 0
M  V30 4016 H 385.164 0.997402 3.78375 0
M  V30 4017 H 384.787 -0.712845 3.91158 0
M  V30 4018 N 385.784 -1.5574 0.241426 0
M  V30 4019 C 386.694 -2.2479 -0.671305 0
M  V30 4020 C 387.71 -1.26217 -1.19772 0
M  V30 4021 O 388.886 -1.59079 -1.23514 0
M  V30 4022 C 385.951 -2.92966 -1.85396 0
M  V30 4023 C 385.012 -4.06935 -1.36756 0
M  V30 4024 C 384.245 -4.71851 -2.49384 0
M  V30 4025 O 384.468 -4.35823 -3.67987 0
M  V30 4026 O 383.402 -5.60467 -2.19454 0
M  V30 4027 H 387.228 -3.0349 -0.112966 0
M  V30 4028 H 384.813 -1.49397 0.0101513 0
M  V30 4029 H 386.695 -3.35927 -2.54423 0
M  V30 4030 H 385.37 -2.17211 -2.40002 0
M  V30 4031 H 384.277 -3.68503 -0.644726 0
M  V30 4032 H 385.61 -4.84492 -0.867647 0
M  V30 4033 N 387.262 0.0317525 -1.57568 0
M  V30 4034 C 388.21 1.05165 -2.07468 0
M  V30 4035 C 389.204 1.3761 -0.98792 0
M  V30 4036 O 390.41 1.36546 -1.17282 0
M  V30 4037 H 386.785 0.35666 -0.66204 0
M  V30 4038 H 388.756 0.604958 -2.92203 0
M  V30 4039 C 387.505 2.34488 -2.56731 0
M  V30 4040 H 386.828 2.10383 -3.39969 0
M  V30 4041 H 388.268 3.04203 -2.95358 0
M  V30 4042 C 386.727 3.03266 -1.46736 0
M  V30 4043 O 387.257 3.92988 -0.832069 0
M  V30 4044 N 385.463 2.6455 -1.20256 0
M  V30 4045 H 385.01 1.91674 -1.72102 0
M  V30 4046 H 384.968 3.10886 -0.468737 0
M  V30 4047 N 388.74 1.54641 0.303973 0
M  V30 4048 C 389.989 1.7299 1.03717 0
M  V30 4049 C 390.302 0.521168 1.88529 0
M  V30 4050 O 391.508 0.586408 2.65092 0
M  V30 4051 C 389.964 3.06051 1.89369 0
M  V30 4052 C 389.572 4.34393 1.09574 0
M  V30 4053 C 391.316 3.3376 2.62306 0
M  V30 4054 C 389.223 5.58506 1.94486 0
M  V30 4055 H 388.153 0.64473 0.390947 0
M  V30 4056 H 390.804 1.81124 0.294328 0
M  V30 4057 H 389.186 2.91874 2.67629 0
M  V30 4058 H 390.36 4.59396 0.359485 0
M  V30 4059 H 388.675 4.13597 0.482324 0
M  V30 4060 H 391.272 4.23687 3.26181 0
M  V30 4061 H 391.615 2.52503 3.3098 0
M  V30 4062 H 392.148 3.48894 1.91097 0
M  V30 4063 H 388.887 6.42422 1.30287 0
M  V30 4064 H 388.407 5.37694 2.65792 0
M  V30 4065 H 390.086 5.95651 2.52605 0
M  V30 4066 N 390.218 -0.567019 1.47046 0
M  V30 4067 C 391.148 -1.68482 1.61667 0
M  V30 4068 C 392.129 -1.6358 0.466418 0
M  V30 4069 O 393.314 -1.81354 0.694574 0
M  V30 4070 C 390.444 -3.07124 1.62148 0
M  V30 4071 C 389.398 -3.26867 2.76301 0
M  V30 4072 C 388.724 -4.66196 2.61849 0
M  V30 4073 C 390.024 -3.13186 4.17986 0
M  V30 4074 H 391.718 -1.56502 2.5524 0
M  V30 4075 H 389.264 -0.751486 1.22836 0
M  V30 4076 H 391.217 -3.8516 1.70968 0
M  V30 4077 H 389.941 -3.2004 0.651287 0
M  V30 4078 H 388.6 -2.51237 2.66975 0
M  V30 4079 H 388.248 -4.75898 1.62879 0
M  V30 4080 H 387.948 -4.80356 3.38425 0
M  V30 4081 H 389.472 -5.46379 2.72584 0
M  V30 4082 H 390.886 -3.81049 4.2834 0
M  V30 4083 H 389.283 -3.3886 4.95272 0
M  V30 4084 H 390.353 -2.10057 4.3704 0
M  V30 4085 N 391.696 -1.35014 -0.812953 0
M  V30 4086 C 392.945 -1.27269 -1.56479 0
M  V30 4087 C 393.258 0.152771 -1.95002 0
M  V30 4088 O 394.464 0.352451 -2.69203 0
M  V30 4089 C 392.92 -2.23159 -2.82362 0
M  V30 4090 C 392.528 -3.71016 -2.511 0
M  V30 4091 C 394.272 -2.24342 -3.60376 0
M  V30 4092 C 392.179 -4.58746 -3.73237 0
M  V30 4093 H 391.109 -0.472829 -0.587324 0
M  V30 4094 H 393.76 -1.6024 -0.894171 0
M  V30 4095 H 392.142 -1.83151 -3.51101 0
M  V30 4096 H 393.316 -4.1962 -1.90409 0
M  V30 4097 H 391.631 -3.72378 -1.86343 0
M  V30 4098 H 394.228 -2.87107 -4.51081 0
M  V30 4099 H 394.571 -1.24542 -3.97234 0
M  V30 4100 H 395.104 -2.62846 -2.98591 0
M  V30 4101 H 391.843 -5.59521 -3.41492 0
M  V30 4102 H 391.363 -4.14871 -4.33176 0
M  V30 4103 H 393.042 -4.73852 -4.40537 0
M  V30 4104 N 393.175 1.03435 -1.18907 0
M  V30 4105 C 394.452 1.73778 -0.89781 0
M  V30 4106 C 394.832 2.02458 0.597832 0
M  V30 4107 O 394.18 1.67482 1.55441 0
M  V30 4108 C 394.39 3.01845 -1.75187 0
M  V30 4109 C 395.738 3.7546 -1.9828 0
M  V30 4110 O 396.762 3.11759 -1.72293 0
M  V30 4111 O 395.621 4.89966 -2.42065 0
M  V30 4112 H 392.715 0.75651 -0.334098 0
M  V30 4113 H 395.261 1.09444 -1.29693 0
M  V30 4114 H 394.033 2.76836 -2.76545 0
M  V30 4115 H 393.656 3.73919 -1.35167 0
M  V30 4116 N 394.653 0.992116 1.22453 0
M  V30 4117 C 395.583 0.561677 2.26644 0
M  V30 4118 C 396.564 -0.411055 1.65059 0
M  V30 4119 O 397.749 -0.301861 1.9184 0
M  V30 4120 C 394.879 -0.125247 3.47074 0
M  V30 4121 C 393.833 0.765948 4.21091 0
M  V30 4122 C 393.159 -0.0538484 5.34673 0
M  V30 4123 C 394.459 2.06242 4.79856 0
M  V30 4124 H 396.153 1.43259 2.62902 0
M  V30 4125 H 393.699 0.690283 1.26377 0
M  V30 4126 H 395.652 -0.437764 4.1912 0
M  V30 4127 H 394.376 -1.03069 3.0991 0
M  V30 4128 H 393.035 1.0621 3.50878 0
M  V30 4129 H 392.683 -0.960188 4.9375 0
M  V30 4130 H 392.383 0.539415 5.85119 0
M  V30 4131 H 393.907 -0.360477 6.09535 0
M  V30 4132 H 395.321 1.8139 5.43848 0
M  V30 4133 H 393.718 2.60444 5.40638 0
M  V30 4134 H 394.788 2.74167 3.99951 0
M  V30 4135 N 396.131 -1.37776 0.765217 0
M  V30 4136 C 397.079 -2.32209 0.134798 0
M  V30 4137 C 398.073 -1.54607 -0.692315 0
M  V30 4138 O 399.279 -1.70052 -0.590109 0
M  V30 4139 H 395.654 -0.751591 0.0248005 0
M  V30 4140 H 397.625 -2.8297 0.947119 0
M  V30 4141 C 396.374 -3.39841 -0.735063 0
M  V30 4142 H 395.697 -3.99654 -0.107991 0
M  V30 4143 H 397.137 -4.08296 -1.14326 0
M  V30 4144 C 395.596 -2.79378 -1.88281 0
M  V30 4145 O 396.126 -2.69608 -2.97783 0
M  V30 4146 N 394.332 -2.37016 -1.68142 0
M  V30 4147 H 393.879 -2.45162 -0.790772 0
M  V30 4148 H 393.837 -1.96905 -2.45104 0
M  V30 4149 N 397.609 -0.515225 -1.4894 0
M  V30 4150 C 399.025 -0.172099 -1.58669 0
M  V30 4151 C 399.225 1.32405 -1.51892 0
M  V30 4152 O 398.281 2.10116 -1.40027 0
M  V30 4153 C 399.594 -0.761533 -2.90897 0
M  V30 4154 C 401.142 -0.728926 -3.04394 0
M  V30 4155 C 401.617 -1.29667 -4.39261 0
M  V30 4156 N 403.108 -1.25799 -4.4579 0
M  V30 4157 C 403.843 -1.66733 -5.48623 0
M  V30 4158 N 403.339 -2.15327 -6.58488 0
M  V30 4159 N 405.132 -1.58061 -5.39419 0
M  V30 4160 H 397.283 -1.48778 -1.51588 0
M  V30 4161 H 399.546 -0.617968 -0.718901 0
M  V30 4162 H 399.252 -1.81136 -3.01468 0
M  V30 4163 H 399.126 -0.230106 -3.76497 0
M  V30 4164 H 401.513 0.312098 -2.93445 0
M  V30 4165 H 401.594 -1.29766 -2.20442 0
M  V30 4166 H 401.238 -2.33655 -4.50963 0
M  V30 4167 H 401.168 -0.703752 -5.21876 0
M  V30 4168 H 403.659 -0.902102 -3.66975 0
M  V30 4169 H 403.972 -2.44594 -7.33071 0
M  V30 4170 H 402.317 -2.19311 -6.59491 0
M  V30 4171 H 405.508 -1.19906 -4.52482 0
M  V30 4172 H 405.681 -1.90284 -6.19432 0
M  V30 4173 N 399.087 1.5561 -0.249682 0
M  V30 4174 C 400.335 1.98618 0.373548 0
M  V30 4175 C 400.656 1.13919 1.58264 0
M  V30 4176 O 399.926 0.222637 1.94631 0
M  V30 4177 H 398.506 0.733571 0.141006 0
M  V30 4178 H 401.168 1.91748 -0.349117 0
M  V30 4179 H 400.264 3.04584 0.680796 0
M  V30 4180 N 400.565 -0.0233959 1.57583 0
M  V30 4181 C 401.475 -1.03907 2.10334 0
M  V30 4182 C 402.491 -1.39257 1.04323 0
M  V30 4183 O 403.667 -1.48462 1.36091 0
M  V30 4184 C 400.732 -2.31938 2.57693 0
M  V30 4185 C 399.793 -2.03117 3.78209 0
M  V30 4186 C 399.026 -3.25043 4.233 0
M  V30 4187 O 399.249 -4.35916 3.67876 0
M  V30 4188 O 398.183 -3.10411 5.15683 0
M  V30 4189 H 402.009 -0.620748 2.97288 0
M  V30 4190 H 399.594 -0.240743 1.47448 0
M  V30 4191 H 401.476 -3.07196 2.88458 0
M  V30 4192 H 400.151 -2.73055 1.73847 0
M  V30 4193 H 399.058 -1.25408 3.52454 0
M  V30 4194 H 400.391 -1.66852 4.63056 0
M  V30 4195 N 402.043 -1.548 -0.295768 0
M  V30 4196 C 402.973 -1.89115 -1.36959 0
M  V30 4197 C 403.954 -0.75059 -1.52644 0
M  V30 4198 O 405.139 -1.00678 -1.66065 0
M  V30 4199 C 402.269 -2.14307 -2.73295 0
M  V30 4200 C 401.223 -3.30151 -2.72368 0
M  V30 4201 C 400.549 -3.40772 -4.12042 0
M  V30 4202 C 401.849 -4.67126 -2.33646 0
M  V30 4203 H 403.543 -2.79053 -1.08488 0
M  V30 4204 H 401.089 -1.34266 -0.520443 0
M  V30 4205 H 403.042 -2.36898 -3.48507 0
M  V30 4206 H 401.766 -1.21145 -3.03301 0
M  V30 4207 H 400.425 -3.0749 -1.99613 0
M  V30 4208 H 400.073 -2.45117 -4.39234 0
M  V30 4209 H 399.773 -4.18645 -4.12322 0
M  V30 4210 H 401.297 -3.6563 -4.89027 0
M  V30 4211 H 402.711 -4.89414 -2.98575 0
M  V30 4212 H 401.108 -5.47751 -2.45129 0
M  V30 4213 H 402.178 -4.67489 -1.28772 0
M  V30 4214 N 403.521 0.559213 -1.47345 0
M  V30 4215 C 404.468 1.66645 -1.59682 0
M  V30 4216 C 405.438 1.60168 -0.43994 0
M  V30 4217 O 406.623 1.79031 -0.659736 0
M  V30 4218 C 403.763 3.04969 -1.61518 0
M  V30 4219 C 402.876 3.21897 -2.88108 0
M  V30 4220 C 402.011 4.50608 -2.81294 0
M  V30 4221 C 401.05 4.60961 -4.02717 0
M  V30 4222 N 400.187 5.81024 -3.94151 0
M  V30 4223 H 405.027 1.55439 -2.54249 0
M  V30 4224 H 402.564 0.757219 -1.26113 0
M  V30 4225 H 404.522 3.85064 -1.60566 0
M  V30 4226 H 403.152 3.15015 -0.704645 0
M  V30 4227 H 402.204 2.35248 -2.98936 0
M  V30 4228 H 403.516 3.25412 -3.78032 0
M  V30 4229 H 402.67 5.3896 -2.7858 0
M  V30 4230 H 401.409 4.49568 -1.89049 0
M  V30 4231 H 400.414 3.71021 -4.05738 0
M  V30 4232 H 401.639 4.63761 -4.96087 0
M  V30 4233 H 399.585 5.80938 -3.04708 0
M  V30 4234 H 399.502 5.85909 -4.77752 0
M  V30 4235 H 400.77 6.71744 -3.9545 0
M  V30 4236 N 404.999 1.35443 0.805782 0
M  V30 4237 C 405.929 1.31095 1.93226 0
M  V30 4238 C 406.91 0.185244 1.69088 0
M  V30 4239 O 408.095 0.380332 1.90439 0
M  V30 4240 C 405.225 1.08299 3.29983 0
M  V30 4241 C 404.179 2.17519 3.68605 0
M  V30 4242 C 403.505 1.79887 5.03532 0
M  V30 4243 C 404.805 3.5949 3.78898 0
M  V30 4244 H 406.499 2.25352 1.97122 0
M  V30 4245 H 404.045 1.0848 0.946996 0
M  V30 4246 H 405.998 1.03897 4.08391 0
M  V30 4247 H 404.722 0.104885 3.26432 0
M  V30 4248 H 403.381 2.2102 2.92482 0
M  V30 4249 H 403.029 0.80693 4.96485 0
M  V30 4250 H 402.729 2.53001 5.30344 0
M  V30 4251 H 404.253 1.77011 5.84379 0
M  V30 4252 H 405.667 3.58307 4.47536 0
M  V30 4253 H 404.064 4.31371 4.1718 0
M  V30 4254 H 405.134 3.95584 2.80431 0
M  V30 4255 N 406.477 -1.02803 1.19454 0
M  V30 4256 C 407.726 -1.7562 0.991996 0
M  V30 4257 C 408.039 -1.89672 -0.477901 0
M  V30 4258 O 409.245 -2.59468 -0.799287 0
M  V30 4259 C 407.701 -3.15812 1.72601 0
M  V30 4260 C 407.309 -3.0981 3.23607 0
M  V30 4261 C 409.053 -3.92918 1.60674 0
M  V30 4262 C 406.96 -4.44939 3.89594 0
M  V30 4263 H 405.89 -0.658352 0.367543 0
M  V30 4264 H 408.541 -1.15044 1.42959 0
M  V30 4265 H 406.923 -3.7686 1.21624 0
M  V30 4266 H 408.097 -2.58138 3.81709 0
M  V30 4267 H 406.412 -2.46201 3.35819 0
M  V30 4268 H 409.009 -4.9287 2.07323 0
M  V30 4269 H 409.352 -4.12502 0.561025 0
M  V30 4270 H 409.885 -3.38472 2.09001 0
M  V30 4271 H 406.624 -4.30559 4.94267 0
M  V30 4272 H 406.144 -4.96664 3.36281 0
M  V30 4273 H 407.823 -5.1382 3.93189 0
M  V30 4274 N 407.956 -0.998596 -1.21925 0
M  V30 4275 C 409.233 -0.593401 -1.86382 0
M  V30 4276 C 409.613 0.92916 -1.89552 0
M  V30 4277 O 408.961 1.81347 -1.39017 0
M  V30 4278 C 409.171 -1.22039 -3.26967 0
M  V30 4279 C 410.519 -1.32449 -4.03413 0
M  V30 4280 O 411.543 -1.17522 -3.36254 0
M  V30 4281 O 410.402 -1.56395 -5.23644 0
M  V30 4282 H 407.496 -0.202385 -0.801854 0
M  V30 4283 H 410.042 -1.09484 -1.29659 0
M  V30 4284 H 408.814 -2.26158 -3.19325 0
M  V30 4285 H 408.437 -0.704906 -3.91301 0
M  V30 4286 N 409.434 1.37368 -0.772513 0
M  V30 4287 C 410.681 1.99673 -0.337182 0
M  V30 4288 C 411.009 1.61324 1.0865 0
M  V30 4289 O 410.264 0.851377 1.7621 0
M  V30 4290 C 410.563 3.54817 -0.428876 0
M  V30 4291 C 410.229 4.12936 -1.81092 0
M  V30 4292 C 408.891 4.28523 -2.1891 0
M  V30 4293 C 411.243 4.44801 -2.71664 0
M  V30 4294 C 408.571 4.73277 -3.46735 0
M  V30 4295 C 410.923 4.90981 -3.98899 0
M  V30 4296 C 409.587 5.04773 -4.36761 0
M  V30 4297 H 408.857 0.730656 -0.123384 0
M  V30 4298 H 411.504 1.64124 -0.986686 0
M  V30 4299 H 409.809 3.90618 0.304167 0
M  V30 4300 H 411.506 4.00933 -0.0733334 0
M  V30 4301 H 408.096 4.01233 -1.50699 0
M  V30 4302 H 412.28 4.32344 -2.43706 0
M  V30 4303 H 407.536 4.82142 -3.75964 0
M  V30 4304 H 411.71 5.14603 -4.69208 0
M  V30 4305 H 409.337 5.39211 -5.35868 0
M  V30 4306 N 410.912 0.523116 1.48665 0
M  V30 4307 C 412.16 -0.0134497 2.02096 0
M  V30 4308 C 412.481 -1.35418 1.40311 0
M  V30 4309 O 411.751 -1.87543 0.566074 0
M  V30 4310 H 410.331 -0.00795915 0.746958 0
M  V30 4311 H 412.993 0.685388 1.82451 0
M  V30 4312 H 412.089 -0.126849 3.11842 0
M  V30 4313 N 412.39 -1.55475 0.257931 0
M  V30 4314 C 413.615 -2.04064 -0.370488 0
M  V30 4315 C 414.04 -1.13565 -1.49948 0
M  V30 4316 O 413.398 -0.130781 -1.80828 0
M  V30 4317 C 413.446 -3.50554 -0.845237 0
M  V30 4318 O 412.55 -3.63173 -1.95394 0
M  V30 4319 H 411.891 -0.659257 -0.0792243 0
M  V30 4320 H 414.421 -2.00903 0.387212 0
M  V30 4321 H 414.431 -3.91588 -1.14555 0
M  V30 4322 H 413.106 -4.15896 -0.0191259 0
M  V30 4323 H 411.683 -3.34039 -1.65748 0
M  V30 4324 N 413.868 0.0150385 -1.57593 0
M  V30 4325 C 415.116 0.701613 -1.8953 0
M  V30 4326 C 415.437 1.75139 -0.857396 0
M  V30 4327 O 414.707 1.95607 0.107194 0
M  V30 4328 H 413.287 0.26213 -0.699498 0
M  V30 4329 H 415.949 -0.0223304 -1.94887 0
M  V30 4330 H 415.045 1.18236 -2.88837 0
M  V30 4331 N 415.346 1.54954 0.287554 0
M  V30 4332 C 416.309 1.86076 1.33823 0
M  V30 4333 C 417.309 0.734414 1.43049 0
M  V30 4334 O 418.499 1.00266 1.42452 0
M  V30 4335 C 415.631 2.05305 2.72144 0
M  V30 4336 H 416.824 2.79984 1.07465 0
M  V30 4337 H 414.377 1.47223 0.524902 0
M  V30 4338 H 415.112 1.1373 3.03704 0
M  V30 4339 H 414.897 2.873 2.66836 0
M  V30 4340 H 416.387 2.30706 3.48087 0
M  V30 4341 N 416.824 -0.551391 1.4764 0
M  V30 4342 C 417.754 -1.66757 1.63445 0
M  V30 4343 C 418.735 -1.63077 0.483742 0
M  V30 4344 O 419.92 -1.80607 0.71377 0
M  V30 4345 C 417.05 -3.05387 1.65396 0
M  V30 4346 C 416.004 -3.23918 2.79752 0
M  V30 4347 C 415.33 -4.63393 2.66779 0
M  V30 4348 C 416.63 -3.08735 4.21284 0
M  V30 4349 H 418.324 -1.53786 2.56886 0
M  V30 4350 H 415.87 -0.738415 1.23626 0
M  V30 4351 H 417.823 -3.83325 1.75043 0
M  V30 4352 H 416.547 -3.19332 0.685195 0
M  V30 4353 H 415.206 -2.48391 2.69625 0
M  V30 4354 H 414.854 -4.74144 1.67918 0
M  V30 4355 H 414.554 -4.7674 3.43501 0
M  V30 4356 H 416.078 -5.43458 2.78364 0
M  V30 4357 H 417.492 -3.76484 4.32357 0
M  V30 4358 H 415.889 -3.33588 4.98838 0
M  V30 4359 H 416.959 -2.0541 4.39243 0
M  V30 4360 N 418.302 -1.35869 -0.798587 0
M  V30 4361 C 419.232 -1.32118 -1.92528 0
M  V30 4362 C 420.213 -0.194209 -1.68988 0
M  V30 4363 O 421.398 -0.390426 -1.90235 0
M  V30 4364 C 418.528 -1.10047 -3.29404 0
M  V30 4365 C 417.482 -2.19471 -3.67446 0
M  V30 4366 C 416.808 -1.82555 -5.02571 0
M  V30 4367 C 418.108 -3.61495 -3.76987 0
M  V30 4368 H 419.802 -2.26394 -1.95924 0
M  V30 4369 H 417.348 -1.08981 -0.94123 0
M  V30 4370 H 419.301 -1.06061 -4.07835 0
M  V30 4371 H 418.025 -0.122195 -3.26371 0
M  V30 4372 H 416.684 -2.22568 -2.91306 0
M  V30 4373 H 416.332 -0.833249 -4.9605 0
M  V30 4374 H 416.032 -2.5581 -5.28995 0
M  V30 4375 H 417.556 -1.80108 -5.83432 0
M  V30 4376 H 418.97 -3.60676 -4.4563 0
M  V30 4377 H 417.367 -4.33577 -4.14887 0
M  V30 4378 H 418.437 -3.97065 -2.78329 0
M  V30 4379 N 419.78 1.02168 -1.19998 0
M  V30 4380 C 420.727 2.10601 -0.944228 0
M  V30 4381 C 421.697 1.65639 0.123664 0
M  V30 4382 O 422.882 1.9079 -0.0199941 0
M  V30 4383 C 420.022 3.41504 -0.496865 0
M  V30 4384 C 419.135 3.99973 -1.63234 0
M  V30 4385 C 418.27 5.18915 -1.13579 0
M  V30 4386 C 417.309 5.69456 -2.24468 0
M  V30 4387 N 416.446 6.79665 -1.76068 0
M  V30 4388 H 421.286 2.31814 -1.8726 0
M  V30 4389 H 418.823 1.13686 -0.933483 0
M  V30 4390 H 420.781 4.16626 -0.218843 0
M  V30 4391 H 419.411 3.2038 0.394508 0
M  V30 4392 H 418.463 3.21997 -2.0254 0
M  V30 4393 H 419.775 4.33492 -2.46752 0
M  V30 4394 H 418.929 6.01222 -0.813429 0
M  V30 4395 H 417.668 4.8695 -0.270434 0
M  V30 4396 H 416.673 4.85757 -2.57526 0
M  V30 4397 H 417.898 6.03459 -3.11472 0
M  V30 4398 H 415.844 6.49538 -0.918516 0
M  V30 4399 H 415.761 7.12349 -2.5317 0
M  V30 4400 H 417.029 7.65549 -1.46817 0
M  V30 4401 N 421.258 1.00505 1.21394 0
M  V30 4402 C 422.535 0.603277 1.86064 0
M  V30 4403 C 422.915 -0.919095 1.90042 0
M  V30 4404 O 422.263 -1.80607 1.39977 0
M  V30 4405 C 422.473 1.23772 3.26315 0
M  V30 4406 C 423.821 1.34586 4.02705 0
M  V30 4407 O 424.845 1.19304 3.35626 0
M  V30 4408 O 423.704 1.59169 5.22807 0
M  V30 4409 H 420.798 0.206634 0.800769 0
M  V30 4410 H 423.344 1.1017 1.29076 0
M  V30 4411 H 422.116 2.27848 3.18121 0
M  V30 4412 H 421.739 0.725648 3.90922 0
M  V30 4413 N 422.737 -1.36956 0.779787 0
M  V30 4414 C 423.965 -2.03755 0.359398 0
M  V30 4415 C 424.38 -1.58807 -1.02106 0
M  V30 4416 O 423.737 -0.773024 -1.6532 0
M  V30 4417 C 423.788 -3.59251 0.402568 0
M  V30 4418 O 423.509 -4.02557 1.72858 0
M  V30 4419 C 425.01 -4.43291 -0.0284068 0
M  V30 4420 H 422.23 -0.654148 0.149437 0
M  V30 4421 H 424.774 -1.75128 1.05595 0
M  V30 4422 H 422.929 -3.86621 -0.245478 0
M  V30 4423 H 423.343 -4.97111 1.67275 0
M  V30 4424 H 424.817 -5.51975 0.0529466 0
M  V30 4425 H 425.294 -4.25719 -1.07982 0
M  V30 4426 H 425.9 -4.21163 0.591758 0
M  V30 4427 N 424.215 -0.530993 -1.48385 0
M  V30 4428 C 425.461 0.00274135 -2.028 0
M  V30 4429 C 425.794 1.33838 -1.40716 0
M  V30 4430 O 425.069 1.86465 -0.553277 0
M  V30 4431 C 425.352 0.123676 -3.59888 0
M  V30 4432 C 425.205 -1.2372 -4.3245 0
M  V30 4433 C 426.524 0.849967 -4.31814 0
M  V30 4434 H 423.643 -0.000477758 -0.737 0
M  V30 4435 H 426.285 -0.688217 -1.77098 0
M  V30 4436 H 424.435 0.712157 -3.81917 0
M  V30 4437 H 426.107 -1.86687 -4.21836 0
M  V30 4438 H 424.35 -1.81882 -3.93829 0
M  V30 4439 H 425.021 -1.10557 -5.40815 0
M  V30 4440 H 427.497 0.350572 -4.14621 0
M  V30 4441 H 426.373 0.903486 -5.41413 0
M  V30 4442 H 426.634 1.90047 -3.99167 0
M  V30 4443 N 425.693 1.55336 -0.266172 0
M  V30 4444 C 426.923 2.03506 0.356239 0
M  V30 4445 C 427.331 1.14426 1.50676 0
M  V30 4446 O 426.674 0.155043 1.83045 0
M  V30 4447 C 426.736 3.47848 0.90785 0
M  V30 4448 C 426.4 4.56861 -0.112888 0
M  V30 4449 C 427.397 5.11528 -0.929264 0
M  V30 4450 C 425.082 5.01704 -0.244546 0
M  V30 4451 C 427.076 6.09549 -1.86357 0
M  V30 4452 C 424.763 5.99553 -1.18234 0
M  V30 4453 C 425.761 6.53356 -1.99036 0
M  V30 4454 O 425.449 7.49293 -2.91231 0
M  V30 4455 H 425.181 0.670444 0.08649 0
M  V30 4456 H 427.735 2.01598 -0.39337 0
M  V30 4457 H 425.965 3.46967 1.70737 0
M  V30 4458 H 427.654 3.79407 1.44239 0
M  V30 4459 H 428.42 4.77701 -0.838237 0
M  V30 4460 H 424.299 4.59477 0.374359 0
M  V30 4461 H 427.843 6.51469 -2.49467 0
M  V30 4462 H 423.74 6.32799 -1.27421 0
M  V30 4463 H 424.508 7.66978 -2.8581 0
M  V30 4464 N 427.171 -0.0066808 1.57599 0
M  V30 4465 C 428.399 -0.704087 1.94551 0
M  V30 4466 C 428.814 -1.67677 0.867746 0
M  V30 4467 O 428.171 -1.8185 -0.153925 0
M  V30 4468 C 428.222 -1.44177 3.31505 0
M  V30 4469 O 427.943 -0.508097 4.35144 0
M  V30 4470 C 429.444 -2.23429 3.82876 0
M  V30 4471 H 426.664 -0.196523 0.641576 0
M  V30 4472 H 429.208 0.042453 2.04456 0
M  V30 4473 H 427.363 -2.13999 3.22929 0
M  V30 4474 H 427.777 -1.02782 5.14331 0
M  V30 4475 H 429.251 -2.70552 4.8115 0
M  V30 4476 H 429.728 -3.05818 3.15233 0
M  V30 4477 H 430.334 -1.58636 3.94607 0
M  V30 4478 N 428.649 -1.55105 -0.279332 0
M  V30 4479 C 429.926 -1.66119 -1.03267 0
M  V30 4480 C 430.306 -0.523525 -2.04505 0
M  V30 4481 O 429.654 0.477194 -2.23462 0
M  V30 4482 C 429.864 -3.05067 -1.69515 0
M  V30 4483 C 431.212 -3.62606 -2.20912 0
M  V30 4484 O 432.236 -3.07659 -1.79512 0
M  V30 4485 O 431.095 -4.58861 -2.96831 0
M  V30 4486 H 428.189 -0.674429 -0.478618 0
M  V30 4487 H 430.735 -1.67446 -0.275694 0
M  V30 4488 H 429.507 -3.79311 -0.9612 0
M  V30 4489 H 429.13 -3.07611 -2.51915 0
M  V30 4490 N 430.127 0.543554 -1.4793 0
M  V30 4491 C 431.374 1.30008 -1.55255 0
M  V30 4492 C 431.702 1.93245 -0.220612 0
M  V30 4493 O 430.957 1.79141 0.787843 0
M  V30 4494 C 431.256 2.42078 -2.62932 0
M  V30 4495 C 430.922 1.96583 -4.0579 0
M  V30 4496 C 429.584 1.83893 -4.44676 0
M  V30 4497 C 431.936 1.62034 -4.95373 0
M  V30 4498 C 429.264 1.34969 -5.70964 0
M  V30 4499 C 431.616 1.14577 -6.22137 0
M  V30 4500 C 430.28 1.00493 -6.59892 0
M  V30 4501 H 429.55 0.475735 -0.568117 0
M  V30 4502 H 432.197 0.608075 -1.81589 0
M  V30 4503 H 430.502 3.16892 -2.30406 0
M  V30 4504 H 432.199 3.00236 -2.65818 0
M  V30 4505 H 428.789 2.07407 -3.75074 0
M  V30 4506 H 432.973 1.70705 -4.66019 0
M  V30 4507 H 428.229 1.2274 -5.98953 0
M  V30 4508 H 432.403 0.869109 -6.90955 0
M  V30 4509 H 430.03 0.623624 -7.57638 0
M  V30 4510 N 431.605 1.3629 0.791371 0
M  V30 4511 C 432.882 1.20962 1.53712 0
M  V30 4512 C 433.262 -0.205021 2.10102 0
M  V30 4513 O 432.61 -1.21042 1.93807 0
M  V30 4514 C 432.82 2.29002 2.63361 0
M  V30 4515 C 434.168 2.65572 3.31295 0
M  V30 4516 O 435.192 2.2803 2.73643 0
M  V30 4517 O 434.051 3.3018 4.35481 0
M  V30 4518 H 431.145 0.47086 0.679867 0
M  V30 4519 H 433.691 1.48016 0.830021 0
M  V30 4520 H 432.463 3.2382 2.19674 0
M  V30 4521 H 432.086 2.03303 3.41692 0
M  V30 4522 N 433.083 -1.0153 1.20538 0
M  V30 4523 C 434.331 -1.74803 1.01432 0
M  V30 4524 C 434.652 -1.8963 -0.454456 0
M  V30 4525 O 433.922 -1.43975 -1.32846 0
M  V30 4526 H 432.502 -0.647598 0.372324 0
M  V30 4527 H 435.164 -1.22402 1.5167 0
M  V30 4528 H 434.26 -2.75114 1.47373 0
M  V30 4529 N 434.561 -1.01147 -1.20859 0
M  V30 4530 C 435.789 -0.716911 -1.94082 0
M  V30 4531 C 436.204 0.721568 -1.74467 0
M  V30 4532 O 435.561 1.48889 -1.05539 0
M  V30 4533 C 435.612 -1.03662 -3.46318 0
M  V30 4534 O 435.333 -2.4186 -3.65288 0
M  V30 4535 C 436.834 -0.762386 -4.36695 0
M  V30 4536 H 434.054 -0.26367 -0.617024 0
M  V30 4537 H 436.598 -1.35127 -1.53496 0
M  V30 4538 H 434.753 -0.447757 -3.84804 0
M  V30 4539 H 435.167 -2.53224 -4.59323 0
M  V30 4540 H 436.641 -1.03621 -5.42187 0
M  V30 4541 H 437.118 0.303514 -4.3815 0
M  V30 4542 H 437.724 -1.33316 -4.03865 0
M  V30 4543 N 436.039 1.36541 -0.78704 0
M  V30 4544 C 437.455 1.52571 -0.46844 0
M  V30 4545 C 437.655 1.7415 1.01361 0
M  V30 4546 O 436.711 1.77163 1.79915 0
M  V30 4547 C 438.024 2.71299 -1.29682 0
M  V30 4548 C 439.572 2.85169 -1.29027 0
M  V30 4549 C 440.047 4.06898 -2.10233 0
M  V30 4550 N 441.538 4.1404 -2.07666 0
M  V30 4551 C 442.273 5.07301 -2.67271 0
M  V30 4552 N 441.769 6.06021 -3.35724 0
M  V30 4553 N 443.562 4.99898 -2.57018 0
M  V30 4554 H 435.713 1.20788 -1.74711 0
M  V30 4555 H 437.976 0.589364 -0.742532 0
M  V30 4556 H 437.682 2.61868 -2.34773 0
M  V30 4557 H 437.556 3.6539 -0.936479 0
M  V30 4558 H 439.943 2.94062 -0.247284 0
M  V30 4559 H 440.024 1.91992 -1.69035 0
M  V30 4560 H 439.668 3.98766 -3.1456 0
M  V30 4561 H 439.598 4.99218 -1.67597 0
M  V30 4562 H 442.089 3.43357 -1.57843 0
M  V30 4563 H 442.402 6.73741 -3.78541 0
M  V30 4564 H 440.747 6.06253 -3.39826 0
M  V30 4565 H 443.938 4.21724 -2.03142 0
M  V30 4566 H 444.111 5.72392 -3.03761 0
M  V30 4567 N 437.518 0.538854 1.48102 0
M  V30 4568 C 438.764 0.00801365 2.02798 0
M  V30 4569 C 439.097 -1.3309 1.41424 0
M  V30 4570 O 438.372 -1.86169 0.563158 0
M  V30 4571 C 438.655 -0.104589 3.59948 0
M  V30 4572 C 438.508 1.26012 4.31788 0
M  V30 4573 C 439.827 -0.827055 4.32259 0
M  V30 4574 H 436.946 0.00438624 0.736987 0
M  V30 4575 H 439.588 0.6976 1.7673 0
M  V30 4576 H 437.738 -0.691893 3.82289 0
M  V30 4577 H 439.41 1.88922 4.2084 0
M  V30 4578 H 437.653 1.83968 3.92859 0
M  V30 4579 H 438.324 1.13424 5.40221 0
M  V30 4580 H 440.8 -0.328578 4.14801 0
M  V30 4581 H 439.676 -0.87476 5.41885 0
M  V30 4582 H 439.937 -1.87927 4.0017 0
M  V30 4583 N 438.996 -1.55193 0.274407 0
M  V30 4584 C 440.226 -2.03692 -0.345442 0
M  V30 4585 C 440.634 -1.15224 -1.50067 0
M  V30 4586 O 439.977 -0.164749 -1.8296 0
M  V30 4587 C 440.039 -3.48325 -0.88939 0
M  V30 4588 C 439.703 -4.56794 0.137115 0
M  V30 4589 C 440.7 -5.11028 0.956378 0
M  V30 4590 C 438.385 -5.01568 0.27115 0
M  V30 4591 C 440.379 -6.08552 1.89587 0
M  V30 4592 C 438.066 -5.98918 1.21412 0
M  V30 4593 C 439.064 -6.52291 2.02498 0
M  V30 4594 O 438.752 -7.47738 2.952 0
M  V30 4595 H 438.484 -0.670893 -0.0829332 0
M  V30 4596 H 441.038 -2.01387 0.404056 0
M  V30 4597 H 439.268 -3.47867 -1.68895 0
M  V30 4598 H 440.957 -3.80167 -1.42225 0
M  V30 4599 H 441.723 -4.7725 0.863559 0
M  V30 4600 H 437.602 -4.5967 -0.349987 0
M  V30 4601 H 441.146 -6.50137 2.52918 0
M  V30 4602 H 437.043 -6.32114 1.30776 0
M  V30 4603 H 437.811 -7.65451 2.89874 0
M  V30 4604 N 440.474 -0.00167713 -1.576 0
M  V30 4605 C 441.699 0.69739 -1.95323 0
M  V30 4606 C 442.124 1.6642 -0.876706 0
M  V30 4607 O 441.482 1.80548 0.165007 0
M  V30 4608 C 441.53 1.40403 -3.32144 0
M  V30 4609 O 440.634 2.5185 -3.26566 0
M  V30 4610 H 439.975 0.185373 -0.637599 0
M  V30 4611 H 442.505 -0.0553665 -2.04525 0
M  V30 4612 H 442.515 1.76707 -3.67748 0
M  V30 4613 H 441.19 0.695167 -4.10049 0
M  V30 4614 H 439.767 2.17861 -3.0264 0
M  V30 4615 N 441.952 1.55251 0.271103 0
M  V30 4616 C 443.363 1.66635 0.842007 0
M  V30 4617 C 443.714 0.594631 1.86972 0
M  V30 4618 O 442.839 -0.263532 2.14789 0
M  V30 4619 C 443.434 3.02082 1.53401 0
M  V30 4620 C 441.993 3.15487 2.05293 0
M  V30 4621 C 441.14 2.62438 0.895631 0
M  V30 4622 H 444.091 1.58629 0.0474117 0
M  V30 4623 H 444.112 2.95176 2.40107 0
M  V30 4624 H 443.624 3.80062 0.785786 0
M  V30 4625 H 441.725 2.42284 2.83071 0
M  V30 4626 H 441.838 4.22075 2.26693 0
M  V30 4627 H 440.202 2.19644 1.28953 0
M  V30 4628 H 440.985 3.42923 0.160878 0
M  V30 4629 N 443.43 -0.535701 1.48216 0
M  V30 4630 C 444.841 -1.11769 1.49548 0
M  V30 4631 C 445.192 -1.94442 0.26207 0
M  V30 4632 O 444.317 -2.06987 -0.631287 0
M  V30 4633 C 444.912 -2.03367 2.70975 0
M  V30 4634 C 443.471 -2.56795 2.75196 0
M  V30 4635 C 442.618 -1.33631 2.42977 0
M  V30 4636 H 445.569 -0.321232 1.55415 0
M  V30 4637 H 445.59 -2.87569 2.49167 0
M  V30 4638 H 445.102 -1.43169 3.60727 0
M  V30 4639 H 443.203 -3.20731 1.89638 0
M  V30 4640 H 443.316 -2.9632 3.76472 0
M  V30 4641 H 441.68 -1.6502 1.94012 0
M  V30 4642 H 442.463 -0.75194 3.34964 0
M  V30 4643 N 444.908 -1.36708 -0.784132 0
M  V30 4644 C 445.818 -1.3363 -1.92822 0
M  V30 4645 C 446.834 -0.237686 -1.72369 0
M  V30 4646 O 448.01 -0.470962 -1.95816 0
M  V30 4647 C 445.075 -1.13011 -3.27764 0
M  V30 4648 C 444.136 -2.32397 -3.60957 0
M  V30 4649 C 443.369 -2.12752 -4.89461 0
M  V30 4650 O 443.592 -1.10541 -5.59586 0
M  V30 4651 O 442.526 -3.00653 -5.21432 0
M  V30 4652 H 446.352 -2.29964 -1.98369 0
M  V30 4653 H 443.937 -1.1731 -0.925136 0
M  V30 4654 H 445.819 -1.03451 -4.08504 0
M  V30 4655 H 444.494 -0.19743 -3.23097 0
M  V30 4656 H 443.401 -2.47527 -2.80502 0
M  V30 4657 H 444.734 -3.2419 -3.70354 0
M  V30 4658 N 446.386 1.0089 -1.21074 0
M  V30 4659 C 447.632 1.7497 -1.03717 0
M  V30 4660 C 447.987 1.8764 0.425344 0
M  V30 4661 O 447.28 1.39679 1.3115 0
M  V30 4662 C 447.474 3.16335 -1.66334 0
M  V30 4663 C 447.303 3.17449 -3.18522 0
M  V30 4664 C 446.073 3.2425 -3.87543 0
M  V30 4665 C 448.271 3.02877 -4.15656 0
M  V30 4666 N 446.253 3.14949 -5.26954 0
M  V30 4667 C 447.624 3.0143 -5.41793 0
M  V30 4668 C 449.679 2.8715 -4.06755 0
M  V30 4669 C 448.382 2.85869 -6.60054 0
M  V30 4670 C 450.408 2.72944 -5.24648 0
M  V30 4671 C 449.77 2.72171 -6.49694 0
M  V30 4672 H 445.869 0.650627 -0.43383 0
M  V30 4673 H 448.453 1.19944 -1.53367 0
M  V30 4674 H 446.624 3.69638 -1.19256 0
M  V30 4675 H 448.356 3.78888 -1.42219 0
M  V30 4676 H 445.111 3.31288 -3.38446 0
M  V30 4677 H 445.535 3.13651 -5.9996 0
M  V30 4678 H 450.177 2.86557 -3.10878 0
M  V30 4679 H 447.895 2.8521 -7.56096 0
M  V30 4680 H 451.481 2.61782 -5.19578 0
M  V30 4681 H 450.361 2.61307 -7.39384 0
M  V30 4682 N 447.864 1.01787 1.20321 0
M  V30 4683 C 449.113 0.703249 1.89043 0
M  V30 4684 C 449.426 -0.770445 1.79787 0
M  V30 4685 O 450.632 -1.19767 2.43656 0
M  V30 4686 C 449.088 1.20749 3.3904 0
M  V30 4687 C 448.696 2.70817 3.56878 0
M  V30 4688 C 450.44 0.968352 4.13308 0
M  V30 4689 C 448.347 3.14716 5.00708 0
M  V30 4690 H 447.277 0.259354 0.707991 0
M  V30 4691 H 449.928 1.23072 1.36108 0
M  V30 4692 H 448.31 0.607989 3.91305 0
M  V30 4693 H 449.484 3.36327 3.14993 0
M  V30 4694 H 447.799 2.92888 2.95983 0
M  V30 4695 H 450.396 1.27173 5.19356 0
M  V30 4696 H 450.739 -0.095149 4.16191 0
M  V30 4697 H 451.272 1.53129 3.67146 0
M  V30 4698 H 448.011 4.20347 5.02979 0
M  V30 4699 H 447.531 2.53927 5.43398 0
M  V30 4700 H 449.21 3.07426 5.69296 0
M  V30 4701 N 449.342 -1.36122 0.79427 0
M  V30 4702 C 450.758 -1.5232 0.476525 0
M  V30 4703 C 450.958 -1.74685 -1.00436 0
M  V30 4704 O 450.014 -1.78115 -1.78973 0
M  V30 4705 C 451.327 -2.70607 1.31119 0
M  V30 4706 C 452.875 -2.8448 1.30537 0
M  V30 4707 C 453.35 -4.05778 2.12387 0
M  V30 4708 N 454.841 -4.12933 2.09859 0
M  V30 4709 C 455.576 -5.05876 2.69957 0
M  V30 4710 N 455.072 -6.04232 3.38934 0
M  V30 4711 N 456.865 -4.98528 2.59665 0
M  V30 4712 H 449.016 -1.1986 1.75349 0
M  V30 4713 H 451.279 -0.585418 0.745647 0
M  V30 4714 H 450.985 -2.60619 2.36158 0
M  V30 4715 H 450.859 -3.64888 0.955843 0
M  V30 4716 H 453.246 -2.93927 0.262876 0
M  V30 4717 H 453.327 -1.91093 1.70051 0
M  V30 4718 H 452.971 -3.97092 3.1667 0
M  V30 4719 H 452.901 -4.98323 1.70242 0
M  V30 4720 H 455.392 -3.42515 1.59662 0
M  V30 4721 H 455.705 -6.71724 3.82109 0
M  V30 4722 H 454.05 -6.04443 3.43036 0
M  V30 4723 H 457.241 -4.20641 2.05375 0
M  V30 4724 H 457.414 -5.70773 3.06793 0
M  V30 4725 N 450.82 -0.546701 -1.47814 0
M  V30 4726 C 452.05 -0.0232519 -2.06587 0
M  V30 4727 C 452.458 1.2712 -1.40133 0
M  V30 4728 O 451.801 1.77091 -0.488305 0
M  V30 4729 C 451.863 0.254117 -3.58601 0
M  V30 4730 C 451.527 -0.949331 -4.47031 0
M  V30 4731 C 452.524 -1.85216 -4.85789 0
M  V30 4732 C 450.209 -1.16104 -4.88697 0
M  V30 4733 C 452.203 -2.95047 -5.65001 0
M  V30 4734 C 449.89 -2.26247 -5.67676 0
M  V30 4735 C 450.888 -3.1555 -6.05737 0
M  V30 4736 O 450.576 -4.23784 -6.83127 0
M  V30 4737 H 450.308 -0.0380082 -0.674931 0
M  V30 4738 H 452.862 -0.756631 -1.90956 0
M  V30 4739 H 451.092 1.04168 -3.72406 0
M  V30 4740 H 452.781 0.72167 -3.99433 0
M  V30 4741 H 453.547 -1.70061 -4.54207 0
M  V30 4742 H 449.426 -0.475159 -4.58545 0
M  V30 4743 H 452.97 -3.64778 -5.94628 0
M  V30 4744 H 448.867 -2.41379 -5.98671 0
M  V30 4745 H 449.635 -4.21701 -7.01506 0
M  V30 4746 N 452.299 1.55045 -0.282633 0
M  V30 4747 C 453.249 2.19514 0.616249 0
M  V30 4748 C 454.233 1.16216 1.11277 0
M  V30 4749 O 455.425 1.42004 1.05659 0
M  V30 4750 C 452.554 2.92548 1.7964 0
M  V30 4751 C 451.64 4.03142 1.31671 0
M  V30 4752 N 452.031 5.0276 0.553695 0
M  V30 4753 C 450.329 4.1635 1.59903 0
M  V30 4754 C 451.03 5.80923 0.30054 0
M  V30 4755 N 450.006 5.3651 0.875116 0
M  V30 4756 H 453.808 2.93889 0.0255363 0
M  V30 4757 H 451.322 1.62169 -0.0865362 0
M  V30 4758 H 453.319 3.37188 2.45173 0
M  V30 4759 H 451.979 2.19685 2.39099 0
M  V30 4760 H 452.99 5.17512 0.20032 0
M  V30 4761 H 449.667 3.54682 2.20243 0
M  V30 4762 H 451.057 6.7118 -0.311053 0
M  V30 4763 N 453.777 0.010035 1.57597 0
M  V30 4764 C 455.193 -0.346164 1.55801 0
M  V30 4765 C 455.393 -1.74144 1.01371 0
M  V30 4766 O 454.449 -2.43938 0.651968 0
M  V30 4767 C 455.762 -0.212216 2.9995 0
M  V30 4768 C 457.31 -0.286409 3.11687 0
M  V30 4769 C 457.785 -0.18147 4.5764 0
M  V30 4770 N 459.276 -0.239056 4.62583 0
M  V30 4771 C 460.011 -0.181351 5.73113 0
M  V30 4772 N 459.507 -0.073661 6.92761 0
M  V30 4773 N 461.3 -0.233949 5.61613 0
M  V30 4774 H 453.451 0.922657 1.91313 0
M  V30 4775 H 455.714 0.354595 0.879185 0
M  V30 4776 H 455.42 0.748169 3.4365 0
M  V30 4777 H 455.294 -0.990224 3.6397 0
M  V30 4778 H 457.681 -1.23724 2.67911 0
M  V30 4779 H 457.762 0.521645 2.50425 0
M  V30 4780 H 457.406 0.765863 5.02093 0
M  V30 4781 H 457.336 -1.00814 5.1686 0
M  V30 4782 H 459.827 -0.32321 3.76515 0
M  V30 4783 H 460.14 -0.0358003 7.72792 0
M  V30 4784 H 458.485 -0.0391461 6.94989 0
M  V30 4785 H 461.676 -0.316347 4.6703 0
M  V30 4786 H 461.849 -0.185514 6.47734 0
M  V30 4787 N 455.255 -1.55392 -0.262866 0
M  V30 4788 C 456.485 -1.80251 -1.00961 0
M  V30 4789 C 456.893 -0.58117 -1.80053 0
M  V30 4790 O 456.236 0.459427 -1.77862 0
M  V30 4791 C 456.298 -2.98207 -2.00781 0
M  V30 4792 C 455.962 -4.34856 -1.40533 0
M  V30 4793 C 456.959 -5.13459 -0.815853 0
M  V30 4794 C 454.644 -4.8153 -1.42948 0
M  V30 4795 C 456.638 -6.36875 -0.258562 0
M  V30 4796 C 454.325 -6.04899 -0.868334 0
M  V30 4797 C 455.323 -6.8241 -0.283884 0
M  V30 4798 O 455.011 -8.03451 0.268644 0
M  V30 4799 H 454.743 -0.604049 -0.303482 0
M  V30 4800 H 457.297 -2.03257 -0.295926 0
M  V30 4801 H 455.527 -2.70917 -2.75936 0
M  V30 4802 H 457.216 -3.10299 -2.61667 0
M  V30 4803 H 457.982 -4.78526 -0.789812 0
M  V30 4804 H 453.861 -4.21201 -1.87378 0
M  V30 4805 H 457.405 -6.97318 0.198257 0
M  V30 4806 H 453.302 -6.39312 -0.891649 0
M  V30 4807 H 454.07 -8.18346 0.158974 0
M  V30 4808 N 456.733 0.527833 -1.48498 0
M  V30 4809 C 457.683 1.62844 -1.5958 0
M  V30 4810 C 458.667 1.54397 -0.452809 0
M  V30 4811 O 459.859 1.62381 -0.704364 0
M  V30 4812 C 456.988 3.01557 -1.64067 0
M  V30 4813 C 456.074 3.151 -2.83853 0
M  V30 4814 N 456.465 2.9861 -4.08247 0
M  V30 4815 C 454.763 3.46158 -2.8123 0
M  V30 4816 C 455.464 3.15626 -4.88626 0
M  V30 4817 N 454.44 3.43298 -4.21483 0
M  V30 4818 H 458.242 1.48708 -2.53502 0
M  V30 4819 H 455.756 0.733343 -1.44899 0
M  V30 4820 H 457.753 3.8062 -1.70101 0
M  V30 4821 H 456.413 3.16783 -0.712636 0
M  V30 4822 H 457.424 2.75329 -4.3865 0
M  V30 4823 H 454.101 3.67728 -1.97692 0
M  V30 4824 H 455.491 3.07596 -5.97356 0
M  V30 4825 N 458.211 1.37122 0.776871 0
M  V30 4826 C 459.459 1.31787 1.53221 0
M  V30 4827 C 459.78 -0.0987589 1.9475 0
M  V30 4828 O 459.05 -1.0417 1.65908 0
M  V30 4829 H 457.63 0.484839 0.568278 0
M  V30 4830 H 460.292 1.71556 0.924917 0
M  V30 4831 H 459.388 1.95355 2.43398 0
M  V30 4832 N 459.689 -1.00246 1.21608 0
M  V30 4833 C 461.105 -1.26435 0.973975 0
M  V30 4834 C 461.305 -1.98642 -0.338143 0
M  V30 4835 O 460.361 -2.29026 -1.06317 0
M  V30 4836 C 461.674 -2.08551 2.16626 0
M  V30 4837 C 463.222 -2.21769 2.20879 0
M  V30 4838 C 463.697 -3.07267 3.39633 0
M  V30 4839 N 465.188 -3.14855 3.39736 0
M  V30 4840 C 465.923 -3.81274 4.28273 0
M  V30 4841 N 465.419 -4.497 5.27012 0
M  V30 4842 N 467.212 -3.7794 4.16074 0
M  V30 4843 H 459.363 -0.518089 2.05984 0
M  V30 4844 H 461.626 -0.291368 0.902113 0
M  V30 4845 H 461.332 -1.62847 3.11727 0
M  V30 4846 H 461.206 -3.09303 2.15897 0
M  V30 4847 H 463.593 -2.66691 1.26332 0
M  V30 4848 H 463.674 -1.20478 2.25652 0
M  V30 4849 H 463.318 -2.63047 4.34475 0
M  V30 4850 H 463.248 -4.08678 3.321 0
M  V30 4851 H 465.739 -2.66147 2.6828 0
M  V30 4852 H 466.052 -4.98092 5.90867 0
M  V30 4853 H 464.397 -4.48479 5.30935 0
M  V30 4854 H 467.588 -3.23638 3.38195 0
M  V30 4855 H 467.761 -4.29424 4.85282 0
M  V30 4856 N 461.167 -1.02423 -1.1978 0
M  V30 4857 C 462.392 -0.7373 -1.93852 0
M  V30 4858 C 462.817 0.696923 -1.74713 0
M  V30 4859 O 462.175 1.48056 -1.04638 0
M  V30 4860 C 462.223 -1.08783 -3.438 0
M  V30 4861 O 461.327 -0.20383 -4.11896 0
M  V30 4862 H 460.668 -0.27284 -0.605355 0
M  V30 4863 H 463.198 -1.36966 -1.51992 0
M  V30 4864 H 463.208 -1.04276 -3.9445 0
M  V30 4865 H 461.883 -2.13274 -3.57053 0
M  V30 4866 H 460.46 -0.307091 -3.71633 0
M  V30 4867 N 462.645 1.35699 -0.801477 0
M  V30 4868 C 463.608 2.28199 -0.213994 0
M  V30 4869 C 464.608 1.49359 0.595691 0
M  V30 4870 O 465.798 1.69186 0.414921 0
M  V30 4871 C 462.93 3.33587 0.702297 0
M  V30 4872 H 464.123 2.81666 -1.02976 0
M  V30 4873 H 461.676 1.45467 -0.571759 0
M  V30 4874 H 462.411 2.85297 1.54195 0
M  V30 4875 H 462.196 3.91906 0.123484 0
M  V30 4876 H 463.686 4.02638 1.10783 0
M  V30 4877 N 464.123 0.554532 1.47522 0
M  V30 4878 C 465.086 -0.184174 2.28459 0
M  V30 4879 C 466.086 -0.845195 1.36796 0
M  V30 4880 O 467.276 -0.701467 1.59452 0
M  V30 4881 C 464.408 -1.26903 3.16399 0
M  V30 4882 H 465.601 0.526751 2.95238 0
M  V30 4883 H 463.154 0.311375 1.53167 0
M  V30 4884 H 463.889 -2.01244 2.54306 0
M  V30 4885 H 463.674 -0.799883 3.83854 0
M  V30 4886 H 465.164 -1.78794 3.77389 0
M  V30 4887 N 465.601 -1.54893 0.290851 0
M  V30 4888 C 466.847 -2.0023 -0.321867 0
M  V30 4889 C 467.18 -1.179 -1.54316 0
M  V30 4890 O 466.455 -0.25293 -1.92848 0
M  V30 4891 C 466.738 -3.53456 -0.688515 0
M  V30 4892 C 466.591 -4.46532 0.541209 0
M  V30 4893 C 467.91 -4.13057 -1.51895 0
M  V30 4894 H 465.029 -0.727891 -0.115515 0
M  V30 4895 H 467.671 -1.85722 0.400931 0
M  V30 4896 H 465.821 -3.6595 -1.30433 0
M  V30 4897 H 467.493 -4.4596 1.17973 0
M  V30 4898 H 465.736 -4.17545 1.17636 0
M  V30 4899 H 466.407 -5.51475 0.240675 0
M  V30 4900 H 468.883 -4.03937 -0.99872 0
M  V30 4901 H 467.759 -5.20448 -1.74429 0
M  V30 4902 H 468.02 -3.64284 -2.50498 0
M  V30 4903 N 467.08 -0.0183926 -1.57589 0
M  V30 4904 C 468.326 0.657813 -1.92469 0
M  V30 4905 C 468.681 1.70349 -0.894375 0
M  V30 4906 O 467.974 1.91384 0.0910389 0
M  V30 4907 C 468.168 1.32676 -3.31861 0
M  V30 4908 C 467.997 0.347403 -4.48356 0
M  V30 4909 C 466.767 -0.0488653 -5.05276 0
M  V30 4910 C 468.965 -0.393931 -5.12789 0
M  V30 4911 N 466.947 -1.02451 -6.05291 0
M  V30 4912 C 468.318 -1.22367 -6.07804 0
M  V30 4913 C 470.373 -0.455789 -4.95809 0
M  V30 4914 C 469.076 -2.10966 -6.87667 0
M  V30 4915 C 471.102 -1.32908 -5.76272 0
M  V30 4916 C 470.464 -2.14662 -6.70894 0
M  V30 4917 H 466.563 0.21335 -0.752334 0
M  V30 4918 H 469.147 -0.0830547 -1.94523 0
M  V30 4919 H 467.318 2.03782 -3.30647 0
M  V30 4920 H 469.05 1.95913 -3.54119 0
M  V30 4921 H 465.805 0.323356 -4.72495 0
M  V30 4922 H 466.229 -1.50826 -6.59985 0
M  V30 4923 H 470.871 0.162017 -4.22489 0
M  V30 4924 H 468.589 -2.73807 -7.603 0
M  V30 4925 H 472.175 -1.38109 -5.6517 0
M  V30 4926 H 471.055 -2.81143 -7.32071 0
M  V30 4927 N 468.558 1.5553 0.254621 0
M  V30 4928 C 469.783 1.81383 1.00573 0
M  V30 4929 C 470.208 0.594419 1.78461 0
M  V30 4930 O 469.566 -0.456403 1.75461 0
M  V30 4931 C 469.614 3.04892 1.92545 0
M  V30 4932 O 468.718 2.81266 3.01601 0
M  V30 4933 H 468.059 0.598969 0.286587 0
M  V30 4934 H 470.589 2.02703 0.277952 0
M  V30 4935 H 470.599 3.34119 2.34155 0
M  V30 4936 H 469.274 3.93287 1.3527 0
M  V30 4937 H 467.851 2.63185 2.64174 0
M  V30 4938 N 470.036 -0.519951 1.48776 0
M  V30 4939 C 470.966 -1.63253 1.66945 0
M  V30 4940 C 471.947 -1.62014 0.518224 0
M  V30 4941 O 473.132 -1.79053 0.751919 0
M  V30 4942 C 470.262 -3.0181 1.71836 0
M  V30 4943 C 469.216 -3.17911 2.8656 0
M  V30 4944 C 468.542 -4.5763 2.76548 0
M  V30 4945 C 469.842 -2.99729 4.27738 0
M  V30 4946 H 471.536 -1.48302 2.6009 0
M  V30 4947 H 469.082 -0.712026 1.25165 0
M  V30 4948 H 471.035 -3.79525 1.83135 0
M  V30 4949 H 469.759 -3.17806 0.752775 0
M  V30 4950 H 468.418 -2.42616 2.74833 0
M  V30 4951 H 468.066 -4.70476 1.77937 0
M  V30 4952 H 467.766 -4.69346 3.53536 0
M  V30 4953 H 469.29 -5.37431 2.89828 0
M  V30 4954 H 470.704 -3.67228 4.40246 0
M  V30 4955 H 469.101 -3.22932 5.05801 0
M  V30 4956 H 470.171 -1.96047 4.43502 0
M  V30 4957 N 471.514 -1.37532 -0.769588 0
M  V30 4958 C 472.762 -1.32597 -1.5252 0
M  V30 4959 C 473.083 0.0884294 -1.94799 0
M  V30 4960 O 472.353 1.03289 -1.66458 0
M  V30 4961 H 470.933 -0.487846 -0.565699 0
M  V30 4962 H 473.595 -1.72044 -0.915806 0
M  V30 4963 H 472.691 -1.96643 -2.42359 0
M  V30 4964 N 472.992 0.995999 -1.22138 0
M  V30 4965 C 474.241 1.72928 -1.03821 0
M  V30 4966 C 474.554 1.90872 0.427444 0
M  V30 4967 O 475.76 2.61496 0.730212 0
M  V30 4968 C 474.216 3.11124 -1.80913 0
M  V30 4969 C 473.824 3.01122 -3.31707 0
M  V30 4970 C 475.568 3.8852 -1.71035 0
M  V30 4971 C 473.475 4.34453 -4.01253 0
M  V30 4972 H 472.405 0.648376 -0.384869 0
M  V30 4973 H 475.056 1.11213 -1.45959 0
M  V30 4974 H 473.438 3.73503 -1.31573 0
M  V30 4975 H 474.612 2.47926 -3.88419 0
M  V30 4976 H 472.927 2.3721 -3.42228 0
M  V30 4977 H 475.524 4.872 -2.20318 0
M  V30 4978 H 475.867 4.1087 -0.670196 0
M  V30 4979 H 476.4 3.32812 -2.17902 0
M  V30 4980 H 473.139 4.17303 -5.05508 0
M  V30 4981 H 472.659 4.87574 -3.49331 0
M  V30 4982 H 474.338 5.03215 -4.06674 0
M  V30 4983 N 474.47 1.03057 1.19235 0
M  V30 4984 C 475.4 0.633497 2.24742 0
M  V30 4985 C 476.381 -0.358335 1.66283 0
M  V30 4986 O 477.566 -0.240676 1.92703 0
M  V30 4987 C 474.696 -0.0147648 3.47297 0
M  V30 4988 C 473.65 0.899527 4.18441 0
M  V30 4989 C 472.976 0.116281 5.34574 0
M  V30 4990 C 474.276 2.21404 4.73051 0
M  V30 4991 H 475.97 1.5155 2.58211 0
M  V30 4992 H 473.516 0.73014 1.24117 0
M  V30 4993 H 475.469 -0.304202 4.20301 0
M  V30 4994 H 474.193 -0.931577 3.13032 0
M  V30 4995 H 472.852 1.17319 3.47321 0
M  V30 4996 H 472.5 -0.802619 4.96555 0
M  V30 4997 H 472.2 0.725293 5.83107 0
M  V30 4998 H 473.724 -0.166376 6.10373 0
M  V30 4999 H 475.138 1.98601 5.37802 0
M  V30 5000 H 473.535 2.77512 5.32078 0
M  V30 5001 H 474.605 2.86752 3.91026 0
M  V30 5002 N 475.948 -1.35272 0.808662 0
M  V30 5003 C 476.878 -2.32315 0.234981 0
M  V30 5004 C 477.859 -1.57572 -0.64071 0
M  V30 5005 O 479.044 -1.8563 -0.570551 0
M  V30 5006 C 476.174 -3.41801 -0.615601 0
M  V30 5007 C 475.128 -4.27694 0.161767 0
M  V30 5008 C 474.454 -5.28519 -0.810649 0
M  V30 5009 C 475.754 -5.04231 1.36193 0
M  V30 5010 H 477.448 -2.80543 1.04575 0
M  V30 5011 H 474.994 -1.3488 0.504315 0
M  V30 5012 H 476.947 -4.08693 -1.02702 0
M  V30 5013 H 475.671 -2.92186 -1.45928 0
M  V30 5014 H 474.33 -3.62384 0.554382 0
M  V30 5015 H 473.978 -4.75171 -1.64988 0
M  V30 5016 H 473.678 -5.8686 -0.294822 0
M  V30 5017 H 475.202 -5.98283 -1.22023 0
M  V30 5018 H 476.616 -5.64058 1.02528 0
M  V30 5019 H 475.013 -5.72077 1.81239 0
M  V30 5020 H 476.083 -4.34753 2.14751 0
M  V30 5021 N 477.426 -0.562348 -1.47226 0
M  V30 5022 C 478.656 -0.0451619 -2.06551 0
M  V30 5023 C 479.064 1.25626 -1.41473 0
M  V30 5024 O 478.407 1.76563 -0.507061 0
M  V30 5025 C 478.469 0.216068 -3.5885 0
M  V30 5026 C 478.133 -0.996691 -4.45999 0
M  V30 5027 C 479.13 -1.90358 -4.83797 0
M  V30 5028 C 476.815 -1.21281 -4.87438 0
M  V30 5029 C 478.809 -3.01023 -5.6184 0
M  V30 5030 C 476.496 -2.32255 -5.65244 0
M  V30 5031 C 477.494 -3.21956 -6.02356 0
M  V30 5032 O 477.182 -4.31005 -6.78594 0
M  V30 5033 H 476.914 -0.0451646 -0.67449 0
M  V30 5034 H 479.468 -0.776842 -1.90143 0
M  V30 5035 H 477.698 1.00212 -3.7349 0
M  V30 5036 H 479.387 0.679264 -4.00176 0
M  V30 5037 H 480.153 -1.74868 -4.52378 0
M  V30 5038 H 476.032 -0.523767 -4.58015 0
M  V30 5039 H 479.576 -3.71064 -5.90726 0
M  V30 5040 H 475.473 -2.47715 -5.96077 0
M  V30 5041 H 476.241 -4.29118 -6.96994 0
M  V30 5042 N 478.904 1.54736 -0.299062 0
M  V30 5043 C 480.181 1.92187 0.363802 0
M  V30 5044 C 480.561 1.22607 1.71845 0
M  V30 5045 O 479.909 0.361141 2.25628 0
M  V30 5046 C 480.119 3.45678 0.480377 0
M  V30 5047 C 481.467 4.17885 0.752147 0
M  V30 5048 O 482.491 3.51702 0.564264 0
M  V30 5049 O 481.35 5.35048 1.11294 0
M  V30 5050 H 478.444 0.801681 0.203066 0
M  V30 5051 H 480.99 1.66115 -0.346978 0
M  V30 5052 H 479.762 3.88443 -0.471999 0
M  V30 5053 H 479.385 3.77779 1.2397 0
M  V30 5054 N 480.382 0.0267497 1.57577 0
M  V30 5055 C 481.315 -0.99059 2.05579 0
M  V30 5056 C 482.293 -1.31884 0.951065 0
M  V30 5057 O 483.477 -1.43592 1.22121 0
M  V30 5058 C 480.604 -2.31125 2.47586 0
M  V30 5059 C 479.65 -2.13777 3.69055 0
M  V30 5060 S 480.483 -1.4388 5.15809 0
M  V30 5061 C 481.639 -2.77321 5.6111 0
M  V30 5062 H 481.872 -0.581976 2.91548 0
M  V30 5063 H 479.405 -0.184876 1.53289 0
M  V30 5064 H 481.363 -3.07049 2.72454 0
M  V30 5065 H 480.024 -2.6912 1.61967 0
M  V30 5066 H 479.217 -3.11405 3.96287 0
M  V30 5067 H 478.819 -1.45996 3.44327 0
M  V30 5068 H 481.111 -3.73565 5.65204 0
M  V30 5069 H 482.054 -2.54756 6.60685 0
M  V30 5070 H 482.462 -2.82459 4.88751 0
M  V30 5071 N 481.861 -1.55662 -0.24637 0
M  V30 5072 C 483.107 -1.77782 -0.975779 0
M  V30 5073 C 483.44 -0.592103 -1.84953 0
M  V30 5074 O 482.715 0.409588 -1.90138 0
M  V30 5075 C 482.998 -3.09788 -1.83584 0
M  V30 5076 C 482.851 -4.38764 -0.990241 0
M  V30 5077 C 484.17 -3.38029 -2.81823 0
M  V30 5078 H 481.289 -0.646789 -0.353317 0
M  V30 5079 H 483.931 -1.88398 -0.246248 0
M  V30 5080 H 482.081 -3.00869 -2.45784 0
M  V30 5081 H 483.753 -4.59675 -0.386897 0
M  V30 5082 H 481.996 -4.32798 -0.294626 0
M  V30 5083 H 482.667 -5.27514 -1.62584 0
M  V30 5084 H 485.143 -3.46915 -2.2976 0
M  V30 5085 H 484.019 -4.3161 -3.39122 0
M  V30 5086 H 484.28 -2.58968 -3.58313 0
M  V30 5087 N 483.339 0.512053 -1.4905 0
M  V30 5088 C 484.579 1.27715 -1.59588 0
M  V30 5089 C 484.943 1.90071 -0.271502 0
M  V30 5090 O 486.144 2.67616 -0.251987 0
M  V30 5091 C 484.415 2.32399 -2.71524 0
M  V30 5092 S 485.974 3.18396 -3.01943 0
M  V30 5093 H 482.792 0.43419 -0.563027 0
M  V30 5094 H 485.394 0.581315 -1.86657 0
M  V30 5095 H 484.098 1.85101 -3.66287 0
M  V30 5096 H 483.629 3.06667 -2.46412 0
M  V30 5097 H 485.644 4.32842 -2.42616 0
M  V30 5098 N 484.817 1.37938 0.762283 0
M  V30 5099 C 486.065 1.33404 1.51815 0
M  V30 5100 C 486.386 -0.0780975 1.94844 0
M  V30 5101 O 485.656 -1.02405 1.67003 0
M  V30 5102 H 484.236 0.490839 0.563104 0
M  V30 5103 H 486.898 1.72527 0.906669 0
M  V30 5104 H 485.994 1.97926 2.41313 0
M  V30 5105 N 486.295 -0.989507 1.22664 0
M  V30 5106 C 487.572 -1.70326 0.961688 0
M  V30 5107 C 487.952 -2.04537 -0.522279 0
M  V30 5108 O 487.3 -1.73136 -1.49118 0
M  V30 5109 C 487.51 -2.95135 1.86269 0
M  V30 5110 C 488.858 -3.67842 2.12078 0
M  V30 5111 O 489.882 -3.0515 1.83745 0
M  V30 5112 O 488.741 -4.80644 2.60083 0
M  V30 5113 H 485.835 -0.743589 0.361946 0
M  V30 5114 H 488.381 -1.04555 1.33665 0
M  V30 5115 H 487.153 -2.66382 2.8663 0
M  V30 5116 H 486.776 -3.68645 1.48952 0
M  V30 5117 N 487.773 -1.03688 -1.18687 0
M  V30 5118 C 489.022 -0.733235 -1.879 0
M  V30 5119 C 489.335 0.741745 -1.8099 0
M  V30 5120 O 490.541 1.15875 -2.4553 0
M  V30 5121 C 488.997 -1.26127 -3.37076 0
M  V30 5122 C 488.605 -2.76461 -3.52524 0
M  V30 5123 C 490.349 -1.03398 -4.11715 0
M  V30 5124 C 488.256 -3.22642 -4.95637 0
M  V30 5125 H 487.186 -0.270584 -0.703776 0
M  V30 5126 H 489.837 -1.25222 -1.34133 0
M  V30 5127 H 488.219 -0.670165 -3.90288 0
M  V30 5128 H 489.393 -3.41296 -3.09602 0
M  V30 5129 H 487.708 -2.97559 -2.91286 0
M  V30 5130 H 490.305 -1.3542 -5.17267 0
M  V30 5131 H 490.648 0.0289246 -4.1629 0
M  V30 5132 H 491.181 -1.5895 -3.64664 0
M  V30 5133 H 487.92 -4.28296 -4.96228 0
M  V30 5134 H 487.44 -2.62539 -5.39289 0
M  V30 5135 H 489.119 -3.16444 -5.64333 0
M  V30 5136 N 489.251 1.34841 -0.815825 0
M  V30 5137 C 490.662 1.80937 -0.46029 0
M  V30 5138 C 491.013 1.67685 1.01863 0
M  V30 5139 O 490.138 1.21277 1.79223 0
M  V30 5140 C 490.733 3.28509 -0.828708 0
M  V30 5141 C 489.292 3.72712 -0.525644 0
M  V30 5142 C 488.439 2.56676 -1.04941 0
M  V30 5143 H 491.39 1.22688 -1.00664 0
M  V30 5144 H 491.411 3.80279 -0.129757 0
M  V30 5145 H 490.923 3.38122 -1.90513 0
M  V30 5146 H 489.024 3.68642 0.541666 0
M  V30 5147 H 489.137 4.67119 -1.06474 0
M  V30 5148 H 487.501 2.50302 -0.471286 0
M  V30 5149 H 488.284 2.69063 -2.13214 0
M  V30 5150 N 490.729 0.570148 1.46925 0
M  V30 5151 C 491.976 0.0509529 2.02436 0
M  V30 5152 C 492.304 -1.30405 1.44308 0
M  V30 5153 O 491.559 -1.86493 0.593198 0
M  V30 5154 C 491.858 -0.0780336 3.57315 0
M  V30 5155 C 491.524 1.20775 4.34424 0
M  V30 5156 C 490.186 1.56004 4.5521 0
M  V30 5157 C 492.538 2.0592 4.78797 0
M  V30 5158 C 489.866 2.76201 5.17619 0
M  V30 5159 C 492.218 3.25332 5.42533 0
M  V30 5160 C 490.882 3.60859 5.61549 0
M  V30 5161 H 490.152 0.018645 0.740765 0
M  V30 5162 H 492.799 0.744262 1.76445 0
M  V30 5163 H 491.104 -0.854394 3.82371 0
M  V30 5164 H 492.801 -0.495312 3.97929 0
M  V30 5165 H 489.391 0.923469 4.18533 0
M  V30 5166 H 493.575 1.80008 4.62505 0
M  V30 5167 H 488.831 3.0388 5.30535 0
M  V30 5168 H 493.005 3.91586 5.75876 0
M  V30 5169 H 490.632 4.54088 6.09678 0
M  V30 5170 N 492.207 -1.54576 0.307264 0
M  V30 5171 C 493.117 -2.27435 -0.57536 0
M  V30 5172 C 494.133 -1.31183 -1.14311 0
M  V30 5173 O 495.309 -1.64175 -1.16656 0
M  V30 5174 C 492.374 -3.00566 -1.72803 0
M  V30 5175 C 491.435 -4.12369 -1.19373 0
M  V30 5176 C 490.668 -4.82003 -2.29147 0
M  V30 5177 O 490.891 -4.51038 -3.49171 0
M  V30 5178 O 489.825 -5.69271 -1.95485 0
M  V30 5179 H 493.651 -3.03696 0.0158558 0
M  V30 5180 H 491.236 -1.49219 0.0735064 0
M  V30 5181 H 493.118 -3.46416 -2.39946 0
M  V30 5182 H 491.793 -2.27195 -2.30574 0
M  V30 5183 H 490.7 -3.70905 -0.487851 0
M  V30 5184 H 492.033 -4.87736 -0.661376 0
M  V30 5185 N 493.685 -0.035106 -1.57561 0
M  V30 5186 C 494.635 0.954034 -2.0708 0
M  V30 5187 C 495.619 1.2818 -0.972558 0
M  V30 5188 O 496.811 1.26691 -1.23606 0
M  V30 5189 C 493.94 2.23442 -2.60631 0
M  V30 5190 C 493.026 1.93475 -3.77396 0
M  V30 5191 N 493.417 1.33802 -4.87781 0
M  V30 5192 C 491.715 2.23434 -3.85996 0
M  V30 5193 C 492.416 1.21103 -5.68954 0
M  V30 5194 N 491.392 1.70855 -5.16052 0
M  V30 5195 H 495.194 0.487731 -2.89825 0
M  V30 5196 H 492.708 0.169759 -1.6151 0
M  V30 5197 H 494.705 2.95183 -2.94402 0
M  V30 5198 H 493.365 2.70693 -1.79319 0
M  V30 5199 H 494.376 1.01227 -5.07911 0
M  V30 5200 H 491.053 2.73317 -3.15601 0
M  V30 5201 H 492.443 0.749105 -6.67711 0
M  V30 5202 N 495.163 1.55791 0.238111 0
M  V30 5203 C 496.44 1.68798 0.98826 0
M  V30 5204 C 496.82 0.577562 2.03045 0
M  V30 5205 O 496.168 -0.41778 2.24648 0
M  V30 5206 C 496.378 3.09454 1.61367 0
M  V30 5207 C 497.726 3.68335 2.11221 0
M  V30 5208 O 498.75 3.1231 1.71292 0
M  V30 5209 O 497.609 4.6657 2.84561 0
M  V30 5210 H 494.703 0.686881 0.460568 0
M  V30 5211 H 497.249 1.68118 0.231202 0
M  V30 5212 H 496.021 3.81726 0.860295 0
M  V30 5213 H 495.644 3.14182 2.4367 0
M  V30 5214 N 496.642 -0.504142 1.49319 0
M  V30 5215 C 497.552 -1.63248 1.68486 0
M  V30 5216 C 498.568 -1.64488 0.567432 0
M  V30 5217 O 499.744 -1.82966 0.841749 0
M  V30 5218 C 496.809 -2.99627 1.74426 0
M  V30 5219 C 495.87 -3.09039 2.97982 0
M  V30 5220 C 495.103 -4.38913 3.0363 0
M  V30 5221 O 495.326 -5.27528 2.16958 0
M  V30 5222 O 494.26 -4.53231 3.96062 0
M  V30 5223 H 498.086 -1.50008 2.64067 0
M  V30 5224 H 495.671 -0.680086 1.33023 0
M  V30 5225 H 497.553 -3.80689 1.80705 0
M  V30 5226 H 496.228 -3.13136 0.820233 0
M  V30 5227 H 495.135 -2.27177 2.97223 0
M  V30 5228 H 496.468 -3.00456 3.89855 0
M  V30 5229 N 498.12 -1.38341 -0.754957 0
M  V30 5230 C 499.03 -1.3769 -1.89944 0
M  V30 5231 C 500.046 -0.274194 -1.71826 0
M  V30 5232 O 501.222 -0.512391 -1.94773 0
M  V30 5233 C 498.287 -1.19938 -3.25293 0
M  V30 5234 C 497.348 -2.40001 -3.55946 0
M  V30 5235 C 496.581 -2.23087 -4.84838 0
M  V30 5236 O 496.804 -1.22386 -5.57116 0
M  V30 5237 O 495.738 -3.11646 -5.14937 0
M  V30 5238 H 499.564 -2.3412 -1.93446 0
M  V30 5239 H 497.149 -1.19246 -0.900044 0
M  V30 5240 H 499.031 -1.12093 -4.06218 0
M  V30 5241 H 497.706 -0.265919 -3.22606 0
M  V30 5242 H 496.613 -2.53421 -2.75188 0
M  V30 5243 H 497.946 -3.31973 -3.63394 0
M  V30 5244 N 499.598 0.982988 -1.23187 0
M  V30 5245 C 500.847 1.71817 -1.05649 0
M  V30 5246 C 501.16 1.91315 0.407176 0
M  V30 5247 O 502.366 2.62256 0.702436 0
M  V30 5248 C 500.822 3.09188 -1.84203 0
M  V30 5249 C 500.43 2.97586 -3.34882 0
M  V30 5250 C 502.174 3.86684 -1.75146 0
M  V30 5251 C 500.081 4.30173 -4.05839 0
M  V30 5252 H 499.011 0.644258 -0.391724 0
M  V30 5253 H 501.662 1.09659 -1.4713 0
M  V30 5254 H 500.044 3.72087 -1.35527 0
M  V30 5255 H 501.218 2.43793 -3.91026 0
M  V30 5256 H 499.533 2.33567 -3.44725 0
M  V30 5257 H 502.13 4.84836 -2.25473 0
M  V30 5258 H 502.473 4.10136 -0.713737 0
M  V30 5259 H 503.006 3.30482 -2.21419 0
M  V30 5260 H 499.745 4.11918 -5.09906 0
M  V30 5261 H 499.265 4.83841 -3.54482 0
M  V30 5262 H 500.944 4.98873 -4.11989 0
M  V30 5263 N 501.076 1.04316 1.18135 0
M  V30 5264 C 502.325 0.74319 1.87509 0
M  V30 5265 C 502.638 -0.732136 1.81381 0
M  V30 5266 O 503.844 -1.14572 2.46141 0
M  V30 5267 C 502.3 1.27913 3.36402 0
M  V30 5268 C 501.908 2.78326 3.51053 0
M  V30 5269 C 503.652 1.0558 4.11161 0
M  V30 5270 C 501.559 3.25266 4.93919 0
M  V30 5271 H 500.489 0.274313 0.702331 0
M  V30 5272 H 503.14 1.25931 1.33467 0
M  V30 5273 H 501.522 0.690853 3.89927 0
M  V30 5274 H 502.696 3.42933 3.07788 0
M  V30 5275 H 501.011 2.991 2.89704 0
M  V30 5276 H 503.608 1.38161 5.16542 0
M  V30 5277 H 503.951 -0.00684729 4.16299 0
M  V30 5278 H 504.484 1.60882 3.63816 0
M  V30 5279 H 501.223 4.30922 4.9395 0
M  V30 5280 H 500.743 2.65396 5.3789 0
M  V30 5281 H 502.422 3.19433 5.62647 0
M  V30 5282 N 502.554 -1.34406 0.822964 0
M  V30 5283 C 503.97 -1.51275 0.508727 0
M  V30 5284 C 504.17 -1.76776 -0.967083 0
M  V30 5285 O 503.226 -1.81871 -1.75155 0
M  V30 5286 C 504.539 -2.67765 1.36829 0
M  V30 5287 C 506.087 -2.81647 1.36542 0
M  V30 5288 C 506.562 -4.01181 2.20947 0
M  V30 5289 N 508.053 -4.08388 2.18571 0
M  V30 5290 C 508.788 -5.00036 2.80627 0
M  V30 5291 N 508.284 -5.96906 3.51674 0
M  V30 5292 N 510.077 -4.92908 2.70181 0
M  V30 5293 H 502.228 -1.16113 1.77852 0
M  V30 5294 H 504.491 -0.56947 0.757897 0
M  V30 5295 H 504.197 -2.55551 2.41633 0
M  V30 5296 H 504.071 -3.62779 1.03303 0
M  V30 5297 H 506.458 -2.93303 0.325163 0
M  V30 5298 H 506.539 -1.87443 1.74066 0
M  V30 5299 H 506.183 -3.90286 3.25022 0
M  V30 5300 H 506.113 -4.94599 1.80774 0
M  V30 5301 H 508.604 -3.39051 1.66891 0
M  V30 5302 H 508.917 -6.63468 3.96271 0
M  V30 5303 H 507.262 -5.9703 3.5578 0
M  V30 5304 H 510.453 -4.1619 2.14251 0
M  V30 5305 H 510.626 -5.64137 3.18831 0
M  V30 5306 N 504.032 -0.577932 -1.46621 0
M  V30 5307 C 505.28 -0.061566 -2.02006 0
M  V30 5308 C 505.601 1.30117 -1.4524 0
M  V30 5309 O 504.871 1.85313 -0.63529 0
M  V30 5310 H 503.451 -0.0197692 -0.746738 0
M  V30 5311 H 506.113 -0.752631 -1.79782 0
M  V30 5312 H 505.209 0.0110238 -3.12098 0
M  V30 5313 N 505.51 1.54411 -0.315457 0
M  V30 5314 C 506.442 2.21527 0.588067 0
M  V30 5315 C 507.455 1.21263 1.08624 0
M  V30 5316 O 508.644 1.47777 1.00121 0
M  V30 5317 C 505.744 2.85963 1.81875 0
M  V30 5318 C 504.917 4.12291 1.46063 0
M  V30 5319 C 503.976 4.60396 2.54799 0
M  V30 5320 O 503.002 5.25265 2.19283 0
M  V30 5321 N 504.204 4.33935 3.85591 0
M  V30 5322 H 506.969 2.99697 0.013414 0
M  V30 5323 H 504.53 1.61308 -0.138295 0
M  V30 5324 H 506.522 3.15071 2.53993 0
M  V30 5325 H 505.092 2.11548 2.30144 0
M  V30 5326 H 504.312 3.90036 0.571445 0
M  V30 5327 H 505.6 4.9452 1.19695 0
M  V30 5328 H 504.998 3.81996 4.17248 0
M  V30 5329 H 503.555 4.67718 4.53964 0
M  V30 5330 N 506.988 0.0434614 1.5754 0
M  V30 5331 C 508.234 -0.632971 1.92669 0
M  V30 5332 C 508.567 -1.70947 0.921446 0
M  V30 5333 O 507.842 -1.94426 -0.0537202 0
M  V30 5334 C 508.125 -1.23619 3.38216 0
M  V30 5335 C 507.978 -0.168274 4.49485 0
M  V30 5336 C 509.297 -2.15008 3.84005 0
M  V30 5337 H 506.416 -0.228629 0.700641 0
M  V30 5338 H 509.058 0.103651 1.89717 0
M  V30 5339 H 507.208 -1.864 3.40863 0
M  V30 5340 H 508.88 0.463196 4.58969 0
M  V30 5341 H 507.123 0.504581 4.30855 0
M  V30 5342 H 507.794 -0.630218 5.48391 0
M  V30 5343 H 510.27 -1.62198 3.83185 0
M  V30 5344 H 509.146 -2.54161 4.86511 0
M  V30 5345 H 509.407 -3.04707 3.20322 0
M  V30 5346 N 508.466 -1.55915 -0.229846 0
M  V30 5347 C 509.713 -1.78542 -0.955452 0
M  V30 5348 C 510.041 -0.610785 -1.84661 0
M  V30 5349 O 509.296 0.405213 -1.91459 0
M  V30 5350 C 509.595 -3.06845 -1.8325 0
M  V30 5351 C 509.261 -4.37395 -1.09528 0
M  V30 5352 C 507.923 -4.72868 -0.891598 0
M  V30 5353 C 510.275 -5.18029 -0.574046 0
M  V30 5354 C 507.603 -5.86496 -0.154655 0
M  V30 5355 C 509.955 -6.32423 0.149513 0
M  V30 5356 C 508.619 -6.66504 0.364519 0
M  V30 5357 H 507.889 -0.653333 -0.349625 0
M  V30 5358 H 510.536 -1.90183 -0.224235 0
M  V30 5359 H 508.841 -2.90291 -2.63132 0
M  V30 5360 H 510.538 -3.21553 -2.39592 0
M  V30 5361 H 507.128 -4.09538 -1.26399 0
M  V30 5362 H 511.312 -4.91066 -0.718899 0
M  V30 5363 H 506.568 -6.11396 0.0222356 0
M  V30 5364 H 510.742 -6.94137 0.560947 0
M  V30 5365 H 508.369 -7.54397 0.937495 0
M  V30 5366 N 509.944 0.496216 -1.49584 0
M  V30 5367 C 511.191 1.25003 -1.59312 0
M  V30 5368 C 511.519 1.92445 -0.28198 0
M  V30 5369 O 510.774 1.81557 0.730452 0
M  V30 5370 C 511.073 2.3359 -2.705 0
M  V30 5371 C 510.739 1.83574 -4.11839 0
M  V30 5372 C 509.401 1.69653 -4.50302 0
M  V30 5373 C 511.753 1.46193 -5.00277 0
M  V30 5374 C 509.081 1.16736 -5.74969 0
M  V30 5375 C 511.433 0.947265 -6.25468 0
M  V30 5376 C 510.097 0.794485 -6.62755 0
M  V30 5377 H 509.367 0.45742 -0.582965 0
M  V30 5378 H 512.014 0.549996 -1.83432 0
M  V30 5379 H 510.319 3.09401 -2.40371 0
M  V30 5380 H 512.016 2.91627 -2.75235 0
M  V30 5381 H 508.606 1.9537 -3.81482 0
M  V30 5382 H 512.79 1.55793 -4.71214 0
M  V30 5383 H 508.046 1.03623 -6.02555 0
M  V30 5384 H 512.22 0.648846 -6.93371 0
M  V30 5385 H 509.847 0.382271 -7.59238 0
M  V30 5386 N 511.423 1.38739 0.74761 0
M  V30 5387 C 512.839 1.20067 1.05148 0
M  V30 5388 C 513.039 0.0534835 2.01429 0
M  V30 5389 O 512.095 -0.59886 2.45296 0
M  V30 5390 C 513.408 2.52957 1.62584 0
M  V30 5391 C 514.956 2.59692 1.74726 0
M  V30 5392 C 515.431 3.92772 2.35573 0
M  V30 5393 N 516.922 3.94343 2.42997 0
M  V30 5394 C 517.657 4.9408 2.90985 0
M  V30 5395 N 517.153 6.04214 3.38965 0
M  V30 5396 N 518.946 4.81466 2.9008 0
M  V30 5397 H 511.097 2.12121 0.108808 0
M  V30 5398 H 513.36 0.941491 0.110899 0
M  V30 5399 H 513.066 3.37389 0.993051 0
M  V30 5400 H 512.94 2.71779 2.61565 0
M  V30 5401 H 515.327 1.75651 2.3713 0
M  V30 5402 H 515.408 2.44731 0.744326 0
M  V30 5403 H 515.052 4.77238 1.738 0
M  V30 5404 H 514.982 4.05046 3.36519 0
M  V30 5405 H 517.473 3.14799 2.0907 0
M  V30 5406 H 517.786 6.76241 3.74056 0
M  V30 5407 H 516.131 6.07825 3.37007 0
M  V30 5408 H 519.322 3.94535 2.51912 0
M  V30 5409 H 519.495 5.59344 3.27166 0
M  V30 5410 N 512.901 -0.976442 1.23707 0
M  V30 5411 C 513.833 -2.07212 0.979574 0
M  V30 5412 C 514.846 -1.6273 -0.0478528 0
M  V30 5413 O 516.035 -1.77506 0.18815 0
M  V30 5414 C 513.135 -3.35835 0.45479 0
M  V30 5415 C 512.308 -4.09268 1.54331 0
M  V30 5416 C 511.367 -5.16166 1.02271 0
M  V30 5417 O 510.393 -5.42827 1.71254 0
M  V30 5418 N 511.595 -5.80313 -0.147419 0
M  V30 5419 H 514.36 -2.29878 1.92292 0
M  V30 5420 H 511.921 -1.14343 1.14618 0
M  V30 5421 H 513.913 -4.04597 0.0914631 0
M  V30 5422 H 512.483 -3.10106 -0.394068 0
M  V30 5423 H 511.703 -3.34906 2.07923 0
M  V30 5424 H 512.991 -4.55095 2.27522 0
M  V30 5425 H 512.389 -5.61043 -0.724353 0
M  V30 5426 H 510.946 -6.50231 -0.451972 0
M  V30 5427 N 514.379 -1.04941 -1.1758 0
M  V30 5428 C 515.795 -0.770282 -1.39781 0
M  V30 5429 C 515.995 0.636417 -1.91186 0
M  V30 5430 O 515.051 1.39923 -2.10185 0
M  V30 5431 C 516.364 -1.82376 -2.3908 0
M  V30 5432 C 517.912 -1.84569 -2.52791 0
M  V30 5433 C 518.387 -2.88933 -3.55361 0
M  V30 5434 N 519.878 -2.8788 -3.62877 0
M  V30 5435 C 520.613 -3.65282 -4.41992 0
M  V30 5436 N 520.109 -4.52461 -5.24643 0
M  V30 5437 N 521.902 -3.53732 -4.36841 0
M  V30 5438 H 514.053 -1.95705 -0.825438 0
M  V30 5439 H 516.316 -0.847284 -0.425222 0
M  V30 5440 H 516.022 -2.83323 -2.08376 0
M  V30 5441 H 515.896 -1.66327 -3.38549 0
M  V30 5442 H 518.283 -0.842879 -2.82807 0
M  V30 5443 H 518.364 -2.04696 -1.53406 0
M  V30 5444 H 518.008 -3.89398 -3.26085 0
M  V30 5445 H 517.938 -2.66059 -4.54445 0
M  V30 5446 H 520.429 -2.24666 -3.03864 0
M  V30 5447 H 520.742 -5.08211 -5.82187 0
M  V30 5448 H 519.087 -4.56524 -5.24033 0
M  V30 5449 H 522.278 -2.85021 -3.71323 0
M  V30 5450 H 522.451 -4.14302 -4.98255 0
M  V30 5451 N 515.857 1.33968 -0.830081 0
M  V30 5452 C 517.103 1.98357 -0.422191 0
M  V30 5453 C 517.436 1.65633 1.01387 0
M  V30 5454 O 516.711 0.931648 1.70735 0
M  V30 5455 C 516.994 3.54492 -0.633043 0
M  V30 5456 C 516.847 3.96934 -2.11574 0
M  V30 5457 C 518.166 4.40039 -0.0735584 0
M  V30 5458 H 515.285 0.720544 -0.154871 0
M  V30 5459 H 517.927 1.58749 -1.04397 0
M  V30 5460 H 516.077 3.88361 -0.103775 0
M  V30 5461 H 517.749 3.73363 -2.7092 0
M  V30 5462 H 515.992 3.46984 -2.60354 0
M  V30 5463 H 516.663 5.05651 -2.21406 0
M  V30 5464 H 519.139 4.12764 -0.52585 0
M  V30 5465 H 518.015 5.48327 -0.250841 0
M  V30 5466 H 518.276 4.30124 1.02202 0
M  V30 5467 N 517.335 0.585699 1.46312 0
M  V30 5468 C 518.56 0.0762461 2.0726 0
M  V30 5469 C 518.985 -1.22071 1.43109 0
M  V30 5470 O 518.343 -1.73804 0.515942 0
M  V30 5471 C 518.391 -0.0729404 3.60526 0
M  V30 5472 O 517.495 -1.1287 3.96654 0
M  V30 5473 H 516.836 0.0641558 0.660893 0
M  V30 5474 H 519.366 0.809492 1.87905 0
M  V30 5475 H 519.376 -0.278158 4.07051 0
M  V30 5476 H 518.051 0.874188 4.06609 0
M  V30 5477 H 516.628 -0.901703 3.61834 0
M  V30 5478 N 518.813 -1.54241 0.323641 0
M  V30 5479 C 520.038 -2.05452 -0.283605 0
M  V30 5480 C 520.463 -1.19823 -1.44997 0
M  V30 5481 O 519.821 -0.207358 -1.8011 0
M  V30 5482 C 519.869 -3.53823 -0.695795 0
M  V30 5483 O 518.973 -3.71134 -1.79815 0
M  V30 5484 H 518.314 -0.662024 -0.0511917 0
M  V30 5485 H 520.844 -1.99079 0.472073 0
M  V30 5486 H 520.854 -3.96094 -0.978434 0
M  V30 5487 H 519.529 -4.15602 0.157287 0
M  V30 5488 H 518.106 -3.40768 -1.51431 0
M  V30 5489 N 520.291 -0.0518155 -1.57515 0
M  V30 5490 C 521.201 0.937539 -2.15052 0
M  V30 5491 C 522.217 1.34121 -1.10849 0
M  V30 5492 O 523.393 1.418 -1.4302 0
M  V30 5493 C 520.458 2.19379 -2.68466 0
M  V30 5494 C 519.519 1.84841 -3.87469 0
M  V30 5495 C 518.752 3.04477 -4.38326 0
M  V30 5496 O 518.975 4.17868 -3.88256 0
M  V30 5497 O 517.909 2.85453 -5.29906 0
M  V30 5498 H 521.735 0.478201 -2.99912 0
M  V30 5499 H 519.32 0.17012 -1.48428 0
M  V30 5500 H 521.202 2.93084 -3.02787 0
M  V30 5501 H 519.877 2.64449 -1.86677 0
M  V30 5502 H 518.784 1.08449 -3.58036 0
M  V30 5503 H 520.117 1.44569 -4.7049 0
M  V30 5504 N 521.769 1.56035 0.221574 0
M  V30 5505 C 523.009 1.80822 0.953038 0
M  V30 5506 C 523.373 0.625316 1.81532 0
M  V30 5507 O 524.574 0.752491 2.58052 0
M  V30 5508 C 522.845 3.10503 1.76983 0
M  V30 5509 S 524.404 3.56604 2.55693 0
M  V30 5510 H 521.222 0.634849 0.320137 0
M  V30 5511 H 523.824 1.94274 0.218619 0
M  V30 5512 H 522.528 3.94636 1.12651 0
M  V30 5513 H 522.059 2.99858 2.54655 0
M  V30 5514 H 524.074 3.1994 3.79279 0
M  V30 5515 N 523.247 -0.488276 1.49845 0
M  V30 5516 C 524.179 -1.60539 1.63584 0
M  V30 5517 C 525.192 -1.5434 0.517972 0
M  V30 5518 O 526.381 -1.60041 0.790516 0
M  V30 5519 C 523.481 -2.99374 1.58835 0
M  V30 5520 C 522.654 -3.30624 2.86368 0
M  V30 5521 C 521.713 -4.4893 2.74496 0
M  V30 5522 O 520.739 -4.50085 3.48443 0
M  V30 5523 N 521.941 -5.49591 1.86894 0
M  V30 5524 H 524.706 -1.49176 2.59936 0
M  V30 5525 H 522.267 -0.67639 1.47094 0
M  V30 5526 H 524.259 -3.76459 1.48529 0
M  V30 5527 H 522.829 -3.04595 0.702892 0
M  V30 5528 H 522.049 -2.42314 3.1093 0
M  V30 5529 H 523.337 -3.48305 3.70892 0
M  V30 5530 H 522.735 -5.51467 1.26097 0
M  V30 5531 H 521.292 -6.25728 1.82503 0
M  V30 5532 N 524.725 -1.39134 -0.740242 0
M  V30 5533 C 525.675 -1.33928 -1.84519 0
M  V30 5534 C 526.659 -0.221097 -1.59374 0
M  V30 5535 O 527.851 -0.458195 -1.70967 0
M  V30 5536 C 524.98 -1.17991 -3.22387 0
M  V30 5537 C 524.066 -2.34488 -3.53378 0
M  V30 5538 N 524.457 -3.59954 -3.5534 0
M  V30 5539 C 522.755 -2.27331 -3.83714 0
M  V30 5540 C 523.456 -4.36962 -3.83978 0
M  V30 5541 N 522.432 -3.66482 -4.01487 0
M  V30 5542 H 526.234 -2.28907 -1.84333 0
M  V30 5543 H 523.748 -1.32555 -0.938237 0
M  V30 5544 H 525.745 -1.12345 -4.01478 0
M  V30 5545 H 524.405 -0.23957 -3.23815 0
M  V30 5546 H 525.416 -3.93448 -3.36778 0
M  V30 5547 H 522.093 -1.41531 -3.92779 0
M  V30 5548 H 523.483 -5.45692 -3.92008 0
M  V30 5549 N 526.204 0.969867 -1.24223 0
M  V30 5550 C 527.134 2.08191 -1.05729 0
M  V30 5551 C 528.115 1.70075 0.0290765 0
M  V30 5552 O 529.3 1.93712 -0.137583 0
M  V30 5553 C 526.43 3.40991 -0.658995 0
M  V30 5554 C 525.384 3.93054 -1.69389 0
M  V30 5555 C 524.71 5.22171 -1.15072 0
M  V30 5556 C 526.01 4.21137 -3.08935 0
M  V30 5557 H 527.704 2.23921 -1.98746 0
M  V30 5558 H 525.25 1.07602 -0.956967 0
M  V30 5559 H 527.203 4.18221 -0.51662 0
M  V30 5560 H 525.927 3.25155 0.30686 0
M  V30 5561 H 524.586 3.17977 -1.82444 0
M  V30 5562 H 524.234 5.02694 -0.175539 0
M  V30 5563 H 523.934 5.57973 -1.84229 0
M  V30 5564 H 525.458 6.02013 -1.02042 0
M  V30 5565 H 526.872 4.8908 -2.99121 0
M  V30 5566 H 525.269 4.68163 -3.75425 0
M  V30 5567 H 526.339 3.27996 -3.57137 0
M  V30 5568 N 527.682 1.05563 1.17022 0
M  V30 5569 C 528.931 0.763036 1.8671 0
M  V30 5570 C 529.244 -0.712857 1.82147 0
M  V30 5571 O 530.45 -1.11955 2.47343 0
M  V30 5572 C 528.906 1.31474 3.35026 0
M  V30 5573 C 528.514 2.82034 3.48081 0
M  V30 5574 C 530.258 1.09935 4.10018 0
M  V30 5575 C 528.165 3.30486 4.90442 0
M  V30 5576 H 527.095 0.281747 0.699382 0
M  V30 5577 H 529.746 1.2734 1.32124 0
M  V30 5578 H 528.128 0.732171 3.89173 0
M  V30 5579 H 529.302 3.46178 3.04133 0
M  V30 5580 H 527.617 3.02156 2.86515 0
M  V30 5581 H 530.214 1.43632 5.15048 0
M  V30 5582 H 530.557 0.0373072 4.16283 0
M  V30 5583 H 531.09 1.64732 3.62089 0
M  V30 5584 H 527.829 4.36137 4.89352 0
M  V30 5585 H 527.349 2.71086 5.35044 0
M  V30 5586 H 529.028 3.25382 5.59227 0
M  V30 5587 N 529.16 -1.33526 0.837174 0
M  V30 5588 C 530.576 -1.50727 0.524743 0
M  V30 5589 C 530.776 -1.77792 -0.948279 0
M  V30 5590 O 529.832 -1.83719 -1.73216 0
M  V30 5591 C 531.145 -2.66299 1.39661 0
M  V30 5592 C 532.693 -2.80183 1.39521 0
M  V30 5593 C 533.168 -3.98815 2.25189 0
M  V30 5594 N 534.659 -4.06047 2.2289 0
M  V30 5595 C 535.394 -4.97032 2.85915 0
M  V30 5596 N 534.89 -5.93143 3.57985 0
M  V30 5597 N 536.683 -4.90015 2.75394 0
M  V30 5598 H 528.834 -1.1422 1.79074 0
M  V30 5599 H 531.097 -0.561399 0.763894 0
M  V30 5600 H 530.803 -2.52974 2.4433 0
M  V30 5601 H 530.677 -3.61663 1.07145 0
M  V30 5602 H 533.064 -2.92942 0.356253 0
M  V30 5603 H 533.145 -1.85586 1.76044 0
M  V30 5604 H 532.789 -3.86817 3.29143 0
M  V30 5605 H 532.719 -4.92654 1.86009 0
M  V30 5606 H 535.21 -3.37262 1.70478 0
M  V30 5607 H 535.523 -6.59227 4.03286 0
M  V30 5608 H 533.868 -5.93223 3.62093 0
M  V30 5609 H 537.059 -4.13894 2.18654 0
M  V30 5610 H 537.232 -5.60724 3.24796 0
M  V30 5611 N 530.638 -0.59345 -1.46 0
M  V30 5612 C 531.884 -0.0916503 -2.03193 0
M  V30 5613 C 532.239 1.25839 -1.45541 0
M  V30 5614 O 531.532 1.81455 -0.615191 0
M  V30 5615 C 531.726 0.021178 -3.57394 0
M  V30 5616 C 531.555 -1.31638 -4.30002 0
M  V30 5617 C 530.325 -1.89336 -4.68487 0
M  V30 5618 C 532.523 -2.242 -4.62859 0
M  V30 5619 N 530.505 -3.1672 -5.25891 0
M  V30 5620 C 531.876 -3.36175 -5.20948 0
M  V30 5621 C 533.931 -2.23748 -4.44794 0
M  V30 5622 C 532.634 -4.47844 -5.62875 0
M  V30 5623 C 534.66 -3.34454 -4.87744 0
M  V30 5624 C 534.022 -4.4515 -5.45913 0
M  V30 5625 H 530.121 -0.0765713 -0.778242 0
M  V30 5626 H 532.705 -0.788705 -1.7801 0
M  V30 5627 H 530.876 0.687423 -3.82268 0
M  V30 5628 H 532.608 0.528343 -4.01236 0
M  V30 5629 H 529.363 -1.42704 -4.51589 0
M  V30 5630 H 529.787 -3.81746 -5.59106 0
M  V30 5631 H 534.429 -1.39433 -3.99147 0
M  V30 5632 H 532.147 -5.32894 -6.07495 0
M  V30 5633 H 535.733 -3.35234 -4.75509 0
M  V30 5634 H 534.613 -5.29398 -5.78539 0
M  V30 5635 N 532.116 1.54067 -0.331816 0
M  V30 5636 C 533.356 2.02625 0.26876 0
M  V30 5637 C 533.72 1.21462 1.48697 0
M  V30 5638 O 534.921 1.59863 2.16096 0
M  V30 5639 C 533.192 3.52554 0.586577 0
M  V30 5640 S 534.751 4.23035 1.16563 0
M  V30 5641 H 531.569 0.706395 0.0807862 0
M  V30 5642 H 534.171 1.89844 -0.466856 0
M  V30 5643 H 532.875 4.09242 -0.308046 0
M  V30 5644 H 532.406 3.69432 1.35217 0
M  V30 5645 H 534.421 4.31382 2.45203 0
M  V30 5646 N 533.594 0.0601682 1.57485 0
M  V30 5647 C 534.524 -0.90889 2.15085 0
M  V30 5648 C 535.505 -1.31838 1.07484 0
M  V30 5649 O 536.69 -1.3915 1.35466 0
M  V30 5650 C 533.82 -2.18059 2.7031 0
M  V30 5651 C 532.774 -1.91088 3.82974 0
M  V30 5652 C 532.1 -3.24789 4.24754 0
M  V30 5653 C 533.4 -1.22535 5.07723 0
M  V30 5654 H 535.094 -0.429093 2.96309 0
M  V30 5655 H 532.64 -0.204952 1.42534 0
M  V30 5656 H 534.593 -2.86258 3.09248 0
M  V30 5657 H 533.317 -2.6826 1.8629 0
M  V30 5658 H 531.976 -1.25297 3.44523 0
M  V30 5659 H 531.624 -3.72809 3.37672 0
M  V30 5660 H 531.324 -3.07538 5.00694 0
M  V30 5661 H 532.848 -3.94205 4.66299 0
M  V30 5662 H 534.262 -1.80783 5.4405 0
M  V30 5663 H 532.659 -1.1558 5.88864 0
M  V30 5664 H 533.729 -0.202692 4.84476 0
M  V30 5665 N 535.072 -1.5615 -0.213296 0
M  V30 5666 C 536.035 -1.92249 -1.24792 0
M  V30 5667 C 537.035 -0.801828 -1.39382 0
M  V30 5668 O 538.225 -1.06948 -1.37506 0
M  V30 5669 C 535.357 -2.18056 -2.62039 0
M  V30 5670 H 536.55 -2.84793 -0.939845 0
M  V30 5671 H 534.103 -1.49559 -0.454062 0
M  V30 5672 H 534.838 -1.2809 -2.97932 0
M  V30 5673 H 534.623 -2.99703 -2.52825 0
M  V30 5674 H 536.113 -2.47051 -3.36683 0
M  V30 5675 N 536.55 0.480323 -1.50102 0
M  V30 5676 C 537.48 1.58769 -1.71215 0
M  V30 5677 C 538.461 1.60583 -0.560997 0
M  V30 5678 O 539.646 1.76996 -0.799127 0
M  V30 5679 C 536.776 2.97148 -1.79778 0
M  V30 5680 C 535.73 3.10201 -2.94888 0
M  V30 5681 C 535.056 4.50137 -2.88584 0
M  V30 5682 C 536.356 2.88283 -4.35534 0
M  V30 5683 H 538.05 1.41354 -2.6393 0
M  V30 5684 H 535.596 0.678591 -1.27008 0
M  V30 5685 H 537.549 3.74536 -1.93133 0
M  V30 5686 H 536.273 3.15699 -0.836772 0
M  V30 5687 H 534.932 2.35244 -2.81169 0
M  V30 5688 H 534.58 4.65593 -1.90349 0
M  V30 5689 H 534.28 4.59808 -3.65856 0
M  V30 5690 H 535.804 5.29558 -3.03976 0
M  V30 5691 H 537.218 3.55427 -4.49827 0
M  V30 5692 H 535.615 3.09408 -5.14186 0
M  V30 5693 H 536.685 1.84219 -4.48544 0
M  V30 5694 N 538.028 1.39524 0.732853 0
M  V30 5695 C 539.444 1.21176 1.03868 0
M  V30 5696 C 539.644 0.0748448 2.01361 0
M  V30 5697 O 538.7 -0.57281 2.45917 0
M  V30 5698 C 540.013 2.54667 1.59892 0
M  V30 5699 C 541.561 2.6153 1.71962 0
M  V30 5700 C 542.036 3.95248 2.31394 0
M  V30 5701 N 543.527 3.96899 2.38801 0
M  V30 5702 C 544.262 4.97138 2.85729 0
M  V30 5703 N 543.758 6.07775 3.32537 0
M  V30 5704 N 545.551 4.84516 2.84957 0
M  V30 5705 H 537.702 2.12225 0.086304 0
M  V30 5706 H 539.965 0.942614 0.100907 0
M  V30 5707 H 539.671 3.38423 0.95721 0
M  V30 5708 H 539.545 2.74538 2.58668 0
M  V30 5709 H 541.932 1.78156 2.35254 0
M  V30 5710 H 542.013 2.45507 0.718327 0
M  V30 5711 H 541.657 4.79054 1.68729 0
M  V30 5712 H 541.587 4.08593 3.32204 0
M  V30 5713 H 544.078 3.16998 2.05719 0
M  V30 5714 H 544.391 6.8017 3.66862 0
M  V30 5715 H 542.736 6.11366 3.30541 0
M  V30 5716 H 545.927 3.97185 2.47713 0
M  V30 5717 H 546.1 5.62783 3.21215 0
M  V30 5718 N 539.506 -0.963266 1.24736 0
M  V30 5719 C 540.917 -1.52145 1.08207 0
M  V30 5720 C 541.268 -1.93142 -0.345061 0
M  V30 5721 O 540.393 -1.77769 -1.23399 0
M  V30 5722 C 540.988 -2.76486 1.95808 0
M  V30 5723 C 539.547 -3.28646 1.8349 0
M  V30 5724 C 538.694 -2.01529 1.90476 0
M  V30 5725 H 541.645 -0.781083 1.38148 0
M  V30 5726 H 541.666 -3.49986 1.49297 0
M  V30 5727 H 541.178 -2.46617 2.99669 0
M  V30 5728 H 539.279 -3.63357 0.824787 0
M  V30 5729 H 539.392 -3.97246 2.67829 0
M  V30 5730 H 537.756 -2.16442 1.34258 0
M  V30 5731 H 538.539 -1.7402 2.95926 0
M  V30 5732 N 540.985 -1.06182 -1.16461 0
M  V30 5733 C 542.21 -0.798599 -1.91408 0
M  V30 5734 C 542.635 0.640987 -1.76842 0
M  V30 5735 O 541.993 1.44652 -1.09296 0
M  V30 5736 C 542.041 -1.19665 -3.40165 0
M  V30 5737 O 541.145 -0.334768 -4.11039 0
M  V30 5738 H 540.486 -0.291961 -0.596368 0
M  V30 5739 H 543.016 -1.41732 -1.47557 0
M  V30 5740 H 543.026 -1.16772 -3.90933 0
M  V30 5741 H 541.701 -2.24526 -3.50087 0
M  V30 5742 H 540.278 -0.425168 -3.70468 0
M  V30 5743 N 542.463 1.3308 -0.844243 0
M  V30 5744 C 543.74 1.92178 -0.364261 0
M  V30 5745 C 544.12 1.76961 1.15101 0
M  V30 5746 O 543.468 1.16128 1.9679 0
M  V30 5747 C 543.678 3.393 -0.817106 0
M  V30 5748 C 545.026 4.16444 -0.828236 0
M  V30 5749 O 546.05 3.47975 -0.761062 0
M  V30 5750 O 544.909 5.38685 -0.920926 0
M  V30 5751 H 542.003 0.820411 -0.10419 0
M  V30 5752 H 544.549 1.41918 -0.930453 0
M  V30 5753 H 543.321 3.44272 -1.85991 0
M  V30 5754 H 542.944 3.96947 -0.227785 0
M  V30 5755 N 543.941 0.601185 1.45683 0
M  V30 5756 C 545.357 0.264315 1.57396 0
M  V30 5757 C 545.557 -1.23324 1.59353 0
M  V30 5758 O 544.613 -2.01594 1.52039 0
M  V30 5759 C 545.926 0.929839 2.85962 0
M  V30 5760 C 547.474 0.905156 2.99626 0
M  V30 5761 C 547.949 1.55057 4.30954 0
M  V30 5762 N 549.44 1.51576 4.37697 0
M  V30 5763 C 550.175 1.98436 5.37969 0
M  V30 5764 N 549.671 2.53352 6.44813 0
M  V30 5765 N 551.464 1.89242 5.29286 0
M  V30 5766 H 543.615 1.57363 1.42656 0
M  V30 5767 H 545.878 0.658831 0.681649 0
M  V30 5768 H 545.584 1.98404 2.90394 0
M  V30 5769 H 545.458 0.449224 3.74515 0
M  V30 5770 H 547.845 -0.14048 2.94765 0
M  V30 5771 H 547.926 1.42397 2.12501 0
M  V30 5772 H 547.57 2.5955 4.36573 0
M  V30 5773 H 547.5 1.00682 5.16886 0
M  V30 5774 H 549.991 1.11452 3.61091 0
M  V30 5775 H 550.304 2.86918 7.17564 0
M  V30 5776 H 548.649 2.57388 6.45582 0
M  V30 5777 H 551.84 1.46083 4.44722 0
M  V30 5778 H 552.013 2.26075 6.07284 0
M  V30 5779 N 545.419 -1.53889 0.339982 0
M  V30 5780 C 546.83 -1.86139 -0.144671 0
M  V30 5781 C 547.181 -1.2613 -1.50285 0
M  V30 5782 O 546.306 -0.573515 -2.08662 0
M  V30 5783 C 546.901 -3.37728 -0.269285 0
M  V30 5784 C 545.46 -3.69868 -0.698168 0
M  V30 5785 C 544.607 -2.76777 0.170249 0
M  V30 5786 H 547.558 -1.48503 0.559704 0
M  V30 5787 H 547.579 -3.64331 -1.0974 0
M  V30 5788 H 547.091 -3.81375 0.719366 0
M  V30 5789 H 545.192 -3.31764 -1.69597 0
M  V30 5790 H 545.305 -4.76582 -0.490533 0
M  V30 5791 H 543.669 -2.52188 -0.356844 0
M  V30 5792 H 544.452 -3.23253 1.15597 0
M  V30 5793 N 546.897 -0.0685191 -1.57451 0
M  V30 5794 C 548.125 0.610462 -1.97689 0
M  V30 5795 C 548.54 1.63346 -0.946758 0
M  V30 5796 O 547.897 1.82377 0.0669868 0
M  V30 5797 C 547.948 1.28196 -3.38006 0
M  V30 5798 O 547.669 0.299906 -4.37072 0
M  V30 5799 C 549.17 2.04907 -3.931 0
M  V30 5800 H 546.39 0.165689 -0.650222 0
M  V30 5801 H 548.934 -0.139953 -2.04021 0
M  V30 5802 H 547.089 1.98348 -3.32771 0
M  V30 5803 H 547.503 0.78126 -5.18649 0
M  V30 5804 H 548.977 2.47287 -4.93511 0
M  V30 5805 H 549.454 2.9043 -3.29465 0
M  V30 5806 H 550.06 1.39629 -4.01726 0
M  V30 5807 N 548.375 1.56261 0.205012 0
M  V30 5808 C 549.622 1.8004 0.926927 0
M  V30 5809 C 549.95 0.640086 1.83666 0
M  V30 5810 O 549.205 -0.374702 1.92079 0
M  V30 5811 C 549.504 3.09722 1.78345 0
M  V30 5812 C 549.17 4.39082 1.02555 0
M  V30 5813 C 547.832 4.74226 0.816256 0
M  V30 5814 C 550.184 5.18877 0.491559 0
M  V30 5815 C 547.512 5.86668 0.0613287 0
M  V30 5816 C 549.864 6.32105 -0.250107 0
M  V30 5817 C 548.528 6.6584 -0.470508 0
M  V30 5818 H 547.798 0.658812 0.339187 0
M  V30 5819 H 550.445 1.90515 0.19395 0
M  V30 5820 H 548.75 2.9444 2.5848 0
M  V30 5821 H 550.447 3.25324 2.34446 0
M  V30 5822 H 547.037 4.11497 1.19868 0
M  V30 5823 H 551.221 4.92147 0.640684 0
M  V30 5824 H 546.477 6.11283 -0.119501 0
M  V30 5825 H 550.651 6.93157 -0.671307 0
M  V30 5826 H 548.278 7.5281 -1.05739 0
M  V30 5827 N 549.853 -0.472356 1.50355 0
M  V30 5828 C 550.763 -1.59637 1.7191 0
M  V30 5829 C 551.779 -1.63247 0.602195 0
M  V30 5830 O 552.955 -1.81139 0.880369 0
M  V30 5831 C 550.02 -2.9586 1.80742 0
M  V30 5832 C 549.081 -3.02649 3.04471 0
M  V30 5833 C 548.314 -4.32374 3.12872 0
M  V30 5834 O 548.537 -5.22807 2.28099 0
M  V30 5835 O 547.471 -4.44728 4.05587 0
M  V30 5836 H 551.297 -1.44373 2.67189 0
M  V30 5837 H 548.882 -0.651717 1.34436 0
M  V30 5838 H 550.764 -3.7677 1.88739 0
M  V30 5839 H 549.439 -3.11325 0.88647 0
M  V30 5840 H 548.346 -2.20821 3.01975 0
M  V30 5841 H 549.679 -2.92119 3.9614 0
M  V30 5842 N 551.331 -1.39911 -0.725443 0
M  V30 5843 C 552.241 -1.41688 -1.8698 0
M  V30 5844 C 553.257 -0.310579 -1.71206 0
M  V30 5845 O 554.433 -0.55359 -1.93642 0
M  V30 5846 C 551.498 -1.26811 -3.22676 0
M  V30 5847 C 550.559 -2.47497 -3.50776 0
M  V30 5848 C 549.792 -2.3332 -4.79997 0
M  V30 5849 O 550.015 -1.34175 -5.54394 0
M  V30 5850 O 548.949 -3.22498 -5.08211 0
M  V30 5851 H 552.775 -2.38171 -1.88436 0
M  V30 5852 H 550.36 -1.21128 -0.874548 0
M  V30 5853 H 552.242 -1.20684 -4.03749 0
M  V30 5854 H 550.917 -0.334289 -3.21969 0
M  V30 5855 H 549.824 -2.59201 -2.69751 0
M  V30 5856 H 551.157 -3.39606 -3.5627 0
M  V30 5857 N 552.809 0.956637 -1.25245 0
M  V30 5858 C 554.058 1.69537 -1.0927 0
M  V30 5859 C 554.371 1.92136 0.366503 0
M  V30 5860 O 555.577 2.63687 0.64665 0
M  V30 5861 C 554.033 3.05211 -1.9072 0
M  V30 5862 C 553.641 2.90416 -3.41119 0
M  V30 5863 C 555.385 3.82882 -1.83308 0
M  V30 5864 C 553.292 4.21468 -4.14872 0
M  V30 5865 H 552.222 0.635804 -0.405302 0
M  V30 5866 H 554.873 1.06513 -1.49423 0
M  V30 5867 H 553.255 3.69128 -1.43389 0
M  V30 5868 H 554.429 2.35444 -3.9611 0
M  V30 5869 H 552.744 2.26203 -3.49602 0
M  V30 5870 H 555.341 4.79944 -2.35706 0
M  V30 5871 H 555.684 4.0853 -0.800572 0
M  V30 5872 H 556.217 3.25711 -2.28379 0
M  V30 5873 H 552.956 4.01009 -5.18529 0
M  V30 5874 H 552.476 4.76213 -3.64665 0
M  V30 5875 H 554.155 4.90022 -4.22478 0
M  V30 5876 N 554.287 1.06798 1.15896 0
M  V30 5877 C 555.219 0.641263 2.20046 0
M  V30 5878 C 556.232 -0.303355 1.59949 0
M  V30 5879 O 557.421 -0.0935478 1.78255 0
M  V30 5880 C 554.521 -0.0794029 3.38807 0
M  V30 5881 C 553.694 0.879986 4.28457 0
M  V30 5882 C 552.753 0.197638 5.25829 0
M  V30 5883 O 551.779 0.836913 5.63014 0
M  V30 5884 N 552.981 -1.05886 5.70761 0
M  V30 5885 H 555.746 1.53718 2.57276 0
M  V30 5886 H 553.307 0.951951 1.30956 0
M  V30 5887 H 555.299 -0.546418 4.00994 0
M  V30 5888 H 553.869 -0.877193 3.0004 0
M  V30 5889 H 553.089 1.52625 3.63454 0
M  V30 5890 H 554.377 1.53065 4.8523 0
M  V30 5891 H 553.775 -1.59828 5.42652 0
M  V30 5892 H 552.332 -1.46965 6.35015 0
M  V30 5893 N 555.766 -1.3263 0.851289 0
M  V30 5894 C 556.714 -2.30882 0.282202 0
M  V30 5895 C 557.708 -1.58697 -0.592589 0
M  V30 5896 O 558.914 -1.73461 -0.480768 0
M  V30 5897 H 555.289 -0.748492 0.0725487 0
M  V30 5898 H 557.26 -2.76374 1.12516 0
M  V30 5899 C 556.009 -3.43828 -0.517449 0
M  V30 5900 H 555.332 -3.99532 0.146392 0
M  V30 5901 H 556.772 -4.1474 -0.88128 0
M  V30 5902 C 555.231 -2.90786 -1.70133 0
M  V30 5903 O 555.761 -2.88 -2.80034 0
M  V30 5904 N 553.967 -2.4723 -1.52728 0
M  V30 5905 H 553.514 -2.49695 -0.633257 0
M  V30 5906 H 553.472 -2.12094 -2.32085 0
M  V30 5907 N 557.244 -0.608902 -1.45362 0
M  V30 5908 C 558.194 0.130616 -2.27626 0
M  V30 5909 C 559.178 0.837323 -1.37396 0
M  V30 5910 O 560.37 0.727096 -1.61376 0
M  V30 5911 C 557.499 1.12646 -3.24293 0
M  V30 5912 C 556.585 0.42052 -4.2201 0
M  V30 5913 N 556.976 -0.538569 -5.02925 0
M  V30 5914 C 555.274 0.667901 -4.40971 0
M  V30 5915 C 555.975 -0.953625 -5.7383 0
M  V30 5916 N 554.951 -0.297097 -5.42788 0
M  V30 5917 H 558.753 -0.605996 -2.87585 0
M  V30 5918 H 556.267 -0.432672 -1.5653 0
M  V30 5919 H 558.264 1.67066 -3.81961 0
M  V30 5920 H 556.924 1.86361 -2.65894 0
M  V30 5921 H 557.935 -0.915375 -5.09746 0
M  V30 5922 H 554.612 1.38963 -3.93695 0
M  V30 5923 H 556.002 -1.74473 -6.48852 0
M  V30 5924 N 558.722 1.53707 -0.348139 0
M  V30 5925 C 560.133 1.86213 0.134797 0
M  V30 5926 C 560.484 1.26925 1.49614 0
M  V30 5927 O 559.609 0.584573 2.08355 0
M  V30 5928 C 560.204 3.37866 0.251371 0
M  V30 5929 C 558.763 3.70233 0.678543 0
M  V30 5930 C 557.91 2.76683 -0.184925 0
M  V30 5931 H 560.861 1.48204 -0.567571 0
M  V30 5932 H 560.882 3.64908 1.07806 0
M  V30 5933 H 560.394 3.80988 -0.739581 0
M  V30 5934 H 558.495 3.32659 1.67835 0
M  V30 5935 H 558.608 4.76836 0.465251 0
M  V30 5936 H 556.972 2.52374 0.343465 0
M  V30 5937 H 557.755 3.22635 -1.1731 0
M  V30 5938 N 560.2 0.0768682 1.57412 0
M  V30 5939 C 561.446 -0.585926 1.94778 0
M  V30 5940 C 561.801 -1.66912 0.956982 0
M  V30 5941 O 561.094 -1.9159 -0.0199454 0
M  V30 5942 C 561.288 -1.20268 3.36557 0
M  V30 5943 C 561.117 -0.18076 4.49337 0
M  V30 5944 C 559.887 0.236362 5.04747 0
M  V30 5945 C 562.085 0.583978 5.10974 0
M  V30 5946 N 560.067 1.24846 6.01071 0
M  V30 5947 C 561.438 1.44841 6.02844 0
M  V30 5948 C 563.493 0.639492 4.93776 0
M  V30 5949 C 562.196 2.36343 6.79363 0
M  V30 5950 C 564.222 1.54204 5.70942 0
M  V30 5951 C 563.584 2.39414 6.62465 0
M  V30 5952 H 559.683 -0.185281 0.759734 0
M  V30 5953 H 562.267 0.155193 1.9408 0
M  V30 5954 H 560.438 -1.9137 3.37982 0
M  V30 5955 H 562.17 -1.82636 3.61146 0
M  V30 5956 H 558.925 -0.14777 4.73369 0
M  V30 5957 H 559.349 1.75217 6.53933 0
M  V30 5958 H 563.991 -0.00510074 4.228 0
M  V30 5959 H 561.709 3.01836 7.49614 0
M  V30 5960 H 565.295 1.5899 5.59655 0
M  V30 5961 H 564.175 3.0812 7.21132 0
M  V30 5962 N 561.678 -1.56367 -0.196722 0
M  V30 5963 C 562.611 -1.89475 -1.2718 0
M  V30 5964 C 563.589 -0.754667 -1.44026 0
M  V30 5965 O 564.773 -1.00551 -1.59442 0
M  V30 5966 C 561.9 -2.12352 -2.63864 0
M  V30 5967 C 560.946 -3.35053 -2.63897 0
M  V30 5968 S 561.779 -4.90228 -2.15492 0
M  V30 5969 C 562.935 -5.16171 -3.54004 0
M  V30 5970 H 563.168 -2.80365 -0.989075 0
M  V30 5971 H 560.701 -1.49125 -0.40014 0
M  V30 5972 H 562.659 -2.26214 -3.42545 0
M  V30 5973 H 561.32 -1.22214 -2.89349 0
M  V30 5974 H 560.513 -3.48182 -3.64397 0
M  V30 5975 H 560.115 -3.20176 -1.93296 0
M  V30 5976 H 562.407 -5.06591 -4.49857 0
M  V30 5977 H 563.35 -6.17938 -3.45771 0
M  V30 5978 H 563.758 -4.43814 -3.48841 0
M  V30 5979 N 563.156 0.464375 -1.50603 0
M  V30 5980 C 564.088 1.57916 -1.66118 0
M  V30 5981 C 565.101 1.53497 -0.54246 0
M  V30 5982 O 566.29 1.58763 -0.815877 0
M  V30 5983 C 563.39 2.96809 -1.63577 0
M  V30 5984 C 562.563 3.26026 -2.91592 0
M  V30 5985 C 561.622 4.44506 -2.81604 0
M  V30 5986 O 560.648 4.44484 -3.55559 0
M  V30 5987 N 561.85 5.46549 -1.95614 0
M  V30 5988 H 564.615 1.45022 -2.62276 0
M  V30 5989 H 562.176 0.652903 -1.48151 0
M  V30 5990 H 564.168 3.74048 -1.54499 0
M  V30 5991 H 562.738 3.03438 -0.751262 0
M  V30 5992 H 561.958 2.37337 -3.14746 0
M  V30 5993 H 563.246 3.42361 -3.76386 0
M  V30 5994 H 562.644 5.49391 -1.34854 0
M  V30 5995 H 561.201 6.22746 -1.92435 0
M  V30 5996 N 564.634 1.40294 0.718013 0
M  V30 5997 C 565.911 1.2894 1.47084 0
M  V30 5998 C 566.291 -0.0933625 2.10893 0
M  V30 5999 O 565.639 -1.10598 1.99951 0
M  V30 6000 C 565.849 2.4264 2.50852 0
M  V30 6001 C 567.197 2.8276 3.16752 0
M  V30 6002 O 568.221 2.42215 2.61171 0
M  V30 6003 O 567.08 3.528 4.17366 0
M  V30 6004 H 564.174 0.506236 0.653952 0
M  V30 6005 H 566.72 1.52208 0.750394 0
M  V30 6006 H 565.492 3.35009 2.022 0
M  V30 6007 H 565.115 2.21129 3.30435 0
M  V30 6008 N 566.112 -0.949982 1.2575 0
M  V30 6009 C 567.358 -1.69766 1.10938 0
M  V30 6010 C 567.691 -1.91056 -0.348028 0
M  V30 6011 O 566.966 -1.48488 -1.25625 0
M  V30 6012 C 567.249 -3.07779 1.86933 0
M  V30 6013 C 567.102 -2.9387 3.4053 0
M  V30 6014 C 568.421 -4.07749 1.65616 0
M  V30 6015 H 565.54 -0.616144 0.404396 0
M  V30 6016 H 568.182 -1.10394 1.54639 0
M  V30 6017 H 566.332 -3.58462 1.4979 0
M  V30 6018 H 568.004 -2.50476 3.87375 0
M  V30 6019 H 566.247 -2.29686 3.68004 0
M  V30 6020 H 566.918 -3.91719 3.88922 0
M  V30 6021 H 569.394 -3.65994 1.97959 0
M  V30 6022 H 568.27 -5.02348 2.21218 0
M  V30 6023 H 568.531 -4.38029 0.598595 0
M  V30 6024 N 567.59 -1.07411 -1.15328 0
M  V30 6025 C 568.52 -0.716472 -2.22236 0
M  V30 6026 C 569.501 0.296373 -1.67498 0
M  V30 6027 O 570.686 0.168989 -1.93463 0
M  V30 6028 C 567.816 -0.114142 -3.47112 0
M  V30 6029 C 566.77 -1.05421 -4.14814 0
M  V30 6030 C 566.096 -0.314604 -5.33774 0
M  V30 6031 C 567.396 -2.38808 -4.64508 0
M  V30 6032 H 569.09 -1.61029 -2.52408 0
M  V30 6033 H 566.636 -0.775702 -1.21321 0
M  V30 6034 H 568.589 0.148001 -4.2114 0
M  V30 6035 H 567.313 0.814755 -3.16274 0
M  V30 6036 H 565.972 -1.30128 -3.42728 0
M  V30 6037 H 565.62 0.617772 -4.99192 0
M  V30 6038 H 565.32 -0.941209 -5.80013 0
M  V30 6039 H 566.844 -0.0602747 -6.1057 0
M  V30 6040 H 568.258 -2.18424 -5.3006 0
M  V30 6041 H 566.655 -2.97069 -5.21412 0
M  V30 6042 H 567.725 -3.01067 -3.80114 0
M  V30 6043 N 569.068 1.32177 -0.85831 0
M  V30 6044 C 569.998 2.31282 -0.321041 0
M  V30 6045 C 570.979 1.59841 0.581786 0
M  V30 6046 O 572.164 1.87619 0.501262 0
M  V30 6047 C 569.294 3.4385 0.48832 0
M  V30 6048 C 568.248 4.26799 -0.320391 0
M  V30 6049 C 567.574 5.31164 0.613934 0
M  V30 6050 C 568.874 4.98829 -1.54813 0
M  V30 6051 H 570.568 2.76469 -1.14915 0
M  V30 6052 H 568.114 1.32916 -0.554028 0
M  V30 6053 H 570.067 4.12224 0.874626 0
M  V30 6054 H 568.791 2.97401 1.34983 0
M  V30 6055 H 567.45 3.60077 -0.688497 0
M  V30 6056 H 567.098 4.80967 1.47239 0
M  V30 6057 H 566.798 5.8755 0.0768097 0
M  V30 6058 H 568.322 6.024 0.997336 0
M  V30 6059 H 569.736 5.59864 -1.23392 0
M  V30 6060 H 568.133 5.64957 -2.02346 0
M  V30 6061 H 569.203 4.26483 -2.30739 0
M  V30 6062 N 570.547 0.616602 1.45037 0
M  V30 6063 C 571.958 0.199359 1.85633 0
M  V30 6064 C 572.309 -1.24588 1.51566 0
M  V30 6065 O 571.434 -1.94594 0.94668 0
M  V30 6066 C 572.029 0.355033 3.36935 0
M  V30 6067 C 570.588 -0.00758748 3.76399 0
M  V30 6068 C 569.735 0.675256 2.68953 0
M  V30 6069 H 572.686 0.822708 1.3571 0
M  V30 6070 H 572.707 -0.410201 3.78282 0
M  V30 6071 H 572.219 1.40699 3.61698 0
M  V30 6072 H 570.32 -1.05837 3.57252 0
M  V30 6073 H 570.433 0.392346 4.77491 0
M  V30 6074 H 568.797 0.111992 2.54454 0
M  V30 6075 H 569.58 1.72952 2.96551 0
M  V30 6076 N 572.025 -1.5352 0.356285 0
M  V30 6077 C 572.957 -2.23009 -0.529127 0
M  V30 6078 C 573.97 -1.241 -1.05371 0
M  V30 6079 O 575.159 -1.50379 -0.961679 0
M  V30 6080 C 572.259 -2.90685 -1.74229 0
M  V30 6081 C 571.432 -4.16019 -1.35081 0
M  V30 6082 C 570.491 -4.66989 -2.42502 0
M  V30 6083 O 569.517 -5.30895 -2.05279 0
M  V30 6084 N 570.719 -4.44006 -3.7395 0
M  V30 6085 H 573.484 -2.99627 0.0660501 0
M  V30 6086 H 571.045 -1.60885 0.181014 0
M  V30 6087 H 573.037 -3.21695 -2.4555 0
M  V30 6088 H 571.607 -2.17575 -2.24454 0
M  V30 6089 H 570.827 -3.91414 -0.467833 0
M  V30 6090 H 572.115 -4.9752 -1.06542 0
M  V30 6091 H 571.513 -3.92924 -4.06973 0
M  V30 6092 H 570.07 -4.7959 -4.41403 0
M  V30 6093 N 573.503 -0.0852151 -1.57369 0
M  V30 6094 C 574.413 0.891712 -2.16992 0
M  V30 6095 C 575.429 1.3174 -1.13669 0
M  V30 6096 O 576.605 1.38735 -1.45995 0
M  V30 6097 C 573.67 2.13635 -2.73059 0
M  V30 6098 C 572.731 1.7658 -3.91303 0
M  V30 6099 C 571.964 2.95111 -4.44686 0
M  V30 6100 O 572.187 4.09539 -3.97032 0
M  V30 6101 O 571.121 2.74149 -5.35841 0
M  V30 6102 H 574.947 0.414477 -3.00858 0
M  V30 6103 H 572.532 0.138598 -1.48756 0
M  V30 6104 H 574.414 2.86595 -3.08935 0
M  V30 6105 H 573.089 2.6043 -1.92244 0
M  V30 6106 H 571.996 1.00831 -3.60255 0
M  V30 6107 H 573.329 1.34557 -4.7345 0
M  V30 6108 N 574.981 1.5647 0.188427 0
M  V30 6109 C 576.209 1.85131 0.923803 0
M  V30 6110 C 576.624 0.668537 1.76567 0
M  V30 6111 O 575.981 -0.362662 1.7886 0
M  V30 6112 C 576.032 3.12661 1.81453 0
M  V30 6113 O 575.753 4.26378 1.00665 0
M  V30 6114 C 577.254 3.54548 2.66103 0
M  V30 6115 H 574.474 0.614624 0.269218 0
M  V30 6116 H 577.018 2.03581 0.193671 0
M  V30 6117 H 575.173 2.96088 2.49821 0
M  V30 6118 H 575.587 4.99041 1.61425 0
M  V30 6119 H 577.061 4.4673 3.24247 0
M  V30 6120 H 577.538 2.77853 3.40139 0
M  V30 6121 H 578.144 3.73674 2.03096 0
M  V30 6122 N 576.459 -0.456382 1.50847 0
M  V30 6123 C 577.422 -1.53493 1.70213 0
M  V30 6124 C 578.422 -1.50264 0.572481 0
M  V30 6125 O 579.612 -1.52623 0.839751 0
M  V30 6126 C 576.744 -2.93091 1.741 0
M  V30 6127 H 577.937 -1.37633 2.66453 0
M  V30 6128 H 575.49 -0.683776 1.4055 0
M  V30 6129 H 576.225 -3.14378 0.796063 0
M  V30 6130 H 576.01 -2.9684 2.5618 0
M  V30 6131 H 577.5 -3.71368 1.90987 0
M  V30 6132 N 577.937 -1.40673 -0.710563 0
M  V30 6133 C 578.847 -1.43663 -1.85467 0
M  V30 6134 C 579.863 -0.328721 -1.70867 0
M  V30 6135 O 581.039 -0.574098 -1.93044 0
M  V30 6136 C 578.104 -1.30226 -3.21313 0
M  V30 6137 C 577.165 -2.51204 -3.48131 0
M  V30 6138 C 576.398 -2.38398 -4.77495 0
M  V30 6139 O 576.621 -1.40048 -5.5294 0
M  V30 6140 O 575.555 -3.2787 -5.04762 0
M  V30 6141 H 579.381 -2.40156 -1.859 0
M  V30 6142 H 576.966 -1.22049 -0.861652 0
M  V30 6143 H 578.848 -1.2496 -4.02446 0
M  V30 6144 H 577.523 -0.368419 -3.21597 0
M  V30 6145 H 576.43 -2.62048 -2.66987 0
M  V30 6146 H 577.763 -3.43366 -3.52648 0
M  V30 6147 N 579.415 0.9433 -1.26252 0
M  V30 6148 C 580.664 1.68369 -1.11062 0
M  V30 6149 C 580.977 1.92514 0.346104 0
M  V30 6150 O 582.183 2.64358 0.618646 0
M  V30 6151 C 580.639 3.03171 -1.93946 0
M  V30 6152 C 580.247 2.86782 -3.4418 0
M  V30 6153 C 581.991 3.80916 -1.87359 0
M  V30 6154 C 579.898 4.17044 -4.19319 0
M  V30 6155 H 578.828 0.631469 -0.412023 0
M  V30 6156 H 581.479 1.04922 -1.50544 0
M  V30 6157 H 579.861 3.67587 -1.47296 0
M  V30 6158 H 581.035 2.31229 -3.98585 0
M  V30 6159 H 579.35 2.22482 -3.51981 0
M  V30 6160 H 581.947 4.77417 -2.40784 0
M  V30 6161 H 582.29 4.07658 -0.843857 0
M  V30 6162 H 582.823 3.2327 -2.31821 0
M  V30 6163 H 579.562 3.95487 -5.22753 0
M  V30 6164 H 579.082 4.72319 -3.69696 0
M  V30 6165 H 580.761 4.85513 -4.27651 0
M  V30 6166 N 580.893 1.08022 1.14757 0
M  V30 6167 C 581.843 0.676345 2.17737 0
M  V30 6168 C 582.827 -0.302018 1.5804 0
M  V30 6169 O 584.019 -0.11466 1.76628 0
M  V30 6170 C 581.148 0.082984 3.432 0
M  V30 6171 C 580.234 1.0869 4.09936 0
M  V30 6172 N 580.625 2.26891 4.52055 0
M  V30 6173 C 578.923 0.921768 4.36371 0
M  V30 6174 C 579.624 2.90636 5.0389 0
M  V30 6175 N 578.6 2.18266 4.97856 0
M  V30 6176 H 582.402 1.5765 2.4804 0
M  V30 6177 H 579.916 0.954374 1.31398 0
M  V30 6178 H 581.913 -0.224289 4.16296 0
M  V30 6179 H 580.573 -0.812206 3.14378 0
M  V30 6180 H 581.584 2.6457 4.45223 0
M  V30 6181 H 578.261 0.0800499 4.17423 0
M  V30 6182 H 579.651 3.9104 5.46386 0
M  V30 6183 N 582.371 -1.3172 0.865308 0
M  V30 6184 C 583.301 -2.31109 0.333302 0
M  V30 6185 C 584.282 -1.60148 -0.573301 0
M  V30 6186 O 585.467 -1.87882 -0.491305 0
M  V30 6187 C 582.597 -3.44104 -0.470078 0
M  V30 6188 C 581.551 -4.26623 0.343021 0
M  V30 6189 C 580.877 -5.31482 -0.585756 0
M  V30 6190 C 582.177 -4.98001 1.57456 0
M  V30 6191 H 583.871 -2.75855 1.1638 0
M  V30 6192 H 581.417 -1.3262 0.561069 0
M  V30 6193 H 583.37 -4.12682 -0.852752 0
M  V30 6194 H 582.094 -2.98112 -1.33404 0
M  V30 6195 H 580.753 -3.59707 0.707583 0
M  V30 6196 H 580.401 -4.81741 -1.44686 0
M  V30 6197 H 580.101 -5.87582 -0.0456494 0
M  V30 6198 H 581.625 -6.0292 -0.965375 0
M  V30 6199 H 583.039 -5.59201 1.26359 0
M  V30 6200 H 581.436 -5.63876 2.05339 0
M  V30 6201 H 582.506 -4.25253 2.32997 0
M  V30 6202 N 583.85 -0.624285 -1.44708 0
M  V30 6203 C 584.8 0.106466 -2.27751 0
M  V30 6204 C 585.784 0.822703 -1.38277 0
M  V30 6205 O 586.976 0.709939 -1.62138 0
M  V30 6206 C 584.105 1.092 -3.25469 0
M  V30 6207 C 583.191 0.375737 -4.22432 0
M  V30 6208 N 583.582 -0.591881 -5.02325 0
M  V30 6209 C 581.88 0.621093 -4.41654 0
M  V30 6210 C 582.581 -1.01443 -5.72786 0
M  V30 6211 N 581.557 -0.354651 -5.42442 0
M  V30 6212 H 585.359 -0.636464 -2.86926 0
M  V30 6213 H 582.873 -0.44925 -1.56062 0
M  V30 6214 H 584.87 1.63006 -3.83712 0
M  V30 6215 H 583.529 1.8353 -2.67856 0
M  V30 6216 H 584.541 -0.969389 -5.08747 0
M  V30 6217 H 581.218 1.34779 -3.95147 0
M  V30 6218 H 582.608 -1.81345 -6.46965 0
M  V30 6219 N 585.328 1.53329 -0.364422 0
M  V30 6220 C 586.553 2.06132 0.229033 0
M  V30 6221 C 586.978 1.23625 1.41769 0
M  V30 6222 O 586.336 0.255038 1.79497 0
M  V30 6223 C 586.384 3.55544 0.60174 0
M  V30 6224 O 585.488 3.75771 1.69912 0
M  V30 6225 H 584.829 0.663148 0.0336213 0
M  V30 6226 H 587.359 1.97758 -0.524689 0
M  V30 6227 H 587.369 3.98549 0.873073 0
M  V30 6228 H 586.044 4.15039 -0.267421 0
M  V30 6229 H 584.621 3.44663 1.42343 0
M  V30 6230 N 586.806 0.0935595 1.57322 0
M  V30 6231 C 587.736 -0.863062 2.16964 0
M  V30 6232 C 588.717 -1.29528 1.10256 0
M  V30 6233 O 589.902 -1.36245 1.38387 0
M  V30 6234 C 587.032 -2.12276 2.74875 0
M  V30 6235 C 585.986 -1.82921 3.86942 0
M  V30 6236 C 585.312 -3.15707 4.31548 0
M  V30 6237 C 586.612 -1.11737 5.10208 0
M  V30 6238 H 588.306 -0.366145 2.97153 0
M  V30 6239 H 585.852 -0.174673 1.42937 0
M  V30 6240 H 587.805 -2.79634 3.1525 0
M  V30 6241 H 586.529 -2.64248 1.91938 0
M  V30 6242 H 585.188 -1.17961 3.47103 0
M  V30 6243 H 584.836 -3.65563 3.45504 0
M  V30 6244 H 584.536 -2.96849 5.07104 0
M  V30 6245 H 586.06 -3.84226 4.74555 0
M  V30 6246 H 587.474 -1.69203 5.47762 0
M  V30 6247 H 585.871 -1.03064 5.91183 0
M  V30 6248 H 586.941 -0.0998818 4.84797 0
M  V30 6249 N 588.284 -1.56567 -0.180126 0
M  V30 6250 C 589.509 -1.85975 -0.918041 0
M  V30 6251 C 589.934 -0.678888 -1.75422 0
M  V30 6252 O 589.292 0.372168 -1.77439 0
M  V30 6253 C 589.34 -3.13731 -1.77779 0
M  V30 6254 O 588.444 -2.95335 -2.87838 0
M  V30 6255 H 587.785 -0.61196 -0.257683 0
M  V30 6256 H 590.315 -2.03798 -0.180923 0
M  V30 6257 H 590.325 -3.4491 -2.17948 0
M  V30 6258 H 589 -3.99293 -1.16352 0
M  V30 6259 H 587.577 -2.7549 -2.51316 0
M  V30 6260 N 589.762 0.448376 -1.51087 0
M  V30 6261 C 591.173 1.0286 -1.5581 0
M  V30 6262 C 591.524 1.92583 -0.374989 0
M  V30 6263 O 590.649 2.10316 0.509533 0
M  V30 6264 C 591.244 1.87223 -2.8237 0
M  V30 6265 C 589.803 2.40314 -2.897 0
M  V30 6266 C 588.95 1.19238 -2.50355 0
M  V30 6267 H 591.901 0.230075 -1.57023 0
M  V30 6268 H 591.922 2.72553 -2.6551 0
M  V30 6269 H 591.434 1.21894 -3.68461 0
M  V30 6270 H 589.535 3.09129 -2.08014 0
M  V30 6271 H 589.648 2.73866 -3.93108 0
M  V30 6272 H 588.012 1.53428 -2.03303 0
M  V30 6273 H 588.795 0.555367 -3.38778 0
M  V30 6274 N 591.24 1.41047 0.703093 0
M  V30 6275 C 592.488 1.39723 1.4602 0
M  V30 6276 C 592.809 0.00461257 1.94999 0
M  V30 6277 O 592.079 -0.952292 1.71196 0
M  V30 6278 H 590.659 0.514281 0.541779 0
M  V30 6279 H 593.321 1.76217 0.832678 0
M  V30 6280 H 592.417 2.07982 2.32701 0
M  V30 6281 N 592.718 -0.936591 1.26751 0
M  V30 6282 C 594.129 -1.49816 1.1141 0
M  V30 6283 C 594.48 -1.9383 -0.304015 0
M  V30 6284 O 593.605 -1.80346 -1.196 0
M  V30 6285 C 594.2 -2.72271 2.01629 0
M  V30 6286 C 592.759 -3.2468 1.9042 0
M  V30 6287 C 591.906 -1.97444 1.94708 0
M  V30 6288 H 594.857 -0.751604 1.39773 0
M  V30 6289 H 594.878 -3.46741 1.56688 0
M  V30 6290 H 594.39 -2.40205 3.04833 0
M  V30 6291 H 592.491 -3.61525 0.901674 0
M  V30 6292 H 592.604 -3.91476 2.76195 0
M  V30 6293 H 590.968 -2.13545 1.38818 0
M  V30 6294 H 591.751 -1.67703 2.9955 0
M  V30 6295 N 594.196 -1.08629 -1.14182 0
M  V30 6296 C 595.421 -0.83902 -1.89671 0
M  V30 6297 C 595.846 0.603332 -1.78161 0
M  V30 6298 O 595.204 1.42301 -1.12339 0
M  V30 6299 C 595.252 -1.26854 -3.37551 0
M  V30 6300 O 594.356 -0.42188 -4.10236 0
M  V30 6301 H 593.697 -0.304545 -0.590041 0
M  V30 6302 H 596.227 -1.4483 -1.44518 0
M  V30 6303 H 596.237 -1.25038 -3.88368 0
M  V30 6304 H 594.912 -2.31901 -3.45246 0
M  V30 6305 H 593.489 -0.503654 -3.69483 0
M  V30 6306 N 595.674 1.31259 -0.872281 0
M  V30 6307 C 596.621 2.28459 -0.327857 0
M  V30 6308 C 597.591 1.55831 0.574957 0
M  V30 6309 O 598.776 1.83965 0.506101 0
M  V30 6310 C 595.916 3.41985 0.462644 0
M  V30 6311 C 595.029 4.29458 -0.467949 0
M  V30 6312 C 594.164 5.30131 0.336903 0
M  V30 6313 C 593.203 6.0925 -0.58997 0
M  V30 6314 N 592.34 7.01872 0.178775 0
M  V30 6315 H 597.18 2.74414 -1.16193 0
M  V30 6316 H 594.717 1.34994 -0.584376 0
M  V30 6317 H 596.675 4.06547 0.936759 0
M  V30 6318 H 595.305 2.97134 1.2614 0
M  V30 6319 H 594.357 3.65318 -1.06052 0
M  V30 6320 H 595.669 4.84677 -1.17856 0
M  V30 6321 H 594.823 6.0038 0.873427 0
M  V30 6322 H 593.562 4.75573 1.08079 0
M  V30 6323 H 592.567 5.37889 -1.13823 0
M  V30 6324 H 593.792 6.65894 -1.33275 0
M  V30 6325 H 591.738 6.49721 0.905435 0
M  V30 6326 H 591.655 7.54522 -0.472452 0
M  V30 6327 H 592.923 7.76382 0.696454 0
M  V30 6328 O 597.191 0.771905 1.41859 0
M  V30 6329 H 597.882 0.335971 1.90764 0
M  V30 END ATOM
M  V30 BEGIN BOND
M  V30 END BOND
M  V30 END CTAB
M  END
$$$$
