drugbank_target|Q81C15 Uncharacterized protein (DB01942)
 OpenBabel12092120233D

  0  0  0     0  0            999 V3000
M  V30 BEGIN CTAB
M  V30 COUNTS 1789 1809 0 0 0
M  V30 BEGIN ATOM
M  V30 1 H -0.908 1.98254 -0.117106 0
M  V30 2 N 0 1.576 0 0
M  V30 3 C 0.933 2.03868 1.02534 0
M  V30 4 C 1.911 0.928543 1.3348 0
M  V30 5 O 3.095 1.19667 1.45644 0
M  V30 6 C 0.222 2.43627 2.35294 0
M  V30 7 C -0.732 3.65373 2.2001 0
M  V30 8 S 0.101 5.13292 1.52614 0
M  V30 9 C 1.257 5.56322 2.86805 0
M  V30 10 H 1.49 2.90518 0.631377 0
M  V30 11 H -0.977 1.52953 0.210867 0
M  V30 12 H 0.981 2.67203 3.11629 0
M  V30 13 H -0.358 1.57376 2.7183 0
M  V30 14 H -1.165 3.90944 3.18086 0
M  V30 15 H -1.563 3.418 1.51819 0
M  V30 16 H 0.729 5.58782 3.83104 0
M  V30 17 H 1.672 6.56266 2.65933 0
M  V30 18 H 2.08 4.83886 2.90714 0
M  V30 19 N 1.4781 -0.272755 1.55222 0
M  V30 20 C 2.7261 -1.00234 1.75492 0
M  V30 21 C 3.0471 -1.8681 0.5592 0
M  V30 22 O 2.3171 -1.91215 -0.425882 0
M  V30 23 H 0.8971 -0.373076 0.647166 0
M  V30 24 H 3.5591 -0.296926 1.92625 0
M  V30 25 H 2.6551 -1.63913 2.65592 0
M  V30 26 N 2.9562 -1.48159 -0.537278 0
M  V30 27 C 4.1862 -1.59223 -1.3165 0
M  V30 28 C 4.5942 -0.248849 -1.87556 0
M  V30 29 O 3.9372 0.770949 -1.6674 0
M  V30 30 C 3.9992 -2.57365 -2.51005 0
M  V30 31 C 3.6632 -4.02603 -2.16239 0
M  V30 32 C 4.6602 -4.90503 -1.72344 0
M  V30 33 C 2.3452 -4.48088 -2.26986 0
M  V30 34 C 4.3392 -6.21913 -1.39651 0
M  V30 35 C 2.0262 -5.7952 -1.93906 0
M  V30 36 C 3.0242 -6.66255 -1.50309 0
M  V30 37 O 2.7122 -7.95243 -1.17659 0
M  V30 38 H 2.4442 -0.539831 -0.406889 0
M  V30 39 H 4.9982 -1.94655 -0.655641 0
M  V30 40 H 3.2282 -2.1704 -3.20048 0
M  V30 41 H 4.9172 -2.58342 -3.13072 0
M  V30 42 H 5.6832 -4.56604 -1.63517 0
M  V30 43 H 1.5622 -3.80769 -2.59877 0
M  V30 44 H 5.1062 -6.89569 -1.0555 0
M  V30 45 H 1.0032 -6.12957 -2.02371 0
M  V30 46 H 1.7712 -8.0793 -1.31119 0
M  V30 47 N 4.4343 0.785586 -1.36625 0
M  V30 48 C 5.3673 1.90509 -1.25625 0
M  V30 49 C 6.3453 1.62 -0.139607 0
M  V30 50 O 7.5293 1.8591 -0.31141 0
M  V30 51 C 4.6563 3.25419 -0.939158 0
M  V30 52 C 3.7023 3.72856 -2.07077 0
M  V30 53 S 4.5353 3.88162 -3.68904 0
M  V30 54 C 5.6913 5.25942 -3.39317 0
M  V30 55 H 5.9243 1.99549 -2.20381 0
M  V30 56 H 3.4573 0.945226 -1.22085 0
M  V30 57 H 5.4153 4.03346 -0.763029 0
M  V30 58 H 4.0763 3.14099 -0.00931402 0
M  V30 59 H 3.2693 4.70624 -1.80357 0
M  V30 60 H 2.8713 3.01989 -2.20632 0
M  V30 61 H 5.1633 6.10651 -2.93447 0
M  V30 62 H 6.1063 5.57668 -4.36363 0
M  V30 63 H 6.5143 4.93224 -2.74573 0
M  V30 64 N 5.9124 1.20967 1.01018 0
M  V30 65 C 7.1594 1.02374 1.74716 0
M  V30 66 C 7.4874 -0.443375 1.89379 0
M  V30 67 O 6.7424 -1.34535 1.42123 0
M  V30 68 C 7.0414 1.65997 3.16512 0
M  V30 69 C 6.7074 3.15831 3.2181 0
M  V30 70 C 5.3694 3.56719 3.22963 0
M  V30 71 C 7.7214 4.11816 3.19464 0
M  V30 72 C 5.0494 4.92107 3.19449 0
M  V30 73 C 7.4014 5.47158 3.17491 0
M  V30 74 C 6.0654 5.87451 3.16951 0
M  V30 75 H 5.3354 0.374614 0.639332 0
M  V30 76 H 7.9824 1.50485 1.18434 0
M  V30 77 H 6.2874 1.10166 3.75993 0
M  V30 78 H 7.9844 1.49119 3.72242 0
M  V30 79 H 4.5744 2.83263 3.21652 0
M  V30 80 H 8.7584 3.81257 3.17737 0
M  V30 81 H 4.0144 5.22579 3.17366 0
M  V30 82 H 8.1884 6.21274 3.14629 0
M  V30 83 H 5.8154 6.92329 3.13983 0
M  V30 84 N 7.3905 -1.2043 1.01659 0
M  V30 85 C 8.6395 -1.89118 0.701237 0
M  V30 86 C 8.9525 -1.79705 -0.772358 0
M  V30 87 O 10.1585 -2.43528 -1.20026 0
M  V30 88 C 8.6145 -3.39168 1.20388 0
M  V30 89 C 8.2225 -3.57166 2.70438 0
M  V30 90 C 9.9665 -4.1341 0.963953 0
M  V30 91 C 7.8735 -5.01042 3.14183 0
M  V30 92 H 6.8035 -0.708267 0.2586 0
M  V30 93 H 9.4545 -1.36239 1.22927 0
M  V30 94 H 7.8365 -3.91369 0.603824 0
M  V30 95 H 9.0105 -3.15351 3.35992 0
M  V30 96 H 7.3255 -2.96294 2.92572 0
M  V30 97 H 9.9225 -5.19491 1.26621 0
M  V30 98 H 10.2655 -4.16181 -0.099578 0
M  V30 99 H 10.7985 -3.67309 1.52738 0
M  V30 100 H 7.5375 -5.03426 4.19812 0
M  V30 101 H 7.0575 -5.43668 2.53348 0
M  V30 102 H 8.7365 -5.69623 3.0682 0
M  V30 103 N 8.8686 -0.792821 -1.36206 0
M  V30 104 C 9.7786 -0.194808 -2.3379 0
M  V30 105 C 10.7946 0.654869 -1.61206 0
M  V30 106 O 11.9706 0.569856 -1.9317 0
M  V30 107 C 9.0356 0.657721 -3.40404 0
M  V30 108 C 8.0966 -0.210849 -4.28782 0
M  V30 109 C 7.3296 0.601086 -5.30304 0
M  V30 110 O 7.5526 1.83682 -5.40016 0
M  V30 111 O 6.4866 -0.000808277 -6.019 0
M  V30 112 H 10.3126 -1.00172 -2.86704 0
M  V30 113 H 7.8976 -0.554341 -1.38735 0
M  V30 114 H 9.7796 1.14375 -4.05581 0
M  V30 115 H 8.4546 1.44247 -2.89784 0
M  V30 116 H 7.3616 -0.743714 -3.66633 0
M  V30 117 H 8.6946 -0.959195 -4.82763 0
M  V30 118 N 10.3467 1.47872 -0.545128 0
M  V30 119 C 11.5747 2.06889 -0.021084 0
M  V30 120 C 11.9897 1.39955 1.2672 0
M  V30 121 O 11.3467 0.492036 1.75742 0
M  V30 122 C 11.3977 3.60996 0.190817 0
M  V30 123 O 11.1187 4.25419 -1.04644 0
M  V30 124 C 12.6197 4.36849 0.753521 0
M  V30 125 H 9.8397 0.669785 -0.0403635 0
M  V30 126 H 12.3837 1.90049 -0.755095 0
M  V30 127 H 10.5387 3.77391 0.87492 0
M  V30 128 H 10.9527 5.17785 -0.836611 0
M  V30 129 H 12.4267 5.45399 0.851139 0
M  V30 130 H 12.9037 4.02306 1.762 0
M  V30 131 H 13.5097 4.25169 0.105503 0
M  V30 132 N 11.8248 0.280983 1.55075 0
M  V30 133 C 12.7718 -0.603937 2.22758 0
M  V30 134 C 13.7418 -1.1452 1.20309 0
M  V30 135 O 14.9268 -1.19343 1.48869 0
M  V30 136 C 12.0668 -1.77947 2.95684 0
M  V30 137 C 11.1798 -1.2715 4.12864 0
M  V30 138 C 10.3148 -2.4093 4.7342 0
M  V30 139 C 9.3538 -1.87165 5.82783 0
M  V30 140 N 8.4908 -2.94441 6.37377 0
M  V30 141 H 13.3308 -0.020124 2.97993 0
M  V30 142 H 10.8678 0.00183425 1.471 0
M  V30 143 H 12.8258 -2.47055 3.36184 0
M  V30 144 H 11.4558 -2.33522 2.22861 0
M  V30 145 H 10.5078 -0.473331 3.77444 0
M  V30 146 H 11.8198 -0.837751 4.91715 0
M  V30 147 H 10.9738 -3.18021 5.1667 0
M  V30 148 H 9.7128 -2.87623 3.93859 0
M  V30 149 H 8.7178 -1.08556 5.38976 0
M  V30 150 H 9.9428 -1.41401 6.64216 0
M  V30 151 H 7.8888 -3.40505 5.60707 0
M  V30 152 H 7.8058 -2.55501 7.11516 0
M  V30 153 H 9.0738 -3.71489 6.85285 0
M  V30 154 N 13.3029 -1.57598 0.00835791 0
M  V30 155 C 14.5309 -1.95214 -0.68549 0
M  V30 156 C 14.9459 -0.883706 -1.66841 0
M  V30 157 O 14.3029 0.136565 -1.81988 0
M  V30 158 C 14.3539 -3.32865 -1.41007 0
M  V30 159 O 14.0749 -4.35609 -0.466552 0
M  V30 160 C 15.5759 -3.84991 -2.19765 0
M  V30 161 H 12.7959 -0.643422 -0.190392 0
M  V30 162 H 15.3399 -2.04406 0.0619607 0
M  V30 163 H 13.4949 -3.24956 -2.10908 0
M  V30 164 H 13.9089 -5.15288 -0.978699 0
M  V30 165 H 15.3829 -4.8371 -2.65948 0
M  V30 166 H 15.8599 -3.18137 -3.02796 0
M  V30 167 H 16.4659 -3.96103 -1.54864 0
M  V30 168 N 14.781 0.264519 -1.55364 0
M  V30 169 C 16.028 0.994986 -1.7637 0
M  V30 170 C 16.356 1.85976 -0.5695 0
M  V30 171 O 15.611 1.90509 0.44776 0
M  V30 172 C 15.91 1.9004 -3.02687 0
M  V30 173 C 15.576 1.19243 -4.34847 0
M  V30 174 C 14.238 0.996709 -4.70764 0
M  V30 175 C 16.59 0.689296 -5.16622 0
M  V30 176 C 13.918 0.285261 -5.86006 0
M  V30 177 C 16.27 -0.00860079 -6.32599 0
M  V30 178 C 14.934 -0.215963 -6.67151 0
M  V30 179 H 14.204 0.364091 -0.645383 0
M  V30 180 H 16.851 0.266543 -1.89636 0
M  V30 181 H 15.156 2.69533 -2.84357 0
M  V30 182 H 16.853 2.46695 -3.16137 0
M  V30 183 H 13.443 1.3549 -4.06621 0
M  V30 184 H 17.627 0.828108 -4.89342 0
M  V30 185 H 12.883 0.113961 -6.11294 0
M  V30 186 H 17.057 -0.406186 -6.95214 0
M  V30 187 H 14.684 -0.769217 -7.56298 0
M  V30 188 N 16.2591 1.48442 0.529413 0
M  V30 189 C 17.4871 1.60151 1.30994 0
M  V30 190 C 17.9021 0.261985 1.86973 0
M  V30 191 O 17.2591 -0.748805 1.66431 0
M  V30 192 C 17.3101 2.64854 2.46038 0
M  V30 193 O 17.0311 3.93608 1.92365 0
M  V30 194 C 18.5321 2.87007 3.37849 0
M  V30 195 H 15.7521 0.539971 0.398338 0
M  V30 196 H 18.2961 1.94273 0.638597 0
M  V30 197 H 16.4511 2.33589 3.09055 0
M  V30 198 H 16.8651 4.51055 2.67675 0
M  V30 199 H 18.3391 3.64068 4.14919 0
M  V30 200 H 18.8161 1.95852 3.93114 0
M  V30 201 H 19.4221 3.19579 2.80623 0
M  V30 202 N 17.7372 -0.778329 1.37039 0
M  V30 203 C 18.9832 -1.53892 1.32079 0
M  V30 204 C 19.3162 -1.9396 -0.0965386 0
M  V30 205 O 18.5912 -1.63568 -1.05242 0
M  V30 206 C 18.8742 -2.80847 2.25382 0
M  V30 207 C 18.7272 -2.47076 3.75864 0
M  V30 208 C 20.0462 -3.82741 2.1725 0
M  V30 209 H 17.1652 -0.558303 0.48111 0
M  V30 210 H 19.8072 -0.893397 1.67685 0
M  V30 211 H 17.9572 -3.35931 1.95148 0
M  V30 212 H 19.6292 -1.97957 4.16666 0
M  V30 213 H 17.8722 -1.79863 3.94755 0
M  V30 214 H 18.5432 -3.37798 4.36574 0
M  V30 215 H 21.0192 -3.37133 2.43887 0
M  V30 216 H 19.8952 -4.69303 2.84686 0
M  V30 217 H 20.1562 -4.2652 1.16331 0
M  V30 218 N 19.2153 -1.21501 -1.00376 0
M  V30 219 C 20.1623 -0.975387 -2.09177 0
M  V30 220 C 21.1323 0.0990615 -1.65804 0
M  V30 221 O 22.3173 -0.0483147 -1.90739 0
M  V30 222 C 19.4573 -0.547507 -3.40729 0
M  V30 223 C 18.5703 -1.69153 -3.97506 0
M  V30 224 C 17.7053 -1.2127 -5.17172 0
M  V30 225 C 16.7443 -2.32897 -5.66061 0
M  V30 226 N 15.8813 -1.86138 -6.76976 0
M  V30 227 H 20.7213 -1.9068 -2.29009 0
M  V30 228 H 18.2583 -0.950257 -1.12288 0
M  V30 229 H 20.2163 -0.280667 -4.16255 0
M  V30 230 H 18.8463 0.346904 -3.20931 0
M  V30 231 H 17.8983 -2.07298 -3.18954 0
M  V30 232 H 19.2103 -2.5316 -4.29781 0
M  V30 233 H 18.3643 -0.902591 -5.99948 0
M  V30 234 H 17.1033 -0.342692 -4.86495 0
M  V30 235 H 16.1083 -2.64709 -4.81881 0
M  V30 236 H 17.3333 -3.20396 -5.98768 0
M  V30 237 H 15.2793 -1.01484 -6.48103 0
M  V30 238 H 15.1963 -2.63717 -7.08512 0
M  V30 239 H 16.4643 -1.58165 -7.63285 0
M  V30 240 N 20.6934 1.19889 -1.02296 0
M  V30 241 C 21.6034 2.26571 -0.608508 0
M  V30 242 C 22.6194 1.70299 0.356964 0
M  V30 243 O 23.7954 2.00235 0.216326 0
M  V30 244 C 20.8604 3.46677 0.0402814 0
M  V30 245 C 19.9214 4.18153 -0.97194 0
M  V30 246 C 19.1544 5.32525 -0.354016 0
M  V30 247 O 19.3774 5.64112 0.844604 0
M  V30 248 O 18.3114 5.92242 -1.07391 0
M  V30 249 H 22.1374 2.64251 -1.49684 0
M  V30 250 H 19.7224 1.26629 -0.792809 0
M  V30 251 H 21.6044 4.19475 0.402324 0
M  V30 252 H 20.2794 3.10858 0.902707 0
M  V30 253 H 19.1864 3.47499 -1.38546 0
M  V30 254 H 20.5194 4.57927 -1.80454 0
M  V30 255 N 22.1715 0.800033 1.35784 0
M  V30 256 C 23.4195 0.376597 1.9856 0
M  V30 257 C 23.7405 -1.05812 1.63795 0
M  V30 258 O 23.0105 -1.73103 0.917171 0
M  V30 259 H 21.5905 0.136261 0.734467 0
M  V30 260 H 24.2525 1.02442 1.65806 0
M  V30 261 H 23.3485 0.477002 3.08433 0
M  V30 262 N 23.6496 -1.47581 0.552962 0
M  V30 263 C 24.8776 -2.06875 0.0320556 0
M  V30 264 C 25.2926 -1.40625 -1.25976 0
M  V30 265 O 24.6496 -0.501349 -1.75479 0
M  V30 266 C 24.7006 -3.61092 -0.17167 0
M  V30 267 O 24.4216 -4.24858 1.06899 0
M  V30 268 C 25.9226 -4.37242 -0.730344 0
M  V30 269 H 23.1426 -0.669561 0.043915 0
M  V30 270 H 25.6866 -1.89646 0.765163 0
M  V30 271 H 23.8416 -3.7785 -0.854894 0
M  V30 272 H 24.2556 -5.17334 0.864059 0
M  V30 273 H 25.7296 -5.45842 -0.822203 0
M  V30 274 H 26.2066 -4.03235 -1.74064 0
M  V30 275 H 26.8126 -4.25219 -0.0829543 0
M  V30 276 N 25.1277 -0.289203 -1.54924 0
M  V30 277 C 26.3527 0.329299 -2.04769 0
M  V30 278 C 26.7777 1.4763 -1.16564 0
M  V30 279 O 26.1357 1.80527 -0.167186 0
M  V30 280 C 26.1837 0.774438 -3.52186 0
M  V30 281 O 25.2877 1.88038 -3.67036 0
M  V30 282 H 24.6287 0.0659259 -0.660719 0
M  V30 283 H 27.1587 -0.42761 -2.00082 0
M  V30 284 H 27.1687 1.06642 -3.93816 0
M  V30 285 H 25.8437 -0.0646707 -4.1585 0
M  V30 286 H 24.4207 1.58985 -3.3731 0
M  V30 287 N 26.6058 1.57591 -0.0167156 0
M  V30 288 C 27.5538 2.10604 0.987353 0
M  V30 289 C 28.5478 1.02977 1.34507 0
M  V30 290 O 29.7538 1.21425 1.32875 0
M  V30 291 H 26.1288 0.672695 0.336134 0
M  V30 292 H 28.0998 2.93925 0.514817 0
M  V30 293 C 26.8488 2.6382 2.26483 0
M  V30 294 H 26.1718 3.46278 1.99829 0
M  V30 295 H 27.6118 3.04573 2.94977 0
M  V30 296 C 26.0708 1.55992 2.9861 0
M  V30 297 O 26.6008 0.952521 3.90243 0
M  V30 298 N 24.8068 1.28335 2.60727 0
M  V30 299 H 24.3538 1.77914 1.86291 0
M  V30 300 H 24.3118 0.564115 3.09298 0
M  V30 301 N 28.0839 -0.256276 1.55502 0
M  V30 302 C 29.3329 -0.983486 1.76098 0
M  V30 303 C 29.6459 -1.86837 0.578896 0
M  V30 304 O 30.8519 -2.63163 0.667648 0
M  V30 305 C 29.3079 -1.79868 3.1173 0
M  V30 306 C 28.9159 -0.961648 4.37557 0
M  V30 307 C 30.6599 -2.51919 3.41668 0
M  V30 308 C 28.5669 -1.77219 5.64223 0
M  V30 309 H 27.4969 -0.370936 0.656447 0
M  V30 310 H 30.1479 -0.238492 1.81944 0
M  V30 311 H 28.5299 -2.58527 2.99966 0
M  V30 312 H 29.7039 -0.218048 4.60284 0
M  V30 313 H 28.0189 -0.354913 4.14885 0
M  V30 314 H 30.6159 -3.12998 4.33516 0
M  V30 315 H 30.9589 -3.23059 2.62562 0
M  V30 316 H 31.4919 -1.80278 3.54605 0
M  V30 317 H 28.2309 -1.10471 6.46124 0
M  V30 318 H 27.7509 -2.49132 5.45613 0
M  V30 319 H 29.4299 -2.34169 6.03137 0
M  V30 320 N 29.562 -1.4872 -0.521534 0
M  V30 321 C 30.808 -1.574 -1.27879 0
M  V30 322 C 31.141 -0.250817 -1.92573 0
M  V30 323 O 30.416 0.743934 -1.79711 0
M  V30 324 C 30.699 -2.71843 -2.36164 0
M  V30 325 C 30.552 -4.13893 -1.76105 0
M  V30 326 C 31.871 -2.82008 -3.37875 0
M  V30 327 H 28.99 -0.572941 -0.463581 0
M  V30 328 H 31.632 -1.80927 -0.580119 0
M  V30 329 H 29.782 -2.51914 -2.95756 0
M  V30 330 H 31.454 -4.45284 -1.20499 0
M  V30 331 H 29.697 -4.20498 -1.06601 0
M  V30 332 H 30.368 -4.89804 -2.5455 0
M  V30 333 H 32.844 -3.00086 -2.88249 0
M  V30 334 H 31.72 -3.63796 -4.11028 0
M  V30 335 H 31.981 -1.90511 -3.98946 0
M  V30 336 N 31.0401 0.771051 -1.3745 0
M  V30 337 C 32.2861 1.5319 -1.32894 0
M  V30 338 C 32.6191 1.94008 0.0862511 0
M  V30 339 O 31.8941 1.64124 1.04373 0
M  V30 340 C 32.1771 2.79648 -2.26868 0
M  V30 341 C 32.0301 2.45079 -3.77169 0
M  V30 342 C 33.3491 3.81583 -2.19277 0
M  V30 343 H 30.4681 0.555744 -0.484064 0
M  V30 344 H 33.1101 0.884492 -1.68157 0
M  V30 345 H 31.2601 3.34891 -1.96926 0
M  V30 346 H 32.9321 1.95745 -4.1771 0
M  V30 347 H 31.1751 1.77767 -3.95704 0
M  V30 348 H 31.8461 3.35478 -4.38359 0
M  V30 349 H 34.3221 3.35835 -2.45671 0
M  V30 350 H 33.1981 4.67787 -2.87171 0
M  V30 351 H 33.4591 4.25897 -1.18592 0
M  V30 352 N 32.5182 1.22032 0.997298 0
M  V30 353 C 33.4282 1.00271 2.12092 0
M  V30 354 C 34.4442 -0.047621 1.73935 0
M  V30 355 O 35.6202 0.144136 2.00884 0
M  V30 356 C 32.6852 0.578449 3.4184 0
M  V30 357 C 31.7462 1.70189 3.94125 0
M  V30 358 C 30.9792 1.29778 5.17681 0
M  V30 359 O 31.2022 0.174676 5.70132 0
M  V30 360 O 30.1362 2.11261 5.63607 0
M  V30 361 H 33.9622 1.94398 2.3333 0
M  V30 362 H 31.5472 1.00587 1.10465 0
M  V30 363 H 33.4292 0.351998 4.19927 0
M  V30 364 H 32.1042 -0.334019 3.21972 0
M  V30 365 H 31.0112 1.98282 3.1723 0
M  V30 366 H 32.3442 2.59206 4.18417 0
M  V30 367 N 33.9963 -1.19345 1.0293 0
M  V30 368 C 35.4123 -1.41069 0.746446 0
M  V30 369 C 35.6123 -1.90078 -0.668776 0
M  V30 370 O 34.6683 -2.0778 -1.4347 0
M  V30 371 C 35.9813 -2.42141 1.78292 0
M  V30 372 C 37.5293 -2.55887 1.80252 0
M  V30 373 C 38.0043 -3.60214 2.8286 0
M  V30 374 N 39.4953 -3.67711 2.81679 0
M  V30 375 C 40.2303 -4.48128 3.57727 0
M  V30 376 N 39.7263 -5.32248 4.43491 0
M  V30 377 N 41.5193 -4.42782 3.46267 0
M  V30 378 H 33.6703 -0.858536 1.94275 0
M  V30 379 H 35.9333 -0.439541 0.839945 0
M  V30 380 H 35.6393 -2.13155 2.79746 0
M  V30 381 H 35.5133 -3.41323 1.60557 0
M  V30 382 H 37.9003 -2.84196 0.794757 0
M  V30 383 H 37.9813 -1.56858 2.02062 0
M  V30 384 H 37.6253 -3.32647 3.83807 0
M  V30 385 H 37.5553 -4.58895 2.58307 0
M  V30 386 H 40.0463 -3.07634 2.19476 0
M  V30 387 H 40.3593 -5.90729 4.98256 0
M  V30 388 H 38.7043 -5.31707 4.47564 0
M  V30 389 H 41.8953 -3.76107 2.78677 0
M  V30 390 H 42.0683 -5.05215 4.05785 0
M  V30 391 N 35.4744 -0.807222 -1.35358 0
M  V30 392 C 36.7214 -0.387888 -1.9875 0
M  V30 393 C 37.0494 1.04509 -1.64037 0
M  V30 394 O 36.3044 1.73986 -0.895946 0
M  V30 395 C 36.6034 -0.519036 -3.53611 0
M  V30 396 C 36.2694 -1.91542 -4.08194 0
M  V30 397 C 34.9314 -2.29745 -4.22813 0
M  V30 398 C 37.2834 -2.82896 -4.37744 0
M  V30 399 C 34.6114 -3.58668 -4.643 0
M  V30 400 C 36.9634 -4.11265 -4.8067 0
M  V30 401 C 35.6274 -4.49466 -4.93494 0
M  V30 402 H 34.8974 -0.141938 -0.727279 0
M  V30 403 H 37.5444 -1.02814 -1.6156 0
M  V30 404 H 35.8494 0.204658 -3.91265 0
M  V30 405 H 37.5464 -0.175345 -4.00616 0
M  V30 406 H 34.1364 -1.60862 -3.97268 0
M  V30 407 H 38.3204 -2.54629 -4.26002 0
M  V30 408 H 33.5764 -3.88113 -4.72418 0
M  V30 409 H 37.7504 -4.82153 -5.02496 0
M  V30 410 H 35.3774 -5.49418 -5.25399 0
M  V30 411 N 36.9525 1.47285 -0.560781 0
M  V30 412 C 38.1805 2.06855 -0.0430262 0
M  V30 413 C 38.5955 1.41291 1.25229 0
M  V30 414 O 37.9525 0.510648 1.7521 0
M  V30 415 C 38.0035 3.61178 0.152518 0
M  V30 416 O 37.7245 4.24285 -1.0915 0
M  V30 417 C 39.2255 4.37624 0.707145 0
M  V30 418 H 36.4455 0.669319 -0.0474652 0
M  V30 419 H 38.9895 1.89237 -0.77521 0
M  V30 420 H 37.1445 3.78298 0.834843 0
M  V30 421 H 37.5585 5.16868 -0.891482 0
M  V30 422 H 39.0325 5.46271 0.793244 0
M  V30 423 H 39.5095 4.04152 1.71923 0
M  V30 424 H 40.1155 4.25257 0.0604027 0
M  V30 425 N 38.4306 0.297415 1.54768 0
M  V30 426 C 39.6786 -0.312295 1.99673 0
M  V30 427 C 39.9996 -1.54686 1.18732 0
M  V30 428 O 39.2696 -1.93854 0.282382 0
M  V30 429 H 37.8496 -0.118381 0.73756 0
M  V30 430 H 40.5116 0.407915 1.90583 0
M  V30 431 H 39.6076 -0.586813 3.06534 0
M  V30 432 N 39.9087 -1.5758 0.0250728 0
M  V30 433 C 40.8187 -2.1343 -0.973905 0
M  V30 434 C 41.8347 -1.08556 -1.35984 0
M  V30 435 O 43.0107 -1.40592 -1.44207 0
M  V30 436 C 40.0757 -2.64703 -2.23904 0
M  V30 437 C 39.1367 -3.84276 -1.91391 0
M  V30 438 C 38.3697 -4.33095 -3.11873 0
M  V30 439 O 38.5927 -3.81107 -4.24398 0
M  V30 440 O 37.5267 -5.24984 -2.94406 0
M  V30 441 H 41.3527 -2.99057 -0.529036 0
M  V30 442 H 38.9377 -1.48118 -0.195288 0
M  V30 443 H 40.8197 -2.97769 -2.98181 0
M  V30 444 H 39.4947 -1.82161 -2.6758 0
M  V30 445 H 38.4017 -3.56143 -1.14511 0
M  V30 446 H 39.7347 -4.67968 -1.52534 0
M  V30 447 N 41.3868 0.248026 -1.55636 0
M  V30 448 C 42.6348 0.974295 -1.77065 0
M  V30 449 C 42.9558 1.85897 -0.588849 0
M  V30 450 O 42.2258 1.91868 0.395407 0
M  V30 451 H 40.8058 0.362733 -0.653019 0
M  V30 452 H 43.4678 0.266244 -1.93073 0
M  V30 453 H 42.5638 1.59667 -2.68166 0
M  V30 454 N 42.8649 1.48995 0.513639 0
M  V30 455 C 44.1139 1.57093 1.2651 0
M  V30 456 C 44.4269 0.257091 1.93903 0
M  V30 457 O 45.6329 0.216478 2.70636 0
M  V30 458 C 44.0889 2.77118 2.29638 0
M  V30 459 C 43.6969 4.15209 1.68241 0
M  V30 460 C 45.4409 2.94538 3.05692 0
M  V30 461 C 43.3479 5.26474 2.69406 0
M  V30 462 H 42.2779 0.584876 0.475854 0
M  V30 463 H 44.9289 1.7536 0.540487 0
M  V30 464 H 43.3109 2.52319 3.05207 0
M  V30 465 H 44.4849 4.50094 0.987505 0
M  V30 466 H 42.7999 4.03042 1.04623 0
M  V30 467 H 45.3969 3.74832 3.8132 0
M  V30 468 H 45.7399 2.04614 3.62545 0
M  V30 469 H 46.2729 3.19316 2.37238 0
M  V30 470 H 43.0119 6.18417 2.17351 0
M  V30 471 H 42.5319 4.96058 3.37175 0
M  V30 472 H 44.2109 5.55277 3.32078 0
M  V30 473 N 44.343 -0.763751 1.37857 0
M  V30 474 C 45.592 -1.51789 1.32827 0
M  V30 475 C 45.905 -1.95426 -0.0823719 0
M  V30 476 O 47.111 -2.70298 -0.255172 0
M  V30 477 C 45.567 -2.74133 2.33193 0
M  V30 478 C 45.175 -2.37562 3.79827 0
M  V30 479 C 46.919 -3.52054 2.37188 0
M  V30 480 C 44.826 -3.56456 4.71904 0
M  V30 481 H 43.756 -0.569896 0.493695 0
M  V30 482 H 46.407 -0.835822 1.63359 0
M  V30 483 H 44.789 -3.4427 1.9569 0
M  V30 484 H 45.963 -1.75157 4.26212 0
M  V30 485 H 44.278 -1.72798 3.78853 0
M  V30 486 H 46.875 -4.40437 3.03182 0
M  V30 487 H 47.218 -3.92486 1.38782 0
M  V30 488 H 47.751 -2.88921 2.7344 0
M  V30 489 H 44.49 -3.21099 5.71468 0
M  V30 490 H 44.01 -4.17938 4.30218 0
M  V30 491 H 45.689 -4.23168 4.89426 0
M  V30 492 N 45.8211 -1.22559 -0.990812 0
M  V30 493 C 46.7311 -1.01394 -2.11557 0
M  V30 494 C 47.7471 0.0383962 -1.73958 0
M  V30 495 O 48.9231 -0.154787 -2.00804 0
M  V30 496 C 45.9881 -0.596569 -3.41529 0
M  V30 497 C 45.0491 -1.72276 -3.93217 0
M  V30 498 C 44.2821 -1.32521 -5.16985 0
M  V30 499 O 44.5051 -0.204909 -5.70032 0
M  V30 500 O 43.4391 -2.14247 -5.62478 0
M  V30 501 H 47.2651 -1.95633 -2.32296 0
M  V30 502 H 44.8501 -1.01172 -1.0993 0
M  V30 503 H 46.7321 -0.374263 -4.19735 0
M  V30 504 H 45.4071 0.316939 -3.22145 0
M  V30 505 H 44.3141 -1.99961 -3.16174 0
M  V30 506 H 45.6471 -2.61421 -4.17037 0
M  V30 507 N 47.2992 1.18797 -1.03562 0
M  V30 508 C 48.2462 2.22253 -0.622259 0
M  V30 509 C 49.2162 1.61987 0.36736 0
M  V30 510 O 50.4012 1.88986 0.262492 0
M  V30 511 C 47.5412 3.45097 0.0138462 0
M  V30 512 C 46.6542 4.19722 -1.02263 0
M  V30 513 C 45.7892 5.30009 -0.355573 0
M  V30 514 C 44.8282 5.96399 -1.37749 0
M  V30 515 N 43.9652 6.98234 -0.735766 0
M  V30 516 H 48.8052 2.56968 -1.50903 0
M  V30 517 H 46.3422 1.26245 -0.755017 0
M  V30 518 H 48.3002 4.15279 0.399948 0
M  V30 519 H 46.9302 3.11018 0.864158 0
M  V30 520 H 45.9822 3.48418 -1.52673 0
M  V30 521 H 47.2942 4.65227 -1.79903 0
M  V30 522 H 46.4482 6.0664 0.0850095 0
M  V30 523 H 45.1872 4.85592 0.452967 0
M  V30 524 H 44.1922 5.18512 -1.82826 0
M  V30 525 H 45.4172 6.42899 -2.18764 0
M  V30 526 H 43.3632 6.55979 0.0525597 0
M  V30 527 H 43.2802 7.41965 -1.44995 0
M  V30 528 H 44.5482 7.78845 -0.31941 0
M  V30 529 N 48.7773 0.814389 1.34928 0
M  V30 530 C 50.0243 0.398423 1.98542 0
M  V30 531 C 50.3523 -1.03638 1.64589 0
M  V30 532 O 49.6073 -1.73509 0.90516 0
M  V30 533 C 49.9063 0.537781 3.53331 0
M  V30 534 C 49.5723 1.93704 4.07172 0
M  V30 535 C 48.2343 2.31984 4.21589 0
M  V30 536 C 50.5863 2.85213 4.36237 0
M  V30 537 C 47.9143 3.61125 4.62391 0
M  V30 538 C 50.2663 4.13809 4.78482 0
M  V30 539 C 48.9303 4.52077 4.91104 0
M  V30 540 H 48.2003 0.145793 0.726516 0
M  V30 541 H 50.8473 1.03669 1.61012 0
M  V30 542 H 49.1523 -0.183906 3.91368 0
M  V30 543 H 50.8493 0.196588 4.00518 0
M  V30 544 H 47.4393 1.62966 3.96409 0
M  V30 545 H 51.6233 2.56885 4.24645 0
M  V30 546 H 46.8793 3.90612 4.70353 0
M  V30 547 H 51.0533 4.84811 4.99932 0
M  V30 548 H 48.6803 5.52196 5.22478 0
M  V30 549 N 50.2554 -1.46986 0.568584 0
M  V30 550 C 51.1654 -2.33942 -0.17555 0
M  V30 551 C 52.1814 -1.48891 -0.90041 0
M  V30 552 O 53.3574 -1.81794 -0.86676 0
M  V30 553 C 50.4224 -3.25811 -1.18524 0
M  V30 554 C 49.4834 -4.26757 -0.466582 0
M  V30 555 C 48.7164 -5.14236 -1.42817 0
M  V30 556 O 48.9394 -5.04379 -2.66379 0
M  V30 557 O 47.8734 -5.94412 -0.946453 0
M  V30 558 H 51.6994 -2.98896 0.538036 0
M  V30 559 H 49.2844 -1.4573 0.329097 0
M  V30 560 H 51.1664 -3.82527 -1.76779 0
M  V30 561 H 49.8414 -2.63471 -1.88055 0
M  V30 562 H 48.7484 -3.73769 0.157451 0
M  V30 563 H 50.0814 -4.91843 0.187485 0
M  V30 564 N 51.7335 -0.305618 -1.54608 0
M  V30 565 C 52.9815 0.301701 -1.99835 0
M  V30 566 C 53.3025 1.54054 -1.19551 0
M  V30 567 O 52.5725 1.93702 -0.292658 0
M  V30 568 H 51.1525 0.114468 -0.738178 0
M  V30 569 H 53.8145 -0.418016 -1.90364 0
M  V30 570 H 52.9105 0.570548 -3.06841 0
M  V30 571 N 53.2116 1.57565 -0.0334293 0
M  V30 572 C 54.4586 1.91978 0.644272 0
M  V30 573 C 54.7866 0.910231 1.71887 0
M  V30 574 O 54.0416 -0.0801961 1.95536 0
M  V30 575 C 54.3406 3.33112 1.29504 0
M  V30 576 C 54.0066 4.49537 0.350388 0
M  V30 577 C 52.6686 4.81115 0.0903974 0
M  V30 578 C 55.0206 5.20347 -0.298032 0
M  V30 579 C 52.3486 5.8086 -0.825746 0
M  V30 580 C 54.7006 6.2107 -1.20226 0
M  V30 581 C 53.3646 6.51088 -1.4711 0
M  V30 582 H 52.6346 0.702496 0.235756 0
M  V30 583 H 55.2816 1.91259 -0.0961176 0
M  V30 584 H 53.5866 3.30113 2.11028 0
M  V30 585 H 55.2836 3.57011 1.82603 0
M  V30 586 H 51.8736 4.24883 0.563205 0
M  V30 587 H 56.0576 4.96178 -0.110234 0
M  V30 588 H 51.3136 6.02461 -1.04169 0
M  V30 589 H 55.4876 6.75057 -1.71086 0
M  V30 590 H 53.1146 7.28193 -2.18264 0
M  V30 591 N 54.6897 -0.239769 1.55765 0
M  V30 592 C 55.9387 -0.964754 1.77131 0
M  V30 593 C 56.2517 -1.86213 0.59868 0
M  V30 594 O 57.4577 -2.6244 0.695522 0
M  V30 595 C 55.9137 -1.76552 3.1362 0
M  V30 596 C 55.5217 -0.915185 4.38553 0
M  V30 597 C 57.2657 -2.48281 3.44321 0
M  V30 598 C 55.1727 -1.71225 5.66071 0
M  V30 599 H 54.1027 -0.363953 0.660344 0
M  V30 600 H 56.7537 -0.219181 1.82186 0
M  V30 601 H 55.1357 -2.55331 3.02691 0
M  V30 602 H 56.3097 -0.169217 4.60489 0
M  V30 603 H 54.6247 -0.310889 4.15238 0
M  V30 604 H 57.2217 -3.08382 4.36812 0
M  V30 605 H 57.5647 -3.20256 2.65973 0
M  V30 606 H 58.0977 -1.76507 3.56497 0
M  V30 607 H 54.8367 -1.03612 6.4726 0
M  V30 608 H 54.3567 -2.43331 5.48224 0
M  V30 609 H 56.0357 -2.27758 6.05587 0
M  V30 610 N 56.1678 -1.49265 -0.50573 0
M  V30 611 C 57.4448 -1.49012 -1.26707 0
M  V30 612 C 57.8248 -0.215205 -2.1 0
M  V30 613 O 57.1728 0.802547 -2.13943 0
M  V30 614 C 57.3828 -2.7663 -2.12783 0
M  V30 615 C 58.7308 -3.25932 -2.72127 0
M  V30 616 O 59.7548 -2.77715 -2.23054 0
M  V30 617 O 58.6138 -4.09897 -3.61451 0
M  V30 618 H 55.7078 -0.596197 -0.57313 0
M  V30 619 H 58.2538 -1.61524 -0.52039 0
M  V30 620 H 57.0258 -3.60916 -1.5118 0
M  V30 621 H 56.6488 -2.66956 -2.94653 0
M  V30 622 N 57.6459 0.756429 -1.3826 0
M  V30 623 C 58.5759 1.88374 -1.37976 0
M  V30 624 C 59.5569 1.68311 -0.246082 0
M  V30 625 O 60.7419 1.88944 -0.44874 0
M  V30 626 C 57.8719 3.25864 -1.20125 0
M  V30 627 C 56.8259 3.60523 -2.30666 0
M  V30 628 C 56.1519 4.9672 -1.97923 0
M  V30 629 C 57.4519 3.65692 -3.72916 0
M  V30 630 H 59.1459 1.88869 -2.32312 0
M  V30 631 H 56.6919 0.907272 -1.11824 0
M  V30 632 H 58.6449 4.0438 -1.18552 0
M  V30 633 H 57.3689 3.25841 -0.222498 0
M  V30 634 H 56.0279 2.84324 -2.3142 0
M  V30 635 H 55.6759 4.93253 -0.985393 0
M  V30 636 H 55.3759 5.20878 -2.71955 0
M  V30 637 H 56.8999 5.77618 -1.97964 0
M  V30 638 H 58.3139 4.34328 -3.74208 0
M  V30 639 H 56.7109 4.01358 -4.4613 0
M  V30 640 H 57.7809 2.65987 -4.05436 0
M  V30 641 N 59.124 1.23083 0.984299 0
M  V30 642 C 60.349 1.088 1.76571 0
M  V30 643 C 60.774 -0.356657 1.84688 0
M  V30 644 O 60.132 -1.25788 1.30565 0
M  V30 645 C 60.18 1.71371 3.17277 0
M  V30 646 O 59.284 0.973213 4.00752 0
M  V30 647 H 58.625 0.381599 0.543395 0
M  V30 648 H 61.155 1.63057 1.23587 0
M  V30 649 H 61.165 1.76449 3.67872 0
M  V30 650 H 59.84 2.76493 3.10684 0
M  V30 651 H 58.417 0.999078 3.59267 0
M  V30 652 N 60.6021 -1.18246 1.0419 0
M  V30 653 C 61.8481 -1.88536 0.747122 0
M  V30 654 C 62.1811 -1.80223 -0.723409 0
M  V30 655 O 61.4561 -1.20337 -1.52804 0
M  V30 656 C 61.7391 -3.38968 1.21544 0
M  V30 657 C 61.5921 -3.56084 2.74816 0
M  V30 658 C 62.9111 -4.32648 0.806482 0
M  V30 659 H 60.0301 -0.684619 0.272883 0
M  V30 660 H 62.6721 -1.39113 1.29413 0
M  V30 661 H 60.8221 -3.8119 0.750081 0
M  V30 662 H 62.4941 -3.22946 3.29399 0
M  V30 663 H 60.7371 -2.98699 3.14582 0
M  V30 664 H 61.4081 -4.61639 3.02644 0
M  V30 665 H 63.8841 -3.98211 1.20695 0
M  V30 666 H 62.7601 -5.36462 1.1619 0
M  V30 667 H 63.0211 -4.41146 -0.29029 0
M  V30 668 N 62.0802 -0.821533 -1.34494 0
M  V30 669 C 63.0102 -0.257138 -2.3208 0
M  V30 670 C 63.9912 0.625645 -1.58176 0
M  V30 671 O 65.1762 0.552811 -1.86166 0
M  V30 672 C 62.3062 0.582958 -3.42372 0
M  V30 673 C 61.2602 -0.202571 -4.2752 0
M  V30 674 C 60.5862 0.760179 -5.29269 0
M  V30 675 C 61.8862 -1.40998 -5.02908 0
M  V30 676 H 63.5802 -1.07247 -2.79532 0
M  V30 677 H 61.1262 -0.517163 -1.34393 0
M  V30 678 H 63.0792 0.987972 -4.09655 0
M  V30 679 H 61.8032 1.43133 -2.93565 0
M  V30 680 H 60.4622 -0.588936 -3.61838 0
M  V30 681 H 60.1102 1.60447 -4.76724 0
M  V30 682 H 59.8102 0.238809 -5.87115 0
M  V30 683 H 61.3342 1.16308 -5.9942 0
M  V30 684 H 62.7482 -1.07905 -5.63054 0
M  V30 685 H 61.1452 -1.86689 -5.70322 0
M  V30 686 H 62.2152 -2.1889 -4.32684 0
M  V30 687 N 63.5583 1.46682 -0.576371 0
M  V30 688 C 64.8043 2.02712 -0.0596221 0
M  V30 689 C 65.1373 1.44765 1.29448 0
M  V30 690 O 64.4123 0.610355 1.84675 0
M  V30 691 C 64.6953 3.60098 0.0129503 0
M  V30 692 C 64.5483 4.28441 -1.3696 0
M  V30 693 C 65.8673 4.34224 0.71678 0
M  V30 694 H 62.9863 0.736637 -0.0231407 0
M  V30 695 H 65.6283 1.74898 -0.742351 0
M  V30 696 H 63.7783 3.83926 0.594378 0
M  V30 697 H 65.4503 4.15896 -1.9957 0
M  V30 698 H 63.6933 3.8805 -1.93907 0
M  V30 699 H 64.3643 5.3716 -1.27135 0
M  V30 700 H 66.8403 4.15503 0.222908 0
M  V30 701 H 65.7163 5.43936 0.73657 0
M  V30 702 H 65.9773 4.04823 1.77682 0
M  V30 703 N 65.0364 0.313813 1.54444 0
M  V30 704 C 65.9834 -0.55655 2.23989 0
M  V30 705 C 66.9534 -1.11943 1.22711 0
M  V30 706 O 68.1384 -1.16158 1.51367 0
M  V30 707 C 65.2784 -1.71635 2.99392 0
M  V30 708 C 64.3914 -1.18364 4.15468 0
M  V30 709 C 63.5264 -2.30834 4.78424 0
M  V30 710 C 62.5654 -1.74762 5.86622 0
M  V30 711 N 61.7024 -2.80855 6.43479 0
M  V30 712 H 66.5424 0.0430893 2.97969 0
M  V30 713 H 64.0794 0.0330359 1.47063 0
M  V30 714 H 66.0374 -2.39868 3.41349 0
M  V30 715 H 64.6674 -2.28742 2.27765 0
M  V30 716 H 63.7194 -0.393163 3.78363 0
M  V30 717 H 65.0314 -0.733262 4.93381 0
M  V30 718 H 64.1854 -3.0699 5.23299 0
M  V30 719 H 62.9244 -2.79204 3.99871 0
M  V30 720 H 61.9294 -0.970995 5.41158 0
M  V30 721 H 63.1544 -1.2728 6.67066 0
M  V30 722 H 61.1004 -3.28535 5.67804 0
M  V30 723 H 61.0174 -2.40351 7.16776 0
M  V30 724 H 62.2854 -3.5687 6.93011 0
M  V30 725 N 66.5145 -1.57545 0.0417849 0
M  V30 726 C 67.4615 -2.10977 -0.935805 0
M  V30 727 C 68.4315 -1.01486 -1.31491 0
M  V30 728 O 69.6165 -1.2898 -1.40602 0
M  V30 729 C 66.7565 -2.65169 -2.2086 0
M  V30 730 C 65.8695 -3.88714 -1.88482 0
M  V30 731 C 65.0045 -4.31254 -3.1015 0
M  V30 732 C 64.0435 -5.47524 -2.7365 0
M  V30 733 N 63.1805 -5.85162 -3.87982 0
M  V30 734 H 68.0205 -2.94218 -0.473249 0
M  V30 735 H 65.5575 -1.45415 -0.221981 0
M  V30 736 H 67.5155 -2.94685 -2.95325 0
M  V30 737 H 66.1455 -1.8474 -2.64709 0
M  V30 738 H 65.1975 -3.65849 -1.04205 0
M  V30 739 H 66.5095 -4.73245 -1.57608 0
M  V30 740 H 65.6635 -4.62273 -3.92923 0
M  V30 741 H 64.4025 -3.45516 -3.44195 0
M  V30 742 H 63.4075 -5.16187 -1.89291 0
M  V30 743 H 64.6325 -6.34971 -2.40807 0
M  V30 744 H 62.5785 -5.02377 -4.21846 0
M  V30 745 H 62.4955 -6.64362 -3.60775 0
M  V30 746 H 63.7635 -6.20791 -4.71422 0
M  V30 747 N 67.9926 0.231505 -1.5589 0
M  V30 748 C 69.2386 0.95877 -1.78705 0
M  V30 749 C 69.5716 1.8438 -0.609725 0
M  V30 750 O 68.8466 1.90521 0.391426 0
M  V30 751 C 69.1296 1.8062 -3.11526 0
M  V30 752 C 68.9826 0.948328 -4.39689 0
M  V30 753 C 70.3016 2.78585 -3.40703 0
M  V30 754 H 67.4206 0.347129 -0.650131 0
M  V30 755 H 70.0626 0.228259 -1.88624 0
M  V30 756 H 68.2126 2.42902 -3.03201 0
M  V30 757 H 69.8846 0.343016 -4.60023 0
M  V30 758 H 68.1276 0.253314 -4.3306 0
M  V30 759 H 68.7986 1.57543 -5.29041 0
M  V30 760 H 71.2746 2.26439 -3.49091 0
M  V30 761 H 70.1506 3.34988 -4.34826 0
M  V30 762 H 70.4116 3.55825 -2.62375 0
M  V30 763 N 69.4707 1.49531 0.497807 0
M  V30 764 C 70.8867 1.36365 0.829266 0
M  V30 765 C 71.0867 0.399184 1.97506 0
M  V30 766 O 70.1427 -0.167977 2.51941 0
M  V30 767 C 71.4557 2.77153 1.16647 0
M  V30 768 C 73.0037 2.85877 1.27449 0
M  V30 769 C 73.4787 4.2744 1.64497 0
M  V30 770 N 74.9697 4.30265 1.7154 0
M  V30 771 C 75.7047 5.3677 2.01656 0
M  V30 772 N 75.2007 6.53516 2.29976 0
M  V30 773 N 76.9937 5.24189 2.02934 0
M  V30 774 H 69.1447 2.10831 -0.257703 0
M  V30 775 H 71.4077 0.946534 -0.0527091 0
M  V30 776 H 71.1137 3.49442 0.397872 0
M  V30 777 H 70.9877 3.12722 2.10915 0
M  V30 778 H 73.3747 2.13824 2.0338 0
M  V30 779 H 73.4557 2.53887 0.312244 0
M  V30 780 H 73.0997 5.00021 0.891151 0
M  V30 781 H 73.0297 4.56896 2.61827 0
M  V30 782 H 75.5207 3.4607 1.51802 0
M  V30 783 H 75.8337 7.30506 2.52153 0
M  V30 784 H 74.1787 6.56737 2.27425 0
M  V30 785 H 77.3697 4.31988 1.80289 0
M  V30 786 H 77.5427 6.07286 2.26071 0
M  V30 787 N 70.9488 -0.749086 1.3866 0
M  V30 788 C 72.3648 -1.05276 1.19955 0
M  V30 789 C 72.5648 -2.01435 0.05134 0
M  V30 790 O 71.6208 -2.45232 -0.60147 0
M  V30 791 C 72.9338 -1.62853 2.52783 0
M  V30 792 C 74.4818 -1.75002 2.59506 0
M  V30 793 C 74.9568 -2.35991 3.92521 0
M  V30 794 N 76.4478 -2.43416 3.94085 0
M  V30 795 C 77.1828 -2.91511 4.9377 0
M  V30 796 N 76.6788 -3.39608 6.03853 0
M  V30 797 N 78.4718 -2.90592 4.81157 0
M  V30 798 H 70.6228 -0.111066 2.12109 0
M  V30 799 H 72.8858 -0.111901 0.941373 0
M  V30 800 H 72.5918 -0.99664 3.37283 0
M  V30 801 H 72.4658 -2.61854 2.715 0
M  V30 802 H 74.8528 -2.37317 1.75398 0
M  V30 803 H 74.9338 -0.74693 2.44652 0
M  V30 804 H 74.5778 -1.74308 4.77053 0
M  V30 805 H 74.5078 -3.3695 4.04688 0
M  V30 806 H 76.9988 -2.09405 3.14576 0
M  V30 807 H 77.3118 -3.74775 6.75843 0
M  V30 808 H 75.6568 -3.37653 6.07466 0
M  V30 809 H 78.8478 -2.52332 3.94267 0
M  V30 810 H 79.0208 -3.27762 5.58996 0
M  V30 811 N 72.4269 -1.23603 -0.977757 0
M  V30 812 C 73.6749 -1.06759 -1.71601 0
M  V30 813 C 73.9959 0.395929 -1.90938 0
M  V30 814 O 73.2659 1.28356 -1.47992 0
M  V30 815 H 71.8459 -0.392062 -0.635843 0
M  V30 816 H 74.5079 -1.55362 -1.1768 0
M  V30 817 H 73.6039 -1.55763 -2.70452 0
M  V30 818 N 73.905 1.17692 -1.04816 0
M  V30 819 C 75.182 1.83768 -0.669963 0
M  V30 820 C 75.562 1.93232 0.849986 0
M  V30 821 O 74.91 1.46397 1.75443 0
M  V30 822 C 75.12 3.21641 -1.35455 0
M  V30 823 C 76.468 3.97592 -1.49017 0
M  V30 824 O 77.492 3.31107 -1.31326 0
M  V30 825 O 76.351 5.16729 -1.77914 0
M  V30 826 H 73.445 0.792799 -0.235368 0
M  V30 827 H 75.991 1.25021 -1.14751 0
M  V30 828 H 74.763 3.097 -2.39168 0
M  V30 829 H 74.386 3.88052 -0.866107 0
M  V30 830 N 75.3831 0.828654 1.34056 0
M  V30 831 C 76.2931 0.256725 2.33191 0
M  V30 832 C 77.3091 -0.611898 1.62886 0
M  V30 833 O 78.4851 -0.51844 1.94613 0
M  V30 834 C 75.5501 -0.567238 3.42028 0
M  V30 835 C 74.6111 0.324458 4.28072 0
M  V30 836 C 73.8441 -0.460274 5.31712 0
M  V30 837 O 74.0671 -1.693 5.44696 0
M  V30 838 O 73.0011 0.160391 6.01686 0
M  V30 839 H 76.8271 1.07739 2.83947 0
M  V30 840 H 74.4121 0.59093 1.37217 0
M  V30 841 H 76.2941 -1.03582 4.08471 0
M  V30 842 H 74.9691 -1.36513 2.93506 0
M  V30 843 H 73.8761 0.840659 3.64532 0
M  V30 844 H 75.2091 1.08685 4.8005 0
M  V30 845 N 76.8612 -1.46375 0.584142 0
M  V30 846 C 77.7712 -2.34115 -0.150728 0
M  V30 847 C 78.7872 -1.49838 -0.884567 0
M  V30 848 O 79.9632 -1.82704 -0.847429 0
M  V30 849 C 77.0282 -3.2705 -1.15062 0
M  V30 850 C 76.0892 -4.27228 -0.421293 0
M  V30 851 C 75.3222 -5.15722 -1.37355 0
M  V30 852 O 75.5452 -5.07176 -2.61014 0
M  V30 853 O 74.4792 -5.95383 -0.883355 0
M  V30 854 H 78.3052 -2.98309 0.569708 0
M  V30 855 H 75.8902 -1.45373 0.344535 0
M  V30 856 H 77.7722 -3.84381 -1.72712 0
M  V30 857 H 76.4472 -2.65451 -1.8525 0
M  V30 858 H 75.3542 -3.7358 0.197085 0
M  V30 859 H 76.6872 -4.91616 0.239641 0
M  V30 860 N 78.3393 -0.321999 -1.54275 0
M  V30 861 C 79.5853 0.281461 -2.00837 0
M  V30 862 C 79.9183 1.51909 -1.20985 0
M  V30 863 O 79.1933 1.923 -0.291733 0
M  V30 864 C 79.4763 0.617162 -3.54772 0
M  V30 865 C 79.3293 -0.631064 -4.45351 0
M  V30 866 C 80.6483 1.43542 -4.16033 0
M  V30 867 H 77.7673 0.100826 -0.730071 0
M  V30 868 H 80.4093 -0.438268 -1.84876 0
M  V30 869 H 78.5593 1.23034 -3.68504 0
M  V30 870 H 80.2313 -1.26934 -4.43492 0
M  V30 871 H 78.4743 -1.26025 -4.15091 0
M  V30 872 H 79.1453 -0.351735 -5.50878 0
M  V30 873 H 81.6213 0.917134 -4.05867 0
M  V30 874 H 80.4973 1.63907 -5.23856 0
M  V30 875 H 80.7583 2.43108 -3.69257 0
M  V30 876 N 79.8174 1.5752 -0.0501392 0
M  V30 877 C 81.0634 1.92936 0.624798 0
M  V30 878 C 81.3964 0.928685 1.70555 0
M  V30 879 O 80.6714 -0.0454779 1.94447 0
M  V30 880 C 80.9544 3.38737 1.22185 0
M  V30 881 C 80.8074 4.49552 0.149218 0
M  V30 882 C 82.1264 3.84913 2.13378 0
M  V30 883 H 79.2454 0.701604 0.225657 0
M  V30 884 H 81.8874 1.89671 -0.111693 0
M  V30 885 H 80.0374 3.4165 1.84953 0
M  V30 886 H 81.7094 4.58768 -0.482648 0
M  V30 887 H 79.9524 4.30638 -0.522841 0
M  V30 888 H 80.6234 5.48653 0.606966 0
M  V30 889 H 83.0994 3.8387 1.60572 0
M  V30 890 H 81.9754 4.87584 2.52097 0
M  V30 891 H 82.2364 3.21611 3.03346 0
M  V30 892 N 81.2955 -0.223234 1.56011 0
M  V30 893 C 82.5415 -0.949279 1.79211 0
M  V30 894 C 82.8745 -1.84054 0.619494 0
M  V30 895 O 82.1495 -1.90726 -0.381317 0
M  V30 896 C 82.4325 -1.78965 3.12479 0
M  V30 897 C 82.2855 -0.924997 4.40186 0
M  V30 898 C 83.6045 -2.76774 3.42175 0
M  V30 899 H 80.7235 -0.343676 0.651963 0
M  V30 900 H 83.3655 -0.218253 1.88742 0
M  V30 901 H 81.5155 -2.41291 3.04485 0
M  V30 902 H 83.1875 -0.318615 4.60198 0
M  V30 903 H 81.4305 -0.230344 4.33188 0
M  V30 904 H 82.1015 -1.54735 5.29869 0
M  V30 905 H 84.5775 -2.24584 3.50287 0
M  V30 906 H 83.4535 -3.32678 4.36597 0
M  V30 907 H 83.7145 -3.54429 2.64258 0
M  V30 908 N 82.7736 -1.49793 -0.48987 0
M  V30 909 C 83.7066 -1.61898 -1.60823 0
M  V30 910 C 84.6846 -0.467651 -1.5573 0
M  V30 911 O 85.8686 -0.684682 -1.75626 0
M  V30 912 C 82.9956 -1.58422 -2.99366 0
M  V30 913 C 82.0416 -2.78889 -3.22682 0
M  V30 914 S 82.8746 -4.40429 -3.04602 0
M  V30 915 C 84.0306 -4.39617 -4.4552 0
M  V30 916 H 84.2636 -2.56502 -1.50312 0
M  V30 917 H 81.7966 -1.38822 -0.675849 0
M  V30 918 H 83.7546 -1.57103 -3.79248 0
M  V30 919 H 82.4156 -0.650866 -3.07283 0
M  V30 920 H 81.6086 -2.72708 -4.23847 0
M  V30 921 H 81.2106 -2.77678 -2.50541 0
M  V30 922 H 83.5026 -4.12022 -5.37814 0
M  V30 923 H 84.4456 -5.41097 -4.56749 0
M  V30 924 H 84.8536 -3.69554 -4.2672 0
M  V30 925 N 84.2517 0.741722 -1.39055 0
M  V30 926 C 85.5007 1.49656 -1.35225 0
M  V30 927 C 85.8137 1.95533 0.0512708 0
M  V30 928 O 87.0197 2.7067 0.212138 0
M  V30 929 C 85.4757 2.70389 -2.37525 0
M  V30 930 C 85.0837 2.31489 -3.83558 0
M  V30 931 C 86.8277 3.48236 -2.42759 0
M  V30 932 C 84.7347 3.48903 -4.77515 0
M  V30 933 H 83.6647 0.56197 -0.502699 0
M  V30 934 H 86.3157 0.809727 -1.64668 0
M  V30 935 H 84.6977 3.41113 -2.01142 0
M  V30 936 H 85.8717 1.68354 -4.28945 0
M  V30 937 H 84.1867 1.66749 -3.81554 0
M  V30 938 H 86.7837 4.35558 -3.1015 0
M  V30 939 H 87.1267 3.90229 -1.45008 0
M  V30 940 H 87.6597 2.84535 -2.78002 0
M  V30 941 H 84.3987 3.11966 -5.76504 0
M  V30 942 H 83.9187 4.11041 -4.36813 0
M  V30 943 H 85.5977 4.15328 -4.96096 0
M  V30 944 N 85.7298 1.2412 0.971189 0
M  V30 945 C 87.1458 1.00584 1.23916 0
M  V30 946 C 87.3458 -0.287481 1.99439 0
M  V30 947 O 86.4018 -1.00454 2.31658 0
M  V30 948 C 87.7148 2.21864 2.0297 0
M  V30 949 C 89.2628 2.26452 2.16076 0
M  V30 950 C 89.7378 3.47343 2.98524 0
M  V30 951 N 91.2288 3.47639 3.06107 0
M  V30 952 C 91.9638 4.37837 3.70251 0
M  V30 953 N 91.4598 5.38286 4.36142 0
M  V30 954 N 93.2528 4.25558 3.67228 0
M  V30 955 H 85.4038 2.07236 0.465499 0
M  V30 956 H 87.6668 0.909236 0.268315 0
M  V30 957 H 87.3728 3.15771 1.54861 0
M  V30 958 H 87.2468 2.23698 3.03709 0
M  V30 959 H 89.6338 1.33078 2.6339 0
M  V30 960 H 89.7148 2.28645 1.14696 0
M  V30 961 H 89.3588 4.41029 2.51905 0
M  V30 962 H 89.2888 3.42393 4.00093 0
M  V30 963 H 91.7798 2.74966 2.59233 0
M  V30 964 H 92.0928 6.03352 4.82894 0
M  V30 965 H 90.4378 5.42176 4.34822 0
M  V30 966 H 93.6288 3.46322 3.14927 0
M  V30 967 H 93.8018 4.96054 4.16935 0
M  V30 968 N 87.2079 -1.17134 1.05439 0
M  V30 969 C 88.4539 -1.87979 0.776872 0
M  V30 970 C 88.8089 -1.7965 -0.688751 0
M  V30 971 O 88.1019 -1.19535 -1.4974 0
M  V30 972 C 88.2959 -3.36833 1.19491 0
M  V30 973 C 88.1249 -3.59653 2.69963 0
M  V30 974 C 86.8949 -3.76234 3.37307 0
M  V30 975 C 89.0929 -3.59091 3.68182 0
M  V30 976 N 87.0749 -3.86922 4.76618 0
M  V30 977 C 88.4459 -3.75659 4.93235 0
M  V30 978 C 90.5009 -3.42255 3.61616 0
M  V30 979 C 89.2039 -3.77133 6.12506 0
M  V30 980 C 91.2299 -3.45018 4.8033 0
M  V30 981 C 90.5919 -3.62096 6.04207 0
M  V30 982 H 86.6909 -0.705876 0.336546 0
M  V30 983 H 89.2749 -1.40602 1.34682 0
M  V30 984 H 87.4459 -3.82873 0.652884 0
M  V30 985 H 89.1779 -3.95305 0.866966 0
M  V30 986 H 85.9329 -3.76193 2.87708 0
M  V30 987 H 86.3569 -3.96055 5.49062 0
M  V30 988 H 90.9989 -3.27986 2.66805 0
M  V30 989 H 88.7169 -3.90186 7.07659 0
M  V30 990 H 92.3029 -3.33246 4.76905 0
M  V30 991 H 91.1829 -3.64142 6.94529 0
M  V30 992 N 88.686 -0.835752 -1.33615 0
M  V30 993 C 89.596 -0.269088 -2.33052 0
M  V30 994 C 90.612 0.603251 -1.63208 0
M  V30 995 O 91.788 0.508112 -1.94885 0
M  V30 996 C 88.853 0.549091 -3.42324 0
M  V30 997 C 87.914 -0.347156 -4.27894 0
M  V30 998 C 87.147 0.43207 -5.31948 0
M  V30 999 O 87.37 1.66409 -5.45586 0
M  V30 1000 O 86.304 -0.192298 -6.01593 0
M  V30 1001 H 90.13 -1.09243 -2.83372 0
M  V30 1002 H 87.715 -0.598198 -1.36901 0
M  V30 1003 H 89.597 1.01414 -4.09015 0
M  V30 1004 H 88.272 1.34955 -2.94226 0
M  V30 1005 H 87.179 -0.859979 -3.64081 0
M  V30 1006 H 88.512 -1.1123 -4.79467 0
M  V30 1007 N 90.1641 1.46063 -0.591896 0
M  V30 1008 C 91.3891 2.07226 -0.0850314 0
M  V30 1009 C 91.8141 1.43625 1.21463 0
M  V30 1010 O 91.1721 0.523305 1.73583 0
M  V30 1011 C 91.2201 3.60554 0.0576567 0
M  V30 1012 O 90.3241 3.97128 1.11188 0
M  V30 1013 H 89.6651 0.660615 -0.0669568 0
M  V30 1014 H 92.1951 1.8756 -0.81745 0
M  V30 1015 H 92.2051 4.07165 0.2609 0
M  V30 1016 H 90.8801 4.06235 -0.891416 0
M  V30 1017 H 89.4571 3.62213 0.886356 0
M  V30 1018 N 91.6422 0.330177 1.54103 0
M  V30 1019 C 92.5522 -0.541534 2.28264 0
M  V30 1020 C 93.5682 -1.12351 1.32866 0
M  V30 1021 O 94.7442 -1.14206 1.65888 0
M  V30 1022 C 91.8092 -1.68322 3.03098 0
M  V30 1023 C 90.8702 -1.13238 4.14096 0
M  V30 1024 C 90.1032 -2.21966 4.85352 0
M  V30 1025 O 90.3262 -3.42437 4.56172 0
M  V30 1026 O 89.2602 -1.87013 5.7211 0
M  V30 1027 H 93.0862 0.060938 3.03639 0
M  V30 1028 H 90.6712 0.09565 1.49093 0
M  V30 1029 H 92.5532 -2.34777 3.49939 0
M  V30 1030 H 91.2282 -2.27176 2.30593 0
M  V30 1031 H 90.1352 -0.432736 3.71589 0
M  V30 1032 H 91.4682 -0.588898 4.88664 0
M  V30 1033 N 93.1203 -1.57491 0.0584922 0
M  V30 1034 C 94.0303 -2.15448 -0.928414 0
M  V30 1035 C 95.0463 -1.11416 -1.3365 0
M  V30 1036 O 96.2223 -1.4362 -1.41193 0
M  V30 1037 C 93.2873 -2.69393 -2.18239 0
M  V30 1038 C 92.3483 -3.88249 -1.83196 0
M  V30 1039 C 91.5813 -4.39613 -3.02616 0
M  V30 1040 O 91.8043 -3.90023 -4.16219 0
M  V30 1041 O 90.7383 -5.31111 -2.83204 0
M  V30 1042 H 94.5643 -3.00112 -0.465483 0
M  V30 1043 H 92.1493 -1.48499 -0.163826 0
M  V30 1044 H 94.0313 -3.04026 -2.91798 0
M  V30 1045 H 92.7063 -1.87796 -2.63656 0
M  V30 1046 H 91.6133 -3.58492 -1.06931 0
M  V30 1047 H 92.9463 -4.71098 -1.42573 0
M  V30 1048 N 94.5984 0.214957 -1.56127 0
M  V30 1049 C 95.5614 1.24997 -1.92116 0
M  V30 1050 C 96.5614 1.39467 -0.800344 0
M  V30 1051 O 97.7514 1.37619 -1.06802 0
M  V30 1052 C 94.8834 2.62271 -2.17777 0
M  V30 1053 H 96.0764 0.942875 -2.84693 0
M  V30 1054 H 93.6294 0.455654 -1.49511 0
M  V30 1055 H 94.3644 2.98068 -1.27773 0
M  V30 1056 H 94.1494 2.53143 -2.99434 0
M  V30 1057 H 95.6394 3.36946 -2.46693 0
M  V30 1058 N 96.0765 1.50051 0.48192 0
M  V30 1059 C 97.3225 1.61706 1.2338 0
M  V30 1060 C 97.6775 0.308488 1.89911 0
M  V30 1061 O 96.9705 -0.692798 1.78636 0
M  V30 1062 C 97.1645 2.72717 2.30998 0
M  V30 1063 C 96.9935 4.14242 1.75024 0
M  V30 1064 C 95.7635 4.80786 1.55476 0
M  V30 1065 C 97.9615 4.98846 1.25128 0
M  V30 1066 N 95.9435 6.06563 0.946311 0
M  V30 1067 C 97.3145 6.15258 0.765382 0
M  V30 1068 C 99.3695 4.84702 1.13881 0
M  V30 1069 C 98.0725 7.19079 0.178113 0
M  V30 1070 C 100.098 5.8869 0.565486 0
M  V30 1071 C 99.4605 7.04343 0.0899105 0
M  V30 1072 H 95.5595 0.645958 0.440753 0
M  V30 1073 H 98.1435 1.8713 0.537624 0
M  V30 1074 H 96.3145 2.49033 2.98055 0
M  V30 1075 H 98.0465 2.73789 2.9803 0
M  V30 1076 H 94.8015 4.37899 1.80392 0
M  V30 1077 H 95.2255 6.73767 0.660812 0
M  V30 1078 H 99.8675 3.95583 1.49244 0
M  V30 1079 H 97.5855 8.07882 -0.187749 0
M  V30 1080 H 101.171 5.79808 0.480974 0
M  V30 1081 H 100.051 7.83433 -0.346782 0
M  V30 1082 N 97.5546 -0.734337 1.39446 0
M  V30 1083 C 98.5016 -1.84835 1.38219 0
M  V30 1084 C 99.4716 -1.64331 0.24179 0
M  V30 1085 O 100.657 -1.85728 0.437002 0
M  V30 1086 C 97.7966 -3.22355 1.23212 0
M  V30 1087 C 96.9096 -3.5456 2.46801 0
M  V30 1088 C 96.0446 -4.81485 2.24377 0
M  V30 1089 C 95.0836 -5.06536 3.43639 0
M  V30 1090 N 94.2206 -6.24665 3.20528 0
M  V30 1091 H 99.0606 -1.85219 2.33448 0
M  V30 1092 H 96.5976 -0.905039 1.15963 0
M  V30 1093 H 98.5556 -4.0174 1.12522 0
M  V30 1094 H 97.1856 -3.21248 0.316121 0
M  V30 1095 H 96.2376 -2.69872 2.68092 0
M  V30 1096 H 97.5496 -3.6899 3.3563 0
M  V30 1097 H 96.7036 -5.68852 2.10933 0
M  V30 1098 H 95.4426 -4.6923 1.32944 0
M  V30 1099 H 94.4476 -4.17632 3.5758 0
M  V30 1100 H 95.6726 -5.20676 4.35974 0
M  V30 1101 H 93.6186 -6.13696 2.3176 0
M  V30 1102 H 93.5356 -6.39685 4.02913 0
M  V30 1103 H 94.8036 -7.14868 3.10779 0
M  V30 1104 N 99.0327 -1.24633 -0.964593 0
M  V30 1105 C 99.9807 -1.03917 -2.08096 0
M  V30 1106 C 100.975 0.0268581 -1.69379 0
M  V30 1107 O 102.181 -0.127952 -1.79545 0
M  V30 1108 H 98.5557 -0.319044 -0.680966 0
M  V30 1109 H 100.527 -1.98581 -2.22729 0
M  V30 1110 C 99.2757 -0.663983 -3.41301 0
M  V30 1111 H 98.5987 -1.47605 -3.71555 0
M  V30 1112 H 100.039 -0.558663 -4.20303 0
M  V30 1113 C 98.4977 0.629169 -3.30973 0
M  V30 1114 O 99.0277 1.67404 -3.65156 0
M  V30 1115 N 97.2337 0.611057 -2.84103 0
M  V30 1116 H 96.7807 -0.239593 -2.56483 0
M  V30 1117 H 96.7387 1.47647 -2.77575 0
M  V30 1118 N 100.511 1.16574 -1.06058 0
M  V30 1119 C 101.757 1.87565 -0.78683 0
M  V30 1120 C 102.112 1.80012 0.679214 0
M  V30 1121 O 101.405 1.20327 1.49104 0
M  V30 1122 C 101.599 3.36195 -1.21275 0
M  V30 1123 C 101.428 3.58216 -2.71866 0
M  V30 1124 C 100.198 3.7444 -3.39298 0
M  V30 1125 C 102.396 3.57134 -3.70081 0
M  V30 1126 N 100.378 3.84389 -4.78663 0
M  V30 1127 C 101.749 3.73038 -4.9522 0
M  V30 1128 C 103.804 3.40332 -3.63426 0
M  V30 1129 C 102.507 3.73879 -6.14497 0
M  V30 1130 C 104.533 3.42466 -4.82153 0
M  V30 1131 C 103.895 3.58887 -6.06118 0
M  V30 1132 H 99.9938 0.704081 -0.340284 0
M  V30 1133 H 102.578 1.39885 -1.35426 0
M  V30 1134 H 100.749 3.82522 -0.673179 0
M  V30 1135 H 102.481 3.94839 -0.887917 0
M  V30 1136 H 99.2358 3.74662 -2.89699 0
M  V30 1137 H 99.6598 3.93138 -5.51155 0
M  V30 1138 H 104.302 3.26566 -2.68541 0
M  V30 1139 H 102.02 3.86427 -7.09718 0
M  V30 1140 H 105.606 3.30712 -4.78666 0
M  V30 1141 H 104.486 3.60454 -6.9645 0
M  V30 1142 N 101.989 0.842826 1.3317 0
M  V30 1143 C 102.899 0.281444 2.32906 0
M  V30 1144 C 103.915 -0.594587 1.63526 0
M  V30 1145 O 105.091 -0.49777 1.95152 0
M  V30 1146 C 102.156 -0.530929 3.42611 0
M  V30 1147 C 101.217 0.369843 4.27704 0
M  V30 1148 C 100.45 -0.403853 5.3217 0
M  V30 1149 O 100.673 -1.63513 5.46461 0
M  V30 1150 O 99.6069 0.224199 6.01482 0
M  V30 1151 H 103.433 1.10744 2.82789 0
M  V30 1152 H 101.018 0.60545 1.36582 0
M  V30 1153 H 102.9 -0.992437 4.09547 0
M  V30 1154 H 101.575 -1.33392 2.94938 0
M  V30 1155 H 100.482 0.879275 3.6362 0
M  V30 1156 H 101.815 1.13771 4.78871 0
M  V30 1157 N 103.467 -1.45747 0.599634 0
M  V30 1158 C 104.695 -2.06668 0.0978551 0
M  V30 1159 C 105.11 -1.44562 -1.21439 0
M  V30 1160 O 104.467 -0.556923 -1.73795 0
M  V30 1161 C 104.518 -3.61456 -0.0567044 0
M  V30 1162 O 104.239 -4.21242 1.20361 0
M  V30 1163 C 105.74 -4.39345 -0.590869 0
M  V30 1164 H 102.96 -0.667825 0.0651943 0
M  V30 1165 H 105.504 -1.87115 0.82511 0
M  V30 1166 H 103.659 -3.80378 -0.734251 0
M  V30 1167 H 104.073 -5.14323 1.02821 0
M  V30 1168 H 105.547 -5.48182 -0.648131 0
M  V30 1169 H 106.024 -4.08568 -1.61147 0
M  V30 1170 H 106.63 -4.25268 0.0523679 0
M  V30 1171 N 104.945 -0.338344 -1.53925 0
M  V30 1172 C 106.17 0.263987 -2.05713 0
M  V30 1173 C 106.595 1.43847 -1.21201 0
M  V30 1174 O 105.953 1.79904 -0.224535 0
M  V30 1175 C 106.001 0.662 -3.54471 0
M  V30 1176 O 105.105 1.76265 -3.72833 0
M  V30 1177 H 104.446 0.0448722 -0.662482 0
M  V30 1178 H 106.976 -0.491048 -1.9862 0
M  V30 1179 H 106.986 0.940594 -3.9701 0
M  V30 1180 H 105.661 -0.196937 -4.15433 0
M  V30 1181 H 104.238 1.48173 -3.42198 0
M  V30 1182 N 106.423 1.57458 -0.0668435 0
M  V30 1183 C 107.333 2.15937 0.916975 0
M  V30 1184 C 108.349 1.12123 1.33058 0
M  V30 1185 O 109.525 1.44366 1.40429 0
M  V30 1186 C 106.59 2.70547 2.16807 0
M  V30 1187 C 105.651 3.89215 1.81135 0
M  V30 1188 C 104.884 4.41211 3.0028 0
M  V30 1189 O 105.107 3.92225 4.14144 0
M  V30 1190 O 104.041 5.32605 2.80384 0
M  V30 1191 H 107.867 3.00354 0.449561 0
M  V30 1192 H 105.452 1.48584 0.155949 0
M  V30 1193 H 107.334 3.0557 2.90181 0
M  V30 1194 H 106.009 1.89192 2.62656 0
M  V30 1195 H 104.916 3.59054 1.05028 0
M  V30 1196 H 106.249 4.71848 1.40073 0
M  V30 1197 N 107.901 -0.206675 1.56239 0
M  V30 1198 C 108.811 -1.27686 1.96808 0
M  V30 1199 C 109.827 -1.50455 0.874035 0
M  V30 1200 O 111.003 -1.63295 1.17884 0
M  V30 1201 C 108.068 -2.60358 2.28942 0
M  V30 1202 C 107.129 -2.45762 3.51994 0
M  V30 1203 C 106.362 -3.72108 3.82585 0
M  V30 1204 O 106.585 -4.75776 3.14631 0
M  V30 1205 O 105.519 -3.6833 4.76043 0
M  V30 1206 H 109.345 -0.962593 2.88041 0
M  V30 1207 H 106.93 -0.410746 1.43643 0
M  V30 1208 H 108.812 -3.38687 2.50737 0
M  V30 1209 H 107.487 -2.91435 1.4088 0
M  V30 1210 H 106.394 -1.65584 3.35459 0
M  V30 1211 H 107.727 -2.19621 4.40486 0
M  V30 1212 N 109.379 -1.50304 -0.473955 0
M  V30 1213 C 110.329 -1.65347 -1.56985 0
M  V30 1214 C 111.313 -0.508176 -1.52664 0
M  V30 1215 O 112.505 -0.762446 -1.59737 0
M  V30 1216 C 109.634 -1.74832 -2.95447 0
M  V30 1217 C 108.72 -2.95028 -3.04662 0
M  V30 1218 N 109.111 -4.18747 -2.83698 0
M  V30 1219 C 107.409 -2.93527 -3.35795 0
M  V30 1220 C 108.11 -4.99687 -2.97805 0
M  V30 1221 N 107.086 -4.33585 -3.2788 0
M  V30 1222 H 110.888 -2.58698 -1.39472 0
M  V30 1223 H 108.402 -1.47449 -0.680629 0
M  V30 1224 H 110.399 -1.83712 -3.7424 0
M  V30 1225 H 109.059 -0.826376 -3.14008 0
M  V30 1226 H 110.07 -4.48291 -2.59337 0
M  V30 1227 H 106.747 -2.10821 -3.60362 0
M  V30 1228 H 108.137 -6.08057 -2.85861 0
M  V30 1229 N 110.857 0.726932 -1.39834 0
M  V30 1230 C 111.787 1.85405 -1.41941 0
M  V30 1231 C 112.768 1.67751 -0.281728 0
M  V30 1232 O 113.953 1.8795 -0.488717 0
M  V30 1233 C 111.083 3.23243 -1.2701 0
M  V30 1234 C 110.037 3.55549 -2.38262 0
M  V30 1235 C 109.363 4.9241 -2.08415 0
M  V30 1236 C 110.663 3.577 -3.80589 0
M  V30 1237 H 112.357 1.83899 -2.36266 0
M  V30 1238 H 109.903 0.883349 -1.13723 0
M  V30 1239 H 111.856 4.01775 -1.27103 0
M  V30 1240 H 110.58 3.25296 -0.291564 0
M  V30 1241 H 109.239 2.79351 -2.37399 0
M  V30 1242 H 108.887 4.91052 -1.0898 0
M  V30 1243 H 108.587 5.14992 -2.82943 0
M  V30 1244 H 110.111 5.73289 -2.10171 0
M  V30 1245 H 111.525 4.26293 -3.83337 0
M  V30 1246 H 109.922 3.91804 -4.54543 0
M  V30 1247 H 110.992 2.57328 -4.10987 0
M  V30 1248 N 112.336 1.25143 0.95797 0
M  V30 1249 C 113.299 1.05321 2.03569 0
M  V30 1250 C 114.299 0.007152 1.60798 0
M  V30 1251 O 115.489 0.24903 1.72411 0
M  V30 1252 C 112.621 0.598394 3.35607 0
M  V30 1253 H 113.814 2.00986 2.22586 0
M  V30 1254 H 111.367 1.07502 1.13459 0
M  V30 1255 H 112.102 -0.361014 3.22284 0
M  V30 1256 H 111.887 1.35351 3.67998 0
M  V30 1257 H 113.377 0.48104 4.1482 0
M  V30 1258 N 113.814 -1.1601 1.06675 0
M  V30 1259 C 115.062 -1.86264 0.784229 0
M  V30 1260 C 115.383 -1.82328 -0.691488 0
M  V30 1261 O 114.653 -1.25947 -1.50047 0
M  V30 1262 H 113.233 -0.689621 0.28711 0
M  V30 1263 H 115.895 -1.40664 1.34906 0
M  V30 1264 H 114.991 -2.91595 1.11259 0
M  V30 1265 N 115.292 -0.849877 -1.32721 0
M  V30 1266 C 116.242 -0.262892 -2.26479 0
M  V30 1267 C 117.226 0.588493 -1.49752 0
M  V30 1268 O 118.418 0.438659 -1.71478 0
M  V30 1269 C 115.547 0.551818 -3.38836 0
M  V30 1270 C 114.633 -0.311689 -4.22953 0
M  V30 1271 N 115.024 -1.39567 -4.86163 0
M  V30 1272 C 113.322 -0.100611 -4.45887 0
M  V30 1273 C 114.023 -1.92651 -5.48872 0
M  V30 1274 N 112.999 -1.22637 -5.29586 0
M  V30 1275 H 116.801 -1.09166 -2.72873 0
M  V30 1276 H 114.315 -0.695486 -1.46754 0
M  V30 1277 H 116.312 0.988713 -4.05006 0
M  V30 1278 H 114.972 1.37844 -2.93988 0
M  V30 1279 H 115.983 -1.77859 -4.86402 0
M  V30 1280 H 112.66 0.691681 -4.11731 0
M  V30 1281 H 114.05 -2.83487 -6.09167 0
M  V30 1282 N 116.77 1.45427 -0.607355 0
M  V30 1283 C 118.186 1.57283 -0.270985 0
M  V30 1284 C 118.386 1.59875 1.22647 0
M  V30 1285 O 117.442 1.52893 2.00948 0
M  V30 1286 C 118.755 2.85566 -0.941952 0
M  V30 1287 C 120.303 2.9924 -0.917849 0
M  V30 1288 C 120.778 4.30293 -1.56882 0
M  V30 1289 N 122.269 4.37051 -1.5343 0
M  V30 1290 C 123.004 5.37123 -2.00715 0
M  V30 1291 N 122.5 6.43734 -2.56084 0
M  V30 1292 N 124.293 5.28479 -1.91484 0
M  V30 1293 H 116.444 1.41988 -1.57966 0
M  V30 1294 H 118.707 0.67885 -0.661715 0
M  V30 1295 H 118.413 2.8955 -1.99633 0
M  V30 1296 H 118.287 3.74322 -0.465096 0
M  V30 1297 H 120.674 2.94822 0.127984 0
M  V30 1298 H 120.755 2.11895 -1.43297 0
M  V30 1299 H 120.399 4.35469 -2.61398 0
M  V30 1300 H 120.329 5.16454 -1.02873 0
M  V30 1301 H 122.82 3.60615 -1.12982 0
M  V30 1302 H 123.133 7.16341 -2.89958 0
M  V30 1303 H 121.478 6.44485 -2.60122 0
M  V30 1304 H 124.669 4.44098 -1.47967 0
M  V30 1305 H 124.842 6.0632 -2.28648 0
M  V30 1306 N 118.248 0.346503 1.53744 0
M  V30 1307 C 119.211 -0.496439 2.23759 0
M  V30 1308 C 120.211 -1.0252 1.2388 0
M  V30 1309 O 121.401 -0.913974 1.48297 0
M  V30 1310 C 118.533 -1.69187 2.95954 0
M  V30 1311 H 119.726 0.115952 2.99676 0
M  V30 1312 H 117.279 0.0978939 1.55993 0
M  V30 1313 H 118.014 -2.34288 2.24231 0
M  V30 1314 H 117.799 -1.31989 3.69217 0
M  V30 1315 H 119.289 -2.28969 3.49232 0
M  V30 1316 N 119.726 -1.57421 0.075193 0
M  V30 1317 C 120.974 -1.93236 -0.591974 0
M  V30 1318 C 121.295 -0.956241 -1.69944 0
M  V30 1319 O 120.565 -0.00494792 -1.95899 0
M  V30 1320 H 119.145 -0.713355 -0.22166 0
M  V30 1321 H 121.807 -1.9444 0.133848 0
M  V30 1322 H 120.903 -2.95131 -1.01509 0
M  V30 1323 N 121.204 0.198386 -1.56346 0
M  V30 1324 C 122.62 0.549085 -1.49857 0
M  V30 1325 C 122.82 1.86016 -0.774611 0
M  V30 1326 O 121.876 2.50416 -0.323776 0
M  V30 1327 C 123.189 0.606868 -2.94512 0
M  V30 1328 C 124.737 0.695925 -3.05165 0
M  V30 1329 C 125.212 0.784848 -4.51225 0
M  V30 1330 N 126.703 0.848463 -4.55363 0
M  V30 1331 C 127.438 0.937378 -5.65686 0
M  V30 1332 N 126.934 0.9888 -6.85707 0
M  V30 1333 N 128.727 0.974312 -5.53592 0
M  V30 1334 H 120.878 -0.661655 -2.01831 0
M  V30 1335 H 123.141 -0.235261 -0.918344 0
M  V30 1336 H 122.847 -0.28732 -3.50524 0
M  V30 1337 H 122.721 1.46268 -3.47686 0
M  V30 1338 H 125.108 1.58055 -2.49204 0
M  V30 1339 H 125.189 -0.186022 -2.55123 0
M  V30 1340 H 124.833 -0.0954072 -5.0781 0
M  V30 1341 H 124.763 1.68255 -4.98997 0
M  V30 1342 H 127.254 0.818103 -3.68938 0
M  V30 1343 H 127.567 1.05707 -7.65536 0
M  V30 1344 H 125.912 0.957534 -6.88372 0
M  V30 1345 H 129.103 0.930954 -4.58749 0
M  V30 1346 H 129.276 1.04015 -6.39597 0
M  V30 1347 N 122.682 1.50554 0.465978 0
M  V30 1348 C 123.93 1.61479 1.21528 0
M  V30 1349 C 124.251 0.319596 1.92363 0
M  V30 1350 O 123.521 -0.663194 1.84333 0
M  V30 1351 H 122.101 0.595055 0.451573 0
M  V30 1352 H 124.763 1.87355 0.53704 0
M  V30 1353 H 123.859 2.42846 1.96042 0
M  V30 1354 N 124.16 -0.719506 1.40217 0
M  V30 1355 C 125.107 -1.83359 1.40172 0
M  V30 1356 C 126.077 -1.64065 0.259206 0
M  V30 1357 O 127.262 -1.85254 0.456677 0
M  V30 1358 C 124.402 -3.2103 1.26624 0
M  V30 1359 C 123.515 -3.51923 2.50548 0
M  V30 1360 C 122.65 -4.79079 2.29471 0
M  V30 1361 C 121.689 -5.02863 3.48992 0
M  V30 1362 N 120.826 -6.2123 3.27135 0
M  V30 1363 H 125.666 -1.82733 2.35399 0
M  V30 1364 H 123.203 -0.892688 1.16917 0
M  V30 1365 H 125.161 -4.00524 1.16776 0
M  V30 1366 H 123.791 -3.20895 0.350176 0
M  V30 1367 H 122.843 -2.67014 2.70939 0
M  V30 1368 H 124.155 -3.6541 3.39525 0
M  V30 1369 H 123.309 -5.66582 2.16955 0
M  V30 1370 H 122.048 -4.67794 1.37913 0
M  V30 1371 H 121.053 -4.13816 3.6199 0
M  V30 1372 H 122.278 -5.16023 4.41472 0
M  V30 1373 H 120.224 -6.11204 2.38256 0
M  V30 1374 H 120.141 -6.35375 4.09675 0
M  V30 1375 H 121.409 -7.11532 3.18344 0
M  V30 1376 N 125.638 -1.25649 -0.95132 0
M  V30 1377 C 127.049 -1.09654 -1.51106 0
M  V30 1378 C 127.4 0.326615 -1.93462 0
M  V30 1379 O 126.525 1.21697 -1.78938 0
M  V30 1380 C 127.12 -1.98437 -2.74605 0
M  V30 1381 C 125.679 -1.86618 -3.2688 0
M  V30 1382 C 124.826 -1.9239 -1.99703 0
M  V30 1383 H 127.777 -1.38887 -0.767865 0
M  V30 1384 H 127.798 -1.5263 -3.48546 0
M  V30 1385 H 127.31 -3.02009 -2.43746 0
M  V30 1386 H 125.411 -0.859421 -3.62553 0
M  V30 1387 H 125.524 -2.71607 -3.94673 0
M  V30 1388 H 123.888 -1.36317 -2.15151 0
M  V30 1389 H 124.671 -2.97573 -1.71188 0
M  V30 1390 N 127.117 1.15442 -1.07289 0
M  V30 1391 C 128.064 2.20161 -0.692653 0
M  V30 1392 C 129.034 1.63073 0.31564 0
M  V30 1393 O 130.219 1.89725 0.202235 0
M  V30 1394 C 127.359 3.44967 -0.0959509 0
M  V30 1395 C 126.472 4.16256 -1.15564 0
M  V30 1396 C 125.607 5.28609 -0.524011 0
M  V30 1397 C 124.646 5.91715 -1.56653 0
M  V30 1398 N 123.783 6.9554 -0.957531 0
M  V30 1399 H 128.623 2.52037 -1.59002 0
M  V30 1400 H 126.16 1.2378 -0.794798 0
M  V30 1401 H 128.118 4.16341 0.267628 0
M  V30 1402 H 126.748 3.1361 0.764772 0
M  V30 1403 H 125.8 3.43385 -1.6368 0
M  V30 1404 H 127.112 4.59268 -1.94613 0
M  V30 1405 H 126.266 6.06604 -0.108032 0
M  V30 1406 H 125.005 4.86787 0.29825 0
M  V30 1407 H 124.01 5.12433 -1.9923 0
M  V30 1408 H 125.235 6.35614 -2.39107 0
M  V30 1409 H 123.181 6.55814 -0.156162 0
M  V30 1410 H 123.098 7.36977 -1.68526 0
M  V30 1411 H 124.366 7.77435 -0.567032 0
M  V30 1412 N 128.595 0.856903 1.32268 0
M  V30 1413 C 130.006 0.515711 1.79436 0
M  V30 1414 C 130.357 -0.966586 1.70738 0
M  V30 1415 O 129.482 -1.75409 1.26731 0
M  V30 1416 C 130.077 0.929335 3.25805 0
M  V30 1417 C 128.636 0.640006 3.70919 0
M  V30 1418 C 127.783 1.12784 2.53328 0
M  V30 1419 H 130.734 1.04389 1.19535 0
M  V30 1420 H 130.755 0.246633 3.797 0
M  V30 1421 H 130.267 2.00821 3.32103 0
M  V30 1422 H 128.368 -0.428051 3.70133 0
M  V30 1423 H 128.481 1.20788 4.63624 0
M  V30 1424 H 126.845 0.548033 2.48734 0
M  V30 1425 H 127.628 2.21387 2.62379 0
M  V30 1426 N 130.073 -1.45103 0.615059 0
M  V30 1427 C 131.35 -1.95549 0.0448276 0
M  V30 1428 C 131.73 -1.55737 -1.4251 0
M  V30 1429 O 131.078 -0.823556 -2.13143 0
M  V30 1430 C 131.288 -3.48098 0.250785 0
M  V30 1431 C 132.636 -4.24384 0.135509 0
M  V30 1432 O 133.66 -3.55738 0.181299 0
M  V30 1433 O 132.519 -5.46493 0.0268878 0
M  V30 1434 H 129.613 -0.8264 -0.0314845 0
M  V30 1435 H 132.159 -1.55232 0.685642 0
M  V30 1436 H 130.931 -3.7007 1.27139 0
M  V30 1437 H 130.554 -3.95323 -0.424937 0
M  V30 1438 N 131.551 -0.354651 -1.53558 0
M  V30 1439 C 132.501 0.513179 -2.2215 0
M  V30 1440 C 133.485 1.05734 -1.21281 0
M  V30 1441 O 134.677 0.989202 -1.46778 0
M  V30 1442 C 131.806 1.65798 -3.00609 0
M  V30 1443 C 130.892 1.12722 -4.08845 0
M  V30 1444 N 131.283 0.318563 -5.04796 0
M  V30 1445 C 129.581 1.40307 -4.23356 0
M  V30 1446 C 130.282 0.0292224 -5.81693 0
M  V30 1447 N 129.258 0.623891 -5.40008 0
M  V30 1448 H 133.06 -0.111586 -2.93688 0
M  V30 1449 H 130.574 -0.162091 -1.61589 0
M  V30 1450 H 132.571 2.29176 -3.48258 0
M  V30 1451 H 131.231 2.28591 -2.306 0
M  V30 1452 H 132.242 -0.0413091 -5.17884 0
M  V30 1453 H 128.919 2.03458 -3.6457 0
M  V30 1454 H 130.309 -0.623808 -6.68998 0
M  V30 1455 N 133.029 1.57378 -0.0835403 0
M  V30 1456 C 134.278 1.93106 0.582498 0
M  V30 1457 C 134.591 0.96651 1.70053 0
M  V30 1458 O 135.797 1.21705 2.42693 0
M  V30 1459 C 134.253 3.43076 1.08751 0
M  V30 1460 C 133.861 4.48 -0.000146404 0
M  V30 1461 C 135.605 3.87785 1.72694 0
M  V30 1462 C 133.512 5.89113 0.519568 0
M  V30 1463 H 132.442 0.720775 0.221358 0
M  V30 1464 H 135.093 1.82821 -0.157675 0
M  V30 1465 H 133.475 3.48474 1.88101 0
M  V30 1466 H 134.649 4.54233 -0.775199 0
M  V30 1467 H 132.964 4.1283 -0.54406 0
M  V30 1468 H 135.561 4.90604 2.1263 0
M  V30 1469 H 135.904 3.25796 2.59158 0
M  V30 1470 H 136.437 3.8504 0.999457 0
M  V30 1471 H 133.176 6.54775 -0.308186 0
M  V30 1472 H 132.696 5.86376 1.26188 0
M  V30 1473 H 134.375 6.39346 0.992237 0
M  V30 1474 N 134.507 -0.190092 1.56449 0
M  V30 1475 C 135.756 -0.907912 1.80111 0
M  V30 1476 C 136.069 -1.84214 0.657619 0
M  V30 1477 O 137.275 -2.60094 0.778663 0
M  V30 1478 C 135.731 -1.66485 3.19078 0
M  V30 1479 C 135.339 -0.7752 4.41242 0
M  V30 1480 C 137.083 -2.37201 3.52045 0
M  V30 1481 C 134.99 -1.53129 5.71231 0
M  V30 1482 H 133.92 -0.34276 0.671589 0
M  V30 1483 H 136.571 -0.161109 1.82791 0
M  V30 1484 H 134.953 -2.45572 3.10661 0
M  V30 1485 H 136.127 -0.0226298 4.60794 0
M  V30 1486 H 134.442 -0.178627 4.16017 0
M  V30 1487 H 137.039 -2.94329 4.46402 0
M  V30 1488 H 137.382 -3.11632 2.76028 0
M  V30 1489 H 137.915 -1.65075 3.61932 0
M  V30 1490 H 134.654 -0.82967 6.50228 0
M  V30 1491 H 134.174 -2.25767 5.55688 0
M  V30 1492 H 135.853 -2.08377 6.12526 0
M  V30 1493 N 135.985 -1.50799 -0.457987 0
M  V30 1494 C 136.933 -1.71162 -1.575 0
M  V30 1495 C 137.927 -0.577592 -1.59249 0
M  V30 1496 O 139.133 -0.758443 -1.63241 0
M  V30 1497 H 135.508 -0.540468 -0.522875 0
M  V30 1498 H 137.479 -2.64837 -1.37492 0
M  V30 1499 C 136.228 -1.83496 -2.95338 0
M  V30 1500 H 135.551 -2.70153 -2.94716 0
M  V30 1501 H 136.991 -2.01765 -3.72917 0
M  V30 1502 C 135.45 -0.589694 -3.31699 0
M  V30 1503 O 135.98 0.265163 -4.00824 0
M  V30 1504 N 134.186 -0.439845 -2.87252 0
M  V30 1505 H 133.733 -1.13655 -2.31172 0
M  V30 1506 H 133.691 0.392159 -3.11945 0
M  V30 1507 N 137.463 0.71206 -1.40597 0
M  V30 1508 C 138.709 1.47416 -1.39271 0
M  V30 1509 C 139.042 1.942 0.00388791 0
M  V30 1510 O 138.317 1.68403 0.973179 0
M  V30 1511 C 138.6 2.69774 -2.38525 0
M  V30 1512 C 138.453 2.28861 -3.87224 0
M  V30 1513 C 139.772 3.71939 -2.35264 0
M  V30 1514 H 136.891 0.534713 -0.5072 0
M  V30 1515 H 139.533 0.812375 -1.71757 0
M  V30 1516 H 137.683 3.26238 -2.10953 0
M  V30 1517 H 139.355 1.77852 -4.25636 0
M  V30 1518 H 137.598 1.60824 -4.02887 0
M  V30 1519 H 138.269 3.16584 -4.52193 0
M  V30 1520 H 140.745 3.25113 -2.59694 0
M  V30 1521 H 139.621 4.55186 -3.06753 0
M  V30 1522 H 139.882 4.20484 -1.36549 0
M  V30 1523 N 138.941 1.26152 0.944643 0
M  V30 1524 C 140.218 1.02247 1.66748 0
M  V30 1525 C 140.598 -0.448202 2.06287 0
M  V30 1526 O 139.946 -1.42779 1.78399 0
M  V30 1527 C 140.156 1.96788 2.88228 0
M  V30 1528 C 141.504 2.25201 3.59958 0
M  V30 1529 O 142.528 1.94626 2.98327 0
M  V30 1530 O 141.387 2.77242 4.70956 0
M  V30 1531 H 138.481 0.388517 0.730057 0
M  V30 1532 H 141.027 1.37348 0.99668 0
M  V30 1533 H 139.799 2.96047 2.55875 0
M  V30 1534 H 139.422 1.62145 3.63035 0
M  V30 1535 N 140.419 -1.14872 1.07899 0
M  V30 1536 C 141.369 -2.17809 0.674027 0
M  V30 1537 C 142.353 -1.58008 -0.303699 0
M  V30 1538 O 143.545 -1.76616 -0.11654 0
M  V30 1539 C 140.674 -3.43208 0.0793318 0
M  V30 1540 C 139.76 -4.10051 1.08253 0
M  V30 1541 N 140.151 -4.52296 2.2641 0
M  V30 1542 C 138.449 -4.36469 0.917124 0
M  V30 1543 C 139.15 -5.04199 2.901 0
M  V30 1544 N 138.126 -4.98088 2.17736 0
M  V30 1545 H 141.928 -2.48207 1.57386 0
M  V30 1546 H 139.442 -1.315 0.952976 0
M  V30 1547 H 141.439 -4.16272 -0.228719 0
M  V30 1548 H 140.099 -3.14291 -0.815551 0
M  V30 1549 H 141.11 -4.45504 2.64096 0
M  V30 1550 H 137.787 -4.17432 0.0756078 0
M  V30 1551 H 139.177 -5.46802 3.90458 0
M  V30 1552 N 141.898 -0.863906 -1.31812 0
M  V30 1553 C 142.861 -0.320212 -2.26952 0
M  V30 1554 C 143.861 0.525369 -1.51975 0
M  V30 1555 O 145.051 0.335547 -1.70938 0
M  V30 1556 C 142.183 0.545919 -3.365 0
M  V30 1557 H 143.376 -1.16004 -2.76556 0
M  V30 1558 H 140.929 -0.638995 -1.42641 0
M  V30 1559 H 141.664 1.40718 -2.92179 0
M  V30 1560 H 141.449 -0.0594674 -3.92055 0
M  V30 1561 H 142.939 0.918796 -4.07367 0
M  V30 1562 N 143.376 1.44774 -0.622745 0
M  V30 1563 C 144.622 2.0242 -0.124083 0
M  V30 1564 C 144.955 1.4881 1.24777 0
M  V30 1565 O 144.23 0.668799 1.8264 0
M  V30 1566 C 144.513 3.59957 -0.101619 0
M  V30 1567 C 144.366 4.23867 -1.50521 0
M  V30 1568 C 145.685 4.36284 0.578272 0
M  V30 1569 H 142.804 0.735528 -0.0465645 0
M  V30 1570 H 145.446 1.72447 -0.797617 0
M  V30 1571 H 143.596 3.85623 0.471934 0
M  V30 1572 H 145.268 4.09336 -2.12701 0
M  V30 1573 H 143.511 3.81684 -2.06154 0
M  V30 1574 H 144.182 5.32843 -1.4416 0
M  V30 1575 H 146.658 4.16001 0.0906057 0
M  V30 1576 H 145.534 5.46004 0.563149 0
M  V30 1577 H 145.795 4.10271 1.64713 0
M  V30 1578 N 144.854 0.36279 1.53368 0
M  V30 1579 C 146.084 -0.228281 2.05335 0
M  V30 1580 C 146.492 -1.43226 1.23625 0
M  V30 1581 O 145.835 -1.81717 0.269206 0
M  V30 1582 C 145.897 -0.688549 3.52845 0
M  V30 1583 C 145.561 0.398362 4.5526 0
M  V30 1584 C 146.558 1.24732 5.04716 0
M  V30 1585 C 144.243 0.557805 4.99193 0
M  V30 1586 C 146.237 2.2411 5.96702 0
M  V30 1587 C 143.924 1.55495 5.90986 0
M  V30 1588 C 144.922 2.39503 6.39631 0
M  V30 1589 O 144.61 3.37517 7.29615 0
M  V30 1590 H 144.342 -0.044395 0.674541 0
M  V30 1591 H 146.896 0.518668 1.98744 0
M  V30 1592 H 145.126 -1.48706 3.56964 0
M  V30 1593 H 146.815 -1.20231 3.87685 0
M  V30 1594 H 147.581 1.13532 4.71525 0
M  V30 1595 H 143.46 -0.0862959 4.60919 0
M  V30 1596 H 147.004 2.89718 6.34594 0
M  V30 1597 H 142.901 1.66744 6.23592 0
M  V30 1598 H 143.669 3.33213 7.47604 0
M  V30 1599 N 146.332 -1.57332 0.0918853 0
M  V30 1600 C 147.562 -1.98286 -0.580205 0
M  V30 1601 C 147.97 -0.969713 -1.6246 0
M  V30 1602 O 147.313 0.0493501 -1.83634 0
M  V30 1603 C 147.375 -3.35603 -1.28882 0
M  V30 1604 C 147.039 -4.55285 -0.395559 0
M  V30 1605 C 148.036 -5.18687 0.355002 0
M  V30 1606 C 145.721 -5.01314 -0.314556 0
M  V30 1607 C 147.715 -6.26484 1.17458 0
M  V30 1608 C 145.402 -6.08979 0.508677 0
M  V30 1609 C 146.4 -6.71429 1.2519 0
M  V30 1610 O 146.088 -7.77018 2.06151 0
M  V30 1611 H 145.82 -0.656678 -0.160466 0
M  V30 1612 H 148.374 -2.04721 0.16688 0
M  V30 1613 H 146.604 -3.25842 -2.08241 0
M  V30 1614 H 148.293 -3.61026 -1.85512 0
M  V30 1615 H 149.059 -4.84058 0.302134 0
M  V30 1616 H 144.938 -4.5247 -0.882697 0
M  V30 1617 H 148.482 -6.75159 1.75518 0
M  V30 1618 H 144.379 -6.4304 0.563037 0
M  V30 1619 H 145.147 -7.93991 1.98799 0
M  V30 1620 N 147.81 0.181792 -1.56548 0
M  V30 1621 C 149.056 0.901431 -1.81665 0
M  V30 1622 C 149.389 1.82347 -0.668075 0
M  V30 1623 O 148.664 1.91669 0.330615 0
M  V30 1624 C 148.947 1.70618 -3.17115 0
M  V30 1625 C 148.8 0.807964 -4.42484 0
M  V30 1626 C 150.119 2.67605 -3.49393 0
M  V30 1627 H 147.238 0.32627 -0.660846 0
M  V30 1628 H 149.88 0.168134 -1.89255 0
M  V30 1629 H 148.03 2.33133 -3.10775 0
M  V30 1630 H 149.702 0.19649 -4.60881 0
M  V30 1631 H 147.945 0.115411 -4.33646 0
M  V30 1632 H 148.616 1.40632 -5.33785 0
M  V30 1633 H 151.092 2.15218 -3.56118 0
M  V30 1634 H 149.968 3.20985 -4.45264 0
M  V30 1635 H 150.229 3.47298 -2.73563 0
M  V30 1636 N 149.288 1.51039 0.449983 0
M  V30 1637 C 150.235 1.71439 1.54523 0
M  V30 1638 C 151.205 0.555871 1.56522 0
M  V30 1639 O 152.39 0.788871 1.73728 0
M  V30 1640 C 149.53 1.83384 2.92343 0
M  V30 1641 C 148.643 3.10873 2.9997 0
M  V30 1642 C 147.778 3.13488 4.28834 0
M  V30 1643 C 146.817 4.35343 4.30282 0
M  V30 1644 N 145.954 4.35579 5.5065 0
M  V30 1645 H 150.794 2.64934 1.36433 0
M  V30 1646 H 148.331 1.31312 0.662982 0
M  V30 1647 H 150.289 1.88291 3.72293 0
M  V30 1648 H 148.919 0.933086 3.0902 0
M  V30 1649 H 147.971 3.15336 2.12761 0
M  V30 1650 H 149.283 4.00814 2.96901 0
M  V30 1651 H 148.437 3.17241 5.17149 0
M  V30 1652 H 147.176 2.21414 4.34543 0
M  V30 1653 H 146.181 4.3178 3.40362 0
M  V30 1654 H 147.406 5.28668 4.26248 0
M  V30 1655 H 145.352 3.46369 5.57104 0
M  V30 1656 H 145.269 5.19313 5.49409 0
M  V30 1657 H 146.537 4.43507 6.41032 0
M  V30 1658 N 150.766 -0.704594 1.40972 0
M  V30 1659 C 151.991 -1.49858 1.43378 0
M  V30 1660 C 152.416 -1.88061 0.038184 0
M  V30 1661 O 151.774 -1.5402 -0.956425 0
M  V30 1662 C 151.822 -2.74333 2.34038 0
M  V30 1663 O 150.926 -3.7147 1.7912 0
M  V30 1664 H 150.267 -0.45139 0.486974 0
M  V30 1665 H 152.797 -0.866832 1.8533 0
M  V30 1666 H 152.807 -3.22741 2.49604 0
M  V30 1667 H 151.482 -2.45863 3.35446 0
M  V30 1668 H 150.059 -3.30363 1.72958 0
M  V30 1669 N 152.244 -1.26651 -0.937939 0
M  V30 1670 C 153.469 -1.15279 -1.72411 0
M  V30 1671 C 153.894 0.287866 -1.85884 0
M  V30 1672 O 153.252 1.20855 -1.35143 0
M  V30 1673 C 153.3 -1.83028 -3.10698 0
M  V30 1674 O 152.404 -1.12128 -3.96864 0
M  V30 1675 H 151.745 -0.401504 -0.528858 0
M  V30 1676 H 154.275 -1.67531 -1.1745 0
M  V30 1677 H 154.285 -1.89981 -3.6107 0
M  V30 1678 H 152.96 -2.87833 -3.00208 0
M  V30 1679 H 151.537 -1.13173 -3.55312 0
M  V30 1680 N 153.722 1.14298 -1.08507 0
M  V30 1681 C 154.669 2.19414 -0.715965 0
M  V30 1682 C 155.639 1.63399 0.298326 0
M  V30 1683 O 156.824 1.89929 0.182101 0
M  V30 1684 C 153.964 3.44845 -0.132534 0
M  V30 1685 C 153.077 4.15007 -1.19973 0
M  V30 1686 C 152.212 5.28024 -0.580048 0
M  V30 1687 C 151.251 5.9002 -1.62921 0
M  V30 1688 N 150.388 6.94485 -1.03125 0
M  V30 1689 H 155.228 2.50336 -1.61666 0
M  V30 1690 H 152.765 1.2293 -0.807882 0
M  V30 1691 H 154.723 4.16601 0.223454 0
M  V30 1692 H 153.353 3.14403 0.731467 0
M  V30 1693 H 152.405 3.41629 -1.67313 0
M  V30 1694 H 153.717 4.57178 -1.99473 0
M  V30 1695 H 152.871 6.06455 -0.172364 0
M  V30 1696 H 151.61 4.87076 0.246603 0
M  V30 1697 H 150.615 5.10291 -2.04654 0
M  V30 1698 H 151.84 6.33042 -2.45835 0
M  V30 1699 H 149.786 6.55612 -0.225711 0
M  V30 1700 H 149.703 7.35148 -1.76334 0
M  V30 1701 H 150.971 7.7679 -0.649458 0
M  V30 1702 N 155.201 0.870884 1.31352 0
M  V30 1703 C 156.164 0.332243 2.26779 0
M  V30 1704 C 157.164 -0.517302 1.52252 0
M  V30 1705 O 158.354 -0.326477 1.71113 0
M  V30 1706 C 155.486 -0.528066 3.36785 0
M  V30 1707 H 156.679 1.17469 2.75937 0
M  V30 1708 H 154.232 0.64655 1.423 0
M  V30 1709 H 154.967 -1.39167 2.92922 0
M  V30 1710 H 154.752 0.0802582 3.92018 0
M  V30 1711 H 156.242 -0.897179 4.07849 0
M  V30 1712 N 156.679 -1.44442 0.630414 0
M  V30 1713 C 157.642 -2.29107 -0.0652523 0
M  V30 1714 C 158.642 -1.41002 -0.772995 0
M  V30 1715 O 159.832 -1.62881 -0.617692 0
M  V30 1716 C 156.964 -3.22564 -1.10296 0
M  V30 1717 H 158.157 -2.92103 0.679401 0
M  V30 1718 H 155.71 -1.51343 0.390517 0
M  V30 1719 H 156.445 -2.64416 -1.87762 0
M  V30 1720 H 156.23 -3.87491 -0.59941 0
M  V30 1721 H 157.72 -3.86167 -1.5895 0
M  V30 1722 N 158.157 -0.370918 -1.53173 0
M  V30 1723 C 159.387 0.217389 -2.05453 0
M  V30 1724 C 159.795 1.42568 -1.24382 0
M  V30 1725 O 159.138 1.81571 -0.278839 0
M  V30 1726 C 159.2 0.669827 -3.53205 0
M  V30 1727 C 158.864 -0.4225 -4.55043 0
M  V30 1728 C 159.861 -1.27407 -5.04047 0
M  V30 1729 C 157.546 -0.58427 -4.9889 0
M  V30 1730 C 159.54 -2.27271 -5.95505 0
M  V30 1731 C 157.227 -1.58627 -5.90153 0
M  V30 1732 C 158.225 -2.42892 -6.38351 0
M  V30 1733 O 157.913 -3.41382 -7.27814 0
M  V30 1734 H 157.645 0.0408171 -0.674767 0
M  V30 1735 H 160.199 -0.5292 -1.98466 0
M  V30 1736 H 158.429 1.4681 -3.57748 0
M  V30 1737 H 160.118 1.18173 -3.88317 0
M  V30 1738 H 160.884 -1.16031 -4.70916 0
M  V30 1739 H 156.763 0.061851 -4.60959 0
M  V30 1740 H 160.307 -2.93079 -6.33049 0
M  V30 1741 H 156.204 -1.70048 -6.22699 0
M  V30 1742 H 156.972 -3.37173 -7.45826 0
M  V30 1743 N 159.635 1.57281 -0.100228 0
M  V30 1744 C 160.567 2.11342 0.886972 0
M  V30 1745 C 161.58 1.05182 1.24261 0
M  V30 1746 O 162.769 1.32613 1.19483 0
M  V30 1747 C 159.869 2.5825 2.19454 0
M  V30 1748 C 159.042 3.88302 2.01346 0
M  V30 1749 C 158.101 4.21004 3.15661 0
M  V30 1750 O 157.127 4.9014 2.89398 0
M  V30 1751 N 158.329 3.76818 4.41575 0
M  V30 1752 H 161.094 2.96668 0.425216 0
M  V30 1753 H 158.655 1.61678 0.0847334 0
M  V30 1754 H 160.647 2.7717 2.94888 0
M  V30 1755 H 159.217 1.77907 2.57037 0
M  V30 1756 H 158.437 3.7848 1.10212 0
M  V30 1757 H 159.725 4.73375 1.8653 0
M  V30 1758 H 159.123 3.2102 4.65792 0
M  V30 1759 H 157.68 4.00882 5.13942 0
M  V30 1760 N 161.113 -0.173488 1.56642 0
M  V30 1761 C 162.045 -1.23935 1.92802 0
M  V30 1762 C 163.058 -1.40589 0.820889 0
M  V30 1763 O 164.247 -1.40631 1.09933 0
M  V30 1764 C 161.347 -2.60837 2.16373 0
M  V30 1765 C 160.52 -2.6551 3.47596 0
M  V30 1766 C 159.579 -3.8376 3.60021 0
M  V30 1767 O 158.605 -3.69859 4.32658 0
M  V30 1768 N 159.807 -5.00127 2.94709 0
M  V30 1769 H 162.572 -0.932236 2.84832 0
M  V30 1770 H 160.133 -0.363268 1.57772 0
M  V30 1771 H 162.125 -3.38407 2.21952 0
M  V30 1772 H 160.695 -2.83948 1.30738 0
M  V30 1773 H 159.915 -1.74052 3.53694 0
M  V30 1774 H 161.203 -2.65641 4.33949 0
M  V30 1775 H 160.601 -5.14322 2.35563 0
M  V30 1776 H 159.158 -5.75567 3.05886 0
M  V30 1777 N 162.591 -1.51276 -0.441967 0
M  V30 1778 C 163.816 -1.67799 -1.21895 0
M  V30 1779 C 164.241 -0.372864 -1.84367 0
M  V30 1780 O 163.599 0.666501 -1.68604 0
M  V30 1781 C 163.647 -2.79199 -2.28211 0
M  V30 1782 O 162.751 -2.42479 -3.33583 0
M  V30 1783 H 162.092 -0.559649 -0.357336 0
M  V30 1784 H 164.622 -1.97815 -0.522522 0
M  V30 1785 H 164.632 -3.03146 -2.73069 0
M  V30 1786 H 163.307 -3.73906 -1.82118 0
M  V30 1787 H 161.884 -2.29087 -2.94234 0
M  V30 1788 O 164.108 0.587699 -1.50427 0
M  V30 1789 H 164.799 1.24259 -1.48592 0
M  V30 END ATOM
M  V30 BEGIN BOND
M  V30 END BOND
M  V30 END CTAB
M  END
$$$$
