drugbank_target|Q16671 Anti-Muellerian hormone type-2 receptor (DB00171)
 OpenBabel12092119363D

  0  0  0     0  0            999 V3000
M  V30 BEGIN CTAB
M  V30 COUNTS 8743 8868 0 0 0
M  V30 BEGIN ATOM
M  V30 1 H -0.908 1.98254 -0.117106 0
M  V30 2 N 0 1.576 0 0
M  V30 3 C 0.933 2.03868 1.02534 0
M  V30 4 C 1.911 0.928543 1.3348 0
M  V30 5 O 3.095 1.19667 1.45644 0
M  V30 6 C 0.222 2.43627 2.35294 0
M  V30 7 C -0.732 3.65373 2.2001 0
M  V30 8 S 0.101 5.13292 1.52614 0
M  V30 9 C 1.257 5.56322 2.86805 0
M  V30 10 H 1.49 2.90518 0.631377 0
M  V30 11 H -0.977 1.52953 0.210867 0
M  V30 12 H 0.981 2.67203 3.11629 0
M  V30 13 H -0.358 1.57376 2.7183 0
M  V30 14 H -1.165 3.90944 3.18086 0
M  V30 15 H -1.563 3.418 1.51819 0
M  V30 16 H 0.729 5.58782 3.83104 0
M  V30 17 H 1.672 6.56266 2.65933 0
M  V30 18 H 2.08 4.83886 2.90714 0
M  V30 19 N 1.4781 -0.272755 1.55222 0
M  V30 20 C 2.4081 -1.34136 1.91127 0
M  V30 21 C 3.3891 -1.51513 0.773168 0
M  V30 22 O 4.5741 -1.64552 1.03132 0
M  V30 23 C 1.7041 -2.70083 2.1834 0
M  V30 24 C 0.6581 -2.67437 3.34158 0
M  V30 25 C -0.0159 -4.06938 3.46851 0
M  V30 26 C 1.2841 -2.26686 4.70543 0
M  V30 27 H 2.9781 -1.04333 2.80633 0
M  V30 28 H 0.5241 -0.500454 1.35024 0
M  V30 29 H 2.4771 -3.44952 2.42046 0
M  V30 30 H 1.2011 -3.01469 1.25634 0
M  V30 31 H -0.1399 -1.95026 3.1042 0
M  V30 32 H -0.4919 -4.35547 2.51611 0
M  V30 33 H -0.7919 -4.06062 4.2472 0
M  V30 34 H 0.7321 -4.83545 3.72849 0
M  V30 35 H 2.1461 -2.91277 4.93792 0
M  V30 36 H 0.5431 -2.36971 5.5133 0
M  V30 37 H 1.6131 -1.21818 4.69349 0
M  V30 38 N 2.9562 -1.48159 -0.537278 0
M  V30 39 C 4.2042 -1.55497 -1.29094 0
M  V30 40 C 4.5252 -0.227454 -1.93669 0
M  V30 41 O 3.7952 0.750386 -1.80959 0
M  V30 42 H 2.3752 -0.572832 -0.47945 0
M  V30 43 H 5.0372 -1.84579 -0.625818 0
M  V30 44 H 4.1332 -2.33216 -2.07405 0
M  V30 45 N 4.4343 0.785586 -1.36625 0
M  V30 46 C 5.6593 1.57963 -1.34397 0
M  V30 47 C 6.0843 1.87964 0.071526 0
M  V30 48 O 5.4423 1.48182 1.0446 0
M  V30 49 C 5.4903 2.87511 -2.17646 0
M  V30 50 O 4.5943 3.81281 -1.57158 0
M  V30 51 H 3.9353 0.479014 -0.459828 0
M  V30 52 H 6.4653 0.973411 -1.79961 0
M  V30 53 H 6.4753 3.36745 -2.30362 0
M  V30 54 H 5.1503 2.65002 -3.20541 0
M  V30 55 H 3.7273 3.39885 -1.53403 0
M  V30 56 N 5.9124 1.20967 1.01018 0
M  V30 57 C 6.8424 0.988272 2.11555 0
M  V30 58 C 7.8234 -0.0849778 1.69888 0
M  V30 59 O 9.0084 0.0738202 1.9406 0
M  V30 60 C 6.1384 0.546528 3.42973 0
M  V30 61 C 5.0924 1.56375 3.9841 0
M  V30 62 C 4.4184 0.97842 5.25672 0
M  V30 63 C 5.7184 2.94922 4.31066 0
M  V30 64 H 7.4124 1.91276 2.30334 0
M  V30 65 H 4.9584 0.921073 1.1069 0
M  V30 66 H 6.9114 0.378839 4.19694 0
M  V30 67 H 5.6354 -0.413598 3.23971 0
M  V30 68 H 4.2944 1.71891 3.23804 0
M  V30 69 H 3.9424 0.0101688 5.02999 0
M  V30 70 H 3.6424 1.65784 5.63728 0
M  V30 71 H 5.1664 0.821939 6.05043 0
M  V30 72 H 6.5804 2.8288 4.9865 0
M  V30 73 H 4.9774 3.5983 4.80253 0
M  V30 74 H 6.0474 3.4616 3.39561 0
M  V30 75 N 7.3905 -1.2043 1.01659 0
M  V30 76 C 8.6385 -1.89423 0.704522 0
M  V30 77 C 8.9595 -1.79231 -0.768197 0
M  V30 78 O 8.2295 -1.1947 -1.55254 0
M  V30 79 H 6.8095 -0.701178 0.257602 0
M  V30 80 H 9.4715 -1.4626 1.28818 0
M  V30 81 H 8.5675 -2.96052 0.987916 0
M  V30 82 N 8.8686 -0.792821 -1.36206 0
M  V30 83 C 9.7986 -0.207853 -2.32573 0
M  V30 84 C 10.7796 0.659055 -1.56813 0
M  V30 85 O 11.9646 0.592176 -1.84951 0
M  V30 86 C 9.0946 0.655449 -3.41059 0
M  V30 87 C 8.0486 -0.111842 -4.27854 0
M  V30 88 C 7.3746 0.872274 -5.27537 0
M  V30 89 C 8.6746 -1.30299 -5.05786 0
M  V30 90 H 10.3686 -1.01294 -2.81744 0
M  V30 91 H 7.9146 -0.48854 -1.3546 0
M  V30 92 H 9.8676 1.07464 -4.07467 0
M  V30 93 H 8.5916 1.49328 -2.90463 0
M  V30 94 H 7.2506 -0.512053 -3.63006 0
M  V30 95 H 6.8986 1.70523 -4.73214 0
M  V30 96 H 6.5986 0.363291 -5.86476 0
M  V30 97 H 8.1226 1.28996 -5.96818 0
M  V30 98 H 9.5366 -0.959379 -5.65216 0
M  V30 99 H 7.9336 -1.7455 -5.74154 0
M  V30 100 H 9.0036 -2.09663 -4.37229 0
M  V30 101 N 10.3467 1.47872 -0.545128 0
M  V30 102 C 11.5927 2.03385 -0.0247951 0
M  V30 103 C 11.9477 1.41325 1.30556 0
M  V30 104 O 11.2407 0.5552 1.8338 0
M  V30 105 C 11.4347 3.57131 0.13867 0
M  V30 106 C 11.2637 4.34097 -1.17429 0
M  V30 107 C 10.0337 4.74458 -1.73831 0
M  V30 108 C 12.2317 4.6998 -2.08861 0
M  V30 109 N 10.2137 5.3602 -2.99258 0
M  V30 110 C 11.5847 5.31719 -3.18866 0
M  V30 111 C 13.6397 4.5191 -2.09003 0
M  V30 112 C 12.3427 5.77295 -4.29096 0
M  V30 113 C 14.3687 4.98477 -3.18237 0
M  V30 114 C 13.7307 5.60253 -4.26961 0
M  V30 115 H 9.8297 0.780339 -0.050943 0
M  V30 116 H 12.4137 1.80507 -0.729753 0
M  V30 117 H 10.5847 3.79802 0.812733 0
M  V30 118 H 12.3167 3.99282 0.659976 0
M  V30 119 H 9.0717 4.56037 -1.2778 0
M  V30 120 H 9.4957 5.71355 -3.63157 0
M  V30 121 H 14.1377 4.03516 -1.26234 0
M  V30 122 H 11.8557 6.24687 -5.12633 0
M  V30 123 H 15.4417 4.86274 -3.1942 0
M  V30 124 H 14.3217 5.95631 -5.10091 0
M  V30 125 N 11.8248 0.280983 1.55075 0
M  V30 126 C 12.7878 -0.590896 2.21452 0
M  V30 127 C 13.7878 -1.07682 1.19421 0
M  V30 128 O 14.9778 -0.97605 1.44288 0
M  V30 129 C 12.1098 -1.81587 2.88511 0
M  V30 130 H 13.3028 -0.0112554 2.99898 0
M  V30 131 H 10.8558 0.0316438 1.56268 0
M  V30 132 H 11.5908 -2.43587 2.14093 0
M  V30 133 H 11.3758 -1.4753 3.63287 0
M  V30 134 H 12.8658 -2.43575 3.39206 0
M  V30 135 N 13.3029 -1.57598 0.00835791 0
M  V30 136 C 14.2329 -2.1198 -0.979113 0
M  V30 137 C 15.2139 -1.03091 -1.35301 0
M  V30 138 O 16.3989 -1.30818 -1.43528 0
M  V30 139 C 13.5289 -2.62995 -2.26828 0
M  V30 140 C 12.4829 -3.76485 -2.03576 0
M  V30 141 C 11.8089 -4.13846 -3.38579 0
M  V30 142 C 13.1089 -5.0342 -1.39161 0
M  V30 143 H 14.8029 -2.94738 -0.526281 0
M  V30 144 H 12.3489 -1.41783 -0.251704 0
M  V30 145 H 14.3019 -2.99669 -2.96271 0
M  V30 146 H 13.0259 -1.7737 -2.7424 0
M  V30 147 H 11.6849 -3.40217 -1.36557 0
M  V30 148 H 11.3329 -3.25232 -3.83709 0
M  V30 149 H 11.0329 -4.90312 -3.23834 0
M  V30 150 H 12.5569 -4.53086 -4.09323 0
M  V30 151 H 13.9709 -5.37812 -1.98573 0
M  V30 152 H 12.3679 -5.84746 -1.34878 0
M  V30 153 H 13.4379 -4.83548 -0.361868 0
M  V30 154 N 14.781 0.264519 -1.55364 0
M  V30 155 C 15.711 1.33121 -1.91836 0
M  V30 156 C 16.692 1.51101 -0.781192 0
M  V30 157 O 17.877 1.64003 -1.04003 0
M  V30 158 C 15.007 2.68921 -2.19769 0
M  V30 159 C 13.961 2.65661 -3.35571 0
M  V30 160 C 13.287 4.05093 -3.49004 0
M  V30 161 C 14.587 2.24187 -4.71739 0
M  V30 162 H 16.281 1.02844 -2.81182 0
M  V30 163 H 13.827 0.493286 -1.35287 0
M  V30 164 H 15.78 3.43663 -2.43872 0
M  V30 165 H 14.504 3.00799 -1.27231 0
M  V30 166 H 13.163 1.93377 -3.1145 0
M  V30 167 H 12.811 4.34206 -2.53917 0
M  V30 168 H 12.511 4.03804 -4.26868 0
M  V30 169 H 14.035 4.81561 -3.75408 0
M  V30 170 H 15.449 2.88654 -4.9533 0
M  V30 171 H 13.846 2.34044 -5.52579 0
M  V30 172 H 14.916 1.19327 -4.69988 0
M  V30 173 N 16.2591 1.48442 0.529413 0
M  V30 174 C 17.6701 1.5002 1.11134 0
M  V30 175 C 18.0211 0.27031 1.94329 0
M  V30 176 O 17.1461 -0.622507 2.07253 0
M  V30 177 C 17.7411 2.71834 2.02217 0
M  V30 178 C 16.3001 2.76283 2.55627 0
M  V30 179 C 15.4471 2.43542 1.326 0
M  V30 180 H 18.3981 1.5555 0.314641 0
M  V30 181 H 18.4191 2.50384 2.8651 0
M  V30 182 H 17.9311 3.61331 1.41639 0
M  V30 183 H 16.0321 1.90995 3.19924 0
M  V30 184 H 16.1451 3.77725 2.94721 0
M  V30 185 H 14.5091 1.94709 1.64196 0
M  V30 186 H 15.2921 3.3528 0.737734 0
M  V30 187 N 17.7372 -0.778329 1.37039 0
M  V30 188 C 18.9652 -1.56734 1.35063 0
M  V30 189 C 19.3802 -1.88686 -0.0655597 0
M  V30 190 O 18.7372 -1.5096 -1.02554 0
M  V30 191 C 18.7882 -2.88163 2.18276 0
M  V30 192 O 18.5092 -2.57583 3.54376 0
M  V30 193 C 20.0102 -3.82422 2.24206 0
M  V30 194 H 17.2302 -0.485778 0.462883 0
M  V30 195 H 19.7742 -0.965185 1.8029 0
M  V30 196 H 17.9292 -3.44818 1.76576 0
M  V30 197 H 18.3432 -3.41699 3.97922 0
M  V30 198 H 19.8172 -4.71667 2.86765 0
M  V30 199 H 20.2942 -4.21078 1.24861 0
M  V30 200 H 20.9002 -3.31697 2.6619 0
M  V30 201 N 19.2153 -1.21501 -1.00376 0
M  V30 202 C 20.1783 -0.976927 -2.07337 0
M  V30 203 C 21.1783 0.0525322 -1.60714 0
M  V30 204 O 22.3683 -0.184869 -1.73216 0
M  V30 205 C 19.5003 -0.473423 -3.37597 0
M  V30 206 H 20.6933 -1.92587 -2.29892 0
M  V30 207 H 18.2463 -1.03217 -1.17371 0
M  V30 208 H 18.9813 0.480379 -3.20722 0
M  V30 209 H 18.7663 -1.216 -3.72768 0
M  V30 210 H 20.2563 -0.32675 -4.1632 0
M  V30 211 N 20.6934 1.19889 -1.02296 0
M  V30 212 C 21.9394 1.89701 -0.717033 0
M  V30 213 C 22.2724 1.7905 0.751989 0
M  V30 214 O 21.5474 1.17891 1.547 0
M  V30 215 C 21.8304 3.40858 -1.16136 0
M  V30 216 C 21.6834 3.60411 -2.69117 0
M  V30 217 C 23.0024 4.33876 -0.737549 0
M  V30 218 H 20.1214 0.688874 -0.261957 0
M  V30 219 H 22.7634 1.41154 -1.27183 0
M  V30 220 H 20.9134 3.82335 -0.689342 0
M  V30 221 H 22.5854 3.28145 -3.2422 0
M  V30 222 H 20.8284 3.03665 -3.0979 0
M  V30 223 H 21.4994 4.66396 -2.95261 0
M  V30 224 H 23.9754 4.00081 -1.14344 0
M  V30 225 H 22.8514 5.38242 -1.0764 0
M  V30 226 H 23.1124 4.40628 0.360436 0
M  V30 227 N 22.1715 0.800033 1.35784 0
M  V30 228 C 23.0815 0.207204 2.33683 0
M  V30 229 C 24.0975 -0.64631 1.61551 0
M  V30 230 O 25.2735 -0.559604 1.93469 0
M  V30 231 C 22.3385 -0.639659 3.40748 0
M  V30 232 C 21.3995 0.233585 4.28664 0
M  V30 233 C 20.6325 -0.572954 5.30616 0
M  V30 234 O 20.8555 -1.80816 5.40982 0
M  V30 235 O 19.7895 0.0327285 6.01891 0
M  V30 236 H 23.6155 1.01692 2.86169 0
M  V30 237 H 21.2005 0.561691 1.38439 0
M  V30 238 H 23.0825 -1.12223 4.06182 0
M  V30 239 H 21.7575 -1.42708 2.90544 0
M  V30 240 H 20.6645 0.763147 3.66233 0
M  V30 241 H 21.9975 0.984784 4.82248 0
M  V30 242 N 23.6496 -1.47581 0.552962 0
M  V30 243 C 24.6126 -2.28439 -0.186605 0
M  V30 244 C 25.6126 -1.36706 -0.84665 0
M  V30 245 O 26.8026 -1.59378 -0.703164 0
M  V30 246 C 23.9346 -3.16264 -1.2724 0
M  V30 247 H 25.1276 -2.95294 0.523609 0
M  V30 248 H 22.6806 -1.532 0.309745 0
M  V30 249 H 23.4156 -2.54091 -2.01514 0
M  V30 250 H 23.2006 -3.83769 -0.803968 0
M  V30 251 H 24.6906 -3.77198 -1.79196 0
M  V30 252 N 25.1277 -0.289203 -1.54924 0
M  V30 253 C 26.5387 0.205791 -1.85562 0
M  V30 254 C 26.8897 1.54351 -1.2112 0
M  V30 255 O 26.0147 2.10435 -0.504601 0
M  V30 256 C 26.6097 0.380177 -3.3666 0
M  V30 257 C 25.1687 0.819395 -3.67373 0
M  V30 258 C 24.3157 -0.079159 -2.77187 0
M  V30 259 H 27.2667 -0.510577 -1.50262 0
M  V30 260 H 27.2877 1.21659 -3.60526 0
M  V30 261 H 26.7997 -0.593589 -3.83534 0
M  V30 262 H 24.9007 1.80413 -3.26009 0
M  V30 263 H 25.0137 0.646957 -4.74712 0
M  V30 264 H 23.3777 0.439565 -2.50878 0
M  V30 265 H 24.1607 -1.04906 -3.26878 0
M  V30 266 N 26.6058 1.57591 -0.0167156 0
M  V30 267 C 28.0168 1.79201 0.523834 0
M  V30 268 C 28.3678 0.925796 1.72984 0
M  V30 269 O 27.4928 0.132792 2.15992 0
M  V30 270 C 28.0878 3.25 0.957091 0
M  V30 271 C 26.6468 3.47648 1.44283 0
M  V30 272 C 25.7938 2.74374 0.401757 0
M  V30 273 H 28.7448 1.56831 -0.242816 0
M  V30 274 H 28.7658 3.34031 1.82219 0
M  V30 275 H 28.2778 3.88019 0.0791415 0
M  V30 276 H 26.3788 2.89866 2.34113 0
M  V30 277 H 26.4918 4.56352 1.45877 0
M  V30 278 H 24.8558 2.39485 0.867121 0
M  V30 279 H 25.6388 3.40102 -0.467513 0
M  V30 280 N 28.0839 -0.256276 1.55502 0
M  V30 281 C 29.0319 -1.33694 1.90338 0
M  V30 282 C 30.0259 -1.50299 0.781441 0
M  V30 283 O 31.2319 -1.51885 0.965966 0
M  V30 284 H 27.6069 -0.447483 0.60437 0
M  V30 285 H 29.5779 -1.01574 2.8058 0
M  V30 286 C 28.3269 -2.68724 2.20642 0
M  V30 287 H 27.6499 -2.56743 3.06469 0
M  V30 288 H 29.0899 -3.43237 2.48926 0
M  V30 289 C 27.5489 -3.21101 1.01959 0
M  V30 290 O 28.0789 -4.0084 0.262762 0
M  V30 291 N 26.2849 -2.79003 0.812746 0
M  V30 292 H 25.8319 -2.14271 1.42989 0
M  V30 293 H 25.7899 -3.14393 0.0203076 0
M  V30 294 N 29.562 -1.4872 -0.521534 0
M  V30 295 C 30.978 -1.35028 -0.850855 0
M  V30 296 C 31.178 -0.367712 -1.98116 0
M  V30 297 O 30.234 0.208037 -2.51642 0
M  V30 298 C 31.547 -2.75263 -1.21041 0
M  V30 299 C 33.095 -2.83813 -1.31981 0
M  V30 300 C 33.57 -4.24769 -1.71276 0
M  V30 301 N 35.061 -4.27482 -1.78363 0
M  V30 302 C 35.796 -5.33494 -2.1017 0
M  V30 303 N 35.292 -6.49775 -2.40343 0
M  V30 304 N 37.085 -5.20894 -2.11248 0
M  V30 305 H 29.236 -2.11214 0.22413 0
M  V30 306 H 31.499 -0.947252 0.0376439 0
M  V30 307 H 31.205 -3.48765 -0.453415 0
M  V30 308 H 31.079 -3.09327 -2.15863 0
M  V30 309 H 33.466 -2.10561 -2.06756 0
M  V30 310 H 33.547 -2.53358 -0.352596 0
M  V30 311 H 33.191 -4.9854 -0.970588 0
M  V30 312 H 33.121 -4.52673 -2.69062 0
M  V30 313 H 35.612 -3.43611 -1.57288 0
M  V30 314 H 35.925 -7.26402 -2.63743 0
M  V30 315 H 34.27 -6.53035 -2.37844 0
M  V30 316 H 37.461 -4.29065 -1.87139 0
M  V30 317 H 37.634 -6.03612 -2.35704 0
M  V30 318 N 31.0401 0.771051 -1.3745 0
M  V30 319 C 32.4561 1.07171 -1.18265 0
M  V30 320 C 32.6561 2.01491 -0.019287 0
M  V30 321 O 31.7121 2.44244 0.640408 0
M  V30 322 C 33.0251 1.66854 -2.50161 0
M  V30 323 C 34.5731 1.79109 -2.56689 0
M  V30 324 C 35.0481 2.42205 -3.88717 0
M  V30 325 N 36.5391 2.49655 -3.90162 0
M  V30 326 C 37.2741 2.9933 -4.8907 0
M  V30 327 N 36.7701 3.49172 -5.98374 0
M  V30 328 N 38.5631 2.9821 -4.76474 0
M  V30 329 H 30.7141 0.144796 -2.11906 0
M  V30 330 H 32.9771 0.126863 -0.939473 0
M  V30 331 H 32.6831 1.05017 -3.35655 0
M  V30 332 H 32.5571 2.6614 -2.673 0
M  V30 333 H 34.9441 2.40077 -1.71601 0
M  V30 334 H 35.0251 0.785757 -2.43433 0
M  V30 335 H 34.6691 1.81875 -4.74219 0
M  V30 336 H 34.5991 3.43345 -3.99276 0
M  V30 337 H 37.0901 2.14383 -3.11205 0
M  V30 338 H 37.4031 3.8548 -6.69795 0
M  V30 339 H 35.7481 3.47275 -6.02018 0
M  V30 340 H 38.9391 2.58572 -3.90203 0
M  V30 341 H 39.1121 3.36613 -5.53711 0
M  V30 342 N 32.5182 1.22032 0.997298 0
M  V30 343 C 33.7462 1.06841 1.7718 0
M  V30 344 C 34.1612 -0.381325 1.84909 0
M  V30 345 O 33.5182 -1.26437 1.31605 0
M  V30 346 C 33.5692 1.66814 3.20711 0
M  V30 347 O 33.2902 3.06116 3.13408 0
M  V30 348 C 34.7912 1.56838 4.14628 0
M  V30 349 H 32.0112 0.374782 0.556578 0
M  V30 350 H 34.5552 1.61532 1.2541 0
M  V30 351 H 32.7102 1.16196 3.69564 0
M  V30 352 H 33.1242 3.34926 4.0364 0
M  V30 353 H 34.5982 2.03532 5.13107 0
M  V30 354 H 35.0752 0.524155 4.36061 0
M  V30 355 H 35.6812 2.06741 3.7167 0
M  V30 356 N 33.9963 -1.19345 1.0293 0
M  V30 357 C 35.2363 -1.90738 0.734727 0
M  V30 358 C 35.6003 -1.7785 -0.723414 0
M  V30 359 O 36.8013 -2.43844 -1.13108 0
M  V30 360 C 35.0723 -3.37569 1.17396 0
M  V30 361 S 36.6313 -4.27176 1.00329 0
M  V30 362 H 33.4493 -0.658771 0.267474 0
M  V30 363 H 36.0513 -1.4428 1.31922 0
M  V30 364 H 34.7553 -3.44475 2.23081 0
M  V30 365 H 34.2863 -3.8906 0.582772 0
M  V30 366 H 36.3013 -4.96126 -0.0859152 0
M  V30 367 N 35.4744 -0.807222 -1.35358 0
M  V30 368 C 36.7204 -0.388463 -1.99045 0
M  V30 369 C 37.0534 1.04184 -1.63888 0
M  V30 370 O 36.3284 1.72292 -0.902535 0
M  V30 371 C 36.6114 -0.572783 -3.55515 0
M  V30 372 C 36.4644 -2.04807 -4.00468 0
M  V30 373 C 37.7834 0.00114064 -4.401 0
M  V30 374 H 34.9024 -0.142619 -0.723069 0
M  V30 375 H 37.5444 -1.01687 -1.60498 0
M  V30 376 H 35.6944 -0.0378425 -3.88482 0
M  V30 377 H 37.3664 -2.64544 -3.77908 0
M  V30 378 H 35.6094 -2.54427 -3.51353 0
M  V30 379 H 36.2804 -2.12792 -5.09337 0
M  V30 380 H 38.7564 -0.455716 -4.13597 0
M  V30 381 H 37.6324 -0.157737 -5.48673 0
M  V30 382 H 37.8934 1.09488 -4.28328 0
M  V30 383 N 36.9525 1.47285 -0.560781 0
M  V30 384 C 38.1995 2.02464 -0.038062 0
M  V30 385 C 38.5275 1.43474 1.31322 0
M  V30 386 O 37.7825 0.581311 1.86867 0
M  V30 387 C 38.0815 3.57258 0.100784 0
M  V30 388 C 37.7475 4.35184 -1.18007 0
M  V30 389 C 36.4095 4.56194 -1.53103 0
M  V30 390 C 38.7615 4.80098 -2.02867 0
M  V30 391 C 36.0895 5.19367 -2.729 0
M  V30 392 C 38.4415 5.44593 -3.21871 0
M  V30 393 C 37.1055 5.63835 -3.57276 0
M  V30 394 H 36.3755 0.740869 -0.0139279 0
M  V30 395 H 39.0225 1.76916 -0.733012 0
M  V30 396 H 37.3275 3.81819 0.878724 0
M  V30 397 H 39.0245 3.97606 0.520639 0
M  V30 398 H 35.6145 4.19113 -0.8968 0
M  V30 399 H 39.7985 4.63642 -1.7706 0
M  V30 400 H 35.0545 5.32459 -3.00496 0
M  V30 401 H 39.2285 5.78358 -3.87911 0
M  V30 402 H 36.8555 6.12557 -4.50197 0
M  V30 403 N 38.4306 0.297415 1.54768 0
M  V30 404 C 39.6776 -0.312913 2.00068 0
M  V30 405 C 40.0056 -1.54171 1.18582 0
M  V30 406 O 39.2606 -1.94108 0.249133 0
M  V30 407 C 39.5596 -0.717561 3.50123 0
M  V30 408 C 39.2256 0.409095 4.4904 0
M  V30 409 C 37.8876 0.718399 4.75807 0
M  V30 410 C 40.2396 1.16717 5.07963 0
M  V30 411 C 37.5676 1.78896 5.5876 0
M  V30 412 C 39.9196 2.22762 5.92081 0
M  V30 413 C 38.5836 2.54303 6.1716 0
M  V30 414 H 37.8536 -0.114503 0.7321 0
M  V30 415 H 40.5006 0.415767 1.86932 0
M  V30 416 H 38.8056 -1.52627 3.60849 0
M  V30 417 H 40.5026 -1.20091 3.82595 0
M  V30 418 H 37.0926 0.157918 4.28309 0
M  V30 419 H 41.2766 0.941466 4.87289 0
M  V30 420 H 36.5326 2.0381 5.7643 0
M  V30 421 H 40.7066 2.81962 6.36765 0
M  V30 422 H 38.3336 3.3739 6.81229 0
M  V30 423 N 39.9087 -1.5758 0.0250728 0
M  V30 424 C 40.8187 -2.1343 -0.973905 0
M  V30 425 C 41.8347 -1.08556 -1.35984 0
M  V30 426 O 43.0107 -1.40592 -1.44207 0
M  V30 427 C 40.0757 -2.64703 -2.23904 0
M  V30 428 C 39.1367 -3.84276 -1.91391 0
M  V30 429 C 38.3697 -4.33095 -3.11873 0
M  V30 430 O 38.5927 -3.81107 -4.24398 0
M  V30 431 O 37.5267 -5.24984 -2.94406 0
M  V30 432 H 41.3527 -2.99057 -0.529036 0
M  V30 433 H 38.9377 -1.48118 -0.195288 0
M  V30 434 H 40.8197 -2.97769 -2.98181 0
M  V30 435 H 39.4947 -1.82161 -2.6758 0
M  V30 436 H 38.4017 -3.56143 -1.14511 0
M  V30 437 H 39.7347 -4.67968 -1.52534 0
M  V30 438 N 41.3868 0.248026 -1.55636 0
M  V30 439 C 42.3498 1.29044 -1.89421 0
M  V30 440 C 43.3498 1.41134 -0.770581 0
M  V30 441 O 44.5398 1.39854 -1.03858 0
M  V30 442 C 41.6718 2.66831 -2.12165 0
M  V30 443 H 42.8648 1.00305 -2.82629 0
M  V30 444 H 40.4178 0.487265 -1.48511 0
M  V30 445 H 41.1528 3.00711 -1.21422 0
M  V30 446 H 40.9378 2.59438 -2.93997 0
M  V30 447 H 42.4278 3.42103 -2.3949 0
M  V30 448 N 42.8649 1.48995 0.513639 0
M  V30 449 C 44.2759 1.5119 1.09537 0
M  V30 450 C 44.6269 0.290906 1.94031 0
M  V30 451 O 43.7519 -0.60049 2.07902 0
M  V30 452 C 44.3469 2.73964 1.99322 0
M  V30 453 C 42.9059 2.78978 2.52682 0
M  V30 454 C 42.0529 2.44934 1.30009 0
M  V30 455 H 45.0039 1.55875 0.298125 0
M  V30 456 H 45.0249 2.53409 2.83838 0
M  V30 457 H 44.5369 3.62813 1.37799 0
M  V30 458 H 42.6379 1.94378 3.1788 0
M  V30 459 H 42.7509 3.8083 2.90698 0
M  V30 460 H 41.1149 1.9644 1.62122 0
M  V30 461 H 41.8979 3.36043 0.702131 0
M  V30 462 N 44.343 -0.763751 1.37857 0
M  V30 463 C 45.591 -1.51957 1.33243 0
M  V30 464 C 45.912 -1.94835 -0.0801709 0
M  V30 465 O 45.182 -1.66894 -1.02582 0
M  V30 466 H 43.762 -0.563626 0.49024 0
M  V30 467 H 46.424 -0.908504 1.7243 0
M  V30 468 H 45.52 -2.41523 1.97669 0
M  V30 469 N 45.8211 -1.22559 -0.990812 0
M  V30 470 C 47.0671 -1.05297 -1.73322 0
M  V30 471 C 47.4001 0.410655 -1.89808 0
M  V30 472 O 46.6751 1.30439 -1.44277 0
M  V30 473 C 46.9581 -1.76713 -3.13759 0
M  V30 474 C 46.8111 -3.30684 -3.04907 0
M  V30 475 C 48.1301 -1.52121 -4.12974 0
M  V30 476 H 45.2491 -0.38392 -0.629106 0
M  V30 477 H 47.8911 -1.50926 -1.15418 0
M  V30 478 H 46.0411 -1.37924 -3.63193 0
M  V30 479 H 47.7131 -3.7893 -2.63077 0
M  V30 480 H 45.9561 -3.60253 -2.41661 0
M  V30 481 H 46.6271 -3.75833 -4.04294 0
M  V30 482 H 49.1031 -1.85819 -3.72304 0
M  V30 483 H 47.9791 -2.04582 -5.0935 0
M  V30 484 H 48.2401 -0.454257 -4.3976 0
M  V30 485 N 47.2992 1.18797 -1.03562 0
M  V30 486 C 48.7152 1.40671 -0.753917 0
M  V30 487 C 48.9152 1.9043 0.658686 0
M  V30 488 O 47.9712 2.08538 1.42366 0
M  V30 489 C 49.2842 2.41192 -1.79574 0
M  V30 490 C 50.8322 2.54928 -1.81606 0
M  V30 491 C 51.3072 3.58709 -2.84766 0
M  V30 492 N 52.7982 3.66212 -2.83625 0
M  V30 493 C 53.5332 4.46225 -3.60098 0
M  V30 494 N 53.0292 5.29888 -4.46308 0
M  V30 495 N 54.8222 4.40939 -3.4861 0
M  V30 496 H 46.9732 0.848221 -1.94728 0
M  V30 497 H 49.2362 0.435081 -0.842264 0
M  V30 498 H 48.9422 2.11669 -2.80872 0
M  V30 499 H 48.8162 3.40467 -1.62365 0
M  V30 500 H 51.2032 2.83771 -0.809817 0
M  V30 501 H 51.2842 1.55784 -2.02891 0
M  V30 502 H 50.9282 3.30607 -3.85566 0
M  V30 503 H 50.8582 4.57519 -2.60737 0
M  V30 504 H 53.3492 3.06466 -2.21105 0
M  V30 505 H 53.6622 5.88078 -5.01382 0
M  V30 506 H 52.0072 5.29326 -4.50377 0
M  V30 507 H 55.1982 3.74624 -2.80668 0
M  V30 508 H 55.3712 5.03056 -4.08459 0
M  V30 509 N 48.7773 0.814389 1.34928 0
M  V30 510 C 50.0253 0.397636 1.9815 0
M  V30 511 C 50.3463 -1.04069 1.64908 0
M  V30 512 O 49.6163 -1.72121 0.93548 0
M  V30 513 H 48.1963 0.144043 0.732981 0
M  V30 514 H 50.8583 1.04195 1.6471 0
M  V30 515 H 49.9543 0.509688 3.0791 0
M  V30 516 N 50.2554 -1.46986 0.568584 0
M  V30 517 C 51.4804 -2.07335 0.0520528 0
M  V30 518 C 51.9054 -1.41675 -1.23733 0
M  V30 519 O 51.2634 -0.495623 -1.74394 0
M  V30 520 C 51.3114 -3.60417 -0.11501 0
M  V30 521 O 50.4154 -3.95309 -1.17492 0
M  V30 522 H 49.7564 -0.661597 0.0564385 0
M  V30 523 H 52.2864 -1.88837 0.787507 0
M  V30 524 H 52.2964 -4.06698 -0.325644 0
M  V30 525 H 50.9714 -4.07601 0.826675 0
M  V30 526 H 49.5484 -3.60757 -0.943869 0
M  V30 527 N 51.7335 -0.305618 -1.54608 0
M  V30 528 C 52.9615 0.304775 -2.04643 0
M  V30 529 C 53.3765 1.47167 -1.18268 0
M  V30 530 O 52.7335 1.81296 -0.209328 0
M  V30 531 C 52.7845 0.756564 -3.53495 0
M  V30 532 O 52.5055 -0.36389 -4.36586 0
M  V30 533 C 54.0065 1.43163 -4.19546 0
M  V30 534 H 51.2265 0.0655481 -0.667791 0
M  V30 535 H 53.7705 -0.446592 -1.99564 0
M  V30 536 H 51.9255 1.45794 -3.58919 0
M  V30 537 H 52.3395 -0.0113121 -5.24499 0
M  V30 538 H 53.8135 1.69886 -5.25207 0
M  V30 539 H 54.2905 2.37318 -3.69563 0
M  V30 540 H 54.8965 0.773307 -4.18211 0
M  V30 541 N 53.2116 1.57565 -0.0334293 0
M  V30 542 C 54.1586 2.10478 0.946981 0
M  V30 543 C 55.1286 1.00787 1.32027 0
M  V30 544 O 56.3136 1.28232 1.41284 0
M  V30 545 C 53.4536 2.63994 2.22263 0
M  V30 546 C 52.5666 3.87709 1.90541 0
M  V30 547 C 51.7016 4.29604 3.12433 0
M  V30 548 C 50.7406 5.46065 2.76549 0
M  V30 549 N 49.8776 5.83096 3.9108 0
M  V30 550 H 54.7176 2.93963 0.488846 0
M  V30 551 H 52.2546 1.45296 0.22969 0
M  V30 552 H 54.2126 2.93114 2.96884 0
M  V30 553 H 52.8426 1.83333 2.65685 0
M  V30 554 H 51.8946 3.65291 1.06144 0
M  V30 555 H 53.2066 4.72403 1.60116 0
M  V30 556 H 52.3606 4.60182 3.9537 0
M  V30 557 H 51.0996 3.43685 3.46023 0
M  V30 558 H 50.1046 5.15176 1.92026 0
M  V30 559 H 51.3296 6.33685 2.44171 0
M  V30 560 H 49.2756 5.00132 4.24504 0
M  V30 561 H 49.1926 6.6244 3.64293 0
M  V30 562 H 50.4606 6.18282 4.74708 0
M  V30 563 N 54.6897 -0.239769 1.55765 0
M  V30 564 C 55.9177 -0.98417 1.81994 0
M  V30 565 C 56.3327 -1.7867 0.610124 0
M  V30 566 O 55.6897 -1.77571 -0.421271 0
M  V30 567 C 55.7407 -1.91635 3.06526 0
M  V30 568 O 55.4617 -1.14629 4.22838 0
M  V30 569 C 56.9627 -2.77616 3.45607 0
M  V30 570 H 54.1827 -0.28928 0.605441 0
M  V30 571 H 56.7267 -0.260499 2.02834 0
M  V30 572 H 54.8817 -2.5942 2.87715 0
M  V30 573 H 55.2957 -1.77745 4.93464 0
M  V30 574 H 56.7697 -3.38759 4.35828 0
M  V30 575 H 57.2467 -3.4909 2.6652 0
M  V30 576 H 57.8527 -2.15271 3.66795 0
M  V30 577 N 56.1678 -1.49265 -0.50573 0
M  V30 578 C 57.0978 -1.68495 -1.61653 0
M  V30 579 C 58.0788 -0.53366 -1.61512 0
M  V30 580 O 59.2638 -0.76897 -1.78327 0
M  V30 581 C 56.3938 -1.74709 -3.00157 0
M  V30 582 C 55.3478 -2.89581 -3.15162 0
M  V30 583 C 54.6738 -2.80903 -4.5497 0
M  V30 584 C 55.9738 -4.30578 -2.95634 0
M  V30 585 H 57.6678 -2.61493 -1.45814 0
M  V30 586 H 55.2138 -1.25838 -0.70005 0
M  V30 587 H 57.1668 -1.86748 -3.77761 0
M  V30 588 H 55.8908 -0.783067 -3.17074 0
M  V30 589 H 54.5498 -2.77136 -2.39982 0
M  V30 590 H 54.1978 -1.82419 -4.68756 0
M  V30 591 H 53.8978 -3.57999 -4.65951 0
M  V30 592 H 55.4218 -2.94944 -5.34641 0
M  V30 593 H 56.8358 -4.4373 -3.63011 0
M  V30 594 H 55.2328 -5.0886 -3.18091 0
M  V30 595 H 56.3028 -4.45352 -1.91806 0
M  V30 596 N 57.6459 0.756429 -1.3826 0
M  V30 597 C 58.8939 1.51248 -1.34047 0
M  V30 598 C 59.2149 1.94875 0.0698372 0
M  V30 599 O 58.4849 1.67436 1.01696 0
M  V30 600 H 57.0649 0.561018 -0.493222 0
M  V30 601 H 59.7269 0.899347 -1.7291 0
M  V30 602 H 58.8229 2.40472 -1.98947 0
M  V30 603 N 59.124 1.23083 0.984299 0
M  V30 604 C 60.034 1.02515 2.11016 0
M  V30 605 C 61.05 -0.0291702 1.73976 0
M  V30 606 O 62.226 0.165434 2.00719 0
M  V30 607 C 59.291 0.614673 3.41208 0
M  V30 608 C 58.352 1.74359 3.92297 0
M  V30 609 C 57.585 1.35261 5.16275 0
M  V30 610 O 57.808 0.235136 5.69915 0
M  V30 611 O 56.742 2.17227 5.61334 0
M  V30 612 H 60.568 1.96862 2.31255 0
M  V30 613 H 58.153 1.01753 1.09392 0
M  V30 614 H 60.035 0.396518 4.1953 0
M  V30 615 H 58.71 -0.299851 3.22308 0
M  V30 616 H 57.617 2.01635 3.1511 0
M  V30 617 H 58.95 2.63629 4.15645 0
M  V30 618 N 60.6021 -1.18246 1.0419 0
M  V30 619 C 61.5321 -2.24127 0.654914 0
M  V30 620 C 62.5131 -1.66617 -0.342451 0
M  V30 621 O 63.6981 -1.92924 -0.222277 0
M  V30 622 C 60.8281 -3.47295 0.0183757 0
M  V30 623 C 59.7821 -4.17563 0.939414 0
M  V30 624 C 59.1081 -5.34438 0.167286 0
M  V30 625 C 60.4081 -4.70917 2.25908 0
M  V30 626 H 62.1021 -2.56753 1.54007 0
M  V30 627 H 59.6481 -1.23414 0.74195 0
M  V30 628 H 61.6011 -4.20572 -0.264082 0
M  V30 629 H 60.3251 -3.13907 -0.901664 0
M  V30 630 H 58.9841 -3.46186 1.20628 0
M  V30 631 H 58.6321 -4.97298 -0.7552 0
M  V30 632 H 58.3321 -5.82388 0.780901 0
M  V30 633 H 59.8561 -6.10504 -0.108125 0
M  V30 634 H 61.2701 -5.35882 2.03724 0
M  V30 635 H 59.6671 -5.29406 2.82577 0
M  V30 636 H 60.7371 -3.88272 2.9047 0
M  V30 637 N 62.0802 -0.821533 -1.34494 0
M  V30 638 C 63.0102 -0.257138 -2.3208 0
M  V30 639 C 63.9912 0.625645 -1.58176 0
M  V30 640 O 65.1762 0.552811 -1.86166 0
M  V30 641 C 62.3062 0.582958 -3.42372 0
M  V30 642 C 61.2602 -0.202571 -4.2752 0
M  V30 643 C 60.5862 0.760179 -5.29269 0
M  V30 644 C 61.8862 -1.40998 -5.02908 0
M  V30 645 H 63.5802 -1.07247 -2.79532 0
M  V30 646 H 61.1262 -0.517163 -1.34393 0
M  V30 647 H 63.0792 0.987972 -4.09655 0
M  V30 648 H 61.8032 1.43133 -2.93565 0
M  V30 649 H 60.4622 -0.588936 -3.61838 0
M  V30 650 H 60.1102 1.60447 -4.76724 0
M  V30 651 H 59.8102 0.238809 -5.87115 0
M  V30 652 H 61.3342 1.16308 -5.9942 0
M  V30 653 H 62.7482 -1.07905 -5.63054 0
M  V30 654 H 61.1452 -1.86689 -5.70322 0
M  V30 655 H 62.2152 -2.1889 -4.32684 0
M  V30 656 N 63.5583 1.46682 -0.576371 0
M  V30 657 C 64.8353 1.95599 0.00703437 0
M  V30 658 C 65.2153 1.51904 1.46589 0
M  V30 659 O 64.5633 0.766755 2.15251 0
M  V30 660 C 64.7733 3.4864 -0.158404 0
M  V30 661 C 66.1213 4.24594 -0.0229439 0
M  V30 662 O 67.1453 3.56094 -0.0869173 0
M  V30 663 O 66.0043 5.46373 0.118015 0
M  V30 664 H 63.0983 0.825275 0.053384 0
M  V30 665 H 65.6443 1.56996 -0.644244 0
M  V30 666 H 64.4163 3.7331 -1.17282 0
M  V30 667 H 64.0393 3.94057 0.5296 0
M  V30 668 N 65.0364 0.313813 1.54444 0
M  V30 669 C 66.2644 -0.293918 2.04802 0
M  V30 670 C 66.6794 -1.46537 1.19047 0
M  V30 671 O 66.0364 -1.81182 0.218939 0
M  V30 672 C 66.0874 -0.737806 3.53891 0
M  V30 673 O 65.8084 0.387038 4.36387 0
M  V30 674 C 67.3094 -1.40936 4.203 0
M  V30 675 H 64.5294 -0.0620057 0.668129 0
M  V30 676 H 67.0734 0.457169 1.99324 0
M  V30 677 H 65.2284 -1.43889 3.59687 0
M  V30 678 H 65.6424 0.0391274 5.24485 0
M  V30 679 H 67.1164 -1.67099 5.26101 0
M  V30 680 H 67.5934 -2.35355 3.70816 0
M  V30 681 H 68.1994 -0.751117 4.18615 0
M  V30 682 N 66.5145 -1.57545 0.0417849 0
M  V30 683 C 67.7625 -1.91937 -0.632829 0
M  V30 684 C 68.0835 -0.919978 -1.71934 0
M  V30 685 O 67.3535 0.0366064 -1.95866 0
M  V30 686 H 65.9335 -0.708493 -0.236742 0
M  V30 687 H 68.5955 -1.9468 0.0925745 0
M  V30 688 H 67.6915 -2.92912 -1.07746 0
M  V30 689 N 67.9926 0.231505 -1.5589 0
M  V30 690 C 69.2206 0.974505 -1.82513 0
M  V30 691 C 69.6356 1.78344 -0.619591 0
M  V30 692 O 68.9926 1.77792 0.411848 0
M  V30 693 C 69.0436 1.90007 -3.07538 0
M  V30 694 O 68.7646 1.12385 -4.2344 0
M  V30 695 C 70.2656 2.75779 -3.47075 0
M  V30 696 H 67.4856 0.286065 -0.606966 0
M  V30 697 H 70.0296 0.249739 -2.02969 0
M  V30 698 H 68.1846 2.57891 -2.89086 0
M  V30 699 H 68.5986 1.75125 -4.944 0
M  V30 700 H 70.0726 3.36443 -4.37619 0
M  V30 701 H 70.5496 3.47672 -2.68367 0
M  V30 702 H 71.1556 2.13323 -3.67931 0
M  V30 703 N 69.4707 1.49531 0.497807 0
M  V30 704 C 70.3807 1.69176 1.62532 0
M  V30 705 C 71.3967 0.5744 1.64246 0
M  V30 706 O 72.5727 0.849497 1.82608 0
M  V30 707 C 69.6377 1.75695 2.98885 0
M  V30 708 C 68.6987 2.9929 3.07773 0
M  V30 709 C 67.9317 3.05488 4.37622 0
M  V30 710 O 68.1547 2.19192 5.26603 0
M  V30 711 O 67.0887 3.9798 4.51548 0
M  V30 712 H 70.9147 2.647 1.48887 0
M  V30 713 H 68.4997 1.3331 0.674441 0
M  V30 714 H 70.3817 1.82317 3.79919 0
M  V30 715 H 69.0567 0.8335 3.12785 0
M  V30 716 H 67.9637 2.98183 2.25915 0
M  V30 717 H 69.2967 3.91125 2.98801 0
M  V30 718 N 70.9488 -0.749086 1.3866 0
M  V30 719 C 71.8788 -1.8764 1.38973 0
M  V30 720 C 72.8598 -1.68178 0.255004 0
M  V30 721 O 74.0448 -1.88704 0.458754 0
M  V30 722 C 71.1748 -3.25222 1.21851 0
M  V30 723 C 70.1288 -3.59295 2.32575 0
M  V30 724 C 69.4548 -4.95663 2.00555 0
M  V30 725 C 70.7548 -3.63709 3.7485 0
M  V30 726 H 72.4488 -1.87635 2.3331 0
M  V30 727 H 69.9948 -0.901329 1.12303 0
M  V30 728 H 71.9478 -4.03746 1.20695 0
M  V30 729 H 70.6718 -3.25719 0.239775 0
M  V30 730 H 69.3308 -2.83093 2.32925 0
M  V30 731 H 68.9788 -4.92724 1.01154 0
M  V30 732 H 68.6788 -5.19429 2.74714 0
M  V30 733 H 70.2028 -5.7656 2.01024 0
M  V30 734 H 71.6168 -4.32338 3.76506 0
M  V30 735 H 70.0138 -3.98986 4.48252 0
M  V30 736 H 71.0838 -2.63834 4.06841 0
M  V30 737 N 72.4269 -1.23603 -0.977757 0
M  V30 738 C 73.8379 -1.06424 -1.53398 0
M  V30 739 C 74.1889 0.367578 -1.92726 0
M  V30 740 O 73.3139 1.25465 -1.76316 0
M  V30 741 C 73.9089 -1.92568 -2.78753 0
M  V30 742 C 72.4679 -1.79642 -3.30765 0
M  V30 743 C 71.6149 -1.88111 -2.03739 0
M  V30 744 H 74.5659 -1.37227 -0.797152 0
M  V30 745 H 74.5869 -1.45203 -3.51705 0
M  V30 746 H 74.0989 -2.96771 -2.50098 0
M  V30 747 H 72.1999 -0.782325 -3.64294 0
M  V30 748 H 72.3129 -2.63174 -4.00345 0
M  V30 749 H 70.6769 -1.31723 -2.17994 0
M  V30 750 H 71.4599 -2.93875 -1.77461 0
M  V30 751 N 73.905 1.17692 -1.04816 0
M  V30 752 C 75.321 1.39863 -0.768794 0
M  V30 753 C 75.521 1.91118 0.638451 0
M  V30 754 O 74.577 2.10036 1.40146 0
M  V30 755 C 75.89 2.39274 -1.82122 0
M  V30 756 C 77.438 2.52987 -1.843 0
M  V30 757 C 77.913 3.55669 -2.88555 0
M  V30 758 N 79.404 3.63183 -2.87493 0
M  V30 759 C 80.139 4.42381 -3.64811 0
M  V30 760 N 79.635 5.25125 -4.51903 0
M  V30 761 N 81.428 4.37217 -3.53267 0
M  V30 762 H 73.579 0.82752 -1.95617 0
M  V30 763 H 75.842 0.426123 -0.846831 0
M  V30 764 H 75.548 2.08678 -2.83102 0
M  V30 765 H 75.422 3.38725 -1.65967 0
M  V30 766 H 77.809 2.82896 -0.839869 0
M  V30 767 H 77.89 1.53623 -2.04532 0
M  V30 768 H 77.534 3.26499 -3.89051 0
M  V30 769 H 77.464 4.54728 -2.65575 0
M  V30 770 H 79.955 3.04103 -2.24343 0
M  V30 771 H 80.268 5.82728 -5.07591 0
M  V30 772 H 78.613 5.24519 -4.55966 0
M  V30 773 H 81.804 3.71626 -2.84625 0
M  V30 774 H 81.977 4.98696 -4.13771 0
M  V30 775 N 75.3831 0.828654 1.34056 0
M  V30 776 C 76.3461 0.259927 2.27721 0
M  V30 777 C 77.3461 -0.565478 1.50529 0
M  V30 778 O 78.5361 -0.38075 1.69988 0
M  V30 779 C 75.6681 -0.634944 3.34935 0
M  V30 780 H 76.8611 1.0863 2.79534 0
M  V30 781 H 74.4141 0.600951 1.44285 0
M  V30 782 H 75.1491 -1.48416 2.88346 0
M  V30 783 H 74.9341 -0.0444999 3.92075 0
M  V30 784 H 76.4241 -1.02648 4.04788 0
M  V30 785 N 76.8612 -1.46375 0.584142 0
M  V30 786 C 78.1102 -2.01585 0.0679741 0
M  V30 787 C 78.4232 -1.46109 -1.30045 0
M  V30 788 O 79.6292 -1.93148 -1.90804 0
M  V30 789 C 78.0852 -3.5983 0.0709207 0
M  V30 790 C 77.6932 -4.24303 1.43775 0
M  V30 791 C 79.4372 -4.22693 -0.391228 0
M  V30 792 C 77.3442 -5.74631 1.39834 0
M  V30 793 H 76.2742 -0.753689 0.0216421 0
M  V30 794 H 78.9252 -1.68093 0.736001 0
M  V30 795 H 77.3072 -3.90405 -0.663299 0
M  V30 796 H 78.4812 -4.05335 2.19181 0
M  V30 797 H 76.7962 -3.73539 1.84004 0
M  V30 798 H 79.3932 -5.3289 -0.439524 0
M  V30 799 H 79.7362 -3.91728 -1.40906 0
M  V30 800 H 80.2692 -3.96749 0.288974 0
M  V30 801 H 77.0082 -6.10258 2.39303 0
M  V30 802 H 76.5282 -5.95858 0.686505 0
M  V30 803 H 78.2072 -6.37375 1.11187 0
M  V30 804 N 78.3393 -0.321999 -1.54275 0
M  V30 805 C 79.7553 0.0306999 -1.5957 0
M  V30 806 C 79.9553 1.50614 -1.33857 0
M  V30 807 O 79.0113 2.2619 -1.12223 0
M  V30 808 C 80.3243 -0.386122 -2.98211 0
M  V30 809 C 81.8723 -0.336647 -3.11184 0
M  V30 810 C 82.3473 -0.728607 -4.52167 0
M  V30 811 N 83.8383 -0.681952 -4.58152 0
M  V30 812 C 84.5733 -0.957449 -5.6535 0
M  V30 813 N 84.0693 -1.3 -6.80494 0
M  V30 814 N 85.8623 -0.883113 -5.55119 0
M  V30 815 H 78.0133 -1.28332 -1.69247 0
M  V30 816 H 80.2763 -0.521716 -0.791528 0
M  V30 817 H 79.9823 -1.41404 -3.22022 0
M  V30 818 H 79.8563 0.249662 -3.76373 0
M  V30 819 H 82.2433 0.682058 -2.8711 0
M  V30 820 H 82.3243 -1.00734 -2.3513 0
M  V30 821 H 81.9683 -1.74522 -4.76974 0
M  V30 822 H 81.8983 -0.0356152 -5.26588 0
M  V30 823 H 84.3893 -0.428985 -3.75457 0
M  V30 824 H 84.7023 -1.49563 -7.58189 0
M  V30 825 H 83.0473 -1.33824 -6.81994 0
M  V30 826 H 86.2383 -0.615001 -4.64042 0
M  V30 827 H 86.4113 -1.10118 -6.38575 0
M  V30 828 N 79.8174 1.5752 -0.0501392 0
M  V30 829 C 81.0574 1.94521 0.627783 0
M  V30 830 C 81.4214 0.928265 1.68069 0
M  V30 831 O 82.6224 1.18517 2.41261 0
M  V30 832 C 80.8934 3.36319 1.20932 0
M  V30 833 S 82.4524 3.95272 1.90539 0
M  V30 834 H 79.2704 0.680456 0.206158 0
M  V30 835 H 81.8724 1.95139 -0.118829 0
M  V30 836 H 80.5764 4.08132 0.430865 0
M  V30 837 H 80.1074 3.39193 1.99277 0
M  V30 838 H 82.1224 3.80415 3.18589 0
M  V30 839 N 81.2955 -0.223234 1.56011 0
M  V30 840 C 82.2255 -1.27988 1.95298 0
M  V30 841 C 83.2065 -1.48976 0.820979 0
M  V30 842 O 84.3915 -1.61188 1.08315 0
M  V30 843 C 81.5215 -2.63 2.26822 0
M  V30 844 C 80.4755 -2.56671 3.42497 0
M  V30 845 C 79.8015 -3.95697 3.59622 0
M  V30 846 C 81.1015 -2.11601 4.77517 0
M  V30 847 H 82.7955 -0.953525 2.8381 0
M  V30 848 H 80.3415 -0.457244 1.36548 0
M  V30 849 H 82.2945 -3.37077 2.52898 0
M  V30 850 H 81.0185 -2.9732 1.35161 0
M  V30 851 H 79.6775 -1.85051 3.16467 0
M  V30 852 H 79.3255 -4.27322 2.6534 0
M  V30 853 H 79.0255 -3.92345 4.37424 0
M  V30 854 H 80.5495 -4.71438 3.88044 0
M  V30 855 H 81.9635 -2.7542 5.02809 0
M  V30 856 H 80.3605 -2.19311 5.5859 0
M  V30 857 H 81.4305 -1.06824 4.72987 0
M  V30 858 N 82.7736 -1.49793 -0.48987 0
M  V30 859 C 84.0036 -1.6333 -1.26518 0
M  V30 860 C 84.4116 -0.308392 -1.8667 0
M  V30 861 O 83.7546 0.717512 -1.69108 0
M  V30 862 C 83.8166 -2.6522 -2.4269 0
M  V30 863 C 83.4806 -4.09279 -2.03321 0
M  V30 864 C 84.4776 -4.95738 -1.56652 0
M  V30 865 C 82.1626 -4.55082 -2.12616 0
M  V30 866 C 84.1566 -6.26041 -1.19795 0
M  V30 867 C 81.8436 -5.85396 -1.75371 0
M  V30 868 C 82.8416 -6.707 -1.29036 0
M  V30 869 O 82.5296 -7.98584 -0.92299 0
M  V30 870 H 82.2616 -0.552502 -0.389509 0
M  V30 871 H 84.8156 -1.96642 -0.593381 0
M  V30 872 H 83.0456 -2.27112 -3.12981 0
M  V30 873 H 84.7346 -2.68171 -3.04695 0
M  V30 874 H 85.5006 -4.61575 -1.48908 0
M  V30 875 H 81.3796 -3.88844 -2.47631 0
M  V30 876 H 84.9236 -6.92578 -0.835582 0
M  V30 877 H 80.8206 -6.19085 -1.82768 0
M  V30 878 H 81.5886 -8.11692 -1.05349 0
M  V30 879 N 84.2517 0.741722 -1.39055 0
M  V30 880 C 85.4767 1.53607 -1.39354 0
M  V30 881 C 85.9017 1.88096 0.0116905 0
M  V30 882 O 85.2597 1.5143 0.996924 0
M  V30 883 C 85.3077 2.80441 -2.26682 0
M  V30 884 O 84.4117 3.76088 -1.69208 0
M  V30 885 H 83.7527 0.464142 -0.474835 0
M  V30 886 H 86.2827 0.915665 -1.82967 0
M  V30 887 H 86.2927 3.29246 -2.40959 0
M  V30 888 H 84.9677 2.5467 -3.2881 0
M  V30 889 H 83.5447 3.34833 -1.64138 0
M  V30 890 N 85.7298 1.2412 0.971189 0
M  V30 891 C 87.1458 1.00584 1.23916 0
M  V30 892 C 87.3458 -0.287481 1.99439 0
M  V30 893 O 86.4018 -1.00454 2.31658 0
M  V30 894 C 87.7148 2.21864 2.0297 0
M  V30 895 C 89.2628 2.26452 2.16076 0
M  V30 896 C 89.7378 3.47343 2.98524 0
M  V30 897 N 91.2288 3.47639 3.06107 0
M  V30 898 C 91.9638 4.37837 3.70251 0
M  V30 899 N 91.4598 5.38286 4.36142 0
M  V30 900 N 93.2528 4.25558 3.67228 0
M  V30 901 H 85.4038 2.07236 0.465499 0
M  V30 902 H 87.6668 0.909236 0.268315 0
M  V30 903 H 87.3728 3.15771 1.54861 0
M  V30 904 H 87.2468 2.23698 3.03709 0
M  V30 905 H 89.6338 1.33078 2.6339 0
M  V30 906 H 89.7148 2.28645 1.14696 0
M  V30 907 H 89.3588 4.41029 2.51905 0
M  V30 908 H 89.2888 3.42393 4.00093 0
M  V30 909 H 91.7798 2.74966 2.59233 0
M  V30 910 H 92.0928 6.03352 4.82894 0
M  V30 911 H 90.4378 5.42176 4.34822 0
M  V30 912 H 93.6288 3.46322 3.14927 0
M  V30 913 H 93.8018 4.96054 4.16935 0
M  V30 914 N 87.2079 -1.17134 1.05439 0
M  V30 915 C 88.4479 -1.89137 0.77502 0
M  V30 916 C 88.8119 -1.79345 -0.685526 0
M  V30 917 O 90.0129 -2.46188 -1.0791 0
M  V30 918 C 88.2839 -3.35003 1.2453 0
M  V30 919 S 89.8429 -4.24952 1.09367 0
M  V30 920 H 86.6609 -0.652949 0.281387 0
M  V30 921 H 89.2629 -1.4145 1.34953 0
M  V30 922 H 87.9669 -3.39666 2.30338 0
M  V30 923 H 87.4979 -3.87736 0.665166 0
M  V30 924 H 89.5129 -4.96196 0.0193397 0
M  V30 925 N 88.686 -0.835752 -1.33615 0
M  V30 926 C 89.926 -0.43599 -1.99696 0
M  V30 927 C 90.29 0.98557 -1.64774 0
M  V30 928 O 91.491 1.48889 -2.23798 0
M  V30 929 C 89.762 -0.646721 -3.515 0
M  V30 930 S 91.321 -0.341715 -4.37467 0
M  V30 931 H 88.139 -0.164136 -0.691795 0
M  V30 932 H 90.741 -1.08436 -1.62671 0
M  V30 933 H 89.445 -1.68077 -3.74404 0
M  V30 934 H 88.976 0.0159173 -3.93397 0
M  V30 935 H 90.991 0.839708 -4.89043 0
M  V30 936 N 90.1641 1.46063 -0.591896 0
M  V30 937 C 91.4111 2.02338 -0.0809991 0
M  V30 938 C 91.7391 1.46228 1.28249 0
M  V30 939 O 90.9941 0.620818 1.85592 0
M  V30 940 C 91.2931 3.57391 0.0249813 0
M  V30 941 C 90.9591 4.32583 -1.27211 0
M  V30 942 C 89.6211 4.52844 -1.62745 0
M  V30 943 C 91.9731 4.75687 -2.13005 0
M  V30 944 C 89.3011 5.13462 -2.83855 0
M  V30 945 C 91.6531 5.37644 -3.3335 0
M  V30 946 C 90.3171 5.5613 -3.69155 0
M  V30 947 H 89.5871 0.740407 -0.0296397 0
M  V30 948 H 92.2341 1.75321 -0.770374 0
M  V30 949 H 90.5391 3.83597 0.797537 0
M  V30 950 H 92.2361 3.98621 0.436184 0
M  V30 951 H 88.8261 4.17116 -0.985499 0
M  V30 952 H 93.0101 4.59782 -1.86855 0
M  V30 953 H 88.2661 5.25965 -3.11722 0
M  V30 954 H 92.4401 5.7 -4.00092 0
M  V30 955 H 90.0671 6.0287 -4.63089 0
M  V30 956 N 91.6422 0.330177 1.54103 0
M  V30 957 C 92.8902 -0.269871 2.0029 0
M  V30 958 C 93.2112 -1.52133 1.21986 0
M  V30 959 O 92.4812 -1.93212 0.323438 0
M  V30 960 H 91.0612 -0.10271 0.739905 0
M  V30 961 H 93.7232 0.448249 1.89675 0
M  V30 962 H 92.8192 -0.52166 3.07709 0
M  V30 963 N 93.1203 -1.57491 0.0584922 0
M  V30 964 C 94.3693 -1.92155 -0.613146 0
M  V30 965 C 94.6823 -0.939334 -1.71569 0
M  V30 966 O 95.8883 -1.17829 -2.44599 0
M  V30 967 C 94.3443 -3.41303 -1.14195 0
M  V30 968 C 93.9523 -4.47944 -0.0711265 0
M  V30 969 C 95.6963 -3.84988 -1.78841 0
M  V30 970 C 93.6033 -5.88212 -0.613225 0
M  V30 971 H 92.5333 -0.717162 -0.232796 0
M  V30 972 H 95.1843 -1.83049 0.12857 0
M  V30 973 H 93.5663 -3.45437 -1.93621 0
M  V30 974 H 94.7403 -4.55408 0.702836 0
M  V30 975 H 93.0553 -4.13644 0.478313 0
M  V30 976 H 95.6523 -4.87159 -2.20408 0
M  V30 977 H 95.9953 -3.21632 -2.64308 0
M  V30 978 H 96.5283 -3.83401 -1.06059 0
M  V30 979 H 93.2673 -6.55183 0.203978 0
M  V30 980 H 92.7873 -5.84294 -1.35501 0
M  V30 981 H 94.4663 -6.37687 -1.09383 0
M  V30 982 N 94.5984 0.214957 -1.56127 0
M  V30 983 C 95.8444 0.935325 -1.80619 0
M  V30 984 C 96.1994 1.81706 -0.632507 0
M  V30 985 O 95.4924 1.87931 0.373182 0
M  V30 986 C 95.6864 1.80314 -3.0858 0
M  V30 987 C 95.5154 1.00691 -4.38282 0
M  V30 988 C 94.2854 0.699211 -5.00439 0
M  V30 989 C 96.4834 0.369057 -5.12974 0
M  V30 990 N 94.4654 -0.117734 -6.13787 0
M  V30 991 C 95.8364 -0.310981 -6.1922 0
M  V30 992 C 97.8914 0.282759 -4.97096 0
M  V30 993 C 96.5944 -1.06907 -7.11311 0
M  V30 994 C 98.6204 -0.461881 -5.89594 0
M  V30 995 C 97.9824 -1.13044 -6.9527 0
M  V30 996 H 94.0814 0.322307 -0.71249 0
M  V30 997 H 96.6654 0.205649 -1.93611 0
M  V30 998 H 94.8364 2.50458 -2.96859 0
M  V30 999 H 96.5684 2.46148 -3.21237 0
M  V30 1000 H 93.3234 1.01884 -4.62511 0
M  V30 1001 H 93.7474 -0.515235 -6.75037 0
M  V30 1002 H 98.3894 0.785292 -4.15443 0
M  V30 1003 H 96.1074 -1.5831 -7.92442 0
M  V30 1004 H 99.6934 -0.529746 -5.79383 0
M  V30 1005 H 98.5734 -1.69742 -7.65609 0
M  V30 1006 N 96.0765 1.50051 0.48192 0
M  V30 1007 C 97.0245 1.68635 1.60203 0
M  V30 1008 C 98.0185 0.552184 1.60148 0
M  V30 1009 O 99.2245 0.732377 1.64427 0
M  V30 1010 H 95.5995 0.532081 0.531407 0
M  V30 1011 H 97.5705 2.62616 1.41688 0
M  V30 1012 C 96.3195 1.78775 2.9822 0
M  V30 1013 H 95.6425 2.6543 2.98976 0
M  V30 1014 H 97.0825 1.95806 3.7608 0
M  V30 1015 C 95.5415 0.536849 3.32595 0
M  V30 1016 O 96.0715 -0.328897 4.00351 0
M  V30 1017 N 94.2775 0.394091 2.87915 0
M  V30 1018 H 93.8245 1.09962 2.32951 0
M  V30 1019 H 93.7825 -0.441737 3.11281 0
M  V30 1020 N 97.5546 -0.734337 1.39446 0
M  V30 1021 C 98.4846 -1.86155 1.40955 0
M  V30 1022 C 99.4656 -1.67898 0.272827 0
M  V30 1023 O 100.651 -1.88207 0.478743 0
M  V30 1024 C 97.7806 -3.23912 1.25294 0
M  V30 1025 C 96.7346 -3.56808 2.36373 0
M  V30 1026 C 96.0606 -4.93508 2.058 0
M  V30 1027 C 97.3606 -3.59713 3.78687 0
M  V30 1028 H 99.0546 -1.8515 2.35287 0
M  V30 1029 H 96.6006 -0.889367 1.13253 0
M  V30 1030 H 98.5536 -4.02443 1.2497 0
M  V30 1031 H 97.2776 -3.25446 0.274308 0
M  V30 1032 H 95.9366 -2.80606 2.35914 0
M  V30 1033 H 95.5846 -4.91623 1.06374 0
M  V30 1034 H 95.2846 -5.16486 2.80208 0
M  V30 1035 H 96.8086 -5.74396 2.07128 0
M  V30 1036 H 98.2226 -4.2832 3.81071 0
M  V30 1037 H 96.6196 -3.94209 4.52459 0
M  V30 1038 H 97.6896 -2.59504 4.09617 0
M  V30 1039 N 99.0327 -1.24633 -0.964593 0
M  V30 1040 C 100.261 -1.11501 -1.74285 0
M  V30 1041 C 100.676 0.332165 -1.85855 0
M  V30 1042 O 100.033 1.22903 -1.34911 0
M  V30 1043 C 100.084 -1.75258 -3.16175 0
M  V30 1044 O 99.8047 -3.14318 -3.05182 0
M  V30 1045 C 101.306 -1.67776 -4.10324 0
M  V30 1046 H 98.5257 -0.389407 -0.546446 0
M  V30 1047 H 101.07 -1.64801 -1.21083 0
M  V30 1048 H 99.2247 -1.25954 -3.66353 0
M  V30 1049 H 99.6387 -3.4551 -3.94618 0
M  V30 1050 H 101.113 -2.17064 -5.0753 0
M  V30 1051 H 101.59 -0.639584 -4.34518 0
M  V30 1052 H 102.196 -2.16522 -3.66058 0
M  V30 1053 N 100.511 1.16574 -1.06058 0
M  V30 1054 C 101.443 2.2045 -0.627239 0
M  V30 1055 C 102.456 1.59752 0.313534 0
M  V30 1056 O 103.645 1.78192 0.104896 0
M  V30 1057 C 100.745 3.3875 0.100974 0
M  V30 1058 C 99.9178 4.29008 -0.852687 0
M  V30 1059 C 98.9768 5.25944 -0.164152 0
M  V30 1060 O 98.0028 5.63535 -0.801047 0
M  V30 1061 N 99.2048 5.70075 1.09518 0
M  V30 1062 H 101.97 2.58249 -1.52077 0
M  V30 1063 H 99.5308 1.3156 -0.943594 0
M  V30 1064 H 101.523 4.00638 0.57194 0
M  V30 1065 H 100.093 2.99476 0.89628 0
M  V30 1066 H 99.3128 3.64419 -1.50308 0
M  V30 1067 H 100.601 4.86195 -1.49972 0
M  V30 1068 H 99.9988 5.41624 1.6328 0
M  V30 1069 H 98.5558 6.34067 1.51006 0
M  V30 1070 N 101.989 0.842826 1.3317 0
M  V30 1071 C 103.266 0.362216 1.92217 0
M  V30 1072 C 103.646 -1.15289 1.76838 0
M  V30 1073 O 102.994 -1.96914 1.15919 0
M  V30 1074 C 103.204 0.813495 3.39387 0
M  V30 1075 C 104.552 0.823804 4.16532 0
M  V30 1076 O 105.576 0.757358 3.48055 0
M  V30 1077 O 104.435 0.915193 5.38782 0
M  V30 1078 H 101.529 0.103317 0.820521 0
M  V30 1079 H 104.075 0.928942 1.42017 0
M  V30 1080 H 102.847 1.85624 3.4447 0
M  V30 1081 H 102.47 0.223561 3.96971 0
M  V30 1082 N 103.467 -1.45747 0.599634 0
M  V30 1083 C 104.883 -1.57424 0.26264 0
M  V30 1084 C 105.083 -1.59222 -1.23493 0
M  V30 1085 O 104.139 -1.51825 -2.01756 0
M  V30 1086 C 105.452 -2.86061 0.926795 0
M  V30 1087 C 107 -2.99722 0.901967 0
M  V30 1088 C 107.475 -4.31119 1.54598 0
M  V30 1089 N 108.966 -4.37858 1.5111 0
M  V30 1090 C 109.701 -5.3818 1.97863 0
M  V30 1091 N 109.197 -6.45083 2.52666 0
M  V30 1092 N 110.99 -5.29487 1.88679 0
M  V30 1093 H 103.141 -1.42823 1.57211 0
M  V30 1094 H 105.404 -0.68235 0.658105 0
M  V30 1095 H 105.11 -2.90605 1.98095 0
M  V30 1096 H 104.984 -3.74563 0.445238 0
M  V30 1097 H 107.371 -2.9475 -0.143617 0
M  V30 1098 H 107.452 -2.12652 1.42171 0
M  V30 1099 H 107.096 -4.36849 2.59085 0
M  V30 1100 H 107.026 -5.16992 1.00132 0
M  V30 1101 H 109.517 -3.61209 1.11068 0
M  V30 1102 H 109.83 -7.17869 2.86155 0
M  V30 1103 H 108.175 -6.45856 2.56701 0
M  V30 1104 H 111.366 -4.44877 1.4561 0
M  V30 1105 H 111.539 -6.07524 2.25429 0
M  V30 1106 N 104.945 -0.338344 -1.53925 0
M  V30 1107 C 105.908 0.508299 -2.23493 0
M  V30 1108 C 106.908 1.03175 -1.23335 0
M  V30 1109 O 108.098 0.921826 -1.47811 0
M  V30 1110 C 105.23 1.70754 -2.95052 0
M  V30 1111 H 106.423 -0.100058 -2.99733 0
M  V30 1112 H 103.976 -0.0896198 -1.56043 0
M  V30 1113 H 104.711 2.35474 -2.22986 0
M  V30 1114 H 104.496 1.33946 -3.68512 0
M  V30 1115 H 105.986 2.30818 -3.48013 0
M  V30 1116 N 106.423 1.57458 -0.0668435 0
M  V30 1117 C 107.355 2.09413 0.931601 0
M  V30 1118 C 108.368 1.02522 1.26464 0
M  V30 1119 O 109.557 1.30049 1.22269 0
M  V30 1120 C 106.657 2.53537 2.24882 0
M  V30 1121 C 105.83 3.83944 2.09537 0
M  V30 1122 C 104.889 4.14214 3.2452 0
M  V30 1123 O 103.915 4.83891 2.9973 0
M  V30 1124 N 105.117 3.67367 4.49469 0
M  V30 1125 H 107.882 2.95699 0.488048 0
M  V30 1126 H 105.443 1.61462 0.119009 0
M  V30 1127 H 107.435 2.70853 3.00701 0
M  V30 1128 H 106.005 1.72415 2.60753 0
M  V30 1129 H 105.225 3.76057 1.18215 0
M  V30 1130 H 106.513 4.69312 1.96529 0
M  V30 1131 H 105.911 3.11068 4.72497 0
M  V30 1132 H 104.468 3.89891 5.2233 0
M  V30 1133 N 107.901 -0.206675 1.56239 0
M  V30 1134 C 109.147 -0.930218 1.80208 0
M  V30 1135 C 109.48 -1.83387 0.638981 0
M  V30 1136 O 108.755 -1.91119 -0.361066 0
M  V30 1137 C 109.038 -1.75641 3.1436 0
M  V30 1138 C 108.891 -0.878257 4.41142 0
M  V30 1139 C 110.21 -2.73129 3.45092 0
M  V30 1140 H 107.329 -0.336742 0.655571 0
M  V30 1141 H 109.971 -0.198222 1.88963 0
M  V30 1142 H 108.121 -2.38048 3.07027 0
M  V30 1143 H 109.793 -0.269787 4.6051 0
M  V30 1144 H 108.036 -0.184385 4.33408 0
M  V30 1145 H 108.707 -1.49106 5.3148 0
M  V30 1146 H 111.183 -2.20856 3.52649 0
M  V30 1147 H 110.059 -3.28028 4.40101 0
M  V30 1148 H 110.32 -3.51606 2.68003 0
M  V30 1149 N 109.379 -1.50304 -0.473955 0
M  V30 1150 C 110.289 -1.7174 -1.5982 0
M  V30 1151 C 111.305 -0.600457 -1.63311 0
M  V30 1152 O 112.481 -0.878441 -1.81233 0
M  V30 1153 C 109.546 -1.80427 -2.96052 0
M  V30 1154 C 108.607 -3.04148 -3.02972 0
M  V30 1155 C 107.84 -3.12411 -4.32706 0
M  V30 1156 O 108.063 -2.27542 -5.23049 0
M  V30 1157 O 106.997 -4.05113 -4.45159 0
M  V30 1158 H 110.823 -2.67035 -1.44657 0
M  V30 1159 H 108.408 -1.34366 -0.653148 0
M  V30 1160 H 110.29 -1.88338 -3.7697 0
M  V30 1161 H 108.965 -0.883156 -3.11419 0
M  V30 1162 H 107.872 -3.0174 -2.21142 0
M  V30 1163 H 109.205 -3.95829 -2.92541 0
M  V30 1164 N 110.857 0.726932 -1.39834 0
M  V30 1165 C 111.79 1.8501 -1.33592 0
M  V30 1166 C 112.768 1.61262 -0.208191 0
M  V30 1167 O 113.952 1.84422 -0.389981 0
M  V30 1168 C 111.079 3.21143 -1.07633 0
M  V30 1169 C 110.125 3.63737 -2.22705 0
M  V30 1170 S 110.958 3.72167 -3.85035 0
M  V30 1171 C 112.114 5.11077 -3.61318 0
M  V30 1172 H 112.347 1.90022 -2.28646 0
M  V30 1173 H 109.88 0.892595 -1.25985 0
M  V30 1174 H 111.838 3.99747 -0.933415 0
M  V30 1175 H 110.499 3.13776 -0.142526 0
M  V30 1176 H 109.692 4.62551 -2.00155 0
M  V30 1177 H 109.294 2.9236 -2.33242 0
M  V30 1178 H 111.586 5.97656 -3.19083 0
M  V30 1179 H 112.529 5.38658 -4.59623 0
M  V30 1180 H 112.937 4.81135 -2.95245 0
M  V30 1181 N 112.336 1.25143 0.95797 0
M  V30 1182 C 113.268 1.01023 2.05735 0
M  V30 1183 C 114.281 -0.0236902 1.62783 0
M  V30 1184 O 115.47 0.21448 1.77207 0
M  V30 1185 C 112.57 0.504595 3.35122 0
M  V30 1186 C 111.743 1.6039 4.06932 0
M  V30 1187 C 110.802 1.09922 5.14591 0
M  V30 1188 O 109.828 1.79293 5.40225 0
M  V30 1189 N 111.03 -0.0612545 5.80468 0
M  V30 1190 H 113.795 1.95683 2.26998 0
M  V30 1191 H 111.356 1.16303 1.12629 0
M  V30 1192 H 113.348 0.151516 4.04416 0
M  V30 1193 H 111.918 -0.347989 3.10657 0
M  V30 1194 H 111.138 2.12872 3.31782 0
M  V30 1195 H 112.426 2.34252 4.51667 0
M  V30 1196 H 111.824 -0.640985 5.62057 0
M  V30 1197 H 110.381 -0.355395 6.5083 0
M  V30 1198 N 113.814 -1.1601 1.06675 0
M  V30 1199 C 115.062 -1.86264 0.784229 0
M  V30 1200 C 115.383 -1.82328 -0.691488 0
M  V30 1201 O 114.653 -1.25947 -1.50047 0
M  V30 1202 H 113.233 -0.689621 0.28711 0
M  V30 1203 H 115.895 -1.40664 1.34906 0
M  V30 1204 H 114.991 -2.91595 1.11259 0
M  V30 1205 N 115.292 -0.849877 -1.32721 0
M  V30 1206 C 116.532 -0.457146 -1.99222 0
M  V30 1207 C 116.896 0.968038 -1.6581 0
M  V30 1208 O 118.097 1.46507 -2.25364 0
M  V30 1209 C 116.368 -0.683966 -3.50794 0
M  V30 1210 S 117.927 -0.388095 -4.3708 0
M  V30 1211 H 114.745 -0.171464 -0.690015 0
M  V30 1212 H 117.347 -1.10155 -1.61512 0
M  V30 1213 H 116.051 -1.72038 -3.726 0
M  V30 1214 H 115.582 -0.0258086 -3.93392 0
M  V30 1215 H 117.597 0.787791 -4.89906 0
M  V30 1216 N 116.77 1.45427 -0.607355 0
M  V30 1217 C 118.186 1.57283 -0.270985 0
M  V30 1218 C 118.386 1.59875 1.22647 0
M  V30 1219 O 117.442 1.52893 2.00948 0
M  V30 1220 C 118.755 2.85566 -0.941952 0
M  V30 1221 C 120.303 2.9924 -0.917849 0
M  V30 1222 C 120.778 4.30293 -1.56882 0
M  V30 1223 N 122.269 4.37051 -1.5343 0
M  V30 1224 C 123.004 5.37123 -2.00715 0
M  V30 1225 N 122.5 6.43734 -2.56084 0
M  V30 1226 N 124.293 5.28479 -1.91484 0
M  V30 1227 H 116.444 1.41988 -1.57966 0
M  V30 1228 H 118.707 0.67885 -0.661715 0
M  V30 1229 H 118.413 2.8955 -1.99633 0
M  V30 1230 H 118.287 3.74322 -0.465096 0
M  V30 1231 H 120.674 2.94822 0.127984 0
M  V30 1232 H 120.755 2.11895 -1.43297 0
M  V30 1233 H 120.399 4.35469 -2.61398 0
M  V30 1234 H 120.329 5.16454 -1.02873 0
M  V30 1235 H 122.82 3.60615 -1.12982 0
M  V30 1236 H 123.133 7.16341 -2.89958 0
M  V30 1237 H 121.478 6.44485 -2.60122 0
M  V30 1238 H 124.669 4.44098 -1.47967 0
M  V30 1239 H 124.842 6.0632 -2.28648 0
M  V30 1240 N 118.248 0.346503 1.53744 0
M  V30 1241 C 119.525 -0.304532 1.93215 0
M  V30 1242 C 119.905 -1.67993 1.27834 0
M  V30 1243 O 119.253 -2.24411 0.430352 0
M  V30 1244 C 119.463 -0.373852 3.46992 0
M  V30 1245 C 120.811 -0.62329 4.2 0
M  V30 1246 O 121.835 -0.455847 3.53271 0
M  V30 1247 O 120.694 -0.947879 5.38217 0
M  V30 1248 H 117.788 -0.178318 0.807547 0
M  V30 1249 H 120.334 0.397895 1.64969 0
M  V30 1250 H 119.106 0.591224 3.86808 0
M  V30 1251 H 118.729 -1.12294 3.81413 0
M  V30 1252 N 119.726 -1.57421 0.075193 0
M  V30 1253 C 120.951 -1.98364 -0.605515 0
M  V30 1254 C 121.376 -0.953383 -1.62149 0
M  V30 1255 O 120.734 0.0806053 -1.81121 0
M  V30 1256 C 120.782 -3.38332 -1.24756 0
M  V30 1257 O 119.886 -3.37959 -2.36342 0
M  V30 1258 H 119.227 -0.645553 -0.155428 0
M  V30 1259 H 121.757 -2.04044 0.150714 0
M  V30 1260 H 121.767 -3.75591 -1.5936 0
M  V30 1261 H 120.442 -4.12846 -0.503129 0
M  V30 1262 H 119.019 -3.12474 -2.03506 0
M  V30 1263 N 121.204 0.198386 -1.56346 0
M  V30 1264 C 122.481 0.944982 -1.71258 0
M  V30 1265 C 122.861 2.0151 -0.629048 0
M  V30 1266 O 122.209 2.25639 0.360473 0
M  V30 1267 C 122.419 1.5344 -3.1346 0
M  V30 1268 C 123.767 2.01778 -3.73591 0
M  V30 1269 O 124.791 1.63288 -3.16568 0
M  V30 1270 O 123.65 2.72594 -4.73661 0
M  V30 1271 H 120.744 0.442939 -0.69838 0
M  V30 1272 H 123.29 0.188342 -1.68652 0
M  V30 1273 H 122.062 0.762869 -3.83792 0
M  V30 1274 H 121.685 2.35596 -3.20282 0
M  V30 1275 N 122.682 1.50554 0.465978 0
M  V30 1276 C 123.592 1.72585 1.58907 0
M  V30 1277 C 124.608 0.60911 1.6299 0
M  V30 1278 O 125.784 0.88804 1.80765 0
M  V30 1279 C 122.849 1.81995 2.95091 0
M  V30 1280 C 121.91 3.05751 3.01355 0
M  V30 1281 C 121.143 3.14702 4.31043 0
M  V30 1282 O 121.366 2.30313 5.21835 0
M  V30 1283 O 120.3 4.07468 4.43005 0
M  V30 1284 H 124.126 2.67799 1.43239 0
M  V30 1285 H 121.711 1.34711 0.646013 0
M  V30 1286 H 123.593 1.90335 3.75966 0
M  V30 1287 H 122.268 0.899659 3.10947 0
M  V30 1288 H 121.175 3.02908 2.19539 0
M  V30 1289 H 122.508 3.97375 2.90437 0
M  V30 1290 N 124.16 -0.719506 1.40217 0
M  V30 1291 C 125.571 -1.29848 1.34151 0
M  V30 1292 C 125.922 -1.96196 0.0131349 0
M  V30 1293 O 125.047 -1.973 -0.88892 0
M  V30 1294 C 125.642 -2.36118 2.42968 0
M  V30 1295 C 124.201 -2.8965 2.40374 0
M  V30 1296 C 123.348 -1.63393 2.24049 0
M  V30 1297 H 126.299 -0.51591 1.5008 0
M  V30 1298 H 126.32 -3.16871 2.10649 0
M  V30 1299 H 125.832 -1.878 3.39636 0
M  V30 1300 H 123.933 -3.42208 1.47392 0
M  V30 1301 H 124.046 -3.4171 3.35814 0
M  V30 1302 H 122.41 -1.88312 1.71495 0
M  V30 1303 H 123.193 -1.17104 3.2271 0
M  V30 1304 N 125.638 -1.25649 -0.95132 0
M  V30 1305 C 126.886 -1.10375 -1.69298 0
M  V30 1306 C 127.207 0.355339 -1.91735 0
M  V30 1307 O 126.477 1.25188 -1.50681 0
M  V30 1308 H 125.057 -0.405461 -0.627384 0
M  V30 1309 H 127.719 -1.57823 -1.14358 0
M  V30 1310 H 126.815 -1.61465 -2.67087 0
M  V30 1311 N 127.117 1.15442 -1.07289 0
M  V30 1312 C 128.357 1.8788 -0.805012 0
M  V30 1313 C 128.721 1.80413 0.656907 0
M  V30 1314 O 129.922 2.47874 1.0398 0
M  V30 1315 C 128.193 3.3298 -1.29843 0
M  V30 1316 S 129.752 4.23158 -1.16114 0
M  V30 1317 H 126.57 0.64839 -0.291739 0
M  V30 1318 H 129.172 1.39285 -1.37186 0
M  V30 1319 H 127.876 3.35958 -2.35712 0
M  V30 1320 H 127.407 3.86629 -0.726767 0
M  V30 1321 H 129.422 4.96103 -0.0982778 0
M  V30 1322 N 128.595 0.856903 1.32268 0
M  V30 1323 C 129.505 0.306131 2.32594 0
M  V30 1324 C 130.521 -0.577209 1.64147 0
M  V30 1325 O 131.697 -0.477043 1.95669 0
M  V30 1326 C 128.762 -0.494561 3.43154 0
M  V30 1327 C 127.823 0.415186 4.27288 0
M  V30 1328 C 127.056 -0.347387 5.32568 0
M  V30 1329 O 127.279 -1.57708 5.48165 0
M  V30 1330 O 126.213 0.287982 6.01211 0
M  V30 1331 H 130.039 1.13737 2.81598 0
M  V30 1332 H 127.624 0.619902 1.35932 0
M  V30 1333 H 129.506 -0.948944 4.10576 0
M  V30 1334 H 128.181 -1.30257 2.96336 0
M  V30 1335 H 127.088 0.917793 3.62667 0
M  V30 1336 H 128.421 1.18844 4.77637 0
M  V30 1337 N 130.073 -1.45103 0.615059 0
M  V30 1338 C 131.298 -2.07064 0.117988 0
M  V30 1339 C 131.723 -1.4554 -1.19163 0
M  V30 1340 O 131.081 -0.550855 -1.72729 0
M  V30 1341 C 131.129 -3.606 -0.000288387 0
M  V30 1342 O 130.233 -3.98847 -1.04856 0
M  V30 1343 H 129.574 -0.659467 0.0774581 0
M  V30 1344 H 132.104 -1.86236 0.847186 0
M  V30 1345 H 132.114 -4.07529 -0.196091 0
M  V30 1346 H 130.789 -4.04765 0.955932 0
M  V30 1347 H 129.366 -3.63577 -0.828619 0
M  V30 1348 N 131.551 -0.354651 -1.53558 0
M  V30 1349 C 132.481 0.489091 -2.2832 0
M  V30 1350 C 133.462 1.09324 -1.30316 0
M  V30 1351 O 134.647 1.11255 -1.59173 0
M  V30 1352 C 131.777 1.63456 -3.0643 0
M  V30 1353 C 130.731 1.1582 -4.12031 0
M  V30 1354 C 130.057 2.39305 -4.7816 0
M  V30 1355 C 131.357 0.250731 -5.21698 0
M  V30 1356 H 133.051 -0.134614 -2.99097 0
M  V30 1357 H 130.597 -0.0661826 -1.43848 0
M  V30 1358 H 132.55 2.23136 -3.57475 0
M  V30 1359 H 131.274 2.28533 -2.33325 0
M  V30 1360 H 129.933 0.584146 -3.61916 0
M  V30 1361 H 129.581 3.02814 -4.01637 0
M  V30 1362 H 129.281 2.08109 -5.49513 0
M  V30 1363 H 130.805 2.99691 -5.31994 0
M  V30 1364 H 132.219 0.754695 -5.68311 0
M  V30 1365 H 130.616 0.0301468 -6.00092 0
M  V30 1366 H 131.686 -0.710125 -4.79672 0
M  V30 1367 N 133.029 1.57378 -0.0835403 0
M  V30 1368 C 133.979 2.09916 0.889905 0
M  V30 1369 C 134.963 1.01151 1.25129 0
M  V30 1370 O 136.155 1.27443 1.2283 0
M  V30 1371 C 133.284 2.67379 2.15322 0
M  V30 1372 C 132.37 3.83167 1.81779 0
M  V30 1373 N 132.761 4.91665 1.18739 0
M  V30 1374 C 131.059 3.92685 2.11459 0
M  V30 1375 C 131.76 5.72409 1.0355 0
M  V30 1376 N 130.736 5.21062 1.54906 0
M  V30 1377 H 134.538 2.91188 0.398378 0
M  V30 1378 H 132.052 1.61956 0.120013 0
M  V30 1379 H 134.049 3.0334 2.8599 0
M  V30 1380 H 132.709 1.87558 2.65051 0
M  V30 1381 H 133.72 5.10784 0.855604 0
M  V30 1382 H 130.397 3.23856 2.63483 0
M  V30 1383 H 131.787 6.69699 0.543425 0
M  V30 1384 N 134.507 -0.190092 1.56449 0
M  V30 1385 C 135.747 -0.916414 1.82705 0
M  V30 1386 C 136.111 -1.80235 0.661763 0
M  V30 1387 O 137.312 -2.56484 0.80433 0
M  V30 1388 C 135.583 -1.70691 3.14005 0
M  V30 1389 S 137.142 -2.48457 3.61683 0
M  V30 1390 H 133.96 -0.307281 0.64117 0
M  V30 1391 H 136.562 -0.179433 1.94675 0
M  V30 1392 H 135.266 -1.04677 3.96826 0
M  V30 1393 H 134.797 -2.48562 3.04927 0
M  V30 1394 H 136.812 -3.72756 3.27517 0
M  V30 1395 N 135.985 -1.50799 -0.457987 0
M  V30 1396 C 137.262 -1.52968 -1.21902 0
M  V30 1397 C 137.642 -0.281906 -2.09209 0
M  V30 1398 O 136.99 0.734076 -2.16388 0
M  V30 1399 C 137.2 -2.8326 -2.03875 0
M  V30 1400 C 138.548 -3.34425 -2.6162 0
M  V30 1401 O 139.572 -2.8467 -2.14106 0
M  V30 1402 O 138.431 -4.21188 -3.48228 0
M  V30 1403 H 135.525 -0.614129 -0.553873 0
M  V30 1404 H 138.071 -1.63098 -0.468739 0
M  V30 1405 H 136.843 -3.65543 -1.39621 0
M  V30 1406 H 136.466 -2.76195 -2.8601 0
M  V30 1407 N 137.463 0.71206 -1.40597 0
M  V30 1408 C 138.874 1.29135 -1.34837 0
M  V30 1409 C 139.225 1.96186 -0.0235395 0
M  V30 1410 O 138.35 1.97768 0.878444 0
M  V30 1411 C 138.945 2.34827 -2.44217 0
M  V30 1412 C 137.504 2.88371 -2.41907 0
M  V30 1413 C 136.651 1.62202 -2.24913 0
M  V30 1414 H 139.602 0.507944 -1.50352 0
M  V30 1415 H 139.623 3.15749 -2.12327 0
M  V30 1416 H 139.135 1.85996 -3.40627 0
M  V30 1417 H 137.236 3.41422 -1.49204 0
M  V30 1418 H 137.349 3.39925 -3.37621 0
M  V30 1419 H 135.713 1.874 -1.72492 0
M  V30 1420 H 136.496 1.15391 -3.23326 0
M  V30 1421 N 138.941 1.26152 0.944643 0
M  V30 1422 C 140.166 1.14363 1.7302 0
M  V30 1423 C 140.591 -0.29772 1.85729 0
M  V30 1424 O 139.949 -1.2157 1.34501 0
M  V30 1425 C 139.997 1.81378 3.11664 0
M  V30 1426 O 139.101 1.10022 3.97453 0
M  V30 1427 H 138.442 0.398694 0.53098 0
M  V30 1428 H 140.972 1.66906 1.18337 0
M  V30 1429 H 140.982 1.88064 3.62072 0
M  V30 1430 H 139.657 2.86237 3.0173 0
M  V30 1431 H 138.234 1.11287 3.55907 0
M  V30 1432 N 140.419 -1.14872 1.07899 0
M  V30 1433 C 141.83 -1.67367 0.827363 0
M  V30 1434 C 142.181 -1.85236 -0.646693 0
M  V30 1435 O 141.306 -1.55974 -1.50004 0
M  V30 1436 C 141.901 -3.04016 1.49532 0
M  V30 1437 C 140.46 -3.53566 1.29106 0
M  V30 1438 C 139.607 -2.29161 1.56143 0
M  V30 1439 H 142.558 -0.990083 1.24028 0
M  V30 1440 H 142.579 -3.69219 0.919643 0
M  V30 1441 H 142.091 -2.90978 2.56814 0
M  V30 1442 H 140.192 -3.71835 0.238713 0
M  V30 1443 H 140.305 -4.34661 2.01511 0
M  V30 1444 H 138.669 -2.34978 0.982717 0
M  V30 1445 H 139.452 -2.18705 2.64619 0
M  V30 1446 N 141.898 -0.863906 -1.31812 0
M  V30 1447 C 143.314 -0.555004 -1.49639 0
M  V30 1448 C 143.514 0.912266 -1.79666 0
M  V30 1449 O 142.57 1.69479 -1.87171 0
M  V30 1450 C 143.883 -1.44998 -2.63431 0
M  V30 1451 C 145.431 -1.45138 -2.77316 0
M  V30 1452 C 145.906 -2.33179 -3.94197 0
M  V30 1453 N 147.397 -2.31025 -4.01474 0
M  V30 1454 C 148.132 -2.95871 -4.9117 0
M  V30 1455 N 147.628 -3.69863 -5.8581 0
M  V30 1456 N 149.421 -2.85211 -4.84367 0
M  V30 1457 H 141.572 -1.81339 -1.10589 0
M  V30 1458 H 143.835 -0.77505 -0.545895 0
M  V30 1459 H 143.541 -2.49377 -2.48 0
M  V30 1460 H 143.415 -1.14409 -3.59431 0
M  V30 1461 H 145.802 -0.415201 -2.92164 0
M  V30 1462 H 145.883 -1.79747 -1.82001 0
M  V30 1463 H 145.527 -3.3687 -3.80107 0
M  V30 1464 H 145.457 -1.95897 -4.88807 0
M  V30 1465 H 147.948 -1.77238 -3.33759 0
M  V30 1466 H 148.261 -4.16486 -6.50968 0
M  V30 1467 H 146.606 -3.73971 -5.85808 0
M  V30 1468 H 149.797 -2.26948 -4.09405 0
M  V30 1469 H 149.97 -3.36027 -5.54066 0
M  V30 1470 N 143.376 1.44774 -0.622745 0
M  V30 1471 C 144.339 2.29069 0.0774015 0
M  V30 1472 C 145.339 1.4059 0.780461 0
M  V30 1473 O 146.529 1.62551 0.626322 0
M  V30 1474 C 143.661 3.21974 1.12006 0
M  V30 1475 H 144.854 2.92459 -0.663901 0
M  V30 1476 H 142.407 1.51548 -0.382486 0
M  V30 1477 H 143.142 2.63417 1.89162 0
M  V30 1478 H 142.927 3.87168 0.619951 0
M  V30 1479 H 144.417 3.85318 1.60995 0
M  V30 1480 N 144.854 0.36279 1.53368 0
M  V30 1481 C 145.804 -0.501391 2.22419 0
M  V30 1482 C 146.788 -1.0509 1.2184 0
M  V30 1483 O 147.98 -0.981404 1.47301 0
M  V30 1484 C 145.109 -1.64201 3.01484 0
M  V30 1485 C 144.195 -1.10552 4.09438 0
M  V30 1486 N 144.586 -0.291788 5.04958 0
M  V30 1487 C 142.884 -1.3806 4.24094 0
M  V30 1488 C 143.585 0.00162655 5.817 0
M  V30 1489 N 142.561 -0.595244 5.40331 0
M  V30 1490 H 146.363 0.127159 2.93625 0
M  V30 1491 H 143.877 0.170658 1.61501 0
M  V30 1492 H 145.874 -2.27326 3.49469 0
M  V30 1493 H 144.534 -2.27365 2.31809 0
M  V30 1494 H 145.545 0.0687731 5.17854 0
M  V30 1495 H 142.222 -2.01522 3.65644 0
M  V30 1496 H 143.612 0.659278 6.68658 0
M  V30 1497 N 146.332 -1.57332 0.0918853 0
M  V30 1498 C 147.743 -1.81496 -0.437739 0
M  V30 1499 C 148.094 -1.00727 -1.6837 0
M  V30 1500 O 147.219 -0.235694 -2.15113 0
M  V30 1501 C 147.814 -3.29197 -0.800939 0
M  V30 1502 C 146.373 -3.54136 -1.27532 0
M  V30 1503 C 145.52 -2.75979 -0.270392 0
M  V30 1504 H 148.471 -1.55494 0.317366 0
M  V30 1505 H 148.492 -3.42344 -1.66074 0
M  V30 1506 H 148.004 -3.87955 0.106078 0
M  V30 1507 H 146.105 -3.00705 -2.20016 0
M  V30 1508 H 146.218 -4.62792 -1.23938 0
M  V30 1509 H 144.582 -2.43349 -0.751872 0
M  V30 1510 H 145.365 -3.37484 0.629248 0
M  V30 1511 N 147.81 0.181792 -1.56548 0
M  V30 1512 C 149.035 0.920019 -1.85877 0
M  V30 1513 C 149.46 1.75494 -0.677021 0
M  V30 1514 O 148.818 1.77399 0.374056 0
M  V30 1515 C 148.866 1.78112 -3.13542 0
M  V30 1516 O 147.97 2.88152 -2.95029 0
M  V30 1517 H 147.311 0.258334 -0.611686 0
M  V30 1518 H 149.841 0.183092 -2.03779 0
M  V30 1519 H 149.851 2.18314 -3.44678 0
M  V30 1520 H 148.526 1.16777 -3.99169 0
M  V30 1521 H 147.103 2.51609 -2.75222 0
M  V30 1522 N 149.288 1.51039 0.449983 0
M  V30 1523 C 150.699 1.557 1.03026 0
M  V30 1524 C 151.05 0.372939 1.92623 0
M  V30 1525 O 150.175 -0.511771 2.10261 0
M  V30 1526 C 150.77 2.82171 1.87523 0
M  V30 1527 C 149.329 2.89444 2.40622 0
M  V30 1528 C 148.476 2.50228 1.19504 0
M  V30 1529 H 151.427 1.56999 0.231745 0
M  V30 1530 H 151.448 2.65219 2.72835 0
M  V30 1531 H 150.96 3.68331 1.22286 0
M  V30 1532 H 149.061 2.07685 3.0935 0
M  V30 1533 H 149.174 3.92816 2.74285 0
M  V30 1534 H 147.538 2.03139 1.53644 0
M  V30 1535 H 148.321 3.38719 0.558972 0
M  V30 1536 N 150.766 -0.704594 1.40972 0
M  V30 1537 C 152.014 -1.46169 1.39568 0
M  V30 1538 C 152.335 -1.95 0.00253745 0
M  V30 1539 O 151.605 -1.71095 -0.954114 0
M  V30 1540 H 150.185 -0.542326 0.513704 0
M  V30 1541 H 152.847 -0.834553 1.76128 0
M  V30 1542 H 151.943 -2.32922 2.07735 0
M  V30 1543 N 152.244 -1.26651 -0.937939 0
M  V30 1544 C 153.469 -1.15279 -1.72411 0
M  V30 1545 C 153.894 0.287866 -1.85884 0
M  V30 1546 O 153.252 1.20855 -1.35143 0
M  V30 1547 C 153.3 -1.83028 -3.10698 0
M  V30 1548 O 152.404 -1.12128 -3.96864 0
M  V30 1549 H 151.745 -0.401504 -0.528858 0
M  V30 1550 H 154.275 -1.67531 -1.1745 0
M  V30 1551 H 154.285 -1.89981 -3.6107 0
M  V30 1552 H 152.96 -2.87833 -3.00208 0
M  V30 1553 H 151.537 -1.13173 -3.55312 0
M  V30 1554 N 153.722 1.14298 -1.08507 0
M  V30 1555 C 154.95 1.89219 -0.836876 0
M  V30 1556 C 155.365 1.78638 0.611054 0
M  V30 1557 O 154.722 1.14643 1.41998 0
M  V30 1558 C 154.773 3.39158 -1.25116 0
M  V30 1559 O 154.494 3.49449 -2.64229 0
M  V30 1560 C 155.995 4.31073 -1.03398 0
M  V30 1561 H 153.215 0.599328 -0.301739 0
M  V30 1562 H 155.759 1.44746 -1.44461 0
M  V30 1563 H 153.914 3.81251 -0.687514 0
M  V30 1564 H 154.328 4.42589 -2.81452 0
M  V30 1565 H 155.802 5.34646 -1.37323 0
M  V30 1566 H 156.279 4.3919 0.0289259 0
M  V30 1567 H 156.885 3.94738 -1.58311 0
M  V30 1568 N 155.201 0.870884 1.31352 0
M  V30 1569 C 156.131 0.343096 2.30966 0
M  V30 1570 C 157.112 -0.566507 1.60389 0
M  V30 1571 O 158.297 -0.483336 1.88089 0
M  V30 1572 C 155.427 -0.455487 3.443 0
M  V30 1573 C 154.381 0.361103 4.26474 0
M  V30 1574 C 153.707 -0.563221 5.31725 0
M  V30 1575 C 155.007 1.59566 4.97329 0
M  V30 1576 H 156.701 1.17548 2.75359 0
M  V30 1577 H 154.247 0.566686 1.32381 0
M  V30 1578 H 156.2 -0.83525 4.13039 0
M  V30 1579 H 154.924 -1.32139 2.98675 0
M  V30 1580 H 153.583 0.722825 3.59403 0
M  V30 1581 H 153.231 -1.42643 4.82351 0
M  V30 1582 H 152.931 -0.0207409 5.87596 0
M  V30 1583 H 154.455 -0.939808 6.03324 0
M  V30 1584 H 155.869 1.28728 5.58661 0
M  V30 1585 H 154.266 2.07728 5.63 0
M  V30 1586 H 155.336 2.34798 4.24262 0
M  V30 1587 N 156.679 -1.44442 0.630414 0
M  V30 1588 C 157.926 -2.02052 0.134617 0
M  V30 1589 C 158.254 -1.49576 -1.24327 0
M  V30 1590 O 157.509 -0.669806 -1.83881 0
M  V30 1591 C 157.808 -3.57332 0.0697835 0
M  V30 1592 C 157.474 -4.29058 1.38635 0
M  V30 1593 C 156.136 -4.4837 1.74694 0
M  V30 1594 C 158.488 -4.69872 2.25543 0
M  V30 1595 C 155.816 -5.05756 2.97369 0
M  V30 1596 C 158.168 -5.28616 3.47487 0
M  V30 1597 C 156.832 -5.46147 3.8377 0
M  V30 1598 H 156.102 -0.739361 0.0492598 0
M  V30 1599 H 158.749 -1.73217 0.816586 0
M  V30 1600 H 157.054 -3.85577 -0.695553 0
M  V30 1601 H 158.751 -3.99637 -0.330344 0
M  V30 1602 H 155.341 -4.14357 1.09574 0
M  V30 1603 H 159.525 -4.54666 1.98979 0
M  V30 1604 H 154.781 -5.17515 3.25558 0
M  V30 1605 H 158.955 -5.59192 4.15063 0
M  V30 1606 H 156.582 -5.9038 4.7891 0
M  V30 1607 N 158.157 -0.370918 -1.53173 0
M  V30 1608 C 159.385 0.217704 -2.05751 0
M  V30 1609 C 159.8 1.42018 -1.24404 0
M  V30 1610 O 159.157 1.80245 -0.286033 0
M  V30 1611 C 159.208 0.605954 -3.56385 0
M  V30 1612 O 158.929 -0.548734 -4.3465 0
M  V30 1613 C 160.43 1.2524 -4.25241 0
M  V30 1614 H 157.65 0.0371659 -0.66997 0
M  V30 1615 H 160.194 -0.530832 -1.9749 0
M  V30 1616 H 158.349 1.3044 -3.6478 0
M  V30 1617 H 158.763 -0.23376 -5.23979 0
M  V30 1618 H 160.237 1.47458 -5.3194 0
M  V30 1619 H 160.714 2.2143 -3.79296 0
M  V30 1620 H 161.32 0.595233 -4.21114 0
M  V30 1621 N 159.635 1.57281 -0.100228 0
M  V30 1622 C 160.875 1.96419 0.56558 0
M  V30 1623 C 161.239 0.981265 1.65031 0
M  V30 1624 O 162.44 1.26133 2.37369 0
M  V30 1625 C 160.711 3.39996 1.10171 0
M  V30 1626 S 162.27 4.01134 1.77867 0
M  V30 1627 H 159.088 0.68667 0.184406 0
M  V30 1628 H 161.69 1.94662 -0.180851 0
M  V30 1629 H 160.394 4.09296 0.300803 0
M  V30 1630 H 159.925 3.45361 1.88385 0
M  V30 1631 H 161.94 3.90358 3.06326 0
M  V30 1632 N 161.113 -0.173488 1.56642 0
M  V30 1633 C 162.338 -0.910149 1.86363 0
M  V30 1634 C 162.763 -1.75132 0.686318 0
M  V30 1635 O 162.121 -1.77595 -0.364643 0
M  V30 1636 C 162.169 -1.76447 3.14482 0
M  V30 1637 O 161.273 -2.86584 2.96553 0
M  V30 1638 H 160.614 -0.255086 0.613047 0
M  V30 1639 H 163.144 -0.172283 2.03873 0
M  V30 1640 H 163.154 -2.16483 3.45831 0
M  V30 1641 H 161.829 -1.14658 3.99783 0
M  V30 1642 H 160.406 -2.50146 2.76553 0
M  V30 1643 N 162.591 -1.51276 -0.441967 0
M  V30 1644 C 163.831 -1.65372 -1.20132 0
M  V30 1645 C 164.195 -0.359871 -1.88597 0
M  V30 1646 O 165.396 -0.376551 -2.66149 0
M  V30 1647 C 163.667 -2.8207 -2.1948 0
M  V30 1648 S 165.226 -3.16467 -3.03964 0
M  V30 1649 H 162.044 -0.582669 -0.407453 0
M  V30 1650 H 164.646 -1.89166 -0.493609 0
M  V30 1651 H 163.35 -3.74523 -1.67812 0
M  V30 1652 H 162.881 -2.6045 -2.94838 0
M  V30 1653 H 164.896 -2.62543 -4.21053 0
M  V30 1654 N 164.069 0.697108 -1.41344 0
M  V30 1655 C 165.317 1.45426 -1.40341 0
M  V30 1656 C 165.638 1.94996 -0.0128787 0
M  V30 1657 O 164.908 1.71599 0.945027 0
M  V30 1658 H 163.488 0.539594 -0.516573 0
M  V30 1659 H 166.15 0.825201 -1.76569 0
M  V30 1660 H 165.246 2.31817 -2.08967 0
M  V30 1661 N 165.547 1.27147 0.931209 0
M  V30 1662 C 166.775 1.16082 1.71267 0
M  V30 1663 C 167.19 -0.282772 1.8667 0
M  V30 1664 O 166.547 -1.19283 1.38122 0
M  V30 1665 C 166.598 1.8358 3.11417 0
M  V30 1666 O 166.319 3.22299 2.96741 0
M  V30 1667 C 167.82 1.78597 4.05732 0
M  V30 1668 H 165.04 0.403758 0.535929 0
M  V30 1669 H 167.584 1.67953 1.16671 0
M  V30 1670 H 165.739 1.35623 3.62885 0
M  V30 1671 H 166.153 3.55851 3.85319 0
M  V30 1672 H 167.627 2.30444 5.01597 0
M  V30 1673 H 168.104 0.754564 4.3267 0
M  V30 1674 H 168.71 2.26152 3.60188 0
M  V30 1675 N 167.025 -1.13721 1.09112 0
M  V30 1676 C 168.302 -1.81155 0.737706 0
M  V30 1677 C 168.682 -1.96253 -0.777683 0
M  V30 1678 O 168.03 -1.52807 -1.69889 0
M  V30 1679 C 168.24 -3.16392 1.47299 0
M  V30 1680 C 169.588 -3.91787 1.63671 0
M  V30 1681 O 170.612 -3.26005 1.43524 0
M  V30 1682 O 169.471 -5.0977 1.96969 0
M  V30 1683 H 166.565 -0.783518 0.26463 0
M  V30 1684 H 169.111 -1.20676 1.19312 0
M  V30 1685 H 167.883 -3.0061 2.50498 0
M  V30 1686 H 167.506 -3.8457 1.00953 0
M  V30 1687 N 168.503 -0.877838 -1.30888 0
M  V30 1688 C 169.75 -0.492696 -1.96415 0
M  V30 1689 C 170.078 0.956671 -1.69346 0
M  V30 1690 O 169.333 1.68993 -0.986913 0
M  V30 1691 C 169.632 -0.705748 -3.50363 0
M  V30 1692 C 169.298 -2.1291 -3.97467 0
M  V30 1693 C 167.96 -2.51834 -4.1004 0
M  V30 1694 C 170.312 -3.05702 -4.22132 0
M  V30 1695 C 167.64 -3.82775 -4.44635 0
M  V30 1696 C 169.992 -4.36166 -4.58194 0
M  V30 1697 C 168.656 -4.74993 -4.68975 0
M  V30 1698 H 167.926 -0.18029 -0.718733 0
M  V30 1699 H 170.573 -1.11233 -1.55883 0
M  V30 1700 H 168.878 -0.00303058 -3.918 0
M  V30 1701 H 170.575 -0.387456 -3.99124 0
M  V30 1702 H 167.165 -1.81694 -3.88182 0
M  V30 1703 H 171.349 -2.76853 -4.11906 0
M  V30 1704 H 166.605 -4.12609 -4.51181 0
M  V30 1705 H 170.779 -5.08111 -4.76231 0
M  V30 1706 H 168.406 -5.76495 -4.95537 0
M  V30 1707 N 169.982 1.44106 -0.638065 0
M  V30 1708 C 171.222 2.03858 -0.148733 0
M  V30 1709 C 171.586 1.49153 1.20903 0
M  V30 1710 O 172.787 2.00452 1.79088 0
M  V30 1711 C 171.058 3.57117 -0.142314 0
M  V30 1712 S 172.617 4.37897 0.281385 0
M  V30 1713 H 169.435 0.708069 -0.0644912 0
M  V30 1714 H 172.037 1.7639 -0.843009 0
M  V30 1715 H 170.741 3.94436 -1.13349 0
M  V30 1716 H 170.272 3.89205 0.572988 0
M  V30 1717 H 172.287 4.72218 1.52395 0
M  V30 1718 N 171.46 0.379036 1.52974 0
M  V30 1719 C 172.408 -0.476033 2.27677 0
M  V30 1720 C 173.402 -1.0719 1.31174 0
M  V30 1721 O 174.608 -1.01355 1.48752 0
M  V30 1722 H 170.983 -0.172255 0.732006 0
M  V30 1723 H 172.954 0.175615 2.97883 0
M  V30 1724 C 171.703 -1.5967 3.0887 0
M  V30 1725 H 171.026 -1.1475 3.82978 0
M  V30 1726 H 172.466 -2.16943 3.64296 0
M  V30 1727 C 170.925 -2.54682 2.20542 0
M  V30 1728 O 171.455 -3.57836 1.82527 0
M  V30 1729 N 169.661 -2.24183 1.84907 0
M  V30 1730 H 169.208 -1.40333 2.1602 0
M  V30 1731 H 169.166 -2.88006 1.26096 0
M  V30 1732 N 172.938 -1.57226 0.108567 0
M  V30 1733 C 173.901 -2.13602 -0.831082 0
M  V30 1734 C 174.901 -1.06841 -1.20173 0
M  V30 1735 O 176.091 -1.32666 -1.12895 0
M  V30 1736 C 173.223 -2.66769 -2.12243 0
M  V30 1737 H 174.416 -2.97951 -0.341317 0
M  V30 1738 H 171.969 -1.55667 -0.14057 0
M  V30 1739 H 172.704 -1.85977 -2.65675 0
M  V30 1740 H 172.489 -3.44839 -1.86625 0
M  V30 1741 H 173.979 -3.10332 -2.79435 0
M  V30 1742 N 174.416 0.165178 -1.56732 0
M  V30 1743 C 175.364 1.22369 -1.97809 0
M  V30 1744 C 176.358 1.45488 -0.867741 0
M  V30 1745 O 177.564 1.45995 -1.05288 0
M  V30 1746 H 173.939 0.411486 -0.629431 0
M  V30 1747 H 175.91 0.850425 -2.86025 0
M  V30 1748 C 174.659 2.55403 -2.35934 0
M  V30 1749 H 173.982 2.38438 -3.20916 0
M  V30 1750 H 175.422 3.2814 -2.68514 0
M  V30 1751 C 173.881 3.14611 -1.20506 0
M  V30 1752 O 174.411 3.98626 -0.496016 0
M  V30 1753 N 172.617 2.7379 -0.97403 0
M  V30 1754 H 172.164 2.0557 -1.55238 0
M  V30 1755 H 172.122 3.1374 -0.203573 0
M  V30 1756 N 175.894 1.51508 0.433938 0
M  V30 1757 C 177.124 1.67914 1.20369 0
M  V30 1758 C 177.532 0.377461 1.85397 0
M  V30 1759 O 176.875 -0.654255 1.71654 0
M  V30 1760 C 176.937 2.74045 2.32679 0
M  V30 1761 C 176.601 4.16543 1.87991 0
M  V30 1762 C 177.598 5.01211 1.38145 0
M  V30 1763 C 175.283 4.6266 1.95579 0
M  V30 1764 C 177.277 6.30056 0.964774 0
M  V30 1765 C 174.964 5.91501 1.53523 0
M  V30 1766 C 175.962 6.75027 1.04055 0
M  V30 1767 O 175.65 8.01459 0.625964 0
M  V30 1768 H 175.382 0.566578 0.368735 0
M  V30 1769 H 177.936 1.98709 0.51999 0
M  V30 1770 H 176.166 2.38572 3.04336 0
M  V30 1771 H 177.855 2.79295 2.94532 0
M  V30 1772 H 178.621 4.66783 1.31675 0
M  V30 1773 H 174.5 3.97767 2.33029 0
M  V30 1774 H 178.044 6.95202 0.57796 0
M  V30 1775 H 173.941 6.25442 1.59665 0
M  V30 1776 H 174.709 8.15043 0.751509 0
M  V30 1777 N 177.372 -0.689602 1.41712 0
M  V30 1778 C 178.597 -1.48329 1.44959 0
M  V30 1779 C 179.022 -1.8801 0.0581283 0
M  V30 1780 O 178.38 -1.55026 -0.940035 0
M  V30 1781 C 178.428 -2.71835 2.36935 0
M  V30 1782 O 177.532 -3.69549 1.8305 0
M  V30 1783 H 176.873 -0.446199 0.491734 0
M  V30 1784 H 179.403 -0.847127 1.86239 0
M  V30 1785 H 179.413 -3.20076 2.53013 0
M  V30 1786 H 178.088 -2.42291 3.38035 0
M  V30 1787 H 176.665 -3.2851 1.76452 0
M  V30 1788 N 178.85 -1.27639 -0.924453 0
M  V30 1789 C 179.8 -1.07295 -2.01176 0
M  V30 1790 C 180.784 5.77352e-05 -1.609 0
M  V30 1791 O 181.976 -0.218855 -1.75642 0
M  V30 1792 C 179.105 -0.725592 -3.35544 0
M  V30 1793 C 178.191 -1.83691 -3.82254 0
M  V30 1794 N 178.582 -3.07697 -4.01443 0
M  V30 1795 C 176.88 -1.72433 -4.11319 0
M  V30 1796 C 177.581 -3.80037 -4.40394 0
M  V30 1797 N 176.557 -3.0782 -4.48049 0
M  V30 1798 H 180.359 -2.01399 -2.14046 0
M  V30 1799 H 177.873 -1.18401 -1.11153 0
M  V30 1800 H 179.87 -0.560959 -4.13109 0
M  V30 1801 H 178.53 0.207782 -3.24034 0
M  V30 1802 H 179.541 -3.43424 -3.8766 0
M  V30 1803 H 176.218 -0.862005 -4.08504 0
M  V30 1804 H 177.608 -4.86632 -4.63291 0
M  V30 1805 N 180.328 1.1314 -1.09713 0
M  V30 1806 C 181.258 2.20748 -0.761102 0
M  V30 1807 C 182.239 1.68061 0.262566 0
M  V30 1808 O 183.424 1.93765 0.129977 0
M  V30 1809 C 180.554 3.46812 -0.184054 0
M  V30 1810 C 179.508 4.12606 -1.13757 0
M  V30 1811 C 178.834 5.33031 -0.422083 0
M  V30 1812 C 180.134 4.59603 -2.48118 0
M  V30 1813 H 181.828 2.49113 -1.66082 0
M  V30 1814 H 179.374 1.19734 -0.799987 0
M  V30 1815 H 181.327 4.21353 0.0631215 0
M  V30 1816 H 180.051 3.17851 0.750868 0
M  V30 1817 H 178.71 3.40036 -1.37007 0
M  V30 1818 H 178.358 5.00335 0.517072 0
M  V30 1819 H 178.058 5.77999 -1.05788 0
M  V30 1820 H 179.582 6.10325 -0.183277 0
M  V30 1821 H 180.996 5.25552 -2.29059 0
M  V30 1822 H 179.393 5.15321 -3.07514 0
M  V30 1823 H 180.463 3.73971 -3.08665 0
M  V30 1824 N 181.806 0.884767 1.30421 0
M  V30 1825 C 183.217 0.553656 1.78302 0
M  V30 1826 C 183.568 -0.930153 1.7275 0
M  V30 1827 O 182.693 -1.72681 1.30423 0
M  V30 1828 C 183.288 0.998234 3.2376 0
M  V30 1829 C 181.847 0.71854 3.69478 0
M  V30 1830 C 180.994 1.18132 2.50879 0
M  V30 1831 H 183.945 1.06901 1.17294 0
M  V30 1832 H 183.966 0.327118 3.79091 0
M  V30 1833 H 183.478 2.0782 3.27769 0
M  V30 1834 H 181.579 -0.349444 3.70958 0
M  V30 1835 H 181.692 1.30595 4.60958 0
M  V30 1836 H 180.056 0.600669 2.47516 0
M  V30 1837 H 180.839 2.26902 2.57624 0
M  V30 1838 N 183.284 -1.43765 0.645699 0
M  V30 1839 C 184.695 -1.85193 0.236719 0
M  V30 1840 C 185.046 -1.54045 -1.21509 0
M  V30 1841 O 184.171 -0.985694 -1.92647 0
M  V30 1842 C 184.766 -3.36151 0.422845 0
M  V30 1843 C 183.325 -3.76338 0.0682492 0
M  V30 1844 C 182.472 -2.67538 0.729306 0
M  V30 1845 H 185.423 -1.34025 0.849883 0
M  V30 1846 H 185.444 -3.79032 -0.333904 0
M  V30 1847 H 184.956 -3.5879 1.47958 0
M  V30 1848 H 183.057 -3.59312 -0.986179 0
M  V30 1849 H 183.17 -4.76603 0.488469 0
M  V30 1850 H 181.534 -2.54176 0.163235 0
M  V30 1851 H 182.317 -2.93006 1.78892 0
M  V30 1852 N 184.763 -0.387143 -1.52771 0
M  V30 1853 C 186.174 0.0873634 -1.86495 0
M  V30 1854 C 186.525 1.46336 -1.30691 0
M  V30 1855 O 185.65 2.068 -0.637409 0
M  V30 1856 C 186.245 0.165305 -3.38396 0
M  V30 1857 C 184.804 0.584101 -3.7184 0
M  V30 1858 C 183.951 -0.255279 -2.76122 0
M  V30 1859 H 186.902 -0.605104 -1.46711 0
M  V30 1860 H 186.923 0.984848 -3.67534 0
M  V30 1861 H 186.435 -0.836301 -3.78982 0
M  V30 1862 H 184.536 1.59315 -3.36823 0
M  V30 1863 H 184.649 0.343749 -4.77865 0
M  V30 1864 H 183.013 0.279126 -2.53166 0
M  V30 1865 H 183.796 -1.25482 -3.19545 0
M  V30 1866 N 186.241 1.57166 -0.116904 0
M  V30 1867 C 187.489 1.94737 0.540533 0
M  V30 1868 C 187.81 1.00096 1.67349 0
M  V30 1869 O 187.08 0.0568854 1.95817 0
M  V30 1870 H 185.66 0.718981 0.202669 0
M  V30 1871 H 188.322 1.94017 -0.185353 0
M  V30 1872 H 187.418 2.97719 0.936483 0
M  V30 1873 N 187.719 -0.156864 1.56817 0
M  V30 1874 C 188.944 -0.890331 1.87318 0
M  V30 1875 C 189.369 -1.74394 0.704855 0
M  V30 1876 O 188.727 -1.77972 -0.345786 0
M  V30 1877 C 188.775 -1.73102 3.16336 0
M  V30 1878 O 187.879 -2.83422 2.99576 0
M  V30 1879 H 187.22 -0.24857 0.615718 0
M  V30 1880 H 189.75 -0.150649 2.04045 0
M  V30 1881 H 189.76 -2.12803 3.48107 0
M  V30 1882 H 188.435 -1.10412 4.00976 0
M  V30 1883 H 187.012 -2.47199 2.7919 0
M  V30 1884 N 189.197 -1.51736 -0.425897 0
M  V30 1885 C 190.608 -1.5732 -1.00536 0
M  V30 1886 C 190.959 -0.403537 -1.92005 0
M  V30 1887 O 190.084 0.478256 -2.11049 0
M  V30 1888 C 190.679 -2.85119 -1.8301 0
M  V30 1889 C 189.238 -2.93236 -2.35987 0
M  V30 1890 C 188.385 -2.52098 -1.15508 0
M  V30 1891 H 191.336 -1.57348 -0.206739 0
M  V30 1892 H 191.357 -2.69526 -2.68581 0
M  V30 1893 H 190.869 -3.7023 -1.16411 0
M  V30 1894 H 188.97 -2.12581 -3.06007 0
M  V30 1895 H 189.083 -3.9713 -2.68001 0
M  V30 1896 H 187.447 -2.05558 -1.50393 0
M  V30 1897 H 188.23 -3.39565 -0.505014 0
M  V30 1898 N 190.675 0.682077 -1.42076 0
M  V30 1899 C 191.923 1.4393 -1.41876 0
M  V30 1900 C 192.244 1.94971 -0.0335599 0
M  V30 1901 O 191.514 1.72591 0.926773 0
M  V30 1902 H 190.094 0.534085 -0.522267 0
M  V30 1903 H 192.756 0.806427 -1.77434 0
M  V30 1904 H 191.852 2.29588 -2.11414 0
M  V30 1905 N 192.153 1.28127 0.917671 0
M  V30 1906 C 193.381 1.17892 1.70026 0
M  V30 1907 C 193.796 -0.262958 1.8696 0
M  V30 1908 O 193.153 -1.17811 1.3938 0
M  V30 1909 C 193.204 1.86872 3.09453 0
M  V30 1910 O 192.925 3.25428 2.93306 0
M  V30 1911 C 194.426 1.8289 4.03815 0
M  V30 1912 H 191.646 0.40942 0.531617 0
M  V30 1913 H 194.19 1.69181 1.14883 0
M  V30 1914 H 192.345 1.39464 3.61426 0
M  V30 1915 H 192.759 3.59918 3.81523 0
M  V30 1916 H 194.233 2.35751 4.99125 0
M  V30 1917 H 194.71 0.800412 4.31845 0
M  V30 1918 H 195.316 2.29959 3.57769 0
M  V30 1919 N 193.631 -1.12557 1.10312 0
M  V30 1920 C 195.042 -1.65574 0.862678 0
M  V30 1921 C 195.393 -1.86566 -0.607256 0
M  V30 1922 O 194.518 -1.59121 -1.46662 0
M  V30 1923 C 195.113 -3.00776 1.55947 0
M  V30 1924 C 193.672 -3.50748 1.36576 0
M  V30 1925 C 192.819 -2.25797 1.60968 0
M  V30 1926 H 195.77 -0.963552 1.26101 0
M  V30 1927 H 195.791 -3.67185 0.997753 0
M  V30 1928 H 195.303 -2.85465 2.62928 0
M  V30 1929 H 193.404 -3.71245 0.317531 0
M  V30 1930 H 193.517 -4.30289 2.10686 0
M  V30 1931 H 191.881 -2.32841 1.03234 0
M  V30 1932 H 192.664 -2.13043 2.69198 0
M  V30 1933 N 195.109 -0.891671 -1.2995 0
M  V30 1934 C 196.357 -0.512486 -1.95494 0
M  V30 1935 C 196.678 0.942776 -1.70695 0
M  V30 1936 O 195.948 1.66374 -1.03424 0
M  V30 1937 H 194.528 -0.186533 -0.723336 0
M  V30 1938 H 197.19 -1.13621 -1.58355 0
M  V30 1939 H 196.286 -0.688342 -3.04415 0
M  V30 1940 N 196.587 1.43421 -0.653314 0
M  V30 1941 C 197.812 2.06678 -0.172846 0
M  V30 1942 C 198.237 1.48648 1.15262 0
M  V30 1943 O 197.595 0.596457 1.71208 0
M  V30 1944 C 197.643 3.60474 -0.0953184 0
M  V30 1945 O 196.747 4.01487 0.942442 0
M  V30 1946 H 196.088 0.657181 -0.0949155 0
M  V30 1947 H 198.618 1.83925 -0.896265 0
M  V30 1948 H 198.628 4.07905 0.0879728 0
M  V30 1949 H 197.303 4.02088 -1.06291 0
M  V30 1950 H 195.88 3.65646 0.731932 0
M  V30 1951 N 198.065 0.39524 1.52563 0
M  V30 1952 C 198.997 -0.472201 2.24283 0
M  V30 1953 C 200.01 -1.02178 1.26742 0
M  V30 1954 O 201.199 -0.923097 1.52778 0
M  V30 1955 C 198.299 -1.66775 2.95024 0
M  V30 1956 C 197.472 -1.2445 4.19322 0
M  V30 1957 C 196.531 -2.30539 4.7301 0
M  V30 1958 O 195.557 -1.91702 5.35947 0
M  V30 1959 N 196.759 -3.6253 4.53379 0
M  V30 1960 H 199.524 0.142282 2.99362 0
M  V30 1961 H 197.085 0.2219 1.60372 0
M  V30 1962 H 199.077 -2.37283 3.27839 0
M  V30 1963 H 197.647 -2.18845 2.23217 0
M  V30 1964 H 196.867 -0.368069 3.92478 0
M  V30 1965 H 198.155 -0.938457 5.0007 0
M  V30 1966 H 197.553 -3.96841 4.03154 0
M  V30 1967 H 196.11 -4.29055 4.90668 0
M  V30 1968 N 199.544 -1.57102 0.125237 0
M  V30 1969 C 200.792 -1.95021 -0.530198 0
M  V30 1970 C 201.113 -1.00982 -1.66816 0
M  V30 1971 O 200.383 -0.0672693 -1.95784 0
M  V30 1972 H 198.963 -0.720046 -0.198853 0
M  V30 1973 H 201.625 -1.93916 0.19564 0
M  V30 1974 H 200.721 -2.98211 -0.920681 0
M  V30 1975 N 201.022 0.148545 -1.56898 0
M  V30 1976 C 202.433 0.708766 -1.72723 0
M  V30 1977 C 202.784 1.81734 -0.739395 0
M  V30 1978 O 201.909 2.16194 0.0943169 0
M  V30 1979 C 202.504 1.29245 -3.13179 0
M  V30 1980 C 201.063 1.79925 -3.30611 0
M  V30 1981 C 200.21 0.687111 -2.68652 0
M  V30 1982 H 203.161 -0.0771063 -1.58513 0
M  V30 1983 H 203.182 2.16224 -3.13093 0
M  V30 1984 H 202.694 0.485382 -3.85053 0
M  V30 1985 H 200.795 2.63203 -2.63732 0
M  V30 1986 H 200.908 1.92903 -4.38549 0
M  V30 1987 H 199.272 1.11335 -2.29078 0
M  V30 1988 H 200.055 -0.108483 -3.43129 0
M  V30 1989 N 202.5 1.5196 0.417844 0
M  V30 1990 C 203.432 1.70895 1.52733 0
M  V30 1991 C 204.445 0.589405 1.51756 0
M  V30 1992 O 205.634 0.864312 1.56179 0
M  V30 1993 C 202.734 1.72627 2.91639 0
M  V30 1994 C 201.907 3.01479 3.16905 0
M  V30 1995 C 200.966 2.95139 4.35637 0
M  V30 1996 O 199.992 3.69059 4.3334 0
M  V30 1997 N 201.194 2.12328 5.40275 0
M  V30 1998 H 203.959 2.66612 1.36888 0
M  V30 1999 H 201.52 1.50089 0.607037 0
M  V30 2000 H 203.512 1.65928 3.6912 0
M  V30 2001 H 202.082 0.844216 3.00985 0
M  V30 2002 H 201.302 3.21895 2.27546 0
M  V30 2003 H 202.59 3.86736 3.30625 0
M  V30 2004 H 201.988 1.51685 5.44985 0
M  V30 2005 H 200.545 2.11494 6.16534 0
M  V30 2006 N 203.978 -0.674533 1.42435 0
M  V30 2007 C 204.941 -1.76986 1.45632 0
M  V30 2008 C 205.941 -1.5708 0.343871 0
M  V30 2009 O 207.131 -1.63367 0.604709 0
M  V30 2010 C 204.263 -3.15623 1.28822 0
M  V30 2011 H 205.456 -1.75539 2.43158 0
M  V30 2012 H 203.009 -0.884189 1.28887 0
M  V30 2013 H 203.744 -3.22696 0.322193 0
M  V30 2014 H 203.529 -3.31475 2.09444 0
M  V30 2015 H 205.019 -3.95537 1.33942 0
M  V30 2016 N 205.456 -1.28612 -0.910864 0
M  V30 2017 C 206.419 -1.12803 -1.9952 0
M  V30 2018 C 207.419 -0.0668264 -1.60661 0
M  V30 2019 O 208.609 -0.312847 -1.71368 0
M  V30 2020 C 205.741 -0.72254 -3.33155 0
M  V30 2021 H 206.934 -2.09109 -2.14973 0
M  V30 2022 H 204.487 -1.11639 -1.09391 0
M  V30 2023 H 205.222 0.241152 -3.23402 0
M  V30 2024 H 205.007 -1.48916 -3.62721 0
M  V30 2025 H 206.497 -0.634666 -4.12749 0
M  V30 2026 N 206.934 1.1197 -1.10907 0
M  V30 2027 C 208.345 1.65114 -0.871446 0
M  V30 2028 C 208.696 1.86885 0.597353 0
M  V30 2029 O 207.821 1.59896 1.45816 0
M  V30 2030 C 208.416 2.99944 -1.5754 0
M  V30 2031 C 206.975 3.50018 -1.38435 0
M  V30 2032 C 206.122 2.24941 -1.62164 0
M  V30 2033 H 209.073 0.956851 -1.2661 0
M  V30 2034 H 209.094 3.66651 -1.01721 0
M  V30 2035 H 208.606 2.84067 -2.64438 0
M  V30 2036 H 206.707 3.71071 -0.337214 0
M  V30 2037 H 206.82 4.29165 -2.12965 0
M  V30 2038 H 205.184 2.3229 -1.04467 0
M  V30 2039 H 205.967 2.11612 -2.70324 0
M  V30 2040 N 208.412 0.89855 1.29475 0
M  V30 2041 C 209.66 0.522847 1.9522 0
M  V30 2042 C 209.981 -0.93371 1.71192 0
M  V30 2043 O 209.251 -1.65823 1.04305 0
M  V30 2044 H 207.831 0.190366 0.722336 0
M  V30 2045 H 210.493 1.14459 1.5775 0
M  V30 2046 H 209.589 0.704476 3.04045 0
M  V30 2047 N 209.89 -1.43072 0.660911 0
M  V30 2048 C 210.8 -2.34585 -0.0264163 0
M  V30 2049 C 211.816 -1.54316 -0.803898 0
M  V30 2050 O 212.992 -1.86939 -0.749391 0
M  V30 2051 C 210.057 -3.32689 -0.975639 0
M  V30 2052 C 209.118 -4.2886 -0.194236 0
M  V30 2053 C 208.351 -5.22278 -1.09825 0
M  V30 2054 O 208.574 -5.20299 -2.33763 0
M  V30 2055 O 207.508 -5.99228 -0.566513 0
M  V30 2056 H 211.334 -2.94869 0.727034 0
M  V30 2057 H 208.919 -1.43342 0.42111 0
M  V30 2058 H 210.801 -3.92995 -1.52094 0
M  V30 2059 H 209.476 -2.74898 -1.70918 0
M  V30 2060 H 208.383 -3.72011 0.394835 0
M  V30 2061 H 209.716 -4.89655 0.499899 0
M  V30 2062 N 211.368 -0.403325 -1.52352 0
M  V30 2063 C 212.593 0.176499 -2.06648 0
M  V30 2064 C 213.018 1.38577 -1.27193 0
M  V30 2065 O 212.376 1.7879 -0.300637 0
M  V30 2066 C 212.424 0.511061 -3.5696 0
M  V30 2067 O 211.528 1.60294 -3.79973 0
M  V30 2068 H 210.869 0.0167337 -0.663789 0
M  V30 2069 H 213.399 -0.574848 -1.96359 0
M  V30 2070 H 213.409 0.771362 -4.00642 0
M  V30 2071 H 212.084 -0.37296 -4.14224 0
M  V30 2072 H 210.661 1.33526 -3.48174 0
M  V30 2073 N 212.846 1.57033 -0.133567 0
M  V30 2074 C 214.095 1.94861 0.520768 0
M  V30 2075 C 214.408 1.02012 1.66892 0
M  V30 2076 O 215.614 1.29365 2.38699 0
M  V30 2077 C 214.07 3.46362 0.977809 0
M  V30 2078 C 213.678 4.47773 -0.142674 0
M  V30 2079 C 215.422 3.93083 1.60269 0
M  V30 2080 C 213.329 5.90468 0.331883 0
M  V30 2081 H 212.259 0.727453 0.198315 0
M  V30 2082 H 214.91 1.82227 -0.215759 0
M  V30 2083 H 213.292 3.54282 1.7692 0
M  V30 2084 H 214.466 4.51536 -0.919317 0
M  V30 2085 H 212.781 4.10891 -0.675124 0
M  V30 2086 H 215.378 4.97121 1.96914 0
M  V30 2087 H 215.721 3.33876 2.48662 0
M  V30 2088 H 216.254 3.88025 0.876453 0
M  V30 2089 H 212.993 6.53463 -0.516341 0
M  V30 2090 H 212.513 5.90094 1.07469 0
M  V30 2091 H 214.192 6.42179 0.788332 0
M  V30 2092 N 214.325 -0.140222 1.56975 0
M  V30 2093 C 215.571 -0.848084 1.84876 0
M  V30 2094 C 215.926 -1.78481 0.718481 0
M  V30 2095 O 215.219 -1.89497 -0.283093 0
M  V30 2096 C 215.413 -1.65386 3.16832 0
M  V30 2097 C 215.242 -0.79665 4.42587 0
M  V30 2098 C 214.012 -0.459648 5.03205 0
M  V30 2099 C 216.21 -0.12389 5.14151 0
M  V30 2100 N 214.192 0.410446 6.12526 0
M  V30 2101 C 215.563 0.606064 6.17031 0
M  V30 2102 C 217.618 -0.0452654 4.97879 0
M  V30 2103 C 216.321 1.40723 7.054 0
M  V30 2104 C 218.347 0.742658 5.86718 0
M  V30 2105 C 217.709 1.46087 6.89085 0
M  V30 2106 H 213.808 -0.287946 0.727056 0
M  V30 2107 H 216.392 -0.11304 1.94372 0
M  V30 2108 H 214.563 -2.36009 3.08471 0
M  V30 2109 H 216.295 -2.30541 3.32615 0
M  V30 2110 H 213.05 -0.797006 4.66846 0
M  V30 2111 H 213.474 0.836716 6.7181 0
M  V30 2112 H 218.116 -0.586184 4.18717 0
M  V30 2113 H 215.834 1.95938 7.83986 0
M  V30 2114 H 219.42 0.805574 5.76196 0
M  V30 2115 H 218.3 2.06077 7.56639 0
M  V30 2116 N 215.803 -1.52179 -0.40978 0
M  V30 2117 C 216.736 -1.70196 -1.52015 0
M  V30 2118 C 217.714 -0.549542 -1.53032 0
M  V30 2119 O 218.898 -0.776815 -1.71749 0
M  V30 2120 C 216.025 -1.74069 -2.90547 0
M  V30 2121 C 215.071 -2.95601 -3.07445 0
M  V30 2122 S 215.904 -4.55956 -2.80827 0
M  V30 2123 C 217.06 -4.62614 -4.21591 0
M  V30 2124 H 217.293 -2.64109 -1.36504 0
M  V30 2125 H 214.826 -1.4221 -0.601312 0
M  V30 2126 H 216.784 -1.76985 -3.70387 0
M  V30 2127 H 215.445 -0.812835 -3.034 0
M  V30 2128 H 214.638 -2.94791 -4.08796 0
M  V30 2129 H 214.24 -2.90569 -2.35469 0
M  V30 2130 H 216.532 -4.39951 -5.15218 0
M  V30 2131 H 217.475 -5.64548 -4.27424 0
M  V30 2132 H 217.883 -3.91654 -4.06531 0
M  V30 2133 N 217.281 0.66697 -1.42791 0
M  V30 2134 C 218.244 1.76211 -1.46568 0
M  V30 2135 C 219.244 1.56896 -0.352196 0
M  V30 2136 O 220.434 1.63044 -0.613364 0
M  V30 2137 C 217.566 3.14935 -1.30494 0
M  V30 2138 H 218.759 1.74247 -2.44086 0
M  V30 2139 H 216.312 0.877342 -1.29354 0
M  V30 2140 H 217.047 3.2252 -0.339301 0
M  V30 2141 H 216.832 3.30359 -2.11199 0
M  V30 2142 H 218.322 3.94821 -1.36038 0
M  V30 2143 N 218.759 1.29093 0.90403 0
M  V30 2144 C 219.689 1.16401 2.02418 0
M  V30 2145 C 220.67 0.0593085 1.69997 0
M  V30 2146 O 221.855 0.238021 1.92736 0
M  V30 2147 C 218.985 0.835233 3.37107 0
M  V30 2148 C 217.939 1.89578 3.83724 0
M  V30 2149 C 217.265 1.42041 5.15489 0
M  V30 2150 C 218.565 3.30394 4.04521 0
M  V30 2151 H 220.259 2.10109 2.13295 0
M  V30 2152 H 217.805 1.01157 1.02486 0
M  V30 2153 H 219.758 0.733169 4.14973 0
M  V30 2154 H 218.482 -0.137543 3.2631 0
M  V30 2155 H 217.141 1.98715 3.08071 0
M  V30 2156 H 216.789 0.436426 5.01103 0
M  V30 2157 H 216.489 2.12964 5.4765 0
M  V30 2158 H 218.013 1.33176 5.959 0
M  V30 2159 H 219.427 3.24123 4.72882 0
M  V30 2160 H 217.824 3.99237 4.48029 0
M  V30 2161 H 218.894 3.73692 3.09002 0
M  V30 2162 N 220.237 -1.11381 1.11499 0
M  V30 2163 C 221.483 -1.83403 0.865512 0
M  V30 2164 C 221.816 -1.84459 -0.607329 0
M  V30 2165 O 221.091 -1.29811 -1.44842 0
M  V30 2166 C 221.374 -3.30552 1.42855 0
M  V30 2167 C 221.227 -3.37886 2.96906 0
M  V30 2168 C 222.546 -4.26643 1.08 0
M  V30 2169 H 219.665 -0.665879 0.31587 0
M  V30 2170 H 222.307 -1.30601 1.37998 0
M  V30 2171 H 220.457 -3.75648 0.990985 0
M  V30 2172 H 222.129 -3.01343 3.49271 0
M  V30 2173 H 220.372 -2.78088 3.32941 0
M  V30 2174 H 221.043 -4.41458 3.31389 0
M  V30 2175 H 223.519 -3.89729 1.45775 0
M  V30 2176 H 222.395 -5.27986 1.50072 0
M  V30 2177 H 222.656 -4.42099 -0.00915037 0
M  V30 2178 N 221.715 -0.905404 -1.28997 0
M  V30 2179 C 222.645 -0.404212 -2.29975 0
M  V30 2180 C 223.626 0.523784 -1.61835 0
M  V30 2181 O 224.811 0.433298 -1.89304 0
M  V30 2182 C 221.941 0.364042 -3.45387 0
M  V30 2183 C 220.895 -0.474048 -4.25367 0
M  V30 2184 C 220.221 0.422045 -5.33032 0
M  V30 2185 C 221.521 -1.72696 -4.92923 0
M  V30 2186 H 223.215 -1.24807 -2.72146 0
M  V30 2187 H 220.761 -0.601585 -1.30832 0
M  V30 2188 H 222.714 0.725447 -4.15109 0
M  V30 2189 H 221.438 1.24174 -3.02074 0
M  V30 2190 H 220.097 -0.81786 -3.57361 0
M  V30 2191 H 219.745 1.29804 -4.85963 0
M  V30 2192 H 219.445 -0.135057 -5.87445 0
M  V30 2193 H 220.969 0.779517 -6.05604 0
M  V30 2194 H 222.383 -1.43495 -5.55051 0
M  V30 2195 H 220.78 -2.22582 -5.57295 0
M  V30 2196 H 221.85 -2.45964 -4.17887 0
M  V30 2197 N 223.193 1.4272 -0.668489 0
M  V30 2198 C 224.123 2.335 -0.000100175 0
M  V30 2199 C 225.104 1.50328 0.795964 0
M  V30 2200 O 226.289 1.78949 0.754385 0
M  V30 2201 C 223.419 3.33874 0.956302 0
M  V30 2202 C 222.373 4.27152 0.269278 0
M  V30 2203 C 221.699 5.17684 1.33818 0
M  V30 2204 C 222.999 5.15373 -0.847805 0
M  V30 2205 H 224.693 2.89639 -0.758244 0
M  V30 2206 H 222.239 1.39269 -0.366079 0
M  V30 2207 H 224.192 3.9629 1.43292 0
M  V30 2208 H 222.916 2.76025 1.74579 0
M  V30 2209 H 221.575 3.66123 -0.187042 0
M  V30 2210 H 221.223 4.56165 2.1195 0
M  V30 2211 H 220.923 5.80918 0.883659 0
M  V30 2212 H 222.447 5.82974 1.81586 0
M  V30 2213 H 223.861 5.7151 -0.452681 0
M  V30 2214 H 222.258 5.87407 -1.22773 0
M  V30 2215 H 223.328 4.5415 -1.69929 0
M  V30 2216 N 224.671 0.411399 1.52136 0
M  V30 2217 C 225.919 -0.163322 2.01439 0
M  V30 2218 C 226.24 -1.45453 1.29879 0
M  V30 2219 O 225.51 -1.91225 0.4254 0
M  V30 2220 H 224.09 -0.0633447 0.744309 0
M  V30 2221 H 226.752 0.548161 1.87033 0
M  V30 2222 H 225.848 -0.357817 3.10042 0
M  V30 2223 N 226.149 -1.5696 0.141893 0
M  V30 2224 C 227.079 -2.19516 -0.795936 0
M  V30 2225 C 228.06 -1.14187 -1.26077 0
M  V30 2226 O 229.245 -1.42511 -1.31925 0
M  V30 2227 C 226.375 -2.81272 -2.03723 0
M  V30 2228 C 225.329 -3.92384 -1.70936 0
M  V30 2229 C 224.655 -4.41052 -3.02287 0
M  V30 2230 C 225.955 -5.13403 -0.959954 0
M  V30 2231 H 227.649 -2.98138 -0.274596 0
M  V30 2232 H 225.195 -1.43406 -0.130636 0
M  V30 2233 H 227.148 -3.237 -2.69808 0
M  V30 2234 H 225.872 -1.99973 -2.58221 0
M  V30 2235 H 224.531 -3.50566 -1.07232 0
M  V30 2236 H 224.179 -3.56582 -3.54765 0
M  V30 2237 H 223.879 -5.15993 -2.81114 0
M  V30 2238 H 225.403 -4.86146 -3.69451 0
M  V30 2239 H 226.817 -5.52706 -1.52279 0
M  V30 2240 H 225.214 -5.94073 -0.848357 0
M  V30 2241 H 226.284 -4.84875 0.0492434 0
M  V30 2242 N 227.627 0.131896 -1.57047 0
M  V30 2243 C 228.874 0.841932 -1.84168 0
M  V30 2244 C 229.202 1.8048 -0.725066 0
M  V30 2245 O 228.457 1.93618 0.284692 0
M  V30 2246 C 228.756 1.63703 -3.17704 0
M  V30 2247 C 228.422 0.81961 -4.43388 0
M  V30 2248 C 227.084 0.594148 -4.77518 0
M  V30 2249 C 229.436 0.248977 -5.20605 0
M  V30 2250 C 226.764 -0.212409 -5.86315 0
M  V30 2251 C 229.116 -0.544701 -6.30251 0
M  V30 2252 C 227.78 -0.780599 -6.6292 0
M  V30 2253 H 227.05 0.308085 -0.673917 0
M  V30 2254 H 229.697 0.104867 -1.91213 0
M  V30 2255 H 228.002 2.44464 -3.06177 0
M  V30 2256 H 229.699 2.19015 -3.35907 0
M  V30 2257 H 226.289 1.00542 -4.16641 0
M  V30 2258 H 230.473 0.410408 -4.946 0
M  V30 2259 H 225.729 -0.404524 -6.1006 0
M  V30 2260 H 229.903 -0.993922 -6.89271 0
M  V30 2261 H 227.53 -1.40742 -7.47058 0
M  V30 2262 N 229.106 1.52395 0.401703 0
M  V30 2263 C 230.036 1.79231 1.49661 0
M  V30 2264 C 231.017 0.643654 1.57452 0
M  V30 2265 O 232.202 0.889989 1.72606 0
M  V30 2266 C 229.332 1.94971 2.87409 0
M  V30 2267 C 228.286 3.10604 2.94465 0
M  V30 2268 C 227.612 3.11577 4.34538 0
M  V30 2269 C 228.912 4.49921 2.6527 0
M  V30 2270 H 230.606 2.70917 1.27454 0
M  V30 2271 H 228.152 1.30362 0.6117 0
M  V30 2272 H 230.105 2.12328 3.63999 0
M  V30 2273 H 228.829 0.999632 3.10926 0
M  V30 2274 H 227.488 2.93009 2.20321 0
M  V30 2275 H 227.136 2.14277 4.55076 0
M  V30 2276 H 226.836 3.89247 4.40183 0
M  V30 2277 H 228.36 3.31073 5.13053 0
M  V30 2278 H 229.774 4.67683 3.31581 0
M  V30 2279 H 228.171 5.29564 2.82281 0
M  V30 2280 H 229.241 4.57507 1.60671 0
M  V30 2281 N 230.584 -0.659388 1.43143 0
M  V30 2282 C 231.514 -1.78422 1.50625 0
M  V30 2283 C 232.495 -1.66216 0.361443 0
M  V30 2284 O 233.68 -1.85404 0.577834 0
M  V30 2285 C 230.81 -3.16815 1.42287 0
M  V30 2286 C 229.764 -3.43777 2.54954 0
M  V30 2287 C 229.09 -4.81905 2.31671 0
M  V30 2288 C 230.39 -3.39134 3.97222 0
M  V30 2289 H 232.084 -1.72417 2.44771 0
M  V30 2290 H 229.63 -0.828084 1.17808 0
M  V30 2291 H 231.583 -3.95253 1.46127 0
M  V30 2292 H 230.307 -3.23534 0.446435 0
M  V30 2293 H 228.966 -2.67707 2.50457 0
M  V30 2294 H 228.614 -4.85294 1.32284 0
M  V30 2295 H 228.314 -5.00906 3.07192 0
M  V30 2296 H 229.838 -5.62609 2.37284 0
M  V30 2297 H 231.252 -4.07518 4.03239 0
M  V30 2298 H 229.649 -3.69671 4.72719 0
M  V30 2299 H 230.719 -2.37426 4.22797 0
M  V30 2300 N 232.062 -1.29571 -0.897171 0
M  V30 2301 C 232.992 -1.17473 -2.01798 0
M  V30 2302 C 233.973 -0.068323 -1.69963 0
M  V30 2303 O 235.158 -0.248239 -1.92607 0
M  V30 2304 C 232.288 -0.853099 -3.36659 0
M  V30 2305 C 231.242 -1.9161 -3.82713 0
M  V30 2306 C 230.568 -1.44773 -5.14728 0
M  V30 2307 C 231.868 -3.32535 -4.02763 0
M  V30 2308 H 233.562 -2.11237 -2.12177 0
M  V30 2309 H 231.108 -1.01699 -1.01948 0
M  V30 2310 H 233.061 -0.755165 -4.14578 0
M  V30 2311 H 231.785 0.120236 -3.26379 0
M  V30 2312 H 230.444 -2.00346 -3.07013 0
M  V30 2313 H 230.092 -0.462995 -5.00865 0
M  V30 2314 H 229.792 -2.15865 -5.46513 0
M  V30 2315 H 231.316 -1.36334 -5.95185 0
M  V30 2316 H 232.73 -3.26626 -4.71156 0
M  V30 2317 H 231.127 -4.01607 -4.45905 0
M  V30 2318 H 232.197 -3.75326 -3.07016 0
M  V30 2319 N 233.54 1.10788 -1.12088 0
M  V30 2320 C 234.47 2.19083 -0.807755 0
M  V30 2321 C 235.451 1.6858 0.226859 0
M  V30 2322 O 236.636 1.93997 0.0888475 0
M  V30 2323 C 233.766 3.46344 -0.257576 0
M  V30 2324 C 232.72 4.101 -1.22483 0
M  V30 2325 C 232.046 5.32016 -0.535052 0
M  V30 2326 C 233.346 4.54236 -2.57811 0
M  V30 2327 H 235.04 2.45534 -1.71328 0
M  V30 2328 H 232.586 1.1801 -0.825205 0
M  V30 2329 H 234.539 4.21392 -0.0262679 0
M  V30 2330 H 233.263 3.19373 0.683278 0
M  V30 2331 H 231.922 3.37054 -1.44189 0
M  V30 2332 H 231.57 5.01319 0.410827 0
M  V30 2333 H 231.27 5.75625 -1.18024 0
M  V30 2334 H 232.794 6.09799 -0.312695 0
M  V30 2335 H 234.208 5.20575 -2.40155 0
M  V30 2336 H 232.605 5.08682 -3.18375 0
M  V30 2337 H 233.675 3.6734 -3.16528 0
M  V30 2338 N 235.018 0.912232 1.28515 0
M  V30 2339 C 235.948 0.416403 2.29757 0
M  V30 2340 C 236.929 -0.515194 1.6211 0
M  V30 2341 O 238.114 -0.423253 1.89532 0
M  V30 2342 C 235.244 -0.34572 3.45575 0
M  V30 2343 C 234.198 0.496599 4.25109 0
M  V30 2344 C 233.524 -0.393771 5.33248 0
M  V30 2345 C 234.824 1.75307 4.92001 0
M  V30 2346 H 236.518 1.26249 2.7148 0
M  V30 2347 H 234.064 0.608515 1.30511 0
M  V30 2348 H 236.017 -0.703422 4.15488 0
M  V30 2349 H 234.741 -1.2257 3.02728 0
M  V30 2350 H 233.4 0.8368 3.56922 0
M  V30 2351 H 233.048 -1.27225 4.86644 0
M  V30 2352 H 232.748 0.166209 5.87365 0
M  V30 2353 H 234.272 -0.747389 6.06009 0
M  V30 2354 H 235.686 1.46437 5.54283 0
M  V30 2355 H 234.083 2.25534 5.56106 0
M  V30 2356 H 235.153 2.48176 4.16577 0
M  V30 2357 N 236.496 -1.42363 0.676048 0
M  V30 2358 C 237.426 -2.33497 0.0124832 0
M  V30 2359 C 238.407 -1.50748 -0.787981 0
M  V30 2360 O 239.592 -1.79346 -0.744884 0
M  V30 2361 C 236.722 -3.34377 -0.938582 0
M  V30 2362 C 235.676 -4.27289 -0.246622 0
M  V30 2363 C 235.002 -5.18386 -1.31071 0
M  V30 2364 C 236.302 -5.14916 0.875125 0
M  V30 2365 H 237.996 -2.89233 0.773593 0
M  V30 2366 H 235.542 -1.39073 0.37346 0
M  V30 2367 H 237.495 -3.97044 -1.41188 0
M  V30 2368 H 236.219 -2.76947 -1.73113 0
M  V30 2369 H 234.878 -3.66018 0.206456 0
M  V30 2370 H 234.526 -4.57282 -2.09528 0
M  V30 2371 H 234.226 -5.81378 -0.852839 0
M  V30 2372 H 235.75 -5.83929 -1.78492 0
M  V30 2373 H 237.164 -5.71262 0.482983 0
M  V30 2374 H 235.561 -5.86747 1.25887 0
M  V30 2375 H 236.631 -4.53242 1.72335 0
M  V30 2376 N 237.974 -0.419461 -1.51915 0
M  V30 2377 C 238.904 0.391813 -2.30189 0
M  V30 2378 C 239.885 1.03699 -1.34836 0
M  V30 2379 O 241.07 1.04403 -1.63748 0
M  V30 2380 C 238.2 1.50312 -3.13087 0
M  V30 2381 C 237.154 0.9824 -4.16573 0
M  V30 2382 C 236.48 2.18809 -4.8788 0
M  V30 2383 C 237.78 0.0292356 -5.22292 0
M  V30 2384 H 239.474 -0.26135 -2.98257 0
M  V30 2385 H 237.02 -0.127134 -1.43438 0
M  V30 2386 H 238.973 2.07773 -3.66617 0
M  V30 2387 H 237.697 2.18431 -2.42807 0
M  V30 2388 H 236.356 0.430119 -3.64068 0
M  V30 2389 H 236.004 2.85507 -4.14119 0
M  V30 2390 H 235.704 1.84615 -5.57845 0
M  V30 2391 H 237.228 2.76858 -5.44226 0
M  V30 2392 H 238.642 0.512976 -5.71 0
M  V30 2393 H 237.039 -0.2244 -5.9968 0
M  V30 2394 H 238.109 -0.912931 -4.76228 0
M  V30 2395 N 239.452 1.56882 -0.150215 0
M  V30 2396 C 240.7 1.9584 0.499105 0
M  V30 2397 C 241.021 1.03623 1.65188 0
M  V30 2398 O 240.291 0.0984084 1.95653 0
M  V30 2399 H 238.871 0.723119 0.187373 0
M  V30 2400 H 241.533 1.9358 -0.226466 0
M  V30 2401 H 240.629 2.99638 0.873122 0
M  V30 2402 N 240.93 -0.123565 1.57115 0
M  V30 2403 C 242.155 -0.850398 1.89164 0
M  V30 2404 C 242.58 -1.7286 0.741688 0
M  V30 2405 O 241.938 -1.78665 -0.307958 0
M  V30 2406 C 241.986 -1.66353 3.19936 0
M  V30 2407 O 241.09 -2.77004 3.0552 0
M  V30 2408 H 240.431 -0.235454 0.620852 0
M  V30 2409 H 242.961 -0.107335 2.04318 0
M  V30 2410 H 242.971 -2.05372 3.52543 0
M  V30 2411 H 241.646 -1.01881 4.03228 0
M  V30 2412 H 240.223 -2.41221 2.84371 0
M  V30 2413 N 242.408 -1.52605 -0.393616 0
M  V30 2414 C 243.657 -1.66649 -1.13627 0
M  V30 2415 C 243.97 -0.410364 -1.91247 0
M  V30 2416 O 245.176 -0.430854 -2.68059 0
M  V30 2417 C 243.632 -2.9449 -2.06891 0
M  V30 2418 C 243.24 -4.27266 -1.34714 0
M  V30 2419 C 244.984 -3.17899 -2.81319 0
M  V30 2420 C 242.891 -5.46217 -2.26717 0
M  V30 2421 H 241.821 -0.62084 -0.427871 0
M  V30 2422 H 244.472 -1.791 -0.399428 0
M  V30 2423 H 242.854 -2.75774 -2.84191 0
M  V30 2424 H 244.028 -4.56518 -0.626714 0
M  V30 2425 H 242.343 -4.10081 -0.722643 0
M  V30 2426 H 244.94 -4.03949 -3.50328 0
M  V30 2427 H 245.283 -2.32777 -3.45139 0
M  V30 2428 H 245.816 -3.37159 -2.11113 0
M  V30 2429 H 242.555 -6.33733 -1.67521 0
M  V30 2430 H 242.075 -5.21283 -2.96689 0
M  V30 2431 H 243.754 -5.7991 -2.86903 0
M  V30 2432 N 243.887 0.651787 -1.4349 0
M  V30 2433 C 245.136 1.40754 -1.44469 0
M  V30 2434 C 245.449 1.95463 -0.0731845 0
M  V30 2435 O 246.655 2.71471 0.0395721 0
M  V30 2436 C 245.111 2.54735 -2.5424 0
M  V30 2437 C 244.719 2.06628 -3.97504 0
M  V30 2438 C 246.463 3.32092 -2.64414 0
M  V30 2439 C 244.37 3.17829 -4.98737 0
M  V30 2440 H 243.3 0.528862 -0.53742 0
M  V30 2441 H 245.951 0.703365 -1.69485 0
M  V30 2442 H 244.333 3.2763 -2.22428 0
M  V30 2443 H 245.507 1.40734 -4.38783 0
M  V30 2444 H 243.822 1.42146 -3.91387 0
M  V30 2445 H 246.419 4.14952 -3.37223 0
M  V30 2446 H 246.762 3.80217 -1.69532 0
M  V30 2447 H 247.295 2.66279 -2.95534 0
M  V30 2448 H 244.034 2.74671 -5.95177 0
M  V30 2449 H 243.554 3.82429 -4.62069 0
M  V30 2450 H 245.233 3.82937 -5.21505 0
M  V30 2451 N 245.365 1.30045 0.890287 0
M  V30 2452 C 246.295 1.18541 2.01172 0
M  V30 2453 C 247.276 0.0773356 1.69924 0
M  V30 2454 O 248.461 0.25845 1.92473 0
M  V30 2455 C 245.591 0.870941 3.36202 0
M  V30 2456 C 244.545 1.93637 3.81692 0
M  V30 2457 C 243.871 1.475 5.13953 0
M  V30 2458 C 245.171 3.34666 4.00994 0
M  V30 2459 H 246.865 2.12359 2.11054 0
M  V30 2460 H 244.411 1.02238 1.01407 0
M  V30 2461 H 246.364 0.777141 4.14172 0
M  V30 2462 H 245.088 -0.102926 3.26438 0
M  V30 2463 H 243.747 2.01972 3.05946 0
M  V30 2464 H 243.395 0.489551 5.00612 0
M  V30 2465 H 243.095 2.1876 5.4536 0
M  V30 2466 H 244.619 1.39489 5.94454 0
M  V30 2467 H 246.033 3.2912 4.69417 0
M  V30 2468 H 244.43 4.03966 4.43769 0
M  V30 2469 H 245.5 3.76949 3.05021 0
M  V30 2470 N 246.843 -1.10192 1.12674 0
M  V30 2471 C 247.806 -2.14786 0.799979 0
M  V30 2472 C 248.806 -1.59711 -0.18685 0
M  V30 2473 O 249.996 -1.74156 0.0392558 0
M  V30 2474 C 247.128 -3.40374 0.189228 0
M  V30 2475 H 248.321 -2.45203 1.72671 0
M  V30 2476 H 245.874 -1.25597 0.930326 0
M  V30 2477 H 246.609 -3.15577 -0.747107 0
M  V30 2478 H 246.394 -3.81637 0.899766 0
M  V30 2479 H 247.884 -4.17594 -0.0228143 0
M  V30 2480 N 248.321 -0.919034 -1.28029 0
M  V30 2481 C 249.251 -0.428581 -2.29533 0
M  V30 2482 C 250.232 0.50659 -1.62381 0
M  V30 2483 O 251.417 0.413195 -1.89753 0
M  V30 2484 C 248.547 0.327388 -3.45753 0
M  V30 2485 C 247.501 -0.519137 -4.2484 0
M  V30 2486 C 246.827 0.365486 -5.33449 0
M  V30 2487 C 248.127 -1.77914 -4.91064 0
M  V30 2488 H 249.821 -1.27687 -2.70807 0
M  V30 2489 H 247.367 -0.615428 -1.30186 0
M  V30 2490 H 249.32 0.681378 -4.15855 0
M  V30 2491 H 248.044 1.20963 -3.03374 0
M  V30 2492 H 246.703 -0.855717 -3.56473 0
M  V30 2493 H 246.351 1.24642 -4.87312 0
M  V30 2494 H 246.051 -0.197356 -5.87268 0
M  V30 2495 H 247.575 0.715241 -6.06396 0
M  V30 2496 H 248.989 -1.49374 -5.53498 0
M  V30 2497 H 247.386 -2.2848 -5.54903 0
M  V30 2498 H 248.456 -2.50382 -4.15255 0
M  V30 2499 N 249.799 1.42003 -0.683588 0
M  V30 2500 C 250.729 2.33487 -0.024866 0
M  V30 2501 C 251.71 1.51163 0.779975 0
M  V30 2502 O 252.895 1.79739 0.735362 0
M  V30 2503 C 250.025 3.3487 0.920836 0
M  V30 2504 C 248.979 4.27414 0.223958 0
M  V30 2505 C 248.305 5.19074 1.2832 0
M  V30 2506 C 249.605 5.14445 -0.90242 0
M  V30 2507 H 251.299 2.88819 -0.788921 0
M  V30 2508 H 248.845 1.38873 -0.38083 0
M  V30 2509 H 250.798 3.97787 1.39081 0
M  V30 2510 H 249.522 2.77861 1.71642 0
M  V30 2511 H 248.181 3.65904 -0.225864 0
M  V30 2512 H 247.829 4.58387 2.071 0
M  V30 2513 H 247.529 5.81822 0.821995 0
M  V30 2514 H 249.053 5.84867 1.75392 0
M  V30 2515 H 250.467 5.70998 -0.513272 0
M  V30 2516 H 248.864 5.86072 -1.28997 0
M  V30 2517 H 249.934 4.52322 -1.74737 0
M  V30 2518 N 251.277 0.427512 1.51691 0
M  V30 2519 C 252.209 -0.424521 2.25234 0
M  V30 2520 C 253.222 -0.994671 1.2888 0
M  V30 2521 O 254.411 -0.890483 1.54702 0
M  V30 2522 C 251.511 -1.60479 2.98496 0
M  V30 2523 C 250.684 -1.15527 4.21868 0
M  V30 2524 C 249.743 -2.20454 4.77793 0
M  V30 2525 O 248.769 -1.8029 5.39893 0
M  V30 2526 N 249.971 -3.52831 4.60967 0
M  V30 2527 H 252.736 0.205749 2.98993 0
M  V30 2528 H 250.297 0.255867 1.59865 0
M  V30 2529 H 252.289 -2.30276 3.32799 0
M  V30 2530 H 250.859 -2.14061 2.27809 0
M  V30 2531 H 250.079 -0.284736 3.9317 0
M  V30 2532 H 251.367 -0.832173 5.01949 0
M  V30 2533 H 250.765 -3.88201 4.11481 0
M  V30 2534 H 249.322 -4.18551 4.99658 0
M  V30 2535 N 252.755 -1.56801 0.158532 0
M  V30 2536 C 254.171 -1.5837 -0.197774 0
M  V30 2537 C 254.371 -1.17334 -1.63814 0
M  V30 2538 O 253.427 -0.878988 -2.36707 0
M  V30 2539 C 254.74 -3.00615 0.0714459 0
M  V30 2540 C 256.288 -3.12999 0.00864533 0
M  V30 2541 C 256.763 -4.57313 0.250685 0
M  V30 2542 N 258.254 -4.62777 0.198014 0
M  V30 2543 C 258.989 -5.72271 0.359642 0
M  V30 2544 N 258.485 -6.90371 0.579625 0
M  V30 2545 N 260.278 -5.61318 0.296438 0
M  V30 2546 H 252.429 -1.81765 1.09887 0
M  V30 2547 H 254.692 -0.841849 0.435884 0
M  V30 2548 H 254.398 -3.35068 1.06874 0
M  V30 2549 H 254.272 -3.71683 -0.642757 0
M  V30 2550 H 256.659 -2.7838 -0.979217 0
M  V30 2551 H 256.74 -2.44393 0.755359 0
M  V30 2552 H 256.384 -4.92639 1.2357 0
M  V30 2553 H 256.314 -5.24061 -0.516489 0
M  V30 2554 H 258.805 -3.77885 0.0331115 0
M  V30 2555 H 259.118 -7.69689 0.69275 0
M  V30 2556 H 257.463 -6.92264 0.616087 0
M  V30 2557 H 260.654 -4.67932 0.125258 0
M  V30 2558 H 260.827 -6.46599 0.425831 0
M  V30 2559 N 254.233 0.115231 -1.57178 0
M  V30 2560 C 255.18 1.14115 -2.00615 0
M  V30 2561 C 256.15 1.40939 -0.878941 0
M  V30 2562 O 257.335 1.52741 -1.14345 0
M  V30 2563 C 254.475 2.46156 -2.4187 0
M  V30 2564 C 253.588 2.26236 -3.68024 0
M  V30 2565 C 252.723 3.51534 -3.98243 0
M  V30 2566 C 251.762 3.26787 -5.17568 0
M  V30 2567 N 250.899 4.44298 -5.43639 0
M  V30 2568 H 255.739 0.763743 -2.88047 0
M  V30 2569 H 253.276 0.365615 -1.42484 0
M  V30 2570 H 255.234 3.23189 -2.63827 0
M  V30 2571 H 253.864 2.81783 -1.57475 0
M  V30 2572 H 252.916 1.40102 -3.5366 0
M  V30 2573 H 254.228 2.03929 -4.55208 0
M  V30 2574 H 253.382 4.36984 -4.20868 0
M  V30 2575 H 252.121 3.76876 -3.09541 0
M  V30 2576 H 251.126 2.39729 -4.94783 0
M  V30 2577 H 252.351 3.02812 -6.0785 0
M  V30 2578 H 250.297 4.69754 -4.57895 0
M  V30 2579 H 250.214 4.25109 -6.25154 0
M  V30 2580 H 251.482 5.3087 -5.70786 0
M  V30 2581 N 255.711 1.52812 0.385517 0
M  V30 2582 C 256.659 1.78482 1.49155 0
M  V30 2583 C 257.653 0.652914 1.56312 0
M  V30 2584 O 258.859 0.835464 1.59436 0
M  V30 2585 H 255.234 0.5648 0.496493 0
M  V30 2586 H 257.205 2.71095 1.24699 0
M  V30 2587 C 255.954 1.97378 2.86247 0
M  V30 2588 H 255.277 2.83907 2.81491 0
M  V30 2589 H 256.717 2.19327 3.62866 0
M  V30 2590 C 255.176 0.74728 3.28508 0
M  V30 2591 O 255.706 -0.0736232 4.01633 0
M  V30 2592 N 253.912 0.576396 2.84826 0
M  V30 2593 H 253.459 1.24555 2.25486 0
M  V30 2594 H 253.417 -0.24288 3.1346 0
M  V30 2595 N 257.189 -0.644168 1.43834 0
M  V30 2596 C 258.419 -1.42939 1.49171 0
M  V30 2597 C 258.827 -1.88874 0.111048 0
M  V30 2598 O 258.17 -1.60656 -0.8908 0
M  V30 2599 C 258.232 -2.69151 2.38324 0
M  V30 2600 C 257.896 -2.45097 3.85715 0
M  V30 2601 C 258.893 -2.07747 4.76589 0
M  V30 2602 C 256.578 -2.59141 4.30292 0
M  V30 2603 C 258.572 -1.8475 6.10038 0
M  V30 2604 C 256.259 -2.35759 5.63792 0
M  V30 2605 C 257.257 -1.9862 6.53482 0
M  V30 2606 O 256.945 -1.75489 7.84512 0
M  V30 2607 H 256.677 -0.445271 0.508635 0
M  V30 2608 H 259.231 -0.79621 1.8934 0
M  V30 2609 H 257.461 -3.3506 1.93058 0
M  V30 2610 H 259.15 -3.31123 2.3476 0
M  V30 2611 H 259.916 -1.96465 4.43426 0
M  V30 2612 H 255.795 -2.87022 3.60749 0
M  V30 2613 H 259.339 -1.55686 6.80006 0
M  V30 2614 H 255.236 -2.46646 5.9652 0
M  V30 2615 H 256.004 -1.89841 7.9618 0
M  V30 2616 N 258.668 -1.30515 -0.883378 0
M  V30 2617 C 260.084 -1.08881 -1.16692 0
M  V30 2618 C 260.284 0.149409 -2.00945 0
M  V30 2619 O 259.34 0.84257 -2.38027 0
M  V30 2620 C 260.653 -2.35319 -1.87204 0
M  V30 2621 C 262.201 -2.40799 -1.99962 0
M  V30 2622 C 262.676 -3.67083 -2.73887 0
M  V30 2623 N 264.167 -3.679 -2.81432 0
M  V30 2624 C 264.902 -4.62303 -3.3921 0
M  V30 2625 N 264.398 -5.67052 -3.98025 0
M  V30 2626 N 266.191 -4.49845 -3.3704 0
M  V30 2627 H 258.342 -2.09951 -0.321633 0
M  V30 2628 H 260.605 -0.92556 -0.205043 0
M  V30 2629 H 260.311 -3.25689 -1.3274 0
M  V30 2630 H 260.185 -2.44089 -2.87577 0
M  V30 2631 H 262.572 -1.50907 -2.53597 0
M  V30 2632 H 262.653 -2.36003 -0.98673 0
M  V30 2633 H 262.297 -4.57334 -2.20925 0
M  V30 2634 H 262.227 -3.69141 -3.75556 0
M  V30 2635 H 264.718 -2.92171 -2.39676 0
M  V30 2636 H 265.031 -6.35184 -4.40183 0
M  V30 2637 H 263.376 -5.70842 -3.96439 0
M  V30 2638 H 266.567 -3.67194 -2.90321 0
M  V30 2639 H 266.74 -5.23597 -3.81772 0
M  V30 2640 N 260.146 1.09593 -1.13257 0
M  V30 2641 C 261.392 1.82003 -0.89458 0
M  V30 2642 C 261.725 1.85402 0.577906 0
M  V30 2643 O 261 1.32099 1.42759 0
M  V30 2644 C 261.283 3.28237 -1.48096 0
M  V30 2645 C 261.136 3.3312 -3.02244 0
M  V30 2646 C 262.455 4.24871 -1.14774 0
M  V30 2647 H 259.574 0.66077 -0.326424 0
M  V30 2648 H 262.216 1.28389 -1.40058 0
M  V30 2649 H 260.366 3.74024 -1.05062 0
M  V30 2650 H 262.038 2.95748 -3.54021 0
M  V30 2651 H 260.281 2.72756 -3.37323 0
M  V30 2652 H 260.952 4.3613 -3.38371 0
M  V30 2653 H 263.428 3.87361 -1.51957 0
M  V30 2654 H 262.304 5.25532 -1.58452 0
M  V30 2655 H 262.565 4.42058 -0.0611849 0
M  V30 2656 N 261.624 0.925811 1.2754 0
M  V30 2657 C 263.04 0.625767 1.46821 0
M  V30 2658 C 263.24 -0.825506 1.83814 0
M  V30 2659 O 262.296 -1.60356 1.95044 0
M  V30 2660 C 263.609 1.57402 2.56213 0
M  V30 2661 C 265.157 1.58204 2.70075 0
M  V30 2662 C 265.632 2.51721 3.82623 0
M  V30 2663 N 267.123 2.49917 3.89994 0
M  V30 2664 C 267.858 3.18968 4.76494 0
M  V30 2665 N 267.354 3.97391 5.67496 0
M  V30 2666 N 269.147 3.07996 4.70208 0
M  V30 2667 H 261.298 1.86409 1.01811 0
M  V30 2668 H 263.561 0.800213 0.508295 0
M  V30 2669 H 263.267 2.60925 2.35819 0
M  V30 2670 H 263.141 1.31428 3.53563 0
M  V30 2671 H 265.528 0.554124 2.89851 0
M  V30 2672 H 265.609 1.88226 1.73218 0
M  V30 2673 H 265.253 3.54622 3.63601 0
M  V30 2674 H 265.183 2.18996 4.78903 0
M  V30 2675 H 267.674 1.9296 3.24923 0
M  V30 2676 H 267.987 4.4707 6.30356 0
M  V30 2677 H 266.332 4.01495 5.67298 0
M  V30 2678 H 269.523 2.46223 3.9811 0
M  V30 2679 H 269.696 3.6208 5.37403 0
M  V30 2680 N 263.102 -1.41638 0.69111 0
M  V30 2681 C 264.35 -2.00902 0.219758 0
M  V30 2682 C 264.671 -1.54994 -1.18329 0
M  V30 2683 O 263.941 -0.778628 -1.79762 0
M  V30 2684 H 262.521 -0.74289 0.0782558 0
M  V30 2685 H 265.183 -1.73327 0.891271 0
M  V30 2686 H 264.279 -3.11224 0.233708 0
M  V30 2687 N 264.58 -0.43555 -1.51462 0
M  V30 2688 C 265.49 0.383001 -2.31453 0
M  V30 2689 C 266.506 1.02931 -1.4029 0
M  V30 2690 O 267.682 1.02507 -1.73362 0
M  V30 2691 C 264.747 1.47043 -3.13973 0
M  V30 2692 C 263.808 0.844433 -4.20913 0
M  V30 2693 C 263.041 1.88004 -4.9949 0
M  V30 2694 O 263.264 3.10199 -4.78678 0
M  V30 2695 O 262.198 1.47157 -5.83634 0
M  V30 2696 H 266.024 -0.269964 -3.02498 0
M  V30 2697 H 263.609 -0.19813 -1.4808 0
M  V30 2698 H 265.491 2.10113 -3.65281 0
M  V30 2699 H 264.166 2.10751 -2.45695 0
M  V30 2700 H 263.073 0.175729 -3.73687 0
M  V30 2701 H 264.406 0.250869 -4.9156 0
M  V30 2702 N 266.058 1.56714 -0.166846 0
M  V30 2703 C 267.469 1.83378 0.350646 0
M  V30 2704 C 267.82 1.08646 1.63372 0
M  V30 2705 O 266.945 0.338058 2.13743 0
M  V30 2706 C 267.54 3.32643 0.642963 0
M  V30 2707 C 266.099 3.59818 1.10491 0
M  V30 2708 C 265.246 2.76954 0.138411 0
M  V30 2709 H 268.197 1.53803 -0.391193 0
M  V30 2710 H 268.218 3.49878 1.49551 0
M  V30 2711 H 267.73 3.87007 -0.291055 0
M  V30 2712 H 265.831 3.1086 2.05418 0
M  V30 2713 H 265.944 4.68178 1.01716 0
M  V30 2714 H 264.308 2.4666 0.634911 0
M  V30 2715 H 265.091 3.34097 -0.789549 0
M  V30 2716 N 267.536 -0.106894 1.57237 0
M  V30 2717 C 268.782 -0.81373 1.85759 0
M  V30 2718 C 269.115 -1.78952 0.754315 0
M  V30 2719 O 268.39 -1.93029 -0.23879 0
M  V30 2720 C 268.673 -1.55293 3.24894 0
M  V30 2721 C 268.526 -0.595929 4.45835 0
M  V30 2722 C 269.845 -2.5063 3.61763 0
M  V30 2723 H 266.964 -0.294369 0.67566 0
M  V30 2724 H 269.606 -0.0776472 1.89841 0
M  V30 2725 H 267.756 -2.1804 3.21544 0
M  V30 2726 H 269.428 0.0236262 4.61294 0
M  V30 2727 H 267.671 0.0916191 4.33703 0
M  V30 2728 H 268.342 -1.15004 5.39887 0
M  V30 2729 H 270.818 -1.97982 3.65981 0
M  V30 2730 H 269.694 -2.99376 4.60071 0
M  V30 2731 H 269.955 -3.3385 2.89821 0
M  V30 2732 N 269.014 -1.53014 -0.377408 0
M  V30 2733 C 270.425 -1.60438 -0.954798 0
M  V30 2734 C 270.776 -0.464418 -1.90624 0
M  V30 2735 O 269.901 0.41087 -2.12464 0
M  V30 2736 C 270.496 -2.90797 -1.73847 0
M  V30 2737 C 269.055 -3.00595 -2.26538 0
M  V30 2738 C 268.202 -2.55645 -1.07429 0
M  V30 2739 H 271.153 -1.57926 -0.156575 0
M  V30 2740 H 271.174 -2.77935 -2.5987 0
M  V30 2741 H 270.686 -3.73746 -1.04574 0
M  V30 2742 H 268.787 -2.22208 -2.99089 0
M  V30 2743 H 268.9 -4.05456 -2.5523 0
M  V30 2744 H 267.264 -2.10239 -1.43777 0
M  V30 2745 H 268.047 -3.41 -0.396728 0
M  V30 2746 N 270.492 0.636531 -1.44174 0
M  V30 2747 C 271.402 1.77754 -1.53103 0
M  V30 2748 C 272.418 1.68928 -0.417034 0
M  V30 2749 O 273.594 1.89801 -0.6736 0
M  V30 2750 C 270.659 3.14115 -1.46741 0
M  V30 2751 C 269.72 3.34612 -2.68948 0
M  V30 2752 C 268.953 4.64467 -2.6288 0
M  V30 2753 O 269.176 5.44919 -1.68581 0
M  V30 2754 O 268.11 4.87049 -3.53648 0
M  V30 2755 H 271.936 1.73174 -2.49489 0
M  V30 2756 H 269.521 0.79709 -1.2636 0
M  V30 2757 H 271.403 3.95412 -1.45696 0
M  V30 2758 H 270.078 3.19249 -0.534975 0
M  V30 2759 H 268.985 2.53014 -2.75562 0
M  V30 2760 H 270.318 3.34336 -3.61221 0
M  V30 2761 N 271.97 1.30982 0.876444 0
M  V30 2762 C 273.381 1.18277 1.44456 0
M  V30 2763 C 273.732 -0.213265 1.95037 0
M  V30 2764 O 272.857 -1.11057 1.85729 0
M  V30 2765 C 273.452 2.1411 2.62569 0
M  V30 2766 C 272.011 2.05358 3.15444 0
M  V30 2767 C 271.158 2.03706 1.88146 0
M  V30 2768 H 274.109 1.43127 0.685584 0
M  V30 2769 H 274.13 1.72692 3.39054 0
M  V30 2770 H 273.642 3.15706 2.25724 0
M  V30 2771 H 271.743 1.06934 3.56926 0
M  V30 2772 H 271.856 2.94156 3.78166 0
M  V30 2773 H 270.22 1.48629 2.06837 0
M  V30 2774 H 271.003 3.07047 1.53547 0
M  V30 2775 N 273.449 -1.08991 1.13837 0
M  V30 2776 C 274.865 -1.33312 0.877506 0
M  V30 2777 C 275.065 -1.95587 -0.48456 0
M  V30 2778 O 274.121 -2.20509 -1.23013 0
M  V30 2779 C 275.434 -2.24045 2.0056 0
M  V30 2780 C 276.982 -2.37542 2.03821 0
M  V30 2781 C 277.457 -3.31614 3.15905 0
M  V30 2782 N 278.948 -3.39189 3.15445 0
M  V30 2783 C 279.683 -4.11992 3.98811 0
M  V30 2784 N 279.179 -4.87553 4.92203 0
M  V30 2785 N 280.972 -4.07762 3.86894 0
M  V30 2786 H 273.123 -0.669456 2.01574 0
M  V30 2787 H 275.386 -0.357482 0.878015 0
M  V30 2788 H 275.092 -1.85521 2.98789 0
M  V30 2789 H 274.966 -3.24466 1.92359 0
M  V30 2790 H 277.353 -2.75327 1.06202 0
M  V30 2791 H 277.434 -1.36884 2.16093 0
M  V30 2792 H 277.078 -2.94551 4.13766 0
M  V30 2793 H 277.008 -4.32186 3.0087 0
M  V30 2794 H 279.499 -2.85314 2.47799 0
M  V30 2795 H 279.812 -5.40549 5.52292 0
M  V30 2796 H 278.157 -4.86627 4.96205 0
M  V30 2797 H 281.348 -3.47833 3.13257 0
M  V30 2798 H 281.521 -4.64238 4.52092 0
M  V30 2799 N 274.927 -0.932562 -1.27047 0
M  V30 2800 C 276.338 -0.619451 -1.76124 0
M  V30 2801 C 276.689 0.865397 -1.76083 0
M  V30 2802 O 275.814 1.67722 -1.36742 0
M  V30 2803 C 276.409 -1.11771 -3.19832 0
M  V30 2804 C 274.968 -0.855174 -3.66557 0
M  V30 2805 C 274.115 -1.27362 -2.46321 0
M  V30 2806 H 277.066 -1.11181 -1.13245 0
M  V30 2807 H 277.087 -0.46759 -3.77616 0
M  V30 2808 H 276.599 -2.19842 -3.1983 0
M  V30 2809 H 274.7 0.211524 -3.71999 0
M  V30 2810 H 274.813 -1.47613 -4.55793 0
M  V30 2811 H 273.177 -0.692119 -2.45116 0
M  V30 2812 H 273.96 -2.36307 -2.49025 0
M  V30 2813 N 276.405 1.4127 -0.698611 0
M  V30 2814 C 277.682 1.94955 -0.158762 0
M  V30 2815 C 278.062 1.63781 1.33188 0
M  V30 2816 O 277.41 0.946423 2.07979 0
M  V30 2817 C 277.62 3.46044 -0.453309 0
M  V30 2818 C 278.968 4.22872 -0.382707 0
M  V30 2819 O 279.992 3.54076 -0.388396 0
M  V30 2820 O 278.851 5.45407 -0.345463 0
M  V30 2821 H 275.945 0.82683 -0.0167505 0
M  V30 2822 H 278.491 1.50971 -0.77498 0
M  V30 2823 H 277.263 3.62028 -1.48498 0
M  V30 2824 H 276.886 3.97128 0.19373 0
M  V30 2825 N 277.883 0.443576 1.51229 0
M  V30 2826 C 279.108 -0.121648 2.07043 0
M  V30 2827 C 279.533 -1.35156 1.30823 0
M  V30 2828 O 278.891 -1.7793 0.347934 0
M  V30 2829 C 278.939 -0.41624 3.5819 0
M  V30 2830 O 278.043 -1.50163 3.8409 0
M  V30 2831 H 277.384 0.000871367 0.663999 0
M  V30 2832 H 279.914 0.626706 1.94765 0
M  V30 2833 H 279.924 -0.664867 4.02546 0
M  V30 2834 H 278.599 0.482653 4.1309 0
M  V30 2835 H 277.176 -1.24248 3.51592 0
M  V30 2836 N 279.361 -1.56624 0.175154 0
M  V30 2837 C 280.609 -1.96609 -0.467885 0
M  V30 2838 C 280.93 -1.06238 -1.63519 0
M  V30 2839 O 280.2 -0.129523 -1.95471 0
M  V30 2840 H 278.78 -0.726008 -0.175845 0
M  V30 2841 H 281.442 -1.93195 0.257234 0
M  V30 2842 H 280.538 -3.00989 -0.825342 0
M  V30 2843 N 280.839 0.0985539 -1.57292 0
M  V30 2844 C 282.255 0.45267 -1.53046 0
M  V30 2845 C 282.455 1.80713 -0.891342 0
M  V30 2846 O 281.511 2.4785 -0.482375 0
M  V30 2847 C 282.824 0.418341 -2.97776 0
M  V30 2848 C 284.372 0.500443 -3.08973 0
M  V30 2849 C 284.847 0.496297 -4.55303 0
M  V30 2850 N 286.338 0.557151 -4.59837 0
M  V30 2851 C 287.073 0.575726 -5.70502 0
M  V30 2852 N 286.569 0.550714 -6.90608 0
M  V30 2853 N 288.362 0.620277 -5.58667 0
M  V30 2854 H 280.513 -0.788673 -1.97215 0
M  V30 2855 H 282.776 -0.293188 -0.901524 0
M  V30 2856 H 282.482 -0.509659 -3.47988 0
M  V30 2857 H 282.356 1.2386 -3.56284 0
M  V30 2858 H 284.743 1.41886 -2.58751 0
M  V30 2859 H 284.824 -0.347894 -2.53423 0
M  V30 2860 H 284.468 -0.418162 -5.06176 0
M  V30 2861 H 284.398 1.3618 -5.08687 0
M  V30 2862 H 286.889 0.581816 -3.73394 0
M  V30 2863 H 287.202 0.568075 -7.70709 0
M  V30 2864 H 285.547 0.517816 -6.93068 0
M  V30 2865 H 288.738 0.637322 -4.63741 0
M  V30 2866 H 288.911 0.631283 -6.44918 0
M  V30 2867 N 282.317 1.53212 0.369288 0
M  V30 2868 C 283.594 1.59815 1.12776 0
M  V30 2869 C 283.974 0.403402 2.0721 0
M  V30 2870 O 283.322 -0.606667 2.20299 0
M  V30 2871 C 283.532 2.94664 1.87013 0
M  V30 2872 C 284.88 3.49109 2.41677 0
M  V30 2873 O 285.904 2.96669 1.97144 0
M  V30 2874 O 284.763 4.40775 3.23079 0
M  V30 2875 H 281.857 0.645376 0.517125 0
M  V30 2876 H 284.403 1.65553 0.37285 0
M  V30 2877 H 283.175 3.73061 1.18071 0
M  V30 2878 H 282.798 2.92401 2.69421 0
M  V30 2879 N 283.795 -0.628877 1.44509 0
M  V30 2880 C 285.041 -1.38863 1.48623 0
M  V30 2881 C 285.396 -1.92038 0.117933 0
M  V30 2882 O 284.689 -1.70853 -0.86716 0
M  V30 2883 C 284.883 -2.56995 2.48371 0
M  V30 2884 C 284.712 -2.15385 3.94765 0
M  V30 2885 C 283.482 -2.02558 4.62924 0
M  V30 2886 C 285.68 -1.74158 4.83915 0
M  V30 2887 N 283.662 -1.54534 5.94132 0
M  V30 2888 C 285.033 -1.37396 6.04584 0
M  V30 2889 C 287.088 -1.61559 4.7096 0
M  V30 2890 C 285.791 -0.892948 7.13736 0
M  V30 2891 C 287.817 -1.14862 5.80139 0
M  V30 2892 C 287.179 -0.790516 6.9995 0
M  V30 2893 H 283.278 -0.502858 0.59888 0
M  V30 2894 H 285.862 -0.72121 1.8085 0
M  V30 2895 H 284.033 -3.21362 2.1813 0
M  V30 2896 H 285.765 -3.23801 2.42766 0
M  V30 2897 H 282.52 -2.23082 4.1777 0
M  V30 2898 H 282.944 -1.32815 6.63844 0
M  V30 2899 H 287.586 -1.87876 3.78764 0
M  V30 2900 H 285.304 -0.617291 8.05739 0
M  V30 2901 H 288.89 -1.05569 5.72142 0
M  V30 2902 H 287.77 -0.434713 7.82994 0
M  V30 2903 N 285.273 -1.31445 -0.869486 0
M  V30 2904 C 286.498 -1.24256 -1.66058 0
M  V30 2905 C 286.923 0.188928 -1.87149 0
M  V30 2906 O 286.281 1.13522 -1.4136 0
M  V30 2907 C 286.329 -1.9924 -3.00559 0
M  V30 2908 O 285.433 -1.33007 -3.90362 0
M  V30 2909 H 284.774 -0.428973 -0.506831 0
M  V30 2910 H 287.304 -1.73521 -1.08404 0
M  V30 2911 H 287.314 -2.08854 -3.50491 0
M  V30 2912 H 285.989 -3.03342 -2.84528 0
M  V30 2913 H 284.566 -1.31848 -3.48813 0
M  V30 2914 N 286.751 1.08385 -1.14413 0
M  V30 2915 C 287.997 1.81044 -0.913834 0
M  V30 2916 C 288.33 1.86004 0.558209 0
M  V30 2917 O 287.605 1.33606 1.4135 0
M  V30 2918 C 287.888 3.26648 -1.51569 0
M  V30 2919 C 287.741 3.29895 -3.0576 0
M  V30 2920 C 289.06 4.23629 -1.19273 0
M  V30 2921 H 286.179 0.65727 -0.333414 0
M  V30 2922 H 288.821 1.26896 -1.41412 0
M  V30 2923 H 286.971 3.72889 -1.09023 0
M  V30 2924 H 288.643 2.91977 -3.57137 0
M  V30 2925 H 286.886 2.69163 -3.40197 0
M  V30 2926 H 287.557 4.32516 -3.42977 0
M  V30 2927 H 290.033 3.85727 -1.56057 0
M  V30 2928 H 288.909 5.23822 -1.64017 0
M  V30 2929 H 289.17 4.41968 -0.108068 0
M  V30 2930 N 288.23 0.939286 1.26551 0
M  V30 2931 C 289.14 0.453432 2.30176 0
M  V30 2932 C 290.156 -0.471649 1.67486 0
M  V30 2933 O 291.332 -0.35164 1.98306 0
M  V30 2934 C 288.397 -0.275326 3.45605 0
M  V30 2935 C 287.458 0.686084 4.23782 0
M  V30 2936 C 286.691 -0.00798994 5.33699 0
M  V30 2937 O 286.914 -1.22528 5.57085 0
M  V30 2938 O 285.848 0.669746 5.98162 0
M  V30 2939 H 289.674 1.31416 2.73795 0
M  V30 2940 H 287.259 0.705095 1.31715 0
M  V30 2941 H 289.141 -0.685911 4.1578 0
M  V30 2942 H 287.816 -1.11147 3.0402 0
M  V30 2943 H 286.723 1.14658 3.56096 0
M  V30 2944 H 288.056 1.48979 4.69112 0
M  V30 2945 N 289.708 -1.40897 0.706093 0
M  V30 2946 C 290.638 -2.33418 0.0620085 0
M  V30 2947 C 291.619 -1.52385 -0.755827 0
M  V30 2948 O 292.804 -1.80886 -0.706674 0
M  V30 2949 C 289.934 -3.36293 -0.867445 0
M  V30 2950 C 288.888 -4.27716 -0.155932 0
M  V30 2951 C 288.214 -5.2105 -1.20046 0
M  V30 2952 C 289.514 -5.12944 0.984149 0
M  V30 2953 H 291.208 -2.87527 0.83477 0
M  V30 2954 H 288.754 -1.38249 0.402875 0
M  V30 2955 H 290.707 -3.99949 -1.32735 0
M  V30 2956 H 289.431 -2.80556 -1.67199 0
M  V30 2957 H 288.09 -3.65498 0.284047 0
M  V30 2958 H 287.738 -4.61624 -1.99781 0
M  V30 2959 H 287.438 -5.83056 -0.729328 0
M  V30 2960 H 288.962 -5.87584 -1.66066 0
M  V30 2961 H 290.376 -5.70109 0.604048 0
M  V30 2962 H 288.773 -5.83945 1.38304 0
M  V30 2963 H 289.843 -4.49485 1.81911 0
M  V30 2964 N 291.186 -0.45159 -1.50991 0
M  V30 2965 C 292.118 0.388634 -2.25881 0
M  V30 2966 C 293.131 0.974041 -1.30446 0
M  V30 2967 O 294.32 0.865758 -1.56099 0
M  V30 2968 C 291.42 1.5571 -3.01011 0
M  V30 2969 C 290.593 1.08801 -4.23652 0
M  V30 2970 C 289.652 2.12825 -4.8124 0
M  V30 2971 O 288.678 1.71678 -5.42693 0
M  V30 2972 N 289.88 3.45453 -4.66522 0
M  V30 2973 H 292.645 -0.25329 -2.98628 0
M  V30 2974 H 290.206 -0.281268 -1.59438 0
M  V30 2975 H 292.198 2.24952 -3.3642 0
M  V30 2976 H 290.768 2.10409 -2.31186 0
M  V30 2977 H 289.988 0.22215 -3.93574 0
M  V30 2978 H 291.276 0.752213 -5.03209 0
M  V30 2979 H 290.674 3.81605 -4.17605 0
M  V30 2980 H 289.231 4.10549 -5.06254 0
M  V30 2981 N 292.664 1.56529 -0.183458 0
M  V30 2982 C 293.574 2.22144 0.754272 0
M  V30 2983 C 294.59 1.21684 1.24374 0
M  V30 2984 O 295.766 1.54385 1.29333 0
M  V30 2985 C 292.831 2.85884 1.96141 0
M  V30 2986 C 291.892 4.01579 1.51765 0
M  V30 2987 C 291.125 4.6227 2.66725 0
M  V30 2988 O 291.348 4.21865 3.83909 0
M  V30 2989 O 290.282 5.51936 2.40104 0
M  V30 2990 H 294.108 3.02861 0.225527 0
M  V30 2991 H 291.693 1.49331 0.0453032 0
M  V30 2992 H 293.575 3.26253 2.66715 0
M  V30 2993 H 292.25 2.08154 2.47899 0
M  V30 2994 H 291.157 3.65856 0.781049 0
M  V30 2995 H 292.49 4.80938 1.04686 0
M  V30 2996 N 294.142 -0.090211 1.57342 0
M  V30 2997 C 295.072 -1.10976 2.05443 0
M  V30 2998 C 296.053 -1.41482 0.944284 0
M  V30 2999 O 297.238 -1.51428 1.21586 0
M  V30 3000 C 294.368 -2.42831 2.48295 0
M  V30 3001 C 293.322 -2.26721 3.63018 0
M  V30 3002 C 292.648 -3.63796 3.91863 0
M  V30 3003 C 293.948 -1.7037 4.93732 0
M  V30 3004 H 295.642 -0.709564 2.9087 0
M  V30 3005 H 293.188 -0.339874 1.39932 0
M  V30 3006 H 295.141 -3.14431 2.80555 0
M  V30 3007 H 293.865 -2.84795 1.59873 0
M  V30 3008 H 292.524 -1.57565 3.31012 0
M  V30 3009 H 292.172 -4.03297 3.00601 0
M  V30 3010 H 291.872 -3.53861 4.69101 0
M  V30 3011 H 293.396 -4.36855 4.26603 0
M  V30 3012 H 294.81 -2.31816 5.24342 0
M  V30 3013 H 293.207 -1.71181 5.75167 0
M  V30 3014 H 294.277 -0.663542 4.80339 0
M  V30 3015 N 295.62 -1.53406 -0.361157 0
M  V30 3016 C 297.031 -1.61442 -0.937728 0
M  V30 3017 C 297.382 -0.48461 -1.90121 0
M  V30 3018 O 296.507 0.388312 -2.12888 0
M  V30 3019 C 297.102 -2.92624 -1.70753 0
M  V30 3020 C 295.661 -3.02981 -2.23337 0
M  V30 3021 C 294.808 -2.5677 -1.04712 0
M  V30 3022 H 297.759 -1.58083 -0.139816 0
M  V30 3023 H 297.78 -2.80675 -2.56908 0
M  V30 3024 H 297.292 -3.74834 -1.00604 0
M  V30 3025 H 295.393 -2.25368 -2.96715 0
M  V30 3026 H 295.506 -4.0814 -2.50916 0
M  V30 3027 H 293.87 -2.11752 -1.41539 0
M  V30 3028 H 294.653 -3.41402 -0.360539 0
M  V30 3029 N 297.098 0.621204 -1.44841 0
M  V30 3030 C 298.008 1.7612 -1.5498 0
M  V30 3031 C 299.024 1.68477 -0.434927 0
M  V30 3032 O 300.2 1.89076 -0.693693 0
M  V30 3033 C 297.265 3.1254 -1.50065 0
M  V30 3034 C 296.326 3.31741 -2.72482 0
M  V30 3035 C 295.559 4.61653 -2.67792 0
M  V30 3036 O 295.782 5.431 -1.74352 0
M  V30 3037 O 294.716 4.83271 -3.58794 0
M  V30 3038 H 298.542 1.70518 -2.51311 0
M  V30 3039 H 296.127 0.783643 -1.27198 0
M  V30 3040 H 298.009 3.93844 -1.49882 0
M  V30 3041 H 296.684 3.18663 -0.568806 0
M  V30 3042 H 295.591 2.50077 -2.7823 0
M  V30 3043 H 296.924 3.30486 -3.64746 0
M  V30 3044 N 298.576 1.31904 0.862503 0
M  V30 3045 C 299.506 1.22782 1.98612 0
M  V30 3046 C 300.487 0.113362 1.69722 0
M  V30 3047 O 301.672 0.299218 1.91881 0
M  V30 3048 C 298.802 0.942058 3.34279 0
M  V30 3049 C 297.756 2.0169 3.77499 0
M  V30 3050 C 297.082 1.58369 5.10709 0
M  V30 3051 C 298.382 3.43096 3.93805 0
M  V30 3052 H 300.076 2.16788 2.06502 0
M  V30 3053 H 297.622 1.04366 0.992154 0
M  V30 3054 H 299.575 0.864818 4.1243 0
M  V30 3055 H 298.299 -0.0336603 3.26583 0
M  V30 3056 H 296.958 2.08416 3.01593 0
M  V30 3057 H 296.606 0.595628 4.99461 0
M  V30 3058 H 296.306 2.30279 5.40597 0
M  V30 3059 H 297.83 1.52067 5.91361 0
M  V30 3060 H 299.244 3.39003 4.62331 0
M  V30 3061 H 297.641 4.13288 4.35101 0
M  V30 3062 H 298.711 3.83334 2.96957 0
M  V30 3063 N 300.054 -1.07777 1.14986 0
M  V30 3064 C 301.294 -1.81888 0.932527 0
M  V30 3065 C 301.658 -1.84509 -0.531064 0
M  V30 3066 O 302.859 -2.54448 -0.866577 0
M  V30 3067 C 301.13 -3.23244 1.52473 0
M  V30 3068 S 302.689 -4.14154 1.44989 0
M  V30 3069 H 299.507 -0.626752 0.335712 0
M  V30 3070 H 302.109 -1.29503 1.46455 0
M  V30 3071 H 300.813 -3.18922 2.58296 0
M  V30 3072 H 300.344 -3.80704 0.991381 0
M  V30 3073 H 302.359 -4.94247 0.439799 0
M  V30 3074 N 301.532 -0.945985 -1.26051 0
M  V30 3075 C 302.779 -0.596118 -1.93527 0
M  V30 3076 C 303.107 0.865559 -1.74179 0
M  V30 3077 O 302.362 1.63524 -1.0751 0
M  V30 3078 C 302.661 -0.890475 -3.46129 0
M  V30 3079 C 302.327 -2.3368 -3.85622 0
M  V30 3080 C 300.989 -2.73216 -3.96114 0
M  V30 3081 C 303.341 -3.27648 -4.05334 0
M  V30 3082 C 300.669 -4.05806 -4.2372 0
M  V30 3083 C 303.021 -4.59841 -4.3443 0
M  V30 3084 C 301.685 -4.99185 -4.43137 0
M  V30 3085 H 300.955 -0.218135 -0.708165 0
M  V30 3086 H 303.602 -1.1934 -1.49768 0
M  V30 3087 H 301.907 -0.210711 -3.91233 0
M  V30 3088 H 303.604 -0.598478 -3.96509 0
M  V30 3089 H 300.194 -2.02015 -3.78005 0
M  V30 3090 H 304.378 -2.98298 -3.96651 0
M  V30 3091 H 299.634 -4.35945 -4.28675 0
M  V30 3092 H 303.808 -5.32641 -4.48628 0
M  V30 3093 H 301.435 -6.01952 -4.64282 0
M  V30 3094 N 303.011 1.40521 -0.713556 0
M  V30 3095 C 304.236 2.05759 -0.26035 0
M  V30 3096 C 304.661 1.53403 1.08854 0
M  V30 3097 O 304.019 0.668535 1.68524 0
M  V30 3098 C 304.067 3.59745 -0.248122 0
M  V30 3099 O 303.171 4.05123 0.77131 0
M  V30 3100 H 302.512 0.652564 -0.122703 0
M  V30 3101 H 305.042 1.79958 -0.973467 0
M  V30 3102 H 305.052 4.07911 -0.0851129 0
M  V30 3103 H 303.727 3.97218 -1.2325 0
M  V30 3104 H 302.304 3.68422 0.57619 0
M  V30 3105 N 304.489 0.459591 1.5075 0
M  V30 3106 C 305.421 -0.37665 2.26084 0
M  V30 3107 C 306.434 -0.967109 1.30961 0
M  V30 3108 O 307.623 -0.857468 1.56556 0
M  V30 3109 C 304.723 -1.54112 3.01832 0
M  V30 3110 C 303.896 -1.06553 4.24223 0
M  V30 3111 C 302.955 -2.1027 4.82362 0
M  V30 3112 O 301.981 -1.68798 5.43595 0
M  V30 3113 N 303.183 -3.42974 4.68347 0
M  V30 3114 H 305.948 0.269124 2.98489 0
M  V30 3115 H 303.509 0.28972 1.59287 0
M  V30 3116 H 305.501 -2.23165 3.37608 0
M  V30 3117 H 304.071 -2.0918 2.32298 0
M  V30 3118 H 303.291 -0.201274 3.93686 0
M  V30 3119 H 304.579 -0.725516 5.03601 0
M  V30 3120 H 303.977 -3.79385 4.19623 0
M  V30 3121 H 302.534 -4.07858 5.08424 0
M  V30 3122 N 305.967 -1.56429 0.191757 0
M  V30 3123 C 307.213 -1.97777 -0.448554 0
M  V30 3124 C 307.546 -1.07847 -1.61501 0
M  V30 3125 O 306.821 -0.129774 -1.94067 0
M  V30 3126 C 307.104 -3.48362 -0.911906 0
M  V30 3127 C 306.957 -4.4907 0.256136 0
M  V30 3128 C 308.276 -4.02561 -1.77857 0
M  V30 3129 H 305.395 -0.719071 -0.161572 0
M  V30 3130 H 308.037 -1.87896 0.282007 0
M  V30 3131 H 306.187 -3.56914 -1.53442 0
M  V30 3132 H 307.859 -4.5256 0.893733 0
M  V30 3133 H 306.102 -4.24181 0.908436 0
M  V30 3134 H 306.773 -5.51889 -0.11053 0
M  V30 3135 H 309.249 -3.96767 -1.25359 0
M  V30 3136 H 308.125 -5.08301 -2.07174 0
M  V30 3137 H 308.386 -3.47616 -2.73158 0
M  V30 3138 N 307.445 0.0818655 -1.57387 0
M  V30 3139 C 308.694 0.781681 -1.85937 0
M  V30 3140 C 309.007 1.79246 -0.782957 0
M  V30 3141 O 310.213 2.54112 -0.955987 0
M  V30 3142 C 308.669 1.44109 -3.29789 0
M  V30 3143 C 308.277 0.469396 -4.45534 0
M  V30 3144 C 310.021 2.12386 -3.67549 0
M  V30 3145 C 307.928 1.13415 -5.80423 0
M  V30 3146 H 306.858 0.295682 -0.693605 0
M  V30 3147 H 309.509 0.0348051 -1.83467 0
M  V30 3148 H 307.891 2.23588 -3.2684 0
M  V30 3149 H 309.065 -0.294856 -4.59856 0
M  V30 3150 H 307.38 -0.108383 -4.16259 0
M  V30 3151 H 309.977 2.62878 -4.65617 0
M  V30 3152 H 310.32 2.91877 -2.96839 0
M  V30 3153 H 310.853 1.39751 -3.72444 0
M  V30 3154 H 307.592 0.379771 -6.54399 0
M  V30 3155 H 307.112 1.8695 -5.69921 0
M  V30 3156 H 308.791 1.65686 -6.25426 0
M  V30 3157 N 308.923 1.53595 0.353017 0
M  V30 3158 C 310.339 1.43648 0.695516 0
M  V30 3159 C 310.539 0.585617 1.92802 0
M  V30 3160 O 309.595 0.0729223 2.52395 0
M  V30 3161 C 310.908 2.8701 0.896991 0
M  V30 3162 C 312.456 2.96723 0.996209 0
M  V30 3163 C 312.931 4.41173 1.23007 0
M  V30 3164 N 314.422 4.44657 1.29749 0
M  V30 3165 C 315.157 5.53547 1.49577 0
M  V30 3166 N 314.653 6.72461 1.66639 0
M  V30 3167 N 316.446 5.41145 1.52048 0
M  V30 3168 H 308.597 2.07415 -0.457481 0
M  V30 3169 H 310.86 0.9372 -0.142687 0
M  V30 3170 H 310.566 3.51644 0.0629938 0
M  V30 3171 H 310.44 3.31401 1.80148 0
M  V30 3172 H 312.827 2.32235 1.82074 0
M  V30 3173 H 312.908 2.55707 0.0688331 0
M  V30 3174 H 312.552 5.06238 0.410505 0
M  V30 3175 H 312.482 4.79772 2.17086 0
M  V30 3176 H 314.973 3.58963 1.18126 0
M  V30 3177 H 315.286 7.51214 1.81378 0
M  V30 3178 H 313.631 6.75423 1.63794 0
M  V30 3179 H 316.822 4.47205 1.38294 0
M  V30 3180 H 316.995 6.26068 1.67159 0
M  V30 3181 N 310.401 -0.613514 1.45168 0
M  V30 3182 C 311.311 -1.75296 1.55912 0
M  V30 3183 C 312.327 -1.68244 0.443856 0
M  V30 3184 O 313.503 -1.88706 0.70371 0
M  V30 3185 C 310.568 -3.1174 1.5172 0
M  V30 3186 C 309.629 -3.30291 2.74238 0
M  V30 3187 C 308.862 -4.60226 2.70236 0
M  V30 3188 O 309.085 -5.42168 1.77229 0
M  V30 3189 O 308.019 -4.81361 3.61352 0
M  V30 3190 H 311.845 -1.69183 2.52212 0
M  V30 3191 H 309.43 -0.776886 1.27612 0
M  V30 3192 H 311.312 -3.93044 1.51968 0
M  V30 3193 H 309.987 -3.18357 0.585697 0
M  V30 3194 H 308.894 -2.48598 2.79553 0
M  V30 3195 H 310.227 -3.28547 3.66494 0
M  V30 3196 N 311.879 -1.3236 -0.855495 0
M  V30 3197 C 313.127 -1.22629 -1.60644 0
M  V30 3198 C 313.448 0.212136 -1.93843 0
M  V30 3199 O 312.718 1.13666 -1.59552 0
M  V30 3200 H 311.298 -0.450882 -0.595579 0
M  V30 3201 H 313.96 -1.65871 -1.02337 0
M  V30 3202 H 313.056 -1.80832 -2.54374 0
M  V30 3203 N 313.357 1.07166 -1.15556 0
M  V30 3204 C 314.605 1.79443 -0.929764 0
M  V30 3205 C 314.926 1.87246 0.544414 0
M  V30 3206 O 314.196 1.37473 1.39564 0
M  V30 3207 H 312.776 0.664625 -0.341003 0
M  V30 3208 H 315.438 1.29499 -1.45657 0
M  V30 3209 H 314.534 2.81832 -1.34079 0
M  V30 3210 N 314.835 0.952656 1.25548 0
M  V30 3211 C 315.785 0.442033 2.23674 0
M  V30 3212 C 316.769 -0.467632 1.53955 0
M  V30 3213 O 317.961 -0.301006 1.74422 0
M  V30 3214 C 315.09 -0.280816 3.4215 0
M  V30 3215 C 314.176 0.646803 4.19139 0
M  V30 3216 N 314.567 1.77759 4.73535 0
M  V30 3217 C 312.865 0.454617 4.43677 0
M  V30 3218 C 313.566 2.35658 5.31827 0
M  V30 3219 N 312.542 1.64333 5.18166 0
M  V30 3220 H 316.344 1.30505 2.63336 0
M  V30 3221 H 313.858 0.809904 1.40763 0
M  V30 3222 H 315.855 -0.663747 4.11582 0
M  V30 3223 H 314.515 -1.14046 3.04012 0
M  V30 3224 H 315.526 2.15949 4.7073 0
M  V30 3225 H 312.203 -0.362312 4.15925 0
M  V30 3226 H 313.593 3.30998 5.84713 0
M  V30 3227 N 316.313 -1.40141 0.720998 0
M  V30 3228 C 317.276 -2.29058 0.0805834 0
M  V30 3229 C 318.276 -1.45632 -0.681758 0
M  V30 3230 O 319.466 -1.6648 -0.512856 0
M  V30 3231 C 316.598 -3.28925 -0.895593 0
M  V30 3232 H 317.791 -2.87191 0.863793 0
M  V30 3233 H 315.344 -1.48553 0.485975 0
M  V30 3234 H 316.079 -2.75822 -1.70566 0
M  V30 3235 H 315.864 -3.90519 -0.351766 0
M  V30 3236 H 317.354 -3.95494 -1.34069 0
M  V30 3237 N 317.792 -0.46758 -1.50504 0
M  V30 3238 C 319.038 0.0887532 -2.02606 0
M  V30 3239 C 319.371 1.39686 -1.34913 0
M  V30 3240 O 318.646 1.88644 -0.473694 0
M  V30 3241 C 318.929 0.276206 -3.59039 0
M  V30 3242 C 318.782 -1.05267 -4.37309 0
M  V30 3243 C 320.101 1.03235 -4.27821 0
M  V30 3244 H 317.22 0.0307814 -0.736357 0
M  V30 3245 H 319.862 -0.612485 -1.79857 0
M  V30 3246 H 318.012 0.8735 -3.78553 0
M  V30 3247 H 319.684 -1.68628 -4.29374 0
M  V30 3248 H 317.927 -1.65015 -4.01189 0
M  V30 3249 H 318.598 -0.875197 -5.45018 0
M  V30 3250 H 321.074 0.526111 -4.12761 0
M  V30 3251 H 319.95 1.1323 -5.37094 0
M  V30 3252 H 320.211 2.06806 -3.90748 0
M  V30 3253 N 319.27 1.56325 -0.20005 0
M  V30 3254 C 320.516 1.98012 0.438059 0
M  V30 3255 C 320.849 1.08702 1.60927 0
M  V30 3256 O 320.124 0.140064 1.93995 0
M  V30 3257 C 320.407 3.48841 0.893419 0
M  V30 3258 C 320.26 4.48928 -0.279947 0
M  V30 3259 C 321.579 4.03498 1.75719 0
M  V30 3260 H 318.698 0.719918 0.157757 0
M  V30 3261 H 321.34 1.87743 -0.291968 0
M  V30 3262 H 319.49 3.57723 1.51547 0
M  V30 3263 H 321.162 4.52079 -0.91772 0
M  V30 3264 H 319.405 4.23694 -0.930919 0
M  V30 3265 H 320.076 5.5194 0.0812601 0
M  V30 3266 H 322.552 3.97427 1.23253 0
M  V30 3267 H 321.428 5.09393 2.04476 0
M  V30 3268 H 321.689 3.4906 2.71311 0
M  V30 3269 N 320.748 -0.0735177 1.57428 0
M  V30 3270 C 321.994 -0.768909 1.88307 0
M  V30 3271 C 322.349 -1.75273 0.793535 0
M  V30 3272 O 321.642 -1.90527 -0.202466 0
M  V30 3273 C 321.836 -1.51799 3.23561 0
M  V30 3274 C 321.665 -0.608217 4.45568 0
M  V30 3275 C 320.435 -0.245808 5.04702 0
M  V30 3276 C 322.633 0.0942904 5.14214 0
M  V30 3277 N 320.615 0.66987 6.10234 0
M  V30 3278 C 321.986 0.867222 6.13905 0
M  V30 3279 C 324.041 0.165943 4.97623 0
M  V30 3280 C 322.744 1.70515 6.98797 0
M  V30 3281 C 324.77 0.990837 5.83041 0
M  V30 3282 C 324.132 1.75182 6.82269 0
M  V30 3283 H 320.231 -0.25685 0.738615 0
M  V30 3284 H 322.815 -0.030499 1.94676 0
M  V30 3285 H 320.986 -2.22713 3.18203 0
M  V30 3286 H 322.718 -2.16226 3.42094 0
M  V30 3287 H 319.473 -0.598284 4.69806 0
M  V30 3288 H 319.897 1.1209 6.67656 0
M  V30 3289 H 324.539 -0.408064 4.20826 0
M  V30 3290 H 322.257 2.29013 7.7497 0
M  V30 3291 H 325.843 1.04923 5.72261 0
M  V30 3292 H 324.723 2.37983 7.47217 0
M  V30 3293 N 322.226 -1.5378 -0.344866 0
M  V30 3294 C 323.189 -1.80981 -1.40637 0
M  V30 3295 C 324.189 -0.680816 -1.45676 0
M  V30 3296 O 325.379 -0.949095 -1.46075 0
M  V30 3297 C 322.511 -1.95063 -2.79577 0
M  V30 3298 H 323.704 -2.75803 -1.17783 0
M  V30 3299 H 321.257 -1.45173 -0.579181 0
M  V30 3300 H 321.992 -1.02379 -3.07716 0
M  V30 3301 H 321.777 -2.77198 -2.77315 0
M  V30 3302 H 323.267 -2.17629 -3.56409 0
M  V30 3303 N 323.704 0.605807 -1.45491 0
M  V30 3304 C 324.952 1.36207 -1.49305 0
M  V30 3305 C 325.273 1.94519 -0.136863 0
M  V30 3306 O 324.543 1.77261 0.833983 0
M  V30 3307 H 323.123 0.50565 -0.549843 0
M  V30 3308 H 325.785 0.711239 -1.81459 0
M  V30 3309 H 324.881 2.18058 -2.23287 0
M  V30 3310 N 325.182 1.32811 0.848464 0
M  V30 3311 C 326.114 1.18095 1.96433 0
M  V30 3312 C 327.127 0.114354 1.62398 0
M  V30 3313 O 328.316 0.363892 1.74751 0
M  V30 3314 C 325.416 0.786798 3.2964 0
M  V30 3315 C 324.589 1.943 3.91875 0
M  V30 3316 C 323.648 1.53138 5.03423 0
M  V30 3317 O 322.674 2.24432 5.23086 0
M  V30 3318 N 323.876 0.430915 5.78898 0
M  V30 3319 H 326.641 2.14218 2.09597 0
M  V30 3320 H 324.202 1.2543 1.02367 0
M  V30 3321 H 326.194 0.493715 4.01677 0
M  V30 3322 H 324.764 -0.0834541 3.12489 0
M  V30 3323 H 323.984 2.40224 3.12547 0
M  V30 3324 H 325.272 2.71689 4.30189 0
M  V30 3325 H 324.67 -0.162333 5.65467 0
M  V30 3326 H 323.227 0.197466 6.51501 0
M  V30 3327 N 326.66 -1.06551 1.16123 0
M  V30 3328 C 327.59 -2.15935 0.88851 0
M  V30 3329 C 328.571 -1.69306 -0.164135 0
M  V30 3330 O 329.756 -1.94193 -0.0167857 0
M  V30 3331 C 326.886 -3.45149 0.385942 0
M  V30 3332 C 325.84 -4.05271 1.3762 0
M  V30 3333 C 325.166 -5.29664 0.732137 0
M  V30 3334 C 326.466 -4.44355 2.74493 0
M  V30 3335 H 328.16 -2.39006 1.80323 0
M  V30 3336 H 325.706 -1.14866 0.868435 0
M  V30 3337 H 327.659 -4.21004 0.182647 0
M  V30 3338 H 326.383 -3.21689 -0.564274 0
M  V30 3339 H 325.042 -3.3147 1.56599 0
M  V30 3340 H 324.69 -5.02499 -0.224483 0
M  V30 3341 H 324.39 -5.70848 1.39307 0
M  V30 3342 H 325.914 -6.08218 0.538802 0
M  V30 3343 H 327.328 -5.11303 2.59311 0
M  V30 3344 H 325.725 -4.96515 3.37035 0
M  V30 3345 H 326.795 -3.55339 3.29943 0
M  V30 3346 N 328.138 -0.959301 -1.25041 0
M  V30 3347 C 329.07 -0.440543 -2.24926 0
M  V30 3348 C 330.083 0.446131 -1.56568 0
M  V30 3349 O 331.272 0.253657 -1.76689 0
M  V30 3350 C 328.372 0.38412 -3.36716 0
M  V30 3351 C 327.545 -0.490658 -4.34639 0
M  V30 3352 C 326.604 0.276587 -5.25473 0
M  V30 3353 O 325.63 -0.326614 -5.68262 0
M  V30 3354 N 326.832 1.56844 -5.5891 0
M  V30 3355 H 329.597 -1.29931 -2.70071 0
M  V30 3356 H 327.158 -0.830181 -1.38995 0
M  V30 3357 H 329.15 0.905228 -3.94446 0
M  V30 3358 H 327.72 1.14377 -2.90924 0
M  V30 3359 H 326.94 -1.19282 -3.7572 0
M  V30 3360 H 328.228 -1.08756 -4.97041 0
M  V30 3361 H 327.626 2.08036 -5.26059 0
M  V30 3362 H 326.183 2.03541 -6.19205 0
M  V30 3363 N 329.616 1.39756 -0.72842 0
M  V30 3364 C 330.864 2.00248 -0.272946 0
M  V30 3365 C 331.185 1.58077 1.14178 0
M  V30 3366 O 330.455 0.826014 1.77634 0
M  V30 3367 H 329.035 0.740554 -0.0979247 0
M  V30 3368 H 331.697 1.70903 -0.936912 0
M  V30 3369 H 330.793 3.10495 -0.316142 0
M  V30 3370 N 331.094 0.475555 1.50254 0
M  V30 3371 C 332.041 -0.316293 2.28622 0
M  V30 3372 C 333.011 -0.983227 1.33873 0
M  V30 3373 O 334.196 -0.994805 1.62814 0
M  V30 3374 C 331.336 -1.38975 3.1588 0
M  V30 3375 C 330.449 -0.737146 4.25664 0
M  V30 3376 C 329.584 -1.78887 5.00173 0
M  V30 3377 C 328.623 -1.11676 6.01826 0
M  V30 3378 N 327.76 -2.11154 6.69596 0
M  V30 3379 H 332.6 0.358297 2.95838 0
M  V30 3380 H 330.137 0.188541 1.45887 0
M  V30 3381 H 332.095 -2.02383 3.64825 0
M  V30 3382 H 330.725 -2.03344 2.50701 0
M  V30 3383 H 329.777 0.0096065 3.80399 0
M  V30 3384 H 331.089 -0.206816 4.98371 0
M  V30 3385 H 330.243 -2.49865 5.52859 0
M  V30 3386 H 328.982 -2.35302 4.27182 0
M  V30 3387 H 327.987 -0.392633 5.48396 0
M  V30 3388 H 329.212 -0.55945 6.76792 0
M  V30 3389 H 327.158 -2.66577 5.99394 0
M  V30 3390 H 327.075 -1.63118 7.38193 0
M  V30 3391 H 328.343 -2.81497 7.26897 0
M  V30 3392 N 332.573 -1.56217 0.208337 0
M  V30 3393 C 333.503 -2.22694 -0.702116 0
M  V30 3394 C 334.484 -1.19432 -1.2112 0
M  V30 3395 O 335.669 -1.47978 -1.25762 0
M  V30 3396 C 332.799 -2.8966 -1.9161 0
M  V30 3397 C 331.753 -3.9928 -1.5414 0
M  V30 3398 C 331.079 -4.53476 -2.83308 0
M  V30 3399 C 332.379 -5.17012 -0.741339 0
M  V30 3400 H 334.073 -2.99034 -0.147898 0
M  V30 3401 H 331.619 -1.43831 -0.0696951 0
M  V30 3402 H 333.572 -3.34852 -2.55836 0
M  V30 3403 H 332.296 -2.10746 -2.49507 0
M  V30 3404 H 330.955 -3.54799 -0.922668 0
M  V30 3405 H 330.603 -3.71308 -3.39322 0
M  V30 3406 H 330.303 -5.27451 -2.58976 0
M  V30 3407 H 331.827 -5.01378 -3.485 0
M  V30 3408 H 333.241 -5.58667 -1.28699 0
M  V30 3409 H 331.638 -5.97137 -0.595627 0
M  V30 3410 H 332.708 -4.8423 0.254851 0
M  V30 3411 N 334.051 0.0651679 -1.57465 0
M  V30 3412 C 335.297 0.764193 -1.87851 0
M  V30 3413 C 335.63 1.76889 -0.801495 0
M  V30 3414 O 334.905 1.93594 0.187528 0
M  V30 3415 C 335.188 1.46625 -3.28897 0
M  V30 3416 C 335.041 0.477515 -4.47258 0
M  V30 3417 C 336.36 2.4095 -3.68281 0
M  V30 3418 H 333.479 0.276351 -0.683227 0
M  V30 3419 H 336.121 0.0272868 -1.8998 0
M  V30 3420 H 334.271 2.09438 -3.27212 0
M  V30 3421 H 335.943 -0.145922 -4.61069 0
M  V30 3422 H 334.186 -0.206576 -4.33308 0
M  V30 3423 H 334.857 1.0065 -5.42746 0
M  V30 3424 H 337.333 1.88209 -3.71102 0
M  V30 3425 H 336.209 2.87072 -4.67847 0
M  V30 3426 H 336.47 3.26049 -2.98571 0
M  V30 3427 N 335.529 1.53961 0.336706 0
M  V30 3428 C 336.492 1.81724 1.39675 0
M  V30 3429 C 337.492 0.688532 1.45313 0
M  V30 3430 O 338.682 0.956829 1.45569 0
M  V30 3431 C 335.814 1.96543 2.78538 0
M  V30 3432 H 337.007 2.76424 1.16318 0
M  V30 3433 H 334.56 1.45478 0.571474 0
M  V30 3434 H 335.295 1.0401 3.07168 0
M  V30 3435 H 335.08 2.78665 2.75841 0
M  V30 3436 H 336.57 2.19516 3.5525 0
M  V30 3437 N 337.007 -0.598083 1.45811 0
M  V30 3438 C 338.256 -1.35295 1.49594 0
M  V30 3439 C 338.569 -1.95057 0.145679 0
M  V30 3440 O 339.775 -2.71431 0.0612099 0
M  V30 3441 C 338.231 -2.45124 2.63519 0
M  V30 3442 C 337.839 -1.91732 4.04899 0
M  V30 3443 C 339.583 -3.2205 2.76558 0
M  V30 3444 C 337.49 -2.991 5.1019 0
M  V30 3445 H 336.42 -0.508552 0.556679 0
M  V30 3446 H 339.071 -0.639977 1.71978 0
M  V30 3447 H 337.453 -3.19149 2.34435 0
M  V30 3448 H 338.627 -1.24352 4.43704 0
M  V30 3449 H 336.942 -1.27522 3.96393 0
M  V30 3450 H 339.539 -4.0215 3.52391 0
M  V30 3451 H 339.882 -3.73663 1.83526 0
M  V30 3452 H 340.415 -2.55127 3.05213 0
M  V30 3453 H 337.154 -2.52393 6.04961 0
M  V30 3454 H 336.674 -3.65017 4.75944 0
M  V30 3455 H 338.353 -3.63318 5.35359 0
M  V30 3456 N 338.485 -1.33259 -0.841409 0
M  V30 3457 C 339.432 -1.23302 -1.95103 0
M  V30 3458 C 340.402 -0.112204 -1.65721 0
M  V30 3459 O 341.587 -0.290038 -1.88583 0
M  V30 3460 C 338.727 -0.975583 -3.31023 0
M  V30 3461 C 337.84 -2.18243 -3.72819 0
M  V30 3462 C 336.975 -1.85936 -4.97595 0
M  V30 3463 C 336.014 -3.02866 -5.3192 0
M  V30 3464 N 335.151 -2.70565 -6.47873 0
M  V30 3465 H 339.991 -2.18207 -2.02952 0
M  V30 3466 H 337.528 -1.0851 -0.993173 0
M  V30 3467 H 339.486 -0.80677 -4.09325 0
M  V30 3468 H 338.116 -0.0632755 -3.22738 0
M  V30 3469 H 337.168 -2.46107 -2.90061 0
M  V30 3470 H 338.48 -3.05666 -3.94169 0
M  V30 3471 H 337.634 -1.65684 -5.83638 0
M  V30 3472 H 336.373 -0.957452 -4.78209 0
M  V30 3473 H 335.378 -3.23736 -4.44382 0
M  V30 3474 H 336.603 -3.93809 -5.53255 0
M  V30 3475 H 334.549 -1.8293 -6.29978 0
M  V30 3476 H 334.466 -3.51519 -6.69306 0
M  V30 3477 H 335.734 -2.53774 -7.37034 0
M  V30 3478 N 339.963 1.05934 -1.16686 0
M  V30 3479 C 340.926 2.11669 -0.879144 0
M  V30 3480 C 341.926 1.60294 0.127445 0
M  V30 3481 O 343.116 1.7389 -0.103865 0
M  V30 3482 C 340.248 3.39438 -0.315425 0
M  V30 3483 H 341.441 2.38626 -1.81653 0
M  V30 3484 H 338.994 1.22058 -0.976299 0
M  V30 3485 H 339.729 3.18132 0.629468 0
M  V30 3486 H 339.514 3.78034 -1.04079 0
M  V30 3487 H 341.004 4.17391 -0.132189 0
M  V30 3488 N 341.441 0.965919 1.2453 0
M  V30 3489 C 342.688 0.626831 1.92554 0
M  V30 3490 C 343.016 -0.837739 1.75534 0
M  V30 3491 O 342.271 -1.61793 1.10098 0
M  V30 3492 C 342.57 0.945428 3.44669 0
M  V30 3493 C 342.236 2.39785 3.81856 0
M  V30 3494 C 340.898 2.79483 3.91718 0
M  V30 3495 C 343.25 3.34055 4.00071 0
M  V30 3496 C 340.578 4.12496 4.1721 0
M  V30 3497 C 342.93 4.66694 4.27059 0
M  V30 3498 C 341.594 5.06172 4.3514 0
M  V30 3499 H 340.864 0.229374 0.704605 0
M  V30 3500 H 343.511 1.21707 1.4785 0
M  V30 3501 H 341.816 0.272926 3.90848 0
M  V30 3502 H 343.513 0.661484 3.95507 0
M  V30 3503 H 340.103 2.08003 3.74743 0
M  V30 3504 H 344.287 3.04571 3.91855 0
M  V30 3505 H 339.543 4.42709 4.21685 0
M  V30 3506 H 343.717 5.3971 4.40097 0
M  V30 3507 H 341.344 6.09262 4.54646 0
M  V30 3508 N 342.919 -1.39368 0.735821 0
M  V30 3509 C 344.33 -1.83313 0.354015 0
M  V30 3510 C 344.681 -1.61461 -1.11466 0
M  V30 3511 O 343.806 -1.10621 -1.85989 0
M  V30 3512 C 344.401 -3.32781 0.635769 0
M  V30 3513 C 342.96 -3.75142 0.307448 0
M  V30 3514 C 342.107 -2.62358 0.897974 0
M  V30 3515 H 345.058 -1.28349 0.933398 0
M  V30 3516 H 345.079 -3.80388 -0.0921773 0
M  V30 3517 H 344.591 -3.48654 1.70476 0
M  V30 3518 H 342.692 -3.64857 -0.755674 0
M  V30 3519 H 342.805 -4.72532 0.790583 0
M  V30 3520 H 341.169 -2.52624 0.324551 0
M  V30 3521 H 341.952 -2.81036 1.97164 0
M  V30 3522 N 344.397 -0.483516 -1.5 0
M  V30 3523 C 345.808 -0.0314176 -1.86674 0
M  V30 3524 C 346.159 1.37728 -1.39733 0
M  V30 3525 O 345.284 2.02327 -0.767635 0
M  V30 3526 C 345.879 -0.0502376 -3.38763 0
M  V30 3527 C 344.438 0.346442 -3.74802 0
M  V30 3528 C 343.585 -0.430366 -2.7394 0
M  V30 3529 H 346.536 -0.697182 -1.42566 0
M  V30 3530 H 346.557 0.749116 -3.73053 0
M  V30 3531 H 346.069 -1.07563 -3.72897 0
M  V30 3532 H 344.17 1.37572 -3.46273 0
M  V30 3533 H 344.283 0.0391486 -4.79084 0
M  V30 3534 H 342.647 0.117557 -2.54429 0
M  V30 3535 H 343.43 -1.4555 -3.10918 0
M  V30 3536 N 345.875 1.56104 -0.216619 0
M  V30 3537 C 347.291 1.58995 0.13886 0
M  V30 3538 C 347.491 1.23333 1.59346 0
M  V30 3539 O 346.547 0.966234 2.33281 0
M  V30 3540 C 347.86 3.00143 -0.182968 0
M  V30 3541 C 349.408 3.12751 -0.124807 0
M  V30 3542 C 349.883 4.56068 -0.420241 0
M  V30 3543 N 351.374 4.61723 -0.369634 0
M  V30 3544 C 352.109 5.70542 -0.571789 0
M  V30 3545 N 351.605 6.87744 -0.835453 0
M  V30 3546 N 353.398 5.59831 -0.504563 0
M  V30 3547 H 345.549 1.77562 -1.16557 0
M  V30 3548 H 347.812 0.825091 -0.466828 0
M  V30 3549 H 347.518 3.30871 -1.19237 0
M  V30 3550 H 347.392 3.73813 0.504367 0
M  V30 3551 H 349.779 2.81822 0.875223 0
M  V30 3552 H 349.86 2.41421 -0.845544 0
M  V30 3553 H 349.504 4.87713 -1.41769 0
M  V30 3554 H 349.434 5.25617 0.321631 0
M  V30 3555 H 351.925 3.77502 -0.173338 0
M  V30 3556 H 352.238 7.66587 -0.977938 0
M  V30 3557 H 350.583 6.895 -0.872592 0
M  V30 3558 H 353.774 4.67145 -0.298842 0
M  V30 3559 H 353.947 6.44573 -0.665519 0
M  V30 3560 N 347.353 -0.0568162 1.57498 0
M  V30 3561 C 348.578 -0.769402 1.92601 0
M  V30 3562 C 349.003 -1.69559 0.814336 0
M  V30 3563 O 348.361 -1.79811 -0.231903 0
M  V30 3564 C 348.409 -1.52634 3.26704 0
M  V30 3565 O 347.513 -2.63797 3.16994 0
M  V30 3566 H 346.854 -0.208909 0.63028 0
M  V30 3567 H 349.384 -0.0205798 2.0459 0
M  V30 3568 H 349.394 -1.90234 3.60936 0
M  V30 3569 H 348.069 -0.846875 4.07186 0
M  V30 3570 H 346.646 -2.28943 2.94346 0
M  V30 3571 N 348.832 -1.54138 -0.328536 0
M  V30 3572 C 350.078 -1.7236 -1.06865 0
M  V30 3573 C 350.411 -0.493231 -1.87832 0
M  V30 3574 O 349.686 0.5098 -1.877 0
M  V30 3575 C 349.969 -2.99621 -1.99747 0
M  V30 3576 C 349.822 -4.32899 -1.22143 0
M  V30 3577 C 351.141 -3.22615 -2.99345 0
M  V30 3578 H 348.26 -0.627151 -0.387105 0
M  V30 3579 H 350.902 -1.86827 -0.345767 0
M  V30 3580 H 349.052 -2.87418 -2.61387 0
M  V30 3581 H 350.724 -4.56978 -0.630017 0
M  V30 3582 H 348.967 -4.30628 -0.523628 0
M  V30 3583 H 349.638 -5.18154 -1.90318 0
M  V30 3584 H 352.114 -3.34248 -2.47826 0
M  V30 3585 H 350.99 -4.13027 -3.61524 0
M  V30 3586 H 351.251 -2.3961 -3.71536 0
M  V30 3587 N 350.31 0.590341 -1.46126 0
M  V30 3588 C 351.273 1.68194 -1.55703 0
M  V30 3589 C 352.273 1.54808 -0.434868 0
M  V30 3590 O 353.463 1.59564 -0.698928 0
M  V30 3591 C 350.595 3.07575 -1.47005 0
M  V30 3592 H 351.788 1.61064 -2.52979 0
M  V30 3593 H 349.341 0.807541 -1.33823 0
M  V30 3594 H 350.076 3.20268 -0.509785 0
M  V30 3595 H 349.861 3.187 -2.28414 0
M  V30 3596 H 351.351 3.87055 -1.56776 0
M  V30 3597 N 351.788 1.33704 0.83433 0
M  V30 3598 C 352.72 1.20172 1.9517 0
M  V30 3599 C 353.733 0.131572 1.62267 0
M  V30 3600 O 354.922 0.382406 1.74356 0
M  V30 3601 C 352.022 0.821716 3.28787 0
M  V30 3602 C 351.195 1.98446 3.89792 0
M  V30 3603 C 350.254 1.58469 5.01771 0
M  V30 3604 O 349.28 2.29968 5.20676 0
M  V30 3605 N 350.482 0.492291 5.78409 0
M  V30 3606 H 353.247 2.16429 2.07313 0
M  V30 3607 H 350.808 1.26509 1.0103 0
M  V30 3608 H 352.8 0.536291 4.01131 0
M  V30 3609 H 351.37 -0.0503058 3.1256 0
M  V30 3610 H 350.59 2.43526 3.09982 0
M  V30 3611 H 351.878 2.76236 4.27283 0
M  V30 3612 H 351.276 -0.102349 5.65607 0
M  V30 3613 H 349.833 0.266555 6.51255 0
M  V30 3614 N 353.266 -1.05314 1.17247 0
M  V30 3615 C 354.513 -1.78293 0.960091 0
M  V30 3616 C 354.841 -1.87658 -0.51136 0
M  V30 3617 O 354.096 -1.3718 -1.39571 0
M  V30 3618 C 354.395 -3.2229 1.54479 0
M  V30 3619 C 354.061 -3.32987 3.04024 0
M  V30 3620 C 352.723 -3.35613 3.44844 0
M  V30 3621 C 355.075 -3.34102 4.00031 0
M  V30 3622 C 352.403 -3.36982 4.8027 0
M  V30 3623 C 354.755 -3.3701 5.35357 0
M  V30 3624 C 353.419 -3.37923 5.75642 0
M  V30 3625 H 352.689 -0.652422 0.351322 0
M  V30 3626 H 355.336 -1.23782 1.46117 0
M  V30 3627 H 353.641 -3.7972 0.965391 0
M  V30 3628 H 355.338 -3.77376 1.35603 0
M  V30 3629 H 351.928 -3.31655 2.71483 0
M  V30 3630 H 356.112 -3.31276 3.69554 0
M  V30 3631 H 351.368 -3.35999 5.10798 0
M  V30 3632 H 355.542 -3.36822 6.09528 0
M  V30 3633 H 353.169 -3.38738 6.80559 0
M  V30 3634 N 354.744 -0.972509 -1.24016 0
M  V30 3635 C 355.676 -0.464375 -2.24446 0
M  V30 3636 C 356.689 0.4295 -1.57032 0
M  V30 3637 O 357.878 0.234902 -1.76948 0
M  V30 3638 C 354.978 0.348385 -3.37105 0
M  V30 3639 C 354.151 -0.53673 -4.34094 0
M  V30 3640 C 353.21 0.220838 -5.25736 0
M  V30 3641 O 352.236 -0.386867 -5.67884 0
M  V30 3642 N 353.438 1.50907 -5.60542 0
M  V30 3643 H 356.203 -1.32788 -2.68677 0
M  V30 3644 H 353.764 -0.844877 -1.38107 0
M  V30 3645 H 355.756 0.863341 -3.95384 0
M  V30 3646 H 354.326 1.11285 -2.92121 0
M  V30 3647 H 353.546 -1.23261 -3.74433 0
M  V30 3648 H 354.834 -1.14022 -4.95859 0
M  V30 3649 H 354.232 2.02444 -5.28236 0
M  V30 3650 H 352.789 1.96962 -6.21329 0
M  V30 3651 N 356.222 1.38976 -0.743202 0
M  V30 3652 C 357.185 2.28901 -0.117014 0
M  V30 3653 C 358.185 1.46698 0.658503 0
M  V30 3654 O 359.375 1.67274 0.486305 0
M  V30 3655 C 356.507 3.30309 0.84315 0
M  V30 3656 H 357.7 2.8578 -0.909373 0
M  V30 3657 H 355.253 1.47761 -0.509547 0
M  V30 3658 H 355.988 2.785 1.66157 0
M  V30 3659 H 355.773 3.91029 0.289594 0
M  V30 3660 H 357.263 3.97577 1.2776 0
M  V30 3661 N 357.7 0.491464 1.49741 0
M  V30 3662 C 358.61 -0.296835 2.32715 0
M  V30 3663 C 359.626 -0.976536 1.44013 0
M  V30 3664 O 360.802 -0.960023 1.77047 0
M  V30 3665 C 357.867 -1.35288 3.19215 0
M  V30 3666 C 356.928 -0.687632 4.23757 0
M  V30 3667 C 356.161 -1.69336 5.06123 0
M  V30 3668 O 356.384 -2.92219 4.89861 0
M  V30 3669 O 355.318 -1.25394 5.88693 0
M  V30 3670 H 359.144 0.382048 3.01287 0
M  V30 3671 H 356.729 0.252953 1.47243 0
M  V30 3672 H 358.611 -1.96411 3.72828 0
M  V30 3673 H 357.286 -2.01487 2.53347 0
M  V30 3674 H 356.193 -0.0369159 3.74082 0
M  V30 3675 H 357.526 -0.0682566 4.92153 0
M  V30 3676 N 359.178 -1.55987 0.224894 0
M  V30 3677 C 360.594 -1.59066 -0.130426 0
M  V30 3678 C 360.794 -1.24176 -1.5869 0
M  V30 3679 O 359.85 -0.978592 -2.32766 0
M  V30 3680 C 361.163 -3.00042 0.198883 0
M  V30 3681 C 362.711 -3.1268 0.141391 0
M  V30 3682 C 363.186 -4.55839 0.444422 0
M  V30 3683 N 364.677 -4.6152 0.394115 0
M  V30 3684 C 365.412 -5.70231 0.602038 0
M  V30 3685 N 364.908 -6.87291 0.871914 0
M  V30 3686 N 366.701 -5.59555 0.534245 0
M  V30 3687 H 358.852 -1.76941 1.17497 0
M  V30 3688 H 361.115 -0.822604 0.471197 0
M  V30 3689 H 360.821 -3.30234 1.2099 0
M  V30 3690 H 360.695 -3.74075 -0.484535 0
M  V30 3691 H 363.082 -2.82283 -0.860265 0
M  V30 3692 H 363.163 -2.40969 0.858335 0
M  V30 3693 H 362.807 -4.86954 1.44353 0
M  V30 3694 H 362.737 -5.2578 -0.293752 0
M  V30 3695 H 365.228 -3.77405 0.193356 0
M  V30 3696 H 365.541 -7.66058 1.01858 0
M  V30 3697 H 363.886 -6.89028 0.909145 0
M  V30 3698 H 367.077 -4.6698 0.323612 0
M  V30 3699 H 367.25 -6.44211 0.699693 0
M  V30 3700 N 360.656 0.0484629 -1.57525 0
M  V30 3701 C 361.619 1.03956 -2.04269 0
M  V30 3702 C 362.619 1.30211 -0.943496 0
M  V30 3703 O 363.809 1.25539 -1.20771 0
M  V30 3704 C 360.941 2.37742 -2.44319 0
M  V30 3705 H 362.134 0.636182 -2.93075 0
M  V30 3706 H 359.687 0.294811 -1.53494 0
M  V30 3707 H 360.422 2.82866 -1.5861 0
M  V30 3708 H 360.207 2.20021 -3.24551 0
M  V30 3709 H 361.697 3.08936 -2.80978 0
M  V30 3710 N 362.134 1.5431 0.320358 0
M  V30 3711 C 363.064 1.86912 1.3995 0
M  V30 3712 C 364.045 0.726211 1.53819 0
M  V30 3713 O 365.23 0.980233 1.67646 0
M  V30 3714 C 362.36 2.09932 2.7667 0
M  V30 3715 C 361.314 3.25776 2.77586 0
M  V30 3716 C 360.64 3.34173 4.17412 0
M  V30 3717 C 361.94 4.6335 2.41048 0
M  V30 3718 H 363.634 2.77292 1.12914 0
M  V30 3719 H 361.18 1.33421 0.541738 0
M  V30 3720 H 363.133 2.31324 3.52232 0
M  V30 3721 H 361.857 1.16304 3.0519 0
M  V30 3722 H 360.516 3.04276 2.04479 0
M  V30 3723 H 360.164 2.38098 4.43078 0
M  V30 3724 H 359.864 4.12033 4.18931 0
M  V30 3725 H 361.388 3.57803 4.94782 0
M  V30 3726 H 362.802 4.84602 3.06324 0
M  V30 3727 H 361.199 5.43782 2.53813 0
M  V30 3728 H 362.269 4.65381 1.36193 0
M  V30 3729 N 363.613 -0.582584 1.46437 0
M  V30 3730 C 364.843 -1.36484 1.55099 0
M  V30 3731 C 365.251 -1.88233 0.191056 0
M  V30 3732 O 364.594 -1.6429 -0.821858 0
M  V30 3733 C 364.656 -2.588 2.49525 0
M  V30 3734 C 364.32 -2.28517 3.95764 0
M  V30 3735 C 365.317 -1.87346 4.84972 0
M  V30 3736 C 363.002 -2.40658 4.40896 0
M  V30 3737 C 364.996 -1.5871 6.17325 0
M  V30 3738 C 362.683 -2.11635 5.73284 0
M  V30 3739 C 363.681 -1.70725 6.61318 0
M  V30 3740 O 363.369 -1.42057 7.91249 0
M  V30 3741 H 363.101 -0.423297 0.527063 0
M  V30 3742 H 365.655 -0.715188 1.92547 0
M  V30 3743 H 363.885 -3.26571 2.07095 0
M  V30 3744 H 365.574 -3.20868 2.48593 0
M  V30 3745 H 366.34 -1.77481 4.5136 0
M  V30 3746 H 362.219 -2.71463 3.72598 0
M  V30 3747 H 365.763 -1.26704 6.85997 0
M  V30 3748 H 361.66 -2.21124 6.06444 0
M  V30 3749 H 362.428 -1.55901 8.03515 0
M  V30 3750 N 365.091 -1.34144 -0.827227 0
M  V30 3751 C 366.001 -1.27428 -1.96975 0
M  V30 3752 C 367.017 -0.182728 -1.73038 0
M  V30 3753 O 368.193 -0.408426 -1.97215 0
M  V30 3754 C 365.258 -1.02526 -3.31194 0
M  V30 3755 C 364.319 -2.20796 -3.68168 0
M  V30 3756 C 363.552 -1.97073 -4.95982 0
M  V30 3757 O 363.775 -0.926822 -5.6282 0
M  V30 3758 O 362.709 -2.83912 -5.30733 0
M  V30 3759 H 366.535 -2.23537 -2.05584 0
M  V30 3760 H 364.12 -1.14307 -0.961989 0
M  V30 3761 H 366.002 -0.904026 -4.11589 0
M  V30 3762 H 364.677 -0.0945389 -3.23562 0
M  V30 3763 H 363.584 -2.38477 -2.88235 0
M  V30 3764 H 364.917 -3.12243 -3.8048 0
M  V30 3765 N 366.569 1.04691 -1.17803 0
M  V30 3766 C 367.499 2.14494 -0.92275 0
M  V30 3767 C 368.48 1.69546 0.137179 0
M  V30 3768 O 369.665 1.94195 -0.0141108 0
M  V30 3769 C 366.795 3.44491 -0.440803 0
M  V30 3770 C 365.749 4.03031 -1.4405 0
M  V30 3771 C 365.075 5.28432 -0.81631 0
M  V30 3772 C 366.375 4.39932 -2.81527 0
M  V30 3773 H 368.069 2.36107 -1.84103 0
M  V30 3774 H 365.615 1.1347 -0.886599 0
M  V30 3775 H 367.568 4.2066 -0.249602 0
M  V30 3776 H 366.292 3.22546 0.513025 0
M  V30 3777 H 364.951 3.28937 -1.61853 0
M  V30 3778 H 364.599 5.02792 0.144511 0
M  V30 3779 H 364.299 5.68559 -1.48371 0
M  V30 3780 H 365.823 6.07284 -0.635496 0
M  V30 3781 H 367.237 5.07113 -2.67412 0
M  V30 3782 H 365.634 4.9109 -3.44892 0
M  V30 3783 H 366.704 3.50045 -3.35554 0
M  V30 3784 N 368.047 0.979072 1.23499 0
M  V30 3785 C 369.458 0.684391 1.73704 0
M  V30 3786 C 369.809 -0.799448 1.79174 0
M  V30 3787 O 368.934 -1.62531 1.42873 0
M  V30 3788 C 369.529 1.23564 3.15464 0
M  V30 3789 C 368.088 0.99063 3.6313 0
M  V30 3790 C 367.235 1.36416 2.41425 0
M  V30 3791 H 370.186 1.15307 1.09041 0
M  V30 3792 H 370.207 0.607417 3.7562 0
M  V30 3793 H 369.719 2.31561 3.1145 0
M  V30 3794 H 367.82 -0.0733136 3.72528 0
M  V30 3795 H 367.933 1.64427 4.5 0
M  V30 3796 H 366.297 0.782616 2.42378 0
M  V30 3797 H 367.08 2.45387 2.40083 0
M  V30 3798 N 369.525 -1.3858 0.750561 0
M  V30 3799 C 370.773 -1.99789 0.30477 0
M  V30 3800 C 371.094 -1.59874 -1.11649 0
M  V30 3801 O 370.364 -0.85417 -1.76297 0
M  V30 3802 H 368.944 -0.738902 0.109694 0
M  V30 3803 H 371.606 -1.69391 0.963983 0
M  V30 3804 H 370.702 -3.09952 0.365499 0
M  V30 3805 N 371.003 -0.499398 -1.49478 0
M  V30 3806 C 371.933 0.269244 -2.31943 0
M  V30 3807 C 372.914 0.964054 -1.40143 0
M  V30 3808 O 374.099 0.955767 -1.69052 0
M  V30 3809 C 371.229 1.33504 -3.20615 0
M  V30 3810 C 370.183 0.760202 -4.21195 0
M  V30 3811 C 369.509 1.9264 -4.98792 0
M  V30 3812 C 370.809 -0.247661 -5.21712 0
M  V30 3813 H 372.503 -0.419082 -2.96452 0
M  V30 3814 H 370.049 -0.202988 -1.42562 0
M  V30 3815 H 372.002 1.88048 -3.77115 0
M  V30 3816 H 370.726 2.05253 -2.54045 0
M  V30 3817 H 369.385 0.23653 -3.65836 0
M  V30 3818 H 369.033 2.63154 -4.28671 0
M  V30 3819 H 368.733 1.54785 -5.66847 0
M  V30 3820 H 370.257 2.4762 -5.58137 0
M  V30 3821 H 371.671 0.209579 -5.72917 0
M  V30 3822 H 370.068 -0.541962 -5.97648 0
M  V30 3823 H 371.138 -1.16409 -4.7072 0
M  V30 3824 N 372.481 1.55866 -0.233164 0
M  V30 3825 C 373.413 2.18099 0.704668 0
M  V30 3826 C 374.426 1.15334 1.14899 0
M  V30 3827 O 375.615 1.42262 1.07814 0
M  V30 3828 C 372.715 2.7592 1.96777 0
M  V30 3829 C 371.888 4.03969 1.67713 0
M  V30 3830 C 370.947 4.46242 2.78845 0
M  V30 3831 O 369.973 5.12903 2.46818 0
M  V30 3832 N 371.175 4.12886 4.08051 0
M  V30 3833 H 373.94 2.99205 0.172258 0
M  V30 3834 H 371.501 1.61815 -0.0525945 0
M  V30 3835 H 373.493 3.01165 2.70337 0
M  V30 3836 H 372.063 1.99051 2.41034 0
M  V30 3837 H 371.283 3.86459 0.777391 0
M  V30 3838 H 372.571 4.8748 1.4574 0
M  V30 3839 H 371.969 3.59342 4.3691 0
M  V30 3840 H 370.526 4.42997 4.78118 0
M  V30 3841 N 373.959 -0.0401083 1.57549 0
M  V30 3842 C 374.909 -1.05175 2.02292 0
M  V30 3843 C 375.893 -1.32674 0.910294 0
M  V30 3844 O 377.085 -1.32444 1.17421 0
M  V30 3845 C 374.214 -2.35622 2.49674 0
M  V30 3846 C 373.3 -2.11261 3.67736 0
M  V30 3847 N 373.691 -1.56923 4.80842 0
M  V30 3848 C 371.989 -2.41596 3.74897 0
M  V30 3849 C 372.69 -1.48111 5.62528 0
M  V30 3850 N 371.666 -1.95282 5.07312 0
M  V30 3851 H 375.468 -0.625455 2.87168 0
M  V30 3852 H 372.982 -0.246624 1.60516 0
M  V30 3853 H 374.979 -3.08893 2.79983 0
M  V30 3854 H 373.639 -2.7894 1.662 0
M  V30 3855 H 374.65 -1.25345 5.02503 0
M  V30 3856 H 371.327 -2.88064 3.02201 0
M  V30 3857 H 372.717 -1.06683 6.63377 0
M  V30 3858 N 375.437 -1.54477 -0.31217 0
M  V30 3859 C 376.714 -1.63891 -1.06767 0
M  V30 3860 C 377.094 -0.480028 -2.0557 0
M  V30 3861 O 376.442 0.524487 -2.22399 0
M  V30 3862 C 376.652 -3.01402 -1.75948 0
M  V30 3863 C 378 -3.57838 -2.28554 0
M  V30 3864 O 379.024 -3.03782 -1.85998 0
M  V30 3865 O 377.883 -4.52462 -3.06497 0
M  V30 3866 H 374.977 -0.664125 -0.492816 0
M  V30 3867 H 377.523 -1.66823 -0.311149 0
M  V30 3868 H 376.295 -3.77187 -1.04144 0
M  V30 3869 H 375.918 -3.02199 -2.58383 0
M  V30 3870 N 376.915 0.57481 -1.46744 0
M  V30 3871 C 377.865 1.67838 -1.54319 0
M  V30 3872 C 378.849 1.55759 -0.40346 0
M  V30 3873 O 380.041 1.6454 -0.652347 0
M  V30 3874 C 377.17 3.06624 -1.5439 0
M  V30 3875 C 376.256 3.23971 -2.73685 0
M  V30 3876 N 376.647 3.11447 -3.9854 0
M  V30 3877 C 374.945 3.5493 -2.70075 0
M  V30 3878 C 375.646 3.31011 -4.78337 0
M  V30 3879 N 374.622 3.56533 -4.10348 0
M  V30 3880 H 378.424 1.56698 -2.48642 0
M  V30 3881 H 375.938 0.779071 -1.42493 0
M  V30 3882 H 377.935 3.85839 -1.57905 0
M  V30 3883 H 376.595 3.1889 -0.611493 0
M  V30 3884 H 377.606 2.89145 -4.29669 0
M  V30 3885 H 374.283 3.73832 -1.85893 0
M  V30 3886 H 375.673 3.26445 -5.87268 0
M  V30 3887 N 378.394 1.34581 0.820102 0
M  V30 3888 C 379.643 1.26437 1.57151 0
M  V30 3889 C 379.956 -0.163111 1.94919 0
M  V30 3890 O 381.162 -0.366722 2.69012 0
M  V30 3891 C 379.618 2.21658 2.83541 0
M  V30 3892 C 379.226 3.69679 2.53065 0
M  V30 3893 C 380.97 2.22428 3.61561 0
M  V30 3894 C 378.877 4.56761 3.75664 0
M  V30 3895 H 377.807 0.469707 0.589823 0
M  V30 3896 H 380.458 1.59763 0.902656 0
M  V30 3897 H 378.84 1.81287 3.52067 0
M  V30 3898 H 380.014 4.18605 1.92631 0
M  V30 3899 H 378.329 3.71384 1.88316 0
M  V30 3900 H 380.926 2.8471 4.52597 0
M  V30 3901 H 381.269 1.22434 3.97889 0
M  V30 3902 H 381.802 2.61259 2.99981 0
M  V30 3903 H 378.541 5.57702 3.44454 0
M  V30 3904 H 378.061 4.12568 4.35371 0
M  V30 3905 H 379.74 4.71509 4.43044 0
M  V30 3906 N 379.872 -1.04064 1.18357 0
M  V30 3907 C 381.118 -1.77528 0.980397 0
M  V30 3908 C 381.451 -1.87948 -0.48879 0
M  V30 3909 O 380.726 -1.3876 -1.36293 0
M  V30 3910 C 381.009 -3.20797 1.63588 0
M  V30 3911 C 380.862 -3.1832 3.17793 0
M  V30 3912 C 382.181 -4.18911 1.34914 0
M  V30 3913 H 379.3 -0.644443 0.357578 0
M  V30 3914 H 381.942 -1.2156 1.46024 0
M  V30 3915 H 380.092 -3.68586 1.22788 0
M  V30 3916 H 381.764 -2.78521 3.67728 0
M  V30 3917 H 380.007 -2.56351 3.49952 0
M  V30 3918 H 380.678 -4.19489 3.58794 0
M  V30 3919 H 383.154 -3.7967 1.70265 0
M  V30 3920 H 382.03 -5.17374 1.83346 0
M  V30 3921 H 382.291 -4.41262 0.272027 0
M  V30 3922 N 381.35 -0.985608 -1.22978 0
M  V30 3923 C 382.766 -0.695104 -1.43668 0
M  V30 3924 C 382.966 0.736866 -1.87543 0
M  V30 3925 O 382.022 1.50868 -2.02473 0
M  V30 3926 C 383.335 -1.69447 -2.48412 0
M  V30 3927 C 384.883 -1.70909 -2.62219 0
M  V30 3928 C 385.358 -2.6969 -3.70178 0
M  V30 3929 N 386.849 -2.6824 -3.77626 0
M  V30 3930 C 387.584 -3.41339 -4.60733 0
M  V30 3931 N 387.08 -4.24015 -5.4789 0
M  V30 3932 N 388.873 -3.30079 -4.54977 0
M  V30 3933 H 381.024 -1.91054 -0.928016 0
M  V30 3934 H 383.287 -0.823553 -0.469536 0
M  V30 3935 H 382.993 -2.7188 -2.23102 0
M  V30 3936 H 382.867 -1.48147 -3.46889 0
M  V30 3937 H 385.254 -0.691785 -2.86877 0
M  V30 3938 H 385.335 -1.96276 -1.6404 0
M  V30 3939 H 384.979 -3.71566 -3.46268 0
M  V30 3940 H 384.909 -2.41595 -4.67909 0
M  V30 3941 H 387.4 -2.08243 -3.15346 0
M  V30 3942 H 387.713 -4.76636 -6.08308 0
M  V30 3943 H 386.058 -4.28104 -5.47496 0
M  V30 3944 H 389.249 -2.64937 -3.85909 0
M  V30 3945 H 389.422 -3.87308 -5.19516 0
M  V30 3946 N 382.828 1.3818 -0.7579 0
M  V30 3947 C 384.075 2.00019 -0.315985 0
M  V30 3948 C 384.403 1.60163 1.10355 0
M  V30 3949 O 383.658 0.83264 1.77103 0
M  V30 3950 C 383.957 3.55252 -0.391218 0
M  V30 3951 C 383.623 4.14834 -1.76702 0
M  V30 3952 C 382.285 4.30821 -2.14353 0
M  V30 3953 C 384.637 4.47658 -2.66931 0
M  V30 3954 C 381.965 4.76928 -3.41696 0
M  V30 3955 C 384.317 4.95184 -3.93669 0
M  V30 3956 C 382.981 5.09377 -4.31383 0
M  V30 3957 H 382.251 0.731923 -0.115627 0
M  V30 3958 H 384.898 1.65161 -0.969223 0
M  V30 3959 H 383.203 3.90273 0.34558 0
M  V30 3960 H 384.9 4.00988 -0.030805 0
M  V30 3961 H 381.49 4.02808 -1.46435 0
M  V30 3962 H 385.674 4.34904 -2.39106 0
M  V30 3963 H 380.93 4.86103 -3.70829 0
M  V30 3964 H 385.104 5.19551 -4.63724 0
M  V30 3965 H 382.731 5.44865 -5.30119 0
M  V30 3966 N 384.306 0.507319 1.49211 0
M  V30 3967 C 385.555 -0.0368315 2.01666 0
M  V30 3968 C 385.868 -1.37459 1.39156 0
M  V30 3969 O 387.074 -2.00579 1.82976 0
M  V30 3970 C 385.53 -0.116089 3.59713 0
M  V30 3971 C 385.138 1.2154 4.31198 0
M  V30 3972 C 386.882 -0.610268 4.2009 0
M  V30 3973 C 384.789 1.09796 5.81119 0
M  V30 3974 H 383.719 -0.0175376 0.753796 0
M  V30 3975 H 386.37 0.647691 1.71689 0
M  V30 3976 H 384.752 -0.8652 3.86433 0
M  V30 3977 H 385.926 1.9783 4.16173 0
M  V30 3978 H 384.241 1.64352 3.82593 0
M  V30 3979 H 386.838 -0.715742 5.29888 0
M  V30 3980 H 387.181 -1.61064 3.8388 0
M  V30 3981 H 387.714 0.0824916 3.97714 0
M  V30 3982 H 384.453 2.0728 6.21864 0
M  V30 3983 H 383.973 0.376058 5.9862 0
M  V30 3984 H 385.652 0.779281 6.4229 0
M  V30 3985 N 385.784 -1.5574 0.241426 0
M  V30 3986 C 387.012 -2.03208 -0.389134 0
M  V30 3987 C 387.427 -1.12082 -1.51931 0
M  V30 3988 O 386.784 -0.134183 -1.82006 0
M  V30 3989 C 386.835 -3.50064 -0.902087 0
M  V30 3990 O 386.556 -4.37717 0.18305 0
M  V30 3991 C 388.057 -4.13268 -1.60389 0
M  V30 3992 H 385.277 -0.664509 -0.0931053 0
M  V30 3993 H 387.821 -2.0124 0.36369 0
M  V30 3994 H 385.976 -3.52583 -1.60511 0
M  V30 3995 H 386.39 -5.24097 -0.205579 0
M  V30 3996 H 387.864 -5.17733 -1.91458 0
M  V30 3997 H 388.341 -3.59434 -2.52397 0
M  V30 3998 H 388.947 -4.14655 -0.945576 0
M  V30 3999 N 387.262 0.0317525 -1.57568 0
M  V30 4000 C 388.225 1.01783 -2.0536 0
M  V30 4001 C 389.225 1.29203 -0.957253 0
M  V30 4002 O 390.415 1.24251 -1.22095 0
M  V30 4003 C 387.547 2.35137 -2.46827 0
M  V30 4004 H 388.74 0.605062 -2.93733 0
M  V30 4005 H 386.293 0.278514 -1.53799 0
M  V30 4006 H 387.028 2.81168 -1.61602 0
M  V30 4007 H 386.813 2.16566 -3.26866 0
M  V30 4008 H 388.303 3.05938 -2.84239 0
M  V30 4009 N 388.74 1.54641 0.303973 0
M  V30 4010 C 389.965 1.78092 1.06292 0
M  V30 4011 C 390.39 0.537342 1.80262 0
M  V30 4012 O 389.748 -0.511993 1.7392 0
M  V30 4013 C 389.796 2.98612 2.02147 0
M  V30 4014 O 388.9 2.71528 3.10397 0
M  V30 4015 H 388.241 0.589548 0.305497 0
M  V30 4016 H 390.771 2.01716 0.3423 0
M  V30 4017 H 390.781 3.265 2.44667 0
M  V30 4018 H 389.456 3.88785 1.47714 0
M  V30 4019 H 388.033 2.54648 2.72413 0
M  V30 4020 N 390.218 -0.567019 1.47046 0
M  V30 4021 C 391.634 -0.891975 1.32348 0
M  V30 4022 C 391.834 -1.99154 0.306616 0
M  V30 4023 O 390.89 -2.50883 -0.28532 0
M  V30 4024 C 392.203 -1.29449 2.7141 0
M  V30 4025 C 393.751 -1.40646 2.79621 0
M  V30 4026 C 394.226 -1.84257 4.19301 0
M  V30 4027 N 395.717 -1.91424 4.21795 0
M  V30 4028 C 396.452 -2.26476 5.26779 0
M  V30 4029 N 395.948 -2.60211 6.42077 0
M  V30 4030 N 397.741 -2.27166 5.14152 0
M  V30 4031 H 389.892 0.159074 2.11803 0
M  V30 4032 H 392.155 0.00849752 0.947962 0
M  V30 4033 H 391.861 -0.560448 3.47206 0
M  V30 4034 H 391.735 -2.25273 3.02542 0
M  V30 4035 H 394.122 -2.13133 2.04104 0
M  V30 4036 H 394.203 -0.430339 2.52154 0
M  V30 4037 H 393.847 -1.12343 4.95319 0
M  V30 4038 H 393.777 -2.82855 4.44185 0
M  V30 4039 H 396.268 -1.6778 3.38612 0
M  V30 4040 H 396.581 -2.85956 7.17948 0
M  V30 4041 H 394.926 -2.57813 6.45413 0
M  V30 4042 H 398.117 -2.00244 4.23107 0
M  V30 4043 H 398.29 -2.54154 5.96079 0
M  V30 4044 N 391.696 -1.35014 -0.812953 0
M  V30 4045 C 392.944 -1.27678 -1.56661 0
M  V30 4046 C 393.265 0.150359 -1.94419 0
M  V30 4047 O 392.535 1.08532 -1.63088 0
M  V30 4048 H 391.115 -0.469602 -0.580933 0
M  V30 4049 H 393.777 -1.69043 -0.970076 0
M  V30 4050 H 392.873 -1.88833 -2.48492 0
M  V30 4051 N 393.175 1.03435 -1.18907 0
M  V30 4052 C 394.423 1.76394 -0.986382 0
M  V30 4053 C 394.744 1.88883 0.484567 0
M  V30 4054 O 394.014 1.41843 1.3512 0
M  V30 4055 H 392.594 0.65344 -0.361975 0
M  V30 4056 H 395.256 1.248 -1.49703 0
M  V30 4057 H 394.352 2.77424 -1.42978 0
M  V30 4058 N 394.653 0.992116 1.22453 0
M  V30 4059 C 396.064 0.702776 1.72968 0
M  V30 4060 C 396.415 -0.780399 1.80012 0
M  V30 4061 O 395.54 -1.61007 1.44589 0
M  V30 4062 C 396.135 1.26903 3.14135 0
M  V30 4063 C 394.694 1.02909 3.62059 0
M  V30 4064 C 393.841 1.38969 2.39964 0
M  V30 4065 H 396.792 1.16457 1.07812 0
M  V30 4066 H 396.813 0.647223 3.74955 0
M  V30 4067 H 396.325 2.34851 3.08977 0
M  V30 4068 H 394.426 -0.0337979 3.72585 0
M  V30 4069 H 394.539 1.69191 4.48231 0
M  V30 4070 H 392.903 0.808279 2.41535 0
M  V30 4071 H 393.686 2.4792 2.37467 0
M  V30 4072 N 396.131 -1.37776 0.765217 0
M  V30 4073 C 397.379 -1.99454 0.325943 0
M  V30 4074 C 397.7 -1.61049 -1.09947 0
M  V30 4075 O 396.97 -0.872821 -1.75381 0
M  V30 4076 H 395.55 -0.737697 0.117525 0
M  V30 4077 H 398.212 -1.68359 0.981895 0
M  V30 4078 H 397.308 -3.09547 0.398353 0
M  V30 4079 N 397.609 -0.515225 -1.4894 0
M  V30 4080 C 399.025 -0.172099 -1.58669 0
M  V30 4081 C 399.225 1.32405 -1.51892 0
M  V30 4082 O 398.281 2.10116 -1.40027 0
M  V30 4083 C 399.594 -0.761533 -2.90897 0
M  V30 4084 C 401.142 -0.728926 -3.04394 0
M  V30 4085 C 401.617 -1.29667 -4.39261 0
M  V30 4086 N 403.108 -1.25799 -4.4579 0
M  V30 4087 C 403.843 -1.66733 -5.48623 0
M  V30 4088 N 403.339 -2.15327 -6.58488 0
M  V30 4089 N 405.132 -1.58061 -5.39419 0
M  V30 4090 H 397.283 -1.48778 -1.51588 0
M  V30 4091 H 399.546 -0.617968 -0.718901 0
M  V30 4092 H 399.252 -1.81136 -3.01468 0
M  V30 4093 H 399.126 -0.230106 -3.76497 0
M  V30 4094 H 401.513 0.312098 -2.93445 0
M  V30 4095 H 401.594 -1.29766 -2.20442 0
M  V30 4096 H 401.238 -2.33655 -4.50963 0
M  V30 4097 H 401.168 -0.703752 -5.21876 0
M  V30 4098 H 403.659 -0.902102 -3.66975 0
M  V30 4099 H 403.972 -2.44594 -7.33071 0
M  V30 4100 H 402.317 -2.19311 -6.59491 0
M  V30 4101 H 405.508 -1.19906 -4.52482 0
M  V30 4102 H 405.681 -1.90284 -6.19432 0
M  V30 4103 N 399.087 1.5561 -0.249682 0
M  V30 4104 C 400.017 2.24477 0.642826 0
M  V30 4105 C 400.998 1.22601 1.17911 0
M  V30 4106 O 402.183 1.5126 1.21795 0
M  V30 4107 C 399.313 2.94638 1.83863 0
M  V30 4108 C 398.267 4.03227 1.435 0
M  V30 4109 C 397.593 4.60828 2.71186 0
M  V30 4110 C 398.893 5.18796 0.604002 0
M  V30 4111 H 400.587 2.99321 0.0685625 0
M  V30 4112 H 398.133 1.43965 0.0315363 0
M  V30 4113 H 400.086 3.41517 2.46868 0
M  V30 4114 H 398.81 2.17287 2.43832 0
M  V30 4115 H 397.469 3.57121 0.828275 0
M  V30 4116 H 397.117 3.80174 3.29358 0
M  V30 4117 H 396.817 5.34132 2.44901 0
M  V30 4118 H 398.341 5.10442 3.35084 0
M  V30 4119 H 399.755 5.61883 1.13842 0
M  V30 4120 H 398.152 5.98506 0.437097 0
M  V30 4121 H 399.222 4.83384 -0.383147 0
M  V30 4122 N 400.565 -0.0233959 1.57583 0
M  V30 4123 C 401.495 -1.02162 2.09965 0
M  V30 4124 C 402.476 -1.3735 1.00344 0
M  V30 4125 O 403.661 -1.46135 1.27899 0
M  V30 4126 C 400.791 -2.32081 2.58371 0
M  V30 4127 C 399.745 -2.1112 3.72307 0
M  V30 4128 C 399.071 -3.46848 4.06941 0
M  V30 4129 C 400.371 -1.49276 5.00514 0
M  V30 4130 H 402.065 -0.585557 2.93618 0
M  V30 4131 H 399.611 -0.280218 1.41247 0
M  V30 4132 H 401.564 -3.02249 2.93639 0
M  V30 4133 H 400.288 -2.77758 1.71808 0
M  V30 4134 H 398.947 -1.43384 3.37397 0
M  V30 4135 H 398.595 -3.90184 3.17436 0
M  V30 4136 H 398.295 -3.33646 4.83688 0
M  V30 4137 H 399.819 -4.18369 4.44747 0
M  V30 4138 H 401.233 -2.09368 5.33702 0
M  V30 4139 H 399.63 -1.46632 5.8191 0
M  V30 4140 H 400.7 -0.459217 4.82721 0
M  V30 4141 N 402.043 -1.548 -0.295768 0
M  V30 4142 C 403.268 -1.78653 -1.05346 0
M  V30 4143 C 403.693 -0.546894 -1.79974 0
M  V30 4144 O 403.051 0.502763 -1.7419 0
M  V30 4145 C 403.099 -2.99679 -2.00561 0
M  V30 4146 O 402.203 -2.7317 -3.08953 0
M  V30 4147 H 401.544 -0.59116 -0.302367 0
M  V30 4148 H 404.074 -2.01895 -0.331598 0
M  V30 4149 H 404.084 -3.27793 -2.42932 0
M  V30 4150 H 402.759 -3.89562 -1.4565 0
M  V30 4151 H 401.336 -2.56089 -2.71059 0
M  V30 4152 N 403.521 0.559213 -1.47345 0
M  V30 4153 C 404.769 1.31388 -1.53563 0
M  V30 4154 C 405.09 1.93985 -0.198678 0
M  V30 4155 O 404.36 1.79825 0.777167 0
M  V30 4156 H 402.94 0.487901 -0.565652 0
M  V30 4157 H 405.602 0.65315 -1.8363 0
M  V30 4158 H 404.698 2.10844 -2.30111 0
M  V30 4159 N 404.999 1.35443 0.805782 0
M  V30 4160 C 406.41 1.25768 1.37983 0
M  V30 4161 C 406.761 -0.10958 1.95894 0
M  V30 4162 O 405.886 -1.01056 1.91355 0
M  V30 4163 C 406.481 2.27727 2.5085 0
M  V30 4164 C 405.04 2.2179 3.04115 0
M  V30 4165 C 404.187 2.13393 1.77084 0
M  V30 4166 H 407.138 1.4656 0.608752 0
M  V30 4167 H 407.159 1.90422 3.29424 0
M  V30 4168 H 406.671 3.27227 2.08671 0
M  V30 4169 H 404.772 1.25703 3.50756 0
M  V30 4170 H 404.885 3.13788 3.62042 0
M  V30 4171 H 403.249 1.59384 1.98668 0
M  V30 4172 H 404.032 3.14755 1.37056 0
M  V30 4173 N 406.477 -1.02803 1.19454 0
M  V30 4174 C 407.407 -2.12999 0.956758 0
M  V30 4175 C 408.388 -1.69743 -0.110188 0
M  V30 4176 O 409.573 -1.94148 0.0450038 0
M  V30 4177 C 406.703 -3.43746 0.495553 0
M  V30 4178 C 405.657 -4.00688 1.50443 0
M  V30 4179 C 404.983 -5.27067 0.900275 0
M  V30 4180 C 406.283 -4.35397 2.8849 0
M  V30 4181 H 407.977 -2.33148 1.87836 0
M  V30 4182 H 405.523 -1.12045 0.904539 0
M  V30 4183 H 407.476 -4.2021 0.316493 0
M  V30 4184 H 406.2 -3.23321 -0.461646 0
M  V30 4185 H 404.859 -3.2632 1.67065 0
M  V30 4186 H 404.507 -5.02959 -0.064503 0
M  V30 4187 H 404.207 -5.66127 1.57397 0
M  V30 4188 H 405.731 -6.06196 0.73203 0
M  V30 4189 H 407.145 -5.02795 2.75446 0
M  V30 4190 H 405.542 -4.85541 3.52661 0
M  V30 4191 H 406.612 -3.44662 3.41081 0
M  V30 4192 N 407.956 -0.998596 -1.21925 0
M  V30 4193 C 408.886 -0.573688 -2.26343 0
M  V30 4194 C 409.867 0.402296 -1.65274 0
M  V30 4195 O 411.052 0.291683 -1.91997 0
M  V30 4196 C 408.182 0.106839 -3.47136 0
M  V30 4197 C 407.136 -0.788269 -4.20678 0
M  V30 4198 C 406.462 0.0254927 -5.34694 0
M  V30 4199 C 407.762 -2.08784 -4.78755 0
M  V30 4200 H 409.456 -1.44651 -2.62138 0
M  V30 4201 H 407.002 -0.696975 -1.26009 0
M  V30 4202 H 408.955 0.415531 -4.19346 0
M  V30 4203 H 407.679 1.01424 -3.10452 0
M  V30 4204 H 406.338 -1.08069 -3.50309 0
M  V30 4205 H 405.986 0.933989 -4.94253 0
M  V30 4206 H 405.686 -0.570437 -5.84825 0
M  V30 4207 H 407.21 0.328147 -6.09718 0
M  V30 4208 H 408.624 -1.84272 -5.42878 0
M  V30 4209 H 407.021 -2.63307 -5.39249 0
M  V30 4210 H 408.091 -2.76284 -3.98491 0
M  V30 4211 N 409.434 1.37368 -0.772513 0
M  V30 4212 C 410.68 1.99969 -0.337681 0
M  V30 4213 C 411.013 1.61184 1.08321 0
M  V30 4214 O 410.288 0.858395 1.74533 0
M  V30 4215 C 410.571 3.56858 -0.482121 0
M  V30 4216 C 410.424 4.0555 -1.94549 0
M  V30 4217 C 411.743 4.39955 0.113143 0
M  V30 4218 H 408.862 0.726464 -0.124171 0
M  V30 4219 H 411.504 1.63034 -0.975699 0
M  V30 4220 H 409.654 3.88452 0.0610361 0
M  V30 4221 H 411.326 3.84518 -2.54841 0
M  V30 4222 H 409.569 3.57715 -2.45403 0
M  V30 4223 H 410.24 5.14587 -1.9976 0
M  V30 4224 H 412.716 4.14623 -0.35031 0
M  V30 4225 H 411.592 5.48897 -0.0180514 0
M  V30 4226 H 411.853 4.25403 1.20354 0
M  V30 4227 N 410.912 0.523116 1.48665 0
M  V30 4228 C 411.842 -0.23231 2.32342 0
M  V30 4229 C 412.823 -0.941637 1.41659 0
M  V30 4230 O 414.008 -0.928751 1.70552 0
M  V30 4231 C 411.138 -1.28387 3.22698 0
M  V30 4232 C 410.092 -0.693098 4.22351 0
M  V30 4233 C 409.418 -1.8468 5.01794 0
M  V30 4234 C 410.718 0.33063 5.21252 0
M  V30 4235 H 412.412 0.466192 2.95748 0
M  V30 4236 H 409.958 0.225643 1.42221 0
M  V30 4237 H 411.911 -1.82024 3.80059 0
M  V30 4238 H 410.635 -2.01186 2.57278 0
M  V30 4239 H 409.294 -0.178299 3.66166 0
M  V30 4240 H 408.942 -2.56301 4.32804 0
M  V30 4241 H 408.642 -1.45747 5.69238 0
M  V30 4242 H 410.166 -2.38709 5.62006 0
M  V30 4243 H 411.58 -0.118407 5.73178 0
M  V30 4244 H 409.977 0.636974 5.9671 0
M  V30 4245 H 411.047 1.23883 4.68808 0
M  V30 4246 N 412.39 -1.55475 0.257931 0
M  V30 4247 C 413.3 -2.2549 -0.647425 0
M  V30 4248 C 414.316 -1.2748 -1.18427 0
M  V30 4249 O 415.492 -1.6038 -1.2182 0
M  V30 4250 C 412.557 -2.94916 -1.82278 0
M  V30 4251 C 411.618 -4.08363 -1.32432 0
M  V30 4252 C 410.851 -4.74469 -2.44366 0
M  V30 4253 O 411.074 -4.39701 -3.63344 0
M  V30 4254 O 410.008 -5.62763 -2.13497 0
M  V30 4255 H 413.834 -3.03593 -0.0807707 0
M  V30 4256 H 411.419 -1.49377 0.0259962 0
M  V30 4257 H 413.301 -3.38606 -2.50846 0
M  V30 4258 H 411.976 -2.19744 -2.37685 0
M  V30 4259 H 410.883 -3.69166 -0.605605 0
M  V30 4260 H 412.216 -4.85385 -0.816211 0
M  V30 4261 N 413.868 0.0150385 -1.57593 0
M  V30 4262 C 414.798 1.01047 -2.10503 0
M  V30 4263 C 415.779 1.36816 -1.01071 0
M  V30 4264 O 416.964 1.45455 -1.28672 0
M  V30 4265 C 414.094 2.30708 -2.59598 0
M  V30 4266 C 413.048 2.09142 -3.73421 0
M  V30 4267 C 412.374 3.44685 -4.08774 0
M  V30 4268 C 413.674 1.46619 -5.01298 0
M  V30 4269 H 415.368 0.569978 -2.93925 0
M  V30 4270 H 412.914 0.272724 -1.41394 0
M  V30 4271 H 414.867 3.00687 -2.95238 0
M  V30 4272 H 413.591 2.76843 -1.73279 0
M  V30 4273 H 412.25 1.41592 -3.38153 0
M  V30 4274 H 411.898 3.88495 -3.195 0
M  V30 4275 H 411.598 3.31077 -4.8545 0
M  V30 4276 H 413.122 4.16004 -4.4696 0
M  V30 4277 H 414.536 2.06535 -5.34805 0
M  V30 4278 H 412.933 1.43544 -5.82679 0
M  V30 4279 H 414.003 0.433611 -4.82957 0
M  V30 4280 N 415.346 1.54954 0.287554 0
M  V30 4281 C 416.296 1.8322 1.357 0
M  V30 4282 C 417.28 0.690152 1.45347 0
M  V30 4283 O 418.472 0.951137 1.49273 0
M  V30 4284 C 415.601 2.09481 2.71979 0
M  V30 4285 C 414.687 3.29906 2.66502 0
M  V30 4286 N 415.078 4.50154 2.30641 0
M  V30 4287 C 413.376 3.32203 2.97585 0
M  V30 4288 C 414.077 5.32209 2.34794 0
M  V30 4289 N 413.053 4.70258 2.72688 0
M  V30 4290 H 416.855 2.73746 1.0696 0
M  V30 4291 H 414.369 1.54635 0.496167 0
M  V30 4292 H 416.366 2.27882 3.49107 0
M  V30 4293 H 415.026 1.2023 3.0162 0
M  V30 4294 H 416.037 4.76515 2.02865 0
M  V30 4295 H 412.714 2.53101 3.32034 0
M  V30 4296 H 414.104 6.38321 2.09753 0
M  V30 4297 N 416.824 -0.551391 1.4764 0
M  V30 4298 C 418.235 -1.13349 1.48354 0
M  V30 4299 C 418.586 -1.94709 0.241432 0
M  V30 4300 O 417.711 -2.06306 -0.653205 0
M  V30 4301 C 418.306 -2.0623 2.68802 0
M  V30 4302 C 416.865 -2.597 2.72457 0
M  V30 4303 C 416.012 -1.36201 2.41546 0
M  V30 4304 H 418.963 -0.337698 1.55065 0
M  V30 4305 H 418.984 -2.90196 2.46103 0
M  V30 4306 H 418.496 -1.46987 3.59188 0
M  V30 4307 H 416.597 -3.22724 1.86225 0
M  V30 4308 H 416.71 -3.00296 3.73308 0
M  V30 4309 H 415.074 -1.67068 1.9225 0
M  V30 4310 H 415.857 -0.787425 3.34147 0
M  V30 4311 N 418.302 -1.35869 -0.798587 0
M  V30 4312 C 419.249 -1.29446 -1.91082 0
M  V30 4313 C 420.219 -0.16487 -1.6528 0
M  V30 4314 O 421.404 -0.349888 -1.87564 0
M  V30 4315 C 418.544 -1.0804 -3.27752 0
M  V30 4316 C 417.657 -2.29993 -3.65687 0
M  V30 4317 C 416.792 -2.01673 -4.91428 0
M  V30 4318 C 415.831 -3.19636 -5.22015 0
M  V30 4319 N 414.968 -2.91039 -6.38937 0
M  V30 4320 H 419.808 -2.24553 -1.95907 0
M  V30 4321 H 417.345 -1.11615 -0.958148 0
M  V30 4322 H 419.303 -0.936586 -4.06551 0
M  V30 4323 H 417.933 -0.16592 -3.22373 0
M  V30 4324 H 416.985 -2.55211 -2.82085 0
M  V30 4325 H 418.297 -3.18052 -3.84245 0
M  V30 4326 H 417.451 -1.84168 -5.78072 0
M  V30 4327 H 416.19 -1.10911 -4.74921 0
M  V30 4328 H 415.195 -3.37709 -4.33858 0
M  V30 4329 H 416.42 -4.11211 -5.40447 0
M  V30 4330 H 414.366 -2.0288 -6.2384 0
M  V30 4331 H 414.283 -3.72635 -6.57784 0
M  V30 4332 H 415.551 -2.77093 -7.28587 0
M  V30 4333 N 419.78 1.02168 -1.19998 0
M  V30 4334 C 421.028 1.75338 -1.00504 0
M  V30 4335 C 421.349 1.89387 0.464506 0
M  V30 4336 O 420.619 1.43268 1.33608 0
M  V30 4337 H 419.199 0.649564 -0.368885 0
M  V30 4338 H 421.861 1.23205 -1.51018 0
M  V30 4339 H 420.957 2.75892 -1.45912 0
M  V30 4340 N 421.258 1.00505 1.21394 0
M  V30 4341 C 422.483 0.706367 1.95001 0
M  V30 4342 C 422.908 -0.72463 1.73582 0
M  V30 4343 O 422.266 -1.49702 1.0227 0
M  V30 4344 C 422.314 1.03299 3.45487 0
M  V30 4345 O 421.418 0.138275 4.12168 0
M  V30 4346 H 420.759 0.263175 0.609619 0
M  V30 4347 H 423.289 1.34531 1.54151 0
M  V30 4348 H 423.299 0.979872 3.96059 0
M  V30 4349 H 421.974 2.07567 3.60401 0
M  V30 4350 H 420.551 0.247928 3.72075 0
M  V30 4351 N 422.737 -1.36956 0.779787 0
M  V30 4352 C 423.667 -2.32761 0.185651 0
M  V30 4353 C 424.648 -1.56177 -0.673989 0
M  V30 4354 O 425.833 -1.84378 -0.609797 0
M  V30 4355 C 422.963 -3.40418 -0.687964 0
M  V30 4356 C 421.917 -4.27941 0.0710102 0
M  V30 4357 C 421.243 -5.26681 -0.922573 0
M  V30 4358 C 422.543 -5.07006 1.25467 0
M  V30 4359 H 424.237 -2.82698 0.986008 0
M  V30 4360 H 421.783 -1.3592 0.475592 0
M  V30 4361 H 423.736 -4.06423 -1.11348 0
M  V30 4362 H 422.46 -2.89025 -1.52093 0
M  V30 4363 H 421.119 -3.63478 0.47739 0
M  V30 4364 H 420.767 -4.71565 -1.7503 0
M  V30 4365 H 420.467 -5.86103 -0.419237 0
M  V30 4366 H 421.991 -5.9556 -1.34686 0
M  V30 4367 H 423.405 -5.66105 0.905401 0
M  V30 4368 H 421.802 -5.75793 1.69063 0
M  V30 4369 H 422.872 -4.3921 2.05481 0
M  V30 4370 N 424.215 -0.530993 -1.48385 0
M  V30 4371 C 425.455 0.000718982 -2.044 0
M  V30 4372 C 425.819 1.31485 -1.39913 0
M  V30 4373 O 427.02 1.93265 -1.86821 0
M  V30 4374 C 425.291 0.119177 -3.57201 0
M  V30 4375 S 426.85 0.600806 -4.34667 0
M  V30 4376 H 423.668 -0.0125473 -0.710889 0
M  V30 4377 H 426.27 -0.711783 -1.82082 0
M  V30 4378 H 424.974 -0.842061 -4.01668 0
M  V30 4379 H 424.505 0.856026 -3.83974 0
M  V30 4380 H 426.52 1.86514 -4.59812 0
M  V30 4381 N 425.693 1.55336 -0.266172 0
M  V30 4382 C 426.643 2.18848 0.639497 0
M  V30 4383 C 427.627 1.1503 1.12503 0
M  V30 4384 O 428.819 1.40875 1.0716 0
M  V30 4385 C 425.948 2.90626 1.82733 0
M  V30 4386 C 425.034 4.01723 1.35939 0
M  V30 4387 N 425.425 5.02145 0.606988 0
M  V30 4388 C 423.723 4.1463 1.6431 0
M  V30 4389 C 424.424 5.80572 0.362138 0
M  V30 4390 N 423.4 5.35551 0.931971 0
M  V30 4391 H 427.202 2.93845 0.0567057 0
M  V30 4392 H 424.716 1.62252 -0.0693312 0
M  V30 4393 H 426.713 3.34569 2.48735 0
M  V30 4394 H 425.373 2.17137 2.41416 0
M  V30 4395 H 426.384 5.17271 0.255198 0
M  V30 4396 H 423.061 3.52326 2.23993 0
M  V30 4397 H 424.451 6.71472 -0.239848 0
M  V30 4398 N 427.171 -0.0066808 1.57599 0
M  V30 4399 C 428.401 -0.703066 1.94269 0
M  V30 4400 C 428.809 -1.68206 0.866222 0
M  V30 4401 O 428.152 -1.82966 -0.164087 0
M  V30 4402 C 428.214 -1.49616 3.26887 0
M  V30 4403 C 427.878 -0.679494 4.5192 0
M  V30 4404 C 428.875 0.0299508 5.19891 0
M  V30 4405 C 426.56 -0.627433 4.98366 0
M  V30 4406 C 428.554 0.780514 6.32603 0
M  V30 4407 C 426.241 0.126861 6.10968 0
M  V30 4408 C 427.239 0.829574 6.77943 0
M  V30 4409 O 426.927 1.57157 7.88389 0
M  V30 4410 H 426.659 -0.201217 0.645359 0
M  V30 4411 H 429.213 0.0385326 2.05364 0
M  V30 4412 H 427.443 -2.28209 3.12182 0
M  V30 4413 H 429.132 -2.07726 3.48719 0
M  V30 4414 H 429.898 -0.00115963 4.85 0
M  V30 4415 H 425.777 -1.16392 4.46065 0
M  V30 4416 H 429.321 1.32954 6.84813 0
M  V30 4417 H 425.218 0.159815 6.45302 0
M  V30 4418 H 425.986 1.48758 8.04868 0
M  V30 4419 N 428.649 -1.55105 -0.279332 0
M  V30 4420 C 429.579 -1.90557 -1.34945 0
M  V30 4421 C 430.56 -0.766738 -1.51839 0
M  V30 4422 O 431.745 -1.02434 -1.64988 0
M  V30 4423 C 428.875 -2.17193 -2.71006 0
M  V30 4424 C 427.829 -3.33021 -2.68851 0
M  V30 4425 C 427.155 -3.45123 -4.08405 0
M  V30 4426 C 428.455 -4.69578 -2.28678 0
M  V30 4427 H 430.149 -2.80188 -1.05522 0
M  V30 4428 H 427.695 -1.34811 -0.506173 0
M  V30 4429 H 429.648 -2.40581 -3.45975 0
M  V30 4430 H 428.372 -1.24355 -3.01999 0
M  V30 4431 H 427.031 -3.0959 -1.9634 0
M  V30 4432 H 426.679 -2.49762 -4.3661 0
M  V30 4433 H 426.379 -4.22995 -4.07859 0
M  V30 4434 H 427.903 -3.70796 -4.85121 0
M  V30 4435 H 429.317 -4.92553 -2.93368 0
M  V30 4436 H 427.714 -5.5032 -2.39306 0
M  V30 4437 H 428.784 -4.68828 -1.23807 0
M  V30 4438 N 430.127 0.543554 -1.4793 0
M  V30 4439 C 431.355 1.32516 -1.58894 0
M  V30 4440 C 431.77 1.87215 -0.244131 0
M  V30 4441 O 431.127 1.65709 0.764652 0
M  V30 4442 C 431.178 2.48554 -2.62494 0
M  V30 4443 O 430.899 1.96112 -3.91755 0
M  V30 4444 C 432.4 3.40572 -2.8377 0
M  V30 4445 H 429.62 0.403472 -0.536145 0
M  V30 4446 H 432.164 0.657106 -1.93655 0
M  V30 4447 H 430.319 3.1127 -2.30629 0
M  V30 4448 H 430.733 2.71967 -4.4848 0
M  V30 4449 H 432.207 4.18375 -3.60093 0
M  V30 4450 H 432.684 3.94965 -1.92092 0
M  V30 4451 H 433.29 2.8366 -3.16887 0
M  V30 4452 N 431.605 1.3629 0.791371 0
M  V30 4453 C 432.537 1.26321 1.91248 0
M  V30 4454 C 433.55 0.18313 1.61767 0
M  V30 4455 O 434.739 0.437682 1.73051 0
M  V30 4456 C 431.839 0.925901 3.26007 0
M  V30 4457 C 431.012 2.10746 3.83281 0
M  V30 4458 C 430.071 1.74352 4.96475 0
M  V30 4459 O 429.097 2.46416 5.13096 0
M  V30 4460 N 430.299 0.676058 5.7655 0
M  V30 4461 H 433.064 2.22915 2.00323 0
M  V30 4462 H 430.625 1.29659 0.969546 0
M  V30 4463 H 432.617 0.663636 3.99222 0
M  V30 4464 H 431.187 0.0491581 3.12561 0
M  V30 4465 H 430.407 2.53264 3.02077 0
M  V30 4466 H 431.695 2.8969 4.18279 0
M  V30 4467 H 431.093 0.0776467 5.65647 0
M  V30 4468 H 429.65 0.473612 6.50077 0
M  V30 4469 N 433.083 -1.0153 1.20538 0
M  V30 4470 C 434.313 -1.78487 1.04048 0
M  V30 4471 C 434.721 -1.84631 -0.413292 0
M  V30 4472 O 434.064 -1.29919 -1.29872 0
M  V30 4473 C 434.126 -3.24367 1.55003 0
M  V30 4474 C 433.79 -3.41827 3.0332 0
M  V30 4475 C 434.787 -3.30941 4.00966 0
M  V30 4476 C 432.472 -3.67602 3.42307 0
M  V30 4477 C 434.466 -3.45577 5.35589 0
M  V30 4478 C 432.153 -3.81881 4.77085 0
M  V30 4479 C 433.151 -3.70874 5.73534 0
M  V30 4480 O 432.839 -3.84714 7.05868 0
M  V30 4481 H 432.571 -0.568108 0.366373 0
M  V30 4482 H 435.125 -1.28677 1.60098 0
M  V30 4483 H 433.355 -3.75266 0.933397 0
M  V30 4484 H 435.044 -3.82963 1.34514 0
M  V30 4485 H 435.81 -3.10964 3.72191 0
M  V30 4486 H 431.689 -3.75256 2.67776 0
M  V30 4487 H 435.233 -3.36902 6.10854 0
M  V30 4488 H 431.13 -4.01359 5.0555 0
M  V30 4489 H 431.898 -4.01724 7.13134 0
M  V30 4490 N 434.561 -1.01147 -1.20859 0
M  V30 4491 C 435.789 -0.716911 -1.94082 0
M  V30 4492 C 436.204 0.721568 -1.74467 0
M  V30 4493 O 435.561 1.48889 -1.05539 0
M  V30 4494 C 435.612 -1.03662 -3.46318 0
M  V30 4495 O 435.333 -2.4186 -3.65288 0
M  V30 4496 C 436.834 -0.762386 -4.36695 0
M  V30 4497 H 434.054 -0.26367 -0.617024 0
M  V30 4498 H 436.598 -1.35127 -1.53496 0
M  V30 4499 H 434.753 -0.447757 -3.84804 0
M  V30 4500 H 435.167 -2.53224 -4.59323 0
M  V30 4501 H 436.641 -1.03621 -5.42187 0
M  V30 4502 H 437.118 0.303514 -4.3815 0
M  V30 4503 H 437.724 -1.33316 -4.03865 0
M  V30 4504 N 436.039 1.36541 -0.78704 0
M  V30 4505 C 437.264 2.0409 -0.369053 0
M  V30 4506 C 437.689 1.58957 1.00569 0
M  V30 4507 O 437.047 0.756926 1.64743 0
M  V30 4508 C 437.095 3.57924 -0.438466 0
M  V30 4509 O 436.199 4.08642 0.555479 0
M  V30 4510 H 435.54 0.645142 -0.157122 0
M  V30 4511 H 438.07 1.74545 -1.06749 0
M  V30 4512 H 438.08 4.06887 -0.301218 0
M  V30 4513 H 436.755 3.90127 -1.44132 0
M  V30 4514 H 435.332 3.70958 0.380088 0
M  V30 4515 N 437.518 0.538854 1.48102 0
M  V30 4516 C 438.795 -0.0568108 1.95517 0
M  V30 4517 C 439.175 -1.50408 1.48124 0
M  V30 4518 O 438.523 -2.17133 0.711727 0
M  V30 4519 C 438.733 0.0696262 3.48931 0
M  V30 4520 C 440.081 -0.0851202 4.24515 0
M  V30 4521 O 441.105 -0.0037347 3.562 0
M  V30 4522 O 439.964 -0.257025 5.45895 0
M  V30 4523 H 437.058 -0.0743695 0.823649 0
M  V30 4524 H 439.604 0.604081 1.58584 0
M  V30 4525 H 438.376 1.07744 3.76174 0
M  V30 4526 H 437.999 -0.629714 3.92582 0
M  V30 4527 N 438.996 -1.55193 0.274407 0
M  V30 4528 C 440.242 -2.00604 -0.33608 0
M  V30 4529 C 440.597 -1.15948 -1.53538 0
M  V30 4530 O 439.89 -0.221385 -1.90317 0
M  V30 4531 C 440.084 -3.49019 -0.769458 0
M  V30 4532 C 439.913 -4.48038 0.386301 0
M  V30 4533 C 438.683 -4.97757 0.869854 0
M  V30 4534 C 440.881 -4.99558 1.22254 0
M  V30 4535 N 438.863 -5.80575 1.99515 0
M  V30 4536 C 440.234 -5.79816 2.19575 0
M  V30 4537 C 442.289 -4.81799 1.25597 0
M  V30 4538 C 440.992 -6.44208 3.19981 0
M  V30 4539 C 443.018 -5.46989 2.24848 0
M  V30 4540 C 442.38 -6.27058 3.20901 0
M  V30 4541 H 438.479 -0.777013 -0.088172 0
M  V30 4542 H 441.063 -1.90583 0.398266 0
M  V30 4543 H 439.234 -3.59383 -1.47303 0
M  V30 4544 H 440.966 -3.81263 -1.35722 0
M  V30 4545 H 437.721 -4.71464 0.449281 0
M  V30 4546 H 438.145 -6.26675 2.5614 0
M  V30 4547 H 442.787 -4.19501 0.527158 0
M  V30 4548 H 440.505 -7.05656 3.93796 0
M  V30 4549 H 444.091 -5.35189 2.28174 0
M  V30 4550 H 442.971 -6.7661 3.96445 0
M  V30 4551 N 440.474 -0.00167713 -1.576 0
M  V30 4552 C 441.722 0.681471 -1.90264 0
M  V30 4553 C 442.043 1.7422 -0.875924 0
M  V30 4554 O 441.313 1.95709 0.0864412 0
M  V30 4555 H 439.893 0.254696 -0.702239 0
M  V30 4556 H 442.555 -0.0429996 -1.94853 0
M  V30 4557 H 441.651 1.15166 -2.90075 0
M  V30 4558 N 441.952 1.55251 0.271103 0
M  V30 4559 C 443.177 1.80306 1.02491 0
M  V30 4560 C 443.602 0.575457 1.79081 0
M  V30 4561 O 442.96 -0.474987 1.74967 0
M  V30 4562 C 443.008 3.02832 1.95768 0
M  V30 4563 O 442.112 2.78051 3.04568 0
M  V30 4564 H 441.453 0.595896 0.292923 0
M  V30 4565 H 443.983 2.02397 0.299436 0
M  V30 4566 H 443.993 3.31616 2.37686 0
M  V30 4567 H 442.668 3.9183 1.39434 0
M  V30 4568 H 441.245 2.60369 2.66951 0
M  V30 4569 N 443.43 -0.535701 1.48216 0
M  V30 4570 C 444.655 -1.32149 1.59848 0
M  V30 4571 C 445.08 -1.86338 0.256842 0
M  V30 4572 O 444.438 -1.64107 -0.770632 0
M  V30 4573 C 444.486 -2.45224 2.64381 0
M  V30 4574 O 443.59 -3.48093 2.21144 0
M  V30 4575 H 442.931 -0.391634 0.536208 0
M  V30 4576 H 445.461 -0.645202 1.94161 0
M  V30 4577 H 445.471 -2.91491 2.85476 0
M  V30 4578 H 444.146 -2.05143 3.61786 0
M  V30 4579 H 442.723 -3.07984 2.10239 0
M  V30 4580 N 444.908 -1.36708 -0.784132 0
M  V30 4581 C 445.838 -1.34153 -1.91116 0
M  V30 4582 C 446.819 -0.212121 -1.68772 0
M  V30 4583 O 448.004 -0.410581 -1.8981 0
M  V30 4584 C 445.134 -1.13535 -3.28218 0
M  V30 4585 C 444.088 -2.23356 -3.65097 0
M  V30 4586 C 443.414 -1.87875 -5.00607 0
M  V30 4587 C 444.714 -3.65473 -3.73131 0
M  V30 4588 H 446.408 -2.28459 -1.93512 0
M  V30 4589 H 443.954 -1.09973 -0.929618 0
M  V30 4590 H 445.907 -1.10381 -4.06687 0
M  V30 4591 H 444.631 -0.156804 -3.26223 0
M  V30 4592 H 443.29 -2.25645 -2.88929 0
M  V30 4593 H 442.938 -0.885814 -4.95139 0
M  V30 4594 H 442.638 -2.61406 -5.26252 0
M  V30 4595 H 444.162 -1.86286 -5.81489 0
M  V30 4596 H 445.576 -3.65382 -4.41779 0
M  V30 4597 H 443.973 -4.37953 -4.10265 0
M  V30 4598 H 445.043 -3.99995 -2.74102 0
M  V30 4599 N 446.386 1.0089 -1.21074 0
M  V30 4600 C 447.802 1.2695 -0.967257 0
M  V30 4601 C 448.002 1.9846 0.348673 0
M  V30 4602 O 447.058 2.28459 1.0753 0
M  V30 4603 C 448.371 2.09697 -2.15517 0
M  V30 4604 C 449.919 2.22937 -2.197 0
M  V30 4605 C 450.394 3.09064 -3.37999 0
M  V30 4606 N 451.885 3.16653 -3.38061 0
M  V30 4607 C 452.62 3.8354 -4.26245 0
M  V30 4608 N 452.116 4.52488 -5.2462 0
M  V30 4609 N 453.909 3.80141 -4.14064 0
M  V30 4610 H 446.06 0.529005 -2.05707 0
M  V30 4611 H 448.323 0.296148 -0.900556 0
M  V30 4612 H 448.029 1.64497 -3.10859 0
M  V30 4613 H 447.903 3.10444 -2.14253 0
M  V30 4614 H 450.29 2.67357 -1.24916 0
M  V30 4615 H 450.371 1.21673 -2.2501 0
M  V30 4616 H 450.015 2.65347 -4.33074 0
M  V30 4617 H 449.945 4.10433 -3.29928 0
M  V30 4618 H 452.436 2.67566 -2.66865 0
M  V30 4619 H 452.749 5.01219 -5.88217 0
M  V30 4620 H 451.094 4.51288 -5.28549 0
M  V30 4621 H 454.285 3.25427 -3.36474 0
M  V30 4622 H 454.458 4.31992 -4.82998 0
M  V30 4623 N 447.864 1.01787 1.20321 0
M  V30 4624 C 448.797 0.533882 2.21867 0
M  V30 4625 C 449.775 -0.419361 1.57099 0
M  V30 4626 O 450.959 -0.339062 1.85426 0
M  V30 4627 C 448.086 -0.222899 3.37966 0
M  V30 4628 C 447.132 0.680091 4.21043 0
M  V30 4629 S 447.965 2.14997 4.90445 0
M  V30 4630 C 449.121 1.40339 6.09964 0
M  V30 4631 H 449.354 1.39429 2.62577 0
M  V30 4632 H 446.887 0.826867 1.30393 0
M  V30 4633 H 448.845 -0.653425 4.05266 0
M  V30 4634 H 447.506 -1.0589 2.95713 0
M  V30 4635 H 446.699 0.0964704 5.03908 0
M  V30 4636 H 446.301 1.04845 3.59004 0
M  V30 4637 H 448.593 0.68407 6.74038 0
M  V30 4638 H 449.536 2.20823 6.72787 0
M  V30 4639 H 449.944 0.905716 5.57187 0
M  V30 4640 N 449.342 -1.36122 0.79427 0
M  V30 4641 C 450.305 -2.28309 0.201889 0
M  V30 4642 C 451.305 -1.49041 -0.603603 0
M  V30 4643 O 452.495 -1.68964 -0.423888 0
M  V30 4644 C 449.627 -3.3321 -0.719978 0
M  V30 4645 H 450.82 -2.82208 1.01481 0
M  V30 4646 H 448.373 -1.45768 0.564037 0
M  V30 4647 H 449.108 -2.84475 -1.55706 0
M  V30 4648 H 448.893 -3.91835 -0.144266 0
M  V30 4649 H 450.383 -4.02044 -1.12916 0
M  V30 4650 N 450.82 -0.546701 -1.47814 0
M  V30 4651 C 451.75 0.195317 -2.32682 0
M  V30 4652 C 452.731 0.918981 -1.43139 0
M  V30 4653 O 453.916 0.901501 -1.72008 0
M  V30 4654 C 451.046 1.23237 -3.247 0
M  V30 4655 C 450 0.625818 -4.234 0
M  V30 4656 C 449.326 1.76674 -5.04669 0
M  V30 4657 C 450.626 -0.413515 -5.2066 0
M  V30 4658 H 452.32 -0.513184 -2.94969 0
M  V30 4659 H 449.866 -0.248241 -1.41844 0
M  V30 4660 H 451.819 1.75955 -3.82907 0
M  V30 4661 H 450.543 1.97067 -2.60446 0
M  V30 4662 H 449.202 0.120023 -3.66403 0
M  V30 4663 H 448.85 2.49383 -4.36826 0
M  V30 4664 H 448.55 1.36673 -5.71484 0
M  V30 4665 H 450.074 2.29738 -5.65732 0
M  V30 4666 H 451.488 0.0272042 -5.73294 0
M  V30 4667 H 449.885 -0.731825 -5.95621 0
M  V30 4668 H 450.955 -1.31325 -4.66778 0
M  V30 4669 N 452.299 1.55045 -0.282633 0
M  V30 4670 C 453.524 2.04628 0.337977 0
M  V30 4671 C 453.949 1.15937 1.48123 0
M  V30 4672 O 453.307 0.159532 1.80597 0
M  V30 4673 C 453.355 3.51854 0.78936 0
M  V30 4674 O 452.459 3.66236 1.89592 0
M  V30 4675 H 451.8 0.660434 0.0687261 0
M  V30 4676 H 454.33 2.00261 -0.419124 0
M  V30 4677 H 454.34 3.93361 1.08311 0
M  V30 4678 H 453.015 4.15873 -0.0470419 0
M  V30 4679 H 451.592 3.36633 1.60413 0
M  V30 4680 N 453.777 0.010035 1.57597 0
M  V30 4681 C 454.707 -0.976857 2.12084 0
M  V30 4682 C 455.688 -1.35191 1.03235 0
M  V30 4683 O 456.873 -1.43389 1.3097 0
M  V30 4684 C 454.003 -2.26548 2.63236 0
M  V30 4685 C 452.957 -2.03175 3.76701 0
M  V30 4686 C 452.283 -3.38138 4.14206 0
M  V30 4687 C 453.583 -1.38625 5.03568 0
M  V30 4688 H 455.277 -0.523145 2.94794 0
M  V30 4689 H 452.823 -0.250195 1.4181 0
M  V30 4690 H 454.776 -2.95952 2.99984 0
M  V30 4691 H 453.5 -2.74051 1.77661 0
M  V30 4692 H 452.159 -1.36195 3.40362 0
M  V30 4693 H 451.807 -3.83363 3.25641 0
M  V30 4694 H 451.507 -3.23312 4.90656 0
M  V30 4695 H 453.031 -4.08841 4.53521 0
M  V30 4696 H 454.445 -1.98 5.38023 0
M  V30 4697 H 452.842 -1.34256 5.84889 0
M  V30 4698 H 453.912 -0.356722 4.83586 0
M  V30 4699 N 455.255 -1.55392 -0.262866 0
M  V30 4700 C 456.218 -1.88181 -1.30846 0
M  V30 4701 C 457.218 -0.757079 -1.41862 0
M  V30 4702 O 458.408 -1.02519 -1.40838 0
M  V30 4703 C 455.54 -2.09609 -2.68844 0
M  V30 4704 H 456.733 -2.81659 -1.02997 0
M  V30 4705 H 454.286 -1.48039 -0.501414 0
M  V30 4706 H 455.021 -1.18547 -3.01856 0
M  V30 4707 H 454.806 -2.91508 -2.62231 0
M  V30 4708 H 456.296 -2.36215 -3.44372 0
M  V30 4709 N 456.733 0.527833 -1.48498 0
M  V30 4710 C 457.665 1.6482 -1.5927 0
M  V30 4711 C 458.678 1.55659 -0.476869 0
M  V30 4712 O 459.867 1.62081 -0.747806 0
M  V30 4713 C 456.967 3.0348 -1.50842 0
M  V30 4714 C 456.14 3.381 -2.77502 0
M  V30 4715 C 455.199 4.5605 -2.62497 0
M  V30 4716 O 454.225 4.59165 -3.36387 0
M  V30 4717 N 455.427 5.54353 -1.72257 0
M  V30 4718 H 458.192 1.56015 -2.55889 0
M  V30 4719 H 455.753 0.715152 -1.45249 0
M  V30 4720 H 457.745 3.80264 -1.38496 0
M  V30 4721 H 456.315 3.06352 -0.621887 0
M  V30 4722 H 455.535 2.50473 -3.04396 0
M  V30 4723 H 456.823 3.58017 -3.61527 0
M  V30 4724 H 456.221 5.54617 -1.11431 0
M  V30 4725 H 454.778 6.30347 -1.65849 0
M  V30 4726 N 458.211 1.37122 0.776871 0
M  V30 4727 C 459.459 1.31787 1.53221 0
M  V30 4728 C 459.78 -0.0987589 1.9475 0
M  V30 4729 O 459.05 -1.0417 1.65908 0
M  V30 4730 H 457.63 0.484839 0.568278 0
M  V30 4731 H 460.292 1.71556 0.924917 0
M  V30 4732 H 459.388 1.95355 2.43398 0
M  V30 4733 N 459.689 -1.00246 1.21608 0
M  V30 4734 C 460.619 -2.10921 1.00172 0
M  V30 4735 C 461.6 -1.69938 -0.0741587 0
M  V30 4736 O 462.785 -1.94009 0.0861753 0
M  V30 4737 C 459.915 -3.42618 0.568355 0
M  V30 4738 C 458.869 -3.97407 1.58909 0
M  V30 4739 C 458.195 -5.25038 1.01187 0
M  V30 4740 C 459.495 -4.2918 2.97661 0
M  V30 4741 H 461.189 -2.29112 1.92739 0
M  V30 4742 H 458.735 -1.10101 0.928102 0
M  V30 4743 H 460.688 -4.19444 0.405555 0
M  V30 4744 H 459.412 -3.24227 -0.392961 0
M  V30 4745 H 458.071 -3.22703 1.73949 0
M  V30 4746 H 457.719 -5.02982 0.0421965 0
M  V30 4747 H 457.419 -5.62661 1.6937 0
M  V30 4748 H 458.943 -6.04507 0.860448 0
M  V30 4749 H 460.357 -4.96839 2.86049 0
M  V30 4750 H 458.754 -4.77952 3.6288 0
M  V30 4751 H 459.824 -3.3735 3.48315 0
M  V30 4752 N 461.167 -1.02423 -1.1978 0
M  V30 4753 C 462.13 -0.605703 -2.21052 0
M  V30 4754 C 463.13 0.328209 -1.57415 0
M  V30 4755 O 464.32 0.115853 -1.73814 0
M  V30 4756 C 461.452 0.114366 -3.40708 0
M  V30 4757 H 462.645 -1.5017 -2.59594 0
M  V30 4758 H 460.198 -0.814888 -1.33376 0
M  V30 4759 H 460.933 1.02492 -3.07678 0
M  V30 4760 H 460.718 -0.556641 -3.88129 0
M  V30 4761 H 462.208 0.394272 -4.15735 0
M  V30 4762 N 462.645 1.35699 -0.801477 0
M  V30 4763 C 463.892 1.98913 -0.379459 0
M  V30 4764 C 464.22 1.63592 1.05204 0
M  V30 4765 O 463.475 0.888563 1.74365 0
M  V30 4766 C 463.774 3.53828 -0.504041 0
M  V30 4767 C 463.44 4.09002 -1.8981 0
M  V30 4768 C 462.102 4.23783 -2.27951 0
M  V30 4769 C 464.454 4.38939 -2.81038 0
M  V30 4770 C 461.782 4.65816 -3.56696 0
M  V30 4771 C 464.134 4.82409 -4.09224 0
M  V30 4772 C 462.798 4.95395 -4.4737 0
M  V30 4773 H 462.068 0.727874 -0.138854 0
M  V30 4774 H 464.715 1.61994 -1.02128 0
M  V30 4775 H 463.02 3.91175 0.221242 0
M  V30 4776 H 464.717 4.00687 -0.158361 0
M  V30 4777 H 461.307 3.97946 -1.59176 0
M  V30 4778 H 465.491 4.27077 -2.52821 0
M  V30 4779 H 460.747 4.74059 -3.86106 0
M  V30 4780 H 464.921 5.04535 -4.80018 0
M  V30 4781 H 462.548 5.27724 -5.47185 0
M  V30 4782 N 464.123 0.554532 1.47522 0
M  V30 4783 C 465.053 -0.182974 2.32782 0
M  V30 4784 C 466.034 -0.911377 1.43624 0
M  V30 4785 O 467.219 -0.892366 1.72483 0
M  V30 4786 C 464.349 -1.21513 3.25349 0
M  V30 4787 C 463.303 -0.603355 4.23726 0
M  V30 4788 C 462.629 -1.73995 5.05598 0
M  V30 4789 C 463.929 0.441121 5.20434 0
M  V30 4790 H 465.623 0.52882 2.94693 0
M  V30 4791 H 463.169 0.255759 1.41711 0
M  V30 4792 H 465.122 -1.73922 3.83835 0
M  V30 4793 H 463.846 -1.95683 2.61487 0
M  V30 4794 H 462.505 -0.10059 3.66462 0
M  V30 4795 H 462.153 -2.47063 4.38143 0
M  V30 4796 H 461.853 -1.3364 5.72201 0
M  V30 4797 H 463.377 -2.26735 5.66942 0
M  V30 4798 H 464.791 0.00319931 5.733 0
M  V30 4799 H 463.188 0.763402 5.95224 0
M  V30 4800 H 464.258 1.33799 4.66075 0
M  V30 4801 N 465.601 -1.54893 0.290851 0
M  V30 4802 C 466.551 -2.19838 -0.604599 0
M  V30 4803 C 467.535 -1.16805 -1.10659 0
M  V30 4804 O 468.727 -1.42562 -1.04905 0
M  V30 4805 C 465.856 -2.93497 -1.78086 0
M  V30 4806 C 464.942 -4.03835 -1.29531 0
M  V30 4807 N 465.333 -5.03047 -0.527024 0
M  V30 4808 C 463.631 -4.17192 -1.57693 0
M  V30 4809 C 464.332 -5.81074 -0.269728 0
M  V30 4810 N 463.308 -5.36966 -0.846651 0
M  V30 4811 H 467.11 -2.93898 -0.00995032 0
M  V30 4812 H 464.624 -1.62121 0.0951353 0
M  V30 4813 H 466.621 -3.38484 -2.43381 0
M  V30 4814 H 465.281 -2.2095 -2.37931 0
M  V30 4815 H 466.292 -5.17611 -0.172872 0
M  V30 4816 H 462.969 -3.55845 -2.18359 0
M  V30 4817 H 464.359 -6.71005 0.346643 0
M  V30 4818 N 467.08 -0.0183926 -1.57589 0
M  V30 4819 C 467.99 0.982943 -2.13015 0
M  V30 4820 C 469.006 1.36443 -1.07979 0
M  V30 4821 O 470.182 1.44802 -1.3998 0
M  V30 4822 C 467.247 2.25024 -2.63752 0
M  V30 4823 C 466.308 1.93018 -3.83461 0
M  V30 4824 C 465.541 3.13706 -4.31769 0
M  V30 4825 O 465.764 4.2601 -3.79305 0
M  V30 4826 O 464.698 2.96629 -5.23732 0
M  V30 4827 H 468.524 0.541709 -2.9883 0
M  V30 4828 H 466.109 0.201565 -1.48034 0
M  V30 4829 H 467.991 2.99441 -2.96502 0
M  V30 4830 H 466.666 2.68349 -1.81026 0
M  V30 4831 H 465.573 1.16019 -3.55655 0
M  V30 4832 H 466.906 1.54516 -4.67317 0
M  V30 4833 N 468.558 1.5553 0.254621 0
M  V30 4834 C 469.468 1.92789 1.33677 0
M  V30 4835 C 470.484 0.827356 1.53071 0
M  V30 4836 O 471.66 1.12807 1.66843 0
M  V30 4837 C 468.725 2.20827 2.67275 0
M  V30 4838 C 467.786 3.4427 2.5647 0
M  V30 4839 C 467.019 3.70961 3.83697 0
M  V30 4840 O 467.242 2.99852 4.85227 0
M  V30 4841 O 466.176 4.64491 3.82794 0
M  V30 4842 H 470.002 2.84945 1.05071 0
M  V30 4843 H 467.587 1.42312 0.454723 0
M  V30 4844 H 469.469 2.40204 3.46237 0
M  V30 4845 H 468.144 1.31851 2.9563 0
M  V30 4846 H 467.051 3.30209 1.75821 0
M  V30 4847 H 468.384 4.33524 2.33062 0
M  V30 4848 N 470.036 -0.519951 1.48776 0
M  V30 4849 C 471.452 -0.849418 1.35119 0
M  V30 4850 C 471.652 -1.98077 0.36982 0
M  V30 4851 O 470.708 -2.51664 -0.205359 0
M  V30 4852 C 472.021 -1.20748 2.75391 0
M  V30 4853 C 473.569 -1.31679 2.83954 0
M  V30 4854 C 474.044 -1.70824 4.24951 0
M  V30 4855 N 475.535 -1.77908 4.27672 0
M  V30 4856 C 476.27 -2.09603 5.33717 0
M  V30 4857 N 475.766 -2.39652 6.5003 0
M  V30 4858 N 477.559 -2.10694 5.21119 0
M  V30 4859 H 469.71 0.226377 2.1119 0
M  V30 4860 H 471.973 0.0386519 0.947212 0
M  V30 4861 H 471.679 -0.449703 3.48813 0
M  V30 4862 H 471.553 -2.15534 3.09556 0
M  V30 4863 H 473.94 -2.06532 2.10781 0
M  V30 4864 H 474.021 -0.3499 2.53396 0
M  V30 4865 H 473.665 -0.965282 4.98643 0
M  V30 4866 H 473.595 -2.6858 4.52959 0
M  V30 4867 H 476.086 -1.56923 3.43779 0
M  V30 4868 H 476.399 -2.6297 7.26682 0
M  V30 4869 H 474.744 -2.37149 6.53288 0
M  V30 4870 H 477.935 -1.86682 4.29264 0
M  V30 4871 H 478.108 -2.35062 6.03863 0
M  V30 4872 N 471.514 -1.37532 -0.769588 0
M  V30 4873 C 472.76 -1.34063 -1.52966 0
M  V30 4874 C 473.115 0.0737942 -1.92258 0
M  V30 4875 O 472.408 1.03291 -1.61374 0
M  V30 4876 C 472.602 -2.21558 -2.8044 0
M  V30 4877 C 472.431 -3.71367 -2.53608 0
M  V30 4878 C 471.201 -4.40464 -2.47628 0
M  V30 4879 C 473.399 -4.64177 -2.21459 0
M  V30 4880 N 471.381 -5.758 -2.12902 0
M  V30 4881 C 472.752 -5.87907 -1.9689 0
M  V30 4882 C 474.807 -4.52541 -2.07633 0
M  V30 4883 C 473.51 -7.01304 -1.59892 0
M  V30 4884 C 475.536 -5.65825 -1.72034 0
M  V30 4885 C 474.898 -6.88606 -1.48327 0
M  V30 4886 H 470.997 -0.545856 -0.559969 0
M  V30 4887 H 473.581 -1.72773 -0.897634 0
M  V30 4888 H 471.752 -1.85061 -3.41478 0
M  V30 4889 H 473.484 -2.09332 -3.46356 0
M  V30 4890 H 470.239 -3.93491 -2.63556 0
M  V30 4891 H 470.663 -6.47328 -1.9823 0
M  V30 4892 H 475.305 -3.58183 -2.24643 0
M  V30 4893 H 473.023 -7.95594 -1.4162 0
M  V30 4894 H 476.609 -5.58793 -1.61991 0
M  V30 4895 H 475.489 -7.74779 -1.21189 0
M  V30 4896 N 472.992 0.995999 -1.22138 0
M  V30 4897 C 473.924 2.08745 -0.946485 0
M  V30 4898 C 474.937 1.62633 0.0737356 0
M  V30 4899 O 476.126 1.77782 -0.159886 0
M  V30 4900 C 473.226 3.36516 -0.401305 0
M  V30 4901 C 472.399 4.11672 -1.47801 0
M  V30 4902 C 471.458 5.17728 -0.940461 0
M  V30 4903 O 470.484 5.45482 -1.62596 0
M  V30 4904 N 471.686 5.80005 0.239723 0
M  V30 4905 H 474.451 2.32908 -1.88611 0
M  V30 4906 H 472.012 1.16152 -1.12785 0
M  V30 4907 H 474.004 4.04691 -0.0270837 0
M  V30 4908 H 472.574 3.0944 0.443354 0
M  V30 4909 H 471.794 3.38171 -2.02568 0
M  V30 4910 H 473.082 4.58657 -2.20253 0
M  V30 4911 H 472.48 5.5982 0.813518 0
M  V30 4912 H 471.037 6.4943 0.555361 0
M  V30 4913 N 474.47 1.03057 1.19235 0
M  V30 4914 C 475.418 0.606391 2.24557 0
M  V30 4915 C 476.412 -0.361826 1.65491 0
M  V30 4916 O 477.618 -0.23022 1.78522 0
M  V30 4917 H 473.993 0.177838 0.730669 0
M  V30 4918 H 475.964 1.50529 2.5765 0
M  V30 4919 C 474.713 -0.0252127 3.47691 0
M  V30 4920 H 474.036 0.710838 3.9343 0
M  V30 4921 H 475.476 -0.284931 4.23042 0
M  V30 4922 C 473.935 -1.27229 3.11953 0
M  V30 4923 O 474.465 -2.36416 3.24762 0
M  V30 4924 N 472.671 -1.16169 2.6637 0
M  V30 4925 H 472.218 -0.273189 2.56147 0
M  V30 4926 H 472.176 -1.99703 2.42829 0
M  V30 4927 N 475.948 -1.35272 0.808662 0
M  V30 4928 C 477.196 -1.98316 0.389233 0
M  V30 4929 C 477.517 -1.64465 -1.04767 0
M  V30 4930 O 476.787 -0.928175 -1.72516 0
M  V30 4931 H 475.367 -0.733585 0.140935 0
M  V30 4932 H 478.029 -1.6515 1.03496 0
M  V30 4933 H 477.125 -3.08123 0.496631 0
M  V30 4934 N 477.426 -0.562348 -1.47226 0
M  V30 4935 C 478.358 0.220011 -2.28142 0
M  V30 4936 C 479.371 0.874596 -1.37312 0
M  V30 4937 O 480.56 0.747583 -1.62091 0
M  V30 4938 C 477.66 1.32953 -3.11732 0
M  V30 4939 C 476.833 0.770759 -4.30556 0
M  V30 4940 C 475.892 1.76541 -4.95701 0
M  V30 4941 O 474.918 1.3095 -5.53932 0
M  V30 4942 N 476.12 3.09896 -4.90861 0
M  V30 4943 H 478.885 -0.474107 -2.95926 0
M  V30 4944 H 476.446 -0.398761 -1.56912 0
M  V30 4945 H 478.438 1.99378 -3.5218 0
M  V30 4946 H 477.008 1.92681 -2.46156 0
M  V30 4947 H 476.228 -0.0704056 -3.94137 0
M  V30 4948 H 477.516 0.376872 -5.07402 0
M  V30 4949 H 476.914 3.49577 -4.44761 0
M  V30 4950 H 475.471 3.71865 -5.35313 0
M  V30 4951 N 478.904 1.54736 -0.299062 0
M  V30 4952 C 480.134 2.04215 0.312992 0
M  V30 4953 C 480.542 1.17596 1.48215 0
M  V30 4954 O 479.885 0.193835 1.82674 0
M  V30 4955 C 479.947 3.49696 0.833862 0
M  V30 4956 C 479.611 4.56518 -0.20977 0
M  V30 4957 C 480.608 5.09442 -1.03756 0
M  V30 4958 C 478.293 5.01073 -0.35091 0
M  V30 4959 C 480.287 6.05459 -1.99244 0
M  V30 4960 C 477.974 5.9691 -1.30924 0
M  V30 4961 C 478.972 6.48987 -2.1285 0
M  V30 4962 O 478.66 7.42947 -3.07059 0
M  V30 4963 H 478.392 0.672128 0.0722494 0
M  V30 4964 H 480.946 2.00718 -0.436043 0
M  V30 4965 H 479.176 3.5051 1.63339 0
M  V30 4966 H 480.865 3.82381 1.36159 0
M  V30 4967 H 481.631 4.75816 -0.939376 0
M  V30 4968 H 477.51 4.60168 0.276813 0
M  V30 4969 H 481.054 6.46031 -2.63229 0
M  V30 4970 H 476.951 6.29953 -1.40815 0
M  V30 4971 H 477.719 7.60743 -3.02015 0
M  V30 4972 N 480.382 0.0267497 1.57577 0
M  V30 4973 C 481.329 -0.955894 2.10075 0
M  V30 4974 C 482.299 -1.32453 1.00226 0
M  V30 4975 O 483.484 -1.41826 1.27632 0
M  V30 4976 C 480.624 -2.2338 2.6305 0
M  V30 4977 C 479.737 -1.92183 3.86898 0
M  V30 4978 C 478.872 -3.14251 4.28275 0
M  V30 4979 C 477.911 -2.78862 5.44888 0
M  V30 4980 N 477.048 -3.93548 5.81433 0
M  V30 4981 H 481.888 -0.501303 2.93753 0
M  V30 4982 H 479.425 -0.235847 1.45197 0
M  V30 4983 H 481.383 -2.98124 2.91853 0
M  V30 4984 H 480.013 -2.6646 1.82205 0
M  V30 4985 H 479.065 -1.07692 3.64838 0
M  V30 4986 H 480.377 -1.62117 4.7172 0
M  V30 4987 H 479.531 -3.97317 4.58502 0
M  V30 4988 H 478.27 -3.47476 3.42215 0
M  V30 4989 H 477.275 -1.94208 5.14357 0
M  V30 4990 H 478.5 -2.46855 6.32645 0
M  V30 4991 H 476.446 -4.2662 4.98328 0
M  V30 4992 H 476.363 -3.67098 6.6089 0
M  V30 4993 H 477.631 -4.77325 6.16264 0
M  V30 4994 N 481.861 -1.55662 -0.24637 0
M  V30 4995 C 483.272 -1.67953 -0.81539 0
M  V30 4996 C 483.623 -0.624302 -1.86002 0
M  V30 4997 O 482.748 0.229328 -2.15181 0
M  V30 4998 C 483.343 -3.04484 -1.48576 0
M  V30 4999 C 481.902 -3.18713 -2.00248 0
M  V30 5000 C 481.049 -2.6383 -0.853766 0
M  V30 5001 H 484 -1.58685 -0.0221692 0
M  V30 5002 H 484.021 -2.98959 -2.3538 0
M  V30 5003 H 483.533 -3.81264 -0.725222 0
M  V30 5004 H 481.634 -2.46757 -2.79181 0
M  V30 5005 H 481.747 -4.25628 -2.1995 0
M  V30 5006 H 480.111 -2.21667 -1.25442 0
M  V30 5007 H 480.894 -3.43135 -0.106302 0
M  V30 5008 N 483.339 0.512053 -1.4905 0
M  V30 5009 C 484.587 1.26436 -1.57665 0
M  V30 5010 C 484.908 1.93255 -0.260293 0
M  V30 5011 O 484.178 1.82206 0.719564 0
M  V30 5012 H 482.758 0.469658 -0.580888 0
M  V30 5013 H 485.42 0.594398 -1.85615 0
M  V30 5014 H 484.516 2.03417 -2.36702 0
M  V30 5015 N 484.817 1.37938 0.762283 0
M  V30 5016 C 486.066 1.32989 1.51647 0
M  V30 5017 C 486.379 -0.0802922 1.95435 0
M  V30 5018 O 487.585 -0.252295 2.70325 0
M  V30 5019 C 486.041 2.33485 2.73885 0
M  V30 5020 C 485.649 3.80079 2.37157 0
M  V30 5021 C 487.393 2.37563 3.51801 0
M  V30 5022 C 485.3 4.72283 3.55954 0
M  V30 5023 H 484.23 0.494301 0.56937 0
M  V30 5024 H 486.881 1.63448 0.834083 0
M  V30 5025 H 485.263 1.96056 3.44061 0
M  V30 5026 H 486.437 4.26398 1.74704 0
M  V30 5027 H 484.752 3.79037 1.72395 0
M  V30 5028 H 487.349 3.0365 4.40114 0
M  V30 5029 H 487.692 1.39199 3.92338 0
M  V30 5030 H 488.225 2.73747 2.8863 0
M  V30 5031 H 484.964 5.7181 3.2049 0
M  V30 5032 H 484.484 4.30663 4.1748 0
M  V30 5033 H 486.163 4.89876 4.22647 0
M  V30 5034 N 486.295 -0.989507 1.22664 0
M  V30 5035 C 487.258 -2.06183 1.00106 0
M  V30 5036 C 488.258 -1.60765 -0.0337726 0
M  V30 5037 O 489.448 -1.72989 0.205072 0
M  V30 5038 C 486.58 -3.37021 0.51279 0
M  V30 5039 H 487.773 -2.27629 1.95256 0
M  V30 5040 H 485.326 -1.16158 1.0458 0
M  V30 5041 H 486.061 -3.21261 -0.442917 0
M  V30 5042 H 485.846 -3.71323 1.25942 0
M  V30 5043 H 487.336 -4.1591 0.375315 0
M  V30 5044 N 487.773 -1.03688 -1.18687 0
M  V30 5045 C 488.723 -0.595067 -2.20098 0
M  V30 5046 C 489.707 0.360465 -1.5681 0
M  V30 5047 O 490.899 0.180136 -1.76081 0
M  V30 5048 C 488.028 0.0444495 -3.43271 0
M  V30 5049 C 487.114 -0.934002 -4.13687 0
M  V30 5050 N 487.505 -2.09957 -4.60165 0
M  V30 5051 C 485.803 -0.759177 -4.39491 0
M  V30 5052 C 486.504 -2.71735 -5.1433 0
M  V30 5053 N 485.48 -1.99638 -5.05614 0
M  V30 5054 H 489.282 -1.48336 -2.5372 0
M  V30 5055 H 486.796 -0.904949 -1.3485 0
M  V30 5056 H 488.793 0.37864 -4.15177 0
M  V30 5057 H 487.453 0.928325 -3.11147 0
M  V30 5058 H 488.464 -2.47863 -4.54735 0
M  V30 5059 H 485.141 0.0749292 -4.17433 0
M  V30 5060 H 486.531 -3.70492 -5.60523 0
M  V30 5061 N 489.251 1.34841 -0.815825 0
M  V30 5062 C 490.667 1.51543 -0.500697 0
M  V30 5063 C 490.867 1.76261 0.976444 0
M  V30 5064 O 489.923 1.8094 1.76117 0
M  V30 5065 C 491.236 2.68487 -1.35407 0
M  V30 5066 C 492.784 2.82368 -1.35046 0
M  V30 5067 C 493.259 4.02347 -2.18816 0
M  V30 5068 N 494.75 4.09542 -2.16402 0
M  V30 5069 C 495.485 5.01517 -2.77971 0
M  V30 5070 N 494.981 5.98763 -3.48503 0
M  V30 5071 N 496.774 4.94334 -2.67563 0
M  V30 5072 H 488.925 1.17055 -1.77234 0
M  V30 5073 H 491.188 0.573481 -0.754866 0
M  V30 5074 H 490.894 2.56829 -2.40274 0
M  V30 5075 H 490.768 3.63321 -1.01377 0
M  V30 5076 H 493.155 2.93471 -0.309604 0
M  V30 5077 H 493.236 1.88363 -1.73069 0
M  V30 5078 H 492.88 3.92004 -3.22948 0
M  V30 5079 H 492.81 4.95551 -1.78148 0
M  V30 5080 H 495.301 3.39932 -1.65091 0
M  V30 5081 H 495.614 6.6556 -3.92747 0
M  V30 5082 H 493.959 5.98909 -3.52609 0
M  V30 5083 H 497.15 4.1732 -2.12041 0
M  V30 5084 H 497.323 5.6582 -3.15834 0
M  V30 5085 N 490.729 0.570148 1.46925 0
M  V30 5086 C 492.006 -0.0153259 1.95594 0
M  V30 5087 C 492.386 -1.47232 1.51281 0
M  V30 5088 O 491.734 -2.15574 0.757624 0
M  V30 5089 C 491.944 0.143624 3.48704 0
M  V30 5090 C 493.292 0.00494484 4.246 0
M  V30 5091 O 494.316 0.0718214 3.56128 0
M  V30 5092 O 493.175 -0.141175 5.46318 0
M  V30 5093 H 490.269 -0.0568819 0.825041 0
M  V30 5094 H 492.815 0.637583 1.57267 0
M  V30 5095 H 491.587 1.15699 3.73804 0
M  V30 5096 H 491.21 -0.5463 3.93829 0
M  V30 5097 N 492.207 -1.54576 0.307264 0
M  V30 5098 C 493.137 -2.26708 -0.55907 0
M  V30 5099 C 494.118 -1.26893 -1.1328 0
M  V30 5100 O 495.303 -1.55677 -1.16097 0
M  V30 5101 C 492.433 -3.01259 -1.72801 0
M  V30 5102 C 491.387 -4.08275 -1.28435 0
M  V30 5103 C 490.713 -4.70575 -2.53895 0
M  V30 5104 C 492.013 -5.2068 -0.411038 0
M  V30 5105 H 493.707 -2.9937 0.042576 0
M  V30 5106 H 491.253 -1.43983 0.0219173 0
M  V30 5107 H 493.206 -3.50444 -2.34023 0
M  V30 5108 H 491.93 -2.26187 -2.356 0
M  V30 5109 H 490.589 -3.59949 -0.695161 0
M  V30 5110 H 490.237 -3.92136 -3.15021 0
M  V30 5111 H 489.937 -5.42854 -2.24908 0
M  V30 5112 H 491.461 -5.22527 -3.15908 0
M  V30 5113 H 492.875 -5.65721 -0.929097 0
M  V30 5114 H 491.272 -5.99716 -0.214664 0
M  V30 5115 H 492.342 -4.81629 0.562287 0
M  V30 5116 N 493.685 -0.035106 -1.57561 0
M  V30 5117 C 494.91 0.655802 -1.96759 0
M  V30 5118 C 495.335 1.64523 -0.911809 0
M  V30 5119 O 494.693 1.80857 0.126673 0
M  V30 5120 C 494.741 1.33326 -3.35047 0
M  V30 5121 O 493.845 2.44866 -3.31835 0
M  V30 5122 H 493.186 0.171807 -0.641388 0
M  V30 5123 H 495.716 -0.0987369 -2.04362 0
M  V30 5124 H 495.726 1.68867 -3.71413 0
M  V30 5125 H 494.401 0.608033 -4.11431 0
M  V30 5126 H 492.978 2.11392 -3.07193 0
M  V30 5127 N 495.163 1.55791 0.238111 0
M  V30 5128 C 496.388 1.8244 0.986432 0
M  V30 5129 C 496.813 0.613314 1.7782 0
M  V30 5130 O 496.171 -0.437767 1.75935 0
M  V30 5131 C 496.219 3.06917 1.893 0
M  V30 5132 O 495.323 2.84449 2.98601 0
M  V30 5133 H 494.664 0.601975 0.280218 0
M  V30 5134 H 497.194 2.02987 0.256437 0
M  V30 5135 H 497.204 3.36583 2.30598 0
M  V30 5136 H 495.879 3.947 1.31091 0
M  V30 5137 H 494.456 2.65972 2.61368 0
M  V30 5138 N 496.642 -0.504142 1.49319 0
M  V30 5139 C 497.574 -1.62265 1.61872 0
M  V30 5140 C 498.587 -1.54881 0.501573 0
M  V30 5141 O 499.776 -1.6087 0.773497 0
M  V30 5142 C 496.876 -3.01042 1.55651 0
M  V30 5143 C 496.049 -3.33642 2.82845 0
M  V30 5144 C 495.108 -4.51816 2.69719 0
M  V30 5145 O 494.134 -4.53755 3.4365 0
M  V30 5146 N 495.336 -5.51543 1.81055 0
M  V30 5147 H 498.101 -1.51924 2.58339 0
M  V30 5148 H 495.662 -0.691954 1.46368 0
M  V30 5149 H 497.654 -3.78013 1.44528 0
M  V30 5150 H 496.224 -3.05323 0.670546 0
M  V30 5151 H 495.444 -2.45598 3.08343 0
M  V30 5152 H 496.732 -3.5222 3.67177 0
M  V30 5153 H 496.13 -5.52774 1.20241 0
M  V30 5154 H 494.687 -6.27629 1.75856 0
M  V30 5155 N 498.12 -1.38341 -0.754957 0
M  V30 5156 C 499.068 -1.35573 -1.89005 0
M  V30 5157 C 500.062 -0.241824 -1.67665 0
M  V30 5158 O 501.268 -0.410785 -1.7525 0
M  V30 5159 H 497.643 -0.422898 -0.621821 0
M  V30 5160 H 499.614 -2.31359 -1.88455 0
M  V30 5161 C 498.363 -1.19631 -3.26471 0
M  V30 5162 H 497.686 -2.04605 -3.43477 0
M  V30 5163 H 499.126 -1.21748 -4.06144 0
M  V30 5164 C 497.585 0.0968705 -3.36761 0
M  V30 5165 O 498.115 1.07439 -3.87066 0
M  V30 5166 N 496.321 0.153242 -2.90196 0
M  V30 5167 H 495.868 -0.642908 -2.49448 0
M  V30 5168 H 495.826 1.01807 -2.9746 0
M  V30 5169 N 499.598 0.982988 -1.23187 0
M  V30 5170 C 500.844 1.72648 -1.06398 0
M  V30 5171 C 501.177 1.90066 0.398561 0
M  V30 5172 O 500.452 1.45105 1.29518 0
M  V30 5173 C 500.735 3.12627 -1.78707 0
M  V30 5174 C 500.588 3.02795 -3.32618 0
M  V30 5175 C 501.907 4.11997 -1.54747 0
M  V30 5176 H 499.026 0.626649 -0.387918 0
M  V30 5177 H 501.668 1.14455 -1.51658 0
M  V30 5178 H 499.818 3.62308 -1.40234 0
M  V30 5179 H 501.49 2.60659 -3.80598 0
M  V30 5180 H 499.733 2.39362 -3.61785 0
M  V30 5181 H 500.404 4.01893 -3.78399 0
M  V30 5182 H 502.88 3.71114 -1.88186 0
M  V30 5183 H 501.756 5.08037 -2.07821 0
M  V30 5184 H 502.017 4.39462 -0.482249 0
M  V30 5185 N 501.076 1.04316 1.18135 0
M  V30 5186 C 502.006 0.657299 2.24058 0
M  V30 5187 C 502.987 -0.340678 1.66654 0
M  V30 5188 O 504.172 -0.220223 1.92947 0
M  V30 5189 C 501.302 0.0220715 3.47293 0
M  V30 5190 C 500.256 0.943857 4.17463 0
M  V30 5191 C 499.582 0.172973 5.3442 0
M  V30 5192 C 500.882 2.26409 4.70677 0
M  V30 5193 H 502.576 1.5428 2.56589 0
M  V30 5194 H 500.122 0.743263 1.23335 0
M  V30 5195 H 502.075 -0.259607 4.206 0
M  V30 5196 H 500.799 -0.898323 3.14003 0
M  V30 5197 H 499.458 1.20996 3.46057 0
M  V30 5198 H 499.106 -0.749907 4.97379 0
M  V30 5199 H 498.806 0.787098 5.82304 0
M  V30 5200 H 500.33 -0.101628 6.10515 0
M  V30 5201 H 501.744 2.04294 5.35665 0
M  V30 5202 H 500.141 2.8314 5.29105 0
M  V30 5203 H 501.211 2.90883 3.87962 0
M  V30 5204 N 502.554 -1.34406 0.822964 0
M  V30 5205 C 503.803 -1.97542 0.407458 0
M  V30 5206 C 504.116 -1.65973 -1.035 0
M  V30 5207 O 505.322 -2.22598 -1.55442 0
M  V30 5208 C 503.778 -3.53463 0.677623 0
M  V30 5209 C 503.386 -3.93925 2.1337 0
M  V30 5210 C 505.13 -4.23229 0.328284 0
M  V30 5211 C 503.037 -5.42759 2.34876 0
M  V30 5212 H 501.967 -0.739207 0.148623 0
M  V30 5213 H 504.618 -1.53248 1.00932 0
M  V30 5214 H 503 -3.96 0.00558965 0
M  V30 5215 H 504.174 -3.62494 2.8449 0
M  V30 5216 H 502.489 -3.37097 2.44448 0
M  V30 5217 H 505.086 -5.32659 0.466794 0
M  V30 5218 H 505.429 -4.09899 -0.727224 0
M  V30 5219 H 505.962 -3.86169 0.954896 0
M  V30 5220 H 502.701 -5.61075 3.38932 0
M  V30 5221 H 502.221 -5.75704 1.68299 0
M  V30 5222 H 503.9 -6.0944 2.17236 0
M  V30 5223 N 504.032 -0.577932 -1.46621 0
M  V30 5224 C 505.448 -0.239242 -1.57797 0
M  V30 5225 C 505.648 1.25843 -1.57371 0
M  V30 5226 O 504.704 2.03988 -1.48813 0
M  V30 5227 C 506.017 -0.884227 -2.87405 0
M  V30 5228 C 507.565 -0.857373 -3.01028 0
M  V30 5229 C 508.04 -1.48181 -4.33366 0
M  V30 5230 N 509.531 -1.44593 -4.40053 0
M  V30 5231 C 510.266 -1.89852 -5.41058 0
M  V30 5232 N 509.762 -2.43062 -6.48762 0
M  V30 5233 N 511.555 -1.80797 -5.3223 0
M  V30 5234 H 503.706 -1.55073 -1.45142 0
M  V30 5235 H 505.969 -0.647903 -0.692044 0
M  V30 5236 H 505.675 -1.93759 -2.93514 0
M  V30 5237 H 505.549 -0.389585 -3.75183 0
M  V30 5238 H 507.936 0.187357 -2.94505 0
M  V30 5239 H 508.017 -1.38999 -2.14739 0
M  V30 5240 H 507.661 -2.52572 -4.40647 0
M  V30 5241 H 507.591 -0.924464 -5.18422 0
M  V30 5242 H 510.082 -1.05694 -3.62819 0
M  V30 5243 H 510.395 -2.75466 -7.22038 0
M  V30 5244 H 508.74 -2.47085 -6.49595 0
M  V30 5245 H 511.931 -1.38989 -4.46989 0
M  V30 5246 H 512.104 -2.16385 -6.10804 0
M  V30 5247 N 505.51 1.54411 -0.315457 0
M  V30 5248 C 506.42 2.27737 0.56329 0
M  V30 5249 C 507.436 1.31787 1.13614 0
M  V30 5250 O 508.612 1.64791 1.15784 0
M  V30 5251 C 505.677 3.01478 1.71207 0
M  V30 5252 C 504.738 4.12997 1.17185 0
M  V30 5253 C 503.971 4.83212 2.26588 0
M  V30 5254 O 504.194 4.52884 3.46775 0
M  V30 5255 O 503.128 5.70299 1.92463 0
M  V30 5256 H 506.954 3.03683 -0.0319614 0
M  V30 5257 H 504.539 1.49178 -0.0814188 0
M  V30 5258 H 506.421 3.47683 2.38106 0
M  V30 5259 H 505.096 2.28414 2.29366 0
M  V30 5260 H 504.003 3.71159 0.468174 0
M  V30 5261 H 505.336 4.8808 0.635501 0
M  V30 5262 N 506.988 0.0434614 1.5754 0
M  V30 5263 C 508.265 -0.671479 1.83713 0
M  V30 5264 C 508.645 -1.89495 0.930315 0
M  V30 5265 O 507.993 -2.28498 -0.0105639 0
M  V30 5266 C 508.203 -1.0361 3.33266 0
M  V30 5267 C 509.551 -1.42167 4.00092 0
M  V30 5268 O 510.575 -1.12866 3.37846 0
M  V30 5269 O 509.434 -1.96817 5.09829 0
M  V30 5270 H 506.528 -0.330726 0.75799 0
M  V30 5271 H 509.074 0.0722373 1.69546 0
M  V30 5272 H 507.846 -0.165938 3.90948 0
M  V30 5273 H 507.469 -1.83751 3.52592 0
M  V30 5274 N 508.466 -1.55915 -0.229846 0
M  V30 5275 C 509.714 -1.7819 -0.953565 0
M  V30 5276 C 510.035 -0.610504 -1.85197 0
M  V30 5277 O 509.305 0.372988 -1.92316 0
M  V30 5278 H 507.885 -0.657208 -0.355087 0
M  V30 5279 H 510.547 -1.9337 -0.243693 0
M  V30 5280 H 509.643 -2.70011 -1.56527 0
M  V30 5281 N 509.944 0.496216 -1.49584 0
M  V30 5282 C 511.169 1.27865 -1.63295 0
M  V30 5283 C 511.594 1.85592 -0.306156 0
M  V30 5284 O 510.952 1.66092 0.726851 0
M  V30 5285 C 511 2.38128 -2.7079 0
M  V30 5286 O 510.104 3.42108 -2.30296 0
M  V30 5287 H 509.445 0.377279 -0.546403 0
M  V30 5288 H 511.975 0.593497 -1.95803 0
M  V30 5289 H 511.985 2.8382 -2.93104 0
M  V30 5290 H 510.66 1.95479 -3.67098 0
M  V30 5291 H 509.237 3.02301 -2.18331 0
M  V30 5292 N 511.423 1.38739 0.74761 0
M  V30 5293 C 512.663 1.36695 1.51966 0
M  V30 5294 C 513.027 -0.0411889 1.91956 0
M  V30 5295 O 514.228 -0.186543 2.68152 0
M  V30 5296 C 512.499 2.30119 2.73459 0
M  V30 5297 S 514.058 2.4615 3.63257 0
M  V30 5298 H 510.876 0.484929 0.519966 0
M  V30 5299 H 513.478 1.7472 0.877104 0
M  V30 5300 H 512.182 3.31312 2.422 0
M  V30 5301 H 511.713 1.93265 3.42655 0
M  V30 5302 H 513.728 1.69001 4.66533 0
M  V30 5303 N 512.901 -0.976442 1.23707 0
M  V30 5304 C 513.864 -2.0511 1.02287 0
M  V30 5305 C 514.864 -1.60791 -0.0167195 0
M  V30 5306 O 516.054 -1.72761 0.223408 0
M  V30 5307 C 513.186 -3.36458 0.548507 0
M  V30 5308 H 514.379 -2.25545 1.9766 0
M  V30 5309 H 511.932 -1.15042 1.05806 0
M  V30 5310 H 512.667 -3.21713 -0.408818 0
M  V30 5311 H 512.452 -3.69967 1.29874 0
M  V30 5312 H 513.942 -4.15489 0.419406 0
M  V30 5313 N 514.379 -1.04941 -1.1758 0
M  V30 5314 C 515.628 -0.753124 -1.87112 0
M  V30 5315 C 515.941 0.722507 -1.81767 0
M  V30 5316 O 517.147 1.13265 -2.46746 0
M  V30 5317 C 515.603 -1.29695 -3.35719 0
M  V30 5318 C 515.211 -2.80184 -3.49572 0
M  V30 5319 C 516.955 -1.07759 -4.10595 0
M  V30 5320 C 514.862 -3.2788 -4.92187 0
M  V30 5321 H 513.792 -0.278034 -0.700866 0
M  V30 5322 H 516.443 -1.26637 -1.32798 0
M  V30 5323 H 514.825 -0.711522 -3.89555 0
M  V30 5324 H 515.999 -3.44561 -3.05965 0
M  V30 5325 H 514.314 -3.00632 -2.88113 0
M  V30 5326 H 516.911 -1.40899 -5.15802 0
M  V30 5327 H 517.254 -0.0152302 -4.16297 0
M  V30 5328 H 517.787 -1.62809 -3.62957 0
M  V30 5329 H 514.526 -4.33535 -4.91658 0
M  V30 5330 H 514.046 -2.68245 -5.36475 0
M  V30 5331 H 515.725 -3.22412 -5.60945 0
M  V30 5332 N 515.857 1.33968 -0.830081 0
M  V30 5333 C 517.105 1.97672 -0.420734 0
M  V30 5334 C 517.426 1.66111 1.02138 0
M  V30 5335 O 516.696 0.955503 1.71017 0
M  V30 5336 H 515.276 0.73125 -0.152587 0
M  V30 5337 H 517.938 1.63483 -1.0611 0
M  V30 5338 H 517.034 3.07294 -0.545588 0
M  V30 5339 N 517.335 0.585699 1.46312 0
M  V30 5340 C 518.612 0.00542031 1.95599 0
M  V30 5341 C 518.992 -1.45619 1.52834 0
M  V30 5342 O 518.34 -2.14759 0.780446 0
M  V30 5343 C 518.55 0.180601 3.48532 0
M  V30 5344 C 519.898 0.049979 4.24571 0
M  V30 5345 O 520.922 0.109589 3.56031 0
M  V30 5346 O 519.781 -0.0832226 5.46437 0
M  V30 5347 H 516.875 -0.0481281 0.825598 0
M  V30 5348 H 519.421 0.654227 1.56582 0
M  V30 5349 H 518.193 1.19657 3.72556 0
M  V30 5350 H 517.816 -0.504498 3.94386 0
M  V30 5351 N 518.813 -1.54241 0.323641 0
M  V30 5352 C 519.743 -2.27289 -0.534993 0
M  V30 5353 C 520.724 -1.28087 -1.11927 0
M  V30 5354 O 521.909 -1.56899 -1.14439 0
M  V30 5355 C 519.039 -3.03075 -1.69596 0
M  V30 5356 C 517.993 -4.09614 -1.24098 0
M  V30 5357 C 517.319 -4.73242 -2.4889 0
M  V30 5358 C 518.619 -5.21087 -0.355789 0
M  V30 5359 H 520.313 -2.99308 0.0743257 0
M  V30 5360 H 517.859 -1.43952 0.0371874 0
M  V30 5361 H 519.812 -3.52907 -2.30293 0
M  V30 5362 H 518.536 -2.28673 -2.33187 0
M  V30 5363 H 517.195 -3.60666 -0.656945 0
M  V30 5364 H 516.843 -3.95455 -3.10845 0
M  V30 5365 H 516.543 -5.45209 -2.19138 0
M  V30 5366 H 518.067 -5.25848 -3.10348 0
M  V30 5367 H 519.481 -5.66675 -0.869042 0
M  V30 5368 H 517.878 -5.9991 -0.151045 0
M  V30 5369 H 518.948 -4.81005 0.613339 0
M  V30 5370 N 520.291 -0.0518155 -1.57515 0
M  V30 5371 C 521.539 0.620595 -1.92336 0
M  V30 5372 C 521.86 1.71345 -0.930907 0
M  V30 5373 O 521.13 1.95885 0.0241341 0
M  V30 5374 H 519.71 0.232226 -0.709986 0
M  V30 5375 H 522.372 -0.104969 -1.94617 0
M  V30 5376 H 521.468 1.05879 -2.93592 0
M  V30 5377 N 521.769 1.56035 0.221574 0
M  V30 5378 C 522.699 1.95434 1.2778 0
M  V30 5379 C 523.68 0.822564 1.48889 0
M  V30 5380 O 524.865 1.08486 1.61072 0
M  V30 5381 C 521.995 2.27102 2.62759 0
M  V30 5382 C 520.949 3.4277 2.56306 0
M  V30 5383 C 520.275 3.60043 3.95314 0
M  V30 5384 C 521.575 4.77742 2.11093 0
M  V30 5385 H 523.269 2.83912 0.950504 0
M  V30 5386 H 520.815 1.36596 0.455791 0
M  V30 5387 H 522.768 2.53256 3.36807 0
M  V30 5388 H 521.492 1.35478 2.97176 0
M  V30 5389 H 520.151 3.16664 1.84715 0
M  V30 5390 H 519.799 2.65794 4.27039 0
M  V30 5391 H 519.499 4.37841 3.91879 0
M  V30 5392 H 521.023 3.88545 4.71025 0
M  V30 5393 H 522.437 5.03102 2.74885 0
M  V30 5394 H 520.834 5.58823 2.18716 0
M  V30 5395 H 521.904 4.731 1.06321 0
M  V30 5396 N 523.247 -0.488276 1.49845 0
M  V30 5397 C 524.21 -1.57069 1.66919 0
M  V30 5398 C 525.21 -1.51445 0.540479 0
M  V30 5399 O 526.4 -1.5437 0.807188 0
M  V30 5400 C 523.532 -2.96718 1.67844 0
M  V30 5401 H 524.725 -1.43254 2.63474 0
M  V30 5402 H 522.278 -0.713435 1.39068 0
M  V30 5403 H 523.013 -3.15996 0.7292 0
M  V30 5404 H 522.798 -3.02208 2.49826 0
M  V30 5405 H 524.288 -3.75335 1.83066 0
M  V30 5406 N 524.725 -1.39134 -0.740242 0
M  V30 5407 C 525.655 -1.40165 -1.86751 0
M  V30 5408 C 526.636 -0.265708 -1.68012 0
M  V30 5409 O 527.821 -0.47076 -1.88408 0
M  V30 5410 C 524.951 -1.2392 -3.2444 0
M  V30 5411 C 523.905 -2.34858 -3.57807 0
M  V30 5412 C 523.231 -2.03707 -4.94376 0
M  V30 5413 C 524.531 -3.77159 -3.61315 0
M  V30 5414 H 526.225 -2.345 -1.86145 0
M  V30 5415 H 523.771 -1.12875 -0.89416 0
M  V30 5416 H 525.724 -1.23263 -4.02969 0
M  V30 5417 H 524.448 -0.26051 -3.25559 0
M  V30 5418 H 523.107 -2.34723 -2.81604 0
M  V30 5419 H 522.755 -1.04289 -4.9207 0
M  V30 5420 H 522.455 -2.78016 -5.17669 0
M  V30 5421 H 523.979 -2.04691 -5.75268 0
M  V30 5422 H 525.393 -3.79252 -4.29931 0
M  V30 5423 H 523.79 -4.50784 -3.96124 0
M  V30 5424 H 524.86 -4.08513 -2.61238 0
M  V30 5425 N 526.204 0.969867 -1.24223 0
M  V30 5426 C 527.45 1.7151 -1.08223 0
M  V30 5427 C 527.783 1.90478 0.37838 0
M  V30 5428 O 527.058 1.4647 1.27971 0
M  V30 5429 C 527.341 3.10714 -1.82013 0
M  V30 5430 C 527.194 2.9925 -3.35811 0
M  V30 5431 C 528.513 4.10332 -1.59108 0
M  V30 5432 H 525.632 0.622499 -0.394543 0
M  V30 5433 H 528.274 1.1284 -1.52863 0
M  V30 5434 H 526.424 3.608 -1.44068 0
M  V30 5435 H 528.096 2.56608 -3.83341 0
M  V30 5436 H 526.339 2.35512 -3.64303 0
M  V30 5437 H 527.01 3.97857 -3.82641 0
M  V30 5438 H 529.486 3.69097 -1.92111 0
M  V30 5439 H 528.362 5.05804 -2.13198 0
M  V30 5440 H 528.623 4.38926 -0.528832 0
M  V30 5441 N 527.682 1.05563 1.17022 0
M  V30 5442 C 528.612 0.681026 2.23348 0
M  V30 5443 C 529.593 -0.322983 1.67005 0
M  V30 5444 O 530.778 -0.199746 1.9317 0
M  V30 5445 C 527.908 0.0589053 3.4725 0
M  V30 5446 C 526.862 0.988082 4.16438 0
M  V30 5447 C 526.188 0.229646 5.34207 0
M  V30 5448 C 527.488 2.31388 4.68249 0
M  V30 5449 H 529.182 1.56993 2.54938 0
M  V30 5450 H 526.728 0.756302 1.2254 0
M  V30 5451 H 528.681 -0.214982 4.20851 0
M  V30 5452 H 527.405 -0.864968 3.14938 0
M  V30 5453 H 526.064 1.24659 3.44754 0
M  V30 5454 H 525.712 -0.697111 4.98146 0
M  V30 5455 H 525.412 0.848815 5.81437 0
M  V30 5456 H 526.936 -0.0368694 6.10589 0
M  V30 5457 H 528.35 2.09964 5.33468 0
M  V30 5458 H 526.747 2.88736 5.26072 0
M  V30 5459 H 527.817 2.94982 3.84855 0
M  V30 5460 N 529.16 -1.33526 0.837174 0
M  V30 5461 C 530.571 -1.80182 0.489017 0
M  V30 5462 C 530.922 -1.69285 -0.991826 0
M  V30 5463 O 530.047 -1.24113 -1.77271 0
M  V30 5464 C 530.642 -3.27149 0.880866 0
M  V30 5465 C 529.201 -3.71828 0.584872 0
M  V30 5466 C 528.348 -2.54974 1.09011 0
M  V30 5467 H 531.299 -1.21071 1.02603 0
M  V30 5468 H 531.32 -3.80024 0.190239 0
M  V30 5469 H 530.832 -3.35048 1.95869 0
M  V30 5470 H 528.933 -3.69457 -0.48295 0
M  V30 5471 H 529.046 -4.65366 1.13892 0
M  V30 5472 H 527.41 -2.4952 0.511047 0
M  V30 5473 H 528.193 -2.65637 2.17467 0
M  V30 5474 N 530.638 -0.59345 -1.46 0
M  V30 5475 C 531.886 -0.082988 -2.0193 0
M  V30 5476 C 532.207 1.28569 -1.46612 0
M  V30 5477 O 531.477 1.84629 -0.654909 0
M  V30 5478 H 530.057 -0.0276882 -0.746487 0
M  V30 5479 H 532.719 -0.771657 -1.78973 0
M  V30 5480 H 531.815 -0.022079 -3.12092 0
M  V30 5481 N 532.116 1.54067 -0.331816 0
M  V30 5482 C 533.046 2.27569 0.522932 0
M  V30 5483 C 534.027 1.28679 1.11247 0
M  V30 5484 O 535.212 1.57504 1.13605 0
M  V30 5485 C 532.342 3.0397 1.67987 0
M  V30 5486 C 531.296 4.10267 1.21924 0
M  V30 5487 C 530.622 4.74555 2.46377 0
M  V30 5488 C 531.922 5.21268 0.32815 0
M  V30 5489 H 533.616 2.99264 -0.0901977 0
M  V30 5490 H 531.162 1.4393 -0.044821 0
M  V30 5491 H 533.115 3.54123 2.28418 0
M  V30 5492 H 531.839 2.29906 2.31971 0
M  V30 5493 H 530.498 3.61009 0.637809 0
M  V30 5494 H 530.146 3.97098 3.08743 0
M  V30 5495 H 529.846 5.46363 2.16243 0
M  V30 5496 H 531.37 5.27487 3.07555 0
M  V30 5497 H 532.784 5.67128 0.838978 0
M  V30 5498 H 531.181 5.99982 0.119228 0
M  V30 5499 H 532.251 4.80673 -0.638839 0
M  V30 5500 N 533.594 0.0601682 1.57485 0
M  V30 5501 C 534.822 -0.620937 1.97363 0
M  V30 5502 C 535.237 -1.63846 0.938082 0
M  V30 5503 O 534.594 -1.82339 -0.0766578 0
M  V30 5504 C 534.645 -1.29987 3.37321 0
M  V30 5505 O 534.366 -0.323081 4.36907 0
M  V30 5506 C 535.867 -2.06989 3.92008 0
M  V30 5507 H 533.087 -0.169135 0.649334 0
M  V30 5508 H 535.631 0.129132 2.04092 0
M  V30 5509 H 533.786 -2.0011 3.31715 0
M  V30 5510 H 534.2 -0.808754 5.18227 0
M  V30 5511 H 535.674 -2.49901 4.92192 0
M  V30 5512 H 536.151 -2.92173 3.2792 0
M  V30 5513 H 536.757 -1.41757 4.0098 0
M  V30 5514 N 535.072 -1.5615 -0.213296 0
M  V30 5515 C 536.004 -1.89586 -1.28802 0
M  V30 5516 C 537.017 -0.784844 -1.42633 0
M  V30 5517 O 538.206 -1.06319 -1.43383 0
M  V30 5518 C 535.306 -2.09665 -2.66259 0
M  V30 5519 C 534.479 -3.40726 -2.7427 0
M  V30 5520 C 533.538 -3.50137 -3.92798 0
M  V30 5521 O 532.564 -4.23105 -3.8075 0
M  V30 5522 N 533.766 -2.81886 -5.07465 0
M  V30 5523 H 536.531 -2.82368 -1.00442 0
M  V30 5524 H 534.092 -1.56796 -0.403302 0
M  V30 5525 H 536.084 -2.13268 -3.43946 0
M  V30 5526 H 534.654 -1.23469 -2.87183 0
M  V30 5527 H 533.874 -3.4915 -1.82997 0
M  V30 5528 H 535.162 -4.27048 -2.76599 0
M  V30 5529 H 534.56 -2.22397 -5.2015 0
M  V30 5530 H 533.117 -2.91139 -5.83165 0
M  V30 5531 N 536.55 0.480323 -1.50102 0
M  V30 5532 C 537.961 1.06142 -1.53593 0
M  V30 5533 C 538.312 1.93335 -0.334055 0
M  V30 5534 O 537.437 2.09188 0.55403 0
M  V30 5535 C 538.032 1.9317 -2.78336 0
M  V30 5536 C 536.591 2.46405 -2.84538 0
M  V30 5537 C 535.738 1.24521 -2.4777 0
M  V30 5538 H 538.689 0.26333 -1.565 0
M  V30 5539 H 538.71 2.78123 -2.59669 0
M  V30 5540 H 538.222 1.29683 -3.65792 0
M  V30 5541 H 536.323 3.13472 -2.01411 0
M  V30 5542 H 536.436 2.82143 -3.87211 0
M  V30 5543 H 534.8 1.57706 -2.00003 0
M  V30 5544 H 535.583 0.627102 -3.37524 0
M  V30 5545 N 538.028 1.39524 0.732853 0
M  V30 5546 C 539.439 1.32905 1.31122 0
M  V30 5547 C 539.79 -0.00558708 1.96199 0
M  V30 5548 O 538.915 -0.907706 1.96443 0
M  V30 5549 C 539.51 2.40704 2.38426 0
M  V30 5550 C 538.069 2.37599 2.91931 0
M  V30 5551 C 537.216 2.2248 1.65523 0
M  V30 5552 H 540.167 1.49581 0.530207 0
M  V30 5553 H 540.188 2.07616 3.18867 0
M  V30 5554 H 539.7 3.37829 1.91033 0
M  V30 5555 H 537.801 1.44119 3.43599 0
M  V30 5556 H 537.914 3.32538 3.44899 0
M  V30 5557 H 536.278 1.69691 1.8994 0
M  V30 5558 H 537.061 3.21577 1.20178 0
M  V30 5559 N 539.506 -0.963266 1.24736 0
M  V30 5560 C 540.469 -2.04013 1.04457 0
M  V30 5561 C 541.469 -1.608 0.000335555 0
M  V30 5562 O 542.659 -1.72515 0.241719 0
M  V30 5563 C 539.791 -3.35858 0.584162 0
M  V30 5564 H 540.984 -2.23436 2.00041 0
M  V30 5565 H 538.537 -1.13914 1.07021 0
M  V30 5566 H 539.272 -3.22128 -0.374673 0
M  V30 5567 H 539.057 -3.68568 1.3379 0
M  V30 5568 H 540.547 -4.1502 0.463451 0
M  V30 5569 N 540.985 -1.06182 -1.16461 0
M  V30 5570 C 542.231 -0.788825 -1.87481 0
M  V30 5571 C 542.586 0.677298 -1.80085 0
M  V30 5572 O 541.879 1.48976 -1.20486 0
M  V30 5573 C 542.073 -1.21633 -3.36066 0
M  V30 5574 C 541.902 -2.72247 -3.57927 0
M  V30 5575 C 540.672 -3.39696 -3.74079 0
M  V30 5576 C 542.87 -3.70461 -3.56739 0
M  V30 5577 N 540.852 -4.79072 -3.83879 0
M  V30 5578 C 542.223 -4.95616 -3.72511 0
M  V30 5579 C 544.278 -3.63788 -3.39945 0
M  V30 5580 C 542.981 -6.14895 -3.73225 0
M  V30 5581 C 545.007 -4.82517 -3.41953 0
M  V30 5582 C 544.369 -6.065 -3.58242 0
M  V30 5583 H 540.468 -0.341034 -0.703719 0
M  V30 5584 H 543.052 -1.35575 -1.39741 0
M  V30 5585 H 541.223 -0.67725 -3.8245 0
M  V30 5586 H 542.955 -0.892119 -3.94745 0
M  V30 5587 H 539.71 -2.90097 -3.74354 0
M  V30 5588 H 540.134 -5.51573 -3.92551 0
M  V30 5589 H 544.776 -2.68888 -3.26281 0
M  V30 5590 H 542.494 -7.10129 -3.85672 0
M  V30 5591 H 546.08 -4.79017 -3.30203 0
M  V30 5592 H 544.96 -6.96833 -3.59712 0
M  V30 5593 N 542.463 1.3308 -0.844243 0
M  V30 5594 C 543.691 2.01808 -0.456203 0
M  V30 5595 C 544.106 1.63498 0.944131 0
M  V30 5596 O 543.463 0.85102 1.61443 0
M  V30 5597 C 543.514 3.56922 -0.573513 0
M  V30 5598 O 543.235 3.93851 -1.91868 0
M  V30 5599 C 544.736 4.42922 -0.183125 0
M  V30 5600 H 541.956 0.646273 -0.180477 0
M  V30 5601 H 544.5 1.69891 -1.1383 0
M  V30 5602 H 542.655 3.87352 0.0607367 0
M  V30 5603 H 543.069 4.88564 -1.90802 0
M  V30 5604 H 544.543 5.51093 -0.316241 0
M  V30 5605 H 545.02 4.30386 0.875477 0
M  V30 5606 H 545.626 4.1786 -0.792027 0
M  V30 5607 N 543.941 0.601185 1.45683 0
M  V30 5608 C 545.352 0.179659 1.85834 0
M  V30 5609 C 545.703 -1.26189 1.50236 0
M  V30 5610 O 544.828 -1.95587 0.925987 0
M  V30 5611 C 545.423 0.319277 3.37292 0
M  V30 5612 C 543.982 -0.0475092 3.7637 0
M  V30 5613 C 543.129 0.646692 2.69654 0
M  V30 5614 H 546.08 0.808268 1.36575 0
M  V30 5615 H 546.101 -0.4503 3.77826 0
M  V30 5616 H 545.613 1.36855 3.6317 0
M  V30 5617 H 543.714 -1.0962 3.5611 0
M  V30 5618 H 543.827 0.34168 4.7788 0
M  V30 5619 H 542.191 0.0849971 2.54558 0
M  V30 5620 H 542.974 1.69797 2.98369 0
M  V30 5621 N 545.419 -1.53889 0.339982 0
M  V30 5622 C 546.647 -2.05271 -0.259114 0
M  V30 5623 C 547.062 -1.21517 -1.44496 0
M  V30 5624 O 546.419 -0.24966 -1.80784 0
M  V30 5625 C 546.47 -3.55092 -0.677634 0
M  V30 5626 O 546.191 -4.35667 0.461051 0
M  V30 5627 C 547.692 -4.22631 -1.33782 0
M  V30 5628 H 544.912 -0.669085 -0.0506566 0
M  V30 5629 H 547.456 -1.9852 0.490935 0
M  V30 5630 H 545.611 -3.62077 -1.37763 0
M  V30 5631 H 546.025 -5.24343 0.128144 0
M  V30 5632 H 547.499 -5.28861 -1.58145 0
M  V30 5633 H 547.976 -3.74758 -2.29027 0
M  V30 5634 H 548.582 -4.19829 -0.679957 0
M  V30 5635 N 546.897 -0.0685191 -1.57451 0
M  V30 5636 C 547.829 0.929372 -2.09512 0
M  V30 5637 C 548.842 1.26354 -1.02657 0
M  V30 5638 O 550.031 1.2213 -1.30179 0
M  V30 5639 C 547.131 2.24612 -2.53777 0
M  V30 5640 C 546.304 2.09128 -3.84167 0
M  V30 5641 C 545.363 3.24079 -4.14559 0
M  V30 5642 O 544.389 2.99215 -4.8421 0
M  V30 5643 N 545.591 4.49077 -3.67845 0
M  V30 5644 H 548.356 0.484901 -2.95751 0
M  V30 5645 H 545.917 0.11729 -1.61475 0
M  V30 5646 H 547.909 3.00412 -2.71172 0
M  V30 5647 H 546.479 2.60569 -1.72692 0
M  V30 5648 H 545.699 1.17815 -3.76182 0
M  V30 5649 H 546.987 1.9603 -4.69521 0
M  V30 5650 H 546.385 4.72165 -3.11571 0
M  V30 5651 H 544.942 5.21915 -3.90446 0
M  V30 5652 N 548.375 1.56261 0.205012 0
M  V30 5653 C 549.786 1.70056 0.770574 0
M  V30 5654 C 550.137 0.673398 1.84282 0
M  V30 5655 O 549.262 -0.172196 2.15714 0
M  V30 5656 C 549.857 3.08316 1.40451 0
M  V30 5657 C 548.416 3.2391 1.91727 0
M  V30 5658 C 547.563 2.66001 0.783516 0
M  V30 5659 H 550.514 1.58688 -0.019911 0
M  V30 5660 H 550.535 3.05094 2.27371 0
M  V30 5661 H 550.047 3.83053 0.623882 0
M  V30 5662 H 548.148 2.54072 2.7254 0
M  V30 5663 H 548.261 4.3131 2.08588 0
M  V30 5664 H 546.625 2.24915 1.19521 0
M  V30 5665 H 547.408 3.43297 0.0152883 0
M  V30 5666 N 549.853 -0.472356 1.50355 0
M  V30 5667 C 550.785 -1.58795 1.65278 0
M  V30 5668 C 551.798 -1.53782 0.534313 0
M  V30 5669 O 552.987 -1.59193 0.807446 0
M  V30 5670 C 550.087 -2.97672 1.62001 0
M  V30 5671 C 549.26 -3.27568 2.89859 0
M  V30 5672 C 548.319 -4.45993 2.79242 0
M  V30 5673 O 547.345 -4.46364 3.53197 0
M  V30 5674 N 548.547 -5.47578 1.92713 0
M  V30 5675 H 551.312 -1.46411 2.61503 0
M  V30 5676 H 548.873 -0.660751 1.47803 0
M  V30 5677 H 550.865 -3.74862 1.52513 0
M  V30 5678 H 549.435 -3.03832 0.735159 0
M  V30 5679 H 548.655 -2.39003 3.13483 0
M  V30 5680 H 549.943 -3.44352 3.74565 0
M  V30 5681 H 549.341 -5.50099 1.31939 0
M  V30 5682 H 547.898 -6.23757 1.8913 0
M  V30 5683 N 551.331 -1.39911 -0.725443 0
M  V30 5684 C 552.579 -1.37382 -1.48224 0
M  V30 5685 C 552.9 0.0264107 -1.94982 0
M  V30 5686 O 552.17 0.979408 -1.6966 0
M  V30 5687 H 550.75 -0.505596 -0.549892 0
M  V30 5688 H 553.412 -1.7487 -0.860608 0
M  V30 5689 H 552.508 -2.04254 -2.3598 0
M  V30 5690 N 552.809 0.956637 -1.25245 0
M  V30 5691 C 554.22 1.51569 -1.09012 0
M  V30 5692 C 554.571 1.93322 0.334813 0
M  V30 5693 O 553.696 1.78421 1.22454 0
M  V30 5694 C 554.291 2.75444 -1.97271 0
M  V30 5695 C 552.85 3.27669 -1.8523 0
M  V30 5696 C 551.997 2.00517 -1.91542 0
M  V30 5697 H 554.948 0.773746 -1.3856 0
M  V30 5698 H 554.969 3.4919 -1.51151 0
M  V30 5699 H 554.481 2.45024 -3.00973 0
M  V30 5700 H 552.582 3.62914 -0.844045 0
M  V30 5701 H 552.695 3.9582 -2.69932 0
M  V30 5702 H 551.059 2.15727 -1.35404 0
M  V30 5703 H 551.842 1.72448 -2.96844 0
M  V30 5704 N 554.287 1.06798 1.15896 0
M  V30 5705 C 555.25 0.687328 2.18651 0
M  V30 5706 C 556.25 -0.269559 1.58524 0
M  V30 5707 O 557.44 -0.0512627 1.74125 0
M  V30 5708 C 554.572 0.0121642 3.40898 0
M  V30 5709 H 555.765 1.59701 2.53842 0
M  V30 5710 H 553.318 0.863828 1.3026 0
M  V30 5711 H 554.053 -0.910025 3.1127 0
M  V30 5712 H 553.838 0.700309 3.85795 0
M  V30 5713 H 555.328 -0.239703 4.16911 0
M  V30 5714 N 555.766 -1.3263 0.851289 0
M  V30 5715 C 556.729 -2.27247 0.298541 0
M  V30 5716 C 557.729 -1.51467 -0.539847 0
M  V30 5717 O 558.919 -1.7061 -0.351843 0
M  V30 5718 C 556.051 -3.35964 -0.578004 0
M  V30 5719 H 557.244 -2.7765 1.13359 0
M  V30 5720 H 554.797 -1.43245 0.625354 0
M  V30 5721 H 555.532 -2.90823 -1.435 0
M  V30 5722 H 555.317 -3.92094 0.0220539 0
M  V30 5723 H 556.807 -4.06472 -0.957626 0
M  V30 5724 N 557.244 -0.608902 -1.45362 0
M  V30 5725 C 558.493 -0.10218 -2.01441 0
M  V30 5726 C 558.806 1.27546 -1.48295 0
M  V30 5727 O 560.012 1.87498 -1.96359 0
M  V30 5728 C 558.468 -0.131985 -3.59658 0
M  V30 5729 C 558.076 -1.50956 -4.21801 0
M  V30 5730 C 559.82 0.319427 -4.23296 0
M  V30 5731 C 557.727 -1.49568 -5.72174 0
M  V30 5732 H 556.657 -0.0344314 -0.753213 0
M  V30 5733 H 559.308 -0.764426 -1.6682 0
M  V30 5734 H 557.69 0.596939 -3.91475 0
M  V30 5735 H 558.864 -2.26029 -4.01556 0
M  V30 5736 H 557.179 -1.90318 -3.70362 0
M  V30 5737 H 559.776 0.349013 -5.3356 0
M  V30 5738 H 560.119 1.34237 -3.94064 0
M  V30 5739 H 560.652 -0.356273 -3.96201 0
M  V30 5740 H 557.391 -2.49626 -6.06108 0
M  V30 5741 H 556.911 -0.787542 -5.94607 0
M  V30 5742 H 558.59 -1.21989 -6.35396 0
M  V30 5743 N 558.722 1.53707 -0.348139 0
M  V30 5744 C 559.655 2.21481 0.549667 0
M  V30 5745 C 560.633 1.20046 1.09671 0
M  V30 5746 O 561.817 1.48883 1.15612 0
M  V30 5747 C 558.944 2.89585 1.75664 0
M  V30 5748 C 557.99 4.04948 1.33864 0
M  V30 5749 S 558.823 5.34325 0.354577 0
M  V30 5750 C 559.979 6.05934 1.56828 0
M  V30 5751 H 560.212 2.97289 -0.0259755 0
M  V30 5752 H 557.745 1.53833 -0.132216 0
M  V30 5753 H 559.703 3.29441 2.44906 0
M  V30 5754 H 558.364 2.13535 2.30351 0
M  V30 5755 H 557.557 4.51552 2.23868 0
M  V30 5756 H 557.159 3.66893 0.725651 0
M  V30 5757 H 559.451 6.29606 2.50205 0
M  V30 5758 H 560.394 6.98799 1.14395 0
M  V30 5759 H 560.802 5.36151 1.76642 0
M  V30 5760 N 560.2 0.0768682 1.57412 0
M  V30 5761 C 561.11 -0.903207 2.16516 0
M  V30 5762 C 562.126 -1.32341 1.12968 0
M  V30 5763 O 563.302 -1.39507 1.45258 0
M  V30 5764 C 560.367 -2.1508 2.71922 0
M  V30 5765 C 559.428 -1.78653 3.90361 0
M  V30 5766 C 558.661 -2.97465 4.43114 0
M  V30 5767 O 558.884 -4.11638 3.94854 0
M  V30 5768 O 557.818 -2.76987 5.3438 0
M  V30 5769 H 561.644 -0.430427 3.00634 0
M  V30 5770 H 559.229 -0.146485 1.4868 0
M  V30 5771 H 561.111 -2.8823 3.07411 0
M  V30 5772 H 559.786 -2.61446 1.9086 0
M  V30 5773 H 558.693 -1.0274 3.59716 0
M  V30 5774 H 560.026 -1.37066 4.7273 0
M  V30 5775 N 561.678 -1.56367 -0.196722 0
M  V30 5776 C 562.641 -1.93561 -1.22746 0
M  V30 5777 C 563.641 -0.816566 -1.38524 0
M  V30 5778 O 564.831 -1.084 -1.36363 0
M  V30 5779 C 561.963 -2.20823 -2.59712 0
M  V30 5780 H 563.156 -2.85774 -0.909586 0
M  V30 5781 H 560.709 -1.50032 -0.438174 0
M  V30 5782 H 561.444 -1.31243 -2.96557 0
M  V30 5783 H 561.229 -3.02368 -2.49632 0
M  V30 5784 H 562.719 -2.50608 -3.34044 0
M  V30 5785 N 563.156 0.464375 -1.50603 0
M  V30 5786 C 564.404 1.21356 -1.61608 0
M  V30 5787 C 564.725 1.92329 -0.321643 0
M  V30 5788 O 563.995 1.84403 0.661232 0
M  V30 5789 H 562.575 0.45094 -0.595535 0
M  V30 5790 H 565.237 0.535046 -1.87412 0
M  V30 5791 H 564.333 1.95783 -2.43054 0
M  V30 5792 N 564.634 1.40294 0.718013 0
M  V30 5793 C 565.862 1.4175 1.50714 0
M  V30 5794 C 566.277 0.0165366 1.88793 0
M  V30 5795 O 565.634 -0.958942 1.55276 0
M  V30 5796 C 565.685 2.30598 2.784 0
M  V30 5797 O 565.406 3.6524 2.41932 0
M  V30 5798 C 566.907 2.4062 3.72313 0
M  V30 5799 H 564.127 0.483565 0.465194 0
M  V30 5800 H 566.671 1.84316 0.885889 0
M  V30 5801 H 564.826 1.91401 3.36815 0
M  V30 5802 H 565.24 4.12402 3.24076 0
M  V30 5803 H 566.714 3.07001 4.58753 0
M  V30 5804 H 567.191 1.4305 4.15251 0
M  V30 5805 H 567.797 2.80359 3.19811 0
M  V30 5806 N 566.112 -0.949982 1.2575 0
M  V30 5807 C 567.044 -2.05088 1.02331 0
M  V30 5808 C 568.057 -1.62795 -0.0133247 0
M  V30 5809 O 569.246 -1.77067 0.225759 0
M  V30 5810 C 566.346 -3.34794 0.525924 0
M  V30 5811 C 565.519 -4.05903 1.62978 0
M  V30 5812 C 564.578 -5.1388 1.13196 0
M  V30 5813 O 563.604 -5.39072 1.82729 0
M  V30 5814 N 564.806 -5.80495 -0.0242926 0
M  V30 5815 H 567.571 -2.25747 1.97125 0
M  V30 5816 H 565.132 -1.11886 1.17018 0
M  V30 5817 H 567.124 -4.04312 0.177263 0
M  V30 5818 H 565.694 -3.10872 -0.328202 0
M  V30 5819 H 564.914 -3.3042 2.1498 0
M  V30 5820 H 566.202 -4.50166 2.37124 0
M  V30 5821 H 565.6 -5.62454 -0.605184 0
M  V30 5822 H 564.157 -6.51043 -0.313947 0
M  V30 5823 N 567.59 -1.07411 -1.15328 0
M  V30 5824 C 569.006 -0.799759 -1.38116 0
M  V30 5825 C 569.206 0.59572 -1.92493 0
M  V30 5826 O 568.262 1.35433 -2.13106 0
M  V30 5827 C 569.575 -1.87407 -2.35158 0
M  V30 5828 C 571.123 -1.89889 -2.48819 0
M  V30 5829 C 571.598 -2.96406 -3.49153 0
M  V30 5830 N 573.089 -2.95512 -3.56689 0
M  V30 5831 C 573.824 -3.74575 -4.34144 0
M  V30 5832 N 573.32 -4.63488 -5.14928 0
M  V30 5833 N 575.113 -3.62919 -4.29239 0
M  V30 5834 H 567.264 -1.97411 -0.78374 0
M  V30 5835 H 569.527 -0.856113 -0.407154 0
M  V30 5836 H 569.233 -2.8768 -2.0232 0
M  V30 5837 H 569.107 -1.73471 -3.34944 0
M  V30 5838 H 571.494 -0.902677 -2.80955 0
M  V30 5839 H 571.575 -2.07904 -1.49029 0
M  V30 5840 H 571.219 -3.96227 -3.17752 0
M  V30 5841 H 571.149 -2.75638 -4.48699 0
M  V30 5842 H 573.64 -2.31061 -2.99031 0
M  V30 5843 H 573.953 -5.20445 -5.71276 0
M  V30 5844 H 572.298 -4.67537 -5.14232 0
M  V30 5845 H 575.489 -2.92833 -3.65194 0
M  V30 5846 H 575.662 -4.24777 -4.89355 0
M  V30 5847 N 569.068 1.32177 -0.85831 0
M  V30 5848 C 570.298 2.01021 -0.476889 0
M  V30 5849 C 570.706 1.64653 0.931995 0
M  V30 5850 O 570.049 0.865713 1.62022 0
M  V30 5851 C 570.111 3.55413 -0.540528 0
M  V30 5852 C 569.775 4.1522 -1.90895 0
M  V30 5853 C 570.772 4.3318 -2.87491 0
M  V30 5854 C 568.457 4.51212 -2.20709 0
M  V30 5855 C 570.451 4.86306 -4.1205 0
M  V30 5856 C 568.138 5.04042 -3.45521 0
M  V30 5857 C 569.136 5.21538 -4.41007 0
M  V30 5858 O 568.824 5.73238 -5.63608 0
M  V30 5859 H 568.556 0.650059 -0.18547 0
M  V30 5860 H 571.11 1.69648 -1.15796 0
M  V30 5861 H 569.34 3.86196 0.19741 0
M  V30 5862 H 571.029 4.05526 -0.174191 0
M  V30 5863 H 571.795 4.05704 -2.65762 0
M  V30 5864 H 567.674 4.36878 -1.4717 0
M  V30 5865 H 571.218 4.99877 -4.86589 0
M  V30 5866 H 567.115 5.30952 -3.67098 0
M  V30 5867 H 567.883 5.91625 -5.65617 0
M  V30 5868 N 570.547 0.616602 1.45037 0
M  V30 5869 C 571.48 -0.145984 2.27733 0
M  V30 5870 C 572.458 -0.865108 1.37676 0
M  V30 5871 O 573.642 -0.872152 1.6711 0
M  V30 5872 C 570.769 -1.2122 3.16265 0
M  V30 5873 C 569.815 -0.595218 4.22326 0
M  V30 5874 S 570.648 0.603744 5.32086 0
M  V30 5875 C 571.804 -0.462842 6.24186 0
M  V30 5876 H 572.037 0.555591 2.92062 0
M  V30 5877 H 569.57 0.404364 1.49011 0
M  V30 5878 H 571.528 -1.82247 3.67827 0
M  V30 5879 H 570.189 -1.88589 2.51183 0
M  V30 5880 H 569.382 -1.39775 4.8423 0
M  V30 5881 H 568.984 -0.0598965 3.73952 0
M  V30 5882 H 571.276 -1.33945 6.64127 0
M  V30 5883 H 572.219 0.120259 7.07998 0
M  V30 5884 H 572.627 -0.782219 5.59054 0
M  V30 5885 N 572.025 -1.5352 0.356285 0
M  V30 5886 C 572.988 -2.24071 -0.482182 0
M  V30 5887 C 573.988 -1.24531 -1.01729 0
M  V30 5888 O 575.178 -1.48876 -0.904513 0
M  V30 5889 C 572.31 -2.97025 -1.67299 0
M  V30 5890 H 573.503 -2.99596 0.135031 0
M  V30 5891 H 571.056 -1.55928 0.107825 0
M  V30 5892 H 571.791 -2.25719 -2.32855 0
M  V30 5893 H 571.576 -3.7005 -1.29636 0
M  V30 5894 H 573.066 -3.50683 -2.26741 0
M  V30 5895 N 573.503 -0.0852151 -1.57369 0
M  V30 5896 C 574.914 0.445428 -1.81309 0
M  V30 5897 C 575.265 1.68795 -1.00013 0
M  V30 5898 O 574.39 2.15211 -0.226573 0
M  V30 5899 C 574.985 0.814887 -3.28854 0
M  V30 5900 C 573.544 1.29032 -3.53592 0
M  V30 5901 C 572.691 0.282089 -2.75861 0
M  V30 5902 H 575.642 -0.310771 -1.55627 0
M  V30 5903 H 575.663 1.67524 -3.41637 0
M  V30 5904 H 575.175 -0.0896309 -3.87996 0
M  V30 5905 H 573.276 2.21289 -2.9977 0
M  V30 5906 H 573.389 1.25898 -4.62262 0
M  V30 5907 H 571.753 0.762182 -2.43029 0
M  V30 5908 H 572.536 -0.614936 -3.37748 0
M  V30 5909 N 574.981 1.5647 0.188427 0
M  V30 5910 C 575.891 1.98285 1.2538 0
M  V30 5911 C 576.907 0.891535 1.49424 0
M  V30 5912 O 578.083 1.19782 1.61908 0
M  V30 5913 C 575.148 2.31965 2.57669 0
M  V30 5914 C 574.209 3.54838 2.41638 0
M  V30 5915 C 573.442 3.86901 3.67618 0
M  V30 5916 O 573.665 3.20163 4.72072 0
M  V30 5917 O 572.599 4.80309 3.62749 0
M  V30 5918 H 576.425 2.89145 0.928912 0
M  V30 5919 H 574.01 1.44112 0.393955 0
M  V30 5920 H 575.892 2.54673 3.35737 0
M  V30 5921 H 574.567 1.44271 2.89771 0
M  V30 5922 H 573.474 3.37369 1.61658 0
M  V30 5923 H 574.807 4.43019 2.14465 0
M  V30 5924 N 576.459 -0.456382 1.50847 0
M  V30 5925 C 577.389 -1.56025 1.73719 0
M  V30 5926 C 578.37 -1.5967 0.586473 0
M  V30 5927 O 579.555 -1.75702 0.827185 0
M  V30 5928 C 576.685 -2.94251 1.84483 0
M  V30 5929 C 575.639 -3.05471 2.99786 0
M  V30 5930 C 574.965 -4.45489 2.95709 0
M  V30 5931 C 576.265 -2.81318 4.40065 0
M  V30 5932 H 577.959 -1.37138 2.66146 0
M  V30 5933 H 575.505 -0.658299 1.28072 0
M  V30 5934 H 577.458 -3.71417 1.99067 0
M  V30 5935 H 576.182 -3.14328 0.886891 0
M  V30 5936 H 574.841 -2.30741 2.84876 0
M  V30 5937 H 574.489 -4.62505 1.97732 0
M  V30 5938 H 574.189 -4.53929 3.73125 0
M  V30 5939 H 575.713 -5.24655 3.12362 0
M  V30 5940 H 577.127 -3.48226 4.55425 0
M  V30 5941 H 575.524 -3.01188 5.19043 0
M  V30 5942 H 576.594 -1.7706 4.51418 0
M  V30 5943 N 577.937 -1.40673 -0.710563 0
M  V30 5944 C 578.867 -1.44095 -1.83736 0
M  V30 5945 C 579.848 -0.301286 -1.67411 0
M  V30 5946 O 581.033 -0.510618 -1.87367 0
M  V30 5947 C 578.163 -1.30773 -3.21738 0
M  V30 5948 C 577.117 -2.42395 -3.52745 0
M  V30 5949 C 576.443 -2.14147 -4.89944 0
M  V30 5950 C 577.743 -3.84738 -3.53234 0
M  V30 5951 H 579.437 -2.38396 -1.81129 0
M  V30 5952 H 576.983 -1.14746 -0.870017 0
M  V30 5953 H 578.936 -1.31783 -4.00264 0
M  V30 5954 H 577.66 -0.329507 -3.24934 0
M  V30 5955 H 576.319 -2.40643 -2.76562 0
M  V30 5956 H 575.967 -1.14703 -4.89747 0
M  V30 5957 H 575.667 -2.88934 -5.11655 0
M  V30 5958 H 577.191 -2.16848 -5.70797 0
M  V30 5959 H 578.605 -3.88286 -4.2179 0
M  V30 5960 H 577.002 -4.59085 -3.86473 0
M  V30 5961 H 578.072 -4.13962 -2.52514 0
M  V30 5962 N 579.415 0.9433 -1.26252 0
M  V30 5963 C 580.692 1.66639 -1.02424 0
M  V30 5964 C 581.072 2.06335 0.446006 0
M  V30 5965 O 580.42 1.78551 1.42589 0
M  V30 5966 C 580.63 2.88019 -1.97094 0
M  V30 5967 C 581.978 3.59718 -2.25584 0
M  V30 5968 O 583.002 2.9812 -1.94943 0
M  V30 5969 O 581.861 4.7066 -2.77743 0
M  V30 5970 H 578.955 0.729643 -0.389294 0
M  V30 5971 H 581.501 0.995218 -1.37454 0
M  V30 5972 H 580.273 2.5556 -2.96319 0
M  V30 5973 H 579.896 3.62863 -1.62532 0
M  V30 5974 N 580.893 1.08022 1.14757 0
M  V30 5975 C 581.84 0.706657 2.19716 0
M  V30 5976 C 582.81 -0.30525 1.63271 0
M  V30 5977 O 583.995 -0.19015 1.8985 0
M  V30 5978 C 581.135 0.117914 3.44898 0
M  V30 5979 C 580.248 1.18212 4.15512 0
M  V30 5980 C 579.383 0.557659 5.28265 0
M  V30 5981 C 578.422 1.60418 5.90705 0
M  V30 5982 N 577.559 1.0018 6.94916 0
M  V30 5983 H 582.399 1.60603 2.51019 0
M  V30 5984 H 579.936 0.802664 1.23271 0
M  V30 5985 H 581.894 -0.241112 4.16503 0
M  V30 5986 H 580.524 -0.744788 3.1409 0
M  V30 5987 H 579.576 1.65863 3.42335 0
M  V30 5988 H 580.888 1.97533 4.5802 0
M  V30 5989 H 580.042 0.146654 6.06523 0
M  V30 5990 H 578.781 -0.267249 4.86967 0
M  V30 5991 H 577.786 2.02489 5.11154 0
M  V30 5992 H 579.011 2.43149 6.34078 0
M  V30 5993 H 576.957 0.197917 6.55701 0
M  V30 5994 H 576.874 1.73216 7.35889 0
M  V30 5995 H 578.142 0.616523 7.77058 0
M  V30 5996 N 582.371 -1.3172 0.865308 0
M  V30 5997 C 583.599 -2.01057 0.488251 0
M  V30 5998 C 584.014 -1.64979 -0.918 0
M  V30 5999 O 583.371 -0.876597 -1.60069 0
M  V30 6000 C 583.422 -3.55964 0.630224 0
M  V30 6001 O 583.143 -3.90749 1.98109 0
M  V30 6002 C 584.644 -4.42574 0.253567 0
M  V30 6003 H 581.864 -0.64332 0.190736 0
M  V30 6004 H 584.408 -1.68058 1.16519 0
M  V30 6005 H 582.563 -3.874 0.000895422 0
M  V30 6006 H 582.977 -4.85467 1.9855 0
M  V30 6007 H 584.451 -5.50521 0.403875 0
M  V30 6008 H 584.928 -4.31724 -0.806895 0
M  V30 6009 H 585.534 -4.16547 0.858404 0
M  V30 6010 N 583.85 -0.624285 -1.44708 0
M  V30 6011 C 584.779 0.0717025 -2.3339 0
M  V30 6012 C 585.76 0.841814 -1.47809 0
M  V30 6013 O 586.946 0.809056 -1.76544 0
M  V30 6014 C 584.076 1.05852 -3.30776 0
M  V30 6015 C 583.029 0.400503 -4.26122 0
M  V30 6016 C 582.356 1.49674 -5.13324 0
M  V30 6017 C 583.656 -0.688924 -5.17737 0
M  V30 6018 H 585.35 -0.668819 -2.91834 0
M  V30 6019 H 582.896 -0.32308 -1.40329 0
M  V30 6020 H 584.849 1.5541 -3.91696 0
M  V30 6021 H 583.572 1.82984 -2.70526 0
M  V30 6022 H 582.231 -0.0743687 -3.66525 0
M  V30 6023 H 581.88 2.25877 -4.49431 0
M  V30 6024 H 581.58 1.06188 -5.77926 0
M  V30 6025 H 583.104 1.99427 -5.77115 0
M  V30 6026 H 584.518 -0.276724 -5.72632 0
M  V30 6027 H 582.915 -1.04652 -5.90904 0
M  V30 6028 H 583.985 -1.55884 -4.5916 0
M  V30 6029 N 585.328 1.53329 -0.364422 0
M  V30 6030 C 586.605 1.93557 0.281962 0
M  V30 6031 C 586.985 1.29786 1.6649 0
M  V30 6032 O 586.333 0.456512 2.23893 0
M  V30 6033 C 586.543 3.47405 0.333331 0
M  V30 6034 C 587.891 4.20699 0.574231 0
M  V30 6035 O 588.915 3.53779 0.414588 0
M  V30 6036 O 587.774 5.39287 0.885002 0
M  V30 6037 H 584.868 0.809573 0.168881 0
M  V30 6038 H 587.414 1.64494 -0.417121 0
M  V30 6039 H 586.186 3.86091 -0.636326 0
M  V30 6040 H 585.809 3.82697 1.07836 0
M  V30 6041 N 586.806 0.0935595 1.57322 0
M  V30 6042 C 587.736 -0.863062 2.16964 0
M  V30 6043 C 588.717 -1.29528 1.10256 0
M  V30 6044 O 589.902 -1.36245 1.38387 0
M  V30 6045 C 587.032 -2.12276 2.74875 0
M  V30 6046 C 585.986 -1.82921 3.86942 0
M  V30 6047 C 585.312 -3.15707 4.31548 0
M  V30 6048 C 586.612 -1.11737 5.10208 0
M  V30 6049 H 588.306 -0.366145 2.97153 0
M  V30 6050 H 585.852 -0.174673 1.42937 0
M  V30 6051 H 587.805 -2.79634 3.1525 0
M  V30 6052 H 586.529 -2.64248 1.91938 0
M  V30 6053 H 585.188 -1.17961 3.47103 0
M  V30 6054 H 584.836 -3.65563 3.45504 0
M  V30 6055 H 584.536 -2.96849 5.07104 0
M  V30 6056 H 586.06 -3.84226 4.74555 0
M  V30 6057 H 587.474 -1.69203 5.47762 0
M  V30 6058 H 585.871 -1.03064 5.91183 0
M  V30 6059 H 586.941 -0.0998818 4.84797 0
M  V30 6060 N 588.284 -1.56567 -0.180126 0
M  V30 6061 C 589.216 -1.92275 -1.24751 0
M  V30 6062 C 590.229 -0.814922 -1.40936 0
M  V30 6063 O 591.418 -1.09336 -1.41095 0
M  V30 6064 C 588.518 -2.15265 -2.61752 0
M  V30 6065 C 587.691 -3.46467 -2.66981 0
M  V30 6066 C 586.75 -3.58391 -3.85283 0
M  V30 6067 O 585.776 -4.31086 -3.7169 0
M  V30 6068 N 586.978 -2.92587 -5.01371 0
M  V30 6069 H 589.743 -2.84435 -0.944302 0
M  V30 6070 H 587.304 -1.57617 -0.369952 0
M  V30 6071 H 589.296 -2.20515 -3.39345 0
M  V30 6072 H 587.866 -1.29533 -2.845 0
M  V30 6073 H 587.086 -3.52953 -1.75549 0
M  V30 6074 H 588.374 -4.32819 -2.67479 0
M  V30 6075 H 587.772 -2.3338 -5.15316 0
M  V30 6076 H 586.329 -3.03444 -5.76858 0
M  V30 6077 N 589.762 0.448376 -1.51087 0
M  V30 6078 C 591.039 1.20926 -1.53741 0
M  V30 6079 C 591.419 2.09025 -0.295222 0
M  V30 6080 O 590.767 2.16851 0.720283 0
M  V30 6081 C 590.977 2.02067 -2.84552 0
M  V30 6082 C 592.325 2.59486 -3.36084 0
M  V30 6083 O 593.349 2.12289 -2.86028 0
M  V30 6084 O 592.208 3.45539 -4.23397 0
M  V30 6085 H 589.302 0.549951 -0.617643 0
M  V30 6086 H 591.848 0.458344 -1.63393 0
M  V30 6087 H 590.62 1.37291 -3.66425 0
M  V30 6088 H 590.243 2.84246 -2.78011 0
M  V30 6089 N 591.24 1.41047 0.703093 0
M  V30 6090 C 592.486 1.41209 1.46396 0
M  V30 6091 C 592.841 0.0180188 1.92392 0
M  V30 6092 O 592.134 -0.954739 1.66118 0
M  V30 6093 C 592.328 2.34686 2.6955 0
M  V30 6094 C 592.157 3.83044 2.35601 0
M  V30 6095 C 590.927 4.51777 2.26331 0
M  V30 6096 C 593.125 4.74215 1.9906 0
M  V30 6097 N 591.107 5.85302 1.85188 0
M  V30 6098 C 592.478 5.96631 1.68616 0
M  V30 6099 C 594.533 4.61932 1.85805 0
M  V30 6100 C 593.236 7.08134 1.26249 0
M  V30 6101 C 595.262 5.73389 1.44842 0
M  V30 6102 C 594.624 6.94899 1.15304 0
M  V30 6103 H 590.723 0.571951 0.533288 0
M  V30 6104 H 593.307 1.76859 0.814179 0
M  V30 6105 H 591.478 2.01143 3.32259 0
M  V30 6106 H 593.21 2.25618 3.35974 0
M  V30 6107 H 589.965 4.05618 2.44482 0
M  V30 6108 H 590.389 6.56049 1.67119 0
M  V30 6109 H 595.031 3.68494 2.07298 0
M  V30 6110 H 592.749 8.01445 1.035 0
M  V30 6111 H 596.335 5.65886 1.35146 0
M  V30 6112 H 595.215 7.79679 0.840854 0
M  V30 6113 N 592.718 -0.936591 1.26751 0
M  V30 6114 C 593.966 -1.67998 1.12343 0
M  V30 6115 C 594.287 -1.92137 -0.332938 0
M  V30 6116 O 593.557 -1.52132 -1.23421 0
M  V30 6117 H 592.137 -0.622609 0.412756 0
M  V30 6118 H 594.799 -1.12509 1.59147 0
M  V30 6119 H 593.895 -2.65185 1.64571 0
M  V30 6120 N 594.196 -1.08629 -1.14182 0
M  V30 6121 C 595.129 -0.662329 -2.18377 0
M  V30 6122 C 596.107 0.327054 -1.59277 0
M  V30 6123 O 597.291 0.230376 -1.87087 0
M  V30 6124 C 594.418 0.0254765 -3.3869 0
M  V30 6125 C 593.464 -0.924414 -4.16361 0
M  V30 6126 S 594.297 -2.43226 -4.77076 0
M  V30 6127 C 595.453 -1.75663 -6.00744 0
M  V30 6128 H 595.686 -1.54501 -2.54001 0
M  V30 6129 H 593.219 -0.901484 -1.2535 0
M  V30 6130 H 595.177 0.416032 -4.08386 0
M  V30 6131 H 593.838 0.884689 -3.01384 0
M  V30 6132 H 593.031 -0.390099 -5.02488 0
M  V30 6133 H 592.633 -1.25598 -3.5228 0
M  V30 6134 H 594.925 -1.07589 -6.68903 0
M  V30 6135 H 595.868 -2.59673 -6.58768 0
M  V30 6136 H 596.276 -1.22903 -5.50958 0
M  V30 6137 N 595.674 1.31259 -0.872281 0
M  V30 6138 C 596.637 2.26744 -0.334656 0
M  V30 6139 C 597.637 1.52307 0.515681 0
M  V30 6140 O 598.827 1.71148 0.324656 0
M  V30 6141 C 595.959 3.36841 0.524482 0
M  V30 6142 H 597.152 2.75812 -1.17762 0
M  V30 6143 H 594.705 1.42232 -0.648064 0
M  V30 6144 H 595.44 2.93069 1.38855 0
M  V30 6145 H 595.225 3.92009 -0.0844299 0
M  V30 6146 H 596.715 4.07944 0.892838 0
M  V30 6147 N 597.152 0.631951 1.44375 0
M  V30 6148 C 598.082 -0.0593243 2.33425 0
M  V30 6149 C 599.063 -0.833964 1.48253 0
M  V30 6150 O 600.248 -0.799682 1.76971 0
M  V30 6151 C 597.378 -1.04096 3.31333 0
M  V30 6152 C 596.332 -0.377899 4.26328 0
M  V30 6153 C 595.658 -1.4695 5.14111 0
M  V30 6154 C 596.958 0.716371 5.17364 0
M  V30 6155 H 598.652 0.684287 2.91475 0
M  V30 6156 H 596.198 0.330518 1.40156 0
M  V30 6157 H 598.151 -1.53331 3.92514 0
M  V30 6158 H 596.875 -1.81547 2.71493 0
M  V30 6159 H 595.534 0.0938054 3.6648 0
M  V30 6160 H 595.182 -2.2349 4.50623 0
M  V30 6161 H 594.882 -1.03121 5.78481 0
M  V30 6162 H 596.406 -1.96363 5.78164 0
M  V30 6163 H 597.82 0.307089 5.72477 0
M  V30 6164 H 596.217 1.07784 5.90341 0
M  V30 6165 H 597.287 1.58316 4.58327 0
M  V30 6166 N 598.631 -1.53133 0.372548 0
M  V30 6167 C 600.047 -1.59585 0.02178 0
M  V30 6168 C 600.247 -1.38736 -1.46132 0
M  V30 6169 O 599.303 -1.19599 -2.22379 0
M  V30 6170 C 600.616 -2.9678 0.483959 0
M  V30 6171 C 602.164 -3.09909 0.438775 0
M  V30 6172 C 602.639 -4.49527 0.876876 0
M  V30 6173 N 604.13 -4.55663 0.832214 0
M  V30 6174 C 604.865 -5.61896 1.14281 0
M  V30 6175 N 604.361 -6.75852 1.52303 0
M  V30 6176 N 606.154 -5.51916 1.06515 0
M  V30 6177 H 598.305 -1.64936 1.33827 0
M  V30 6178 H 600.568 -0.773947 0.547458 0
M  V30 6179 H 600.274 -3.17198 1.51915 0
M  V30 6180 H 600.148 -3.7699 -0.125784 0
M  V30 6181 H 602.535 -2.89197 -0.587294 0
M  V30 6182 H 602.616 -2.31691 1.0841 0
M  V30 6183 H 602.26 -4.70979 1.90109 0
M  V30 6184 H 602.19 -5.26186 0.208727 0
M  V30 6185 H 604.681 -3.73844 0.552195 0
M  V30 6186 H 604.994 -7.52862 1.7441 0
M  V30 6187 H 603.339 -6.77226 1.56175 0
M  V30 6188 H 606.53 -4.6177 0.767235 0
M  V30 6189 H 606.703 -6.34609 1.31053 0
M  V30 6190 N 600.109 -0.101901 -1.5727 0
M  V30 6191 C 601.525 0.254739 -1.57554 0
M  V30 6192 C 601.725 1.67937 -1.11352 0
M  V30 6193 O 600.781 2.39722 -0.793081 0
M  V30 6194 C 602.094 0.036975 -3.00677 0
M  V30 6195 C 603.642 0.104199 -3.12827 0
M  V30 6196 C 604.117 -0.0856565 -4.5792 0
M  V30 6197 N 605.608 -0.0310498 -4.6319 0
M  V30 6198 C 606.343 -0.153099 -5.73196 0
M  V30 6199 N 605.839 -0.330364 -6.92012 0
M  V30 6200 N 607.632 -0.0938854 -5.62022 0
M  V30 6201 H 599.783 -1.03263 -1.85609 0
M  V30 6202 H 602.046 -0.405251 -0.857016 0
M  V30 6203 H 601.752 -0.947254 -3.38703 0
M  V30 6204 H 601.626 0.776335 -3.69124 0
M  V30 6205 H 604.013 1.07894 -2.74669 0
M  V30 6206 H 604.094 -0.666762 -2.46957 0
M  V30 6207 H 603.738 -1.05729 -4.96773 0
M  V30 6208 H 603.668 0.705082 -5.21858 0
M  V30 6209 H 606.159 0.103141 -3.77759 0
M  V30 6210 H 606.472 -0.41482 -7.71686 0
M  V30 6211 H 604.817 -0.366119 -6.94035 0
M  V30 6212 H 608.008 0.0435168 -4.6808 0
M  V30 6213 H 608.181 -0.19245 -6.47714 0
M  V30 6214 N 601.587 1.56661 0.17182 0
M  V30 6215 C 602.55 1.9549 1.19651 0
M  V30 6216 C 603.55 0.838501 1.37207 0
M  V30 6217 O 604.74 1.10556 1.34622 0
M  V30 6218 C 601.872 2.24927 2.56166 0
M  V30 6219 H 603.065 2.87184 0.864007 0
M  V30 6220 H 600.618 1.50711 0.41425 0
M  V30 6221 H 601.353 1.35944 2.94431 0
M  V30 6222 H 601.138 3.06301 2.4479 0
M  V30 6223 H 602.628 2.55891 3.30014 0
M  V30 6224 N 603.065 -0.440357 1.51323 0
M  V30 6225 C 604.342 -1.20109 1.5438 0
M  V30 6226 C 604.722 -2.08866 0.306303 0
M  V30 6227 O 604.07 -2.1723 -0.708773 0
M  V30 6228 C 604.28 -2.00555 2.8562 0
M  V30 6229 C 605.628 -2.577 3.37455 0
M  V30 6230 O 606.652 -2.10769 2.8715 0
M  V30 6231 O 605.511 -3.43289 4.25224 0
M  V30 6232 H 602.605 -0.546668 0.620551 0
M  V30 6233 H 605.151 -0.449672 1.63634 0
M  V30 6234 H 603.923 -1.35346 3.67147 0
M  V30 6235 H 603.546 -2.82768 2.79514 0
M  V30 6236 N 604.543 -1.41418 -0.695603 0
M  V30 6237 C 605.792 -1.40073 -1.4513 0
M  V30 6238 C 606.105 -0.0130439 -1.95596 0
M  V30 6239 O 607.311 0.123032 -2.71221 0
M  V30 6240 C 605.767 -2.46286 -2.62433 0
M  V30 6241 C 605.375 -3.90962 -2.18753 0
M  V30 6242 C 607.119 -2.54077 -3.40066 0
M  V30 6243 C 605.026 -4.88728 -3.33015 0
M  V30 6244 H 603.956 -0.520903 -0.545138 0
M  V30 6245 H 606.607 -1.67242 -0.75515 0
M  V30 6246 H 604.989 -2.12248 -3.34315 0
M  V30 6247 H 606.163 -4.34248 -1.54161 0
M  V30 6248 H 604.478 -3.86831 -1.54114 0
M  V30 6249 H 607.075 -3.24303 -4.25125 0
M  V30 6250 H 607.418 -1.5776 -3.8525 0
M  V30 6251 H 607.951 -2.87206 -2.75241 0
M  V30 6252 H 604.69 -5.86449 -2.92844 0
M  V30 6253 H 604.21 -4.50091 -3.96457 0
M  V30 6254 H 605.889 -5.09483 -3.98793 0
M  V30 6255 N 606.021 0.929856 -1.27246 0
M  V30 6256 C 607.251 1.70895 -1.16096 0
M  V30 6257 C 607.659 1.87039 0.285122 0
M  V30 6258 O 607.002 1.38557 1.20614 0
M  V30 6259 C 607.064 3.12919 -1.7698 0
M  V30 6260 C 606.728 3.2012 -3.26148 0
M  V30 6261 C 607.725 3.02533 -4.22812 0
M  V30 6262 C 605.41 3.43148 -3.66817 0
M  V30 6263 C 607.404 3.07861 -5.58122 0
M  V30 6264 C 605.091 3.48109 -5.02258 0
M  V30 6265 C 606.089 3.30483 -5.97721 0
M  V30 6266 O 605.777 3.35175 -7.30694 0
M  V30 6267 H 605.509 0.54152 -0.404639 0
M  V30 6268 H 608.063 1.17342 -1.68582 0
M  V30 6269 H 606.293 3.67945 -1.18969 0
M  V30 6270 H 607.982 3.72787 -1.60576 0
M  V30 6271 H 608.748 2.84586 -3.92728 0
M  V30 6272 H 604.627 3.55918 -2.9299 0
M  V30 6273 H 608.171 2.94021 -6.32612 0
M  V30 6274 H 604.068 3.65579 -5.31998 0
M  V30 6275 H 604.836 3.51644 -7.39114 0
M  V30 6276 N 607.499 1.09233 1.13605 0
M  V30 6277 C 608.724 0.849067 1.89224 0
M  V30 6278 C 609.149 -0.593875 1.78479 0
M  V30 6279 O 608.507 -1.41703 1.13092 0
M  V30 6280 C 608.555 1.28642 3.36873 0
M  V30 6281 O 607.659 0.44363 4.10007 0
M  V30 6282 H 607 0.30767 0.588417 0
M  V30 6283 H 609.53 1.45595 1.43748 0
M  V30 6284 H 609.54 1.27096 3.87699 0
M  V30 6285 H 608.215 2.33729 3.44011 0
M  V30 6286 H 606.792 0.523241 3.69211 0
M  V30 6287 N 608.977 -1.30795 0.87923 0
M  V30 6288 C 609.907 -2.30742 0.357796 0
M  V30 6289 C 610.888 -1.60747 -0.556283 0
M  V30 6290 O 612.073 -1.88393 -0.47135 0
M  V30 6291 C 609.203 -3.44583 -0.433555 0
M  V30 6292 C 608.157 -4.26235 0.388251 0
M  V30 6293 C 607.483 -5.32073 -0.529352 0
M  V30 6294 C 608.783 -4.96303 1.62729 0
M  V30 6295 H 610.477 -2.74605 1.19299 0
M  V30 6296 H 608.023 -1.32017 0.575104 0
M  V30 6297 H 609.976 -4.13563 -0.808934 0
M  V30 6298 H 608.7 -2.99511 -1.30234 0
M  V30 6299 H 607.359 -3.58936 0.745695 0
M  V30 6300 H 607.007 -4.83249 -1.39569 0
M  V30 6301 H 606.707 -5.87598 0.0166741 0
M  V30 6302 H 608.231 -6.0391 -0.901373 0
M  V30 6303 H 609.645 -5.5783 1.32283 0
M  V30 6304 H 608.042 -5.61666 2.11309 0
M  V30 6305 H 609.112 -4.22758 2.37494 0
M  V30 6306 N 610.455 -0.639598 -1.44038 0
M  V30 6307 C 611.418 0.0506628 -2.29144 0
M  V30 6308 C 612.418 0.764001 -1.41491 0
M  V30 6309 O 613.608 0.607309 -1.63271 0
M  V30 6310 C 610.74 1.0824 -3.2326 0
M  V30 6311 H 611.933 -0.697987 -2.91664 0
M  V30 6312 H 609.486 -0.400146 -1.51091 0
M  V30 6313 H 610.221 1.86075 -2.65606 0
M  V30 6314 H 610.006 0.574725 -3.87865 0
M  V30 6315 H 611.496 1.56487 -3.87171 0
M  V30 6316 N 611.933 1.52934 -0.380664 0
M  V30 6317 C 612.863 2.29118 0.450268 0
M  V30 6318 C 613.844 1.32153 1.07096 0
M  V30 6319 O 615.029 1.61038 1.08537 0
M  V30 6320 C 612.159 3.09161 1.58231 0
M  V30 6321 C 611.113 4.13938 1.0881 0
M  V30 6322 C 610.439 4.82153 2.31155 0
M  V30 6323 C 611.739 5.22048 0.162146 0
M  V30 6324 H 613.433 2.98826 -0.185361 0
M  V30 6325 H 610.979 1.43715 -0.0905886 0
M  V30 6326 H 612.932 3.61211 2.17036 0
M  V30 6327 H 611.656 2.3717 2.2454 0
M  V30 6328 H 610.315 3.62855 0.522633 0
M  V30 6329 H 609.963 4.06719 2.95953 0
M  V30 6330 H 609.663 5.52966 1.98752 0
M  V30 6331 H 611.187 5.37004 2.90618 0
M  V30 6332 H 612.601 5.6951 0.658126 0
M  V30 6333 H 610.998 6.00057 -0.0717122 0
M  V30 6334 H 612.068 4.78398 -0.791438 0
M  V30 6335 N 613.412 0.11024 1.57214 0
M  V30 6336 C 614.342 -0.840002 2.17867 0
M  V30 6337 C 615.323 -1.28352 1.11624 0
M  V30 6338 O 616.508 -1.3477 1.39824 0
M  V30 6339 C 613.638 -2.09349 2.77111 0
M  V30 6340 C 612.592 -1.78807 3.8886 0
M  V30 6341 C 611.918 -3.11112 4.34872 0
M  V30 6342 C 613.218 -1.0632 5.11364 0
M  V30 6343 H 614.912 -0.334608 2.97524 0
M  V30 6344 H 612.458 -0.159502 1.43114 0
M  V30 6345 H 614.411 -2.76275 3.18198 0
M  V30 6346 H 613.135 -2.62198 1.9473 0
M  V30 6347 H 611.794 -1.14273 3.48335 0
M  V30 6348 H 611.442 -3.61877 3.49362 0
M  V30 6349 H 611.142 -2.91453 5.10224 0
M  V30 6350 H 612.666 -3.79171 4.78604 0
M  V30 6351 H 614.08 -1.63383 5.49526 0
M  V30 6352 H 612.477 -0.967876 5.92243 0
M  V30 6353 H 613.547 -0.0484569 4.84876 0
M  V30 6354 N 614.89 -1.56749 -0.16351 0
M  V30 6355 C 615.82 -2.00042 -1.20438 0
M  V30 6356 C 616.801 -0.877256 -1.45733 0
M  V30 6357 O 617.986 -1.1439 -1.56935 0
M  V30 6358 C 615.116 -2.36697 -2.54149 0
M  V30 6359 C 614.07 -3.52046 -2.43408 0
M  V30 6360 C 613.396 -3.74466 -3.81679 0
M  V30 6361 C 614.696 -4.85247 -1.93216 0
M  V30 6362 H 616.39 -2.87244 -0.844477 0
M  V30 6363 H 613.936 -1.38194 -0.40478 0
M  V30 6364 H 615.889 -2.65582 -3.27176 0
M  V30 6365 H 614.613 -1.46414 -2.91943 0
M  V30 6366 H 613.272 -3.23301 -1.72834 0
M  V30 6367 H 612.92 -2.81461 -4.1688 0
M  V30 6368 H 612.62 -4.52084 -3.75359 0
M  V30 6369 H 614.144 -4.0576 -4.5628 0
M  V30 6370 H 615.558 -5.12957 -2.56023 0
M  V30 6371 H 613.955 -5.66556 -1.97825 0
M  V30 6372 H 615.025 -4.7672 -0.88689 0
M  V30 6373 N 616.368 0.432326 -1.51554 0
M  V30 6374 C 617.614 1.17997 -1.65675 0
M  V30 6375 C 617.969 1.88794 -0.37076 0
M  V30 6376 O 617.262 1.80817 0.633692 0
M  V30 6377 C 617.456 2.21907 -2.80164 0
M  V30 6378 C 617.285 1.6131 -4.19773 0
M  V30 6379 C 616.055 1.39585 -4.85638 0
M  V30 6380 C 618.253 1.08659 -5.0269 0
M  V30 6381 N 616.235 0.746374 -6.09346 0
M  V30 6382 C 617.606 0.562685 -6.17441 0
M  V30 6383 C 619.661 0.978831 -4.88184 0
M  V30 6384 C 618.364 -0.0584015 -7.19276 0
M  V30 6385 C 620.39 0.371631 -5.90231 0
M  V30 6386 C 619.752 -0.141711 -7.04257 0
M  V30 6387 H 615.851 0.419277 -0.660099 0
M  V30 6388 H 618.435 0.475809 -1.88797 0
M  V30 6389 H 616.606 2.89706 -2.58698 0
M  V30 6390 H 618.338 2.88867 -2.8344 0
M  V30 6391 H 615.093 1.65897 -4.43593 0
M  V30 6392 H 615.517 0.438934 -6.75576 0
M  V30 6393 H 620.159 1.36157 -4.00276 0
M  V30 6394 H 617.877 -0.453262 -8.06828 0
M  V30 6395 H 621.463 0.290086 -5.81076 0
M  V30 6396 H 620.343 -0.60417 -7.81869 0
M  V30 6397 N 617.846 1.41785 0.688094 0
M  V30 6398 C 618.756 1.46596 1.83158 0
M  V30 6399 C 619.772 0.355862 1.70322 0
M  V30 6400 O 620.948 0.604737 1.92106 0
M  V30 6401 C 618.013 1.35322 3.192 0
M  V30 6402 C 617.074 2.56711 3.4409 0
M  V30 6403 C 616.307 2.45965 4.73642 0
M  V30 6404 O 616.53 1.48827 5.50642 0
M  V30 6405 O 615.464 3.35859 4.99482 0
M  V30 6406 H 619.29 2.43083 1.82056 0
M  V30 6407 H 616.875 1.23404 0.842126 0
M  V30 6408 H 618.757 1.31347 4.00407 0
M  V30 6409 H 617.432 0.419536 3.2097 0
M  V30 6410 H 616.339 2.66262 2.62784 0
M  V30 6411 H 617.672 3.48933 3.47141 0
M  V30 6412 N 619.324 -0.923095 1.27737 0
M  V30 6413 C 620.573 -1.66581 1.13727 0
M  V30 6414 C 620.886 -1.9304 -0.315433 0
M  V30 6415 O 622.092 -2.65309 -0.57651 0
M  V30 6416 C 620.548 -3.00047 1.98745 0
M  V30 6417 C 620.156 -2.8127 3.48699 0
M  V30 6418 C 621.9 -3.77887 1.93395 0
M  V30 6419 C 619.807 -4.1032 4.25901 0
M  V30 6420 H 618.737 -0.624834 0.422017 0
M  V30 6421 H 621.388 -1.02514 1.52194 0
M  V30 6422 H 619.77 -3.65197 1.53125 0
M  V30 6423 H 620.944 -2.24859 4.02213 0
M  V30 6424 H 619.259 -2.16854 3.55476 0
M  V30 6425 H 621.856 -4.73526 2.48348 0
M  V30 6426 H 622.199 -4.06264 0.908605 0
M  V30 6427 H 622.732 -3.19541 2.36935 0
M  V30 6428 H 619.471 -3.8712 5.28978 0
M  V30 6429 H 618.991 -4.66377 3.77163 0
M  V30 6430 H 620.67 -4.78648 4.35321 0
M  V30 6431 N 620.802 -1.09834 -1.13024 0
M  V30 6432 C 621.732 -0.763451 -2.20666 0
M  V30 6433 C 622.713 0.260778 -1.68089 0
M  V30 6434 O 623.898 0.127915 -1.93778 0
M  V30 6435 C 621.028 -0.187744 -3.46792 0
M  V30 6436 C 619.982 -1.14196 -4.12484 0
M  V30 6437 C 619.308 -0.427755 -5.32986 0
M  V30 6438 C 620.608 -2.48607 -4.59338 0
M  V30 6439 H 622.302 -1.66347 -2.48936 0
M  V30 6440 H 619.848 -0.801261 -1.19649 0
M  V30 6441 H 621.801 0.0586375 -4.21359 0
M  V30 6442 H 620.525 0.747485 -3.17931 0
M  V30 6443 H 619.184 -1.37369 -3.3989 0
M  V30 6444 H 618.832 0.511747 -5.0039 0
M  V30 6445 H 618.532 -1.06403 -5.77886 0
M  V30 6446 H 620.056 -0.189772 -6.10305 0
M  V30 6447 H 621.47 -2.29618 -5.25308 0
M  V30 6448 H 619.867 -3.08062 -5.14993 0
M  V30 6449 H 620.937 -3.09062 -3.73642 0
M  V30 6450 N 622.28 1.30327 -0.886154 0
M  V30 6451 C 623.505 2.0079 -0.519425 0
M  V30 6452 C 623.93 1.65979 0.885013 0
M  V30 6453 O 623.288 0.877043 1.58675 0
M  V30 6454 C 623.336 3.53686 -0.702758 0
M  V30 6455 O 622.44 4.11637 0.250828 0
M  V30 6456 H 621.781 0.63171 -0.204544 0
M  V30 6457 H 624.311 1.66145 -1.19402 0
M  V30 6458 H 624.321 4.03531 -0.602207 0
M  V30 6459 H 622.996 3.78361 -1.72673 0
M  V30 6460 H 621.573 3.72755 0.103873 0
M  V30 6461 N 623.758 0.647228 1.43697 0
M  V30 6462 C 625.174 0.314256 1.56476 0
M  V30 6463 C 625.374 -1.18191 1.63196 0
M  V30 6464 O 624.43 -1.96655 1.58376 0
M  V30 6465 C 625.743 1.02034 2.82859 0
M  V30 6466 C 627.291 1.00002 2.96595 0
M  V30 6467 C 627.766 1.68689 4.25803 0
M  V30 6468 N 629.257 1.65424 4.32654 0
M  V30 6469 C 629.992 2.1545 5.31384 0
M  V30 6470 N 629.488 2.73738 6.36427 0
M  V30 6471 N 631.281 2.05985 5.22998 0
M  V30 6472 H 623.432 1.61821 1.37578 0
M  V30 6473 H 625.695 0.680184 0.660344 0
M  V30 6474 H 625.401 2.07542 2.83935 0
M  V30 6475 H 625.275 0.568146 3.72897 0
M  V30 6476 H 627.662 -0.0466319 2.95063 0
M  V30 6477 H 627.743 1.49086 2.07863 0
M  V30 6478 H 627.387 2.73308 4.28095 0
M  V30 6479 H 627.317 1.17076 5.13421 0
M  V30 6480 H 629.808 1.22884 3.57363 0
M  V30 6481 H 630.121 3.09602 7.08072 0
M  V30 6482 H 628.466 2.77796 6.37067 0
M  V30 6483 H 631.657 1.60157 4.39849 0
M  V30 6484 H 631.83 2.45281 5.99784 0
M  V30 6485 N 625.236 -1.5273 0.388769 0
M  V30 6486 C 626.476 -2.03483 -0.193372 0
M  V30 6487 C 626.84 -1.26897 -1.44087 0
M  V30 6488 O 628.041 -1.67773 -2.10014 0
M  V30 6489 C 626.312 -3.54488 -0.455325 0
M  V30 6490 S 627.871 -4.27069 -1.00783 0
M  V30 6491 H 624.689 -0.708907 -0.0545131 0
M  V30 6492 H 627.291 -1.8798 0.536993 0
M  V30 6493 H 625.995 -4.07817 0.459722 0
M  V30 6494 H 625.526 -3.74196 -1.21413 0
M  V30 6495 H 627.541 -4.40185 -2.29023 0
M  V30 6496 N 626.714 -0.118576 -1.57153 0
M  V30 6497 C 628.125 0.40687 -1.82213 0
M  V30 6498 C 628.476 1.66636 -1.03571 0
M  V30 6499 O 627.601 2.14682 -0.272171 0
M  V30 6500 C 628.196 0.744949 -3.30509 0
M  V30 6501 C 626.755 1.21503 -3.5625 0
M  V30 6502 C 625.902 0.223511 -2.76398 0
M  V30 6503 H 628.853 -0.343712 -1.54933 0
M  V30 6504 H 628.874 1.6024 -3.45114 0
M  V30 6505 H 628.386 -0.171911 -3.87719 0
M  V30 6506 H 626.487 2.1488 -3.04396 0
M  V30 6507 H 626.6 1.16065 -4.64829 0
M  V30 6508 H 624.964 0.71046 -2.44591 0
M  V30 6509 H 625.747 -0.686439 -3.36367 0
M  V30 6510 N 628.193 1.56834 0.155195 0
M  V30 6511 C 629.47 1.73799 0.897395 0
M  V30 6512 C 629.85 0.684379 1.99698 0
M  V30 6513 O 629.198 -0.298111 2.26547 0
M  V30 6514 C 629.408 3.17572 1.44737 0
M  V30 6515 C 630.756 3.79014 1.91399 0
M  V30 6516 O 631.78 3.20951 1.54496 0
M  V30 6517 O 630.639 4.80998 2.59429 0
M  V30 6518 H 627.733 0.710329 0.423511 0
M  V30 6519 H 630.279 1.69107 0.141761 0
M  V30 6520 H 629.051 3.85749 0.656741 0
M  V30 6521 H 628.674 3.26657 2.26674 0
M  V30 6522 N 629.671 -0.424282 1.51781 0
M  V30 6523 C 630.601 -1.52305 1.7699 0
M  V30 6524 C 631.582 -1.5839 0.620209 0
M  V30 6525 O 632.767 -1.73908 0.864268 0
M  V30 6526 C 629.897 -2.90271 1.90683 0
M  V30 6527 C 628.851 -2.99043 3.06198 0
M  V30 6528 C 628.177 -4.39116 3.05092 0
M  V30 6529 C 629.477 -2.7192 4.45934 0
M  V30 6530 H 631.171 -1.31461 2.68995 0
M  V30 6531 H 628.717 -0.630985 1.29439 0
M  V30 6532 H 630.67 -3.6711 2.06901 0
M  V30 6533 H 629.394 -3.12376 0.953365 0
M  V30 6534 H 628.053 -2.24646 2.89706 0
M  V30 6535 H 627.701 -4.58207 2.07498 0
M  V30 6536 H 627.401 -4.45912 3.82669 0
M  V30 6537 H 628.925 -5.17911 3.2342 0
M  V30 6538 H 630.339 -3.38487 4.62709 0
M  V30 6539 H 628.736 -2.90111 5.25315 0
M  V30 6540 H 629.806 -1.67445 4.55072 0
M  V30 6541 N 631.149 -1.42148 -0.680565 0
M  V30 6542 C 632.565 -1.24947 -0.992995 0
M  V30 6543 C 632.765 -0.149527 -2.00944 0
M  V30 6544 O 631.821 0.481145 -2.47873 0
M  V30 6545 C 633.134 -2.60426 -1.5033 0
M  V30 6546 C 634.682 -2.67733 -1.62137 0
M  V30 6547 C 635.157 -4.03564 -2.16565 0
M  V30 6548 N 636.648 -4.05488 -2.23905 0
M  V30 6549 C 637.383 -5.07401 -2.67081 0
M  V30 6550 N 636.879 -6.19698 -3.09751 0
M  V30 6551 N 638.672 -4.94758 -2.66778 0
M  V30 6552 H 630.823 -2.12399 -0.0074788 0
M  V30 6553 H 633.086 -0.94571 -0.0658529 0
M  V30 6554 H 632.792 -3.41743 -0.830947 0
M  V30 6555 H 632.666 -2.83949 -2.483 0
M  V30 6556 H 635.053 -1.86765 -2.2848 0
M  V30 6557 H 635.134 -2.48004 -0.626713 0
M  V30 6558 H 634.778 -4.84987 -1.50833 0
M  V30 6559 H 634.708 -4.20641 -3.1681 0
M  V30 6560 H 637.199 -3.24415 -1.93812 0
M  V30 6561 H 637.512 -6.93318 -3.41365 0
M  V30 6562 H 635.857 -6.23212 -3.07623 0
M  V30 6563 H 639.048 -4.06105 -2.32801 0
M  V30 6564 H 639.221 -5.74317 -3.00107 0
M  V30 6565 N 632.627 0.916307 -1.28225 0
M  V30 6566 C 634.038 1.48024 -1.13779 0
M  V30 6567 C 634.389 1.94289 0.273139 0
M  V30 6568 O 633.514 1.82226 1.16716 0
M  V30 6569 C 634.109 2.69029 -2.05935 0
M  V30 6570 C 632.668 3.2161 -1.95561 0
M  V30 6571 C 631.815 1.94321 -1.97825 0
M  V30 6572 H 634.766 0.729272 -1.40951 0
M  V30 6573 H 634.787 3.44204 -1.62184 0
M  V30 6574 H 634.299 2.35325 -3.08616 0
M  V30 6575 H 632.4 3.60045 -0.959076 0
M  V30 6576 H 632.513 3.87032 -2.82388 0
M  V30 6577 H 630.877 2.1131 -1.42198 0
M  V30 6578 H 631.66 1.62917 -3.0218 0
M  V30 6579 N 634.105 1.10431 1.1244 0
M  V30 6580 C 635.382 0.758797 1.80282 0
M  V30 6581 C 635.762 -0.754727 1.97147 0
M  V30 6582 O 635.11 -1.68094 1.54779 0
M  V30 6583 C 635.32 1.50982 3.14651 0
M  V30 6584 C 636.668 1.68232 3.8985 0
M  V30 6585 O 637.692 1.47319 3.24308 0
M  V30 6586 O 636.551 2.02905 5.07437 0
M  V30 6587 H 633.645 0.273756 0.780376 0
M  V30 6588 H 636.191 1.20713 1.19275 0
M  V30 6589 H 634.963 2.53989 2.97666 0
M  V30 6590 H 634.586 1.05435 3.83366 0
M  V30 6591 N 635.583 -1.29855 0.893053 0
M  V30 6592 C 636.808 -2.00512 0.530066 0
M  V30 6593 C 637.233 -1.66446 -0.876199 0
M  V30 6594 O 636.591 -0.885446 -1.58207 0
M  V30 6595 C 636.639 -3.53308 0.721505 0
M  V30 6596 O 635.743 -4.11764 -0.228994 0
M  V30 6597 H 635.084 -0.630617 0.207891 0
M  V30 6598 H 637.614 -1.6551 1.20282 0
M  V30 6599 H 637.624 -4.03206 0.623599 0
M  V30 6600 H 636.299 -3.77439 1.74678 0
M  V30 6601 H 634.876 -3.72805 -0.0841034 0
M  V30 6602 N 637.061 -0.65484 -1.43351 0
M  V30 6603 C 638.286 -0.175046 -2.0666 0
M  V30 6604 C 638.711 1.15104 -1.4877 0
M  V30 6605 O 638.069 1.71144 -0.598279 0
M  V30 6606 C 638.117 -0.0991544 -3.60464 0
M  V30 6607 O 637.221 0.938169 -4.01587 0
M  V30 6608 H 636.562 -0.0956148 -0.65708 0
M  V30 6609 H 639.092 -0.898222 -1.83829 0
M  V30 6610 H 639.102 0.083632 -4.07914 0
M  V30 6611 H 637.777 -1.06719 -4.01975 0
M  V30 6612 H 636.354 0.72804 -3.65724 0
M  V30 6613 N 638.539 1.52521 -0.396863 0
M  V30 6614 C 639.95 1.86547 0.0754868 0
M  V30 6615 C 640.301 1.31621 1.45501 0
M  V30 6616 O 639.426 0.650563 2.0639 0
M  V30 6617 C 640.021 3.38495 0.143754 0
M  V30 6618 C 638.58 3.72205 0.560413 0
M  V30 6619 C 637.727 2.75954 -0.272856 0
M  V30 6620 H 640.678 1.46323 -0.614434 0
M  V30 6621 H 640.699 3.68153 0.961425 0
M  V30 6622 H 640.211 3.78442 -0.860415 0
M  V30 6623 H 638.312 3.3783 1.57167 0
M  V30 6624 H 638.425 4.78074 0.313314 0
M  V30 6625 H 636.789 2.53339 0.263 0
M  V30 6626 H 637.572 3.1874 -1.27515 0
M  V30 6627 N 640.017 0.126909 1.57088 0
M  V30 6628 C 641.428 -0.397201 1.82426 0
M  V30 6629 C 641.779 -1.66084 1.04453 0
M  V30 6630 O 640.904 -2.14534 0.283552 0
M  V30 6631 C 641.499 -0.727411 3.30899 0
M  V30 6632 C 640.058 -1.19612 3.56889 0
M  V30 6633 C 639.205 -0.20885 2.76512 0
M  V30 6634 H 642.156 0.351924 1.54749 0
M  V30 6635 H 642.177 -1.58407 3.45959 0
M  V30 6636 H 641.689 0.19247 3.87622 0
M  V30 6637 H 639.79 -2.13263 3.05532 0
M  V30 6638 H 639.903 -1.13598 4.65438 0
M  V30 6639 H 638.267 -0.697479 2.44964 0
M  V30 6640 H 639.05 0.704267 3.35998 0
M  V30 6641 N 641.495 -1.56914 -0.146875 0
M  V30 6642 C 642.906 -1.72799 -0.706928 0
M  V30 6643 C 643.257 -0.741329 -1.81656 0
M  V30 6644 O 642.382 0.0920162 -2.16204 0
M  V30 6645 C 642.977 -3.13317 -1.28911 0
M  V30 6646 C 641.536 -3.30803 -1.79573 0
M  V30 6647 C 640.683 -2.68725 -0.684252 0
M  V30 6648 H 643.634 -1.58504 0.0787931 0
M  V30 6649 H 643.655 -3.13323 -2.15891 0
M  V30 6650 H 643.167 -3.85104 -0.481284 0
M  V30 6651 H 641.268 -2.64012 -2.62923 0
M  V30 6652 H 641.381 -4.38754 -1.92436 0
M  V30 6653 H 639.745 -2.29196 -1.11091 0
M  V30 6654 H 640.528 -3.43117 0.112134 0
M  V30 6655 N 642.974 0.416227 -1.52004 0
M  V30 6656 C 644.221 1.16383 -1.65714 0
M  V30 6657 C 644.549 1.9068 -0.383594 0
M  V30 6658 O 643.804 1.85174 0.633185 0
M  V30 6659 C 644.103 2.18923 -2.82502 0
M  V30 6660 C 643.769 1.61485 -4.20991 0
M  V30 6661 C 642.431 1.45545 -4.58661 0
M  V30 6662 C 644.783 1.19468 -5.07323 0
M  V30 6663 C 642.111 0.860937 -5.80349 0
M  V30 6664 C 644.463 0.614386 -6.29609 0
M  V30 6665 C 643.127 0.442056 -6.66035 0
M  V30 6666 H 642.397 0.425875 -0.606392 0
M  V30 6667 H 645.044 0.45199 -1.8609 0
M  V30 6668 H 643.349 2.96225 -2.56433 0
M  V30 6669 H 645.046 2.76628 -2.90307 0
M  V30 6670 H 641.636 1.74873 -3.91302 0
M  V30 6671 H 645.82 1.30596 -4.78809 0
M  V30 6672 H 641.076 0.715372 -6.072 0
M  V30 6673 H 645.25 0.280393 -6.95835 0
M  V30 6674 H 642.877 -0.0207218 -7.60197 0
M  V30 6675 N 644.452 1.42507 0.673017 0
M  V30 6676 C 645.384 1.42074 1.79854 0
M  V30 6677 C 646.397 0.319569 1.59633 0
M  V30 6678 O 647.586 0.582769 1.68719 0
M  V30 6679 C 644.686 1.19886 3.16987 0
M  V30 6680 C 643.859 2.42471 3.64042 0
M  V30 6681 C 642.918 2.15802 4.79913 0
M  V30 6682 O 641.944 2.89015 4.90366 0
M  V30 6683 N 643.146 1.16225 5.68746 0
M  V30 6684 H 645.911 2.3909 1.8071 0
M  V30 6685 H 643.472 1.37409 0.856171 0
M  V30 6686 H 645.464 0.999591 3.92161 0
M  V30 6687 H 644.034 0.313879 3.1102 0
M  V30 6688 H 643.254 2.77954 2.79526 0
M  V30 6689 H 644.542 3.24097 3.92223 0
M  V30 6690 H 643.94 0.556756 5.62954 0
M  V30 6691 H 642.497 1.02285 6.43724 0
M  V30 6692 N 645.93 -0.909495 1.28709 0
M  V30 6693 C 646.86 -2.0291 1.15542 0
M  V30 6694 C 647.841 -1.7002 0.0521017 0
M  V30 6695 O 649.026 -1.92835 0.229849 0
M  V30 6696 C 646.156 -3.37458 0.820935 0
M  V30 6697 C 645.11 -3.84524 1.87949 0
M  V30 6698 C 644.436 -5.16086 1.39854 0
M  V30 6699 C 645.736 -4.05918 3.28676 0
M  V30 6700 H 647.43 -2.14183 2.09203 0
M  V30 6701 H 644.976 -1.02913 1.00722 0
M  V30 6702 H 646.929 -4.1528 0.715571 0
M  V30 6703 H 645.653 -3.26249 -0.151374 0
M  V30 6704 H 644.312 -3.08911 1.97408 0
M  V30 6705 H 643.96 -5.01284 0.41518 0
M  V30 6706 H 643.66 -5.48547 2.1064 0
M  V30 6707 H 645.184 -5.96459 1.30649 0
M  V30 6708 H 646.598 -4.74252 3.22115 0
M  V30 6709 H 644.995 -4.49717 3.97334 0
M  V30 6710 H 646.065 -3.10583 3.72379 0
M  V30 6711 N 647.408 -1.11026 -1.11852 0
M  V30 6712 C 648.371 -0.768006 -2.1595 0
M  V30 6713 C 649.371 0.210538 -1.59416 0
M  V30 6714 O 650.561 -0.0133978 -1.74195 0
M  V30 6715 C 647.693 -0.138678 -3.40618 0
M  V30 6716 H 648.886 -1.69012 -2.4774 0
M  V30 6717 H 646.439 -0.911578 -1.26964 0
M  V30 6718 H 647.174 0.793872 -3.14433 0
M  V30 6719 H 646.959 -0.843012 -3.8293 0
M  V30 6720 H 648.449 0.0848039 -4.17514 0
M  V30 6721 N 648.886 1.2938 -0.899927 0
M  V30 6722 C 650.116 1.99402 -0.540601 0
M  V30 6723 C 650.524 1.67534 0.87914 0
M  V30 6724 O 649.867 0.916821 1.59186 0
M  V30 6725 C 649.929 3.53514 -0.653326 0
M  V30 6726 C 649.593 4.08937 -2.04009 0
M  V30 6727 C 650.59 4.23815 -3.01126 0
M  V30 6728 C 648.275 4.43962 -2.34953 0
M  V30 6729 C 650.269 4.72951 -4.27313 0
M  V30 6730 C 647.956 4.92795 -3.61382 0
M  V30 6731 C 648.954 5.07244 -4.57376 0
M  V30 6732 O 648.642 5.55017 -5.8156 0
M  V30 6733 H 648.374 0.64383 -0.206057 0
M  V30 6734 H 650.928 1.65878 -1.21134 0
M  V30 6735 H 649.158 3.86628 0.0744449 0
M  V30 6736 H 650.847 4.04767 -0.303118 0
M  V30 6737 H 651.613 3.97043 -2.78535 0
M  V30 6738 H 647.492 4.31974 -1.60994 0
M  V30 6739 H 651.036 4.84144 -5.02245 0
M  V30 6740 H 646.933 5.19004 -3.83804 0
M  V30 6741 H 647.701 5.73331 -5.84153 0
M  V30 6742 N 650.364 0.662433 1.43002 0
M  V30 6743 C 651.274 -0.0239199 2.34588 0
M  V30 6744 C 652.29 -0.802255 1.54402 0
M  V30 6745 O 653.466 -0.747401 1.87018 0
M  V30 6746 C 650.531 -0.972098 3.32793 0
M  V30 6747 C 649.592 -0.189673 4.28881 0
M  V30 6748 C 648.825 -1.09269 5.22395 0
M  V30 6749 O 649.048 -2.33209 5.20547 0
M  V30 6750 O 647.982 -0.560136 5.99288 0
M  V30 6751 H 651.808 0.730171 2.94792 0
M  V30 6752 H 649.393 0.422635 1.43297 0
M  V30 6753 H 651.275 -1.51676 3.93157 0
M  V30 6754 H 649.95 -1.70626 2.75079 0
M  V30 6755 H 648.857 0.398794 3.71968 0
M  V30 6756 H 650.19 0.50511 4.89601 0
M  V30 6757 N 651.842 -1.52309 0.404946 0
M  V30 6758 C 652.805 -2.25491 -0.410651 0
M  V30 6759 C 653.805 -1.27704 -0.977154 0
M  V30 6760 O 654.995 -1.51679 -0.856691 0
M  V30 6761 C 652.127 -3.02197 -1.57765 0
M  V30 6762 H 653.32 -2.99015 0.230277 0
M  V30 6763 H 650.873 -1.55506 0.157377 0
M  V30 6764 H 651.608 -2.33013 -2.25556 0
M  V30 6765 H 651.393 -3.73987 -1.17797 0
M  V30 6766 H 652.883 -3.57719 -2.15469 0
M  V30 6767 N 653.32 -0.135238 -1.57019 0
M  V30 6768 C 654.23 0.822226 -2.19719 0
M  V30 6769 C 655.246 1.28057 -1.17802 0
M  V30 6770 O 656.422 1.3402 -1.50335 0
M  V30 6771 C 653.487 2.0484 -2.79717 0
M  V30 6772 C 652.548 1.64042 -3.96723 0
M  V30 6773 C 651.781 2.80814 -4.53849 0
M  V30 6774 O 652.004 3.967 -4.0986 0
M  V30 6775 O 650.938 2.56963 -5.44292 0
M  V30 6776 H 654.764 0.318552 -3.02025 0
M  V30 6777 H 652.349 0.0912021 -1.49121 0
M  V30 6778 H 654.231 2.76622 -3.17897 0
M  V30 6779 H 652.906 2.54182 -2.00432 0
M  V30 6780 H 651.813 0.893182 -3.63281 0
M  V30 6781 H 653.146 1.19426 -4.77492 0
M  V30 6782 N 654.798 1.5699 0.138552 0
M  V30 6783 C 655.728 2.01933 1.17241 0
M  V30 6784 C 656.709 0.90033 1.44319 0
M  V30 6785 O 657.894 1.16872 1.55095 0
M  V30 6786 C 655.024 2.40711 2.50351 0
M  V30 6787 C 653.978 3.55874 2.37776 0
M  V30 6788 C 653.304 3.80491 3.75674 0
M  V30 6789 C 654.604 4.8826 1.85472 0
M  V30 6790 H 656.298 2.88551 0.798672 0
M  V30 6791 H 653.844 1.3882 0.382743 0
M  V30 6792 H 655.797 2.70754 3.22909 0
M  V30 6793 H 654.521 1.5104 2.89576 0
M  V30 6794 H 653.18 3.2601 1.67669 0
M  V30 6795 H 652.828 2.88057 4.12349 0
M  V30 6796 H 652.528 4.57998 3.68119 0
M  V30 6797 H 654.052 4.12967 4.49767 0
M  V30 6798 H 655.466 5.16965 2.4783 0
M  V30 6799 H 653.863 5.69631 1.88787 0
M  V30 6800 H 654.933 4.78071 0.810935 0
M  V30 6801 N 656.276 -0.40816 1.52223 0
M  V30 6802 C 657.524 -1.15274 1.66001 0
M  V30 6803 C 657.845 -1.91003 0.392803 0
M  V30 6804 O 657.115 -1.8673 -0.592336 0
M  V30 6805 H 655.695 -0.428526 0.611861 0
M  V30 6806 H 658.357 -0.46512 1.89269 0
M  V30 6807 H 657.453 -1.86628 2.50153 0
M  V30 6808 N 657.755 -1.42862 -0.66545 0
M  V30 6809 C 658.703 -1.47319 -1.8 0
M  V30 6810 C 659.697 -0.347963 -1.65788 0
M  V30 6811 O 660.903 -0.521406 -1.72283 0
M  V30 6812 H 657.278 -0.461588 -0.593667 0
M  V30 6813 H 659.249 -2.42876 -1.7336 0
M  V30 6814 C 657.998 -1.40152 -3.18203 0
M  V30 6815 H 657.321 -2.26035 -3.2977 0
M  V30 6816 H 658.761 -1.47331 -3.9758 0
M  V30 6817 C 657.22 -0.117493 -3.36695 0
M  V30 6818 O 657.75 0.826058 -3.93115 0
M  V30 6819 N 655.956 -0.0316218 -2.90583 0
M  V30 6820 H 655.503 -0.800247 -2.44855 0
M  V30 6821 H 655.461 0.826835 -3.03333 0
M  V30 6822 N 659.233 0.902656 -1.29189 0
M  V30 6823 C 660.461 1.68639 -1.19869 0
M  V30 6824 C 660.876 1.87254 0.241121 0
M  V30 6825 O 660.233 1.40745 1.16177 0
M  V30 6826 C 660.284 3.07251 -1.90471 0
M  V30 6827 O 660.005 2.89488 -3.28829 0
M  V30 6828 C 661.506 4.01653 -1.8759 0
M  V30 6829 H 658.726 0.526802 -0.415596 0
M  V30 6830 H 661.27 1.12901 -1.7051 0
M  V30 6831 H 659.425 3.59774 -1.43672 0
M  V30 6832 H 659.839 3.77296 -3.64346 0
M  V30 6833 H 661.313 4.96339 -2.4156 0
M  V30 6834 H 661.79 4.30881 -0.850756 0
M  V30 6835 H 662.396 3.55061 -2.34119 0
M  V30 6836 N 660.711 1.11618 1.11262 0
M  V30 6837 C 662.122 0.881942 1.64556 0
M  V30 6838 C 662.473 -0.585442 1.87262 0
M  V30 6839 O 661.598 -1.44795 1.60821 0
M  V30 6840 C 662.193 1.59446 2.98935 0
M  V30 6841 C 660.752 1.40661 3.4913 0
M  V30 6842 C 659.899 1.63593 2.23903 0
M  V30 6843 H 662.85 1.27217 0.94877 0
M  V30 6844 H 662.871 1.04054 3.65996 0
M  V30 6845 H 662.383 2.66241 2.82378 0
M  V30 6846 H 660.484 0.360835 3.70849 0
M  V30 6847 H 660.597 2.15693 4.27801 0
M  V30 6848 H 658.961 1.05944 2.3162 0
M  V30 6849 H 659.744 2.71666 2.09886 0
M  V30 6850 N 662.189 -1.289 0.906776 0
M  V30 6851 C 663.417 -1.99401 0.551969 0
M  V30 6852 C 663.832 -1.67816 -0.865048 0
M  V30 6853 O 663.189 -0.927078 -1.57199 0
M  V30 6854 C 663.24 -3.53779 0.743152 0
M  V30 6855 O 662.961 -3.84248 2.1044 0
M  V30 6856 C 664.462 -4.41543 0.39424 0
M  V30 6857 H 661.682 -0.636926 0.211106 0
M  V30 6858 H 664.226 -1.64266 1.21807 0
M  V30 6859 H 662.381 -3.87201 0.124143 0
M  V30 6860 H 662.795 -4.78904 2.13895 0
M  V30 6861 H 664.269 -5.48957 0.578814 0
M  V30 6862 H 664.746 -4.34073 -0.669137 0
M  V30 6863 H 665.352 -4.13605 0.990491 0
M  V30 6864 N 663.667 -0.670007 -1.42649 0
M  V30 6865 C 664.892 -0.196955 -2.06463 0
M  V30 6866 C 665.317 1.1352 -1.49983 0
M  V30 6867 O 664.675 1.705 -0.616397 0
M  V30 6868 C 664.723 -0.137381 -3.60338 0
M  V30 6869 O 663.827 0.895523 -4.02559 0
M  V30 6870 H 663.168 -0.102579 -0.656029 0
M  V30 6871 H 665.698 -0.917669 -1.82866 0
M  V30 6872 H 665.708 0.0403625 -4.0798 0
M  V30 6873 H 664.383 -1.10977 -4.0082 0
M  V30 6874 H 662.96 0.689209 -3.66476 0
M  V30 6875 N 665.145 1.52092 -0.413018 0
M  V30 6876 C 666.422 1.94356 0.22024 0
M  V30 6877 C 666.802 1.35017 1.62277 0
M  V30 6878 O 666.15 0.527511 2.22328 0
M  V30 6879 C 666.36 3.48289 0.222638 0
M  V30 6880 C 667.708 4.22313 0.440098 0
M  V30 6881 O 668.732 3.54919 0.301826 0
M  V30 6882 O 667.591 5.41829 0.712984 0
M  V30 6883 H 664.685 0.814536 0.14304 0
M  V30 6884 H 667.231 1.63083 -0.469242 0
M  V30 6885 H 666.003 3.83872 -0.758836 0
M  V30 6886 H 665.626 3.85934 0.956057 0
M  V30 6887 N 666.623 0.143563 1.56945 0
M  V30 6888 C 667.533 -0.810562 2.20152 0
M  V30 6889 C 668.549 -1.27431 1.1848 0
M  V30 6890 O 669.725 -1.33221 1.51044 0
M  V30 6891 C 666.79 -2.03353 2.80799 0
M  V30 6892 C 665.851 -1.61936 3.97587 0
M  V30 6893 C 665.084 -2.78403 4.55332 0
M  V30 6894 O 665.307 -3.94521 4.11958 0
M  V30 6895 O 664.241 -2.54073 5.45647 0
M  V30 6896 H 668.067 -0.30253 3.02189 0
M  V30 6897 H 665.652 -0.0832925 1.49168 0
M  V30 6898 H 667.534 -2.74932 3.19359 0
M  V30 6899 H 666.209 -2.53116 2.01777 0
M  V30 6900 H 665.116 -0.873904 3.6375 0
M  V30 6901 H 666.449 -1.16892 4.78118 0
M  V30 6902 N 668.101 -1.57061 -0.130224 0
M  V30 6903 C 669.031 -2.02552 -1.16168 0
M  V30 6904 C 670.012 -0.907971 -1.4384 0
M  V30 6905 O 671.197 -1.17693 -1.54473 0
M  V30 6906 C 668.327 -2.42035 -2.49071 0
M  V30 6907 C 667.281 -3.5713 -2.35886 0
M  V30 6908 C 666.607 -3.82478 -3.7365 0
M  V30 6909 C 667.907 -4.89236 -1.8288 0
M  V30 6910 H 669.601 -2.8897 -0.783359 0
M  V30 6911 H 667.147 -1.39021 -0.375376 0
M  V30 6912 H 669.1 -2.72462 -3.21469 0
M  V30 6913 H 667.824 -1.52573 -2.88771 0
M  V30 6914 H 666.483 -3.26895 -1.65938 0
M  V30 6915 H 666.131 -2.9024 -4.10816 0
M  V30 6916 H 665.831 -4.59944 -3.65685 0
M  V30 6917 H 667.355 -4.15347 -4.47571 0
M  V30 6918 H 668.769 -5.18272 -2.45085 0
M  V30 6919 H 667.166 -5.70624 -1.85763 0
M  V30 6920 H 668.236 -4.78494 -0.785571 0
M  V30 6921 N 669.579 0.400081 -1.52437 0
M  V30 6922 C 670.825 1.14456 -1.68141 0
M  V30 6923 C 671.18 1.87965 -0.410722 0
M  V30 6924 O 670.473 1.82121 0.595195 0
M  V30 6925 C 670.667 2.15914 -2.84808 0
M  V30 6926 C 670.496 1.5237 -4.231 0
M  V30 6927 C 669.266 1.29252 -4.8849 0
M  V30 6928 C 671.464 0.979722 -5.04882 0
M  V30 6929 N 669.446 0.616955 -6.10792 0
M  V30 6930 C 670.817 0.43159 -6.18496 0
M  V30 6931 C 672.872 0.875059 -4.9015 0
M  V30 6932 C 671.575 -0.210958 -7.18991 0
M  V30 6933 C 673.601 0.246351 -5.90887 0
M  V30 6934 C 672.963 -0.291062 -7.03798 0
M  V30 6935 H 669.062 0.405181 -0.668844 0
M  V30 6936 H 671.646 0.435655 -1.89763 0
M  V30 6937 H 669.817 2.84154 -2.64785 0
M  V30 6938 H 671.549 2.8279 -2.89503 0
M  V30 6939 H 668.304 1.56451 -4.47012 0
M  V30 6940 H 668.728 0.295536 -6.76355 0
M  V30 6941 H 673.37 1.27636 -4.03074 0
M  V30 6942 H 671.088 -0.6243 -8.05685 0
M  V30 6943 H 674.674 0.166765 -5.81561 0
M  V30 6944 H 673.554 -0.76988 -7.80412 0
M  V30 6945 N 671.057 1.43213 0.657864 0
M  V30 6946 C 672.02 1.47687 1.75275 0
M  V30 6947 C 673.02 0.362179 1.56668 0
M  V30 6948 O 674.21 0.623734 1.62651 0
M  V30 6949 C 671.342 1.32497 3.14098 0
M  V30 6950 H 672.535 2.4519 1.7269 0
M  V30 6951 H 670.088 1.2991 0.869087 0
M  V30 6952 H 670.823 0.359831 3.22298 0
M  V30 6953 H 670.608 2.13299 3.29008 0
M  V30 6954 H 672.098 1.38549 3.93946 0
M  V30 6955 N 672.536 -0.895792 1.29666 0
M  V30 6956 C 673.466 -2.01673 1.17688 0
M  V30 6957 C 674.447 -1.69955 0.0701317 0
M  V30 6958 O 675.632 -1.9258 0.250289 0
M  V30 6959 C 672.762 -3.36568 0.856681 0
M  V30 6960 C 671.716 -3.82509 1.92017 0
M  V30 6961 C 671.042 -5.14574 1.4532 0
M  V30 6962 C 672.342 -4.02409 3.32963 0
M  V30 6963 H 674.036 -2.11953 2.11463 0
M  V30 6964 H 671.582 -1.01839 1.01807 0
M  V30 6965 H 673.535 -4.14498 0.759577 0
M  V30 6966 H 672.259 -3.26391 -0.116763 0
M  V30 6967 H 670.918 -3.068 2.00673 0
M  V30 6968 H 670.566 -5.00815 0.468325 0
M  V30 6969 H 670.266 -5.46283 2.16447 0
M  V30 6970 H 671.79 -5.9504 1.36968 0
M  V30 6971 H 673.204 -4.70808 3.27127 0
M  V30 6972 H 671.601 -4.45478 4.02082 0
M  V30 6973 H 672.671 -3.06616 3.75652 0
M  V30 6974 N 674.014 -1.12206 -1.10668 0
M  V30 6975 C 674.977 -0.790867 -2.15123 0
M  V30 6976 C 675.977 0.193618 -1.5963 0
M  V30 6977 O 677.167 -0.0318728 -1.74171 0
M  V30 6978 C 674.299 -0.174797 -3.40452 0
M  V30 6979 H 675.492 -1.7163 -2.45933 0
M  V30 6980 H 673.045 -0.924993 -1.2599 0
M  V30 6981 H 673.78 0.760478 -3.15257 0
M  V30 6982 H 673.565 -0.88358 -3.82015 0
M  V30 6983 H 675.055 0.0405162 -4.1758 0
M  V30 6984 N 675.492 1.28418 -0.913599 0
M  V30 6985 C 676.738 1.9527 -0.547484 0
M  V30 6986 C 677.071 1.71745 0.906486 0
M  V30 6987 O 676.346 1.03834 1.64465 0
M  V30 6988 C 676.629 3.49748 -0.857205 0
M  V30 6989 C 676.482 3.82675 -2.3639 0
M  V30 6990 C 677.801 4.3868 -0.353258 0
M  V30 6991 H 674.92 0.709236 -0.200381 0
M  V30 6992 H 677.562 1.51789 -1.14281 0
M  V30 6993 H 675.712 3.86915 -0.350548 0
M  V30 6994 H 677.384 3.55378 -2.94116 0
M  V30 6995 H 675.627 3.29724 -2.81894 0
M  V30 6996 H 676.298 4.90547 -2.53115 0
M  V30 6997 H 678.774 4.08584 -0.787288 0
M  V30 6998 H 677.65 5.45621 -0.599049 0
M  V30 6999 H 677.911 4.35753 0.746413 0
M  V30 7000 N 676.97 0.677563 1.42291 0
M  V30 7001 C 677.902 -0.0380218 2.29168 0
M  V30 7002 C 678.915 -0.762714 1.43828 0
M  V30 7003 O 680.104 -0.616413 1.67519 0
M  V30 7004 C 677.204 -1.07761 3.21311 0
M  V30 7005 C 676.377 -0.42618 4.35319 0
M  V30 7006 C 675.436 -1.36592 5.08162 0
M  V30 7007 O 674.462 -0.865174 5.62586 0
M  V30 7008 N 675.664 -2.69909 5.13935 0
M  V30 7009 H 678.429 0.707766 2.91223 0
M  V30 7010 H 675.99 0.52219 1.53247 0
M  V30 7011 H 677.982 -1.70761 3.6691 0
M  V30 7012 H 676.552 -1.72511 2.60689 0
M  V30 7013 H 675.772 0.383385 3.92331 0
M  V30 7014 H 677.06 0.0275277 5.08793 0
M  V30 7015 H 676.458 -3.13129 4.71134 0
M  V30 7016 H 675.015 -3.2815 5.6317 0
M  V30 7017 N 678.448 -1.51871 0.421078 0
M  V30 7018 C 679.358 -2.31077 -0.405069 0
M  V30 7019 C 680.374 -1.39301 -1.04265 0
M  V30 7020 O 681.55 -1.72376 -1.04157 0
M  V30 7021 C 678.615 -3.12556 -1.50032 0
M  V30 7022 C 677.676 -4.20088 -0.884559 0
M  V30 7023 C 676.909 -4.97673 -1.92762 0
M  V30 7024 O 677.132 -4.75696 -3.14753 0
M  V30 7025 O 676.066 -5.82203 -1.52719 0
M  V30 7026 H 679.892 -3.02742 0.241086 0
M  V30 7027 H 677.477 -1.48263 0.183991 0
M  V30 7028 H 679.359 -3.6326 -2.13589 0
M  V30 7029 H 678.034 -2.43672 -2.13086 0
M  V30 7030 H 676.941 -3.73502 -0.211379 0
M  V30 7031 H 678.274 -4.91298 -0.297763 0
M  V30 7032 N 679.926 -0.151884 -1.56866 0
M  V30 7033 C 681.342 0.204486 -1.58285 0
M  V30 7034 C 681.542 1.6431 -1.16639 0
M  V30 7035 O 680.598 2.37077 -0.868946 0
M  V30 7036 C 681.911 -0.0587019 -3.00643 0
M  V30 7037 C 683.459 0.00462303 -3.13 0
M  V30 7038 C 683.934 -0.231297 -4.57416 0
M  V30 7039 N 685.425 -0.178394 -4.62856 0
M  V30 7040 C 686.16 -0.335379 -5.72418 0
M  V30 7041 N 685.656 -0.550355 -6.90611 0
M  V30 7042 N 687.449 -0.272641 -5.61438 0
M  V30 7043 H 679.6 -1.09116 -1.82229 0
M  V30 7044 H 681.863 -0.432311 -0.843689 0
M  V30 7045 H 681.569 -1.05453 -3.35518 0
M  V30 7046 H 681.443 0.658508 -3.71407 0
M  V30 7047 H 683.83 0.991009 -2.77962 0
M  V30 7048 H 683.911 -0.744992 -2.44711 0
M  V30 7049 H 683.555 -1.2148 -4.93158 0
M  V30 7050 H 683.485 0.5387 -5.23837 0
M  V30 7051 H 685.976 -0.0170923 -3.77896 0
M  V30 7052 H 686.289 -0.660116 -7.69976 0
M  V30 7053 H 684.634 -0.586736 -6.92519 0
M  V30 7054 H 687.825 -0.105421 -4.67981 0
M  V30 7055 H 687.998 -0.398418 -6.46774 0
M  V30 7056 N 681.404 1.57128 0.121893 0
M  V30 7057 C 682.82 1.52357 0.47534 0
M  V30 7058 C 683.02 0.864417 1.82017 0
M  V30 7059 O 682.076 0.445529 2.48538 0
M  V30 7060 C 683.389 2.97122 0.4625 0
M  V30 7061 C 684.937 3.08196 0.546255 0
M  V30 7062 C 685.412 4.54516 0.563833 0
M  V30 7063 N 686.903 4.58959 0.625353 0
M  V30 7064 C 687.638 5.69585 0.660354 0
M  V30 7065 N 687.134 6.89714 0.653175 0
M  V30 7066 N 688.927 5.57685 0.703143 0
M  V30 7067 H 681.078 1.98364 -0.75931 0
M  V30 7068 H 683.341 0.905777 -0.279772 0
M  V30 7069 H 683.047 3.48706 -0.457943 0
M  V30 7070 H 682.921 3.54406 1.29136 0
M  V30 7071 H 685.308 2.56617 1.45712 0
M  V30 7072 H 685.389 2.53912 -0.310234 0
M  V30 7073 H 685.033 5.06741 -0.342974 0
M  V30 7074 H 684.963 5.06609 1.43716 0
M  V30 7075 H 687.454 3.72489 0.637182 0
M  V30 7076 H 687.767 7.69781 0.682425 0
M  V30 7077 H 686.112 6.92223 0.620646 0
M  V30 7078 H 689.303 4.62744 0.706095 0
M  V30 7079 H 689.476 6.43909 0.726952 0
M  V30 7080 N 682.882 -0.391992 1.52647 0
M  V30 7081 C 684.298 -0.731848 1.41831 0
M  V30 7082 C 684.498 -1.9423 0.536361 0
M  V30 7083 O 683.554 -2.52499 0.00866571 0
M  V30 7084 C 684.867 -0.969743 2.84634 0
M  V30 7085 C 686.415 -1.0714 2.94092 0
M  V30 7086 C 686.89 -1.34195 4.37899 0
M  V30 7087 N 688.381 -1.41023 4.41211 0
M  V30 7088 C 689.116 -1.63616 5.49561 0
M  V30 7089 N 688.612 -1.83699 6.68002 0
M  V30 7090 N 690.405 -1.65771 5.371 0
M  V30 7091 H 682.556 0.404547 2.08512 0
M  V30 7092 H 684.819 0.11879 0.940528 0
M  V30 7093 H 684.525 -0.152465 3.51369 0
M  V30 7094 H 684.399 -1.88523 3.26709 0
M  V30 7095 H 686.786 -1.87925 2.27526 0
M  V30 7096 H 686.867 -0.133887 2.55449 0
M  V30 7097 H 686.511 -0.539207 5.0503 0
M  V30 7098 H 686.441 -2.29226 4.74092 0
M  V30 7099 H 688.932 -1.27223 3.55841 0
M  V30 7100 H 689.245 -2.00437 7.46354 0
M  V30 7101 H 687.59 -1.8093 6.71036 0
M  V30 7102 H 690.781 -1.4963 4.43541 0
M  V30 7103 H 690.954 -1.83038 6.21612 0
M  V30 7104 N 684.36 -1.4356 -0.65026 0
M  V30 7105 C 685.771 -1.40324 -1.2315 0
M  V30 7106 C 686.122 -0.108812 -1.95898 0
M  V30 7107 O 685.247 0.79163 -2.01401 0
M  V30 7108 C 685.842 -2.54195 -2.23987 0
M  V30 7109 C 684.401 -2.54215 -2.77582 0
M  V30 7110 C 683.548 -2.31752 -1.5227 0
M  V30 7111 H 686.499 -1.52418 -0.442095 0
M  V30 7112 H 686.52 -2.25854 -3.0622 0
M  V30 7113 H 686.032 -3.48392 -1.71011 0
M  V30 7114 H 684.133 -1.63907 -3.34612 0
M  V30 7115 H 684.246 -3.52081 -3.24925 0
M  V30 7116 H 682.61 -1.80476 -1.79723 0
M  V30 7117 H 683.393 -3.28037 -1.01225 0
M  V30 7118 N 685.838 0.888903 -1.30139 0
M  V30 7119 C 687.068 1.67115 -1.21474 0
M  V30 7120 C 687.476 1.87852 0.225472 0
M  V30 7121 O 686.819 1.42324 1.16145 0
M  V30 7122 C 686.881 3.0713 -1.86846 0
M  V30 7123 C 686.545 3.09582 -3.36167 0
M  V30 7124 C 687.542 2.88929 -4.32222 0
M  V30 7125 C 685.227 3.31304 -3.77549 0
M  V30 7126 C 687.221 2.89949 -5.67634 0
M  V30 7127 C 684.908 3.31954 -5.13079 0
M  V30 7128 C 685.906 3.113 -6.07932 0
M  V30 7129 O 685.594 3.11758 -7.40987 0
M  V30 7130 H 685.326 0.528372 -0.421662 0
M  V30 7131 H 687.88 1.11919 -1.7223 0
M  V30 7132 H 686.11 3.63973 -1.30615 0
M  V30 7133 H 687.799 3.6749 -1.72354 0
M  V30 7134 H 688.565 2.71948 -4.01584 0
M  V30 7135 H 684.444 3.46417 -3.04165 0
M  V30 7136 H 687.988 2.73746 -6.41645 0
M  V30 7137 H 683.885 3.48469 -5.43359 0
M  V30 7138 H 684.653 3.27951 -7.49927 0
M  V30 7139 N 687.317 1.12792 1.10072 0
M  V30 7140 C 688.566 0.880232 1.81479 0
M  V30 7141 C 688.879 -0.595575 1.86312 0
M  V30 7142 O 690.085 -0.959979 2.53962 0
M  V30 7143 C 688.541 1.52514 3.25987 0
M  V30 7144 C 688.149 3.036 3.29441 0
M  V30 7145 C 689.893 1.35788 4.02196 0
M  V30 7146 C 687.8 3.61007 4.68431 0
M  V30 7147 H 686.73 0.325654 0.680048 0
M  V30 7148 H 689.381 1.35485 1.23758 0
M  V30 7149 H 687.763 0.978188 3.83728 0
M  V30 7150 H 688.937 3.64819 2.81502 0
M  V30 7151 H 687.252 3.19765 2.66719 0
M  V30 7152 H 689.849 1.76096 5.0487 0
M  V30 7153 H 690.192 0.301972 4.15203 0
M  V30 7154 H 690.725 1.87426 3.50879 0
M  V30 7155 H 687.464 4.66375 4.60625 0
M  V30 7156 H 686.984 3.04564 5.16721 0
M  V30 7157 H 688.663 3.60289 5.37402 0
M  V30 7158 N 688.795 -1.27931 0.920396 0
M  V30 7159 C 690.206 -1.76707 0.602616 0
M  V30 7160 C 690.557 -1.75249 -0.882159 0
M  V30 7161 O 689.682 -1.35135 -1.69019 0
M  V30 7162 C 690.277 -3.20884 1.08714 0
M  V30 7163 C 688.836 -3.67356 0.820157 0
M  V30 7164 C 687.983 -2.47525 1.25006 0
M  V30 7165 H 690.934 -1.14301 1.10095 0
M  V30 7166 H 690.955 -3.78045 0.431535 0
M  V30 7167 H 690.467 -3.21913 2.1678 0
M  V30 7168 H 688.568 -3.7178 -0.247012 0
M  V30 7169 H 688.681 -4.57181 1.43257 0
M  V30 7170 H 687.045 -2.45765 0.668698 0
M  V30 7171 H 687.828 -2.51269 2.3392 0
M  V30 7172 N 690.273 -0.685099 -1.4193 0
M  V30 7173 C 691.498 -0.218842 -2.06242 0
M  V30 7174 C 691.923 1.11923 -1.51178 0
M  V30 7175 O 691.281 1.69837 -0.634446 0
M  V30 7176 C 691.329 -0.175592 -3.60172 0
M  V30 7177 O 690.433 0.852776 -4.03487 0
M  V30 7178 H 689.774 -0.109531 -0.654904 0
M  V30 7179 H 692.304 -0.937013 -1.81882 0
M  V30 7180 H 692.314 -0.00291151 -4.08 0
M  V30 7181 H 690.989 -1.15222 -3.99621 0
M  V30 7182 H 689.566 0.650301 -3.67186 0
M  V30 7183 N 691.751 1.51645 -0.429126 0
M  V30 7184 C 692.979 2.06433 0.138994 0
M  V30 7185 C 693.394 1.29735 1.37165 0
M  V30 7186 O 692.751 0.354638 1.79021 0
M  V30 7187 C 692.802 3.58439 0.469452 0
M  V30 7188 O 692.523 4.32238 -0.714273 0
M  V30 7189 C 694.024 4.29712 1.08914 0
M  V30 7190 H 691.244 0.6709 0.0115608 0
M  V30 7191 H 693.788 1.9532 -0.605843 0
M  V30 7192 H 691.943 3.69494 1.16419 0
M  V30 7193 H 692.357 5.22704 -0.433633 0
M  V30 7194 H 693.831 5.37182 1.27042 0
M  V30 7195 H 694.308 3.87473 2.06788 0
M  V30 7196 H 694.914 4.2308 0.434028 0
M  V30 7197 N 693.229 0.160201 1.56784 0
M  V30 7198 C 694.475 -0.481855 1.9761 0
M  V30 7199 C 694.83 -1.61605 1.04411 0
M  V30 7200 O 694.123 -1.91426 0.0816402 0
M  V30 7201 C 694.317 -1.02259 3.42459 0
M  V30 7202 C 694.146 0.0576781 4.49663 0
M  V30 7203 C 692.916 0.503585 5.02784 0
M  V30 7204 C 695.114 0.854013 5.0716 0
M  V30 7205 N 693.096 1.56532 5.93608 0
M  V30 7206 C 694.467 1.76593 5.94319 0
M  V30 7207 C 696.522 0.900333 4.89692 0
M  V30 7208 C 695.225 2.72023 6.6588 0
M  V30 7209 C 697.251 1.84252 5.61965 0
M  V30 7210 C 696.613 2.74194 6.48843 0
M  V30 7211 H 692.712 -0.144748 0.768487 0
M  V30 7212 H 695.296 0.257853 1.92985 0
M  V30 7213 H 693.467 -1.73186 3.47651 0
M  V30 7214 H 695.199 -1.63235 3.70319 0
M  V30 7215 H 691.954 0.103361 4.73487 0
M  V30 7216 H 692.378 2.09634 6.43726 0
M  V30 7217 H 697.02 0.219023 4.22232 0
M  V30 7218 H 694.738 3.41147 7.3256 0
M  V30 7219 H 698.324 1.88433 5.5044 0
M  V30 7220 H 697.204 3.45912 7.03786 0
M  V30 7221 N 694.707 -1.5719 -0.113559 0
M  V30 7222 C 696.123 -1.52607 -0.467253 0
M  V30 7223 C 696.323 -0.874058 -1.81556 0
M  V30 7224 O 695.379 -0.458703 -2.48299 0
M  V30 7225 C 696.692 -2.97363 -0.446736 0
M  V30 7226 C 698.24 -3.08482 -0.529903 0
M  V30 7227 C 698.715 -4.54809 -0.539721 0
M  V30 7228 N 700.206 -4.59284 -0.601005 0
M  V30 7229 C 700.941 -5.69927 -0.630138 0
M  V30 7230 N 700.437 -6.90051 -0.616589 0
M  V30 7231 N 702.23 -5.5805 -0.673558 0
M  V30 7232 H 694.381 -1.97958 0.769819 0
M  V30 7233 H 696.644 -0.90428 0.284572 0
M  V30 7234 H 696.35 -3.48458 0.47643 0
M  V30 7235 H 696.224 -3.55086 -1.27254 0
M  V30 7236 H 698.611 -2.57386 -1.44349 0
M  V30 7237 H 698.692 -2.53744 0.323695 0
M  V30 7238 H 698.336 -5.06552 0.369843 0
M  V30 7239 H 698.266 -5.07364 -1.41028 0
M  V30 7240 H 700.757 -3.72822 -0.617419 0
M  V30 7241 H 701.07 -7.70132 -0.641592 0
M  V30 7242 H 699.415 -6.92543 -0.583927 0
M  V30 7243 H 702.606 -4.63112 -0.681544 0
M  V30 7244 H 702.779 -6.44286 -0.692794 0
M  V30 7245 N 696.185 0.383891 -1.52853 0
M  V30 7246 C 697.425 1.13731 -1.69837 0
M  V30 7247 C 697.789 1.87086 -0.431611 0
M  V30 7248 O 698.99 2.64518 -0.477886 0
M  V30 7249 C 697.261 2.08551 -2.90243 0
M  V30 7250 S 698.82 2.9166 -3.27841 0
M  V30 7251 H 695.638 0.384911 -0.5978 0
M  V30 7252 H 698.24 0.42103 -1.90913 0
M  V30 7253 H 696.944 1.53392 -3.80656 0
M  V30 7254 H 696.475 2.8468 -2.71516 0
M  V30 7255 H 698.49 4.10723 -2.78426 0
M  V30 7256 N 697.663 1.43903 0.642637 0
M  V30 7257 C 698.91 1.46079 1.40239 0
M  V30 7258 C 699.238 0.0890335 1.94296 0
M  V30 7259 O 698.493 -0.907533 1.73385 0
M  V30 7260 C 698.792 2.45907 2.59354 0
M  V30 7261 C 698.458 3.91522 2.23654 0
M  V30 7262 C 697.12 4.31179 2.1363 0
M  V30 7263 C 699.472 4.83242 1.95261 0
M  V30 7264 C 696.8 5.60495 1.73384 0
M  V30 7265 C 699.152 6.12933 1.56511 0
M  V30 7266 C 697.816 6.51556 1.4502 0
M  V30 7267 H 697.086 0.534542 0.513172 0
M  V30 7268 H 699.733 1.77047 0.72984 0
M  V30 7269 H 698.038 2.08381 3.3179 0
M  V30 7270 H 699.735 2.44842 3.17574 0
M  V30 7271 H 696.325 3.60142 2.32369 0
M  V30 7272 H 700.509 4.53367 2.0192 0
M  V30 7273 H 695.765 5.89249 1.63082 0
M  V30 7274 H 699.939 6.83469 1.33576 0
M  V30 7275 H 697.566 7.51663 1.13606 0
M  V30 7276 N 699.141 -0.881989 1.30609 0
M  V30 7277 C 700.104 -1.96957 1.1722 0
M  V30 7278 C 701.104 -1.60472 0.102598 0
M  V30 7279 O 702.294 -1.70628 0.350943 0
M  V30 7280 C 699.426 -3.31463 0.796572 0
M  V30 7281 H 700.619 -2.10262 2.13846 0
M  V30 7282 H 698.172 -1.06877 1.14048 0
M  V30 7283 H 698.907 -3.23859 -0.169053 0
M  V30 7284 H 698.692 -3.59314 1.56959 0
M  V30 7285 H 700.182 -4.11233 0.72645 0
M  V30 7286 N 700.619 -1.13374 -1.09472 0
M  V30 7287 C 701.847 -0.918351 -1.85402 0
M  V30 7288 C 702.262 0.53281 -1.81126 0
M  V30 7289 O 701.619 1.36879 -1.20708 0
M  V30 7290 C 701.67 -1.39743 -3.33398 0
M  V30 7291 O 701.391 -2.79172 -3.37631 0
M  V30 7292 C 702.892 -1.22042 -4.2617 0
M  V30 7293 H 700.112 -0.327511 -0.585643 0
M  V30 7294 H 702.656 -1.50617 -1.38328 0
M  V30 7295 H 700.811 -0.852619 -3.77901 0
M  V30 7296 H 701.225 -3.00428 -4.29934 0
M  V30 7297 H 702.699 -1.60438 -5.2817 0
M  V30 7298 H 703.176 -0.162047 -4.38901 0
M  V30 7299 H 703.782 -1.75323 -3.87482 0
M  V30 7300 N 702.098 1.27442 -0.927168 0
M  V30 7301 C 703.375 1.89473 -0.485742 0
M  V30 7302 C 703.755 1.83922 1.03614 0
M  V30 7303 O 703.103 1.28409 1.89007 0
M  V30 7304 C 703.313 3.33417 -1.03123 0
M  V30 7305 C 704.661 4.10333 -1.0914 0
M  V30 7306 O 705.685 3.4243 -0.98082 0
M  V30 7307 O 704.544 5.31737 -1.26165 0
M  V30 7308 H 701.638 0.812124 -0.156154 0
M  V30 7309 H 704.184 1.35713 -1.01882 0
M  V30 7310 H 702.956 3.31747 -2.07508 0
M  V30 7311 H 702.579 3.94695 -0.479767 0
M  V30 7312 N 703.576 0.692616 1.41565 0
M  V30 7313 C 704.987 0.297478 1.84315 0
M  V30 7314 C 705.338 -1.16379 1.57957 0
M  V30 7315 O 704.463 -1.89303 1.0485 0
M  V30 7316 C 705.058 0.533136 3.34579 0
M  V30 7317 C 703.617 0.191944 3.7591 0
M  V30 7318 C 702.764 0.816873 2.64995 0
M  V30 7319 H 705.715 0.893488 1.31158 0
M  V30 7320 H 705.736 -0.209105 3.79925 0
M  V30 7321 H 705.248 1.59674 3.53731 0
M  V30 7322 H 703.349 -0.867512 3.6236 0
M  V30 7323 H 703.462 0.644902 4.7474 0
M  V30 7324 H 701.826 0.246715 2.53502 0
M  V30 7325 H 702.609 1.88429 2.86966 0
M  V30 7326 N 705.054 -1.51416 0.437162 0
M  V30 7327 C 706.331 -1.94682 -0.189292 0
M  V30 7328 C 706.711 -1.37581 -1.60108 0
M  V30 7329 O 706.059 -0.562815 -2.2146 0
M  V30 7330 C 706.269 -3.48599 -0.167201 0
M  V30 7331 C 707.617 -4.2296 -0.372856 0
M  V30 7332 O 708.641 -3.55354 -0.245323 0
M  V30 7333 O 707.5 -5.42895 -0.626693 0
M  V30 7334 H 704.594 -0.816708 -0.130063 0
M  V30 7335 H 707.14 -1.62316 0.495128 0
M  V30 7336 H 705.912 -3.82616 0.81981 0
M  V30 7337 H 705.535 -3.87406 -0.894537 0
M  V30 7338 N 706.532 -0.168513 -1.56696 0
M  V30 7339 C 707.78 0.476216 -1.96409 0
M  V30 7340 C 708.101 1.63968 -1.05544 0
M  V30 7341 O 707.371 1.95525 -0.121235 0
M  V30 7342 H 705.951 0.178921 -0.725256 0
M  V30 7343 H 708.613 -0.249042 -1.93302 0
M  V30 7344 H 707.709 0.838094 -3.00637 0
M  V30 7345 N 708.01 1.57248 0.105221 0
M  V30 7346 C 708.94 2.04374 1.12931 0
M  V30 7347 C 709.921 0.93074 1.42377 0
M  V30 7348 O 711.106 1.20136 1.52581 0
M  V30 7349 C 708.236 2.45967 2.45189 0
M  V30 7350 C 707.19 3.60838 2.30174 0
M  V30 7351 C 706.516 3.88374 3.67518 0
M  V30 7352 C 707.816 4.92084 1.75073 0
M  V30 7353 H 709.51 2.9018 0.737287 0
M  V30 7354 H 707.056 1.39601 0.353211 0
M  V30 7355 H 709.009 2.77542 3.17094 0
M  V30 7356 H 707.733 1.57148 2.86308 0
M  V30 7357 H 706.392 3.29493 1.60716 0
M  V30 7358 H 706.04 2.96739 4.06147 0
M  V30 7359 H 705.74 4.65703 3.58321 0
M  V30 7360 H 707.264 4.22415 4.40906 0
M  V30 7361 H 708.678 5.22106 2.36809 0
M  V30 7362 H 707.075 5.73507 1.76662 0
M  V30 7363 H 708.145 4.79684 0.709347 0
M  V30 7364 N 709.488 -0.375779 1.53054 0
M  V30 7365 C 710.904 -0.716764 1.426 0
M  V30 7366 C 711.104 -1.93651 0.556931 0
M  V30 7367 O 710.16 -2.52475 0.0354461 0
M  V30 7368 C 711.473 -0.939499 2.85646 0
M  V30 7369 C 713.021 -1.04015 2.95212 0
M  V30 7370 C 713.496 -1.29543 4.39298 0
M  V30 7371 N 714.987 -1.36335 4.42682 0
M  V30 7372 C 715.722 -1.57778 5.51266 0
M  V30 7373 N 715.218 -1.76604 6.69913 0
M  V30 7374 N 717.011 -1.60065 5.38828 0
M  V30 7375 H 709.162 0.42664 2.08071 0
M  V30 7376 H 711.425 0.128758 0.939215 0
M  V30 7377 H 711.131 -0.115189 3.51511 0
M  V30 7378 H 711.005 -1.85048 3.2869 0
M  V30 7379 H 713.392 -1.85501 2.29507 0
M  V30 7380 H 713.473 -0.106785 2.55577 0
M  V30 7381 H 713.117 -0.485611 5.05573 0
M  V30 7382 H 713.047 -2.24184 4.76497 0
M  V30 7383 H 715.538 -1.23441 3.5717 0
M  V30 7384 H 715.851 -1.9251 7.48438 0
M  V30 7385 H 714.196 -1.73802 6.72917 0
M  V30 7386 H 717.387 -1.44917 4.45103 0
M  V30 7387 H 717.56 -1.76435 6.23518 0
M  V30 7388 N 710.966 -1.44241 -0.634997 0
M  V30 7389 C 711.876 -1.53293 -1.77591 0
M  V30 7390 C 712.892 -0.418831 -1.68884 0
M  V30 7391 O 714.068 -0.675619 -1.8973 0
M  V30 7392 C 711.133 -1.47075 -3.13958 0
M  V30 7393 C 710.194 -2.69304 -3.34326 0
M  V30 7394 C 709.427 -2.63374 -4.64187 0
M  V30 7395 O 709.65 -1.69161 -5.44739 0
M  V30 7396 O 708.584 -3.54166 -4.86673 0
M  V30 7397 H 712.41 -2.49673 -1.72908 0
M  V30 7398 H 709.995 -1.26445 -0.795745 0
M  V30 7399 H 711.877 -1.46117 -3.95257 0
M  V30 7400 H 710.552 -0.538373 -3.19192 0
M  V30 7401 H 709.459 -2.75831 -2.52721 0
M  V30 7402 H 710.792 -3.61576 -3.33951 0
M  V30 7403 N 712.444 0.87505 -1.31075 0
M  V30 7404 C 713.374 1.99775 -1.20881 0
M  V30 7405 C 714.355 1.69822 -0.0971612 0
M  V30 7406 O 715.54 1.92158 -0.280895 0
M  V30 7407 C 712.67 3.35163 -0.910118 0
M  V30 7408 C 711.624 3.79406 -1.98078 0
M  V30 7409 C 710.95 5.12197 -1.53488 0
M  V30 7410 C 712.25 3.97061 -3.39323 0
M  V30 7411 H 713.944 2.08562 -2.14808 0
M  V30 7412 H 711.49 1.00207 -1.03415 0
M  V30 7413 H 713.443 4.13237 -0.825423 0
M  V30 7414 H 712.167 3.26536 0.064822 0
M  V30 7415 H 710.826 3.03568 -2.05528 0
M  V30 7416 H 710.474 5.00007 -0.547941 0
M  V30 7417 H 710.174 5.4277 -2.2511 0
M  V30 7418 H 711.698 5.92785 -1.46417 0
M  V30 7419 H 713.112 4.65545 -3.34576 0
M  V30 7420 H 711.509 4.39025 -4.09118 0
M  V30 7421 H 712.579 3.00601 -3.80483 0
M  V30 7422 N 713.922 1.13953 1.08869 0
M  V30 7423 C 714.852 0.844824 2.17681 0
M  V30 7424 C 715.833 -0.198213 1.68941 0
M  V30 7425 O 717.018 -0.0559073 1.9412 0
M  V30 7426 C 714.148 0.316325 3.45856 0
M  V30 7427 C 713.102 1.29426 4.07962 0
M  V30 7428 C 712.428 0.625275 5.31031 0
M  V30 7429 C 713.728 2.65484 4.49795 0
M  V30 7430 H 715.422 1.75471 2.42591 0
M  V30 7431 H 712.968 0.845116 1.16592 0
M  V30 7432 H 714.921 0.0977876 4.21287 0
M  V30 7433 H 713.645 -0.628972 3.20486 0
M  V30 7434 H 712.304 1.49889 3.34558 0
M  V30 7435 H 711.952 -0.325678 5.01945 0
M  V30 7436 H 711.652 1.27777 5.73539 0
M  V30 7437 H 713.176 0.416152 6.0918 0
M  V30 7438 H 714.59 2.48957 5.16424 0
M  V30 7439 H 712.987 3.26963 5.03205 0
M  V30 7440 H 714.057 3.22717 3.61914 0
M  V30 7441 N 715.4 -1.26948 0.933913 0
M  V30 7442 C 716.31 -2.30366 0.443671 0
M  V30 7443 C 717.326 -1.67284 -0.478745 0
M  V30 7444 O 718.502 -1.98156 -0.360043 0
M  V30 7445 C 715.567 -3.45485 -0.289974 0
M  V30 7446 C 714.628 -4.24069 0.668114 0
M  V30 7447 C 713.861 -5.33691 -0.0306138 0
M  V30 7448 O 714.084 -5.5656 -1.24888 0
M  V30 7449 O 713.018 -5.98441 0.644384 0
M  V30 7450 H 716.844 -2.74349 1.30254 0
M  V30 7451 H 714.429 -1.32012 0.699506 0
M  V30 7452 H 716.311 -4.15486 -0.70353 0
M  V30 7453 H 714.986 -3.03546 -1.12435 0
M  V30 7454 H 713.893 -3.56579 1.13147 0
M  V30 7455 H 715.226 -4.69739 1.46989 0
M  V30 7456 N 716.879 -0.700114 -1.41195 0
M  V30 7457 C 718.156 -0.160836 -1.94938 0
M  V30 7458 C 718.536 1.33014 -1.63922 0
M  V30 7459 O 717.884 2.07878 -0.948636 0
M  V30 7460 C 718.094 -0.456991 -3.45995 0
M  V30 7461 C 719.442 -0.387207 -4.22831 0
M  V30 7462 O 720.466 -0.392164 -3.54035 0
M  V30 7463 O 719.325 -0.351267 -5.4537 0
M  V30 7464 H 716.419 -0.0176304 -0.826812 0
M  V30 7465 H 718.965 -0.776586 -1.50888 0
M  V30 7466 H 717.737 -1.48884 -3.61869 0
M  V30 7467 H 717.36 0.189503 -3.97148 0
M  V30 7468 N 718.357 1.51182 -0.445186 0
M  V30 7469 C 719.597 2.04061 0.117717 0
M  V30 7470 C 719.961 1.32158 1.39278 0
M  V30 7471 O 721.162 1.75452 2.03642 0
M  V30 7472 C 719.433 3.55933 0.323445 0
M  V30 7473 S 720.992 4.30516 0.848627 0
M  V30 7474 H 717.81 0.710442 0.028165 0
M  V30 7475 H 720.412 1.85858 -0.606391 0
M  V30 7476 H 719.116 4.0583 -0.610764 0
M  V30 7477 H 718.647 3.78444 1.07441 0
M  V30 7478 H 720.662 4.48382 2.12528 0
M  V30 7479 N 719.835 0.176821 1.56605 0
M  V30 7480 C 721.081 -0.460868 1.9811 0
M  V30 7481 C 721.436 -1.60488 1.06119 0
M  V30 7482 O 720.729 -1.91329 0.101939 0
M  V30 7483 C 720.923 -0.986208 3.43524 0
M  V30 7484 C 720.752 0.105368 4.49577 0
M  V30 7485 C 719.522 0.556883 5.02222 0
M  V30 7486 C 721.72 0.907756 5.06226 0
M  V30 7487 N 719.702 1.62819 5.91915 0
M  V30 7488 C 721.073 1.82887 5.92412 0
M  V30 7489 C 723.128 0.952221 4.8871 0
M  V30 7490 C 721.831 2.7907 6.62957 0
M  V30 7491 C 723.857 1.90202 5.5998 0
M  V30 7492 C 723.219 2.8106 6.45898 0
M  V30 7493 H 719.318 -0.136589 0.769979 0
M  V30 7494 H 721.902 0.278307 1.92701 0
M  V30 7495 H 720.073 -1.69489 3.49468 0
M  V30 7496 H 721.805 -1.59298 3.7203 0
M  V30 7497 H 718.56 0.153575 4.73351 0
M  V30 7498 H 718.984 2.1645 6.41466 0
M  V30 7499 H 723.626 0.263794 4.21976 0
M  V30 7500 H 721.344 3.48898 7.28901 0
M  V30 7501 H 724.93 1.9426 5.48411 0
M  V30 7502 H 723.81 3.53357 7.00077 0
M  V30 7503 N 721.313 -1.57302 -0.09688 0
M  V30 7504 C 722.59 -1.7701 -0.832272 0
M  V30 7505 C 722.97 -0.758025 -1.97021 0
M  V30 7506 O 722.318 0.213824 -2.27497 0
M  V30 7507 C 722.528 -3.22725 -1.32851 0
M  V30 7508 C 723.876 -3.85856 -1.772 0
M  V30 7509 O 724.9 -3.26464 -1.42478 0
M  V30 7510 O 723.759 -4.90295 -2.41398 0
M  V30 7511 H 720.853 -0.725558 -0.396856 0
M  V30 7512 H 723.399 -1.69516 -0.0789005 0
M  V30 7513 H 722.171 -3.87921 -0.51312 0
M  V30 7514 H 721.794 -3.34845 -2.14394 0
M  V30 7515 N 722.791 0.367657 -1.53252 0
M  V30 7516 C 723.754 1.43308 -1.78873 0
M  V30 7517 C 724.754 1.46671 -0.659115 0
M  V30 7518 O 725.944 1.47468 -0.927306 0
M  V30 7519 C 723.076 2.82442 -1.90892 0
M  V30 7520 H 724.269 1.21864 -2.74024 0
M  V30 7521 H 721.822 0.600668 -1.44297 0
M  V30 7522 H 722.557 3.09202 -0.978 0
M  V30 7523 H 722.342 2.81399 -2.73051 0
M  V30 7524 H 723.832 3.59601 -2.12314 0
M  V30 7525 N 724.269 1.44576 0.627338 0
M  V30 7526 C 725.546 1.38033 1.38586 0
M  V30 7527 C 725.926 0.0409468 2.1106 0
M  V30 7528 O 725.274 -0.976582 2.0658 0
M  V30 7529 C 725.484 2.58102 2.34913 0
M  V30 7530 C 726.832 3.02332 2.98129 0
M  V30 7531 O 727.856 2.58334 2.45238 0
M  V30 7532 O 726.715 3.78628 3.94085 0
M  V30 7533 H 723.809 0.546801 0.620434 0
M  V30 7534 H 726.355 1.56672 0.652077 0
M  V30 7535 H 725.127 3.4719 1.80485 0
M  V30 7536 H 724.75 2.41696 3.15703 0
M  V30 7537 N 725.747 -0.868086 1.31537 0
M  V30 7538 C 727.158 -1.437 1.19195 0
M  V30 7539 C 727.509 -1.95169 -0.200842 0
M  V30 7540 O 726.634 -1.86432 -1.09872 0
M  V30 7541 C 727.229 -2.612 2.15778 0
M  V30 7542 C 725.788 -3.1413 2.07363 0
M  V30 7543 C 724.935 -1.86845 2.049 0
M  V30 7544 H 727.886 -0.676457 1.43561 0
M  V30 7545 H 727.907 -3.37948 1.74847 0
M  V30 7546 H 727.419 -2.23709 3.17137 0
M  V30 7547 H 725.52 -3.56238 1.09204 0
M  V30 7548 H 725.633 -3.76285 2.96557 0
M  V30 7549 H 723.997 -2.05886 1.49943 0
M  V30 7550 H 724.78 -1.51589 3.08019 0
M  V30 7551 N 727.225 -1.14528 -1.08264 0
M  V30 7552 C 728.135 -0.84728 -2.18765 0
M  V30 7553 C 729.151 0.172826 -1.7314 0
M  V30 7554 O 730.327 0.000985336 -2.014 0
M  V30 7555 C 727.392 -0.330633 -3.4512 0
M  V30 7556 C 726.453 -1.41348 -4.05363 0
M  V30 7557 C 725.686 -0.921387 -5.25686 0
M  V30 7558 O 725.909 0.236587 -5.69909 0
M  V30 7559 O 724.843 -1.70101 -5.77364 0
M  V30 7560 H 728.669 -1.7708 -2.46731 0
M  V30 7561 H 726.254 -0.923661 -1.17426 0
M  V30 7562 H 728.136 -0.0485053 -4.21372 0
M  V30 7563 H 726.811 0.565147 -3.18728 0
M  V30 7564 H 725.718 -1.74908 -3.30693 0
M  V30 7565 H 727.051 -2.28383 -4.36007 0
M  V30 7566 N 728.703 1.26451 -0.940633 0
M  V30 7567 C 729.666 2.24651 -0.454378 0
M  V30 7568 C 730.666 1.54826 0.434222 0
M  V30 7569 O 731.856 1.72628 0.233477 0
M  V30 7570 C 728.988 3.39148 0.345192 0
M  V30 7571 H 730.181 2.69182 -1.32217 0
M  V30 7572 H 727.734 1.38596 -0.722547 0
M  V30 7573 H 728.469 3.00018 1.23125 0
M  V30 7574 H 728.254 3.9101 -0.292107 0
M  V30 7575 H 729.744 4.12103 0.675341 0
M  V30 7576 N 730.181 0.707592 1.40822 0
M  V30 7577 C 731.597 0.38034 1.55002 0
M  V30 7578 C 731.797 -1.11163 1.68062 0
M  V30 7579 O 730.853 -1.89761 1.66574 0
M  V30 7580 C 732.166 1.1394 2.78277 0
M  V30 7581 C 733.714 1.12492 2.92087 0
M  V30 7582 C 734.189 1.86597 4.18265 0
M  V30 7583 N 735.68 1.83626 4.25248 0
M  V30 7584 C 736.415 2.37794 5.21768 0
M  V30 7585 N 735.911 3.00485 6.24244 0
M  V30 7586 N 737.704 2.27982 5.13791 0
M  V30 7587 H 729.855 1.67511 1.3059 0
M  V30 7588 H 732.118 0.707579 0.630901 0
M  V30 7589 H 731.824 2.19398 2.74877 0
M  V30 7590 H 731.698 0.725793 3.70151 0
M  V30 7591 H 734.085 0.0785564 2.94995 0
M  V30 7592 H 734.166 1.57768 2.01353 0
M  V30 7593 H 733.81 2.91219 4.16118 0
M  V30 7594 H 733.74 1.38746 5.07993 0
M  V30 7595 H 736.231 1.3793 3.51829 0
M  V30 7596 H 736.544 3.39355 6.94304 0
M  V30 7597 H 734.889 3.04567 6.24711 0
M  V30 7598 H 738.08 1.78669 4.3266 0
M  V30 7599 H 738.253 2.70499 5.88841 0
M  V30 7600 N 731.66 -1.50943 0.453197 0
M  V30 7601 C 732.59 -2.31005 -0.34044 0
M  V30 7602 C 733.571 -1.37112 -1.00669 0
M  V30 7603 O 734.756 -1.66033 -1.0073 0
M  V30 7604 C 731.886 -3.16358 -1.433 0
M  V30 7605 C 730.84 -4.18658 -0.889363 0
M  V30 7606 C 730.166 -4.92633 -2.07887 0
M  V30 7607 C 731.466 -5.22227 0.0871142 0
M  V30 7608 H 733.16 -2.97601 0.327723 0
M  V30 7609 H 730.706 -1.43119 0.159054 0
M  V30 7610 H 732.659 -3.71155 -1.99555 0
M  V30 7611 H 731.383 -2.47613 -2.12968 0
M  V30 7612 H 730.042 -3.64936 -0.348915 0
M  V30 7613 H 729.69 -4.20376 -2.76211 0
M  V30 7614 H 729.39 -5.61819 -1.72143 0
M  V30 7615 H 730.914 -5.50258 -2.64666 0
M  V30 7616 H 732.328 -5.72001 -0.385656 0
M  V30 7617 H 730.725 -5.99032 0.357926 0
M  V30 7618 H 731.795 -4.74077 1.01879 0
M  V30 7619 N 733.138 -0.185124 -1.56509 0
M  V30 7620 C 734.366 0.462139 -2.01673 0
M  V30 7621 C 734.781 1.55873 -1.06532 0
M  V30 7622 O 734.138 1.82371 -0.0684805 0
M  V30 7623 C 734.189 1.0277 -3.46584 0
M  V30 7624 O 733.91 -0.0251296 -4.38093 0
M  V30 7625 C 735.411 1.75183 -4.07217 0
M  V30 7626 H 732.631 0.117001 -0.660721 0
M  V30 7627 H 735.175 -0.290905 -2.0242 0
M  V30 7628 H 733.33 1.73118 -3.46568 0
M  V30 7629 H 733.744 0.394387 -5.23015 0
M  V30 7630 H 735.218 2.09999 -5.10494 0
M  V30 7631 H 735.695 2.6519 -3.50101 0
M  V30 7632 H 736.301 1.09445 -4.10977 0
M  V30 7633 N 734.616 1.57351 0.0885366 0
M  V30 7634 C 735.579 2.01557 1.09121 0
M  V30 7635 C 736.579 0.910052 1.3257 0
M  V30 7636 O 737.769 1.17537 1.28572 0
M  V30 7637 C 734.901 2.38189 2.43883 0
M  V30 7638 H 736.094 2.91361 0.710562 0
M  V30 7639 H 733.647 1.52694 0.333779 0
M  V30 7640 H 734.382 1.5136 2.86811 0
M  V30 7641 H 734.167 3.18846 2.28209 0
M  V30 7642 H 735.657 2.73025 3.15986 0
M  V30 7643 N 736.094 -0.359525 1.53444 0
M  V30 7644 C 737.004 -1.46445 1.83278 0
M  V30 7645 C 738.02 -1.5833 0.721629 0
M  V30 7646 O 739.196 -1.7411 1.01231 0
M  V30 7647 C 736.261 -2.81638 2.02191 0
M  V30 7648 C 735.322 -2.7923 3.26082 0
M  V30 7649 C 734.555 -4.07974 3.44082 0
M  V30 7650 O 734.778 -5.04447 2.66251 0
M  V30 7651 O 733.712 -4.13417 4.37458 0
M  V30 7652 H 737.538 -1.24156 2.77162 0
M  V30 7653 H 735.123 -0.550201 1.389 0
M  V30 7654 H 737.005 -3.61732 2.16167 0
M  V30 7655 H 735.68 -3.03892 1.11496 0
M  V30 7656 H 734.587 -1.97813 3.17523 0
M  V30 7657 H 735.92 -2.6193 4.16718 0
M  V30 7658 N 737.572 -1.44907 -0.619662 0
M  V30 7659 C 738.812 -1.49822 -1.39042 0
M  V30 7660 C 739.176 -0.131803 -1.91547 0
M  V30 7661 O 740.377 -0.0556413 -2.68742 0
M  V30 7662 C 738.648 -2.53805 -2.5163 0
M  V30 7663 S 740.207 -2.77855 -3.3962 0
M  V30 7664 H 737.025 -0.529774 -0.474195 0
M  V30 7665 H 739.627 -1.81907 -0.716236 0
M  V30 7666 H 738.331 -3.51772 -2.11387 0
M  V30 7667 H 737.862 -2.23331 -3.23863 0
M  V30 7668 H 739.877 -2.10319 -4.49422 0
M  V30 7669 N 739.05 0.861098 -1.31996 0
M  V30 7670 C 740.296 1.61721 -1.22369 0
M  V30 7671 C 740.629 1.93 0.215587 0
M  V30 7672 O 739.904 1.56789 1.15098 0
M  V30 7673 C 740.187 2.9417 -2.07691 0
M  V30 7674 C 740.04 2.69714 -3.59965 0
M  V30 7675 C 741.359 3.95372 -1.93312 0
M  V30 7676 H 738.478 0.586822 -0.44588 0
M  V30 7677 H 741.12 0.994788 -1.61876 0
M  V30 7678 H 739.27 3.47292 -1.74128 0
M  V30 7679 H 740.942 2.23196 -4.03709 0
M  V30 7680 H 739.185 2.03789 -3.82952 0
M  V30 7681 H 739.856 3.63996 -4.14983 0
M  V30 7682 H 742.332 3.51487 -2.22701 0
M  V30 7683 H 741.208 4.85916 -2.55298 0
M  V30 7684 H 741.469 4.32865 -0.898922 0
M  V30 7685 N 740.528 1.15101 1.07655 0
M  V30 7686 C 741.46 0.802722 2.14684 0
M  V30 7687 C 742.473 -0.183874 1.61758 0
M  V30 7688 O 743.662 0.0389349 1.78458 0
M  V30 7689 C 740.762 0.172135 3.38463 0
M  V30 7690 C 739.935 1.19538 4.20749 0
M  V30 7691 C 738.994 0.58714 5.22914 0
M  V30 7692 O 738.02 1.25224 5.55255 0
M  V30 7693 N 739.222 -0.632566 5.77043 0
M  V30 7694 H 741.987 1.72379 2.45164 0
M  V30 7695 H 739.548 1.04647 1.23534 0
M  V30 7696 H 741.54 -0.247465 4.03943 0
M  V30 7697 H 740.11 -0.652214 3.0572 0
M  V30 7698 H 739.33 1.79165 3.51132 0
M  V30 7699 H 740.618 1.88636 4.7254 0
M  V30 7700 H 740.016 -1.19135 5.53013 0
M  V30 7701 H 738.573 -0.994566 6.44167 0
M  V30 7702 N 742.006 -1.2595 0.947325 0
M  V30 7703 C 742.938 -2.25336 0.41906 0
M  V30 7704 C 743.951 -1.56135 -0.461051 0
M  V30 7705 O 745.14 -1.76438 -0.270505 0
M  V30 7706 C 742.24 -3.36334 -0.416233 0
M  V30 7707 C 741.413 -4.35088 0.449162 0
M  V30 7708 C 740.472 -5.25185 -0.326716 0
M  V30 7709 O 739.498 -5.68548 0.272374 0
M  V30 7710 N 740.7 -5.57388 -1.6217 0
M  V30 7711 H 743.465 -2.71298 1.27348 0
M  V30 7712 H 741.026 -1.39781 0.81688 0
M  V30 7713 H 743.018 -3.93564 -0.942826 0
M  V30 7714 H 741.588 -2.89819 -1.17148 0
M  V30 7715 H 740.808 -3.76841 1.15692 0
M  V30 7716 H 742.096 -4.98056 1.04008 0
M  V30 7717 H 741.494 -5.2405 -2.13046 0
M  V30 7718 H 740.051 -6.17234 -2.0944 0
M  V30 7719 N 743.484 -0.715051 -1.40445 0
M  V30 7720 C 744.9 -0.388555 -1.54798 0
M  V30 7721 C 745.1 1.10271 -1.68649 0
M  V30 7722 O 744.156 1.88875 -1.67578 0
M  V30 7723 C 745.469 -1.15414 -2.77669 0
M  V30 7724 C 747.017 -1.14039 -2.91486 0
M  V30 7725 C 747.492 -1.88812 -4.1727 0
M  V30 7726 N 748.983 -1.85878 -4.24268 0
M  V30 7727 C 749.718 -2.40558 -5.20499 0
M  V30 7728 N 749.214 -3.03791 -6.22642 0
M  V30 7729 N 751.007 -2.30703 -5.12574 0
M  V30 7730 H 743.158 -1.68201 -1.297 0
M  V30 7731 H 745.421 -0.710915 -0.627139 0
M  V30 7732 H 745.127 -2.20853 -2.7371 0
M  V30 7733 H 745.001 -0.745412 -3.69761 0
M  V30 7734 H 747.388 -0.0941996 -2.9495 0
M  V30 7735 H 747.469 -1.58834 -2.00513 0
M  V30 7736 H 747.113 -2.93422 -4.14568 0
M  V30 7737 H 747.043 -1.41438 -5.0725 0
M  V30 7738 H 749.534 -1.39794 -3.51093 0
M  V30 7739 H 749.847 -3.43032 -6.92495 0
M  V30 7740 H 748.192 -3.07875 -6.23087 0
M  V30 7741 H 751.383 -1.80961 -4.31707 0
M  V30 7742 H 751.556 -2.73618 -5.87398 0
M  V30 7743 N 744.962 1.50701 -0.461195 0
M  V30 7744 C 745.892 2.31182 0.328184 0
M  V30 7745 C 746.873 1.37644 0.999408 0
M  V30 7746 O 748.058 1.66565 0.99848 0
M  V30 7747 C 745.188 3.17113 1.41621 0
M  V30 7748 C 744.142 4.19124 0.867148 0
M  V30 7749 C 743.468 4.93728 2.05272 0
M  V30 7750 C 744.768 5.22174 -0.114808 0
M  V30 7751 H 746.462 2.97423 -0.343501 0
M  V30 7752 H 744.008 1.43033 -0.166641 0
M  V30 7753 H 745.961 3.72208 1.97584 0
M  V30 7754 H 744.685 2.48739 2.11652 0
M  V30 7755 H 743.344 3.65116 0.329557 0
M  V30 7756 H 742.992 4.21835 2.73978 0
M  V30 7757 H 742.692 5.62724 1.69161 0
M  V30 7758 H 744.216 5.51654 2.61744 0
M  V30 7759 H 745.63 5.72198 0.355316 0
M  V30 7760 H 744.027 5.98833 -0.389689 0
M  V30 7761 H 745.097 4.7353 -1.04391 0
M  V30 7762 N 746.441 0.193421 1.56409 0
M  V30 7763 C 747.404 -0.714371 2.17783 0
M  V30 7764 C 748.404 -1.1422 1.13183 0
M  V30 7765 O 749.594 -1.05557 1.38576 0
M  V30 7766 C 746.726 -1.97509 2.77855 0
M  V30 7767 H 747.919 -0.179714 2.99361 0
M  V30 7768 H 745.472 -0.0561944 1.56199 0
M  V30 7769 H 746.207 -2.5523 2.0007 0
M  V30 7770 H 745.992 -1.67706 3.54425 0
M  V30 7771 H 747.482 -2.62246 3.24987 0
M  V30 7772 N 747.919 -1.57396 -0.0801906 0
M  V30 7773 C 748.882 -2.02133 -1.0805 0
M  V30 7774 C 749.882 -0.91707 -1.32085 0
M  V30 7775 O 751.072 -1.18217 -1.27947 0
M  V30 7776 C 748.204 -2.39479 -2.42616 0
M  V30 7777 H 749.397 -2.91733 -0.6951 0
M  V30 7778 H 746.95 -1.52869 -0.325677 0
M  V30 7779 H 747.685 -1.52879 -2.86004 0
M  V30 7780 H 747.47 -3.20052 -2.26515 0
M  V30 7781 H 748.96 -2.74697 -3.14534 0
M  V30 7782 N 749.397 0.351382 -1.53633 0
M  V30 7783 C 750.327 1.43688 -1.84055 0
M  V30 7784 C 751.308 1.55251 -0.695073 0
M  V30 7785 O 752.493 1.69587 -0.946257 0
M  V30 7786 C 749.623 2.80843 -2.04315 0
M  V30 7787 C 748.577 2.84094 -3.20117 0
M  V30 7788 C 747.903 4.2406 -3.25696 0
M  V30 7789 C 749.203 2.50334 -4.58399 0
M  V30 7790 H 750.897 1.18478 -2.74961 0
M  V30 7791 H 748.443 0.568509 -1.32303 0
M  V30 7792 H 750.396 3.56821 -2.2418 0
M  V30 7793 H 749.12 3.07471 -1.10132 0
M  V30 7794 H 747.779 2.10568 -3.00094 0
M  V30 7795 H 747.427 4.47785 -2.29123 0
M  V30 7796 H 747.127 4.27147 -4.03509 0
M  V30 7797 H 748.651 5.0189 -3.47762 0
M  V30 7798 H 750.065 3.16025 -4.78332 0
M  V30 7799 H 748.462 2.64717 -5.38558 0
M  V30 7800 H 749.532 1.45542 -4.62543 0
M  V30 7801 N 750.875 1.45233 0.611969 0
M  V30 7802 C 751.838 1.53189 1.70487 0
M  V30 7803 C 752.838 0.411839 1.55437 0
M  V30 7804 O 754.028 0.675164 1.60584 0
M  V30 7805 C 751.16 1.42422 3.09723 0
M  V30 7806 H 752.353 2.5056 1.64802 0
M  V30 7807 H 749.906 1.32609 0.827318 0
M  V30 7808 H 750.641 0.462185 3.2099 0
M  V30 7809 H 750.426 2.23658 3.22055 0
M  V30 7810 H 751.916 1.51012 3.89339 0
M  V30 7811 N 752.353 -0.854086 1.3245 0
M  V30 7812 C 753.303 -1.9508 1.18016 0
M  V30 7813 C 754.287 -1.60665 0.0869417 0
M  V30 7814 O 755.479 -1.74201 0.313505 0
M  V30 7815 C 752.608 -3.3113 0.905961 0
M  V30 7816 C 751.694 -3.71763 2.04091 0
M  V30 7817 N 752.085 -3.84218 3.28953 0
M  V30 7818 C 750.383 -4.01393 1.94421 0
M  V30 7819 C 751.084 -4.192 4.03294 0
M  V30 7820 N 750.06 -4.30749 3.31596 0
M  V30 7821 H 753.862 -2.02843 2.12678 0
M  V30 7822 H 751.376 -1.04588 1.24238 0
M  V30 7823 H 753.373 -4.09471 0.783508 0
M  V30 7824 H 752.033 -3.24684 -0.0322715 0
M  V30 7825 H 753.044 -3.68524 3.63883 0
M  V30 7826 H 749.721 -4.03246 1.08162 0
M  V30 7827 H 751.111 -4.36301 5.1097 0
M  V30 7828 N 753.831 -1.1567 -1.07043 0
M  V30 7829 C 755.242 -0.942408 -1.61169 0
M  V30 7830 C 755.593 0.515537 -1.89306 0
M  V30 7831 O 754.718 1.38726 -1.66084 0
M  V30 7832 C 755.313 -1.70431 -2.92812 0
M  V30 7833 C 753.872 -1.53521 -3.43669 0
M  V30 7834 C 753.019 -1.7179 -2.17678 0
M  V30 7835 H 755.97 -1.3065 -0.9009 0
M  V30 7836 H 755.991 -1.17566 -3.61882 0
M  V30 7837 H 755.503 -2.76538 -2.72302 0
M  V30 7838 H 753.604 -0.498224 -3.69254 0
M  V30 7839 H 753.717 -2.31422 -4.19501 0
M  V30 7840 H 752.081 -1.14468 -2.27529 0
M  V30 7841 H 752.864 -2.79269 -1.99659 0
M  V30 7842 N 755.309 1.25446 -0.953992 0
M  V30 7843 C 756.241 2.25111 -0.431004 0
M  V30 7844 C 757.254 1.56377 0.452764 0
M  V30 7845 O 758.443 1.76579 0.261144 0
M  V30 7846 C 755.543 3.3655 0.39839 0
M  V30 7847 C 754.716 4.34843 -0.472229 0
M  V30 7848 C 753.775 5.25351 0.29886 0
M  V30 7849 O 752.801 5.68396 -0.302522 0
M  V30 7850 N 754.003 5.5824 1.59211 0
M  V30 7851 H 756.768 2.70619 -1.28785 0
M  V30 7852 H 754.329 1.39346 -0.824281 0
M  V30 7853 H 756.321 3.94059 0.921941 0
M  V30 7854 H 754.891 2.90436 1.15609 0
M  V30 7855 H 754.111 3.76222 -1.17689 0
M  V30 7856 H 755.399 4.97497 -1.06648 0
M  V30 7857 H 754.797 5.25172 2.10264 0
M  V30 7858 H 753.354 6.18336 2.06164 0
M  V30 7859 N 756.787 0.722489 1.40064 0
M  V30 7860 C 757.697 0.0755984 2.34478 0
M  V30 7861 C 758.713 -0.736046 1.57665 0
M  V30 7862 O 759.889 -0.667407 1.9002 0
M  V30 7863 C 756.954 -0.830075 3.36616 0
M  V30 7864 C 756.015 -0.00759884 4.29299 0
M  V30 7865 C 755.248 -0.870139 5.26559 0
M  V30 7866 O 755.471 -2.10921 5.2997 0
M  V30 7867 O 754.405 -0.305454 6.01124 0
M  V30 7868 H 758.231 0.854545 2.9143 0
M  V30 7869 H 755.816 0.483032 1.41376 0
M  V30 7870 H 757.698 -1.34864 3.99236 0
M  V30 7871 H 756.373 -1.58805 2.82069 0
M  V30 7872 H 755.28 0.556199 3.69942 0
M  V30 7873 H 756.613 0.712312 4.87018 0
M  V30 7874 N 758.265 -1.50454 0.469181 0
M  V30 7875 C 759.49 -2.0722 -0.0864892 0
M  V30 7876 C 759.915 -1.33098 -1.32916 0
M  V30 7877 O 759.273 -0.378084 -1.77314 0
M  V30 7878 C 759.321 -3.58845 -0.355384 0
M  V30 7879 O 758.425 -3.86583 -1.43622 0
M  V30 7880 H 757.766 -0.663889 0.0121414 0
M  V30 7881 H 760.296 -1.93674 0.659674 0
M  V30 7882 H 760.306 -4.03617 -0.596447 0
M  V30 7883 H 758.981 -4.12211 0.552698 0
M  V30 7884 H 757.558 -3.5365 -1.18262 0
M  V30 7885 N 759.743 -0.201713 -1.56304 0
M  V30 7886 C 760.693 0.729444 -2.16016 0
M  V30 7887 C 761.677 1.17164 -1.10279 0
M  V30 7888 O 762.869 1.12893 -1.36324 0
M  V30 7889 C 759.998 1.94594 -2.82822 0
M  V30 7890 C 759.084 1.52434 -3.95758 0
M  V30 7891 N 759.475 0.814106 -4.99205 0
M  V30 7892 C 757.773 1.81314 -4.07481 0
M  V30 7893 C 758.474 0.601896 -5.78578 0
M  V30 7894 N 757.45 1.15263 -5.3124 0
M  V30 7895 H 761.252 0.178163 -2.93359 0
M  V30 7896 H 758.766 -0.00218038 -1.624 0
M  V30 7897 H 760.763 2.62357 -3.23998 0
M  V30 7898 H 759.423 2.50188 -2.06969 0
M  V30 7899 H 760.434 0.468872 -5.15773 0
M  V30 7900 H 757.111 2.3837 -3.42762 0
M  V30 7901 H 758.501 0.0380119 -6.71889 0
M  V30 7902 N 761.222 1.57436 0.0718424 0
M  V30 7903 C 762.633 1.75975 0.623678 0
M  V30 7904 C 762.984 0.827155 1.77912 0
M  V30 7905 O 762.109 0.0112425 2.16397 0
M  V30 7906 C 762.704 3.1911 1.13816 0
M  V30 7907 C 761.263 3.38994 1.63586 0
M  V30 7908 C 760.41 2.71684 0.555261 0
M  V30 7909 H 763.361 1.57948 -0.154328 0
M  V30 7910 H 763.382 3.23267 2.00696 0
M  V30 7911 H 762.894 3.86962 0.296998 0
M  V30 7912 H 760.995 2.76256 2.50027 0
M  V30 7913 H 761.108 4.47436 1.71283 0
M  V30 7914 H 759.472 2.34236 1.00029 0
M  V30 7915 H 760.255 3.42191 -0.275712 0
M  V30 7916 N 762.7 -0.34323 1.53817 0
M  V30 7917 C 763.947 -1.08344 1.71079 0
M  V30 7918 C 764.275 -1.88633 0.474133 0
M  V30 7919 O 763.53 -1.87984 -0.544116 0
M  V30 7920 C 763.829 -2.05195 2.92626 0
M  V30 7921 C 763.495 -1.41215 4.28216 0
M  V30 7922 C 762.157 -1.23495 4.65083 0
M  V30 7923 C 764.509 -0.951273 5.12445 0
M  V30 7924 C 761.837 -0.583065 5.83796 0
M  V30 7925 C 764.189 -0.313292 6.31824 0
M  V30 7926 C 762.853 -0.123779 6.67385 0
M  V30 7927 H 762.123 -0.396458 0.626021 0
M  V30 7928 H 764.77 -0.362689 1.88034 0
M  V30 7929 H 763.075 -2.83653 2.70275 0
M  V30 7930 H 764.772 -2.62462 3.03175 0
M  V30 7931 H 761.362 -1.56005 3.992 0
M  V30 7932 H 765.546 -1.07602 4.84495 0
M  V30 7933 H 760.802 -0.424854 6.09922 0
M  V30 7934 H 764.976 0.0519179 6.96381 0
M  V30 7935 H 762.603 0.383398 7.59233 0
M  V30 7936 N 764.178 -1.45556 -0.604258 0
M  V30 7937 C 765.589 -1.44171 -1.18624 0
M  V30 7938 C 765.94 -0.171081 -1.95453 0
M  V30 7939 O 765.065 0.727156 -2.03817 0
M  V30 7940 C 765.66 -2.61193 -2.15786 0
M  V30 7941 C 764.219 -2.62918 -2.69353 0
M  V30 7942 C 763.366 -2.36479 -1.4482 0
M  V30 7943 H 766.317 -1.53747 -0.393381 0
M  V30 7944 H 766.338 -2.35481 -2.98879 0
M  V30 7945 H 765.85 -3.53656 -1.59841 0
M  V30 7946 H 763.951 -1.7447 -3.29228 0
M  V30 7947 H 764.064 -3.6224 -3.13559 0
M  V30 7948 H 762.428 -1.86103 -1.73891 0
M  V30 7949 H 763.211 -3.31091 -0.907376 0
M  V30 7950 N 765.656 0.84705 -1.32902 0
M  V30 7951 C 766.566 1.98845 -1.2449 0
M  V30 7952 C 767.582 1.7329 -0.15702 0
M  V30 7953 O 768.758 1.978 -0.379104 0
M  V30 7954 C 765.823 3.32679 -0.975985 0
M  V30 7955 C 764.884 3.71405 -2.15306 0
M  V30 7956 C 764.117 4.98853 -1.89688 0
M  V30 7957 O 764.34 5.64134 -0.843168 0
M  V30 7958 O 763.274 5.34889 -2.76002 0
M  V30 7959 H 767.1 2.0888 -2.2046 0
M  V30 7960 H 764.685 0.978852 -1.12867 0
M  V30 7961 H 766.567 4.12885 -0.842826 0
M  V30 7962 H 765.242 3.23667 -0.0464954 0
M  V30 7963 H 764.149 2.91743 -2.34172 0
M  V30 7964 H 765.482 3.85073 -3.06561 0
M  V30 7965 N 767.134 1.16236 1.06428 0
M  V30 7966 C 768.359 0.967688 1.83441 0
M  V30 7967 C 768.784 -0.479167 1.81894 0
M  V30 7968 O 768.142 -1.34224 1.21875 0
M  V30 7969 C 768.19 1.49806 3.2801 0
M  V30 7970 O 767.294 0.703481 4.06356 0
M  V30 7971 H 766.635 0.344468 0.56766 0
M  V30 7972 H 769.165 1.54442 1.34197 0
M  V30 7973 H 769.175 1.51495 3.78831 0
M  V30 7974 H 767.85 2.55133 3.2845 0
M  V30 7975 H 766.427 0.756986 3.65136 0
M  V30 7976 N 768.612 -1.24939 0.960631 0
M  V30 7977 C 769.852 -1.94565 0.626414 0
M  V30 7978 C 770.216 -1.73505 -0.822184 0
M  V30 7979 O 771.417 -2.37105 -1.26628 0
M  V30 7980 C 769.688 -3.43631 0.982462 0
M  V30 7981 S 771.247 -4.32138 0.761726 0
M  V30 7982 H 768.065 -0.672757 0.230043 0
M  V30 7983 H 770.667 -1.51464 1.23608 0
M  V30 7984 H 769.371 -3.56463 2.03377 0
M  V30 7985 H 768.902 -3.91719 0.363286 0
M  V30 7986 H 770.917 -4.94859 -0.364493 0
M  V30 7987 N 770.09 -0.729906 -1.39679 0
M  V30 7988 C 771.501 -0.346241 -1.83461 0
M  V30 7989 C 771.852 1.1215 -1.60987 0
M  V30 7990 O 770.977 1.86456 -1.09832 0
M  V30 7991 C 771.572 -0.621656 -3.33048 0
M  V30 7992 C 770.131 -0.291543 -3.75269 0
M  V30 7993 C 769.278 -0.886844 -2.62736 0
M  V30 7994 H 772.229 -0.927949 -1.28743 0
M  V30 7995 H 772.25 0.108301 -3.80346 0
M  V30 7996 H 771.762 -1.68996 -3.49373 0
M  V30 7997 H 769.863 0.771133 -3.64533 0
M  V30 7998 H 769.976 -0.770544 -4.72863 0
M  V30 7999 H 768.34 -0.313839 -2.52759 0
M  V30 8000 H 769.123 -1.95971 -2.81869 0
M  V30 8001 N 771.568 1.50203 -0.477153 0
M  V30 8002 C 772.984 1.59056 -0.131663 0
M  V30 8003 C 773.184 1.48473 1.36227 0
M  V30 8004 O 772.24 1.34635 2.13611 0
M  V30 8005 C 773.553 2.92741 -0.687254 0
M  V30 8006 C 775.101 3.0615 -0.651223 0
M  V30 8007 C 775.576 4.42419 -1.18446 0
M  V30 8008 N 777.067 4.48847 -1.14413 0
M  V30 8009 C 777.802 5.52689 -1.52717 0
M  V30 8010 N 777.298 6.63754 -1.98499 0
M  V30 8011 N 779.091 5.43267 -1.44282 0
M  V30 8012 H 771.242 1.55325 -1.44872 0
M  V30 8013 H 773.505 0.734395 -0.599473 0
M  V30 8014 H 773.211 3.0598 -1.73405 0
M  V30 8015 H 773.085 3.76961 -0.134215 0
M  V30 8016 H 775.472 2.92556 0.386677 0
M  V30 8017 H 775.553 2.23673 -1.24114 0
M  V30 8018 H 775.197 4.56763 -2.22103 0
M  V30 8019 H 775.127 5.23498 -0.570709 0
M  V30 8020 H 777.618 3.69152 -0.808416 0
M  V30 8021 H 777.931 7.39059 -2.25859 0
M  V30 8022 H 776.276 6.64858 -2.02456 0
M  V30 8023 H 779.467 4.55387 -1.08352 0
M  V30 8024 H 779.64 6.24074 -1.74459 0
M  V30 8025 N 773.046 0.209999 1.56195 0
M  V30 8026 C 774.294 -0.423974 1.97603 0
M  V30 8027 C 774.615 -1.61112 1.09854 0
M  V30 8028 O 773.885 -1.95134 0.173032 0
M  V30 8029 H 772.465 -0.159629 0.729745 0
M  V30 8030 H 775.127 0.300205 1.92574 0
M  V30 8031 H 774.223 -0.75809 3.02753 0
M  V30 8032 N 774.524 -1.57472 -0.0634922 0
M  V30 8033 C 775.764 -1.89491 -0.766312 0
M  V30 8034 C 776.128 -0.80475 -1.74321 0
M  V30 8035 O 777.329 -1.00825 -2.49174 0
M  V30 8036 C 775.6 -3.26731 -1.44851 0
M  V30 8037 S 777.159 -3.80516 -2.18525 0
M  V30 8038 H 773.977 -0.663832 -0.254653 0
M  V30 8039 H 776.579 -1.95488 -0.0220867 0
M  V30 8040 H 775.283 -4.03967 -0.723824 0
M  V30 8041 H 774.814 -3.23953 -2.232 0
M  V30 8042 H 776.829 -3.5647 -3.45172 0
M  V30 8043 N 776.003 0.335068 -1.53997 0
M  V30 8044 C 777.414 0.910191 -1.6301 0
M  V30 8045 C 777.765 1.89271 -0.516809 0
M  V30 8046 O 776.89 2.13516 0.352123 0
M  V30 8047 C 777.485 1.65761 -2.9548 0
M  V30 8048 C 776.044 2.18163 -3.06728 0
M  V30 8049 C 775.191 1.00338 -2.5851 0
M  V30 8050 H 778.142 0.112965 -1.58297 0
M  V30 8051 H 778.163 2.52107 -2.84995 0
M  V30 8052 H 777.675 0.94227 -3.76488 0
M  V30 8053 H 775.776 2.92847 -2.30372 0
M  V30 8054 H 775.889 2.43952 -4.1234 0
M  V30 8055 H 774.253 1.37925 -2.14124 0
M  V30 8056 H 775.036 0.30254 -3.41964 0
M  V30 8057 N 777.481 1.45874 0.596531 0
M  V30 8058 C 778.892 1.44798 1.17857 0
M  V30 8059 C 779.243 0.181443 1.95359 0
M  V30 8060 O 778.368 -0.716336 2.042 0
M  V30 8061 C 778.963 2.62333 2.14398 0
M  V30 8062 C 777.522 2.64342 2.67955 0
M  V30 8063 C 776.669 2.37244 1.43564 0
M  V30 8064 H 779.62 1.53954 0.385222 0
M  V30 8065 H 779.641 2.37063 2.97626 0
M  V30 8066 H 779.153 3.54499 1.57963 0
M  V30 8067 H 777.254 1.76213 3.28298 0
M  V30 8068 H 777.367 3.63897 3.11634 0
M  V30 8069 H 775.731 1.87022 1.72901 0
M  V30 8070 H 776.514 3.31568 0.889805 0
M  V30 8071 N 778.959 -0.83999 1.33349 0
M  V30 8072 C 779.889 -1.965 1.26135 0
M  V30 8073 C 780.87 -1.69505 0.142152 0
M  V30 8074 O 782.055 -1.91346 0.331743 0
M  V30 8075 C 779.185 -3.32632 0.99866 0
M  V30 8076 C 778.139 -3.74021 2.08068 0
M  V30 8077 C 777.465 -5.07947 1.67014 0
M  V30 8078 C 778.765 -3.87925 3.49731 0
M  V30 8079 H 780.459 -2.02793 2.20262 0
M  V30 8080 H 778.005 -0.974297 1.06035 0
M  V30 8081 H 779.958 -4.10903 0.934696 0
M  V30 8082 H 778.682 -3.26593 0.0217759 0
M  V30 8083 H 777.341 -2.98012 2.13505 0
M  V30 8084 H 776.989 -4.98378 0.680316 0
M  V30 8085 H 776.689 -5.36611 2.39422 0
M  V30 8086 H 778.213 -5.88695 1.62082 0
M  V30 8087 H 779.627 -4.5651 3.46802 0
M  V30 8088 H 778.024 -4.28023 4.20614 0
M  V30 8089 H 779.094 -2.90407 3.88319 0
M  V30 8090 N 780.437 -1.16799 -1.0581 0
M  V30 8091 C 781.677 -0.963264 -1.80279 0
M  V30 8092 C 782.041 0.499671 -1.85384 0
M  V30 8093 O 783.242 0.823264 -2.55882 0
M  V30 8094 C 781.513 -1.57938 -3.20609 0
M  V30 8095 S 783.072 -1.51997 -4.11634 0
M  V30 8096 H 779.89 -0.346302 -0.620964 0
M  V30 8097 H 782.492 -1.48632 -1.26999 0
M  V30 8098 H 781.196 -2.63672 -3.14492 0
M  V30 8099 H 780.727 -1.05586 -3.78966 0
M  V30 8100 H 782.742 -0.523625 -4.93429 0
M  V30 8101 N 781.915 1.24427 -0.967243 0
M  V30 8102 C 783.326 1.74349 -0.667785 0
M  V30 8103 C 783.677 1.78403 0.816509 0
M  V30 8104 O 782.802 1.41315 1.63887 0
M  V30 8105 C 783.397 3.16628 -1.20548 0
M  V30 8106 C 781.956 3.64059 -0.955934 0
M  V30 8107 C 781.103 2.42715 -1.34106 0
M  V30 8108 H 784.054 1.10136 -1.14262 0
M  V30 8109 H 784.075 3.76183 -0.571547 0
M  V30 8110 H 783.587 3.13646 -2.28578 0
M  V30 8111 H 781.688 3.72441 0.108858 0
M  V30 8112 H 781.801 4.51549 -1.60126 0
M  V30 8113 H 780.165 2.43114 -0.759452 0
M  V30 8114 H 780.948 2.42414 -2.43085 0
M  V30 8115 N 783.393 0.737304 1.3929 0
M  V30 8116 C 784.303 0.100464 2.34385 0
M  V30 8117 C 785.319 -0.719282 1.58437 0
M  V30 8118 O 786.495 -0.647216 1.90717 0
M  V30 8119 C 783.56 -0.794325 3.37478 0
M  V30 8120 C 782.621 0.0379345 4.29283 0
M  V30 8121 C 781.854 -0.814241 5.27452 0
M  V30 8122 O 782.077 -2.05288 5.32177 0
M  V30 8123 O 781.011 -0.241679 6.01415 0
M  V30 8124 H 784.837 0.885407 2.90507 0
M  V30 8125 H 782.422 0.497999 1.40856 0
M  V30 8126 H 784.304 -1.30622 4.00644 0
M  V30 8127 H 782.979 -1.55804 2.83737 0
M  V30 8128 H 781.886 0.595405 3.69331 0
M  V30 8129 H 783.219 0.763926 4.86236 0
M  V30 8130 N 784.871 -1.49948 0.485112 0
M  V30 8131 C 786.148 -1.95186 -0.12726 0
M  V30 8132 C 786.528 -1.42605 -1.5565 0
M  V30 8133 O 785.876 -0.632986 -2.19558 0
M  V30 8134 C 786.086 -3.48955 -0.0562117 0
M  V30 8135 C 787.434 -4.23932 -0.238106 0
M  V30 8136 O 788.458 -3.55955 -0.132145 0
M  V30 8137 O 787.317 -5.44614 -0.453658 0
M  V30 8138 H 784.411 -0.820433 -0.104014 0
M  V30 8139 H 786.957 -1.60659 0.546517 0
M  V30 8140 H 785.729 -3.79814 0.941122 0
M  V30 8141 H 785.352 -3.90056 -0.770834 0
M  V30 8142 N 786.349 -0.21828 -1.56081 0
M  V30 8143 C 787.589 0.416193 -2.00118 0
M  V30 8144 C 787.953 1.5718 -1.10265 0
M  V30 8145 O 789.154 2.27206 -1.43635 0
M  V30 8146 C 787.425 0.842781 -3.47321 0
M  V30 8147 S 788.984 1.47182 -4.1338 0
M  V30 8148 H 785.802 0.132219 -0.698598 0
M  V30 8149 H 788.404 -0.326799 -1.92749 0
M  V30 8150 H 787.108 -0.00799925 -4.10399 0
M  V30 8151 H 786.639 1.61867 -3.58556 0
M  V30 8152 H 788.654 2.76087 -4.12299 0
M  V30 8153 N 787.827 1.57504 0.0551401 0
M  V30 8154 C 789.055 1.92294 0.76358 0
M  V30 8155 C 789.47 0.815774 1.70266 0
M  V30 8156 O 788.827 -0.209772 1.8129 0
M  V30 8157 C 788.878 3.26914 1.54302 0
M  V30 8158 O 788.599 4.33375 0.641666 0
M  V30 8159 C 790.1 3.75825 2.35097 0
M  V30 8160 H 787.32 0.635229 0.216159 0
M  V30 8161 H 789.864 2.0449 0.0204385 0
M  V30 8162 H 788.019 3.16196 2.23828 0
M  V30 8163 H 788.433 5.10927 1.1855 0
M  V30 8164 H 789.907 4.72603 2.8522 0
M  V30 8165 H 790.384 3.0568 3.15367 0
M  V30 8166 H 790.99 3.89542 1.70696 0
M  V30 8167 N 789.305 -0.326896 1.54172 0
M  V30 8168 C 790.53 -1.08924 1.76494 0
M  V30 8169 C 790.955 -1.81039 0.510523 0
M  V30 8170 O 790.313 -1.73141 -0.537756 0
M  V30 8171 C 790.361 -2.06558 2.95578 0
M  V30 8172 O 789.465 -3.14394 2.6689 0
M  V30 8173 H 788.806 -0.314216 0.584948 0
M  V30 8174 H 791.336 -0.372207 2.01186 0
M  V30 8175 H 791.346 -2.49487 3.22832 0
M  V30 8176 H 790.021 -1.53469 3.86549 0
M  V30 8177 H 788.598 -2.76164 2.50576 0
M  V30 8178 N 790.784 -1.46188 -0.588786 0
M  V30 8179 C 792.033 -1.50452 -1.34339 0
M  V30 8180 C 792.346 -0.158096 -1.9496 0
M  V30 8181 O 793.552 -0.0784918 -2.71387 0
M  V30 8182 C 792.008 -2.65074 -2.43441 0
M  V30 8183 C 791.616 -4.06111 -1.8915 0
M  V30 8184 C 793.36 -2.78603 -3.20282 0
M  V30 8185 C 791.267 -5.12084 -2.95845 0
M  V30 8186 H 790.197 -0.559905 -0.504997 0
M  V30 8187 H 792.848 -1.72382 -0.629014 0
M  V30 8188 H 791.23 -2.36462 -3.1765 0
M  V30 8189 H 792.404 -4.44487 -1.21524 0
M  V30 8190 H 790.719 -3.97197 -1.24995 0
M  V30 8191 H 793.316 -3.54944 -3.99898 0
M  V30 8192 H 793.659 -1.85902 -3.72486 0
M  V30 8193 H 794.192 -3.06832 -2.53178 0
M  V30 8194 H 790.931 -6.06556 -2.48535 0
M  V30 8195 H 790.451 -4.78259 -3.61979 0
M  V30 8196 H 792.13 -5.37661 -3.59902 0
M  V30 8197 N 792.262 0.832906 -1.33792 0
M  V30 8198 C 793.673 1.40489 -1.22963 0
M  V30 8199 C 794.024 1.95633 0.149026 0
M  V30 8200 O 793.149 1.8928 1.04891 0
M  V30 8201 C 793.744 2.55387 -2.22627 0
M  V30 8202 C 792.303 3.08522 -2.15618 0
M  V30 8203 C 791.45 1.81347 -2.09782 0
M  V30 8204 H 794.401 0.638156 -1.45304 0
M  V30 8205 H 794.422 3.33193 -1.83746 0
M  V30 8206 H 793.934 2.15222 -3.22957 0
M  V30 8207 H 792.035 3.53217 -1.18611 0
M  V30 8208 H 792.148 3.6829 -3.0643 0
M  V30 8209 H 790.512 2.01839 -1.55349 0
M  V30 8210 H 791.295 1.43369 -3.1193 0
M  V30 8211 N 793.74 1.17359 1.05189 0
M  V30 8212 C 794.703 0.892604 2.11105 0
M  V30 8213 C 795.703 -0.117236 1.60372 0
M  V30 8214 O 796.893 0.114936 1.7382 0
M  V30 8215 C 794.025 0.337032 3.3923 0
M  V30 8216 H 795.218 1.83169 2.37464 0
M  V30 8217 H 792.771 0.984051 1.21434 0
M  V30 8218 H 793.506 -0.609198 3.18527 0
M  V30 8219 H 793.291 1.06484 3.77364 0
M  V30 8220 H 794.781 0.158763 4.17298 0
M  V30 8221 N 795.218 -1.23913 0.973828 0
M  V30 8222 C 796.629 -1.73992 0.677021 0
M  V30 8223 C 796.98 -1.78833 -0.807036 0
M  V30 8224 O 796.105 -1.42183 -1.63135 0
M  V30 8225 C 796.7 -3.15985 1.22226 0
M  V30 8226 C 795.259 -3.63547 0.975228 0
M  V30 8227 C 794.406 -2.42001 1.35392 0
M  V30 8228 H 797.357 -1.09529 1.14844 0
M  V30 8229 H 797.378 -3.75875 0.591489 0
M  V30 8230 H 796.89 -3.12429 2.30238 0
M  V30 8231 H 794.991 -3.72493 -0.0891047 0
M  V30 8232 H 795.104 -4.50693 1.62518 0
M  V30 8233 H 793.468 -2.42708 0.772334 0
M  V30 8234 H 794.251 -2.41122 2.44367 0
M  V30 8235 N 796.696 -0.74468 -1.38897 0
M  V30 8236 C 797.924 -0.307428 -2.04603 0
M  V30 8237 C 798.339 1.06115 -1.56157 0
M  V30 8238 O 797.696 1.67233 -0.730701 0
M  V30 8239 C 797.747 -0.31101 -3.6016 0
M  V30 8240 O 797.468 -1.62557 -4.06825 0
M  V30 8241 C 798.969 0.141213 -4.43075 0
M  V30 8242 H 796.189 -0.132741 -0.657739 0
M  V30 8243 H 798.733 -1.01104 -1.77759 0
M  V30 8244 H 796.888 0.343792 -3.85872 0
M  V30 8245 H 797.302 -1.54569 -5.01207 0
M  V30 8246 H 798.776 0.0875449 -5.51931 0
M  V30 8247 H 799.253 1.18782 -4.22833 0
M  V30 8248 H 799.859 -0.484383 -4.22533 0
M  V30 8249 N 798.174 1.49689 -0.493057 0
M  V30 8250 C 799.423 2.01622 0.0560733 0
M  V30 8251 C 799.736 1.37838 1.3878 0
M  V30 8252 O 800.942 1.81054 2.02316 0
M  V30 8253 C 799.398 3.59586 0.150409 0
M  V30 8254 C 799.006 4.32338 -1.1742 0
M  V30 8255 C 800.75 4.19489 0.650327 0
M  V30 8256 C 798.657 5.8214 -1.04246 0
M  V30 8257 H 797.587 0.753594 0.0247297 0
M  V30 8258 H 800.238 1.723 -0.631279 0
M  V30 8259 H 798.62 3.8559 0.902035 0
M  V30 8260 H 799.794 4.18042 -1.9385 0
M  V30 8261 H 798.109 3.84144 -1.60694 0
M  V30 8262 H 800.706 5.29181 0.766272 0
M  V30 8263 H 801.049 3.82326 1.6472 0
M  V30 8264 H 801.582 3.97775 -0.0445371 0
M  V30 8265 H 798.321 6.23814 -2.01336 0
M  V30 8266 H 797.841 5.98952 -0.31892 0
M  V30 8267 H 799.52 6.43004 -0.717957 0
M  V30 8268 N 799.652 0.226554 1.55963 0
M  V30 8269 C 800.582 -0.676079 2.23498 0
M  V30 8270 C 801.563 -1.19718 1.20837 0
M  V30 8271 O 802.748 -1.24027 1.49436 0
M  V30 8272 C 799.878 -1.88217 2.91876 0
M  V30 8273 C 798.832 -1.4947 4.01052 0
M  V30 8274 C 798.158 -2.77997 4.56751 0
M  V30 8275 C 799.458 -0.680951 5.17842 0
M  V30 8276 H 801.152 -0.112989 2.99187 0
M  V30 8277 H 798.698 -0.0529046 1.43903 0
M  V30 8278 H 800.651 -2.51911 3.37815 0
M  V30 8279 H 799.375 -2.47031 2.13643 0
M  V30 8280 H 798.034 -0.881199 3.55852 0
M  V30 8281 H 797.682 -3.34966 3.75243 0
M  V30 8282 H 797.382 -2.52803 5.30438 0
M  V30 8283 H 798.906 -3.42625 5.05411 0
M  V30 8284 H 800.32 -1.22171 5.60131 0
M  V30 8285 H 798.717 -0.525898 5.97791 0
M  V30 8286 H 799.787 0.311346 4.83899 0
M  V30 8287 N 801.13 -1.57531 -0.0467866 0
M  V30 8288 C 802.541 -1.76945 -0.595603 0
M  V30 8289 C 802.892 -0.855354 -1.76573 0
M  V30 8290 O 802.017 -0.045668 -2.16352 0
M  V30 8291 C 802.612 -3.20881 -1.08725 0
M  V30 8292 C 801.171 -3.41553 -1.58172 0
M  V30 8293 C 800.318 -2.72533 -0.511968 0
M  V30 8294 H 803.269 -1.57682 0.179436 0
M  V30 8295 H 803.29 -3.26419 -1.95528 0
M  V30 8296 H 802.802 -3.87385 -0.235398 0
M  V30 8297 H 800.903 -2.80199 -2.456 0
M  V30 8298 H 801.016 -4.50104 -1.64143 0
M  V30 8299 H 799.38 -2.35797 -0.962899 0
M  V30 8300 H 800.163 -3.41709 0.330117 0
M  V30 8301 N 802.608 0.318715 -1.54344 0
M  V30 8302 C 803.848 1.06425 -1.74508 0
M  V30 8303 C 804.212 1.85087 -0.510572 0
M  V30 8304 O 805.413 2.62253 -0.589647 0
M  V30 8305 C 803.684 1.96054 -2.98827 0
M  V30 8306 S 805.243 2.77493 -3.39916 0
M  V30 8307 H 802.061 0.35921 -0.613587 0
M  V30 8308 H 804.663 0.339679 -1.92526 0
M  V30 8309 H 803.367 1.37109 -3.8682 0
M  V30 8310 H 802.898 2.72908 -2.83346 0
M  V30 8311 H 804.913 3.98544 -2.95596 0
M  V30 8312 N 804.086 1.46499 0.581025 0
M  V30 8313 C 805.502 1.31491 0.904563 0
M  V30 8314 C 805.702 0.287598 1.99437 0
M  V30 8315 O 804.758 -0.309247 2.50599 0
M  V30 8316 C 806.071 2.70163 1.32032 0
M  V30 8317 C 807.619 2.78266 1.43308 0
M  V30 8318 C 808.094 4.17524 1.8825 0
M  V30 8319 N 809.585 4.19949 1.9544 0
M  V30 8320 C 810.32 5.24594 2.31493 0
M  V30 8321 N 809.816 6.39564 2.66326 0
M  V30 8322 N 811.609 5.11961 2.32062 0
M  V30 8323 H 803.76 2.11946 -0.138856 0
M  V30 8324 H 806.023 0.948 0.000548528 0
M  V30 8325 H 805.729 3.46655 0.593554 0
M  V30 8326 H 805.603 3.00379 2.2815 0
M  V30 8327 H 807.99 2.02061 2.15071 0
M  V30 8328 H 808.071 2.51732 0.45438 0
M  V30 8329 H 807.715 4.94225 1.17065 0
M  V30 8330 H 807.645 4.41466 2.87081 0
M  V30 8331 H 810.136 3.36996 1.71004 0
M  V30 8332 H 810.449 7.15187 2.92793 0
M  V30 8333 H 808.794 6.42923 2.6396 0
M  V30 8334 H 811.985 4.21177 2.04272 0
M  V30 8335 H 812.158 5.93626 2.5983 0
M  V30 8336 N 805.565 -0.825799 1.34232 0
M  V30 8337 C 806.976 -1.39835 1.23706 0
M  V30 8338 C 807.327 -1.95709 -0.138649 0
M  V30 8339 O 806.452 -1.89833 -1.03886 0
M  V30 8340 C 807.047 -2.54203 2.23978 0
M  V30 8341 C 805.606 -3.07374 2.17251 0
M  V30 8342 C 804.753 -1.80232 2.10741 0
M  V30 8343 H 807.704 -0.630442 1.4564 0
M  V30 8344 H 807.725 -3.32214 1.8551 0
M  V30 8345 H 807.237 -2.13506 3.24094 0
M  V30 8346 H 805.338 -3.52583 1.20483 0
M  V30 8347 H 805.451 -3.6666 3.08379 0
M  V30 8348 H 803.815 -2.01012 1.56417 0
M  V30 8349 H 804.598 -1.41713 3.12686 0
M  V30 8350 N 807.043 -1.17915 -1.04565 0
M  V30 8351 C 807.975 -0.859359 -2.1248 0
M  V30 8352 C 808.988 0.140922 -1.62189 0
M  V30 8353 O 810.177 -0.0862361 -1.78292 0
M  V30 8354 C 807.277 -0.261811 -3.37887 0
M  V30 8355 C 806.45 -1.30651 -4.17431 0
M  V30 8356 C 805.509 -0.725575 -5.21174 0
M  V30 8357 O 804.535 -1.39901 -5.51739 0
M  V30 8358 N 805.737 0.479351 -5.78517 0
M  V30 8359 H 808.502 -1.78818 -2.40508 0
M  V30 8360 H 806.063 -1.07885 -1.20716 0
M  V30 8361 H 808.055 0.14028 -4.04457 0
M  V30 8362 H 806.625 0.570929 -3.07342 0
M  V30 8363 H 805.845 -1.88412 -3.46258 0
M  V30 8364 H 807.133 -2.01099 -4.67372 0
M  V30 8365 H 806.531 1.04431 -5.55977 0
M  V30 8366 H 805.088 0.823427 -6.46578 0
M  V30 8367 N 808.521 1.23394 -0.980386 0
M  V30 8368 C 809.937 1.43961 -0.689008 0
M  V30 8369 C 810.137 1.87229 0.744809 0
M  V30 8370 O 809.193 2.01831 1.51725 0
M  V30 8371 C 810.506 2.49128 -1.68392 0
M  V30 8372 C 812.054 2.62941 -1.69796 0
M  V30 8373 C 812.529 3.71317 -2.68118 0
M  V30 8374 N 814.02 3.7876 -2.66636 0
M  V30 8375 C 814.755 4.62176 -3.39383 0
M  V30 8376 N 814.251 5.49682 -4.21688 0
M  V30 8377 N 816.044 4.56372 -3.28147 0
M  V30 8378 H 808.195 0.936106 -1.90659 0
M  V30 8379 H 810.458 0.473023 -0.821555 0
M  V30 8380 H 810.164 2.24252 -2.70931 0
M  V30 8381 H 810.038 3.47514 -1.46675 0
M  V30 8382 H 812.425 2.87168 -0.679617 0
M  V30 8383 H 812.506 1.64871 -1.95579 0
M  V30 8384 H 812.15 3.4784 -3.70095 0
M  V30 8385 H 812.08 4.68929 -2.3961 0
M  V30 8386 H 814.571 3.16226 -2.06904 0
M  V30 8387 H 814.884 6.10323 -4.74053 0
M  V30 8388 H 813.229 5.49306 -4.25779 0
M  V30 8389 H 816.42 3.87029 -2.63299 0
M  V30 8390 H 816.593 5.21153 -3.85102 0
M  V30 8391 N 809.999 0.752036 1.385 0
M  V30 8392 C 811.224 0.316993 2.04963 0
M  V30 8393 C 811.649 -1.04582 1.56346 0
M  V30 8394 O 811.007 -1.66616 0.714755 0
M  V30 8395 C 811.055 0.347235 3.58924 0
M  V30 8396 O 810.159 -0.659296 4.07096 0
M  V30 8397 H 809.5 0.140652 0.648932 0
M  V30 8398 H 812.03 1.02272 1.77205 0
M  V30 8399 H 812.04 0.19757 4.07521 0
M  V30 8400 H 810.715 1.34157 3.93668 0
M  V30 8401 H 809.292 -0.474371 3.6987 0
M  V30 8402 N 811.477 -1.49425 0.500989 0
M  V30 8403 C 812.44 -2.27646 -0.266416 0
M  V30 8404 C 813.44 -1.3366 -0.893961 0
M  V30 8405 O 814.63 -1.5682 -0.758495 0
M  V30 8406 C 811.762 -3.11618 -1.38227 0
M  V30 8407 H 812.955 -2.96945 0.419973 0
M  V30 8408 H 810.508 -1.5419 0.255954 0
M  V30 8409 H 811.243 -2.46885 -2.10281 0
M  V30 8410 H 811.028 -3.80721 -0.937746 0
M  V30 8411 H 812.518 -3.70698 -1.92283 0
M  V30 8412 N 812.955 -0.234822 -1.55841 0
M  V30 8413 C 814.195 0.394944 -2.00548 0
M  V30 8414 C 814.559 1.56002 -1.11926 0
M  V30 8415 O 815.76 2.2567 -1.46037 0
M  V30 8416 C 814.031 0.805896 -3.48195 0
M  V30 8417 S 815.59 1.4279 -4.14918 0
M  V30 8418 H 812.408 0.124802 -0.699961 0
M  V30 8419 H 815.01 -0.347224 -1.92392 0
M  V30 8420 H 813.714 -0.0515271 -4.10368 0
M  V30 8421 H 813.245 1.58055 -3.60253 0
M  V30 8422 H 815.26 2.71699 -4.15204 0
M  V30 8423 N 814.433 1.57553 0.0384317 0
M  V30 8424 C 815.383 2.02404 1.0496 0
M  V30 8425 C 816.367 0.911705 1.32577 0
M  V30 8426 O 817.559 1.17561 1.32319 0
M  V30 8427 C 814.688 2.49924 2.35357 0
M  V30 8428 C 813.774 3.6796 2.1087 0
M  V30 8429 N 814.165 4.81009 1.56411 0
M  V30 8430 C 812.463 3.75153 2.41197 0
M  V30 8431 C 813.164 5.62686 1.47512 0
M  V30 8432 N 812.14 5.0752 1.94742 0
M  V30 8433 H 815.942 2.87234 0.622399 0
M  V30 8434 H 813.456 1.60543 0.244916 0
M  V30 8435 H 815.453 2.80312 3.08595 0
M  V30 8436 H 814.113 1.66496 2.78763 0
M  V30 8437 H 815.124 5.02636 1.2481 0
M  V30 8438 H 811.801 3.02507 2.87742 0
M  V30 8439 H 813.191 6.6349 1.05976 0
M  V30 8440 N 815.911 -0.310526 1.54511 0
M  V30 8441 C 817.158 -1.04691 1.73338 0
M  V30 8442 C 817.486 -1.87584 0.514038 0
M  V30 8443 O 816.741 -1.89096 -0.504119 0
M  V30 8444 C 817.04 -1.98942 2.96912 0
M  V30 8445 C 816.706 -1.321 4.31115 0
M  V30 8446 C 815.368 -1.13603 4.67598 0
M  V30 8447 C 817.72 -0.842362 5.14348 0
M  V30 8448 C 815.048 -0.459102 5.84901 0
M  V30 8449 C 817.4 -0.179202 6.32346 0
M  V30 8450 C 816.064 0.0178111 6.67498 0
M  V30 8451 H 815.334 -0.38309 0.634289 0
M  V30 8452 H 817.981 -0.322723 1.88761 0
M  V30 8453 H 816.286 -2.77856 2.76231 0
M  V30 8454 H 817.983 -2.55972 3.08674 0
M  V30 8455 H 814.573 -1.47502 4.02419 0
M  V30 8456 H 818.757 -0.973013 4.86668 0
M  V30 8457 H 814.013 -0.295385 6.10686 0
M  V30 8458 H 818.187 0.199619 6.96114 0
M  V30 8459 H 815.814 0.544356 7.58249 0
M  V30 8460 N 817.389 -1.46805 -0.573248 0
M  V30 8461 C 818.614 -1.56433 -1.36175 0
M  V30 8462 C 819.039 -0.209336 -1.86932 0
M  V30 8463 O 818.397 0.812146 -1.62092 0
M  V30 8464 C 818.445 -2.58055 -2.51873 0
M  V30 8465 O 817.549 -2.12214 -3.53609 0
M  V30 8466 H 816.89 -0.526068 -0.405153 0
M  V30 8467 H 819.42 -1.92456 -0.694405 0
M  V30 8468 H 819.43 -2.77966 -2.98662 0
M  V30 8469 H 818.105 -3.56448 -2.14284 0
M  V30 8470 H 816.682 -2.02333 -3.13234 0
M  V30 8471 N 818.867 0.818669 -1.34668 0
M  V30 8472 C 820.113 1.57746 -1.27453 0
M  V30 8473 C 820.446 1.93588 0.154077 0
M  V30 8474 O 819.721 1.60371 1.10051 0
M  V30 8475 C 820.004 2.87414 -2.16945 0
M  V30 8476 C 819.857 2.58125 -3.68363 0
M  V30 8477 C 821.176 3.89021 -2.05792 0
M  V30 8478 H 818.295 0.572339 -0.464324 0
M  V30 8479 H 820.937 0.942784 -1.64959 0
M  V30 8480 H 819.087 3.41576 -1.85089 0
M  V30 8481 H 820.759 2.10239 -4.10606 0
M  V30 8482 H 819.002 1.91503 -3.89242 0
M  V30 8483 H 819.673 3.5061 -4.26353 0
M  V30 8484 H 822.149 3.44224 -2.33771 0
M  V30 8485 H 821.025 4.77548 -2.70628 0
M  V30 8486 H 821.286 4.29786 -1.03618 0
M  V30 8487 N 820.346 1.18468 1.03938 0
M  V30 8488 C 821.278 0.870615 2.12021 0
M  V30 8489 C 822.291 -0.132318 1.62261 0
M  V30 8490 O 823.48 0.0956901 1.78243 0
M  V30 8491 C 820.58 0.279727 3.37744 0
M  V30 8492 C 819.753 1.32863 4.16733 0
M  V30 8493 C 818.812 0.753204 5.20781 0
M  V30 8494 O 817.838 1.42825 5.5099 0
M  V30 8495 N 819.04 -0.448664 5.78764 0
M  V30 8496 H 821.805 1.80091 2.39556 0
M  V30 8497 H 819.366 1.08524 1.20142 0
M  V30 8498 H 821.358 -0.118829 4.04526 0
M  V30 8499 H 819.928 -0.554621 3.07641 0
M  V30 8500 H 819.148 1.90245 3.45254 0
M  V30 8501 H 820.436 2.03574 4.66299 0
M  V30 8502 H 819.834 -1.01481 5.56523 0
M  V30 8503 H 818.391 -0.789125 6.47005 0
M  V30 8504 N 821.824 -1.22873 0.986916 0
M  V30 8505 C 822.756 -2.23889 0.490537 0
M  V30 8506 C 823.769 -1.57523 -0.411144 0
M  V30 8507 O 824.958 -1.7721 -0.214236 0
M  V30 8508 C 822.058 -3.37488 -0.30902 0
M  V30 8509 C 821.231 -4.33438 0.587354 0
M  V30 8510 C 820.29 -5.25958 -0.159467 0
M  V30 8511 O 819.316 -5.67394 0.453115 0
M  V30 8512 N 820.518 -5.62265 -1.44355 0
M  V30 8513 H 823.283 -2.67109 1.35914 0
M  V30 8514 H 820.844 -1.37111 0.860937 0
M  V30 8515 H 822.836 -3.96365 -0.817139 0
M  V30 8516 H 821.406 -2.934 -1.07868 0
M  V30 8517 H 820.626 -3.72969 1.27622 0
M  V30 8518 H 821.914 -4.94495 1.19801 0
M  V30 8519 H 821.312 -5.30562 -1.96266 0
M  V30 8520 H 819.869 -6.23585 -1.89698 0
M  V30 8521 N 823.302 -0.75937 -1.38099 0
M  V30 8522 C 824.55 -0.317485 -1.99591 0
M  V30 8523 C 824.871 1.10628 -1.60581 0
M  V30 8524 O 824.141 1.7575 -0.865378 0
M  V30 8525 H 822.721 -0.114397 -0.738189 0
M  V30 8526 H 825.383 -0.974749 -1.68774 0
M  V30 8527 H 824.479 -0.385227 -3.09713 0
M  V30 8528 N 824.78 1.49157 -0.508906 0
M  V30 8529 C 826.191 1.86593 -0.0630975 0
M  V30 8530 C 826.542 1.42051 1.35337 0
M  V30 8531 O 825.667 0.801866 2.00995 0
M  V30 8532 C 826.262 3.38629 -0.107729 0
M  V30 8533 C 824.821 3.75336 0.282776 0
M  V30 8534 C 823.968 2.7317 -0.4768 0
M  V30 8535 H 826.919 1.41362 -0.72128 0
M  V30 8536 H 826.94 3.74271 0.685689 0
M  V30 8537 H 826.452 3.71017 -1.13876 0
M  V30 8538 H 824.553 3.48558 1.31675 0
M  V30 8539 H 824.666 4.79081 -0.0421728 0
M  V30 8540 H 823.03 2.54591 0.0743552 0
M  V30 8541 H 823.813 3.08403 -1.50807 0
M  V30 8542 N 826.258 0.243083 1.55714 0
M  V30 8543 C 827.498 -0.384303 2.00755 0
M  V30 8544 C 827.862 -1.55406 1.12752 0
M  V30 8545 O 829.063 -2.24892 1.47231 0
M  V30 8546 C 827.334 -0.787419 3.48618 0
M  V30 8547 S 828.893 -1.40587 4.15669 0
M  V30 8548 H 825.711 -0.121088 0.700613 0
M  V30 8549 H 828.313 0.357423 1.92205 0
M  V30 8550 H 827.017 0.0732892 4.10335 0
M  V30 8551 H 826.548 -1.56142 3.61086 0
M  V30 8552 H 828.563 -2.69493 4.16639 0
M  V30 8553 N 827.736 -1.57571 -0.0300757 0
M  V30 8554 C 828.961 -1.93879 -0.736601 0
M  V30 8555 C 829.386 -0.842998 -1.68152 0
M  V30 8556 O 828.744 0.20135 -1.80178 0
M  V30 8557 C 828.792 -3.29247 -1.47066 0
M  V30 8558 O 827.896 -3.21426 -2.58378 0
M  V30 8559 H 827.237 -0.633735 -0.198181 0
M  V30 8560 H 829.767 -2.04595 0.0141485 0
M  V30 8561 H 829.777 -3.64113 -1.84081 0
M  V30 8562 H 828.452 -4.08565 -0.77764 0
M  V30 8563 H 827.029 -2.98189 -2.23914 0
M  V30 8564 N 829.214 0.302327 -1.54673 0
M  V30 8565 C 830.63 0.647911 -1.45857 0
M  V30 8566 C 830.83 1.90773 -0.64869 0
M  V30 8567 O 829.886 2.52018 -0.155865 0
M  V30 8568 C 831.199 0.802144 -2.89804 0
M  V30 8569 C 832.747 0.898114 -2.99838 0
M  V30 8570 C 833.222 1.08436 -4.44978 0
M  V30 8571 N 834.713 1.15059 -4.48682 0
M  V30 8572 C 835.448 1.31296 -5.58166 0
M  V30 8573 N 834.944 1.4444 -6.77576 0
M  V30 8574 N 836.737 1.34174 -5.45851 0
M  V30 8575 H 828.888 -0.525428 -2.05798 0
M  V30 8576 H 831.151 -0.173423 -0.932002 0
M  V30 8577 H 830.857 -0.0526531 -3.51661 0
M  V30 8578 H 830.731 1.69155 -3.37145 0
M  V30 8579 H 833.118 1.7434 -2.38096 0
M  V30 8580 H 833.199 -0.0152752 -2.55795 0
M  V30 8581 H 832.843 0.243843 -5.07314 0
M  V30 8582 H 832.773 2.01195 -4.8665 0
M  V30 8583 H 835.264 1.0626 -3.62653 0
M  V30 8584 H 835.577 1.56582 -7.56771 0
M  V30 8585 H 833.922 1.41499 -6.80443 0
M  V30 8586 H 837.113 1.23516 -4.5151 0
M  V30 8587 H 837.286 1.46485 -6.31226 0
M  V30 8588 N 830.692 1.47107 0.565454 0
M  V30 8589 C 831.64 1.59368 1.69424 0
M  V30 8590 C 832.634 0.461344 1.62997 0
M  V30 8591 O 833.84 0.638849 1.68282 0
M  V30 8592 H 830.215 0.501387 0.560459 0
M  V30 8593 H 832.186 2.54242 1.56217 0
M  V30 8594 C 830.935 1.61739 3.07792 0
M  V30 8595 H 830.258 2.48215 3.13416 0
M  V30 8596 H 831.698 1.7437 3.86486 0
M  V30 8597 C 830.157 0.349156 3.35086 0
M  V30 8598 O 830.687 -0.553287 3.97871 0
M  V30 8599 N 828.893 0.231723 2.89675 0
M  V30 8600 H 828.44 0.967021 2.3876 0
M  V30 8601 H 828.398 -0.615911 3.08308 0
M  V30 8602 N 832.17 -0.811516 1.35101 0
M  V30 8603 C 833.581 -1.38515 1.25182 0
M  V30 8604 C 833.932 -1.95846 -0.117883 0
M  V30 8605 O 833.057 -1.90925 -1.01866 0
M  V30 8606 C 833.652 -2.51813 2.26662 0
M  V30 8607 C 832.211 -3.05052 2.20499 0
M  V30 8608 C 831.358 -1.77987 2.12641 0
M  V30 8609 H 834.309 -0.614959 1.46301 0
M  V30 8610 H 834.33 -3.30228 1.89023 0
M  V30 8611 H 833.842 -2.10057 3.2634 0
M  V30 8612 H 831.943 -3.51285 1.24215 0
M  V30 8613 H 832.056 -3.63368 3.1225 0
M  V30 8614 H 830.42 -1.99342 1.5854 0
M  V30 8615 H 831.203 -1.38389 3.14171 0
M  V30 8616 N 833.648 -1.19017 -1.03309 0
M  V30 8617 C 834.58 -0.881847 -2.11556 0
M  V30 8618 C 835.593 0.123711 -1.62329 0
M  V30 8619 O 836.782 -0.105141 -1.7819 0
M  V30 8620 C 833.882 -0.297634 -3.37591 0
M  V30 8621 C 833.055 -1.35072 -4.16022 0
M  V30 8622 C 832.114 -0.780812 -5.20375 0
M  V30 8623 O 831.14 -1.45745 -5.50224 0
M  V30 8624 N 832.342 0.417964 -5.78993 0
M  V30 8625 H 835.107 -1.81359 -2.38598 0
M  V30 8626 H 832.668 -1.0916 -1.19565 0
M  V30 8627 H 834.66 0.097374 -4.04583 0
M  V30 8628 H 833.23 0.538299 -3.0793 0
M  V30 8629 H 832.45 -1.92074 -3.4424 0
M  V30 8630 H 833.738 -2.06044 -4.65213 0
M  V30 8631 H 833.136 0.985281 -5.57054 0
M  V30 8632 H 831.693 0.754802 -6.47415 0
M  V30 8633 N 835.127 1.22348 -0.993418 0
M  V30 8634 C 836.538 1.72893 -0.704616 0
M  V30 8635 C 836.889 1.80095 0.778483 0
M  V30 8636 O 836.014 1.4476 1.60853 0
M  V30 8637 C 836.609 3.14 -1.27237 0
M  V30 8638 C 835.168 3.61949 -1.03294 0
M  V30 8639 C 834.315 2.39816 -1.39225 0
M  V30 8640 H 837.266 1.07688 -1.16572 0
M  V30 8641 H 837.287 3.74886 -0.651212 0
M  V30 8642 H 836.799 3.08727 -2.3518 0
M  V30 8643 H 834.9 3.72588 0.0298329 0
M  V30 8644 H 835.013 4.48051 -1.69668 0
M  V30 8645 H 833.377 2.41448 -0.810849 0
M  V30 8646 H 834.16 2.37203 -2.48172 0
M  V30 8647 N 836.605 0.766683 1.37694 0
M  V30 8648 C 837.568 0.155849 2.2867 0
M  V30 8649 C 838.568 -0.633509 1.47795 0
M  V30 8650 O 839.758 -0.457844 1.68076 0
M  V30 8651 C 836.89 -0.786965 3.31692 0
M  V30 8652 H 838.083 0.957748 2.84196 0
M  V30 8653 H 835.636 0.534554 1.46875 0
M  V30 8654 H 836.371 -1.61406 2.8128 0
M  V30 8655 H 836.156 -0.223182 3.91464 0
M  V30 8656 H 837.646 -1.20994 3.99688 0
M  V30 8657 N 838.083 -1.48885 0.516809 0
M  V30 8658 C 839.323 -2.0439 -0.0202232 0
M  V30 8659 C 839.687 -1.38652 -1.32814 0
M  V30 8660 O 840.888 -1.84968 -1.95039 0
M  V30 8661 C 839.159 -3.57071 -0.153257 0
M  V30 8662 S 840.718 -4.34074 -0.642256 0
M  V30 8663 H 837.536 -0.710977 0.00576322 0
M  V30 8664 H 840.138 -1.82753 0.694376 0
M  V30 8665 H 838.842 -4.02454 0.803695 0
M  V30 8666 H 838.373 -3.83139 -0.892627 0
M  V30 8667 H 840.388 -4.58011 -1.90893 0
M  V30 8668 N 839.561 -0.251338 -1.55583 0
M  V30 8669 C 840.789 0.376187 -2.03451 0
M  V30 8670 C 841.204 1.51215 -1.13047 0
M  V30 8671 O 840.561 1.81917 -0.145769 0
M  V30 8672 C 840.612 0.879779 -3.50631 0
M  V30 8673 O 840.333 -0.210917 -4.37592 0
M  V30 8674 C 841.834 1.57754 -4.14281 0
M  V30 8675 H 839.054 0.0888722 -0.665089 0
M  V30 8676 H 841.598 -0.376497 -2.01004 0
M  V30 8677 H 839.753 1.58263 -3.53598 0
M  V30 8678 H 840.167 0.172203 -5.24217 0
M  V30 8679 H 841.641 1.88158 -5.18942 0
M  V30 8680 H 842.118 2.50103 -3.61034 0
M  V30 8681 H 842.724 0.919154 -4.15249 0
M  V30 8682 N 841.039 1.57585 0.0217189 0
M  V30 8683 C 841.969 2.10073 1.01939 0
M  V30 8684 C 842.95 1.0049 1.37243 0
M  V30 8685 O 844.135 1.28055 1.45999 0
M  V30 8686 C 841.265 2.58618 2.31806 0
M  V30 8687 C 840.219 3.72531 2.10724 0
M  V30 8688 C 839.545 4.07309 3.46415 0
M  V30 8689 C 840.845 5.00672 1.48743 0
M  V30 8690 H 842.539 2.9368 0.582432 0
M  V30 8691 H 840.085 1.41277 0.278715 0
M  V30 8692 H 842.038 2.9396 3.01936 0
M  V30 8693 H 840.762 1.72104 2.77575 0
M  V30 8694 H 839.421 3.37549 1.43025 0
M  V30 8695 H 839.069 3.17851 3.89846 0
M  V30 8696 H 838.769 4.84042 3.33132 0
M  V30 8697 H 840.293 4.45192 4.17895 0
M  V30 8698 H 841.707 5.33925 2.088 0
M  V30 8699 H 840.104 5.82065 1.46013 0
M  V30 8700 H 841.174 4.82769 0.45408 0
M  V30 8701 N 842.517 -0.29412 1.54831 0
M  V30 8702 C 843.742 -1.05156 1.78765 0
M  V30 8703 C 844.167 -1.79916 0.548809 0
M  V30 8704 O 843.525 -1.74243 -0.500909 0
M  V30 8705 C 843.573 -2.00242 2.99893 0
M  V30 8706 O 842.677 -3.08662 2.73499 0
M  V30 8707 H 842.018 -0.301737 0.591482 0
M  V30 8708 H 844.548 -0.329449 2.0193 0
M  V30 8709 H 844.558 -2.42583 3.28051 0
M  V30 8710 H 843.233 -1.45235 3.89717 0
M  V30 8711 H 841.81 -2.70786 2.56377 0
M  V30 8712 N 843.995 -1.47404 -0.557645 0
M  V30 8713 C 845.406 -1.47872 -1.13977 0
M  V30 8714 C 845.757 -0.233176 -1.94809 0
M  V30 8715 O 844.882 0.661945 -2.06027 0
M  V30 8716 C 845.477 -2.67926 -2.07368 0
M  V30 8717 C 844.036 -2.71354 -2.60852 0
M  V30 8718 C 843.183 -2.40967 -1.37223 0
M  V30 8719 H 846.134 -1.54921 -0.344268 0
M  V30 8720 H 846.155 -2.44871 -2.91236 0
M  V30 8721 H 845.667 -3.58562 -1.48509 0
M  V30 8722 H 843.768 -1.84855 -3.23511 0
M  V30 8723 H 843.881 -3.72032 -3.01876 0
M  V30 8724 H 842.245 -1.91541 -1.67882 0
M  V30 8725 H 843.028 -3.33811 -0.801583 0
M  V30 8726 N 845.473 0.80434 -1.35529 0
M  V30 8727 C 846.719 1.56385 -1.29118 0
M  V30 8728 C 847.052 1.9374 0.133536 0
M  V30 8729 O 846.327 1.6153 1.08344 0
M  V30 8730 C 846.61 2.85097 -2.19981 0
M  V30 8731 C 846.463 2.54204 -3.7108 0
M  V30 8732 C 847.782 3.86817 -2.09907 0
M  V30 8733 H 844.901 0.567382 -0.470368 0
M  V30 8734 H 847.543 0.925235 -1.6595 0
M  V30 8735 H 845.693 3.39594 -1.88701 0
M  V30 8736 H 847.365 2.05872 -4.12813 0
M  V30 8737 H 845.608 1.87364 -3.91251 0
M  V30 8738 H 846.279 3.46068 -4.30048 0
M  V30 8739 H 848.755 3.41725 -2.37409 0
M  V30 8740 H 847.631 4.7465 -2.75678 0
M  V30 8741 H 847.892 4.28663 -1.08171 0
M  V30 8742 O 846.99 1.31082 0.943381 0
M  V30 8743 H 847.681 1.13016 1.57312 0
M  V30 END ATOM
M  V30 BEGIN BOND
M  V30 END BOND
M  V30 END CTAB
M  END
$$$$
