drugbank_target|P00846 ATP synthase subunit a (DB00783; DB13952; DB13953; DB13954; DB13955; DB13956)
 OpenBabel12092121063D

  0  0  0     0  0            999 V3000
M  V30 BEGIN CTAB
M  V30 COUNTS 3646 3683 0 0 0
M  V30 BEGIN ATOM
M  V30 1 H -0.908 1.98254 -0.117106 0
M  V30 2 N 0 1.576 0 0
M  V30 3 C 0.933 2.03868 1.02534 0
M  V30 4 C 1.911 0.928543 1.3348 0
M  V30 5 O 3.095 1.19667 1.45644 0
M  V30 6 C 0.222 2.43627 2.35294 0
M  V30 7 C -0.732 3.65373 2.2001 0
M  V30 8 S 0.101 5.13292 1.52614 0
M  V30 9 C 1.257 5.56322 2.86805 0
M  V30 10 H 1.49 2.90518 0.631377 0
M  V30 11 H -0.977 1.52953 0.210867 0
M  V30 12 H 0.981 2.67203 3.11629 0
M  V30 13 H -0.358 1.57376 2.7183 0
M  V30 14 H -1.165 3.90944 3.18086 0
M  V30 15 H -1.563 3.418 1.51819 0
M  V30 16 H 0.729 5.58782 3.83104 0
M  V30 17 H 1.672 6.56266 2.65933 0
M  V30 18 H 2.08 4.83886 2.90714 0
M  V30 19 N 1.4781 -0.272755 1.55222 0
M  V30 20 C 2.4261 -1.35705 1.88909 0
M  V30 21 C 3.4201 -1.5112 0.765456 0
M  V30 22 O 4.6261 -1.52901 0.949802 0
M  V30 23 H 1.0011 -0.453868 0.59959 0
M  V30 24 H 2.9721 -1.04544 2.79487 0
M  V30 25 C 1.7211 -2.71049 2.17779 0
M  V30 26 H 1.0441 -2.59979 3.03728 0
M  V30 27 H 2.4841 -3.45858 2.45272 0
M  V30 28 C 0.9431 -3.22165 0.985473 0
M  V30 29 O 1.4731 -4.01096 0.220233 0
M  V30 30 N -0.3209 -2.7985 0.783108 0
M  V30 31 H -0.7739 -2.15775 1.40708 0
M  V30 32 H -0.8159 -3.14397 -0.0130392 0
M  V30 33 N 2.9562 -1.48159 -0.537278 0
M  V30 34 C 3.8662 -1.64807 -1.6696 0
M  V30 35 C 4.8822 -0.530651 -1.65711 0
M  V30 36 O 6.0582 -0.800784 -1.84796 0
M  V30 37 C 3.1232 -1.67708 -3.03438 0
M  V30 38 C 2.1842 -2.91025 -3.156 0
M  V30 39 C 1.4172 -2.93778 -4.45567 0
M  V30 40 O 1.6402 -2.05153 -5.3223 0
M  V30 41 O 0.5742 -3.85868 -4.61941 0
M  V30 42 H 4.4002 -2.6066 -1.55853 0
M  V30 43 H 1.9852 -1.31475 -0.709549 0
M  V30 44 H 3.8672 -1.7218 -3.84619 0
M  V30 45 H 2.5422 -0.750278 -3.14885 0
M  V30 46 H 1.4492 -2.92089 -2.33741 0
M  V30 47 H 2.7822 -3.83065 -3.09066 0
M  V30 48 N 4.4343 0.785586 -1.36625 0
M  V30 49 C 5.3823 1.91978 -1.31329 0
M  V30 50 C 6.3763 1.68162 -0.204416 0
M  V30 51 O 7.5823 1.76122 -0.371645 0
M  V30 52 H 3.9573 0.631087 -0.408942 0
M  V30 53 H 5.9283 1.93562 -2.27104 0
M  V30 54 C 4.6773 3.29055 -1.12329 0
M  V30 55 H 4.0003 3.4795 -1.96903 0
M  V30 56 H 5.4403 4.08756 -1.12671 0
M  V30 57 C 3.8993 3.36461 0.171861 0
M  V30 58 O 4.4293 3.84576 1.16035 0
M  V30 59 N 2.6353 2.89782 0.217846 0
M  V30 60 H 2.1823 2.50819 -0.587183 0
M  V30 61 H 2.1403 2.95119 1.08408 0
M  V30 62 N 5.9124 1.20967 1.01018 0
M  V30 63 C 6.8424 0.988272 2.11555 0
M  V30 64 C 7.8234 -0.0849778 1.69888 0
M  V30 65 O 9.0084 0.0738202 1.9406 0
M  V30 66 C 6.1384 0.546528 3.42973 0
M  V30 67 C 5.0924 1.56375 3.9841 0
M  V30 68 C 4.4184 0.97842 5.25672 0
M  V30 69 C 5.7184 2.94922 4.31066 0
M  V30 70 H 7.4124 1.91276 2.30334 0
M  V30 71 H 4.9584 0.921073 1.1069 0
M  V30 72 H 6.9114 0.378839 4.19694 0
M  V30 73 H 5.6354 -0.413598 3.23971 0
M  V30 74 H 4.2944 1.71891 3.23804 0
M  V30 75 H 3.9424 0.0101688 5.02999 0
M  V30 76 H 3.6424 1.65784 5.63728 0
M  V30 77 H 5.1664 0.821939 6.05043 0
M  V30 78 H 6.5804 2.8288 4.9865 0
M  V30 79 H 4.9774 3.5983 4.80253 0
M  V30 80 H 6.0474 3.4616 3.39561 0
M  V30 81 N 7.3905 -1.2043 1.01659 0
M  V30 82 C 8.6375 -1.89797 0.705917 0
M  V30 83 C 8.9655 -1.78848 -0.764439 0
M  V30 84 O 8.2205 -1.16694 -1.57102 0
M  V30 85 C 8.5195 -3.40464 1.08714 0
M  V30 86 C 8.1855 -3.71614 2.5537 0
M  V30 87 C 6.8475 -3.79826 2.95441 0
M  V30 88 C 9.1995 -3.85915 3.50313 0
M  V30 89 C 6.5275 -3.99797 4.29394 0
M  V30 90 C 8.8795 -4.07396 4.83954 0
M  V30 91 C 7.5435 -4.13837 5.23732 0
M  V30 92 H 6.8135 -0.694518 0.258313 0
M  V30 93 H 9.4605 -1.42691 1.27717 0
M  V30 94 H 7.7655 -3.89385 0.434309 0
M  V30 95 H 9.4625 -3.92433 0.824461 0
M  V30 96 H 6.0525 -3.65822 2.23321 0
M  V30 97 H 10.2365 -3.78926 3.20513 0
M  V30 98 H 5.4925 -4.03018 4.59768 0
M  V30 99 H 9.6665 -4.17404 5.57447 0
M  V30 100 H 7.2935 -4.29064 6.27541 0
M  V30 101 N 8.8686 -0.792821 -1.36206 0
M  V30 102 C 9.8316 -0.199459 -2.2833 0
M  V30 103 C 10.8316 0.605189 -1.48977 0
M  V30 104 O 12.0216 0.425685 -1.68919 0
M  V30 105 C 9.1536 0.723523 -3.33134 0
M  V30 106 H 10.3466 -1.01181 -2.82316 0
M  V30 107 H 7.8996 -0.562485 -1.45828 0
M  V30 108 H 8.6346 1.56008 -2.84309 0
M  V30 109 H 8.4196 0.148436 -3.91819 0
M  V30 110 H 9.9096 1.13344 -4.01924 0
M  V30 111 N 10.3467 1.47872 -0.545128 0
M  V30 112 C 11.5717 2.07391 -0.0190611 0
M  V30 113 C 11.9967 1.39688 1.25971 0
M  V30 114 O 11.3547 0.467816 1.7516 0
M  V30 115 C 11.4027 3.60188 0.172335 0
M  V30 116 O 10.5067 3.9339 1.23766 0
M  V30 117 H 9.8477 0.662411 -0.0459059 0
M  V30 118 H 12.3777 1.90066 -0.757365 0
M  V30 119 H 12.3877 4.06129 0.390305 0
M  V30 120 H 11.0627 4.08865 -0.761725 0
M  V30 121 H 9.6397 3.5921 1.00114 0
M  V30 122 N 11.8248 0.280983 1.55075 0
M  V30 123 C 13.0718 -0.334115 1.99725 0
M  V30 124 C 13.3998 -1.5542 1.1694 0
M  V30 125 O 12.6548 -1.94361 0.228531 0
M  V30 126 C 12.9538 -0.754656 3.49342 0
M  V30 127 C 12.6198 0.361445 4.49449 0
M  V30 128 C 11.2818 0.667893 4.76542 0
M  V30 129 C 13.6338 1.11322 5.09173 0
M  V30 130 C 10.9618 1.7296 5.60626 0
M  V30 131 C 13.3138 2.1647 5.9441 0
M  V30 132 C 11.9778 2.47742 6.19822 0
M  V30 133 H 11.2478 -0.122261 0.730844 0
M  V30 134 H 13.8948 0.395917 1.87363 0
M  V30 135 H 12.1998 -1.56446 3.5921 0
M  V30 136 H 13.8968 -1.24142 3.813 0
M  V30 137 H 10.4868 0.112481 4.28452 0
M  V30 138 H 14.6708 0.88973 4.8826 0
M  V30 139 H 9.9268 1.97684 5.78559 0
M  V30 140 H 14.1008 2.75193 6.3972 0
M  V30 141 H 11.7278 3.30145 6.84769 0
M  V30 142 N 13.3029 -1.57598 0.00835791 0
M  V30 143 C 14.5519 -1.90107 -0.673968 0
M  V30 144 C 14.8649 -0.884275 -1.7447 0
M  V30 145 O 16.0709 -1.09987 -2.48224 0
M  V30 146 C 14.5269 -3.37497 -1.24995 0
M  V30 147 C 14.1349 -4.47491 -0.2136 0
M  V30 148 C 15.8789 -3.79104 -1.90999 0
M  V30 149 C 13.7859 -5.85963 -0.80005 0
M  V30 150 H 12.7159 -0.709393 -0.255495 0
M  V30 151 H 15.3669 -1.83365 0.0702693 0
M  V30 152 H 13.7489 -3.39102 -2.04513 0
M  V30 153 H 14.9229 -4.57414 0.557596 0
M  V30 154 H 13.2379 -4.14956 0.346474 0
M  V30 155 H 15.8349 -4.79901 -2.35795 0
M  V30 156 H 16.1779 -3.1306 -2.74407 0
M  V30 157 H 16.7109 -3.79833 -1.18203 0
M  V30 158 H 13.4499 -6.555 -0.00456708 0
M  V30 159 H 12.9699 -5.79687 -1.54021 0
M  V30 160 H 14.6489 -6.33884 -1.29615 0
M  V30 161 N 14.781 0.264519 -1.55364 0
M  V30 162 C 15.744 1.31046 -1.88042 0
M  V30 163 C 16.744 1.41943 -0.755569 0
M  V30 164 O 17.934 1.40947 -1.02369 0
M  V30 165 C 15.066 2.69067 -2.09323 0
M  V30 166 H 16.259 1.03297 -2.81549 0
M  V30 167 H 13.812 0.502989 -1.47986 0
M  V30 168 H 14.547 3.01982 -1.18226 0
M  V30 169 H 14.332 2.62542 -2.91229 0
M  V30 170 H 15.822 3.44623 -2.35848 0
M  V30 171 N 16.2591 1.48442 0.529413 0
M  V30 172 C 17.6701 1.5002 1.11134 0
M  V30 173 C 18.0211 0.27031 1.94329 0
M  V30 174 O 17.1461 -0.622507 2.07253 0
M  V30 175 C 17.7411 2.71834 2.02217 0
M  V30 176 C 16.3001 2.76283 2.55627 0
M  V30 177 C 15.4471 2.43542 1.326 0
M  V30 178 H 18.3981 1.5555 0.314641 0
M  V30 179 H 18.4191 2.50384 2.8651 0
M  V30 180 H 17.9311 3.61331 1.41639 0
M  V30 181 H 16.0321 1.90995 3.19924 0
M  V30 182 H 16.1451 3.77725 2.94721 0
M  V30 183 H 14.5091 1.94709 1.64196 0
M  V30 184 H 15.2921 3.3528 0.737734 0
M  V30 185 N 17.7372 -0.778329 1.37039 0
M  V30 186 C 18.9652 -1.56734 1.35063 0
M  V30 187 C 19.3802 -1.88686 -0.0655597 0
M  V30 188 O 18.7372 -1.5096 -1.02554 0
M  V30 189 C 18.7882 -2.88163 2.18276 0
M  V30 190 O 18.5092 -2.57583 3.54376 0
M  V30 191 C 20.0102 -3.82422 2.24206 0
M  V30 192 H 17.2302 -0.485778 0.462883 0
M  V30 193 H 19.7742 -0.965185 1.8029 0
M  V30 194 H 17.9292 -3.44818 1.76576 0
M  V30 195 H 18.3432 -3.41699 3.97922 0
M  V30 196 H 19.8172 -4.71667 2.86765 0
M  V30 197 H 20.2942 -4.21078 1.24861 0
M  V30 198 H 20.9002 -3.31697 2.6619 0
M  V30 199 N 19.2153 -1.21501 -1.00376 0
M  V30 200 C 20.4643 -1.02718 -1.73586 0
M  V30 201 C 20.7773 0.439589 -1.90596 0
M  V30 202 O 21.9833 0.746848 -2.61026 0
M  V30 203 C 20.4393 -1.78929 -3.1227 0
M  V30 204 C 20.0473 -3.29783 -3.03228 0
M  V30 205 C 21.7913 -1.68557 -3.89601 0
M  V30 206 C 19.6983 -3.98479 -4.36999 0
M  V30 207 H 18.6283 -0.380733 -0.650814 0
M  V30 208 H 21.2793 -1.45248 -1.1214 0
M  V30 209 H 19.6613 -1.29192 -3.74333 0
M  V30 210 H 20.8353 -3.86832 -2.50395 0
M  V30 211 H 19.1503 -3.40711 -2.39385 0
M  V30 212 H 21.7473 -2.17211 -4.88593 0
M  V30 213 H 22.0903 -0.644021 -4.11288 0
M  V30 214 H 22.6233 -2.15778 -3.34193 0
M  V30 215 H 19.3623 -5.02841 -4.20513 0
M  V30 216 H 18.8823 -3.46219 -4.89788 0
M  V30 217 H 20.5613 -4.03462 -5.05794 0
M  V30 218 N 20.6934 1.19889 -1.02296 0
M  V30 219 C 21.6234 2.25141 -0.619174 0
M  V30 220 C 22.6044 1.66051 0.368915 0
M  V30 221 O 23.7894 1.92546 0.252941 0
M  V30 222 C 20.9194 3.4728 0.0368783 0
M  V30 223 C 19.8734 4.19005 -0.872865 0
M  V30 224 C 19.1994 5.34637 -0.0822402 0
M  V30 225 C 20.4994 4.74452 -2.18387 0
M  V30 226 H 22.1934 2.59171 -1.49903 0
M  V30 227 H 19.7394 1.24579 -0.722222 0
M  V30 228 H 21.6924 4.20098 0.330958 0
M  V30 229 H 20.4164 3.12433 0.95149 0
M  V30 230 H 19.0754 3.48061 -1.15105 0
M  V30 231 H 18.7234 4.96034 0.83422 0
M  V30 232 H 18.4234 5.83557 -0.688149 0
M  V30 233 H 19.9474 6.10255 0.205238 0
M  V30 234 H 21.3614 5.39055 -1.95172 0
M  V30 235 H 19.7584 5.33834 -2.74119 0
M  V30 236 H 20.8284 3.92844 -2.84257 0
M  V30 237 N 22.1715 0.800033 1.35784 0
M  V30 238 C 23.4195 0.376597 1.9856 0
M  V30 239 C 23.7405 -1.05812 1.63795 0
M  V30 240 O 23.0105 -1.73103 0.917171 0
M  V30 241 H 21.5905 0.136261 0.734467 0
M  V30 242 H 24.2525 1.02442 1.65806 0
M  V30 243 H 23.3485 0.477002 3.08433 0
M  V30 244 N 23.6496 -1.47581 0.552962 0
M  V30 245 C 24.5796 -2.32762 -0.185451 0
M  V30 246 C 25.5606 -1.43527 -0.912905 0
M  V30 247 O 26.7456 -1.72388 -0.894201 0
M  V30 248 C 23.8756 -3.25219 -1.21859 0
M  V30 249 C 22.8296 -4.23661 -0.607864 0
M  V30 250 C 22.1556 -5.05413 -1.74533 0
M  V30 251 C 23.4556 -5.20481 0.435582 0
M  V30 252 H 25.1496 -2.94749 0.525684 0
M  V30 253 H 22.6956 -1.41738 0.254251 0
M  V30 254 H 24.6486 -3.8365 -1.7433 0
M  V30 255 H 23.3726 -2.61279 -1.95961 0
M  V30 256 H 22.0316 -3.66451 -0.104489 0
M  V30 257 H 21.6796 -4.3788 -2.47529 0
M  V30 258 H 21.3796 -5.72059 -1.34249 0
M  V30 259 H 22.9036 -5.66701 -2.27338 0
M  V30 260 H 24.3176 -5.733 -0.00290157 0
M  V30 261 H 22.7146 -5.95305 0.757067 0
M  V30 262 H 23.7846 -4.66217 1.33303 0
M  V30 263 N 25.1277 -0.289203 -1.54924 0
M  V30 264 C 26.5387 0.205791 -1.85562 0
M  V30 265 C 26.8897 1.54351 -1.2112 0
M  V30 266 O 26.0147 2.10435 -0.504601 0
M  V30 267 C 26.6097 0.380177 -3.3666 0
M  V30 268 C 25.1687 0.819395 -3.67373 0
M  V30 269 C 24.3157 -0.079159 -2.77187 0
M  V30 270 H 27.2667 -0.510577 -1.50262 0
M  V30 271 H 27.2877 1.21659 -3.60526 0
M  V30 272 H 26.7997 -0.593589 -3.83534 0
M  V30 273 H 24.9007 1.80413 -3.26009 0
M  V30 274 H 25.0137 0.646957 -4.74712 0
M  V30 275 H 23.3777 0.439565 -2.50878 0
M  V30 276 H 24.1607 -1.04906 -3.26878 0
M  V30 277 N 26.6058 1.57591 -0.0167156 0
M  V30 278 C 27.5688 2.08393 0.954204 0
M  V30 279 C 28.5688 0.996531 1.26198 0
M  V30 280 O 29.7588 1.25858 1.20438 0
M  V30 281 C 26.8908 2.5394 2.27436 0
M  V30 282 H 28.0838 2.95455 0.514451 0
M  V30 283 H 25.6368 1.54582 0.231089 0
M  V30 284 H 26.3718 1.70171 2.76066 0
M  V30 285 H 26.1568 3.33371 2.06412 0
M  V30 286 H 27.6468 2.93512 2.97053 0
M  V30 287 N 28.0839 -0.256276 1.55502 0
M  V30 288 C 29.0469 -1.30047 1.88734 0
M  V30 289 C 30.0469 -1.4154 0.763086 0
M  V30 290 O 31.2369 -1.40403 1.03115 0
M  V30 291 C 28.3689 -2.67953 2.10747 0
M  V30 292 H 29.5619 -1.01802 2.82093 0
M  V30 293 H 27.1149 -0.495134 1.4825 0
M  V30 294 H 27.8499 -3.01351 1.19825 0
M  V30 295 H 27.6349 -2.60993 2.92617 0
M  V30 296 H 29.1249 -3.43368 2.37673 0
M  V30 297 N 29.562 -1.4872 -0.521534 0
M  V30 298 C 30.808 -1.574 -1.27879 0
M  V30 299 C 31.141 -0.250817 -1.92573 0
M  V30 300 O 30.416 0.743934 -1.79711 0
M  V30 301 C 30.699 -2.71843 -2.36164 0
M  V30 302 C 30.552 -4.13893 -1.76105 0
M  V30 303 C 31.871 -2.82008 -3.37875 0
M  V30 304 H 28.99 -0.572941 -0.463581 0
M  V30 305 H 31.632 -1.80927 -0.580119 0
M  V30 306 H 29.782 -2.51914 -2.95756 0
M  V30 307 H 31.454 -4.45284 -1.20499 0
M  V30 308 H 29.697 -4.20498 -1.06601 0
M  V30 309 H 30.368 -4.89804 -2.5455 0
M  V30 310 H 32.844 -3.00086 -2.88249 0
M  V30 311 H 31.72 -3.63796 -4.11028 0
M  V30 312 H 31.981 -1.90511 -3.98946 0
M  V30 313 N 31.0401 0.771051 -1.3745 0
M  V30 314 C 31.9701 1.89827 -1.3597 0
M  V30 315 C 32.9511 1.68562 -0.228216 0
M  V30 316 O 34.1361 1.8941 -0.428675 0
M  V30 317 C 31.2661 3.2712 -1.16662 0
M  V30 318 C 30.2201 3.6295 -2.2683 0
M  V30 319 C 29.5461 4.98791 -1.92644 0
M  V30 320 C 30.8461 3.69627 -3.69017 0
M  V30 321 H 32.5401 1.91323 -2.30295 0
M  V30 322 H 30.0861 0.919082 -1.10855 0
M  V30 323 H 32.0391 4.05615 -1.14256 0
M  V30 324 H 30.7631 3.26059 -0.187926 0
M  V30 325 H 29.4221 2.86763 -2.28392 0
M  V30 326 H 29.0701 4.94271 -0.933021 0
M  V30 327 H 28.7701 5.23733 -2.66416 0
M  V30 328 H 30.2941 5.79685 -1.91826 0
M  V30 329 H 31.7081 4.38273 -3.69581 0
M  V30 330 H 30.1051 4.06067 -4.41848 0
M  V30 331 H 31.1751 2.70273 -4.02592 0
M  V30 332 N 32.5182 1.22032 0.997298 0
M  V30 333 C 33.7672 1.03637 1.73038 0
M  V30 334 C 34.0802 -0.429475 1.90827 0
M  V30 335 O 35.2862 -0.732995 2.61418 0
M  V30 336 C 33.7422 1.80582 3.11317 0
M  V30 337 C 33.3502 3.31387 3.01474 0
M  V30 338 C 35.0942 1.70621 3.88701 0
M  V30 339 C 33.0012 4.00791 4.3488 0
M  V30 340 H 31.9312 0.384179 0.648785 0
M  V30 341 H 34.5822 1.4584 1.11368 0
M  V30 342 H 32.9642 1.31175 3.73643 0
M  V30 343 H 34.1382 3.88155 2.4834 0
M  V30 344 H 32.4532 3.41976 2.37575 0
M  V30 345 H 35.0502 2.19799 4.87434 0
M  V30 346 H 35.3932 0.665823 4.10941 0
M  V30 347 H 35.9262 2.17547 3.33044 0
M  V30 348 H 32.6652 5.05064 4.1784 0
M  V30 349 H 32.1852 3.48811 4.87945 0
M  V30 350 H 33.8642 4.06139 5.03647 0
M  V30 351 N 33.9963 -1.19345 1.0293 0
M  V30 352 C 35.2453 -1.88363 0.721256 0
M  V30 353 C 35.5583 -1.80514 -0.753254 0
M  V30 354 O 36.7643 -2.44788 -1.17436 0
M  V30 355 C 35.2203 -3.37872 1.23978 0
M  V30 356 C 34.8283 -3.54278 2.74211 0
M  V30 357 C 36.5723 -4.12365 1.00775 0
M  V30 358 C 34.4793 -4.97682 3.19479 0
M  V30 359 H 33.4093 -0.705484 0.266098 0
M  V30 360 H 36.0603 -1.34928 1.24365 0
M  V30 361 H 34.4423 -3.90707 0.6453 0
M  V30 362 H 35.6163 -3.11769 3.39318 0
M  V30 363 H 33.9313 -2.93174 2.95699 0
M  V30 364 H 36.5283 -5.18119 1.32123 0
M  V30 365 H 36.8713 -4.16263 -0.0554308 0
M  V30 366 H 37.4043 -3.65668 1.56625 0
M  V30 367 H 34.1433 -4.98945 4.25128 0
M  V30 368 H 33.6633 -5.4095 2.591 0
M  V30 369 H 35.3423 -5.66337 3.12845 0
M  V30 370 N 35.4744 -0.807222 -1.35358 0
M  V30 371 C 36.4044 -0.232509 -2.3234 0
M  V30 372 C 37.3854 0.642386 -1.57504 0
M  V30 373 O 38.5704 0.572526 -1.85569 0
M  V30 374 C 35.7004 0.619238 -3.41735 0
M  V30 375 C 34.6544 -0.157215 -4.27711 0
M  V30 376 C 33.9804 0.816273 -5.28433 0
M  V30 377 C 35.2804 -1.35656 -5.04376 0
M  V30 378 H 36.9744 -1.04276 -2.80654 0
M  V30 379 H 34.5204 -0.50288 -1.34934 0
M  V30 380 H 36.4734 1.03137 -4.08584 0
M  V30 381 H 35.1974 1.46239 -2.92031 0
M  V30 382 H 33.8564 -0.550525 -3.62443 0
M  V30 383 H 33.5044 1.65494 -4.74996 0
M  V30 384 H 33.2044 0.301067 -5.86828 0
M  V30 385 H 34.7284 1.22659 -5.98153 0
M  V30 386 H 36.1424 -1.01927 -5.64166 0
M  V30 387 H 34.5394 -1.8063 -5.7227 0
M  V30 388 H 35.6094 -2.14288 -4.34981 0
M  V30 389 N 36.9525 1.47285 -0.560781 0
M  V30 390 C 38.1995 2.02464 -0.038062 0
M  V30 391 C 38.5275 1.43474 1.31322 0
M  V30 392 O 37.7825 0.581311 1.86867 0
M  V30 393 C 38.0815 3.57258 0.100784 0
M  V30 394 C 37.7475 4.35184 -1.18007 0
M  V30 395 C 36.4095 4.56194 -1.53103 0
M  V30 396 C 38.7615 4.80098 -2.02867 0
M  V30 397 C 36.0895 5.19367 -2.729 0
M  V30 398 C 38.4415 5.44593 -3.21871 0
M  V30 399 C 37.1055 5.63835 -3.57276 0
M  V30 400 H 36.3755 0.740869 -0.0139279 0
M  V30 401 H 39.0225 1.76916 -0.733012 0
M  V30 402 H 37.3275 3.81819 0.878724 0
M  V30 403 H 39.0245 3.97606 0.520639 0
M  V30 404 H 35.6145 4.19113 -0.8968 0
M  V30 405 H 39.7985 4.63642 -1.7706 0
M  V30 406 H 35.0545 5.32459 -3.00496 0
M  V30 407 H 39.2285 5.78358 -3.87911 0
M  V30 408 H 36.8555 6.12557 -4.50197 0
M  V30 409 N 38.4306 0.297415 1.54768 0
M  V30 410 C 39.8416 -0.195947 1.85669 0
M  V30 411 C 40.1926 -1.53707 1.21937 0
M  V30 412 O 39.3176 -2.10164 0.515754 0
M  V30 413 C 39.9126 -0.362318 3.36857 0
M  V30 414 C 38.4716 -0.799901 3.67802 0
M  V30 415 C 37.6186 0.0938578 2.77141 0
M  V30 416 H 40.5696 0.518538 1.4999 0
M  V30 417 H 40.5906 -1.19745 3.61167 0
M  V30 418 H 40.1026 0.613921 3.83214 0
M  V30 419 H 38.2036 -1.78682 3.26961 0
M  V30 420 H 38.3166 -0.621773 4.75048 0
M  V30 421 H 36.6806 -0.426254 2.51108 0
M  V30 422 H 37.4636 1.06639 3.26318 0
M  V30 423 N 39.9087 -1.5758 0.0250728 0
M  V30 424 C 41.3197 -1.79476 -0.514323 0
M  V30 425 C 41.6707 -0.934956 -1.72491 0
M  V30 426 O 40.7957 -0.144245 -2.15919 0
M  V30 427 C 41.3907 -3.25503 -0.939842 0
M  V30 428 C 39.9497 -3.48408 -1.42438 0
M  V30 429 C 39.0967 -2.74583 -0.387201 0
M  V30 430 H 42.0477 -1.567 0.25113 0
M  V30 431 H 42.0687 -3.34992 -1.80445 0
M  V30 432 H 41.5807 -3.88056 -0.0585628 0
M  V30 433 H 39.6817 -2.91103 -2.32572 0
M  V30 434 H 39.7947 -4.57119 -1.43455 0
M  V30 435 H 38.1587 -2.39942 -0.854409 0
M  V30 436 H 38.9417 -3.39849 0.485543 0
M  V30 437 N 41.3868 0.248026 -1.55636 0
M  V30 438 C 42.3168 1.31079 -1.93237 0
M  V30 439 C 43.2978 1.50264 -0.797174 0
M  V30 440 O 44.4828 1.62891 -1.05737 0
M  V30 441 C 41.6128 2.66575 -2.22609 0
M  V30 442 C 40.5668 2.62087 -3.3837 0
M  V30 443 C 39.8928 4.01369 -3.53281 0
M  V30 444 C 41.1928 2.19171 -4.7409 0
M  V30 445 H 42.8868 0.998556 -2.82257 0
M  V30 446 H 40.4328 0.47891 -1.35803 0
M  V30 447 H 42.3858 3.41057 -2.47503 0
M  V30 448 H 41.1098 2.99432 -1.30414 0
M  V30 449 H 39.7688 1.90063 -3.13483 0
M  V30 450 H 39.4168 4.31489 -2.58508 0
M  V30 451 H 39.1168 3.99254 -4.31127 0
M  V30 452 H 40.6408 4.77552 -3.80495 0
M  V30 453 H 42.0548 2.83384 -4.98363 0
M  V30 454 H 40.4518 2.2817 -5.5503 0
M  V30 455 H 41.5218 1.14336 -4.71227 0
M  V30 456 N 42.8649 1.48995 0.513639 0
M  V30 457 C 43.7949 1.67636 1.62544 0
M  V30 458 C 44.7759 0.525087 1.61793 0
M  V30 459 O 45.9609 0.759502 1.78732 0
M  V30 460 C 43.0909 1.73114 3.01079 0
M  V30 461 C 42.0449 2.87905 3.16693 0
M  V30 462 C 41.3709 2.78486 4.56453 0
M  V30 463 C 42.6709 4.29005 2.97913 0
M  V30 464 H 44.3649 2.60716 1.47198 0
M  V30 465 H 41.9109 1.25465 0.706714 0
M  V30 466 H 43.8639 1.84742 3.78746 0
M  V30 467 H 42.5879 0.766241 3.17484 0
M  V30 468 H 41.2469 2.75859 2.41448 0
M  V30 469 H 40.8949 1.7993 4.69717 0
M  V30 470 H 40.5949 3.55523 4.67843 0
M  V30 471 H 42.1189 2.92104 5.36197 0
M  V30 472 H 43.5329 4.41798 3.65359 0
M  V30 473 H 41.9299 5.07166 3.20785 0
M  V30 474 H 42.9999 4.44329 1.94165 0
M  V30 475 N 44.343 -0.763751 1.37857 0
M  V30 476 C 45.592 -1.51789 1.32827 0
M  V30 477 C 45.905 -1.95426 -0.0823719 0
M  V30 478 O 47.111 -2.70298 -0.255172 0
M  V30 479 C 45.567 -2.74133 2.33193 0
M  V30 480 C 45.175 -2.37562 3.79827 0
M  V30 481 C 46.919 -3.52054 2.37188 0
M  V30 482 C 44.826 -3.56456 4.71904 0
M  V30 483 H 43.756 -0.569896 0.493695 0
M  V30 484 H 46.407 -0.835822 1.63359 0
M  V30 485 H 44.789 -3.4427 1.9569 0
M  V30 486 H 45.963 -1.75157 4.26212 0
M  V30 487 H 44.278 -1.72798 3.78853 0
M  V30 488 H 46.875 -4.40437 3.03182 0
M  V30 489 H 47.218 -3.92486 1.38782 0
M  V30 490 H 47.751 -2.88921 2.7344 0
M  V30 491 H 44.49 -3.21099 5.71468 0
M  V30 492 H 44.01 -4.17938 4.30218 0
M  V30 493 H 45.689 -4.23168 4.89426 0
M  V30 494 N 45.8211 -1.22559 -0.990812 0
M  V30 495 C 47.2321 -1.04791 -1.54518 0
M  V30 496 C 47.5831 0.387998 -1.92325 0
M  V30 497 O 46.7081 1.27328 -1.74976 0
M  V30 498 C 47.3031 -1.896 -2.80779 0
M  V30 499 C 45.8621 -1.76124 -3.32652 0
M  V30 500 C 45.0091 -1.8594 -2.05722 0
M  V30 501 H 47.9601 -1.36374 -0.811662 0
M  V30 502 H 47.9811 -1.41464 -3.53225 0
M  V30 503 H 47.4931 -2.94101 -2.53231 0
M  V30 504 H 45.5941 -0.743643 -3.65104 0
M  V30 505 H 45.7071 -2.58913 -4.03114 0
M  V30 506 H 44.0711 -1.29403 -2.19379 0
M  V30 507 H 44.8541 -2.91976 -1.80568 0
M  V30 508 N 47.2992 1.18797 -1.03562 0
M  V30 509 C 48.5272 1.92599 -0.755869 0
M  V30 510 C 48.9422 1.75886 0.686271 0
M  V30 511 O 48.2992 1.08517 1.46732 0
M  V30 512 C 48.3502 3.44159 -1.10619 0
M  V30 513 O 48.0712 3.60341 -2.4917 0
M  V30 514 C 49.5722 4.3507 -0.850214 0
M  V30 515 H 46.7922 0.611587 -0.276048 0
M  V30 516 H 49.3362 1.50742 -1.38192 0
M  V30 517 H 47.4912 3.83823 -0.525194 0
M  V30 518 H 47.9052 4.54128 -2.62427 0
M  V30 519 H 49.3792 5.39989 -1.14523 0
M  V30 520 H 49.8562 4.38673 0.215176 0
M  V30 521 H 50.4622 4.01097 -1.41426 0
M  V30 522 N 48.7773 0.814389 1.34928 0
M  V30 523 C 50.0023 0.410097 2.03305 0
M  V30 524 C 50.4273 -0.973464 1.60951 0
M  V30 525 O 49.7853 -1.63185 0.789964 0
M  V30 526 C 49.8333 0.51049 3.56968 0
M  V30 527 O 48.9373 -0.473035 4.09678 0
M  V30 528 H 48.2783 0.170088 0.641846 0
M  V30 529 H 50.8083 1.10244 1.72358 0
M  V30 530 H 50.8183 0.383135 4.06197 0
M  V30 531 H 49.4933 1.51963 3.87144 0
M  V30 532 H 48.0703 -0.305272 3.71648 0
M  V30 533 N 50.2554 -1.46986 0.568584 0
M  V30 534 C 51.2024 -2.30153 -0.172707 0
M  V30 535 C 52.1724 -1.39759 -0.897586 0
M  V30 536 O 53.3574 -1.68716 -0.891044 0
M  V30 537 C 50.4974 -3.23952 -1.1895 0
M  V30 538 C 49.6104 -4.29441 -0.469517 0
M  V30 539 C 48.7454 -5.1038 -1.47259 0
M  V30 540 C 47.7844 -6.07632 -0.738225 0
M  V30 541 N 46.9214 -6.8149 -1.68868 0
M  V30 542 H 51.7614 -2.93019 0.542596 0
M  V30 543 H 49.2984 -1.44422 0.279401 0
M  V30 544 H 51.2564 -3.76767 -1.79173 0
M  V30 545 H 49.8864 -2.62926 -1.87269 0
M  V30 546 H 48.9384 -3.79594 0.247467 0
M  V30 547 H 50.2504 -4.98689 0.105241 0
M  V30 548 H 49.4044 -5.67402 -2.14803 0
M  V30 549 H 48.1434 -4.4106 -2.08128 0
M  V30 550 H 47.1484 -5.49778 -0.0489293 0
M  V30 551 H 48.3734 -6.78966 -0.135129 0
M  V30 552 H 46.3194 -6.14891 -2.28573 0
M  V30 553 H 46.2364 -7.46948 -1.16636 0
M  V30 554 H 47.5044 -7.43078 -2.3549 0
M  V30 555 N 51.7335 -0.305618 -1.54608 0
M  V30 556 C 52.9635 0.304333 -2.04346 0
M  V30 557 C 53.3715 1.47715 -1.18224 0
M  V30 558 O 52.7145 1.82591 -0.201577 0
M  V30 559 C 52.7765 0.819031 -3.50046 0
M  V30 560 C 52.4405 -0.22912 -4.56425 0
M  V30 561 C 53.4375 -1.05914 -5.08997 0
M  V30 562 C 51.1225 -0.372148 -5.0092 0
M  V30 563 C 53.1165 -2.01809 -6.04609 0
M  V30 564 C 50.8035 -1.33454 -5.9635 0
M  V30 565 C 51.8015 -2.15599 -6.48079 0
M  V30 566 O 51.4895 -3.10205 -7.41639 0
M  V30 567 H 51.2215 0.0693996 -0.672428 0
M  V30 568 H 53.7755 -0.444548 -2.00532 0
M  V30 569 H 52.0055 1.61852 -3.51199 0
M  V30 570 H 53.6945 1.34537 -3.82955 0
M  V30 571 H 54.4605 -0.959538 -4.75413 0
M  V30 572 H 50.3395 0.257304 -4.60281 0
M  V30 573 H 53.8835 -2.65966 -6.44909 0
M  V30 574 H 49.7805 -1.43485 -6.29351 0
M  V30 575 H 50.5485 -3.05237 -7.59455 0
M  V30 576 N 53.2116 1.57565 -0.0334293 0
M  V30 577 C 54.1416 2.13511 0.945265 0
M  V30 578 C 55.1226 1.05231 1.33643 0
M  V30 579 O 56.3076 1.33084 1.41429 0
M  V30 580 C 53.4376 2.6657 2.22616 0
M  V30 581 C 52.3916 3.79676 1.97561 0
M  V30 582 C 51.7176 4.1918 3.31952 0
M  V30 583 C 53.0176 5.0557 1.31135 0
M  V30 584 H 54.7116 2.95538 0.479325 0
M  V30 585 H 52.2576 1.42166 0.229115 0
M  V30 586 H 54.2106 3.04344 2.91466 0
M  V30 587 H 52.9346 1.8171 2.71384 0
M  V30 588 H 51.5936 3.42347 1.31127 0
M  V30 589 H 51.2416 3.31296 3.78487 0
M  V30 590 H 50.9416 4.95402 3.15992 0
M  V30 591 H 52.4656 4.59541 4.02063 0
M  V30 592 H 53.8796 5.40903 1.89992 0
M  V30 593 H 52.2766 5.86818 1.25559 0
M  V30 594 H 53.3466 4.84062 0.284894 0
M  V30 595 N 54.6897 -0.239769 1.55765 0
M  V30 596 C 55.9387 -0.964754 1.77131 0
M  V30 597 C 56.2517 -1.86213 0.59868 0
M  V30 598 O 57.4577 -2.6244 0.695522 0
M  V30 599 C 55.9137 -1.76552 3.1362 0
M  V30 600 C 55.5217 -0.915185 4.38553 0
M  V30 601 C 57.2657 -2.48281 3.44321 0
M  V30 602 C 55.1727 -1.71225 5.66071 0
M  V30 603 H 54.1027 -0.363953 0.660344 0
M  V30 604 H 56.7537 -0.219181 1.82186 0
M  V30 605 H 55.1357 -2.55331 3.02691 0
M  V30 606 H 56.3097 -0.169217 4.60489 0
M  V30 607 H 54.6247 -0.310889 4.15238 0
M  V30 608 H 57.2217 -3.08382 4.36812 0
M  V30 609 H 57.5647 -3.20256 2.65973 0
M  V30 610 H 58.0977 -1.76507 3.56497 0
M  V30 611 H 54.8367 -1.03612 6.4726 0
M  V30 612 H 54.3567 -2.43331 5.48224 0
M  V30 613 H 56.0357 -2.27758 6.05587 0
M  V30 614 N 56.1678 -1.49265 -0.50573 0
M  V30 615 C 57.1158 -1.66065 -1.62866 0
M  V30 616 C 58.1098 -0.526636 -1.61006 0
M  V30 617 O 59.3158 -0.706126 -1.65571 0
M  V30 618 H 55.6908 -0.52356 -0.539805 0
M  V30 619 H 57.6618 -2.60329 -1.45848 0
M  V30 620 C 56.4108 -1.74008 -3.01026 0
M  V30 621 H 55.7338 -2.6064 -3.03161 0
M  V30 622 H 57.1738 -1.89798 -3.79147 0
M  V30 623 C 55.6328 -0.483868 -3.33407 0
M  V30 624 O 56.1628 0.392548 -3.99777 0
M  V30 625 N 54.3688 -0.348236 -2.88506 0
M  V30 626 H 53.9158 -1.06242 -2.34671 0
M  V30 627 H 53.8738 0.491204 -3.10539 0
M  V30 628 N 57.6459 0.756429 -1.3826 0
M  V30 629 C 58.5939 1.89149 -1.35372 0
M  V30 630 C 59.5879 1.67691 -0.24004 0
M  V30 631 O 60.7939 1.75294 -0.408919 0
M  V30 632 H 57.1689 0.622271 -0.422236 0
M  V30 633 H 59.1399 1.88701 -2.31159 0
M  V30 634 C 57.8889 3.26599 -1.19284 0
M  V30 635 H 57.2119 3.43695 -2.0424 0
M  V30 636 H 58.6519 4.06274 -1.21316 0
M  V30 637 C 57.1109 3.3675 0.100454 0
M  V30 638 O 57.6409 3.86951 1.07851 0
M  V30 639 N 55.8469 2.90179 0.15633 0
M  V30 640 H 55.3939 2.49517 -0.640253 0
M  V30 641 H 55.3519 2.97352 1.02123 0
M  V30 642 N 59.124 1.23083 0.984299 0
M  V30 643 C 60.54 0.992637 1.24975 0
M  V30 644 C 60.74 -0.308618 1.99123 0
M  V30 645 O 59.796 -1.02905 2.30579 0
M  V30 646 C 61.109 2.19698 2.05312 0
M  V30 647 C 62.657 2.24147 2.18465 0
M  V30 648 C 63.132 3.44157 3.02192 0
M  V30 649 N 64.623 3.44372 3.09777 0
M  V30 650 C 65.358 4.33886 3.74874 0
M  V30 651 N 64.854 5.3363 4.41827 0
M  V30 652 N 66.647 4.21639 3.71721 0
M  V30 653 H 58.798 2.06731 0.487453 0
M  V30 654 H 61.061 0.906339 0.277944 0
M  V30 655 H 60.767 3.1411 1.58201 0
M  V30 656 H 60.641 2.20465 3.06064 0
M  V30 657 H 63.028 1.30277 2.64786 0
M  V30 658 H 63.109 2.27415 1.17115 0
M  V30 659 H 62.753 4.38332 2.56568 0
M  V30 660 H 62.683 3.3813 4.03702 0
M  V30 661 H 65.174 2.72201 2.62135 0
M  V30 662 H 65.487 5.98196 4.89266 0
M  V30 663 H 63.832 5.37534 4.40548 0
M  V30 664 H 67.023 3.42962 3.18582 0
M  V30 665 H 67.196 4.91604 4.22173 0
M  V30 666 N 60.6021 -1.18246 1.0419 0
M  V30 667 C 61.5321 -2.24127 0.654914 0
M  V30 668 C 62.5131 -1.66617 -0.342451 0
M  V30 669 O 63.6981 -1.92924 -0.222277 0
M  V30 670 C 60.8281 -3.47295 0.0183757 0
M  V30 671 C 59.7821 -4.17563 0.939414 0
M  V30 672 C 59.1081 -5.34438 0.167286 0
M  V30 673 C 60.4081 -4.70917 2.25908 0
M  V30 674 H 62.1021 -2.56753 1.54007 0
M  V30 675 H 59.6481 -1.23414 0.74195 0
M  V30 676 H 61.6011 -4.20572 -0.264082 0
M  V30 677 H 60.3251 -3.13907 -0.901664 0
M  V30 678 H 58.9841 -3.46186 1.20628 0
M  V30 679 H 58.6321 -4.97298 -0.7552 0
M  V30 680 H 58.3321 -5.82388 0.780901 0
M  V30 681 H 59.8561 -6.10504 -0.108125 0
M  V30 682 H 61.2701 -5.35882 2.03724 0
M  V30 683 H 59.6671 -5.29406 2.82577 0
M  V30 684 H 60.7371 -3.88272 2.9047 0
M  V30 685 N 62.0802 -0.821533 -1.34494 0
M  V30 686 C 63.3292 -0.405355 -1.97585 0
M  V30 687 C 63.6422 1.03677 -1.65863 0
M  V30 688 O 64.8482 1.55679 -2.22433 0
M  V30 689 C 63.3042 -0.673861 -3.53535 0
M  V30 690 C 62.9122 -2.12951 -3.94152 0
M  V30 691 C 64.6562 -0.32378 -4.23263 0
M  V30 692 C 62.5632 -2.34298 -5.43009 0
M  V30 693 H 61.4932 -0.147836 -0.739365 0
M  V30 694 H 64.1442 -1.00769 -1.53355 0
M  V30 695 H 62.5262 -0.00137554 -3.96 0
M  V30 696 H 63.7002 -2.84104 -3.62797 0
M  V30 697 H 62.0152 -2.44089 -3.37356 0
M  V30 698 H 64.6122 -0.461126 -5.32708 0
M  V30 699 H 64.9552 0.731586 -4.09821 0
M  V30 700 H 65.4882 -0.950786 -3.8627 0
M  V30 701 H 62.2272 -3.38335 -5.61435 0
M  V30 702 H 61.7472 -1.67687 -5.75883 0
M  V30 703 H 63.4262 -2.16588 -6.09671 0
M  V30 704 N 63.5583 1.46682 -0.576371 0
M  V30 705 C 64.7863 2.06798 -0.0649635 0
M  V30 706 C 65.2013 1.42612 1.23723 0
M  V30 707 O 64.5583 0.529203 1.74659 0
M  V30 708 C 64.6093 3.6132 0.114202 0
M  V30 709 O 64.3303 4.23104 -1.13644 0
M  V30 710 C 65.8313 4.38349 0.66069 0
M  V30 711 H 63.0513 0.668778 -0.0545616 0
M  V30 712 H 65.5953 1.88404 -0.795237 0
M  V30 713 H 63.7503 3.79162 0.794673 0
M  V30 714 H 64.1643 5.15894 -0.946253 0
M  V30 715 H 65.6383 5.47081 0.73526 0
M  V30 716 H 66.1153 4.05953 1.67627 0
M  V30 717 H 66.7213 4.25297 0.0152951 0
M  V30 718 N 65.0364 0.313813 1.54444 0
M  V30 719 C 66.2644 -0.293918 2.04802 0
M  V30 720 C 66.6794 -1.46537 1.19047 0
M  V30 721 O 66.0364 -1.81182 0.218939 0
M  V30 722 C 66.0874 -0.737806 3.53891 0
M  V30 723 O 65.8084 0.387038 4.36387 0
M  V30 724 C 67.3094 -1.40936 4.203 0
M  V30 725 H 64.5294 -0.0620057 0.668129 0
M  V30 726 H 67.0734 0.457169 1.99324 0
M  V30 727 H 65.2284 -1.43889 3.59687 0
M  V30 728 H 65.6424 0.0391274 5.24485 0
M  V30 729 H 67.1164 -1.67099 5.26101 0
M  V30 730 H 67.5934 -2.35355 3.70816 0
M  V30 731 H 68.1994 -0.751117 4.18615 0
M  V30 732 N 66.5145 -1.57545 0.0417849 0
M  V30 733 C 67.4465 -2.07904 -0.964799 0
M  V30 734 C 68.4595 -1.00497 -1.28079 0
M  V30 735 O 69.6485 -1.28087 -1.24322 0
M  V30 736 C 66.7485 -2.49928 -2.28887 0
M  V30 737 C 65.9215 -3.80562 -2.15619 0
M  V30 738 C 64.9805 -4.08999 -3.31069 0
M  V30 739 O 64.0065 -4.79061 -3.0739 0
M  V30 740 N 65.2085 -3.6017 -4.55256 0
M  V30 741 H 67.9735 -2.94886 -0.535029 0
M  V30 742 H 65.5345 -1.61252 -0.144681 0
M  V30 743 H 67.5265 -2.66034 -3.04972 0
M  V30 744 H 66.0965 -1.68245 -2.63463 0
M  V30 745 H 65.3165 -3.74129 -1.24183 0
M  V30 746 H 66.6045 -4.66126 -2.03971 0
M  V30 747 H 66.0025 -3.03512 -4.77386 0
M  V30 748 H 64.5595 -3.81532 -5.28466 0
M  V30 749 N 67.9926 0.231505 -1.5589 0
M  V30 750 C 68.9246 1.31006 -1.8807 0
M  V30 751 C 69.9376 1.43539 -0.768145 0
M  V30 752 O 71.1266 1.44614 -1.04638 0
M  V30 753 C 68.2266 2.68688 -2.06543 0
M  V30 754 C 67.3996 2.78228 -3.37502 0
M  V30 755 C 66.4586 3.96857 -3.4553 0
M  V30 756 O 65.4846 3.85662 -4.18633 0
M  V30 757 N 66.6866 5.1072 -2.75944 0
M  V30 758 H 69.4516 1.03731 -2.81176 0
M  V30 759 H 67.0126 0.421573 -1.56315 0
M  V30 760 H 69.0046 3.46412 -2.09239 0
M  V30 761 H 67.5746 2.88605 -1.20109 0
M  V30 762 H 66.7946 1.87059 -3.46991 0
M  V30 763 H 68.0826 2.81564 -4.23791 0
M  V30 764 H 67.4806 5.2271 -2.16311 0
M  V30 765 H 66.0376 5.86523 -2.84314 0
M  V30 766 N 69.4707 1.49531 0.497807 0
M  V30 767 C 70.7167 1.60388 1.25089 0
M  V30 768 C 71.0717 0.288328 1.90227 0
M  V30 769 O 70.3647 -0.711706 1.77891 0
M  V30 770 C 70.5587 2.70252 2.33878 0
M  V30 771 C 70.3877 4.12363 1.79408 0
M  V30 772 C 69.1577 4.7911 1.60566 0
M  V30 773 C 71.3557 4.97491 1.30412 0
M  V30 774 N 69.3377 6.05525 1.01059 0
M  V30 775 C 70.7087 6.14411 0.830595 0
M  V30 776 C 72.7637 4.83466 1.19015 0
M  V30 777 C 71.4667 7.1885 0.254371 0
M  V30 778 C 73.4927 5.88057 0.627892 0
M  V30 779 C 72.8547 7.04208 0.16461 0
M  V30 780 H 68.9537 0.641246 0.447579 0
M  V30 781 H 71.5377 1.86549 0.557441 0
M  V30 782 H 69.7087 2.45858 3.0068 0
M  V30 783 H 71.4407 2.70613 3.00917 0
M  V30 784 H 68.1957 4.35961 1.85026 0
M  V30 785 H 68.6197 6.73028 0.732236 0
M  V30 786 H 73.2617 3.93978 1.53431 0
M  V30 787 H 70.9797 8.08036 -0.102052 0
M  V30 788 H 74.5657 5.79266 0.542444 0
M  V30 789 H 73.4457 7.83757 -0.263669 0
M  V30 790 N 70.9488 -0.749086 1.3866 0
M  V30 791 C 71.8788 -1.8764 1.38973 0
M  V30 792 C 72.8598 -1.68178 0.255004 0
M  V30 793 O 74.0448 -1.88704 0.458754 0
M  V30 794 C 71.1748 -3.25222 1.21851 0
M  V30 795 C 70.1288 -3.59295 2.32575 0
M  V30 796 C 69.4548 -4.95663 2.00555 0
M  V30 797 C 70.7548 -3.63709 3.7485 0
M  V30 798 H 72.4488 -1.87635 2.3331 0
M  V30 799 H 69.9948 -0.901329 1.12303 0
M  V30 800 H 71.9478 -4.03746 1.20695 0
M  V30 801 H 70.6718 -3.25719 0.239775 0
M  V30 802 H 69.3308 -2.83093 2.32925 0
M  V30 803 H 68.9788 -4.92724 1.01154 0
M  V30 804 H 68.6788 -5.19429 2.74714 0
M  V30 805 H 70.2028 -5.7656 2.01024 0
M  V30 806 H 71.6168 -4.32338 3.76506 0
M  V30 807 H 70.0138 -3.98986 4.48252 0
M  V30 808 H 71.0838 -2.63834 4.06841 0
M  V30 809 N 72.4269 -1.23603 -0.977757 0
M  V30 810 C 73.6759 -1.06377 -1.71368 0
M  V30 811 C 73.9889 0.399062 -1.91486 0
M  V30 812 O 75.1949 0.691312 -2.62551 0
M  V30 813 C 73.6509 -1.85512 -3.08404 0
M  V30 814 C 73.2589 -3.36141 -2.96164 0
M  V30 815 C 75.0029 -1.76783 -3.85938 0
M  V30 816 C 72.9099 -4.07659 -4.28449 0
M  V30 817 H 71.8399 -0.394452 -0.642591 0
M  V30 818 H 74.4909 -1.47594 -1.09034 0
M  V30 819 H 72.8729 -1.37103 -3.71509 0
M  V30 820 H 74.0469 -3.92056 -2.42133 0
M  V30 821 H 72.3619 -3.45712 -2.32104 0
M  V30 822 H 74.9589 -2.27526 -4.83876 0
M  V30 823 H 75.3019 -0.731116 -4.0983 0
M  V30 824 H 75.8349 -2.22818 -3.2954 0
M  V30 825 H 72.5739 -5.11648 -4.09752 0
M  V30 826 H 72.0939 -3.5653 -4.82334 0
M  V30 827 H 73.7729 -4.141 -4.97122 0
M  V30 828 N 73.905 1.17692 -1.04816 0
M  V30 829 C 74.852 2.21581 -0.645797 0
M  V30 830 C 75.822 1.62367 0.350159 0
M  V30 831 O 77.007 1.89254 0.242433 0
M  V30 832 C 74.147 3.45092 -0.0227568 0
M  V30 833 C 73.26 4.18613 -1.06709 0
M  V30 834 C 72.395 5.29602 -0.411767 0
M  V30 835 C 71.434 5.94904 -1.44067 0
M  V30 836 N 70.571 6.97414 -0.809781 0
M  V30 837 H 75.411 2.55353 -1.5362 0
M  V30 838 H 72.948 1.25438 -0.768364 0
M  V30 839 H 74.906 4.15679 0.35588 0
M  V30 840 H 73.536 3.11917 0.831122 0
M  V30 841 H 72.588 3.46779 -1.5636 0
M  V30 842 H 73.9 4.63293 -1.84827 0
M  V30 843 H 73.054 6.06696 0.0206623 0
M  V30 844 H 71.793 4.86045 0.401438 0
M  V30 845 H 70.798 5.16544 -1.88316 0
M  V30 846 H 72.023 6.40542 -2.25571 0
M  V30 847 H 69.969 6.55998 -0.0170186 0
M  V30 848 H 69.886 7.40386 -1.52856 0
M  V30 849 H 71.154 7.78463 -0.401999 0
M  V30 850 N 75.3831 0.828654 1.34056 0
M  V30 851 C 76.3131 0.269443 2.3194 0
M  V30 852 C 77.2941 -0.617247 1.58506 0
M  V30 853 O 78.4791 -0.542931 1.86456 0
M  V30 854 C 75.6091 -0.564793 3.42677 0
M  V30 855 C 74.5631 0.225241 4.27407 0
M  V30 856 C 73.8891 -0.7321 5.29664 0
M  V30 857 C 75.1891 1.43663 5.02154 0
M  V30 858 H 76.8831 1.08728 2.7896 0
M  V30 859 H 74.4291 0.524283 1.34117 0
M  V30 860 H 76.3821 -0.966233 4.10173 0
M  V30 861 H 75.1061 -1.41574 2.9432 0
M  V30 862 H 73.7651 0.608117 3.61521 0
M  V30 863 H 73.4131 -1.57916 4.77568 0
M  V30 864 H 73.1131 -0.20767 5.87233 0
M  V30 865 H 74.6371 -1.13128 6.00029 0
M  V30 866 H 76.0511 1.1089 5.62473 0
M  V30 867 H 74.4481 1.89711 5.69324 0
M  V30 868 H 75.5181 2.21181 4.31517 0
M  V30 869 N 76.8612 -1.46375 0.584142 0
M  V30 870 C 78.0892 -2.06761 0.0759296 0
M  V30 871 C 78.5042 -1.43266 -1.22965 0
M  V30 872 O 77.8612 -0.538458 -1.74376 0
M  V30 873 C 77.9122 -3.61375 -0.0950384 0
M  V30 874 O 77.6332 -4.22495 1.15887 0
M  V30 875 C 79.1342 -4.38693 -0.637434 0
M  V30 876 H 76.3542 -0.668479 0.0581075 0
M  V30 877 H 78.8982 -1.8798 0.805218 0
M  V30 878 H 77.0532 -3.79578 -0.774554 0
M  V30 879 H 77.4672 -5.15385 0.973598 0
M  V30 880 H 78.9412 -5.47464 -0.706237 0
M  V30 881 H 79.4182 -4.06836 -1.65472 0
M  V30 882 H 80.0242 -4.25299 0.00725967 0
M  V30 883 N 78.3393 -0.321999 -1.54275 0
M  V30 884 C 79.5643 0.285791 -2.05422 0
M  V30 885 C 79.9893 1.45124 -1.19669 0
M  V30 886 O 79.3473 1.80132 -0.205441 0
M  V30 887 C 79.3953 0.69956 -3.53749 0
M  V30 888 O 78.4993 1.8021 -3.70942 0
M  V30 889 H 77.8403 0.0518962 -0.661969 0
M  V30 890 H 80.3703 -0.469954 -1.9913 0
M  V30 891 H 80.3803 0.982649 -3.9599 0
M  V30 892 H 79.0553 -0.152864 -4.15619 0
M  V30 893 H 77.6323 1.51794 -3.40607 0
M  V30 894 N 79.8174 1.5752 -0.0501392 0
M  V30 895 C 80.7644 2.1147 0.924603 0
M  V30 896 C 81.7344 1.02182 1.30951 0
M  V30 897 O 82.9194 1.29723 1.39916 0
M  V30 898 C 80.0594 2.66337 2.19451 0
M  V30 899 C 79.1724 3.89708 1.86418 0
M  V30 900 C 78.3074 4.32893 3.07859 0
M  V30 901 C 77.3464 5.48967 2.70742 0
M  V30 902 N 76.4834 5.87211 3.84874 0
M  V30 903 H 81.3234 2.94465 0.457639 0
M  V30 904 H 78.8604 1.45531 0.214266 0
M  V30 905 H 80.8184 2.96247 2.93758 0
M  V30 906 H 79.4484 1.86141 2.63726 0
M  V30 907 H 78.5004 3.66396 1.02264 0
M  V30 908 H 79.8124 4.74074 1.55096 0
M  V30 909 H 78.9664 4.6435 3.90466 0
M  V30 910 H 77.7054 3.47336 3.42358 0
M  V30 911 H 76.7104 5.17183 1.86551 0
M  V30 912 H 77.9354 6.3624 2.37436 0
M  V30 913 H 75.8814 5.04607 4.19175 0
M  V30 914 H 75.7984 6.66266 3.57247 0
M  V30 915 H 77.0664 6.23282 4.68123 0
M  V30 916 N 81.2955 -0.223234 1.56011 0
M  V30 917 C 82.2275 -1.30006 1.88762 0
M  V30 918 C 83.2405 -1.43129 0.775746 0
M  V30 919 O 84.4295 -1.44057 1.05403 0
M  V30 920 C 81.5295 -2.67589 2.07965 0
M  V30 921 C 80.7025 -2.76434 3.38973 0
M  V30 922 C 79.7615 -3.95019 3.47629 0
M  V30 923 O 78.7875 -3.83436 4.20672 0
M  V30 924 N 79.9895 -5.09249 2.78649 0
M  V30 925 H 82.7545 -1.02238 2.81722 0
M  V30 926 H 80.3155 -0.413278 1.56536 0
M  V30 927 H 82.3075 -3.45297 2.11073 0
M  V30 928 H 80.8775 -2.87964 1.21638 0
M  V30 929 H 80.0975 -1.85216 3.47978 0
M  V30 930 H 81.3855 -2.79313 4.25278 0
M  V30 931 H 80.7835 -5.21556 2.19081 0
M  V30 932 H 79.3405 -5.85007 2.8742 0
M  V30 933 N 82.7736 -1.49793 -0.48987 0
M  V30 934 C 83.7066 -1.61898 -1.60823 0
M  V30 935 C 84.6846 -0.467651 -1.5573 0
M  V30 936 O 85.8686 -0.684682 -1.75626 0
M  V30 937 C 82.9956 -1.58422 -2.99366 0
M  V30 938 C 82.0416 -2.78889 -3.22682 0
M  V30 939 S 82.8746 -4.40429 -3.04602 0
M  V30 940 C 84.0306 -4.39617 -4.4552 0
M  V30 941 H 84.2636 -2.56502 -1.50312 0
M  V30 942 H 81.7966 -1.38822 -0.675849 0
M  V30 943 H 83.7546 -1.57103 -3.79248 0
M  V30 944 H 82.4156 -0.650866 -3.07283 0
M  V30 945 H 81.6086 -2.72708 -4.23847 0
M  V30 946 H 81.2106 -2.77678 -2.50541 0
M  V30 947 H 83.5026 -4.12022 -5.37814 0
M  V30 948 H 84.4456 -5.41097 -4.56749 0
M  V30 949 H 84.8536 -3.69554 -4.2672 0
M  V30 950 N 84.2517 0.741722 -1.39055 0
M  V30 951 C 85.1847 1.86416 -1.31622 0
M  V30 952 C 86.1627 1.61473 -0.191076 0
M  V30 953 O 87.3467 1.84825 -0.370399 0
M  V30 954 C 84.4737 3.22266 -1.04221 0
M  V30 955 C 83.5197 3.66079 -2.18834 0
M  V30 956 S 84.3527 3.7623 -3.81066 0
M  V30 957 C 85.5087 5.14881 -3.55877 0
M  V30 958 H 85.7417 1.92437 -2.26617 0
M  V30 959 H 83.2747 0.905907 -1.25031 0
M  V30 960 H 85.2327 4.00714 -0.890964 0
M  V30 961 H 83.8937 3.1391 -0.109237 0
M  V30 962 H 83.0867 4.64648 -1.95238 0
M  V30 963 H 82.6887 2.94817 -2.30128 0
M  V30 964 H 84.9807 6.01006 -3.12726 0
M  V30 965 H 85.9237 5.43503 -4.53884 0
M  V30 966 H 86.3317 4.84239 -2.90126 0
M  V30 967 N 85.7298 1.2412 0.971189 0
M  V30 968 C 86.9578 1.10575 1.74874 0
M  V30 969 C 87.3728 -0.342017 1.85676 0
M  V30 970 O 86.7298 -1.23617 1.34258 0
M  V30 971 C 86.7808 1.73579 3.171 0
M  V30 972 O 86.5018 3.12695 3.06844 0
M  V30 973 C 88.0028 1.65598 4.11208 0
M  V30 974 H 85.2228 0.386504 0.548503 0
M  V30 975 H 87.7668 1.64156 1.21955 0
M  V30 976 H 85.9218 1.24009 3.67016 0
M  V30 977 H 86.3358 3.43412 3.96445 0
M  V30 978 H 87.8098 2.1437 5.08674 0
M  V30 979 H 88.2868 0.616532 4.34851 0
M  V30 980 H 88.8928 2.14578 3.67201 0
M  V30 981 N 87.2079 -1.17134 1.05439 0
M  V30 982 C 88.1409 -2.2012 0.601855 0
M  V30 983 C 89.1189 -1.58314 -0.370854 0
M  V30 984 O 90.3029 -1.8638 -0.281882 0
M  V30 985 C 87.4299 -3.38491 -0.118868 0
M  V30 986 C 86.4759 -4.18752 0.809242 0
M  V30 987 S 87.3089 -4.83602 2.29977 0
M  V30 988 C 88.4649 -6.0536 1.59029 0
M  V30 989 H 88.6979 -2.58165 1.47438 0
M  V30 990 H 86.2309 -1.27788 0.866573 0
M  V30 991 H 88.1889 -4.07084 -0.528495 0
M  V30 992 H 86.8499 -2.98829 -0.967465 0
M  V30 993 H 86.0429 -5.03373 0.251379 0
M  V30 994 H 85.6449 -3.5561 1.15835 0
M  V30 995 H 87.9369 -6.71615 0.891017 0
M  V30 996 H 88.8799 -6.65679 2.41407 0
M  V30 997 H 89.2879 -5.54138 1.07663 0
M  V30 998 N 88.686 -0.835752 -1.33615 0
M  V30 999 C 89.636 -0.238856 -2.26745 0
M  V30 1000 C 90.62 0.604343 -1.49119 0
M  V30 1001 O 91.812 0.456822 -1.71003 0
M  V30 1002 C 88.941 0.587725 -3.38232 0
M  V30 1003 C 88.027 -0.266811 -4.2326 0
M  V30 1004 N 88.418 -1.34403 -4.87616 0
M  V30 1005 C 86.716 -0.0533131 -4.45968 0
M  V30 1006 C 87.417 -1.86819 -5.50884 0
M  V30 1007 N 86.393 -1.17013 -5.30857 0
M  V30 1008 H 90.195 -1.06266 -2.74016 0
M  V30 1009 H 87.709 -0.679881 -1.47483 0
M  V30 1010 H 89.706 1.03161 -4.03935 0
M  V30 1011 H 88.366 1.40954 -2.9251 0
M  V30 1012 H 89.377 -1.7269 -4.88261 0
M  V30 1013 H 86.054 0.735312 -4.10974 0
M  V30 1014 H 87.444 -2.7701 -6.1214 0
M  V30 1015 N 90.1641 1.46063 -0.591896 0
M  V30 1016 C 91.1121 2.32124 0.148739 0
M  V30 1017 C 92.1061 1.45035 0.875286 0
M  V30 1018 O 93.3121 1.61609 0.792632 0
M  V30 1019 H 89.6871 0.749024 0.066832 0
M  V30 1020 H 91.6581 2.92392 -0.595783 0
M  V30 1021 C 90.4071 3.28373 1.1431 0
M  V30 1022 H 89.7301 3.95371 0.59346 0
M  V30 1023 H 91.1701 3.91352 1.63155 0
M  V30 1024 C 89.6291 2.54393 2.20875 0
M  V30 1025 O 90.1591 2.31373 3.28374 0
M  V30 1026 N 88.3651 2.14797 1.95731 0
M  V30 1027 H 87.9121 2.33719 1.08319 0
M  V30 1028 H 87.8701 1.65619 2.67241 0
M  V30 1029 N 91.6422 0.330177 1.54103 0
M  V30 1030 C 92.8702 -0.272179 2.05102 0
M  V30 1031 C 93.2852 -1.45267 1.20595 0
M  V30 1032 O 92.6422 -1.8094 0.238144 0
M  V30 1033 C 92.6932 -0.70023 3.54653 0
M  V30 1034 O 92.4142 0.433301 4.35952 0
M  V30 1035 C 93.9152 -1.3647 4.21771 0
M  V30 1036 H 91.1352 -0.0549159 0.668749 0
M  V30 1037 H 93.6792 0.478285 1.98828 0
M  V30 1038 H 91.8342 -1.40066 3.61193 0
M  V30 1039 H 92.2482 0.0947539 5.24414 0
M  V30 1040 H 93.7222 -1.61509 5.27843 0
M  V30 1041 H 94.1992 -2.31409 3.73292 0
M  V30 1042 H 94.8052 -0.706675 4.19388 0
M  V30 1043 N 93.1203 -1.57491 0.0584922 0
M  V30 1044 C 94.0673 -2.11958 -0.913376 0
M  V30 1045 C 95.0373 -1.02875 -1.30407 0
M  V30 1046 O 96.2223 -1.30464 -1.39226 0
M  V30 1047 C 93.3623 -2.67497 -2.18035 0
M  V30 1048 C 92.4753 -3.90691 -1.84349 0
M  V30 1049 C 91.6103 -4.3452 -3.05559 0
M  V30 1050 C 90.6493 -5.50395 -2.67827 0
M  V30 1051 N 89.7863 -5.89244 -3.81754 0
M  V30 1052 H 94.6263 -2.94704 -0.442017 0
M  V30 1053 H 92.1633 -1.45643 -0.206545 0
M  V30 1054 H 94.1213 -2.978 -2.92183 0
M  V30 1055 H 92.7513 -1.87537 -2.62735 0
M  V30 1056 H 91.8033 -3.66934 -1.00319 0
M  V30 1057 H 93.1153 -4.7489 -1.5258 0
M  V30 1058 H 92.2693 -4.66414 -3.87998 0
M  V30 1059 H 91.0083 -3.49147 -3.40511 0
M  V30 1060 H 90.0133 -5.18165 -1.83806 0
M  V30 1061 H 91.2383 -6.3749 -2.34059 0
M  V30 1062 H 89.1843 -5.06823 -4.16493 0
M  V30 1063 H 89.1013 -6.68151 -3.53708 0
M  V30 1064 H 90.3693 -6.25756 -4.64811 0
M  V30 1065 N 94.5984 0.214957 -1.56127 0
M  V30 1066 C 95.8464 0.936518 -1.79091 0
M  V30 1067 C 96.1674 1.84606 -0.628148 0
M  V30 1068 O 95.4374 1.92664 0.35462 0
M  V30 1069 H 94.0174 0.3488 -0.660566 0
M  V30 1070 H 96.6794 0.22523 -1.93594 0
M  V30 1071 H 95.7754 1.53943 -2.71492 0
M  V30 1072 N 96.0765 1.50051 0.48192 0
M  V30 1073 C 97.4925 1.37237 0.814756 0
M  V30 1074 C 97.6925 0.420109 1.97072 0
M  V30 1075 O 96.7485 -0.141246 2.52105 0
M  V30 1076 C 98.0615 2.78375 1.13701 0
M  V30 1077 C 99.6095 2.87213 1.2441 0
M  V30 1078 C 100.084 4.29161 1.59954 0
M  V30 1079 N 101.575 4.32061 1.66967 0
M  V30 1080 C 102.31 5.38879 1.95952 0
M  V30 1081 N 101.806 6.55918 2.23031 0
M  V30 1082 N 103.599 5.26312 1.97363 0
M  V30 1083 H 95.7505 2.10546 -0.28005 0
M  V30 1084 H 98.0135 0.945921 -0.0627454 0
M  V30 1085 H 97.7195 3.49845 0.360787 0
M  V30 1086 H 97.5935 3.14941 2.07586 0
M  V30 1087 H 99.9805 2.15969 2.01101 0
M  V30 1088 H 100.061 2.54204 0.285299 0
M  V30 1089 H 99.7055 5.00938 0.838067 0
M  V30 1090 H 99.6355 4.59648 2.56966 0
M  V30 1091 H 102.126 3.47661 1.48123 0
M  V30 1092 H 102.439 7.33139 2.44391 0
M  V30 1093 H 100.784 6.59112 2.20447 0
M  V30 1094 H 103.975 4.33876 1.75697 0
M  V30 1095 H 104.148 6.09649 2.19618 0
M  V30 1096 N 97.5546 -0.734337 1.39446 0
M  V30 1097 C 98.7826 -1.52358 1.39981 0
M  V30 1098 C 99.1976 -1.88799 -0.0054975 0
M  V30 1099 O 98.5546 -1.54146 -0.976998 0
M  V30 1100 C 98.6056 -2.81072 2.27333 0
M  V30 1101 O 98.3266 -2.46178 3.62392 0
M  V30 1102 C 99.8276 -3.75096 2.36259 0
M  V30 1103 H 97.0476 -0.470806 0.478103 0
M  V30 1104 H 99.5916 -0.907339 1.83269 0
M  V30 1105 H 97.7466 -3.39026 1.87457 0
M  V30 1106 H 98.1606 -3.28866 4.08592 0
M  V30 1107 H 99.6346 -4.62305 3.01626 0
M  V30 1108 H 100.112 -4.16892 1.38194 0
M  V30 1109 H 100.718 -3.23061 2.76608 0
M  V30 1110 N 99.0327 -1.24633 -0.964593 0
M  V30 1111 C 100.279 -1.09957 -1.71117 0
M  V30 1112 C 100.634 0.357422 -1.89051 0
M  V30 1113 O 99.9267 1.26029 -1.44317 0
M  V30 1114 C 100.121 -1.7763 -3.10133 0
M  V30 1115 C 99.9497 -3.29759 -3.05759 0
M  V30 1116 C 98.7197 -3.98981 -3.10068 0
M  V30 1117 C 100.918 -4.26305 -2.87695 0
M  V30 1118 N 98.8997 -5.37966 -2.95747 0
M  V30 1119 C 100.271 -5.52308 -2.81702 0
M  V30 1120 C 102.326 -4.16842 -2.72299 0
M  V30 1121 C 101.029 -6.69931 -2.61887 0
M  V30 1122 C 103.055 -5.34147 -2.53853 0
M  V30 1123 C 102.417 -6.59084 -2.48572 0
M  V30 1124 H 98.5157 -0.457003 -0.634564 0
M  V30 1125 H 101.1 -1.57592 -1.14337 0
M  V30 1126 H 99.2707 -1.32504 -3.65099 0
M  V30 1127 H 101.003 -1.55786 -3.73514 0
M  V30 1128 H 97.7577 -3.50169 -3.18871 0
M  V30 1129 H 98.1817 -6.10877 -2.91818 0
M  V30 1130 H 102.824 -3.21007 -2.75163 0
M  V30 1131 H 100.542 -7.65886 -2.57767 0
M  V30 1132 H 104.128 -5.28678 -2.4288 0
M  V30 1133 H 103.008 -7.48324 -2.34481 0
M  V30 1134 N 100.511 1.16574 -1.06058 0
M  V30 1135 C 101.736 1.91493 -0.796562 0
M  V30 1136 C 102.161 1.76773 0.642868 0
M  V30 1137 O 101.519 1.09142 1.44768 0
M  V30 1138 C 101.567 3.40293 -1.19303 0
M  V30 1139 O 100.671 4.11074 -0.330394 0
M  V30 1140 H 100.012 0.596678 -0.291326 0
M  V30 1141 H 102.542 1.47708 -1.41575 0
M  V30 1142 H 102.552 3.91057 -1.16356 0
M  V30 1143 H 101.227 3.50326 -2.24153 0
M  V30 1144 H 99.8038 3.70513 -0.421225 0
M  V30 1145 N 101.989 0.842826 1.3317 0
M  V30 1146 C 102.919 0.294028 2.31641 0
M  V30 1147 C 103.9 -0.600401 1.59151 0
M  V30 1148 O 105.085 -0.523124 1.87022 0
M  V30 1149 C 102.215 -0.528416 3.43257 0
M  V30 1150 C 101.169 0.27056 4.27144 0
M  V30 1151 C 100.495 -0.675881 5.30411 0
M  V30 1152 C 101.795 1.48981 5.00602 0
M  V30 1153 H 103.489 1.11681 2.77791 0
M  V30 1154 H 101.035 0.538478 1.33553 0
M  V30 1155 H 102.988 -0.922674 4.11175 0
M  V30 1156 H 101.712 -1.38445 2.95805 0
M  V30 1157 H 100.371 0.646427 3.60856 0
M  V30 1158 H 100.019 -1.52842 4.79216 0
M  V30 1159 H 99.7189 -0.145374 5.8742 0
M  V30 1160 H 101.243 -1.06757 6.01195 0
M  V30 1161 H 102.657 1.16849 5.61266 0
M  V30 1162 H 101.054 1.95739 5.6728 0
M  V30 1163 H 102.124 2.25746 4.29147 0
M  V30 1164 N 103.467 -1.45747 0.599634 0
M  V30 1165 C 104.4 -2.27547 -0.172552 0
M  V30 1166 C 105.378 -1.36657 -0.881116 0
M  V30 1167 O 106.562 -1.66081 -0.891595 0
M  V30 1168 C 103.689 -3.14829 -1.24903 0
M  V30 1169 C 102.735 -4.21603 -0.644465 0
M  V30 1170 S 103.568 -5.32754 0.541606 0
M  V30 1171 C 104.724 -6.23604 -0.535656 0
M  V30 1172 H 104.957 -2.92691 0.521468 0
M  V30 1173 H 102.49 -1.49473 0.386947 0
M  V30 1174 H 104.448 -3.65675 -1.86527 0
M  V30 1175 H 103.109 -2.48965 -1.91508 0
M  V30 1176 H 102.302 -4.82566 -1.45417 0
M  V30 1177 H 101.904 -3.73857 -0.103534 0
M  V30 1178 H 104.196 -6.62519 -1.41686 0
M  V30 1179 H 105.139 -7.0809 0.0376246 0
M  V30 1180 H 105.547 -5.58103 -0.84741 0
M  V30 1181 N 104.945 -0.338344 -1.53925 0
M  V30 1182 C 105.875 0.51328 -2.27789 0
M  V30 1183 C 106.856 1.107 -1.29149 0
M  V30 1184 O 108.041 1.12937 -1.57984 0
M  V30 1185 C 105.171 1.66697 -3.04679 0
M  V30 1186 C 104.125 1.20183 -4.1078 0
M  V30 1187 C 103.451 2.44363 -4.75595 0
M  V30 1188 C 104.751 0.30605 -5.21403 0
M  V30 1189 H 106.445 -0.102883 -2.99223 0
M  V30 1190 H 103.991 -0.0509219 -1.4391 0
M  V30 1191 H 105.944 2.26915 -3.55088 0
M  V30 1192 H 104.668 2.30995 -2.30887 0
M  V30 1193 H 103.327 0.622499 -3.61276 0
M  V30 1194 H 102.975 3.07057 -3.98403 0
M  V30 1195 H 102.675 2.13925 -5.47275 0
M  V30 1196 H 104.199 3.05317 -5.28786 0
M  V30 1197 H 105.613 0.814929 -5.67478 0
M  V30 1198 H 104.01 0.0937929 -6.00027 0
M  V30 1199 H 105.08 -0.65921 -4.80398 0
M  V30 1200 N 106.423 1.57458 -0.0668435 0
M  V30 1201 C 107.669 1.93587 0.6043 0
M  V30 1202 C 108.002 0.946722 1.69561 0
M  V30 1203 O 107.277 -0.0248516 1.94484 0
M  V30 1204 C 107.56 3.40014 1.18585 0
M  V30 1205 C 107.413 4.49685 0.101529 0
M  V30 1206 C 108.732 3.87154 2.09284 0
M  V30 1207 H 105.851 0.703958 0.218202 0
M  V30 1208 H 108.493 1.89542 -0.131804 0
M  V30 1209 H 106.643 3.43592 1.81319 0
M  V30 1210 H 108.315 4.5823 -0.531279 0
M  V30 1211 H 106.558 4.30059 -0.568487 0
M  V30 1212 H 107.229 5.49266 0.54874 0
M  V30 1213 H 109.705 3.85551 1.56491 0
M  V30 1214 H 108.581 4.90231 2.46911 0
M  V30 1215 H 108.842 3.2481 2.99918 0
M  V30 1216 N 107.901 -0.206675 1.56239 0
M  V30 1217 C 109.126 -0.949474 1.8439 0
M  V30 1218 C 109.551 -1.76549 0.649016 0
M  V30 1219 O 108.909 -1.76782 -0.402231 0
M  V30 1220 C 108.957 -1.83078 3.10668 0
M  V30 1221 O 108.061 -2.9281 2.90407 0
M  V30 1222 H 107.402 -0.268033 0.607499 0
M  V30 1223 H 109.932 -0.215488 2.03462 0
M  V30 1224 H 109.942 -2.2377 3.41161 0
M  V30 1225 H 108.617 -1.23112 3.97261 0
M  V30 1226 H 107.194 -2.55956 2.71184 0
M  V30 1227 N 109.379 -1.50304 -0.473955 0
M  V30 1228 C 110.309 -1.71886 -1.58042 0
M  V30 1229 C 111.29 -0.567799 -1.60344 0
M  V30 1230 O 112.475 -0.806623 -1.76656 0
M  V30 1231 C 109.605 -1.81036 -2.96384 0
M  V30 1232 C 108.559 -2.962 -3.08949 0
M  V30 1233 C 107.885 -2.9049 -4.48909 0
M  V30 1234 C 109.185 -4.36752 -2.86434 0
M  V30 1235 H 110.879 -2.64527 -1.40234 0
M  V30 1236 H 108.425 -1.27295 -0.673201 0
M  V30 1237 H 110.378 -1.94719 -3.73714 0
M  V30 1238 H 109.102 -0.850147 -3.15341 0
M  V30 1239 H 107.761 -2.82164 -2.3405 0
M  V30 1240 H 107.409 -1.92321 -4.64781 0
M  V30 1241 H 107.109 -3.67802 -4.58253 0
M  V30 1242 H 108.633 -3.06218 -5.28264 0
M  V30 1243 H 110.047 -4.5133 -3.53517 0
M  V30 1244 H 108.444 -5.15493 -3.07225 0
M  V30 1245 H 109.514 -4.49321 -1.82316 0
M  V30 1246 N 110.857 0.726932 -1.39834 0
M  V30 1247 C 112.106 1.48214 -1.36805 0
M  V30 1248 C 112.419 1.95576 0.0305291 0
M  V30 1249 O 113.625 2.7088 0.183417 0
M  V30 1250 C 112.081 2.67854 -2.40379 0
M  V30 1251 C 111.689 2.27408 -3.85992 0
M  V30 1252 C 113.433 3.45641 -2.46439 0
M  V30 1253 C 111.34 3.43819 -4.81189 0
M  V30 1254 H 110.27 0.556606 -0.508631 0
M  V30 1255 H 112.921 0.792216 -1.65518 0
M  V30 1256 H 111.303 3.3896 -2.04749 0
M  V30 1257 H 112.477 1.63795 -4.30706 0
M  V30 1258 H 110.792 1.62692 -3.83302 0
M  V30 1259 H 113.389 4.32244 -3.14753 0
M  V30 1260 H 113.732 3.88669 -1.49139 0
M  V30 1261 H 114.265 2.8157 -2.81004 0
M  V30 1262 H 111.004 3.05834 -5.79781 0
M  V30 1263 H 110.524 4.06385 -4.41148 0
M  V30 1264 H 112.203 4.10043 -5.00474 0
M  V30 1265 N 112.336 1.25143 0.95797 0
M  V30 1266 C 113.585 1.0909 1.69654 0
M  V30 1267 C 113.898 -0.368548 1.92097 0
M  V30 1268 O 115.104 -0.649455 2.63618 0
M  V30 1269 C 113.56 1.90395 3.05414 0
M  V30 1270 C 113.168 3.4081 2.90779 0
M  V30 1271 C 114.912 1.82901 3.83076 0
M  V30 1272 C 112.819 4.14423 4.21909 0
M  V30 1273 H 111.749 0.404625 0.636235 0
M  V30 1274 H 114.4 1.4931 1.06672 0
M  V30 1275 H 112.782 1.42996 3.69281 0
M  V30 1276 H 113.956 3.95859 2.35865 0
M  V30 1277 H 112.271 3.49361 2.26575 0
M  V30 1278 H 114.868 2.35196 4.80195 0
M  V30 1279 H 115.211 0.796224 4.08615 0
M  V30 1280 H 115.744 2.28033 3.25954 0
M  V30 1281 H 112.483 5.18102 4.01561 0
M  V30 1282 H 112.003 3.64159 4.76601 0
M  V30 1283 H 113.682 4.21956 4.90471 0
M  V30 1284 N 113.814 -1.1601 1.06675 0
M  V30 1285 C 115.061 -1.86633 0.785781 0
M  V30 1286 C 115.389 -1.81929 -0.687896 0
M  V30 1287 O 114.644 -1.23253 -1.52011 0
M  V30 1288 C 114.943 -3.35547 1.23057 0
M  V30 1289 C 114.609 -3.60448 2.70902 0
M  V30 1290 C 113.271 -3.66954 3.11285 0
M  V30 1291 C 115.623 -3.7071 3.66365 0
M  V30 1292 C 112.951 -3.81225 4.45965 0
M  V30 1293 C 115.303 -3.86503 5.00797 0
M  V30 1294 C 113.967 -3.91252 5.40813 0
M  V30 1295 H 113.237 -0.682937 0.287538 0
M  V30 1296 H 115.884 -1.37146 1.33654 0
M  V30 1297 H 114.189 -3.87193 0.59907 0
M  V30 1298 H 115.886 -3.88583 0.990163 0
M  V30 1299 H 112.476 -3.56021 2.38636 0
M  V30 1300 H 116.66 -3.64991 3.36296 0
M  V30 1301 H 111.916 -3.83155 4.76447 0
M  V30 1302 H 116.09 -3.93385 5.74649 0
M  V30 1303 H 113.717 -4.02062 6.45174 0
M  V30 1304 N 115.292 -0.849877 -1.32721 0
M  V30 1305 C 116.541 -0.447175 -1.96681 0
M  V30 1306 C 116.854 1.00135 -1.68025 0
M  V30 1307 O 118.06 1.50926 -2.25685 0
M  V30 1308 C 116.516 -0.7487 -3.52026 0
M  V30 1309 C 116.124 -2.21264 -3.89546 0
M  V30 1310 C 117.868 -0.413487 -4.22481 0
M  V30 1311 C 115.775 -2.45763 -5.37917 0
M  V30 1312 H 114.705 -0.163486 -0.736063 0
M  V30 1313 H 117.356 -1.03999 -1.51183 0
M  V30 1314 H 115.738 -0.0853727 -3.95908 0
M  V30 1315 H 116.912 -2.91736 -3.56689 0
M  V30 1316 H 115.227 -2.5119 -3.32103 0
M  V30 1317 H 117.824 -0.574017 -5.3161 0
M  V30 1318 H 118.167 0.644492 -4.11281 0
M  V30 1319 H 118.7 -1.03251 -3.84167 0
M  V30 1320 H 115.439 -3.50168 -5.54132 0
M  V30 1321 H 114.959 -1.79864 -5.72197 0
M  V30 1322 H 116.638 -2.29471 -6.0494 0
M  V30 1323 N 116.77 1.45427 -0.607355 0
M  V30 1324 C 117.733 2.28974 0.101693 0
M  V30 1325 C 118.733 1.39754 0.795329 0
M  V30 1326 O 119.923 1.61878 0.643527 0
M  V30 1327 C 117.055 3.20768 1.15414 0
M  V30 1328 H 118.248 2.93147 -0.632844 0
M  V30 1329 H 115.801 1.51945 -0.366391 0
M  V30 1330 H 116.536 2.61395 1.91945 0
M  V30 1331 H 116.321 3.86489 0.66098 0
M  V30 1332 H 117.811 3.83589 1.65073 0
M  V30 1333 N 118.248 0.346503 1.53744 0
M  V30 1334 C 119.476 -0.25041 2.05379 0
M  V30 1335 C 119.891 -1.43979 1.22129 0
M  V30 1336 O 119.248 -1.80677 0.257321 0
M  V30 1337 C 119.299 -0.662575 3.55376 0
M  V30 1338 O 119.02 0.479515 4.35468 0
M  V30 1339 C 120.521 -1.31989 4.23195 0
M  V30 1340 H 117.741 -0.0478198 0.669294 0
M  V30 1341 H 120.285 0.499346 1.9831 0
M  V30 1342 H 118.44 -1.36227 3.62658 0
M  V30 1343 H 118.854 0.15037 5.24284 0
M  V30 1344 H 120.328 -1.55902 5.29527 0
M  V30 1345 H 120.805 -2.27436 3.75725 0
M  V30 1346 H 121.411 -0.662154 4.20114 0
M  V30 1347 N 119.726 -1.57421 0.075193 0
M  V30 1348 C 120.954 -1.97946 -0.602076 0
M  V30 1349 C 121.369 -0.953674 -1.62943 0
M  V30 1350 O 120.726 0.0592551 -1.82404 0
M  V30 1351 C 120.777 -3.38546 -1.26762 0
M  V30 1352 O 120.498 -4.37195 -0.281376 0
M  V30 1353 C 121.999 -3.93966 -2.03239 0
M  V30 1354 H 119.219 -0.650918 -0.162931 0
M  V30 1355 H 121.763 -2.03959 0.148601 0
M  V30 1356 H 119.918 -3.33609 -1.96936 0
M  V30 1357 H 120.332 -5.18975 -0.759267 0
M  V30 1358 H 121.806 -4.94555 -2.45193 0
M  V30 1359 H 122.283 -3.30693 -2.8903 0
M  V30 1360 H 122.889 -4.02315 -1.37924 0
M  V30 1361 N 121.204 0.198386 -1.56346 0
M  V30 1362 C 122.152 1.26538 -1.95169 0
M  V30 1363 C 123.146 1.47295 -0.836685 0
M  V30 1364 O 124.352 1.48195 -1.02167 0
M  V30 1365 H 120.727 0.424744 -0.620561 0
M  V30 1366 H 122.698 0.910904 -2.84157 0
M  V30 1367 C 121.447 2.6035 -2.30463 0
M  V30 1368 H 120.77 2.45192 -3.15786 0
M  V30 1369 H 122.21 3.33762 -2.61494 0
M  V30 1370 C 120.669 3.17096 -1.13806 0
M  V30 1371 O 121.199 3.99588 -0.41135 0
M  V30 1372 N 119.405 2.75795 -0.915736 0
M  V30 1373 H 118.952 2.08816 -1.50843 0
M  V30 1374 H 118.91 3.14101 -0.136979 0
M  V30 1375 N 122.682 1.50554 0.465978 0
M  V30 1376 C 123.612 1.72722 1.57128 0
M  V30 1377 C 124.593 0.576294 1.6004 0
M  V30 1378 O 125.778 0.81598 1.76225 0
M  V30 1379 C 122.908 1.82605 2.95419 0
M  V30 1380 C 121.862 2.97835 3.07373 0
M  V30 1381 C 121.188 2.92867 4.47363 0
M  V30 1382 C 122.488 4.38265 2.84114 0
M  V30 1383 H 124.182 2.65267 1.38829 0
M  V30 1384 H 121.728 1.2765 0.666441 0
M  V30 1385 H 123.681 1.96698 3.72677 0
M  V30 1386 H 122.405 0.866858 3.14886 0
M  V30 1387 H 121.064 2.83401 2.3255 0
M  V30 1388 H 120.712 1.94783 4.63755 0
M  V30 1389 H 120.412 3.70227 4.56296 0
M  V30 1390 H 121.936 3.09015 5.26633 0
M  V30 1391 H 123.35 4.53198 3.51118 0
M  V30 1392 H 121.747 5.17115 3.04487 0
M  V30 1393 H 122.817 4.50281 1.7993 0
M  V30 1394 N 124.16 -0.719506 1.40217 0
M  V30 1395 C 125.09 -1.8465 1.42922 0
M  V30 1396 C 126.071 -1.67599 0.29062 0
M  V30 1397 O 127.256 -1.87688 0.498677 0
M  V30 1398 C 124.386 -3.22565 1.28722 0
M  V30 1399 C 123.34 -3.54281 2.40144 0
M  V30 1400 C 122.666 -4.91298 2.11023 0
M  V30 1401 C 123.966 -3.55676 3.82481 0
M  V30 1402 H 125.66 -1.82644 2.37237 0
M  V30 1403 H 123.206 -0.877305 1.1419 0
M  V30 1404 H 125.159 -4.01095 1.29232 0
M  V30 1405 H 123.883 -3.25137 0.308811 0
M  V30 1406 H 122.542 -2.78088 2.38877 0
M  V30 1407 H 122.19 -4.90468 1.11582 0
M  V30 1408 H 121.89 -5.13485 2.8567 0
M  V30 1409 H 123.414 -5.72166 2.13209 0
M  V30 1410 H 124.828 -4.24254 3.85592 0
M  V30 1411 H 123.225 -3.89388 4.56614 0
M  V30 1412 H 124.295 -2.55144 4.12346 0
M  V30 1413 N 125.638 -1.25649 -0.95132 0
M  V30 1414 C 126.886 -1.10375 -1.69298 0
M  V30 1415 C 127.207 0.355339 -1.91735 0
M  V30 1416 O 126.477 1.25188 -1.50681 0
M  V30 1417 H 125.057 -0.405461 -0.627384 0
M  V30 1418 H 127.719 -1.57823 -1.14358 0
M  V30 1419 H 126.815 -1.61465 -2.67087 0
M  V30 1420 N 127.117 1.15442 -1.07289 0
M  V30 1421 C 128.047 2.22312 -0.714107 0
M  V30 1422 C 129.028 1.67467 0.298155 0
M  V30 1423 O 130.213 1.93445 0.171048 0
M  V30 1424 C 127.343 3.47124 -0.110448 0
M  V30 1425 C 126.297 4.14926 -1.04979 0
M  V30 1426 C 125.623 5.33807 -0.308924 0
M  V30 1427 C 126.923 4.64762 -2.38314 0
M  V30 1428 H 128.617 2.5258 -1.6076 0
M  V30 1429 H 126.163 1.21404 -0.77441 0
M  V30 1430 H 128.116 4.21124 0.152482 0
M  V30 1431 H 126.84 3.16187 0.81812 0
M  V30 1432 H 125.499 3.42866 -1.29764 0
M  V30 1433 H 125.147 4.99126 0.623084 0
M  V30 1434 H 124.847 5.80113 -0.935036 0
M  V30 1435 H 126.371 6.10576 -0.0537771 0
M  V30 1436 H 127.785 5.30292 -2.1786 0
M  V30 1437 H 126.182 5.21728 -2.96514 0
M  V30 1438 H 127.252 3.80434 -3.00663 0
M  V30 1439 N 128.595 0.856903 1.32268 0
M  V30 1440 C 129.525 0.31858 2.31316 0
M  V30 1441 C 130.506 -0.583487 1.59779 0
M  V30 1442 O 131.691 -0.503259 1.87566 0
M  V30 1443 C 128.821 -0.491979 3.43798 0
M  V30 1444 C 127.775 0.315849 4.26833 0
M  V30 1445 C 127.101 -0.619586 5.31098 0
M  V30 1446 C 128.401 1.54282 4.98993 0
M  V30 1447 H 130.095 1.14621 2.76591 0
M  V30 1448 H 127.641 0.552613 1.32974 0
M  V30 1449 H 129.594 -0.879012 4.1213 0
M  V30 1450 H 128.318 -1.35299 2.97257 0
M  V30 1451 H 126.977 0.684664 3.6015 0
M  V30 1452 H 126.625 -1.47751 4.8081 0
M  V30 1453 H 126.325 -0.0830621 5.87541 0
M  V30 1454 H 127.849 -1.00375 6.02293 0
M  V30 1455 H 129.263 1.22796 5.59995 0
M  V30 1456 H 127.66 2.01745 5.65172 0
M  V30 1457 H 128.73 2.30285 4.26728 0
M  V30 1458 N 130.073 -1.45103 0.615059 0
M  V30 1459 C 131.484 -1.85654 0.197383 0
M  V30 1460 C 131.835 -1.51433 -1.24749 0
M  V30 1461 O 130.96 -0.944608 -1.94695 0
M  V30 1462 C 131.555 -3.36972 0.351448 0
M  V30 1463 C 130.114 -3.76398 -0.011593 0
M  V30 1464 C 129.261 -2.69024 0.672394 0
M  V30 1465 H 132.212 -1.35797 0.821263 0
M  V30 1466 H 132.233 -3.78239 -0.414227 0
M  V30 1467 H 131.745 -3.61847 1.40314 0
M  V30 1468 H 129.846 -3.5714 -1.06217 0
M  V30 1469 H 129.959 -4.77532 0.387265 0
M  V30 1470 H 128.323 -2.54465 0.109284 0
M  V30 1471 H 129.106 -2.96735 1.72636 0
M  V30 1472 N 131.551 -0.354651 -1.53558 0
M  V30 1473 C 132.501 0.513179 -2.2215 0
M  V30 1474 C 133.485 1.05734 -1.21281 0
M  V30 1475 O 134.677 0.989202 -1.46778 0
M  V30 1476 C 131.806 1.65798 -3.00609 0
M  V30 1477 C 130.892 1.12722 -4.08845 0
M  V30 1478 N 131.283 0.318563 -5.04796 0
M  V30 1479 C 129.581 1.40307 -4.23356 0
M  V30 1480 C 130.282 0.0292224 -5.81693 0
M  V30 1481 N 129.258 0.623891 -5.40008 0
M  V30 1482 H 133.06 -0.111586 -2.93688 0
M  V30 1483 H 130.574 -0.162091 -1.61589 0
M  V30 1484 H 132.571 2.29176 -3.48258 0
M  V30 1485 H 131.231 2.28591 -2.306 0
M  V30 1486 H 132.242 -0.0413091 -5.17884 0
M  V30 1487 H 128.919 2.03458 -3.6457 0
M  V30 1488 H 130.309 -0.623808 -6.68998 0
M  V30 1489 N 133.029 1.57378 -0.0835403 0
M  V30 1490 C 134.254 1.98682 0.594987 0
M  V30 1491 C 134.679 0.961969 1.61641 0
M  V30 1492 O 134.037 -0.0709989 1.81161 0
M  V30 1493 C 134.085 3.38988 1.2296 0
M  V30 1494 O 133.189 3.39208 2.34546 0
M  V30 1495 H 132.53 0.646368 0.152002 0
M  V30 1496 H 135.06 2.03961 -0.161533 0
M  V30 1497 H 135.07 3.76431 1.57366 0
M  V30 1498 H 133.745 4.13107 0.481228 0
M  V30 1499 H 132.322 3.13548 2.01846 0
M  V30 1500 N 134.507 -0.190092 1.56449 0
M  V30 1501 C 135.754 -0.909705 1.80916 0
M  V30 1502 C 136.082 -1.83047 0.657583 0
M  V30 1503 O 135.337 -1.92428 -0.356356 0
M  V30 1504 C 135.636 -1.75382 3.1141 0
M  V30 1505 C 135.302 -0.983606 4.40041 0
M  V30 1506 C 133.964 -0.770967 4.74984 0
M  V30 1507 C 136.316 -0.442024 5.19322 0
M  V30 1508 C 133.644 -0.0053448 5.867 0
M  V30 1509 C 135.996 0.310412 6.31838 0
M  V30 1510 C 134.66 0.534023 6.6536 0
M  V30 1511 H 133.93 -0.332885 0.662019 0
M  V30 1512 H 136.577 -0.175762 1.90692 0
M  V30 1513 H 134.882 -2.55659 2.96893 0
M  V30 1514 H 136.579 -2.31331 3.27547 0
M  V30 1515 H 133.169 -1.15936 4.12622 0
M  V30 1516 H 137.353 -0.593693 4.92736 0
M  V30 1517 H 132.609 0.177825 6.11141 0
M  V30 1518 H 136.783 0.737419 6.92485 0
M  V30 1519 H 134.41 1.12918 7.51767 0
M  V30 1520 N 135.985 -1.50799 -0.457987 0
M  V30 1521 C 137.213 -1.66218 -1.23203 0
M  V30 1522 C 137.628 -0.350894 -1.85511 0
M  V30 1523 O 136.985 0.668546 -1.69814 0
M  V30 1524 C 137.036 -2.76291 -2.33121 0
M  V30 1525 O 136.757 -4.02338 -1.73366 0
M  V30 1526 C 138.258 -3.028 -3.2377 0
M  V30 1527 H 135.478 -0.558361 -0.372121 0
M  V30 1528 H 138.022 -1.97099 -0.545179 0
M  V30 1529 H 136.177 -2.48068 -2.97558 0
M  V30 1530 H 136.591 -4.63312 -2.4585 0
M  V30 1531 H 138.065 -3.8345 -3.97077 0
M  V30 1532 H 138.542 -2.14385 -3.83322 0
M  V30 1533 H 139.148 -3.32604 -2.65056 0
M  V30 1534 N 137.463 0.71206 -1.40597 0
M  V30 1535 C 138.874 1.29135 -1.34837 0
M  V30 1536 C 139.225 1.96186 -0.0235395 0
M  V30 1537 O 138.35 1.97768 0.878444 0
M  V30 1538 C 138.945 2.34827 -2.44217 0
M  V30 1539 C 137.504 2.88371 -2.41907 0
M  V30 1540 C 136.651 1.62202 -2.24913 0
M  V30 1541 H 139.602 0.507944 -1.50352 0
M  V30 1542 H 139.623 3.15749 -2.12327 0
M  V30 1543 H 139.135 1.85996 -3.40627 0
M  V30 1544 H 137.236 3.41422 -1.49204 0
M  V30 1545 H 137.349 3.39925 -3.37621 0
M  V30 1546 H 135.713 1.874 -1.72492 0
M  V30 1547 H 136.496 1.15391 -3.23326 0
M  V30 1548 N 138.941 1.26152 0.944643 0
M  V30 1549 C 140.169 1.14259 1.72489 0
M  V30 1550 C 140.584 -0.302555 1.8636 0
M  V30 1551 O 139.941 -1.20741 1.36849 0
M  V30 1552 C 139.992 1.80266 3.13347 0
M  V30 1553 O 139.713 3.19133 3.00143 0
M  V30 1554 C 141.214 1.74283 4.07603 0
M  V30 1555 H 138.434 0.398051 0.540181 0
M  V30 1556 H 140.978 1.66706 1.18446 0
M  V30 1557 H 139.133 1.31766 3.64303 0
M  V30 1558 H 139.547 3.51744 3.89071 0
M  V30 1559 H 141.021 2.25111 5.04013 0
M  V30 1560 H 141.498 0.708631 4.33446 0
M  V30 1561 H 142.104 2.22319 3.62567 0
M  V30 1562 N 140.419 -1.14872 1.07899 0
M  V30 1563 C 141.647 -1.89661 0.82683 0
M  V30 1564 C 142.062 -1.78312 -0.620519 0
M  V30 1565 O 141.419 -1.13888 -1.42604 0
M  V30 1566 C 141.47 -3.39817 1.23316 0
M  V30 1567 O 141.191 -3.50845 2.62372 0
M  V30 1568 C 142.692 -4.31615 1.0111 0
M  V30 1569 H 139.912 -0.60092 0.298557 0
M  V30 1570 H 142.456 -1.4551 1.43691 0
M  V30 1571 H 140.611 -3.8161 0.667286 0
M  V30 1572 H 141.025 -4.44076 2.79101 0
M  V30 1573 H 142.499 -5.35367 1.34486 0
M  V30 1574 H 142.976 -4.39169 -0.0522168 0
M  V30 1575 H 143.582 -3.95572 1.56215 0
M  V30 1576 N 141.898 -0.863906 -1.31812 0
M  V30 1577 C 142.83 -0.272485 -2.27575 0
M  V30 1578 C 143.843 0.56104 -1.52827 0
M  V30 1579 O 145.032 0.384021 -1.7432 0
M  V30 1580 C 142.132 0.63283 -3.32939 0
M  V30 1581 C 141.305 -0.166902 -4.37081 0
M  V30 1582 C 140.364 0.665608 -5.21973 0
M  V30 1583 O 139.39 0.0958091 -5.69119 0
M  V30 1584 N 140.592 1.9787 -5.45736 0
M  V30 1585 H 143.357 -1.0954 -2.78964 0
M  V30 1586 H 140.918 -0.724791 -1.4477 0
M  V30 1587 H 142.91 1.19532 -3.86645 0
M  V30 1588 H 141.48 1.35642 -2.81638 0
M  V30 1589 H 140.7 -0.910838 -3.83533 0
M  V30 1590 H 141.988 -0.715874 -5.03739 0
M  V30 1591 H 141.386 2.46484 -5.09178 0
M  V30 1592 H 139.943 2.48911 -6.024 0
M  V30 1593 N 143.376 1.44774 -0.622745 0
M  V30 1594 C 144.306 2.33382 0.0741861 0
M  V30 1595 C 145.287 1.47719 0.843387 0
M  V30 1596 O 146.472 1.76458 0.810934 0
M  V30 1597 C 143.602 3.30663 1.06204 0
M  V30 1598 C 142.556 4.26079 0.405037 0
M  V30 1599 C 141.882 5.13165 1.5022 0
M  V30 1600 C 143.182 5.1781 -0.683414 0
M  V30 1601 H 144.876 2.91905 -0.665713 0
M  V30 1602 H 142.422 1.40363 -0.321587 0
M  V30 1603 H 144.375 3.9153 1.55827 0
M  V30 1604 H 143.099 2.70331 1.83272 0
M  V30 1605 H 141.758 3.66532 -0.0704683 0
M  V30 1606 H 141.406 4.49191 2.26355 0
M  V30 1607 H 141.106 5.77812 1.06803 0
M  V30 1608 H 142.63 5.76902 2.00041 0
M  V30 1609 H 144.044 5.72661 -0.270631 0
M  V30 1610 H 142.441 5.91015 -1.04023 0
M  V30 1611 H 143.511 4.59326 -1.55395 0
M  V30 1612 N 144.854 0.36279 1.53368 0
M  V30 1613 C 146.079 -0.231226 2.06107 0
M  V30 1614 C 146.504 -1.419 1.23474 0
M  V30 1615 O 145.862 -1.79524 0.253128 0
M  V30 1616 C 145.91 -0.605523 3.5548 0
M  V30 1617 O 145.014 -1.70312 3.7559 0
M  V30 1618 H 144.355 -0.034327 0.663112 0
M  V30 1619 H 146.885 0.522584 1.97814 0
M  V30 1620 H 146.895 -0.877314 3.98456 0
M  V30 1621 H 145.57 0.263004 4.15068 0
M  V30 1622 H 144.147 -1.4271 3.44512 0
M  V30 1623 N 146.332 -1.57332 0.0918853 0
M  V30 1624 C 147.265 -2.09499 -0.904735 0
M  V30 1625 C 148.243 -1.00479 -1.27839 0
M  V30 1626 O 149.427 -1.27954 -1.38419 0
M  V30 1627 C 146.554 -2.56931 -2.2069 0
M  V30 1628 C 145.6 -3.77579 -1.98334 0
M  V30 1629 S 146.433 -5.21317 -1.22428 0
M  V30 1630 C 147.589 -5.72097 -2.53882 0
M  V30 1631 H 147.822 -2.93705 -0.460922 0
M  V30 1632 H 145.355 -1.53923 -0.121332 0
M  V30 1633 H 147.313 -2.84917 -2.95521 0
M  V30 1634 H 145.974 -1.72956 -2.62192 0
M  V30 1635 H 145.167 -4.08824 -2.94752 0
M  V30 1636 H 144.769 -3.5007 -1.31633 0
M  V30 1637 H 147.061 -5.80168 -3.49874 0
M  V30 1638 H 148.004 -6.70654 -2.27219 0
M  V30 1639 H 148.412 -5.00012 -2.62007 0
M  V30 1640 N 147.81 0.181792 -1.56548 0
M  V30 1641 C 148.758 1.24461 -1.965 0
M  V30 1642 C 149.752 1.464 -0.852261 0
M  V30 1643 O 150.958 1.47103 -1.03733 0
M  V30 1644 H 147.333 0.418138 -0.625031 0
M  V30 1645 H 149.304 0.880714 -2.85107 0
M  V30 1646 C 148.053 2.57891 -2.33212 0
M  V30 1647 H 147.376 2.41829 -3.18369 0
M  V30 1648 H 148.816 3.3097 -2.65019 0
M  V30 1649 C 147.275 3.15871 -1.17163 0
M  V30 1650 O 147.805 3.9913 -0.453708 0
M  V30 1651 N 146.011 2.74808 -0.944936 0
M  V30 1652 H 145.558 2.07205 -1.53049 0
M  V30 1653 H 145.516 3.13939 -0.170286 0
M  V30 1654 N 149.288 1.51039 0.449983 0
M  V30 1655 C 150.218 1.74379 1.55288 0
M  V30 1656 C 151.199 0.593236 1.5942 0
M  V30 1657 O 152.384 0.834625 1.7535 0
M  V30 1658 C 149.514 1.85728 2.93466 0
M  V30 1659 C 148.468 3.01078 3.04197 0
M  V30 1660 C 147.794 2.97595 4.44231 0
M  V30 1661 C 149.094 4.41254 2.7945 0
M  V30 1662 H 150.788 2.66725 1.36008 0
M  V30 1663 H 148.334 1.2835 0.652864 0
M  V30 1664 H 150.287 2.0064 3.70569 0
M  V30 1665 H 149.011 0.900207 3.13949 0
M  V30 1666 H 147.67 2.85851 2.29531 0
M  V30 1667 H 147.318 1.99691 4.61663 0
M  V30 1668 H 147.018 3.75046 4.52343 0
M  V30 1669 H 148.542 3.14583 5.23326 0
M  V30 1670 H 149.956 4.56897 3.46292 0
M  V30 1671 H 148.353 5.20315 2.98985 0
M  V30 1672 H 149.423 4.52164 1.75144 0
M  V30 1673 N 150.766 -0.704594 1.40972 0
M  V30 1674 C 151.729 -1.80035 1.41845 0
M  V30 1675 C 152.729 -1.57774 0.310474 0
M  V30 1676 O 153.919 -1.64613 0.56992 0
M  V30 1677 C 151.051 -3.18284 1.22098 0
M  V30 1678 H 152.244 -1.80658 2.3938 0
M  V30 1679 H 149.797 -0.911329 1.26982 0
M  V30 1680 H 150.532 -3.23306 0.253672 0
M  V30 1681 H 150.317 -3.35843 2.02366 0
M  V30 1682 H 151.807 -3.98289 1.25522 0
M  V30 1683 N 152.244 -1.26651 -0.937939 0
M  V30 1684 C 153.177 -1.02811 -2.03728 0
M  V30 1685 C 154.155 0.0481915 -1.62529 0
M  V30 1686 O 155.339 -0.0948839 -1.88261 0
M  V30 1687 C 152.466 -0.557517 -3.3408 0
M  V30 1688 C 151.512 -1.62686 -3.94253 0
M  V30 1689 S 152.345 -3.21667 -4.28125 0
M  V30 1690 C 153.501 -2.76384 -5.61572 0
M  V30 1691 H 153.734 -1.95891 -2.23638 0
M  V30 1692 H 151.267 -1.10367 -1.07974 0
M  V30 1693 H 153.225 -0.292674 -4.09455 0
M  V30 1694 H 151.886 0.353062 -3.12109 0
M  V30 1695 H 151.079 -1.24866 -4.88287 0
M  V30 1696 H 150.681 -1.84324 -3.25424 0
M  V30 1697 H 152.973 -2.2105 -6.40424 0
M  V30 1698 H 153.916 -3.69123 -6.0428 0
M  V30 1699 H 154.324 -2.15847 -5.21604 0
M  V30 1700 N 153.722 1.14298 -1.08507 0
M  V30 1701 C 154.685 2.17607 -0.719711 0
M  V30 1702 C 155.685 1.58907 0.245997 0
M  V30 1703 O 156.875 1.74181 0.0254081 0
M  V30 1704 C 154.007 3.40842 -0.0627695 0
M  V30 1705 H 155.2 2.51443 -1.63452 0
M  V30 1706 H 152.753 1.28963 -0.88307 0
M  V30 1707 H 153.488 3.12587 0.863716 0
M  V30 1708 H 153.273 3.84713 -0.757504 0
M  V30 1709 H 154.763 4.17221 0.177786 0
M  V30 1710 N 155.201 0.870884 1.31352 0
M  V30 1711 C 156.45 0.478408 1.95944 0
M  V30 1712 C 156.763 -0.974493 1.69597 0
M  V30 1713 O 157.969 -1.47316 2.28058 0
M  V30 1714 C 156.425 0.804609 3.50791 0
M  V30 1715 C 156.033 2.27433 3.85977 0
M  V30 1716 C 157.777 0.480648 4.2177 0
M  V30 1717 C 155.684 2.5429 5.33939 0
M  V30 1718 H 154.614 0.175175 0.733369 0
M  V30 1719 H 157.265 1.06391 1.4951 0
M  V30 1720 H 155.647 0.148347 3.95722 0
M  V30 1721 H 156.821 2.97373 3.52002 0
M  V30 1722 H 155.136 2.56442 3.28065 0
M  V30 1723 H 157.733 0.658519 5.30629 0
M  V30 1724 H 158.076 -0.578979 4.12254 0
M  V30 1725 H 158.609 1.09349 3.82476 0
M  V30 1726 H 155.348 3.58939 5.48491 0
M  V30 1727 H 154.868 1.88945 5.69263 0
M  V30 1728 H 156.547 2.39066 6.01212 0
M  V30 1729 N 156.679 -1.44442 0.630414 0
M  V30 1730 C 158.09 -1.85434 0.217063 0
M  V30 1731 C 158.441 -1.52748 -1.23136 0
M  V30 1732 O 157.566 -0.965205 -1.93682 0
M  V30 1733 C 158.161 -3.36581 0.387168 0
M  V30 1734 C 156.72 -3.76389 0.0283297 0
M  V30 1735 C 155.867 -2.68296 0.700889 0
M  V30 1736 H 158.818 -1.34919 0.83562 0
M  V30 1737 H 158.839 -3.78657 -0.374086 0
M  V30 1738 H 158.351 -3.60339 1.44144 0
M  V30 1739 H 156.452 -3.58246 -1.02423 0
M  V30 1740 H 156.565 -4.77095 0.437892 0
M  V30 1741 H 154.929 -2.54335 0.136267 0
M  V30 1742 H 155.712 -2.94887 1.75774 0
M  V30 1743 N 158.157 -0.370918 -1.53173 0
M  V30 1744 C 159.087 0.464847 -2.28826 0
M  V30 1745 C 160.068 1.07936 -1.31468 0
M  V30 1746 O 161.253 1.0956 -1.60344 0
M  V30 1747 C 158.383 1.60196 -3.08147 0
M  V30 1748 C 157.337 1.11443 -4.13237 0
M  V30 1749 C 156.663 2.3422 -4.80672 0
M  V30 1750 C 157.963 0.195384 -5.21934 0
M  V30 1751 H 159.657 -0.166329 -2.98938 0
M  V30 1752 H 157.203 -0.0814359 -1.4377 0
M  V30 1753 H 159.156 2.19332 -3.59822 0
M  V30 1754 H 157.88 2.26045 -2.35735 0
M  V30 1755 H 156.539 0.545727 -3.62515 0
M  V30 1756 H 156.187 2.98537 -4.04827 0
M  V30 1757 H 155.887 2.02269 -5.51689 0
M  V30 1758 H 157.411 2.94032 -5.35143 0
M  V30 1759 H 158.825 0.694375 -5.69079 0
M  V30 1760 H 157.222 -0.0335027 -6.00091 0
M  V30 1761 H 158.292 -0.760961 -4.78892 0
M  V30 1762 N 159.635 1.57281 -0.100228 0
M  V30 1763 C 160.881 1.95626 0.556946 0
M  V30 1764 C 161.236 0.981655 1.65473 0
M  V30 1765 O 160.529 0.00849847 1.91598 0
M  V30 1766 C 160.723 3.38305 1.15259 0
M  V30 1767 C 160.552 4.49555 0.114035 0
M  V30 1768 C 159.322 5.0434 -0.311266 0
M  V30 1769 C 161.52 5.10051 -0.659768 0
M  V30 1770 N 159.502 5.99152 -1.33755 0
M  V30 1771 C 160.873 6.00628 -1.53774 0
M  V30 1772 C 162.928 4.92772 -0.712723 0
M  V30 1773 C 161.631 6.7578 -2.46403 0
M  V30 1774 C 163.657 5.6859 -1.62663 0
M  V30 1775 C 163.019 6.58838 -2.49222 0
M  V30 1776 H 159.118 0.7624 0.173982 0
M  V30 1777 H 161.702 1.93829 -0.183988 0
M  V30 1778 H 159.873 3.40786 1.86332 0
M  V30 1779 H 161.605 3.63817 1.77254 0
M  V30 1780 H 158.36 4.73537 0.0774812 0
M  V30 1781 H 158.784 6.5126 -1.84905 0
M  V30 1782 H 163.426 4.22761 -0.0576648 0
M  V30 1783 H 161.144 7.4505 -3.12931 0
M  V30 1784 H 164.73 5.57233 -1.67281 0
M  V30 1785 H 163.61 7.16479 -3.18791 0
M  V30 1786 N 161.113 -0.173488 1.56642 0
M  V30 1787 C 162.076 -1.19859 1.95362 0
M  V30 1788 C 163.076 -1.37296 0.83704 0
M  V30 1789 O 164.266 -1.34739 1.10413 0
M  V30 1790 C 161.398 -2.56405 2.24654 0
M  V30 1791 H 162.591 -0.867062 2.87092 0
M  V30 1792 H 160.144 -0.415853 1.50666 0
M  V30 1793 H 160.879 -2.94576 1.35631 0
M  V30 1794 H 160.664 -2.45115 3.06041 0
M  V30 1795 H 162.154 -3.30287 2.5554 0
M  V30 1796 N 162.591 -1.51276 -0.441967 0
M  V30 1797 C 163.839 -1.63392 -1.18943 0
M  V30 1798 C 164.16 -0.350159 -1.9183 0
M  V30 1799 O 163.43 0.633784 -1.85364 0
M  V30 1800 H 162.01 -0.602164 -0.442049 0
M  V30 1801 H 164.672 -1.88186 -0.507165 0
M  V30 1802 H 163.768 -2.45934 -1.92154 0
M  V30 1803 N 164.069 0.697108 -1.41344 0
M  V30 1804 C 165.297 1.48593 -1.43972 0
M  V30 1805 C 165.712 1.88747 -0.0445612 0
M  V30 1806 O 165.069 1.56682 0.935785 0
M  V30 1807 C 165.12 2.74946 -2.34706 0
M  V30 1808 O 164.841 2.36484 -3.68791 0
M  V30 1809 C 166.342 3.687 -2.46121 0
M  V30 1810 H 163.562 0.457964 -0.490418 0
M  V30 1811 H 166.106 0.858429 -1.8561 0
M  V30 1812 H 164.261 3.33937 -1.9638 0
M  V30 1813 H 164.675 3.17918 -4.17167 0
M  V30 1814 H 166.149 4.54145 -3.13777 0
M  V30 1815 H 166.626 4.13081 -1.49199 0
M  V30 1816 H 167.232 3.15613 -2.85076 0
M  V30 1817 N 165.547 1.27147 0.931209 0
M  V30 1818 C 166.793 1.13446 1.68101 0
M  V30 1819 C 167.126 -0.319628 1.91552 0
M  V30 1820 O 166.401 -1.23407 1.50336 0
M  V30 1821 C 166.684 1.91482 3.0497 0
M  V30 1822 C 166.537 3.44855 2.88782 0
M  V30 1823 C 167.856 1.71651 4.05246 0
M  V30 1824 H 164.975 0.413498 0.610072 0
M  V30 1825 H 167.617 1.56261 1.08086 0
M  V30 1826 H 165.767 1.55095 3.56199 0
M  V30 1827 H 167.439 3.9105 2.44698 0
M  V30 1828 H 165.682 3.71373 2.24198 0
M  V30 1829 H 166.353 3.94694 3.85902 0
M  V30 1830 H 168.829 2.0337 3.63015 0
M  V30 1831 H 167.705 2.28651 4.99009 0
M  V30 1832 H 167.966 0.663555 4.37092 0
M  V30 1833 N 167.025 -1.13721 1.09112 0
M  V30 1834 C 168.274 -1.84275 0.82009 0
M  V30 1835 C 168.587 -1.84253 -0.656509 0
M  V30 1836 O 169.793 -2.50668 -1.04296 0
M  V30 1837 C 168.249 -3.30825 1.41714 0
M  V30 1838 C 167.857 -3.39244 2.92605 0
M  V30 1839 C 169.601 -4.06443 1.22492 0
M  V30 1840 C 167.508 -4.80047 3.45411 0
M  V30 1841 H 166.438 -0.690387 0.30312 0
M  V30 1842 H 169.089 -1.28146 1.31343 0
M  V30 1843 H 167.471 -3.86737 0.851498 0
M  V30 1844 H 168.645 -2.93344 3.55367 0
M  V30 1845 H 166.96 -2.77088 3.10823 0
M  V30 1846 H 169.557 -5.10387 1.59402 0
M  V30 1847 H 169.9 -4.15972 0.165299 0
M  V30 1848 H 170.433 -3.56852 1.75788 0
M  V30 1849 H 167.172 -4.75709 4.50978 0
M  V30 1850 H 166.692 -5.26455 2.87411 0
M  V30 1851 H 168.371 -5.48957 3.42425 0
M  V30 1852 N 168.503 -0.877838 -1.30888 0
M  V30 1853 C 169.436 -0.283995 -2.26426 0
M  V30 1854 C 170.414 0.591361 -1.51465 0
M  V30 1855 O 171.598 0.54304 -1.80509 0
M  V30 1856 C 168.725 0.597129 -3.33395 0
M  V30 1857 C 167.771 -0.207937 -4.25993 0
M  V30 1858 S 168.604 -1.59158 -5.11301 0
M  V30 1859 C 169.76 -0.716791 -6.21782 0
M  V30 1860 H 169.993 -1.09383 -2.76446 0
M  V30 1861 H 167.526 -0.676828 -1.38775 0
M  V30 1862 H 169.484 1.09978 -3.95493 0
M  V30 1863 H 168.145 1.38099 -2.82113 0
M  V30 1864 H 167.338 0.464163 -5.01858 0
M  V30 1865 H 166.94 -0.642963 -3.68432 0
M  V30 1866 H 169.232 0.0692833 -6.77465 0
M  V30 1867 H 170.175 -1.44682 -6.93161 0
M  V30 1868 H 170.583 -0.280855 -5.63801 0
M  V30 1869 N 169.982 1.44106 -0.638065 0
M  V30 1870 C 171.23 2.01579 -0.145043 0
M  V30 1871 C 171.551 1.50496 1.24 0
M  V30 1872 O 170.821 0.711374 1.82527 0
M  V30 1873 H 169.401 0.745282 -0.05063 0
M  V30 1874 H 172.063 1.76516 -0.826327 0
M  V30 1875 H 171.159 3.11877 -0.118039 0
M  V30 1876 N 171.46 0.379036 1.52974 0
M  V30 1877 C 172.707 -0.206421 2.01445 0
M  V30 1878 C 173.035 -1.47668 1.26587 0
M  V30 1879 O 172.29 -1.92514 0.351675 0
M  V30 1880 C 172.589 -0.53096 3.53434 0
M  V30 1881 C 172.255 0.646546 4.46241 0
M  V30 1882 C 170.917 0.969604 4.7133 0
M  V30 1883 C 173.269 1.43479 5.01062 0
M  V30 1884 C 170.597 2.08263 5.48492 0
M  V30 1885 C 172.949 2.53834 5.7944 0
M  V30 1886 C 171.613 2.86659 6.02812 0
M  V30 1887 H 170.883 -0.0755349 0.73714 0
M  V30 1888 H 173.53 0.514271 1.84465 0
M  V30 1889 H 171.835 -1.33285 3.68432 0
M  V30 1890 H 173.532 -0.996417 3.88423 0
M  V30 1891 H 170.122 0.384734 4.2687 0
M  V30 1892 H 174.306 1.19844 4.81613 0
M  V30 1893 H 169.562 2.34078 5.64816 0
M  V30 1894 H 173.736 3.15319 6.20924 0
M  V30 1895 H 171.363 3.73026 6.62387 0
M  V30 1896 N 172.938 -1.57226 0.108567 0
M  V30 1897 C 174.354 -1.5766 -0.248058 0
M  V30 1898 C 174.554 -1.12063 -1.67464 0
M  V30 1899 O 173.61 -0.803236 -2.39383 0
M  V30 1900 C 174.923 -3.0069 -0.0242287 0
M  V30 1901 C 176.471 -3.12868 -0.0909372 0
M  V30 1902 C 176.946 -4.57879 0.105067 0
M  V30 1903 N 178.437 -4.63172 0.0506846 0
M  V30 1904 C 179.172 -5.73126 0.177396 0
M  V30 1905 N 178.668 -6.91866 0.359696 0
M  V30 1906 N 180.461 -5.61977 0.117709 0
M  V30 1907 H 172.612 -1.85169 1.04049 0
M  V30 1908 H 174.875 -0.85529 0.40888 0
M  V30 1909 H 174.581 -3.38299 0.961604 0
M  V30 1910 H 174.455 -3.6945 -0.76068 0
M  V30 1911 H 176.842 -2.75124 -1.06729 0
M  V30 1912 H 176.923 -2.46672 0.677225 0
M  V30 1913 H 176.567 -4.96321 1.07834 0
M  V30 1914 H 176.497 -5.22153 -0.682954 0
M  V30 1915 H 178.988 -3.778 -0.0871266 0
M  V30 1916 H 179.301 -7.71503 0.447529 0
M  V30 1917 H 177.646 -6.93874 0.395536 0
M  V30 1918 H 180.837 -4.68094 -0.0236741 0
M  V30 1919 H 181.01 -6.47627 0.219905 0
M  V30 1920 N 174.416 0.165178 -1.56732 0
M  V30 1921 C 175.641 0.900253 -1.86843 0
M  V30 1922 C 176.066 1.74766 -0.695596 0
M  V30 1923 O 175.424 1.77786 0.35522 0
M  V30 1924 C 175.472 1.74777 -3.15413 0
M  V30 1925 O 174.576 2.85007 -2.98068 0
M  V30 1926 H 173.917 0.251832 -0.614391 0
M  V30 1927 H 176.447 0.161468 -2.03962 0
M  V30 1928 H 176.457 2.14646 -3.46974 0
M  V30 1929 H 175.132 1.12537 -4.00385 0
M  V30 1930 H 173.709 2.48676 -2.77875 0
M  V30 1931 N 175.894 1.51508 0.433938 0
M  V30 1932 C 176.841 1.73068 1.52696 0
M  V30 1933 C 177.811 0.572441 1.55924 0
M  V30 1934 O 178.996 0.807253 1.72882 0
M  V30 1935 C 176.136 1.86474 2.90381 0
M  V30 1936 C 175.249 3.14037 2.96656 0
M  V30 1937 C 174.384 3.18019 4.25485 0
M  V30 1938 C 173.423 4.39882 4.2564 0
M  V30 1939 N 172.56 4.41394 5.45999 0
M  V30 1940 H 177.4 2.66366 1.33615 0
M  V30 1941 H 174.937 1.32008 0.649018 0
M  V30 1942 H 176.895 1.92229 3.70275 0
M  V30 1943 H 175.525 0.965809 3.08013 0
M  V30 1944 H 174.577 3.17575 2.09404 0
M  V30 1945 H 175.889 4.0394 2.92633 0
M  V30 1946 H 175.043 3.22708 5.13755 0
M  V30 1947 H 173.782 2.2601 4.3217 0
M  V30 1948 H 172.787 4.35366 3.35763 0
M  V30 1949 H 174.012 5.33159 4.20617 0
M  V30 1950 H 171.958 3.52258 5.53399 0
M  V30 1951 H 171.875 5.25111 5.4387 0
M  V30 1952 H 173.143 4.50281 6.36292 0
M  V30 1953 N 177.372 -0.689602 1.41712 0
M  V30 1954 C 178.621 -1.44534 1.40686 0
M  V30 1955 C 178.934 -1.95588 0.0213352 0
M  V30 1956 O 180.14 -2.71271 -0.111534 0
M  V30 1957 C 178.596 -2.61387 2.47396 0
M  V30 1958 C 178.204 -2.17094 3.91885 0
M  V30 1959 C 179.948 -3.38986 2.55517 0
M  V30 1960 C 177.855 -3.3094 4.90135 0
M  V30 1961 H 176.785 -0.542925 0.52321 0
M  V30 1962 H 179.436 -0.748054 1.6756 0
M  V30 1963 H 177.818 -3.33412 2.13664 0
M  V30 1964 H 178.992 -1.52318 4.34897 0
M  V30 1965 H 177.307 -1.52473 3.8748 0
M  V30 1966 H 179.904 -4.23747 3.26102 0
M  V30 1967 H 180.247 -3.84578 1.59391 0
M  V30 1968 H 180.78 -2.74021 2.8837 0
M  V30 1969 H 177.519 -2.90355 5.87685 0
M  V30 1970 H 177.039 -3.94546 4.51767 0
M  V30 1971 H 178.718 -3.9663 5.11169 0
M  V30 1972 N 178.85 -1.27639 -0.924453 0
M  V30 1973 C 179.797 -1.10644 -2.0255 0
M  V30 1974 C 180.767 -0.00658438 -1.66099 0
M  V30 1975 O 181.952 -0.16952 -1.90045 0
M  V30 1976 C 179.092 -0.76309 -3.36557 0
M  V30 1977 C 178.205 -1.94091 -3.85944 0
M  V30 1978 C 177.34 -1.53914 -5.08413 0
M  V30 1979 C 176.379 -2.68425 -5.50104 0
M  V30 1980 N 175.516 -2.28815 -6.63768 0
M  V30 1981 H 180.356 -2.04858 -2.16419 0
M  V30 1982 H 177.893 -1.01974 -1.06017 0
M  V30 1983 H 179.851 -0.544822 -4.13627 0
M  V30 1984 H 178.481 0.142102 -3.22487 0
M  V30 1985 H 177.533 -2.27162 -3.05125 0
M  V30 1986 H 178.845 -2.7998 -4.12811 0
M  V30 1987 H 177.999 -1.28231 -5.92994 0
M  V30 1988 H 176.738 -0.651391 -4.8333 0
M  V30 1989 H 175.743 -2.94819 -4.64071 0
M  V30 1990 H 176.968 -3.57826 -5.7718 0
M  V30 1991 H 174.914 -1.42495 -6.40337 0
M  V30 1992 H 174.831 -3.08242 -6.90306 0
M  V30 1993 H 176.099 -2.06387 -7.51681 0
M  V30 1994 N 180.328 1.1314 -1.09713 0
M  V30 1995 C 181.276 2.20717 -0.733934 0
M  V30 1996 C 182.27 1.6729 0.266506 0
M  V30 1997 O 183.476 1.79547 0.127656 0
M  V30 1998 H 179.851 0.719292 -0.21937 0
M  V30 1999 H 181.822 2.48611 -1.6503 0
M  V30 2000 C 180.571 3.47265 -0.173849 0
M  V30 2001 H 179.894 3.88716 -0.934873 0
M  V30 2002 H 181.334 4.23979 0.0423126 0
M  V30 2003 C 179.793 3.18724 1.09164 0
M  V30 2004 O 180.323 3.37762 2.17439 0
M  V30 2005 N 178.529 2.72583 1.00732 0
M  V30 2006 H 178.076 2.57291 0.126121 0
M  V30 2007 H 178.034 2.53862 1.85476 0
M  V30 2008 N 181.806 0.884767 1.30421 0
M  V30 2009 C 182.769 0.356277 2.26414 0
M  V30 2010 C 183.769 -0.501124 1.52792 0
M  V30 2011 O 184.959 -0.30831 1.7145 0
M  V30 2012 C 182.091 -0.492316 3.37326 0
M  V30 2013 H 183.284 1.20389 2.74675 0
M  V30 2014 H 180.837 0.661607 1.41607 0
M  V30 2015 H 181.572 -1.36052 2.94381 0
M  V30 2016 H 181.357 0.121832 3.91911 0
M  V30 2017 H 182.847 -0.853871 4.08777 0
M  V30 2018 N 183.284 -1.43765 0.645699 0
M  V30 2019 C 184.214 -2.33471 -0.0370477 0
M  V30 2020 C 185.195 -1.49042 -0.819779 0
M  V30 2021 O 186.38 -1.77726 -0.782758 0
M  V30 2022 C 183.51 -3.32311 -1.0093 0
M  V30 2023 C 182.464 -4.2667 -0.337201 0
M  V30 2024 C 181.79 -5.1549 -1.42037 0
M  V30 2025 C 183.09 -5.16657 0.765706 0
M  V30 2026 H 184.784 -2.90809 0.712069 0
M  V30 2027 H 182.33 -1.39834 0.343876 0
M  V30 2028 H 184.283 -3.9396 -1.49578 0
M  V30 2029 H 183.007 -2.73213 -1.78948 0
M  V30 2030 H 181.666 -3.66374 0.128771 0
M  V30 2031 H 181.314 -4.52735 -2.1918 0
M  V30 2032 H 181.014 -5.79438 -0.975966 0
M  V30 2033 H 182.538 -5.80012 -1.90838 0
M  V30 2034 H 183.952 -5.72158 0.361702 0
M  V30 2035 H 182.349 -5.89286 1.13413 0
M  V30 2036 H 183.419 -4.56796 1.62683 0
M  V30 2037 N 184.763 -0.387143 -1.52771 0
M  V30 2038 C 185.726 0.436939 -2.24997 0
M  V30 2039 C 186.726 0.991991 -1.26555 0
M  V30 2040 O 187.916 0.874335 -1.50669 0
M  V30 2041 C 185.048 1.61281 -3.00335 0
M  V30 2042 H 186.241 -0.195365 -2.99263 0
M  V30 2043 H 183.794 -0.139218 -1.55679 0
M  V30 2044 H 184.529 2.2826 -2.30364 0
M  V30 2045 H 184.314 1.22154 -3.72587 0
M  V30 2046 H 185.804 2.19629 -3.5518 0
M  V30 2047 N 186.241 1.57166 -0.116904 0
M  V30 2048 C 187.191 2.11756 0.845178 0
M  V30 2049 C 188.175 1.03783 1.22955 0
M  V30 2050 O 189.367 1.3002 1.20099 0
M  V30 2051 C 186.496 2.71886 2.09602 0
M  V30 2052 C 185.582 3.86937 1.7361 0
M  V30 2053 N 185.973 4.94073 1.08284 0
M  V30 2054 C 184.271 3.97082 2.03082 0
M  V30 2055 C 184.972 5.74477 0.913855 0
M  V30 2056 N 183.948 5.2423 1.43818 0
M  V30 2057 H 187.75 2.91967 0.336523 0
M  V30 2058 H 185.264 1.62174 0.0856332 0
M  V30 2059 H 187.261 3.09338 2.79492 0
M  V30 2060 H 185.921 1.93138 2.61013 0
M  V30 2061 H 186.932 5.12483 0.747067 0
M  V30 2062 H 183.609 3.29372 2.56554 0
M  V30 2063 H 184.999 6.70701 0.40125 0
M  V30 2064 N 187.719 -0.156864 1.56817 0
M  V30 2065 C 188.966 -0.871125 1.82805 0
M  V30 2066 C 189.294 -1.81611 0.696262 0
M  V30 2067 O 188.549 -1.93141 -0.315459 0
M  V30 2068 C 188.848 -1.68737 3.1506 0
M  V30 2069 C 188.514 -0.890045 4.42028 0
M  V30 2070 C 187.176 -0.670042 4.76512 0
M  V30 2071 C 189.528 -0.331769 5.20143 0
M  V30 2072 C 186.856 0.119104 5.86579 0
M  V30 2073 C 189.208 0.444365 6.31037 0
M  V30 2074 C 187.872 0.675035 6.64078 0
M  V30 2075 H 187.142 -0.318767 0.668931 0
M  V30 2076 H 189.789 -0.135274 1.91022 0
M  V30 2077 H 188.094 -2.49304 3.0225 0
M  V30 2078 H 189.791 -2.24331 3.3238 0
M  V30 2079 H 186.381 -1.07157 4.14988 0
M  V30 2080 H 190.565 -0.489043 4.93885 0
M  V30 2081 H 185.821 0.307417 6.10627 0
M  V30 2082 H 189.995 0.884139 6.90765 0
M  V30 2083 H 187.622 1.28839 7.49203 0
M  V30 2084 N 189.197 -1.51736 -0.425897 0
M  V30 2085 C 190.127 -1.76827 -1.52494 0
M  V30 2086 C 191.108 -0.618524 -1.58456 0
M  V30 2087 O 192.293 -0.862416 -1.74 0
M  V30 2088 C 189.423 -1.90374 -2.90474 0
M  V30 2089 C 188.377 -3.0588 -2.99369 0
M  V30 2090 C 187.703 -3.04625 -4.3944 0
M  V30 2091 C 189.003 -4.45644 -2.72394 0
M  V30 2092 H 190.697 -2.68855 -1.31748 0
M  V30 2093 H 188.243 -1.29372 -0.632362 0
M  V30 2094 H 190.196 -2.0651 -3.6733 0
M  V30 2095 H 188.92 -0.95004 -3.12477 0
M  V30 2096 H 187.579 -2.89467 -2.24954 0
M  V30 2097 H 187.227 -2.0701 -4.58428 0
M  V30 2098 H 186.927 -3.82195 -4.46319 0
M  V30 2099 H 188.451 -3.22869 -5.18255 0
M  V30 2100 H 189.865 -4.62348 -3.38979 0
M  V30 2101 H 188.262 -5.25006 -2.9067 0
M  V30 2102 H 189.332 -4.54893 -1.67929 0
M  V30 2103 N 190.675 0.682077 -1.42076 0
M  V30 2104 C 192.086 1.26246 -1.37546 0
M  V30 2105 C 192.437 1.96092 -0.0651481 0
M  V30 2106 O 191.562 1.99587 0.836297 0
M  V30 2107 C 192.157 2.29594 -2.49143 0
M  V30 2108 C 190.716 2.83175 -2.47969 0
M  V30 2109 C 189.863 1.57395 -2.28303 0
M  V30 2110 H 192.814 0.475937 -1.51395 0
M  V30 2111 H 192.835 3.11175 -2.18976 0
M  V30 2112 H 192.347 1.78729 -3.44496 0
M  V30 2113 H 190.448 3.3818 -1.56413 0
M  V30 2114 H 190.561 3.32687 -3.44755 0
M  V30 2115 H 188.925 1.83699 -1.76428 0
M  V30 2116 H 189.708 1.08507 -3.25701 0
M  V30 2117 N 192.153 1.28127 0.917671 0
M  V30 2118 C 193.085 1.07517 2.02417 0
M  V30 2119 C 194.098 0.0281099 1.62776 0
M  V30 2120 O 195.287 0.270748 1.76435 0
M  V30 2121 C 192.387 0.610957 3.33347 0
M  V30 2122 C 191.56 1.73255 4.01624 0
M  V30 2123 C 190.619 1.26238 5.10833 0
M  V30 2124 O 189.645 1.96389 5.34247 0
M  V30 2125 N 190.847 0.123448 5.80369 0
M  V30 2126 H 193.612 2.02806 2.20658 0
M  V30 2127 H 191.173 1.19827 1.08871 0
M  V30 2128 H 193.165 0.280101 4.0373 0
M  V30 2129 H 191.735 -0.24898 3.11607 0
M  V30 2130 H 190.955 2.23319 3.24842 0
M  V30 2131 H 192.243 2.48503 4.43986 0
M  V30 2132 H 191.641 -0.461847 5.63812 0
M  V30 2133 H 190.198 -0.148158 6.51632 0
M  V30 2134 N 193.631 -1.12557 1.10312 0
M  V30 2135 C 194.879 -1.83675 0.843091 0
M  V30 2136 C 195.2 -1.84435 -0.633131 0
M  V30 2137 O 194.47 -1.30657 -1.45964 0
M  V30 2138 H 193.05 -0.680138 0.308904 0
M  V30 2139 H 195.712 -1.36301 1.39313 0
M  V30 2140 H 194.808 -2.87908 1.2048 0
M  V30 2141 N 195.109 -0.891671 -1.2995 0
M  V30 2142 C 196.337 -0.52866 -2.00032 0
M  V30 2143 C 196.752 0.884574 -1.66795 0
M  V30 2144 O 196.109 1.5827 -0.908669 0
M  V30 2145 C 196.16 -0.701814 -3.54622 0
M  V30 2146 O 195.881 -2.05942 -3.86678 0
M  V30 2147 C 197.382 -0.342683 -4.41973 0
M  V30 2148 H 194.602 -0.203659 -0.639347 0
M  V30 2149 H 197.146 -1.19881 -1.65677 0
M  V30 2150 H 195.301 -0.0789468 -3.8732 0
M  V30 2151 H 195.715 -2.08291 -4.81368 0
M  V30 2152 H 197.189 -0.514709 -5.49595 0
M  V30 2153 H 197.666 0.71975 -4.33262 0
M  V30 2154 H 198.272 -0.942154 -4.14733 0
M  V30 2155 N 196.587 1.43421 -0.653314 0
M  V30 2156 C 197.998 1.85065 -0.246537 0
M  V30 2157 C 198.349 1.54688 1.2069 0
M  V30 2158 O 197.474 0.995896 1.92122 0
M  V30 2159 C 198.069 3.35922 -0.440666 0
M  V30 2160 C 196.628 3.76297 -0.0882064 0
M  V30 2161 C 195.775 2.67147 -0.743484 0
M  V30 2162 H 198.726 1.33572 -0.856979 0
M  V30 2163 H 198.747 3.79204 0.313798 0
M  V30 2164 H 198.259 3.58 -1.49858 0
M  V30 2165 H 196.36 3.5983 0.96711 0
M  V30 2166 H 196.473 4.76338 -0.513738 0
M  V30 2167 H 194.837 2.54086 -0.176712 0
M  V30 2168 H 195.62 2.92053 -1.80443 0
M  V30 2169 N 198.065 0.39524 1.52563 0
M  V30 2170 C 199.293 -0.184943 2.06072 0
M  V30 2171 C 199.708 -1.40021 1.26647 0
M  V30 2172 O 199.065 -1.79767 0.314672 0
M  V30 2173 C 199.116 -0.549179 3.57304 0
M  V30 2174 O 198.837 0.617813 4.33722 0
M  V30 2175 C 200.338 -1.18459 4.2718 0
M  V30 2176 H 197.558 -0.0265025 0.670476 0
M  V30 2177 H 200.102 0.562184 1.96621 0
M  V30 2178 H 198.257 -1.2462 3.66809 0
M  V30 2179 H 198.671 0.317091 5.23541 0
M  V30 2180 H 200.145 -1.38976 5.34219 0
M  V30 2181 H 200.622 -2.15368 3.82771 0
M  V30 2182 H 201.228 -0.528163 4.22008 0
M  V30 2183 N 199.544 -1.57102 0.125237 0
M  V30 2184 C 200.955 -1.82384 -0.399142 0
M  V30 2185 C 201.306 -1.04276 -1.66195 0
M  V30 2186 O 200.431 -0.281269 -2.14564 0
M  V30 2187 C 201.026 -3.30821 -0.730932 0
M  V30 2188 C 199.585 -3.56762 -1.19992 0
M  V30 2189 C 198.732 -2.7649 -0.211792 0
M  V30 2190 H 201.683 -1.54786 0.350277 0
M  V30 2191 H 201.704 -3.4579 -1.58775 0
M  V30 2192 H 201.216 -3.87643 0.188345 0
M  V30 2193 H 199.317 -3.05305 -2.13588 0
M  V30 2194 H 199.43 -4.65317 -1.14093 0
M  V30 2195 H 197.794 -2.4489 -0.700085 0
M  V30 2196 H 198.577 -3.36073 0.700691 0
M  V30 2197 N 201.022 0.148545 -1.56898 0
M  V30 2198 C 201.952 1.18524 -2.01182 0
M  V30 2199 C 202.933 1.4489 -0.891123 0
M  V30 2200 O 204.118 1.55836 -1.15882 0
M  V30 2201 C 201.248 2.51879 -2.39112 0
M  V30 2202 C 200.202 2.40038 -3.54353 0
M  V30 2203 C 199.528 3.78089 -3.78091 0
M  V30 2204 C 200.828 1.88577 -4.87069 0
M  V30 2205 H 202.522 0.817029 -2.88036 0
M  V30 2206 H 200.068 0.391575 -1.38574 0
M  V30 2207 H 202.021 3.24627 -2.68692 0
M  V30 2208 H 200.745 2.90532 -1.49193 0
M  V30 2209 H 199.404 1.69742 -3.24936 0
M  V30 2210 H 199.052 4.14175 -2.85426 0
M  V30 2211 H 198.752 3.71028 -4.55645 0
M  V30 2212 H 200.276 4.52387 -4.10095 0
M  V30 2213 H 201.69 2.51117 -5.15377 0
M  V30 2214 H 200.087 1.9241 -5.68417 0
M  V30 2215 H 201.157 0.84136 -4.77545 0
M  V30 2216 N 202.5 1.5196 0.417844 0
M  V30 2217 C 203.749 1.6482 1.16264 0
M  V30 2218 C 204.062 0.379886 1.91876 0
M  V30 2219 O 205.268 0.388154 2.68711 0
M  V30 2220 C 203.724 2.91161 2.1155 0
M  V30 2221 C 203.332 4.25068 1.41495 0
M  V30 2222 C 205.076 3.13383 2.86341 0
M  V30 2223 C 202.983 5.42541 2.35379 0
M  V30 2224 H 201.913 0.613954 0.437694 0
M  V30 2225 H 204.564 1.78442 0.427871 0
M  V30 2226 H 202.946 2.71218 2.88543 0
M  V30 2227 H 204.12 4.55463 0.699263 0
M  V30 2228 H 202.435 4.0888 0.787792 0
M  V30 2229 H 205.032 3.98324 3.5671 0
M  V30 2230 H 205.375 2.27256 3.48798 0
M  V30 2231 H 205.908 3.33757 2.1645 0
M  V30 2232 H 202.647 6.30987 1.77582 0
M  V30 2233 H 202.167 5.16497 3.04945 0
M  V30 2234 H 203.846 5.75272 2.96093 0
M  V30 2235 N 203.978 -0.674533 1.42435 0
M  V30 2236 C 205.389 -1.25514 1.38214 0
M  V30 2237 C 205.74 -1.96055 0.0755464 0
M  V30 2238 O 204.865 -2.00028 -0.8257 0
M  V30 2239 C 205.46 -2.28269 2.50357 0
M  V30 2240 C 204.019 -2.81856 2.49467 0
M  V30 2241 C 203.166 -1.56182 2.29134 0
M  V30 2242 H 206.117 -0.467902 1.51646 0
M  V30 2243 H 206.138 -3.10009 2.20624 0
M  V30 2244 H 205.65 -1.769 3.45439 0
M  V30 2245 H 203.751 -3.37346 1.58204 0
M  V30 2246 H 203.864 -3.30854 3.46515 0
M  V30 2247 H 202.228 -1.82761 1.774 0
M  V30 2248 H 203.011 -1.06778 3.26272 0
M  V30 2249 N 205.456 -1.28612 -0.910864 0
M  V30 2250 C 206.389 -1.07109 -2.01502 0
M  V30 2251 C 207.367 0.013706 -1.62594 0
M  V30 2252 O 208.551 -0.134796 -1.88017 0
M  V30 2253 C 205.678 -0.628255 -3.32822 0
M  V30 2254 C 204.724 -1.71012 -3.90714 0
M  V30 2255 S 205.557 -3.30676 -4.21205 0
M  V30 2256 C 206.713 -2.88234 -5.55583 0
M  V30 2257 H 206.946 -2.00591 -2.19432 0
M  V30 2258 H 204.479 -1.12633 -1.05609 0
M  V30 2259 H 206.437 -0.37946 -4.08742 0
M  V30 2260 H 205.098 0.28678 -3.12788 0
M  V30 2261 H 204.291 -1.35195 -4.85529 0
M  V30 2262 H 203.893 -1.91186 -3.21441 0
M  V30 2263 H 206.185 -2.34584 -6.35591 0
M  V30 2264 H 207.128 -3.81857 -5.96314 0
M  V30 2265 H 207.536 -2.26862 -5.16908 0
M  V30 2266 N 206.934 1.1197 -1.10907 0
M  V30 2267 C 207.864 2.19928 -0.784473 0
M  V30 2268 C 208.845 1.6833 0.244726 0
M  V30 2269 O 210.03 1.93892 0.109418 0
M  V30 2270 C 207.16 3.46597 -0.220827 0
M  V30 2271 C 206.114 4.11376 -1.18127 0
M  V30 2272 C 205.44 5.32554 -0.478594 0
M  V30 2273 C 206.74 4.56945 -2.52979 0
M  V30 2274 H 208.434 2.47337 -1.68715 0
M  V30 2275 H 205.98 1.18879 -0.812642 0
M  V30 2276 H 207.933 4.21396 0.0184278 0
M  V30 2277 H 206.657 3.1863 0.717113 0
M  V30 2278 H 205.316 3.38564 -1.40606 0
M  V30 2279 H 204.964 5.00856 0.463976 0
M  V30 2280 H 204.664 5.76844 -1.11912 0
M  V30 2281 H 206.188 6.10096 -0.248 0
M  V30 2282 H 207.602 5.23093 -2.3462 0
M  V30 2283 H 205.999 5.1203 -3.12962 0
M  V30 2284 H 207.069 3.70676 -3.12614 0
M  V30 2285 N 208.412 0.89855 1.29475 0
M  V30 2286 C 209.658 0.524658 1.95896 0
M  V30 2287 C 209.991 -0.926468 1.70676 0
M  V30 2288 O 209.266 -1.65665 1.01908 0
M  V30 2289 C 209.549 0.81633 3.50725 0
M  V30 2290 C 209.402 2.31907 3.85408 0
M  V30 2291 C 210.721 0.302038 4.39062 0
M  V30 2292 H 207.84 0.19209 0.711527 0
M  V30 2293 H 210.482 1.12502 1.53112 0
M  V30 2294 H 208.632 0.305369 3.87298 0
M  V30 2295 H 210.304 2.89949 3.58786 0
M  V30 2296 H 208.547 2.78027 3.32992 0
M  V30 2297 H 209.218 2.47373 4.93468 0
M  V30 2298 H 211.694 0.739551 4.09475 0
M  V30 2299 H 210.57 0.535331 5.46283 0
M  V30 2300 H 210.831 -0.797216 4.34853 0
M  V30 2301 N 209.89 -1.43072 0.660911 0
M  V30 2302 C 211.139 -2.00942 0.174735 0
M  V30 2303 C 211.452 -1.52797 -1.22117 0
M  V30 2304 O 212.658 -2.02991 -1.80297 0
M  V30 2305 C 211.114 -3.58948 0.261559 0
M  V30 2306 C 210.722 -4.16085 1.66064 0
M  V30 2307 C 212.466 -4.24173 -0.166617 0
M  V30 2308 C 210.373 -5.6641 1.70098 0
M  V30 2309 H 209.303 -0.751483 0.0615631 0
M  V30 2310 H 211.954 -1.63955 0.824069 0
M  V30 2311 H 210.336 -3.93372 -0.455421 0
M  V30 2312 H 211.51 -3.93147 2.40359 0
M  V30 2313 H 209.825 -3.6326 2.03546 0
M  V30 2314 H 212.422 -5.34471 -0.156433 0
M  V30 2315 H 212.765 -3.98647 -1.19943 0
M  V30 2316 H 213.298 -3.94659 0.498875 0
M  V30 2317 H 210.037 -5.96715 2.71315 0
M  V30 2318 H 209.557 -5.91382 1.00139 0
M  V30 2319 H 211.236 -6.30585 1.44816 0
M  V30 2320 N 211.368 -0.403325 -1.52352 0
M  V30 2321 C 212.617 0.175668 -2.00934 0
M  V30 2322 C 212.93 1.46718 -1.29356 0
M  V30 2323 O 214.136 2.12708 -1.68724 0
M  V30 2324 C 212.592 0.363612 -3.58058 0
M  V30 2325 C 212.2 -0.915472 -4.38547 0
M  V30 2326 C 213.944 0.89821 -4.14888 0
M  V30 2327 C 211.851 -0.695035 -5.87302 0
M  V30 2328 H 210.781 0.0694234 -0.750797 0
M  V30 2329 H 213.432 -0.527879 -1.75743 0
M  V30 2330 H 211.814 1.12935 -3.79555 0
M  V30 2331 H 212.988 -1.68691 -4.28812 0
M  V30 2332 H 211.303 -1.37606 -3.93006 0
M  V30 2333 H 213.9 1.07907 -5.23699 0
M  V30 2334 H 214.243 1.87126 -3.71873 0
M  V30 2335 H 214.776 0.191681 -3.97338 0
M  V30 2336 H 211.515 -1.63948 -6.34666 0
M  V30 2337 H 211.035 0.0372116 -5.99788 0
M  V30 2338 H 212.714 -0.33497 -6.46132 0
M  V30 2339 N 212.846 1.57033 -0.133567 0
M  V30 2340 C 213.756 2.19632 0.824564 0
M  V30 2341 C 214.772 1.17666 1.28182 0
M  V30 2342 O 215.948 1.50193 1.3418 0
M  V30 2343 C 213.013 2.79499 2.05137 0
M  V30 2344 C 212.074 3.96548 1.64464 0
M  V30 2345 C 211.307 4.5355 2.81297 0
M  V30 2346 O 211.53 4.09438 3.97136 0
M  V30 2347 O 210.464 5.44018 2.57542 0
M  V30 2348 H 214.29 3.01991 0.321766 0
M  V30 2349 H 211.875 1.49112 0.0927889 0
M  V30 2350 H 213.757 3.17602 2.7696 0
M  V30 2351 H 212.432 2.00162 2.54395 0
M  V30 2352 H 211.339 3.63186 0.897048 0
M  V30 2353 H 212.672 4.77364 1.19934 0
M  V30 2354 N 214.325 -0.140222 1.56975 0
M  V30 2355 C 215.553 -0.866437 1.87884 0
M  V30 2356 C 215.968 -1.74428 0.722517 0
M  V30 2357 O 215.325 -1.79891 -0.30749 0
M  V30 2358 C 215.376 -1.71753 3.18093 0
M  V30 2359 O 215.097 -0.875056 4.29272 0
M  V30 2360 C 216.598 -2.55074 3.62563 0
M  V30 2361 H 213.818 -0.25019 0.622612 0
M  V30 2362 H 216.362 -0.130977 2.0408 0
M  V30 2363 H 214.517 -2.40598 3.03631 0
M  V30 2364 H 214.931 -1.46002 5.03769 0
M  V30 2365 H 216.405 -3.10356 4.5649 0
M  V30 2366 H 216.882 -3.31434 2.88181 0
M  V30 2367 H 217.488 -1.91509 3.79743 0
M  V30 2368 N 215.803 -1.52179 -0.40978 0
M  V30 2369 C 217.052 -1.65434 -1.15388 0
M  V30 2370 C 217.365 -0.390056 -1.91671 0
M  V30 2371 O 218.571 -0.402399 -2.68501 0
M  V30 2372 C 217.027 -2.92279 -2.10003 0
M  V30 2373 C 216.635 -4.25813 -1.39239 0
M  V30 2374 C 218.379 -3.14897 -2.84675 0
M  V30 2375 C 216.286 -5.43782 -2.32498 0
M  V30 2376 H 215.216 -0.616267 -0.434432 0
M  V30 2377 H 217.867 -1.78666 -0.418401 0
M  V30 2378 H 216.249 -2.72744 -2.871 0
M  V30 2379 H 217.423 -4.55828 -0.675099 0
M  V30 2380 H 215.738 -4.09292 -0.766097 0
M  V30 2381 H 218.335 -4.0021 -3.54593 0
M  V30 2382 H 218.678 -2.29103 -3.47588 0
M  V30 2383 H 219.211 -3.34901 -2.14677 0
M  V30 2384 H 215.95 -6.3192 -1.74233 0
M  V30 2385 H 215.47 -5.18106 -3.02201 0
M  V30 2386 H 217.149 -5.76834 -2.93038 0
M  V30 2387 N 217.281 0.66697 -1.42791 0
M  V30 2388 C 218.506 1.46004 -1.47301 0
M  V30 2389 C 218.931 1.87894 -0.0880317 0
M  V30 2390 O 218.289 1.56502 0.915253 0
M  V30 2391 C 218.337 2.68031 -2.41229 0
M  V30 2392 O 217.441 3.6659 -1.88906 0
M  V30 2393 H 216.782 0.43832 -0.49877 0
M  V30 2394 H 219.312 0.817391 -1.87563 0
M  V30 2395 H 219.322 3.1601 -2.58073 0
M  V30 2396 H 217.997 2.36883 -3.41847 0
M  V30 2397 H 216.574 3.25661 -1.81656 0
M  V30 2398 N 218.759 1.29093 0.90403 0
M  V30 2399 C 219.689 1.16401 2.02418 0
M  V30 2400 C 220.67 0.0593085 1.69997 0
M  V30 2401 O 221.855 0.238021 1.92736 0
M  V30 2402 C 218.985 0.835233 3.37107 0
M  V30 2403 C 217.939 1.89578 3.83724 0
M  V30 2404 C 217.265 1.42041 5.15489 0
M  V30 2405 C 218.565 3.30394 4.04521 0
M  V30 2406 H 220.259 2.10109 2.13295 0
M  V30 2407 H 217.805 1.01157 1.02486 0
M  V30 2408 H 219.758 0.733169 4.14973 0
M  V30 2409 H 218.482 -0.137543 3.2631 0
M  V30 2410 H 217.141 1.98715 3.08071 0
M  V30 2411 H 216.789 0.436426 5.01103 0
M  V30 2412 H 216.489 2.12964 5.4765 0
M  V30 2413 H 218.013 1.33176 5.959 0
M  V30 2414 H 219.427 3.24123 4.72882 0
M  V30 2415 H 217.824 3.99237 4.48029 0
M  V30 2416 H 218.894 3.73692 3.09002 0
M  V30 2417 N 220.237 -1.11381 1.11499 0
M  V30 2418 C 221.167 -2.19509 0.796125 0
M  V30 2419 C 222.148 -1.68458 -0.235796 0
M  V30 2420 O 223.333 -1.93947 -0.0991344 0
M  V30 2421 C 220.463 -3.46475 0.239205 0
M  V30 2422 C 219.417 -4.10744 1.20307 0
M  V30 2423 C 218.743 -5.32293 0.50683 0
M  V30 2424 C 220.043 -4.55597 2.55399 0
M  V30 2425 H 221.737 -2.46439 1.70024 0
M  V30 2426 H 219.283 -1.18446 0.818935 0
M  V30 2427 H 221.236 -4.214 0.00392006 0
M  V30 2428 H 219.96 -3.19006 -0.700206 0
M  V30 2429 H 218.619 -3.37813 1.42399 0
M  V30 2430 H 218.267 -5.01095 -0.437408 0
M  V30 2431 H 217.967 -5.76243 1.1497 0
M  V30 2432 H 219.491 -6.09956 0.280351 0
M  V30 2433 H 220.905 -5.21841 2.37391 0
M  V30 2434 H 219.302 -5.10363 3.15673 0
M  V30 2435 H 220.372 -3.69013 3.14575 0
M  V30 2436 N 221.715 -0.905404 -1.28997 0
M  V30 2437 C 222.964 -0.530191 -1.94607 0
M  V30 2438 C 223.277 0.929185 -1.72121 0
M  V30 2439 O 224.483 1.41218 -2.31883 0
M  V30 2440 C 222.939 -0.897333 -3.48534 0
M  V30 2441 C 222.547 -2.37587 -3.79811 0
M  V30 2442 C 224.291 -0.592304 -4.20347 0
M  V30 2443 C 222.198 -2.68357 -5.27009 0
M  V30 2444 H 221.128 -0.194558 -0.728466 0
M  V30 2445 H 223.779 -1.10318 -1.46636 0
M  V30 2446 H 222.161 -0.253214 -3.9519 0
M  V30 2447 H 223.335 -3.06602 -3.43994 0
M  V30 2448 H 221.65 -2.6505 -3.2115 0
M  V30 2449 H 224.247 -0.798975 -5.28697 0
M  V30 2450 H 224.59 0.469474 -4.13644 0
M  V30 2451 H 225.123 -1.19452 -3.79442 0
M  V30 2452 H 221.862 -3.73355 -5.38782 0
M  V30 2453 H 221.382 -2.03971 -5.64053 0
M  V30 2454 H 223.061 -2.54922 -5.94663 0
M  V30 2455 N 223.193 1.4272 -0.668489 0
M  V30 2456 C 224.125 2.2914 0.052613 0
M  V30 2457 C 225.138 1.43339 0.771857 0
M  V30 2458 O 226.327 1.67123 0.627067 0
M  V30 2459 C 223.427 3.20618 1.09804 0
M  V30 2460 C 222.6 4.35039 0.45389 0
M  V30 2461 C 221.659 5.07282 1.39825 0
M  V30 2462 O 220.685 5.62024 0.900978 0
M  V30 2463 N 221.887 5.12206 2.73176 0
M  V30 2464 H 224.652 2.91668 -0.689209 0
M  V30 2465 H 222.213 1.53577 -0.512422 0
M  V30 2466 H 224.205 3.65815 1.73094 0
M  V30 2467 H 222.775 2.59585 1.74167 0
M  V30 2468 H 221.995 3.92567 -0.358396 0
M  V30 2469 H 223.283 5.088 0.00486972 0
M  V30 2470 H 222.681 4.6913 3.16122 0
M  V30 2471 H 221.238 5.61069 3.31729 0
M  V30 2472 N 224.671 0.411399 1.52136 0
M  V30 2473 C 226.082 -0.0576826 1.86611 0
M  V30 2474 C 226.433 -1.44238 1.33003 0
M  V30 2475 O 225.558 -2.05759 0.670228 0
M  V30 2476 C 226.153 -0.111448 3.38617 0
M  V30 2477 C 224.712 -0.52487 3.72723 0
M  V30 2478 C 223.859 0.299176 2.75681 0
M  V30 2479 H 226.81 0.628368 1.4573 0
M  V30 2480 H 226.831 -0.926252 3.69054 0
M  V30 2481 H 226.343 0.896488 3.77604 0
M  V30 2482 H 224.444 -1.53936 3.39315 0
M  V30 2483 H 224.557 -0.267681 4.78352 0
M  V30 2484 H 222.921 -0.238814 2.53578 0
M  V30 2485 H 223.704 1.3055 3.17508 0
M  V30 2486 N 226.149 -1.5696 0.141893 0
M  V30 2487 C 227.082 -2.12271 -0.837627 0
M  V30 2488 C 228.06 -1.04495 -1.24578 0
M  V30 2489 O 229.244 -1.32293 -1.34278 0
M  V30 2490 C 226.371 -2.63822 -2.12404 0
M  V30 2491 C 225.417 -3.83698 -1.86221 0
M  V30 2492 S 226.25 -5.24948 -1.05781 0
M  V30 2493 C 227.406 -5.79884 -2.35552 0
M  V30 2494 H 227.639 -2.95023 -0.367249 0
M  V30 2495 H 225.172 -1.54231 -0.0723014 0
M  V30 2496 H 227.13 -2.94175 -2.86307 0
M  V30 2497 H 225.791 -1.8121 -2.56557 0
M  V30 2498 H 224.984 -4.17995 -2.81596 0
M  V30 2499 H 224.586 -3.5408 -1.20429 0
M  V30 2500 H 226.878 -5.91005 -3.31239 0
M  V30 2501 H 227.821 -6.77544 -2.05767 0
M  V30 2502 H 228.229 -5.08095 -2.45967 0
M  V30 2503 N 227.627 0.131896 -1.57047 0
M  V30 2504 C 228.59 1.14638 -1.98471 0
M  V30 2505 C 229.59 1.35029 -0.873148 0
M  V30 2506 O 230.78 1.31764 -1.13946 0
M  V30 2507 C 227.912 2.50358 -2.31373 0
M  V30 2508 H 229.105 0.79064 -2.8929 0
M  V30 2509 H 226.658 0.375761 -1.51716 0
M  V30 2510 H 227.393 2.90876 -1.43393 0
M  V30 2511 H 227.178 2.36915 -3.12432 0
M  V30 2512 H 228.668 3.23395 -2.64207 0
M  V30 2513 N 229.106 1.52395 0.401703 0
M  V30 2514 C 230.036 1.79231 1.49661 0
M  V30 2515 C 231.017 0.643654 1.57452 0
M  V30 2516 O 232.202 0.889989 1.72606 0
M  V30 2517 C 229.332 1.94971 2.87409 0
M  V30 2518 C 228.286 3.10604 2.94465 0
M  V30 2519 C 227.612 3.11577 4.34538 0
M  V30 2520 C 228.912 4.49921 2.6527 0
M  V30 2521 H 230.606 2.70917 1.27454 0
M  V30 2522 H 228.152 1.30362 0.6117 0
M  V30 2523 H 230.105 2.12328 3.63999 0
M  V30 2524 H 228.829 0.999632 3.10926 0
M  V30 2525 H 227.488 2.93009 2.20321 0
M  V30 2526 H 227.136 2.14277 4.55076 0
M  V30 2527 H 226.836 3.89247 4.40183 0
M  V30 2528 H 228.36 3.31073 5.13053 0
M  V30 2529 H 229.774 4.67683 3.31581 0
M  V30 2530 H 228.171 5.29564 2.82281 0
M  V30 2531 H 229.241 4.57507 1.60671 0
M  V30 2532 N 230.584 -0.659388 1.43143 0
M  V30 2533 C 231.547 -1.75432 1.47501 0
M  V30 2534 C 232.547 -1.56707 0.360512 0
M  V30 2535 O 233.737 -1.62717 0.622002 0
M  V30 2536 C 230.869 -3.14239 1.32162 0
M  V30 2537 H 232.062 -1.7295 2.45006 0
M  V30 2538 H 229.615 -0.870469 1.29817 0
M  V30 2539 H 230.35 -3.22336 0.356401 0
M  V30 2540 H 230.135 -3.29235 2.12948 0
M  V30 2541 H 231.625 -3.94094 1.3813 0
M  V30 2542 N 232.062 -1.29571 -0.897171 0
M  V30 2543 C 233.308 -1.17863 -1.65034 0
M  V30 2544 C 233.641 0.268729 -1.92332 0
M  V30 2545 O 232.916 1.19378 -1.53555 0
M  V30 2546 C 233.199 -1.995 -2.99786 0
M  V30 2547 C 233.052 -3.5239 -2.79538 0
M  V30 2548 C 234.371 -1.82335 -4.00552 0
M  V30 2549 H 231.49 -0.429528 -0.598895 0
M  V30 2550 H 234.132 -1.59072 -1.03905 0
M  V30 2551 H 232.282 -1.64485 -3.51962 0
M  V30 2552 H 233.954 -3.97401 -2.34244 0
M  V30 2553 H 232.197 -3.77187 -2.14273 0
M  V30 2554 H 232.868 -4.04787 -3.75302 0
M  V30 2555 H 235.344 -2.12924 -3.57495 0
M  V30 2556 H 234.22 -2.41801 -4.92771 0
M  V30 2557 H 234.481 -0.779209 -4.35179 0
M  V30 2558 N 233.54 1.10788 -1.12088 0
M  V30 2559 C 234.956 1.34691 -0.856186 0
M  V30 2560 C 235.156 1.94791 0.515615 0
M  V30 2561 O 234.212 2.18524 1.26505 0
M  V30 2562 C 235.525 2.27208 -1.9697 0
M  V30 2563 C 237.073 2.40755 -2.00016 0
M  V30 2564 C 237.548 3.36598 -3.1059 0
M  V30 2565 N 239.039 3.44164 -3.10008 0
M  V30 2566 C 239.774 4.18284 -3.92206 0
M  V30 2567 N 239.27 4.95322 -4.84384 0
M  V30 2568 N 241.063 4.13865 -3.80357 0
M  V30 2569 H 233.214 0.70144 -2.00483 0
M  V30 2570 H 235.477 0.371405 -0.872217 0
M  V30 2571 H 235.183 1.90251 -2.958 0
M  V30 2572 H 235.057 3.27485 -1.87172 0
M  V30 2573 H 237.444 2.76982 -1.01808 0
M  V30 2574 H 237.525 1.40305 -2.13888 0
M  V30 2575 H 237.169 3.01096 -4.09028 0
M  V30 2576 H 237.099 4.36918 -2.93956 0
M  V30 2577 H 239.59 2.8922 -2.43228 0
M  V30 2578 H 239.903 5.49267 -5.43623 0
M  V30 2579 H 238.248 4.94459 -4.884 0
M  V30 2580 H 241.439 3.52773 -3.07683 0
M  V30 2581 H 241.612 4.71372 -4.44649 0
M  V30 2582 N 235.018 0.912232 1.28515 0
M  V30 2583 C 235.948 0.416403 2.29757 0
M  V30 2584 C 236.929 -0.515194 1.6211 0
M  V30 2585 O 238.114 -0.423253 1.89532 0
M  V30 2586 C 235.244 -0.34572 3.45575 0
M  V30 2587 C 234.198 0.496599 4.25109 0
M  V30 2588 C 233.524 -0.393771 5.33248 0
M  V30 2589 C 234.824 1.75307 4.92001 0
M  V30 2590 H 236.518 1.26249 2.7148 0
M  V30 2591 H 234.064 0.608515 1.30511 0
M  V30 2592 H 236.017 -0.703422 4.15488 0
M  V30 2593 H 234.741 -1.2257 3.02728 0
M  V30 2594 H 233.4 0.8368 3.56922 0
M  V30 2595 H 233.048 -1.27225 4.86644 0
M  V30 2596 H 232.748 0.166209 5.87365 0
M  V30 2597 H 234.272 -0.747389 6.06009 0
M  V30 2598 H 235.686 1.46437 5.54283 0
M  V30 2599 H 234.083 2.25534 5.56106 0
M  V30 2600 H 235.153 2.48176 4.16577 0
M  V30 2601 N 236.496 -1.42363 0.676048 0
M  V30 2602 C 237.724 -2.05859 0.207268 0
M  V30 2603 C 238.139 -1.50796 -1.13605 0
M  V30 2604 O 237.496 -0.648265 -1.70598 0
M  V30 2605 C 237.547 -3.61248 0.134975 0
M  V30 2606 O 237.268 -4.1427 1.42521 0
M  V30 2607 C 238.769 -4.41859 -0.357151 0
M  V30 2608 H 235.989 -0.663431 0.100503 0
M  V30 2609 H 238.533 -1.82479 0.923136 0
M  V30 2610 H 236.688 -3.83735 -0.531588 0
M  V30 2611 H 237.102 -5.0815 1.29939 0
M  V30 2612 H 238.576 -5.50847 -0.356641 0
M  V30 2613 H 239.053 -4.16536 -1.39264 0
M  V30 2614 H 239.659 -4.24392 0.27772 0
M  V30 2615 N 237.974 -0.419461 -1.51915 0
M  V30 2616 C 238.937 0.389116 -2.25873 0
M  V30 2617 C 239.937 0.964924 -1.28631 0
M  V30 2618 O 241.127 0.842179 -1.52489 0
M  V30 2619 C 238.259 1.54874 -3.03689 0
M  V30 2620 H 239.452 -0.258799 -2.98781 0
M  V30 2621 H 237.005 -0.172209 -1.55348 0
M  V30 2622 H 237.74 2.23323 -2.35154 0
M  V30 2623 H 237.525 1.14223 -3.75094 0
M  V30 2624 H 239.015 2.12046 -3.59759 0
M  V30 2625 N 239.452 1.56882 -0.150215 0
M  V30 2626 C 240.4 2.18214 0.805313 0
M  V30 2627 C 241.394 1.14006 1.25296 0
M  V30 2628 O 242.6 1.3225 1.22107 0
M  V30 2629 H 238.975 0.698762 0.277913 0
M  V30 2630 H 240.946 2.97231 0.263862 0
M  V30 2631 C 239.695 2.82065 2.03309 0
M  V30 2632 H 239.018 3.61968 1.69763 0
M  V30 2633 H 240.458 3.28477 2.68103 0
M  V30 2634 C 238.917 1.80739 2.84315 0
M  V30 2635 O 239.447 1.27983 3.80767 0
M  V30 2636 N 237.653 1.4997 2.48913 0
M  V30 2637 H 237.2 1.93062 1.70542 0
M  V30 2638 H 237.158 0.824217 3.03404 0
M  V30 2639 N 240.93 -0.123565 1.57115 0
M  V30 2640 C 242.179 -0.830704 1.83799 0
M  V30 2641 C 242.492 -1.81259 0.735158 0
M  V30 2642 O 243.698 -2.56558 0.888278 0
M  V30 2643 C 242.154 -1.52802 3.25852 0
M  V30 2644 C 241.762 -0.587356 4.44133 0
M  V30 2645 C 243.506 -2.22056 3.61789 0
M  V30 2646 C 241.413 -1.28764 5.77212 0
M  V30 2647 H 240.343 -0.313967 0.685522 0
M  V30 2648 H 242.994 -0.0834359 1.8331 0
M  V30 2649 H 241.376 -2.32175 3.20797 0
M  V30 2650 H 242.55 0.172829 4.60476 0
M  V30 2651 H 240.865 -0.00201892 4.164 0
M  V30 2652 H 243.462 -2.75131 4.58483 0
M  V30 2653 H 243.805 -2.99644 2.88997 0
M  V30 2654 H 244.338 -1.49576 3.68608 0
M  V30 2655 H 241.077 -0.55314 6.53162 0
M  V30 2656 H 240.597 -2.01995 5.64764 0
M  V30 2657 H 242.276 -1.8221 6.20813 0
M  V30 2658 N 242.408 -1.52605 -0.393616 0
M  V30 2659 C 243.636 -1.71294 -1.16043 0
M  V30 2660 C 244.051 -0.429259 -1.83855 0
M  V30 2661 O 243.408 0.595921 -1.72496 0
M  V30 2662 C 243.459 -2.8593 -2.21193 0
M  V30 2663 O 243.18 -4.09329 -1.56146 0
M  V30 2664 C 244.681 -3.16259 -3.10636 0
M  V30 2665 H 241.901 -0.573641 -0.348104 0
M  V30 2666 H 244.445 -1.99234 -0.461092 0
M  V30 2667 H 242.6 -2.60465 -2.86769 0
M  V30 2668 H 243.014 -4.73323 -2.25978 0
M  V30 2669 H 244.488 -3.99946 -3.80456 0
M  V30 2670 H 244.965 -2.3045 -3.73884 0
M  V30 2671 H 245.571 -3.43547 -2.50711 0
M  V30 2672 N 243.887 0.651787 -1.4349 0
M  V30 2673 C 244.85 1.74647 -1.48429 0
M  V30 2674 C 245.85 1.56513 -0.368817 0
M  V30 2675 O 247.04 1.62385 -0.630623 0
M  V30 2676 C 244.172 3.13533 -1.33827 0
M  V30 2677 H 245.365 1.71649 -2.4592 0
M  V30 2678 H 242.918 0.863573 -1.30277 0
M  V30 2679 H 243.653 3.22142 -0.37349 0
M  V30 2680 H 243.438 3.28101 -2.14691 0
M  V30 2681 H 244.928 3.93356 -1.40218 0
M  V30 2682 N 245.365 1.30045 0.890287 0
M  V30 2683 C 246.613 1.18327 1.63839 0
M  V30 2684 C 246.934 -0.263455 1.93212 0
M  V30 2685 O 246.204 -1.17856 1.56482 0
M  V30 2686 H 244.784 0.434933 0.607324 0
M  V30 2687 H 247.446 1.631 1.06698 0
M  V30 2688 H 246.542 1.74024 2.59079 0
M  V30 2689 N 246.843 -1.10192 1.12674 0
M  V30 2690 C 247.793 -2.14754 0.765801 0
M  V30 2691 C 248.777 -1.59154 -0.236409 0
M  V30 2692 O 249.969 -1.76951 -0.0415261 0
M  V30 2693 C 247.098 -3.42563 0.224827 0
M  V30 2694 C 246.184 -4.05091 1.25548 0
M  V30 2695 N 246.575 -4.42287 2.4539 0
M  V30 2696 C 244.873 -4.32186 1.10142 0
M  V30 2697 C 245.574 -4.91441 3.11224 0
M  V30 2698 N 244.55 -4.88405 2.38666 0
M  V30 2699 H 248.352 -2.41309 1.67772 0
M  V30 2700 H 245.866 -1.27339 1.00789 0
M  V30 2701 H 247.863 -4.16868 -0.0519578 0
M  V30 2702 H 246.523 -3.17467 -0.681515 0
M  V30 2703 H 247.534 -4.33902 2.82754 0
M  V30 2704 H 244.211 -4.16735 0.252587 0
M  V30 2705 H 245.601 -5.29749 4.13298 0
M  V30 2706 N 248.321 -0.919034 -1.28029 0
M  V30 2707 C 249.251 -0.428581 -2.29533 0
M  V30 2708 C 250.232 0.50659 -1.62381 0
M  V30 2709 O 251.417 0.413195 -1.89753 0
M  V30 2710 C 248.547 0.327388 -3.45753 0
M  V30 2711 C 247.501 -0.519137 -4.2484 0
M  V30 2712 C 246.827 0.365486 -5.33449 0
M  V30 2713 C 248.127 -1.77914 -4.91064 0
M  V30 2714 H 249.821 -1.27687 -2.70807 0
M  V30 2715 H 247.367 -0.615428 -1.30186 0
M  V30 2716 H 249.32 0.681378 -4.15855 0
M  V30 2717 H 248.044 1.20963 -3.03374 0
M  V30 2718 H 246.703 -0.855717 -3.56473 0
M  V30 2719 H 246.351 1.24642 -4.87312 0
M  V30 2720 H 246.051 -0.197356 -5.87268 0
M  V30 2721 H 247.575 0.715241 -6.06396 0
M  V30 2722 H 248.989 -1.49374 -5.53498 0
M  V30 2723 H 247.386 -2.2848 -5.54903 0
M  V30 2724 H 248.456 -2.50382 -4.15255 0
M  V30 2725 N 249.799 1.42003 -0.683588 0
M  V30 2726 C 250.729 2.33487 -0.024866 0
M  V30 2727 C 251.71 1.51163 0.779975 0
M  V30 2728 O 252.895 1.79739 0.735362 0
M  V30 2729 C 250.025 3.3487 0.920836 0
M  V30 2730 C 248.979 4.27414 0.223958 0
M  V30 2731 C 248.305 5.19074 1.2832 0
M  V30 2732 C 249.605 5.14445 -0.90242 0
M  V30 2733 H 251.299 2.88819 -0.788921 0
M  V30 2734 H 248.845 1.38873 -0.38083 0
M  V30 2735 H 250.798 3.97787 1.39081 0
M  V30 2736 H 249.522 2.77861 1.71642 0
M  V30 2737 H 248.181 3.65904 -0.225864 0
M  V30 2738 H 247.829 4.58387 2.071 0
M  V30 2739 H 247.529 5.81822 0.821995 0
M  V30 2740 H 249.053 5.84867 1.75392 0
M  V30 2741 H 250.467 5.70998 -0.513272 0
M  V30 2742 H 248.864 5.86072 -1.28997 0
M  V30 2743 H 249.934 4.52322 -1.74737 0
M  V30 2744 N 251.277 0.427512 1.51691 0
M  V30 2745 C 252.21 -0.433876 2.24037 0
M  V30 2746 C 253.188 -1.03287 1.25581 0
M  V30 2747 O 254.372 -1.07722 1.54688 0
M  V30 2748 C 251.499 -1.60385 2.98319 0
M  V30 2749 C 250.545 -1.12648 4.11355 0
M  V30 2750 S 251.378 -0.076543 5.35445 0
M  V30 2751 C 252.534 -1.25141 6.13262 0
M  V30 2752 H 252.767 0.180367 2.96752 0
M  V30 2753 H 250.3 0.211946 1.52938 0
M  V30 2754 H 252.258 -2.27462 3.41718 0
M  V30 2755 H 250.919 -2.18948 2.25213 0
M  V30 2756 H 250.112 -2.0011 4.62571 0
M  V30 2757 H 249.714 -0.534088 3.70167 0
M  V30 2758 H 252.006 -2.17162 6.41753 0
M  V30 2759 H 252.949 -0.779411 7.03797 0
M  V30 2760 H 253.357 -1.48553 5.44603 0
M  V30 2761 N 252.755 -1.56801 0.158532 0
M  V30 2762 C 253.705 -2.13923 -0.788738 0
M  V30 2763 C 254.689 -1.07006 -1.2016 0
M  V30 2764 O 255.881 -1.33159 -1.1661 0
M  V30 2765 C 253.01 -2.77348 -2.02319 0
M  V30 2766 C 252.096 -3.91404 -1.6329 0
M  V30 2767 N 252.487 -4.9677 -0.951463 0
M  V30 2768 C 250.785 -4.02326 -1.92482 0
M  V30 2769 C 251.486 -5.76698 -0.761221 0
M  V30 2770 N 250.462 -5.27859 -1.29869 0
M  V30 2771 H 254.264 -2.92757 -0.258995 0
M  V30 2772 H 251.778 -1.62344 -0.0426055 0
M  V30 2773 H 253.775 -3.16639 -2.71192 0
M  V30 2774 H 252.435 -1.99991 -2.558 0
M  V30 2775 H 253.446 -5.14284 -0.610928 0
M  V30 2776 H 250.123 -3.36059 -2.47732 0
M  V30 2777 H 251.513 -6.71529 -0.223284 0
M  V30 2778 N 254.233 0.115231 -1.57178 0
M  V30 2779 C 255.163 1.1423 -2.03651 0
M  V30 2780 C 256.144 1.42967 -0.921655 0
M  V30 2781 O 257.329 1.53343 -1.19162 0
M  V30 2782 C 254.459 2.4675 -2.44401 0
M  V30 2783 C 253.413 2.32467 -3.59365 0
M  V30 2784 C 252.739 3.69984 -3.86026 0
M  V30 2785 C 254.039 1.78203 -4.90959 0
M  V30 2786 H 255.733 0.755749 -2.89705 0
M  V30 2787 H 253.279 0.362093 -1.39373 0
M  V30 2788 H 255.232 3.18854 -2.75517 0
M  V30 2789 H 253.956 2.87302 -1.55322 0
M  V30 2790 H 252.615 1.62811 -3.28463 0
M  V30 2791 H 252.263 4.08028 -2.94147 0
M  V30 2792 H 251.963 3.61279 -4.63412 0
M  V30 2793 H 253.487 4.43587 -4.19599 0
M  V30 2794 H 254.901 2.40128 -5.20587 0
M  V30 2795 H 253.298 1.8031 -5.72371 0
M  V30 2796 H 254.368 0.739876 -4.79222 0
M  V30 2797 N 255.711 1.52812 0.385517 0
M  V30 2798 C 256.96 1.67249 1.12741 0
M  V30 2799 C 257.273 0.4205 1.91027 0
M  V30 2800 O 258.479 0.445064 2.67827 0
M  V30 2801 C 256.935 2.95583 2.05326 0
M  V30 2802 C 256.543 4.27974 1.32447 0
M  V30 2803 C 258.287 3.19386 2.7963 0
M  V30 2804 C 256.194 5.47412 2.23818 0
M  V30 2805 H 255.124 0.6231 0.424573 0
M  V30 2806 H 257.775 1.79309 0.389924 0
M  V30 2807 H 256.157 2.77277 2.82725 0
M  V30 2808 H 257.331 4.56844 0.602495 0
M  V30 2809 H 255.646 4.10459 0.700885 0
M  V30 2810 H 258.243 4.05801 3.48181 0
M  V30 2811 H 258.586 2.34604 3.43899 0
M  V30 2812 H 259.119 3.38274 2.09322 0
M  V30 2813 H 255.858 6.34612 1.64157 0
M  V30 2814 H 255.378 5.22849 2.93921 0
M  V30 2815 H 257.057 5.81423 2.83824 0
M  V30 2816 N 257.189 -0.644168 1.43834 0
M  V30 2817 C 258.437 -1.40117 1.45642 0
M  V30 2818 C 258.758 -1.94814 0.0852413 0
M  V30 2819 O 258.028 -1.74988 -0.880688 0
M  V30 2820 H 256.608 -0.52005 0.536243 0
M  V30 2821 H 259.27 -0.7591 1.7951 0
M  V30 2822 H 258.366 -2.23902 2.17427 0
M  V30 2823 N 258.668 -1.30515 -0.883378 0
M  V30 2824 C 259.893 -1.22487 -1.67367 0
M  V30 2825 C 260.318 0.208767 -1.86938 0
M  V30 2826 O 259.676 1.15015 -1.40148 0
M  V30 2827 C 259.724 -1.96041 -3.02655 0
M  V30 2828 O 258.828 -1.28859 -3.91751 0
M  V30 2829 H 258.169 -0.423573 -0.511353 0
M  V30 2830 H 260.699 -1.72362 -1.10239 0
M  V30 2831 H 260.709 -2.05124 -3.52687 0
M  V30 2832 H 259.384 -3.00307 -2.8773 0
M  V30 2833 H 257.961 -1.28141 -3.50192 0
M  V30 2834 N 260.146 1.09593 -1.13257 0
M  V30 2835 C 261.109 2.14359 -0.811358 0
M  V30 2836 C 262.109 1.59808 0.178377 0
M  V30 2837 O 263.299 1.74132 -0.0484911 0
M  V30 2838 C 260.431 3.40269 -0.207276 0
M  V30 2839 H 261.624 2.44284 -1.73969 0
M  V30 2840 H 259.177 1.25102 -0.936973 0
M  V30 2841 H 259.912 3.15969 0.73036 0
M  V30 2842 H 259.697 3.81154 -0.919992 0
M  V30 2843 H 261.187 4.176 0.000667944 0
M  V30 2844 N 261.624 0.925811 1.2754 0
M  V30 2845 C 262.852 0.581509 1.9856 0
M  V30 2846 C 263.267 -0.840041 1.69082 0
M  V30 2847 O 262.624 -1.55805 0.950312 0
M  V30 2848 C 262.675 0.795589 3.52637 0
M  V30 2849 O 262.396 2.16121 3.81082 0
M  V30 2850 C 263.897 0.459744 4.4091 0
M  V30 2851 H 261.117 0.220538 0.633722 0
M  V30 2852 H 263.661 1.24232 1.6244 0
M  V30 2853 H 261.816 0.18161 3.86974 0
M  V30 2854 H 262.23 2.2098 4.75676 0
M  V30 2855 H 263.704 0.660244 5.48037 0
M  V30 2856 H 264.181 -0.604625 4.35018 0
M  V30 2857 H 264.787 1.05178 4.12089 0
M  V30 2858 N 263.102 -1.41638 0.69111 0
M  V30 2859 C 264.032 -2.3347 0.037248 0
M  V30 2860 C 265.013 -1.51575 -0.771947 0
M  V30 2861 O 266.198 -1.80126 -0.72582 0
M  V30 2862 C 263.328 -3.35354 -0.903064 0
M  V30 2863 C 262.282 -4.27526 -0.201288 0
M  V30 2864 C 261.608 -5.19747 -1.25565 0
M  V30 2865 C 262.908 -5.13959 0.929689 0
M  V30 2866 H 264.602 -2.88397 0.804227 0
M  V30 2867 H 262.148 -1.38669 0.388189 0
M  V30 2868 H 264.101 -3.98519 -1.36969 0
M  V30 2869 H 262.825 -2.78767 -1.70166 0
M  V30 2870 H 261.484 -3.65779 0.245265 0
M  V30 2871 H 261.132 -4.59479 -2.04666 0
M  V30 2872 H 260.832 -5.8225 -0.791128 0
M  V30 2873 H 262.356 -5.85789 -1.72288 0
M  V30 2874 H 263.77 -5.70718 0.543546 0
M  V30 2875 H 262.167 -5.85379 1.32103 0
M  V30 2876 H 263.237 -4.51389 1.77133 0
M  V30 2877 N 264.58 -0.43555 -1.51462 0
M  V30 2878 C 265.543 0.365137 -2.26273 0
M  V30 2879 C 266.543 0.951227 -1.29647 0
M  V30 2880 O 267.733 0.825958 -1.53374 0
M  V30 2881 C 264.865 1.51645 -3.05314 0
M  V30 2882 H 266.058 -0.290474 -2.9849 0
M  V30 2883 H 263.611 -0.188676 -1.55157 0
M  V30 2884 H 264.346 2.20816 -2.3751 0
M  V30 2885 H 264.131 1.10238 -3.76284 0
M  V30 2886 H 265.621 2.08218 -3.61987 0
M  V30 2887 N 266.058 1.56714 -0.166846 0
M  V30 2888 C 266.991 2.13577 0.80375 0
M  V30 2889 C 267.969 1.06464 1.22899 0
M  V30 2890 O 269.153 1.34413 1.32157 0
M  V30 2891 C 266.28 2.67168 2.0818 0
M  V30 2892 C 265.326 3.86612 1.80093 0
M  V30 2893 S 266.159 5.26565 0.97416 0
M  V30 2894 C 267.315 5.83558 2.26297 0
M  V30 2895 H 267.548 2.9557 0.320267 0
M  V30 2896 H 265.081 1.54326 0.0477555 0
M  V30 2897 H 267.039 2.98692 2.8159 0
M  V30 2898 H 265.7 1.85269 2.53642 0
M  V30 2899 H 264.893 4.22422 2.7491 0
M  V30 2900 H 264.495 3.55951 1.14781 0
M  V30 2901 H 266.787 5.962 3.21795 0
M  V30 2902 H 267.73 6.80731 1.94962 0
M  V30 2903 H 268.138 5.11944 2.37853 0
M  V30 2904 N 267.536 -0.106894 1.57237 0
M  V30 2905 C 268.761 -0.830287 1.90055 0
M  V30 2906 C 269.186 -1.72064 0.75998 0
M  V30 2907 O 268.544 -1.78982 -0.288991 0
M  V30 2908 C 268.592 -1.6295 3.21683 0
M  V30 2909 O 267.696 -2.73748 3.08441 0
M  V30 2910 H 267.037 -0.228855 0.623315 0
M  V30 2911 H 269.567 -0.085658 2.04421 0
M  V30 2912 H 269.577 -2.01621 3.54701 0
M  V30 2913 H 268.252 -0.975989 4.04286 0
M  V30 2914 H 266.829 -2.38192 2.86913 0
M  V30 2915 N 269.014 -1.53014 -0.377408 0
M  V30 2916 C 270.242 -1.72515 -1.14219 0
M  V30 2917 C 270.657 -0.448735 -1.8339 0
M  V30 2918 O 270.014 0.577592 -1.73119 0
M  V30 2919 C 270.065 -2.8826 -2.18148 0
M  V30 2920 O 269.786 -4.10962 -1.51795 0
M  V30 2921 C 271.287 -3.19536 -3.07264 0
M  V30 2922 H 268.507 -0.577301 -0.342001 0
M  V30 2923 H 271.051 -1.99712 -0.439935 0
M  V30 2924 H 269.206 -2.63492 -2.83991 0
M  V30 2925 H 269.62 -4.75693 -2.20945 0
M  V30 2926 H 271.094 -4.03959 -3.76193 0
M  V30 2927 H 271.571 -2.34403 -3.71419 0
M  V30 2928 H 272.177 -3.46186 -2.47053 0
M  V30 2929 N 270.492 0.636531 -1.44174 0
M  V30 2930 C 271.741 1.39213 -1.45954 0
M  V30 2931 C 272.054 1.95374 -0.0939119 0
M  V30 2932 O 273.26 2.71498 0.0107767 0
M  V30 2933 C 271.716 2.52025 -2.56927 0
M  V30 2934 C 271.324 2.024 -3.99673 0
M  V30 2935 C 273.068 3.29269 -2.67922 0
M  V30 2936 C 270.975 3.12521 -5.0208 0
M  V30 2937 H 269.905 0.523132 -0.542999 0
M  V30 2938 H 272.556 0.685349 -1.70221 0
M  V30 2939 H 270.938 3.25253 -2.25891 0
M  V30 2940 H 272.112 1.36073 -4.40251 0
M  V30 2941 H 270.427 1.37987 -3.92872 0
M  V30 2942 H 273.024 4.11352 -3.41605 0
M  V30 2943 H 273.367 3.78397 -1.73555 0
M  V30 2944 H 273.9 2.63129 -2.98342 0
M  V30 2945 H 270.639 2.68343 -5.98057 0
M  V30 2946 H 270.159 3.77507 -4.66099 0
M  V30 2947 H 271.838 3.77385 -5.25538 0
M  V30 2948 N 271.97 1.30982 0.876444 0
M  V30 2949 C 272.918 1.18006 2.00443 0
M  V30 2950 C 273.912 0.0898871 1.69161 0
M  V30 2951 O 275.118 0.251333 1.78237 0
M  V30 2952 H 271.493 0.365196 0.65737 0
M  V30 2953 H 273.464 2.13453 2.0852 0
M  V30 2954 C 272.213 0.897521 3.35916 0
M  V30 2955 H 271.536 1.7285 3.60504 0
M  V30 2956 H 272.976 0.846874 4.15456 0
M  V30 2957 C 271.435 -0.399674 3.34521 0
M  V30 2958 O 271.965 -1.41852 3.7582 0
M  V30 2959 N 270.171 -0.413893 2.87637 0
M  V30 2960 H 269.718 0.41571 2.54224 0
M  V30 2961 H 269.676 -1.28175 2.87086 0
M  V30 2962 N 273.449 -1.08991 1.13837 0
M  V30 2963 C 274.379 -2.17771 0.842507 0
M  V30 2964 C 275.36 -1.6892 -0.20001 0
M  V30 2965 O 276.545 -1.94113 -0.0579731 0
M  V30 2966 C 273.675 -3.4589 0.312644 0
M  V30 2967 C 272.629 -4.08099 1.28992 0
M  V30 2968 C 271.955 -5.31098 0.619623 0
M  V30 2969 C 273.255 -4.50077 2.65005 0
M  V30 2970 H 274.949 -2.42777 1.75213 0
M  V30 2971 H 272.495 -1.16682 0.843875 0
M  V30 2972 H 274.448 -4.21297 0.0933043 0
M  V30 2973 H 273.172 -3.20419 -0.632382 0
M  V30 2974 H 271.831 -3.34717 1.49533 0
M  V30 2975 H 271.479 -5.0191 -0.33102 0
M  V30 2976 H 271.179 -5.73674 1.27167 0
M  V30 2977 H 272.703 -6.09224 0.409669 0
M  V30 2978 H 274.117 -5.16688 2.48407 0
M  V30 2979 H 272.514 -5.03553 3.26427 0
M  V30 2980 H 273.584 -3.62257 3.22332 0
M  V30 2981 N 274.927 -0.932562 -1.27047 0
M  V30 2982 C 276.338 -0.619451 -1.76124 0
M  V30 2983 C 276.689 0.865397 -1.76083 0
M  V30 2984 O 275.814 1.67722 -1.36742 0
M  V30 2985 C 276.409 -1.11771 -3.19832 0
M  V30 2986 C 274.968 -0.855174 -3.66557 0
M  V30 2987 C 274.115 -1.27362 -2.46321 0
M  V30 2988 H 277.066 -1.11181 -1.13245 0
M  V30 2989 H 277.087 -0.46759 -3.77616 0
M  V30 2990 H 276.599 -2.19842 -3.1983 0
M  V30 2991 H 274.7 0.211524 -3.71999 0
M  V30 2992 H 274.813 -1.47613 -4.55793 0
M  V30 2993 H 273.177 -0.692119 -2.45116 0
M  V30 2994 H 273.96 -2.36307 -2.49025 0
M  V30 2995 N 276.405 1.4127 -0.698611 0
M  V30 2996 C 277.63 2.06024 -0.238512 0
M  V30 2997 C 278.055 1.5224 1.10475 0
M  V30 2998 O 277.413 0.650623 1.69223 0
M  V30 2999 C 277.461 3.59988 -0.209952 0
M  V30 3000 O 276.565 4.04282 0.814235 0
M  V30 3001 H 275.906 0.653829 -0.115775 0
M  V30 3002 H 278.436 1.8098 -0.954326 0
M  V30 3003 H 278.446 4.07979 -0.0418436 0
M  V30 3004 H 277.121 3.98503 -1.1903 0
M  V30 3005 H 275.698 3.6779 0.615234 0
M  V30 3006 N 277.883 0.443576 1.51229 0
M  V30 3007 C 279.111 -0.11929 2.06556 0
M  V30 3008 C 279.526 -1.35921 1.31038 0
M  V30 3009 O 278.883 -1.78675 0.371704 0
M  V30 3010 C 278.934 -0.435228 3.5887 0
M  V30 3011 O 278.655 0.755486 4.31537 0
M  V30 3012 C 280.156 -1.04808 4.30732 0
M  V30 3013 H 277.376 -0.0051584 0.67098 0
M  V30 3014 H 279.92 0.624453 1.94733 0
M  V30 3015 H 278.075 -1.12887 3.70588 0
M  V30 3016 H 278.489 0.483491 5.22267 0
M  V30 3017 H 279.963 -1.2191 5.3837 0
M  V30 3018 H 280.44 -2.03081 3.89429 0
M  V30 3019 H 281.046 -0.393637 4.23474 0
M  V30 3020 N 279.361 -1.56624 0.175154 0
M  V30 3021 C 280.291 -2.21155 -0.749195 0
M  V30 3022 C 281.272 -1.16836 -1.23626 0
M  V30 3023 O 282.457 -1.45277 -1.28873 0
M  V30 3024 C 279.587 -2.8553 -1.97711 0
M  V30 3025 C 278.541 -3.95921 -1.62575 0
M  V30 3026 C 277.867 -4.47365 -2.92864 0
M  V30 3027 C 279.167 -5.15323 -0.850838 0
M  V30 3028 H 280.861 -2.98653 -0.211295 0
M  V30 3029 H 278.407 -1.43651 -0.100188 0
M  V30 3030 H 280.36 -3.2935 -2.62881 0
M  V30 3031 H 279.084 -2.05406 -2.53921 0
M  V30 3032 H 277.743 -3.52762 -0.997719 0
M  V30 3033 H 277.391 -3.64027 -3.47122 0
M  V30 3034 H 277.091 -5.21839 -2.70106 0
M  V30 3035 H 278.615 -4.93873 -3.59056 0
M  V30 3036 H 280.029 -5.55812 -1.40521 0
M  V30 3037 H 278.426 -5.95739 -0.722154 0
M  V30 3038 H 279.496 -4.84661 0.152082 0
M  V30 3039 N 280.839 0.0985539 -1.57292 0
M  V30 3040 C 282.088 0.801358 -1.85098 0
M  V30 3041 C 282.401 1.80066 -0.763902 0
M  V30 3042 O 283.607 2.55112 -0.928981 0
M  V30 3043 C 282.063 1.47599 -3.28242 0
M  V30 3044 C 281.671 0.516624 -4.45011 0
M  V30 3045 C 283.415 2.16272 -3.65276 0
M  V30 3046 C 281.322 1.19564 -5.79188 0
M  V30 3047 H 280.252 0.303022 -0.69043 0
M  V30 3048 H 282.903 0.0542623 -1.8342 0
M  V30 3049 H 281.285 2.27042 -3.2445 0
M  V30 3050 H 282.459 -0.246065 -4.60143 0
M  V30 3051 H 280.774 -0.064227 -4.1635 0
M  V30 3052 H 283.371 2.67802 -4.62803 0
M  V30 3053 H 283.714 2.95009 -2.93727 0
M  V30 3054 H 284.247 1.43693 -3.70941 0
M  V30 3055 H 280.986 0.449157 -6.53959 0
M  V30 3056 H 280.506 1.92984 -5.67906 0
M  V30 3057 H 282.185 1.7231 -6.23633 0
M  V30 3058 N 282.317 1.53212 0.369288 0
M  V30 3059 C 283.566 1.68436 1.10961 0
M  V30 3060 C 283.879 0.440738 1.9057 0
M  V30 3061 O 285.085 0.473446 2.6734 0
M  V30 3062 C 283.541 2.97744 2.0218 0
M  V30 3063 C 283.149 4.29355 1.279 0
M  V30 3064 C 284.893 3.22334 2.76226 0
M  V30 3065 C 282.8 5.49755 2.17999 0
M  V30 3066 H 281.73 0.627568 0.41794 0
M  V30 3067 H 284.381 1.79713 0.370884 0
M  V30 3068 H 282.763 2.8026 2.79768 0
M  V30 3069 H 283.937 4.57458 0.554007 0
M  V30 3070 H 282.252 4.11179 0.657311 0
M  V30 3071 H 284.849 4.09471 3.43857 0
M  V30 3072 H 285.192 2.38238 3.41392 0
M  V30 3073 H 285.725 3.40475 2.05723 0
M  V30 3074 H 282.464 6.36318 1.57417 0
M  V30 3075 H 281.984 5.25937 2.88359 0
M  V30 3076 H 283.663 5.84401 2.77641 0
M  V30 3077 N 283.795 -0.628877 1.44509 0
M  V30 3078 C 285.042 -1.38839 1.47411 0
M  V30 3079 C 285.37 -1.94202 0.10757 0
M  V30 3080 O 284.625 -1.74243 -0.890947 0
M  V30 3081 C 284.924 -2.56995 2.48371 0
M  V30 3082 C 284.59 -2.19908 3.93639 0
M  V30 3083 C 283.252 -2.09506 4.33198 0
M  V30 3084 C 285.604 -1.9064 4.85083 0
M  V30 3085 C 282.932 -1.68028 5.62124 0
M  V30 3086 C 285.284 -1.50655 6.14399 0
M  V30 3087 C 283.948 -1.38796 6.5291 0
M  V30 3088 H 283.218 -0.508048 0.539414 0
M  V30 3089 H 285.865 -0.712913 1.77735 0
M  V30 3090 H 284.17 -3.29786 2.11538 0
M  V30 3091 H 285.867 -3.15223 2.47861 0
M  V30 3092 H 282.457 -2.28922 3.62343 0
M  V30 3093 H 286.641 -1.97585 4.55273 0
M  V30 3094 H 281.897 -1.57452 5.90778 0
M  V30 3095 H 286.071 -1.27048 6.84713 0
M  V30 3096 H 283.698 -1.06429 7.52713 0
M  V30 3097 N 285.273 -1.31445 -0.869486 0
M  V30 3098 C 286.501 -1.24122 -1.65534 0
M  V30 3099 C 286.916 0.193387 -1.87807 0
M  V30 3100 O 286.273 1.12557 -1.43656 0
M  V30 3101 C 286.324 -1.98229 -3.02304 0
M  V30 3102 O 286.045 -3.3609 -2.81026 0
M  V30 3103 C 287.546 -1.97751 -3.96749 0
M  V30 3104 H 284.766 -0.428868 -0.516055 0
M  V30 3105 H 287.31 -1.73328 -1.08525 0
M  V30 3106 H 285.465 -1.52782 -3.56001 0
M  V30 3107 H 285.879 -3.7383 -3.67902 0
M  V30 3108 H 287.353 -2.54114 -4.90031 0
M  V30 3109 H 287.83 -0.960137 -4.28577 0
M  V30 3110 H 288.436 -2.43079 -3.48988 0
M  V30 3111 N 286.751 1.08385 -1.14413 0
M  V30 3112 C 288 1.80153 -0.907076 0
M  V30 3113 C 288.313 1.87176 0.567851 0
M  V30 3114 O 289.519 2.55359 0.922172 0
M  V30 3115 C 287.975 3.23687 -1.57336 0
M  V30 3116 C 287.583 3.24897 -3.08457 0
M  V30 3117 C 289.327 4.00136 -1.41744 0
M  V30 3118 C 287.234 4.6302 -3.67921 0
M  V30 3119 H 286.164 0.675139 -0.335714 0
M  V30 3120 H 288.815 1.21733 -1.37307 0
M  V30 3121 H 287.197 3.82234 -1.03505 0
M  V30 3122 H 288.371 2.76055 -3.68958 0
M  V30 3123 H 286.686 2.61943 -3.2369 0
M  V30 3124 H 289.283 5.02201 -1.83572 0
M  V30 3125 H 289.626 4.14709 -0.363576 0
M  V30 3126 H 290.159 3.48058 -1.92614 0
M  V30 3127 H 286.898 4.5365 -4.73161 0
M  V30 3128 H 286.418 5.12143 -3.12201 0
M  V30 3129 H 288.097 5.31994 -3.68227 0
M  V30 3130 N 288.23 0.939286 1.26551 0
M  V30 3131 C 289.16 0.465044 2.28822 0
M  V30 3132 C 290.141 -0.480692 1.63167 0
M  V30 3133 O 291.326 -0.382955 1.90387 0
M  V30 3134 C 288.456 -0.27234 3.46231 0
M  V30 3135 C 287.41 0.58666 4.2396 0
M  V30 3136 C 286.736 -0.280573 5.33963 0
M  V30 3137 C 288.036 1.85704 4.88171 0
M  V30 3138 H 289.73 1.31979 2.68741 0
M  V30 3139 H 287.276 0.636061 1.29191 0
M  V30 3140 H 289.229 -0.615133 4.16886 0
M  V30 3141 H 287.953 -1.16121 3.0526 0
M  V30 3142 H 286.612 0.91232 3.55067 0
M  V30 3143 H 286.26 -1.16874 4.89234 0
M  V30 3144 H 285.96 0.29076 5.8688 0
M  V30 3145 H 287.484 -0.618678 6.07458 0
M  V30 3146 H 288.898 1.58161 5.51052 0
M  V30 3147 H 287.295 2.37279 5.51197 0
M  V30 3148 H 288.365 2.56957 4.11219 0
M  V30 3149 N 289.708 -1.40897 0.706093 0
M  V30 3150 C 290.957 -2.00284 0.238574 0
M  V30 3151 C 291.27 -1.56604 -1.17194 0
M  V30 3152 O 292.476 -2.08624 -1.73748 0
M  V30 3153 C 290.932 -3.57934 0.375623 0
M  V30 3154 C 290.54 -4.10591 1.79217 0
M  V30 3155 C 292.284 -4.24488 -0.0315857 0
M  V30 3156 C 290.191 -5.60712 1.88032 0
M  V30 3157 H 289.121 -0.749144 0.0854398 0
M  V30 3158 H 291.772 -1.61251 0.875813 0
M  V30 3159 H 290.154 -3.94622 -0.330042 0
M  V30 3160 H 291.328 -3.85301 2.52745 0
M  V30 3161 H 289.643 -3.56601 2.15 0
M  V30 3162 H 292.24 -5.34698 0.0136842 0
M  V30 3163 H 292.583 -4.02261 -1.072 0
M  V30 3164 H 293.116 -3.92873 0.624181 0
M  V30 3165 H 289.855 -5.87781 2.90161 0
M  V30 3166 H 289.375 -5.87896 1.18903 0
M  V30 3167 H 291.054 -6.25658 1.64805 0
M  V30 3168 N 291.186 -0.45159 -1.50991 0
M  V30 3169 C 292.116 0.342898 -2.30969 0
M  V30 3170 C 293.097 1.00815 -1.37005 0
M  V30 3171 O 294.282 1.00907 -1.65926 0
M  V30 3172 C 291.412 1.43637 -3.16205 0
M  V30 3173 C 290.366 0.893818 -4.18563 0
M  V30 3174 C 289.692 2.08411 -4.92411 0
M  V30 3175 C 290.992 -0.0815568 -5.22236 0
M  V30 3176 H 292.686 -0.324556 -2.97636 0
M  V30 3177 H 290.232 -0.157531 -1.43136 0
M  V30 3178 H 292.185 1.9995 -3.70942 0
M  V30 3179 H 290.909 2.13232 -2.47386 0
M  V30 3180 H 289.568 0.352798 -3.64898 0
M  V30 3181 H 289.216 2.76658 -4.20082 0
M  V30 3182 H 288.916 1.72741 -5.61636 0
M  V30 3183 H 290.44 2.65251 -5.49976 0
M  V30 3184 H 291.854 0.391742 -5.7196 0
M  V30 3185 H 290.251 -0.351551 -5.99069 0
M  V30 3186 H 291.321 -1.01374 -4.74185 0
M  V30 3187 N 292.664 1.56529 -0.183458 0
M  V30 3188 C 293.594 2.21549 0.737456 0
M  V30 3189 C 294.575 1.17489 1.23005 0
M  V30 3190 O 295.76 1.45959 1.281 0
M  V30 3191 C 292.89 2.86575 1.96194 0
M  V30 3192 C 291.844 3.96778 1.60473 0
M  V30 3193 C 291.17 4.48911 2.90487 0
M  V30 3194 C 292.47 5.15767 0.823497 0
M  V30 3195 H 294.164 2.98761 0.195453 0
M  V30 3196 H 291.71 1.43702 0.0925686 0
M  V30 3197 H 293.663 3.30739 2.61131 0
M  V30 3198 H 292.387 2.06749 2.52828 0
M  V30 3199 H 291.046 3.53286 0.978997 0
M  V30 3200 H 290.694 3.65862 3.45186 0
M  V30 3201 H 290.394 5.23265 2.67335 0
M  V30 3202 H 291.918 4.95771 3.56432 0
M  V30 3203 H 293.332 5.56549 1.37571 0
M  V30 3204 H 291.729 5.96114 0.690551 0
M  V30 3205 H 292.799 4.84574 -0.177782 0
M  V30 3206 N 294.142 -0.090211 1.57342 0
M  V30 3207 C 295.37 -0.806224 1.90546 0
M  V30 3208 C 295.785 -1.72041 0.777644 0
M  V30 3209 O 295.142 -1.80778 -0.250103 0
M  V30 3210 C 295.193 -1.61546 3.23396 0
M  V30 3211 O 294.914 -0.738043 4.31839 0
M  V30 3212 C 296.415 -2.4341 3.70495 0
M  V30 3213 H 293.635 -0.230256 0.630257 0
M  V30 3214 H 296.179 -0.0659843 2.04394 0
M  V30 3215 H 294.334 -2.30816 3.11131 0
M  V30 3216 H 294.748 -1.29901 5.08159 0
M  V30 3217 H 296.222 -2.95676 4.66133 0
M  V30 3218 H 296.699 -3.22098 2.98579 0
M  V30 3219 H 297.305 -1.79331 3.85643 0
M  V30 3220 N 295.62 -1.53406 -0.361157 0
M  V30 3221 C 296.869 -1.69022 -1.10066 0
M  V30 3222 C 297.182 -0.450838 -1.90333 0
M  V30 3223 O 298.388 -0.487617 -2.67085 0
M  V30 3224 C 296.844 -2.98812 -2.00598 0
M  V30 3225 C 296.452 -4.30027 -1.25621 0
M  V30 3226 C 298.196 -3.23795 -2.74513 0
M  V30 3227 C 296.103 -5.50903 -2.1508 0
M  V30 3228 H 295.033 -0.629776 -0.414606 0
M  V30 3229 H 297.684 -1.79907 -0.361348 0
M  V30 3230 H 296.066 -2.8174 -2.78278 0
M  V30 3231 H 297.24 -4.57745 -0.529739 0
M  V30 3232 H 295.555 -4.11522 -0.635496 0
M  V30 3233 H 298.152 -4.11289 -3.41681 0
M  V30 3234 H 298.495 -2.40045 -3.40123 0
M  V30 3235 H 299.028 -3.41561 -2.03914 0
M  V30 3236 H 295.767 -6.37143 -1.54041 0
M  V30 3237 H 295.287 -5.27459 -2.85565 0
M  V30 3238 H 296.966 -5.85865 -2.74538 0
M  V30 3239 N 297.098 0.621204 -1.44841 0
M  V30 3240 C 298.028 1.74366 -1.55303 0
M  V30 3241 C 299.009 1.65199 -0.405385 0
M  V30 3242 O 300.194 1.83807 -0.626787 0
M  V30 3243 C 297.324 3.12931 -1.50637 0
M  V30 3244 C 296.278 3.36896 -2.63979 0
M  V30 3245 C 295.604 4.75594 -2.44366 0
M  V30 3246 C 296.904 3.28483 -4.06074 0
M  V30 3247 H 298.598 1.65867 -2.49256 0
M  V30 3248 H 296.144 0.796558 -1.19962 0
M  V30 3249 H 298.097 3.9124 -1.56555 0
M  V30 3250 H 296.821 3.22237 -0.532057 0
M  V30 3251 H 295.48 2.60972 -2.57467 0
M  V30 3252 H 295.128 4.81616 -1.45105 0
M  V30 3253 H 294.828 4.92586 -3.20364 0
M  V30 3254 H 296.352 5.5612 -2.52117 0
M  V30 3255 H 297.766 3.96684 -4.13902 0
M  V30 3256 H 296.163 3.57008 -4.82354 0
M  V30 3257 H 297.233 2.26133 -4.28943 0
M  V30 3258 N 298.576 1.31904 0.862503 0
M  V30 3259 C 299.486 1.22161 2.00285 0
M  V30 3260 C 300.502 0.136785 1.73462 0
M  V30 3261 O 301.678 0.355994 1.98229 0
M  V30 3262 C 298.743 0.937093 3.33796 0
M  V30 3263 C 297.804 2.10957 3.73893 0
M  V30 3264 C 297.037 1.83853 5.01033 0
M  V30 3265 O 297.26 0.777274 5.65079 0
M  V30 3266 O 296.194 2.69741 5.38074 0
M  V30 3267 H 300.02 2.18008 2.11439 0
M  V30 3268 H 297.605 1.11716 0.991957 0
M  V30 3269 H 299.487 0.794583 4.13841 0
M  V30 3270 H 298.162 0.00871894 3.23699 0
M  V30 3271 H 297.069 2.30752 2.94456 0
M  V30 3272 H 298.402 3.02046 3.88625 0
M  V30 3273 N 300.054 -1.07777 1.14986 0
M  V30 3274 C 301.303 -1.79669 0.916617 0
M  V30 3275 C 301.616 -1.87474 -0.557917 0
M  V30 3276 O 302.822 -2.55845 -0.908617 0
M  V30 3277 C 301.278 -3.22848 1.59051 0
M  V30 3278 C 300.886 -3.23257 3.10176 0
M  V30 3279 C 302.63 -3.99379 1.43864 0
M  V30 3280 C 300.537 -4.61063 3.70372 0
M  V30 3281 H 299.467 -0.673349 0.33929 0
M  V30 3282 H 302.118 -1.21003 1.37951 0
M  V30 3283 H 300.5 -3.8168 1.0553 0
M  V30 3284 H 301.674 -2.74095 3.70417 0
M  V30 3285 H 299.989 -2.60222 3.25074 0
M  V30 3286 H 302.586 -5.0122 1.86232 0
M  V30 3287 H 302.929 -4.14511 0.385564 0
M  V30 3288 H 303.462 -3.47032 1.94457 0
M  V30 3289 H 300.201 -4.51135 4.7556 0
M  V30 3290 H 299.721 -5.1048 3.14913 0
M  V30 3291 H 301.4 -5.30034 3.71043 0
M  V30 3292 N 301.532 -0.945985 -1.26051 0
M  V30 3293 C 302.495 -0.463897 -2.24456 0
M  V30 3294 C 303.495 0.427655 -1.55009 0
M  V30 3295 O 304.685 0.226157 -1.72726 0
M  V30 3296 C 301.817 0.330812 -3.39291 0
M  V30 3297 H 303.01 -1.33357 -2.68619 0
M  V30 3298 H 300.563 -0.728416 -1.38289 0
M  V30 3299 H 301.298 1.21852 -3.00537 0
M  V30 3300 H 301.083 -0.308679 -3.90883 0
M  V30 3301 H 302.573 0.657865 -4.12386 0
M  V30 3302 N 303.011 1.40521 -0.713556 0
M  V30 3303 C 304.257 2.01221 -0.252564 0
M  V30 3304 C 304.59 1.56444 1.1506 0
M  V30 3305 O 303.865 0.783597 1.78017 0
M  V30 3306 C 304.148 3.58582 -0.330332 0
M  V30 3307 C 304.001 4.13437 -1.77173 0
M  V30 3308 C 305.32 4.39079 0.299641 0
M  V30 3309 H 302.439 0.731077 -0.0932471 0
M  V30 3310 H 305.081 1.67026 -0.905673 0
M  V30 3311 H 303.231 3.87844 0.225737 0
M  V30 3312 H 304.903 3.9498 -2.38303 0
M  V30 3313 H 303.146 3.67801 -2.3001 0
M  V30 3314 H 303.817 5.22597 -1.77755 0
M  V30 3315 H 306.293 4.15735 -0.174139 0
M  V30 3316 H 305.169 5.4848 0.214771 0
M  V30 3317 H 305.43 4.19915 1.38288 0
M  V30 3318 N 304.489 0.459591 1.5075 0
M  V30 3319 C 305.452 -0.329093 2.26825 0
M  V30 3320 C 306.452 -0.930481 1.31144 0
M  V30 3321 O 307.642 -0.801453 1.54669 0
M  V30 3322 C 304.774 -1.46768 3.07688 0
M  V30 3323 H 305.967 0.337924 2.9799 0
M  V30 3324 H 303.52 0.213336 1.54837 0
M  V30 3325 H 304.255 -2.17009 2.40993 0
M  V30 3326 H 304.04 -1.04238 3.77991 0
M  V30 3327 H 305.53 -2.02433 3.65254 0
M  V30 3328 N 305.967 -1.56429 0.191757 0
M  V30 3329 C 306.897 -2.21937 -0.725696 0
M  V30 3330 C 307.878 -1.1814 -1.2238 0
M  V30 3331 O 309.063 -1.46636 -1.27325 0
M  V30 3332 C 306.193 -2.87611 -1.94672 0
M  V30 3333 C 305.147 -3.97623 -1.58366 0
M  V30 3334 C 304.473 -4.50446 -2.88102 0
M  V30 3335 C 305.773 -5.16197 -0.796133 0
M  V30 3336 H 307.467 -2.98861 -0.179606 0
M  V30 3337 H 305.013 -1.43749 -0.0849464 0
M  V30 3338 H 306.966 -3.3212 -2.59373 0
M  V30 3339 H 305.69 -2.08087 -2.51728 0
M  V30 3340 H 304.349 -3.53801 -0.960247 0
M  V30 3341 H 303.997 -3.67688 -3.43241 0
M  V30 3342 H 303.697 -5.24675 -2.64556 0
M  V30 3343 H 305.221 -4.97654 -3.53798 0
M  V30 3344 H 306.635 -5.57271 -1.34618 0
M  V30 3345 H 305.032 -5.96471 -0.658928 0
M  V30 3346 H 306.102 -4.84473 0.203478 0
M  V30 3347 N 307.445 0.0818655 -1.57387 0
M  V30 3348 C 308.694 0.781681 -1.85937 0
M  V30 3349 C 309.007 1.79246 -0.782957 0
M  V30 3350 O 310.213 2.54112 -0.955987 0
M  V30 3351 C 308.669 1.44109 -3.29789 0
M  V30 3352 C 308.277 0.469396 -4.45534 0
M  V30 3353 C 310.021 2.12386 -3.67549 0
M  V30 3354 C 307.928 1.13415 -5.80423 0
M  V30 3355 H 306.858 0.295682 -0.693605 0
M  V30 3356 H 309.509 0.0348051 -1.83467 0
M  V30 3357 H 307.891 2.23588 -3.2684 0
M  V30 3358 H 309.065 -0.294856 -4.59856 0
M  V30 3359 H 307.38 -0.108383 -4.16259 0
M  V30 3360 H 309.977 2.62878 -4.65617 0
M  V30 3361 H 310.32 2.91877 -2.96839 0
M  V30 3362 H 310.853 1.39751 -3.72444 0
M  V30 3363 H 307.592 0.379771 -6.54399 0
M  V30 3364 H 307.112 1.8695 -5.69921 0
M  V30 3365 H 308.791 1.65686 -6.25426 0
M  V30 3366 N 308.923 1.53595 0.353017 0
M  V30 3367 C 309.855 1.77219 1.45348 0
M  V30 3368 C 310.868 0.65324 1.49119 0
M  V30 3369 O 312.057 0.929775 1.52373 0
M  V30 3370 C 309.157 1.84841 2.84055 0
M  V30 3371 C 308.33 3.14649 3.03833 0
M  V30 3372 C 307.389 3.13351 4.22727 0
M  V30 3373 O 306.415 3.87107 4.17297 0
M  V30 3374 N 307.617 2.35052 5.30783 0
M  V30 3375 H 310.382 2.72178 1.25457 0
M  V30 3376 H 307.943 1.52528 0.542833 0
M  V30 3377 H 309.935 1.81435 3.61751 0
M  V30 3378 H 308.505 0.971114 2.97133 0
M  V30 3379 H 307.725 3.31256 2.13689 0
M  V30 3380 H 309.013 4.00411 3.13925 0
M  V30 3381 H 308.411 1.74663 5.38061 0
M  V30 3382 H 306.968 2.37453 6.07009 0
M  V30 3383 N 310.401 -0.613514 1.45168 0
M  V30 3384 C 311.364 -1.7065 1.53007 0
M  V30 3385 C 312.364 -1.5548 0.410184 0
M  V30 3386 O 313.554 -1.60656 0.673455 0
M  V30 3387 C 310.686 -3.09875 1.42093 0
M  V30 3388 H 311.879 -1.65068 2.50385 0
M  V30 3389 H 309.432 -0.828728 1.32521 0
M  V30 3390 H 310.167 -3.21039 0.458769 0
M  V30 3391 H 309.952 -3.22293 2.23315 0
M  V30 3392 H 311.442 -3.895 1.50598 0
M  V30 3393 N 311.879 -1.3236 -0.855495 0
M  V30 3394 C 313.109 -1.25688 -1.6397 0
M  V30 3395 C 313.517 0.177592 -1.88365 0
M  V30 3396 O 312.86 1.12485 -1.45234 0
M  V30 3397 C 312.922 -1.94602 -3.02275 0
M  V30 3398 C 312.586 -3.43937 -3.00926 0
M  V30 3399 C 313.583 -4.39435 -2.77835 0
M  V30 3400 C 311.268 -3.85858 -3.21588 0
M  V30 3401 C 313.262 -5.74829 -2.75409 0
M  V30 3402 C 310.949 -5.21361 -3.18789 0
M  V30 3403 C 311.947 -6.15658 -2.95727 0
M  V30 3404 O 311.635 -7.48681 -2.928 0
M  V30 3405 H 311.367 -0.434972 -0.51747 0
M  V30 3406 H 313.921 -1.75023 -1.075 0
M  V30 3407 H 312.151 -1.39836 -3.60531 0
M  V30 3408 H 313.84 -1.81651 -3.62985 0
M  V30 3409 H 314.606 -4.08374 -2.6164 0
M  V30 3410 H 310.485 -3.12883 -3.38564 0
M  V30 3411 H 314.029 -6.48404 -2.57328 0
M  V30 3412 H 309.926 -5.52052 -3.34528 0
M  V30 3413 H 310.694 -7.5803 -3.0876 0
M  V30 3414 N 313.357 1.07166 -1.15556 0
M  V30 3415 C 314.603 1.80065 -0.932984 0
M  V30 3416 C 314.936 1.86586 0.53845 0
M  V30 3417 O 314.211 1.35098 1.39924 0
M  V30 3418 C 314.494 3.25022 -1.55025 0
M  V30 3419 C 314.347 3.26634 -3.09242 0
M  V30 3420 C 315.666 4.22341 -1.2376 0
M  V30 3421 H 312.785 0.653697 -0.340366 0
M  V30 3422 H 315.427 1.25389 -1.4275 0
M  V30 3423 H 313.577 3.71712 -1.12972 0
M  V30 3424 H 315.249 2.88173 -3.60214 0
M  V30 3425 H 313.492 2.65539 -3.43033 0
M  V30 3426 H 314.163 4.28854 -3.47546 0
M  V30 3427 H 316.639 3.8405 -1.60139 0
M  V30 3428 H 315.515 5.22053 -1.69564 0
M  V30 3429 H 315.776 4.41828 -0.154938 0
M  V30 3430 N 314.835 0.952656 1.25548 0
M  V30 3431 C 316.082 0.606373 1.93208 0
M  V30 3432 C 316.41 -0.85631 1.74636 0
M  V30 3433 O 315.665 -1.62951 1.08376 0
M  V30 3434 C 315.964 0.908818 3.45652 0
M  V30 3435 C 315.63 2.35722 3.84378 0
M  V30 3436 C 314.292 2.75312 3.9466 0
M  V30 3437 C 316.644 3.29793 4.03591 0
M  V30 3438 C 313.972 4.08047 4.21562 0
M  V30 3439 C 316.324 4.62138 4.31985 0
M  V30 3440 C 314.988 5.01528 4.40484 0
M  V30 3441 H 314.258 0.221888 0.706998 0
M  V30 3442 H 316.905 1.20132 1.49133 0
M  V30 3443 H 315.21 0.231456 3.91116 0
M  V30 3444 H 316.907 0.619498 3.96186 0
M  V30 3445 H 313.497 2.04017 3.76928 0
M  V30 3446 H 317.681 3.00397 3.95064 0
M  V30 3447 H 312.937 4.38212 4.26357 0
M  V30 3448 H 317.111 5.35012 4.45797 0
M  V30 3449 H 314.738 6.04406 4.61083 0
M  V30 3450 N 316.313 -1.40141 0.720998 0
M  V30 3451 C 317.541 -2.05096 0.272656 0
M  V30 3452 C 317.956 -1.54334 -1.0875 0
M  V30 3453 O 317.313 -0.702211 -1.6845 0
M  V30 3454 C 317.364 -3.60636 0.249835 0
M  V30 3455 O 317.085 -4.09526 1.55629 0
M  V30 3456 C 318.586 -4.42772 -0.216396 0
M  V30 3457 H 315.806 -0.659897 0.121558 0
M  V30 3458 H 318.35 -1.79449 0.980723 0
M  V30 3459 H 316.505 -3.85232 -0.409237 0
M  V30 3460 H 316.919 -5.03758 1.4604 0
M  V30 3461 H 318.393 -5.51702 -0.181212 0
M  V30 3462 H 318.87 -4.20756 -1.25941 0
M  V30 3463 H 319.476 -4.23294 0.412596 0
M  V30 3464 N 317.792 -0.46758 -1.50504 0
M  V30 3465 C 318.722 0.318381 -2.31319 0
M  V30 3466 C 319.703 0.993564 -1.38066 0
M  V30 3467 O 320.888 0.991411 -1.66987 0
M  V30 3468 C 318.018 1.40275 -3.17711 0
M  V30 3469 C 316.972 0.849373 -4.19487 0
M  V30 3470 C 316.298 2.03177 -4.94594 0
M  V30 3471 C 317.598 -0.136942 -5.2212 0
M  V30 3472 H 319.292 -0.356106 -2.97275 0
M  V30 3473 H 316.838 -0.172703 -1.42961 0
M  V30 3474 H 318.791 1.96004 -3.73042 0
M  V30 3475 H 317.515 2.10596 -2.49634 0
M  V30 3476 H 316.174 0.314076 -3.65252 0
M  V30 3477 H 315.822 2.72187 -4.22993 0
M  V30 3478 H 315.522 1.66774 -5.63436 0
M  V30 3479 H 317.046 2.59403 -5.52759 0
M  V30 3480 H 318.46 0.331056 -5.72343 0
M  V30 3481 H 316.857 -0.41507 -5.98663 0
M  V30 3482 H 317.927 -1.06398 -4.73083 0
M  V30 3483 N 319.27 1.56325 -0.20005 0
M  V30 3484 C 320.2 2.22318 0.713916 0
M  V30 3485 C 321.181 1.18788 1.21752 0
M  V30 3486 O 322.366 1.47309 1.26545 0
M  V30 3487 C 319.496 2.88639 1.93144 0
M  V30 3488 C 318.45 3.98457 1.56255 0
M  V30 3489 C 317.776 4.51967 2.85709 0
M  V30 3490 C 319.076 5.16612 0.768747 0
M  V30 3491 H 320.77 2.98952 0.163755 0
M  V30 3492 H 318.316 1.43792 0.0773219 0
M  V30 3493 H 320.269 3.33491 2.57608 0
M  V30 3494 H 318.993 2.09419 2.50621 0
M  V30 3495 H 317.652 3.54305 0.941471 0
M  V30 3496 H 317.3 3.69503 3.41287 0
M  V30 3497 H 317 5.26071 2.6177 0
M  V30 3498 H 318.524 4.99523 3.51154 0
M  V30 3499 H 319.938 5.57977 1.3166 0
M  V30 3500 H 318.335 5.96812 0.627286 0
M  V30 3501 H 319.405 4.84358 -0.229168 0
M  V30 3502 N 320.748 -0.0735177 1.57428 0
M  V30 3503 C 321.994 -0.774145 1.87443 0
M  V30 3504 C 322.327 -1.77311 0.792103 0
M  V30 3505 O 321.602 -1.93492 -0.197793 0
M  V30 3506 C 321.885 -1.48367 3.28115 0
M  V30 3507 C 321.738 -0.501227 4.46999 0
M  V30 3508 C 323.057 -2.429 3.66998 0
M  V30 3509 H 320.176 -0.279971 0.681752 0
M  V30 3510 H 322.818 -0.0373616 1.89963 0
M  V30 3511 H 320.968 -2.11171 3.26097 0
M  V30 3512 H 322.64 0.121468 4.6114 0
M  V30 3513 H 320.883 0.183593 4.33411 0
M  V30 3514 H 321.554 -1.03526 5.42205 0
M  V30 3515 H 324.03 -1.90175 3.70098 0
M  V30 3516 H 322.906 -2.89549 4.66318 0
M  V30 3517 H 323.167 -3.27628 2.96837 0
M  V30 3518 N 322.226 -1.5378 -0.344866 0
M  V30 3519 C 323.451 -1.75211 -1.10977 0
M  V30 3520 C 323.876 -0.48936 -1.81623 0
M  V30 3521 O 323.234 0.557925 -1.72502 0
M  V30 3522 C 323.282 -2.93147 -2.09993 0
M  V30 3523 O 322.386 -2.63203 -3.17487 0
M  V30 3524 H 321.727 -0.581241 -0.321021 0
M  V30 3525 H 324.257 -2.00738 -0.395661 0
M  V30 3526 H 324.267 -3.19898 -2.53237 0
M  V30 3527 H 322.942 -3.84731 -1.5797 0
M  V30 3528 H 321.519 -2.47336 -2.79069 0
M  V30 3529 N 323.704 0.605807 -1.45491 0
M  V30 3530 C 324.634 1.72709 -1.57143 0
M  V30 3531 C 325.615 1.6476 -0.422884 0
M  V30 3532 O 326.8 1.83132 -0.646247 0
M  V30 3533 C 323.93 3.11316 -1.53948 0
M  V30 3534 C 322.884 3.34077 -2.67537 0
M  V30 3535 C 322.21 4.72975 -2.49397 0
M  V30 3536 C 323.51 3.24158 -4.09535 0
M  V30 3537 H 325.204 1.63214 -2.51001 0
M  V30 3538 H 322.75 0.78379 -1.208 0
M  V30 3539 H 324.703 3.89557 -1.60696 0
M  V30 3540 H 323.427 3.21655 -0.566205 0
M  V30 3541 H 322.086 2.58227 -2.6022 0
M  V30 3542 H 321.734 4.8005 -1.50205 0
M  V30 3543 H 321.434 4.8916 -3.25571 0
M  V30 3544 H 322.958 5.53414 -2.58002 0
M  V30 3545 H 324.372 3.92271 -4.18086 0
M  V30 3546 H 322.769 3.51872 -4.86113 0
M  V30 3547 H 323.839 2.2157 -4.31317 0
M  V30 3548 N 325.182 1.32811 0.848464 0
M  V30 3549 C 326.412 1.26556 1.63301 0
M  V30 3550 C 326.82 -0.1676 1.88456 0
M  V30 3551 O 326.163 -1.11713 1.45828 0
M  V30 3552 C 326.225 1.96202 3.01239 0
M  V30 3553 C 325.889 3.45528 2.99098 0
M  V30 3554 C 326.886 4.40903 2.75501 0
M  V30 3555 C 324.571 3.87558 3.19537 0
M  V30 3556 C 326.565 5.76282 2.72356 0
M  V30 3557 C 324.252 5.23044 3.16019 0
M  V30 3558 C 325.25 6.17217 2.92458 0
M  V30 3559 O 324.938 7.50223 2.88825 0
M  V30 3560 H 324.67 0.43771 0.515156 0
M  V30 3561 H 327.224 1.7559 1.0657 0
M  V30 3562 H 325.454 1.41746 3.59785 0
M  V30 3563 H 327.143 1.83573 3.62016 0
M  V30 3564 H 327.909 4.09756 2.5947 0
M  V30 3565 H 323.788 3.14674 3.369 0
M  V30 3566 H 327.332 6.4976 2.53886 0
M  V30 3567 H 323.229 5.53818 3.31596 0
M  V30 3568 H 323.997 7.59657 3.04735 0
M  V30 3569 N 326.66 -1.06551 1.16123 0
M  V30 3570 C 327.59 -2.15935 0.88851 0
M  V30 3571 C 328.571 -1.69306 -0.164135 0
M  V30 3572 O 329.756 -1.94193 -0.0167857 0
M  V30 3573 C 326.886 -3.45149 0.385942 0
M  V30 3574 C 325.84 -4.05271 1.3762 0
M  V30 3575 C 325.166 -5.29664 0.732137 0
M  V30 3576 C 326.466 -4.44355 2.74493 0
M  V30 3577 H 328.16 -2.39006 1.80323 0
M  V30 3578 H 325.706 -1.14866 0.868435 0
M  V30 3579 H 327.659 -4.21004 0.182647 0
M  V30 3580 H 326.383 -3.21689 -0.564274 0
M  V30 3581 H 325.042 -3.3147 1.56599 0
M  V30 3582 H 324.69 -5.02499 -0.224483 0
M  V30 3583 H 324.39 -5.70848 1.39307 0
M  V30 3584 H 325.914 -6.08218 0.538802 0
M  V30 3585 H 327.328 -5.11303 2.59311 0
M  V30 3586 H 325.725 -4.96515 3.37035 0
M  V30 3587 H 326.795 -3.55339 3.29943 0
M  V30 3588 N 328.138 -0.959301 -1.25041 0
M  V30 3589 C 329.088 -0.453888 -2.23436 0
M  V30 3590 C 330.072 0.459461 -1.542 0
M  V30 3591 O 331.264 0.291752 -1.74579 0
M  V30 3592 C 328.393 0.262667 -3.42294 0
M  V30 3593 C 327.479 -0.669022 -4.1879 0
M  V30 3594 N 327.87 -1.80267 -4.72586 0
M  V30 3595 C 326.168 -0.47814 -4.4343 0
M  V30 3596 C 326.869 -2.38475 -5.3057 0
M  V30 3597 N 325.845 -1.67078 -5.17287 0
M  V30 3598 H 329.647 -1.319 -2.6264 0
M  V30 3599 H 327.161 -0.817358 -1.40332 0
M  V30 3600 H 329.158 0.641911 -4.11929 0
M  V30 3601 H 327.818 1.12432 -3.04613 0
M  V30 3602 H 328.829 -2.18442 -4.69578 0
M  V30 3603 H 325.506 0.340249 -4.16111 0
M  V30 3604 H 326.896 -3.34094 -5.8295 0
M  V30 3605 N 329.616 1.39756 -0.72842 0
M  V30 3606 C 330.893 1.94574 -0.200079 0
M  V30 3607 C 331.273 1.66569 1.29684 0
M  V30 3608 O 330.621 0.990326 2.05924 0
M  V30 3609 C 330.831 3.45004 -0.526608 0
M  V30 3610 C 332.179 4.21965 -0.472318 0
M  V30 3611 O 333.203 3.53173 -0.463413 0
M  V30 3612 O 332.062 5.44552 -0.461075 0
M  V30 3613 H 329.156 0.826289 -0.0342851 0
M  V30 3614 H 331.702 1.49293 -0.806829 0
M  V30 3615 H 330.474 3.58796 -1.56144 0
M  V30 3616 H 330.097 3.97449 0.109449 0
M  V30 3617 N 331.094 0.475555 1.50254 0
M  V30 3618 C 332.042 -0.330276 2.30243 0
M  V30 3619 C 333.036 -0.986306 1.37726 0
M  V30 3620 O 334.242 -0.9169 1.54897 0
M  V30 3621 H 330.617 -0.125353 0.741479 0
M  V30 3622 H 332.588 0.364702 2.96163 0
M  V30 3623 C 331.337 -1.39704 3.18399 0
M  V30 3624 H 330.66 -0.901621 3.89501 0
M  V30 3625 H 332.1 -1.93336 3.77355 0
M  V30 3626 C 330.559 -2.4014 2.36293 0
M  V30 3627 O 331.089 -3.45504 2.04914 0
M  V30 3628 N 329.295 -2.1197 1.98789 0
M  V30 3629 H 328.842 -1.2631 2.24507 0
M  V30 3630 H 328.8 -2.79403 1.44157 0
M  V30 3631 N 332.573 -1.56217 0.208337 0
M  V30 3632 C 333.801 -2.02337 -0.43215 0
M  V30 3633 C 334.216 -1.08834 -1.54275 0
M  V30 3634 O 333.573 -0.0955462 -1.8225 0
M  V30 3635 C 333.624 -3.48072 -0.976138 0
M  V30 3636 O 333.345 -4.38007 0.0901621 0
M  V30 3637 C 334.846 -4.09773 -1.69119 0
M  V30 3638 H 332.066 -0.662385 -0.10718 0
M  V30 3639 H 334.61 -2.01966 0.320923 0
M  V30 3640 H 332.765 -3.49099 -1.67954 0
M  V30 3641 H 333.179 -5.23543 -0.316701 0
M  V30 3642 H 334.653 -5.13556 -2.02397 0
M  V30 3643 H 335.13 -3.53999 -2.59964 0
M  V30 3644 H 335.736 -4.12556 -1.03332 0
M  V30 3645 O 334.09 -0.071647 -1.61341 0
M  V30 3646 H 334.781 0.534597 -1.86177 0
M  V30 END ATOM
M  V30 BEGIN BOND
M  V30 END BOND
M  V30 END CTAB
M  END
$$$$
