drugbank_target|Q9UL54 Serine/threonine-protein kinase TAO2 (DB04522; DB12010)
 OpenBabel12092120563D

  0  0  0     0  0            999 V3000
M  V30 BEGIN CTAB
M  V30 COUNTS 19473 19684 0 0 0
M  V30 BEGIN ATOM
M  V30 1 H -0.908 1.98254 -0.117106 0
M  V30 2 N 0 1.576 0 0
M  V30 3 C 0.933 2.03868 1.02534 0
M  V30 4 C 1.911 0.928543 1.3348 0
M  V30 5 O 3.095 1.19667 1.45644 0
M  V30 6 C 0.222 2.43627 2.35294 0
M  V30 7 C -0.732 3.65373 2.2001 0
M  V30 8 S 0.101 5.13292 1.52614 0
M  V30 9 C 1.257 5.56322 2.86805 0
M  V30 10 H 1.49 2.90518 0.631377 0
M  V30 11 H -0.977 1.52953 0.210867 0
M  V30 12 H 0.981 2.67203 3.11629 0
M  V30 13 H -0.358 1.57376 2.7183 0
M  V30 14 H -1.165 3.90944 3.18086 0
M  V30 15 H -1.563 3.418 1.51819 0
M  V30 16 H 0.729 5.58782 3.83104 0
M  V30 17 H 1.672 6.56266 2.65933 0
M  V30 18 H 2.08 4.83886 2.90714 0
M  V30 19 N 1.4781 -0.272755 1.55222 0
M  V30 20 C 2.8891 -0.84378 1.66545 0
M  V30 21 C 3.2401 -1.87035 0.592641 0
M  V30 22 O 2.3651 -2.14761 -0.265818 0
M  V30 23 C 2.9601 -1.53723 3.01918 0
M  V30 24 C 1.5191 -2.05628 3.15268 0
M  V30 25 C 0.6661 -0.898424 2.62343 0
M  V30 26 H 3.6171 -0.0490998 1.58624 0
M  V30 27 H 3.6381 -2.40421 2.94921 0
M  V30 28 H 3.1501 -0.78983 3.79978 0
M  V30 29 H 1.2511 -2.83329 2.41983 0
M  V30 30 H 1.3641 -2.27142 4.21833 0
M  V30 31 H -0.2719 -1.29186 2.19506 0
M  V30 32 H 0.5111 -0.164528 3.42906 0
M  V30 33 N 2.9562 -1.48159 -0.537278 0
M  V30 34 C 3.9192 -1.61665 -1.62472 0
M  V30 35 C 4.9192 -0.490395 -1.5314 0
M  V30 36 O 6.1092 -0.755998 -1.5694 0
M  V30 37 C 3.2412 -1.57997 -3.02076 0
M  V30 38 H 4.4342 -2.58621 -1.51839 0
M  V30 39 H 1.9872 -1.36647 -0.758771 0
M  V30 40 H 2.7222 -0.624913 -3.18222 0
M  V30 41 H 2.5072 -2.39755 -3.10258 0
M  V30 42 H 3.9972 -1.70627 -3.81151 0
M  V30 43 N 4.4343 0.785586 -1.36625 0
M  V30 44 C 5.6823 1.54057 -1.30808 0
M  V30 45 C 6.0033 1.94683 0.111157 0
M  V30 46 O 5.2733 1.65241 1.05224 0
M  V30 47 H 3.8533 0.571354 -0.481211 0
M  V30 48 H 6.5153 0.935821 -1.70963 0
M  V30 49 H 5.6113 2.44637 -1.93801 0
M  V30 50 N 5.9124 1.20967 1.01018 0
M  V30 51 C 7.1604 1.02172 1.74371 0
M  V30 52 C 7.4814 -0.446414 1.89821 0
M  V30 53 O 6.7514 -1.32234 1.44537 0
M  V30 54 H 5.3314 0.375066 0.646014 0
M  V30 55 H 7.9934 1.52187 1.21758 0
M  V30 56 H 7.0894 1.48538 2.74487 0
M  V30 57 N 7.3905 -1.2043 1.01659 0
M  V30 58 C 8.8065 -1.41852 0.731442 0
M  V30 59 C 9.0065 -1.89358 -0.688898 0
M  V30 60 O 8.0625 -2.06247 -1.45666 0
M  V30 61 C 9.3755 -2.44019 1.75714 0
M  V30 62 C 10.9235 -2.57785 1.77527 0
M  V30 63 C 11.3985 -3.63194 2.79023 0
M  V30 64 N 12.8895 -3.70678 2.77763 0
M  V30 65 C 13.6245 -4.51897 3.52954 0
M  V30 66 N 13.1205 -5.36921 4.37821 0
M  V30 67 N 14.9135 -4.4643 3.41551 0
M  V30 68 H 7.0645 -0.879093 1.93354 0
M  V30 69 H 9.3275 -0.448425 0.835236 0
M  V30 70 H 9.0335 -2.1611 2.77469 0
M  V30 71 H 8.9075 -3.43007 1.56927 0
M  V30 72 H 11.2945 -2.85023 0.764569 0
M  V30 73 H 11.3755 -1.58992 2.00387 0
M  V30 74 H 11.0195 -3.36699 3.80258 0
M  V30 75 H 10.9495 -4.61609 2.53425 0
M  V30 76 H 13.4405 -3.09944 2.16201 0
M  V30 77 H 13.7535 -5.95981 4.91962 0
M  V30 78 H 12.0985 -5.36424 4.41899 0
M  V30 79 H 15.2895 -3.79042 2.74672 0
M  V30 80 H 15.4625 -5.09491 4.00404 0
M  V30 81 N 8.8686 -0.792821 -1.36206 0
M  V30 82 C 9.8316 -0.199459 -2.2833 0
M  V30 83 C 10.8316 0.605189 -1.48977 0
M  V30 84 O 12.0216 0.425685 -1.68919 0
M  V30 85 C 9.1536 0.723523 -3.33134 0
M  V30 86 H 10.3466 -1.01181 -2.82316 0
M  V30 87 H 7.8996 -0.562485 -1.45828 0
M  V30 88 H 8.6346 1.56008 -2.84309 0
M  V30 89 H 8.4196 0.148436 -3.91819 0
M  V30 90 H 9.9096 1.13344 -4.01924 0
M  V30 91 N 10.3467 1.47872 -0.545128 0
M  V30 92 C 11.5947 2.02093 -0.016553 0
M  V30 93 C 11.9157 1.42305 1.3332 0
M  V30 94 O 11.1857 0.593853 1.86682 0
M  V30 95 H 9.7657 0.746993 -0.00313038 0
M  V30 96 H 12.4277 1.81414 -0.712397 0
M  V30 97 H 11.5237 3.11996 0.0805422 0
M  V30 98 N 11.8248 0.280983 1.55075 0
M  V30 99 C 13.0498 -0.340154 2.04592 0
M  V30 100 C 13.4748 -1.48246 1.15779 0
M  V30 101 O 12.8328 -1.80614 0.15761 0
M  V30 102 C 12.8808 -0.793104 3.5177 0
M  V30 103 O 11.9848 -1.89981 3.66034 0
M  V30 104 H 11.3258 -0.0694289 0.66036 0
M  V30 105 H 13.8558 0.416993 2.00306 0
M  V30 106 H 13.8658 -1.08729 3.93245 0
M  V30 107 H 12.5408 0.0426163 4.15878 0
M  V30 108 H 11.1178 -1.60771 3.36463 0
M  V30 109 N 13.3029 -1.57598 0.00835791 0
M  V30 110 C 14.2329 -2.1198 -0.979113 0
M  V30 111 C 15.2139 -1.03091 -1.35301 0
M  V30 112 O 16.3989 -1.30818 -1.43528 0
M  V30 113 C 13.5289 -2.62995 -2.26828 0
M  V30 114 C 12.4829 -3.76485 -2.03576 0
M  V30 115 C 11.8089 -4.13846 -3.38579 0
M  V30 116 C 13.1089 -5.0342 -1.39161 0
M  V30 117 H 14.8029 -2.94738 -0.526281 0
M  V30 118 H 12.3489 -1.41783 -0.251704 0
M  V30 119 H 14.3019 -2.99669 -2.96271 0
M  V30 120 H 13.0259 -1.7737 -2.7424 0
M  V30 121 H 11.6849 -3.40217 -1.36557 0
M  V30 122 H 11.3329 -3.25232 -3.83709 0
M  V30 123 H 11.0329 -4.90312 -3.23834 0
M  V30 124 H 12.5569 -4.53086 -4.09323 0
M  V30 125 H 13.9709 -5.37812 -1.98573 0
M  V30 126 H 12.3679 -5.84746 -1.34878 0
M  V30 127 H 13.4379 -4.83548 -0.361868 0
M  V30 128 N 14.781 0.264519 -1.55364 0
M  V30 129 C 15.728 1.32717 -1.88825 0
M  V30 130 C 16.698 1.48675 -0.740605 0
M  V30 131 O 17.883 1.62945 -0.992657 0
M  V30 132 C 15.023 2.68089 -2.17307 0
M  V30 133 C 14.136 2.60284 -3.44785 0
M  V30 134 C 13.271 3.87892 -3.62924 0
M  V30 135 C 12.31 3.74631 -4.84064 0
M  V30 136 N 11.447 4.94092 -4.98816 0
M  V30 137 H 16.287 1.03481 -2.79456 0
M  V30 138 H 13.824 0.499757 -1.3835 0
M  V30 139 H 15.782 3.46864 -2.31821 0
M  V30 140 H 14.412 2.95509 -1.299 0
M  V30 141 H 13.464 1.73173 -3.38697 0
M  V30 142 H 14.776 2.46388 -4.33698 0
M  V30 143 H 13.93 4.75109 -3.77302 0
M  V30 144 H 12.669 4.04664 -2.7221 0
M  V30 145 H 11.674 2.85797 -4.69681 0
M  V30 146 H 12.899 3.5937 -5.76221 0
M  V30 147 H 10.845 5.11259 -4.11036 0
M  V30 148 H 10.762 4.8276 -5.81789 0
M  V30 149 H 12.03 5.82857 -5.17588 0
M  V30 150 N 16.2591 1.48442 0.529413 0
M  V30 151 C 17.5361 1.46978 1.29062 0
M  V30 152 C 17.9161 0.181769 2.10316 0
M  V30 153 O 17.2641 -0.836481 2.12639 0
M  V30 154 C 17.4741 2.7321 2.17157 0
M  V30 155 C 18.8221 3.21562 2.77278 0
M  V30 156 O 19.8461 2.74131 2.27444 0
M  V30 157 O 18.7051 4.04094 3.67927 0
M  V30 158 H 15.7991 0.587003 0.582543 0
M  V30 159 H 18.3451 1.60676 0.546021 0
M  V30 160 H 17.1171 3.58465 1.56903 0
M  V30 161 H 16.7401 2.62235 2.98862 0
M  V30 162 N 17.7372 -0.778329 1.37039 0
M  V30 163 C 19.1482 -1.35421 1.28523 0
M  V30 164 C 19.4992 -1.96075 -0.0700901 0
M  V30 165 O 18.6242 -1.93352 -0.971801 0
M  V30 166 C 19.2192 -2.46211 2.32735 0
M  V30 167 C 17.7782 -2.99585 2.27873 0
M  V30 168 C 16.9252 -1.72748 2.16918 0
M  V30 169 H 19.8762 -0.5791 1.47757 0
M  V30 170 H 19.8972 -3.2552 1.9702 0
M  V30 171 H 19.4092 -2.02036 3.31365 0
M  V30 172 H 17.5102 -3.48152 1.32745 0
M  V30 173 H 17.6232 -3.55646 3.21018 0
M  V30 174 H 15.9872 -1.95416 1.63354 0
M  V30 175 H 16.7702 -1.30686 3.17452 0
M  V30 176 N 19.2153 -1.21501 -1.00376 0
M  V30 177 C 20.4923 -0.941745 -1.71437 0
M  V30 178 C 20.8723 0.546114 -2.03914 0
M  V30 179 O 20.2203 1.51128 -1.71384 0
M  V30 180 C 20.4303 -1.82812 -2.97289 0
M  V30 181 C 21.7783 -2.07771 -3.70292 0
M  V30 182 O 22.8023 -1.80171 -3.07273 0
M  V30 183 O 21.6613 -2.54456 -4.83647 0
M  V30 184 H 18.7553 -0.353243 -0.747762 0
M  V30 185 H 21.3013 -1.32436 -1.06108 0
M  V30 186 H 20.0733 -2.83501 -2.69709 0
M  V30 187 H 19.6963 -1.4464 -3.70358 0
M  V30 188 N 20.6934 1.19889 -1.02296 0
M  V30 189 C 21.9394 1.89701 -0.717033 0
M  V30 190 C 22.2724 1.7905 0.751989 0
M  V30 191 O 21.5474 1.17891 1.547 0
M  V30 192 C 21.8304 3.40858 -1.16136 0
M  V30 193 C 21.6834 3.60411 -2.69117 0
M  V30 194 C 23.0024 4.33876 -0.737549 0
M  V30 195 H 20.1214 0.688874 -0.261957 0
M  V30 196 H 22.7634 1.41154 -1.27183 0
M  V30 197 H 20.9134 3.82335 -0.689342 0
M  V30 198 H 22.5854 3.28145 -3.2422 0
M  V30 199 H 20.8284 3.03665 -3.0979 0
M  V30 200 H 21.4994 4.66396 -2.95261 0
M  V30 201 H 23.9754 4.00081 -1.14344 0
M  V30 202 H 22.8514 5.38242 -1.0764 0
M  V30 203 H 23.1124 4.40628 0.360436 0
M  V30 204 N 22.1715 0.800033 1.35784 0
M  V30 205 C 23.1345 0.211565 2.28221 0
M  V30 206 C 24.1345 -0.59728 1.49296 0
M  V30 207 O 25.3245 -0.416721 1.69142 0
M  V30 208 C 22.4565 -0.705846 3.33513 0
M  V30 209 H 23.6495 1.02677 2.81776 0
M  V30 210 H 21.2025 0.570211 1.45528 0
M  V30 211 H 21.9375 -1.54498 2.85133 0
M  V30 212 H 21.7225 -0.127655 3.91892 0
M  V30 213 H 23.2125 -1.11211 4.02519 0
M  V30 214 N 23.6496 -1.47581 0.552962 0
M  V30 215 C 24.5596 -2.33743 -0.200353 0
M  V30 216 C 25.5756 -1.47928 -0.916151 0
M  V30 217 O 26.7516 -1.80865 -0.885993 0
M  V30 218 C 23.8166 -3.24536 -1.21973 0
M  V30 219 C 22.8776 -4.26238 -0.511819 0
M  V30 220 C 22.1106 -5.12693 -1.48263 0
M  V30 221 O 22.3336 -5.01525 -2.71714 0
M  V30 222 O 21.2676 -5.93375 -1.00945 0
M  V30 223 H 25.0936 -2.9945 0.506304 0
M  V30 224 H 22.6786 -1.46071 0.313622 0
M  V30 225 H 24.5606 -3.80631 -1.80827 0
M  V30 226 H 23.2356 -2.61462 -1.90839 0
M  V30 227 H 22.1426 -3.73914 0.117799 0
M  V30 228 H 23.4756 -4.92014 0.135308 0
M  V30 229 N 25.1277 -0.289203 -1.54924 0
M  V30 230 C 26.0577 0.58549 -2.2604 0
M  V30 231 C 27.0387 1.14753 -1.25562 0
M  V30 232 O 28.2237 1.17906 -1.54311 0
M  V30 233 C 25.3537 1.76305 -2.99222 0
M  V30 234 C 24.3077 1.33191 -4.06748 0
M  V30 235 C 23.6337 2.5937 -4.6758 0
M  V30 236 C 24.9337 0.471775 -5.20165 0
M  V30 237 H 26.6277 -0.00763532 -2.99399 0
M  V30 238 H 24.1737 -0.00511229 -1.43999 0
M  V30 239 H 26.1267 2.38097 -3.47689 0
M  V30 240 H 24.8507 2.38223 -2.23422 0
M  V30 241 H 23.5097 0.737121 -3.59113 0
M  V30 242 H 23.1577 3.19576 -3.88433 0
M  V30 243 H 22.8577 2.31228 -5.40192 0
M  V30 244 H 24.3817 3.21985 -5.18804 0
M  V30 245 H 25.7957 0.995056 -5.64599 0
M  V30 246 H 24.1927 0.284639 -5.99425 0
M  V30 247 H 25.2627 -0.506041 -4.82252 0
M  V30 248 N 26.6058 1.57591 -0.0167156 0
M  V30 249 C 27.8528 1.91283 0.664597 0
M  V30 250 C 28.1808 0.891949 1.72842 0
M  V30 251 O 27.4358 -0.100931 1.9544 0
M  V30 252 C 27.7348 3.3172 1.33029 0
M  V30 253 C 27.4008 4.4914 0.398047 0
M  V30 254 C 26.0628 4.80992 0.141421 0
M  V30 255 C 28.4148 5.20634 -0.242825 0
M  V30 256 C 25.7428 5.81703 -0.764092 0
M  V30 257 C 28.0948 6.22311 -1.13632 0
M  V30 258 C 26.7588 6.52611 -1.40196 0
M  V30 259 H 26.0288 0.699956 0.243193 0
M  V30 260 H 28.6758 1.9135 -0.0758267 0
M  V30 261 H 26.9808 3.27856 2.14517 0
M  V30 262 H 28.6778 3.55055 1.86379 0
M  V30 263 H 25.2678 4.24262 0.608238 0
M  V30 264 H 29.4518 4.96267 -0.0576019 0
M  V30 265 H 24.7078 6.03532 -0.977732 0
M  V30 266 H 28.8818 6.76834 -1.63917 0
M  V30 267 H 26.5088 7.30467 -2.10529 0
M  V30 268 N 28.0839 -0.256276 1.55502 0
M  V30 269 C 29.3309 -0.985619 1.76895 0
M  V30 270 C 29.6589 -1.85671 0.579355 0
M  V30 271 O 28.9139 -1.90744 -0.437651 0
M  V30 272 C 29.2129 -1.88432 3.03691 0
M  V30 273 C 28.8789 -1.16936 4.35473 0
M  V30 274 C 27.5409 -0.97173 4.71286 0
M  V30 275 C 29.8929 -0.661889 5.1698 0
M  V30 276 C 27.2209 -0.254179 5.86149 0
M  V30 277 C 29.5729 0.042149 6.32586 0
M  V30 278 C 28.2369 0.25134 6.67027 0
M  V30 279 H 27.5069 -0.360663 0.647304 0
M  V30 280 H 30.1539 -0.256483 1.89775 0
M  V30 281 H 28.4589 -2.68021 2.85783 0
M  V30 282 H 30.1559 -2.45015 3.1744 0
M  V30 283 H 26.7459 -1.33332 4.07333 0
M  V30 284 H 30.9299 -0.802145 4.89775 0
M  V30 285 H 26.1859 -0.0815408 6.11346 0
M  V30 286 H 30.3599 0.443049 6.94989 0
M  V30 287 H 27.9869 0.809314 7.5588 0
M  V30 288 N 29.562 -1.4872 -0.521534 0
M  V30 289 C 30.509 -1.63871 -1.62527 0
M  V30 290 C 31.479 -0.480559 -1.58996 0
M  V30 291 O 32.664 -0.705085 -1.77294 0
M  V30 292 C 29.804 -1.69227 -3.00759 0
M  V30 293 C 28.917 -2.96207 -3.14461 0
M  V30 294 C 28.052 -2.92671 -4.43303 0
M  V30 295 C 27.091 -4.14318 -4.50563 0
M  V30 296 N 26.228 -4.0881 -5.70805 0
M  V30 297 H 31.068 -2.58123 -1.48918 0
M  V30 298 H 28.605 -1.28 -0.724878 0
M  V30 299 H 30.563 -1.70314 -3.80853 0
M  V30 300 H 29.193 -0.784586 -3.1312 0
M  V30 301 H 28.245 -3.04826 -2.27564 0
M  V30 302 H 29.557 -3.86192 -3.15686 0
M  V30 303 H 28.711 -2.92206 -5.31696 0
M  V30 304 H 27.45 -2.00429 -4.44612 0
M  V30 305 H 26.455 -4.15049 -3.60575 0
M  V30 306 H 27.68 -5.07729 -4.50986 0
M  V30 307 H 25.626 -3.19394 -5.72995 0
M  V30 308 H 25.543 -4.92509 -5.7356 0
M  V30 309 H 26.811 -4.12418 -6.61462 0
M  V30 310 N 31.0401 0.771051 -1.3745 0
M  V30 311 C 32.3171 1.519 -1.23231 0
M  V30 312 C 32.6971 2.10383 0.173809 0
M  V30 313 O 32.0451 1.95583 1.18151 0
M  V30 314 C 32.2551 2.59933 -2.32886 0
M  V30 315 C 33.6031 3.27316 -2.70461 0
M  V30 316 O 34.6271 2.70228 -2.32068 0
M  V30 317 O 33.4861 4.30531 -3.36608 0
M  V30 318 H 30.5801 0.672803 -0.480901 0
M  V30 319 H 33.1261 0.807957 -1.49232 0
M  V30 320 H 31.8981 2.14842 -3.27045 0
M  V30 321 H 31.5211 3.38637 -2.08353 0
M  V30 322 N 32.5182 1.22032 0.997298 0
M  V30 323 C 33.7952 0.950823 1.70935 0
M  V30 324 C 34.1752 -0.535292 2.042 0
M  V30 325 O 33.5232 -1.50217 1.72183 0
M  V30 326 C 33.7332 1.84386 2.96315 0
M  V30 327 C 35.0812 2.09732 3.69185 0
M  V30 328 O 36.1052 1.81798 3.06314 0
M  V30 329 O 34.9642 2.57018 4.82291 0
M  V30 330 H 32.0582 0.357204 0.745878 0
M  V30 331 H 34.6042 1.32997 1.05404 0
M  V30 332 H 33.3762 2.84928 2.68201 0
M  V30 333 H 32.9992 1.46602 3.69586 0
M  V30 334 N 33.9963 -1.19345 1.0293 0
M  V30 335 C 35.4073 -1.70725 0.755633 0
M  V30 336 C 35.7583 -1.82326 -0.724676 0
M  V30 337 O 34.8833 -1.49471 -1.56484 0
M  V30 338 C 35.4783 -3.10084 1.36503 0
M  V30 339 C 34.0373 -3.58723 1.13994 0
M  V30 340 C 33.1843 -2.35577 1.46283 0
M  V30 341 H 36.1353 -1.0418 1.19718 0
M  V30 342 H 36.1563 -3.72787 0.762217 0
M  V30 343 H 35.6683 -3.01609 2.44241 0
M  V30 344 H 33.7693 -3.72512 0.0807901 0
M  V30 345 H 33.8823 -4.42816 1.82894 0
M  V30 346 H 32.2463 -2.38935 0.88217 0
M  V30 347 H 33.0293 -2.29731 2.55105 0
M  V30 348 N 35.4744 -0.807222 -1.35358 0
M  V30 349 C 36.3844 -0.219594 -2.3357 0
M  V30 350 C 37.4004 0.637734 -1.61892 0
M  V30 351 O 38.5764 0.549336 -1.93763 0
M  V30 352 C 35.6414 0.62158 -3.41083 0
M  V30 353 C 34.7024 -0.256315 -4.28534 0
M  V30 354 C 33.9354 0.544807 -5.30912 0
M  V30 355 O 34.1584 1.77944 -5.41934 0
M  V30 356 O 33.0924 -0.0646478 -6.01865 0
M  V30 357 H 36.9184 -1.03208 -2.85625 0
M  V30 358 H 34.5034 -0.569025 -1.38139 0
M  V30 359 H 36.3854 1.10067 -4.06772 0
M  V30 360 H 35.0604 1.41165 -2.91297 0
M  V30 361 H 33.9674 -0.782559 -3.65823 0
M  V30 362 H 35.3004 -1.01034 -4.81719 0
M  V30 363 N 36.9525 1.47285 -0.560781 0
M  V30 364 C 37.8995 2.30058 0.18491 0
M  V30 365 C 38.8695 1.39281 0.904986 0
M  V30 366 O 40.0545 1.68241 0.899979 0
M  V30 367 C 37.1945 3.23317 1.20666 0
M  V30 368 C 36.3075 4.29186 0.492285 0
M  V30 369 C 35.4425 5.09592 1.49964 0
M  V30 370 C 34.4815 6.07232 0.770439 0
M  V30 371 N 33.6185 6.80584 1.72479 0
M  V30 372 H 38.4585 2.93302 -0.527048 0
M  V30 373 H 35.9955 1.44568 -0.271738 0
M  V30 374 H 37.9535 3.75811 1.81168 0
M  V30 375 H 36.5835 2.61929 1.88661 0
M  V30 376 H 35.6355 3.7972 -0.227333 0
M  V30 377 H 36.9475 4.98738 -0.0787929 0
M  V30 378 H 36.1015 5.66254 2.17809 0
M  V30 379 H 34.8405 4.3995 2.10464 0
M  V30 380 H 33.8455 5.49745 0.0780846 0
M  V30 381 H 35.0705 6.78884 0.171134 0
M  V30 382 H 33.0165 6.1367 2.3183 0
M  V30 383 H 32.9335 7.46319 1.20596 0
M  V30 384 H 34.2015 7.41818 2.39428 0
M  V30 385 N 38.4306 0.297415 1.54768 0
M  V30 386 C 39.3606 -0.573494 2.26348 0
M  V30 387 C 40.3416 -1.14085 1.26169 0
M  V30 388 O 41.5266 -1.17086 1.54934 0
M  V30 389 C 38.6566 -1.74716 3.00153 0
M  V30 390 C 37.6106 -1.31032 4.07449 0
M  V30 391 C 36.9366 -2.56887 4.68949 0
M  V30 392 C 38.2366 -0.444183 5.20408 0
M  V30 393 H 39.9306 0.0235131 2.99391 0
M  V30 394 H 37.4766 0.0127488 1.43994 0
M  V30 395 H 39.4296 -2.3625 3.48947 0
M  V30 396 H 38.1536 -2.37035 2.24682 0
M  V30 397 H 36.8126 -0.718066 3.59499 0
M  V30 398 H 36.4606 -3.17512 3.90122 0
M  V30 399 H 36.1606 -2.2836 5.41411 0
M  V30 400 H 37.6846 -3.19229 5.20505 0
M  V30 401 H 39.0986 -0.9651 5.65118 0
M  V30 402 H 37.4956 -0.252846 5.99567 0
M  V30 403 H 38.5656 0.531609 4.81977 0
M  V30 404 N 39.9087 -1.5758 0.0250728 0
M  V30 405 C 41.1557 -1.91633 -0.654444 0
M  V30 406 C 41.4837 -0.901103 -1.72367 0
M  V30 407 O 40.7387 0.0905647 -1.9549 0
M  V30 408 C 41.0377 -3.32421 -1.31268 0
M  V30 409 C 40.7037 -4.49344 -0.374223 0
M  V30 410 C 39.3657 -4.8106 -0.115911 0
M  V30 411 C 41.7177 -5.20498 0.270432 0
M  V30 412 C 39.0457 -5.8129 0.79493 0
M  V30 413 C 41.3977 -6.21699 1.1693 0
M  V30 414 C 40.0617 -6.51859 1.43655 0
M  V30 415 H 39.3317 -0.701236 -0.239478 0
M  V30 416 H 41.9787 -1.91307 0.0859734 0
M  V30 417 H 40.2837 -3.28989 -2.12775 0
M  V30 418 H 41.9807 -3.56038 -1.84494 0
M  V30 419 H 38.5707 -4.24579 -0.58573 0
M  V30 420 H 42.7547 -4.96229 0.0839194 0
M  V30 421 H 38.0107 -6.03005 1.00973 0
M  V30 422 H 42.1847 -6.75955 1.67504 0
M  V30 423 H 39.8117 -7.2934 2.144 0
M  V30 424 N 41.3868 0.248026 -1.55636 0
M  V30 425 C 42.6118 0.998028 -1.81808 0
M  V30 426 C 43.0368 1.78207 -0.601979 0
M  V30 427 O 42.3948 1.75653 0.448961 0
M  V30 428 C 42.4428 1.9125 -3.05705 0
M  V30 429 O 41.5468 3.00406 -2.82542 0
M  V30 430 H 40.8878 0.284045 -0.600179 0
M  V30 431 H 43.4178 0.269357 -2.02819 0
M  V30 432 H 43.4278 2.32737 -3.35108 0
M  V30 433 H 42.1028 1.33602 -3.93857 0
M  V30 434 H 40.6798 2.63056 -2.64303 0
M  V30 435 N 42.8649 1.48995 0.513639 0
M  V30 436 C 44.1419 1.48338 1.27495 0
M  V30 437 C 44.5219 0.204065 2.10111 0
M  V30 438 O 43.8699 -0.813881 2.13514 0
M  V30 439 C 44.0799 2.75498 2.14247 0
M  V30 440 C 45.4279 3.24484 2.73852 0
M  V30 441 O 46.4519 2.76528 2.24523 0
M  V30 442 O 45.3109 4.07974 3.6362 0
M  V30 443 H 42.4049 0.593149 0.576284 0
M  V30 444 H 44.9509 1.61246 0.528948 0
M  V30 445 H 43.7229 3.60109 1.53092 0
M  V30 446 H 43.3459 2.6539 2.96064 0
M  V30 447 N 44.343 -0.763751 1.37857 0
M  V30 448 C 45.273 -1.89103 1.36975 0
M  V30 449 C 46.254 -1.68439 0.237152 0
M  V30 450 O 47.439 -1.8918 0.438713 0
M  V30 451 C 44.569 -3.26496 1.18395 0
M  V30 452 C 43.523 -3.61741 2.28751 0
M  V30 453 C 42.849 -4.97762 1.95286 0
M  V30 454 C 44.149 -3.67665 3.70972 0
M  V30 455 H 45.843 -1.90099 2.31307 0
M  V30 456 H 43.389 -0.91319 1.11341 0
M  V30 457 H 45.342 -4.05003 1.16406 0
M  V30 458 H 44.066 -3.25955 0.205215 0
M  V30 459 H 42.725 -2.85547 2.29909 0
M  V30 460 H 42.373 -4.93769 0.959221 0
M  V30 461 H 42.073 -5.22313 2.69189 0
M  V30 462 H 43.597 -5.7866 1.94898 0
M  V30 463 H 45.011 -4.36307 3.719 0
M  V30 464 H 43.408 -4.03718 4.43995 0
M  V30 465 H 44.478 -2.68134 4.0402 0
M  V30 466 N 45.8211 -1.22559 -0.990812 0
M  V30 467 C 47.2371 -0.985996 -1.255 0
M  V30 468 C 47.4371 0.319173 -1.98956 0
M  V30 469 O 46.4931 1.04127 -2.3003 0
M  V30 470 C 47.8061 -2.18607 -2.06474 0
M  V30 471 C 49.3541 -2.22985 -2.19651 0
M  V30 472 C 49.8291 -3.4255 -3.04012 0
M  V30 473 N 51.3201 -3.42725 -3.11599 0
M  V30 474 C 52.0551 -4.31892 -3.7717 0
M  V30 475 N 51.5511 -5.31279 -4.44651 0
M  V30 476 N 53.3441 -4.19662 -3.73952 0
M  V30 477 H 45.4951 -2.06469 -0.49841 0
M  V30 478 H 47.7581 -0.904853 -0.282747 0
M  V30 479 H 47.4641 -3.13267 -1.59865 0
M  V30 480 H 47.3381 -2.18838 -3.07229 0
M  V30 481 H 49.7251 -1.28871 -2.65474 0
M  V30 482 H 49.8061 -2.26791 -1.18319 0
M  V30 483 H 49.4501 -4.36965 -2.58889 0
M  V30 484 H 49.3801 -3.35984 -4.0549 0
M  V30 485 H 51.8711 -2.70807 -2.63575 0
M  V30 486 H 52.1841 -5.95593 -4.92431 0
M  V30 487 H 50.5291 -5.3519 -4.43392 0
M  V30 488 H 53.7201 -3.41268 -3.20396 0
M  V30 489 H 53.8931 -4.89358 -4.24774 0
M  V30 490 N 47.2992 1.18797 -1.03562 0
M  V30 491 C 48.2092 2.25913 -0.632505 0
M  V30 492 C 49.2252 1.70668 0.338882 0
M  V30 493 O 50.4012 2.00453 0.195076 0
M  V30 494 C 47.4662 3.467 0.00350942 0
M  V30 495 C 46.5272 4.17098 -1.01624 0
M  V30 496 C 45.7602 5.32119 -0.410478 0
M  V30 497 O 45.9832 5.64976 0.784725 0
M  V30 498 O 44.9172 5.9107 -1.13667 0
M  V30 499 H 48.7432 2.62648 -1.52478 0
M  V30 500 H 46.3282 1.25781 -0.806195 0
M  V30 501 H 48.2102 4.19878 0.35781 0
M  V30 502 H 46.8852 3.11798 0.869686 0
M  V30 503 H 45.7922 3.4601 -1.42224 0
M  V30 504 H 47.1252 4.55987 -1.85301 0
M  V30 505 N 48.7773 0.814389 1.34928 0
M  V30 506 C 50.0263 0.394871 1.97797 0
M  V30 507 C 50.3393 -1.04555 1.65311 0
M  V30 508 O 51.5453 -1.56856 2.21604 0
M  V30 509 C 50.0013 0.655103 3.53888 0
M  V30 510 C 49.6093 2.10858 3.95276 0
M  V30 511 C 51.3533 0.301329 4.23429 0
M  V30 512 C 49.2603 2.31415 5.44244 0
M  V30 513 H 48.1903 0.143913 0.740139 0
M  V30 514 H 50.8413 0.999544 1.53888 0
M  V30 515 H 49.2233 -0.0196253 3.95995 0
M  V30 516 H 50.3973 2.82176 3.64298 0
M  V30 517 H 48.7123 2.42297 3.38646 0
M  V30 518 H 51.3093 0.432869 5.32945 0
M  V30 519 H 51.6523 -0.75331 4.09428 0
M  V30 520 H 52.1853 0.930288 3.86769 0
M  V30 521 H 48.9243 3.35353 5.63222 0
M  V30 522 H 48.4443 1.6463 5.76764 0
M  V30 523 H 50.1233 2.13352 6.10811 0
M  V30 524 N 50.2554 -1.46986 0.568584 0
M  V30 525 C 51.5034 -2.02041 0.0487022 0
M  V30 526 C 51.8244 -1.44408 -1.31039 0
M  V30 527 O 51.0944 -0.623477 -1.85714 0
M  V30 528 H 49.6744 -0.746849 0.015014 0
M  V30 529 H 52.3364 -1.80257 0.741168 0
M  V30 530 H 51.4324 -3.12085 -0.0308961 0
M  V30 531 N 51.7335 -0.305618 -1.54608 0
M  V30 532 C 52.6835 0.583595 -2.20405 0
M  V30 533 C 53.6675 1.09539 -1.17856 0
M  V30 534 O 54.8595 1.0354 -1.43557 0
M  V30 535 C 51.9885 1.75277 -2.95183 0
M  V30 536 C 51.0745 1.25672 -4.05052 0
M  V30 537 N 51.4655 0.478998 -5.03527 0
M  V30 538 C 49.7635 1.53704 -4.18678 0
M  V30 539 C 50.4645 0.214269 -5.81305 0
M  V30 540 N 49.4405 0.795374 -5.3775 0
M  V30 541 H 53.2425 -0.0180946 -2.93894 0
M  V30 542 H 50.7565 -0.110601 -1.62023 0
M  V30 543 H 52.7535 2.4014 -3.40791 0
M  V30 544 H 51.4135 2.35812 -2.23211 0
M  V30 545 H 52.4245 0.123473 -5.17753 0
M  V30 546 H 49.1015 2.14954 -3.57912 0
M  V30 547 H 50.4915 -0.410656 -6.70644 0
M  V30 548 N 53.2116 1.57565 -0.0334293 0
M  V30 549 C 54.4596 1.91598 0.642999 0
M  V30 550 C 54.7806 0.910847 1.7242 0
M  V30 551 O 54.0506 -0.0469931 1.95844 0
M  V30 552 H 52.6306 0.707228 0.240496 0
M  V30 553 H 55.2926 1.94726 -0.0822488 0
M  V30 554 H 54.3886 2.92336 1.09298 0
M  V30 555 N 54.6897 -0.239769 1.55765 0
M  V30 556 C 55.9147 -0.988373 1.82335 0
M  V30 557 C 56.3397 -1.77886 0.611421 0
M  V30 558 O 55.6977 -1.75889 -0.439639 0
M  V30 559 C 55.7457 -1.89627 3.06715 0
M  V30 560 O 54.8497 -2.98904 2.84131 0
M  V30 561 H 54.1907 -0.280858 0.601677 0
M  V30 562 H 56.7207 -0.258597 2.02959 0
M  V30 563 H 56.7307 -2.30957 3.36338 0
M  V30 564 H 55.4057 -1.31511 3.9456 0
M  V30 565 H 53.9827 -2.61651 2.65694 0
M  V30 566 N 56.1678 -1.49265 -0.50573 0
M  V30 567 C 57.4148 -1.58513 -1.26015 0
M  V30 568 C 57.7428 -0.26972 -1.92621 0
M  V30 569 O 56.9978 0.741997 -1.81088 0
M  V30 570 C 57.2968 -2.69008 -2.35308 0
M  V30 571 C 56.9628 -4.10662 -1.86192 0
M  V30 572 C 55.6248 -4.49212 -1.72516 0
M  V30 573 C 57.9768 -4.99336 -1.49375 0
M  V30 574 C 55.3048 -5.74214 -1.20394 0
M  V30 575 C 57.6568 -6.24852 -0.987072 0
M  V30 576 C 56.3208 -6.62236 -0.836669 0
M  V30 577 H 55.5908 -0.580041 -0.461122 0
M  V30 578 H 58.2378 -1.83078 -0.561665 0
M  V30 579 H 56.5428 -2.38396 -3.10926 0
M  V30 580 H 58.2398 -2.73373 -2.93374 0
M  V30 581 H 54.8298 -3.8023 -1.97795 0
M  V30 582 H 59.0138 -4.70212 -1.5879 0
M  V30 583 H 54.2698 -6.01883 -1.07458 0
M  V30 584 H 58.4438 -6.92944 -0.692983 0
M  V30 585 H 56.0708 -7.58979 -0.430607 0
M  V30 586 N 57.6459 0.756429 -1.3826 0
M  V30 587 C 58.8939 1.51248 -1.34047 0
M  V30 588 C 59.2149 1.94875 0.0698372 0
M  V30 589 O 58.4849 1.67436 1.01696 0
M  V30 590 H 57.0649 0.561018 -0.493222 0
M  V30 591 H 59.7269 0.899347 -1.7291 0
M  V30 592 H 58.8229 2.40472 -1.98947 0
M  V30 593 N 59.124 1.23083 0.984299 0
M  V30 594 C 60.087 1.00979 2.05757 0
M  V30 595 C 61.087 -0.0269573 1.60777 0
M  V30 596 O 62.277 0.212403 1.729 0
M  V30 597 C 59.409 0.527072 3.36801 0
M  V30 598 H 60.602 1.9622 2.26799 0
M  V30 599 H 58.155 1.05072 1.15714 0
M  V30 600 H 58.89 -0.429294 3.21446 0
M  V30 601 H 58.675 1.27515 3.70786 0
M  V30 602 H 60.165 0.392942 4.15747 0
M  V30 603 N 60.6021 -1.18246 1.0419 0
M  V30 604 C 61.8481 -1.88536 0.747122 0
M  V30 605 C 62.1811 -1.80223 -0.723409 0
M  V30 606 O 61.4561 -1.20337 -1.52804 0
M  V30 607 C 61.7391 -3.38968 1.21544 0
M  V30 608 C 61.5921 -3.56084 2.74816 0
M  V30 609 C 62.9111 -4.32648 0.806482 0
M  V30 610 H 60.0301 -0.684619 0.272883 0
M  V30 611 H 62.6721 -1.39113 1.29413 0
M  V30 612 H 60.8221 -3.8119 0.750081 0
M  V30 613 H 62.4941 -3.22946 3.29399 0
M  V30 614 H 60.7371 -2.98699 3.14582 0
M  V30 615 H 61.4081 -4.61639 3.02644 0
M  V30 616 H 63.8841 -3.98211 1.20695 0
M  V30 617 H 62.7601 -5.36462 1.1619 0
M  V30 618 H 63.0211 -4.41146 -0.29029 0
M  V30 619 N 62.0802 -0.821533 -1.34494 0
M  V30 620 C 63.3102 -0.421272 -2.02259 0
M  V30 621 C 63.7182 0.977047 -1.6202 0
M  V30 622 O 63.0612 1.64348 -0.820703 0
M  V30 623 C 63.1232 -0.44231 -3.56769 0
M  V30 624 C 62.7872 -1.79372 -4.20327 0
M  V30 625 C 63.7842 -2.75435 -4.40944 0
M  V30 626 C 61.4692 -2.08182 -4.57127 0
M  V30 627 C 63.4632 -3.98482 -4.97484 0
M  V30 628 C 61.1502 -3.31489 -5.13379 0
M  V30 629 C 62.1482 -4.26457 -5.33501 0
M  V30 630 O 61.8362 -5.47585 -5.88562 0
M  V30 631 H 61.5682 -0.167473 -0.654927 0
M  V30 632 H 64.1222 -1.11073 -1.72777 0
M  V30 633 H 62.3522 0.303836 -3.85505 0
M  V30 634 H 64.0412 -0.0622925 -4.05852 0
M  V30 635 H 64.8072 -2.54473 -4.12878 0
M  V30 636 H 60.6862 -1.35066 -4.4077 0
M  V30 637 H 64.2302 -4.72618 -5.13106 0
M  V30 638 H 60.1272 -3.52316 -5.40873 0
M  V30 639 H 60.8952 -5.49086 -6.06998 0
M  V30 640 N 63.5583 1.46682 -0.576371 0
M  V30 641 C 64.8053 2.02412 -0.0595339 0
M  V30 642 C 65.1333 1.44859 1.29793 0
M  V30 643 O 64.3883 0.601099 1.8624 0
M  V30 644 C 64.6873 3.57345 0.062886 0
M  V30 645 C 64.3533 4.33908 -1.22616 0
M  V30 646 C 63.0153 4.54544 -1.57933 0
M  V30 647 C 65.3673 4.77919 -2.07948 0
M  V30 648 C 62.6953 5.16444 -2.78393 0
M  V30 649 C 65.0473 5.41149 -3.27629 0
M  V30 650 C 63.7113 5.60014 -3.63236 0
M  V30 651 H 62.9813 0.74068 -0.021785 0
M  V30 652 H 65.6283 1.76128 -0.751735 0
M  V30 653 H 63.9333 3.82729 0.838178 0
M  V30 654 H 65.6303 3.98136 0.478439 0
M  V30 655 H 62.2203 4.18138 -0.941202 0
M  V30 656 H 66.4043 4.61738 -1.81967 0
M  V30 657 H 61.6603 5.29242 -3.06126 0
M  V30 658 H 65.8343 5.74211 -3.94023 0
M  V30 659 H 63.4613 6.07748 -4.56669 0
M  V30 660 N 65.0364 0.313813 1.54444 0
M  V30 661 C 65.9994 -0.54379 2.22656 0
M  V30 662 C 66.9994 -1.05124 1.21678 0
M  V30 663 O 68.1894 -0.945225 1.46325 0
M  V30 664 C 65.3214 -1.75427 2.92298 0
M  V30 665 H 66.5144 0.0523599 2.99854 0
M  V30 666 H 64.0674 0.0647834 1.56166 0
M  V30 667 H 64.8024 -2.38991 2.19211 0
M  V30 668 H 64.5874 -1.39791 3.66334 0
M  V30 669 H 66.0774 -2.36325 3.44297 0
M  V30 670 N 66.5145 -1.57545 0.0417849 0
M  V30 671 C 67.9305 -1.56467 -0.314704 0
M  V30 672 C 68.1305 -1.04859 -1.72066 0
M  V30 673 O 67.1865 -0.700983 -2.42575 0
M  V30 674 C 68.4995 -3.00317 -0.15174 0
M  V30 675 C 70.0475 -3.12201 -0.223553 0
M  V30 676 C 70.5225 -4.57913 -0.0892295 0
M  V30 677 N 72.0135 -4.6297 -0.145808 0
M  V30 678 C 72.7485 -5.73362 -0.0658459 0
M  V30 679 N 72.2445 -6.92769 0.0659282 0
M  V30 680 N 74.0375 -5.6197 -0.12075 0
M  V30 681 H 66.1885 -1.89416 0.961014 0
M  V30 682 H 68.4515 -0.871862 0.372237 0
M  V30 683 H 68.1575 -3.42073 0.817254 0
M  V30 684 H 68.0315 -3.65892 -0.916692 0
M  V30 685 H 70.4185 -2.70349 -1.18301 0
M  V30 686 H 70.4995 -2.49323 0.571994 0
M  V30 687 H 70.1435 -5.00448 0.866867 0
M  V30 688 H 70.0735 -5.18786 -0.903802 0
M  V30 689 H 72.5645 -3.7709 -0.247286 0
M  V30 690 H 72.8775 -7.72707 0.119905 0
M  V30 691 H 71.2225 -6.94927 0.100885 0
M  V30 692 H 74.4135 -4.67572 -0.222187 0
M  V30 693 H 74.5865 -6.47977 -0.0549735 0
M  V30 694 N 67.9926 0.231505 -1.5589 0
M  V30 695 C 69.2696 0.981096 -1.69215 0
M  V30 696 C 69.6496 2.02799 -0.586164 0
M  V30 697 O 68.9976 2.24823 0.408253 0
M  V30 698 C 69.2076 1.60054 -3.10135 0
M  V30 699 C 70.5556 2.09658 -3.69227 0
M  V30 700 O 71.5796 1.69967 -3.13033 0
M  V30 701 O 70.4386 2.8258 -4.67772 0
M  V30 702 H 67.5326 0.457653 -0.688827 0
M  V30 703 H 70.0786 0.224073 -1.68214 0
M  V30 704 H 68.8506 0.844105 -3.82087 0
M  V30 705 H 68.4736 2.42336 -3.15212 0
M  V30 706 N 69.4707 1.49531 0.497807 0
M  V30 707 C 70.7167 1.59415 1.25358 0
M  V30 708 C 71.0497 0.281422 1.9215 0
M  V30 709 O 70.3247 -0.715249 1.80871 0
M  V30 710 C 70.6077 2.75566 2.3181 0
M  V30 711 C 70.4607 4.16642 1.69498 0
M  V30 712 C 71.7797 2.87347 3.33346 0
M  V30 713 H 68.8987 0.580244 0.454408 0
M  V30 714 H 71.5407 1.81827 0.551262 0
M  V30 715 H 69.6907 2.56587 2.91711 0
M  V30 716 H 71.3627 4.47145 1.13399 0
M  V30 717 H 69.6057 4.22141 0.998978 0
M  V30 718 H 70.2767 4.93792 2.46725 0
M  V30 719 H 72.7527 3.04634 2.83438 0
M  V30 720 H 71.6287 3.70289 4.05188 0
M  V30 721 H 71.8897 1.96834 3.95865 0
M  V30 722 N 70.9488 -0.749086 1.3866 0
M  V30 723 C 72.3648 -1.05276 1.19955 0
M  V30 724 C 72.5648 -2.01435 0.05134 0
M  V30 725 O 71.6208 -2.45232 -0.60147 0
M  V30 726 C 72.9338 -1.62853 2.52783 0
M  V30 727 C 74.4818 -1.75002 2.59506 0
M  V30 728 C 74.9568 -2.35991 3.92521 0
M  V30 729 N 76.4478 -2.43416 3.94085 0
M  V30 730 C 77.1828 -2.91511 4.9377 0
M  V30 731 N 76.6788 -3.39608 6.03853 0
M  V30 732 N 78.4718 -2.90592 4.81157 0
M  V30 733 H 70.6228 -0.111066 2.12109 0
M  V30 734 H 72.8858 -0.111901 0.941373 0
M  V30 735 H 72.5918 -0.99664 3.37283 0
M  V30 736 H 72.4658 -2.61854 2.715 0
M  V30 737 H 74.8528 -2.37317 1.75398 0
M  V30 738 H 74.9338 -0.74693 2.44652 0
M  V30 739 H 74.5778 -1.74308 4.77053 0
M  V30 740 H 74.5078 -3.3695 4.04688 0
M  V30 741 H 76.9988 -2.09405 3.14576 0
M  V30 742 H 77.3118 -3.74775 6.75843 0
M  V30 743 H 75.6568 -3.37653 6.07466 0
M  V30 744 H 78.8478 -2.52332 3.94267 0
M  V30 745 H 79.0208 -3.27762 5.58996 0
M  V30 746 N 72.4269 -1.23603 -0.977757 0
M  V30 747 C 73.3749 -1.01704 -2.09187 0
M  V30 748 C 74.3689 0.0448214 -1.69341 0
M  V30 749 O 75.5749 -0.108902 -1.7967 0
M  V30 750 H 71.9499 -0.311803 -0.684312 0
M  V30 751 H 73.9209 -1.96207 -2.24823 0
M  V30 752 C 72.6699 -0.627746 -3.41986 0
M  V30 753 H 71.9929 -1.43656 -3.73099 0
M  V30 754 H 73.4329 -0.514053 -4.20872 0
M  V30 755 C 71.8919 0.664238 -3.30287 0
M  V30 756 O 72.4219 1.71268 -3.6336 0
M  V30 757 N 70.6279 0.641156 -2.83439 0
M  V30 758 H 70.1749 -0.212376 -2.56723 0
M  V30 759 H 70.1329 1.50583 -2.75993 0
M  V30 760 N 73.905 1.17692 -1.04816 0
M  V30 761 C 75.13 1.92327 -0.776207 0
M  V30 762 C 75.555 1.76082 0.661581 0
M  V30 763 O 74.913 1.076 1.45917 0
M  V30 764 C 74.961 3.41539 -1.15687 0
M  V30 765 O 74.065 4.11402 -0.286775 0
M  V30 766 H 73.406 0.599735 -0.284981 0
M  V30 767 H 75.936 1.49201 -1.4 0
M  V30 768 H 75.946 3.92269 -1.12202 0
M  V30 769 H 74.621 3.52684 -2.20425 0
M  V30 770 H 73.198 3.70939 -0.381903 0
M  V30 771 N 75.3831 0.828654 1.34056 0
M  V30 772 C 76.2931 0.256725 2.33191 0
M  V30 773 C 77.3091 -0.611898 1.62886 0
M  V30 774 O 78.4851 -0.51844 1.94613 0
M  V30 775 C 75.5501 -0.567238 3.42028 0
M  V30 776 C 74.6111 0.324458 4.28072 0
M  V30 777 C 73.8441 -0.460274 5.31712 0
M  V30 778 O 74.0671 -1.693 5.44696 0
M  V30 779 O 73.0011 0.160391 6.01686 0
M  V30 780 H 76.8271 1.07739 2.83947 0
M  V30 781 H 74.4121 0.59093 1.37217 0
M  V30 782 H 76.2941 -1.03582 4.08471 0
M  V30 783 H 74.9691 -1.36513 2.93506 0
M  V30 784 H 73.8761 0.840659 3.64532 0
M  V30 785 H 75.2091 1.08685 4.8005 0
M  V30 786 N 76.8612 -1.46375 0.584142 0
M  V30 787 C 78.1072 -2.02678 0.0703716 0
M  V30 788 C 78.4402 -1.4545 -1.28678 0
M  V30 789 O 77.7152 -0.62014 -1.84349 0
M  V30 790 C 77.9982 -3.60099 0.00614674 0
M  V30 791 C 77.8512 -4.27709 1.3923 0
M  V30 792 C 79.1702 -4.34598 -0.693742 0
M  V30 793 H 76.2892 -0.736504 0.027047 0
M  V30 794 H 78.9312 -1.74501 0.751615 0
M  V30 795 H 77.0812 -3.84236 -0.574009 0
M  V30 796 H 78.7532 -4.14832 2.01773 0
M  V30 797 H 76.9962 -3.87016 1.95962 0
M  V30 798 H 77.6672 -5.36478 1.29982 0
M  V30 799 H 80.1432 -4.15615 -0.200869 0
M  V30 800 H 79.0192 -5.44318 -0.707714 0
M  V30 801 H 79.2802 -4.05759 -1.75533 0
M  V30 802 N 78.3393 -0.321999 -1.54275 0
M  V30 803 C 79.5853 0.281461 -2.00837 0
M  V30 804 C 79.9183 1.51909 -1.20985 0
M  V30 805 O 79.1933 1.923 -0.291733 0
M  V30 806 C 79.4763 0.617162 -3.54772 0
M  V30 807 C 79.3293 -0.631064 -4.45351 0
M  V30 808 C 80.6483 1.43542 -4.16033 0
M  V30 809 H 77.7673 0.100826 -0.730071 0
M  V30 810 H 80.4093 -0.438268 -1.84876 0
M  V30 811 H 78.5593 1.23034 -3.68504 0
M  V30 812 H 80.2313 -1.26934 -4.43492 0
M  V30 813 H 78.4743 -1.26025 -4.15091 0
M  V30 814 H 79.1453 -0.351735 -5.50878 0
M  V30 815 H 81.6213 0.917134 -4.05867 0
M  V30 816 H 80.4973 1.63907 -5.23856 0
M  V30 817 H 80.7583 2.43108 -3.69257 0
M  V30 818 N 79.8174 1.5752 -0.0501392 0
M  V30 819 C 80.7804 2.1037 0.909786 0
M  V30 820 C 81.7804 1.02308 1.24056 0
M  V30 821 O 82.9704 1.28385 1.17741 0
M  V30 822 C 80.1024 2.58708 2.21998 0
M  V30 823 H 81.2954 2.96479 0.451665 0
M  V30 824 H 78.8484 1.55038 0.198248 0
M  V30 825 H 79.5834 1.75989 2.72394 0
M  V30 826 H 79.3684 3.37675 1.99295 0
M  V30 827 H 80.8584 2.99747 2.9076 0
M  V30 828 N 81.2955 -0.223234 1.56011 0
M  V30 829 C 82.5445 -0.945912 1.78144 0
M  V30 830 C 82.8575 -1.85567 0.618396 0
M  V30 831 O 84.0635 -2.61688 0.723318 0
M  V30 832 C 82.5195 -1.73216 3.15475 0
M  V30 833 C 82.1275 -0.868619 4.39499 0
M  V30 834 C 83.8715 -2.44615 3.46935 0
M  V30 835 C 81.7785 -1.65212 5.67855 0
M  V30 836 H 80.7085 -0.356929 0.664167 0
M  V30 837 H 83.3595 -0.199845 1.82409 0
M  V30 838 H 81.7415 -2.52107 3.05382 0
M  V30 839 H 82.9155 -0.120366 4.60643 0
M  V30 840 H 81.2305 -0.26683 4.15544 0
M  V30 841 H 83.8275 -3.03732 4.40058 0
M  V30 842 H 84.1705 -3.17417 2.69355 0
M  V30 843 H 84.7035 -1.72715 3.58349 0
M  V30 844 H 81.4425 -0.967407 6.48322 0
M  V30 845 H 80.9625 -2.37503 5.50774 0
M  V30 846 H 82.6415 -2.21322 6.07968 0
M  V30 847 N 82.7736 -1.49793 -0.48987 0
M  V30 848 C 83.7206 -1.67281 -1.59014 0
M  V30 849 C 84.6906 -0.514177 -1.57941 0
M  V30 850 O 85.8756 -0.742533 -1.75759 0
M  V30 851 C 83.0156 -1.75569 -2.97102 0
M  V30 852 C 82.1286 -3.0281 -3.08107 0
M  V30 853 C 81.2636 -3.02008 -4.36995 0
M  V30 854 C 80.3026 -4.23782 -4.41673 0
M  V30 855 N 79.4396 -4.20826 -5.62005 0
M  V30 856 H 84.2796 -2.61224 -1.43409 0
M  V30 857 H 81.8166 -1.29508 -0.697565 0
M  V30 858 H 83.7746 -1.78354 -3.77155 0
M  V30 859 H 82.4046 -0.850827 -3.11385 0
M  V30 860 H 81.4566 -3.09584 -2.21047 0
M  V30 861 H 82.7686 -3.92801 -3.07423 0
M  V30 862 H 81.9226 -3.03418 -5.25378 0
M  V30 863 H 80.6616 -2.09815 -4.4026 0
M  V30 864 H 79.6666 -4.22604 -3.5169 0
M  V30 865 H 80.8916 -5.17181 -4.40115 0
M  V30 866 H 78.8376 -3.31476 -5.66091 0
M  V30 867 H 78.7546 -5.04564 -5.62984 0
M  V30 868 H 80.0226 -4.26355 -6.52565 0
M  V30 869 N 84.2517 0.741722 -1.39055 0
M  V30 870 C 85.1987 1.85566 -1.37237 0
M  V30 871 C 86.1687 1.64457 -0.233072 0
M  V30 872 O 87.3537 1.85957 -0.427147 0
M  V30 873 C 84.4937 3.23004 -1.215 0
M  V30 874 C 83.6067 3.55864 -2.44918 0
M  V30 875 C 82.7417 4.82669 -2.21821 0
M  V30 876 C 81.7807 5.08351 -3.40948 0
M  V30 877 N 80.9177 6.26356 -3.17211 0
M  V30 878 H 85.7577 1.86455 -2.32462 0
M  V30 879 H 83.2947 0.911176 -1.15482 0
M  V30 880 H 85.2527 4.02331 -1.10389 0
M  V30 881 H 83.8827 3.21411 -0.29908 0
M  V30 882 H 82.9347 2.7129 -2.66657 0
M  V30 883 H 84.2467 3.70765 -3.33668 0
M  V30 884 H 83.4007 5.69962 -2.07914 0
M  V30 885 H 82.1397 4.69929 -1.30454 0
M  V30 886 H 81.1447 4.19522 -3.55361 0
M  V30 887 H 82.3697 5.22981 -4.33207 0
M  V30 888 H 80.3157 6.14917 -2.28502 0
M  V30 889 H 80.2327 6.41813 -3.99515 0
M  V30 890 H 81.5007 7.16506 -3.06984 0
M  V30 891 N 85.7298 1.2412 0.971189 0
M  V30 892 C 86.6628 0.97373 2.06382 0
M  V30 893 C 87.6408 -0.0912662 1.62344 0
M  V30 894 O 88.8248 0.0449365 1.88446 0
M  V30 895 C 85.9518 0.468746 3.35441 0
M  V30 896 C 84.9978 1.52176 3.98428 0
M  V30 897 S 85.8308 3.10203 4.36503 0
M  V30 898 C 86.9868 2.61398 5.68702 0
M  V30 899 H 87.2198 1.89893 2.28753 0
M  V30 900 H 84.7528 1.07466 1.10862 0
M  V30 901 H 86.7108 0.184012 4.10087 0
M  V30 902 H 85.3718 -0.435688 3.11064 0
M  V30 903 H 84.5648 1.11876 4.91426 0
M  V30 904 H 84.1668 1.75632 3.30196 0
M  V30 905 H 86.4588 2.03992 6.4606 0
M  V30 906 H 87.4018 3.52972 6.13854 0
M  V30 907 H 87.8098 2.01941 5.27143 0
M  V30 908 N 87.2079 -1.17134 1.05439 0
M  V30 909 C 88.4329 -1.91913 0.786396 0
M  V30 910 C 88.8579 -1.7643 -0.652234 0
M  V30 911 O 88.2159 -1.08372 -1.45345 0
M  V30 912 C 88.2639 -3.40921 1.17497 0
M  V30 913 O 87.3679 -4.11244 0.308589 0
M  V30 914 H 86.7089 -0.598215 0.288158 0
M  V30 915 H 89.2389 -1.48457 1.4079 0
M  V30 916 H 89.2489 -3.91668 1.14281 0
M  V30 917 H 87.9239 -3.5151 2.22292 0
M  V30 918 H 86.5009 -3.70731 0.40157 0
M  V30 919 N 88.686 -0.835752 -1.33615 0
M  V30 920 C 89.916 -0.442701 -2.01801 0
M  V30 921 C 90.324 0.959807 -1.63047 0
M  V30 922 O 89.667 1.63468 -0.838088 0
M  V30 923 C 89.729 -0.480125 -3.56279 0
M  V30 924 C 89.393 -1.8382 -4.18401 0
M  V30 925 C 90.39 -2.80097 -4.37998 0
M  V30 926 C 88.075 -2.13019 -4.54894 0
M  V30 927 C 90.069 -4.03736 -4.9323 0
M  V30 928 C 87.756 -3.36916 -5.09834 0
M  V30 929 C 88.754 -4.32091 -5.28948 0
M  V30 930 O 88.442 -5.53797 -5.82721 0
M  V30 931 H 88.174 -0.17441 -0.653114 0
M  V30 932 H 90.728 -1.129 -1.71589 0
M  V30 933 H 88.958 0.262931 -3.85805 0
M  V30 934 H 90.647 -0.105335 -4.05763 0
M  V30 935 H 91.413 -2.58838 -4.10156 0
M  V30 936 H 87.292 -1.39733 -4.39313 0
M  V30 937 H 90.836 -4.78034 -5.08064 0
M  V30 938 H 86.733 -3.58033 -5.37106 0
M  V30 939 H 87.501 -5.55494 -6.0114 0
M  V30 940 N 90.1641 1.46063 -0.591896 0
M  V30 941 C 91.3891 2.07226 -0.0850314 0
M  V30 942 C 91.8141 1.43625 1.21463 0
M  V30 943 O 91.1721 0.523305 1.73583 0
M  V30 944 C 91.2201 3.60554 0.0576567 0
M  V30 945 O 90.3241 3.97128 1.11188 0
M  V30 946 H 89.6651 0.660615 -0.0669568 0
M  V30 947 H 92.1951 1.8756 -0.81745 0
M  V30 948 H 92.2051 4.07165 0.2609 0
M  V30 949 H 90.8801 4.06235 -0.891416 0
M  V30 950 H 89.4571 3.62213 0.886356 0
M  V30 951 N 91.6422 0.330177 1.54103 0
M  V30 952 C 92.8902 -0.269871 2.0029 0
M  V30 953 C 93.2112 -1.52133 1.21986 0
M  V30 954 O 92.4812 -1.93212 0.323438 0
M  V30 955 H 91.0612 -0.10271 0.739905 0
M  V30 956 H 93.7232 0.448249 1.89675 0
M  V30 957 H 92.8192 -0.52166 3.07709 0
M  V30 958 N 93.1203 -1.57491 0.0584922 0
M  V30 959 C 94.0673 -2.11958 -0.913376 0
M  V30 960 C 95.0373 -1.02875 -1.30407 0
M  V30 961 O 96.2223 -1.30464 -1.39226 0
M  V30 962 C 93.3623 -2.67497 -2.18035 0
M  V30 963 C 92.4753 -3.90691 -1.84349 0
M  V30 964 C 91.6103 -4.3452 -3.05559 0
M  V30 965 C 90.6493 -5.50395 -2.67827 0
M  V30 966 N 89.7863 -5.89244 -3.81754 0
M  V30 967 H 94.6263 -2.94704 -0.442017 0
M  V30 968 H 92.1633 -1.45643 -0.206545 0
M  V30 969 H 94.1213 -2.978 -2.92183 0
M  V30 970 H 92.7513 -1.87537 -2.62735 0
M  V30 971 H 91.8033 -3.66934 -1.00319 0
M  V30 972 H 93.1153 -4.7489 -1.5258 0
M  V30 973 H 92.2693 -4.66414 -3.87998 0
M  V30 974 H 91.0083 -3.49147 -3.40511 0
M  V30 975 H 90.0133 -5.18165 -1.83806 0
M  V30 976 H 91.2383 -6.3749 -2.34059 0
M  V30 977 H 89.1843 -5.06823 -4.16493 0
M  V30 978 H 89.1013 -6.68151 -3.53708 0
M  V30 979 H 90.3693 -6.25756 -4.64811 0
M  V30 980 N 94.5984 0.214957 -1.56127 0
M  V30 981 C 95.5304 1.29004 -1.89448 0
M  V30 982 C 96.5434 1.42716 -0.783326 0
M  V30 983 O 97.7324 1.43496 -1.06166 0
M  V30 984 C 94.8324 2.66482 -2.09381 0
M  V30 985 C 94.0054 2.74633 -3.40434 0
M  V30 986 C 93.0644 3.9317 -3.49719 0
M  V30 987 O 92.0904 3.812 -4.227 0
M  V30 988 N 93.2924 5.07765 -2.81346 0
M  V30 989 H 96.0574 1.00743 -2.82261 0
M  V30 990 H 93.6184 0.40497 -1.56753 0
M  V30 991 H 95.6104 3.44173 -2.12901 0
M  V30 992 H 94.1804 2.87314 -1.23163 0
M  V30 993 H 93.4004 1.83368 -3.48955 0
M  V30 994 H 94.6884 2.77054 -4.26754 0
M  V30 995 H 94.0864 5.20386 -2.21843 0
M  V30 996 H 92.6434 5.83474 -2.90519 0
M  V30 997 N 96.0765 1.50051 0.48192 0
M  V30 998 C 97.3015 1.64508 1.26301 0
M  V30 999 C 97.7265 0.323851 1.85291 0
M  V30 1000 O 97.0845 -0.710969 1.66778 0
M  V30 1001 C 97.1325 2.7305 2.35533 0
M  V30 1002 O 96.2365 2.3355 3.39895 0
M  V30 1003 H 95.5775 0.549978 0.372048 0
M  V30 1004 H 98.1075 1.9636 0.574786 0
M  V30 1005 H 98.1175 2.95799 2.8101 0
M  V30 1006 H 96.7925 3.68946 1.91967 0
M  V30 1007 H 95.3695 2.21205 3.00204 0
M  V30 1008 N 97.5546 -0.734337 1.39446 0
M  V30 1009 C 98.5026 -1.86971 1.38364 0
M  V30 1010 C 99.4966 -1.67288 0.266687 0
M  V30 1011 O 100.703 -1.74621 0.436755 0
M  V30 1012 H 97.0776 -0.615474 0.432082 0
M  V30 1013 H 99.0486 -1.85 2.34132 0
M  V30 1014 C 97.7976 -3.2466 1.24465 0
M  V30 1015 H 97.1206 -3.40402 2.09682 0
M  V30 1016 H 98.5606 -4.04292 1.27764 0
M  V30 1017 C 97.0196 -3.36867 -0.0468674 0
M  V30 1018 O 97.5496 -3.88618 -1.01681 0
M  V30 1019 N 95.7556 -2.90391 -0.110145 0
M  V30 1020 H 95.3026 -2.48466 0.679868 0
M  V30 1021 H 95.2606 -2.98939 -0.973799 0
M  V30 1022 N 99.0327 -1.24633 -0.964593 0
M  V30 1023 C 99.9427 -1.05859 -2.09359 0
M  V30 1024 C 100.959 0.00148855 -1.74 0
M  V30 1025 O 102.135 -0.197346 -2.00431 0
M  V30 1026 C 99.1997 -0.668879 -3.40187 0
M  V30 1027 C 98.2607 -1.80578 -3.89474 0
M  V30 1028 C 97.4937 -1.43457 -5.14058 0
M  V30 1029 O 97.7167 -0.325775 -5.69469 0
M  V30 1030 O 96.6507 -2.2613 -5.57807 0
M  V30 1031 H 100.477 -2.00516 -2.28094 0
M  V30 1032 H 98.0617 -1.03481 -1.0776 0
M  V30 1033 H 99.9437 -0.463211 -4.18846 0
M  V30 1034 H 98.6187 0.248536 -3.22744 0
M  V30 1035 H 97.5257 -2.06623 -3.11862 0
M  V30 1036 H 98.8587 -2.70208 -4.11398 0
M  V30 1037 N 100.511 1.16574 -1.06058 0
M  V30 1038 C 101.458 2.20883 -0.669263 0
M  V30 1039 C 102.428 1.62729 0.332918 0
M  V30 1040 O 103.613 1.895 0.222346 0
M  V30 1041 C 100.753 3.45049 -0.0593572 0
M  V30 1042 C 99.8658 4.17458 -1.11143 0
M  V30 1043 C 99.0008 5.29135 -0.467916 0
M  V30 1044 C 98.0398 5.93343 -1.50369 0
M  V30 1045 N 97.1768 6.96516 -0.883706 0
M  V30 1046 H 102.017 2.53709 -1.5632 0
M  V30 1047 H 99.5538 1.24616 -0.781625 0
M  V30 1048 H 101.512 4.16033 0.311771 0
M  V30 1049 H 100.142 3.12781 0.797992 0
M  V30 1050 H 99.1938 3.45101 -1.60029 0
M  V30 1051 H 100.506 4.61307 -1.89731 0
M  V30 1052 H 99.6598 6.06684 -0.0436871 0
M  V30 1053 H 98.3988 4.86443 0.349864 0
M  V30 1054 H 97.4038 5.14517 -1.93784 0
M  V30 1055 H 98.6288 6.38114 -2.32352 0
M  V30 1056 H 96.5748 6.55943 -0.086595 0
M  V30 1057 H 96.4918 7.38723 -1.607 0
M  V30 1058 H 97.7598 7.77993 -0.484543 0
M  V30 1059 N 101.989 0.842826 1.3317 0
M  V30 1060 C 103.235 0.450342 1.98352 0
M  V30 1061 C 103.59 -0.980508 1.65541 0
M  V30 1062 O 102.883 -1.67678 0.927065 0
M  V30 1063 C 103.077 0.612607 3.52111 0
M  V30 1064 C 102.906 2.05768 3.99862 0
M  V30 1065 C 101.676 2.69374 4.27511 0
M  V30 1066 C 103.874 3.02688 4.15794 0
M  V30 1067 N 101.856 4.04915 4.61429 0
M  V30 1068 C 103.227 4.23186 4.53115 0
M  V30 1069 C 105.282 2.99041 3.98094 0
M  V30 1070 C 103.985 5.40518 4.74587 0
M  V30 1071 C 106.011 4.15607 4.20743 0
M  V30 1072 C 105.373 5.3486 4.58371 0
M  V30 1073 H 101.472 0.213296 0.752349 0
M  V30 1074 H 104.056 1.09173 1.61212 0
M  V30 1075 H 102.227 0.000998822 3.884 0
M  V30 1076 H 103.959 0.191179 4.04248 0
M  V30 1077 H 100.714 2.20485 4.19146 0
M  V30 1078 H 101.138 4.74798 4.82593 0
M  V30 1079 H 105.78 2.0797 3.68114 0
M  V30 1080 H 103.498 6.3213 5.03425 0
M  V30 1081 H 107.084 4.14207 4.08563 0
M  V30 1082 H 105.964 6.23558 4.75547 0
M  V30 1083 N 103.467 -1.45747 0.599634 0
M  V30 1084 C 104.399 -2.28628 -0.161879 0
M  V30 1085 C 105.412 -1.39494 -0.839367 0
M  V30 1086 O 106.601 -1.63941 -0.706089 0
M  V30 1087 C 103.701 -3.15014 -1.24976 0
M  V30 1088 C 102.874 -4.32378 -0.660935 0
M  V30 1089 C 101.933 -5.00033 -1.63869 0
M  V30 1090 O 100.959 -5.57085 -1.1681 0
M  V30 1091 N 102.161 -4.98589 -2.97303 0
M  V30 1092 H 104.926 -2.94624 0.549265 0
M  V30 1093 H 102.487 -1.55847 0.438565 0
M  V30 1094 H 104.479 -3.5714 -1.9035 0
M  V30 1095 H 103.049 -2.5098 -1.86354 0
M  V30 1096 H 102.269 -3.9383 0.170688 0
M  V30 1097 H 103.557 -5.08197 -0.247619 0
M  V30 1098 H 102.955 -4.53514 -3.38145 0
M  V30 1099 H 101.512 -5.44603 -3.58121 0
M  V30 1100 N 104.945 -0.338344 -1.53925 0
M  V30 1101 C 106.222 0.314774 -1.93051 0
M  V30 1102 C 106.602 1.68669 -1.26941 0
M  V30 1103 O 105.95 2.24636 -0.418445 0
M  V30 1104 C 106.16 0.392249 -3.46789 0
M  V30 1105 C 107.508 0.645554 -4.19664 0
M  V30 1106 O 108.532 0.474575 -3.53024 0
M  V30 1107 O 107.391 0.976408 -5.37707 0
M  V30 1108 H 104.485 0.182598 -0.80659 0
M  V30 1109 H 107.031 -0.389141 -1.65178 0
M  V30 1110 H 105.803 -0.570702 -3.87116 0
M  V30 1111 H 105.426 1.14316 -3.80812 0
M  V30 1112 N 106.423 1.57458 -0.0668435 0
M  V30 1113 C 107.672 1.92477 0.602947 0
M  V30 1114 C 107.985 0.948419 1.71068 0
M  V30 1115 O 109.191 1.19124 2.43971 0
M  V30 1116 C 107.647 3.41903 1.12383 0
M  V30 1117 C 107.255 4.47975 0.04737 0
M  V30 1118 C 108.999 3.85931 1.76797 0
M  V30 1119 C 106.906 5.88529 0.582022 0
M  V30 1120 H 105.836 0.718387 0.22899 0
M  V30 1121 H 108.487 1.82978 -0.138276 0
M  V30 1122 H 106.869 3.46459 1.91787 0
M  V30 1123 H 108.043 4.55029 -0.726978 0
M  V30 1124 H 106.358 4.13384 -0.500243 0
M  V30 1125 H 108.955 4.88322 2.17821 0
M  V30 1126 H 109.298 3.23029 2.62599 0
M  V30 1127 H 109.831 3.83958 1.04024 0
M  V30 1128 H 106.57 6.55065 -0.238721 0
M  V30 1129 H 106.09 5.85004 1.324 0
M  V30 1130 H 107.769 6.38258 1.05999 0
M  V30 1131 N 107.901 -0.206675 1.56239 0
M  V30 1132 C 109.15 -0.926964 1.79138 0
M  V30 1133 C 109.463 -1.84901 0.638043 0
M  V30 1134 O 110.669 -2.60906 0.751033 0
M  V30 1135 C 109.125 -1.6986 3.17294 0
M  V30 1136 C 108.733 -0.821956 4.40395 0
M  V30 1137 C 110.477 -2.40922 3.4951 0
M  V30 1138 C 108.384 -1.59179 5.69575 0
M  V30 1139 H 107.314 -0.349864 0.667915 0
M  V30 1140 H 109.965 -0.180487 1.8261 0
M  V30 1141 H 108.347 -2.48853 3.08039 0
M  V30 1142 H 109.521 -0.0715019 4.60745 0
M  V30 1143 H 107.836 -0.222741 4.15804 0
M  V30 1144 H 110.433 -2.99047 4.43255 0
M  V30 1145 H 110.776 -3.14542 2.72707 0
M  V30 1146 H 111.309 -1.68905 3.60161 0
M  V30 1147 H 108.048 -0.898589 6.49312 0
M  V30 1148 H 107.568 -2.31648 5.53262 0
M  V30 1149 H 109.247 -2.14862 6.10281 0
M  V30 1150 N 109.379 -1.50304 -0.473955 0
M  V30 1151 C 110.326 -1.68959 -1.57231 0
M  V30 1152 C 111.296 -0.530899 -1.57387 0
M  V30 1153 O 112.481 -0.761133 -1.74961 0
M  V30 1154 C 109.621 -1.7871 -2.95223 0
M  V30 1155 C 108.734 -3.06061 -3.04878 0
M  V30 1156 C 107.869 -3.06626 -4.33767 0
M  V30 1157 C 106.908 -4.28443 -4.37154 0
M  V30 1158 N 106.045 -4.26763 -5.5751 0
M  V30 1159 H 110.885 -2.6273 -1.40631 0
M  V30 1160 H 108.422 -1.30241 -0.683789 0
M  V30 1161 H 110.38 -1.82344 -3.75242 0
M  V30 1162 H 109.01 -0.883806 -3.10465 0
M  V30 1163 H 108.062 -3.11911 -2.17751 0
M  V30 1164 H 109.374 -3.96039 -3.0324 0
M  V30 1165 H 108.528 -3.08973 -5.22131 0
M  V30 1166 H 107.267 -2.14473 -4.3801 0
M  V30 1167 H 106.272 -4.2631 -3.47188 0
M  V30 1168 H 107.497 -5.2182 -4.34605 0
M  V30 1169 H 105.443 -3.37462 -5.62544 0
M  V30 1170 H 105.36 -5.10507 -5.57601 0
M  V30 1171 H 106.628 -4.33253 -6.48006 0
M  V30 1172 N 110.857 0.726932 -1.39834 0
M  V30 1173 C 111.767 1.87131 -1.41489 0
M  V30 1174 C 112.783 1.71239 -0.308757 0
M  V30 1175 O 113.959 1.93701 -0.551529 0
M  V30 1176 C 111.024 3.22811 -1.26468 0
M  V30 1177 C 110.085 3.51039 -2.47124 0
M  V30 1178 C 109.318 4.80245 -2.3281 0
M  V30 1179 O 109.541 5.54537 -1.33585 0
M  V30 1180 O 108.475 5.08554 -3.21957 0
M  V30 1181 H 112.301 1.8869 -2.3797 0
M  V30 1182 H 109.886 0.875837 -1.21035 0
M  V30 1183 H 111.768 4.03877 -1.20255 0
M  V30 1184 H 110.443 3.22005 -0.330862 0
M  V30 1185 H 109.35 2.70027 -2.58914 0
M  V30 1186 H 110.683 3.56632 -3.39227 0
M  V30 1187 N 112.336 1.25143 0.95797 0
M  V30 1188 C 113.582 1.09855 1.70469 0
M  V30 1189 C 113.915 -0.360187 1.90831 0
M  V30 1190 O 113.19 -1.26568 1.47685 0
M  V30 1191 C 113.473 1.8497 3.08963 0
M  V30 1192 C 113.326 3.38652 2.96032 0
M  V30 1193 C 114.645 1.63016 4.08795 0
M  V30 1194 H 111.764 0.400465 0.618706 0
M  V30 1195 H 114.406 1.53933 1.11376 0
M  V30 1196 H 112.556 1.47505 3.59409 0
M  V30 1197 H 114.228 3.85772 2.52938 0
M  V30 1198 H 112.471 3.66534 2.32025 0
M  V30 1199 H 113.142 3.8642 3.94187 0
M  V30 1200 H 115.618 1.95625 3.67247 0
M  V30 1201 H 114.494 2.18015 5.03747 0
M  V30 1202 H 114.755 0.570692 4.38401 0
M  V30 1203 N 113.814 -1.1601 1.06675 0
M  V30 1204 C 115.23 -1.38622 0.790948 0
M  V30 1205 C 115.43 -1.92109 -0.607965 0
M  V30 1206 O 114.486 -2.12239 -1.36787 0
M  V30 1207 C 115.799 -2.36347 1.85905 0
M  V30 1208 C 117.347 -2.50023 1.88301 0
M  V30 1209 C 117.822 -3.51033 2.94176 0
M  V30 1210 N 119.313 -3.58563 2.93235 0
M  V30 1211 C 120.048 -4.36521 3.71803 0
M  V30 1212 N 119.544 -5.17869 4.602 0
M  V30 1213 N 121.337 -4.31541 3.60178 0
M  V30 1214 H 113.488 -0.796294 1.96908 0
M  V30 1215 H 115.751 -0.412597 0.853503 0
M  V30 1216 H 115.457 -2.04147 2.86386 0
M  V30 1217 H 115.331 -3.36042 1.71334 0
M  V30 1218 H 117.718 -2.81524 0.884769 0
M  V30 1219 H 117.799 -1.5035 2.06951 0
M  V30 1220 H 117.443 -3.20268 3.94196 0
M  V30 1221 H 117.373 -4.50445 2.72776 0
M  V30 1222 H 119.864 -3.00496 2.29152 0
M  V30 1223 H 120.177 -5.74578 5.16797 0
M  V30 1224 H 118.522 -5.17199 4.64253 0
M  V30 1225 H 121.713 -3.67051 2.90502 0
M  V30 1226 H 121.886 -4.9205 4.21653 0
M  V30 1227 N 115.292 -0.849877 -1.32721 0
M  V30 1228 C 116.539 -0.450923 -1.97416 0
M  V30 1229 C 116.867 0.992376 -1.67279 0
M  V30 1230 O 116.122 1.71048 -0.950845 0
M  V30 1231 C 116.421 -0.631272 -3.51781 0
M  V30 1232 C 116.087 -2.04432 -4.01894 0
M  V30 1233 C 114.749 -2.4308 -4.1529 0
M  V30 1234 C 117.101 -2.96679 -4.28522 0
M  V30 1235 C 114.429 -3.73257 -4.52654 0
M  V30 1236 C 116.781 -4.26349 -4.67343 0
M  V30 1237 C 115.445 -4.64939 -4.78945 0
M  V30 1238 H 114.715 -0.165004 -0.722395 0
M  V30 1239 H 117.362 -1.07901 -1.58207 0
M  V30 1240 H 115.667 0.0800767 -3.91718 0
M  V30 1241 H 117.364 -0.302709 -3.99856 0
M  V30 1242 H 113.954 -1.73419 -3.91949 0
M  V30 1243 H 118.138 -2.68054 -4.17685 0
M  V30 1244 H 113.394 -4.02946 -4.59831 0
M  V30 1245 H 117.568 -4.97895 -4.86902 0
M  V30 1246 H 115.195 -5.65855 -5.07654 0
M  V30 1247 N 116.77 1.45427 -0.607355 0
M  V30 1248 C 117.7 2.3329 0.0989352 0
M  V30 1249 C 118.681 1.46816 0.859007 0
M  V30 1250 O 119.866 1.75588 0.829604 0
M  V30 1251 C 116.996 3.29518 1.09705 0
M  V30 1252 C 115.95 4.25626 0.450206 0
M  V30 1253 C 115.276 5.11542 1.55655 0
M  V30 1254 C 116.576 5.18505 -0.628455 0
M  V30 1255 H 118.27 2.92595 -0.634716 0
M  V30 1256 H 115.816 1.40696 -0.306681 0
M  V30 1257 H 117.769 3.89855 1.59971 0
M  V30 1258 H 116.493 2.68372 1.86129 0
M  V30 1259 H 115.152 3.66586 -0.0315886 0
M  V30 1260 H 114.8 4.46765 2.31107 0
M  V30 1261 H 114.5 5.76647 1.12925 0
M  V30 1262 H 116.024 5.74748 2.06148 0
M  V30 1263 H 117.438 5.72916 -0.209877 0
M  V30 1264 H 115.835 5.92085 -0.977489 0
M  V30 1265 H 116.905 4.60948 -1.50514 0
M  V30 1266 N 118.248 0.346503 1.53744 0
M  V30 1267 C 119.18 -0.543316 2.22667 0
M  V30 1268 C 120.193 -1.06159 1.23427 0
M  V30 1269 O 121.382 -0.971235 1.49764 0
M  V30 1270 C 118.482 -1.76076 2.89569 0
M  V30 1271 C 117.655 -1.37727 4.15151 0
M  V30 1272 C 116.714 -2.45471 4.65436 0
M  V30 1273 O 115.74 -2.08655 5.29577 0
M  V30 1274 N 116.942 -3.7677 4.41616 0
M  V30 1275 H 119.707 0.0469703 2.99663 0
M  V30 1276 H 117.268 0.170766 1.60997 0
M  V30 1277 H 119.26 -2.47593 3.20125 0
M  V30 1278 H 117.83 -2.25835 2.16142 0
M  V30 1279 H 117.05 -0.492746 3.91108 0
M  V30 1280 H 118.338 -1.09708 4.96832 0
M  V30 1281 H 117.736 -4.09467 3.90325 0
M  V30 1282 H 116.293 -4.44448 4.7677 0
M  V30 1283 N 119.726 -1.57421 0.075193 0
M  V30 1284 C 120.673 -2.12915 -0.890843 0
M  V30 1285 C 121.643 -1.04252 -1.29309 0
M  V30 1286 O 122.828 -1.31933 -1.37834 0
M  V30 1287 C 119.968 -2.69795 -2.15186 0
M  V30 1288 C 119.081 -3.92624 -1.80194 0
M  V30 1289 C 118.216 -4.37736 -3.00933 0
M  V30 1290 C 117.255 -5.53205 -2.61974 0
M  V30 1291 N 116.392 -5.9326 -3.75483 0
M  V30 1292 H 121.232 -2.95156 -0.410735 0
M  V30 1293 H 118.769 -1.45854 -0.191086 0
M  V30 1294 H 120.727 -3.00883 -2.89008 0
M  V30 1295 H 119.357 -1.90313 -2.60731 0
M  V30 1296 H 118.409 -3.67977 -0.964218 0
M  V30 1297 H 119.721 -4.76482 -1.47534 0
M  V30 1298 H 118.875 -4.70503 -3.8303 0
M  V30 1299 H 117.614 -3.52739 -3.36789 0
M  V30 1300 H 116.619 -5.20086 -1.783 0
M  V30 1301 H 117.844 -6.39936 -2.27284 0
M  V30 1302 H 115.79 -5.11212 -4.11094 0
M  V30 1303 H 115.707 -6.71865 -3.46602 0
M  V30 1304 H 116.975 -6.30651 -4.58148 0
M  V30 1305 N 121.204 0.198386 -1.56346 0
M  V30 1306 C 122.134 1.24865 -1.9731 0
M  V30 1307 C 123.115 1.47651 -0.844576 0
M  V30 1308 O 124.3 1.59444 -1.10866 0
M  V30 1309 C 121.43 2.59358 -2.30977 0
M  V30 1310 C 120.384 2.5119 -3.46537 0
M  V30 1311 C 119.71 3.89926 -3.65871 0
M  V30 1312 C 121.01 2.03977 -4.80823 0
M  V30 1313 H 122.704 0.908252 -2.85291 0
M  V30 1314 H 120.25 0.435462 -1.37258 0
M  V30 1315 H 122.203 3.33011 -2.58228 0
M  V30 1316 H 120.927 2.95132 -1.39874 0
M  V30 1317 H 119.586 1.79993 -3.19371 0
M  V30 1318 H 119.234 4.23046 -2.72105 0
M  V30 1319 H 118.934 3.85336 -4.4361 0
M  V30 1320 H 120.458 4.65205 -3.95495 0
M  V30 1321 H 121.872 2.67386 -5.07127 0
M  V30 1322 H 120.269 2.10397 -5.62008 0
M  V30 1323 H 121.339 0.992861 -4.74626 0
M  V30 1324 N 122.682 1.50554 0.465978 0
M  V30 1325 C 124.098 1.38093 0.800154 0
M  V30 1326 C 124.298 0.440988 1.96615 0
M  V30 1327 O 123.354 -0.114499 2.5224 0
M  V30 1328 C 124.667 2.79565 1.10742 0
M  V30 1329 C 126.215 2.88516 1.21357 0
M  V30 1330 C 126.69 4.30833 1.55393 0
M  V30 1331 N 128.181 4.33807 1.62375 0
M  V30 1332 C 128.916 5.40927 1.90225 0
M  V30 1333 N 128.412 6.58247 2.16062 0
M  V30 1334 N 130.205 5.28376 1.9177 0
M  V30 1335 H 122.356 2.10237 -0.302366 0
M  V30 1336 H 124.619 0.945203 -0.0727746 0
M  V30 1337 H 124.325 3.50208 0.323661 0
M  V30 1338 H 124.199 3.17125 2.04234 0
M  V30 1339 H 126.586 2.1809 1.98799 0
M  V30 1340 H 126.667 2.54492 0.258321 0
M  V30 1341 H 126.311 5.01799 0.784889 0
M  V30 1342 H 126.241 4.62347 2.52076 0
M  V30 1343 H 128.732 3.49212 1.44427 0
M  V30 1344 H 129.045 7.3569 2.36601 0
M  V30 1345 H 127.39 6.61413 2.13444 0
M  V30 1346 H 130.581 4.35715 1.71085 0
M  V30 1347 H 130.754 6.11944 2.13139 0
M  V30 1348 N 124.16 -0.719506 1.40217 0
M  V30 1349 C 125.11 -1.8251 1.36653 0
M  V30 1350 C 126.094 -1.59028 0.244732 0
M  V30 1351 O 127.286 -1.70268 0.483524 0
M  V30 1352 C 124.415 -3.20599 1.22763 0
M  V30 1353 C 123.501 -3.49858 2.39708 0
M  V30 1354 N 123.892 -3.49957 3.6519 0
M  V30 1355 C 122.19 -3.80297 2.33002 0
M  V30 1356 C 122.891 -3.77449 4.42614 0
M  V30 1357 N 121.867 -3.96002 3.72402 0
M  V30 1358 H 125.669 -1.80914 2.31619 0
M  V30 1359 H 123.183 -0.918455 1.33933 0
M  V30 1360 H 125.18 -3.99766 1.18292 0
M  V30 1361 H 123.84 -3.23424 0.287614 0
M  V30 1362 H 124.851 -3.309 3.98404 0
M  V30 1363 H 121.528 -3.90635 1.47346 0
M  V30 1364 H 122.918 -3.83863 5.51451 0
M  V30 1365 N 125.638 -1.25649 -0.95132 0
M  V30 1366 C 127.049 -1.09654 -1.51106 0
M  V30 1367 C 127.4 0.326615 -1.93462 0
M  V30 1368 O 126.525 1.21697 -1.78938 0
M  V30 1369 C 127.12 -1.98437 -2.74605 0
M  V30 1370 C 125.679 -1.86618 -3.2688 0
M  V30 1371 C 124.826 -1.9239 -1.99703 0
M  V30 1372 H 127.777 -1.38887 -0.767865 0
M  V30 1373 H 127.798 -1.5263 -3.48546 0
M  V30 1374 H 127.31 -3.02009 -2.43746 0
M  V30 1375 H 125.411 -0.859421 -3.62553 0
M  V30 1376 H 125.524 -2.71607 -3.94673 0
M  V30 1377 H 123.888 -1.36317 -2.15151 0
M  V30 1378 H 124.671 -2.97573 -1.71188 0
M  V30 1379 N 127.117 1.15442 -1.07289 0
M  V30 1380 C 128.065 2.22225 -0.686952 0
M  V30 1381 C 129.059 1.66688 0.30193 0
M  V30 1382 O 130.265 1.79236 0.165712 0
M  V30 1383 H 126.64 0.723783 -0.204064 0
M  V30 1384 H 128.611 2.52056 -1.5972 0
M  V30 1385 C 127.36 3.47556 -0.100149 0
M  V30 1386 H 126.683 3.90612 -0.852211 0
M  V30 1387 H 128.123 4.23794 0.132235 0
M  V30 1388 C 126.582 3.16337 1.159 0
M  V30 1389 O 127.112 3.33074 2.24555 0
M  V30 1390 N 125.318 2.70385 1.06491 0
M  V30 1391 H 124.865 2.56966 0.180668 0
M  V30 1392 H 124.823 2.49871 1.90819 0
M  V30 1393 N 128.595 0.856903 1.32268 0
M  V30 1394 C 129.823 0.475439 2.01363 0
M  V30 1395 C 130.238 -0.928486 1.64392 0
M  V30 1396 O 129.595 -1.60624 0.866387 0
M  V30 1397 C 129.646 0.607545 3.56358 0
M  V30 1398 O 129.367 1.95617 3.92002 0
M  V30 1399 C 130.868 0.225382 4.42727 0
M  V30 1400 H 128.088 0.186636 0.644521 0
M  V30 1401 H 130.632 1.15446 1.68797 0
M  V30 1402 H 128.787 -0.0237719 3.87393 0
M  V30 1403 H 129.201 1.95455 4.86721 0
M  V30 1404 H 130.675 0.368813 5.50767 0
M  V30 1405 H 131.152 -0.834369 4.31202 0
M  V30 1406 H 131.758 0.831864 4.17085 0
M  V30 1407 N 130.073 -1.45103 0.615059 0
M  V30 1408 C 131.322 -2.01396 0.110718 0
M  V30 1409 C 131.635 -1.48834 -1.26916 0
M  V30 1410 O 132.841 -1.97152 -1.86664 0
M  V30 1411 C 131.297 -3.59599 0.14723 0
M  V30 1412 C 130.905 -4.21158 1.52743 0
M  V30 1413 C 132.649 -4.23428 -0.30148 0
M  V30 1414 C 130.556 -5.71535 1.51992 0
M  V30 1415 H 129.486 -0.753061 0.0376241 0
M  V30 1416 H 132.137 -1.66494 0.77149 0
M  V30 1417 H 130.519 -3.91724 -0.580339 0
M  V30 1418 H 131.693 -4.00594 2.2773 0
M  V30 1419 H 130.008 -3.69552 1.91886 0
M  V30 1420 H 132.605 -5.33703 -0.326392 0
M  V30 1421 H 132.948 -3.94629 -1.32565 0
M  V30 1422 H 133.481 -3.96047 0.373065 0
M  V30 1423 H 130.22 -6.05044 2.52193 0
M  V30 1424 H 129.74 -5.94268 0.81274 0
M  V30 1425 H 131.419 -6.34873 1.24681 0
M  V30 1426 N 131.551 -0.354651 -1.53558 0
M  V30 1427 C 132.483 0.5315 -2.22952 0
M  V30 1428 C 133.496 1.05503 -1.23988 0
M  V30 1429 O 134.685 0.963279 -1.50277 0
M  V30 1430 C 131.785 1.74538 -2.90499 0
M  V30 1431 C 130.958 1.35524 -4.15875 0
M  V30 1432 C 130.017 2.42999 -4.66731 0
M  V30 1433 O 129.043 2.05844 -5.30676 0
M  V30 1434 N 130.245 3.74423 -4.43608 0
M  V30 1435 H 133.01 -0.0628615 -2.99634 0
M  V30 1436 H 130.571 -0.179302 -1.60904 0
M  V30 1437 H 132.563 2.45892 -3.21433 0
M  V30 1438 H 131.133 2.24686 -2.17336 0
M  V30 1439 H 130.353 0.471998 -3.91364 0
M  V30 1440 H 131.641 1.07071 -4.97406 0
M  V30 1441 H 131.039 4.07391 -3.92491 0
M  V30 1442 H 129.596 4.41913 -4.7912 0
M  V30 1443 N 133.029 1.57378 -0.0835403 0
M  V30 1444 C 134.259 1.97975 0.590713 0
M  V30 1445 C 134.667 0.961083 1.62972 0
M  V30 1446 O 134.01 -0.0590879 1.83605 0
M  V30 1447 C 134.072 3.34915 1.3066 0
M  V30 1448 C 133.736 4.55069 0.419698 0
M  V30 1449 C 134.733 5.18868 -0.32749 0
M  V30 1450 C 132.418 5.0114 0.341137 0
M  V30 1451 C 134.412 6.27098 -1.14134 0
M  V30 1452 C 132.099 6.0924 -0.476374 0
M  V30 1453 C 133.097 6.72083 -1.21627 0
M  V30 1454 O 132.785 7.781 -2.02028 0
M  V30 1455 H 132.517 0.655818 0.163947 0
M  V30 1456 H 135.071 2.04807 -0.156021 0
M  V30 1457 H 133.301 3.24733 2.09966 0
M  V30 1458 H 134.99 3.60037 1.87424 0
M  V30 1459 H 135.756 4.84211 -0.276459 0
M  V30 1460 H 131.635 4.51996 0.90668 0
M  V30 1461 H 135.179 6.7608 -1.71935 0
M  V30 1462 H 131.076 6.43329 -0.528927 0
M  V30 1463 H 131.844 7.95034 -1.94586 0
M  V30 1464 N 134.507 -0.190092 1.56449 0
M  V30 1465 C 135.923 -0.54113 1.50146 0
M  V30 1466 C 136.123 -1.85603 0.784465 0
M  V30 1467 O 135.179 -2.5024 0.337051 0
M  V30 1468 C 136.492 -0.591241 2.9483 0
M  V30 1469 C 138.04 -0.679732 3.0553 0
M  V30 1470 C 138.515 -0.760908 4.51635 0
M  V30 1471 N 140.006 -0.824302 4.55806 0
M  V30 1472 C 140.741 -0.907365 5.66175 0
M  V30 1473 N 140.237 -0.952422 6.86222 0
M  V30 1474 N 142.03 -0.94494 5.541 0
M  V30 1475 H 134.181 0.67235 2.01478 0
M  V30 1476 H 136.444 0.240127 0.917084 0
M  V30 1477 H 136.15 0.305905 3.50367 0
M  V30 1478 H 136.024 -1.44422 3.48457 0
M  V30 1479 H 138.411 -1.56731 2.50039 0
M  V30 1480 H 138.492 0.199549 2.5502 0
M  V30 1481 H 138.136 0.122336 5.07753 0
M  V30 1482 H 138.066 -1.65606 4.99882 0
M  V30 1483 H 140.557 -0.798526 3.69367 0
M  V30 1484 H 140.87 -1.01645 7.66086 0
M  V30 1485 H 139.215 -0.921014 6.8887 0
M  V30 1486 H 142.406 -0.906612 4.59236 0
M  V30 1487 H 142.579 -1.00622 6.4014 0
M  V30 1488 N 135.985 -1.50799 -0.457987 0
M  V30 1489 C 137.233 -1.62121 -1.2067 0
M  V30 1490 C 137.554 -0.329793 -1.92191 0
M  V30 1491 O 136.824 0.653409 -1.84682 0
M  V30 1492 H 135.404 -0.597441 -0.448411 0
M  V30 1493 H 138.066 -1.87637 -0.527096 0
M  V30 1494 H 137.162 -2.43882 -1.94751 0
M  V30 1495 N 137.463 0.71206 -1.40597 0
M  V30 1496 C 138.703 1.48438 -1.40519 0
M  V30 1497 C 139.067 1.91998 -0.00767611 0
M  V30 1498 O 140.268 2.6854 0.118239 0
M  V30 1499 C 138.539 2.67514 -2.37004 0
M  V30 1500 S 140.098 3.56875 -2.55315 0
M  V30 1501 H 136.916 0.507457 -0.498005 0
M  V30 1502 H 139.518 0.832355 -1.76896 0
M  V30 1503 H 138.222 2.33689 -3.37368 0
M  V30 1504 H 137.753 3.37625 -2.01923 0
M  V30 1505 H 139.768 4.62081 -1.8082 0
M  V30 1506 N 138.941 1.26152 0.944643 0
M  V30 1507 C 140.171 1.14094 1.72239 0
M  V30 1508 C 140.579 -0.306931 1.86694 0
M  V30 1509 O 139.922 -1.22222 1.3714 0
M  V30 1510 C 139.984 1.73316 3.14963 0
M  V30 1511 C 139.648 3.2239 3.23904 0
M  V30 1512 C 140.645 4.19252 3.07447 0
M  V30 1513 C 138.33 3.62788 3.47405 0
M  V30 1514 C 140.324 5.54491 3.14353 0
M  V30 1515 C 138.011 4.98162 3.53947 0
M  V30 1516 C 139.009 5.93823 3.37436 0
M  V30 1517 O 138.697 7.26732 3.43679 0
M  V30 1518 H 138.429 0.398292 0.546205 0
M  V30 1519 H 140.983 1.67201 1.19301 0
M  V30 1520 H 139.213 1.14667 3.69308 0
M  V30 1521 H 140.902 1.56214 3.74636 0
M  V30 1522 H 141.668 3.8938 2.8915 0
M  V30 1523 H 137.547 2.88816 3.59313 0
M  V30 1524 H 141.091 6.29137 3.01384 0
M  V30 1525 H 136.988 5.27695 3.71763 0
M  V30 1526 H 137.756 7.3496 3.60245 0
M  V30 1527 N 140.419 -1.14872 1.07899 0
M  V30 1528 C 141.349 -2.2193 0.725887 0
M  V30 1529 C 142.33 -1.67622 -0.28927 0
M  V30 1530 O 143.515 -1.93533 -0.160787 0
M  V30 1531 C 140.645 -3.47061 0.128856 0
M  V30 1532 C 139.599 -4.14363 1.07178 0
M  V30 1533 C 138.925 -5.33636 0.337229 0
M  V30 1534 C 140.225 -4.63492 2.40775 0
M  V30 1535 H 141.919 -2.51724 1.62097 0
M  V30 1536 H 139.465 -1.20991 0.780838 0
M  V30 1537 H 141.418 -4.21199 -0.130147 0
M  V30 1538 H 140.142 -3.16617 -0.80134 0
M  V30 1539 H 138.801 -3.42173 1.3158 0
M  V30 1540 H 138.449 -4.99449 -0.596606 0
M  V30 1541 H 138.149 -5.79609 0.965788 0
M  V30 1542 H 139.673 -6.10539 0.0861567 0
M  V30 1543 H 141.087 -5.2913 2.20669 0
M  V30 1544 H 139.484 -5.20148 2.99276 0
M  V30 1545 H 140.554 -3.78834 3.02676 0
M  V30 1546 N 141.898 -0.863906 -1.31812 0
M  V30 1547 C 143.314 -0.555004 -1.49639 0
M  V30 1548 C 143.514 0.912266 -1.79666 0
M  V30 1549 O 142.57 1.69479 -1.87171 0
M  V30 1550 C 143.883 -1.44998 -2.63431 0
M  V30 1551 C 145.431 -1.45138 -2.77316 0
M  V30 1552 C 145.906 -2.33179 -3.94197 0
M  V30 1553 N 147.397 -2.31025 -4.01474 0
M  V30 1554 C 148.132 -2.95871 -4.9117 0
M  V30 1555 N 147.628 -3.69863 -5.8581 0
M  V30 1556 N 149.421 -2.85211 -4.84367 0
M  V30 1557 H 141.572 -1.81339 -1.10589 0
M  V30 1558 H 143.835 -0.77505 -0.545895 0
M  V30 1559 H 143.541 -2.49377 -2.48 0
M  V30 1560 H 143.415 -1.14409 -3.59431 0
M  V30 1561 H 145.802 -0.415201 -2.92164 0
M  V30 1562 H 145.883 -1.79747 -1.82001 0
M  V30 1563 H 145.527 -3.3687 -3.80107 0
M  V30 1564 H 145.457 -1.95897 -4.88807 0
M  V30 1565 H 147.948 -1.77238 -3.33759 0
M  V30 1566 H 148.261 -4.16486 -6.50968 0
M  V30 1567 H 146.606 -3.73971 -5.85808 0
M  V30 1568 H 149.797 -2.26948 -4.09405 0
M  V30 1569 H 149.97 -3.36027 -5.54066 0
M  V30 1570 N 143.376 1.44774 -0.622745 0
M  V30 1571 C 144.286 2.34433 0.0886031 0
M  V30 1572 C 145.302 1.52131 0.844529 0
M  V30 1573 O 146.478 1.84886 0.798691 0
M  V30 1574 C 143.543 3.29986 1.0635 0
M  V30 1575 C 142.604 4.28195 0.307873 0
M  V30 1576 C 141.837 5.19183 1.23633 0
M  V30 1577 O 142.06 5.13918 2.47476 0
M  V30 1578 O 140.994 5.97515 0.725189 0
M  V30 1579 H 144.82 2.96693 -0.648599 0
M  V30 1580 H 142.405 1.44408 -0.382957 0
M  V30 1581 H 144.287 3.88825 1.6246 0
M  V30 1582 H 142.962 2.70269 1.78146 0
M  V30 1583 H 141.869 3.72927 -0.296064 0
M  V30 1584 H 143.202 4.90808 -0.3699 0
M  V30 1585 N 144.854 0.36279 1.53368 0
M  V30 1586 C 145.804 -0.501391 2.22419 0
M  V30 1587 C 146.788 -1.0509 1.2184 0
M  V30 1588 O 147.98 -0.981404 1.47301 0
M  V30 1589 C 145.109 -1.64201 3.01484 0
M  V30 1590 C 144.195 -1.10552 4.09438 0
M  V30 1591 N 144.586 -0.291788 5.04958 0
M  V30 1592 C 142.884 -1.3806 4.24094 0
M  V30 1593 C 143.585 0.00162655 5.817 0
M  V30 1594 N 142.561 -0.595244 5.40331 0
M  V30 1595 H 146.363 0.127159 2.93625 0
M  V30 1596 H 143.877 0.170658 1.61501 0
M  V30 1597 H 145.874 -2.27326 3.49469 0
M  V30 1598 H 144.534 -2.27365 2.31809 0
M  V30 1599 H 145.545 0.0687731 5.17854 0
M  V30 1600 H 142.222 -2.01522 3.65644 0
M  V30 1601 H 143.612 0.659278 6.68658 0
M  V30 1602 N 146.332 -1.57332 0.0918853 0
M  V30 1603 C 147.56 -1.98574 -0.581048 0
M  V30 1604 C 147.975 -0.970903 -1.61923 0
M  V30 1605 O 147.332 0.0399054 -1.82456 0
M  V30 1606 C 147.383 -3.39872 -1.23164 0
M  V30 1607 O 147.104 -4.37469 -0.234989 0
M  V30 1608 C 148.605 -3.96099 -1.99049 0
M  V30 1609 H 145.825 -0.65261 -0.156018 0
M  V30 1610 H 148.369 -2.0379 0.170225 0
M  V30 1611 H 146.524 -3.35679 -1.93386 0
M  V30 1612 H 146.938 -5.19751 -0.70418 0
M  V30 1613 H 148.412 -4.97127 -2.39934 0
M  V30 1614 H 148.889 -3.3374 -2.85507 0
M  V30 1615 H 149.495 -4.03755 -1.3365 0
M  V30 1616 N 147.81 0.181792 -1.56548 0
M  V30 1617 C 148.773 1.20894 -1.94724 0
M  V30 1618 C 149.773 1.37738 -0.829747 0
M  V30 1619 O 150.963 1.35323 -1.09697 0
M  V30 1620 C 148.095 2.57593 -2.23291 0
M  V30 1621 H 149.288 0.882275 -2.86629 0
M  V30 1622 H 146.841 0.423838 -1.50444 0
M  V30 1623 H 147.576 2.95291 -1.34067 0
M  V30 1624 H 147.361 2.46735 -3.04736 0
M  V30 1625 H 148.851 3.31637 -2.53785 0
M  V30 1626 N 149.288 1.51039 0.449983 0
M  V30 1627 C 150.534 1.64287 1.19923 0
M  V30 1628 C 150.889 0.348701 1.89214 0
M  V30 1629 O 150.182 -0.654751 1.80065 0
M  V30 1630 C 150.376 2.77556 2.25161 0
M  V30 1631 C 150.205 4.17862 1.66198 0
M  V30 1632 C 148.975 4.83976 1.45243 0
M  V30 1633 C 151.173 5.01388 1.14519 0
M  V30 1634 N 149.155 6.08433 0.817437 0
M  V30 1635 C 150.526 6.16743 0.634705 0
M  V30 1636 C 152.581 4.87008 1.03574 0
M  V30 1637 C 151.284 7.19295 0.0255452 0
M  V30 1638 C 153.31 5.89757 0.440489 0
M  V30 1639 C 152.672 7.04375 -0.0595112 0
M  V30 1640 H 148.771 0.655161 0.426952 0
M  V30 1641 H 151.355 1.88228 0.49781 0
M  V30 1642 H 149.526 2.553 2.92706 0
M  V30 1643 H 151.258 2.80049 2.92155 0
M  V30 1644 H 148.013 4.41627 1.71063 0
M  V30 1645 H 148.437 6.75017 0.517747 0
M  V30 1646 H 153.079 3.9866 1.4082 0
M  V30 1647 H 150.797 8.07302 -0.359071 0
M  V30 1648 H 154.383 5.80698 0.35788 0
M  V30 1649 H 153.263 7.82521 -0.512882 0
M  V30 1650 N 150.766 -0.704594 1.40972 0
M  V30 1651 C 151.696 -1.83124 1.44872 0
M  V30 1652 C 152.677 -1.67281 0.30838 0
M  V30 1653 O 153.862 -1.87149 0.518556 0
M  V30 1654 C 150.992 -3.21181 1.32136 0
M  V30 1655 C 149.946 -3.51714 2.43888 0
M  V30 1656 C 149.272 -4.89032 2.16222 0
M  V30 1657 C 150.572 -3.516 3.86232 0
M  V30 1658 H 152.266 -1.80117 2.39161 0
M  V30 1659 H 149.812 -0.865145 1.15114 0
M  V30 1660 H 151.765 -3.99702 1.33479 0
M  V30 1661 H 150.489 -3.24791 0.343279 0
M  V30 1662 H 149.148 -2.75539 2.41813 0
M  V30 1663 H 148.796 -4.89256 1.16778 0
M  V30 1664 H 148.496 -5.10426 2.911 0
M  V30 1665 H 150.02 -5.69873 2.19265 0
M  V30 1666 H 151.434 -4.2014 3.9007 0
M  V30 1667 H 149.831 -3.84523 4.60719 0
M  V30 1668 H 150.901 -2.50757 4.15029 0
M  V30 1669 N 152.244 -1.26651 -0.937939 0
M  V30 1670 C 153.49 -1.12553 -1.687 0
M  V30 1671 C 153.823 0.329782 -1.91379 0
M  V30 1672 O 153.098 1.24202 -1.4968 0
M  V30 1673 C 153.381 -1.89862 -3.05981 0
M  V30 1674 C 153.234 -3.43318 -2.90607 0
M  V30 1675 C 154.553 -1.69499 -4.0615 0
M  V30 1676 H 151.672 -0.410257 -0.612257 0
M  V30 1677 H 154.314 -1.55685 -1.08913 0
M  V30 1678 H 152.464 -1.53204 -3.57017 0
M  V30 1679 H 154.136 -3.89747 -2.46769 0
M  V30 1680 H 152.379 -3.70179 -2.26164 0
M  V30 1681 H 153.05 -3.92642 -3.8799 0
M  V30 1682 H 155.526 -2.01442 -3.64088 0
M  V30 1683 H 154.402 -2.26002 -5.00214 0
M  V30 1684 H 154.663 -0.640365 -4.37438 0
M  V30 1685 N 153.722 1.14298 -1.08507 0
M  V30 1686 C 154.655 2.18447 -0.660004 0
M  V30 1687 C 155.633 1.59242 0.328749 0
M  V30 1688 O 156.817 1.87062 0.232367 0
M  V30 1689 C 153.944 3.38688 0.0290807 0
M  V30 1690 C 152.99 4.1646 -0.919982 0
M  V30 1691 S 153.823 4.77334 -2.42718 0
M  V30 1692 C 154.979 6.00931 -1.75024 0
M  V30 1693 H 155.212 2.54166 -1.54231 0
M  V30 1694 H 152.745 1.25446 -0.900149 0
M  V30 1695 H 154.703 4.08342 0.420378 0
M  V30 1696 H 153.364 3.01289 0.887895 0
M  V30 1697 H 152.557 5.02529 -0.384751 0
M  V30 1698 H 152.159 3.52414 -1.25223 0
M  V30 1699 H 154.451 6.69017 -1.06877 0
M  V30 1700 H 155.394 6.59044 -2.58971 0
M  V30 1701 H 155.802 5.51089 -1.22317 0
M  V30 1702 N 155.201 0.870884 1.31352 0
M  V30 1703 C 156.111 0.330783 2.32256 0
M  V30 1704 C 157.127 -0.559767 1.6475 0
M  V30 1705 O 158.303 -0.456263 1.96164 0
M  V30 1706 C 155.368 -0.458137 3.4366 0
M  V30 1707 C 154.429 0.460482 4.26823 0
M  V30 1708 C 153.662 -0.290881 5.32907 0
M  V30 1709 O 153.885 -1.51885 5.49806 0
M  V30 1710 O 152.819 0.351732 6.00871 0
M  V30 1711 H 156.645 1.16718 2.80376 0
M  V30 1712 H 154.23 0.634285 1.35267 0
M  V30 1713 H 156.112 -0.905343 4.1156 0
M  V30 1714 H 154.787 -1.27106 2.97701 0
M  V30 1715 H 153.694 0.956207 3.61673 0
M  V30 1716 H 155.027 1.23903 4.7635 0
M  V30 1717 N 156.679 -1.44442 0.630414 0
M  V30 1718 C 157.909 -2.06115 0.141465 0
M  V30 1719 C 158.317 -1.47179 -1.1889 0
M  V30 1720 O 157.66 -0.588873 -1.74006 0
M  V30 1721 C 157.722 -3.59467 -0.0484355 0
M  V30 1722 C 157.386 -4.40864 1.20366 0
M  V30 1723 C 158.383 -4.74391 2.12719 0
M  V30 1724 C 156.068 -4.8125 1.43887 0
M  V30 1725 C 158.062 -5.47186 3.26904 0
M  V30 1726 C 155.749 -5.53795 2.5837 0
M  V30 1727 C 156.747 -5.86682 3.49705 0
M  V30 1728 O 156.435 -6.57749 4.62191 0
M  V30 1729 H 156.167 -0.671648 0.0765792 0
M  V30 1730 H 158.721 -1.86312 0.864695 0
M  V30 1731 H 156.951 -3.77758 -0.826803 0
M  V30 1732 H 158.64 -4.02909 -0.491849 0
M  V30 1733 H 159.406 -4.43728 1.95781 0
M  V30 1734 H 155.285 -4.55073 0.736853 0
M  V30 1735 H 158.829 -5.72773 3.98217 0
M  V30 1736 H 154.726 -5.83872 2.75251 0
M  V30 1737 H 155.494 -6.76217 4.61164 0
M  V30 1738 N 158.157 -0.370918 -1.53173 0
M  V30 1739 C 159.397 0.217106 -2.03244 0
M  V30 1740 C 159.761 1.45558 -1.25207 0
M  V30 1741 O 160.962 2.11957 -1.65311 0
M  V30 1742 C 159.233 0.496664 -3.53932 0
M  V30 1743 S 160.792 1.0576 -4.25864 0
M  V30 1744 H 157.61 0.0627827 -0.708223 0
M  V30 1745 H 160.212 -0.515019 -1.88594 0
M  V30 1746 H 158.916 -0.412096 -4.08326 0
M  V30 1747 H 158.447 1.25772 -3.72753 0
M  V30 1748 H 160.462 2.34145 -4.37482 0
M  V30 1749 N 159.635 1.57281 -0.100228 0
M  V30 1750 C 160.565 2.17328 0.853857 0
M  V30 1751 C 161.546 1.10804 1.2906 0
M  V30 1752 O 162.731 1.38963 1.35657 0
M  V30 1753 C 159.861 2.75772 2.11109 0
M  V30 1754 C 158.815 3.87713 1.81279 0
M  V30 1755 C 158.141 4.32882 3.13874 0
M  V30 1756 C 159.441 5.10677 1.09574 0
M  V30 1757 H 161.135 2.97305 0.353545 0
M  V30 1758 H 158.681 1.43009 0.168612 0
M  V30 1759 H 160.634 3.16433 2.78296 0
M  V30 1760 H 159.358 1.93057 2.63432 0
M  V30 1761 H 158.017 3.476 1.16489 0
M  V30 1762 H 157.665 3.47051 3.64095 0
M  V30 1763 H 157.365 5.08358 2.94696 0
M  V30 1764 H 158.889 4.7618 3.82211 0
M  V30 1765 H 160.303 5.48474 1.66879 0
M  V30 1766 H 158.7 5.91615 1.00557 0
M  V30 1767 H 159.77 4.84835 0.0793299 0
M  V30 1768 N 161.113 -0.173488 1.56642 0
M  V30 1769 C 162.361 -0.888706 1.81512 0
M  V30 1770 C 162.682 -1.82875 0.676872 0
M  V30 1771 O 161.952 -1.93536 -0.303414 0
M  V30 1772 H 160.532 -0.331164 0.669582 0
M  V30 1773 H 163.194 -0.173823 1.94123 0
M  V30 1774 H 162.29 -1.46691 2.75478 0
M  V30 1775 N 162.591 -1.51276 -0.441967 0
M  V30 1776 C 163.816 -1.67799 -1.21895 0
M  V30 1777 C 164.241 -0.372864 -1.84367 0
M  V30 1778 O 163.599 0.666501 -1.68604 0
M  V30 1779 C 163.647 -2.79199 -2.28211 0
M  V30 1780 O 162.751 -2.42479 -3.33583 0
M  V30 1781 H 162.092 -0.559649 -0.357336 0
M  V30 1782 H 164.622 -1.97815 -0.522522 0
M  V30 1783 H 164.632 -3.03146 -2.73069 0
M  V30 1784 H 163.307 -3.73906 -1.82118 0
M  V30 1785 H 161.884 -2.29087 -2.94234 0
M  V30 1786 N 164.069 0.697108 -1.41344 0
M  V30 1787 C 165.032 1.79281 -1.42797 0
M  V30 1788 C 166.032 1.57607 -0.318837 0
M  V30 1789 O 167.222 1.64309 -0.578642 0
M  V30 1790 C 164.354 3.17632 -1.23785 0
M  V30 1791 H 165.547 1.79385 -2.40335 0
M  V30 1792 H 163.1 0.904582 -1.27464 0
M  V30 1793 H 163.835 3.23167 -0.270814 0
M  V30 1794 H 163.62 3.34765 -2.04144 0
M  V30 1795 H 165.11 3.97617 -1.27633 0
M  V30 1796 N 165.547 1.27147 0.931209 0
M  V30 1797 C 166.772 1.16191 1.71797 0
M  V30 1798 C 167.197 -0.278004 1.86034 0
M  V30 1799 O 166.555 -1.20137 1.35782 0
M  V30 1800 C 166.603 1.84673 3.09723 0
M  V30 1801 O 165.707 1.14231 3.96264 0
M  V30 1802 H 165.048 0.404303 0.526721 0
M  V30 1803 H 167.578 1.68152 1.1656 0
M  V30 1804 H 167.588 1.91893 3.60057 0
M  V30 1805 H 166.263 2.89421 2.98677 0
M  V30 1806 H 164.84 1.15056 3.54706 0
M  V30 1807 N 167.025 -1.13721 1.09112 0
M  V30 1808 C 168.302 -1.81155 0.737706 0
M  V30 1809 C 168.682 -1.96253 -0.777683 0
M  V30 1810 O 168.03 -1.52807 -1.69889 0
M  V30 1811 C 168.24 -3.16392 1.47299 0
M  V30 1812 C 169.588 -3.91787 1.63671 0
M  V30 1813 O 170.612 -3.26005 1.43524 0
M  V30 1814 O 169.471 -5.0977 1.96969 0
M  V30 1815 H 166.565 -0.783518 0.26463 0
M  V30 1816 H 169.111 -1.20676 1.19312 0
M  V30 1817 H 167.883 -3.0061 2.50498 0
M  V30 1818 H 167.506 -3.8457 1.00953 0
M  V30 1819 N 168.503 -0.877838 -1.30888 0
M  V30 1820 C 169.433 -0.35534 -2.3078 0
M  V30 1821 C 170.414 0.557994 -1.60687 0
M  V30 1822 O 171.599 0.473355 -1.88343 0
M  V30 1823 C 168.729 0.437221 -3.44537 0
M  V30 1824 C 167.683 -0.383715 -4.26276 0
M  V30 1825 C 167.009 0.535014 -5.32017 0
M  V30 1826 C 168.309 -1.62201 -4.96476 0
M  V30 1827 H 170.003 -1.19007 -2.74732 0
M  V30 1828 H 167.549 -0.573698 -1.32078 0
M  V30 1829 H 169.502 0.813334 -4.13477 0
M  V30 1830 H 168.226 1.30553 -2.99372 0
M  V30 1831 H 166.885 -0.741874 -3.59015 0
M  V30 1832 H 166.533 1.40083 -4.831 0
M  V30 1833 H 166.233 -0.0104211 -5.87599 0
M  V30 1834 H 167.757 0.907799 -6.03814 0
M  V30 1835 H 169.171 -1.31689 -5.5797 0
M  V30 1836 H 167.568 -2.10711 -5.61891 0
M  V30 1837 H 168.638 -2.37044 -4.23011 0
M  V30 1838 N 169.982 1.44106 -0.638065 0
M  V30 1839 C 170.912 2.33448 0.0494287 0
M  V30 1840 C 171.893 1.48606 0.827672 0
M  V30 1841 O 173.078 1.77308 0.792173 0
M  V30 1842 C 170.208 3.31771 1.02691 0
M  V30 1843 C 169.162 4.26485 0.359823 0
M  V30 1844 C 168.488 5.14729 1.44769 0
M  V30 1845 C 169.788 5.17056 -0.738296 0
M  V30 1846 H 171.482 2.91183 -0.696636 0
M  V30 1847 H 169.028 1.40014 -0.336456 0
M  V30 1848 H 170.981 3.93161 1.51666 0
M  V30 1849 H 169.705 2.7226 1.80395 0
M  V30 1850 H 168.364 3.66437 -0.10934 0
M  V30 1851 H 168.012 4.51566 2.21578 0
M  V30 1852 H 167.712 5.78913 1.00668 0
M  V30 1853 H 169.236 5.78991 1.93911 0
M  V30 1854 H 170.65 5.72342 -0.331354 0
M  V30 1855 H 169.047 5.89879 -1.10286 0
M  V30 1856 H 170.117 4.57652 -1.60258 0
M  V30 1857 N 171.46 0.379036 1.52974 0
M  V30 1858 C 172.37 -0.468639 2.29872 0
M  V30 1859 C 173.386 -1.08067 1.36373 0
M  V30 1860 O 174.562 -1.08871 1.69438 0
M  V30 1861 C 171.627 -1.58594 3.083 0
M  V30 1862 C 170.688 -1.00007 4.17489 0
M  V30 1863 C 169.921 -2.06413 4.92168 0
M  V30 1864 O 170.144 -3.27751 4.66835 0
M  V30 1865 O 169.078 -1.68717 5.7777 0
M  V30 1866 H 172.904 0.157508 3.03291 0
M  V30 1867 H 170.489 0.143035 1.48714 0
M  V30 1868 H 172.371 -2.23525 3.57232 0
M  V30 1869 H 171.046 -2.19724 2.37703 0
M  V30 1870 H 169.953 -0.314299 3.72777 0
M  V30 1871 H 171.286 -0.433135 4.90291 0
M  V30 1872 N 172.938 -1.57226 0.108567 0
M  V30 1873 C 174.184 -1.95121 -0.552761 0
M  V30 1874 C 174.517 -0.991345 -1.66991 0
M  V30 1875 O 173.792 -0.0267211 -1.94482 0
M  V30 1876 C 174.075 -3.43039 -1.09528 0
M  V30 1877 C 173.928 -4.49797 0.0177332 0
M  V30 1878 C 175.247 -3.92567 -1.98945 0
M  V30 1879 H 172.366 -0.709496 -0.199461 0
M  V30 1880 H 175.008 -1.89126 0.182011 0
M  V30 1881 H 173.158 -3.48279 -1.72146 0
M  V30 1882 H 174.83 -4.56661 0.652584 0
M  V30 1883 H 173.073 -4.284 0.682309 0
M  V30 1884 H 173.744 -5.50528 -0.402919 0
M  V30 1885 H 176.22 -3.89565 -1.46214 0
M  V30 1886 H 175.096 -4.96605 -2.33827 0
M  V30 1887 H 175.357 -3.32648 -2.91201 0
M  V30 1888 N 174.416 0.165178 -1.56732 0
M  V30 1889 C 175.366 1.20917 -1.93295 0
M  V30 1890 C 176.35 1.39488 -0.801985 0
M  V30 1891 O 177.542 1.41356 -1.06525 0
M  V30 1892 C 174.671 2.54718 -2.3016 0
M  V30 1893 C 173.757 2.39815 -3.49785 0
M  V30 1894 N 174.148 1.94637 -4.66851 0
M  V30 1895 C 172.446 2.70623 -3.54513 0
M  V30 1896 C 173.147 1.92344 -5.4898 0
M  V30 1897 N 172.123 2.34978 -4.9019 0
M  V30 1898 H 175.925 0.851675 -2.81289 0
M  V30 1899 H 173.439 0.373399 -1.58049 0
M  V30 1900 H 175.436 3.30165 -2.54552 0
M  V30 1901 H 174.096 2.91265 -1.43508 0
M  V30 1902 H 175.107 1.6488 -4.90953 0
M  V30 1903 H 171.784 3.11167 -2.78354 0
M  V30 1904 H 173.174 1.5906 -6.52801 0
M  V30 1905 N 175.894 1.51508 0.433938 0
M  V30 1906 C 176.841 1.73068 1.52696 0
M  V30 1907 C 177.811 0.572441 1.55924 0
M  V30 1908 O 178.996 0.807253 1.72882 0
M  V30 1909 C 176.136 1.86474 2.90381 0
M  V30 1910 C 175.249 3.14037 2.96656 0
M  V30 1911 C 174.384 3.18019 4.25485 0
M  V30 1912 C 173.423 4.39882 4.2564 0
M  V30 1913 N 172.56 4.41394 5.45999 0
M  V30 1914 H 177.4 2.66366 1.33615 0
M  V30 1915 H 174.937 1.32008 0.649018 0
M  V30 1916 H 176.895 1.92229 3.70275 0
M  V30 1917 H 175.525 0.965809 3.08013 0
M  V30 1918 H 174.577 3.17575 2.09404 0
M  V30 1919 H 175.889 4.0394 2.92633 0
M  V30 1920 H 175.043 3.22708 5.13755 0
M  V30 1921 H 173.782 2.2601 4.3217 0
M  V30 1922 H 172.787 4.35366 3.35763 0
M  V30 1923 H 174.012 5.33159 4.20617 0
M  V30 1924 H 171.958 3.52258 5.53399 0
M  V30 1925 H 171.875 5.25111 5.4387 0
M  V30 1926 H 173.143 4.50281 6.36292 0
M  V30 1927 N 177.372 -0.689602 1.41712 0
M  V30 1928 C 178.319 -1.80345 1.44029 0
M  V30 1929 C 179.289 -1.63478 0.293948 0
M  V30 1930 O 180.474 -1.84244 0.495869 0
M  V30 1931 C 177.614 -3.18272 1.33405 0
M  V30 1932 C 176.727 -3.46529 2.57956 0
M  V30 1933 C 175.862 -4.74103 2.39582 0
M  V30 1934 C 174.901 -4.95347 3.5958 0
M  V30 1935 N 174.038 -6.14151 3.40239 0
M  V30 1936 H 178.878 -1.77698 2.39222 0
M  V30 1937 H 176.415 -0.867688 1.18784 0
M  V30 1938 H 178.373 -3.97956 1.25246 0
M  V30 1939 H 177.003 -3.2008 0.418164 0
M  V30 1940 H 176.055 -2.61207 2.76542 0
M  V30 1941 H 177.367 -3.58126 3.47199 0
M  V30 1942 H 176.521 -5.61853 2.28924 0
M  V30 1943 H 175.26 -4.64763 1.47805 0
M  V30 1944 H 174.265 -4.06044 3.70686 0
M  V30 1945 H 175.49 -5.06542 4.52318 0
M  V30 1946 H 173.436 -6.06013 2.51167 0
M  V30 1947 H 173.353 -6.26543 4.23061 0
M  V30 1948 H 174.621 -7.04619 3.33365 0
M  V30 1949 N 178.85 -1.27639 -0.924453 0
M  V30 1950 C 180.261 -1.12834 -1.48746 0
M  V30 1951 C 180.612 0.285505 -1.94112 0
M  V30 1952 O 179.737 1.17874 -1.81479 0
M  V30 1953 C 180.332 -2.04217 -2.70334 0
M  V30 1954 C 178.891 -1.93509 -3.22848 0
M  V30 1955 C 178.038 -1.96583 -1.95577 0
M  V30 1956 H 180.989 -1.40484 -0.738233 0
M  V30 1957 H 181.01 -1.59989 -3.4523 0
M  V30 1958 H 180.522 -3.07111 -2.37285 0
M  V30 1959 H 178.623 -0.936131 -3.60649 0
M  V30 1960 H 178.736 -2.79917 -3.88823 0
M  V30 1961 H 177.1 -1.4085 -2.12211 0
M  V30 1962 H 177.883 -3.01137 -1.64837 0
M  V30 1963 N 180.328 1.1314 -1.09713 0
M  V30 1964 C 181.258 2.20748 -0.761102 0
M  V30 1965 C 182.239 1.68061 0.262566 0
M  V30 1966 O 183.424 1.93765 0.129977 0
M  V30 1967 C 180.554 3.46812 -0.184054 0
M  V30 1968 C 179.508 4.12606 -1.13757 0
M  V30 1969 C 178.834 5.33031 -0.422083 0
M  V30 1970 C 180.134 4.59603 -2.48118 0
M  V30 1971 H 181.828 2.49113 -1.66082 0
M  V30 1972 H 179.374 1.19734 -0.799987 0
M  V30 1973 H 181.327 4.21353 0.0631215 0
M  V30 1974 H 180.051 3.17851 0.750868 0
M  V30 1975 H 178.71 3.40036 -1.37007 0
M  V30 1976 H 178.358 5.00335 0.517072 0
M  V30 1977 H 178.058 5.77999 -1.05788 0
M  V30 1978 H 179.582 6.10325 -0.183277 0
M  V30 1979 H 180.996 5.25552 -2.29059 0
M  V30 1980 H 179.393 5.15321 -3.07514 0
M  V30 1981 H 180.463 3.73971 -3.08665 0
M  V30 1982 N 181.806 0.884767 1.30421 0
M  V30 1983 C 182.738 0.308655 2.27112 0
M  V30 1984 C 183.751 -0.536655 1.53701 0
M  V30 1985 O 184.94 -0.35624 1.74909 0
M  V30 1986 C 182.04 -0.579782 3.33904 0
M  V30 1987 C 181.213 0.236417 4.36761 0
M  V30 1988 C 180.272 -0.582482 5.22966 0
M  V30 1989 O 179.298 -0.00525502 5.692 0
M  V30 1990 N 180.5 -1.89163 5.48815 0
M  V30 1991 H 183.265 1.13964 2.77186 0
M  V30 1992 H 180.826 0.747731 1.43599 0
M  V30 1993 H 182.818 -1.13366 3.88497 0
M  V30 1994 H 181.388 -1.31144 2.83761 0
M  V30 1995 H 180.608 0.97174 3.82035 0
M  V30 1996 H 181.896 0.795924 5.02536 0
M  V30 1997 H 181.294 -2.38352 5.13035 0
M  V30 1998 H 179.851 -2.39296 6.06284 0
M  V30 1999 N 183.284 -1.43765 0.645699 0
M  V30 2000 C 184.194 -2.34544 -0.0512957 0
M  V30 2001 C 185.21 -1.53455 -0.82022 0
M  V30 2002 O 186.386 -1.86133 -0.769176 0
M  V30 2003 C 183.451 -3.31636 -1.01087 0
M  V30 2004 C 182.512 -4.2863 -0.239712 0
M  V30 2005 C 181.745 -5.21084 -1.15358 0
M  V30 2006 O 181.968 -5.1779 -2.39269 0
M  V30 2007 O 180.902 -5.98593 -0.630038 0
M  V30 2008 H 184.728 -2.95624 0.695718 0
M  V30 2009 H 182.313 -1.43781 0.405882 0
M  V30 2010 H 184.195 -3.9136 -1.56254 0
M  V30 2011 H 182.87 -2.73069 -1.73824 0
M  V30 2012 H 181.777 -3.72408 0.355356 0
M  V30 2013 H 183.11 -4.90157 0.447936 0
M  V30 2014 N 184.763 -0.387143 -1.52771 0
M  V30 2015 C 186.009 0.196025 -2.0185 0
M  V30 2016 C 186.342 1.46641 -1.27319 0
M  V30 2017 O 185.617 1.90889 -0.373032 0
M  V30 2018 C 185.9 0.466136 -3.5707 0
M  V30 2019 C 185.753 -0.819385 -4.42274 0
M  V30 2020 C 187.072 1.25768 -4.21747 0
M  V30 2021 H 184.191 0.0697708 -0.73369 0
M  V30 2022 H 186.833 -0.516286 -1.82851 0
M  V30 2023 H 184.983 1.07293 -3.7339 0
M  V30 2024 H 186.655 -1.4563 -4.37709 0
M  V30 2025 H 184.898 -1.43517 -4.09372 0
M  V30 2026 H 185.569 -0.585065 -5.48891 0
M  V30 2027 H 188.045 0.744167 -4.09391 0
M  V30 2028 H 186.921 1.41541 -5.30337 0
M  V30 2029 H 187.182 2.27228 -3.79236 0
M  V30 2030 N 186.241 1.57166 -0.116904 0
M  V30 2031 C 187.151 2.18745 0.847812 0
M  V30 2032 C 188.167 1.163 1.29423 0
M  V30 2033 O 189.343 1.48761 1.35765 0
M  V30 2034 C 186.408 2.77307 2.0809 0
M  V30 2035 C 185.469 3.94781 1.68661 0
M  V30 2036 C 184.702 4.50541 2.86091 0
M  V30 2037 O 184.925 4.05202 4.01456 0
M  V30 2038 O 183.859 5.41256 2.63298 0
M  V30 2039 H 187.685 3.01632 0.353778 0
M  V30 2040 H 185.27 1.49005 0.108599 0
M  V30 2041 H 187.152 3.14647 2.80313 0
M  V30 2042 H 185.827 1.97452 2.56504 0
M  V30 2043 H 184.734 3.62214 0.935518 0
M  V30 2044 H 186.067 4.76065 1.24991 0
M  V30 2045 N 187.719 -0.156864 1.56817 0
M  V30 2046 C 188.968 -0.869504 1.81996 0
M  V30 2047 C 189.281 -1.82777 0.696545 0
M  V30 2048 O 190.487 -2.58384 0.833658 0
M  V30 2049 C 188.943 -1.59679 3.22538 0
M  V30 2050 C 188.551 -0.681431 4.42787 0
M  V30 2051 C 190.295 -2.2968 3.56997 0
M  V30 2052 C 188.202 -1.40978 5.74351 0
M  V30 2053 H 187.132 -0.328438 0.678708 0
M  V30 2054 H 189.783 -0.1223 1.83092 0
M  V30 2055 H 188.165 -2.38927 3.158 0
M  V30 2056 H 189.339 0.0751166 4.60739 0
M  V30 2057 H 187.654 -0.0903431 4.16302 0
M  V30 2058 H 190.251 -2.84794 4.52544 0
M  V30 2059 H 190.594 -3.05707 2.82576 0
M  V30 2060 H 191.127 -1.57361 3.65352 0
M  V30 2061 H 187.866 -0.691561 6.51842 0
M  V30 2062 H 187.386 -2.13929 5.60352 0
M  V30 2063 H 189.065 -1.95337 6.16808 0
M  V30 2064 N 189.197 -1.51736 -0.425897 0
M  V30 2065 C 190.16 -1.73271 -1.50032 0
M  V30 2066 C 191.16 -0.602639 -1.4908 0
M  V30 2067 O 192.35 -0.87033 -1.509 0
M  V30 2068 C 189.482 -1.79969 -2.89523 0
M  V30 2069 H 190.675 -2.69172 -1.32237 0
M  V30 2070 H 188.228 -1.41899 -0.65532 0
M  V30 2071 H 188.963 -0.859241 -3.1271 0
M  V30 2072 H 188.748 -2.62109 -2.91619 0
M  V30 2073 H 190.238 -1.9843 -3.67444 0
M  V30 2074 N 190.675 0.682077 -1.42076 0
M  V30 2075 C 191.638 1.77756 -1.44691 0
M  V30 2076 C 192.638 1.5726 -0.335535 0
M  V30 2077 O 193.828 1.63686 -0.596037 0
M  V30 2078 C 190.96 3.16301 -1.27146 0
M  V30 2079 H 192.153 1.76826 -2.42224 0
M  V30 2080 H 189.706 0.891012 -1.28416 0
M  V30 2081 H 190.441 3.22862 -0.305075 0
M  V30 2082 H 190.226 3.32581 -2.07683 0
M  V30 2083 H 191.716 3.96241 -1.31843 0
M  V30 2084 N 192.153 1.28127 0.917671 0
M  V30 2085 C 193.399 1.15223 1.66888 0
M  V30 2086 C 193.732 -0.299293 1.9188 0
M  V30 2087 O 193.007 -1.21805 1.51637 0
M  V30 2088 C 193.29 1.94706 3.02922 0
M  V30 2089 C 193.143 3.47898 2.85109 0
M  V30 2090 C 194.462 1.75939 4.03402 0
M  V30 2091 H 191.581 0.419946 0.605652 0
M  V30 2092 H 194.223 1.57398 1.06423 0
M  V30 2093 H 192.373 1.58864 3.54534 0
M  V30 2094 H 194.045 3.93624 2.40537 0
M  V30 2095 H 192.288 3.7373 2.20246 0
M  V30 2096 H 192.959 3.98765 3.81694 0
M  V30 2097 H 195.435 2.07209 3.60837 0
M  V30 2098 H 194.311 2.33931 4.96556 0
M  V30 2099 H 194.572 0.709877 4.36364 0
M  V30 2100 N 193.631 -1.12557 1.10312 0
M  V30 2101 C 194.859 -1.87864 0.866873 0
M  V30 2102 C 195.274 -1.79588 -0.582557 0
M  V30 2103 O 194.631 -1.16887 -1.40156 0
M  V30 2104 C 194.682 -3.37125 1.30496 0
M  V30 2105 O 194.403 -3.45201 2.69755 0
M  V30 2106 C 195.904 -4.29373 1.10243 0
M  V30 2107 H 193.124 -0.594452 0.311236 0
M  V30 2108 H 195.668 -1.42429 1.46745 0
M  V30 2109 H 193.823 -3.80109 0.748081 0
M  V30 2110 H 194.237 -4.38056 2.88457 0
M  V30 2111 H 195.711 -5.32394 1.45811 0
M  V30 2112 H 196.188 -4.39181 0.0409492 0
M  V30 2113 H 196.794 -3.92169 1.64571 0
M  V30 2114 N 195.109 -0.891671 -1.2995 0
M  V30 2115 C 196.059 -0.334811 -2.25528 0
M  V30 2116 C 197.043 0.540553 -1.51548 0
M  V30 2117 O 198.235 0.383882 -1.72787 0
M  V30 2118 C 195.364 0.44374 -3.4042 0
M  V30 2119 C 194.45 -0.44609 -4.21747 0
M  V30 2120 N 194.841 -1.54963 -4.81477 0
M  V30 2121 C 193.139 -0.242415 -4.45341 0
M  V30 2122 C 193.84 -2.10015 -5.42465 0
M  V30 2123 N 192.816 -1.39423 -5.25416 0
M  V30 2124 H 196.618 -1.17792 -2.69262 0
M  V30 2125 H 194.132 -0.741822 -1.44467 0
M  V30 2126 H 196.129 0.859362 -4.07947 0
M  V30 2127 H 194.789 1.28421 -2.98225 0
M  V30 2128 H 195.8 -1.93244 -4.80497 0
M  V30 2129 H 192.477 0.560342 -4.13723 0
M  V30 2130 H 193.867 -3.02724 -5.9984 0
M  V30 2131 N 196.587 1.43421 -0.653314 0
M  V30 2132 C 197.835 2.01414 -0.166415 0
M  V30 2133 C 198.156 1.51803 1.22397 0
M  V30 2134 O 197.426 0.730693 1.81763 0
M  V30 2135 H 196.006 0.744703 -0.0585319 0
M  V30 2136 H 198.668 1.75629 -0.845003 0
M  V30 2137 H 197.764 3.11734 -0.151111 0
M  V30 2138 N 198.065 0.39524 1.52563 0
M  V30 2139 C 199.028 -0.425001 2.25225 0
M  V30 2140 C 200.028 -0.985266 1.27079 0
M  V30 2141 O 201.218 -0.866332 1.5113 0
M  V30 2142 C 198.35 -1.59686 3.01186 0
M  V30 2143 H 199.543 0.211233 2.99155 0
M  V30 2144 H 197.096 0.147472 1.55603 0
M  V30 2145 H 197.831 -2.27035 2.31572 0
M  V30 2146 H 197.616 -1.20176 3.73229 0
M  V30 2147 H 199.106 -2.17743 3.5634 0
M  V30 2148 N 199.544 -1.57102 0.125237 0
M  V30 2149 C 200.474 -2.18659 -0.819174 0
M  V30 2150 C 201.455 -1.12843 -1.27281 0
M  V30 2151 O 202.64 -1.41104 -1.33429 0
M  V30 2152 C 199.77 -2.79096 -2.06695 0
M  V30 2153 C 198.724 -3.90548 -1.75088 0
M  V30 2154 C 198.05 -4.37821 -3.06948 0
M  V30 2155 C 199.35 -5.12356 -1.01435 0
M  V30 2156 H 201.044 -2.9783 -0.306202 0
M  V30 2157 H 198.59 -1.4326 -0.145839 0
M  V30 2158 H 200.543 -3.2082 -2.73226 0
M  V30 2159 H 199.267 -1.97223 -2.60328 0
M  V30 2160 H 197.926 -3.49409 -1.10944 0
M  V30 2161 H 197.574 -3.52799 -3.58527 0
M  V30 2162 H 197.274 -5.12982 -2.86571 0
M  V30 2163 H 198.798 -4.822 -3.74587 0
M  V30 2164 H 200.212 -5.5106 -1.58132 0
M  V30 2165 H 198.609 -5.9314 -0.911319 0
M  V30 2166 H 199.679 -4.849 -0.00218681 0
M  V30 2167 N 201.022 0.148545 -1.56898 0
M  V30 2168 C 201.954 1.20852 -1.9475 0
M  V30 2169 C 202.967 1.39265 -0.843152 0
M  V30 2170 O 204.156 1.38864 -1.12156 0
M  V30 2171 C 201.256 2.57362 -2.20495 0
M  V30 2172 C 200.429 2.59947 -3.51776 0
M  V30 2173 C 199.488 3.77984 -3.6608 0
M  V30 2174 O 198.514 3.62929 -4.38487 0
M  V30 2175 N 199.716 4.95375 -3.02629 0
M  V30 2176 H 202.481 0.886804 -2.86279 0
M  V30 2177 H 200.042 0.338121 -1.5833 0
M  V30 2178 H 202.034 3.34833 -2.27307 0
M  V30 2179 H 200.604 2.81832 -1.35238 0
M  V30 2180 H 199.824 1.68403 -3.56419 0
M  V30 2181 H 201.112 2.58704 -4.38121 0
M  V30 2182 H 200.51 5.10509 -2.43715 0
M  V30 2183 H 199.067 5.70627 -3.15004 0
M  V30 2184 N 202.5 1.5196 0.417844 0
M  V30 2185 C 203.748 1.65263 1.16329 0
M  V30 2186 C 204.069 0.380634 1.91249 0
M  V30 2187 O 203.339 -0.604214 1.86349 0
M  V30 2188 H 201.919 0.60912 0.432414 0
M  V30 2189 H 204.581 1.88969 0.477162 0
M  V30 2190 H 203.677 2.4896 1.88217 0
M  V30 2191 N 203.978 -0.674533 1.42435 0
M  V30 2192 C 204.908 -1.80009 1.48724 0
M  V30 2193 C 205.889 -1.6659 0.343793 0
M  V30 2194 O 207.074 -1.86007 0.558137 0
M  V30 2195 C 204.204 -3.18306 1.38919 0
M  V30 2196 C 203.158 -3.46461 2.51294 0
M  V30 2197 C 202.484 -4.84335 2.26547 0
M  V30 2198 C 203.784 -3.43328 3.93603 0
M  V30 2199 H 205.478 -1.75004 2.42928 0
M  V30 2200 H 203.024 -0.840533 1.16923 0
M  V30 2201 H 204.977 -3.9678 1.41927 0
M  V30 2202 H 203.701 -3.2399 0.412094 0
M  V30 2203 H 202.36 -2.70348 2.47604 0
M  V30 2204 H 202.008 -4.86669 1.2713 0
M  V30 2205 H 201.708 -5.04136 3.01861 0
M  V30 2206 H 203.232 -5.65094 2.31304 0
M  V30 2207 H 204.646 -4.11772 3.98894 0
M  V30 2208 H 203.043 -3.74664 4.68771 0
M  V30 2209 H 204.113 -2.41897 4.20255 0
M  V30 2210 N 205.456 -1.28612 -0.910864 0
M  V30 2211 C 206.419 -1.12803 -1.9952 0
M  V30 2212 C 207.419 -0.0668264 -1.60661 0
M  V30 2213 O 208.609 -0.312847 -1.71368 0
M  V30 2214 C 205.741 -0.72254 -3.33155 0
M  V30 2215 H 206.934 -2.09109 -2.14973 0
M  V30 2216 H 204.487 -1.11639 -1.09391 0
M  V30 2217 H 205.222 0.241152 -3.23402 0
M  V30 2218 H 205.007 -1.48916 -3.62721 0
M  V30 2219 H 206.497 -0.634666 -4.12749 0
M  V30 2220 N 206.934 1.1197 -1.10907 0
M  V30 2221 C 208.164 1.8713 -0.875553 0
M  V30 2222 C 208.572 1.8016 0.577843 0
M  V30 2223 O 207.915 1.17699 1.41042 0
M  V30 2224 C 207.977 3.37005 -1.2517 0
M  V30 2225 C 207.641 3.67748 -2.71313 0
M  V30 2226 C 208.638 3.65698 -3.69542 0
M  V30 2227 C 206.323 3.96928 -3.07821 0
M  V30 2228 C 208.317 3.92395 -5.023 0
M  V30 2229 C 206.004 4.23284 -4.40765 0
M  V30 2230 C 207.002 4.21005 -5.37814 0
M  V30 2231 O 206.69 4.46704 -6.68364 0
M  V30 2232 H 206.422 0.598786 -0.313737 0
M  V30 2233 H 208.976 1.42568 -1.47863 0
M  V30 2234 H 207.206 3.82146 -0.591741 0
M  V30 2235 H 208.895 3.93519 -0.994877 0
M  V30 2236 H 209.661 3.43211 -3.42682 0
M  V30 2237 H 205.54 3.97841 -2.32902 0
M  V30 2238 H 209.084 3.90531 -5.78041 0
M  V30 2239 H 204.981 4.45246 -4.67361 0
M  V30 2240 H 205.749 4.64299 -6.74069 0
M  V30 2241 N 208.412 0.89855 1.29475 0
M  V30 2242 C 209.342 0.39201 2.30186 0
M  V30 2243 C 210.323 -0.532359 1.61555 0
M  V30 2244 O 211.508 -0.443331 1.89072 0
M  V30 2245 C 208.638 -0.382353 3.45189 0
M  V30 2246 C 207.592 0.451483 4.25612 0
M  V30 2247 C 206.918 -0.450307 5.328 0
M  V30 2248 C 208.218 1.70079 4.93832 0
M  V30 2249 H 209.912 1.23362 2.72804 0
M  V30 2250 H 207.458 0.594638 1.31149 0
M  V30 2251 H 209.411 -0.747451 4.14718 0
M  V30 2252 H 208.135 -1.25774 3.01411 0
M  V30 2253 H 206.794 0.798897 3.57789 0
M  V30 2254 H 206.442 -1.32379 4.85268 0
M  V30 2255 H 206.142 0.103902 5.87508 0
M  V30 2256 H 207.666 -0.811623 6.05182 0
M  V30 2257 H 209.08 1.40549 5.55805 0
M  V30 2258 H 207.477 2.19623 5.58467 0
M  V30 2259 H 208.547 2.43744 4.19186 0
M  V30 2260 N 209.89 -1.43072 0.660911 0
M  V30 2261 C 210.84 -2.27948 -0.04847 0
M  V30 2262 C 211.824 -1.40325 -0.787246 0
M  V30 2263 O 213.016 -1.63893 -0.668446 0
M  V30 2264 C 210.145 -3.28143 -1.00881 0
M  V30 2265 C 209.231 -4.23252 -0.268108 0
M  V30 2266 N 209.622 -5.00656 0.719528 0
M  V30 2267 C 207.92 -4.43092 -0.508493 0
M  V30 2268 C 208.621 -5.70019 1.15988 0
M  V30 2269 N 207.597 -5.41364 0.492584 0
M  V30 2270 H 211.399 -2.85213 0.709279 0
M  V30 2271 H 208.913 -1.54869 0.488822 0
M  V30 2272 H 210.91 -3.87736 -1.53188 0
M  V30 2273 H 209.57 -2.7244 -1.76654 0
M  V30 2274 H 210.581 -5.06115 1.09855 0
M  V30 2275 H 207.258 -3.98449 -1.24679 0
M  V30 2276 H 208.648 -6.4214 1.97751 0
M  V30 2277 N 211.368 -0.403325 -1.52352 0
M  V30 2278 C 212.593 0.176499 -2.06648 0
M  V30 2279 C 213.018 1.38577 -1.27193 0
M  V30 2280 O 212.376 1.7879 -0.300637 0
M  V30 2281 C 212.424 0.511061 -3.5696 0
M  V30 2282 O 211.528 1.60294 -3.79973 0
M  V30 2283 H 210.869 0.0167337 -0.663789 0
M  V30 2284 H 213.399 -0.574848 -1.96359 0
M  V30 2285 H 213.409 0.771362 -4.00642 0
M  V30 2286 H 212.084 -0.37296 -4.14224 0
M  V30 2287 H 210.661 1.33526 -3.48174 0
M  V30 2288 N 212.846 1.57033 -0.133567 0
M  V30 2289 C 213.796 2.12641 0.822671 0
M  V30 2290 C 214.78 1.05081 1.21847 0
M  V30 2291 O 215.972 1.31287 1.18713 0
M  V30 2292 C 213.101 2.74094 2.06706 0
M  V30 2293 C 212.187 3.88757 1.69497 0
M  V30 2294 N 212.578 4.95194 1.03037 0
M  V30 2295 C 210.876 3.99213 1.98859 0
M  V30 2296 C 211.577 5.75414 0.852873 0
M  V30 2297 N 210.553 5.25726 1.3825 0
M  V30 2298 H 214.355 2.92308 0.305537 0
M  V30 2299 H 211.869 1.62256 0.0684276 0
M  V30 2300 H 213.866 3.12285 2.76195 0
M  V30 2301 H 212.526 1.95896 2.5895 0
M  V30 2302 H 213.537 5.13247 0.692669 0
M  V30 2303 H 210.214 3.32075 2.53047 0
M  V30 2304 H 211.604 6.71089 0.330091 0
M  V30 2305 N 214.325 -0.140222 1.56975 0
M  V30 2306 C 215.273 -1.19207 1.99731 0
M  V30 2307 C 216.267 -1.44089 0.890777 0
M  V30 2308 O 217.473 -1.44301 1.07597 0
M  V30 2309 H 213.848 -0.40142 0.635898 0
M  V30 2310 H 215.819 -0.804813 2.87342 0
M  V30 2311 C 214.568 -2.51617 2.39967 0
M  V30 2312 H 213.891 -2.33303 3.24669 0
M  V30 2313 H 215.331 -3.23827 2.73701 0
M  V30 2314 C 213.79 -3.12654 1.25496 0
M  V30 2315 O 214.32 -3.97786 0.559371 0
M  V30 2316 N 212.526 -2.72206 1.01746 0
M  V30 2317 H 212.073 -2.03074 1.58489 0
M  V30 2318 H 212.031 -3.13377 0.253461 0
M  V30 2319 N 215.803 -1.52179 -0.40978 0
M  V30 2320 C 216.736 -1.70196 -1.52015 0
M  V30 2321 C 217.714 -0.549542 -1.53032 0
M  V30 2322 O 218.898 -0.776815 -1.71749 0
M  V30 2323 C 216.025 -1.74069 -2.90547 0
M  V30 2324 C 215.071 -2.95601 -3.07445 0
M  V30 2325 S 215.904 -4.55956 -2.80827 0
M  V30 2326 C 217.06 -4.62614 -4.21591 0
M  V30 2327 H 217.293 -2.64109 -1.36504 0
M  V30 2328 H 214.826 -1.4221 -0.601312 0
M  V30 2329 H 216.784 -1.76985 -3.70387 0
M  V30 2330 H 215.445 -0.812835 -3.034 0
M  V30 2331 H 214.638 -2.94791 -4.08796 0
M  V30 2332 H 214.24 -2.90569 -2.35469 0
M  V30 2333 H 216.532 -4.39951 -5.15218 0
M  V30 2334 H 217.475 -5.64548 -4.27424 0
M  V30 2335 H 217.883 -3.91654 -4.06531 0
M  V30 2336 N 217.281 0.66697 -1.42791 0
M  V30 2337 C 218.53 1.42278 -1.42968 0
M  V30 2338 C 218.843 1.9553 -0.0524489 0
M  V30 2339 O 220.049 2.71414 0.068363 0
M  V30 2340 C 218.505 2.57418 -2.51524 0
M  V30 2341 C 218.113 2.10832 -3.9529 0
M  V30 2342 C 219.857 3.34878 -2.60877 0
M  V30 2343 C 217.764 3.23101 -4.95338 0
M  V30 2344 H 216.694 0.534533 -0.531781 0
M  V30 2345 H 219.345 0.721302 -1.68729 0
M  V30 2346 H 217.727 3.29971 -2.18941 0
M  V30 2347 H 218.901 1.4538 -4.37266 0
M  V30 2348 H 217.216 1.46289 -3.89857 0
M  V30 2349 H 219.813 4.18505 -3.32802 0
M  V30 2350 H 220.156 3.81993 -1.6549 0
M  V30 2351 H 220.689 2.69398 -2.92693 0
M  V30 2352 H 217.428 2.80969 -5.9223 0
M  V30 2353 H 216.948 3.87309 -4.57987 0
M  V30 2354 H 218.627 3.88447 -5.17415 0
M  V30 2355 N 218.759 1.29093 0.90403 0
M  V30 2356 C 219.709 1.10482 1.99443 0
M  V30 2357 C 220.693 0.0255401 1.6088 0
M  V30 2358 O 221.885 0.24677 1.75271 0
M  V30 2359 C 219.014 0.778882 3.34348 0
M  V30 2360 C 218.1 1.89749 3.79284 0
M  V30 2361 N 218.491 3.14045 3.96497 0
M  V30 2362 C 216.789 1.78955 4.08523 0
M  V30 2363 C 217.49 3.86996 4.34292 0
M  V30 2364 N 216.466 3.14909 4.43095 0
M  V30 2365 H 220.268 2.04778 2.10815 0
M  V30 2366 H 217.782 1.20155 1.09255 0
M  V30 2367 H 219.779 0.62661 4.12164 0
M  V30 2368 H 218.439 -0.156205 3.24324 0
M  V30 2369 H 219.45 3.49548 3.82148 0
M  V30 2370 H 216.127 0.926886 4.07081 0
M  V30 2371 H 217.517 4.93941 4.55491 0
M  V30 2372 N 220.237 -1.11381 1.11499 0
M  V30 2373 C 221.653 -1.35143 0.849031 0
M  V30 2374 C 221.853 -1.94515 -0.525938 0
M  V30 2375 O 220.909 -2.1785 -1.27662 0
M  V30 2376 C 222.222 -2.28249 1.95762 0
M  V30 2377 C 223.77 -2.41812 1.98736 0
M  V30 2378 C 224.245 -3.3824 3.088 0
M  V30 2379 N 225.736 -3.45803 3.08179 0
M  V30 2380 C 226.471 -4.20358 3.89982 0
M  V30 2381 N 225.967 -4.97884 4.8175 0
M  V30 2382 N 227.76 -4.15877 3.78157 0
M  V30 2383 H 219.911 -0.712062 2.00109 0
M  V30 2384 H 222.174 -0.376025 0.870235 0
M  V30 2385 H 221.88 -1.91817 2.94787 0
M  V30 2386 H 221.754 -3.28473 1.85433 0
M  V30 2387 H 224.141 -2.77518 1.00338 0
M  V30 2388 H 224.222 -1.41437 2.13141 0
M  V30 2389 H 223.866 -3.03261 4.07425 0
M  V30 2390 H 223.796 -4.38471 2.91635 0
M  V30 2391 H 226.287 -2.90506 2.41691 0
M  V30 2392 H 226.6 -5.52142 5.40702 0
M  V30 2393 H 224.945 -4.97043 4.85771 0
M  V30 2394 H 228.136 -3.544 3.05808 0
M  V30 2395 H 228.309 -4.73723 4.42143 0
M  V30 2396 N 221.715 -0.905404 -1.28997 0
M  V30 2397 C 222.992 -0.453513 -1.9027 0
M  V30 2398 C 223.372 1.06721 -1.82137 0
M  V30 2399 O 222.72 1.91159 -1.25182 0
M  V30 2400 C 222.93 -0.974494 -3.35119 0
M  V30 2401 C 224.278 -1.0216 -4.12127 0
M  V30 2402 O 225.302 -0.922557 -3.44046 0
M  V30 2403 O 224.161 -1.17121 -5.33802 0
M  V30 2404 H 221.255 -0.142347 -0.814657 0
M  V30 2405 H 223.801 -0.995642 -1.37423 0
M  V30 2406 H 222.573 -2.01848 -3.35221 0
M  V30 2407 H 222.196 -0.412706 -3.95452 0
M  V30 2408 N 223.193 1.4272 -0.668489 0
M  V30 2409 C 224.439 2.01923 -0.188419 0
M  V30 2410 C 224.772 1.52704 1.19979 0
M  V30 2411 O 224.047 0.726566 1.8042 0
M  V30 2412 C 224.33 3.59451 -0.216085 0
M  V30 2413 C 224.183 4.18864 -1.6393 0
M  V30 2414 C 225.502 4.37903 0.439179 0
M  V30 2415 H 222.621 0.733674 -0.0699412 0
M  V30 2416 H 225.263 1.69822 -0.852076 0
M  V30 2417 H 223.413 3.86929 0.349012 0
M  V30 2418 H 225.085 4.02362 -2.25616 0
M  V30 2419 H 223.328 3.74933 -2.18193 0
M  V30 2420 H 223.999 5.27987 -1.61039 0
M  V30 2421 H 226.475 4.16079 -0.0417878 0
M  V30 2422 H 225.351 5.47519 0.389157 0
M  V30 2423 H 225.612 4.15303 1.51577 0
M  V30 2424 N 224.671 0.411399 1.52136 0
M  V30 2425 C 225.618 -0.412975 2.27075 0
M  V30 2426 C 226.588 -1.03912 1.29582 0
M  V30 2427 O 227.773 -1.06296 1.58448 0
M  V30 2428 C 224.913 -1.52247 3.09701 0
M  V30 2429 C 224.026 -0.917021 4.22155 0
M  V30 2430 C 223.161 -1.9994 4.92135 0
M  V30 2431 C 222.2 -1.37101 5.96548 0
M  V30 2432 N 221.337 -2.39364 6.60038 0
M  V30 2433 H 226.177 0.232499 2.97092 0
M  V30 2434 H 223.714 0.126496 1.46555 0
M  V30 2435 H 225.672 -2.17674 3.55913 0
M  V30 2436 H 224.302 -2.13794 2.41851 0
M  V30 2437 H 223.354 -0.151742 3.80097 0
M  V30 2438 H 224.666 -0.418006 4.97045 0
M  V30 2439 H 223.82 -2.73088 5.41763 0
M  V30 2440 H 222.559 -2.53208 4.16818 0
M  V30 2441 H 221.564 -0.624873 5.46237 0
M  V30 2442 H 222.789 -0.845998 6.7381 0
M  V30 2443 H 220.735 -2.91759 5.87548 0
M  V30 2444 H 220.652 -1.9428 7.3061 0
M  V30 2445 H 221.92 -3.12074 7.14304 0
M  V30 2446 N 226.149 -1.5696 0.141893 0
M  V30 2447 C 227.112 -2.15316 -0.785587 0
M  V30 2448 C 228.112 -1.09366 -1.1788 0
M  V30 2449 O 229.302 -1.35031 -1.10056 0
M  V30 2450 C 226.434 -2.71211 -2.06537 0
M  V30 2451 H 227.627 -2.98608 -0.278041 0
M  V30 2452 H 225.18 -1.5593 -0.107519 0
M  V30 2453 H 225.915 -1.91571 -2.6167 0
M  V30 2454 H 225.7 -3.4872 -1.79268 0
M  V30 2455 H 227.19 -3.16189 -2.72789 0
M  V30 2456 N 227.627 0.131896 -1.57047 0
M  V30 2457 C 228.875 0.840269 -1.83804 0
M  V30 2458 C 229.196 1.81017 -0.72512 0
M  V30 2459 O 228.466 1.94272 0.251995 0
M  V30 2460 H 227.046 0.313294 -0.678127 0
M  V30 2461 H 229.708 0.122294 -1.94516 0
M  V30 2462 H 228.804 1.39335 -2.79271 0
M  V30 2463 N 229.106 1.52395 0.401703 0
M  V30 2464 C 230.054 1.7689 1.51039 0
M  V30 2465 C 231.048 0.636298 1.56996 0
M  V30 2466 O 232.254 0.818507 1.60314 0
M  V30 2467 H 228.629 0.559502 0.502456 0
M  V30 2468 H 230.6 2.69757 1.27568 0
M  V30 2469 C 229.349 1.94331 2.88324 0
M  V30 2470 H 228.672 2.80905 2.84486 0
M  V30 2471 H 230.112 2.15466 3.65172 0
M  V30 2472 C 228.571 0.712396 3.29282 0
M  V30 2473 O 229.101 -0.116218 4.01532 0
M  V30 2474 N 227.307 0.546154 2.85422 0
M  V30 2475 H 226.854 1.22156 2.26794 0
M  V30 2476 H 226.812 -0.276113 3.13185 0
M  V30 2477 N 230.584 -0.659388 1.43143 0
M  V30 2478 C 231.833 -1.41518 1.43721 0
M  V30 2479 C 232.146 -1.95499 0.0628176 0
M  V30 2480 O 233.352 -2.71446 -0.0539683 0
M  V30 2481 C 231.808 -2.5608 2.52885 0
M  V30 2482 C 231.416 -2.08733 3.96402 0
M  V30 2483 C 233.16 -3.3349 2.62649 0
M  V30 2484 C 231.067 -3.20469 4.97045 0
M  V30 2485 H 229.997 -0.531705 0.534608 0
M  V30 2486 H 232.648 -0.712343 1.69109 0
M  V30 2487 H 231.03 -3.28805 2.20688 0
M  V30 2488 H 232.204 -1.43059 4.3803 0
M  V30 2489 H 230.519 -1.44219 3.90627 0
M  V30 2490 H 233.116 -4.16734 3.35017 0
M  V30 2491 H 233.459 -3.8111 1.67513 0
M  V30 2492 H 233.992 -2.67842 2.94118 0
M  V30 2493 H 230.731 -2.77824 5.93712 0
M  V30 2494 H 230.251 -3.84874 4.60034 0
M  V30 2495 H 231.93 -3.85698 5.19467 0
M  V30 2496 N 232.062 -1.29571 -0.897171 0
M  V30 2497 C 232.992 -1.17473 -2.01798 0
M  V30 2498 C 233.973 -0.068323 -1.69963 0
M  V30 2499 O 235.158 -0.248239 -1.92607 0
M  V30 2500 C 232.288 -0.853099 -3.36659 0
M  V30 2501 C 231.242 -1.9161 -3.82713 0
M  V30 2502 C 230.568 -1.44773 -5.14728 0
M  V30 2503 C 231.868 -3.32535 -4.02763 0
M  V30 2504 H 233.562 -2.11237 -2.12177 0
M  V30 2505 H 231.108 -1.01699 -1.01948 0
M  V30 2506 H 233.061 -0.755165 -4.14578 0
M  V30 2507 H 231.785 0.120236 -3.26379 0
M  V30 2508 H 230.444 -2.00346 -3.07013 0
M  V30 2509 H 230.092 -0.462995 -5.00865 0
M  V30 2510 H 229.792 -2.15865 -5.46513 0
M  V30 2511 H 231.316 -1.36334 -5.95185 0
M  V30 2512 H 232.73 -3.26626 -4.71156 0
M  V30 2513 H 231.127 -4.01607 -4.45905 0
M  V30 2514 H 232.197 -3.75326 -3.07016 0
M  V30 2515 N 233.54 1.10788 -1.12088 0
M  V30 2516 C 234.47 2.19083 -0.807755 0
M  V30 2517 C 235.451 1.6858 0.226859 0
M  V30 2518 O 236.636 1.93997 0.0888475 0
M  V30 2519 C 233.766 3.46344 -0.257576 0
M  V30 2520 C 232.72 4.101 -1.22483 0
M  V30 2521 C 232.046 5.32016 -0.535052 0
M  V30 2522 C 233.346 4.54236 -2.57811 0
M  V30 2523 H 235.04 2.45534 -1.71328 0
M  V30 2524 H 232.586 1.1801 -0.825205 0
M  V30 2525 H 234.539 4.21392 -0.0262679 0
M  V30 2526 H 233.263 3.19373 0.683278 0
M  V30 2527 H 231.922 3.37054 -1.44189 0
M  V30 2528 H 231.57 5.01319 0.410827 0
M  V30 2529 H 231.27 5.75625 -1.18024 0
M  V30 2530 H 232.794 6.09799 -0.312695 0
M  V30 2531 H 234.208 5.20575 -2.40155 0
M  V30 2532 H 232.605 5.08682 -3.18375 0
M  V30 2533 H 233.675 3.6734 -3.16528 0
M  V30 2534 N 235.018 0.912232 1.28515 0
M  V30 2535 C 236.243 0.559774 1.99703 0
M  V30 2536 C 236.668 -0.851393 1.67729 0
M  V30 2537 O 236.026 -1.56875 0.908834 0
M  V30 2538 C 236.074 0.773874 3.52198 0
M  V30 2539 O 235.178 -0.167842 4.12058 0
M  V30 2540 H 234.519 0.21723 0.627461 0
M  V30 2541 H 237.049 1.22725 1.63706 0
M  V30 2542 H 237.059 0.683386 4.02236 0
M  V30 2543 H 235.734 1.80261 3.74805 0
M  V30 2544 H 234.311 -0.0287509 3.72889 0
M  V30 2545 N 236.496 -1.42363 0.676048 0
M  V30 2546 C 237.406 -2.346 -0.00153389 0
M  V30 2547 C 238.422 -1.5516 -0.787485 0
M  V30 2548 O 239.598 -1.87723 -0.729521 0
M  V30 2549 C 236.663 -3.33705 -0.940298 0
M  V30 2550 C 235.724 -4.29042 -0.148739 0
M  V30 2551 C 234.957 -5.23413 -1.04279 0
M  V30 2552 O 235.18 -5.22749 -2.28232 0
M  V30 2553 O 234.114 -5.99795 -0.502925 0
M  V30 2554 H 237.94 -2.94082 0.758268 0
M  V30 2555 H 235.525 -1.42888 0.436289 0
M  V30 2556 H 237.407 -3.94586 -1.47917 0
M  V30 2557 H 236.082 -2.76695 -1.67993 0
M  V30 2558 H 234.989 -3.71571 0.43427 0
M  V30 2559 H 236.322 -4.89097 0.551805 0
M  V30 2560 N 237.974 -0.419461 -1.51915 0
M  V30 2561 C 239.385 0.0477853 -1.86639 0
M  V30 2562 C 239.736 1.43531 -1.33766 0
M  V30 2563 O 238.861 2.05401 -0.68113 0
M  V30 2564 C 239.456 0.0934885 -3.38671 0
M  V30 2565 C 238.015 0.505097 -3.72996 0
M  V30 2566 C 237.162 -0.313792 -2.75519 0
M  V30 2567 H 240.113 -0.636088 -1.45395 0
M  V30 2568 H 240.134 0.906667 -3.6954 0
M  V30 2569 H 239.646 -0.916501 -3.77123 0
M  V30 2570 H 237.747 1.52135 -3.40126 0
M  V30 2571 H 237.86 0.242309 -4.78487 0
M  V30 2572 H 236.224 0.225363 -2.53701 0
M  V30 2573 H 237.007 -1.32232 -3.16812 0
M  V30 2574 N 239.452 1.56882 -0.150215 0
M  V30 2575 C 240.7 1.9584 0.499105 0
M  V30 2576 C 241.021 1.03623 1.65188 0
M  V30 2577 O 240.291 0.0984084 1.95653 0
M  V30 2578 H 238.871 0.723119 0.187373 0
M  V30 2579 H 241.533 1.9358 -0.226466 0
M  V30 2580 H 240.629 2.99638 0.873122 0
M  V30 2581 N 240.93 -0.123565 1.57115 0
M  V30 2582 C 241.86 -1.15309 2.03042 0
M  V30 2583 C 242.841 -1.43454 0.914061 0
M  V30 2584 O 244.026 -1.53973 1.18347 0
M  V30 2585 C 241.156 -2.48043 2.43089 0
M  V30 2586 C 240.11 -2.3437 3.58127 0
M  V30 2587 C 239.436 -3.72026 3.84059 0
M  V30 2588 C 240.736 -1.80804 4.90007 0
M  V30 2589 H 242.43 -0.771102 2.893 0
M  V30 2590 H 239.976 -0.369479 1.39179 0
M  V30 2591 H 241.929 -3.20311 2.73823 0
M  V30 2592 H 240.653 -2.88122 1.53796 0
M  V30 2593 H 239.312 -1.64551 3.27595 0
M  V30 2594 H 238.96 -4.09582 2.91979 0
M  V30 2595 H 238.66 -3.63732 4.6149 0
M  V30 2596 H 240.184 -4.45806 4.1724 0
M  V30 2597 H 241.598 -2.42886 5.19307 0
M  V30 2598 H 239.995 -1.83343 5.71407 0
M  V30 2599 H 241.065 -0.76528 4.78823 0
M  V30 2600 N 242.408 -1.52605 -0.393616 0
M  V30 2601 C 243.654 -1.67672 -1.14079 0
M  V30 2602 C 243.987 -0.413121 -1.89755 0
M  V30 2603 O 243.262 0.588952 -1.85369 0
M  V30 2604 C 243.545 -2.9088 -2.12276 0
M  V30 2605 C 243.398 -4.27329 -1.40394 0
M  V30 2606 C 244.717 -3.09628 -3.12759 0
M  V30 2607 H 241.836 -0.610168 -0.413356 0
M  V30 2608 H 244.478 -1.85193 -0.424696 0
M  V30 2609 H 242.628 -2.76073 -2.73342 0
M  V30 2610 H 244.3 -4.53894 -0.82327 0
M  V30 2611 H 242.543 -4.2802 -0.705801 0
M  V30 2612 H 243.214 -5.09615 -2.12123 0
M  V30 2613 H 245.69 -3.23436 -2.61779 0
M  V30 2614 H 244.566 -3.97322 -3.78717 0
M  V30 2615 H 244.827 -2.23637 -3.81365 0
M  V30 2616 N 243.887 0.651787 -1.4349 0
M  V30 2617 C 244.834 1.76462 -1.4876 0
M  V30 2618 C 245.804 1.62641 -0.337189 0
M  V30 2619 O 246.989 1.82864 -0.544544 0
M  V30 2620 C 244.129 3.14623 -1.41796 0
M  V30 2621 C 243.242 3.39568 -2.67053 0
M  V30 2622 C 242.377 4.67585 -2.52068 0
M  V30 2623 C 241.416 4.85639 -3.72587 0
M  V30 2624 N 240.553 6.04915 -3.56402 0
M  V30 2625 H 245.393 1.71293 -2.43849 0
M  V30 2626 H 242.93 0.835889 -1.21043 0
M  V30 2627 H 244.888 3.94496 -1.35753 0
M  V30 2628 H 243.518 3.18859 -0.50288 0
M  V30 2629 H 242.57 2.53783 -2.8337 0
M  V30 2630 H 243.882 3.48795 -3.56572 0
M  V30 2631 H 243.036 5.55586 -2.4374 0
M  V30 2632 H 241.775 4.60681 -1.60075 0
M  V30 2633 H 240.78 3.96073 -3.81321 0
M  V30 2634 H 242.005 4.94372 -4.65589 0
M  V30 2635 H 239.951 5.9914 -2.67146 0
M  V30 2636 H 239.868 6.15106 -4.39524 0
M  V30 2637 H 241.136 6.95533 -3.51929 0
M  V30 2638 N 245.365 1.30045 0.890287 0
M  V30 2639 C 246.295 1.18541 2.01172 0
M  V30 2640 C 247.276 0.0773356 1.69924 0
M  V30 2641 O 248.461 0.25845 1.92473 0
M  V30 2642 C 245.591 0.870941 3.36202 0
M  V30 2643 C 244.545 1.93637 3.81692 0
M  V30 2644 C 243.871 1.475 5.13953 0
M  V30 2645 C 245.171 3.34666 4.00994 0
M  V30 2646 H 246.865 2.12359 2.11054 0
M  V30 2647 H 244.411 1.02238 1.01407 0
M  V30 2648 H 246.364 0.777141 4.14172 0
M  V30 2649 H 245.088 -0.102926 3.26438 0
M  V30 2650 H 243.747 2.01972 3.05946 0
M  V30 2651 H 243.395 0.489551 5.00612 0
M  V30 2652 H 243.095 2.1876 5.4536 0
M  V30 2653 H 244.619 1.39489 5.94454 0
M  V30 2654 H 246.033 3.2912 4.69417 0
M  V30 2655 H 244.43 4.03966 4.43769 0
M  V30 2656 H 245.5 3.76949 3.05021 0
M  V30 2657 N 246.843 -1.10192 1.12674 0
M  V30 2658 C 248.091 -1.81845 0.881861 0
M  V30 2659 C 248.412 -1.85737 -0.593867 0
M  V30 2660 O 247.682 -1.33724 -1.4316 0
M  V30 2661 H 246.262 -0.673432 0.323261 0
M  V30 2662 H 248.924 -1.33316 1.42172 0
M  V30 2663 H 248.02 -2.85288 1.2656 0
M  V30 2664 N 248.321 -0.919034 -1.28029 0
M  V30 2665 C 249.598 -0.473668 -1.89778 0
M  V30 2666 C 249.978 1.04783 -1.83259 0
M  V30 2667 O 249.326 1.8982 -1.27202 0
M  V30 2668 C 249.536 -1.00998 -3.34066 0
M  V30 2669 C 250.884 -1.06525 -4.1102 0
M  V30 2670 O 251.908 -0.958996 -3.43048 0
M  V30 2671 O 250.767 -1.22776 -5.3253 0
M  V30 2672 H 247.861 -0.15098 -0.813101 0
M  V30 2673 H 250.407 -1.01016 -1.36359 0
M  V30 2674 H 249.179 -2.05392 -3.33061 0
M  V30 2675 H 248.802 -0.454626 -3.94992 0
M  V30 2676 N 249.799 1.42003 -0.683588 0
M  V30 2677 C 251.046 2.01413 -0.209514 0
M  V30 2678 C 251.374 1.54088 1.1869 0
M  V30 2679 O 250.629 0.737591 1.81268 0
M  V30 2680 C 250.928 3.56827 -0.202357 0
M  V30 2681 C 250.594 4.23617 -1.54464 0
M  V30 2682 C 249.256 4.41577 -1.91215 0
M  V30 2683 C 251.608 4.61178 -2.42826 0
M  V30 2684 C 248.936 4.9437 -3.15935 0
M  V30 2685 C 251.288 5.15355 -3.66867 0
M  V30 2686 C 249.952 5.31528 -4.03776 0
M  V30 2687 H 249.222 0.737023 -0.0766668 0
M  V30 2688 H 251.869 1.70067 -0.880312 0
M  V30 2689 H 250.174 3.87892 0.551969 0
M  V30 2690 H 251.871 4.00588 0.181793 0
M  V30 2691 H 248.461 4.10004 -1.24877 0
M  V30 2692 H 252.645 4.46968 -2.15717 0
M  V30 2693 H 247.901 5.05076 -3.44541 0
M  V30 2694 H 252.075 5.43402 -4.35531 0
M  V30 2695 H 249.702 5.72199 -5.00492 0
M  V30 2696 N 251.277 0.427512 1.51691 0
M  V30 2697 C 252.525 -0.141948 2.01601 0
M  V30 2698 C 252.846 -1.44067 1.31414 0
M  V30 2699 O 252.116 -1.90763 0.445658 0
M  V30 2700 H 250.696 -0.0554468 0.744939 0
M  V30 2701 H 253.358 0.567968 1.86441 0
M  V30 2702 H 252.454 -0.324913 3.10404 0
M  V30 2703 N 252.755 -1.56801 0.158532 0
M  V30 2704 C 253.98 -2.01295 -0.499516 0
M  V30 2705 C 254.405 -1.03799 -1.56867 0
M  V30 2706 O 253.763 -0.0155162 -1.81293 0
M  V30 2707 C 253.811 -3.44469 -1.06647 0
M  V30 2708 O 252.915 -3.50012 -2.18095 0
M  V30 2709 H 252.256 -0.652884 -0.12099 0
M  V30 2710 H 254.786 -2.02958 0.258661 0
M  V30 2711 H 254.796 -3.8351 -1.39227 0
M  V30 2712 H 253.471 -4.14932 -0.283581 0
M  V30 2713 H 252.048 -3.22822 -1.86656 0
M  V30 2714 N 254.233 0.115231 -1.57178 0
M  V30 2715 C 255.196 1.12526 -1.99676 0
M  V30 2716 C 256.196 1.34095 -0.88742 0
M  V30 2717 O 257.386 1.30548 -1.15337 0
M  V30 2718 C 254.518 2.4789 -2.34015 0
M  V30 2719 H 255.711 0.759912 -2.90113 0
M  V30 2720 H 253.264 0.359648 -1.52106 0
M  V30 2721 H 253.999 2.89339 -1.4647 0
M  V30 2722 H 253.784 2.33588 -3.14927 0
M  V30 2723 H 255.274 3.20575 -2.67622 0
M  V30 2724 N 255.711 1.52812 0.385517 0
M  V30 2725 C 256.936 1.72207 1.15583 0
M  V30 2726 C 257.361 0.441034 1.82857 0
M  V30 2727 O 256.719 -0.603465 1.70962 0
M  V30 2728 C 256.767 2.87476 2.17692 0
M  V30 2729 O 255.871 2.54693 3.24354 0
M  V30 2730 H 255.212 0.572526 0.336319 0
M  V30 2731 H 257.742 1.99618 0.448744 0
M  V30 2732 H 257.752 3.13072 2.6163 0
M  V30 2733 H 256.427 3.80408 1.68115 0
M  V30 2734 H 255.004 2.3985 2.85529 0
M  V30 2735 N 257.189 -0.644168 1.43834 0
M  V30 2736 C 258.438 -1.39985 1.45214 0
M  V30 2737 C 258.751 -1.95421 0.0835494 0
M  V30 2738 O 259.957 -2.71488 -0.0251748 0
M  V30 2739 C 258.413 -2.53384 2.55587 0
M  V30 2740 C 258.021 -2.04517 3.98594 0
M  V30 2741 C 259.765 -3.30685 2.66172 0
M  V30 2742 C 257.672 -3.1518 5.00416 0
M  V30 2743 H 256.602 -0.526005 0.540218 0
M  V30 2744 H 259.253 -0.694367 1.69855 0
M  V30 2745 H 257.635 -3.26446 2.24163 0
M  V30 2746 H 258.809 -1.38405 4.39523 0
M  V30 2747 H 257.124 -1.40068 3.92135 0
M  V30 2748 H 259.721 -4.13158 3.39418 0
M  V30 2749 H 260.064 -3.79312 1.71546 0
M  V30 2750 H 260.597 -2.64708 2.96942 0
M  V30 2751 H 257.336 -2.71511 5.96625 0
M  V30 2752 H 256.856 -3.79974 4.64091 0
M  V30 2753 H 258.535 -3.80166 5.23529 0
M  V30 2754 N 258.668 -1.30515 -0.883378 0
M  V30 2755 C 259.601 -1.11359 -1.99184 0
M  V30 2756 C 260.579 -0.0207858 -1.62587 0
M  V30 2757 O 261.763 -0.174646 -1.87689 0
M  V30 2758 C 258.89 -0.69871 -3.31415 0
M  V30 2759 C 257.936 -1.79261 -3.86998 0
M  V30 2760 S 258.769 -3.39536 -4.14096 0
M  V30 2761 C 259.925 -2.99954 -5.49344 0
M  V30 2762 H 260.158 -2.052 -2.15128 0
M  V30 2763 H 257.691 -1.14847 -1.03196 0
M  V30 2764 H 259.649 -0.466075 -4.07846 0
M  V30 2765 H 258.31 0.220368 -3.13326 0
M  V30 2766 H 257.503 -1.45464 -4.82552 0
M  V30 2767 H 257.105 -1.97961 -3.17313 0
M  V30 2768 H 259.397 -2.48013 -6.30473 0
M  V30 2769 H 260.34 -3.9442 -5.8808 0
M  V30 2770 H 260.748 -2.37775 -5.1198 0
M  V30 2771 N 260.146 1.09593 -1.13257 0
M  V30 2772 C 261.109 2.14359 -0.811358 0
M  V30 2773 C 262.109 1.59808 0.178377 0
M  V30 2774 O 263.299 1.74132 -0.0484911 0
M  V30 2775 C 260.431 3.40269 -0.207276 0
M  V30 2776 H 261.624 2.44284 -1.73969 0
M  V30 2777 H 259.177 1.25102 -0.936973 0
M  V30 2778 H 259.912 3.15969 0.73036 0
M  V30 2779 H 259.697 3.81154 -0.919992 0
M  V30 2780 H 261.187 4.176 0.000667944 0
M  V30 2781 N 261.624 0.925811 1.2754 0
M  V30 2782 C 263.035 0.610102 1.7645 0
M  V30 2783 C 263.386 -0.874723 1.75622 0
M  V30 2784 O 262.511 -1.68444 1.35851 0
M  V30 2785 C 263.106 1.10073 3.20421 0
M  V30 2786 C 261.665 0.835723 3.67005 0
M  V30 2787 C 260.812 1.26054 2.46993 0
M  V30 2788 H 263.763 1.10579 1.13833 0
M  V30 2789 H 263.784 0.447557 3.77859 0
M  V30 2790 H 263.296 2.18143 3.20991 0
M  V30 2791 H 261.397 -0.231249 3.71882 0
M  V30 2792 H 261.51 1.45193 4.56569 0
M  V30 2793 H 259.874 0.679111 2.45479 0
M  V30 2794 H 260.657 2.34984 2.50275 0
M  V30 2795 N 263.102 -1.41638 0.69111 0
M  V30 2796 C 264.065 -2.29178 0.0319786 0
M  V30 2797 C 265.065 -1.44153 -0.712496 0
M  V30 2798 O 266.255 -1.65354 -0.548053 0
M  V30 2799 C 263.387 -3.26952 -0.965161 0
M  V30 2800 H 264.58 -2.88959 0.802681 0
M  V30 2801 H 262.133 -1.4955 0.454356 0
M  V30 2802 H 262.868 -2.72142 -1.76378 0
M  V30 2803 H 262.653 -3.89685 -0.434522 0
M  V30 2804 H 264.143 -3.92561 -1.42428 0
M  V30 2805 N 264.58 -0.43555 -1.51462 0
M  V30 2806 C 265.528 0.391205 -2.29287 0
M  V30 2807 C 266.522 1.02247 -1.35062 0
M  V30 2808 O 267.728 0.957646 -1.52411 0
M  V30 2809 H 264.103 0.144968 -0.737895 0
M  V30 2810 H 266.074 -0.286051 -2.97026 0
M  V30 2811 C 264.823 1.48096 -3.14583 0
M  V30 2812 H 264.146 1.00457 -3.86973 0
M  V30 2813 H 265.586 2.03273 -3.72097 0
M  V30 2814 C 264.045 2.46321 -2.29843 0
M  V30 2815 O 264.575 3.50815 -1.95682 0
M  V30 2816 N 262.781 2.17166 -1.931 0
M  V30 2817 H 262.328 1.32218 -2.21079 0
M  V30 2818 H 262.286 2.83127 -1.36698 0
M  V30 2819 N 266.058 1.56714 -0.166846 0
M  V30 2820 C 267.283 2.01557 0.488833 0
M  V30 2821 C 267.708 1.0463 1.56314 0
M  V30 2822 O 267.066 0.0251304 1.81283 0
M  V30 2823 C 267.114 3.4503 1.04818 0
M  V30 2824 O 266.218 3.51163 2.16236 0
M  V30 2825 H 265.559 0.653516 0.117526 0
M  V30 2826 H 268.089 2.02818 -0.269421 0
M  V30 2827 H 268.099 3.84243 1.37191 0
M  V30 2828 H 266.774 4.15077 0.261572 0
M  V30 2829 H 265.351 3.23807 1.84942 0
M  V30 2830 N 267.536 -0.106894 1.57237 0
M  V30 2831 C 268.783 -0.812526 1.85484 0
M  V30 2832 C 269.111 -1.79304 0.753687 0
M  V30 2833 O 268.366 -1.94047 -0.253853 0
M  V30 2834 C 268.665 -1.58628 3.20268 0
M  V30 2835 C 268.331 -0.748967 4.44636 0
M  V30 2836 C 266.993 -0.518104 4.78403 0
M  V30 2837 C 269.345 -0.166122 5.20935 0
M  V30 2838 C 266.673 0.305659 5.85903 0
M  V30 2839 C 269.025 0.644899 6.29304 0
M  V30 2840 C 267.689 0.885965 6.61594 0
M  V30 2841 H 266.959 -0.297324 0.678734 0
M  V30 2842 H 269.606 -0.0744332 1.91355 0
M  V30 2843 H 267.911 -2.39562 3.10028 0
M  V30 2844 H 269.608 -2.13643 3.39349 0
M  V30 2845 H 266.198 -0.939006 4.18187 0
M  V30 2846 H 270.382 -0.33167 4.95191 0
M  V30 2847 H 265.638 0.501528 6.0934 0
M  V30 2848 H 269.812 1.10345 6.87602 0
M  V30 2849 H 267.439 1.52609 7.44725 0
M  V30 2850 N 269.014 -1.53014 -0.377408 0
M  V30 2851 C 270.26 -1.68872 -1.12294 0
M  V30 2852 C 270.593 -0.433224 -1.89306 0
M  V30 2853 O 269.868 0.569258 -1.85983 0
M  V30 2854 C 270.151 -2.93115 -2.09179 0
M  V30 2855 C 270.004 -4.28794 -1.35853 0
M  V30 2856 C 271.323 -3.12928 -3.09458 0
M  V30 2857 H 268.442 -0.614518 -0.406862 0
M  V30 2858 H 271.084 -1.85633 -0.40503 0
M  V30 2859 H 269.234 -2.78956 -2.70399 0
M  V30 2860 H 270.906 -4.54742 -0.775082 0
M  V30 2861 H 269.149 -4.28744 -0.660364 0
M  V30 2862 H 269.82 -5.11837 -2.06706 0
M  V30 2863 H 272.296 -3.26194 -2.58334 0
M  V30 2864 H 271.172 -4.01316 -3.74482 0
M  V30 2865 H 271.433 -2.27669 -3.78971 0
M  V30 2866 N 270.492 0.636531 -1.44174 0
M  V30 2867 C 271.74 1.39343 -1.46383 0
M  V30 2868 C 272.061 1.94766 -0.0955715 0
M  V30 2869 O 271.331 1.75452 0.871395 0
M  V30 2870 H 269.911 0.517199 -0.538994 0
M  V30 2871 H 272.573 0.74957 -1.7991 0
M  V30 2872 H 271.669 2.22746 -2.18611 0
M  V30 2873 N 271.97 1.30982 0.876444 0
M  V30 2874 C 273.198 1.23242 1.6619 0
M  V30 2875 C 273.613 -0.203345 1.87702 0
M  V30 2876 O 272.97 -1.13317 1.43057 0
M  V30 2877 C 273.021 1.96623 3.03351 0
M  V30 2878 O 272.742 3.34594 2.82804 0
M  V30 2879 C 274.243 1.95644 3.97792 0
M  V30 2880 H 271.463 0.426126 0.518322 0
M  V30 2881 H 274.007 1.7275 1.09442 0
M  V30 2882 H 272.162 1.50892 3.56806 0
M  V30 2883 H 272.576 3.71873 3.69879 0
M  V30 2884 H 274.05 2.51511 4.91372 0
M  V30 2885 H 274.527 0.937395 4.2908 0
M  V30 2886 H 275.133 2.41225 3.50272 0
M  V30 2887 N 273.449 -1.08991 1.13837 0
M  V30 2888 C 274.86 -1.62746 0.914917 0
M  V30 2889 C 275.211 -1.88403 -0.547594 0
M  V30 2890 O 274.336 -1.63706 -1.41525 0
M  V30 2891 C 274.931 -2.95662 1.65437 0
M  V30 2892 C 273.49 -3.46225 1.47666 0
M  V30 2893 C 272.637 -2.20562 1.6807 0
M  V30 2894 H 275.588 -0.922946 1.29102 0
M  V30 2895 H 275.609 -3.63825 1.11407 0
M  V30 2896 H 275.121 -2.76956 2.71877 0
M  V30 2897 H 273.222 -3.70046 0.435478 0
M  V30 2898 H 273.335 -4.23368 2.24268 0
M  V30 2899 H 271.699 -2.29439 1.10589 0
M  V30 2900 H 272.482 -2.0437 2.7584 0
M  V30 2901 N 274.927 -0.932562 -1.27047 0
M  V30 2902 C 276.157 -0.591173 -1.97961 0
M  V30 2903 C 276.565 0.836219 -1.69717 0
M  V30 2904 O 275.908 1.56801 -0.957036 0
M  V30 2905 C 275.97 -0.743082 -3.51736 0
M  V30 2906 C 275.634 -2.1435 -4.03613 0
M  V30 2907 C 276.631 -3.11815 -4.16014 0
M  V30 2908 C 274.316 -2.46175 -4.37839 0
M  V30 2909 C 276.31 -4.39211 -4.61923 0
M  V30 2910 C 273.997 -3.73806 -4.83438 0
M  V30 2911 C 274.995 -4.70137 -4.95439 0
M  V30 2912 O 274.683 -5.95496 -5.40037 0
M  V30 2913 H 274.415 -0.222375 -0.638377 0
M  V30 2914 H 276.969 -1.25317 -1.62742 0
M  V30 2915 H 275.199 -0.0239739 -3.86693 0
M  V30 2916 H 276.888 -0.40603 -4.03864 0
M  V30 2917 H 277.654 -2.88549 -3.89826 0
M  V30 2918 H 273.533 -1.71936 -4.27737 0
M  V30 2919 H 277.077 -5.14404 -4.71205 0
M  V30 2920 H 272.974 -3.96888 -5.09068 0
M  V30 2921 H 273.742 -5.98554 -5.58279 0
M  V30 2922 N 276.405 1.4127 -0.698611 0
M  V30 2923 C 277.651 2.01979 -0.239972 0
M  V30 2924 C 278.006 1.54353 1.14861 0
M  V30 2925 O 277.299 0.746218 1.76471 0
M  V30 2926 C 277.493 3.56592 -0.240192 0
M  V30 2927 C 277.322 4.19226 -1.62726 0
M  V30 2928 C 276.092 4.53389 -2.23084 0
M  V30 2929 C 278.29 4.45228 -2.57443 0
M  V30 2930 N 276.272 5.01327 -3.54323 0
M  V30 2931 C 277.643 4.94973 -3.73365 0
M  V30 2932 C 279.698 4.27243 -2.55671 0
M  V30 2933 C 278.401 5.28624 -4.878 0
M  V30 2934 C 280.427 4.61985 -3.69221 0
M  V30 2935 C 279.789 5.11904 -4.83873 0
M  V30 2936 H 275.888 0.770561 -0.133269 0
M  V30 2937 H 278.472 1.71767 -0.916748 0
M  V30 2938 H 276.643 3.86271 0.406082 0
M  V30 2939 H 278.375 4.04025 0.23356 0
M  V30 2940 H 275.13 4.39946 -1.75341 0
M  V30 2941 H 275.554 5.29697 -4.21604 0
M  V30 2942 H 280.196 3.87884 -1.68243 0
M  V30 2943 H 277.914 5.66905 -5.75885 0
M  V30 2944 H 281.5 4.49725 -3.69105 0
M  V30 2945 H 280.38 5.38282 -5.70282 0
M  V30 2946 N 277.883 0.443576 1.51229 0
M  V30 2947 C 278.816 -0.410089 2.24485 0
M  V30 2948 C 279.794 -1.01949 1.26669 0
M  V30 2949 O 280.978 -1.06075 1.55821 0
M  V30 2950 C 278.105 -1.57211 3.00004 0
M  V30 2951 C 277.151 -1.08279 4.12526 0
M  V30 2952 S 277.984 -0.0197476 5.35496 0
M  V30 2953 C 279.14 -1.18629 6.14555 0
M  V30 2954 H 279.373 0.211832 2.96544 0
M  V30 2955 H 276.906 0.228156 1.52705 0
M  V30 2956 H 278.864 -2.23825 3.44111 0
M  V30 2957 H 277.525 -2.16547 2.27522 0
M  V30 2958 H 276.718 -1.95193 4.64667 0
M  V30 2959 H 276.32 -0.494797 3.70713 0
M  V30 2960 H 278.612 -2.10344 6.4402 0
M  V30 2961 H 279.555 -0.70472 7.04584 0
M  V30 2962 H 279.963 -1.42768 5.46148 0
M  V30 2963 N 279.361 -1.56624 0.175154 0
M  V30 2964 C 280.324 -2.16934 -0.739738 0
M  V30 2965 C 281.324 -1.11842 -1.15533 0
M  V30 2966 O 282.514 -1.37335 -1.07167 0
M  V30 2967 C 279.646 -2.75531 -2.00738 0
M  V30 2968 H 280.839 -2.99131 -0.214639 0
M  V30 2969 H 278.392 -1.56123 -0.0744197 0
M  V30 2970 H 279.127 -1.97078 -2.57548 0
M  V30 2971 H 278.912 -3.52444 -1.71831 0
M  V30 2972 H 280.402 -3.21904 -2.66021 0
M  V30 2973 N 280.839 0.0985539 -1.57292 0
M  V30 2974 C 282.25 0.653457 -1.74891 0
M  V30 2975 C 282.601 1.7929 -0.796838 0
M  V30 2976 O 281.726 2.16385 0.0254886 0
M  V30 2977 C 282.321 1.19216 -3.17133 0
M  V30 2978 C 280.88 1.69316 -3.36168 0
M  V30 2979 C 280.027 0.601294 -2.70702 0
M  V30 2980 H 282.978 -0.127497 -1.58187 0
M  V30 2981 H 282.999 2.06154 -3.19814 0
M  V30 2982 H 282.511 0.362635 -3.86402 0
M  V30 2983 H 280.612 2.5468 -2.71972 0
M  V30 2984 H 280.725 1.78853 -4.44464 0
M  V30 2985 H 279.089 1.0399 -2.32504 0
M  V30 2986 H 279.872 -0.217592 -3.4261 0
M  V30 2987 N 282.317 1.53212 0.369288 0
M  V30 2988 C 283.227 1.82342 1.47609 0
M  V30 2989 C 284.243 0.711532 1.58787 0
M  V30 2990 O 285.419 1.0012 1.74751 0
M  V30 2991 C 282.484 2.00393 2.8292 0
M  V30 2992 C 281.545 3.24297 2.81301 0
M  V30 2993 C 280.778 3.41478 4.10157 0
M  V30 2994 O 281.001 2.63033 5.06132 0
M  V30 2995 O 279.935 4.34817 4.16194 0
M  V30 2996 H 283.761 2.76366 1.25918 0
M  V30 2997 H 281.346 1.38547 0.559034 0
M  V30 2998 H 283.228 2.13859 3.63101 0
M  V30 2999 H 281.903 1.09559 3.04596 0
M  V30 3000 H 280.81 3.16257 1.99831 0
M  V30 3001 H 282.143 4.15041 2.64578 0
M  V30 3002 N 283.795 -0.628877 1.44509 0
M  V30 3003 C 285.041 -1.39045 1.47629 0
M  V30 3004 C 285.374 -1.93892 0.109343 0
M  V30 3005 O 284.649 -1.7379 -0.87334 0
M  V30 3006 C 284.932 -2.55408 2.53848 0
M  V30 3007 C 284.785 -2.05896 3.99909 0
M  V30 3008 C 286.104 -3.5759 2.56549 0
M  V30 3009 H 283.223 -0.504232 0.537512 0
M  V30 3010 H 285.865 -0.710854 1.76201 0
M  V30 3011 H 284.015 -3.13384 2.29615 0
M  V30 3012 H 285.687 -1.52734 4.35282 0
M  V30 3013 H 283.93 -1.37061 4.11578 0
M  V30 3014 H 284.601 -2.89681 4.69882 0
M  V30 3015 H 287.077 -3.09419 2.78207 0
M  V30 3016 H 285.953 -4.36527 3.32769 0
M  V30 3017 H 286.214 -4.11808 1.60832 0
M  V30 3018 N 285.273 -1.31445 -0.869486 0
M  V30 3019 C 286.522 -1.20517 -1.61736 0
M  V30 3020 C 286.835 0.235341 -1.94179 0
M  V30 3021 O 288.041 0.466312 -2.67465 0
M  V30 3022 C 286.497 -2.10982 -2.91573 0
M  V30 3023 C 286.105 -3.60032 -2.66611 0
M  V30 3024 C 287.849 -2.08856 -3.69567 0
M  V30 3025 C 285.756 -4.42503 -3.92358 0
M  V30 3026 H 284.686 -0.447493 -0.606849 0
M  V30 3027 H 287.337 -1.56303 -0.96133 0
M  V30 3028 H 285.719 -1.68095 -3.58553 0
M  V30 3029 H 286.893 -4.11167 -2.08035 0
M  V30 3030 H 285.208 -3.64139 -2.0197 0
M  V30 3031 H 287.805 -2.67716 -4.62852 0
M  V30 3032 H 288.148 -1.07582 -4.02159 0
M  V30 3033 H 288.681 -2.49945 -3.09471 0
M  V30 3034 H 285.42 -5.44533 -3.64916 0
M  V30 3035 H 284.94 -3.96125 -4.50383 0
M  V30 3036 H 286.619 -4.54741 -4.60238 0
M  V30 3037 N 286.751 1.08385 -1.14413 0
M  V30 3038 C 287.681 2.17321 -0.854044 0
M  V30 3039 C 288.662 1.69024 0.191049 0
M  V30 3040 O 289.847 1.94141 0.0476779 0
M  V30 3041 C 286.977 3.45719 -0.330983 0
M  V30 3042 C 285.931 4.07409 -1.31155 0
M  V30 3043 C 285.257 5.30762 -0.64778 0
M  V30 3044 C 286.557 4.48665 -2.67388 0
M  V30 3045 H 288.251 2.41845 -1.76498 0
M  V30 3046 H 285.797 1.16233 -0.850051 0
M  V30 3047 H 287.75 4.21241 -0.115645 0
M  V30 3048 H 286.474 3.2075 0.615381 0
M  V30 3049 H 285.133 3.33919 -1.51306 0
M  V30 3050 H 284.781 5.02078 0.304398 0
M  V30 3051 H 284.481 5.72992 -1.30207 0
M  V30 3052 H 286.005 6.08998 -0.441972 0
M  V30 3053 H 287.419 5.15364 -2.51143 0
M  V30 3054 H 285.816 5.01814 -3.29093 0
M  V30 3055 H 286.886 3.60543 -3.24248 0
M  V30 3056 N 288.23 0.939286 1.26551 0
M  V30 3057 C 289.193 0.451987 2.24699 0
M  V30 3058 C 290.193 -0.435869 1.5478 0
M  V30 3059 O 291.383 -0.235314 1.72603 0
M  V30 3060 C 288.515 -0.348801 3.39111 0
M  V30 3061 H 289.708 1.3193 2.69322 0
M  V30 3062 H 287.261 0.721072 1.38673 0
M  V30 3063 H 287.996 -1.23444 2.99887 0
M  V30 3064 H 287.781 0.287945 3.91041 0
M  V30 3065 H 289.271 -0.679726 4.12031 0
M  V30 3066 N 289.708 -1.40897 0.706093 0
M  V30 3067 C 290.641 -2.282 -0.00328781 0
M  V30 3068 C 291.619 -1.42816 -0.77732 0
M  V30 3069 O 292.803 -1.72237 -0.765944 0
M  V30 3070 C 289.93 -3.23226 -1.01205 0
M  V30 3071 C 288.976 -4.25222 -0.329955 0
M  V30 3072 S 289.809 -5.27269 0.935298 0
M  V30 3073 C 290.965 -6.25859 -0.0716061 0
M  V30 3074 H 291.198 -2.88016 0.737143 0
M  V30 3075 H 288.731 -1.46191 0.496756 0
M  V30 3076 H 290.689 -3.78503 -1.58888 0
M  V30 3077 H 289.35 -2.62485 -1.72513 0
M  V30 3078 H 288.543 -4.92023 -1.09221 0
M  V30 3079 H 288.145 -3.73595 0.174069 0
M  V30 3080 H 290.437 -6.71204 -0.921521 0
M  V30 3081 H 291.38 -7.0586 0.562765 0
M  V30 3082 H 291.788 -5.62852 -0.431088 0
M  V30 3083 N 291.186 -0.45159 -1.50991 0
M  V30 3084 C 292.463 0.170707 -1.94854 0
M  V30 3085 C 292.843 1.58788 -1.39103 0
M  V30 3086 O 292.191 2.20913 -0.583921 0
M  V30 3087 C 292.401 0.133929 -3.48743 0
M  V30 3088 C 293.749 0.33248 -4.23296 0
M  V30 3089 O 294.773 0.211403 -3.55572 0
M  V30 3090 O 293.632 0.57486 -5.43468 0
M  V30 3091 H 290.726 0.122264 -0.817912 0
M  V30 3092 H 293.272 -0.510594 -1.61836 0
M  V30 3093 H 292.044 -0.856283 -3.81816 0
M  V30 3094 H 291.667 0.857529 -3.88242 0
M  V30 3095 N 292.664 1.56529 -0.183458 0
M  V30 3096 C 293.574 2.22144 0.754272 0
M  V30 3097 C 294.59 1.21684 1.24374 0
M  V30 3098 O 295.766 1.54385 1.29333 0
M  V30 3099 C 292.831 2.85884 1.96141 0
M  V30 3100 C 291.892 4.01579 1.51765 0
M  V30 3101 C 291.125 4.6227 2.66725 0
M  V30 3102 O 291.348 4.21865 3.83909 0
M  V30 3103 O 290.282 5.51936 2.40104 0
M  V30 3104 H 294.108 3.02861 0.225527 0
M  V30 3105 H 291.693 1.49331 0.0453032 0
M  V30 3106 H 293.575 3.26253 2.66715 0
M  V30 3107 H 292.25 2.08154 2.47899 0
M  V30 3108 H 291.157 3.65856 0.781049 0
M  V30 3109 H 292.49 4.80938 1.04686 0
M  V30 3110 N 294.142 -0.090211 1.57342 0
M  V30 3111 C 295.39 -0.791241 1.85967 0
M  V30 3112 C 295.711 -1.7903 0.772859 0
M  V30 3113 O 294.981 -1.94872 -0.200398 0
M  V30 3114 H 293.561 -0.295205 0.686195 0
M  V30 3115 H 296.223 -0.0706782 1.94772 0
M  V30 3116 H 295.319 -1.31882 2.82867 0
M  V30 3117 N 295.62 -1.53406 -0.361157 0
M  V30 3118 C 296.552 -1.76446 -1.46286 0
M  V30 3119 C 297.565 -0.645322 -1.49464 0
M  V30 3120 O 298.754 -0.921681 -1.52864 0
M  V30 3121 C 295.854 -1.83332 -2.85031 0
M  V30 3122 C 295.027 -3.13033 -3.05498 0
M  V30 3123 C 294.086 -3.11104 -4.24383 0
M  V30 3124 O 293.112 -3.84888 -4.19344 0
M  V30 3125 N 294.314 -2.32234 -5.32022 0
M  V30 3126 H 297.079 -2.71508 -1.26899 0
M  V30 3127 H 294.64 -1.52238 -0.550915 0
M  V30 3128 H 296.632 -1.79514 -3.62708 0
M  V30 3129 H 295.202 -0.955342 -2.97644 0
M  V30 3130 H 294.422 -3.30119 -2.15442 0
M  V30 3131 H 295.71 -3.9874 -3.16044 0
M  V30 3132 H 295.108 -1.71807 -5.38979 0
M  V30 3133 H 293.665 -2.3423 -6.08259 0
M  V30 3134 N 297.098 0.621204 -1.44841 0
M  V30 3135 C 298.328 1.40548 -1.51426 0
M  V30 3136 C 298.736 1.88673 -0.141083 0
M  V30 3137 O 298.079 1.62053 0.865128 0
M  V30 3138 C 298.141 2.65325 -2.42576 0
M  V30 3139 C 297.805 2.3893 -3.89566 0
M  V30 3140 C 298.802 2.00138 -4.79834 0
M  V30 3141 C 296.487 2.52263 -4.3436 0
M  V30 3142 C 298.481 1.75021 -6.129 0
M  V30 3143 C 296.168 2.2676 -5.67471 0
M  V30 3144 C 297.166 1.88199 -6.56559 0
M  V30 3145 O 296.854 1.62986 -7.87204 0
M  V30 3146 H 296.586 0.437122 -0.515655 0
M  V30 3147 H 299.14 0.765987 -1.90583 0
M  V30 3148 H 297.37 3.31947 -1.98364 0
M  V30 3149 H 299.059 3.27347 -2.39998 0
M  V30 3150 H 299.825 1.89386 -4.46495 0
M  V30 3151 H 295.704 2.81246 -3.65269 0
M  V30 3152 H 299.248 1.44848 -6.82396 0
M  V30 3153 H 295.145 2.37125 -6.00368 0
M  V30 3154 H 295.913 1.7715 -7.991 0
M  V30 3155 N 298.576 1.31904 0.862503 0
M  V30 3156 C 299.853 1.12644 1.59908 0
M  V30 3157 C 300.233 -0.316104 2.0872 0
M  V30 3158 O 299.581 -1.31145 1.87118 0
M  V30 3159 C 299.791 2.1472 2.7513 0
M  V30 3160 C 301.139 2.47637 3.44907 0
M  V30 3161 O 302.163 2.13205 2.85346 0
M  V30 3162 O 301.022 3.06632 4.52371 0
M  V30 3163 H 298.116 0.43416 0.703871 0
M  V30 3164 H 300.662 1.43408 0.907314 0
M  V30 3165 H 299.434 3.1172 2.3653 0
M  V30 3166 H 299.057 1.84905 3.51989 0
M  V30 3167 N 300.054 -1.07777 1.14986 0
M  V30 3168 C 301.302 -1.79934 0.920235 0
M  V30 3169 C 301.623 -1.86955 -0.554336 0
M  V30 3170 O 300.893 -1.36731 -1.40291 0
M  V30 3171 H 299.473 -0.666424 0.337473 0
M  V30 3172 H 302.135 -1.3027 1.44968 0
M  V30 3173 H 301.231 -2.82539 1.32583 0
M  V30 3174 N 301.532 -0.945985 -1.26051 0
M  V30 3175 C 302.479 -0.45809 -2.26208 0
M  V30 3176 C 303.449 0.484816 -1.58867 0
M  V30 3177 O 304.634 0.399969 -1.86561 0
M  V30 3178 C 301.774 0.266131 -3.44072 0
M  V30 3179 C 300.887 -0.713005 -4.26075 0
M  V30 3180 C 300.022 0.0329013 -5.3119 0
M  V30 3181 C 299.061 -0.93774 -6.04874 0
M  V30 3182 N 298.198 -0.223274 -7.01745 0
M  V30 3183 H 303.038 -1.3171 -2.67313 0
M  V30 3184 H 300.575 -0.66069 -1.31428 0
M  V30 3185 H 302.533 0.702514 -4.11243 0
M  V30 3186 H 301.163 1.08925 -3.03867 0
M  V30 3187 H 300.215 -1.26789 -3.58648 0
M  V30 3188 H 301.527 -1.45406 -4.77136 0
M  V30 3189 H 300.681 0.528335 -6.04395 0
M  V30 3190 H 299.42 0.806801 -4.8098 0
M  V30 3191 H 298.425 -1.44425 -5.30492 0
M  V30 3192 H 299.65 -1.71172 -6.57173 0
M  V30 3193 H 297.596 0.532046 -6.53839 0
M  V30 3194 H 297.513 -0.90357 -7.50581 0
M  V30 3195 H 298.781 0.250907 -7.79096 0
M  V30 3196 N 303.011 1.40521 -0.713556 0
M  V30 3197 C 304.257 2.01221 -0.252564 0
M  V30 3198 C 304.59 1.56444 1.1506 0
M  V30 3199 O 303.865 0.783597 1.78017 0
M  V30 3200 C 304.148 3.58582 -0.330332 0
M  V30 3201 C 304.001 4.13437 -1.77173 0
M  V30 3202 C 305.32 4.39079 0.299641 0
M  V30 3203 H 302.439 0.731077 -0.0932471 0
M  V30 3204 H 305.081 1.67026 -0.905673 0
M  V30 3205 H 303.231 3.87844 0.225737 0
M  V30 3206 H 304.903 3.9498 -2.38303 0
M  V30 3207 H 303.146 3.67801 -2.3001 0
M  V30 3208 H 303.817 5.22597 -1.77755 0
M  V30 3209 H 306.293 4.15735 -0.174139 0
M  V30 3210 H 305.169 5.4848 0.214771 0
M  V30 3211 H 305.43 4.19915 1.38288 0
M  V30 3212 N 304.489 0.459591 1.5075 0
M  V30 3213 C 305.766 -0.160371 1.94941 0
M  V30 3214 C 306.146 -1.58048 1.39943 0
M  V30 3215 O 305.494 -2.206 0.595629 0
M  V30 3216 C 305.704 -0.115432 3.48809 0
M  V30 3217 C 307.052 -0.310026 4.23467 0
M  V30 3218 O 308.076 -0.192543 3.55679 0
M  V30 3219 O 306.935 -0.546031 5.43765 0
M  V30 3220 H 304.029 -0.117925 0.818549 0
M  V30 3221 H 306.575 0.519169 1.61563 0
M  V30 3222 H 305.347 0.87652 3.81357 0
M  V30 3223 H 304.97 -0.836928 3.88692 0
M  V30 3224 N 305.967 -1.56429 0.191757 0
M  V30 3225 C 307.213 -1.97777 -0.448554 0
M  V30 3226 C 307.546 -1.07847 -1.61501 0
M  V30 3227 O 306.821 -0.129774 -1.94067 0
M  V30 3228 C 307.104 -3.48362 -0.911906 0
M  V30 3229 C 306.957 -4.4907 0.256136 0
M  V30 3230 C 308.276 -4.02561 -1.77857 0
M  V30 3231 H 305.395 -0.719071 -0.161572 0
M  V30 3232 H 308.037 -1.87896 0.282007 0
M  V30 3233 H 306.187 -3.56914 -1.53442 0
M  V30 3234 H 307.859 -4.5256 0.893733 0
M  V30 3235 H 306.102 -4.24181 0.908436 0
M  V30 3236 H 306.773 -5.51889 -0.11053 0
M  V30 3237 H 309.249 -3.96767 -1.25359 0
M  V30 3238 H 308.125 -5.08301 -2.07174 0
M  V30 3239 H 308.386 -3.47616 -2.73158 0
M  V30 3240 N 307.445 0.0818655 -1.57387 0
M  V30 3241 C 308.691 0.778884 -1.87896 0
M  V30 3242 C 309.046 1.75692 -0.784229 0
M  V30 3243 O 308.339 1.90417 0.212567 0
M  V30 3244 C 308.533 1.53513 -3.22752 0
M  V30 3245 C 308.362 0.631838 -4.45239 0
M  V30 3246 C 307.132 0.272571 -5.04564 0
M  V30 3247 C 309.33 -0.0670191 -5.14256 0
M  V30 3248 N 307.312 -0.637498 -6.10581 0
M  V30 3249 C 308.683 -0.834653 -6.14356 0
M  V30 3250 C 310.738 -0.139551 -4.97704 0
M  V30 3251 C 309.441 -1.66806 -6.99691 0
M  V30 3252 C 311.467 -0.959903 -5.83558 0
M  V30 3253 C 310.829 -1.71561 -6.83188 0
M  V30 3254 H 306.928 0.260764 -0.737242 0
M  V30 3255 H 309.512 0.0408227 -1.94657 0
M  V30 3256 H 307.683 2.24398 -3.17018 0
M  V30 3257 H 309.415 2.18038 -3.40942 0
M  V30 3258 H 306.17 0.62319 -4.69482 0
M  V30 3259 H 306.594 -1.08548 -6.68241 0
M  V30 3260 H 311.236 0.430376 -4.20604 0
M  V30 3261 H 308.954 -2.249 -7.76174 0
M  V30 3262 H 312.54 -1.01887 -5.72809 0
M  V30 3263 H 311.42 -2.34017 -7.48469 0
M  V30 3264 N 308.923 1.53595 0.353017 0
M  V30 3265 C 310.148 1.7462 1.11904 0
M  V30 3266 C 310.573 0.479721 1.8188 0
M  V30 3267 O 309.931 -0.567066 1.72204 0
M  V30 3268 C 309.979 2.92029 2.11545 0
M  V30 3269 O 309.083 2.61516 3.18878 0
M  V30 3270 H 308.424 0.579531 0.324099 0
M  V30 3271 H 310.954 2.00525 0.406301 0
M  V30 3272 H 310.964 3.18551 2.5493 0
M  V30 3273 H 309.639 3.83888 1.60008 0
M  V30 3274 H 308.216 2.45852 2.80377 0
M  V30 3275 N 310.401 -0.613514 1.45168 0
M  V30 3276 C 311.331 -1.7354 1.56225 0
M  V30 3277 C 312.312 -1.64981 0.41414 0
M  V30 3278 O 313.497 -1.83472 0.636526 0
M  V30 3279 C 310.627 -3.12128 1.52295 0
M  V30 3280 C 309.581 -3.35491 2.65762 0
M  V30 3281 C 308.907 -4.74291 2.46885 0
M  V30 3282 C 310.207 -3.26325 4.0781 0
M  V30 3283 H 311.901 -1.64543 2.50132 0
M  V30 3284 H 309.447 -0.790185 1.20383 0
M  V30 3285 H 311.4 -3.90404 1.58628 0
M  V30 3286 H 310.124 -3.2195 0.549139 0
M  V30 3287 H 308.783 -2.59603 2.58847 0
M  V30 3288 H 308.431 -4.80839 1.47657 0
M  V30 3289 H 308.131 -4.9088 3.22972 0
M  V30 3290 H 309.655 -5.54775 2.55063 0
M  V30 3291 H 311.069 -3.94483 4.16 0
M  V30 3292 H 309.466 -3.54445 4.8424 0
M  V30 3293 H 310.536 -2.23855 4.30136 0
M  V30 3294 N 311.879 -1.3236 -0.855495 0
M  V30 3295 C 313.127 -1.22629 -1.60644 0
M  V30 3296 C 313.448 0.212136 -1.93843 0
M  V30 3297 O 312.718 1.13666 -1.59552 0
M  V30 3298 H 311.298 -0.450882 -0.595579 0
M  V30 3299 H 313.96 -1.65871 -1.02337 0
M  V30 3300 H 313.056 -1.80832 -2.54374 0
M  V30 3301 N 313.357 1.07166 -1.15556 0
M  V30 3302 C 314.606 1.79181 -0.926132 0
M  V30 3303 C 314.919 1.87768 0.547967 0
M  V30 3304 O 316.125 2.56323 0.895036 0
M  V30 3305 C 314.581 3.22 -1.60761 0
M  V30 3306 C 314.189 3.21607 -3.11886 0
M  V30 3307 C 315.933 3.9861 -1.4598 0
M  V30 3308 C 313.84 4.59092 -3.72812 0
M  V30 3309 H 312.77 0.67154 -0.342856 0
M  V30 3310 H 315.421 1.2027 -1.3859 0
M  V30 3311 H 313.803 3.81115 -1.07553 0
M  V30 3312 H 314.977 2.72127 -3.71865 0
M  V30 3313 H 313.292 2.58495 -3.2645 0
M  V30 3314 H 315.889 5.00225 -1.88888 0
M  V30 3315 H 316.232 4.143 -0.407541 0
M  V30 3316 H 316.765 3.45996 -1.96295 0
M  V30 3317 H 313.504 4.48606 -4.77946 0
M  V30 3318 H 313.024 5.08803 -3.17616 0
M  V30 3319 H 314.703 5.28059 -3.73848 0
M  V30 3320 N 314.835 0.952656 1.25548 0
M  V30 3321 C 316.063 0.623496 1.97282 0
M  V30 3322 C 316.478 -0.803987 1.70826 0
M  V30 3323 O 315.835 -1.53755 0.983147 0
M  V30 3324 C 315.886 0.870209 3.5087 0
M  V30 3325 O 315.607 2.24156 3.76412 0
M  V30 3326 C 317.108 0.553164 4.39835 0
M  V30 3327 H 314.328 0.233931 0.628902 0
M  V30 3328 H 316.872 1.27649 1.59768 0
M  V30 3329 H 315.027 0.263652 3.86502 0
M  V30 3330 H 315.441 2.31021 4.70882 0
M  V30 3331 H 316.915 0.776342 5.46513 0
M  V30 3332 H 317.392 -0.512215 4.36203 0
M  V30 3333 H 317.998 1.13896 4.09766 0
M  V30 3334 N 316.313 -1.40141 0.720998 0
M  V30 3335 C 317.553 -2.02644 0.267335 0
M  V30 3336 C 317.917 -1.55948 -1.12001 0
M  V30 3337 O 319.118 -2.10552 -1.67097 0
M  V30 3338 C 317.389 -3.55679 0.350281 0
M  V30 3339 S 318.948 -4.38793 -0.0256004 0
M  V30 3340 H 315.766 -0.703105 0.105664 0
M  V30 3341 H 318.368 -1.71175 0.944416 0
M  V30 3342 H 317.072 -3.87157 1.36153 0
M  V30 3343 H 316.603 -3.91883 -0.345096 0
M  V30 3344 H 318.618 -4.803 -1.24604 0
M  V30 3345 N 317.792 -0.46758 -1.50504 0
M  V30 3346 C 319.041 0.0902868 -2.01498 0
M  V30 3347 C 319.354 1.411 -1.35463 0
M  V30 3348 O 320.56 2.0536 -1.77594 0
M  V30 3349 C 319.016 0.21142 -3.59278 0
M  V30 3350 C 318.624 -1.10065 -4.34269 0
M  V30 3351 C 320.368 0.721433 -4.18325 0
M  V30 3352 C 318.275 -0.943505 -5.83825 0
M  V30 3353 H 317.205 0.037517 -0.753066 0
M  V30 3354 H 319.856 -0.601943 -1.73346 0
M  V30 3355 H 318.238 0.967352 -3.84003 0
M  V30 3356 H 319.412 -1.86726 -4.21272 0
M  V30 3357 H 317.727 -1.5415 -3.86816 0
M  V30 3358 H 320.324 0.85598 -5.27804 0
M  V30 3359 H 320.667 1.71186 -3.79475 0
M  V30 3360 H 321.2 0.0229843 -3.97793 0
M  V30 3361 H 317.939 -1.90719 -6.27141 0
M  V30 3362 H 317.459 -0.217213 -5.99407 0
M  V30 3363 H 319.138 -0.608715 -6.4413 0
M  V30 3364 N 319.27 1.56325 -0.20005 0
M  V30 3365 C 320.18 2.22931 0.730668 0
M  V30 3366 C 321.196 1.22997 1.23076 0
M  V30 3367 O 322.372 1.55748 1.27689 0
M  V30 3368 C 319.437 2.87948 1.93098 0
M  V30 3369 C 318.498 4.03166 1.47497 0
M  V30 3370 C 317.731 4.65073 2.61807 0
M  V30 3371 O 317.954 4.25913 3.79413 0
M  V30 3372 O 316.888 5.54452 2.34237 0
M  V30 3373 H 320.714 3.03084 0.193391 0
M  V30 3374 H 318.299 1.49371 0.0294621 0
M  V30 3375 H 320.181 3.29063 2.6324 0
M  V30 3376 H 318.856 2.10771 2.45677 0
M  V30 3377 H 317.763 3.66664 0.742201 0
M  V30 3378 H 319.096 4.82022 0.995796 0
M  V30 3379 N 320.748 -0.0735177 1.57428 0
M  V30 3380 C 321.678 -1.0879 2.06608 0
M  V30 3381 C 322.659 -1.40473 0.959237 0
M  V30 3382 O 323.844 -1.5013 1.23185 0
M  V30 3383 C 320.974 -2.40183 2.50857 0
M  V30 3384 C 319.928 -2.22858 3.65402 0
M  V30 3385 C 319.254 -3.59619 3.957 0
M  V30 3386 C 320.554 -1.65123 4.95511 0
M  V30 3387 H 322.248 -0.678673 2.91607 0
M  V30 3388 H 319.794 -0.325013 1.40284 0
M  V30 3389 H 321.747 -3.11437 2.83874 0
M  V30 3390 H 320.471 -2.83083 1.62885 0
M  V30 3391 H 319.13 -1.54045 3.32664 0
M  V30 3392 H 318.778 -4.00086 3.04861 0
M  V30 3393 H 318.478 -3.48866 4.72828 0
M  V30 3394 H 320.002 -4.32306 4.31212 0
M  V30 3395 H 321.416 -2.26241 5.26771 0
M  V30 3396 H 319.813 -1.65071 5.7695 0
M  V30 3397 H 320.883 -0.612559 4.81015 0
M  V30 3398 N 322.226 -1.5378 -0.344866 0
M  V30 3399 C 323.189 -1.80981 -1.40637 0
M  V30 3400 C 324.189 -0.680816 -1.45676 0
M  V30 3401 O 325.379 -0.949095 -1.46075 0
M  V30 3402 C 322.511 -1.95063 -2.79577 0
M  V30 3403 H 323.704 -2.75803 -1.17783 0
M  V30 3404 H 321.257 -1.45173 -0.579181 0
M  V30 3405 H 321.992 -1.02379 -3.07716 0
M  V30 3406 H 321.777 -2.77198 -2.77315 0
M  V30 3407 H 323.267 -2.17629 -3.56409 0
M  V30 3408 N 323.704 0.605807 -1.45491 0
M  V30 3409 C 324.614 1.74466 -1.56839 0
M  V30 3410 C 325.63 1.68006 -0.452772 0
M  V30 3411 O 326.806 1.8833 -0.713708 0
M  V30 3412 C 323.871 3.10931 -1.53371 0
M  V30 3413 C 322.932 3.28832 -2.75986 0
M  V30 3414 C 322.165 4.58787 -2.72673 0
M  V30 3415 O 322.388 5.4122 -1.80102 0
M  V30 3416 O 321.322 4.79438 -3.63899 0
M  V30 3417 H 325.148 1.67843 -2.53106 0
M  V30 3418 H 322.733 0.770108 -1.28022 0
M  V30 3419 H 324.615 3.92233 -1.54051 0
M  V30 3420 H 323.29 3.18042 -0.602572 0
M  V30 3421 H 322.197 2.47112 -2.80867 0
M  V30 3422 H 323.53 3.26599 -3.68231 0
M  V30 3423 N 325.182 1.32811 0.848464 0
M  V30 3424 C 326.598 1.11937 1.13764 0
M  V30 3425 C 326.798 -0.0960789 2.01271 0
M  V30 3426 O 325.854 -0.779165 2.40178 0
M  V30 3427 C 327.167 2.402 1.809 0
M  V30 3428 C 328.715 2.46016 1.93508 0
M  V30 3429 C 329.19 3.74215 2.64059 0
M  V30 3430 N 330.681 3.75232 2.71579 0
M  V30 3431 C 331.416 4.71134 3.26833 0
M  V30 3432 N 330.912 5.77406 3.8285 0
M  V30 3433 N 332.705 4.58623 3.24995 0
M  V30 3434 H 324.856 2.1073 0.265855 0
M  V30 3435 H 327.119 0.930671 0.180431 0
M  V30 3436 H 326.825 3.29093 1.24058 0
M  V30 3437 H 326.699 2.51628 2.81004 0
M  V30 3438 H 329.086 1.57577 2.49506 0
M  V30 3439 H 329.167 2.38536 0.923811 0
M  V30 3440 H 328.811 4.63031 2.08722 0
M  V30 3441 H 328.741 3.78968 3.65637 0
M  V30 3442 H 331.232 2.98423 2.31845 0
M  V30 3443 H 331.545 6.46632 4.23187 0
M  V30 3444 H 329.89 5.81152 3.81165 0
M  V30 3445 H 333.081 3.74762 2.80484 0
M  V30 3446 H 333.254 5.33535 3.67756 0
M  V30 3447 N 326.66 -1.06551 1.16123 0
M  V30 3448 C 327.607 -2.13961 0.865414 0
M  V30 3449 C 328.577 -1.65066 -0.185055 0
M  V30 3450 O 329.762 -1.90732 -0.05083 0
M  V30 3451 C 326.902 -3.43113 0.369776 0
M  V30 3452 C 326.015 -4.05756 1.48276 0
M  V30 3453 C 325.15 -5.22773 0.942414 0
M  V30 3454 C 324.189 -5.77395 2.03179 0
M  V30 3455 N 323.326 -6.85731 1.50721 0
M  V30 3456 H 328.166 -2.38605 1.78527 0
M  V30 3457 H 325.703 -1.17072 0.890646 0
M  V30 3458 H 327.661 -4.17151 0.0640643 0
M  V30 3459 H 326.291 -3.18695 -0.513143 0
M  V30 3460 H 325.343 -3.29292 1.9045 0
M  V30 3461 H 326.655 -4.42351 2.30493 0
M  V30 3462 H 325.809 -6.03827 0.589729 0
M  V30 3463 H 324.548 -4.87618 0.0895191 0
M  V30 3464 H 323.553 -4.94981 2.3932 0
M  V30 3465 H 324.778 -6.14603 2.8886 0
M  V30 3466 H 322.724 -6.52499 0.676811 0
M  V30 3467 H 322.641 -7.21254 2.26557 0
M  V30 3468 H 323.909 -7.7047 1.18303 0
M  V30 3469 N 328.138 -0.959301 -1.25041 0
M  V30 3470 C 329.549 -0.65667 -1.74771 0
M  V30 3471 C 329.9 0.827852 -1.77879 0
M  V30 3472 O 329.025 1.64783 -1.40269 0
M  V30 3473 C 329.62 -1.1853 -3.1739 0
M  V30 3474 C 328.179 -0.932734 -3.6466 0
M  V30 3475 C 327.326 -1.32558 -2.43564 0
M  V30 3476 H 330.277 -1.13558 -1.10862 0
M  V30 3477 H 330.298 -0.547582 -3.76539 0
M  V30 3478 H 329.81 -2.26576 -3.15095 0
M  V30 3479 H 327.911 0.13257 -3.72364 0
M  V30 3480 H 328.024 -1.57248 -4.52559 0
M  V30 3481 H 326.388 -0.743956 -2.43593 0
M  V30 3482 H 327.171 -2.41537 -2.43957 0
M  V30 3483 N 329.616 1.39756 -0.72842 0
M  V30 3484 C 331.027 1.83498 -0.344289 0
M  V30 3485 C 331.378 1.60868 1.12321 0
M  V30 3486 O 330.503 1.09634 1.86573 0
M  V30 3487 C 331.098 3.33114 -0.618112 0
M  V30 3488 C 329.657 3.753 -0.287549 0
M  V30 3489 C 328.804 2.62831 -0.884048 0
M  V30 3490 H 331.755 1.28842 -0.926578 0
M  V30 3491 H 331.776 3.80334 0.112349 0
M  V30 3492 H 331.288 3.49553 -1.68625 0
M  V30 3493 H 329.389 3.64451 0.775012 0
M  V30 3494 H 329.502 4.72945 -0.765512 0
M  V30 3495 H 327.866 2.52792 -0.311149 0
M  V30 3496 H 328.649 2.82078 -1.95671 0
M  V30 3497 N 331.094 0.475555 1.50254 0
M  V30 3498 C 332.024 -0.30611 2.31485 0
M  V30 3499 C 333.005 -0.986228 1.38591 0
M  V30 3500 O 334.19 -0.982541 1.67511 0
M  V30 3501 C 331.32 -1.38588 3.1845 0
M  V30 3502 C 330.274 -0.827115 4.19932 0
M  V30 3503 C 329.6 -2.00551 4.95665 0
M  V30 3504 C 330.9 0.16463 5.2204 0
M  V30 3505 H 332.594 0.371866 2.97082 0
M  V30 3506 H 330.14 0.180282 1.42867 0
M  V30 3507 H 332.093 -1.94023 3.74076 0
M  V30 3508 H 330.817 -2.09269 2.50747 0
M  V30 3509 H 329.476 -0.294702 3.65414 0
M  V30 3510 H 329.124 -2.6994 4.2443 0
M  V30 3511 H 328.824 -1.63784 5.64313 0
M  V30 3512 H 330.348 -2.56468 5.54127 0
M  V30 3513 H 331.762 -0.300699 5.72511 0
M  V30 3514 H 330.159 0.446813 5.98434 0
M  V30 3515 H 331.229 1.08905 4.72512 0
M  V30 3516 N 332.573 -1.56217 0.208337 0
M  V30 3517 C 333.82 -1.97949 -0.42692 0
M  V30 3518 C 334.148 -1.09562 -1.60706 0
M  V30 3519 O 333.403 -0.137616 -1.95216 0
M  V30 3520 C 333.702 -3.45441 -0.916797 0
M  V30 3521 C 333.368 -4.50646 0.151391 0
M  V30 3522 C 332.03 -4.79139 0.444867 0
M  V30 3523 C 334.382 -5.13811 0.874492 0
M  V30 3524 C 331.71 -5.68084 1.46619 0
M  V30 3525 C 334.062 -6.03861 1.88506 0
M  V30 3526 C 332.726 -6.30704 2.18559 0
M  V30 3527 H 331.996 -0.724345 -0.156221 0
M  V30 3528 H 334.643 -1.89006 0.308084 0
M  V30 3529 H 332.948 -3.51521 -1.73032 0
M  V30 3530 H 334.645 -3.75094 -1.41794 0
M  V30 3531 H 331.235 -4.28511 -0.0875068 0
M  V30 3532 H 335.419 -4.91879 0.660996 0
M  V30 3533 H 330.675 -5.87151 1.7048 0
M  V30 3534 H 334.849 -6.51861 2.45051 0
M  V30 3535 H 332.476 -6.99424 2.97843 0
M  V30 3536 N 334.051 0.0651679 -1.57465 0
M  V30 3537 C 334.999 1.09542 -2.05191 0
M  V30 3538 C 335.993 1.39675 -0.958509 0
M  V30 3539 O 337.199 1.39003 -1.14359 0
M  V30 3540 H 333.574 0.370623 -0.654326 0
M  V30 3541 H 335.545 0.666802 -2.90854 0
M  V30 3542 C 334.294 2.39881 -2.51699 0
M  V30 3543 H 333.617 2.17547 -3.3543 0
M  V30 3544 H 335.057 3.104 -2.88839 0
M  V30 3545 C 333.516 3.0631 -1.40271 0
M  V30 3546 O 334.046 3.94664 -0.748523 0
M  V30 3547 N 332.252 2.67041 -1.14618 0
M  V30 3548 H 331.799 1.95281 -1.67997 0
M  V30 3549 H 331.757 3.1181 -0.402688 0
M  V30 3550 N 335.529 1.53961 0.336706 0
M  V30 3551 C 336.462 1.77255 1.43722 0
M  V30 3552 C 337.44 0.62193 1.50236 0
M  V30 3553 O 338.624 0.857874 1.67847 0
M  V30 3554 C 335.751 1.87733 2.81912 0
M  V30 3555 C 334.797 3.09933 2.92991 0
M  V30 3556 S 335.63 4.68836 2.58753 0
M  V30 3557 C 336.786 4.82202 3.99039 0
M  V30 3558 H 337.019 2.70322 1.23748 0
M  V30 3559 H 334.552 1.44917 0.532777 0
M  V30 3560 H 336.51 1.94455 3.61521 0
M  V30 3561 H 335.171 0.956666 2.99177 0
M  V30 3562 H 334.364 3.1396 3.94265 0
M  V30 3563 H 333.966 3.01472 2.21338 0
M  V30 3564 H 336.258 4.64032 4.9364 0
M  V30 3565 H 337.201 5.84298 4.00002 0
M  V30 3566 H 337.609 4.10604 3.87382 0
M  V30 3567 N 337.007 -0.598083 1.45811 0
M  V30 3568 C 337.955 -1.72932 1.55555 0
M  V30 3569 C 338.949 -1.63984 0.424921 0
M  V30 3570 O 340.155 -1.69663 0.601205 0
M  V30 3571 H 336.53 -0.571489 0.488779 0
M  V30 3572 H 338.501 -1.61842 2.50699 0
M  V30 3573 C 337.25 -3.11318 1.54843 0
M  V30 3574 H 336.573 -3.18867 2.41172 0
M  V30 3575 H 338.013 -3.90274 1.65717 0
M  V30 3576 C 336.472 -3.3578 0.274427 0
M  V30 3577 O 337.002 -3.9654 -0.641778 0
M  V30 3578 N 335.208 -2.90119 0.167139 0
M  V30 3579 H 334.755 -2.40855 0.913596 0
M  V30 3580 H 334.713 -3.0686 -0.684435 0
M  V30 3581 N 338.485 -1.33259 -0.841409 0
M  V30 3582 C 339.448 -1.23221 -1.9326 0
M  V30 3583 C 340.448 -0.151895 -1.60081 0
M  V30 3584 O 341.638 -0.403246 -1.69468 0
M  V30 3585 C 338.77 -0.898123 -3.28856 0
M  V30 3586 H 339.963 -2.2021 -2.03587 0
M  V30 3587 H 337.516 -1.17281 -1.03319 0
M  V30 3588 H 338.251 0.0693841 -3.24226 0
M  V30 3589 H 338.036 -1.67934 -3.54317 0
M  V30 3590 H 339.526 -0.852563 -4.08805 0
M  V30 3591 N 339.963 1.05934 -1.16686 0
M  V30 3592 C 340.896 2.1295 -0.820225 0
M  V30 3593 C 341.874 1.61242 0.209722 0
M  V30 3594 O 343.058 1.88271 0.0929688 0
M  V30 3595 C 340.185 3.3797 -0.22223 0
M  V30 3596 C 339.231 4.08488 -1.22637 0
M  V30 3597 S 340.064 4.58015 -2.77457 0
M  V30 3598 C 341.22 5.86292 -2.19117 0
M  V30 3599 H 341.453 2.42025 -1.72659 0
M  V30 3600 H 338.986 1.18423 -0.990722 0
M  V30 3601 H 340.944 4.10335 0.116322 0
M  V30 3602 H 339.605 3.07045 0.66196 0
M  V30 3603 H 338.798 4.98291 -0.756455 0
M  V30 3604 H 338.4 3.42154 -1.51019 0
M  V30 3605 H 340.692 6.59246 -1.56209 0
M  V30 3606 H 341.635 6.38019 -3.07144 0
M  V30 3607 H 342.043 5.40497 -1.62858 0
M  V30 3608 N 341.441 0.965919 1.2453 0
M  V30 3609 C 342.666 0.643971 1.97149 0
M  V30 3610 C 343.091 -0.779487 1.71189 0
M  V30 3611 O 342.449 -1.5288 0.974553 0
M  V30 3612 C 342.497 0.922557 3.48599 0
M  V30 3613 O 341.601 0.00707672 4.12399 0
M  V30 3614 H 340.942 0.243647 0.617683 0
M  V30 3615 H 343.472 1.29558 1.58353 0
M  V30 3616 H 343.482 0.853373 3.98976 0
M  V30 3617 H 342.157 1.95996 3.66822 0
M  V30 3618 H 340.734 0.12943 3.72675 0
M  V30 3619 N 342.919 -1.39368 0.735821 0
M  V30 3620 C 343.882 -2.2896 0.104874 0
M  V30 3621 C 344.882 -1.46347 -0.666274 0
M  V30 3622 O 346.072 -1.67014 -0.49517 0
M  V30 3623 C 343.204 -3.29857 -0.860656 0
M  V30 3624 H 344.397 -2.86259 0.894205 0
M  V30 3625 H 341.95 -1.48029 0.501704 0
M  V30 3626 H 342.685 -2.77615 -1.67631 0
M  V30 3627 H 342.47 -3.9087 -0.310327 0
M  V30 3628 H 343.96 -3.96893 -1.29867 0
M  V30 3629 N 344.397 -0.483516 -1.5 0
M  V30 3630 C 345.327 0.293829 -2.31644 0
M  V30 3631 C 346.308 0.978864 -1.39112 0
M  V30 3632 O 347.493 0.973644 -1.68029 0
M  V30 3633 C 344.623 1.36897 -3.19181 0
M  V30 3634 C 343.577 0.804833 -4.20365 0
M  V30 3635 C 342.903 1.9792 -4.96721 0
M  V30 3636 C 344.203 -0.192313 -5.21946 0
M  V30 3637 H 345.897 -0.387616 -2.9688 0
M  V30 3638 H 343.443 -0.187856 -1.42769 0
M  V30 3639 H 345.396 1.92037 -3.751 0
M  V30 3640 H 344.12 2.07936 -2.51853 0
M  V30 3641 H 342.779 0.275319 -3.65565 0
M  V30 3642 H 342.427 2.67686 -4.25856 0
M  V30 3643 H 342.127 1.60789 -5.65173 0
M  V30 3644 H 343.651 2.53526 -5.55479 0
M  V30 3645 H 345.065 0.270333 -5.72662 0
M  V30 3646 H 343.462 -0.478543 -5.98189 0
M  V30 3647 H 344.532 -1.11409 -4.71928 0
M  V30 3648 N 345.875 1.56104 -0.216619 0
M  V30 3649 C 347.105 2.02269 0.420802 0
M  V30 3650 C 347.513 1.09575 1.5424 0
M  V30 3651 O 346.856 0.0967308 1.83445 0
M  V30 3652 C 346.918 3.44784 1.01806 0
M  V30 3653 C 346.582 4.56988 0.0325154 0
M  V30 3654 C 347.579 5.14225 -0.766055 0
M  V30 3655 C 345.264 5.02228 -0.0848092 0
M  V30 3656 C 347.258 6.15169 -1.6687 0
M  V30 3657 C 344.945 6.03011 -0.990994 0
M  V30 3658 C 345.943 6.59357 -1.78149 0
M  V30 3659 O 345.631 7.58179 -2.67245 0
M  V30 3660 H 345.363 0.667353 0.107776 0
M  V30 3661 H 347.917 2.02747 -0.329034 0
M  V30 3662 H 346.147 3.41359 1.81689 0
M  V30 3663 H 347.836 3.74626 1.56237 0
M  V30 3664 H 348.602 4.80126 -0.685836 0
M  V30 3665 H 344.481 4.58054 0.520349 0
M  V30 3666 H 348.025 6.59076 -2.28615 0
M  V30 3667 H 343.922 6.36532 -1.07225 0
M  V30 3668 H 344.69 7.75682 -2.61265 0
M  V30 3669 N 347.353 -0.0568162 1.57498 0
M  V30 3670 C 348.303 -1.07315 2.01166 0
M  V30 3671 C 349.287 -1.33632 0.896171 0
M  V30 3672 O 350.479 -1.33682 1.16009 0
M  V30 3673 C 347.608 -2.38257 2.47161 0
M  V30 3674 C 346.694 -2.1515 3.65474 0
M  V30 3675 N 347.085 -1.62014 4.7915 0
M  V30 3676 C 345.383 -2.45559 3.72313 0
M  V30 3677 C 346.084 -1.54069 5.60926 0
M  V30 3678 N 345.06 -2.00652 5.05213 0
M  V30 3679 H 348.862 -0.655878 2.86488 0
M  V30 3680 H 346.376 -0.263635 1.60246 0
M  V30 3681 H 348.373 -3.11845 2.76691 0
M  V30 3682 H 347.033 -2.80687 1.63232 0
M  V30 3683 H 348.044 -1.30667 5.01145 0
M  V30 3684 H 344.721 -2.91253 2.99129 0
M  V30 3685 H 346.111 -1.13712 6.62208 0
M  V30 3686 N 348.832 -1.54138 -0.328536 0
M  V30 3687 C 350.081 -1.71318 -1.06456 0
M  V30 3688 C 350.394 -0.491109 -1.89334 0
M  V30 3689 O 351.6 -0.54416 -2.65991 0
M  V30 3690 C 350.056 -3.03 -1.94214 0
M  V30 3691 C 349.664 -4.32595 -1.16471 0
M  V30 3692 C 351.408 -3.29544 -2.67583 0
M  V30 3693 C 349.315 -5.55341 -2.03347 0
M  V30 3694 H 348.245 -0.638429 -0.401155 0
M  V30 3695 H 350.896 -1.80633 -0.323106 0
M  V30 3696 H 349.278 -2.87579 -2.72239 0
M  V30 3697 H 350.452 -4.58766 -0.432525 0
M  V30 3698 H 348.767 -4.12777 -0.548063 0
M  V30 3699 H 351.364 -4.18444 -3.3288 0
M  V30 3700 H 351.707 -2.47206 -3.34955 0
M  V30 3701 H 352.24 -3.45809 -1.96623 0
M  V30 3702 H 348.979 -6.40268 -1.40491 0
M  V30 3703 H 348.499 -5.33397 -2.74313 0
M  V30 3704 H 350.178 -5.91557 -2.62049 0
M  V30 3705 N 350.31 0.590341 -1.46126 0
M  V30 3706 C 351.273 1.68194 -1.55703 0
M  V30 3707 C 352.273 1.54808 -0.434868 0
M  V30 3708 O 353.463 1.59564 -0.698928 0
M  V30 3709 C 350.595 3.07575 -1.47005 0
M  V30 3710 H 351.788 1.61064 -2.52979 0
M  V30 3711 H 349.341 0.807541 -1.33823 0
M  V30 3712 H 350.076 3.20268 -0.509785 0
M  V30 3713 H 349.861 3.187 -2.28414 0
M  V30 3714 H 351.351 3.87055 -1.56776 0
M  V30 3715 N 351.788 1.33704 0.83433 0
M  V30 3716 C 352.72 1.20172 1.9517 0
M  V30 3717 C 353.733 0.131572 1.62267 0
M  V30 3718 O 354.922 0.382406 1.74356 0
M  V30 3719 C 352.022 0.821716 3.28787 0
M  V30 3720 C 351.195 1.98446 3.89792 0
M  V30 3721 C 350.254 1.58469 5.01771 0
M  V30 3722 O 349.28 2.29968 5.20676 0
M  V30 3723 N 350.482 0.492291 5.78409 0
M  V30 3724 H 353.247 2.16429 2.07313 0
M  V30 3725 H 350.808 1.26509 1.0103 0
M  V30 3726 H 352.8 0.536291 4.01131 0
M  V30 3727 H 351.37 -0.0503058 3.1256 0
M  V30 3728 H 350.59 2.43526 3.09982 0
M  V30 3729 H 351.878 2.76236 4.27283 0
M  V30 3730 H 351.276 -0.102349 5.65607 0
M  V30 3731 H 349.833 0.266555 6.51255 0
M  V30 3732 N 353.266 -1.05314 1.17247 0
M  V30 3733 C 354.214 -2.15137 0.884238 0
M  V30 3734 C 355.208 -1.68729 -0.15063 0
M  V30 3735 O 356.414 -1.8 -0.00366673 0
M  V30 3736 H 352.789 -0.702471 0.2684 0
M  V30 3737 H 354.76 -2.36652 1.81764 0
M  V30 3738 C 353.509 -3.45243 0.412659 0
M  V30 3739 H 352.832 -3.81352 1.20043 0
M  V30 3740 H 354.272 -4.23263 0.249858 0
M  V30 3741 C 352.731 -3.25487 -0.86948 0
M  V30 3742 O 353.261 -3.51938 -1.93655 0
M  V30 3743 N 351.467 -2.78875 -0.817147 0
M  V30 3744 H 351.014 -2.57549 0.0514211 0
M  V30 3745 H 350.972 -2.66036 -1.67547 0
M  V30 3746 N 354.744 -0.972509 -1.24016 0
M  V30 3747 C 355.654 -0.5143 -2.28893 0
M  V30 3748 C 356.67 0.427078 -1.68677 0
M  V30 3749 O 357.846 0.298939 -1.99169 0
M  V30 3750 C 354.911 0.183598 -3.46214 0
M  V30 3751 C 353.972 -0.798202 -4.21814 0
M  V30 3752 C 353.205 -0.133514 -5.33533 0
M  V30 3753 O 353.428 1.07714 -5.60137 0
M  V30 3754 O 352.362 -0.828103 -5.96176 0
M  V30 3755 H 356.188 -1.38629 -2.70214 0
M  V30 3756 H 353.773 -0.739769 -1.29799 0
M  V30 3757 H 355.655 0.575433 -4.17453 0
M  V30 3758 H 354.33 1.03048 -3.0686 0
M  V30 3759 H 353.237 -1.24059 -3.52931 0
M  V30 3760 H 354.57 -1.61364 -4.64997 0
M  V30 3761 N 356.222 1.38976 -0.743202 0
M  V30 3762 C 357.447 2.05161 -0.303936 0
M  V30 3763 C 357.872 1.55677 1.05576 0
M  V30 3764 O 357.23 0.704131 1.67068 0
M  V30 3765 C 357.278 3.59138 -0.324373 0
M  V30 3766 O 356.382 4.06668 0.685204 0
M  V30 3767 H 355.723 0.649815 -0.136518 0
M  V30 3768 H 358.253 1.77852 -1.01142 0
M  V30 3769 H 358.263 4.07639 -0.171618 0
M  V30 3770 H 356.938 3.94515 -1.31647 0
M  V30 3771 H 355.515 3.69561 0.497913 0
M  V30 3772 N 357.7 0.491464 1.49741 0
M  V30 3773 C 359.111 0.0413169 1.86654 0
M  V30 3774 C 359.462 -1.36985 1.40462 0
M  V30 3775 O 358.587 -2.01917 0.778354 0
M  V30 3776 C 359.182 0.0682023 3.38731 0
M  V30 3777 C 357.741 -0.32656 3.74981 0
M  V30 3778 C 356.888 0.444888 2.73708 0
M  V30 3779 H 359.839 0.704733 1.42194 0
M  V30 3780 H 359.86 -0.729322 3.73445 0
M  V30 3781 H 359.372 1.09539 3.72321 0
M  V30 3782 H 357.473 -1.35734 3.46997 0
M  V30 3783 H 357.586 -0.013741 4.79098 0
M  V30 3784 H 355.95 -0.104062 2.54487 0
M  V30 3785 H 356.733 1.47197 3.10142 0
M  V30 3786 N 359.178 -1.55987 0.224894 0
M  V30 3787 C 360.424 -1.98684 -0.406502 0
M  V30 3788 C 360.757 -1.11248 -1.59177 0
M  V30 3789 O 360.032 -0.170909 -1.93748 0
M  V30 3790 C 360.315 -3.50218 -0.837808 0
M  V30 3791 C 360.168 -4.48426 0.351332 0
M  V30 3792 C 361.487 -4.06243 -1.69278 0
M  V30 3793 H 358.606 -0.722337 -0.146283 0
M  V30 3794 H 361.248 -1.87255 0.321799 0
M  V30 3795 H 359.398 -3.60089 -1.45837 0
M  V30 3796 H 361.07 -4.50562 0.989526 0
M  V30 3797 H 359.313 -4.22159 0.998207 0
M  V30 3798 H 359.984 -5.52 0.00655905 0
M  V30 3799 H 362.46 -3.99337 -1.16914 0
M  V30 3800 H 361.336 -5.12581 -1.96346 0
M  V30 3801 H 361.597 -3.53332 -2.65723 0
M  V30 3802 N 360.656 0.0484629 -1.57525 0
M  V30 3803 C 361.586 1.0549 -2.08313 0
M  V30 3804 C 362.567 1.38929 -0.981463 0
M  V30 3805 O 363.752 1.48151 -1.25558 0
M  V30 3806 C 360.882 2.36162 -2.54646 0
M  V30 3807 C 359.836 2.17016 -3.68901 0
M  V30 3808 C 359.162 3.53278 -4.01371 0
M  V30 3809 C 360.462 1.57219 -4.98076 0
M  V30 3810 H 362.156 0.632195 -2.92649 0
M  V30 3811 H 359.702 0.302654 -1.40784 0
M  V30 3812 H 361.655 3.06882 -2.88793 0
M  V30 3813 H 360.379 2.80456 -1.67368 0
M  V30 3814 H 359.038 1.48733 -3.35073 0
M  V30 3815 H 358.686 3.95185 -3.11188 0
M  V30 3816 H 358.386 3.41299 -4.78318 0
M  V30 3817 H 359.91 4.25391 -4.38035 0
M  V30 3818 H 361.324 2.17832 -5.30304 0
M  V30 3819 H 359.721 1.55871 -5.79503 0
M  V30 3820 H 360.791 0.535956 -4.81929 0
M  V30 3821 N 362.134 1.5431 0.320358 0
M  V30 3822 C 363.066 1.80262 1.41556 0
M  V30 3823 C 364.079 0.684723 1.477 0
M  V30 3824 O 365.268 0.961886 1.50366 0
M  V30 3825 C 362.368 1.90825 2.8007 0
M  V30 3826 C 361.541 3.21023 2.97091 0
M  V30 3827 C 360.6 3.22247 4.15985 0
M  V30 3828 O 359.626 3.95871 4.08992 0
M  V30 3829 N 360.828 2.46258 5.25678 0
M  V30 3830 H 363.593 2.74778 1.19655 0
M  V30 3831 H 361.154 1.53646 0.510358 0
M  V30 3832 H 363.146 1.89067 3.57821 0
M  V30 3833 H 361.716 1.03392 2.95006 0
M  V30 3834 H 360.936 3.35715 2.06614 0
M  V30 3835 H 362.224 4.0698 3.05361 0
M  V30 3836 H 361.622 1.86037 5.34235 0
M  V30 3837 H 360.179 2.50275 6.01835 0
M  V30 3838 N 363.613 -0.582584 1.46437 0
M  V30 3839 C 364.838 -1.37168 1.55563 0
M  V30 3840 C 365.263 -1.87061 0.19743 0
M  V30 3841 O 364.621 -1.61572 -0.822451 0
M  V30 3842 C 364.669 -2.53511 2.56446 0
M  V30 3843 O 363.773 -3.54953 2.09958 0
M  V30 3844 H 363.114 -0.408494 0.523477 0
M  V30 3845 H 365.644 -0.706646 1.9201 0
M  V30 3846 H 365.654 -3.00426 2.76058 0
M  V30 3847 H 364.329 -2.16549 3.55076 0
M  V30 3848 H 362.906 -3.14516 2.00334 0
M  V30 3849 N 365.091 -1.34144 -0.827227 0
M  V30 3850 C 366.339 -1.26009 -1.58007 0
M  V30 3851 C 366.66 0.170971 -1.94249 0
M  V30 3852 O 365.93 1.10256 -1.61927 0
M  V30 3853 H 364.51 -0.463414 -0.585881 0
M  V30 3854 H 367.172 -1.68005 -0.987951 0
M  V30 3855 H 366.268 -1.86187 -2.50481 0
M  V30 3856 N 366.569 1.04691 -1.17803 0
M  V30 3857 C 367.519 2.10856 -0.867391 0
M  V30 3858 C 368.503 1.601 0.160206 0
M  V30 3859 O 369.695 1.76948 -0.042947 0
M  V30 3860 C 366.824 3.411 -0.388012 0
M  V30 3861 C 365.91 3.9864 -1.44732 0
M  V30 3862 N 366.301 4.30075 -2.66212 0
M  V30 3863 C 364.599 4.26439 -1.30637 0
M  V30 3864 C 365.3 4.76033 -3.34317 0
M  V30 3865 N 364.276 4.76462 -2.61696 0
M  V30 3866 H 368.078 2.33029 -1.79094 0
M  V30 3867 H 365.592 1.22386 -1.0675 0
M  V30 3868 H 367.589 4.16641 -0.146994 0
M  V30 3869 H 366.249 3.20357 0.529271 0
M  V30 3870 H 367.26 4.19917 -3.03134 0
M  V30 3871 H 363.937 4.15056 -0.451129 0
M  V30 3872 H 365.327 5.09427 -4.38103 0
M  V30 3873 N 368.047 0.979072 1.23499 0
M  V30 3874 C 369.293 0.6578 1.9247 0
M  V30 3875 C 369.648 -0.799746 1.74991 0
M  V30 3876 O 368.941 -1.56922 1.09937 0
M  V30 3877 C 369.135 0.981932 3.43646 0
M  V30 3878 C 368.964 2.46944 3.75831 0
M  V30 3879 C 367.734 3.13119 3.96591 0
M  V30 3880 C 369.932 3.45006 3.81412 0
M  V30 3881 N 367.914 4.51489 4.15969 0
M  V30 3882 C 369.285 4.68778 4.05768 0
M  V30 3883 C 371.34 3.39505 3.64198 0
M  V30 3884 C 370.043 5.87723 4.14697 0
M  V30 3885 C 372.069 4.57814 3.7438 0
M  V30 3886 C 371.431 5.80381 3.99171 0
M  V30 3887 H 367.53 0.291746 0.72554 0
M  V30 3888 H 370.114 1.25626 1.48749 0
M  V30 3889 H 368.285 0.412179 3.86207 0
M  V30 3890 H 370.017 0.618068 3.99953 0
M  V30 3891 H 366.772 2.63619 3.93449 0
M  V30 3892 H 367.196 5.23221 4.29615 0
M  V30 3893 H 371.838 2.45773 3.44029 0
M  V30 3894 H 369.556 6.81874 4.33675 0
M  V30 3895 H 373.142 4.55132 3.62417 0
M  V30 3896 H 372.022 6.70398 4.06861 0
M  V30 3897 N 369.525 -1.3858 0.750561 0
M  V30 3898 C 370.75 -2.04997 0.314812 0
M  V30 3899 C 371.175 -1.56235 -1.04749 0
M  V30 3900 O 370.533 -0.712981 -1.66692 0
M  V30 3901 C 370.581 -3.58961 0.343415 0
M  V30 3902 O 369.685 -4.07025 -0.663628 0
M  V30 3903 H 369.026 -0.649081 0.139962 0
M  V30 3904 H 371.556 -1.77313 1.02084 0
M  V30 3905 H 371.566 -4.07542 0.193233 0
M  V30 3906 H 370.241 -3.93811 1.33738 0
M  V30 3907 H 368.818 -3.6982 -0.478307 0
M  V30 3908 N 371.003 -0.499398 -1.49478 0
M  V30 3909 C 371.913 0.284489 -2.32869 0
M  V30 3910 C 372.929 0.968885 -1.44529 0
M  V30 3911 O 374.105 0.95062 -1.77553 0
M  V30 3912 C 371.17 1.33594 -3.19928 0
M  V30 3913 C 370.231 0.665149 -4.24116 0
M  V30 3914 C 369.464 1.6665 -5.07014 0
M  V30 3915 O 369.687 2.89618 -4.91404 0
M  V30 3916 O 368.621 1.22271 -5.8935 0
M  V30 3917 H 372.447 -0.39802 -3.01081 0
M  V30 3918 H 370.032 -0.260758 -1.47107 0
M  V30 3919 H 371.914 1.94431 -3.73864 0
M  V30 3920 H 370.589 2.0014 -2.54412 0
M  V30 3921 H 369.496 0.0170769 -3.74096 0
M  V30 3922 H 370.829 0.0421555 -4.92182 0
M  V30 3923 N 372.481 1.55866 -0.233164 0
M  V30 3924 C 373.711 2.02704 0.399325 0
M  V30 3925 C 374.119 1.11204 1.53069 0
M  V30 3926 O 373.462 0.116182 1.83332 0
M  V30 3927 C 373.524 3.45844 0.981429 0
M  V30 3928 C 373.188 4.56997 -0.0159561 0
M  V30 3929 C 374.185 5.13384 -0.820552 0
M  V30 3930 C 371.87 5.0211 -0.138072 0
M  V30 3931 C 373.864 6.13365 -1.73386 0
M  V30 3932 C 371.551 6.01926 -1.0549 0
M  V30 3933 C 372.549 6.57431 -1.85132 0
M  V30 3934 O 372.237 7.55302 -2.75272 0
M  V30 3935 H 371.969 0.668459 0.100692 0
M  V30 3936 H 374.523 2.02387 -0.35052 0
M  V30 3937 H 372.753 3.43267 1.78058 0
M  V30 3938 H 374.442 3.76262 1.52255 0
M  V30 3939 H 375.208 4.79372 -0.736721 0
M  V30 3940 H 371.087 4.5858 0.471737 0
M  V30 3941 H 374.631 6.56614 -2.35592 0
M  V30 3942 H 370.528 6.35359 -1.1397 0
M  V30 3943 H 371.296 7.72867 -2.69477 0
M  V30 3944 N 373.959 -0.0401083 1.57549 0
M  V30 3945 C 375.206 -0.733125 1.88763 0
M  V30 3946 C 375.534 -1.75946 0.829058 0
M  V30 3947 O 374.789 -1.94949 -0.171323 0
M  V30 3948 C 375.088 -1.44902 3.26708 0
M  V30 3949 C 374.754 -0.559707 4.47413 0
M  V30 3950 C 373.416 -0.314731 4.8017 0
M  V30 3951 C 375.768 0.0549743 5.21171 0
M  V30 3952 C 373.096 0.553886 5.8408 0
M  V30 3953 C 375.448 0.911229 6.26003 0
M  V30 3954 C 374.112 1.16577 6.57241 0
M  V30 3955 H 373.382 -0.268269 0.690733 0
M  V30 3956 H 376.029 0.00679408 1.91499 0
M  V30 3957 H 374.334 -2.26197 3.1991 0
M  V30 3958 H 376.031 -1.99058 3.48105 0
M  V30 3959 H 372.621 -0.760793 4.21794 0
M  V30 3960 H 376.805 -0.121344 4.96152 0
M  V30 3961 H 372.061 0.759518 6.06664 0
M  V30 3962 H 376.235 1.3941 6.82303 0
M  V30 3963 H 373.862 1.84058 7.37582 0
M  V30 3964 N 375.437 -1.54477 -0.31217 0
M  V30 3965 C 376.853 -1.45442 -0.657185 0
M  V30 3966 C 377.053 -0.63653 -1.91182 0
M  V30 3967 O 376.109 -0.139815 -2.52113 0
M  V30 3968 C 377.422 -2.89287 -0.82058 0
M  V30 3969 C 378.97 -2.9926 -0.917188 0
M  V30 3970 C 379.445 -4.44279 -1.11267 0
M  V30 3971 N 380.936 -4.4794 -1.17914 0
M  V30 3972 C 381.671 -5.57318 -1.34848 0
M  V30 3973 N 381.167 -6.76642 -1.48752 0
M  V30 3974 N 382.96 -5.44986 -1.37647 0
M  V30 3975 H 375.111 -2.06129 0.512313 0
M  V30 3976 H 377.374 -0.933088 0.167485 0
M  V30 3977 H 377.08 -3.51687 0.0302604 0
M  V30 3978 H 376.954 -3.36061 -1.71298 0
M  V30 3979 H 379.341 -2.36981 -1.75852 0
M  V30 3980 H 379.422 -2.558 -0.00101257 0
M  V30 3981 H 379.066 -5.07149 -0.27614 0
M  V30 3982 H 378.996 -4.85359 -2.04289 0
M  V30 3983 H 381.487 -3.61969 -1.08567 0
M  V30 3984 H 381.8 -7.55758 -1.61397 0
M  V30 3985 H 380.145 -6.79529 -1.45828 0
M  V30 3986 H 383.336 -4.50715 -1.26388 0
M  V30 3987 H 383.509 -6.3028 -1.50501 0
M  V30 3988 N 376.915 0.57481 -1.46744 0
M  V30 3989 C 377.863 1.70435 -1.58286 0
M  V30 3990 C 378.857 1.63287 -0.450956 0
M  V30 3991 O 380.063 1.68685 -0.628121 0
M  V30 3992 H 376.438 0.56364 -0.497809 0
M  V30 3993 H 378.409 1.57833 -2.53242 0
M  V30 3994 C 377.158 3.08815 -1.59776 0
M  V30 3995 H 376.481 3.1499 -2.46214 0
M  V30 3996 H 377.921 3.87588 -1.71905 0
M  V30 3997 C 376.38 3.35301 -0.327812 0
M  V30 3998 O 376.91 3.97511 0.57861 0
M  V30 3999 N 375.116 2.89816 -0.213274 0
M  V30 4000 H 374.663 2.39371 -0.951798 0
M  V30 4001 H 374.621 3.0791 0.63553 0
M  V30 4002 N 378.394 1.34581 0.820102 0
M  V30 4003 C 379.641 1.27096 1.57648 0
M  V30 4004 C 379.969 -0.158317 1.93855 0
M  V30 4005 O 379.224 -1.12028 1.60463 0
M  V30 4006 C 379.523 2.10997 2.8847 0
M  V30 4007 C 379.189 3.59966 2.71543 0
M  V30 4008 C 377.851 4.00575 2.66634 0
M  V30 4009 C 380.203 4.54548 2.55021 0
M  V30 4010 C 377.531 5.33953 2.43128 0
M  V30 4011 C 379.883 5.88109 2.33047 0
M  V30 4012 C 378.547 6.27878 2.26552 0
M  V30 4013 H 377.817 0.465078 0.576874 0
M  V30 4014 H 380.464 1.6635 0.948671 0
M  V30 4015 H 378.769 1.6458 3.55557 0
M  V30 4016 H 380.466 2.0255 3.46084 0
M  V30 4017 H 377.056 3.27733 2.76205 0
M  V30 4018 H 381.24 4.24069 2.57835 0
M  V30 4019 H 376.496 5.63781 2.3656 0
M  V30 4020 H 380.67 6.60985 2.19251 0
M  V30 4021 H 378.297 7.31162 2.081 0
M  V30 4022 N 379.872 -1.04064 1.18357 0
M  V30 4023 C 381.118 -1.77528 0.980397 0
M  V30 4024 C 381.451 -1.87948 -0.48879 0
M  V30 4025 O 380.726 -1.3876 -1.36293 0
M  V30 4026 C 381.009 -3.20797 1.63588 0
M  V30 4027 C 380.862 -3.1832 3.17793 0
M  V30 4028 C 382.181 -4.18911 1.34914 0
M  V30 4029 H 379.3 -0.644443 0.357578 0
M  V30 4030 H 381.942 -1.2156 1.46024 0
M  V30 4031 H 380.092 -3.68586 1.22788 0
M  V30 4032 H 381.764 -2.78521 3.67728 0
M  V30 4033 H 380.007 -2.56351 3.49952 0
M  V30 4034 H 380.678 -4.19489 3.58794 0
M  V30 4035 H 383.154 -3.7967 1.70265 0
M  V30 4036 H 382.03 -5.17374 1.83346 0
M  V30 4037 H 382.291 -4.41262 0.272027 0
M  V30 4038 N 381.35 -0.985608 -1.22978 0
M  V30 4039 C 382.627 -0.573599 -1.87001 0
M  V30 4040 C 383.007 0.949213 -1.88555 0
M  V30 4041 O 382.355 1.82811 -1.37086 0
M  V30 4042 C 382.565 -1.18564 -3.28243 0
M  V30 4043 C 383.913 -1.28163 -4.04796 0
M  V30 4044 O 384.937 -1.13949 -3.37482 0
M  V30 4045 O 383.796 -1.50832 -5.25273 0
M  V30 4046 H 380.89 -0.193868 -0.803955 0
M  V30 4047 H 383.436 -1.08102 -1.30813 0
M  V30 4048 H 382.208 -2.22758 -3.21706 0
M  V30 4049 H 381.831 -0.663363 -3.92027 0
M  V30 4050 N 382.828 1.3818 -0.7579 0
M  V30 4051 C 384.053 2.04827 -0.325679 0
M  V30 4052 C 384.478 1.56788 1.03919 0
M  V30 4053 O 383.836 0.721811 1.66312 0
M  V30 4054 C 383.884 3.58774 -0.362447 0
M  V30 4055 O 382.988 4.07372 0.642033 0
M  V30 4056 H 382.329 0.64833 -0.143402 0
M  V30 4057 H 384.859 1.7677 -1.03023 0
M  V30 4058 H 384.869 4.07434 -0.214844 0
M  V30 4059 H 383.544 3.93096 -1.35824 0
M  V30 4060 H 382.121 3.70068 0.458688 0
M  V30 4061 N 384.306 0.507319 1.49211 0
M  V30 4062 C 385.546 -0.0332372 2.04373 0
M  V30 4063 C 385.91 -1.33694 1.37804 0
M  V30 4064 O 387.111 -1.96213 1.83722 0
M  V30 4065 C 385.382 -0.17599 3.56966 0
M  V30 4066 S 386.941 -0.669882 4.33657 0
M  V30 4067 H 383.759 0.00123603 0.710999 0
M  V30 4068 H 386.361 0.682725 1.83191 0
M  V30 4069 H 385.065 0.778053 4.02957 0
M  V30 4070 H 384.596 -0.917005 3.82563 0
M  V30 4071 H 386.611 -1.93806 4.56786 0
M  V30 4072 N 385.784 -1.5574 0.241426 0
M  V30 4073 C 386.714 -2.24133 -0.654722 0
M  V30 4074 C 387.695 -1.21974 -1.1856 0
M  V30 4075 O 388.88 -1.50612 -1.22595 0
M  V30 4076 C 386.01 -2.93659 -1.85423 0
M  V30 4077 C 384.964 -4.0246 -1.45636 0
M  V30 4078 C 384.29 -4.59383 -2.73626 0
M  V30 4079 C 385.59 -5.18468 -0.631506 0
M  V30 4080 H 387.284 -2.99281 -0.0844353 0
M  V30 4081 H 384.83 -1.43947 -0.0391707 0
M  V30 4082 H 386.783 -3.40203 -2.48676 0
M  V30 4083 H 385.507 -2.15991 -2.44981 0
M  V30 4084 H 384.166 -3.56676 -0.847202 0
M  V30 4085 H 383.814 -3.78422 -3.3137 0
M  V30 4086 H 383.514 -5.32826 -2.4773 0
M  V30 4087 H 385.038 -5.08658 -3.37786 0
M  V30 4088 H 386.452 -5.61272 -1.1682 0
M  V30 4089 H 384.849 -5.98266 -0.468831 0
M  V30 4090 H 385.919 -4.8358 0.357506 0
M  V30 4091 N 387.262 0.0317525 -1.57568 0
M  V30 4092 C 388.194 1.06073 -2.03178 0
M  V30 4093 C 389.207 1.32627 -0.944132 0
M  V30 4094 O 390.396 1.30162 -1.22148 0
M  V30 4095 C 387.496 2.40297 -2.38978 0
M  V30 4096 C 386.669 2.33137 -3.70089 0
M  V30 4097 C 385.728 3.49787 -3.9311 0
M  V30 4098 O 384.754 3.29403 -4.64201 0
M  V30 4099 N 385.956 4.71562 -3.38541 0
M  V30 4100 H 388.721 0.672006 -2.92069 0
M  V30 4101 H 386.282 0.219745 -1.60402 0
M  V30 4102 H 388.274 3.1705 -2.51518 0
M  V30 4103 H 386.844 2.71024 -1.55771 0
M  V30 4104 H 386.064 1.415 -3.67928 0
M  V30 4105 H 387.352 2.25493 -4.56104 0
M  V30 4106 H 386.75 4.91024 -2.80912 0
M  V30 4107 H 385.307 5.45689 -3.56464 0
M  V30 4108 N 388.74 1.54641 0.303973 0
M  V30 4109 C 389.687 1.85386 1.37479 0
M  V30 4110 C 390.657 0.702528 1.50512 0
M  V30 4111 O 391.842 0.950867 1.65418 0
M  V30 4112 C 388.982 2.10413 2.73533 0
M  V30 4113 C 388.095 3.38049 2.68974 0
M  V30 4114 C 387.23 3.52934 3.97002 0
M  V30 4115 C 386.269 4.74373 3.86829 0
M  V30 4116 N 385.406 4.8608 5.06627 0
M  V30 4117 H 390.246 2.76732 1.1056 0
M  V30 4118 H 387.783 1.37034 0.534805 0
M  V30 4119 H 389.741 2.22919 3.52652 0
M  V30 4120 H 388.371 1.22338 2.98719 0
M  V30 4121 H 387.423 3.3418 1.81736 0
M  V30 4122 H 388.735 4.27288 2.57346 0
M  V30 4123 H 387.889 3.65088 4.84557 0
M  V30 4124 H 386.628 2.61824 4.1146 0
M  V30 4125 H 385.633 4.62255 2.97658 0
M  V30 4126 H 386.858 5.66888 3.73918 0
M  V30 4127 H 384.804 3.97891 5.21554 0
M  V30 4128 H 384.721 5.69315 4.9741 0
M  V30 4129 H 385.989 5.02587 5.95841 0
M  V30 4130 N 390.218 -0.567019 1.47046 0
M  V30 4131 C 391.467 -1.32091 1.5243 0
M  V30 4132 C 391.78 -1.94704 0.187021 0
M  V30 4133 O 392.986 -2.7124 0.118771 0
M  V30 4134 C 391.442 -2.39479 2.68659 0
M  V30 4135 C 391.05 -1.831 4.08874 0
M  V30 4136 C 392.794 -3.16111 2.83327 0
M  V30 4137 C 390.701 -2.8821 5.16419 0
M  V30 4138 H 389.631 -0.496629 0.56734 0
M  V30 4139 H 392.282 -0.603354 1.73297 0
M  V30 4140 H 390.664 -3.14105 2.41152 0
M  V30 4141 H 391.838 -1.14913 4.46242 0
M  V30 4142 H 390.153 -1.19085 3.99008 0
M  V30 4143 H 392.75 -3.94585 3.60842 0
M  V30 4144 H 393.093 -3.69686 1.91411 0
M  V30 4145 H 393.626 -2.48595 3.10556 0
M  V30 4146 H 390.365 -2.39504 6.10179 0
M  V30 4147 H 389.885 -3.54839 4.8358 0
M  V30 4148 H 391.564 -3.51881 5.42945 0
M  V30 4149 N 391.696 -1.35014 -0.812953 0
M  V30 4150 C 393.107 -1.25035 -1.38648 0
M  V30 4151 C 393.458 0.119967 -1.95833 0
M  V30 4152 O 392.583 1.02069 -1.90816 0
M  V30 4153 C 393.178 -2.26394 -2.52054 0
M  V30 4154 C 391.737 -2.20175 -3.05287 0
M  V30 4155 C 390.884 -2.12451 -1.78213 0
M  V30 4156 H 393.835 -1.46235 -0.616516 0
M  V30 4157 H 393.856 -1.88672 -3.30429 0
M  V30 4158 H 393.368 -3.26116 -2.10404 0
M  V30 4159 H 391.469 -1.23841 -3.51417 0
M  V30 4160 H 391.582 -3.11863 -3.63701 0
M  V30 4161 H 389.946 -1.58328 -1.9951 0
M  V30 4162 H 390.729 -3.14024 -1.38723 0
M  V30 4163 N 393.175 1.03435 -1.18907 0
M  V30 4164 C 394.107 2.1165 -0.879595 0
M  V30 4165 C 395.12 1.62316 0.125439 0
M  V30 4166 O 396.309 1.78201 -0.103245 0
M  V30 4167 C 393.409 3.37622 -0.294042 0
M  V30 4168 C 392.582 4.16166 -1.34629 0
M  V30 4169 C 391.641 5.20457 -0.775274 0
M  V30 4170 O 390.667 5.50379 -1.4516 0
M  V30 4171 N 391.869 5.78949 0.424126 0
M  V30 4172 H 394.634 2.38791 -1.81105 0
M  V30 4173 H 392.195 1.19681 -1.09032 0
M  V30 4174 H 394.187 4.04572 0.101679 0
M  V30 4175 H 392.757 3.07873 0.541575 0
M  V30 4176 H 391.977 3.44444 -1.91707 0
M  V30 4177 H 393.265 4.65432 -2.05549 0
M  V30 4178 H 392.663 5.56948 0.991209 0
M  V30 4179 H 391.22 6.47334 0.761691 0
M  V30 4180 N 394.653 0.992116 1.22453 0
M  V30 4181 C 395.93 0.583508 1.86694 0
M  V30 4182 C 396.31 -0.9392 1.89056 0
M  V30 4183 O 395.658 -1.82081 1.38053 0
M  V30 4184 C 395.868 1.20304 3.2761 0
M  V30 4185 C 397.216 1.30308 4.0411 0
M  V30 4186 O 398.24 1.15737 3.36873 0
M  V30 4187 O 397.099 1.53615 5.24466 0
M  V30 4188 H 394.193 0.198129 0.802916 0
M  V30 4189 H 396.739 1.08794 1.30238 0
M  V30 4190 H 395.511 2.24461 3.2052 0
M  V30 4191 H 395.134 0.684144 3.9167 0
M  V30 4192 N 396.131 -1.37776 0.765217 0
M  V30 4193 C 397.547 -1.53297 0.444108 0
M  V30 4194 C 397.747 -1.72515 -1.04119 0
M  V30 4195 O 396.803 -1.74278 -1.82711 0
M  V30 4196 C 398.116 -2.73328 1.25349 0
M  V30 4197 C 399.664 -2.87185 1.24473 0
M  V30 4198 C 400.139 -4.10191 2.03733 0
M  V30 4199 N 401.63 -4.17291 2.01053 0
M  V30 4200 C 402.365 -5.11488 2.59166 0
M  V30 4201 N 401.861 -6.11285 3.26041 0
M  V30 4202 N 403.654 -5.03924 2.49032 0
M  V30 4203 H 395.805 -1.23552 1.72768 0
M  V30 4204 H 398.068 -0.601103 0.733062 0
M  V30 4205 H 397.774 -2.6557 2.30577 0
M  V30 4206 H 397.648 -3.66834 0.87823 0
M  V30 4207 H 400.035 -2.94418 0.20047 0
M  V30 4208 H 400.116 -1.94657 1.65959 0
M  V30 4209 H 399.76 -4.0372 3.08176 0
M  V30 4210 H 399.69 -5.01821 1.59633 0
M  V30 4211 H 402.181 -3.45825 1.5236 0
M  V30 4212 H 402.494 -6.79678 3.67774 0
M  V30 4213 H 400.839 -6.11583 3.30138 0
M  V30 4214 H 404.03 -4.24902 1.96407 0
M  V30 4215 H 404.203 -5.77152 2.94617 0
M  V30 4216 N 397.609 -0.515225 -1.4894 0
M  V30 4217 C 399.02 -0.0710067 -1.86565 0
M  V30 4218 C 399.371 1.34733 -1.42623 0
M  V30 4219 O 398.496 2.00653 -0.810379 0
M  V30 4220 C 399.091 -0.122083 -3.3858 0
M  V30 4221 C 397.65 0.266863 -3.75453 0
M  V30 4222 C 396.797 -0.488376 -2.72966 0
M  V30 4223 H 399.748 -0.727266 -1.41055 0
M  V30 4224 H 399.769 0.669818 -3.74558 0
M  V30 4225 H 399.281 -1.15448 -3.70531 0
M  V30 4226 H 397.382 1.30196 -3.49113 0
M  V30 4227 H 397.495 -0.0624811 -4.79059 0
M  V30 4228 H 395.859 0.0635622 -2.54621 0
M  V30 4229 H 396.642 -1.52113 -3.07761 0
M  V30 4230 N 399.087 1.5561 -0.249682 0
M  V30 4231 C 400.315 2.03411 0.378352 0
M  V30 4232 C 400.73 1.12886 1.51335 0
M  V30 4233 O 400.087 0.143833 1.81932 0
M  V30 4234 C 400.138 3.50537 0.88351 0
M  V30 4235 O 399.859 4.37614 -0.20626 0
M  V30 4236 C 401.36 4.14113 1.58195 0
M  V30 4237 H 398.58 0.664994 0.08958 0
M  V30 4238 H 401.124 2.01044 -0.374357 0
M  V30 4239 H 399.279 3.5343 1.58639 0
M  V30 4240 H 399.693 5.24199 0.177782 0
M  V30 4241 H 401.167 5.18741 1.8871 0
M  V30 4242 H 401.644 3.60767 2.50487 0
M  V30 4243 H 402.25 4.15151 0.923573 0
M  V30 4244 N 400.565 -0.0233959 1.57583 0
M  V30 4245 C 401.79 -0.728376 1.94189 0
M  V30 4246 C 402.215 -1.67793 0.850119 0
M  V30 4247 O 401.573 -1.80262 -0.19371 0
M  V30 4248 C 401.621 -1.45669 3.29868 0
M  V30 4249 O 400.725 -2.57013 3.22518 0
M  V30 4250 H 400.066 -0.195493 0.63457 0
M  V30 4251 H 402.596 0.0228214 2.04587 0
M  V30 4252 H 402.606 -1.82535 3.6489 0
M  V30 4253 H 401.281 -0.760314 4.08891 0
M  V30 4254 H 399.858 -2.22648 2.99136 0
M  V30 4255 N 402.043 -1.548 -0.295768 0
M  V30 4256 C 402.953 -1.89177 -1.38742 0
M  V30 4257 C 403.969 -0.786481 -1.55211 0
M  V30 4258 O 405.145 -1.08344 -1.69775 0
M  V30 4259 C 402.21 -2.13663 -2.73036 0
M  V30 4260 C 401.271 -3.37349 -2.65508 0
M  V30 4261 C 400.504 -3.60658 -3.93398 0
M  V30 4262 O 400.727 -2.86882 -4.93006 0
M  V30 4263 O 399.661 -4.54179 -3.94975 0
M  V30 4264 H 403.487 -2.82059 -1.12589 0
M  V30 4265 H 401.072 -1.41056 -0.492295 0
M  V30 4266 H 402.954 -2.3094 -3.52484 0
M  V30 4267 H 401.629 -1.23967 -2.99022 0
M  V30 4268 H 400.536 -3.25431 -1.84514 0
M  V30 4269 H 401.869 -4.27192 -2.44474 0
M  V30 4270 N 403.521 0.559213 -1.47345 0
M  V30 4271 C 404.767 1.31843 -1.54095 0
M  V30 4272 C 405.1 1.93149 -0.201726 0
M  V30 4273 O 404.375 1.77759 0.789428 0
M  V30 4274 C 404.658 2.43006 -2.65744 0
M  V30 4275 C 404.511 1.86581 -4.09277 0
M  V30 4276 C 405.83 3.44943 -2.73318 0
M  V30 4277 H 402.949 0.478012 -0.560957 0
M  V30 4278 H 405.591 0.625977 -1.79392 0
M  V30 4279 H 403.741 3.02072 -2.44305 0
M  V30 4280 H 405.413 1.31792 -4.42073 0
M  V30 4281 H 403.656 1.17268 -4.17649 0
M  V30 4282 H 404.327 2.66933 -4.83168 0
M  V30 4283 H 406.803 2.95793 -2.92653 0
M  V30 4284 H 405.679 4.20153 -3.53218 0
M  V30 4285 H 405.94 4.03665 -1.80296 0
M  V30 4286 N 404.999 1.35443 0.805782 0
M  V30 4287 C 405.929 1.31095 1.93226 0
M  V30 4288 C 406.91 0.185244 1.69088 0
M  V30 4289 O 408.095 0.380332 1.90439 0
M  V30 4290 C 405.225 1.08299 3.29983 0
M  V30 4291 C 404.179 2.17519 3.68605 0
M  V30 4292 C 403.505 1.79887 5.03532 0
M  V30 4293 C 404.805 3.5949 3.78898 0
M  V30 4294 H 406.499 2.25352 1.97122 0
M  V30 4295 H 404.045 1.0848 0.946996 0
M  V30 4296 H 405.998 1.03897 4.08391 0
M  V30 4297 H 404.722 0.104885 3.26432 0
M  V30 4298 H 403.381 2.2102 2.92482 0
M  V30 4299 H 403.029 0.80693 4.96485 0
M  V30 4300 H 402.729 2.53001 5.30344 0
M  V30 4301 H 404.253 1.77011 5.84379 0
M  V30 4302 H 405.667 3.58307 4.47536 0
M  V30 4303 H 404.064 4.31371 4.1718 0
M  V30 4304 H 405.134 3.95584 2.80431 0
M  V30 4305 N 406.477 -1.02803 1.19454 0
M  V30 4306 C 407.407 -2.12999 0.956758 0
M  V30 4307 C 408.388 -1.69743 -0.110188 0
M  V30 4308 O 409.573 -1.94148 0.0450038 0
M  V30 4309 C 406.703 -3.43746 0.495553 0
M  V30 4310 C 405.657 -4.00688 1.50443 0
M  V30 4311 C 404.983 -5.27067 0.900275 0
M  V30 4312 C 406.283 -4.35397 2.8849 0
M  V30 4313 H 407.977 -2.33148 1.87836 0
M  V30 4314 H 405.523 -1.12045 0.904539 0
M  V30 4315 H 407.476 -4.2021 0.316493 0
M  V30 4316 H 406.2 -3.23321 -0.461646 0
M  V30 4317 H 404.859 -3.2632 1.67065 0
M  V30 4318 H 404.507 -5.02959 -0.064503 0
M  V30 4319 H 404.207 -5.66127 1.57397 0
M  V30 4320 H 405.731 -6.06196 0.73203 0
M  V30 4321 H 407.145 -5.02795 2.75446 0
M  V30 4322 H 405.542 -4.85541 3.52661 0
M  V30 4323 H 406.612 -3.44662 3.41081 0
M  V30 4324 N 407.956 -0.998596 -1.21925 0
M  V30 4325 C 408.903 -0.553621 -2.24062 0
M  V30 4326 C 409.873 0.416999 -1.6078 0
M  V30 4327 O 411.058 0.320482 -1.88089 0
M  V30 4328 C 408.198 0.119959 -3.44891 0
M  V30 4329 C 407.311 -0.893077 -4.22668 0
M  V30 4330 C 406.446 -0.192424 -5.30851 0
M  V30 4331 C 405.485 -1.19344 -6.00353 0
M  V30 4332 N 404.622 -0.520707 -7.00166 0
M  V30 4333 H 409.462 -1.4293 -2.61486 0
M  V30 4334 H 406.999 -0.715838 -1.28507 0
M  V30 4335 H 408.957 0.527459 -4.13852 0
M  V30 4336 H 407.587 0.959389 -3.08214 0
M  V30 4337 H 406.639 -1.41886 -3.52948 0
M  V30 4338 H 407.951 -1.65512 -4.70539 0
M  V30 4339 H 407.105 0.271515 -6.06092 0
M  V30 4340 H 405.844 0.602075 -4.83969 0
M  V30 4341 H 404.849 -1.66795 -5.23889 0
M  V30 4342 H 406.074 -1.98891 -6.49322 0
M  V30 4343 H 404.02 0.254252 -6.55507 0
M  V30 4344 H 403.937 -1.2211 -7.46073 0
M  V30 4345 H 405.205 -0.0797596 -7.79459 0
M  V30 4346 N 409.434 1.37368 -0.772513 0
M  V30 4347 C 410.384 2.27613 -0.132823 0
M  V30 4348 C 411.368 1.46138 0.673247 0
M  V30 4349 O 412.56 1.68686 0.536095 0
M  V30 4350 C 409.689 3.35122 0.744864 0
M  V30 4351 C 408.775 4.24044 -0.0690771 0
M  V30 4352 N 409.166 4.93355 -1.1151 0
M  V30 4353 C 407.464 4.45731 0.154782 0
M  V30 4354 C 408.165 5.59 -1.60917 0
M  V30 4355 N 407.141 5.35737 -0.921222 0
M  V30 4356 H 410.943 2.78675 -0.933681 0
M  V30 4357 H 408.457 1.50494 -0.610342 0
M  V30 4358 H 410.454 3.98683 1.21892 0
M  V30 4359 H 409.114 2.85616 1.54446 0
M  V30 4360 H 410.125 4.95785 -1.49726 0
M  V30 4361 H 406.802 4.07096 0.926224 0
M  V30 4362 H 408.192 6.24395 -2.48153 0
M  V30 4363 N 410.912 0.523116 1.48665 0
M  V30 4364 C 412.328 0.180511 1.58576 0
M  V30 4365 C 412.528 -1.31597 1.52592 0
M  V30 4366 O 411.584 -2.0937 1.4114 0
M  V30 4367 C 412.897 0.776949 2.90489 0
M  V30 4368 C 414.445 0.745058 3.04003 0
M  V30 4369 C 414.92 1.31995 4.38567 0
M  V30 4370 N 416.411 1.28162 4.45117 0
M  V30 4371 C 417.146 1.6964 5.47731 0
M  V30 4372 N 416.642 2.18816 6.57337 0
M  V30 4373 N 418.435 1.6092 5.38573 0
M  V30 4374 H 410.586 1.4958 1.50797 0
M  V30 4375 H 412.849 0.621772 0.715614 0
M  V30 4376 H 412.555 1.82732 3.00503 0
M  V30 4377 H 412.429 0.25007 3.7637 0
M  V30 4378 H 414.816 -0.296532 2.93606 0
M  V30 4379 H 414.897 1.30933 2.1975 0
M  V30 4380 H 414.541 2.36043 4.49718 0
M  V30 4381 H 414.471 0.731418 5.21496 0
M  V30 4382 H 416.962 0.92155 3.66491 0
M  V30 4383 H 417.275 2.48478 7.31764 0
M  V30 4384 H 415.62 2.22805 6.58318 0
M  V30 4385 H 418.811 1.22304 4.5184 0
M  V30 4386 H 418.984 1.93567 6.18414 0
M  V30 4387 N 412.39 -1.55475 0.257931 0
M  V30 4388 C 413.637 -1.99207 -0.363728 0
M  V30 4389 C 413.965 -1.1462 -1.57139 0
M  V30 4390 O 413.22 -0.199653 -1.94679 0
M  V30 4391 C 413.519 -3.48183 -0.806433 0
M  V30 4392 C 413.185 -4.49936 0.294684 0
M  V30 4393 C 411.847 -4.77481 0.597076 0
M  V30 4394 C 414.199 -5.10769 1.03751 0
M  V30 4395 C 411.527 -5.63132 1.64618 0
M  V30 4396 C 413.879 -5.97558 2.07622 0
M  V30 4397 C 412.543 -6.23432 2.38514 0
M  V30 4398 H 411.813 -0.728949 -0.133097 0
M  V30 4399 H 414.46 -1.8793 0.368059 0
M  V30 4400 H 412.765 -3.56848 -1.61761 0
M  V30 4401 H 414.462 -3.79415 -1.29789 0
M  V30 4402 H 411.052 -4.28572 0.0488649 0
M  V30 4403 H 415.236 -4.89527 0.817149 0
M  V30 4404 H 410.492 -5.8143 1.89074 0
M  V30 4405 H 414.666 -6.43735 2.65666 0
M  V30 4406 H 412.293 -6.89594 3.19943 0
M  V30 4407 N 413.868 0.0150385 -1.57593 0
M  V30 4408 C 415.114 0.704043 -1.90187 0
M  V30 4409 C 415.447 1.74249 -0.857366 0
M  V30 4410 O 414.722 1.94092 0.125843 0
M  V30 4411 C 415.005 1.36087 -3.33395 0
M  V30 4412 C 414.858 0.334981 -4.48551 0
M  V30 4413 C 416.177 2.29112 -3.7576 0
M  V30 4414 H 413.296 0.254475 -0.691673 0
M  V30 4415 H 415.938 -0.0331678 -1.89971 0
M  V30 4416 H 414.088 1.98922 -3.3371 0
M  V30 4417 H 415.76 -0.292534 -4.60372 0
M  V30 4418 H 414.003 -0.344325 -4.32431 0
M  V30 4419 H 414.674 0.833316 -5.45674 0
M  V30 4420 H 417.15 1.76308 -3.76902 0
M  V30 4421 H 416.026 2.72043 -4.76743 0
M  V30 4422 H 416.287 3.16385 -3.08793 0
M  V30 4423 N 415.346 1.54954 0.287554 0
M  V30 4424 C 416.276 1.89839 1.35954 0
M  V30 4425 C 417.257 0.758675 1.52244 0
M  V30 4426 O 418.442 1.01557 1.65529 0
M  V30 4427 C 415.572 2.15753 2.72154 0
M  V30 4428 C 414.526 3.3159 2.70614 0
M  V30 4429 C 413.852 3.42952 4.10229 0
M  V30 4430 C 415.152 4.68359 2.31165 0
M  V30 4431 H 416.846 2.79625 1.07007 0
M  V30 4432 H 414.392 1.3454 0.513316 0
M  V30 4433 H 416.345 2.38743 3.47246 0
M  V30 4434 H 415.069 1.22752 3.02654 0
M  V30 4435 H 413.728 3.08545 1.97979 0
M  V30 4436 H 413.376 2.47443 4.37928 0
M  V30 4437 H 413.076 4.20826 4.10097 0
M  V30 4438 H 414.6 3.68218 4.87081 0
M  V30 4439 H 416.014 4.9099 2.95976 0
M  V30 4440 H 414.411 5.49044 2.42221 0
M  V30 4441 H 415.481 4.68165 1.26291 0
M  V30 4442 N 416.824 -0.551391 1.4764 0
M  V30 4443 C 418.24 -0.877887 1.33287 0
M  V30 4444 C 418.44 -1.98817 0.327721 0
M  V30 4445 O 417.496 -2.51171 -0.258695 0
M  V30 4446 C 418.809 -1.26563 2.72768 0
M  V30 4447 C 420.357 -1.37673 2.81097 0
M  V30 4448 C 420.832 -1.79799 4.21232 0
M  V30 4449 N 422.323 -1.8694 4.23802 0
M  V30 4450 C 423.058 -2.20876 5.29151 0
M  V30 4451 N 422.554 -2.53386 6.448 0
M  V30 4452 N 424.347 -2.217 5.16532 0
M  V30 4453 H 416.498 0.18153 2.11623 0
M  V30 4454 H 418.761 0.0185514 0.947818 0
M  V30 4455 H 418.467 -0.523591 3.47781 0
M  V30 4456 H 418.341 -2.22052 3.04915 0
M  V30 4457 H 420.728 -2.10956 2.06353 0
M  V30 4458 H 420.809 -0.40357 2.52596 0
M  V30 4459 H 420.453 -1.07083 4.96483 0
M  V30 4460 H 420.383 -2.78128 4.4716 0
M  V30 4461 H 422.874 -1.64179 3.40373 0
M  V30 4462 H 423.187 -2.78325 7.20941 0
M  V30 4463 H 421.532 -2.50953 6.48111 0
M  V30 4464 H 424.723 -1.95745 4.25207 0
M  V30 4465 H 424.896 -2.47818 5.98741 0
M  V30 4466 N 418.302 -1.35869 -0.798587 0
M  V30 4467 C 419.212 -1.31578 -1.94228 0
M  V30 4468 C 420.228 -0.21939 -1.72611 0
M  V30 4469 O 421.404 -0.450167 -1.96305 0
M  V30 4470 C 418.469 -1.09528 -3.28944 0
M  V30 4471 C 417.53 -2.28556 -3.63402 0
M  V30 4472 C 416.763 -2.07549 -4.9169 0
M  V30 4473 O 416.986 -1.046 -5.60727 0
M  V30 4474 O 415.92 -2.95106 -5.24591 0
M  V30 4475 H 419.746 -2.27847 -2.00796 0
M  V30 4476 H 417.331 -1.16322 -0.937526 0
M  V30 4477 H 419.213 -0.991127 -4.09579 0
M  V30 4478 H 417.888 -0.16315 -3.23289 0
M  V30 4479 H 416.795 -2.44538 -2.83112 0
M  V30 4480 H 418.128 -3.20244 -3.73771 0
M  V30 4481 N 419.78 1.02168 -1.19998 0
M  V30 4482 C 421.196 1.27969 -0.953737 0
M  V30 4483 C 421.396 1.98079 0.369703 0
M  V30 4484 O 420.452 2.27306 1.09947 0
M  V30 4485 C 421.765 2.11971 -2.13281 0
M  V30 4486 C 423.313 2.25255 -2.17323 0
M  V30 4487 C 423.788 3.12632 -3.34702 0
M  V30 4488 N 425.279 3.2022 -3.34684 0
M  V30 4489 C 426.014 3.88039 -4.22153 0
M  V30 4490 N 425.51 4.58027 -5.19791 0
M  V30 4491 N 427.303 3.84511 -4.10009 0
M  V30 4492 H 419.454 0.550794 -2.05134 0
M  V30 4493 H 421.717 0.305683 -0.897364 0
M  V30 4494 H 421.423 1.67785 -3.09097 0
M  V30 4495 H 421.297 3.12699 -2.10949 0
M  V30 4496 H 423.684 2.68667 -1.22073 0
M  V30 4497 H 423.765 1.24053 -2.23706 0
M  V30 4498 H 423.409 2.69926 -4.30235 0
M  V30 4499 H 423.339 4.13909 -3.25556 0
M  V30 4500 H 425.83 2.70382 -2.64012 0
M  V30 4501 H 426.143 5.07429 -5.82868 0
M  V30 4502 H 424.488 4.56869 -5.23733 0
M  V30 4503 H 427.679 3.28978 -3.33003 0
M  V30 4504 H 427.852 4.3709 -4.78389 0
M  V30 4505 N 421.258 1.00505 1.21394 0
M  V30 4506 C 422.669 0.721082 1.72213 0
M  V30 4507 C 423.02 -0.761263 1.80829 0
M  V30 4508 O 422.145 -1.59464 1.46288 0
M  V30 4509 C 422.74 1.30228 3.12772 0
M  V30 4510 C 421.299 1.06743 3.60947 0
M  V30 4511 C 420.446 1.41507 2.38477 0
M  V30 4512 H 423.397 1.17594 1.06571 0
M  V30 4513 H 423.418 0.686955 3.74247 0
M  V30 4514 H 422.93 2.38115 3.06468 0
M  V30 4515 H 421.031 0.00572162 3.726 0
M  V30 4516 H 421.144 1.73936 4.46411 0
M  V30 4517 H 419.508 0.833852 2.40664 0
M  V30 4518 H 420.291 2.50424 2.34824 0
M  V30 4519 N 422.737 -1.36956 0.779787 0
M  V30 4520 C 424.148 -1.82094 0.412156 0
M  V30 4521 C 424.499 -1.64926 -1.06273 0
M  V30 4522 O 423.624 -1.16483 -1.82375 0
M  V30 4523 C 424.219 -3.3059 0.741319 0
M  V30 4524 C 422.778 -3.73974 0.426641 0
M  V30 4525 C 421.925 -2.59368 0.980987 0
M  V30 4526 H 424.876 -1.25314 0.973758 0
M  V30 4527 H 424.897 -3.80489 0.028887 0
M  V30 4528 H 424.409 -3.43054 1.81482 0
M  V30 4529 H 422.51 -3.67076 -0.639215 0
M  V30 4530 H 422.623 -4.69778 0.940515 0
M  V30 4531 H 420.987 -2.51463 0.404757 0
M  V30 4532 H 421.77 -2.74621 2.06005 0
M  V30 4533 N 424.215 -0.530993 -1.48385 0
M  V30 4534 C 425.443 -0.00134122 -2.069 0
M  V30 4535 C 425.858 1.2805 -1.3874 0
M  V30 4536 O 425.215 1.76204 -0.475244 0
M  V30 4537 C 425.266 0.225256 -3.60798 0
M  V30 4538 O 424.987 -1.0058 -4.26398 0
M  V30 4539 C 426.488 0.795172 -4.3611 0
M  V30 4540 H 423.708 -0.0339704 -0.67014 0
M  V30 4541 H 426.252 -0.736926 -1.90761 0
M  V30 4542 H 424.407 0.910891 -3.76539 0
M  V30 4543 H 424.821 -0.787165 -5.1856 0
M  V30 4544 H 426.295 0.903143 -5.44562 0
M  V30 4545 H 426.772 1.80031 -4.00606 0
M  V30 4546 H 427.378 0.146069 -4.25049 0
M  V30 4547 N 425.693 1.55336 -0.266172 0
M  V30 4548 C 426.939 1.99692 0.353681 0
M  V30 4549 C 427.272 1.1543 1.56172 0
M  V30 4550 O 426.547 0.222218 1.93226 0
M  V30 4551 C 426.83 3.52316 0.74466 0
M  V30 4552 C 426.683 4.47337 -0.470101 0
M  V30 4553 C 428.002 4.10588 1.58447 0
M  V30 4554 H 425.121 0.725961 0.12708 0
M  V30 4555 H 427.763 1.86336 -0.371333 0
M  V30 4556 H 425.913 3.63829 1.36239 0
M  V30 4557 H 427.585 4.4778 -1.10864 0
M  V30 4558 H 425.828 4.19364 -1.10978 0
M  V30 4559 H 426.499 5.51788 -0.15291 0
M  V30 4560 H 428.975 4.02297 1.06286 0
M  V30 4561 H 427.851 5.17607 1.82686 0
M  V30 4562 H 428.112 3.60253 2.56262 0
M  V30 4563 N 427.171 -0.0066808 1.57599 0
M  V30 4564 C 428.42 -0.692078 1.89455 0
M  V30 4565 C 428.733 -1.75306 0.867586 0
M  V30 4566 O 429.939 -2.49262 1.07614 0
M  V30 4567 C 428.395 -1.2821 3.36289 0
M  V30 4568 C 428.003 -0.256291 4.47266 0
M  V30 4569 C 429.747 -1.94608 3.77264 0
M  V30 4570 C 427.654 -0.855927 5.85173 0
M  V30 4571 H 426.584 -0.262252 0.706923 0
M  V30 4572 H 429.235 0.052769 1.83424 0
M  V30 4573 H 427.617 -2.0774 3.37135 0
M  V30 4574 H 428.791 0.513923 4.57925 0
M  V30 4575 H 427.106 0.306862 4.15268 0
M  V30 4576 H 429.703 -2.40364 4.77629 0
M  V30 4577 H 430.046 -2.77382 3.10427 0
M  V30 4578 H 430.579 -1.21822 3.78688 0
M  V30 4579 H 427.318 -0.0671161 6.55466 0
M  V30 4580 H 426.838 -1.59546 5.78191 0
M  V30 4581 H 428.517 -1.35658 6.32618 0
M  V30 4582 N 428.649 -1.55105 -0.279332 0
M  V30 4583 C 429.582 -1.82467 -1.37044 0
M  V30 4584 C 430.56 -0.677261 -1.47824 0
M  V30 4585 O 431.744 -0.919578 -1.64548 0
M  V30 4586 C 428.871 -1.98066 -2.7475 0
M  V30 4587 C 427.917 -3.20594 -2.81286 0
M  V30 4588 S 428.75 -4.78116 -2.41175 0
M  V30 4589 C 429.906 -4.9668 -3.80867 0
M  V30 4590 H 430.139 -2.74728 -1.1363 0
M  V30 4591 H 427.672 -1.46794 -0.478625 0
M  V30 4592 H 429.63 -2.07739 -3.54055 0
M  V30 4593 H 428.291 -1.06704 -2.9542 0
M  V30 4594 H 427.484 -3.28376 -3.82341 0
M  V30 4595 H 427.086 -3.09479 -2.09996 0
M  V30 4596 H 429.378 -4.82033 -4.76078 0
M  V30 4597 H 430.321 -5.98741 -3.78041 0
M  V30 4598 H 430.729 -4.24698 -3.71876 0
M  V30 4599 N 430.127 0.543554 -1.4793 0
M  V30 4600 C 431.404 1.30458 -1.4574 0
M  V30 4601 C 431.784 2.1048 -0.161692 0
M  V30 4602 O 431.132 2.11831 0.856734 0
M  V30 4603 C 431.342 2.19754 -2.71126 0
M  V30 4604 C 432.69 2.80334 -3.18901 0
M  V30 4605 O 433.714 2.30049 -2.71948 0
M  V30 4606 O 432.573 3.71766 -4.00565 0
M  V30 4607 H 429.667 0.588117 -0.581418 0
M  V30 4608 H 432.213 0.561328 -1.60147 0
M  V30 4609 H 430.985 1.60316 -3.56952 0
M  V30 4610 H 430.608 3.01351 -2.59371 0
M  V30 4611 N 431.605 1.3629 0.791371 0
M  V30 4612 C 432.535 1.33137 1.91825 0
M  V30 4613 C 433.516 0.203168 1.68882 0
M  V30 4614 O 434.701 0.400509 1.90025 0
M  V30 4615 C 431.831 1.11793 3.28816 0
M  V30 4616 C 430.785 2.21417 3.66277 0
M  V30 4617 C 430.111 1.85218 5.01596 0
M  V30 4618 C 431.411 3.63489 3.75064 0
M  V30 4619 H 433.105 2.2743 1.9472 0
M  V30 4620 H 430.651 1.09479 0.935437 0
M  V30 4621 H 432.604 1.08222 4.07266 0
M  V30 4622 H 431.328 0.139501 3.26302 0
M  V30 4623 H 429.987 2.2411 2.90121 0
M  V30 4624 H 429.635 0.859544 4.95602 0
M  V30 4625 H 429.335 2.58611 5.27631 0
M  V30 4626 H 430.859 1.832 5.82469 0
M  V30 4627 H 432.273 3.63034 4.43711 0
M  V30 4628 H 430.67 4.35771 4.12582 0
M  V30 4629 H 431.74 3.98536 2.76219 0
M  V30 4630 N 433.083 -1.0153 1.20538 0
M  V30 4631 C 434.332 -1.74558 1.01057 0
M  V30 4632 C 434.645 -1.90168 -0.457756 0
M  V30 4633 O 435.851 -2.60301 -0.771722 0
M  V30 4634 C 434.307 -3.13963 1.75941 0
M  V30 4635 C 433.915 -3.06361 3.26875 0
M  V30 4636 C 435.659 -3.91191 1.64832 0
M  V30 4637 C 433.566 -4.40782 3.94291 0
M  V30 4638 H 432.496 -0.654417 0.374505 0
M  V30 4639 H 435.147 -1.13521 1.44171 0
M  V30 4640 H 433.529 -3.75549 1.25614 0
M  V30 4641 H 434.703 -2.54074 3.84425 0
M  V30 4642 H 433.018 -2.42625 3.38411 0
M  V30 4643 H 435.615 -4.90644 2.12539 0
M  V30 4644 H 435.958 -4.11884 0.604745 0
M  V30 4645 H 436.491 -3.36236 2.12579 0
M  V30 4646 H 433.23 -4.25292 4.98805 0
M  V30 4647 H 432.75 -4.9307 3.41529 0
M  V30 4648 H 434.429 -5.09621 3.98617 0
M  V30 4649 N 434.561 -1.01147 -1.20859 0
M  V30 4650 C 435.493 -0.535546 -2.22855 0
M  V30 4651 C 436.506 0.379323 -1.58319 0
M  V30 4652 O 437.695 0.178489 -1.77605 0
M  V30 4653 C 434.795 0.240962 -3.38042 0
M  V30 4654 C 433.968 -0.674562 -4.32167 0
M  V30 4655 C 433.027 0.053467 -5.26173 0
M  V30 4656 O 432.053 -0.567339 -5.66366 0
M  V30 4657 N 433.255 1.32997 -5.65059 0
M  V30 4658 H 436.02 -1.41268 -2.64317 0
M  V30 4659 H 433.581 -0.888386 -1.35349 0
M  V30 4660 H 435.573 0.737115 -3.97931 0
M  V30 4661 H 434.143 1.01935 -2.95513 0
M  V30 4662 H 433.363 -1.35111 -3.70322 0
M  V30 4663 H 434.651 -1.2974 -4.91981 0
M  V30 4664 H 434.049 1.85536 -5.34409 0
M  V30 4665 H 432.606 1.77095 -6.2728 0
M  V30 4666 N 436.039 1.36541 -0.78704 0
M  V30 4667 C 437.455 1.52571 -0.46844 0
M  V30 4668 C 437.655 1.7415 1.01361 0
M  V30 4669 O 436.711 1.77163 1.79915 0
M  V30 4670 C 438.024 2.71299 -1.29682 0
M  V30 4671 C 439.572 2.85169 -1.29027 0
M  V30 4672 C 440.047 4.06898 -2.10233 0
M  V30 4673 N 441.538 4.1404 -2.07666 0
M  V30 4674 C 442.273 5.07301 -2.67271 0
M  V30 4675 N 441.769 6.06021 -3.35724 0
M  V30 4676 N 443.562 4.99898 -2.57018 0
M  V30 4677 H 435.713 1.20788 -1.74711 0
M  V30 4678 H 437.976 0.589364 -0.742532 0
M  V30 4679 H 437.682 2.61868 -2.34773 0
M  V30 4680 H 437.556 3.6539 -0.936479 0
M  V30 4681 H 439.943 2.94062 -0.247284 0
M  V30 4682 H 440.024 1.91992 -1.69035 0
M  V30 4683 H 439.668 3.98766 -3.1456 0
M  V30 4684 H 439.598 4.99218 -1.67597 0
M  V30 4685 H 442.089 3.43357 -1.57843 0
M  V30 4686 H 442.402 6.73741 -3.78541 0
M  V30 4687 H 440.747 6.06253 -3.39826 0
M  V30 4688 H 443.938 4.21724 -2.03142 0
M  V30 4689 H 444.111 5.72392 -3.03761 0
M  V30 4690 N 437.518 0.538854 1.48102 0
M  V30 4691 C 438.746 0.0123136 2.06896 0
M  V30 4692 C 439.161 -1.27312 1.39417 0
M  V30 4693 O 438.518 -1.75949 0.484582 0
M  V30 4694 C 438.569 -0.206118 3.60912 0
M  V30 4695 O 438.29 1.0284 4.25859 0
M  V30 4696 C 439.791 -0.772033 4.36526 0
M  V30 4697 H 437.011 0.0375239 0.66995 0
M  V30 4698 H 439.555 0.747032 1.90367 0
M  V30 4699 H 437.71 -0.89091 3.77017 0
M  V30 4700 H 438.124 0.814654 5.18135 0
M  V30 4701 H 439.598 -0.874251 5.45033 0
M  V30 4702 H 440.075 -1.77904 4.01555 0
M  V30 4703 H 440.681 -0.123526 4.25121 0
M  V30 4704 N 438.996 -1.55193 0.274407 0
M  V30 4705 C 439.943 -2.225 -0.613374 0
M  V30 4706 C 440.913 -1.19823 -1.15029 0
M  V30 4707 O 442.098 -1.48362 -1.19973 0
M  V30 4708 C 439.238 -2.94927 -1.79199 0
M  V30 4709 C 438.351 -4.12322 -1.28899 0
M  V30 4710 C 437.486 -4.72394 -2.42934 0
M  V30 4711 C 436.525 -5.81984 -1.89634 0
M  V30 4712 N 435.662 -6.36123 -2.9714 0
M  V30 4713 H 440.502 -2.97982 -0.032756 0
M  V30 4714 H 438.039 -1.47099 -0.00440146 0
M  V30 4715 H 439.997 -3.35134 -2.48478 0
M  V30 4716 H 438.627 -2.2187 -2.34465 0
M  V30 4717 H 437.679 -3.7724 -0.489327 0
M  V30 4718 H 438.991 -4.91355 -0.858587 0
M  V30 4719 H 438.145 -5.15317 -3.20208 0
M  V30 4720 H 436.884 -3.92636 -2.8929 0
M  V30 4721 H 435.889 -5.38511 -1.1084 0
M  V30 4722 H 437.114 -6.6361 -1.44215 0
M  V30 4723 H 435.06 -5.59259 -3.42878 0
M  V30 4724 H 434.977 -7.10427 -2.58515 0
M  V30 4725 H 436.245 -6.83704 -3.74391 0
M  V30 4726 N 440.474 -0.00167713 -1.576 0
M  V30 4727 C 441.751 0.719951 -1.81868 0
M  V30 4728 C 442.131 1.91895 -0.879747 0
M  V30 4729 O 441.479 2.28389 0.0711423 0
M  V30 4730 C 441.689 1.12409 -3.30402 0
M  V30 4731 C 443.037 1.52724 -3.96182 0
M  V30 4732 O 444.061 1.21784 -3.34734 0
M  V30 4733 O 442.92 2.10265 -5.04431 0
M  V30 4734 H 440.014 0.350707 -0.748955 0
M  V30 4735 H 442.56 -0.0272597 -1.69678 0
M  V30 4736 H 441.332 0.269532 -3.90371 0
M  V30 4737 H 440.955 1.93035 -3.47596 0
M  V30 4738 N 441.952 1.55251 0.271103 0
M  V30 4739 C 442.915 1.87484 1.31842 0
M  V30 4740 C 443.915 0.749545 1.42262 0
M  V30 4741 O 445.105 1.01771 1.4138 0
M  V30 4742 C 442.237 2.0818 2.69951 0
M  V30 4743 H 443.43 2.81108 1.0449 0
M  V30 4744 H 440.983 1.47771 0.509258 0
M  V30 4745 H 441.718 1.16944 3.02481 0
M  V30 4746 H 441.503 2.90114 2.63774 0
M  V30 4747 H 442.993 2.34385 3.4562 0
M  V30 4748 N 443.43 -0.535701 1.48216 0
M  V30 4749 C 444.676 -1.29375 1.56173 0
M  V30 4750 C 445.009 -1.92804 0.232429 0
M  V30 4751 O 444.284 -1.78992 -0.761048 0
M  V30 4752 C 444.567 -2.38747 2.69577 0
M  V30 4753 C 444.42 -1.80046 4.12193 0
M  V30 4754 C 445.739 -3.40551 2.78771 0
M  V30 4755 H 442.858 -0.469027 0.568491 0
M  V30 4756 H 445.5 -0.597358 1.80365 0
M  V30 4757 H 443.65 -2.98147 2.4908 0
M  V30 4758 H 445.322 -1.24742 4.44114 0
M  V30 4759 H 443.565 -1.10609 4.19462 0
M  V30 4760 H 444.236 -2.59212 4.87353 0
M  V30 4761 H 446.712 -2.91099 2.97322 0
M  V30 4762 H 445.588 -4.1448 3.59857 0
M  V30 4763 H 445.849 -4.00746 1.86696 0
M  V30 4764 N 444.908 -1.36708 -0.784132 0
M  V30 4765 C 446.324 -1.17237 -1.08294 0
M  V30 4766 C 446.524 -5.93947e-05 -2.015 0
M  V30 4767 O 445.58 0.663686 -2.43622 0
M  V30 4768 C 446.893 -2.48557 -1.69233 0
M  V30 4769 C 448.441 -2.54968 -1.8155 0
M  V30 4770 C 448.916 -3.86388 -2.45904 0
M  V30 4771 N 450.407 -3.87762 -2.53367 0
M  V30 4772 C 451.142 -4.86191 -3.03983 0
M  V30 4773 N 450.638 -5.95015 -3.54866 0
M  V30 4774 N 452.431 -4.73606 -3.02743 0
M  V30 4775 H 444.582 -2.11758 -0.16501 0
M  V30 4776 H 446.845 -0.93822 -0.135822 0
M  V30 4777 H 446.551 -3.34638 -1.08215 0
M  V30 4778 H 446.425 -2.64748 -2.68679 0
M  V30 4779 H 448.812 -1.69302 -2.41704 0
M  V30 4780 H 448.893 -2.42672 -0.80895 0
M  V30 4781 H 448.537 -4.72462 -1.86392 0
M  V30 4782 H 448.467 -3.95982 -3.4714 0
M  V30 4783 H 450.958 -3.09145 -2.17343 0
M  V30 4784 H 451.271 -6.66086 -3.91854 0
M  V30 4785 H 449.616 -5.98676 -3.53003 0
M  V30 4786 H 452.807 -3.87717 -2.62284 0
M  V30 4787 H 452.98 -5.50473 -3.41881 0
M  V30 4788 N 446.386 1.0089 -1.21074 0
M  V30 4789 C 447.296 2.13039 -0.982425 0
M  V30 4790 C 448.312 1.73881 0.0642161 0
M  V30 4791 O 449.488 2.01012 -0.12496 0
M  V30 4792 C 446.553 3.42377 -0.545803 0
M  V30 4793 C 445.614 3.95731 -1.6642 0
M  V30 4794 C 444.847 5.18896 -1.24832 0
M  V30 4795 O 445.07 5.70273 -0.120265 0
M  V30 4796 O 444.004 5.65597 -2.05873 0
M  V30 4797 H 447.83 2.35175 -1.92163 0
M  V30 4798 H 445.415 1.1142 -0.995285 0
M  V30 4799 H 447.297 4.20244 -0.311912 0
M  V30 4800 H 445.972 3.21639 0.364727 0
M  V30 4801 H 444.879 3.19108 -1.95246 0
M  V30 4802 H 446.212 4.20872 -2.55201 0
M  V30 4803 N 447.864 1.01787 1.20321 0
M  V30 4804 C 448.794 0.609625 2.25401 0
M  V30 4805 C 449.775 -0.375951 1.65893 0
M  V30 4806 O 450.96 -0.261101 1.92437 0
M  V30 4807 C 448.09 -0.0515995 3.47262 0
M  V30 4808 C 447.044 0.855095 4.19371 0
M  V30 4809 C 446.37 0.0595757 5.34667 0
M  V30 4810 C 447.67 2.16374 4.75373 0
M  V30 4811 H 449.364 1.48803 2.59804 0
M  V30 4812 H 446.91 0.716934 1.24884 0
M  V30 4813 H 448.863 -0.348764 4.19954 0
M  V30 4814 H 447.587 -0.964726 3.12027 0
M  V30 4815 H 446.246 1.13628 3.48546 0
M  V30 4816 H 445.894 -0.85524 4.95676 0
M  V30 4817 H 445.594 0.663406 5.83843 0
M  V30 4818 H 447.118 -0.231105 6.10162 0
M  V30 4819 H 448.532 1.92885 5.39878 0
M  V30 4820 H 446.929 2.71853 5.34991 0
M  V30 4821 H 447.999 2.82589 3.94045 0
M  V30 4822 N 449.342 -1.36122 0.79427 0
M  V30 4823 C 450.619 -1.93398 0.292685 0
M  V30 4824 C 450.999 -1.72567 -1.21589 0
M  V30 4825 O 450.347 -1.08745 -2.00965 0
M  V30 4826 C 450.557 -3.42099 0.690614 0
M  V30 4827 C 451.905 -4.19231 0.673105 0
M  V30 4828 O 452.929 -3.50559 0.631389 0
M  V30 4829 O 451.788 -5.41732 0.720362 0
M  V30 4830 H 448.882 -0.823712 0.0736693 0
M  V30 4831 H 451.428 -1.45273 0.87714 0
M  V30 4832 H 450.2 -3.50938 1.73085 0
M  V30 4833 H 449.823 -3.97519 0.0803036 0
M  V30 4834 N 450.82 -0.546701 -1.47814 0
M  V30 4835 C 451.768 0.220048 -2.31557 0
M  V30 4836 C 452.762 0.919472 -1.42275 0
M  V30 4837 O 453.968 0.841953 -1.59095 0
M  V30 4838 H 450.343 0.0898334 -0.746615 0
M  V30 4839 H 452.314 -0.505589 -2.94086 0
M  V30 4840 C 451.063 1.24353 -3.24702 0
M  V30 4841 H 450.386 0.714758 -3.93359 0
M  V30 4842 H 451.826 1.75112 -3.8615 0
M  V30 4843 C 450.285 2.28593 -2.47481 0
M  V30 4844 O 450.815 3.35334 -2.21165 0
M  V30 4845 N 449.021 2.02244 -2.08676 0
M  V30 4846 H 448.568 1.15455 -2.30278 0
M  V30 4847 H 448.526 2.72207 -1.57323 0
M  V30 4848 N 452.299 1.55045 -0.282633 0
M  V30 4849 C 453.229 2.2579 0.595066 0
M  V30 4850 C 454.21 1.25074 1.15284 0
M  V30 4851 O 455.395 1.5381 1.18559 0
M  V30 4852 C 452.525 2.98472 1.77572 0
M  V30 4853 C 451.479 4.0618 1.34914 0
M  V30 4854 C 450.805 4.66477 2.6135 0
M  V30 4855 C 452.105 5.1996 0.493821 0
M  V30 4856 H 453.799 2.994 0.00505653 0
M  V30 4857 H 451.345 1.44 0.000992001 0
M  V30 4858 H 453.298 3.46677 2.39568 0
M  V30 4859 H 452.022 2.2241 2.39168 0
M  V30 4860 H 450.681 3.58797 0.752338 0
M  V30 4861 H 450.329 3.87074 3.2122 0
M  V30 4862 H 450.029 5.39207 2.33516 0
M  V30 4863 H 451.553 5.17435 3.24181 0
M  V30 4864 H 452.967 5.64172 1.01898 0
M  V30 4865 H 451.364 5.99299 0.310047 0
M  V30 4866 H 452.434 4.82462 -0.485593 0
M  V30 4867 N 453.777 0.010035 1.57597 0
M  V30 4868 C 454.709 -1.00649 2.05918 0
M  V30 4869 C 455.722 -1.30077 0.978964 0
M  V30 4870 O 456.911 -1.26878 1.25556 0
M  V30 4871 C 454.011 -2.33876 2.45265 0
M  V30 4872 C 453.184 -2.23242 3.7614 0
M  V30 4873 C 452.243 -3.39242 4.02245 0
M  V30 4874 O 451.269 -3.1698 4.72771 0
M  V30 4875 N 452.471 -4.6242 3.50924 0
M  V30 4876 H 455.236 -0.594333 2.93748 0
M  V30 4877 H 452.797 -0.17714 1.60928 0
M  V30 4878 H 454.789 -3.1027 2.59836 0
M  V30 4879 H 453.359 -2.66799 1.62902 0
M  V30 4880 H 452.579 -1.31696 3.71551 0
M  V30 4881 H 453.867 -2.13321 4.61922 0
M  V30 4882 H 453.265 -4.83404 2.93832 0
M  V30 4883 H 451.822 -5.36046 3.70807 0
M  V30 4884 N 455.255 -1.55392 -0.262866 0
M  V30 4885 C 456.485 -1.80251 -1.00961 0
M  V30 4886 C 456.893 -0.58117 -1.80053 0
M  V30 4887 O 456.236 0.459427 -1.77862 0
M  V30 4888 C 456.298 -2.98207 -2.00781 0
M  V30 4889 C 455.962 -4.34856 -1.40533 0
M  V30 4890 C 456.959 -5.13459 -0.815853 0
M  V30 4891 C 454.644 -4.8153 -1.42948 0
M  V30 4892 C 456.638 -6.36875 -0.258562 0
M  V30 4893 C 454.325 -6.04899 -0.868334 0
M  V30 4894 C 455.323 -6.8241 -0.283884 0
M  V30 4895 O 455.011 -8.03451 0.268644 0
M  V30 4896 H 454.743 -0.604049 -0.303482 0
M  V30 4897 H 457.297 -2.03257 -0.295926 0
M  V30 4898 H 455.527 -2.70917 -2.75936 0
M  V30 4899 H 457.216 -3.10299 -2.61667 0
M  V30 4900 H 457.982 -4.78526 -0.789812 0
M  V30 4901 H 453.861 -4.21201 -1.87378 0
M  V30 4902 H 457.405 -6.97318 0.198257 0
M  V30 4903 H 453.302 -6.39312 -0.891649 0
M  V30 4904 H 454.07 -8.18346 0.158974 0
M  V30 4905 N 456.733 0.527833 -1.48498 0
M  V30 4906 C 458.149 0.856571 -1.34666 0
M  V30 4907 C 458.349 1.98271 -0.35931 0
M  V30 4908 O 457.405 2.51551 0.218703 0
M  V30 4909 C 458.718 1.22207 -2.74747 0
M  V30 4910 C 460.266 1.33183 -2.83251 0
M  V30 4911 C 460.741 1.73075 -4.24039 0
M  V30 4912 N 462.232 1.80174 -4.26722 0
M  V30 4913 C 462.967 2.1243 -5.32598 0
M  V30 4914 N 462.463 2.43096 -6.4875 0
M  V30 4915 N 464.256 2.13454 -5.19994 0
M  V30 4916 H 456.407 -0.215174 -2.11307 0
M  V30 4917 H 458.67 -0.0336281 -0.947403 0
M  V30 4918 H 458.376 0.468195 -3.4857 0
M  V30 4919 H 458.25 2.17173 -3.08409 0
M  V30 4920 H 460.637 2.07647 -2.09683 0
M  V30 4921 H 460.718 0.363333 -2.53206 0
M  V30 4922 H 460.362 0.991712 -4.98124 0
M  V30 4923 H 460.292 2.70979 -4.51529 0
M  V30 4924 H 462.783 1.58744 -3.42942 0
M  V30 4925 H 463.096 2.6682 -7.25277 0
M  V30 4926 H 461.441 2.40611 -6.52021 0
M  V30 4927 H 464.632 1.88956 -4.28268 0
M  V30 4928 H 464.805 2.38261 -6.02608 0
M  V30 4929 N 458.211 1.37122 0.776871 0
M  V30 4930 C 459.158 1.3247 1.88998 0
M  V30 4931 C 460.128 0.191143 1.64997 0
M  V30 4932 O 461.313 0.379683 1.86984 0
M  V30 4933 C 458.453 1.13241 3.25992 0
M  V30 4934 C 457.566 2.35782 3.61982 0
M  V30 4935 C 456.701 2.09465 4.88158 0
M  V30 4936 C 455.74 3.279 5.16864 0
M  V30 4937 N 454.877 3.01167 6.34226 0
M  V30 4938 H 459.717 2.27642 1.9231 0
M  V30 4939 H 457.254 1.13125 0.94027 0
M  V30 4940 H 459.212 1.00115 4.0501 0
M  V30 4941 H 457.842 0.217186 3.22069 0
M  V30 4942 H 456.894 2.59666 2.77989 0
M  V30 4943 H 458.206 3.24125 3.79137 0
M  V30 4944 H 457.36 1.93341 5.75069 0
M  V30 4945 H 456.099 1.18452 4.73097 0
M  V30 4946 H 455.104 3.44569 4.2843 0
M  V30 4947 H 456.329 4.19757 5.33836 0
M  V30 4948 H 454.275 2.12779 6.20533 0
M  V30 4949 H 454.192 3.83052 6.51772 0
M  V30 4950 H 455.46 2.88649 7.24087 0
M  V30 4951 N 459.689 -1.00246 1.21608 0
M  V30 4952 C 460.622 -2.08794 0.920892 0
M  V30 4953 C 461.6 -1.62059 -0.132552 0
M  V30 4954 O 462.784 -1.885 -0.0030366 0
M  V30 4955 C 459.911 -3.36525 0.383226 0
M  V30 4956 C 458.957 -4.02172 1.41987 0
M  V30 4957 S 459.79 -4.44256 2.98994 0
M  V30 4958 C 460.946 -5.7517 2.4684 0
M  V30 4959 H 461.179 -2.33511 1.8401 0
M  V30 4960 H 458.712 -1.13562 1.04609 0
M  V30 4961 H 460.67 -4.10423 0.0795871 0
M  V30 4962 H 459.331 -3.09854 -0.514711 0
M  V30 4963 H 458.524 -4.94114 0.993335 0
M  V30 4964 H 458.126 -3.34559 1.67171 0
M  V30 4965 H 460.418 -6.51042 1.87484 0
M  V30 4966 H 461.361 -6.22638 3.37235 0
M  V30 4967 H 461.769 -5.32112 1.88461 0
M  V30 4968 N 461.167 -1.02423 -1.1978 0
M  V30 4969 C 462.114 -0.601023 -2.22837 0
M  V30 4970 C 463.084 0.382801 -1.61629 0
M  V30 4971 O 464.269 0.280514 -1.88727 0
M  V30 4972 C 461.409 0.0467755 -3.45068 0
M  V30 4973 C 460.522 -0.98253 -4.20678 0
M  V30 4974 C 459.657 -0.304982 -5.30324 0
M  V30 4975 C 458.696 -1.32052 -5.97686 0
M  V30 4976 N 457.833 -0.669105 -6.98904 0
M  V30 4977 H 462.673 -1.48444 -2.58396 0
M  V30 4978 H 460.21 -0.742936 -1.2696 0
M  V30 4979 H 462.168 0.439556 -4.14878 0
M  V30 4980 H 460.798 0.893796 -3.10179 0
M  V30 4981 H 459.85 -1.49341 -3.49859 0
M  V30 4982 H 461.162 -1.75455 -4.66923 0
M  V30 4983 H 460.316 0.142893 -6.06532 0
M  V30 4984 H 459.055 0.499283 -4.85138 0
M  V30 4985 H 458.06 -1.7787 -5.20233 0
M  V30 4986 H 459.285 -2.1262 -6.44957 0
M  V30 4987 H 457.231 0.115152 -6.55899 0
M  V30 4988 H 457.148 -1.37908 -7.43315 0
M  V30 4989 H 458.416 -0.245076 -7.79115 0
M  V30 4990 N 462.645 1.35699 -0.801477 0
M  V30 4991 C 463.592 2.29876 -0.206294 0
M  V30 4992 C 464.562 1.52565 0.656752 0
M  V30 4993 O 465.747 1.81024 0.602906 0
M  V30 4994 C 462.887 3.39052 0.643272 0
M  V30 4995 C 462 4.31335 -0.239644 0
M  V30 4996 C 461.135 5.27599 0.61744 0
M  V30 4997 C 460.174 6.11521 -0.26619 0
M  V30 4998 N 459.311 6.99938 0.550571 0
M  V30 4999 H 464.151 2.80187 -1.01484 0
M  V30 5000 H 461.688 1.37902 -0.511997 0
M  V30 5001 H 463.646 4.0101 1.15094 0
M  V30 5002 H 462.276 2.9003 1.41713 0
M  V30 5003 H 461.328 3.70426 -0.865381 0
M  V30 5004 H 462.64 4.90243 -0.919985 0
M  V30 5005 H 461.794 5.94906 1.19045 0
M  V30 5006 H 460.533 4.69176 1.33137 0
M  V30 5007 H 459.538 5.43166 -0.851507 0
M  V30 5008 H 460.763 6.72022 -0.9779 0
M  V30 5009 H 458.709 6.44008 1.24856 0
M  V30 5010 H 458.626 7.55966 -0.071832 0
M  V30 5011 H 459.894 7.71599 1.10702 0
M  V30 5012 N 464.123 0.554532 1.47522 0
M  V30 5013 C 465.372 0.0273458 2.01681 0
M  V30 5014 C 465.685 -1.32962 1.43459 0
M  V30 5015 O 466.891 -1.94657 1.89265 0
M  V30 5016 C 465.347 -0.00159057 3.599 0
M  V30 5017 C 464.955 1.35197 4.27113 0
M  V30 5018 C 466.699 -0.476311 4.21819 0
M  V30 5019 C 464.606 1.28229 5.77331 0
M  V30 5020 H 463.536 0.00645269 0.753972 0
M  V30 5021 H 466.187 0.701985 1.69542 0
M  V30 5022 H 464.569 -0.741821 3.8899 0
M  V30 5023 H 465.743 2.1097 4.09668 0
M  V30 5024 H 464.058 1.76441 3.77171 0
M  V30 5025 H 466.655 -0.5468 5.31897 0
M  V30 5026 H 466.998 -1.4877 3.8881 0
M  V30 5027 H 467.531 0.20898 3.97251 0
M  V30 5028 H 464.27 2.26959 6.14955 0
M  V30 5029 H 463.79 0.566314 5.97121 0
M  V30 5030 H 465.469 0.983226 6.39485 0
M  V30 5031 N 465.601 -1.54893 0.290851 0
M  V30 5032 C 466.531 -2.26103 -0.583084 0
M  V30 5033 C 467.512 -1.25684 -1.14619 0
M  V30 5034 O 468.697 -1.54436 -1.17741 0
M  V30 5035 C 465.827 -2.99409 -1.75987 0
M  V30 5036 C 464.781 -4.0689 -1.32758 0
M  V30 5037 C 464.107 -4.67856 -2.58872 0
M  V30 5038 C 465.407 -5.20215 -0.46624 0
M  V30 5039 H 467.101 -2.99398 0.0108214 0
M  V30 5040 H 464.647 -1.43998 0.00664468 0
M  V30 5041 H 466.6 -3.47943 -2.37727 0
M  V30 5042 H 465.324 -2.23675 -2.37985 0
M  V30 5043 H 463.983 -3.59191 -0.733299 0
M  V30 5044 H 463.631 -3.88772 -3.19163 0
M  V30 5045 H 463.331 -5.40438 -2.30653 0
M  V30 5046 H 464.855 -5.19147 -3.21433 0
M  V30 5047 H 466.269 -5.64704 -0.989047 0
M  V30 5048 H 464.666 -5.99455 -0.27826 0
M  V30 5049 H 465.736 -4.82198 0.511173 0
M  V30 5050 N 467.08 -0.0183926 -1.57589 0
M  V30 5051 C 468.327 0.662562 -1.91354 0
M  V30 5052 C 468.655 1.72747 -0.893788 0
M  V30 5053 O 467.91 1.9545 0.0988509 0
M  V30 5054 C 468.209 1.32676 -3.31861 0
M  V30 5055 C 467.875 0.393267 -4.49182 0
M  V30 5056 C 466.537 0.136302 -4.81007 0
M  V30 5057 C 468.889 -0.248366 -5.20608 0
M  V30 5058 C 466.217 -0.770282 -5.81621 0
M  V30 5059 C 468.569 -1.14294 -6.22189 0
M  V30 5060 C 467.233 -1.4089 -6.52462 0
M  V30 5061 H 466.503 0.242448 -0.700214 0
M  V30 5062 H 469.15 -0.0778629 -1.91342 0
M  V30 5063 H 467.455 2.14168 -3.28084 0
M  V30 5064 H 469.152 1.86001 -3.55253 0
M  V30 5065 H 465.742 0.603723 -4.24327 0
M  V30 5066 H 469.926 -0.062883 -4.9626 0
M  V30 5067 H 465.182 -0.984154 -6.03427 0
M  V30 5068 H 469.356 -1.64637 -6.76659 0
M  V30 5069 H 466.983 -2.11306 -7.30242 0
M  V30 5070 N 468.558 1.5553 0.254621 0
M  V30 5071 C 469.49 1.86104 1.33783 0
M  V30 5072 C 470.503 0.746752 1.44663 0
M  V30 5073 O 471.692 1.0248 1.46151 0
M  V30 5074 C 468.792 2.02532 2.71724 0
M  V30 5075 C 467.965 3.33335 2.83208 0
M  V30 5076 C 467.024 3.396 4.01943 0
M  V30 5077 O 466.05 4.12862 3.91834 0
M  V30 5078 N 467.252 2.68332 5.1476 0
M  V30 5079 H 470.017 2.79605 1.07893 0
M  V30 5080 H 467.578 1.55672 0.444732 0
M  V30 5081 H 469.57 2.04074 3.4948 0
M  V30 5082 H 468.14 1.15811 2.90356 0
M  V30 5083 H 467.36 3.44176 1.92189 0
M  V30 5084 H 468.648 4.19565 2.87824 0
M  V30 5085 H 468.046 2.08528 5.25864 0
M  V30 5086 H 466.603 2.75575 5.90679 0
M  V30 5087 N 470.036 -0.519951 1.48776 0
M  V30 5088 C 470.946 -1.65025 1.66745 0
M  V30 5089 C 471.962 -1.6508 0.549954 0
M  V30 5090 O 473.138 -1.83848 0.822295 0
M  V30 5091 C 470.203 -3.0146 1.71238 0
M  V30 5092 C 469.264 -3.12182 2.94688 0
M  V30 5093 C 468.497 -4.42109 2.98958 0
M  V30 5094 O 468.72 -5.29799 2.1135 0
M  V30 5095 O 467.654 -4.57406 3.91233 0
M  V30 5096 H 471.48 -1.52801 2.62461 0
M  V30 5097 H 469.065 -0.694157 1.32294 0
M  V30 5098 H 470.947 -3.82584 1.76657 0
M  V30 5099 H 469.622 -3.13988 0.786975 0
M  V30 5100 H 468.529 -2.30316 2.94797 0
M  V30 5101 H 469.862 -3.04574 3.86646 0
M  V30 5102 N 471.514 -1.37532 -0.769588 0
M  V30 5103 C 472.477 -1.33292 -1.86456 0
M  V30 5104 C 473.477 -0.236537 -1.59051 0
M  V30 5105 O 474.667 -0.492511 -1.67093 0
M  V30 5106 C 471.799 -1.07118 -3.23633 0
M  V30 5107 H 472.992 -2.30692 -1.91628 0
M  V30 5108 H 470.545 -1.22593 -0.969572 0
M  V30 5109 H 471.28 -0.102578 -3.24138 0
M  V30 5110 H 471.065 -1.86479 -3.44917 0
M  V30 5111 H 472.555 -1.06806 -4.03711 0
M  V30 5112 N 472.992 0.995999 -1.22138 0
M  V30 5113 C 474.403 1.54961 -1.04135 0
M  V30 5114 C 474.754 1.92159 0.396147 0
M  V30 5115 O 473.879 1.74435 1.28069 0
M  V30 5116 C 474.474 2.81581 -1.88408 0
M  V30 5117 C 473.033 3.33396 -1.74712 0
M  V30 5118 C 472.18 2.06509 -1.85066 0
M  V30 5119 H 475.131 0.817436 -1.36028 0
M  V30 5120 H 475.152 3.53822 -1.39966 0
M  V30 5121 H 474.664 2.54476 -2.93025 0
M  V30 5122 H 472.765 3.65416 -0.728159 0
M  V30 5123 H 472.878 4.04208 -2.57202 0
M  V30 5124 H 471.242 2.19925 -1.28472 0
M  V30 5125 H 472.025 1.81804 -2.91208 0
M  V30 5126 N 474.47 1.03057 1.19235 0
M  V30 5127 C 475.418 0.606391 2.24557 0
M  V30 5128 C 476.412 -0.361826 1.65491 0
M  V30 5129 O 477.618 -0.23022 1.78522 0
M  V30 5130 H 473.993 0.177838 0.730669 0
M  V30 5131 H 475.964 1.50529 2.5765 0
M  V30 5132 C 474.713 -0.0252127 3.47691 0
M  V30 5133 H 474.036 0.710838 3.9343 0
M  V30 5134 H 475.476 -0.284931 4.23042 0
M  V30 5135 C 473.935 -1.27229 3.11953 0
M  V30 5136 O 474.465 -2.36416 3.24762 0
M  V30 5137 N 472.671 -1.16169 2.6637 0
M  V30 5138 H 472.218 -0.273189 2.56147 0
M  V30 5139 H 472.176 -1.99703 2.42829 0
M  V30 5140 N 475.948 -1.35272 0.808662 0
M  V30 5141 C 477.196 -1.98316 0.389233 0
M  V30 5142 C 477.517 -1.64465 -1.04767 0
M  V30 5143 O 476.787 -0.928175 -1.72516 0
M  V30 5144 H 475.367 -0.733585 0.140935 0
M  V30 5145 H 478.029 -1.6515 1.03496 0
M  V30 5146 H 477.125 -3.08123 0.496631 0
M  V30 5147 N 477.426 -0.562348 -1.47226 0
M  V30 5148 C 478.837 -0.130325 -1.86245 0
M  V30 5149 C 479.188 1.30128 -1.46838 0
M  V30 5150 O 478.313 1.97974 -0.873805 0
M  V30 5151 C 478.908 -0.229738 -3.3802 0
M  V30 5152 C 477.467 0.14728 -3.76112 0
M  V30 5153 C 476.614 -0.574971 -2.71274 0
M  V30 5154 H 479.565 -0.771773 -1.3867 0
M  V30 5155 H 479.586 0.550316 -3.76499 0
M  V30 5156 H 479.098 -1.27178 -3.66671 0
M  V30 5157 H 477.199 1.19023 -3.53078 0
M  V30 5158 H 477.312 -0.214858 -4.78618 0
M  V30 5159 H 475.676 -0.0174756 -2.54694 0
M  V30 5160 H 476.459 -1.61827 -3.02766 0
M  V30 5161 N 478.904 1.54736 -0.299062 0
M  V30 5162 C 480.152 1.99706 0.31017 0
M  V30 5163 C 480.473 1.18896 1.54559 0
M  V30 5164 O 479.743 0.284445 1.93824 0
M  V30 5165 H 478.323 0.737686 0.117596 0
M  V30 5166 H 480.985 1.9054 -0.409943 0
M  V30 5167 H 480.081 3.06596 0.58355 0
M  V30 5168 N 480.382 0.0267497 1.57577 0
M  V30 5169 C 481.345 -0.940916 2.08996 0
M  V30 5170 C 482.345 -1.25561 1.00455 0
M  V30 5171 O 483.535 -1.19634 1.26623 0
M  V30 5172 C 480.667 -2.25814 2.55384 0
M  V30 5173 H 481.86 -0.495628 2.95776 0
M  V30 5174 H 479.413 -0.221241 1.54726 0
M  V30 5175 H 480.148 -2.74976 1.71926 0
M  V30 5176 H 479.933 -2.04285 3.34679 0
M  V30 5177 H 481.423 -2.95178 2.95398 0
M  V30 5178 N 481.861 -1.55662 -0.24637 0
M  V30 5179 C 482.771 -1.93495 -1.32653 0
M  V30 5180 C 483.787 -0.835462 -1.5263 0
M  V30 5181 O 484.963 -1.1369 -1.66242 0
M  V30 5182 C 482.028 -2.22242 -2.66101 0
M  V30 5183 C 481.089 -3.45625 -2.54641 0
M  V30 5184 C 480.322 -3.72991 -3.81724 0
M  V30 5185 O 480.545 -3.02421 -4.8363 0
M  V30 5186 O 479.479 -4.66515 -3.80325 0
M  V30 5187 H 483.305 -2.85498 -1.03559 0
M  V30 5188 H 480.89 -1.42551 -0.44717 0
M  V30 5189 H 482.772 -2.42037 -3.44958 0
M  V30 5190 H 481.447 -1.33417 -2.94926 0
M  V30 5191 H 480.354 -3.31136 -1.74067 0
M  V30 5192 H 481.687 -4.34754 -2.3076 0
M  V30 5193 N 483.339 0.512053 -1.4905 0
M  V30 5194 C 484.302 1.59704 -1.64399 0
M  V30 5195 C 485.302 1.52285 -0.516317 0
M  V30 5196 O 486.492 1.55635 -0.782527 0
M  V30 5197 C 483.624 2.9935 -1.63102 0
M  V30 5198 H 484.817 1.47428 -2.61161 0
M  V30 5199 H 482.37 0.735469 -1.37915 0
M  V30 5200 H 483.105 3.17116 -0.678836 0
M  V30 5201 H 482.89 3.06144 -2.44986 0
M  V30 5202 H 484.38 3.782 -1.77072 0
M  V30 5203 N 484.817 1.37938 0.762283 0
M  V30 5204 C 486.228 1.30094 1.33912 0
M  V30 5205 C 486.579 -0.0472026 1.96143 0
M  V30 5206 O 485.704 -0.94917 1.94473 0
M  V30 5207 C 486.299 2.35592 2.43478 0
M  V30 5208 C 484.858 2.31353 2.96905 0
M  V30 5209 C 484.005 2.18919 1.70205 0
M  V30 5210 H 486.956 1.48423 0.561816 0
M  V30 5211 H 486.977 2.00806 3.23199 0
M  V30 5212 H 486.489 3.33701 1.98155 0
M  V30 5213 H 484.59 1.36799 3.46579 0
M  V30 5214 H 484.703 3.25147 3.51875 0
M  V30 5215 H 483.067 1.65624 1.93496 0
M  V30 5216 H 483.85 3.18956 1.26973 0
M  V30 5217 N 486.295 -0.989507 1.22664 0
M  V30 5218 C 487.205 -2.11449 1.01619 0
M  V30 5219 C 488.221 -1.73962 -0.036545 0
M  V30 5220 O 489.397 -2.00788 0.156924 0
M  V30 5221 C 486.462 -3.41465 0.600204 0
M  V30 5222 C 485.523 -3.93033 1.72695 0
M  V30 5223 C 484.756 -5.16844 1.33071 0
M  V30 5224 O 484.979 -5.7001 0.210975 0
M  V30 5225 O 483.913 -5.6225 2.14845 0
M  V30 5226 H 487.739 -2.32088 1.9588 0
M  V30 5227 H 485.324 -1.09823 1.01289 0
M  V30 5228 H 487.206 -4.19695 0.37873 0
M  V30 5229 H 485.881 -3.22178 -0.313511 0
M  V30 5230 H 484.788 -3.15961 2.00298 0
M  V30 5231 H 486.121 -4.16758 2.61865 0
M  V30 5232 N 487.773 -1.03688 -1.18687 0
M  V30 5233 C 488.683 -0.634908 -2.25845 0
M  V30 5234 C 489.699 0.337065 -1.70704 0
M  V30 5235 O 490.875 0.192943 -2.00474 0
M  V30 5236 C 487.94 -0.000180054 -3.467 0
M  V30 5237 C 487.001 -1.02067 -4.1699 0
M  V30 5238 C 486.234 -0.41614 -5.32075 0
M  V30 5239 O 486.457 0.778712 -5.65059 0
M  V30 5240 O 485.391 -1.14296 -5.90948 0
M  V30 5241 H 489.217 -1.52757 -2.62486 0
M  V30 5242 H 486.802 -0.807533 -1.25695 0
M  V30 5243 H 488.684 0.353342 -4.19916 0
M  V30 5244 H 487.359 0.866367 -3.11891 0
M  V30 5245 H 486.266 -1.42592 -3.45859 0
M  V30 5246 H 487.599 -1.85786 -4.5579 0
M  V30 5247 N 489.251 1.34841 -0.815825 0
M  V30 5248 C 490.161 2.33425 -0.234462 0
M  V30 5249 C 491.177 1.62295 0.627413 0
M  V30 5250 O 492.353 1.94109 0.536987 0
M  V30 5251 C 489.418 3.41471 0.599849 0
M  V30 5252 C 488.479 4.28362 -0.283596 0
M  V30 5253 C 487.712 5.31248 0.51099 0
M  V30 5254 O 487.935 5.43056 1.7449 0
M  V30 5255 O 486.869 6.01812 -0.10297 0
M  V30 5256 H 490.695 2.84962 -1.05024 0
M  V30 5257 H 488.28 1.37774 -0.577809 0
M  V30 5258 H 490.162 4.07464 1.07475 0
M  V30 5259 H 488.837 2.9219 1.39308 0
M  V30 5260 H 487.744 3.65318 -0.805836 0
M  V30 5261 H 489.077 4.81066 -1.041 0
M  V30 5262 N 490.729 0.570148 1.46925 0
M  V30 5263 C 491.639 -0.173061 2.33961 0
M  V30 5264 C 492.655 -0.898825 1.48987 0
M  V30 5265 O 493.831 -0.864825 1.81887 0
M  V30 5266 C 490.896 -1.18177 3.25937 0
M  V30 5267 C 489.957 -0.462041 4.26806 0
M  V30 5268 C 489.19 -1.4227 5.14388 0
M  V30 5269 O 489.413 -2.65842 5.04662 0
M  V30 5270 O 488.347 -0.940127 5.94513 0
M  V30 5271 H 492.173 0.541216 2.98839 0
M  V30 5272 H 489.758 0.330647 1.45695 0
M  V30 5273 H 491.64 -1.76372 3.82715 0
M  V30 5274 H 490.315 -1.87774 2.63671 0
M  V30 5275 H 489.222 0.161429 3.73752 0
M  V30 5276 H 490.555 0.192719 4.91823 0
M  V30 5277 N 492.207 -1.54576 0.307264 0
M  V30 5278 C 493.117 -2.27435 -0.57536 0
M  V30 5279 C 494.133 -1.31183 -1.14311 0
M  V30 5280 O 495.309 -1.64175 -1.16656 0
M  V30 5281 C 492.374 -3.00566 -1.72803 0
M  V30 5282 C 491.435 -4.12369 -1.19373 0
M  V30 5283 C 490.668 -4.82003 -2.29147 0
M  V30 5284 O 490.891 -4.51038 -3.49171 0
M  V30 5285 O 489.825 -5.69271 -1.95485 0
M  V30 5286 H 493.651 -3.03696 0.0158558 0
M  V30 5287 H 491.236 -1.49219 0.0735064 0
M  V30 5288 H 493.118 -3.46416 -2.39946 0
M  V30 5289 H 491.793 -2.27195 -2.30574 0
M  V30 5290 H 490.7 -3.70905 -0.487851 0
M  V30 5291 H 492.033 -4.87736 -0.661376 0
M  V30 5292 N 493.685 -0.035106 -1.57561 0
M  V30 5293 C 494.648 0.929819 -2.09492 0
M  V30 5294 C 495.648 1.25026 -1.01119 0
M  V30 5295 O 496.838 1.18961 -1.27255 0
M  V30 5296 C 493.97 2.24457 -2.56577 0
M  V30 5297 H 495.163 0.479935 -2.96035 0
M  V30 5298 H 492.716 0.213033 -1.54841 0
M  V30 5299 H 493.451 2.74061 -1.73382 0
M  V30 5300 H 493.236 2.02508 -3.35757 0
M  V30 5301 H 494.726 2.93607 -2.96959 0
M  V30 5302 N 495.163 1.55791 0.238111 0
M  V30 5303 C 496.073 1.94196 1.31625 0
M  V30 5304 C 497.089 0.843545 1.52185 0
M  V30 5305 O 498.265 1.1457 1.65637 0
M  V30 5306 C 495.33 2.2365 2.64918 0
M  V30 5307 C 494.391 3.46971 2.52804 0
M  V30 5308 C 493.624 3.7501 3.79741 0
M  V30 5309 O 493.847 3.04982 4.82019 0
M  V30 5310 O 492.781 4.68525 3.77846 0
M  V30 5311 H 496.607 2.86044 1.02043 0
M  V30 5312 H 494.192 1.42786 0.439603 0
M  V30 5313 H 496.074 2.43863 3.4367 0
M  V30 5314 H 494.749 1.34979 2.94215 0
M  V30 5315 H 493.656 3.32055 1.72309 0
M  V30 5316 H 494.989 4.35971 2.28451 0
M  V30 5317 N 496.642 -0.504142 1.49319 0
M  V30 5318 C 498.053 -1.08572 1.51885 0
M  V30 5319 C 498.404 -1.93842 0.303255 0
M  V30 5320 O 497.529 -2.0828 -0.58724 0
M  V30 5321 C 498.124 -1.97574 2.75227 0
M  V30 5322 C 496.683 -2.509 2.80581 0
M  V30 5323 C 495.83 -1.28447 2.45757 0
M  V30 5324 H 498.781 -0.288194 1.56061 0
M  V30 5325 H 498.802 -2.82219 2.55211 0
M  V30 5326 H 498.314 -1.35486 3.63683 0
M  V30 5327 H 496.415 -3.16636 1.96398 0
M  V30 5328 H 496.528 -2.88268 3.82673 0
M  V30 5329 H 494.892 -1.60868 1.97468 0
M  V30 5330 H 495.675 -0.68072 3.36483 0
M  V30 5331 N 498.12 -1.38341 -0.754957 0
M  V30 5332 C 499.35 -1.37504 -1.54195 0
M  V30 5333 C 499.758 0.0373787 -1.89163 0
M  V30 5334 O 499.101 1.01402 -1.53178 0
M  V30 5335 C 499.163 -2.16488 -2.87008 0
M  V30 5336 C 498.827 -3.65311 -2.74585 0
M  V30 5337 C 499.824 -4.58834 -2.44474 0
M  V30 5338 C 497.509 -4.08649 -2.9208 0
M  V30 5339 C 499.503 -5.93675 -2.32011 0
M  V30 5340 C 497.19 -5.43571 -2.79237 0
M  V30 5341 C 498.188 -6.35898 -2.49245 0
M  V30 5342 O 497.876 -7.68338 -2.36458 0
M  V30 5343 H 497.608 -0.472159 -0.483779 0
M  V30 5344 H 500.162 -1.82515 -0.94221 0
M  V30 5345 H 498.392 -1.66194 -3.49166 0
M  V30 5346 H 500.081 -2.08076 -3.4851 0
M  V30 5347 H 500.847 -4.26657 -2.30627 0
M  V30 5348 H 496.726 -3.37134 -3.14422 0
M  V30 5349 H 500.27 -6.65706 -2.08522 0
M  V30 5350 H 496.167 -5.75345 -2.92657 0
M  V30 5351 H 496.935 -7.78845 -2.5168 0
M  V30 5352 N 499.598 0.982988 -1.23187 0
M  V30 5353 C 500.531 2.07302 -0.953993 0
M  V30 5354 C 501.509 1.62249 0.106753 0
M  V30 5355 O 502.693 1.88481 -0.0269525 0
M  V30 5356 C 499.82 3.35873 -0.436716 0
M  V30 5357 C 498.866 3.99862 -1.48367 0
M  V30 5358 S 499.699 4.39443 -3.06023 0
M  V30 5359 C 500.855 5.7117 -2.55959 0
M  V30 5360 H 501.088 2.30554 -1.87702 0
M  V30 5361 H 498.621 1.11883 -1.06403 0
M  V30 5362 H 500.579 4.10244 -0.144872 0
M  V30 5363 H 499.24 3.10634 0.465351 0
M  V30 5364 H 498.433 4.92471 -1.07182 0
M  V30 5365 H 498.035 3.31857 -1.72473 0
M  V30 5366 H 500.327 6.47977 -1.97818 0
M  V30 5367 H 501.27 6.17194 -3.47098 0
M  V30 5368 H 501.678 5.29046 -1.96902 0
M  V30 5369 N 501.076 1.04316 1.18135 0
M  V30 5370 C 502.026 0.606731 2.19779 0
M  V30 5371 C 503.01 -0.352144 1.56999 0
M  V30 5372 O 504.202 -0.170795 1.76174 0
M  V30 5373 C 501.331 -0.0262443 3.4329 0
M  V30 5374 C 500.417 0.955928 4.13186 0
M  V30 5375 N 500.808 2.12395 4.59045 0
M  V30 5376 C 499.106 0.782473 4.39082 0
M  V30 5377 C 499.807 2.74458 5.12882 0
M  V30 5378 N 498.783 2.02316 5.04548 0
M  V30 5379 H 502.585 1.49679 2.5293 0
M  V30 5380 H 500.099 0.912088 1.34368 0
M  V30 5381 H 502.096 -0.356617 4.15372 0
M  V30 5382 H 500.756 -0.911811 3.11635 0
M  V30 5383 H 501.767 2.50272 4.53414 0
M  V30 5384 H 498.444 -0.0527906 4.17467 0
M  V30 5385 H 499.834 3.73459 5.5855 0
M  V30 5386 N 502.554 -1.34406 0.822964 0
M  V30 5387 C 503.97 -1.51275 0.508727 0
M  V30 5388 C 504.17 -1.76776 -0.967083 0
M  V30 5389 O 503.226 -1.81871 -1.75155 0
M  V30 5390 C 504.539 -2.67765 1.36829 0
M  V30 5391 C 506.087 -2.81647 1.36542 0
M  V30 5392 C 506.562 -4.01181 2.20947 0
M  V30 5393 N 508.053 -4.08388 2.18571 0
M  V30 5394 C 508.788 -5.00036 2.80627 0
M  V30 5395 N 508.284 -5.96906 3.51674 0
M  V30 5396 N 510.077 -4.92908 2.70181 0
M  V30 5397 H 502.228 -1.16113 1.77852 0
M  V30 5398 H 504.491 -0.56947 0.757897 0
M  V30 5399 H 504.197 -2.55551 2.41633 0
M  V30 5400 H 504.071 -3.62779 1.03303 0
M  V30 5401 H 506.458 -2.93303 0.325163 0
M  V30 5402 H 506.539 -1.87443 1.74066 0
M  V30 5403 H 506.183 -3.90286 3.25022 0
M  V30 5404 H 506.113 -4.94599 1.80774 0
M  V30 5405 H 508.604 -3.39051 1.66891 0
M  V30 5406 H 508.917 -6.63468 3.96271 0
M  V30 5407 H 507.262 -5.9703 3.5578 0
M  V30 5408 H 510.453 -4.1619 2.14251 0
M  V30 5409 H 510.626 -5.64137 3.18831 0
M  V30 5410 N 504.032 -0.577932 -1.46621 0
M  V30 5411 C 504.995 0.147805 -2.28723 0
M  V30 5412 C 505.995 0.823325 -1.38123 0
M  V30 5413 O 507.185 0.676011 -1.60548 0
M  V30 5414 C 504.317 1.21853 -3.18378 0
M  V30 5415 H 505.51 -0.573654 -2.94362 0
M  V30 5416 H 503.063 -0.335703 -1.52652 0
M  V30 5417 H 503.798 1.97173 -2.57475 0
M  V30 5418 H 503.583 0.738714 -3.85078 0
M  V30 5419 H 505.073 1.72768 -3.80186 0
M  V30 5420 N 505.51 1.54411 -0.315457 0
M  V30 5421 C 506.758 2.00023 0.288971 0
M  V30 5422 C 507.079 1.20529 1.5329 0
M  V30 5423 O 506.349 0.304986 1.93511 0
M  V30 5424 H 504.929 0.738891 0.109766 0
M  V30 5425 H 507.591 1.90094 -0.430129 0
M  V30 5426 H 506.687 3.07198 0.550999 0
M  V30 5427 N 506.988 0.0434614 1.5754 0
M  V30 5428 C 508.216 -0.641835 1.96693 0
M  V30 5429 C 508.631 -1.64832 0.920652 0
M  V30 5430 O 507.988 -1.82247 -0.095993 0
M  V30 5431 C 508.039 -1.33557 3.35924 0
M  V30 5432 O 507.76 -0.369403 4.3654 0
M  V30 5433 C 509.261 -2.11135 3.89791 0
M  V30 5434 H 506.481 -0.176013 0.647503 0
M  V30 5435 H 509.025 0.107478 2.04217 0
M  V30 5436 H 507.18 -2.03617 3.29574 0
M  V30 5437 H 507.594 -0.863674 5.1734 0
M  V30 5438 H 509.068 -2.55107 4.89514 0
M  V30 5439 H 509.545 -2.95634 3.24803 0
M  V30 5440 H 510.151 -1.46002 3.99454 0
M  V30 5441 N 508.466 -1.55915 -0.229846 0
M  V30 5442 C 509.396 -1.94754 -1.28815 0
M  V30 5443 C 510.377 -0.814657 -1.49323 0
M  V30 5444 O 511.562 -1.07631 -1.61645 0
M  V30 5445 C 508.692 -2.25705 -2.63959 0
M  V30 5446 C 507.646 -3.41406 -2.5812 0
M  V30 5447 C 506.972 -3.57941 -3.97218 0
M  V30 5448 C 508.272 -4.76616 -2.13623 0
M  V30 5449 H 509.966 -2.83404 -0.965547 0
M  V30 5450 H 507.512 -1.36353 -0.463028 0
M  V30 5451 H 509.465 -2.51467 -3.38146 0
M  V30 5452 H 508.189 -1.339 -2.9789 0
M  V30 5453 H 506.848 -3.1568 -1.86391 0
M  V30 5454 H 506.496 -2.63526 -4.28443 0
M  V30 5455 H 506.196 -4.35757 -3.94195 0
M  V30 5456 H 507.72 -3.86042 -4.73079 0
M  V30 5457 H 509.134 -5.01637 -2.77549 0
M  V30 5458 H 507.531 -5.57655 -2.21677 0
M  V30 5459 H 508.601 -4.7253 -1.08829 0
M  V30 5460 N 509.944 0.496216 -1.49584 0
M  V30 5461 C 511.172 1.27394 -1.63029 0
M  V30 5462 C 511.587 1.86344 -0.303569 0
M  V30 5463 O 510.944 1.68057 0.711547 0
M  V30 5464 C 510.995 2.40077 -2.70269 0
M  V30 5465 O 510.716 1.83549 -3.97796 0
M  V30 5466 C 512.217 3.31372 -2.94462 0
M  V30 5467 H 509.437 0.386211 -0.54871 0
M  V30 5468 H 511.981 0.595163 -1.95648 0
M  V30 5469 H 510.136 3.03775 -2.40415 0
M  V30 5470 H 510.55 2.57561 -4.56905 0
M  V30 5471 H 512.024 4.06707 -3.73221 0
M  V30 5472 H 512.501 3.88654 -2.0456 0
M  V30 5473 H 513.107 2.73435 -3.25751 0
M  V30 5474 N 511.423 1.38739 0.74761 0
M  V30 5475 C 512.648 1.38702 1.54197 0
M  V30 5476 C 513.073 -0.019664 1.8809 0
M  V30 5477 O 512.431 -1.00333 1.51006 0
M  V30 5478 C 512.479 2.25492 2.814 0
M  V30 5479 O 511.583 1.67613 3.76802 0
M  V30 5480 H 510.924 0.472863 0.466151 0
M  V30 5481 H 513.454 1.82577 0.923413 0
M  V30 5482 H 513.464 2.39561 3.30264 0
M  V30 5483 H 512.139 3.27727 2.56062 0
M  V30 5484 H 510.716 1.62718 3.35526 0
M  V30 5485 N 512.901 -0.976442 1.23707 0
M  V30 5486 C 513.831 -2.08749 1.04624 0
M  V30 5487 C 514.812 -1.70057 -0.0380956 0
M  V30 5488 O 515.997 -1.93782 0.127308 0
M  V30 5489 C 513.127 -3.41335 0.640902 0
M  V30 5490 C 512.081 -3.93947 1.67302 0
M  V30 5491 C 511.407 -5.22774 1.12301 0
M  V30 5492 C 512.707 -4.22769 3.06697 0
M  V30 5493 H 514.401 -2.24972 1.97555 0
M  V30 5494 H 511.947 -1.08108 0.951247 0
M  V30 5495 H 513.9 -4.18489 0.494434 0
M  V30 5496 H 512.624 -3.24988 -0.324099 0
M  V30 5497 H 511.283 -3.18941 1.80755 0
M  V30 5498 H 510.931 -5.0278 0.148877 0
M  V30 5499 H 510.631 -5.58942 1.81267 0
M  V30 5500 H 512.155 -6.02546 0.988479 0
M  V30 5501 H 513.569 -4.90659 2.96524 0
M  V30 5502 H 511.966 -4.70147 3.72937 0
M  V30 5503 H 513.036 -3.29885 3.55392 0
M  V30 5504 N 514.379 -1.04941 -1.1758 0
M  V30 5505 C 515.289 -0.658826 -2.25159 0
M  V30 5506 C 516.305 0.318941 -1.71052 0
M  V30 5507 O 517.481 0.171669 -2.00667 0
M  V30 5508 C 514.546 -0.0369522 -3.4668 0
M  V30 5509 C 513.607 -1.06484 -4.15884 0
M  V30 5510 C 512.84 -0.472551 -5.31604 0
M  V30 5511 O 513.063 0.718736 -5.65854 0
M  V30 5512 O 511.997 -1.20557 -5.89703 0
M  V30 5513 H 515.823 -1.55533 -2.60851 0
M  V30 5514 H 513.408 -0.820819 -1.24832 0
M  V30 5515 H 515.29 0.308784 -4.20267 0
M  V30 5516 H 513.965 0.833238 -3.12792 0
M  V30 5517 H 512.872 -1.46253 -3.44327 0
M  V30 5518 H 514.205 -1.9061 -4.53794 0
M  V30 5519 N 515.857 1.33968 -0.830081 0
M  V30 5520 C 517.082 2.02813 -0.433796 0
M  V30 5521 C 517.507 1.62076 0.954614 0
M  V30 5522 O 516.865 0.808955 1.62252 0
M  V30 5523 C 516.913 3.56348 -0.552115 0
M  V30 5524 O 516.017 4.10202 0.425191 0
M  V30 5525 H 515.358 0.639817 -0.177567 0
M  V30 5526 H 517.888 1.7106 -1.12248 0
M  V30 5527 H 517.898 4.05722 -0.430513 0
M  V30 5528 H 516.573 3.85344 -1.56471 0
M  V30 5529 H 515.15 3.71979 0.261878 0
M  V30 5530 N 517.335 0.585699 1.46312 0
M  V30 5531 C 518.56 0.0762461 2.0726 0
M  V30 5532 C 518.985 -1.22071 1.43109 0
M  V30 5533 O 518.343 -1.73804 0.515942 0
M  V30 5534 C 518.391 -0.0729404 3.60526 0
M  V30 5535 O 517.495 -1.1287 3.96654 0
M  V30 5536 H 516.836 0.0641558 0.660893 0
M  V30 5537 H 519.366 0.809492 1.87905 0
M  V30 5538 H 519.376 -0.278158 4.07051 0
M  V30 5539 H 518.051 0.874188 4.06609 0
M  V30 5540 H 516.628 -0.901703 3.61834 0
M  V30 5541 N 518.813 -1.54241 0.323641 0
M  V30 5542 C 519.763 -2.21071 -0.557833 0
M  V30 5543 C 520.747 -1.19126 -1.08157 0
M  V30 5544 O 521.939 -1.44755 -1.01857 0
M  V30 5545 C 519.068 -2.97208 -1.71821 0
M  V30 5546 C 518.154 -4.06491 -1.20936 0
M  V30 5547 N 518.545 -5.04052 -0.420202 0
M  V30 5548 C 516.843 -4.20443 -1.48808 0
M  V30 5549 C 517.544 -5.81516 -0.146413 0
M  V30 5550 N 516.52 -5.38641 -0.732562 0
M  V30 5551 H 520.322 -2.93853 0.0523921 0
M  V30 5552 H 517.836 -1.61883 0.129502 0
M  V30 5553 H 519.833 -3.4357 -2.36146 0
M  V30 5554 H 518.493 -2.25947 -2.33191 0
M  V30 5555 H 519.504 -5.17862 -0.0630401 0
M  V30 5556 H 516.181 -3.60396 -2.10762 0
M  V30 5557 H 517.571 -6.70119 0.488895 0
M  V30 5558 N 520.291 -0.0518155 -1.57515 0
M  V30 5559 C 521.516 0.634896 -1.97443 0
M  V30 5560 C 521.941 1.63546 -0.929207 0
M  V30 5561 O 521.299 1.80981 0.107484 0
M  V30 5562 C 521.347 1.29765 -3.36442 0
M  V30 5563 O 520.451 2.41333 -3.34413 0
M  V30 5564 H 519.792 0.164994 -0.643174 0
M  V30 5565 H 522.322 -0.120407 -2.04245 0
M  V30 5566 H 522.332 1.64918 -3.73184 0
M  V30 5567 H 521.007 0.564361 -4.12053 0
M  V30 5568 H 519.584 2.08122 -3.09418 0
M  V30 5569 N 521.769 1.56035 0.221574 0
M  V30 5570 C 523.015 1.79312 0.947372 0
M  V30 5571 C 523.348 0.621453 1.83988 0
M  V30 5572 O 522.623 -0.379287 1.90766 0
M  V30 5573 C 522.906 3.1267 1.78633 0
M  V30 5574 C 522.759 4.40284 0.920312 0
M  V30 5575 C 524.078 3.4247 2.7641 0
M  V30 5576 H 521.197 0.652328 0.342982 0
M  V30 5577 H 523.839 1.88765 0.216244 0
M  V30 5578 H 521.989 3.04741 2.40967 0
M  V30 5579 H 523.661 4.60232 0.313718 0
M  V30 5580 H 521.904 4.33212 0.225734 0
M  V30 5581 H 522.575 5.30033 1.54171 0
M  V30 5582 H 525.051 3.50526 2.24211 0
M  V30 5583 H 523.927 4.3695 3.32213 0
M  V30 5584 H 524.188 2.64635 3.54148 0
M  V30 5585 N 523.247 -0.488276 1.49845 0
M  V30 5586 C 524.658 -1.06955 1.53028 0
M  V30 5587 C 525.009 -1.9351 0.323797 0
M  V30 5588 O 524.134 -2.08891 -0.565116 0
M  V30 5589 C 524.729 -1.94643 2.77307 0
M  V30 5590 C 523.288 -2.4791 2.83227 0
M  V30 5591 C 522.435 -1.25833 2.47106 0
M  V30 5592 H 525.386 -0.271626 1.56358 0
M  V30 5593 H 525.407 -2.79496 2.5819 0
M  V30 5594 H 524.919 -1.31621 3.65099 0
M  V30 5595 H 523.02 -3.14535 1.99745 0
M  V30 5596 H 523.133 -2.84193 3.85709 0
M  V30 5597 H 521.497 -1.58764 1.99163 0
M  V30 5598 H 522.28 -0.644993 3.37186 0
M  V30 5599 N 524.725 -1.39134 -0.740242 0
M  V30 5600 C 525.95 -1.39518 -1.53459 0
M  V30 5601 C 526.375 0.00968883 -1.88098 0
M  V30 5602 O 525.733 0.995312 -1.51536 0
M  V30 5603 C 525.781 -2.26981 -2.802 0
M  V30 5604 O 524.885 -1.69609 -3.75908 0
M  V30 5605 H 524.226 -0.475328 -0.463637 0
M  V30 5606 H 526.756 -1.83064 -0.913717 0
M  V30 5607 H 526.766 -2.41309 -3.28989 0
M  V30 5608 H 525.441 -3.29081 -2.5432 0
M  V30 5609 H 524.018 -1.64495 -3.34658 0
M  V30 5610 N 526.204 0.969867 -1.24223 0
M  V30 5611 C 527.137 2.06279 -0.975926 0
M  V30 5612 C 528.115 1.62353 0.0895385 0
M  V30 5613 O 529.299 1.88442 -0.0469418 0
M  V30 5614 C 526.426 3.35391 -0.472315 0
M  V30 5615 C 525.472 3.98266 -1.526 0
M  V30 5616 S 526.305 4.36172 -3.10667 0
M  V30 5617 C 527.461 5.68423 -2.62003 0
M  V30 5618 H 527.694 2.28551 -1.90137 0
M  V30 5619 H 525.227 1.10748 -1.07584 0
M  V30 5620 H 527.185 4.10068 -0.188376 0
M  V30 5621 H 525.846 3.1111 0.432378 0
M  V30 5622 H 525.039 4.91307 -1.12399 0
M  V30 5623 H 524.641 3.30009 -1.75983 0
M  V30 5624 H 526.933 6.45842 -2.0468 0
M  V30 5625 H 527.876 6.13478 -3.53625 0
M  V30 5626 H 528.284 5.26928 -2.02502 0
M  V30 5627 N 527.682 1.05563 1.17022 0
M  V30 5628 C 528.907 0.788437 1.91829 0
M  V30 5629 C 529.332 -0.650356 1.76499 0
M  V30 5630 O 528.69 -1.45229 1.08527 0
M  V30 5631 C 528.738 1.1786 3.40795 0
M  V30 5632 O 527.842 0.312965 4.11211 0
M  V30 5633 H 527.183 0.288794 0.597908 0
M  V30 5634 H 529.713 1.40948 1.48307 0
M  V30 5635 H 529.723 1.14697 3.91546 0
M  V30 5636 H 528.398 2.22666 3.51273 0
M  V30 5637 H 526.975 0.405515 3.70689 0
M  V30 5638 N 529.16 -1.33526 0.837174 0
M  V30 5639 C 530.409 -1.97098 0.428387 0
M  V30 5640 C 530.722 -1.67062 -1.01734 0
M  V30 5641 O 531.928 -2.24235 -1.53072 0
M  V30 5642 C 530.384 -3.52725 0.715075 0
M  V30 5643 C 529.992 -3.9164 2.17537 0
M  V30 5644 C 531.736 -4.22857 0.373154 0
M  V30 5645 C 529.643 -5.40237 2.40619 0
M  V30 5646 H 528.573 -0.737589 0.156455 0
M  V30 5647 H 531.224 -1.52169 1.02552 0
M  V30 5648 H 529.606 -3.95971 0.0475904 0
M  V30 5649 H 530.78 -3.59456 2.88319 0
M  V30 5650 H 529.095 -3.34485 2.4801 0
M  V30 5651 H 531.692 -5.32133 0.523264 0
M  V30 5652 H 532.035 -4.10647 -0.683708 0
M  V30 5653 H 532.568 -3.85135 0.995801 0
M  V30 5654 H 529.307 -5.57449 3.44864 0
M  V30 5655 H 528.827 -5.73887 1.74396 0
M  V30 5656 H 530.506 -6.07102 2.23688 0
M  V30 5657 N 530.638 -0.59345 -1.46 0
M  V30 5658 C 531.863 -0.0872365 -2.07216 0
M  V30 5659 C 532.288 1.2131 -1.43755 0
M  V30 5660 O 531.646 1.73528 -0.525152 0
M  V30 5661 C 531.694 0.0538197 -3.6056 0
M  V30 5662 O 530.798 1.10765 -3.97247 0
M  V30 5663 H 530.139 -0.0676598 -0.660544 0
M  V30 5664 H 532.669 -0.819445 -1.87473 0
M  V30 5665 H 532.679 0.256567 -4.07193 0
M  V30 5666 H 531.354 -0.895739 -4.0614 0
M  V30 5667 H 529.931 0.882501 -3.62307 0
M  V30 5668 N 532.116 1.54067 -0.331816 0
M  V30 5669 C 533.079 2.23275 0.517768 0
M  V30 5670 C 534.079 1.22897 1.03697 0
M  V30 5671 O 535.269 1.47419 0.928084 0
M  V30 5672 C 532.401 2.94326 1.72004 0
M  V30 5673 H 533.594 2.99773 -0.0873507 0
M  V30 5674 H 531.147 1.56079 -0.0830042 0
M  V30 5675 H 531.882 2.21986 2.36417 0
M  V30 5676 H 531.667 3.67941 1.35507 0
M  V30 5677 H 533.157 3.47031 2.32291 0
M  V30 5678 N 533.594 0.0601682 1.57485 0
M  V30 5679 C 534.819 -0.624416 1.97777 0
M  V30 5680 C 535.244 -1.63051 0.937867 0
M  V30 5681 O 534.602 -1.81036 -0.0978845 0
M  V30 5682 C 534.65 -1.27979 3.37126 0
M  V30 5683 O 533.754 -2.39556 3.35688 0
M  V30 5684 H 533.095 -0.161581 0.64404 0
M  V30 5685 H 535.625 0.131237 2.04179 0
M  V30 5686 H 535.635 -1.62937 3.74053 0
M  V30 5687 H 534.31 -0.542501 4.12347 0
M  V30 5688 H 532.887 -2.06478 3.10517 0
M  V30 5689 N 535.072 -1.5615 -0.213296 0
M  V30 5690 C 536.297 -1.83986 -0.957282 0
M  V30 5691 C 536.722 -0.641526 -1.76822 0
M  V30 5692 O 536.08 0.409722 -1.7661 0
M  V30 5693 C 536.128 -3.09889 -1.84393 0
M  V30 5694 O 535.232 -2.89163 -2.94038 0
M  V30 5695 H 534.573 -0.606357 -0.270605 0
M  V30 5696 H 537.103 -2.03369 -0.224111 0
M  V30 5697 H 537.113 -3.40209 -2.25215 0
M  V30 5698 H 535.788 -3.96735 -1.24795 0
M  V30 5699 H 534.365 -2.70097 -2.57103 0
M  V30 5700 N 536.55 0.480323 -1.50102 0
M  V30 5701 C 537.482 1.59669 -1.64433 0
M  V30 5702 C 538.495 1.54063 -0.52615 0
M  V30 5703 O 539.684 1.59619 -0.798992 0
M  V30 5704 C 536.784 2.98527 -1.6042 0
M  V30 5705 C 535.957 3.291 -2.88117 0
M  V30 5706 C 535.016 4.47468 -2.76873 0
M  V30 5707 O 534.042 4.4823 -3.50825 0
M  V30 5708 N 535.244 5.48593 -1.89806 0
M  V30 5709 H 538.009 1.47795 -2.60723 0
M  V30 5710 H 535.57 0.66858 -1.4745 0
M  V30 5711 H 537.562 3.75666 -1.50523 0
M  V30 5712 H 536.132 3.04218 -0.719036 0
M  V30 5713 H 535.352 2.40662 -3.12211 0
M  V30 5714 H 536.64 3.46334 -3.72734 0
M  V30 5715 H 536.038 5.50791 -1.2902 0
M  V30 5716 H 534.595 6.24752 -1.85819 0
M  V30 5717 N 538.028 1.39524 0.732853 0
M  V30 5718 C 539.253 1.40329 1.52717 0
M  V30 5719 C 539.678 0.000286574 1.881 0
M  V30 5720 O 539.036 -0.987262 1.52062 0
M  V30 5721 C 539.084 2.28464 2.78992 0
M  V30 5722 O 538.188 1.716 3.75003 0
M  V30 5723 H 537.529 0.47778 0.461109 0
M  V30 5724 H 540.059 1.83546 0.903996 0
M  V30 5725 H 540.069 2.43051 3.27705 0
M  V30 5726 H 538.744 3.30425 2.52572 0
M  V30 5727 H 537.321 1.66267 3.33781 0
M  V30 5728 N 539.506 -0.963266 1.24736 0
M  V30 5729 C 540.731 -1.74699 1.11781 0
M  V30 5730 C 541.156 -1.85267 -0.325258 0
M  V30 5731 O 540.514 -1.32681 -1.23553 0
M  V30 5732 C 540.562 -3.14322 1.76731 0
M  V30 5733 O 539.666 -3.99043 1.04109 0
M  V30 5734 H 539.007 -0.53684 0.390767 0
M  V30 5735 H 541.537 -1.20801 1.65131 0
M  V30 5736 H 541.547 -3.64824 1.82668 0
M  V30 5737 H 540.222 -3.05946 2.81726 0
M  V30 5738 H 538.799 -3.5752 1.05991 0
M  V30 5739 N 540.985 -1.06182 -1.16461 0
M  V30 5740 C 542.21 -0.798599 -1.91408 0
M  V30 5741 C 542.635 0.640987 -1.76842 0
M  V30 5742 O 541.993 1.44652 -1.09296 0
M  V30 5743 C 542.041 -1.19665 -3.40165 0
M  V30 5744 O 541.145 -0.334768 -4.11039 0
M  V30 5745 H 540.486 -0.291961 -0.596368 0
M  V30 5746 H 543.016 -1.41732 -1.47557 0
M  V30 5747 H 543.026 -1.16772 -3.90933 0
M  V30 5748 H 541.701 -2.24526 -3.50087 0
M  V30 5749 H 540.278 -0.425168 -3.70468 0
M  V30 5750 N 542.463 1.3308 -0.844243 0
M  V30 5751 C 543.709 1.97898 -0.443206 0
M  V30 5752 C 544.042 1.66699 0.99625 0
M  V30 5753 O 543.317 0.949704 1.69738 0
M  V30 5754 C 543.6 3.53801 -0.670606 0
M  V30 5755 C 543.453 3.94667 -2.15772 0
M  V30 5756 C 544.772 4.39936 -0.120226 0
M  V30 5757 H 541.891 0.718861 -0.162504 0
M  V30 5758 H 544.533 1.57633 -1.06075 0
M  V30 5759 H 542.683 3.88229 -0.14496 0
M  V30 5760 H 544.355 3.70469 -2.74865 0
M  V30 5761 H 542.598 3.44203 -2.6402 0
M  V30 5762 H 543.269 5.03275 -2.26757 0
M  V30 5763 H 545.745 4.12183 -0.5696 0
M  V30 5764 H 544.621 5.4803 -0.308984 0
M  V30 5765 H 544.882 4.31184 0.976347 0
M  V30 5766 N 543.941 0.601185 1.45683 0
M  V30 5767 C 544.889 -0.133955 2.32214 0
M  V30 5768 C 545.883 -0.866034 1.45589 0
M  V30 5769 O 547.089 -0.782326 1.6211 0
M  V30 5770 H 543.464 -0.0620613 0.749435 0
M  V30 5771 H 545.435 0.614389 2.92007 0
M  V30 5772 C 544.184 -1.12216 3.29094 0
M  V30 5773 H 543.507 -0.568273 3.95741 0
M  V30 5774 H 544.947 -1.60659 3.92383 0
M  V30 5775 C 543.406 -2.19251 2.55794 0
M  V30 5776 O 543.936 -3.26894 2.33459 0
M  V30 5777 N 542.142 -1.9436 2.16039 0
M  V30 5778 H 541.689 -1.06829 2.34404 0
M  V30 5779 H 541.647 -2.66181 1.67318 0
M  V30 5780 N 545.419 -1.53889 0.339982 0
M  V30 5781 C 546.644 -2.05741 -0.261798 0
M  V30 5782 C 547.069 -1.21354 -1.43718 0
M  V30 5783 O 546.427 -0.22645 -1.7988 0
M  V30 5784 C 546.475 -3.54542 -0.658228 0
M  V30 5785 O 545.579 -3.7302 -1.75869 0
M  V30 5786 H 544.92 -0.662529 -0.0441672 0
M  V30 5787 H 547.45 -1.98568 0.493161 0
M  V30 5788 H 547.46 -3.9711 -0.936368 0
M  V30 5789 H 546.135 -4.15412 0.201358 0
M  V30 5790 H 544.712 -3.42355 -1.47809 0
M  V30 5791 N 546.897 -0.0685191 -1.57451 0
M  V30 5792 C 547.827 0.89747 -2.15564 0
M  V30 5793 C 548.808 1.31266 -1.08181 0
M  V30 5794 O 549.993 1.38429 -1.36202 0
M  V30 5795 C 547.123 2.16623 -2.71463 0
M  V30 5796 C 546.077 1.89054 -3.83982 0
M  V30 5797 C 545.403 3.22532 -4.26471 0
M  V30 5798 C 546.703 1.1984 -5.08366 0
M  V30 5799 H 548.397 0.413373 -2.96533 0
M  V30 5800 H 545.943 0.197391 -1.42641 0
M  V30 5801 H 547.896 2.84614 -3.10761 0
M  V30 5802 H 546.62 2.67269 -1.8771 0
M  V30 5803 H 545.279 1.23469 -3.45183 0
M  V30 5804 H 544.927 3.71013 -3.39644 0
M  V30 5805 H 544.627 3.04879 -5.02317 0
M  V30 5806 H 546.151 3.91727 -4.68383 0
M  V30 5807 H 547.565 1.77896 -5.45001 0
M  V30 5808 H 545.962 1.12456 -5.89469 0
M  V30 5809 H 547.032 0.176996 -4.84577 0
M  V30 5810 N 548.375 1.56261 0.205012 0
M  V30 5811 C 549.338 1.92908 1.23771 0
M  V30 5812 C 550.338 0.809208 1.38955 0
M  V30 5813 O 551.528 1.07676 1.36936 0
M  V30 5814 C 548.66 2.19442 2.60879 0
M  V30 5815 H 549.853 2.85287 0.924728 0
M  V30 5816 H 547.406 1.49798 0.446125 0
M  V30 5817 H 548.141 1.29668 2.97248 0
M  V30 5818 H 547.926 3.0104 2.51232 0
M  V30 5819 H 549.416 2.48833 3.35368 0
M  V30 5820 N 549.853 -0.472356 1.50355 0
M  V30 5821 C 551.13 -1.23356 1.51798 0
M  V30 5822 C 551.51 -2.09469 0.26193 0
M  V30 5823 O 550.858 -2.15677 -0.754691 0
M  V30 5824 C 551.068 -2.06568 2.81302 0
M  V30 5825 C 552.416 -2.648 3.31913 0
M  V30 5826 O 553.44 -2.16812 2.82614 0
M  V30 5827 O 552.299 -3.52231 4.17846 0
M  V30 5828 H 549.393 -0.559707 0.608816 0
M  V30 5829 H 551.939 -0.48428 1.62643 0
M  V30 5830 H 550.711 -1.43103 3.64194 0
M  V30 5831 H 550.334 -2.88633 2.73454 0
M  V30 5832 N 551.331 -1.39911 -0.725443 0
M  V30 5833 C 552.294 -1.39156 -1.82121 0
M  V30 5834 C 553.294 -0.287018 -1.58218 0
M  V30 5835 O 554.484 -0.545421 -1.65441 0
M  V30 5836 C 551.616 -1.1736 -3.20062 0
M  V30 5837 H 552.809 -2.36672 -1.84191 0
M  V30 5838 H 550.362 -1.25615 -0.930079 0
M  V30 5839 H 551.097 -0.205648 -3.23647 0
M  V30 5840 H 550.882 -1.97358 -3.3881 0
M  V30 5841 H 552.372 -1.19596 -4.00108 0
M  V30 5842 N 552.809 0.956637 -1.25245 0
M  V30 5843 C 554.034 1.74104 -1.12706 0
M  V30 5844 C 554.459 1.85436 0.315429 0
M  V30 5845 O 553.817 1.33334 1.22848 0
M  V30 5846 C 553.865 3.1338 -1.78396 0
M  V30 5847 O 552.969 3.98485 -1.06224 0
M  V30 5848 H 552.31 0.53476 -0.393609 0
M  V30 5849 H 554.84 1.19924 -1.65769 0
M  V30 5850 H 554.85 3.6385 -1.846 0
M  V30 5851 H 553.525 3.04448 -2.83345 0
M  V30 5852 H 552.102 3.56952 -1.07886 0
M  V30 5853 N 554.287 1.06798 1.15896 0
M  V30 5854 C 555.564 0.701057 1.82605 0
M  V30 5855 C 555.944 -0.817066 1.94646 0
M  V30 5856 O 555.292 -1.72933 1.49353 0
M  V30 5857 C 555.502 1.40895 3.19296 0
M  V30 5858 C 556.85 1.55744 3.95005 0
M  V30 5859 O 557.874 1.36927 3.28831 0
M  V30 5860 O 556.733 1.86658 5.13635 0
M  V30 5861 H 553.827 0.248791 0.78869 0
M  V30 5862 H 556.373 1.16857 1.23055 0
M  V30 5863 H 555.145 2.4439 3.05596 0
M  V30 5864 H 554.768 0.931847 3.86526 0
M  V30 5865 N 555.766 -1.3263 0.851289 0
M  V30 5866 C 556.714 -2.30882 0.282202 0
M  V30 5867 C 557.708 -1.58697 -0.592589 0
M  V30 5868 O 558.914 -1.73461 -0.480768 0
M  V30 5869 H 555.289 -0.748492 0.0725487 0
M  V30 5870 H 557.26 -2.76374 1.12516 0
M  V30 5871 C 556.009 -3.43828 -0.517449 0
M  V30 5872 H 555.332 -3.99532 0.146392 0
M  V30 5873 H 556.772 -4.1474 -0.88128 0
M  V30 5874 C 555.231 -2.90786 -1.70133 0
M  V30 5875 O 555.761 -2.88 -2.80034 0
M  V30 5876 N 553.967 -2.4723 -1.52728 0
M  V30 5877 H 553.514 -2.49695 -0.633257 0
M  V30 5878 H 553.472 -2.12094 -2.32085 0
M  V30 5879 N 557.244 -0.608902 -1.45362 0
M  V30 5880 C 558.154 0.110969 -2.34337 0
M  V30 5881 C 559.17 0.859007 -1.51318 0
M  V30 5882 O 560.346 0.816296 -1.84116 0
M  V30 5883 C 557.411 1.09494 -3.28956 0
M  V30 5884 C 556.472 0.348718 -4.27881 0
M  V30 5885 C 555.705 1.28582 -5.17979 0
M  V30 5886 O 555.928 2.52369 -5.11533 0
M  V30 5887 O 554.862 0.782172 -5.96796 0
M  V30 5888 H 558.688 -0.620258 -2.97299 0
M  V30 5889 H 556.273 -0.36916 -1.44767 0
M  V30 5890 H 558.155 1.66163 -3.87257 0
M  V30 5891 H 556.83 1.80717 -2.68557 0
M  V30 5892 H 555.737 -0.260465 -3.73192 0
M  V30 5893 H 557.07 -0.323049 -4.91139 0
M  V30 5894 N 558.722 1.53707 -0.348139 0
M  V30 5895 C 559.632 2.28881 0.514857 0
M  V30 5896 C 560.648 1.34168 1.10793 0
M  V30 5897 O 561.824 1.6721 1.12262 0
M  V30 5898 C 558.889 3.05042 1.64774 0
M  V30 5899 C 557.95 4.15389 1.08398 0
M  V30 5900 C 557.183 4.87909 2.16287 0
M  V30 5901 O 557.406 4.60137 3.3709 0
M  V30 5902 O 556.34 5.74254 1.80323 0
M  V30 5903 H 560.166 3.03547 -0.0963699 0
M  V30 5904 H 557.751 1.48972 -0.113043 0
M  V30 5905 H 559.633 3.52656 2.30677 0
M  V30 5906 H 558.308 2.33228 2.24469 0
M  V30 5907 H 557.215 3.72068 0.389341 0
M  V30 5908 H 558.548 4.89318 0.531829 0
M  V30 5909 N 560.2 0.0768682 1.57412 0
M  V30 5910 C 561.11 -0.903207 2.16516 0
M  V30 5911 C 562.126 -1.32341 1.12968 0
M  V30 5912 O 563.302 -1.39507 1.45258 0
M  V30 5913 C 560.367 -2.1508 2.71922 0
M  V30 5914 C 559.428 -1.78653 3.90361 0
M  V30 5915 C 558.661 -2.97465 4.43114 0
M  V30 5916 O 558.884 -4.11638 3.94854 0
M  V30 5917 O 557.818 -2.76987 5.3438 0
M  V30 5918 H 561.644 -0.430427 3.00634 0
M  V30 5919 H 559.229 -0.146485 1.4868 0
M  V30 5920 H 561.111 -2.8823 3.07411 0
M  V30 5921 H 559.786 -2.61446 1.9086 0
M  V30 5922 H 558.693 -1.0274 3.59716 0
M  V30 5923 H 560.026 -1.37066 4.7273 0
M  V30 5924 N 561.678 -1.56367 -0.196722 0
M  V30 5925 C 562.588 -1.97617 -1.2643 0
M  V30 5926 C 563.604 -0.883598 -1.49895 0
M  V30 5927 O 564.78 -1.18921 -1.62541 0
M  V30 5928 C 561.845 -2.30595 -2.58895 0
M  V30 5929 C 560.906 -3.53551 -2.43516 0
M  V30 5930 C 560.139 -3.84946 -3.69665 0
M  V30 5931 O 560.362 -3.17655 -4.73763 0
M  V30 5932 O 559.296 -4.78379 -3.65291 0
M  V30 5933 H 563.122 -2.88648 -0.944233 0
M  V30 5934 H 560.707 -1.43901 -0.401592 0
M  V30 5935 H 562.589 -2.52889 -3.37083 0
M  V30 5936 H 561.264 -1.42732 -2.90533 0
M  V30 5937 H 560.171 -3.36507 -1.63445 0
M  V30 5938 H 561.504 -4.41875 -2.16812 0
M  V30 5939 N 563.156 0.464375 -1.50603 0
M  V30 5940 C 564.066 1.58723 -1.72754 0
M  V30 5941 C 565.082 1.62925 -0.610844 0
M  V30 5942 O 566.258 1.8067 -0.889963 0
M  V30 5943 C 563.323 2.94897 -1.82309 0
M  V30 5944 C 562.384 3.0103 -3.06071 0
M  V30 5945 C 561.617 4.30708 -3.1516 0
M  V30 5946 O 561.84 5.2159 -2.30868 0
M  V30 5947 O 560.774 4.42571 -4.0794 0
M  V30 5948 H 564.6 1.42954 -2.67951 0
M  V30 5949 H 562.185 0.644579 -1.3478 0
M  V30 5950 H 564.067 3.75764 -1.90735 0
M  V30 5951 H 562.742 3.10851 -0.902967 0
M  V30 5952 H 561.649 2.19217 -3.03142 0
M  V30 5953 H 562.982 2.90014 -3.97684 0
M  V30 5954 N 564.634 1.40294 0.718013 0
M  V30 5955 C 565.544 1.42678 1.86226 0
M  V30 5956 C 566.56 0.319655 1.71039 0
M  V30 5957 O 567.736 0.563852 1.93346 0
M  V30 5958 C 564.801 1.2852 3.21999 0
M  V30 5959 C 563.862 2.49354 3.49458 0
M  V30 5960 C 563.095 2.35863 4.78753 0
M  V30 5961 O 563.318 1.37114 5.53675 0
M  V30 5962 O 562.252 3.25189 5.06494 0
M  V30 5963 H 566.078 2.39167 1.87171 0
M  V30 5964 H 563.663 1.2159 0.868112 0
M  V30 5965 H 565.545 1.22824 4.03103 0
M  V30 5966 H 564.22 0.351359 3.21787 0
M  V30 5967 H 563.127 2.60628 2.68373 0
M  V30 5968 H 564.46 3.41491 3.54464 0
M  V30 5969 N 566.112 -0.949982 1.2575 0
M  V30 5970 C 567.022 -2.08109 1.08295 0
M  V30 5971 C 568.038 -1.7399 0.0188181 0
M  V30 5972 O 569.214 -2.00187 0.220724 0
M  V30 5973 C 566.279 -3.39383 0.708534 0
M  V30 5974 C 565.34 -3.8734 1.85111 0
M  V30 5975 C 564.573 -5.12349 1.49447 0
M  V30 5976 O 564.796 -5.6905 0.392212 0
M  V30 5977 O 563.73 -5.5513 2.32624 0
M  V30 5978 H 567.556 -2.25738 2.03165 0
M  V30 5979 H 565.141 -1.06545 1.04731 0
M  V30 5980 H 567.023 -4.18277 0.512061 0
M  V30 5981 H 565.698 -3.23013 -0.210854 0
M  V30 5982 H 564.605 -3.09429 2.10248 0
M  V30 5983 H 565.938 -4.08216 2.74991 0
M  V30 5984 N 567.59 -1.07411 -1.15328 0
M  V30 5985 C 568.5 -0.706438 -2.23711 0
M  V30 5986 C 569.516 0.282586 -1.7169 0
M  V30 5987 O 570.692 0.129066 -2.00986 0
M  V30 5988 C 567.757 -0.11048 -3.46524 0
M  V30 5989 C 566.818 -1.15282 -4.13532 0
M  V30 5990 C 566.051 -0.585205 -5.30482 0
M  V30 5991 O 566.274 0.598549 -5.67251 0
M  V30 5992 O 565.208 -1.33039 -5.87013 0
M  V30 5993 H 569.034 -1.61031 -2.57493 0
M  V30 5994 H 566.619 -0.847113 -1.23062 0
M  V30 5995 H 568.501 0.21957 -4.20828 0
M  V30 5996 H 567.176 0.766703 -3.14489 0
M  V30 5997 H 566.083 -1.53523 -3.41147 0
M  V30 5998 H 567.416 -2.00192 -4.49649 0
M  V30 5999 N 569.068 1.32177 -0.85831 0
M  V30 6000 C 569.978 2.32561 -0.308606 0
M  V30 6001 C 570.994 1.64209 0.575462 0
M  V30 6002 O 572.17 1.95719 0.474961 0
M  V30 6003 C 569.235 3.43207 0.490909 0
M  V30 6004 C 568.296 4.27243 -0.419733 0
M  V30 6005 C 567.529 5.32605 0.341719 0
M  V30 6006 O 567.752 5.48332 1.57125 0
M  V30 6007 O 566.686 6.0118 -0.294379 0
M  V30 6008 H 570.512 2.81477 -1.14037 0
M  V30 6009 H 568.097 1.35866 -0.621349 0
M  V30 6010 H 569.979 4.10677 0.944574 0
M  V30 6011 H 568.654 2.96474 1.29941 0
M  V30 6012 H 567.561 3.62569 -0.921652 0
M  V30 6013 H 568.894 4.7751 -1.19352 0
M  V30 6014 N 570.547 0.616602 1.45037 0
M  V30 6015 C 571.457 -0.0985401 2.34393 0
M  V30 6016 C 572.473 -0.850971 1.51771 0
M  V30 6017 O 573.649 -0.806521 1.84546 0
M  V30 6018 C 570.714 -1.07748 3.29532 0
M  V30 6019 C 569.775 -0.326022 4.2806 0
M  V30 6020 C 569.008 -1.25833 5.18654 0
M  V30 6021 O 569.231 -2.49652 5.12864 0
M  V30 6022 O 568.165 -0.750512 5.97203 0
M  V30 6023 H 571.991 0.636016 2.96966 0
M  V30 6024 H 569.576 0.376832 1.44569 0
M  V30 6025 H 571.458 -1.64107 3.88133 0
M  V30 6026 H 570.133 -1.79291 2.69512 0
M  V30 6027 H 569.04 0.280253 3.73049 0
M  V30 6028 H 570.373 0.349091 4.9096 0
M  V30 6029 N 572.025 -1.5352 0.356285 0
M  V30 6030 C 572.935 -2.29151 -0.502712 0
M  V30 6031 C 573.951 -1.34753 -1.1008 0
M  V30 6032 O 575.127 -1.67803 -1.11374 0
M  V30 6033 C 572.192 -3.05911 -1.63154 0
M  V30 6034 C 571.253 -4.15958 -1.06194 0
M  V30 6035 C 570.486 -4.8905 -2.13696 0
M  V30 6036 O 570.709 -4.61919 -3.34645 0
M  V30 6037 O 569.643 -5.75202 -1.77275 0
M  V30 6038 H 573.469 -3.03492 0.112466 0
M  V30 6039 H 571.054 -1.4891 0.120942 0
M  V30 6040 H 572.936 -3.53874 -2.28804 0
M  V30 6041 H 571.611 -2.34415 -2.23229 0
M  V30 6042 H 570.518 -3.7227 -0.369603 0
M  V30 6043 H 571.851 -4.89593 -0.505872 0
M  V30 6044 N 573.503 -0.0852151 -1.57369 0
M  V30 6045 C 574.413 0.891712 -2.16992 0
M  V30 6046 C 575.429 1.3174 -1.13669 0
M  V30 6047 O 576.605 1.38735 -1.45995 0
M  V30 6048 C 573.67 2.13635 -2.73059 0
M  V30 6049 C 572.731 1.7658 -3.91303 0
M  V30 6050 C 571.964 2.95111 -4.44686 0
M  V30 6051 O 572.187 4.09539 -3.97032 0
M  V30 6052 O 571.121 2.74149 -5.35841 0
M  V30 6053 H 574.947 0.414477 -3.00858 0
M  V30 6054 H 572.532 0.138598 -1.48756 0
M  V30 6055 H 574.414 2.86595 -3.08935 0
M  V30 6056 H 573.089 2.6043 -1.92244 0
M  V30 6057 H 571.996 1.00831 -3.60255 0
M  V30 6058 H 573.329 1.34557 -4.7345 0
M  V30 6059 N 574.981 1.5647 0.188427 0
M  V30 6060 C 575.891 1.98285 1.2538 0
M  V30 6061 C 576.907 0.891535 1.49424 0
M  V30 6062 O 578.083 1.19782 1.61908 0
M  V30 6063 C 575.148 2.31965 2.57669 0
M  V30 6064 C 574.209 3.54838 2.41638 0
M  V30 6065 C 573.442 3.86901 3.67618 0
M  V30 6066 O 573.665 3.20163 4.72072 0
M  V30 6067 O 572.599 4.80309 3.62749 0
M  V30 6068 H 576.425 2.89145 0.928912 0
M  V30 6069 H 574.01 1.44112 0.393955 0
M  V30 6070 H 575.892 2.54673 3.35737 0
M  V30 6071 H 574.567 1.44271 2.89771 0
M  V30 6072 H 573.474 3.37369 1.61658 0
M  V30 6073 H 574.807 4.43019 2.14465 0
M  V30 6074 N 576.459 -0.456382 1.50847 0
M  V30 6075 C 577.369 -1.57805 1.73594 0
M  V30 6076 C 578.385 -1.62599 0.619476 0
M  V30 6077 O 579.561 -1.80195 0.899532 0
M  V30 6078 C 576.626 -2.93926 1.8387 0
M  V30 6079 C 575.687 -2.99402 3.07663 0
M  V30 6080 C 574.92 -4.29031 3.1744 0
M  V30 6081 O 575.143 -5.20358 2.33631 0
M  V30 6082 O 574.077 -4.40401 4.10281 0
M  V30 6083 H 577.903 -1.41531 2.68705 0
M  V30 6084 H 575.488 -0.637422 1.3512 0
M  V30 6085 H 577.37 -3.74747 1.92725 0
M  V30 6086 H 576.045 -3.10368 0.91944 0
M  V30 6087 H 574.952 -2.17606 3.043 0
M  V30 6088 H 576.285 -2.87901 3.99216 0
M  V30 6089 N 577.937 -1.40673 -0.710563 0
M  V30 6090 C 578.847 -1.43663 -1.85467 0
M  V30 6091 C 579.863 -0.328721 -1.70867 0
M  V30 6092 O 581.039 -0.574098 -1.93044 0
M  V30 6093 C 578.104 -1.30226 -3.21313 0
M  V30 6094 C 577.165 -2.51204 -3.48131 0
M  V30 6095 C 576.398 -2.38398 -4.77495 0
M  V30 6096 O 576.621 -1.40048 -5.5294 0
M  V30 6097 O 575.555 -3.2787 -5.04762 0
M  V30 6098 H 579.381 -2.40156 -1.859 0
M  V30 6099 H 576.966 -1.22049 -0.861652 0
M  V30 6100 H 578.848 -1.2496 -4.02446 0
M  V30 6101 H 577.523 -0.368419 -3.21597 0
M  V30 6102 H 576.43 -2.62048 -2.66987 0
M  V30 6103 H 577.763 -3.43366 -3.52648 0
M  V30 6104 N 579.415 0.9433 -1.26252 0
M  V30 6105 C 580.663 1.68592 -1.11451 0
M  V30 6106 C 580.984 1.91957 0.343123 0
M  V30 6107 O 580.254 1.51475 1.24226 0
M  V30 6108 H 578.834 0.624789 -0.409448 0
M  V30 6109 H 581.496 1.13351 -1.58548 0
M  V30 6110 H 580.592 2.66054 -1.63162 0
M  V30 6111 N 580.893 1.08022 1.14757 0
M  V30 6112 C 582.304 0.829144 1.67279 0
M  V30 6113 C 582.655 -0.644721 1.85305 0
M  V30 6114 O 581.78 -1.49838 1.56133 0
M  V30 6115 C 582.375 1.49855 3.03857 0
M  V30 6116 C 580.934 1.29482 3.53428 0
M  V30 6117 C 580.081 1.56386 2.28995 0
M  V30 6118 H 583.032 1.24134 0.988762 0
M  V30 6119 H 583.053 0.923572 3.69121 0
M  V30 6120 H 582.565 2.57123 2.90705 0
M  V30 6121 H 580.666 0.242669 3.71809 0
M  V30 6122 H 580.779 2.01974 4.34446 0
M  V30 6123 H 579.143 0.985217 2.34874 0
M  V30 6124 H 579.926 2.64851 2.18423 0
M  V30 6125 N 582.371 -1.3172 0.865308 0
M  V30 6126 C 583.281 -2.32394 0.320935 0
M  V30 6127 C 584.297 -1.64511 -0.566746 0
M  V30 6128 O 585.473 -1.95969 -0.464575 0
M  V30 6129 C 582.538 -3.43462 -0.472701 0
M  V30 6130 C 581.599 -4.27015 0.442385 0
M  V30 6131 C 580.832 -5.32779 -0.313469 0
M  V30 6132 O 581.055 -5.49158 -1.54214 0
M  V30 6133 O 579.989 -6.01015 0.326257 0
M  V30 6134 H 583.815 -2.80868 1.15528 0
M  V30 6135 H 581.4 -1.35535 0.628545 0
M  V30 6136 H 583.282 -4.11172 -0.922781 0
M  V30 6137 H 581.957 -2.97159 -1.28367 0
M  V30 6138 H 580.864 -3.62075 0.940866 0
M  V30 6139 H 582.197 -4.76871 1.21882 0
M  V30 6140 N 583.85 -0.624285 -1.44708 0
M  V30 6141 C 584.812 0.0749638 -2.29077 0
M  V30 6142 C 585.812 0.778965 -1.40673 0
M  V30 6143 O 587.003 0.624591 -1.62618 0
M  V30 6144 C 584.135 1.11663 -3.22094 0
M  V30 6145 H 585.327 -0.667013 -2.92388 0
M  V30 6146 H 582.88 -0.384098 -1.51507 0
M  V30 6147 H 583.615 1.88881 -2.63618 0
M  V30 6148 H 583.401 0.61583 -3.87234 0
M  V30 6149 H 584.891 1.60585 -3.8549 0
M  V30 6150 N 585.328 1.53329 -0.364422 0
M  V30 6151 C 586.744 1.59594 -0.0133165 0
M  V30 6152 C 586.944 1.37959 1.46865 0
M  V30 6153 O 586 1.18418 2.2301 0
M  V30 6154 C 587.313 2.97032 -0.468213 0
M  V30 6155 C 588.861 3.10138 -0.422334 0
M  V30 6156 C 589.336 4.49986 -0.853024 0
M  V30 6157 N 590.827 4.56098 -0.808037 0
M  V30 6158 C 591.562 5.62495 -1.11299 0
M  V30 6159 N 591.058 6.7665 -1.48717 0
M  V30 6160 N 592.851 5.52473 -1.03586 0
M  V30 6161 H 585.002 1.65644 -1.32951 0
M  V30 6162 H 587.265 0.77684 -0.543345 0
M  V30 6163 H 586.971 3.18 -1.5023 0
M  V30 6164 H 586.845 3.76918 0.145775 0
M  V30 6165 H 589.232 2.88881 0.602622 0
M  V30 6166 H 589.313 2.32263 -1.0718 0
M  V30 6167 H 588.957 4.7198 -1.87609 0
M  V30 6168 H 588.887 5.26289 -0.180819 0
M  V30 6169 H 591.378 3.74131 -0.532361 0
M  V30 6170 H 591.691 7.53776 -1.70415 0
M  V30 6171 H 590.036 6.78044 -1.52581 0
M  V30 6172 H 593.227 4.6217 -0.742736 0
M  V30 6173 H 593.4 6.35295 -1.27686 0
M  V30 6174 N 586.806 0.0935595 1.57322 0
M  V30 6175 C 587.716 -0.880192 2.17462 0
M  V30 6176 C 588.732 -1.31135 1.14366 0
M  V30 6177 O 589.908 -1.37958 1.46729 0
M  V30 6178 C 586.973 -2.12184 2.74188 0
M  V30 6179 C 586.034 -1.74503 3.92234 0
M  V30 6180 C 585.267 -2.92748 4.46245 0
M  V30 6181 O 585.49 -4.07427 3.99198 0
M  V30 6182 O 584.424 -2.71303 5.37288 0
M  V30 6183 H 588.25 -0.398516 3.01074 0
M  V30 6184 H 585.835 -0.130707 1.48827 0
M  V30 6185 H 587.717 -2.84953 3.10451 0
M  V30 6186 H 586.392 -2.59407 1.93623 0
M  V30 6187 H 585.299 -0.989186 3.60785 0
M  V30 6188 H 586.632 -1.32044 4.74157 0
M  V30 6189 N 588.284 -1.56567 -0.180126 0
M  V30 6190 C 589.217 -1.90813 -1.25163 0
M  V30 6191 C 590.195 -0.7699 -1.43218 0
M  V30 6192 O 591.379 -1.02236 -1.58367 0
M  V30 6193 C 588.506 -2.15138 -2.61597 0
M  V30 6194 C 587.552 -3.37834 -2.60328 0
M  V30 6195 S 588.385 -4.92486 -2.1028 0
M  V30 6196 C 589.541 -5.19896 -3.48509 0
M  V30 6197 H 589.774 -2.81398 -0.959283 0
M  V30 6198 H 587.307 -1.49541 -0.3843 0
M  V30 6199 H 589.265 -2.29835 -3.40127 0
M  V30 6200 H 587.926 -1.25276 -2.88036 0
M  V30 6201 H 587.119 -3.52027 -3.60684 0
M  V30 6202 H 586.721 -3.22208 -1.8989 0
M  V30 6203 H 589.013 -5.11334 -4.44459 0
M  V30 6204 H 589.956 -6.21571 -3.39198 0
M  V30 6205 H 590.364 -4.47489 -3.44114 0
M  V30 6206 N 589.762 0.448376 -1.51087 0
M  V30 6207 C 590.725 1.52588 -1.71025 0
M  V30 6208 C 591.725 1.49958 -0.580442 0
M  V30 6209 O 592.915 1.52176 -0.847833 0
M  V30 6210 C 590.047 2.92163 -1.75652 0
M  V30 6211 H 591.24 1.36218 -2.67179 0
M  V30 6212 H 588.793 0.676313 -1.4091 0
M  V30 6213 H 589.528 3.13951 -0.812724 0
M  V30 6214 H 589.313 2.95478 -2.57751 0
M  V30 6215 H 590.803 3.70349 -1.92953 0
M  V30 6216 N 591.24 1.41047 0.703093 0
M  V30 6217 C 592.173 1.36713 1.82715 0
M  V30 6218 C 593.151 0.235533 1.60885 0
M  V30 6219 O 594.335 0.421227 1.83733 0
M  V30 6220 C 591.462 1.13069 3.1927 0
M  V30 6221 C 590.508 2.28846 3.59905 0
M  V30 6222 S 591.341 3.91297 3.65578 0
M  V30 6223 C 592.497 3.69941 5.04871 0
M  V30 6224 H 592.73 2.31838 1.86114 0
M  V30 6225 H 590.263 1.27481 0.871083 0
M  V30 6226 H 592.221 1.00113 3.98105 0
M  V30 6227 H 590.882 0.195763 3.13489 0
M  V30 6228 H 590.075 2.07977 4.59088 0
M  V30 6229 H 589.677 2.3817 2.88359 0
M  V30 6230 H 591.969 3.29181 5.92154 0
M  V30 6231 H 592.912 4.68699 5.30779 0
M  V30 6232 H 593.32 3.03369 4.76054 0
M  V30 6233 N 592.718 -0.936591 1.26751 0
M  V30 6234 C 593.651 -2.03619 1.03027 0
M  V30 6235 C 594.629 -1.62534 -0.0464619 0
M  V30 6236 O 595.813 -1.88251 0.0968873 0
M  V30 6237 C 592.94 -3.3402 0.561072 0
M  V30 6238 C 591.986 -3.9408 1.63105 0
M  V30 6239 S 592.819 -4.27782 3.22122 0
M  V30 6240 C 593.975 -5.61277 2.76982 0
M  V30 6241 H 594.208 -2.23429 1.96129 0
M  V30 6242 H 591.741 -1.07857 1.10482 0
M  V30 6243 H 593.699 -4.09424 0.297031 0
M  V30 6244 H 592.36 -3.12147 -0.349741 0
M  V30 6245 H 591.553 -4.88154 1.25386 0
M  V30 6246 H 591.155 -3.25227 1.84671 0
M  V30 6247 H 593.447 -6.40189 2.21731 0
M  V30 6248 H 594.39 -6.03887 3.69766 0
M  V30 6249 H 594.798 -5.21374 2.16402 0
M  V30 6250 N 594.196 -1.08629 -1.14182 0
M  V30 6251 C 595.128 -0.676189 -2.18998 0
M  V30 6252 C 596.141 0.277871 -1.60411 0
M  V30 6253 O 597.33 0.0651771 -1.78381 0
M  V30 6254 C 594.43 0.0254916 -3.3889 0
M  V30 6255 C 593.603 -0.948039 -4.27002 0
M  V30 6256 C 592.662 -0.281268 -5.25448 0
M  V30 6257 O 591.688 -0.926378 -5.61611 0
M  V30 6258 N 592.89 0.967923 -5.72374 0
M  V30 6259 H 595.655 -1.57792 -2.54798 0
M  V30 6260 H 593.216 -0.972665 -1.29425 0
M  V30 6261 H 595.208 0.482554 -4.01813 0
M  V30 6262 H 593.778 0.829348 -3.01398 0
M  V30 6263 H 592.998 -1.58388 -3.6098 0
M  V30 6264 H 594.286 -1.60765 -4.82734 0
M  V30 6265 H 593.684 1.51175 -5.45126 0
M  V30 6266 H 592.241 1.36844 -6.37273 0
M  V30 6267 N 595.674 1.31259 -0.872281 0
M  V30 6268 C 596.584 2.32221 -0.333255 0
M  V30 6269 C 597.6 1.6481 0.558013 0
M  V30 6270 O 598.776 1.96212 0.454175 0
M  V30 6271 C 595.841 3.43708 0.454479 0
M  V30 6272 C 594.902 4.26774 -0.465024 0
M  V30 6273 C 594.135 5.32937 0.28521 0
M  V30 6274 O 594.358 5.49968 1.513 0
M  V30 6275 O 593.292 6.00834 -0.358126 0
M  V30 6276 H 597.118 2.80252 -1.17016 0
M  V30 6277 H 594.703 1.352 -0.635724 0
M  V30 6278 H 596.585 4.11656 0.900963 0
M  V30 6279 H 595.26 2.97836 1.26789 0
M  V30 6280 H 594.167 3.61571 -0.960055 0
M  V30 6281 H 595.5 4.76217 -1.2441 0
M  V30 6282 N 597.152 0.631951 1.44375 0
M  V30 6283 C 598.4 0.136497 2.01639 0
M  V30 6284 C 598.721 -1.24637 1.49969 0
M  V30 6285 O 597.991 -1.82827 0.70363 0
M  V30 6286 H 596.571 0.0474703 0.74549 0
M  V30 6287 H 599.233 0.818837 1.76865 0
M  V30 6288 H 598.329 0.104817 3.11924 0
M  V30 6289 N 598.631 -1.53133 0.372548 0
M  V30 6290 C 599.541 -2.29671 -0.478379 0
M  V30 6291 C 600.557 -1.35913 -1.08644 0
M  V30 6292 O 601.733 -1.68975 -1.09588 0
M  V30 6293 C 598.798 -3.07625 -1.599 0
M  V30 6294 C 597.859 -4.17061 -1.01776 0
M  V30 6295 C 597.092 -4.91289 -2.08497 0
M  V30 6296 O 597.315 -4.65442 -3.29727 0
M  V30 6297 O 596.249 -5.7705 -1.71164 0
M  V30 6298 H 600.075 -3.03355 0.144649 0
M  V30 6299 H 597.66 -1.48773 0.136729 0
M  V30 6300 H 599.542 -3.56281 -2.25038 0
M  V30 6301 H 598.217 -2.3677 -2.2073 0
M  V30 6302 H 597.124 -3.72641 -0.330098 0
M  V30 6303 H 598.457 -4.90102 -0.453915 0
M  V30 6304 N 600.109 -0.101901 -1.5727 0
M  V30 6305 C 601.059 0.865346 -2.1094 0
M  V30 6306 C 602.043 1.2394 -1.02605 0
M  V30 6307 O 603.235 1.21334 -1.28868 0
M  V30 6308 C 600.364 2.12187 -2.69874 0
M  V30 6309 C 599.45 1.77295 -3.85263 0
M  V30 6310 N 599.841 1.12993 -4.93017 0
M  V30 6311 C 598.139 2.06862 -3.95126 0
M  V30 6312 C 598.84 0.968631 -5.73579 0
M  V30 6313 N 597.816 1.48814 -5.22834 0
M  V30 6314 H 601.618 0.364368 -2.91633 0
M  V30 6315 H 599.132 0.101104 -1.62085 0
M  V30 6316 H 601.129 2.82431 -3.06657 0
M  V30 6317 H 599.789 2.62844 -1.90639 0
M  V30 6318 H 600.8 0.795935 -5.11747 0
M  V30 6319 H 597.477 2.59686 -3.26909 0
M  V30 6320 H 598.867 0.465231 -6.70287 0
M  V30 6321 N 601.587 1.56661 0.17182 0
M  V30 6322 C 602.815 1.861 0.904115 0
M  V30 6323 C 603.23 0.687227 1.75848 0
M  V30 6324 O 602.587 -0.343671 1.79235 0
M  V30 6325 C 602.638 3.14568 1.78127 0
M  V30 6326 O 602.359 4.27422 0.961366 0
M  V30 6327 C 603.86 3.5735 2.62327 0
M  V30 6328 H 601.08 0.617445 0.262684 0
M  V30 6329 H 603.624 2.03775 0.172068 0
M  V30 6330 H 601.779 2.98721 2.46666 0
M  V30 6331 H 602.193 5.00725 1.56123 0
M  V30 6332 H 603.667 4.50144 3.1949 0
M  V30 6333 H 604.144 2.81445 3.37173 0
M  V30 6334 H 604.75 3.75807 1.99121 0
M  V30 6335 N 603.065 -0.440357 1.51323 0
M  V30 6336 C 604.311 -1.19181 1.64085 0
M  V30 6337 C 604.644 -1.90936 0.354575 0
M  V30 6338 O 603.919 -1.8347 -0.645675 0
M  V30 6339 C 604.202 -2.2112 2.84215 0
M  V30 6340 C 604.055 -1.53468 4.22809 0
M  V30 6341 C 605.374 -3.22133 2.99864 0
M  V30 6342 H 602.493 -0.431924 0.597169 0
M  V30 6343 H 605.135 -0.481443 1.83799 0
M  V30 6344 H 603.285 -2.81703 2.67537 0
M  V30 6345 H 604.957 -0.962455 4.51148 0
M  V30 6346 H 603.2 -0.837086 4.25647 0
M  V30 6347 H 603.871 -2.27694 5.02852 0
M  V30 6348 H 606.347 -2.71601 3.15233 0
M  V30 6349 H 605.223 -3.90756 3.85488 0
M  V30 6350 H 605.484 -3.88061 2.11804 0
M  V30 6351 N 604.543 -1.41418 -0.695603 0
M  V30 6352 C 605.771 -1.4413 -1.48439 0
M  V30 6353 C 606.186 -0.0465698 -1.88743 0
M  V30 6354 O 605.543 0.934117 -1.56782 0
M  V30 6355 C 605.594 -2.34998 -2.74696 0
M  V30 6356 O 605.315 -3.69043 -2.36091 0
M  V30 6357 C 606.816 -2.46513 -3.68438 0
M  V30 6358 H 604.036 -0.490905 -0.457442 0
M  V30 6359 H 606.58 -1.85702 -0.856454 0
M  V30 6360 H 604.735 -1.96735 -3.33728 0
M  V30 6361 H 605.149 -4.17505 -3.17474 0
M  V30 6362 H 606.623 -3.1426 -4.53811 0
M  V30 6363 H 607.1 -1.49638 -4.12922 0
M  V30 6364 H 607.706 -2.85412 -3.1531 0
M  V30 6365 N 606.021 0.929856 -1.27246 0
M  V30 6366 C 607.246 1.71674 -1.16374 0
M  V30 6367 C 607.671 1.86064 0.276024 0
M  V30 6368 O 607.029 1.3591 1.19992 0
M  V30 6369 C 607.077 3.09526 -1.85003 0
M  V30 6370 O 606.181 3.96142 -1.14653 0
M  V30 6371 H 605.522 0.52629 -0.404863 0
M  V30 6372 H 608.052 1.16381 -1.68276 0
M  V30 6373 H 608.062 3.59852 -1.92276 0
M  V30 6374 H 606.737 2.98369 -2.89739 0
M  V30 6375 H 605.314 3.54584 -1.15433 0
M  V30 6376 N 607.499 1.09233 1.13605 0
M  V30 6377 C 608.449 0.6994 2.17008 0
M  V30 6378 C 609.433 -0.285238 1.58352 0
M  V30 6379 O 610.625 -0.09592 1.7674 0
M  V30 6380 C 607.754 0.11938 3.43092 0
M  V30 6381 C 606.84 1.13031 4.0876 0
M  V30 6382 N 607.231 2.31673 4.49623 0
M  V30 6383 C 605.529 0.967999 4.35369 0
M  V30 6384 C 606.23 2.95964 5.00779 0
M  V30 6385 N 605.206 2.23534 4.95513 0
M  V30 6386 H 609.008 1.60272 2.46354 0
M  V30 6387 H 606.522 0.968257 1.30378 0
M  V30 6388 H 608.519 -0.180122 4.16511 0
M  V30 6389 H 607.179 -0.778816 3.15221 0
M  V30 6390 H 608.19 2.69277 4.42391 0
M  V30 6391 H 604.867 0.124319 4.17315 0
M  V30 6392 H 606.257 3.96813 5.42208 0
M  V30 6393 N 608.977 -1.30795 0.87923 0
M  V30 6394 C 610.202 -2.01063 0.508769 0
M  V30 6395 C 610.627 -1.65508 -0.893803 0
M  V30 6396 O 609.985 -0.868616 -1.59138 0
M  V30 6397 C 610.033 -3.54054 0.683991 0
M  V30 6398 O 609.137 -4.11498 -0.272654 0
M  V30 6399 H 608.478 -0.632786 0.201191 0
M  V30 6400 H 611.008 -1.66776 1.18519 0
M  V30 6401 H 611.018 -4.03845 0.580798 0
M  V30 6402 H 609.693 -3.79271 1.70665 0
M  V30 6403 H 608.27 -3.72695 -0.12364 0
M  V30 6404 N 610.455 -0.639598 -1.44038 0
M  V30 6405 C 611.68 -0.153117 -2.06834 0
M  V30 6406 C 612.105 1.16676 -1.47541 0
M  V30 6407 O 611.463 1.71769 -0.580093 0
M  V30 6408 C 611.511 -0.0609169 -3.60549 0
M  V30 6409 O 610.615 0.98071 -4.00569 0
M  V30 6410 H 609.956 -0.0886402 -0.658057 0
M  V30 6411 H 612.486 -0.878674 -1.84771 0
M  V30 6412 H 612.496 0.126892 -4.07803 0
M  V30 6413 H 611.171 -1.0245 -4.03084 0
M  V30 6414 H 609.748 0.766789 -3.64931 0
M  V30 6415 N 611.933 1.52934 -0.380664 0
M  V30 6416 C 613.182 2.00651 0.205477 0
M  V30 6417 C 613.495 1.27164 1.48623 0
M  V30 6418 O 614.701 1.65547 2.15189 0
M  V30 6419 C 613.157 3.57479 0.416726 0
M  V30 6420 C 612.765 4.39857 -0.850268 0
M  V30 6421 C 614.509 4.13509 0.959702 0
M  V30 6422 C 612.416 5.88269 -0.607773 0
M  V30 6423 H 611.346 0.749684 0.0805614 0
M  V30 6424 H 613.997 1.76508 -0.501732 0
M  V30 6425 H 612.379 3.77836 1.18557 0
M  V30 6426 H 613.553 4.31269 -1.62307 0
M  V30 6427 H 611.868 3.95005 -1.31756 0
M  V30 6428 H 614.465 5.22039 1.15669 0
M  V30 6429 H 614.808 3.69054 1.92626 0
M  V30 6430 H 615.341 3.9701 0.250645 0
M  V30 6431 H 612.08 6.3703 -1.54509 0
M  V30 6432 H 611.6 5.99667 0.126247 0
M  V30 6433 H 613.279 6.46558 -0.239014 0
M  V30 6434 N 613.412 0.11024 1.57214 0
M  V30 6435 C 614.661 -0.549638 1.94067 0
M  V30 6436 C 614.974 -1.68388 0.995234 0
M  V30 6437 O 616.18 -2.40593 1.25807 0
M  V30 6438 C 614.636 -1.02912 3.44873 0
M  V30 6439 C 614.244 0.0761861 4.47935 0
M  V30 6440 C 615.988 -1.66087 3.9066 0
M  V30 6441 C 613.895 -0.419502 5.8991 0
M  V30 6442 H 612.825 -0.209092 0.724428 0
M  V30 6443 H 615.476 0.188683 1.82527 0
M  V30 6444 H 613.858 -1.82159 3.51616 0
M  V30 6445 H 615.032 0.852185 4.52851 0
M  V30 6446 H 613.347 0.614052 4.11847 0
M  V30 6447 H 615.944 -2.04272 4.94143 0
M  V30 6448 H 616.287 -2.53591 3.30148 0
M  V30 6449 H 616.82 -0.933959 3.86681 0
M  V30 6450 H 613.559 0.419277 6.54158 0
M  V30 6451 H 613.079 -1.16217 5.88433 0
M  V30 6452 H 614.758 -0.883577 6.40938 0
M  V30 6453 N 614.89 -1.56749 -0.16351 0
M  V30 6454 C 615.84 -1.93424 -1.20712 0
M  V30 6455 C 616.824 -0.803469 -1.39403 0
M  V30 6456 O 618.016 -1.06675 -1.41243 0
M  V30 6457 C 615.145 -2.30431 -2.54473 0
M  V30 6458 C 614.231 -3.5004 -2.39443 0
M  V30 6459 N 614.622 -4.67058 -1.9414 0
M  V30 6460 C 612.92 -3.548 -2.70246 0
M  V30 6461 C 613.621 -5.49184 -1.9176 0
M  V30 6462 N 612.597 -4.9044 -2.34457 0
M  V30 6463 H 616.399 -2.8138 -0.848681 0
M  V30 6464 H 613.913 -1.58089 -0.371717 0
M  V30 6465 H 615.91 -2.54903 -3.29894 0
M  V30 6466 H 614.57 -1.43818 -2.91112 0
M  V30 6467 H 615.581 -4.91128 -1.64357 0
M  V30 6468 H 612.258 -2.78685 -3.10871 0
M  V30 6469 H 613.648 -6.5297 -1.58366 0
M  V30 6470 N 616.368 0.432326 -1.51554 0
M  V30 6471 C 617.784 0.769195 -1.39841 0
M  V30 6472 C 617.984 1.95584 -0.484675 0
M  V30 6473 O 617.04 2.52433 0.0582829 0
M  V30 6474 C 618.353 1.04487 -2.81963 0
M  V30 6475 C 619.901 1.149 -2.91148 0
M  V30 6476 C 620.376 1.45758 -4.34187 0
M  V30 6477 N 621.867 1.52671 -4.37317 0
M  V30 6478 C 622.602 1.78129 -5.4503 0
M  V30 6479 N 622.098 2.01345 -6.62897 0
M  V30 6480 N 623.891 1.79953 -5.32516 0
M  V30 6481 H 616.042 -0.349122 -2.09511 0
M  V30 6482 H 618.305 -0.0938113 -0.943347 0
M  V30 6483 H 618.011 0.24557 -3.50842 0
M  V30 6484 H 617.885 1.97119 -3.21596 0
M  V30 6485 H 620.272 1.93891 -2.22464 0
M  V30 6486 H 620.353 0.201568 -2.55005 0
M  V30 6487 H 619.997 0.672917 -5.03423 0
M  V30 6488 H 619.927 2.41715 -4.67848 0
M  V30 6489 H 622.418 1.36612 -3.52343 0
M  V30 6490 H 622.731 2.20155 -7.40778 0
M  V30 6491 H 621.076 1.98657 -6.66003 0
M  V30 6492 H 624.267 1.61337 -4.39418 0
M  V30 6493 H 624.44 1.99455 -6.1654 0
M  V30 6494 N 617.846 1.41785 0.688094 0
M  V30 6495 C 618.776 1.47 1.8142 0
M  V30 6496 C 619.757 0.327881 1.6691 0
M  V30 6497 O 620.942 0.540362 1.86531 0
M  V30 6498 C 618.072 1.35876 3.19617 0
M  V30 6499 C 617.026 2.47976 3.48844 0
M  V30 6500 C 616.352 2.21915 4.86475 0
M  V30 6501 C 617.652 3.90309 3.47068 0
M  V30 6502 H 619.346 2.41247 1.77314 0
M  V30 6503 H 616.892 1.16116 0.851651 0
M  V30 6504 H 618.845 1.38134 3.98117 0
M  V30 6505 H 617.569 0.38116 3.24368 0
M  V30 6506 H 616.228 2.45013 2.72698 0
M  V30 6507 H 615.876 1.2248 4.8786 0
M  V30 6508 H 615.576 2.97037 5.06994 0
M  V30 6509 H 617.1 2.25901 5.67275 0
M  V30 6510 H 618.514 3.94947 4.1556 0
M  V30 6511 H 616.911 4.65175 3.7912 0
M  V30 6512 H 617.981 4.17927 2.45896 0
M  V30 6513 N 619.324 -0.923095 1.27737 0
M  V30 6514 C 620.735 -1.48626 1.12993 0
M  V30 6515 C 621.086 -1.94142 -0.283439 0
M  V30 6516 O 620.211 -1.81605 -1.17681 0
M  V30 6517 C 620.806 -2.70117 2.04505 0
M  V30 6518 C 619.365 -3.22642 1.93853 0
M  V30 6519 C 618.512 -1.95368 1.96791 0
M  V30 6520 H 621.463 -0.736737 1.40563 0
M  V30 6521 H 621.484 -3.4506 1.60356 0
M  V30 6522 H 620.996 -2.36959 3.07363 0
M  V30 6523 H 619.097 -3.60549 0.939968 0
M  V30 6524 H 619.21 -3.88525 2.80331 0
M  V30 6525 H 617.574 -2.12061 1.41076 0
M  V30 6526 H 618.357 -1.64517 3.01312 0
M  V30 6527 N 620.802 -1.09834 -1.13024 0
M  V30 6528 C 622.05 -0.835297 -1.8403 0
M  V30 6529 C 622.371 0.640944 -1.84165 0
M  V30 6530 O 621.641 1.46517 -1.30037 0
M  V30 6531 H 620.221 -0.306018 -0.681441 0
M  V30 6532 H 622.883 -1.38734 -1.36891 0
M  V30 6533 H 621.979 -1.19258 -2.88416 0
M  V30 6534 N 622.28 1.30327 -0.886154 0
M  V30 6535 C 623.505 2.0079 -0.519425 0
M  V30 6536 C 623.93 1.65979 0.885013 0
M  V30 6537 O 623.288 0.877043 1.58675 0
M  V30 6538 C 623.336 3.53686 -0.702758 0
M  V30 6539 O 622.44 4.11637 0.250828 0
M  V30 6540 H 621.781 0.63171 -0.204544 0
M  V30 6541 H 624.311 1.66145 -1.19402 0
M  V30 6542 H 624.321 4.03531 -0.602207 0
M  V30 6543 H 622.996 3.78361 -1.72673 0
M  V30 6544 H 621.573 3.72755 0.103873 0
M  V30 6545 N 623.758 0.647228 1.43697 0
M  V30 6546 C 625.035 0.0883758 1.954 0
M  V30 6547 C 625.415 -1.39006 1.58873 0
M  V30 6548 O 624.763 -2.11255 0.87083 0
M  V30 6549 C 624.973 0.328263 3.47453 0
M  V30 6550 C 626.321 0.230009 4.23977 0
M  V30 6551 O 627.345 0.260496 3.55246 0
M  V30 6552 O 626.204 0.148615 5.46298 0
M  V30 6553 H 623.298 -0.0130683 0.826897 0
M  V30 6554 H 625.844 0.72005 1.53666 0
M  V30 6555 H 624.616 1.3535 3.67146 0
M  V30 6556 H 624.239 -0.336772 3.96171 0
M  V30 6557 N 625.236 -1.5273 0.388769 0
M  V30 6558 C 626.184 -2.27975 -0.461527 0
M  V30 6559 C 627.178 -1.31854 -1.06352 0
M  V30 6560 O 628.384 -1.49394 -1.00406 0
M  V30 6561 H 624.759 -0.733088 -0.16759 0
M  V30 6562 H 626.73 -2.97765 0.194579 0
M  V30 6563 C 625.479 -3.09881 -1.577 0
M  V30 6564 H 624.802 -3.83701 -1.12309 0
M  V30 6565 H 626.242 -3.6567 -2.14619 0
M  V30 6566 C 624.701 -2.22159 -2.53272 0
M  V30 6567 O 625.231 -1.84802 -3.56667 0
M  V30 6568 N 623.437 -1.8633 -2.23001 0
M  V30 6569 H 622.984 -2.16909 -1.38954 0
M  V30 6570 H 622.942 -1.27927 -2.87197 0
M  V30 6571 N 626.714 -0.118576 -1.57153 0
M  V30 6572 C 627.644 0.828436 -2.1831 0
M  V30 6573 C 628.625 1.27758 -1.12303 0
M  V30 6574 O 629.81 1.34026 -1.40537 0
M  V30 6575 C 626.94 2.07876 -2.78217 0
M  V30 6576 C 625.894 1.76742 -3.89803 0
M  V30 6577 C 625.22 3.08801 -4.36516 0
M  V30 6578 C 626.52 1.03606 -5.11921 0
M  V30 6579 H 628.214 0.318824 -2.97698 0
M  V30 6580 H 625.76 0.151911 -1.43196 0
M  V30 6581 H 627.713 2.74584 -3.19659 0
M  V30 6582 H 626.437 2.61161 -1.96118 0
M  V30 6583 H 625.096 1.12424 -3.48936 0
M  V30 6584 H 624.744 3.6002 -3.51276 0
M  V30 6585 H 624.444 2.88743 -5.11763 0
M  V30 6586 H 625.968 3.76627 -4.80608 0
M  V30 6587 H 627.382 1.60467 -5.50385 0
M  V30 6588 H 625.779 0.936454 -5.92748 0
M  V30 6589 H 626.849 0.0227421 -4.84895 0
M  V30 6590 N 628.193 1.56834 0.155195 0
M  V30 6591 C 629.423 1.86778 0.883044 0
M  V30 6592 C 629.831 0.703824 1.75622 0
M  V30 6593 O 629.174 -0.33581 1.80605 0
M  V30 6594 C 629.236 3.1133 1.79761 0
M  V30 6595 C 628.9 4.43504 1.10242 0
M  V30 6596 C 629.897 5.17859 0.460204 0
M  V30 6597 C 627.582 4.90233 1.09437 0
M  V30 6598 C 629.576 6.37144 -0.180782 0
M  V30 6599 C 627.263 6.09444 0.449569 0
M  V30 6600 C 628.261 6.82744 -0.186888 0
M  V30 6601 O 627.949 7.99692 -0.821486 0
M  V30 6602 H 627.681 0.62352 0.261149 0
M  V30 6603 H 630.235 2.04813 0.155204 0
M  V30 6604 H 628.465 2.89282 2.56618 0
M  V30 6605 H 630.154 3.27587 2.39669 0
M  V30 6606 H 630.92 4.8283 0.458289 0
M  V30 6607 H 626.799 4.33109 1.57917 0
M  V30 6608 H 630.343 6.94296 -0.678154 0
M  V30 6609 H 626.24 6.43936 0.449123 0
M  V30 6610 H 627.008 8.15306 -0.722337 0
M  V30 6611 N 629.671 -0.424282 1.51781 0
M  V30 6612 C 630.948 -1.18464 1.55646 0
M  V30 6613 C 631.328 -2.08529 0.328438 0
M  V30 6614 O 630.676 -2.17969 -0.685693 0
M  V30 6615 C 630.886 -1.97514 2.87731 0
M  V30 6616 C 632.234 -2.54106 3.40169 0
M  V30 6617 O 633.258 -2.07711 2.89369 0
M  V30 6618 O 632.117 -3.38759 4.28841 0
M  V30 6619 H 629.211 -0.540055 0.626314 0
M  V30 6620 H 631.757 -0.432291 1.64102 0
M  V30 6621 H 630.529 -1.31444 3.68562 0
M  V30 6622 H 630.152 -2.79787 2.82498 0
M  V30 6623 N 631.149 -1.42148 -0.680565 0
M  V30 6624 C 632.426 -1.32795 -1.43614 0
M  V30 6625 C 632.806 0.037415 -2.11067 0
M  V30 6626 O 632.154 1.05258 -2.02813 0
M  V30 6627 C 632.364 -2.49206 -2.44331 0
M  V30 6628 C 633.712 -2.91059 -3.09144 0
M  V30 6629 O 634.736 -2.49054 -2.54657 0
M  V30 6630 O 633.595 -3.63741 -4.07866 0
M  V30 6631 H 630.689 -0.523397 -0.640301 0
M  V30 6632 H 633.235 -1.54144 -0.709775 0
M  V30 6633 H 632.007 -3.40252 -1.93247 0
M  V30 6634 H 631.63 -2.29813 -3.24456 0
M  V30 6635 N 632.627 0.916307 -1.28225 0
M  V30 6636 C 634.038 1.48024 -1.13779 0
M  V30 6637 C 634.389 1.94289 0.273139 0
M  V30 6638 O 633.514 1.82226 1.16716 0
M  V30 6639 C 634.109 2.69029 -2.05935 0
M  V30 6640 C 632.668 3.2161 -1.95561 0
M  V30 6641 C 631.815 1.94321 -1.97825 0
M  V30 6642 H 634.766 0.729272 -1.40951 0
M  V30 6643 H 634.787 3.44204 -1.62184 0
M  V30 6644 H 634.299 2.35325 -3.08616 0
M  V30 6645 H 632.4 3.60045 -0.959076 0
M  V30 6646 H 632.513 3.87032 -2.82388 0
M  V30 6647 H 630.877 2.1131 -1.42198 0
M  V30 6648 H 631.66 1.62917 -3.0218 0
M  V30 6649 N 634.105 1.10431 1.1244 0
M  V30 6650 C 635.335 0.867612 1.87499 0
M  V30 6651 C 635.743 -0.585475 1.79913 0
M  V30 6652 O 635.086 -1.41539 1.171 0
M  V30 6653 C 635.148 1.2374 3.37533 0
M  V30 6654 C 634.812 2.69751 3.68895 0
M  V30 6655 C 635.809 3.67988 3.67261 0
M  V30 6656 C 633.494 3.06135 3.98229 0
M  V30 6657 C 635.488 5.00632 3.9452 0
M  V30 6658 C 633.175 4.38967 4.25149 0
M  V30 6659 C 634.173 5.36025 4.23281 0
M  V30 6660 O 633.861 6.66465 4.49533 0
M  V30 6661 H 633.593 0.311196 0.600111 0
M  V30 6662 H 636.147 1.47257 1.43194 0
M  V30 6663 H 634.377 0.575537 3.82393 0
M  V30 6664 H 636.066 0.978187 3.93937 0
M  V30 6665 H 636.832 3.41224 3.44661 0
M  V30 6666 H 632.711 2.31214 3.98825 0
M  V30 6667 H 636.255 5.7638 3.92978 0
M  V30 6668 H 632.152 4.6547 4.47223 0
M  V30 6669 H 632.92 6.72095 4.67152 0
M  V30 6670 N 635.583 -1.29855 0.893053 0
M  V30 6671 C 636.515 -2.26911 0.32311 0
M  V30 6672 C 637.528 -1.54039 -0.526858 0
M  V30 6673 O 638.717 -1.75132 -0.345095 0
M  V30 6674 C 635.817 -3.34266 -0.558509 0
M  V30 6675 C 634.99 -4.36601 0.264222 0
M  V30 6676 C 634.049 -5.23326 -0.549171 0
M  V30 6677 O 633.075 -5.69192 0.0309883 0
M  V30 6678 N 634.277 -5.50008 -1.85664 0
M  V30 6679 H 637.042 -2.76455 1.15726 0
M  V30 6680 H 634.603 -1.4312 0.756859 0
M  V30 6681 H 636.595 -3.89211 -1.1089 0
M  V30 6682 H 635.165 -2.8459 -1.29334 0
M  V30 6683 H 634.385 -3.81409 0.996046 0
M  V30 6684 H 635.673 -5.02019 0.827906 0
M  V30 6685 H 635.071 -5.14542 -2.35081 0
M  V30 6686 H 633.628 -6.07796 -2.35431 0
M  V30 6687 N 637.061 -0.65484 -1.43351 0
M  V30 6688 C 638.472 -0.248506 -1.85039 0
M  V30 6689 C 638.823 1.20526 -1.54816 0
M  V30 6690 O 637.948 1.92016 -0.99794 0
M  V30 6691 C 638.543 -0.444241 -3.35875 0
M  V30 6692 C 637.102 -0.0922108 -3.76287 0
M  V30 6693 C 636.249 -0.746327 -2.67068 0
M  V30 6694 H 639.2 -0.8584 -1.33481 0
M  V30 6695 H 639.221 0.309762 -3.79237 0
M  V30 6696 H 638.733 -1.50239 -3.5784 0
M  V30 6697 H 636.834 0.96328 -3.59933 0
M  V30 6698 H 636.947 -0.518807 -4.76283 0
M  V30 6699 H 635.311 -0.179416 -2.54067 0
M  V30 6700 H 636.094 -1.80754 -2.91861 0
M  V30 6701 N 638.539 1.52521 -0.396863 0
M  V30 6702 C 639.449 2.30403 0.44178 0
M  V30 6703 C 640.465 1.37625 1.06468 0
M  V30 6704 O 641.641 1.70697 1.06886 0
M  V30 6705 C 638.706 3.1013 1.54986 0
M  V30 6706 C 637.767 4.18628 0.951279 0
M  V30 6707 C 637 4.94543 2.00655 0
M  V30 6708 O 637.223 4.70629 3.22281 0
M  V30 6709 O 636.157 5.797 1.61962 0
M  V30 6710 H 639.983 3.03087 -0.192892 0
M  V30 6711 H 637.568 1.48537 -0.16038 0
M  V30 6712 H 639.45 3.59816 2.19341 0
M  V30 6713 H 638.125 2.40251 2.16935 0
M  V30 6714 H 637.032 3.73119 0.270773 0
M  V30 6715 H 638.365 4.90763 0.375887 0
M  V30 6716 N 640.017 0.126909 1.57088 0
M  V30 6717 C 641.266 -0.529024 1.94639 0
M  V30 6718 C 641.579 -1.67323 1.01304 0
M  V30 6719 O 642.785 -2.39245 1.28352 0
M  V30 6720 C 641.241 -0.992483 3.45945 0
M  V30 6721 C 640.849 0.123691 4.47829 0
M  V30 6722 C 642.593 -1.61934 3.924 0
M  V30 6723 C 640.5 -0.356911 5.90322 0
M  V30 6724 H 639.43 -0.201397 0.726605 0
M  V30 6725 H 642.081 0.208032 1.82317 0
M  V30 6726 H 640.463 -1.7842 3.53528 0
M  V30 6727 H 641.637 0.900168 4.51922 0
M  V30 6728 H 639.952 0.657699 4.11173 0
M  V30 6729 H 642.549 -1.9902 4.96281 0
M  V30 6730 H 642.892 -2.50075 3.32819 0
M  V30 6731 H 643.425 -0.892894 3.8765 0
M  V30 6732 H 640.164 0.488636 6.53676 0
M  V30 6733 H 639.684 -1.0997 5.89633 0
M  V30 6734 H 641.363 -0.815547 6.41839 0
M  V30 6735 N 641.495 -1.56914 -0.146875 0
M  V30 6736 C 642.723 -1.87515 -0.874394 0
M  V30 6737 C 643.138 -0.715116 -1.74733 0
M  V30 6738 O 642.495 0.315113 -1.79759 0
M  V30 6739 C 642.546 -3.17362 -1.731 0
M  V30 6740 O 642.267 -4.28897 -0.893245 0
M  V30 6741 C 643.768 -3.61479 -2.56609 0
M  V30 6742 H 640.988 -0.621546 -0.252827 0
M  V30 6743 H 643.532 -2.04023 -0.139627 0
M  V30 6744 H 641.687 -3.02608 -2.41883 0
M  V30 6745 H 642.101 -5.03146 -1.48137 0
M  V30 6746 H 643.575 -4.5517 -3.12289 0
M  V30 6747 H 644.052 -2.86773 -3.32653 0
M  V30 6748 H 644.658 -3.78927 -1.93117 0
M  V30 6749 N 642.974 0.416227 -1.52004 0
M  V30 6750 C 644.385 0.995319 -1.57957 0
M  V30 6751 C 644.736 1.91744 -0.415754 0
M  V30 6752 O 643.861 2.11349 0.464808 0
M  V30 6753 C 644.456 1.81191 -2.86278 0
M  V30 6754 C 643.015 2.34115 -2.94732 0
M  V30 6755 C 642.162 1.139 -2.52828 0
M  V30 6756 H 645.113 0.196716 -1.57476 0
M  V30 6757 H 645.134 2.66859 -2.71231 0
M  V30 6758 H 644.646 1.14051 -3.70963 0
M  V30 6759 H 642.747 3.04647 -2.14525 0
M  V30 6760 H 642.86 2.65466 -3.98829 0
M  V30 6761 H 641.224 1.49081 -2.06511 0
M  V30 6762 H 642.007 0.483383 -3.3988 0
M  V30 6763 N 644.452 1.42507 0.673017 0
M  V30 6764 C 645.677 1.4668 1.46627 0
M  V30 6765 C 646.102 0.080066 1.8793 0
M  V30 6766 O 645.46 -0.921879 1.56112 0
M  V30 6767 C 645.508 2.40091 2.69051 0
M  V30 6768 O 644.612 1.8735 3.67387 0
M  V30 6769 H 643.953 0.496908 0.44043 0
M  V30 6770 H 646.483 1.87215 0.825334 0
M  V30 6771 H 646.493 2.56731 3.17101 0
M  V30 6772 H 645.168 3.4084 2.3833 0
M  V30 6773 H 643.745 1.80274 3.26429 0
M  V30 6774 N 645.93 -0.909495 1.28709 0
M  V30 6775 C 647.341 -1.47419 1.14563 0
M  V30 6776 C 647.692 -1.94432 -0.262832 0
M  V30 6777 O 646.817 -1.82842 -1.15748 0
M  V30 6778 C 647.412 -2.67933 2.07358 0
M  V30 6779 C 645.971 -3.20568 1.97264 0
M  V30 6780 C 645.118 -1.93269 1.98852 0
M  V30 6781 H 648.069 -0.721787 1.41336 0
M  V30 6782 H 648.09 -3.43339 1.64007 0
M  V30 6783 H 647.602 -2.33685 3.09859 0
M  V30 6784 H 645.703 -3.59531 0.978157 0
M  V30 6785 H 645.816 -3.85529 2.84436 0
M  V30 6786 H 644.18 -2.10553 1.43317 0
M  V30 6787 H 644.963 -1.61312 3.0304 0
M  V30 6788 N 647.408 -1.11026 -1.11852 0
M  V30 6789 C 648.338 -0.786812 -2.19844 0
M  V30 6790 C 649.319 0.242935 -1.68356 0
M  V30 6791 O 650.504 0.107355 -1.93903 0
M  V30 6792 C 647.634 -0.224516 -3.46574 0
M  V30 6793 C 646.588 -1.18564 -4.1125 0
M  V30 6794 C 645.914 -0.484261 -5.32503 0
M  V30 6795 C 647.214 -2.53465 -4.56676 0
M  V30 6796 H 648.908 -1.68978 -2.47158 0
M  V30 6797 H 646.454 -0.813906 -1.18792 0
M  V30 6798 H 648.407 0.0139435 -4.21398 0
M  V30 6799 H 647.131 0.713722 -3.18706 0
M  V30 6800 H 645.79 -1.40966 -3.38414 0
M  V30 6801 H 645.438 0.458646 -5.00905 0
M  V30 6802 H 645.138 -1.12526 -5.76725 0
M  V30 6803 H 646.662 -0.254492 -6.10069 0
M  V30 6804 H 648.076 -2.35177 -5.22843 0
M  V30 6805 H 646.473 -3.13507 -5.11697 0
M  V30 6806 H 647.543 -3.13008 -3.70343 0
M  V30 6807 N 648.886 1.2938 -0.899927 0
M  V30 6808 C 649.818 2.26737 -0.335139 0
M  V30 6809 C 650.831 1.54316 0.518681 0
M  V30 6810 O 652.02 1.75313 0.335803 0
M  V30 6811 C 649.12 3.34558 0.540774 0
M  V30 6812 C 648.293 4.36455 -0.287372 0
M  V30 6813 C 647.352 5.2361 0.52141 0
M  V30 6814 O 646.378 5.69167 -0.0611735 0
M  V30 6815 N 647.58 5.50985 1.82745 0
M  V30 6816 H 650.345 2.75838 -1.17191 0
M  V30 6817 H 647.906 1.42716 -0.764438 0
M  V30 6818 H 649.898 3.89794 1.08825 0
M  V30 6819 H 648.468 2.85272 1.27823 0
M  V30 6820 H 647.688 3.80875 -1.01626 0
M  V30 6821 H 648.976 5.01573 -0.854518 0
M  V30 6822 H 648.374 5.15781 2.32349 0
M  V30 6823 H 646.931 6.09036 2.32204 0
M  V30 6824 N 650.364 0.662433 1.43002 0
M  V30 6825 C 651.775 0.258315 1.84904 0
M  V30 6826 C 652.126 -1.19703 1.55453 0
M  V30 6827 O 651.251 -1.91484 1.00811 0
M  V30 6828 C 651.846 0.462047 3.35635 0
M  V30 6829 C 650.405 0.112165 3.76233 0
M  V30 6830 C 649.552 0.760479 2.66668 0
M  V30 6831 H 652.503 0.865467 1.33024 0
M  V30 6832 H 652.524 -0.289646 3.79396 0
M  V30 6833 H 652.036 1.52135 3.57039 0
M  V30 6834 H 650.137 -0.944179 3.60439 0
M  V30 6835 H 650.25 0.544058 4.76001 0
M  V30 6836 H 648.614 0.192887 2.53969 0
M  V30 6837 H 649.397 1.82299 2.90898 0
M  V30 6838 N 651.842 -1.52309 0.404946 0
M  V30 6839 C 653.253 -1.86585 -0.0655926 0
M  V30 6840 C 653.604 -1.3239 -1.44801 0
M  V30 6841 O 652.729 -0.6615 -2.06042 0
M  V30 6842 C 653.324 -3.38566 -0.125801 0
M  V30 6843 C 651.883 -3.72497 -0.540666 0
M  V30 6844 C 651.03 -2.75806 0.287487 0
M  V30 6845 H 653.981 -1.45995 0.622185 0
M  V30 6846 H 654.002 -3.68658 -0.941888 0
M  V30 6847 H 653.514 -3.77981 0.880473 0
M  V30 6848 H 651.615 -3.38659 -1.55373 0
M  V30 6849 H 651.728 -4.78234 -0.287956 0
M  V30 6850 H 650.092 -2.53474 -0.249561 0
M  V30 6851 H 650.875 -3.18059 1.29203 0
M  V30 6852 N 653.32 -0.135238 -1.57019 0
M  V30 6853 C 654.283 0.794707 -2.14981 0
M  V30 6854 C 655.283 1.18342 -1.08866 0
M  V30 6855 O 656.473 1.10627 -1.34563 0
M  V30 6856 C 653.605 2.07685 -2.70333 0
M  V30 6857 H 654.798 0.290696 -2.98488 0
M  V30 6858 H 652.351 0.114128 -1.55883 0
M  V30 6859 H 653.086 2.6248 -1.9046 0
M  V30 6860 H 652.871 1.80745 -3.47957 0
M  V30 6861 H 654.361 2.74127 -3.1503 0
M  V30 6862 N 654.798 1.5699 0.138552 0
M  V30 6863 C 655.761 1.97984 1.15478 0
M  V30 6864 C 656.761 0.867416 1.35398 0
M  V30 6865 O 657.951 1.13387 1.32246 0
M  V30 6866 C 655.083 2.3031 2.51337 0
M  V30 6867 H 656.276 2.88953 0.802896 0
M  V30 6868 H 653.829 1.51555 0.382189 0
M  V30 6869 H 654.564 1.42159 2.91481 0
M  V30 6870 H 654.349 3.11425 2.38237 0
M  V30 6871 H 655.839 2.62834 3.24512 0
M  V30 6872 N 656.276 -0.40816 1.52223 0
M  V30 6873 C 657.687 -0.986929 1.58482 0
M  V30 6874 C 658.038 -1.91521 0.425917 0
M  V30 6875 O 657.163 -2.11593 -0.453593 0
M  V30 6876 C 657.758 -1.7967 2.87235 0
M  V30 6877 C 656.317 -2.32549 2.9597 0
M  V30 6878 C 655.464 -1.12558 2.53428 0
M  V30 6879 H 658.415 -0.188362 1.57578 0
M  V30 6880 H 658.436 -2.65417 2.72642 0
M  V30 6881 H 657.948 -1.12082 3.71563 0
M  V30 6882 H 656.049 -3.03505 2.16137 0
M  V30 6883 H 656.162 -2.63348 4.00231 0
M  V30 6884 H 654.526 -1.47984 2.07299 0
M  V30 6885 H 655.309 -0.465351 3.40131 0
M  V30 6886 N 657.755 -1.42862 -0.66545 0
M  V30 6887 C 658.718 -1.46756 -1.76055 0
M  V30 6888 C 659.718 -0.353866 -1.56858 0
M  V30 6889 O 660.908 -0.615099 -1.62979 0
M  V30 6890 C 658.04 -1.30829 -3.14796 0
M  V30 6891 H 659.233 -2.44271 -1.73987 0
M  V30 6892 H 656.786 -1.29447 -0.875965 0
M  V30 6893 H 657.521 -0.342733 -3.22484 0
M  V30 6894 H 657.306 -2.11551 -3.30134 0
M  V30 6895 H 658.796 -1.36458 -3.94676 0
M  V30 6896 N 659.233 0.902656 -1.29189 0
M  V30 6897 C 660.644 1.46809 -1.15343 0
M  V30 6898 C 660.995 1.94568 0.252517 0
M  V30 6899 O 660.12 1.83454 1.14777 0
M  V30 6900 C 660.715 2.66829 -2.08776 0
M  V30 6901 C 659.274 3.19518 -1.98961 0
M  V30 6902 C 658.421 1.92212 -1.99874 0
M  V30 6903 H 661.372 0.714282 -1.41717 0
M  V30 6904 H 661.393 3.42465 -1.65826 0
M  V30 6905 H 660.905 2.32039 -3.11094 0
M  V30 6906 H 659.006 3.59008 -0.99721 0
M  V30 6907 H 659.119 3.84016 -2.86477 0
M  V30 6908 H 657.483 2.0979 -1.44431 0
M  V30 6909 H 658.266 1.59702 -3.03891 0
M  V30 6910 N 660.711 1.11618 1.11262 0
M  V30 6911 C 661.939 0.888739 1.8684 0
M  V30 6912 C 662.354 -0.561558 1.80255 0
M  V30 6913 O 661.711 -1.38782 1.18515 0
M  V30 6914 C 661.762 1.34422 3.35579 0
M  V30 6915 O 661.483 2.73766 3.42029 0
M  V30 6916 C 662.984 1.15246 4.28058 0
M  V30 6917 H 660.204 0.318152 0.590779 0
M  V30 6918 H 662.748 1.48398 1.40707 0
M  V30 6919 H 660.903 0.79239 3.7921 0
M  V30 6920 H 661.317 2.9355 4.34659 0
M  V30 6921 H 662.791 1.52015 5.30656 0
M  V30 6922 H 663.268 0.0922007 4.39103 0
M  V30 6923 H 663.874 1.69136 3.90222 0
M  V30 6924 N 662.189 -1.289 0.906776 0
M  V30 6925 C 663.414 -1.99939 0.551303 0
M  V30 6926 C 663.839 -1.67366 -0.858496 0
M  V30 6927 O 663.197 -0.902176 -1.57259 0
M  V30 6928 C 663.245 -3.52523 0.758937 0
M  V30 6929 O 662.349 -4.11983 -0.185308 0
M  V30 6930 H 661.69 -0.628376 0.214568 0
M  V30 6931 H 664.22 -1.64225 1.2203 0
M  V30 6932 H 664.23 -4.02522 0.666329 0
M  V30 6933 H 662.905 -3.75566 1.78671 0
M  V30 6934 H 661.482 -3.72873 -0.0445577 0
M  V30 6935 N 663.667 -0.670007 -1.42649 0
M  V30 6936 C 664.895 -0.19854 -2.05945 0
M  V30 6937 C 665.31 1.14243 -1.50313 0
M  V30 6938 O 664.667 1.70872 -0.641027 0
M  V30 6939 C 664.718 -0.11966 -3.61302 0
M  V30 6940 O 664.439 -1.40764 -4.1487 0
M  V30 6941 C 665.94 0.375878 -4.41704 0
M  V30 6942 H 663.16 -0.0976894 -0.663851 0
M  V30 6943 H 665.704 -0.915392 -1.82868 0
M  V30 6944 H 663.859 0.547851 -3.83507 0
M  V30 6945 H 664.273 -1.27784 -5.08696 0
M  V30 6946 H 665.747 0.379988 -5.50691 0
M  V30 6947 H 666.224 1.41028 -4.15942 0
M  V30 6948 H 666.83 -0.259727 -4.24506 0
M  V30 6949 N 665.145 1.52092 -0.413018 0
M  V30 6950 C 666.373 2.06274 0.160881 0
M  V30 6951 C 666.788 1.28273 1.38533 0
M  V30 6952 O 666.145 0.33563 1.79387 0
M  V30 6953 C 666.196 3.57921 0.507443 0
M  V30 6954 O 665.917 4.32971 -0.668388 0
M  V30 6955 C 667.418 4.28533 1.13465 0
M  V30 6956 H 664.638 0.67074 0.0186759 0
M  V30 6957 H 667.182 1.95951 -0.585092 0
M  V30 6958 H 665.337 3.68238 1.20331 0
M  V30 6959 H 665.751 5.23135 -0.378169 0
M  V30 6960 H 667.225 5.35804 1.32732 0
M  V30 6961 H 667.702 3.85258 2.10886 0
M  V30 6962 H 668.308 4.22595 0.478876 0
M  V30 6963 N 666.623 0.143563 1.56945 0
M  V30 6964 C 667.848 -0.518701 2.00809 0
M  V30 6965 C 668.273 -1.5785 1.02298 0
M  V30 6966 O 667.631 -1.813 -0.0017839 0
M  V30 6967 C 667.679 -1.09929 3.43436 0
M  V30 6968 O 666.783 -2.21425 3.47915 0
M  V30 6969 H 666.124 -0.127215 0.6517 0
M  V30 6970 H 668.654 0.239283 2.03196 0
M  V30 6971 H 668.664 -1.4288 3.82164 0
M  V30 6972 H 667.339 -0.323162 4.14643 0
M  V30 6973 H 665.916 -1.89728 3.21026 0
M  V30 6974 N 668.101 -1.57061 -0.130224 0
M  V30 6975 C 669.326 -1.88802 -0.858409 0
M  V30 6976 C 669.751 -0.734353 -1.73173 0
M  V30 6977 O 669.109 0.315529 -1.78533 0
M  V30 6978 C 669.157 -3.19228 -1.67708 0
M  V30 6979 O 668.261 -3.04343 -2.78297 0
M  V30 6980 H 667.602 -0.619849 -0.238083 0
M  V30 6981 H 670.132 -2.04271 -0.115995 0
M  V30 6982 H 670.142 -3.51669 -2.06864 0
M  V30 6983 H 668.817 -4.02793 -1.0359 0
M  V30 6984 H 667.394 -2.83346 -2.42425 0
M  V30 6985 N 669.579 0.400081 -1.52437 0
M  V30 6986 C 670.542 1.4707 -1.75793 0
M  V30 6987 C 671.542 1.48036 -0.627856 0
M  V30 6988 O 672.732 1.49401 -0.895817 0
M  V30 6989 C 669.864 2.86427 -1.84858 0
M  V30 6990 H 671.057 1.27649 -2.71377 0
M  V30 6991 H 668.61 0.631141 -1.42991 0
M  V30 6992 H 669.345 3.11207 -0.912194 0
M  V30 6993 H 669.13 2.87128 -2.6702 0
M  V30 6994 H 670.62 3.64023 -2.04638 0
M  V30 6995 N 671.057 1.43213 0.657864 0
M  V30 6996 C 672.473 1.26511 0.972992 0
M  V30 6997 C 672.673 0.181477 2.00681 0
M  V30 6998 O 671.729 -0.441649 2.48608 0
M  V30 6999 C 673.042 2.62784 1.46168 0
M  V30 7000 C 674.59 2.70278 1.57857 0
M  V30 7001 C 675.065 4.06958 2.10117 0
M  V30 7002 N 676.556 4.08999 2.17426 0
M  V30 7003 C 677.291 5.11585 2.58975 0
M  V30 7004 N 676.787 6.24548 2.99853 0
M  V30 7005 N 678.58 4.9894 2.58873 0
M  V30 7006 H 670.731 2.12384 -0.0263129 0
M  V30 7007 H 672.994 0.946638 0.0507992 0
M  V30 7008 H 672.7 3.43022 0.776474 0
M  V30 7009 H 672.574 2.87863 2.43751 0
M  V30 7010 H 674.961 1.90376 2.25479 0
M  V30 7011 H 675.042 2.4897 0.587179 0
M  V30 7012 H 674.686 4.87325 1.43098 0
M  V30 7013 H 674.616 4.25628 3.10078 0
M  V30 7014 H 677.107 3.27457 1.88627 0
M  V30 7015 H 677.42 6.98661 3.30292 0
M  V30 7016 H 675.765 6.28027 2.97669 0
M  V30 7017 H 678.956 4.09757 2.26311 0
M  V30 7018 H 679.129 5.79019 2.90932 0
M  V30 7019 N 672.536 -0.895792 1.29666 0
M  V30 7020 C 673.952 -1.17726 1.07763 0
M  V30 7021 C 674.152 -2.00794 -0.168576 0
M  V30 7022 O 673.208 -2.37213 -0.865244 0
M  V30 7023 C 674.521 -1.89441 2.33522 0
M  V30 7024 C 676.069 -2.02251 2.3888 0
M  V30 7025 C 676.544 -2.77378 3.64452 0
M  V30 7026 N 678.035 -2.8493 3.65198 0
M  V30 7027 C 678.77 -3.43606 4.59045 0
M  V30 7028 N 678.266 -4.03417 5.63228 0
M  V30 7029 N 680.059 -3.41317 4.46608 0
M  V30 7030 H 672.21 -0.341652 2.09634 0
M  V30 7031 H 674.473 -0.213865 0.923561 0
M  V30 7032 H 674.179 -1.35842 3.24407 0
M  V30 7033 H 674.053 -2.89893 2.41334 0
M  V30 7034 H 676.44 -2.55025 1.4848 0
M  V30 7035 H 676.521 -1.0092 2.3505 0
M  V30 7036 H 676.165 -2.25279 4.55205 0
M  V30 7037 H 676.095 -3.79062 3.65541 0
M  V30 7038 H 678.586 -2.42453 2.89871 0
M  V30 7039 H 678.899 -4.46224 6.30955 0
M  V30 7040 H 677.244 -4.01868 5.67033 0
M  V30 7041 H 680.435 -2.93812 3.64407 0
M  V30 7042 H 680.608 -3.86751 5.1993 0
M  V30 7043 N 674.014 -1.12206 -1.10668 0
M  V30 7044 C 675.43 -0.857619 -1.346 0
M  V30 7045 C 675.63 0.513542 -1.94846 0
M  V30 7046 O 674.686 1.26273 -2.18658 0
M  V30 7047 C 675.999 -1.97212 -2.26998 0
M  V30 7048 C 677.547 -2.00272 -2.40542 0
M  V30 7049 C 678.022 -3.10948 -3.36267 0
M  V30 7050 N 679.513 -3.10375 -3.43834 0
M  V30 7051 C 680.248 -3.92651 -4.17867 0
M  V30 7052 N 679.744 -4.84911 -4.94807 0
M  V30 7053 N 681.537 -3.80798 -4.1346 0
M  V30 7054 H 673.688 -2.00558 -0.699306 0
M  V30 7055 H 675.951 -0.872612 -0.370477 0
M  V30 7056 H 675.657 -2.96002 -1.89936 0
M  V30 7057 H 675.531 -1.87521 -3.27286 0
M  V30 7058 H 677.918 -1.02103 -2.76874 0
M  V30 7059 H 677.999 -2.14037 -1.40077 0
M  V30 7060 H 677.643 -4.09348 -3.00661 0
M  V30 7061 H 677.573 -2.94421 -4.36605 0
M  V30 7062 H 680.064 -2.43536 -2.88961 0
M  V30 7063 H 680.377 -5.44207 -5.48688 0
M  V30 7064 H 678.722 -4.88926 -4.93939 0
M  V30 7065 H 681.913 -3.08058 -3.52445 0
M  V30 7066 H 682.086 -4.4515 -4.70898 0
M  V30 7067 N 675.492 1.28418 -0.913599 0
M  V30 7068 C 676.455 2.25564 -0.406624 0
M  V30 7069 C 677.455 1.5387 0.466965 0
M  V30 7070 O 678.645 1.72094 0.270042 0
M  V30 7071 C 675.777 3.38339 0.417053 0
M  V30 7072 H 676.97 2.71926 -1.26477 0
M  V30 7073 H 674.523 1.40098 -0.692986 0
M  V30 7074 H 675.258 2.97339 1.29461 0
M  V30 7075 H 675.043 3.91542 -0.209102 0
M  V30 7076 H 676.533 4.10578 0.762602 0
M  V30 7077 N 676.97 0.677563 1.42291 0
M  V30 7078 C 678.2 0.209155 2.05539 0
M  V30 7079 C 678.608 -1.13987 1.51009 0
M  V30 7080 O 677.951 -1.71976 0.645764 0
M  V30 7081 C 678.013 0.0697758 3.59432 0
M  V30 7082 C 677.677 1.34795 4.36668 0
M  V30 7083 C 678.674 2.28201 4.67141 0
M  V30 7084 C 676.359 1.59632 4.76259 0
M  V30 7085 C 678.353 3.44718 5.36142 0
M  V30 7086 C 676.04 2.76437 5.45 0
M  V30 7087 C 677.038 3.68805 5.74867 0
M  V30 7088 O 676.726 4.83567 6.42198 0
M  V30 7089 H 676.458 0.0986202 0.668768 0
M  V30 7090 H 679.012 0.925483 1.83368 0
M  V30 7091 H 677.242 -0.702157 3.80272 0
M  V30 7092 H 678.931 -0.359115 4.04308 0
M  V30 7093 H 679.697 2.10264 4.37052 0
M  V30 7094 H 675.576 0.886073 4.52404 0
M  V30 7095 H 679.12 4.16833 5.59371 0
M  V30 7096 H 675.017 2.94299 5.74507 0
M  V30 7097 H 675.785 4.83147 6.6069 0
M  V30 7098 N 678.448 -1.51871 0.421078 0
M  V30 7099 C 679.688 -2.03848 -0.150167 0
M  V30 7100 C 680.052 -1.29925 -1.41363 0
M  V30 7101 O 681.253 -1.7219 -2.06408 0
M  V30 7102 C 679.524 -3.55374 -0.38003 0
M  V30 7103 S 681.083 -4.29111 -0.917011 0
M  V30 7104 H 677.901 -0.709904 -0.0394639 0
M  V30 7105 H 680.503 -1.86799 0.576746 0
M  V30 7106 H 679.207 -4.0675 0.546122 0
M  V30 7107 H 678.738 -3.76687 -1.13448 0
M  V30 7108 H 680.753 -4.44944 -2.19635 0
M  V30 7109 N 679.926 -0.151884 -1.56866 0
M  V30 7110 C 681.342 0.204486 -1.58285 0
M  V30 7111 C 681.542 1.6431 -1.16639 0
M  V30 7112 O 680.598 2.37077 -0.868946 0
M  V30 7113 C 681.911 -0.0587019 -3.00643 0
M  V30 7114 C 683.459 0.00462303 -3.13 0
M  V30 7115 C 683.934 -0.231297 -4.57416 0
M  V30 7116 N 685.425 -0.178394 -4.62856 0
M  V30 7117 C 686.16 -0.335379 -5.72418 0
M  V30 7118 N 685.656 -0.550355 -6.90611 0
M  V30 7119 N 687.449 -0.272641 -5.61438 0
M  V30 7120 H 679.6 -1.09116 -1.82229 0
M  V30 7121 H 681.863 -0.432311 -0.843689 0
M  V30 7122 H 681.569 -1.05453 -3.35518 0
M  V30 7123 H 681.443 0.658508 -3.71407 0
M  V30 7124 H 683.83 0.991009 -2.77962 0
M  V30 7125 H 683.911 -0.744992 -2.44711 0
M  V30 7126 H 683.555 -1.2148 -4.93158 0
M  V30 7127 H 683.485 0.5387 -5.23837 0
M  V30 7128 H 685.976 -0.0170923 -3.77896 0
M  V30 7129 H 686.289 -0.660116 -7.69976 0
M  V30 7130 H 684.634 -0.586736 -6.92519 0
M  V30 7131 H 687.825 -0.105421 -4.67981 0
M  V30 7132 H 687.998 -0.398418 -6.46774 0
M  V30 7133 N 681.404 1.57128 0.121893 0
M  V30 7134 C 682.352 2.01109 1.16868 0
M  V30 7135 C 683.346 0.907532 1.43039 0
M  V30 7136 O 684.552 1.09274 1.43036 0
M  V30 7137 H 680.927 0.640539 0.393971 0
M  V30 7138 H 682.898 2.88261 0.771224 0
M  V30 7139 C 681.647 2.42887 2.48799 0
M  V30 7140 H 680.97 3.2737 2.29498 0
M  V30 7141 H 682.41 2.77461 3.20611 0
M  V30 7142 C 680.869 1.29137 3.11168 0
M  V30 7143 O 681.399 0.605756 3.97106 0
M  V30 7144 N 679.605 1.04916 2.71 0
M  V30 7145 H 679.152 1.60848 2.01211 0
M  V30 7146 H 679.11 0.290016 3.1306 0
M  V30 7147 N 682.882 -0.391992 1.52647 0
M  V30 7148 C 684.298 -0.731848 1.41831 0
M  V30 7149 C 684.498 -1.9423 0.536361 0
M  V30 7150 O 683.554 -2.52499 0.00866571 0
M  V30 7151 C 684.867 -0.969743 2.84634 0
M  V30 7152 C 686.415 -1.0714 2.94092 0
M  V30 7153 C 686.89 -1.34195 4.37899 0
M  V30 7154 N 688.381 -1.41023 4.41211 0
M  V30 7155 C 689.116 -1.63616 5.49561 0
M  V30 7156 N 688.612 -1.83699 6.68002 0
M  V30 7157 N 690.405 -1.65771 5.371 0
M  V30 7158 H 682.556 0.404547 2.08512 0
M  V30 7159 H 684.819 0.11879 0.940528 0
M  V30 7160 H 684.525 -0.152465 3.51369 0
M  V30 7161 H 684.399 -1.88523 3.26709 0
M  V30 7162 H 686.786 -1.87925 2.27526 0
M  V30 7163 H 686.867 -0.133887 2.55449 0
M  V30 7164 H 686.511 -0.539207 5.0503 0
M  V30 7165 H 686.441 -2.29226 4.74092 0
M  V30 7166 H 688.932 -1.27223 3.55841 0
M  V30 7167 H 689.245 -2.00437 7.46354 0
M  V30 7168 H 687.59 -1.8093 6.71036 0
M  V30 7169 H 690.781 -1.4963 4.43541 0
M  V30 7170 H 690.954 -1.83038 6.21612 0
M  V30 7171 N 684.36 -1.4356 -0.65026 0
M  V30 7172 C 685.637 -1.35811 -1.40765 0
M  V30 7173 C 686.017 -0.00736379 -2.11099 0
M  V30 7174 O 685.365 1.00932 -2.05 0
M  V30 7175 C 685.575 -2.54332 -2.3899 0
M  V30 7176 C 686.923 -2.97551 -3.02901 0
M  V30 7177 O 687.947 -2.544 -2.49317 0
M  V30 7178 O 686.806 -3.72311 -4.00059 0
M  V30 7179 H 683.9 -0.536861 -0.629054 0
M  V30 7180 H 686.446 -1.55615 -0.676919 0
M  V30 7181 H 685.218 -3.44274 -1.85986 0
M  V30 7182 H 684.841 -2.36643 -3.19509 0
M  V30 7183 N 685.838 0.888903 -1.30139 0
M  V30 7184 C 686.788 1.9814 -1.12803 0
M  V30 7185 C 687.772 1.60839 -0.0443137 0
M  V30 7186 O 688.964 1.74971 -0.267208 0
M  V30 7187 C 686.093 3.33416 -0.817849 0
M  V30 7188 C 685.179 3.77043 -1.94163 0
M  V30 7189 N 685.57 3.92805 -3.18651 0
M  V30 7190 C 683.868 4.06407 -1.8371 0
M  V30 7191 C 684.569 4.29746 -3.92038 0
M  V30 7192 N 683.545 4.3939 -3.20059 0
M  V30 7193 H 687.347 2.08411 -2.07225 0
M  V30 7194 H 684.861 1.07845 -1.21421 0
M  V30 7195 H 686.858 4.11405 -0.674668 0
M  V30 7196 H 685.518 3.24484 0.118344 0
M  V30 7197 H 686.529 3.78042 -3.53984 0
M  V30 7198 H 683.206 4.05972 -0.974331 0
M  V30 7199 H 684.596 4.49695 -4.99223 0
M  V30 7200 N 687.317 1.12792 1.10072 0
M  V30 7201 C 688.564 0.885545 1.82111 0
M  V30 7202 C 688.892 -0.588519 1.85383 0
M  V30 7203 O 688.147 -1.45124 1.31292 0
M  V30 7204 C 688.446 1.4102 3.28403 0
M  V30 7205 C 688.112 2.89995 3.45273 0
M  V30 7206 C 686.774 3.30671 3.49585 0
M  V30 7207 C 689.126 3.85874 3.50358 0
M  V30 7208 C 686.454 4.65925 3.56553 0
M  V30 7209 C 688.806 5.20963 3.58859 0
M  V30 7210 C 687.47 5.61177 3.61437 0
M  V30 7211 H 686.74 0.324044 0.666391 0
M  V30 7212 H 689.387 1.40874 1.29718 0
M  V30 7213 H 687.692 0.807551 3.83387 0
M  V30 7214 H 689.389 1.19882 3.82661 0
M  V30 7215 H 685.979 2.57537 3.42597 0
M  V30 7216 H 690.163 3.5554 3.46273 0
M  V30 7217 H 685.419 4.96468 3.56833 0
M  V30 7218 H 689.593 5.95079 3.61738 0
M  V30 7219 H 687.22 6.6597 3.66589 0
M  V30 7220 N 688.795 -1.27931 0.920396 0
M  V30 7221 C 689.758 -2.25345 0.41858 0
M  V30 7222 C 690.758 -1.54116 -0.458798 0
M  V30 7223 O 691.948 -1.72235 -0.260912 0
M  V30 7224 C 689.08 -3.38556 -0.399104 0
M  V30 7225 H 690.273 -2.71251 1.27918 0
M  V30 7226 H 687.826 -1.39728 0.700406 0
M  V30 7227 H 688.561 -2.98021 -1.27882 0
M  V30 7228 H 688.346 -3.91426 0.229863 0
M  V30 7229 H 689.836 -4.10976 -0.740817 0
M  V30 7230 N 690.273 -0.685099 -1.4193 0
M  V30 7231 C 691.501 -0.220372 -2.05723 0
M  V30 7232 C 691.916 1.12642 -1.51516 0
M  V30 7233 O 691.273 1.70182 -0.659114 0
M  V30 7234 C 691.324 -0.157974 -3.61155 0
M  V30 7235 O 691.045 -1.45156 -4.13354 0
M  V30 7236 C 692.546 0.329009 -4.42077 0
M  V30 7237 H 689.766 -0.104725 -0.662777 0
M  V30 7238 H 692.31 -0.934736 -1.81887 0
M  V30 7239 H 690.465 0.507144 -3.84066 0
M  V30 7240 H 690.879 -1.33172 -5.07312 0
M  V30 7241 H 692.353 0.321559 -5.51063 0
M  V30 7242 H 692.83 1.36608 -4.17414 0
M  V30 7243 H 693.436 -0.304737 -4.24207 0
M  V30 7244 N 691.751 1.51645 -0.429126 0
M  V30 7245 C 693 2.01203 0.141538 0
M  V30 7246 C 693.313 1.31828 1.44502 0
M  V30 7247 O 694.519 1.7231 2.09813 0
M  V30 7248 C 692.975 3.58624 0.302786 0
M  V30 7249 C 692.583 4.3693 -0.989775 0
M  V30 7250 C 694.327 4.16353 0.827661 0
M  V30 7251 C 692.234 5.86037 -0.794619 0
M  V30 7252 H 691.164 0.751867 0.05667 0
M  V30 7253 H 693.815 1.74822 -0.557633 0
M  V30 7254 H 692.197 3.81417 1.06476 0
M  V30 7255 H 693.371 4.25887 -1.75945 0
M  V30 7256 H 691.686 3.90614 -1.44256 0
M  V30 7257 H 694.283 5.25455 0.990026 0
M  V30 7258 H 694.626 3.74995 1.80787 0
M  V30 7259 H 695.159 3.97606 0.124213 0
M  V30 7260 H 691.898 6.31792 -1.74697 0
M  V30 7261 H 691.418 5.99765 -0.0645968 0
M  V30 7262 H 693.097 6.45471 -0.444591 0
M  V30 7263 N 693.229 0.160201 1.56784 0
M  V30 7264 C 694.645 -0.196089 1.58391 0
M  V30 7265 C 694.845 -1.63689 1.17508 0
M  V30 7266 O 693.901 -2.36613 0.881506 0
M  V30 7267 C 695.214 0.0746449 3.00607 0
M  V30 7268 C 696.762 0.0119762 3.12998 0
M  V30 7269 C 697.237 0.255551 4.57286 0
M  V30 7270 N 698.728 0.202938 4.62755 0
M  V30 7271 C 699.463 0.365731 5.72232 0
M  V30 7272 N 698.959 0.586972 6.90309 0
M  V30 7273 N 700.752 0.302411 5.61286 0
M  V30 7274 H 692.903 1.1008 1.81648 0
M  V30 7275 H 695.166 0.436779 0.841384 0
M  V30 7276 H 694.872 1.07231 3.34954 0
M  V30 7277 H 694.746 -0.638802 3.71751 0
M  V30 7278 H 697.133 -0.976254 2.78484 0
M  V30 7279 H 697.214 0.75796 2.44313 0
M  V30 7280 H 696.858 1.24094 4.92507 0
M  V30 7281 H 696.788 -0.510912 5.24116 0
M  V30 7282 H 699.279 0.0371328 3.77882 0
M  V30 7283 H 699.592 0.700941 7.69615 0
M  V30 7284 H 697.937 0.623453 6.92198 0
M  V30 7285 H 701.128 0.130238 4.67919 0
M  V30 7286 H 701.301 0.432712 6.46554 0
M  V30 7287 N 694.707 -1.5719 -0.113559 0
M  V30 7288 C 695.935 -1.89328 -0.834422 0
M  V30 7289 C 696.35 -0.752018 -1.73177 0
M  V30 7290 O 695.707 0.276912 -1.80387 0
M  V30 7291 C 695.758 -3.20962 -1.66329 0
M  V30 7292 O 695.479 -4.30695 -0.802069 0
M  V30 7293 C 696.98 -3.6684 -2.48884 0
M  V30 7294 H 694.2 -0.626769 -0.239587 0
M  V30 7295 H 696.744 -2.04273 -0.0963195 0
M  V30 7296 H 694.899 -3.0767 -2.35409 0
M  V30 7297 H 695.313 -5.06175 -1.37431 0
M  V30 7298 H 696.787 -4.61692 -3.02563 0
M  V30 7299 H 697.264 -2.93765 -3.26495 0
M  V30 7300 H 697.87 -3.82938 -1.85036 0
M  V30 7301 N 696.185 0.383891 -1.52853 0
M  V30 7302 C 697.148 1.45197 -1.77343 0
M  V30 7303 C 698.148 1.47362 -0.643522 0
M  V30 7304 O 699.338 1.48443 -0.911613 0
M  V30 7305 C 696.47 2.8445 -1.87885 0
M  V30 7306 H 697.663 1.24764 -2.72716 0
M  V30 7307 H 695.216 0.615939 -1.43652 0
M  V30 7308 H 695.951 3.10222 -0.94515 0
M  V30 7309 H 695.736 2.8428 -2.70051 0
M  V30 7310 H 697.226 3.61832 -2.08488 0
M  V30 7311 N 697.663 1.43903 0.642637 0
M  V30 7312 C 698.888 1.49758 1.43483 0
M  V30 7313 C 699.313 0.119911 1.87717 0
M  V30 7314 O 698.671 -0.888558 1.58033 0
M  V30 7315 C 698.719 2.45744 2.63898 0
M  V30 7316 O 697.823 1.95101 3.63331 0
M  V30 7317 H 697.164 0.506138 0.429791 0
M  V30 7318 H 699.694 1.88923 0.785438 0
M  V30 7319 H 699.704 2.63399 3.11584 0
M  V30 7320 H 698.379 3.45818 2.31046 0
M  V30 7321 H 696.956 1.87158 3.22531 0
M  V30 7322 N 699.141 -0.881989 1.30609 0
M  V30 7323 C 700.071 -2.00413 1.1982 0
M  V30 7324 C 701.052 -1.69871 0.0881538 0
M  V30 7325 O 702.237 -1.92304 0.2707 0
M  V30 7326 C 699.367 -3.35641 0.89233 0
M  V30 7327 C 698.321 -3.80451 1.96064 0
M  V30 7328 C 697.647 -5.13003 1.5077 0
M  V30 7329 C 698.947 -3.98855 3.37213 0
M  V30 7330 H 700.641 -2.09698 2.13699 0
M  V30 7331 H 698.187 -1.00754 1.02882 0
M  V30 7332 H 700.14 -4.13669 0.803497 0
M  V30 7333 H 698.864 -3.26497 -0.0821381 0
M  V30 7334 H 697.523 -3.04654 2.03916 0
M  V30 7335 H 697.171 -5.0029 0.521417 0
M  V30 7336 H 696.871 -5.43956 2.22229 0
M  V30 7337 H 698.395 -5.93554 1.43271 0
M  V30 7338 H 699.809 -4.67312 3.32103 0
M  V30 7339 H 698.206 -4.41188 4.06784 0
M  V30 7340 H 699.276 -3.02614 3.78883 0
M  V30 7341 N 700.619 -1.13374 -1.09472 0
M  V30 7342 C 701.865 -0.896516 -1.81908 0
M  V30 7343 C 702.198 0.575933 -1.85463 0
M  V30 7344 O 701.473 1.42618 -1.32251 0
M  V30 7345 C 701.756 -1.48445 -3.28079 0
M  V30 7346 C 701.609 -3.02598 -3.32798 0
M  V30 7347 C 702.928 -1.15226 -4.24748 0
M  V30 7348 H 700.047 -0.327127 -0.660422 0
M  V30 7349 H 702.689 -1.40195 -1.2824 0
M  V30 7350 H 700.839 -1.0546 -3.73912 0
M  V30 7351 H 702.511 -3.54335 -2.95372 0
M  V30 7352 H 700.754 -3.37613 -2.72397 0
M  V30 7353 H 701.425 -3.38835 -4.3577 0
M  V30 7354 H 703.901 -1.52369 -3.87199 0
M  V30 7355 H 702.777 -1.59012 -5.25363 0
M  V30 7356 H 703.038 -0.0658891 -4.42051 0
M  V30 7357 N 702.098 1.27442 -0.927168 0
M  V30 7358 C 703.323 1.99036 -0.583042 0
M  V30 7359 C 703.748 1.68711 0.83176 0
M  V30 7360 O 703.106 0.927081 1.55804 0
M  V30 7361 C 703.154 3.51271 -0.814925 0
M  V30 7362 O 702.258 4.12226 0.119742 0
M  V30 7363 H 701.599 0.624883 -0.224538 0
M  V30 7364 H 704.129 1.62263 -1.24628 0
M  V30 7365 H 704.139 4.01411 -0.730282 0
M  V30 7366 H 702.814 3.72676 -1.84623 0
M  V30 7367 H 701.391 3.72897 -0.0147688 0
M  V30 7368 N 703.576 0.692616 1.41565 0
M  V30 7369 C 704.992 0.363878 1.55397 0
M  V30 7370 C 705.192 -1.1294 1.66874 0
M  V30 7371 O 704.248 -1.91517 1.64552 0
M  V30 7372 C 705.561 1.10982 2.7947 0
M  V30 7373 C 707.109 1.09387 2.93263 0
M  V30 7374 C 707.584 1.8215 4.20221 0
M  V30 7375 N 709.075 1.79105 4.27172 0
M  V30 7376 C 709.81 2.32247 5.2426 0
M  V30 7377 N 709.306 2.93847 6.27396 0
M  V30 7378 N 711.099 2.22519 5.1618 0
M  V30 7379 H 703.25 1.66116 1.3236 0
M  V30 7380 H 705.513 0.700848 0.63837 0
M  V30 7381 H 705.219 2.1647 2.77188 0
M  V30 7382 H 705.093 0.686492 3.709 0
M  V30 7383 H 707.48 0.0472638 2.95062 0
M  V30 7384 H 707.561 1.55623 2.03015 0
M  V30 7385 H 707.205 2.86789 4.19183 0
M  V30 7386 H 707.135 1.33351 5.09436 0
M  V30 7387 H 709.626 1.34191 3.53272 0
M  V30 7388 H 709.939 3.31972 6.97864 0
M  V30 7389 H 708.284 2.97924 6.27906 0
M  V30 7390 H 711.475 1.7407 4.34531 0
M  V30 7391 H 711.648 2.64239 5.91677 0
M  V30 7392 N 705.054 -1.51416 0.437162 0
M  V30 7393 C 705.986 -2.255 -0.410171 0
M  V30 7394 C 706.999 -1.29511 -0.986444 0
M  V30 7395 O 708.188 -1.55266 -0.880614 0
M  V30 7396 C 705.288 -2.99511 -1.58575 0
M  V30 7397 C 704.461 -4.22595 -1.12839 0
M  V30 7398 C 703.52 -4.79187 -2.17407 0
M  V30 7399 O 702.546 -5.4103 -1.76849 0
M  V30 7400 N 703.748 -4.63204 -3.49889 0
M  V30 7401 H 706.513 -2.98856 0.224783 0
M  V30 7402 H 704.074 -1.59699 0.266041 0
M  V30 7403 H 706.066 -3.34258 -2.28152 0
M  V30 7404 H 704.636 -2.29167 -2.12606 0
M  V30 7405 H 703.856 -3.93344 -0.259695 0
M  V30 7406 H 705.144 -5.02468 -0.800196 0
M  V30 7407 H 704.542 -4.13945 -3.85573 0
M  V30 7408 H 703.099 -5.02313 -4.15361 0
M  V30 7409 N 706.532 -0.168513 -1.56696 0
M  V30 7410 C 707.781 0.477233 -1.95973 0
M  V30 7411 C 708.094 1.64578 -1.05704 0
M  V30 7412 O 709.3 2.35758 -1.3465 0
M  V30 7413 C 707.756 0.900413 -3.48455 0
M  V30 7414 C 707.364 -0.242382 -4.47344 0
M  V30 7415 C 709.108 1.51474 -3.96555 0
M  V30 7416 C 707.015 0.200272 -5.91061 0
M  V30 7417 H 705.945 0.182061 -0.73169 0
M  V30 7418 H 708.596 -0.256297 -1.81701 0
M  V30 7419 H 706.978 1.68984 -3.58135 0
M  V30 7420 H 708.152 -1.01967 -4.49377 0
M  V30 7421 H 706.467 -0.766484 -4.09285 0
M  V30 7422 H 709.064 1.85792 -5.01384 0
M  V30 7423 H 709.407 2.41163 -3.39332 0
M  V30 7424 H 709.94 0.789802 -3.89881 0
M  V30 7425 H 706.679 -0.661775 -6.52151 0
M  V30 7426 H 706.199 0.942979 -5.92341 0
M  V30 7427 H 707.878 0.645088 -6.43776 0
M  V30 7428 N 708.01 1.57248 0.105221 0
M  V30 7429 C 708.942 1.98008 1.15436 0
M  V30 7430 C 709.955 0.881236 1.36887 0
M  V30 7431 O 711.144 1.15943 1.35718 0
M  V30 7432 C 708.244 2.27509 2.51183 0
M  V30 7433 C 707.417 3.58811 2.50147 0
M  V30 7434 C 706.476 3.76365 3.67745 0
M  V30 7435 O 705.502 4.48329 3.50699 0
M  V30 7436 N 706.704 3.16174 4.86841 0
M  V30 7437 H 709.469 2.88616 0.807519 0
M  V30 7438 H 707.03 1.59202 0.29433 0
M  V30 7439 H 709.022 2.36455 3.28438 0
M  V30 7440 H 707.592 1.42959 2.77995 0
M  V30 7441 H 706.812 3.60927 1.5851 0
M  V30 7442 H 708.1 4.45088 2.46524 0
M  V30 7443 H 707.498 2.57701 5.03594 0
M  V30 7444 H 706.055 3.30621 5.61723 0
M  V30 7445 N 709.488 -0.375779 1.53054 0
M  V30 7446 C 710.398 -1.48381 1.81715 0
M  V30 7447 C 711.414 -1.59087 0.704795 0
M  V30 7448 O 712.59 -1.75174 0.993785 0
M  V30 7449 C 709.655 -2.83767 1.99192 0
M  V30 7450 C 708.716 -2.82673 3.23102 0
M  V30 7451 C 707.949 -4.11601 3.39736 0
M  V30 7452 O 708.172 -5.07243 2.60885 0
M  V30 7453 O 707.106 -4.18034 4.33049 0
M  V30 7454 H 710.932 -1.27089 2.7583 0
M  V30 7455 H 708.517 -0.564902 1.38308 0
M  V30 7456 H 710.399 -3.64004 2.12318 0
M  V30 7457 H 709.074 -3.05057 1.08267 0
M  V30 7458 H 707.981 -2.0117 3.15407 0
M  V30 7459 H 709.314 -2.66335 4.13916 0
M  V30 7460 N 710.966 -1.44241 -0.634997 0
M  V30 7461 C 711.916 -1.47247 -1.74076 0
M  V30 7462 C 712.9 -0.338708 -1.57295 0
M  V30 7463 O 714.092 -0.583751 -1.67097 0
M  V30 7464 C 711.221 -1.41579 -3.12746 0
M  V30 7465 C 710.307 -2.60055 -3.35011 0
M  V30 7466 N 710.698 -3.85321 -3.27661 0
M  V30 7467 C 708.996 -2.55168 -3.65794 0
M  V30 7468 C 709.697 -4.64241 -3.50508 0
M  V30 7469 N 708.673 -3.95254 -3.73196 0
M  V30 7470 H 712.475 -2.4195 -1.66845 0
M  V30 7471 H 709.989 -1.3915 -0.837326 0
M  V30 7472 H 711.986 -1.41816 -3.92038 0
M  V30 7473 H 710.646 -0.479108 -3.21146 0
M  V30 7474 H 711.657 -4.17345 -3.06665 0
M  V30 7475 H 708.334 -1.70276 -3.81198 0
M  V30 7476 H 709.724 -5.73267 -3.50449 0
M  V30 7477 N 712.444 0.87505 -1.31075 0
M  V30 7478 C 713.354 2.01441 -1.20244 0
M  V30 7479 C 714.37 1.73584 -0.120227 0
M  V30 7480 O 715.546 1.98559 -0.337063 0
M  V30 7481 C 712.611 3.34675 -0.905199 0
M  V30 7482 C 711.672 3.75889 -2.0738 0
M  V30 7483 C 710.905 5.02764 -1.79064 0
M  V30 7484 O 711.128 5.65795 -0.723318 0
M  V30 7485 O 710.062 5.40623 -2.64594 0
M  V30 7486 H 713.888 2.13509 -2.1598 0
M  V30 7487 H 711.473 1.00257 -1.10765 0
M  V30 7488 H 713.355 4.1458 -0.755057 0
M  V30 7489 H 712.03 3.23692 0.0221695 0
M  V30 7490 H 710.937 2.96645 -2.27931 0
M  V30 7491 H 712.27 3.91489 -2.98324 0
M  V30 7492 N 713.922 1.13953 1.08869 0
M  V30 7493 C 714.854 0.779906 2.15523 0
M  V30 7494 C 715.867 -0.20102 1.61554 0
M  V30 7495 O 717.056 0.0200049 1.78489 0
M  V30 7496 C 714.156 0.136226 3.38626 0
M  V30 7497 C 713.329 1.15069 4.21993 0
M  V30 7498 C 712.388 0.531645 5.23507 0
M  V30 7499 O 711.414 1.19327 5.56552 0
M  V30 7500 N 712.616 -0.693734 5.7634 0
M  V30 7501 H 715.381 1.69769 2.46979 0
M  V30 7502 H 712.942 1.03331 1.24637 0
M  V30 7503 H 714.934 -0.290295 4.03658 0
M  V30 7504 H 713.504 -0.684603 3.05011 0
M  V30 7505 H 712.724 1.75431 3.53012 0
M  V30 7506 H 714.012 1.83614 4.74514 0
M  V30 7507 H 713.41 -1.24994 5.51718 0
M  V30 7508 H 711.967 -1.06283 6.43076 0
M  V30 7509 N 715.4 -1.26948 0.933913 0
M  V30 7510 C 716.677 -1.89212 0.495784 0
M  V30 7511 C 717.057 -1.84469 -1.02637 0
M  V30 7512 O 716.405 -1.29409 -1.88323 0
M  V30 7513 C 716.615 -3.32865 1.0489 0
M  V30 7514 C 717.963 -4.09749 1.11315 0
M  V30 7515 O 718.987 -3.41905 0.998966 0
M  V30 7516 O 717.846 -5.31061 1.28983 0
M  V30 7517 H 714.94 -0.811284 0.160459 0
M  V30 7518 H 717.486 -1.35171 1.02601 0
M  V30 7519 H 716.258 -3.30642 2.09265 0
M  V30 7520 H 715.881 -3.94435 0.500692 0
M  V30 7521 N 716.879 -0.700114 -1.41195 0
M  V30 7522 C 718.104 -0.240704 -2.05998 0
M  V30 7523 C 718.529 1.10313 -1.52357 0
M  V30 7524 O 717.887 1.69154 -0.652424 0
M  V30 7525 C 717.935 -0.213783 -3.59966 0
M  V30 7526 O 717.039 0.809933 -4.04368 0
M  V30 7527 H 716.38 -0.116471 -0.653705 0
M  V30 7528 H 718.91 -0.956251 -1.80878 0
M  V30 7529 H 718.92 -0.0461852 -4.07974 0
M  V30 7530 H 717.595 -1.19454 -3.98376 0
M  V30 7531 H 716.172 0.611319 -3.67855 0
M  V30 7532 N 718.357 1.51182 -0.445186 0
M  V30 7533 C 719.32 2.26501 0.350722 0
M  V30 7534 C 720.32 1.3025 0.942952 0
M  V30 7535 O 721.51 1.53897 0.816175 0
M  V30 7536 C 718.642 3.06274 1.49697 0
M  V30 7537 H 719.835 2.98299 -0.309474 0
M  V30 7538 H 717.388 1.55034 -0.198551 0
M  V30 7539 H 718.123 2.38911 2.19299 0
M  V30 7540 H 717.908 3.76979 1.0784 0
M  V30 7541 H 719.398 3.63306 2.05909 0
M  V30 7542 N 719.835 0.176821 1.56605 0
M  V30 7543 C 720.765 -0.746841 2.21234 0
M  V30 7544 C 721.746 -1.23502 1.16967 0
M  V30 7545 O 722.931 -1.28718 1.45414 0
M  V30 7546 C 720.061 -1.97407 2.8574 0
M  V30 7547 C 719.015 -1.62153 3.96094 0
M  V30 7548 C 718.341 -2.92387 4.47676 0
M  V30 7549 C 719.641 -0.845353 5.15413 0
M  V30 7550 H 721.335 -0.208116 2.98676 0
M  V30 7551 H 718.881 -0.0986594 1.43662 0
M  V30 7552 H 720.834 -2.62531 3.2963 0
M  V30 7553 H 719.558 -2.53703 2.05676 0
M  V30 7554 H 718.217 -0.993964 3.52868 0
M  V30 7555 H 717.865 -3.46734 3.64396 0
M  V30 7556 H 717.565 -2.69551 5.22127 0
M  V30 7557 H 719.089 -3.5853 4.94255 0
M  V30 7558 H 720.503 -1.39929 5.55961 0
M  V30 7559 H 718.9 -0.715814 5.95815 0
M  V30 7560 H 719.97 0.157239 4.84645 0
M  V30 7561 N 721.313 -1.57302 -0.09688 0
M  V30 7562 C 722.729 -1.53094 -0.451041 0
M  V30 7563 C 722.929 -0.893265 -1.80618 0
M  V30 7564 O 721.985 -0.485013 -2.47798 0
M  V30 7565 C 723.298 -2.9782 -0.415172 0
M  V30 7566 C 724.846 -3.09026 -0.497155 0
M  V30 7567 C 725.321 -4.55356 -0.491452 0
M  V30 7568 N 726.812 -4.59896 -0.552258 0
M  V30 7569 C 727.547 -5.70563 -0.569654 0
M  V30 7570 N 727.043 -6.90666 -0.543365 0
M  V30 7571 N 728.836 -5.58733 -0.614331 0
M  V30 7572 H 720.987 -1.97131 0.790771 0
M  V30 7573 H 723.25 -0.901211 0.294147 0
M  V30 7574 H 722.956 -3.47933 0.513362 0
M  V30 7575 H 722.83 -3.56416 -1.23481 0
M  V30 7576 H 725.217 -2.58902 -1.41611 0
M  V30 7577 H 725.298 -2.53386 0.35059 0
M  V30 7578 H 724.942 -5.06131 0.423549 0
M  V30 7579 H 724.872 -5.08832 -1.35639 0
M  V30 7580 H 727.363 -3.73456 -0.577842 0
M  V30 7581 H 727.676 -7.70769 -0.559873 0
M  V30 7582 H 726.021 -6.93123 -0.510441 0
M  V30 7583 H 729.212 -4.63809 -0.632387 0
M  V30 7584 H 729.385 -6.44984 -0.62442 0
M  V30 7585 N 722.791 0.367657 -1.53252 0
M  V30 7586 C 723.701 1.47415 -1.82499 0
M  V30 7587 C 724.717 1.58711 -0.713222 0
M  V30 7588 O 725.893 1.74644 -1.00306 0
M  V30 7589 C 722.958 2.82706 -2.00694 0
M  V30 7590 C 722.019 2.80955 -3.24596 0
M  V30 7591 C 721.252 4.09793 -3.41914 0
M  V30 7592 O 721.475 5.05852 -2.63572 0
M  V30 7593 O 720.409 4.15731 -4.3526 0
M  V30 7594 H 724.235 1.25624 -2.765 0
M  V30 7595 H 721.82 0.557559 -1.38606 0
M  V30 7596 H 723.702 3.62873 -2.14246 0
M  V30 7597 H 722.377 3.04479 -1.09883 0
M  V30 7598 H 721.284 1.99494 -3.16469 0
M  V30 7599 H 722.617 2.64136 -4.15323 0
M  V30 7600 N 724.269 1.44576 0.627338 0
M  V30 7601 C 725.201 1.47724 1.75243 0
M  V30 7602 C 726.214 0.370193 1.58535 0
M  V30 7603 O 727.403 0.636151 1.66779 0
M  V30 7604 C 724.503 1.2991 3.13012 0
M  V30 7605 C 723.676 2.5393 3.56143 0
M  V30 7606 C 722.735 2.30961 4.72804 0
M  V30 7607 O 721.761 3.04469 4.80923 0
M  V30 7608 N 722.963 1.34261 5.6476 0
M  V30 7609 H 725.728 2.44718 1.73012 0
M  V30 7610 H 723.289 1.40064 0.812022 0
M  V30 7611 H 725.281 1.12385 3.88782 0
M  V30 7612 H 723.851 0.412668 3.09864 0
M  V30 7613 H 723.071 2.86707 2.70542 0
M  V30 7614 H 724.359 3.36411 3.81713 0
M  V30 7615 H 723.757 0.735573 5.60897 0
M  V30 7616 H 722.314 1.22713 6.40144 0
M  V30 7617 N 725.747 -0.868086 1.31537 0
M  V30 7618 C 726.677 -1.99131 1.21939 0
M  V30 7619 C 727.658 -1.69768 0.106166 0
M  V30 7620 O 728.843 -1.92006 0.291081 0
M  V30 7621 C 725.973 -3.34676 0.927879 0
M  V30 7622 C 724.927 -3.7835 2.00088 0
M  V30 7623 C 724.253 -5.11375 1.56203 0
M  V30 7624 C 725.553 -3.95256 3.41424 0
M  V30 7625 H 727.247 -2.07419 2.15911 0
M  V30 7626 H 724.793 -0.996569 1.03945 0
M  V30 7627 H 726.746 -4.12793 0.847327 0
M  V30 7628 H 725.47 -3.26565 -0.0475042 0
M  V30 7629 H 724.129 -3.02474 2.07135 0
M  V30 7630 H 723.777 -4.99709 0.57445 0
M  V30 7631 H 723.477 -5.41568 2.27985 0
M  V30 7632 H 725.001 -5.92001 1.49558 0
M  V30 7633 H 726.415 -4.63764 3.3704 0
M  V30 7634 H 724.812 -4.36849 4.1144 0
M  V30 7635 H 725.882 -2.98579 3.82072 0
M  V30 7636 N 727.225 -1.14528 -1.08264 0
M  V30 7637 C 728.45 -0.938381 -1.84957 0
M  V30 7638 C 728.875 0.508044 -1.81109 0
M  V30 7639 O 728.233 1.36146 -1.19724 0
M  V30 7640 C 728.281 -1.44568 -3.30352 0
M  V30 7641 O 727.385 -0.638745 -4.07423 0
M  V30 7642 H 726.726 -0.335394 -0.573068 0
M  V30 7643 H 729.256 -1.52287 -1.36637 0
M  V30 7644 H 729.266 -1.45449 -3.81194 0
M  V30 7645 H 727.941 -2.49876 -3.32468 0
M  V30 7646 H 726.518 -0.698801 -3.66294 0
M  V30 7647 N 728.703 1.26451 -0.940633 0
M  V30 7648 C 729.951 1.93395 -0.586748 0
M  V30 7649 C 730.272 1.7417 0.876921 0
M  V30 7650 O 729.542 1.097 1.62304 0
M  V30 7651 H 728.122 0.715687 -0.214012 0
M  V30 7652 H 730.784 1.53902 -1.19584 0
M  V30 7653 H 729.88 3.01565 -0.804059 0
M  V30 7654 N 730.181 0.707592 1.40822 0
M  V30 7655 C 731.411 0.252706 2.05049 0
M  V30 7656 C 731.819 -1.10758 1.53393 0
M  V30 7657 O 731.162 -1.70567 0.682097 0
M  V30 7658 C 731.224 0.146001 3.59203 0
M  V30 7659 C 730.888 1.44027 4.33711 0
M  V30 7660 C 731.885 2.38058 4.62195 0
M  V30 7661 C 729.57 1.69698 4.72766 0
M  V30 7662 C 731.564 3.56013 5.28709 0
M  V30 7663 C 729.251 2.87936 5.39014 0
M  V30 7664 C 730.249 3.80915 5.66915 0
M  V30 7665 O 729.937 4.9708 6.31796 0
M  V30 7666 H 729.669 0.112784 0.666525 0
M  V30 7667 H 732.223 0.96417 1.81364 0
M  V30 7668 H 730.453 -0.621338 3.81676 0
M  V30 7669 H 732.142 -0.273275 4.04979 0
M  V30 7670 H 732.908 2.19487 4.32493 0
M  V30 7671 H 728.787 0.981835 4.50423 0
M  V30 7672 H 732.331 4.28604 5.50404 0
M  V30 7673 H 728.228 3.06419 5.68135 0
M  V30 7674 H 728.996 4.97053 6.50293 0
M  V30 7675 N 731.66 -1.50943 0.453197 0
M  V30 7676 C 732.607 -2.28128 -0.350197 0
M  V30 7677 C 733.577 -1.32398 -1.00299 0
M  V30 7678 O 734.762 -1.61319 -1.01887 0
M  V30 7679 C 731.902 -3.13782 -1.43649 0
M  V30 7680 C 731.015 -4.24523 -0.800255 0
M  V30 7681 C 730.15 -4.97462 -1.86293 0
M  V30 7682 C 729.189 -6.00102 -1.20598 0
M  V30 7683 N 728.326 -6.66387 -2.21071 0
M  V30 7684 H 733.166 -2.96337 0.31434 0
M  V30 7685 H 730.703 -1.46151 0.166863 0
M  V30 7686 H 732.661 -3.6178 -2.07776 0
M  V30 7687 H 731.291 -2.47655 -2.07044 0
M  V30 7688 H 730.343 -3.80371 -0.0468651 0
M  V30 7689 H 731.655 -4.98009 -0.280777 0
M  V30 7690 H 730.809 -5.49088 -2.58044 0
M  V30 7691 H 729.548 -4.23642 -2.41617 0
M  V30 7692 H 728.553 -5.47753 -0.474 0
M  V30 7693 H 729.778 -6.75887 -0.659859 0
M  V30 7694 H 727.724 -5.9537 -2.75446 0
M  V30 7695 H 727.641 -7.3569 -1.74058 0
M  V30 7696 H 728.909 -7.22638 -2.92257 0
M  V30 7697 N 733.138 -0.185124 -1.56509 0
M  V30 7698 C 734.554 0.170865 -1.58683 0
M  V30 7699 C 734.754 1.61799 -1.20098 0
M  V30 7700 O 733.81 2.35181 -0.919038 0
M  V30 7701 C 735.123 -0.122459 -3.00451 0
M  V30 7702 C 736.671 -0.0617699 -3.12939 0
M  V30 7703 C 737.146 -0.328269 -4.56822 0
M  V30 7704 N 738.637 -0.276533 -4.62374 0
M  V30 7705 C 739.372 -0.456722 -5.71578 0
M  V30 7706 N 738.868 -0.69672 -6.89288 0
M  V30 7707 N 740.661 -0.391669 -5.60734 0
M  V30 7708 H 732.812 -1.12956 -1.79874 0
M  V30 7709 H 735.075 -0.45011 -0.834329 0
M  V30 7710 H 734.781 -1.12546 -3.33206 0
M  V30 7711 H 734.655 0.579578 -3.72721 0
M  V30 7712 H 737.042 0.931826 -2.80002 0
M  V30 7713 H 737.123 -0.796732 -2.43076 0
M  V30 7714 H 736.767 -1.31914 -4.9047 0
M  V30 7715 H 736.697 0.427465 -5.24862 0
M  V30 7716 H 739.188 -0.0972458 -3.77775 0
M  V30 7717 H 739.501 -0.823291 -7.68402 0
M  V30 7718 H 737.846 -0.733497 -6.91119 0
M  V30 7719 H 741.037 -0.204663 -4.67652 0
M  V30 7720 H 741.21 -0.535518 -6.45783 0
M  V30 7721 N 734.616 1.57351 0.0885366 0
M  V30 7722 C 735.549 1.97786 1.13825 0
M  V30 7723 C 736.527 0.852091 1.38485 0
M  V30 7724 O 737.711 1.11296 1.52137 0
M  V30 7725 C 734.838 2.30024 2.48609 0
M  V30 7726 C 733.884 3.52437 2.40189 0
M  V30 7727 S 734.717 5.03908 1.81209 0
M  V30 7728 C 735.873 5.39331 3.17605 0
M  V30 7729 H 736.106 2.86513 0.793587 0
M  V30 7730 H 733.639 1.51527 0.29646 0
M  V30 7731 H 735.597 2.49274 3.26148 0
M  V30 7732 H 734.258 1.41856 2.80242 0
M  V30 7733 H 733.451 3.72457 3.39546 0
M  V30 7734 H 733.053 3.32731 1.70781 0
M  V30 7735 H 735.345 5.36378 4.13891 0
M  V30 7736 H 736.288 6.4029 3.02381 0
M  V30 7737 H 736.696 4.6679 3.17438 0
M  V30 7738 N 736.094 -0.359525 1.53444 0
M  V30 7739 C 737.51 -0.701599 1.43352 0
M  V30 7740 C 737.71 -1.93049 0.577439 0
M  V30 7741 O 736.766 -2.52423 0.0622224 0
M  V30 7742 C 738.079 -0.90915 2.86627 0
M  V30 7743 C 739.627 -1.00878 2.96298 0
M  V30 7744 C 740.102 -1.24876 4.40647 0
M  V30 7745 N 741.593 -1.31632 4.44103 0
M  V30 7746 C 742.328 -1.51922 5.52908 0
M  V30 7747 N 741.824 -1.69489 6.71748 0
M  V30 7748 N 743.617 -1.54341 5.40496 0
M  V30 7749 H 735.768 0.448685 2.07607 0
M  V30 7750 H 738.031 0.138713 0.937797 0
M  V30 7751 H 737.737 -0.0778997 3.51614 0
M  V30 7752 H 737.611 -1.81551 3.30634 0
M  V30 7753 H 739.998 -1.83057 2.31461 0
M  V30 7754 H 740.079 -0.0796721 2.55676 0
M  V30 7755 H 739.723 -0.431961 5.0606 0
M  V30 7756 H 739.653 -2.19118 4.78848 0
M  V30 7757 H 742.144 -1.19646 3.5846 0
M  V30 7758 H 742.457 -1.84561 7.50438 0
M  V30 7759 H 740.802 -1.66655 6.74723 0
M  V30 7760 H 743.993 -1.40188 4.46615 0
M  V30 7761 H 744.166 -1.69812 6.25354 0
M  V30 7762 N 737.572 -1.44907 -0.619662 0
M  V30 7763 C 738.988 -1.29046 -0.939107 0
M  V30 7764 C 739.188 -0.23462 -2.00129 0
M  V30 7765 O 738.244 0.37558 -2.49691 0
M  V30 7766 C 739.557 -2.66567 -1.39149 0
M  V30 7767 C 741.105 -2.74368 -1.50635 0
M  V30 7768 C 741.58 -4.12386 -1.99253 0
M  V30 7769 N 743.071 -4.1462 -2.06506 0
M  V30 7770 C 743.806 -5.18272 -2.4532 0
M  V30 7771 N 743.302 -6.32278 -2.83189 0
M  V30 7772 N 745.095 -5.05628 -2.45554 0
M  V30 7773 H 737.246 -2.12239 0.0826135 0
M  V30 7774 H 739.509 -0.947652 -0.0256829 0
M  V30 7775 H 739.215 -3.4496 -0.685254 0
M  V30 7776 H 739.089 -2.94224 -2.36034 0
M  V30 7777 H 741.476 -1.96287 -2.20353 0
M  V30 7778 H 741.557 -2.50439 -0.520963 0
M  V30 7779 H 741.201 -4.90947 -1.30127 0
M  V30 7780 H 741.131 -4.33699 -2.98684 0
M  V30 7781 H 743.622 -3.32343 -1.79878 0
M  V30 7782 H 743.935 -7.07172 -3.11652 0
M  V30 7783 H 742.28 -6.35699 -2.80913 0
M  V30 7784 H 745.471 -4.15613 -2.15367 0
M  V30 7785 H 745.644 -5.86529 -2.75478 0
M  V30 7786 N 739.05 0.861098 -1.31996 0
M  V30 7787 C 739.982 1.97551 -1.16216 0
M  V30 7788 C 740.995 1.625 -0.0988527 0
M  V30 7789 O 742.184 1.75091 -0.3472 0
M  V30 7790 C 739.284 3.30376 -0.755307 0
M  V30 7791 C 738.457 3.93711 -1.90552 0
M  V30 7792 C 737.516 5.04862 -1.48328 0
M  V30 7793 O 736.542 5.25204 -2.19431 0
M  V30 7794 N 737.744 5.79283 -0.375656 0
M  V30 7795 H 740.509 2.11632 -2.12208 0
M  V30 7796 H 738.07 1.03559 -1.24448 0
M  V30 7797 H 740.062 4.0213 -0.455364 0
M  V30 7798 H 738.632 3.12395 0.113269 0
M  V30 7799 H 737.852 3.14825 -2.37231 0
M  V30 7800 H 739.14 4.32762 -2.67571 0
M  V30 7801 H 738.538 5.65286 0.216284 0
M  V30 7802 H 737.095 6.5166 -0.135289 0
M  V30 7803 N 740.528 1.15101 1.07655 0
M  V30 7804 C 741.478 0.813448 2.12995 0
M  V30 7805 C 742.462 -0.200899 1.59641 0
M  V30 7806 O 743.654 -0.00209918 1.77 0
M  V30 7807 C 740.783 0.301078 3.41977 0
M  V30 7808 C 739.869 1.3454 4.02194 0
M  V30 7809 N 740.26 2.55181 4.36711 0
M  V30 7810 C 738.558 1.19742 4.29625 0
M  V30 7811 C 739.259 3.22094 4.84387 0
M  V30 7812 N 738.235 2.49486 4.82968 0
M  V30 7813 H 742.037 1.73105 2.37511 0
M  V30 7814 H 739.551 1.03601 1.25063 0
M  V30 7815 H 741.548 0.040914 4.1688 0
M  V30 7816 H 740.208 -0.610629 3.18907 0
M  V30 7817 H 741.219 2.92349 4.27496 0
M  V30 7818 H 737.896 0.345353 4.16069 0
M  V30 7819 H 739.286 4.24996 5.20411 0
M  V30 7820 N 742.006 -1.2595 0.947325 0
M  V30 7821 C 742.938 -2.25336 0.41906 0
M  V30 7822 C 743.951 -1.56135 -0.461051 0
M  V30 7823 O 745.14 -1.76438 -0.270505 0
M  V30 7824 C 742.24 -3.36334 -0.416233 0
M  V30 7825 C 741.413 -4.35088 0.449162 0
M  V30 7826 C 740.472 -5.25185 -0.326716 0
M  V30 7827 O 739.498 -5.68548 0.272374 0
M  V30 7828 N 740.7 -5.57388 -1.6217 0
M  V30 7829 H 743.465 -2.71298 1.27348 0
M  V30 7830 H 741.026 -1.39781 0.81688 0
M  V30 7831 H 743.018 -3.93564 -0.942826 0
M  V30 7832 H 741.588 -2.89819 -1.17148 0
M  V30 7833 H 740.808 -3.76841 1.15692 0
M  V30 7834 H 742.096 -4.98056 1.04008 0
M  V30 7835 H 741.494 -5.2405 -2.13046 0
M  V30 7836 H 740.051 -6.17234 -2.0944 0
M  V30 7837 N 743.484 -0.715051 -1.40445 0
M  V30 7838 C 744.431 -0.0621393 -2.30716 0
M  V30 7839 C 745.401 0.750871 -1.48159 0
M  V30 7840 O 746.586 0.714928 -1.76899 0
M  V30 7841 C 743.726 0.854036 -3.34365 0
M  V30 7842 C 742.839 0.0305565 -4.31989 0
M  V30 7843 C 741.974 0.946162 -5.22706 0
M  V30 7844 C 741.013 0.116741 -6.11989 0
M  V30 7845 N 740.15 0.987194 -6.95125 0
M  V30 7846 H 744.99 -0.83764 -2.85985 0
M  V30 7847 H 742.527 -0.424759 -1.40834 0
M  V30 7848 H 744.485 1.39946 -3.93028 0
M  V30 7849 H 743.115 1.59572 -2.806 0
M  V30 7850 H 742.167 -0.632044 -3.75112 0
M  V30 7851 H 743.479 -0.611615 -4.95036 0
M  V30 7852 H 742.633 1.56014 -5.86297 0
M  V30 7853 H 741.372 1.62216 -4.59932 0
M  V30 7854 H 740.377 -0.510176 -5.47428 0
M  V30 7855 H 741.602 -0.555742 -6.76822 0
M  V30 7856 H 739.548 1.64885 -6.3494 0
M  V30 7857 H 739.465 0.401046 -7.54936 0
M  V30 7858 H 740.733 1.58737 -7.63166 0
M  V30 7859 N 744.962 1.50701 -0.461195 0
M  V30 7860 C 745.894 2.26124 0.374244 0
M  V30 7861 C 746.907 1.31064 0.965715 0
M  V30 7862 O 748.096 1.56647 0.855801 0
M  V30 7863 C 745.196 3.01996 1.5379 0
M  V30 7864 C 744.369 4.24336 1.06101 0
M  V30 7865 C 743.428 4.82585 2.09756 0
M  V30 7866 O 742.454 5.43775 1.68219 0
M  V30 7867 N 743.656 4.68712 3.42475 0
M  V30 7868 H 746.421 2.9846 -0.2723 0
M  V30 7869 H 743.982 1.59256 -0.291415 0
M  V30 7870 H 745.974 3.37846 2.22806 0
M  V30 7871 H 744.544 2.32521 2.08933 0
M  V30 7872 H 743.764 3.93707 0.197085 0
M  V30 7873 H 745.052 5.03678 0.720156 0
M  V30 7874 H 744.45 4.20026 3.78938 0
M  V30 7875 H 743.007 5.08858 4.07317 0
M  V30 7876 N 746.441 0.193421 1.56409 0
M  V30 7877 C 747.371 -0.723334 2.22014 0
M  V30 7878 C 748.352 -1.22254 1.1827 0
M  V30 7879 O 749.537 -1.27168 1.46771 0
M  V30 7880 C 746.667 -1.94366 2.87818 0
M  V30 7881 C 745.621 -1.57943 3.97791 0
M  V30 7882 C 744.947 -2.87623 4.50752 0
M  V30 7883 C 746.247 -0.790639 5.16281 0
M  V30 7884 H 747.941 -0.176426 2.9888 0
M  V30 7885 H 745.487 -0.0834166 1.43758 0
M  V30 7886 H 747.44 -2.5902 3.32396 0
M  V30 7887 H 746.164 -2.51507 2.08355 0
M  V30 7888 H 744.823 -0.956482 3.53903 0
M  V30 7889 H 744.471 -3.4285 3.68053 0
M  V30 7890 H 744.171 -2.63998 5.24956 0
M  V30 7891 H 745.695 -3.53268 4.9803 0
M  V30 7892 H 747.109 -1.34024 5.57414 0
M  V30 7893 H 745.506 -0.65258 5.96541 0
M  V30 7894 H 746.576 0.208633 4.84451 0
M  V30 7895 N 747.919 -1.57396 -0.0801906 0
M  V30 7896 C 748.849 -2.06145 -1.09665 0
M  V30 7897 C 749.83 -0.953273 -1.40878 0
M  V30 7898 O 751.015 -1.22548 -1.50651 0
M  V30 7899 C 748.145 -2.49836 -2.41245 0
M  V30 7900 C 747.099 -3.64454 -2.24405 0
M  V30 7901 C 746.425 -3.94172 -3.61293 0
M  V30 7902 C 747.725 -4.94807 -1.67223 0
M  V30 7903 H 749.419 -2.91316 -0.691028 0
M  V30 7904 H 746.965 -1.40145 -0.330957 0
M  V30 7905 H 748.918 -2.82552 -3.12638 0
M  V30 7906 H 747.642 -1.61683 -2.83771 0
M  V30 7907 H 746.301 -3.32008 -1.55454 0
M  V30 7908 H 745.949 -3.03163 -4.01374 0
M  V30 7909 H 745.649 -4.71345 -3.50867 0
M  V30 7910 H 747.173 -4.29376 -4.3413 0
M  V30 7911 H 748.587 -5.25807 -2.28472 0
M  V30 7912 H 746.984 -5.76245 -1.67515 0
M  V30 7913 H 748.054 -4.80751 -0.632944 0
M  V30 7914 N 749.397 0.351382 -1.53633 0
M  V30 7915 C 750.36 1.41403 -1.80383 0
M  V30 7916 C 751.36 1.45963 -0.674635 0
M  V30 7917 O 752.55 1.46476 -0.942895 0
M  V30 7918 C 749.682 2.80401 -1.93876 0
M  V30 7919 H 750.875 1.18951 -2.75301 0
M  V30 7920 H 748.428 0.58533 -1.44926 0
M  V30 7921 H 749.163 3.08147 -1.01074 0
M  V30 7922 H 748.948 2.78488 -2.7602 0
M  V30 7923 H 750.438 3.57329 -2.16116 0
M  V30 7924 N 750.875 1.45233 0.611969 0
M  V30 7925 C 751.805 1.5641 1.73373 0
M  V30 7926 C 752.786 0.415896 1.64937 0
M  V30 7927 O 753.971 0.638478 1.83404 0
M  V30 7928 C 751.101 1.52627 3.11965 0
M  V30 7929 C 750.055 2.66119 3.35208 0
M  V30 7930 C 749.381 2.4739 4.74028 0
M  V30 7931 C 750.681 4.08157 3.25891 0
M  V30 7932 H 752.375 2.50307 1.64277 0
M  V30 7933 H 749.921 1.20467 0.788904 0
M  V30 7934 H 751.874 1.59043 3.90235 0
M  V30 7935 H 750.598 0.552564 3.21892 0
M  V30 7936 H 749.257 2.59123 2.59327 0
M  V30 7937 H 748.905 1.48168 4.80682 0
M  V30 7938 H 748.605 3.23494 4.90536 0
M  V30 7939 H 750.129 2.55653 5.54503 0
M  V30 7940 H 751.543 4.1642 3.9404 0
M  V30 7941 H 749.94 4.84617 3.5393 0
M  V30 7942 H 751.01 4.30374 2.23397 0
M  V30 7943 N 752.353 -0.854086 1.3245 0
M  V30 7944 C 753.263 -1.99503 1.23434 0
M  V30 7945 C 754.279 -1.73371 0.147828 0
M  V30 7946 O 755.455 -1.97998 0.368609 0
M  V30 7947 C 752.52 -3.33192 0.958328 0
M  V30 7948 C 751.581 -3.72542 2.13333 0
M  V30 7949 C 750.814 -4.99852 1.8704 0
M  V30 7950 O 751.037 -5.64573 0.813239 0
M  V30 7951 O 749.971 -5.36345 2.73161 0
M  V30 7952 H 753.797 -2.10046 2.1935 0
M  V30 7953 H 751.382 -0.984823 1.12346 0
M  V30 7954 H 753.264 -4.13327 0.820918 0
M  V30 7955 H 751.939 -3.23687 0.0293299 0
M  V30 7956 H 750.846 -2.92981 2.32622 0
M  V30 7957 H 752.179 -3.86694 3.04514 0
M  V30 7958 N 753.831 -1.1567 -1.07043 0
M  V30 7959 C 755.056 -0.957946 -1.83952 0
M  V30 7960 C 755.481 0.488807 -1.81638 0
M  V30 7961 O 754.839 1.34869 -1.21162 0
M  V30 7962 C 754.887 -1.48064 -3.288 0
M  V30 7963 O 753.991 -0.681921 -4.06723 0
M  V30 7964 H 753.332 -0.341453 -0.569479 0
M  V30 7965 H 755.862 -1.53728 -1.35015 0
M  V30 7966 H 755.872 -1.49484 -3.7963 0
M  V30 7967 H 754.547 -2.53388 -3.29799 0
M  V30 7968 H 753.124 -0.737612 -3.65532 0
M  V30 7969 N 755.309 1.25446 -0.953992 0
M  V30 7970 C 756.725 1.4539 -0.658316 0
M  V30 7971 C 756.925 1.85607 0.784356 0
M  V30 7972 O 755.981 1.98568 1.55972 0
M  V30 7973 C 757.294 2.52643 -1.6307 0
M  V30 7974 C 758.842 2.66484 -1.64181 0
M  V30 7975 C 759.317 3.76921 -2.60182 0
M  V30 7976 N 760.808 3.84331 -2.58542 0
M  V30 7977 C 761.543 4.69271 -3.29503 0
M  V30 7978 N 761.039 5.58503 -4.09934 0
M  V30 7979 N 762.832 4.6323 -3.18393 0
M  V30 7980 H 754.983 0.976337 -1.8863 0
M  V30 7981 H 757.246 0.490343 -0.811337 0
M  V30 7982 H 756.952 2.29949 -2.66114 0
M  V30 7983 H 756.826 3.50547 -1.39271 0
M  V30 7984 H 759.213 2.88545 -0.618552 0
M  V30 7985 H 759.294 1.68982 -1.92038 0
M  V30 7986 H 758.938 3.55612 -3.62633 0
M  V30 7987 H 758.868 4.73906 -2.29609 0
M  V30 7988 H 761.359 3.20544 -2.0015 0
M  V30 7989 H 761.672 6.20241 -4.61 0
M  V30 7990 H 760.017 5.58214 -4.14032 0
M  V30 7991 H 763.208 3.92527 -2.5503 0
M  V30 7992 H 763.381 5.29204 -3.73961 0
M  V30 7993 N 756.787 0.722489 1.40064 0
M  V30 7994 C 757.717 0.0892452 2.33329 0
M  V30 7995 C 758.698 -0.737992 1.53257 0
M  V30 7996 O 759.883 -0.685516 1.81698 0
M  V30 7997 C 757.013 -0.828139 3.37282 0
M  V30 7998 C 755.967 -0.106005 4.27869 0
M  V30 7999 C 755.293 -1.13957 5.22415 0
M  V30 8000 C 756.593 1.04395 5.11761 0
M  V30 8001 H 758.287 0.868269 2.86534 0
M  V30 8002 H 755.833 0.418982 1.3777 0
M  V30 8003 H 757.786 -1.28058 4.01471 0
M  V30 8004 H 756.51 -1.63914 2.82489 0
M  V30 8005 H 755.169 0.326683 3.65142 0
M  V30 8006 H 754.817 -1.9438 4.63924 0
M  V30 8007 H 754.517 -0.661233 5.83868 0
M  V30 8008 H 756.041 -1.59197 5.89482 0
M  V30 8009 H 757.455 0.670541 5.69365 0
M  V30 8010 H 755.852 1.4511 5.82291 0
M  V30 8011 H 756.922 1.87144 4.47331 0
M  V30 8012 N 758.265 -1.50454 0.469181 0
M  V30 8013 C 759.681 -1.59124 0.123226 0
M  V30 8014 C 759.881 -1.47749 -1.37013 0
M  V30 8015 O 758.937 -1.335 -2.14322 0
M  V30 8016 C 760.25 -2.93101 0.67172 0
M  V30 8017 C 761.798 -3.06491 0.634978 0
M  V30 8018 C 762.273 -4.43041 1.16098 0
M  V30 8019 N 763.764 -4.49448 1.12031 0
M  V30 8020 C 764.499 -5.53491 1.49784 0
M  V30 8021 N 763.995 -6.64798 1.94976 0
M  V30 8022 N 765.788 -5.44025 1.41399 0
M  V30 8023 H 757.939 -1.56091 1.44046 0
M  V30 8024 H 760.202 -0.737564 0.59557 0
M  V30 8025 H 759.908 -3.06895 1.7178 0
M  V30 8026 H 759.782 -3.77027 0.114222 0
M  V30 8027 H 762.169 -2.92346 -0.402187 0
M  V30 8028 H 762.25 -2.24328 1.22926 0
M  V30 8029 H 761.894 -4.57935 2.19677 0
M  V30 8030 H 761.824 -5.23794 0.542939 0
M  V30 8031 H 764.315 -3.69575 0.788828 0
M  V30 8032 H 764.628 -7.40246 2.21936 0
M  V30 8033 H 762.973 -6.65923 1.98927 0
M  V30 8034 H 766.164 -4.55955 1.05935 0
M  V30 8035 H 766.337 -6.2499 1.71147 0
M  V30 8036 N 759.743 -0.201713 -1.56304 0
M  V30 8037 C 760.991 0.434447 -1.97375 0
M  V30 8038 C 761.312 1.61692 -1.08998 0
M  V30 8039 O 760.582 1.95223 -0.162682 0
M  V30 8040 H 759.162 0.163497 -0.728888 0
M  V30 8041 H 761.824 -0.289988 -1.92731 0
M  V30 8042 H 760.92 0.774136 -3.02347 0
M  V30 8043 N 761.222 1.57436 0.0718424 0
M  V30 8044 C 762.132 2.07039 1.10326 0
M  V30 8045 C 763.148 0.999918 1.424 0
M  V30 8046 O 764.324 1.31462 1.52577 0
M  V30 8047 C 761.389 2.50439 2.39752 0
M  V30 8048 C 760.45 3.71784 2.14651 0
M  V30 8049 C 759.683 4.13104 3.37906 0
M  V30 8050 O 759.906 3.54298 4.47023 0
M  V30 8051 O 758.84 5.05894 3.26121 0
M  V30 8052 H 762.666 2.95239 0.711872 0
M  V30 8053 H 760.251 1.46638 0.28597 0
M  V30 8054 H 762.133 2.78876 3.15921 0
M  V30 8055 H 760.808 1.65368 2.78271 0
M  V30 8056 H 759.715 3.48431 1.36187 0
M  V30 8057 H 761.048 4.57707 1.81012 0
M  V30 8058 N 762.7 -0.34323 1.53817 0
M  V30 8059 C 764.116 -0.686355 1.44088 0
M  V30 8060 C 764.316 -1.92426 0.597882 0
M  V30 8061 O 763.372 -2.52343 0.0889918 0
M  V30 8062 C 764.685 -0.878698 2.87575 0
M  V30 8063 C 766.233 -0.977296 2.97352 0
M  V30 8064 C 766.708 -1.20195 4.41947 0
M  V30 8065 N 768.199 -1.26915 4.45474 0
M  V30 8066 C 768.934 -1.46049 5.54488 0
M  V30 8067 N 768.43 -1.62354 6.73508 0
M  V30 8068 N 770.223 -1.48599 5.42102 0
M  V30 8069 H 762.374 0.470679 2.07119 0
M  V30 8070 H 764.637 0.148652 0.936273 0
M  V30 8071 H 764.343 -0.040602 3.51677 0
M  V30 8072 H 764.217 -1.78034 3.32541 0
M  V30 8073 H 766.604 -1.80591 2.3339 0
M  V30 8074 H 766.685 -0.0525498 2.55746 0
M  V30 8075 H 766.329 -0.378262 5.06489 0
M  V30 8076 H 766.259 -2.14027 4.81145 0
M  V30 8077 H 768.75 -1.15837 3.59708 0
M  V30 8078 H 769.063 -1.76591 7.52353 0
M  V30 8079 H 767.408 -1.5949 6.76453 0
M  V30 8080 H 770.599 -1.35443 4.48077 0
M  V30 8081 H 770.772 -1.6317 6.2712 0
M  V30 8082 N 764.178 -1.45556 -0.604258 0
M  V30 8083 C 765.088 -1.57025 -1.74299 0
M  V30 8084 C 766.104 -0.45456 -1.67958 0
M  V30 8085 O 767.28 -0.715711 -1.88254 0
M  V30 8086 C 764.345 -1.53702 -3.10768 0
M  V30 8087 C 763.406 -2.76335 -3.28538 0
M  V30 8088 C 762.639 -2.73161 -4.58496 0
M  V30 8089 O 762.862 -1.80678 -5.41028 0
M  V30 8090 O 761.796 -3.64409 -4.79051 0
M  V30 8091 H 765.622 -2.53284 -1.67573 0
M  V30 8092 H 763.207 -1.28104 -0.768745 0
M  V30 8093 H 765.089 -1.54468 -3.92068 0
M  V30 8094 H 763.764 -0.605957 -3.17978 0
M  V30 8095 H 762.671 -2.8113 -2.46813 0
M  V30 8096 H 764.004 -3.68578 -3.26207 0
M  V30 8097 N 765.656 0.84705 -1.32902 0
M  V30 8098 C 766.566 1.98845 -1.2449 0
M  V30 8099 C 767.582 1.7329 -0.15702 0
M  V30 8100 O 768.758 1.978 -0.379104 0
M  V30 8101 C 765.823 3.32679 -0.975985 0
M  V30 8102 C 764.884 3.71405 -2.15306 0
M  V30 8103 C 764.117 4.98853 -1.89688 0
M  V30 8104 O 764.34 5.64134 -0.843168 0
M  V30 8105 O 763.274 5.34889 -2.76002 0
M  V30 8106 H 767.1 2.0888 -2.2046 0
M  V30 8107 H 764.685 0.978852 -1.12867 0
M  V30 8108 H 766.567 4.12885 -0.842826 0
M  V30 8109 H 765.242 3.23667 -0.0464954 0
M  V30 8110 H 764.149 2.91743 -2.34172 0
M  V30 8111 H 765.482 3.85073 -3.06561 0
M  V30 8112 N 767.134 1.16236 1.06428 0
M  V30 8113 C 768.084 0.835994 2.12121 0
M  V30 8114 C 769.068 -0.183955 1.59845 0
M  V30 8115 O 770.26 0.0166741 1.76992 0
M  V30 8116 C 767.389 0.337333 3.41639 0
M  V30 8117 C 766.475 1.38798 4.00744 0
M  V30 8118 N 766.866 2.59799 4.3398 0
M  V30 8119 C 765.164 1.24292 4.28331 0
M  V30 8120 C 765.865 3.27213 4.80943 0
M  V30 8121 N 764.841 2.54594 4.80294 0
M  V30 8122 H 768.643 1.75615 2.35662 0
M  V30 8123 H 766.157 1.04921 1.23957 0
M  V30 8124 H 768.154 0.0851274 4.16813 0
M  V30 8125 H 766.814 -0.57677 3.19536 0
M  V30 8126 H 767.825 2.96867 4.24371 0
M  V30 8127 H 764.502 0.389464 4.15679 0
M  V30 8128 H 765.892 4.30492 5.15874 0
M  V30 8129 N 768.612 -1.24939 0.960631 0
M  V30 8130 C 769.837 -1.9742 0.635608 0
M  V30 8131 C 770.262 -1.70857 -0.786737 0
M  V30 8132 O 769.62 -0.968063 -1.53291 0
M  V30 8133 C 769.668 -3.48987 0.907771 0
M  V30 8134 O 768.772 -4.12399 -0.0104053 0
M  V30 8135 H 768.113 -0.61871 0.241027 0
M  V30 8136 H 770.643 -1.58901 1.28886 0
M  V30 8137 H 770.653 -3.99334 0.836453 0
M  V30 8138 H 769.328 -3.6765 1.94439 0
M  V30 8139 H 767.905 -3.72727 0.113631 0
M  V30 8140 N 770.09 -0.729906 -1.39679 0
M  V30 8141 C 771.053 -0.0951668 -2.29002 0
M  V30 8142 C 772.053 0.672471 -1.46063 0
M  V30 8143 O 773.243 0.502245 -1.66803 0
M  V30 8144 C 770.375 0.874631 -3.29489 0
M  V30 8145 H 771.568 -0.882062 -2.86635 0
M  V30 8146 H 769.121 -0.495424 -1.4824 0
M  V30 8147 H 769.856 1.68807 -2.76902 0
M  V30 8148 H 769.641 0.326893 -3.90735 0
M  V30 8149 H 771.131 1.31548 -3.96339 0
M  V30 8150 N 771.568 1.50203 -0.477153 0
M  V30 8151 C 772.984 1.59056 -0.131663 0
M  V30 8152 C 773.184 1.48473 1.36227 0
M  V30 8153 O 772.24 1.34635 2.13611 0
M  V30 8154 C 773.553 2.92741 -0.687254 0
M  V30 8155 C 775.101 3.0615 -0.651223 0
M  V30 8156 C 775.576 4.42419 -1.18446 0
M  V30 8157 N 777.067 4.48847 -1.14413 0
M  V30 8158 C 777.802 5.52689 -1.52717 0
M  V30 8159 N 777.298 6.63754 -1.98499 0
M  V30 8160 N 779.091 5.43267 -1.44282 0
M  V30 8161 H 771.242 1.55325 -1.44872 0
M  V30 8162 H 773.505 0.734395 -0.599473 0
M  V30 8163 H 773.211 3.0598 -1.73405 0
M  V30 8164 H 773.085 3.76961 -0.134215 0
M  V30 8165 H 775.472 2.92556 0.386677 0
M  V30 8166 H 775.553 2.23673 -1.24114 0
M  V30 8167 H 775.197 4.56763 -2.22103 0
M  V30 8168 H 775.127 5.23498 -0.570709 0
M  V30 8169 H 777.618 3.69152 -0.808416 0
M  V30 8170 H 777.931 7.39059 -2.25859 0
M  V30 8171 H 776.276 6.64858 -2.02456 0
M  V30 8172 H 779.467 4.55387 -1.08352 0
M  V30 8173 H 779.64 6.24074 -1.74459 0
M  V30 8174 N 773.046 0.209999 1.56195 0
M  V30 8175 C 773.976 -0.699746 2.22769 0
M  V30 8176 C 774.957 -1.20993 1.1956 0
M  V30 8177 O 776.142 -1.25605 1.48112 0
M  V30 8178 C 773.272 -1.91302 2.89863 0
M  V30 8179 C 772.226 -1.53715 3.99444 0
M  V30 8180 C 771.552 -2.82826 4.53777 0
M  V30 8181 C 772.852 -0.735836 5.17091 0
M  V30 8182 H 774.546 -0.144716 2.9905 0
M  V30 8183 H 772.092 -0.0681645 1.43839 0
M  V30 8184 H 774.045 -2.5548 3.35124 0
M  V30 8185 H 772.769 -2.49283 2.11011 0
M  V30 8186 H 771.428 -0.918892 3.54897 0
M  V30 8187 H 771.076 -3.38927 3.71669 0
M  V30 8188 H 770.776 -2.58415 5.27727 0
M  V30 8189 H 772.3 -3.47966 5.01749 0
M  V30 8190 H 773.714 -1.28105 5.58804 0
M  V30 8191 H 772.111 -0.589272 5.972 0
M  V30 8192 H 773.181 0.260004 4.84202 0
M  V30 8193 N 774.524 -1.57472 -0.0634922 0
M  V30 8194 C 775.456 -2.00999 -1.10145 0
M  V30 8195 C 776.469 -0.917219 -1.34503 0
M  V30 8196 O 777.658 -1.19501 -1.32596 0
M  V30 8197 C 774.758 -2.34089 -2.45063 0
M  V30 8198 C 773.931 -3.65317 -2.40546 0
M  V30 8199 C 772.99 -3.85982 -3.57637 0
M  V30 8200 O 772.016 -4.5747 -3.38689 0
M  V30 8201 N 773.218 -3.28971 -4.78287 0
M  V30 8202 H 775.983 -2.90656 -0.730714 0
M  V30 8203 H 773.544 -1.59926 -0.252017 0
M  V30 8204 H 775.536 -2.4508 -3.22053 0
M  V30 8205 H 774.106 -1.50279 -2.74107 0
M  V30 8206 H 773.326 -3.65003 -1.48885 0
M  V30 8207 H 774.614 -4.51468 -2.34636 0
M  V30 8208 H 774.012 -2.70962 -4.96584 0
M  V30 8209 H 772.569 -3.45398 -5.5276 0
M  V30 8210 N 776.003 0.335068 -1.53997 0
M  V30 8211 C 777.419 0.678704 -1.4445 0
M  V30 8212 C 777.619 1.92106 -0.608078 0
M  V30 8213 O 776.675 2.52292 -0.102373 0
M  V30 8214 C 777.988 0.863435 -2.88037 0
M  V30 8215 C 779.536 0.961513 -2.97866 0
M  V30 8216 C 780.011 1.1785 -4.42578 0
M  V30 8217 N 781.502 1.2455 -4.46141 0
M  V30 8218 C 782.237 1.43106 -5.55255 0
M  V30 8219 N 781.733 1.5878 -6.74359 0
M  V30 8220 N 783.526 1.45722 -5.42883 0
M  V30 8221 H 775.677 -0.481656 -2.06867 0
M  V30 8222 H 777.94 -0.153615 -0.935471 0
M  V30 8223 H 777.646 0.0219511 -3.51693 0
M  V30 8224 H 777.52 1.76268 -3.33481 0
M  V30 8225 H 779.907 1.79351 -2.34344 0
M  V30 8226 H 779.988 0.0389862 -2.5577 0
M  V30 8227 H 779.632 0.351397 -5.06683 0
M  V30 8228 H 779.562 2.11472 -4.82273 0
M  V30 8229 H 782.053 1.13928 -3.60318 0
M  V30 8230 H 782.366 1.72599 -7.53279 0
M  V30 8231 H 780.711 1.559 -6.77289 0
M  V30 8232 H 783.902 1.33065 -4.48789 0
M  V30 8233 H 784.075 1.59841 -6.27977 0
M  V30 8234 N 777.481 1.45874 0.596531 0
M  V30 8235 C 778.391 1.57947 1.73464 0
M  V30 8236 C 779.407 0.463461 1.67714 0
M  V30 8237 O 780.583 0.725685 1.87872 0
M  V30 8238 C 777.648 1.55348 3.09948 0
M  V30 8239 C 776.709 2.78074 3.27068 0
M  V30 8240 C 775.942 2.75589 4.57041 0
M  V30 8241 O 776.165 1.83545 5.40063 0
M  V30 8242 O 775.099 3.66945 4.77111 0
M  V30 8243 H 778.925 2.54169 1.66228 0
M  V30 8244 H 776.51 1.2851 0.76194 0
M  V30 8245 H 778.392 1.56545 3.91244 0
M  V30 8246 H 777.067 0.622811 3.17652 0
M  V30 8247 H 775.974 2.82435 2.45319 0
M  V30 8248 H 777.307 3.70303 3.24248 0
M  V30 8249 N 778.959 -0.83999 1.33349 0
M  V30 8250 C 779.889 -1.965 1.26135 0
M  V30 8251 C 780.87 -1.69505 0.142152 0
M  V30 8252 O 782.055 -1.91346 0.331743 0
M  V30 8253 C 779.185 -3.32632 0.99866 0
M  V30 8254 C 778.139 -3.74021 2.08068 0
M  V30 8255 C 777.465 -5.07947 1.67014 0
M  V30 8256 C 778.765 -3.87925 3.49731 0
M  V30 8257 H 780.459 -2.02793 2.20262 0
M  V30 8258 H 778.005 -0.974297 1.06035 0
M  V30 8259 H 779.958 -4.10903 0.934696 0
M  V30 8260 H 778.682 -3.26593 0.0217759 0
M  V30 8261 H 777.341 -2.98012 2.13505 0
M  V30 8262 H 776.989 -4.98378 0.680316 0
M  V30 8263 H 776.689 -5.36611 2.39422 0
M  V30 8264 H 778.213 -5.88695 1.62082 0
M  V30 8265 H 779.627 -4.5651 3.46802 0
M  V30 8266 H 778.024 -4.28023 4.20614 0
M  V30 8267 H 779.094 -2.90407 3.88319 0
M  V30 8268 N 780.437 -1.16799 -1.0581 0
M  V30 8269 C 781.347 -0.893492 -2.16919 0
M  V30 8270 C 782.363 0.136061 -1.73467 0
M  V30 8271 O 783.539 -0.0417348 -2.01357 0
M  V30 8272 C 780.604 -0.403763 -3.44341 0
M  V30 8273 C 779.665 -1.49914 -4.02274 0
M  V30 8274 C 778.898 -1.03269 -5.23614 0
M  V30 8275 O 779.121 0.115647 -5.70283 0
M  V30 8276 O 778.055 -1.8231 -5.73626 0
M  V30 8277 H 781.881 -1.82274 -2.42919 0
M  V30 8278 H 779.466 -0.948361 -1.1544 0
M  V30 8279 H 781.348 -0.137874 -4.21174 0
M  V30 8280 H 780.023 0.497413 -3.19855 0
M  V30 8281 H 778.93 -1.81883 -3.26909 0
M  V30 8282 H 780.263 -2.3758 -4.31064 0
M  V30 8283 N 781.915 1.24427 -0.967243 0
M  V30 8284 C 782.878 2.23637 -0.501927 0
M  V30 8285 C 783.878 1.55712 0.401283 0
M  V30 8286 O 785.068 1.73085 0.196808 0
M  V30 8287 C 782.2 3.39804 0.273176 0
M  V30 8288 H 783.393 2.66317 -1.37897 0
M  V30 8289 H 780.946 1.37033 -0.751783 0
M  V30 8290 H 781.681 3.02562 1.16733 0
M  V30 8291 H 781.466 3.90303 -0.37498 0
M  V30 8292 H 782.956 4.13443 0.587776 0
M  V30 8293 N 783.393 0.737304 1.3929 0
M  V30 8294 C 784.325 0.0592106 2.29124 0
M  V30 8295 C 785.338 -0.701026 1.46934 0
M  V30 8296 O 786.527 -0.544808 1.69983 0
M  V30 8297 C 783.627 -0.940358 3.25592 0
M  V30 8298 C 782.8 -0.241163 4.36735 0
M  V30 8299 C 781.859 -1.14916 5.13498 0
M  V30 8300 O 780.885 -0.625783 5.6575 0
M  V30 8301 N 782.087 -2.47869 5.2492 0
M  V30 8302 H 784.852 0.830647 2.87959 0
M  V30 8303 H 782.413 0.586718 1.50895 0
M  V30 8304 H 784.405 -1.55046 3.73822 0
M  V30 8305 H 782.975 -1.61299 2.67771 0
M  V30 8306 H 782.195 0.549441 3.90352 0
M  V30 8307 H 783.483 0.243299 5.08218 0
M  V30 8308 H 782.881 -2.92864 4.83991 0
M  V30 8309 H 781.438 -3.03969 5.76581 0
M  V30 8310 N 784.871 -1.49948 0.485112 0
M  V30 8311 C 786.287 -1.58984 0.140096 0
M  V30 8312 C 786.487 -1.49194 -1.35438 0
M  V30 8313 O 785.543 -1.35765 -2.12894 0
M  V30 8314 C 786.856 -2.92372 0.702769 0
M  V30 8315 C 788.404 -3.05801 0.66745 0
M  V30 8316 C 788.879 -4.41785 1.20791 0
M  V30 8317 N 790.37 -4.48234 1.16792 0
M  V30 8318 C 791.105 -5.51871 1.55646 0
M  V30 8319 N 790.601 -6.62692 2.02016 0
M  V30 8320 N 792.394 -5.42494 1.47161 0
M  V30 8321 H 784.545 -1.54555 1.45693 0
M  V30 8322 H 786.808 -0.731206 0.603359 0
M  V30 8323 H 786.514 -3.05056 1.75025 0
M  V30 8324 H 786.388 -3.76885 0.154205 0
M  V30 8325 H 788.775 -2.92757 -0.371157 0
M  V30 8326 H 788.856 -2.23011 1.25298 0
M  V30 8327 H 788.5 -4.55579 2.24522 0
M  V30 8328 H 788.43 -5.23188 0.598464 0
M  V30 8329 H 790.921 -3.68718 0.827982 0
M  V30 8330 H 791.234 -7.3785 2.29775 0
M  V30 8331 H 789.579 -6.63775 2.05979 0
M  V30 8332 H 792.77 -4.54806 1.10765 0
M  V30 8333 H 792.943 -6.2314 1.77766 0
M  V30 8334 N 786.349 -0.21828 -1.56081 0
M  V30 8335 C 787.312 0.679633 -2.18892 0
M  V30 8336 C 788.312 1.12405 -1.14986 0
M  V30 8337 O 789.502 1.03339 -1.40238 0
M  V30 8338 C 786.634 1.93063 -2.80962 0
M  V30 8339 H 787.827 0.132066 -2.99609 0
M  V30 8340 H 785.38 0.0313374 -1.56269 0
M  V30 8341 H 786.115 2.52015 -2.04106 0
M  V30 8342 H 785.9 1.62046 -3.57048 0
M  V30 8343 H 787.39 2.57043 -3.29118 0
M  V30 8344 N 787.827 1.57504 0.0551401 0
M  V30 8345 C 789.075 1.87684 0.74962 0
M  V30 8346 C 789.396 0.812547 1.77264 0
M  V30 8347 O 788.666 -0.15694 1.9527 0
M  V30 8348 H 787.246 0.6926 0.279846 0
M  V30 8349 H 789.908 1.94881 0.0272745 0
M  V30 8350 H 789.004 2.85734 1.25548 0
M  V30 8351 N 789.305 -0.326896 1.54172 0
M  V30 8352 C 790.552 -1.06523 1.72218 0
M  V30 8353 C 790.88 -1.88119 0.494114 0
M  V30 8354 O 790.135 -1.8855 -0.524147 0
M  V30 8355 C 790.434 -2.0208 2.94785 0
M  V30 8356 C 790.1 -1.36665 4.2969 0
M  V30 8357 C 788.762 -1.18556 4.66367 0
M  V30 8358 C 791.114 -0.896868 5.13425 0
M  V30 8359 C 788.442 -0.521113 5.84381 0
M  V30 8360 C 790.794 -0.246261 6.3212 0
M  V30 8361 C 789.458 -0.052987 6.67479 0
M  V30 8362 H 788.728 -0.389796 0.63019 0
M  V30 8363 H 791.375 -0.342725 1.88408 0
M  V30 8364 H 789.68 -2.8077 2.73268 0
M  V30 8365 H 791.377 -2.59231 3.05941 0
M  V30 8366 H 787.967 -1.51762 4.00832 0
M  V30 8367 H 792.151 -1.02458 4.85609 0
M  V30 8368 H 787.407 -0.36014 6.10338 0
M  V30 8369 H 791.581 0.125775 6.96286 0
M  V30 8370 H 789.208 0.463903 7.58783 0
M  V30 8371 N 790.784 -1.46188 -0.588786 0
M  V30 8372 C 792.032 -1.50885 -1.34455 0
M  V30 8373 C 792.353 -0.159555 -1.94346 0
M  V30 8374 O 791.623 0.813239 -1.78222 0
M  V30 8375 H 790.203 -0.555707 -0.499198 0
M  V30 8376 H 792.865 -1.82277 -0.690014 0
M  V30 8377 H 791.961 -2.25816 -2.15438 0
M  V30 8378 N 792.262 0.832906 -1.33792 0
M  V30 8379 C 793.225 1.92471 -1.24449 0
M  V30 8380 C 794.225 1.59981 -0.162085 0
M  V30 8381 O 795.415 1.69208 -0.414029 0
M  V30 8382 C 792.547 3.28278 -0.919044 0
M  V30 8383 H 793.74 2.0218 -2.21502 0
M  V30 8384 H 791.293 1.0257 -1.17936 0
M  V30 8385 H 792.028 3.24263 0.048738 0
M  V30 8386 H 791.813 3.53241 -1.70187 0
M  V30 8387 H 793.303 4.08253 -0.878576 0
M  V30 8388 N 793.74 1.17359 1.05189 0
M  V30 8389 C 794.65 0.904984 2.16442 0
M  V30 8390 C 795.666 -0.12686 1.73537 0
M  V30 8391 O 796.842 0.0524127 2.01332 0
M  V30 8392 C 793.907 0.422019 3.44122 0
M  V30 8393 C 792.968 1.52045 4.01473 0
M  V30 8394 C 792.201 1.06044 5.23059 0
M  V30 8395 O 792.424 -0.0854023 5.70336 0
M  V30 8396 O 791.358 1.85349 5.72651 0
M  V30 8397 H 795.184 1.8356 2.41949 0
M  V30 8398 H 792.769 0.95447 1.14936 0
M  V30 8399 H 794.651 0.160208 4.21095 0
M  V30 8400 H 793.326 -0.480444 3.20115 0
M  V30 8401 H 792.233 1.83615 3.25939 0
M  V30 8402 H 793.566 2.39863 4.29798 0
M  V30 8403 N 795.218 -1.23913 0.973828 0
M  V30 8404 C 796.181 -2.23367 0.51378 0
M  V30 8405 C 797.181 -1.55923 -0.39302 0
M  V30 8406 O 798.371 -1.73187 -0.187626 0
M  V30 8407 C 795.503 -3.39944 -0.255152 0
M  V30 8408 H 796.696 -2.65581 1.39307 0
M  V30 8409 H 794.249 -1.36632 0.759039 0
M  V30 8410 H 794.984 -3.03177 -1.15127 0
M  V30 8411 H 794.769 -3.90098 0.395673 0
M  V30 8412 H 796.259 -4.13749 -0.565842 0
M  V30 8413 N 796.696 -0.74468 -1.38897 0
M  V30 8414 C 797.606 -0.112892 -2.34328 0
M  V30 8415 C 798.622 0.71087 -1.58816 0
M  V30 8416 O 799.798 0.637092 -1.91058 0
M  V30 8417 C 796.863 0.776417 -3.37894 0
M  V30 8418 C 795.924 -0.0606999 -4.29257 0
M  V30 8419 C 795.157 0.786258 -5.27877 0
M  V30 8420 O 795.38 2.02463 -5.33259 0
M  V30 8421 O 794.314 0.209781 -6.01534 0
M  V30 8422 H 798.14 -0.900801 -2.90033 0
M  V30 8423 H 795.725 -0.505462 -1.4059 0
M  V30 8424 H 797.607 1.28496 -4.01331 0
M  V30 8425 H 796.282 1.54297 -2.84559 0
M  V30 8426 H 795.189 -0.614984 -3.69011 0
M  V30 8427 H 796.522 -0.789702 -4.85824 0
M  V30 8428 N 798.174 1.49689 -0.493057 0
M  V30 8429 C 799.121 2.28976 0.28959 0
M  V30 8430 C 800.091 1.35011 0.967536 0
M  V30 8431 O 801.276 1.63964 0.975736 0
M  V30 8432 C 798.416 3.1748 1.35279 0
M  V30 8433 C 797.529 4.26496 0.687418 0
M  V30 8434 C 796.664 5.02226 1.73038 0
M  V30 8435 C 795.703 6.03089 1.04645 0
M  V30 8436 N 794.84 6.72014 2.03325 0
M  V30 8437 H 799.68 2.954 -0.392798 0
M  V30 8438 H 797.217 1.45657 -0.205554 0
M  V30 8439 H 799.175 3.67162 1.98111 0
M  V30 8440 H 797.805 2.53057 2.00405 0
M  V30 8441 H 796.857 3.80362 -0.0540001 0
M  V30 8442 H 798.169 4.98578 0.14864 0
M  V30 8443 H 797.323 5.55737 2.43395 0
M  V30 8444 H 796.062 4.29899 2.303 0
M  V30 8445 H 795.067 5.48817 0.328606 0
M  V30 8446 H 796.292 6.77398 0.480428 0
M  V30 8447 H 794.238 6.02464 2.59564 0
M  V30 8448 H 794.155 7.40046 1.54492 0
M  V30 8449 H 795.423 7.30133 2.72995 0
M  V30 8450 N 799.652 0.226554 1.55963 0
M  V30 8451 C 800.582 -0.676079 2.23498 0
M  V30 8452 C 801.563 -1.19718 1.20837 0
M  V30 8453 O 802.748 -1.24027 1.49436 0
M  V30 8454 C 799.878 -1.88217 2.91876 0
M  V30 8455 C 798.832 -1.4947 4.01052 0
M  V30 8456 C 798.158 -2.77997 4.56751 0
M  V30 8457 C 799.458 -0.680951 5.17842 0
M  V30 8458 H 801.152 -0.112989 2.99187 0
M  V30 8459 H 798.698 -0.0529046 1.43903 0
M  V30 8460 H 800.651 -2.51911 3.37815 0
M  V30 8461 H 799.375 -2.47031 2.13643 0
M  V30 8462 H 798.034 -0.881199 3.55852 0
M  V30 8463 H 797.682 -3.34966 3.75243 0
M  V30 8464 H 797.382 -2.52803 5.30438 0
M  V30 8465 H 798.906 -3.42625 5.05411 0
M  V30 8466 H 800.32 -1.22171 5.60131 0
M  V30 8467 H 798.717 -0.525898 5.97791 0
M  V30 8468 H 799.787 0.311346 4.83899 0
M  V30 8469 N 801.13 -1.57531 -0.0467866 0
M  V30 8470 C 802.093 -2.04379 -1.03738 0
M  V30 8471 C 803.093 -0.944881 -1.3011 0
M  V30 8472 O 804.283 -1.20904 -1.25411 0
M  V30 8473 C 801.415 -2.44572 -2.37482 0
M  V30 8474 H 802.608 -2.93142 -0.633063 0
M  V30 8475 H 800.161 -1.53526 -0.293177 0
M  V30 8476 H 800.896 -1.58911 -2.82697 0
M  V30 8477 H 800.681 -3.24785 -2.19675 0
M  V30 8478 H 802.171 -2.81307 -3.08636 0
M  V30 8479 N 802.608 0.318715 -1.54344 0
M  V30 8480 C 804.024 0.663345 -1.45162 0
M  V30 8481 C 804.224 1.9145 -0.62842 0
M  V30 8482 O 803.28 2.5217 -0.129126 0
M  V30 8483 C 804.593 0.832836 -2.88937 0
M  V30 8484 C 806.141 0.929866 -2.98869 0
M  V30 8485 C 806.616 1.13149 -4.43803 0
M  V30 8486 N 808.107 1.19811 -4.47437 0
M  V30 8487 C 808.842 1.37209 -5.56742 0
M  V30 8488 N 808.338 1.51619 -6.76006 0
M  V30 8489 N 810.131 1.39956 -5.44398 0
M  V30 8490 H 802.282 -0.50357 -2.06344 0
M  V30 8491 H 804.545 -0.163528 -0.933789 0
M  V30 8492 H 804.251 -0.0153519 -3.51697 0
M  V30 8493 H 804.125 1.72721 -3.35332 0
M  V30 8494 H 806.512 1.76855 -2.36233 0
M  V30 8495 H 806.593 0.0118561 -2.55797 0
M  V30 8496 H 806.237 0.297636 -5.07027 0
M  V30 8497 H 806.167 2.06345 -4.84489 0
M  V30 8498 H 808.658 1.101 -3.61506 0
M  V30 8499 H 808.971 1.64599 -7.55067 0
M  V30 8500 H 807.316 1.48708 -6.78904 0
M  V30 8501 H 810.507 1.28298 -4.50175 0
M  V30 8502 H 810.68 1.53172 -6.29637 0
M  V30 8503 N 804.086 1.46499 0.581025 0
M  V30 8504 C 805.502 1.31491 0.904563 0
M  V30 8505 C 805.702 0.287598 1.99437 0
M  V30 8506 O 804.758 -0.309247 2.50599 0
M  V30 8507 C 806.071 2.70163 1.32032 0
M  V30 8508 C 807.619 2.78266 1.43308 0
M  V30 8509 C 808.094 4.17524 1.8825 0
M  V30 8510 N 809.585 4.19949 1.9544 0
M  V30 8511 C 810.32 5.24594 2.31493 0
M  V30 8512 N 809.816 6.39564 2.66326 0
M  V30 8513 N 811.609 5.11961 2.32062 0
M  V30 8514 H 803.76 2.11946 -0.138856 0
M  V30 8515 H 806.023 0.948 0.000548528 0
M  V30 8516 H 805.729 3.46655 0.593554 0
M  V30 8517 H 805.603 3.00379 2.2815 0
M  V30 8518 H 807.99 2.02061 2.15071 0
M  V30 8519 H 808.071 2.51732 0.45438 0
M  V30 8520 H 807.715 4.94225 1.17065 0
M  V30 8521 H 807.645 4.41466 2.87081 0
M  V30 8522 H 810.136 3.36996 1.71004 0
M  V30 8523 H 810.449 7.15187 2.92793 0
M  V30 8524 H 808.794 6.42923 2.6396 0
M  V30 8525 H 811.985 4.21177 2.04272 0
M  V30 8526 H 812.158 5.93626 2.5983 0
M  V30 8527 N 805.565 -0.825799 1.34232 0
M  V30 8528 C 806.515 -1.92533 1.22128 0
M  V30 8529 C 807.499 -1.60444 0.121002 0
M  V30 8530 O 808.691 -1.73497 0.350385 0
M  V30 8531 C 805.82 -3.29134 0.975995 0
M  V30 8532 C 804.906 -3.6735 2.11931 0
M  V30 8533 N 805.297 -3.77154 3.37029 0
M  V30 8534 C 803.595 -3.97179 2.02891 0
M  V30 8535 C 804.296 -4.10552 4.12095 0
M  V30 8536 N 803.272 -4.23619 3.40658 0
M  V30 8537 H 807.074 -1.98287 2.16932 0
M  V30 8538 H 804.588 -1.01929 1.26429 0
M  V30 8539 H 806.585 -4.07717 0.870187 0
M  V30 8540 H 805.245 -3.24679 0.036606 0
M  V30 8541 H 806.256 -3.60723 3.71618 0
M  V30 8542 H 802.933 -4.00861 1.16692 0
M  V30 8543 H 804.323 -4.25365 5.2011 0
M  V30 8544 N 807.043 -1.17915 -1.04565 0
M  V30 8545 C 807.975 -0.859359 -2.1248 0
M  V30 8546 C 808.988 0.140922 -1.62189 0
M  V30 8547 O 810.177 -0.0862361 -1.78292 0
M  V30 8548 C 807.277 -0.261811 -3.37887 0
M  V30 8549 C 806.45 -1.30651 -4.17431 0
M  V30 8550 C 805.509 -0.725575 -5.21174 0
M  V30 8551 O 804.535 -1.39901 -5.51739 0
M  V30 8552 N 805.737 0.479351 -5.78517 0
M  V30 8553 H 808.502 -1.78818 -2.40508 0
M  V30 8554 H 806.063 -1.07885 -1.20716 0
M  V30 8555 H 808.055 0.14028 -4.04457 0
M  V30 8556 H 806.625 0.570929 -3.07342 0
M  V30 8557 H 805.845 -1.88412 -3.46258 0
M  V30 8558 H 807.133 -2.01099 -4.67372 0
M  V30 8559 H 806.531 1.04431 -5.55977 0
M  V30 8560 H 805.088 0.823427 -6.46578 0
M  V30 8561 N 808.521 1.23394 -0.980386 0
M  V30 8562 C 809.484 2.23092 -0.525619 0
M  V30 8563 C 810.484 1.56129 0.384745 0
M  V30 8564 O 811.674 1.73284 0.178439 0
M  V30 8565 C 808.806 3.40074 0.23712 0
M  V30 8566 H 809.999 2.64839 -1.40714 0
M  V30 8567 H 807.552 1.36227 -0.766275 0
M  V30 8568 H 808.287 3.03783 1.13518 0
M  V30 8569 H 808.072 3.89883 -0.416356 0
M  V30 8570 H 809.562 4.14043 0.543892 0
M  V30 8571 N 809.999 0.752036 1.385 0
M  V30 8572 C 811.248 0.304294 1.99391 0
M  V30 8573 C 811.561 -1.11982 1.60373 0
M  V30 8574 O 812.767 -1.66795 2.14223 0
M  V30 8575 C 811.223 0.493101 3.56506 0
M  V30 8576 C 810.831 1.9262 4.04477 0
M  V30 8577 C 812.575 0.107994 4.24363 0
M  V30 8578 C 810.482 2.06365 5.54227 0
M  V30 8579 H 809.412 0.110024 0.745929 0
M  V30 8580 H 812.063 0.928355 1.58284 0
M  V30 8581 H 810.445 -0.20012 3.95494 0
M  V30 8582 H 811.619 2.65276 3.76783 0
M  V30 8583 H 809.934 2.26608 3.49339 0
M  V30 8584 H 812.531 0.189474 5.34364 0
M  V30 8585 H 812.874 -0.939165 4.05568 0
M  V30 8586 H 813.407 0.753011 3.90608 0
M  V30 8587 H 810.146 3.0933 5.77923 0
M  V30 8588 H 809.666 1.38167 5.83669 0
M  V30 8589 H 811.345 1.85286 6.19902 0
M  V30 8590 N 811.477 -1.49425 0.500989 0
M  V30 8591 C 812.725 -2.02053 -0.0434495 0
M  V30 8592 C 813.046 -1.38285 -1.37486 0
M  V30 8593 O 812.316 -0.538171 -1.88363 0
M  V30 8594 H 810.896 -0.746757 -0.0190469 0
M  V30 8595 H 813.558 -1.83449 0.658227 0
M  V30 8596 H 812.654 -3.11619 -0.173129 0
M  V30 8597 N 812.955 -0.234822 -1.55841 0
M  V30 8598 C 813.865 0.680828 -2.24504 0
M  V30 8599 C 814.881 1.20306 -1.25708 0
M  V30 8600 O 816.057 1.24188 -1.58554 0
M  V30 8601 C 813.122 1.86636 -2.92178 0
M  V30 8602 C 812.183 1.3848 -4.06352 0
M  V30 8603 C 811.416 2.51382 -4.70789 0
M  V30 8604 O 811.639 3.69831 -4.34259 0
M  V30 8605 O 810.573 2.21828 -5.59532 0
M  V30 8606 H 814.399 0.12583 -3.03439 0
M  V30 8607 H 811.984 -0.00381817 -1.494 0
M  V30 8608 H 813.866 2.55845 -3.34845 0
M  V30 8609 H 812.541 2.40921 -2.16192 0
M  V30 8610 H 811.448 0.660341 -3.68226 0
M  V30 8611 H 812.781 0.888177 -4.8412 0
M  V30 8612 N 814.433 1.57553 0.0384317 0
M  V30 8613 C 815.38 2.05942 1.04194 0
M  V30 8614 C 816.35 0.946637 1.36484 0
M  V30 8615 O 817.535 1.21658 1.46983 0
M  V30 8616 C 814.675 2.53588 2.34066 0
M  V30 8617 C 813.788 3.7862 2.08017 0
M  V30 8618 C 812.923 4.14915 3.31692 0
M  V30 8619 C 811.962 5.32891 3.01155 0
M  V30 8620 N 811.099 5.64662 4.17254 0
M  V30 8621 H 815.939 2.91429 0.622341 0
M  V30 8622 H 813.476 1.44098 0.295684 0
M  V30 8623 H 815.434 2.79276 3.09937 0
M  V30 8624 H 814.064 1.71031 2.73767 0
M  V30 8625 H 813.116 3.60073 1.22686 0
M  V30 8626 H 814.428 4.64613 1.81484 0
M  V30 8627 H 813.582 4.41681 4.15936 0
M  V30 8628 H 812.321 3.27555 3.6133 0
M  V30 8629 H 811.326 5.05887 2.15311 0
M  V30 8630 H 812.551 6.21896 2.72804 0
M  V30 8631 H 810.497 4.80261 4.46861 0
M  V30 8632 H 810.414 6.45145 3.94112 0
M  V30 8633 H 811.682 5.96 5.02399 0
M  V30 8634 N 815.911 -0.310526 1.54511 0
M  V30 8635 C 816.821 -1.4054 1.87844 0
M  V30 8636 C 817.837 -1.55954 0.771635 0
M  V30 8637 O 819.013 -1.70801 1.06719 0
M  V30 8638 C 816.078 -2.75063 2.11048 0
M  V30 8639 C 815.139 -2.68715 3.348 0
M  V30 8640 C 814.372 -3.96821 3.56887 0
M  V30 8641 O 814.595 -4.95721 2.82165 0
M  V30 8642 O 813.529 -3.99291 4.50389 0
M  V30 8643 H 817.355 -1.15275 2.80972 0
M  V30 8644 H 814.94 -0.505732 1.4058 0
M  V30 8645 H 816.822 -3.54671 2.27566 0
M  V30 8646 H 815.497 -3.00191 1.21108 0
M  V30 8647 H 814.404 -1.87611 3.23655 0
M  V30 8648 H 815.737 -2.4854 4.2484 0
M  V30 8649 N 817.389 -1.46805 -0.573248 0
M  V30 8650 C 818.352 -1.57655 -1.66366 0
M  V30 8651 C 819.352 -0.452905 -1.5429 0
M  V30 8652 O 820.542 -0.717502 -1.58737 0
M  V30 8653 C 817.674 -1.50584 -3.05839 0
M  V30 8654 H 818.867 -2.54842 -1.581 0
M  V30 8655 H 816.42 -1.34756 -0.791868 0
M  V30 8656 H 817.155 -0.547127 -3.19651 0
M  V30 8657 H 816.94 -2.32118 -3.16012 0
M  V30 8658 H 818.43 -1.61282 -3.85199 0
M  V30 8659 N 818.867 0.818669 -1.34668 0
M  V30 8660 C 820.283 1.11243 -1.14443 0
M  V30 8661 C 820.483 2.01435 0.0512212 0
M  V30 8662 O 819.539 2.41854 0.725471 0
M  V30 8663 C 820.852 1.75504 -2.4417 0
M  V30 8664 C 822.4 1.8798 -2.50265 0
M  V30 8665 C 822.875 2.55657 -3.80004 0
M  V30 8666 N 824.366 2.63153 -3.81189 0
M  V30 8667 C 825.101 3.16258 -4.78298 0
M  V30 8668 N 824.597 3.69893 -5.85791 0
M  V30 8669 N 826.39 3.14698 -4.65748 0
M  V30 8670 H 818.541 0.218848 -2.1127 0
M  V30 8671 H 820.804 0.159655 -0.934459 0
M  V30 8672 H 820.51 1.16697 -3.31775 0
M  V30 8673 H 820.384 2.75329 -2.57825 0
M  V30 8674 H 822.771 2.45934 -1.63096 0
M  V30 8675 H 822.852 0.870447 -2.40535 0
M  V30 8676 H 822.496 1.98356 -4.67565 0
M  V30 8677 H 822.426 3.57105 -3.87019 0
M  V30 8678 H 824.917 2.2514 -3.03513 0
M  V30 8679 H 825.23 4.08678 -6.55898 0
M  V30 8680 H 823.575 3.68125 -5.89499 0
M  V30 8681 H 826.766 2.72066 -3.80917 0
M  V30 8682 H 826.939 3.5578 -5.41594 0
M  V30 8683 N 820.346 1.18468 1.03938 0
M  V30 8684 C 821.309 0.914944 2.10146 0
M  V30 8685 C 822.309 -0.10022 1.60487 0
M  V30 8686 O 823.499 0.133365 1.73689 0
M  V30 8687 C 820.631 0.372993 3.38853 0
M  V30 8688 H 821.824 1.85677 2.35508 0
M  V30 8689 H 819.377 0.996876 1.20383 0
M  V30 8690 H 820.112 -0.57538 3.19155 0
M  V30 8691 H 819.897 1.1048 3.76213 0
M  V30 8692 H 821.387 0.203014 4.17106 0
M  V30 8693 N 821.824 -1.22873 0.986916 0
M  V30 8694 C 822.787 -2.2281 0.537442 0
M  V30 8695 C 823.787 -1.56331 -0.37646 0
M  V30 8696 O 824.977 -1.73376 -0.169247 0
M  V30 8697 C 822.109 -3.40195 -0.219082 0
M  V30 8698 H 823.302 -2.64089 1.42116 0
M  V30 8699 H 820.855 -1.35819 0.773488 0
M  V30 8700 H 821.59 -3.04381 -1.11905 0
M  V30 8701 H 821.375 -3.89657 0.437026 0
M  V30 8702 H 822.865 -4.14326 -0.521926 0
M  V30 8703 N 823.302 -0.75937 -1.38099 0
M  V30 8704 C 824.234 -0.0956547 -2.29 0
M  V30 8705 C 825.247 0.677561 -1.4803 0
M  V30 8706 O 826.436 0.517696 -1.70828 0
M  V30 8707 C 823.536 0.88844 -3.27047 0
M  V30 8708 C 822.709 0.171652 -4.37063 0
M  V30 8709 C 821.768 1.06733 -5.15262 0
M  V30 8710 O 820.794 0.535698 -5.66674 0
M  V30 8711 N 821.996 2.39486 -5.28797 0
M  V30 8712 H 824.761 -0.876354 -2.86601 0
M  V30 8713 H 822.322 -0.61065 -1.49942 0
M  V30 8714 H 824.314 1.49079 -3.76241 0
M  V30 8715 H 822.884 1.57018 -2.70304 0
M  V30 8716 H 822.104 -0.611473 -3.89429 0
M  V30 8717 H 823.392 -0.324121 -5.07767 0
M  V30 8718 H 822.79 2.85127 -4.88589 0
M  V30 8719 H 821.347 2.94758 -5.81344 0
M  V30 8720 N 824.78 1.49157 -0.508906 0
M  V30 8721 C 825.743 2.27784 0.25434 0
M  V30 8722 C 826.743 1.34132 0.88686 0
M  V30 8723 O 827.933 1.5722 0.750168 0
M  V30 8724 C 825.065 3.12347 1.36573 0
M  V30 8725 H 826.258 2.96718 -0.435714 0
M  V30 8726 H 823.811 1.54052 -0.264128 0
M  V30 8727 H 824.546 2.47997 2.08969 0
M  V30 8728 H 824.331 3.81213 0.917543 0
M  V30 8729 H 825.821 3.71712 1.90315 0
M  V30 8730 N 826.258 0.243083 1.55714 0
M  V30 8731 C 827.168 -0.668913 2.24862 0
M  V30 8732 C 828.184 -1.19638 1.26344 0
M  V30 8733 O 829.36 -1.23345 1.5921 0
M  V30 8734 C 826.425 -1.85084 2.93163 0
M  V30 8735 C 825.486 -1.36323 4.07081 0
M  V30 8736 C 824.719 -2.48882 4.72116 0
M  V30 8737 O 824.942 -3.67523 4.36214 0
M  V30 8738 O 823.876 -2.18857 5.60701 0
M  V30 8739 H 827.702 -0.109737 3.03502 0
M  V30 8740 H 825.287 0.0117411 1.49395 0
M  V30 8741 H 827.169 -2.54065 3.36197 0
M  V30 8742 H 825.844 -2.39771 2.17466 0
M  V30 8743 H 824.751 -0.640804 3.68571 0
M  V30 8744 H 826.084 -0.86249 4.84584 0
M  V30 8745 N 827.736 -1.57571 -0.0300757 0
M  V30 8746 C 828.646 -2.09892 -1.04798 0
M  V30 8747 C 829.662 -1.03732 -1.39698 0
M  V30 8748 O 830.838 -1.35461 -1.49038 0
M  V30 8749 C 827.903 -2.56707 -2.33028 0
M  V30 8750 C 826.964 -3.77345 -2.04718 0
M  V30 8751 C 826.197 -4.21918 -3.26834 0
M  V30 8752 O 826.42 -3.66025 -4.37472 0
M  V30 8753 O 825.354 -5.14362 -3.12594 0
M  V30 8754 H 829.18 -2.97023 -0.633344 0
M  V30 8755 H 826.765 -1.47344 -0.246991 0
M  V30 8756 H 828.647 -2.87154 -3.08417 0
M  V30 8757 H 827.322 -1.72688 -2.73789 0
M  V30 8758 H 826.229 -3.51919 -1.26901 0
M  V30 8759 H 827.562 -4.62345 -1.68813 0
M  V30 8760 N 829.214 0.302327 -1.54673 0
M  V30 8761 C 830.63 0.647911 -1.45857 0
M  V30 8762 C 830.83 1.90773 -0.64869 0
M  V30 8763 O 829.886 2.52018 -0.155865 0
M  V30 8764 C 831.199 0.802144 -2.89804 0
M  V30 8765 C 832.747 0.898114 -2.99838 0
M  V30 8766 C 833.222 1.08436 -4.44978 0
M  V30 8767 N 834.713 1.15059 -4.48682 0
M  V30 8768 C 835.448 1.31296 -5.58166 0
M  V30 8769 N 834.944 1.4444 -6.77576 0
M  V30 8770 N 836.737 1.34174 -5.45851 0
M  V30 8771 H 828.888 -0.525428 -2.05798 0
M  V30 8772 H 831.151 -0.173423 -0.932002 0
M  V30 8773 H 830.857 -0.0526531 -3.51661 0
M  V30 8774 H 830.731 1.69155 -3.37145 0
M  V30 8775 H 833.118 1.7434 -2.38096 0
M  V30 8776 H 833.199 -0.0152752 -2.55795 0
M  V30 8777 H 832.843 0.243843 -5.07314 0
M  V30 8778 H 832.773 2.01195 -4.8665 0
M  V30 8779 H 835.264 1.0626 -3.62653 0
M  V30 8780 H 835.577 1.56582 -7.56771 0
M  V30 8781 H 833.922 1.41499 -6.80443 0
M  V30 8782 H 837.113 1.23516 -4.5151 0
M  V30 8783 H 837.286 1.46485 -6.31226 0
M  V30 8784 N 830.692 1.47107 0.565454 0
M  V30 8785 C 831.639 1.58974 1.6732 0
M  V30 8786 C 832.609 0.433146 1.60353 0
M  V30 8787 O 833.794 0.652141 1.79309 0
M  V30 8788 C 830.934 1.60224 3.05651 0
M  V30 8789 C 830.047 2.86741 3.23116 0
M  V30 8790 C 829.182 2.79381 4.51796 0
M  V30 8791 C 828.221 4.0076 4.62664 0
M  V30 8792 N 827.358 3.91685 5.8269 0
M  V30 8793 H 832.198 2.53588 1.56515 0
M  V30 8794 H 829.735 1.25791 0.762558 0
M  V30 8795 H 831.693 1.58933 3.85741 0
M  V30 8796 H 830.323 0.691285 3.15311 0
M  V30 8797 H 829.375 2.97936 2.36513 0
M  V30 8798 H 830.687 3.7665 3.27011 0
M  V30 8799 H 829.841 2.76293 5.40136 0
M  V30 8800 H 828.58 1.87142 4.50366 0
M  V30 8801 H 827.585 4.04162 3.72738 0
M  V30 8802 H 828.81 4.94117 4.6586 0
M  V30 8803 H 826.756 3.02243 5.82224 0
M  V30 8804 H 826.673 4.75264 5.87929 0
M  V30 8805 H 827.941 3.92599 6.73414 0
M  V30 8806 N 832.17 -0.811516 1.35101 0
M  V30 8807 C 833.417 -1.56835 1.28098 0
M  V30 8808 C 833.745 -1.93951 -0.14597 0
M  V30 8809 O 833 -1.61173 -1.11004 0
M  V30 8810 C 833.299 -2.87121 2.1283 0
M  V30 8811 C 832.965 -2.69245 3.61688 0
M  V30 8812 C 831.627 -2.64078 4.02264 0
M  V30 8813 C 833.979 -2.52122 4.56162 0
M  V30 8814 C 831.307 -2.39724 5.3549 0
M  V30 8815 C 833.659 -2.29298 5.89581 0
M  V30 8816 C 832.323 -2.2255 6.29307 0
M  V30 8817 H 831.593 -0.5739 0.468742 0
M  V30 8818 H 834.24 -0.93806 1.66951 0
M  V30 8819 H 832.545 -3.54502 1.66841 0
M  V30 8820 H 834.242 -3.44788 2.0475 0
M  V30 8821 H 830.832 -2.74112 3.29485 0
M  V30 8822 H 835.016 -2.5513 4.25702 0
M  V30 8823 H 830.272 -2.32965 5.65276 0
M  V30 8824 H 834.446 -2.15038 6.62368 0
M  V30 8825 H 832.073 -2.0344 7.32473 0
M  V30 8826 N 833.648 -1.19017 -1.03309 0
M  V30 8827 C 834.58 -0.881847 -2.11556 0
M  V30 8828 C 835.593 0.123711 -1.62329 0
M  V30 8829 O 836.782 -0.105141 -1.7819 0
M  V30 8830 C 833.882 -0.297634 -3.37591 0
M  V30 8831 C 833.055 -1.35072 -4.16022 0
M  V30 8832 C 832.114 -0.780812 -5.20375 0
M  V30 8833 O 831.14 -1.45745 -5.50224 0
M  V30 8834 N 832.342 0.417964 -5.78993 0
M  V30 8835 H 835.107 -1.81359 -2.38598 0
M  V30 8836 H 832.668 -1.0916 -1.19565 0
M  V30 8837 H 834.66 0.097374 -4.04583 0
M  V30 8838 H 833.23 0.538299 -3.0793 0
M  V30 8839 H 832.45 -1.92074 -3.4424 0
M  V30 8840 H 833.738 -2.06044 -4.65213 0
M  V30 8841 H 833.136 0.985281 -5.57054 0
M  V30 8842 H 831.693 0.754802 -6.47415 0
M  V30 8843 N 835.127 1.22348 -0.993418 0
M  V30 8844 C 836.059 2.23626 -0.502404 0
M  V30 8845 C 837.072 1.57739 0.402784 0
M  V30 8846 O 838.261 1.77321 0.204835 0
M  V30 8847 C 835.361 3.37647 0.291118 0
M  V30 8848 C 834.534 4.33121 -0.610332 0
M  V30 8849 C 833.593 5.26035 0.131572 0
M  V30 8850 O 832.619 5.67145 -0.483199 0
M  V30 8851 N 833.821 5.63023 1.41371 0
M  V30 8852 H 836.586 2.66385 -1.37329 0
M  V30 8853 H 834.147 1.36653 -0.868196 0
M  V30 8854 H 836.139 3.96792 0.796107 0
M  V30 8855 H 834.709 2.93967 1.0631 0
M  V30 8856 H 833.929 3.72287 -1.29598 0
M  V30 8857 H 835.217 4.93853 -1.22422 0
M  V30 8858 H 834.615 5.31596 1.93449 0
M  V30 8859 H 833.172 6.24582 1.86388 0
M  V30 8860 N 836.605 0.766683 1.37694 0
M  V30 8861 C 837.555 0.123173 2.27667 0
M  V30 8862 C 838.539 -0.679436 1.45851 0
M  V30 8863 O 839.731 -0.54324 1.68457 0
M  V30 8864 C 836.86 -0.759064 3.34803 0
M  V30 8865 C 835.946 0.0511009 4.24069 0
M  V30 8866 N 836.337 1.09418 4.93823 0
M  V30 8867 C 834.635 -0.173675 4.45662 0
M  V30 8868 C 835.336 1.58546 5.59677 0
M  V30 8869 N 834.312 0.898503 5.36123 0
M  V30 8870 H 838.114 0.921859 2.79068 0
M  V30 8871 H 835.628 0.603957 1.50752 0
M  V30 8872 H 837.625 -1.23581 3.98163 0
M  V30 8873 H 836.285 -1.55655 2.84959 0
M  V30 8874 H 837.296 1.47623 4.96415 0
M  V30 8875 H 833.973 -0.943473 4.067 0
M  V30 8876 H 835.363 2.45504 6.25442 0
M  V30 8877 N 838.083 -1.48885 0.516809 0
M  V30 8878 C 839.332 -2.01686 -0.0239899 0
M  V30 8879 C 839.645 -1.40029 -1.3657 0
M  V30 8880 O 840.851 -1.84249 -1.9941 0
M  V30 8881 C 839.307 -3.59779 -0.0931825 0
M  V30 8882 C 838.915 -4.30416 1.24283 0
M  V30 8883 C 840.659 -4.20471 -0.583507 0
M  V30 8884 C 838.566 -5.80408 1.13494 0
M  V30 8885 H 837.496 -0.753892 -0.0127376 0
M  V30 8886 H 840.147 -1.71273 0.65861 0
M  V30 8887 H 838.529 -3.86976 -0.840577 0
M  V30 8888 H 839.703 -4.14905 2.00476 0
M  V30 8889 H 838.018 -3.81539 1.66785 0
M  V30 8890 H 840.615 -5.30333 -0.681987 0
M  V30 8891 H 840.958 -3.84898 -1.58617 0
M  V30 8892 H 841.491 -3.97654 0.107814 0
M  V30 8893 H 838.23 -6.20532 2.11235 0
M  V30 8894 H 837.75 -5.98368 0.414167 0
M  V30 8895 H 839.429 -6.41781 0.820162 0
M  V30 8896 N 839.561 -0.251338 -1.55583 0
M  V30 8897 C 840.491 0.640437 -2.24545 0
M  V30 8898 C 841.472 1.17781 -1.22726 0
M  V30 8899 O 842.657 1.21633 -1.5139 0
M  V30 8900 C 839.787 1.8355 -2.94834 0
M  V30 8901 C 838.741 1.4307 -4.03379 0
M  V30 8902 C 838.067 2.70695 -4.61116 0
M  V30 8903 C 839.367 0.59848 -5.1886 0
M  V30 8904 H 841.061 0.0653772 -2.99329 0
M  V30 8905 H 838.607 0.0300042 -1.43969 0
M  V30 8906 H 840.56 2.46505 -3.4178 0
M  V30 8907 H 839.284 2.43601 -2.17546 0
M  V30 8908 H 837.943 0.824474 -3.57209 0
M  V30 8909 H 837.591 3.28954 -3.80524 0
M  V30 8910 H 837.291 2.44332 -5.34393 0
M  V30 8911 H 838.815 3.34541 -5.10798 0
M  V30 8912 H 840.229 1.13244 -5.62004 0
M  V30 8913 H 838.626 0.430728 -5.98552 0
M  V30 8914 H 839.696 -0.38829 -4.83343 0
M  V30 8915 N 841.039 1.57585 0.0217189 0
M  V30 8916 C 842.287 1.89231 0.709641 0
M  V30 8917 C 842.608 0.849964 1.75501 0
M  V30 8918 O 841.878 -0.115485 1.95559 0
M  V30 8919 H 840.458 0.69838 0.265092 0
M  V30 8920 H 843.12 1.94895 -0.0140688 0
M  V30 8921 H 842.216 2.88333 1.19459 0
M  V30 8922 N 842.517 -0.29412 1.54831 0
M  V30 8923 C 843.449 -1.38476 1.82639 0
M  V30 8924 C 844.462 -1.46517 0.709694 0
M  V30 8925 O 845.651 -1.48712 0.987269 0
M  V30 8926 C 842.751 -2.76791 1.95551 0
M  V30 8927 C 841.924 -2.91599 3.26019 0
M  V30 8928 C 840.983 -4.10456 3.29261 0
M  V30 8929 O 840.009 -4.02214 4.02756 0
M  V30 8930 N 841.211 -5.21422 2.55145 0
M  V30 8931 H 843.976 -1.14974 2.76769 0
M  V30 8932 H 841.537 -0.484206 1.5449 0
M  V30 8933 H 843.529 -3.5456 1.95113 0
M  V30 8934 H 842.099 -2.93209 1.08384 0
M  V30 8935 H 841.319 -2.00886 3.39173 0
M  V30 8936 H 842.607 -2.98409 4.12104 0
M  V30 8937 H 842.005 -5.31 1.95078 0
M  V30 8938 H 840.562 -5.97501 2.60454 0
M  V30 8939 N 843.995 -1.47404 -0.557645 0
M  V30 8940 C 844.927 -1.55917 -1.67995 0
M  V30 8941 C 845.94 -0.445411 -1.56588 0
M  V30 8942 O 847.129 -0.714999 -1.63554 0
M  V30 8943 C 844.229 -1.44697 -3.06457 0
M  V30 8944 C 843.402 -2.70633 -3.43622 0
M  V30 8945 C 842.461 -2.53256 -4.61246 0
M  V30 8946 O 841.487 -3.27068 -4.65849 0
M  V30 8947 N 842.689 -1.61053 -5.57711 0
M  V30 8948 H 845.454 -2.52694 -1.61139 0
M  V30 8949 H 843.015 -1.43778 -0.744271 0
M  V30 8950 H 845.007 -1.30806 -3.82978 0
M  V30 8951 H 843.577 -0.560039 -3.07542 0
M  V30 8952 H 842.797 -2.99288 -2.56555 0
M  V30 8953 H 844.085 -3.5424 -3.65228 0
M  V30 8954 H 843.483 -1.00235 -5.56749 0
M  V30 8955 H 842.04 -1.53115 -6.33561 0
M  V30 8956 N 845.473 0.80434 -1.35529 0
M  V30 8957 C 846.42 1.91629 -1.28635 0
M  V30 8958 C 847.39 1.65348 -0.157862 0
M  V30 8959 O 848.575 1.87711 -0.341934 0
M  V30 8960 C 845.715 3.28207 -1.0665 0
M  V30 8961 C 844.828 3.66659 -2.28441 0
M  V30 8962 C 843.963 4.92279 -1.99588 0
M  V30 8963 C 843.002 5.23365 -3.1742 0
M  V30 8964 N 842.139 6.40165 -2.88328 0
M  V30 8965 H 846.979 1.96858 -2.23721 0
M  V30 8966 H 844.516 0.962871 -1.11208 0
M  V30 8967 H 846.474 4.06945 -0.919343 0
M  V30 8968 H 845.104 3.22441 -0.152253 0
M  V30 8969 H 844.156 2.83164 -2.54013 0
M  V30 8970 H 845.468 3.8559 -3.1642 0
M  V30 8971 H 844.622 5.78847 -1.81715 0
M  V30 8972 H 843.361 4.75387 -1.08896 0
M  V30 8973 H 842.366 4.35285 -3.35867 0
M  V30 8974 H 843.591 5.42185 -4.08916 0
M  V30 8975 H 841.537 6.24694 -2.00233 0
M  V30 8976 H 841.454 6.59357 -3.69843 0
M  V30 8977 H 842.722 7.29755 -2.74002 0
M  V30 8978 N 846.951 1.19563 1.02676 0
M  V30 8979 C 847.898 0.935291 2.11 0
M  V30 8980 C 848.868 -0.130685 1.65585 0
M  V30 8981 O 850.053 0.0119062 1.90796 0
M  V30 8982 C 847.193 0.482384 3.41712 0
M  V30 8983 C 846.306 1.61537 4.00662 0
M  V30 8984 C 845.441 1.11378 5.19392 0
M  V30 8985 C 844.48 2.22052 5.70403 0
M  V30 8986 N 843.617 1.73185 6.80405 0
M  V30 8987 H 848.457 1.86275 2.32606 0
M  V30 8988 H 845.994 0.928656 1.14081 0
M  V30 8989 H 847.952 0.20118 4.16715 0
M  V30 8990 H 846.582 -0.408086 3.2021 0
M  V30 8991 H 845.634 2.01173 3.22852 0
M  V30 8992 H 846.946 2.44912 4.34534 0
M  V30 8993 H 846.1 0.787935 6.01562 0
M  V30 8994 H 844.839 0.249789 4.8706 0
M  V30 8995 H 843.844 2.55465 4.86845 0
M  V30 8996 H 845.069 3.08911 6.04774 0
M  V30 8997 H 843.015 0.890973 6.49921 0
M  V30 8998 H 842.932 2.50148 7.13416 0
M  V30 8999 H 844.2 1.4357 7.66164 0
M  V30 9000 N 848.429 -1.21819 0.999893 0
M  V30 9001 C 849.339 -2.27691 0.565159 0
M  V30 9002 C 850.355 -1.69587 -0.389398 0
M  V30 9003 O 851.531 -1.99786 -0.254499 0
M  V30 9004 C 848.596 -3.46537 -0.106432 0
M  V30 9005 C 847.657 -4.19932 0.891964 0
M  V30 9006 C 846.89 -5.33103 0.252327 0
M  V30 9007 O 847.113 -5.62398 -0.952103 0
M  V30 9008 O 846.047 -5.94184 0.960698 0
M  V30 9009 H 849.873 -2.67059 1.44613 0
M  V30 9010 H 847.458 -1.28119 0.768499 0
M  V30 9011 H 849.34 -4.18631 -0.482301 0
M  V30 9012 H 848.015 -3.09079 -0.961865 0
M  V30 9013 H 846.922 -3.5008 1.3189 0
M  V30 9014 H 848.255 -4.61287 1.71682 0
M  V30 9015 N 849.908 -0.773975 -1.37286 0
M  V30 9016 C 850.838 -0.175782 -2.32837 0
M  V30 9017 C 851.819 0.680603 -1.5589 0
M  V30 9018 O 853.004 0.617607 -1.84117 0
M  V30 9019 C 850.134 0.702388 -3.40123 0
M  V30 9020 C 849.088 -0.0528687 -4.27967 0
M  V30 9021 C 848.414 0.944891 -5.26285 0
M  V30 9022 C 849.714 -1.23316 -5.07534 0
M  V30 9023 H 851.408 -0.974016 -2.83114 0
M  V30 9024 H 848.954 -0.469826 -1.3612 0
M  V30 9025 H 850.907 1.13069 -4.05947 0
M  V30 9026 H 849.631 1.53316 -2.88378 0
M  V30 9027 H 848.29 -0.461978 -3.63678 0
M  V30 9028 H 847.938 1.77028 -4.70819 0
M  V30 9029 H 847.638 0.444079 -5.8592 0
M  V30 9030 H 849.162 1.37209 -5.94984 0
M  V30 9031 H 850.576 -0.881395 -5.66484 0
M  V30 9032 H 848.973 -1.66621 -5.76504 0
M  V30 9033 H 850.043 -2.03617 -4.40077 0
M  V30 9034 N 851.386 1.48609 -0.524698 0
M  V30 9035 C 852.349 2.28041 0.230166 0
M  V30 9036 C 853.349 1.35065 0.872584 0
M  V30 9037 O 854.539 1.58007 0.73345 0
M  V30 9038 C 851.671 3.13778 1.33252 0
M  V30 9039 H 852.864 2.96239 -0.467161 0
M  V30 9040 H 850.417 1.53763 -0.280452 0
M  V30 9041 H 851.152 2.502 2.06327 0
M  V30 9042 H 850.937 3.82165 0.877058 0
M  V30 9043 H 852.427 3.7371 1.86362 0
M  V30 9044 N 852.864 0.259585 1.55447 0
M  V30 9045 C 853.827 -0.621359 2.20617 0
M  V30 9046 C 854.827 -1.09317 1.17925 0
M  V30 9047 O 856.017 -0.995842 1.42929 0
M  V30 9048 C 853.149 -1.85546 2.85982 0
M  V30 9049 H 854.342 -0.0525833 2.99854 0
M  V30 9050 H 851.895 0.0101055 1.56297 0
M  V30 9051 H 852.63 -2.46515 2.10715 0
M  V30 9052 H 852.415 -1.52523 3.61219 0
M  V30 9053 H 853.905 -2.48227 3.35817 0
M  V30 9054 N 854.342 -1.57594 -0.0133615 0
M  V30 9055 C 855.272 -2.10611 -1.00823 0
M  V30 9056 C 856.253 -1.01217 -1.36708 0
M  V30 9057 O 857.438 -1.28827 -1.45318 0
M  V30 9058 C 854.568 -2.59844 -2.30431 0
M  V30 9059 C 853.522 -3.73644 -2.08745 0
M  V30 9060 C 852.848 -4.09141 -3.4425 0
M  V30 9061 C 854.148 -5.01454 -1.46086 0
M  V30 9062 H 855.842 -2.93985 -0.566849 0
M  V30 9063 H 853.388 -1.41423 -0.271219 0
M  V30 9064 H 855.341 -2.95557 -3.00373 0
M  V30 9065 H 854.065 -1.73573 -2.76658 0
M  V30 9066 H 852.724 -3.38303 -1.41232 0
M  V30 9067 H 852.372 -3.19914 -3.88155 0
M  V30 9068 H 852.072 -4.85802 -3.3056 0
M  V30 9069 H 853.596 -4.47402 -4.15528 0
M  V30 9070 H 855.01 -5.35024 -2.05966 0
M  V30 9071 H 853.407 -5.82832 -1.42924 0
M  V30 9072 H 854.477 -4.83003 -0.428471 0
M  V30 9073 N 855.82 0.285905 -1.54985 0
M  V30 9074 C 856.75 1.35752 -1.89983 0
M  V30 9075 C 857.731 1.52163 -0.760295 0
M  V30 9076 O 858.916 1.65421 -1.01733 0
M  V30 9077 C 856.046 2.71925 -2.16042 0
M  V30 9078 C 855 2.70261 -3.31878 0
M  V30 9079 C 854.326 4.09864 -3.43388 0
M  V30 9080 C 855.626 2.30667 -4.68604 0
M  V30 9081 H 857.32 1.06709 -2.79738 0
M  V30 9082 H 854.866 0.511884 -1.34595 0
M  V30 9083 H 856.819 3.46992 -2.39113 0
M  V30 9084 H 855.543 3.02523 -1.23074 0
M  V30 9085 H 854.202 1.97651 -3.08755 0
M  V30 9086 H 853.85 4.37664 -2.47909 0
M  V30 9087 H 853.55 4.09648 -4.21262 0
M  V30 9088 H 855.074 4.86689 -3.68736 0
M  V30 9089 H 856.488 2.95453 -4.91305 0
M  V30 9090 H 854.885 2.41637 -5.49301 0
M  V30 9091 H 855.955 1.25793 -4.68299 0
M  V30 9092 N 857.298 1.47698 0.54982 0
M  V30 9093 C 858.208 1.63386 1.68351 0
M  V30 9094 C 859.224 0.516583 1.66155 0
M  V30 9095 O 860.4 0.785088 1.85468 0
M  V30 9096 C 857.465 1.6513 3.04849 0
M  V30 9097 C 856.526 2.88338 3.18056 0
M  V30 9098 C 855.759 2.8999 4.48042 0
M  V30 9099 O 855.982 2.00633 5.3395 0
M  V30 9100 O 854.916 3.81938 4.65196 0
M  V30 9101 H 858.742 2.59329 1.58057 0
M  V30 9102 H 856.327 1.30869 0.72067 0
M  V30 9103 H 858.209 1.68913 3.86065 0
M  V30 9104 H 856.884 0.723555 3.1551 0
M  V30 9105 H 855.791 2.90097 2.36209 0
M  V30 9106 H 857.124 3.80431 3.12302 0
M  V30 9107 N 858.776 -0.797141 1.35954 0
M  V30 9108 C 859.739 -1.89104 1.29508 0
M  V30 9109 C 860.739 -1.59495 0.204444 0
M  V30 9110 O 861.929 -1.68051 0.458746 0
M  V30 9111 C 859.061 -3.25726 1.00576 0
M  V30 9112 H 860.254 -1.96237 2.26785 0
M  V30 9113 H 857.807 -0.994075 1.20614 0
M  V30 9114 H 858.542 -3.24279 0.0372519 0
M  V30 9115 H 858.327 -3.48604 1.79492 0
M  V30 9116 H 859.817 -4.0578 0.986508 0
M  V30 9117 N 860.254 -1.20106 -1.0204 0
M  V30 9118 C 861.186 -0.904236 -2.10609 0
M  V30 9119 C 862.199 0.106487 -1.62451 0
M  V30 9120 O 863.388 -0.124035 -1.78069 0
M  V30 9121 C 860.488 -0.333423 -3.37256 0
M  V30 9122 C 859.661 -1.39476 -4.14566 0
M  V30 9123 C 858.72 -0.835961 -5.19517 0
M  V30 9124 O 857.746 -1.51573 -5.48648 0
M  V30 9125 N 858.948 0.356531 -5.79404 0
M  V30 9126 H 861.713 -1.8388 -2.36661 0
M  V30 9127 H 859.274 -1.10422 -1.184 0
M  V30 9128 H 861.266 0.0544571 -4.04663 0
M  V30 9129 H 859.836 0.505608 -3.08484 0
M  V30 9130 H 859.056 -1.95714 -3.42184 0
M  V30 9131 H 860.344 -2.10967 -4.63001 0
M  V30 9132 H 859.742 0.926143 -5.58067 0
M  V30 9133 H 858.299 0.686093 -6.48179 0
M  V30 9134 N 861.732 1.21287 -1.00634 0
M  V30 9135 C 862.679 2.23705 -0.567876 0
M  V30 9136 C 863.649 1.61043 0.406753 0
M  V30 9137 O 864.834 1.88289 0.308499 0
M  V30 9138 C 861.974 3.44961 0.097996 0
M  V30 9139 C 861.087 4.22091 -0.919972 0
M  V30 9140 C 860.222 5.30718 -0.226222 0
M  V30 9141 C 859.261 5.99581 -1.23165 0
M  V30 9142 N 858.398 6.99821 -0.565278 0
M  V30 9143 H 863.238 2.60571 -1.44592 0
M  V30 9144 H 860.775 1.28049 -0.724006 0
M  V30 9145 H 862.733 4.1418 0.501097 0
M  V30 9146 H 861.363 3.08818 0.939744 0
M  V30 9147 H 860.415 3.52038 -1.44131 0
M  V30 9148 H 861.727 4.69476 -1.68505 0
M  V30 9149 H 860.881 6.06253 0.232917 0
M  V30 9150 H 859.62 4.84343 0.571247 0
M  V30 9151 H 858.625 5.22816 -1.70128 0
M  V30 9152 H 859.85 6.48042 -2.03022 0
M  V30 9153 H 857.796 6.55656 0.212508 0
M  V30 9154 H 857.713 7.4528 -1.26858 0
M  V30 9155 H 858.981 7.79393 -0.129389 0
M  V30 9156 N 863.21 0.781244 1.36873 0
M  V30 9157 C 864.626 0.461968 1.52768 0
M  V30 9158 C 864.826 -1.02099 1.73719 0
M  V30 9159 O 863.882 -1.80665 1.76399 0
M  V30 9160 C 865.195 1.2853 2.71846 0
M  V30 9161 C 866.743 1.27817 2.85713 0
M  V30 9162 C 867.218 2.08506 4.07786 0
M  V30 9163 N 868.709 2.05909 4.14917 0
M  V30 9164 C 869.444 2.65118 5.08429 0
M  V30 9165 N 868.94 3.33152 6.07438 0
M  V30 9166 N 870.733 2.54896 5.00983 0
M  V30 9167 H 862.884 1.74198 1.21527 0
M  V30 9168 H 865.147 0.740027 0.592506 0
M  V30 9169 H 864.853 2.3366 2.62861 0
M  V30 9170 H 864.727 0.920981 3.65784 0
M  V30 9171 H 867.114 0.234817 2.94164 0
M  V30 9172 H 867.195 1.68219 1.92707 0
M  V30 9173 H 866.839 3.12867 4.00096 0
M  V30 9174 H 866.769 1.65479 4.99924 0
M  V30 9175 H 869.26 1.56386 3.44023 0
M  V30 9176 H 869.573 3.75681 6.75339 0
M  V30 9177 H 867.918 3.37253 6.07689 0
M  V30 9178 H 871.109 2.01352 4.22581 0
M  V30 9179 H 871.282 3.01332 5.73675 0
M  V30 9180 N 864.689 -1.48329 0.532571 0
M  V30 9181 C 865.917 -2.069 0.00354299 0
M  V30 9182 C 866.332 -1.38876 -1.27902 0
M  V30 9183 O 865.689 -0.477119 -1.76153 0
M  V30 9184 C 865.74 -3.60821 -0.221416 0
M  V30 9185 O 865.461 -4.26291 1.01034 0
M  V30 9186 C 866.962 -4.36194 -0.790531 0
M  V30 9187 H 864.182 -0.670103 0.0346836 0
M  V30 9188 H 866.726 -1.90682 0.738955 0
M  V30 9189 H 864.881 -3.76636 -0.906884 0
M  V30 9190 H 865.295 -5.18475 0.792683 0
M  V30 9191 H 866.769 -5.44657 -0.897347 0
M  V30 9192 H 867.246 -4.00798 -1.79605 0
M  V30 9193 H 867.852 -4.25064 -0.141546 0
M  V30 9194 N 866.167 -0.267825 -1.55308 0
M  V30 9195 C 867.397 0.354073 -2.03543 0
M  V30 9196 C 867.805 1.50554 -1.14586 0
M  V30 9197 O 867.148 1.83028 -0.156991 0
M  V30 9198 C 867.21 0.904148 -3.47945 0
M  V30 9199 C 866.874 -0.11775 -4.56848 0
M  V30 9200 C 867.871 -0.934707 -5.11429 0
M  V30 9201 C 865.556 -0.249885 -5.01678 0
M  V30 9202 C 867.55 -1.87005 -6.0935 0
M  V30 9203 C 865.237 -1.18872 -5.99427 0
M  V30 9204 C 866.235 -1.99731 -6.53144 0
M  V30 9205 O 865.923 -2.92028 -7.48983 0
M  V30 9206 H 865.655 0.0857765 -0.670536 0
M  V30 9207 H 868.209 -0.395515 -2.01556 0
M  V30 9208 H 866.439 1.70368 -3.47148 0
M  V30 9209 H 868.128 1.43835 -3.79561 0
M  V30 9210 H 868.894 -0.84332 -4.77612 0
M  V30 9211 H 864.773 0.369469 -4.59517 0
M  V30 9212 H 868.317 -2.5016 -6.51203 0
M  V30 9213 H 864.214 -1.28095 -6.32663 0
M  V30 9214 H 864.982 -2.86627 -7.66673 0
M  V30 9215 N 867.645 1.57599 0.00500368 0
M  V30 9216 C 868.592 2.08106 0.998025 0
M  V30 9217 C 869.562 0.975374 1.34446 0
M  V30 9218 O 870.747 1.24749 1.44369 0
M  V30 9219 C 867.887 2.58496 2.28635 0
M  V30 9220 C 867 3.82947 1.99939 0
M  V30 9221 C 866.135 4.21857 3.22816 0
M  V30 9222 C 865.174 5.39159 2.89783 0
M  V30 9223 N 864.311 5.73386 4.05183 0
M  V30 9224 H 869.151 2.92684 0.560385 0
M  V30 9225 H 866.688 1.44692 0.265053 0
M  V30 9226 H 868.646 2.85787 3.03943 0
M  V30 9227 H 867.276 1.768 2.70077 0
M  V30 9228 H 866.328 3.62594 1.1502 0
M  V30 9229 H 867.64 4.68358 1.71588 0
M  V30 9230 H 866.794 4.50404 4.06474 0
M  V30 9231 H 865.533 3.35145 3.54301 0
M  V30 9232 H 864.538 5.1034 2.04532 0
M  V30 9233 H 865.763 6.27543 2.59551 0
M  V30 9234 H 863.709 4.89632 4.36574 0
M  V30 9235 H 863.626 6.53359 3.80339 0
M  V30 9236 H 864.894 6.06522 4.89644 0
M  V30 9237 N 869.123 -0.277682 1.55134 0
M  V30 9238 C 870.053 -1.34742 1.90701 0
M  V30 9239 C 871.034 -1.51757 0.768354 0
M  V30 9240 O 872.219 -1.64879 1.02609 0
M  V30 9241 C 869.349 -2.70775 2.17481 0
M  V30 9242 C 868.303 -2.68497 3.33307 0
M  V30 9243 C 867.629 -4.08037 3.45557 0
M  V30 9244 C 868.929 -2.28178 4.69821 0
M  V30 9245 H 870.623 -1.05224 2.803 0
M  V30 9246 H 868.169 -0.504738 1.34864 0
M  V30 9247 H 870.122 -3.45719 2.40949 0
M  V30 9248 H 868.846 -3.01867 1.24676 0
M  V30 9249 H 867.505 -1.9601 3.09799 0
M  V30 9250 H 867.153 -4.36344 2.50226 0
M  V30 9251 H 866.853 -4.07409 4.23429 0
M  V30 9252 H 868.377 -4.84726 3.71312 0
M  V30 9253 H 869.791 -2.92843 4.92865 0
M  V30 9254 H 868.188 -2.3872 5.50575 0
M  V30 9255 H 869.258 -1.23308 4.6896 0
M  V30 9256 N 870.601 -1.47988 -0.541979 0
M  V30 9257 C 872.017 -1.33843 -0.869383 0
M  V30 9258 C 872.217 -0.340374 -1.98604 0
M  V30 9259 O 871.273 0.242696 -2.51331 0
M  V30 9260 C 872.586 -2.73568 -1.24823 0
M  V30 9261 C 874.134 -2.81967 -1.3588 0
M  V30 9262 C 874.609 -4.22368 -1.77114 0
M  V30 9263 N 876.1 -4.24983 -1.84237 0
M  V30 9264 C 876.835 -5.30547 -2.17503 0
M  V30 9265 N 876.331 -6.46401 -2.49275 0
M  V30 9266 N 878.124 -5.17933 -2.18406 0
M  V30 9267 H 870.275 -2.11503 0.195001 0
M  V30 9268 H 872.538 -0.947681 0.0245862 0
M  V30 9269 H 872.244 -3.48107 -0.501435 0
M  V30 9270 H 872.118 -3.06322 -2.20106 0
M  V30 9271 H 874.505 -2.07692 -2.09638 0
M  V30 9272 H 874.586 -2.52848 -0.387478 0
M  V30 9273 H 874.23 -4.97155 -1.0392 0
M  V30 9274 H 874.16 -4.48922 -2.75275 0
M  V30 9275 H 876.651 -3.41411 -1.62009 0
M  V30 9276 H 876.964 -7.22698 -2.73729 0
M  V30 9277 H 875.309 -6.49696 -2.46821 0
M  V30 9278 H 878.5 -4.26445 -1.93034 0
M  V30 9279 H 878.673 -6.00307 -2.44 0
M  V30 9280 N 872.079 0.78992 -1.36375 0
M  V30 9281 C 873.026 1.90254 -1.3066 0
M  V30 9282 C 873.996 1.65171 -0.17539 0
M  V30 9283 O 875.181 1.87338 -0.361824 0
M  V30 9284 C 872.321 3.27057 -1.10125 0
M  V30 9285 C 871.434 3.64215 -2.32317 0
M  V30 9286 C 870.569 4.90134 -2.04798 0
M  V30 9287 C 869.608 5.19969 -3.22953 0
M  V30 9288 N 868.745 6.37071 -2.95102 0
M  V30 9289 H 873.585 1.94474 -2.25796 0
M  V30 9290 H 871.122 0.951022 -1.12223 0
M  V30 9291 H 873.08 4.05947 -0.962453 0
M  V30 9292 H 871.71 3.22261 -0.186444 0
M  V30 9293 H 870.762 2.80454 -2.57002 0
M  V30 9294 H 872.074 3.82212 -3.20492 0
M  V30 9295 H 871.228 5.76888 -1.87845 0
M  V30 9296 H 869.967 4.74205 -1.13932 0
M  V30 9297 H 868.972 4.31699 -3.40465 0
M  V30 9298 H 870.197 5.37817 -4.14644 0
M  V30 9299 H 868.143 6.22535 -2.06848 0
M  V30 9300 H 868.06 6.55398 -3.76815 0
M  V30 9301 H 869.328 7.26808 -2.81727 0
M  V30 9302 N 873.557 1.20646 1.01402 0
M  V30 9303 C 874.467 0.973385 2.13453 0
M  V30 9304 C 875.483 -0.0715865 1.73853 0
M  V30 9305 O 876.659 0.116438 2.01063 0
M  V30 9306 C 873.724 0.531285 3.42605 0
M  V30 9307 C 872.785 1.64741 3.96433 0
M  V30 9308 C 872.018 1.22631 5.1942 0
M  V30 9309 O 872.241 0.0960891 5.70319 0
M  V30 9310 O 871.175 2.03474 5.66465 0
M  V30 9311 H 875.001 1.91164 2.35987 0
M  V30 9312 H 872.586 0.990553 1.11841 0
M  V30 9313 H 874.468 0.294095 4.20373 0
M  V30 9314 H 873.143 -0.378358 3.21481 0
M  V30 9315 H 872.05 1.93891 3.19933 0
M  V30 9316 H 873.383 2.53415 4.2195 0
M  V30 9317 N 875.035 -1.20752 1.01276 0
M  V30 9318 C 875.967 -2.22798 0.537917 0
M  V30 9319 C 876.98 -1.5836 -0.377638 0
M  V30 9320 O 878.169 -1.77624 -0.176599 0
M  V30 9321 C 875.269 -3.38068 -0.237364 0
M  V30 9322 C 874.442 -4.32095 0.679161 0
M  V30 9323 C 873.501 -5.26178 -0.0478676 0
M  V30 9324 O 872.527 -5.66305 0.573366 0
M  V30 9325 N 873.729 -5.65201 -1.32396 0
M  V30 9326 H 876.494 -2.64166 1.4155 0
M  V30 9327 H 874.055 -1.35254 0.889826 0
M  V30 9328 H 876.047 -3.98009 -0.73288 0
M  V30 9329 H 874.617 -2.95622 -1.0162 0
M  V30 9330 H 873.837 -3.70179 1.35505 0
M  V30 9331 H 875.125 -4.91842 1.30263 0
M  V30 9332 H 874.523 -5.34606 -1.84968 0
M  V30 9333 H 873.08 -6.27468 -1.76428 0
M  V30 9334 N 876.513 -0.788492 -1.36457 0
M  V30 9335 C 877.443 -0.200468 -2.32638 0
M  V30 9336 C 878.424 0.664031 -1.56603 0
M  V30 9337 O 879.609 0.598045 -1.84762 0
M  V30 9338 C 876.739 0.666274 -3.40849 0
M  V30 9339 C 875.693 -0.0982574 -4.27887 0
M  V30 9340 C 875.019 0.889018 -5.27258 0
M  V30 9341 C 876.319 -1.28692 -5.06197 0
M  V30 9342 H 878.013 -1.00399 -2.82065 0
M  V30 9343 H 875.559 -0.484237 -1.35614 0
M  V30 9344 H 877.512 1.08757 -4.07124 0
M  V30 9345 H 876.236 1.50249 -2.89987 0
M  V30 9346 H 874.895 -0.500525 -3.63167 0
M  V30 9347 H 874.543 1.72024 -4.7267 0
M  V30 9348 H 874.243 0.381909 -5.86358 0
M  V30 9349 H 875.767 1.30891 -5.96406 0
M  V30 9350 H 877.181 -0.941429 -5.65517 0
M  V30 9351 H 875.578 -1.72726 -5.74705 0
M  V30 9352 H 876.648 -2.08273 -4.37893 0
M  V30 9353 N 877.991 1.48044 -0.54043 0
M  V30 9354 C 878.938 2.29781 0.216597 0
M  V30 9355 C 879.908 1.38021 0.924094 0
M  V30 9356 O 881.093 1.66985 0.923078 0
M  V30 9357 C 878.233 3.21623 1.2511 0
M  V30 9358 C 877.346 4.28467 0.551384 0
M  V30 9359 C 876.481 5.07477 1.56972 0
M  V30 9360 C 875.52 6.06113 0.854048 0
M  V30 9361 N 874.657 6.78143 1.81842 0
M  V30 9362 H 879.497 2.94001 -0.486578 0
M  V30 9363 H 877.034 1.44929 -0.251789 0
M  V30 9364 H 878.992 3.73279 1.8633 0
M  V30 9365 H 877.622 2.59305 1.92252 0
M  V30 9366 H 876.674 3.79997 -0.174982 0
M  V30 9367 H 877.986 4.98799 -0.0100542 0
M  V30 9368 H 877.14 5.63199 2.25592 0
M  V30 9369 H 875.879 4.37008 2.16507 0
M  V30 9370 H 874.884 5.49585 0.153838 0
M  V30 9371 H 876.109 6.78584 0.264675 0
M  V30 9372 H 874.055 6.10417 2.40265 0
M  V30 9373 H 873.972 7.44587 1.3087 0
M  V30 9374 H 875.24 7.38448 2.49628 0
M  V30 9375 N 879.47 0.276058 1.55163 0
M  V30 9376 C 880.38 -0.621066 2.2623 0
M  V30 9377 C 881.396 -1.16931 1.28853 0
M  V30 9378 O 882.572 -1.1994 1.61791 0
M  V30 9379 C 879.637 -1.78824 2.97023 0
M  V30 9380 C 878.698 -1.27657 4.09881 0
M  V30 9381 C 877.931 -2.38812 4.77289 0
M  V30 9382 O 878.154 -3.58188 4.43912 0
M  V30 9383 O 877.088 -2.06915 5.65217 0
M  V30 9384 H 880.914 -0.0453346 3.03666 0
M  V30 9385 H 878.499 0.0434275 1.49337 0
M  V30 9386 H 880.381 -2.46877 3.41511 0
M  V30 9387 H 879.056 -2.35104 2.22503 0
M  V30 9388 H 877.963 -0.56248 3.69847 0
M  V30 9389 H 879.296 -0.759509 4.86305 0
M  V30 9390 N 880.948 -1.576 0.00335426 0
M  V30 9391 C 881.858 -2.12067 -1.00322 0
M  V30 9392 C 882.874 -1.06672 -1.37467 0
M  V30 9393 O 884.05 -1.38592 -1.46131 0
M  V30 9394 C 881.115 -2.61593 -2.27531 0
M  V30 9395 C 880.176 -3.81602 -1.96668 0
M  V30 9396 C 879.409 -4.28756 -3.17811 0
M  V30 9397 O 879.632 -3.75222 -4.2961 0
M  V30 9398 O 878.566 -5.20877 -3.01613 0
M  V30 9399 H 882.392 -2.98299 -0.570199 0
M  V30 9400 H 879.977 -1.47835 -0.215682 0
M  V30 9401 H 881.859 -2.93631 -3.02256 0
M  V30 9402 H 880.534 -1.78457 -2.70065 0
M  V30 9403 H 879.441 -3.54531 -1.19408 0
M  V30 9404 H 880.774 -4.65822 -1.58968 0
M  V30 9405 N 882.426 0.269451 -1.5528 0
M  V30 9406 C 883.356 1.33729 -1.91413 0
M  V30 9407 C 884.337 1.51348 -0.776391 0
M  V30 9408 O 885.522 1.64332 -1.03482 0
M  V30 9409 C 882.652 2.69618 -2.18914 0
M  V30 9410 C 881.606 2.66725 -3.34726 0
M  V30 9411 C 880.932 4.06199 -3.47716 0
M  V30 9412 C 882.232 2.25684 -4.71025 0
M  V30 9413 H 883.926 1.03736 -2.80854 0
M  V30 9414 H 881.472 0.497579 -1.3513 0
M  V30 9415 H 883.425 3.44436 -2.42779 0
M  V30 9416 H 882.149 3.01201 -1.26275 0
M  V30 9417 H 880.808 1.94365 -3.10834 0
M  V30 9418 H 880.456 4.3501 -2.52537 0
M  V30 9419 H 880.156 4.05157 -4.25583 0
M  V30 9420 H 881.68 4.8275 -3.73877 0
M  V30 9421 H 883.094 2.90225 -4.94411 0
M  V30 9422 H 881.491 2.35797 -5.51833 0
M  V30 9423 H 882.561 1.20819 -4.69607 0
M  V30 9424 N 883.904 1.48273 0.534124 0
M  V30 9425 C 884.836 1.5857 1.65494 0
M  V30 9426 C 885.849 0.470266 1.5586 0
M  V30 9427 O 887.038 0.740928 1.62396 0
M  V30 9428 C 884.138 1.49554 3.04117 0
M  V30 9429 C 883.311 2.76066 3.39273 0
M  V30 9430 C 882.37 2.60562 4.57159 0
M  V30 9431 O 881.396 3.34438 4.60587 0
M  V30 9432 N 882.598 1.69906 5.55079 0
M  V30 9433 H 885.363 2.55226 1.57099 0
M  V30 9434 H 882.924 1.44944 0.721303 0
M  V30 9435 H 884.916 1.36882 3.80848 0
M  V30 9436 H 883.486 0.608895 3.06613 0
M  V30 9437 H 882.706 3.03332 2.51761 0
M  V30 9438 H 883.994 3.60006 3.59546 0
M  V30 9439 H 883.392 1.09079 5.55084 0
M  V30 9440 H 881.949 1.63175 6.31044 0
M  V30 9441 N 885.382 -0.782676 1.36792 0
M  V30 9442 C 886.292 -1.92679 1.33835 0
M  V30 9443 C 887.308 -1.72344 0.23952 0
M  V30 9444 O 888.484 -1.95766 0.473045 0
M  V30 9445 C 885.549 -3.27644 1.1336 0
M  V30 9446 C 884.61 -3.6071 2.32781 0
M  V30 9447 C 883.843 -4.89234 2.13273 0
M  V30 9448 O 884.066 -5.59468 1.11136 0
M  V30 9449 O 883 -5.21112 3.01208 0
M  V30 9450 H 886.826 -1.98124 2.30175 0
M  V30 9451 H 884.411 -0.923887 1.17408 0
M  V30 9452 H 886.293 -4.08394 1.03886 0
M  V30 9453 H 884.968 -3.23076 0.200868 0
M  V30 9454 H 883.875 -2.80238 2.47825 0
M  V30 9455 H 885.208 -3.70008 3.24584 0
M  V30 9456 N 886.86 -1.21182 -1.00761 0
M  V30 9457 C 887.808 -0.965728 -2.11604 0
M  V30 9458 C 888.802 0.0861028 -1.69181 0
M  V30 9459 O 890.008 -0.0650558 -1.79882 0
M  V30 9460 H 886.383 -0.295023 -0.691712 0
M  V30 9461 H 888.354 -1.90667 -2.2954 0
M  V30 9462 C 887.103 -0.544164 -3.43415 0
M  V30 9463 H 886.426 -1.34515 -3.76491 0
M  V30 9464 H 887.866 -0.411268 -4.22001 0
M  V30 9465 C 886.325 0.744583 -3.28569 0
M  V30 9466 O 886.855 1.80078 -3.59075 0
M  V30 9467 N 885.061 0.710083 -2.81791 0
M  V30 9468 H 884.608 -0.14971 -2.57165 0
M  V30 9469 H 884.566 1.57268 -2.72239 0
M  V30 9470 N 888.338 1.20213 -1.01915 0
M  V30 9471 C 889.749 1.7136 -0.741131 0
M  V30 9472 C 890.1 1.81705 0.740107 0
M  V30 9473 O 889.225 1.48139 1.57746 0
M  V30 9474 C 889.82 3.11231 -1.33869 0
M  V30 9475 C 888.379 3.59677 -1.10948 0
M  V30 9476 C 887.526 2.36809 -1.4428 0
M  V30 9477 H 890.477 1.05191 -1.1883 0
M  V30 9478 H 890.498 3.7342 -0.730585 0
M  V30 9479 H 890.01 3.03669 -2.41675 0
M  V30 9480 H 888.111 3.72568 -0.0492052 0
M  V30 9481 H 888.224 4.44351 -1.79134 0
M  V30 9482 H 886.588 2.39674 -0.861881 0
M  V30 9483 H 887.371 2.31886 -2.53148 0
M  V30 9484 N 889.816 0.795718 1.36037 0
M  V30 9485 C 891.041 0.38204 2.03851 0
M  V30 9486 C 891.466 -0.995553 1.59594 0
M  V30 9487 O 890.824 -1.64258 0.767401 0
M  V30 9488 C 890.872 0.461248 3.57638 0
M  V30 9489 O 889.976 -0.529448 4.08987 0
M  V30 9490 H 889.317 0.161227 0.644129 0
M  V30 9491 H 891.847 1.07858 1.73861 0
M  V30 9492 H 891.857 0.32712 4.06687 0
M  V30 9493 H 890.532 1.46613 3.89201 0
M  V30 9494 H 889.109 -0.35646 3.71192 0
M  V30 9495 N 891.294 -1.47756 0.548274 0
M  V30 9496 C 892.522 -2.06884 0.0254873 0
M  V30 9497 C 892.937 -1.40225 -1.26422 0
M  V30 9498 O 892.294 -0.495776 -1.75637 0
M  V30 9499 C 892.345 -3.61036 -0.183134 0
M  V30 9500 O 892.066 -4.25195 1.05549 0
M  V30 9501 C 893.567 -4.37008 -0.744222 0
M  V30 9502 H 890.787 -0.669697 0.041789 0
M  V30 9503 H 893.331 -1.89888 0.759138 0
M  V30 9504 H 891.486 -3.77576 -0.866886 0
M  V30 9505 H 891.9 -5.17606 0.847629 0
M  V30 9506 H 893.374 -5.45579 -0.839529 0
M  V30 9507 H 893.851 -4.0268 -1.75344 0
M  V30 9508 H 894.457 -4.25191 -0.0964542 0
M  V30 9509 N 892.772 -0.284283 -1.55015 0
M  V30 9510 C 894.183 0.211681 -1.85496 0
M  V30 9511 C 894.534 1.54735 -1.2063 0
M  V30 9512 O 893.659 2.10594 -0.497918 0
M  V30 9513 C 894.254 0.390864 -3.36538 0
M  V30 9514 C 892.813 0.831055 -3.67111 0
M  V30 9515 C 891.96 -0.0703581 -2.77211 0
M  V30 9516 H 894.911 -0.505803 -1.50424 0
M  V30 9517 H 894.932 1.22803 -3.60138 0
M  V30 9518 H 894.444 -0.581409 -3.8372 0
M  V30 9519 H 892.545 1.81447 -3.25434 0
M  V30 9520 H 892.658 0.662026 -4.74504 0
M  V30 9521 H 891.022 0.447528 -2.50737 0
M  V30 9522 H 891.805 -1.03868 -3.2721 0
M  V30 9523 N 894.251 1.57596 -0.0117121 0
M  V30 9524 C 895.198 2.09153 0.975897 0
M  V30 9525 C 896.168 0.989579 1.33404 0
M  V30 9526 O 897.353 1.26273 1.43038 0
M  V30 9527 C 894.493 2.60906 2.2588 0
M  V30 9528 C 893.606 3.85046 1.95866 0
M  V30 9529 C 892.741 4.25257 3.18323 0
M  V30 9530 C 891.78 5.42202 2.84049 0
M  V30 9531 N 890.917 5.77651 3.99079 0
M  V30 9532 H 895.757 2.93261 0.52931 0
M  V30 9533 H 893.294 1.44965 0.249691 0
M  V30 9534 H 895.252 2.88995 3.00895 0
M  V30 9535 H 893.882 1.79654 2.68187 0
M  V30 9536 H 892.934 3.63794 1.11168 0
M  V30 9537 H 894.246 4.70151 1.66611 0
M  V30 9538 H 893.4 4.5469 4.01674 0
M  V30 9539 H 892.139 3.38884 3.50726 0
M  V30 9540 H 891.144 5.1248 1.99107 0
M  V30 9541 H 892.369 6.3026 2.52881 0
M  V30 9542 H 890.315 4.94235 4.31356 0
M  V30 9543 H 890.232 6.57356 3.73388 0
M  V30 9544 H 891.5 6.11681 4.83183 0
M  V30 9545 N 895.729 -0.261212 1.5542 0
M  V30 9546 C 897.145 -0.609012 1.47524 0
M  V30 9547 C 897.345 -1.88986 0.699042 0
M  V30 9548 O 896.401 -2.51517 0.222628 0
M  V30 9549 C 897.714 -0.725025 2.91828 0
M  V30 9550 C 899.262 -0.818302 3.02114 0
M  V30 9551 C 899.737 -0.965996 4.47697 0
M  V30 9552 N 901.228 -1.03123 4.51575 0
M  V30 9553 C 901.963 -1.16451 5.6145 0
M  V30 9554 N 901.459 -1.26425 6.81167 0
M  V30 9555 N 903.252 -1.19655 5.49217 0
M  V30 9556 H 895.403 0.579807 2.04333 0
M  V30 9557 H 897.666 0.198072 0.927077 0
M  V30 9558 H 897.372 0.145871 3.51397 0
M  V30 9559 H 897.246 -1.60156 3.41511 0
M  V30 9560 H 899.633 -1.67966 2.42634 0
M  V30 9561 H 899.714 0.0830895 2.55665 0
M  V30 9562 H 899.358 -0.109251 5.07782 0
M  V30 9563 H 899.288 -1.88221 4.91813 0
M  V30 9564 H 901.779 -0.966072 3.65343 0
M  V30 9565 H 902.092 -1.36462 7.60656 0
M  V30 9566 H 900.437 -1.23408 6.83956 0
M  V30 9567 H 903.628 -1.11501 4.54626 0
M  V30 9568 H 903.801 -1.29698 6.34888 0
M  V30 9569 N 897.207 -1.48554 -0.526253 0
M  V30 9570 C 898.117 -1.66044 -1.65731 0
M  V30 9571 C 899.133 -0.542951 -1.65312 0
M  V30 9572 O 900.309 -0.814495 -1.84195 0
M  V30 9573 C 897.374 -1.69959 -3.02184 0
M  V30 9574 C 896.435 -2.93362 -3.13428 0
M  V30 9575 C 895.668 -2.97081 -4.43372 0
M  V30 9576 O 895.891 -2.09103 -5.3069 0
M  V30 9577 O 894.825 -3.8929 -4.59061 0
M  V30 9578 H 898.651 -2.61811 -1.53912 0
M  V30 9579 H 896.236 -1.31999 -0.699759 0
M  V30 9580 H 898.118 -1.75033 -3.83329 0
M  V30 9581 H 896.793 -0.773658 -3.14319 0
M  V30 9582 H 895.7 -2.93818 -2.31564 0
M  V30 9583 H 897.033 -3.85352 -3.06211 0
M  V30 9584 N 898.685 0.775411 -1.37205 0
M  V30 9585 C 899.632 1.88857 -1.32671 0
M  V30 9586 C 900.602 1.64976 -0.192899 0
M  V30 9587 O 901.787 1.86944 -0.381673 0
M  V30 9588 C 898.927 3.25871 -1.13588 0
M  V30 9589 C 898.04 3.61731 -2.36167 0
M  V30 9590 C 897.175 4.87934 -2.09985 0
M  V30 9591 C 896.214 5.16514 -3.2845 0
M  V30 9592 N 895.351 6.33905 -3.01842 0
M  V30 9593 H 900.191 1.92068 -2.27846 0
M  V30 9594 H 897.728 0.939066 -1.13225 0
M  V30 9595 H 899.686 4.04903 -1.00546 0
M  V30 9596 H 898.316 3.22045 -0.220613 0
M  V30 9597 H 897.368 2.77712 -2.59962 0
M  V30 9598 H 898.68 3.78792 -3.24528 0
M  V30 9599 H 897.834 5.74863 -1.93953 0
M  V30 9600 H 896.573 4.7297 -1.18956 0
M  V30 9601 H 895.578 4.28063 -3.45025 0
M  V30 9602 H 896.803 5.33389 -4.20325 0
M  V30 9603 H 894.749 6.20306 -2.13439 0
M  V30 9604 H 894.666 6.51364 -3.83746 0
M  V30 9605 H 895.934 7.23779 -2.8942 0
M  V30 9606 N 900.163 1.21714 1.00117 0
M  V30 9607 C 901.126 0.981338 2.07129 0
M  V30 9608 C 902.126 -0.0491116 1.60725 0
M  V30 9609 O 903.316 0.188555 1.73177 0
M  V30 9610 C 900.448 0.480608 3.37495 0
M  V30 9611 H 901.641 1.93075 2.29482 0
M  V30 9612 H 899.194 1.03467 1.17151 0
M  V30 9613 H 899.929 -0.473552 3.20824 0
M  V30 9614 H 899.714 1.22393 3.72508 0
M  V30 9615 H 901.204 0.33561 4.16249 0
M  V30 9616 N 901.641 -1.19671 1.02551 0
M  V30 9617 C 902.551 -2.26441 0.613329 0
M  V30 9618 C 903.567 -1.70375 -0.353339 0
M  V30 9619 O 904.743 -2.0028 -0.212064 0
M  V30 9620 C 901.808 -3.46684 -0.0329028 0
M  V30 9621 C 900.869 -4.17945 0.980837 0
M  V30 9622 C 900.102 -5.32448 0.36535 0
M  V30 9623 O 900.325 -5.64291 -0.832596 0
M  V30 9624 O 899.259 -5.92012 1.08652 0
M  V30 9625 H 903.085 -2.63932 1.50246 0
M  V30 9626 H 900.67 -1.2646 0.795502 0
M  V30 9627 H 902.552 -4.1956 -0.393395 0
M  V30 9628 H 901.227 -3.1105 -0.896089 0
M  V30 9629 H 900.134 -3.47204 1.39286 0
M  V30 9630 H 901.467 -4.57542 1.81428 0
M  V30 9631 N 903.119 -0.802921 -1.35613 0
M  V30 9632 C 904.365 -0.391259 -1.99601 0
M  V30 9633 C 904.72 1.02922 -1.62557 0
M  V30 9634 O 904.013 1.70357 -0.876878 0
M  V30 9635 C 904.207 -0.507806 -3.53774 0
M  V30 9636 C 904.036 -1.93807 -4.05794 0
M  V30 9637 C 902.806 -2.56564 -4.3532 0
M  V30 9638 C 905.004 -2.90211 -4.24596 0
M  V30 9639 N 902.986 -3.91038 -4.73247 0
M  V30 9640 C 904.357 -4.09548 -4.65479 0
M  V30 9641 C 906.412 -2.87091 -4.06796 0
M  V30 9642 C 905.115 -5.26191 -4.90424 0
M  V30 9643 C 907.141 -4.02933 -4.32896 0
M  V30 9644 C 906.503 -5.21017 -4.74047 0
M  V30 9645 H 902.602 -0.190867 -0.758349 0
M  V30 9646 H 905.186 -1.04338 -1.64382 0
M  V30 9647 H 903.357 0.114306 -3.88232 0
M  V30 9648 H 905.089 -0.0710855 -4.04638 0
M  V30 9649 H 901.844 -2.07945 -4.25507 0
M  V30 9650 H 902.268 -4.60262 -4.96475 0
M  V30 9651 H 906.91 -1.96951 -3.74126 0
M  V30 9652 H 904.628 -6.16906 -5.2197 0
M  V30 9653 H 908.214 -4.01895 -4.2068 0
M  V30 9654 H 907.094 -6.09165 -4.93849 0
M  V30 9655 N 904.597 1.47463 -0.556102 0
M  V30 9656 C 905.527 2.32801 0.180497 0
M  V30 9657 C 906.508 1.43721 0.909848 0
M  V30 9658 O 907.693 1.72578 0.89053 0
M  V30 9659 C 904.823 3.25478 1.21167 0
M  V30 9660 C 903.777 4.2379 0.598846 0
M  V30 9661 C 903.103 5.05783 1.73457 0
M  V30 9662 C 904.403 5.20387 -0.446659 0
M  V30 9663 H 906.097 2.94636 -0.531956 0
M  V30 9664 H 903.643 1.41683 -0.257267 0
M  V30 9665 H 905.596 3.8402 1.73513 0
M  V30 9666 H 904.32 2.61695 1.95405 0
M  V30 9667 H 902.979 3.66472 0.0966897 0
M  V30 9668 H 902.627 4.38405 2.46596 0
M  V30 9669 H 902.327 5.72343 1.33031 0
M  V30 9670 H 903.851 5.67183 2.26131 0
M  V30 9671 H 905.265 5.73299 -0.00930019 0
M  V30 9672 H 903.662 5.95143 -0.769735 0
M  V30 9673 H 904.732 4.65932 -1.34295 0
M  V30 9674 N 906.075 0.2925 1.54862 0
M  V30 9675 C 907.005 -0.580677 2.26165 0
M  V30 9676 C 907.986 -1.14485 1.25806 0
M  V30 9677 O 909.171 -1.17577 1.54562 0
M  V30 9678 C 906.301 -1.75668 2.99596 0
M  V30 9679 C 905.255 -1.32325 4.07031 0
M  V30 9680 C 904.581 -2.58374 4.68131 0
M  V30 9681 C 905.881 -0.460703 5.20264 0
M  V30 9682 H 907.575 0.0140075 2.99397 0
M  V30 9683 H 905.121 0.00817706 1.43998 0
M  V30 9684 H 907.074 -2.37356 3.48195 0
M  V30 9685 H 905.798 -2.37747 2.23928 0
M  V30 9686 H 904.457 -0.729477 3.59269 0
M  V30 9687 H 904.105 -3.18749 3.89112 0
M  V30 9688 H 903.805 -2.30078 5.40683 0
M  V30 9689 H 905.329 -3.2088 5.19489 0
M  V30 9690 H 906.743 -0.983037 5.64809 0
M  V30 9691 H 905.14 -0.271881 5.99484 0
M  V30 9692 H 906.21 0.516304 4.82143 0
M  V30 9693 N 907.553 -1.57587 0.0200696 0
M  V30 9694 C 908.969 -1.56018 -0.336237 0
M  V30 9695 C 909.169 -1.02478 -1.73495 0
M  V30 9696 O 908.225 -0.667487 -2.43518 0
M  V30 9697 C 909.538 -3.00079 -0.193112 0
M  V30 9698 C 911.086 -3.11863 -0.266557 0
M  V30 9699 C 911.561 -4.57747 -0.152326 0
M  V30 9700 N 913.052 -4.62726 -0.209596 0
M  V30 9701 C 913.787 -5.73217 -0.144855 0
M  V30 9702 N 913.283 -6.92794 -0.0295487 0
M  V30 9703 N 915.076 -5.61751 -0.198184 0
M  V30 9704 H 907.227 -1.90722 0.93482 0
M  V30 9705 H 909.49 -0.876909 0.360186 0
M  V30 9706 H 909.196 -3.43167 0.770036 0
M  V30 9707 H 909.07 -3.64593 -0.967029 0
M  V30 9708 H 911.457 -2.68693 -1.22016 0
M  V30 9709 H 911.538 -2.50087 0.53758 0
M  V30 9710 H 911.182 -5.01595 0.797817 0
M  V30 9711 H 911.112 -5.17491 -0.97521 0
M  V30 9712 H 913.603 -3.76713 -0.299229 0
M  V30 9713 H 913.916 -7.72799 0.0134071 0
M  V30 9714 H 912.261 -6.95 0.00510737 0
M  V30 9715 H 915.452 -4.67222 -0.286603 0
M  V30 9716 H 915.625 -6.47839 -0.144266 0
M  V30 9717 N 909.032 0.252966 -1.55557 0
M  V30 9718 C 909.964 1.33585 -1.86246 0
M  V30 9719 C 910.977 1.44584 -0.748291 0
M  V30 9720 O 912.166 1.46042 -1.02635 0
M  V30 9721 C 909.266 2.71509 -2.02821 0
M  V30 9722 C 908.439 2.82853 -3.33636 0
M  V30 9723 C 907.498 4.01581 -3.40028 0
M  V30 9724 O 906.524 3.91394 -4.13278 0
M  V30 9725 N 907.726 5.14474 -2.6888 0
M  V30 9726 H 910.491 1.07596 -2.7972 0
M  V30 9727 H 908.052 0.443075 -1.55719 0
M  V30 9728 H 910.044 3.49262 -2.04445 0
M  V30 9729 H 908.614 2.90232 -1.1612 0
M  V30 9730 H 907.834 1.91823 -3.4438 0
M  V30 9731 H 909.122 2.87378 -4.19871 0
M  V30 9732 H 908.52 5.25641 -2.09087 0
M  V30 9733 H 907.077 5.90385 -2.76204 0
M  V30 9734 N 910.51 1.48831 0.518367 0
M  V30 9735 C 911.457 1.64216 1.62178 0
M  V30 9736 C 912.427 0.483942 1.58894 0
M  V30 9737 O 913.612 0.708857 1.77144 0
M  V30 9738 C 910.752 1.69867 3.00399 0
M  V30 9739 C 909.865 2.96875 3.1383 0
M  V30 9740 C 909 2.93613 4.42679 0
M  V30 9741 C 908.039 4.15276 4.4968 0
M  V30 9742 N 907.176 4.10024 5.69934 0
M  V30 9743 H 912.016 2.58439 1.48368 0
M  V30 9744 H 909.553 1.28154 0.722152 0
M  V30 9745 H 911.511 1.71124 3.8049 0
M  V30 9746 H 910.141 0.791249 3.12952 0
M  V30 9747 H 909.193 3.0531 2.26914 0
M  V30 9748 H 910.505 3.86863 3.14863 0
M  V30 9749 H 909.659 2.93337 5.31073 0
M  V30 9750 H 908.398 2.01375 4.44184 0
M  V30 9751 H 907.403 4.15816 3.59691 0
M  V30 9752 H 908.628 5.08687 4.49904 0
M  V30 9753 H 906.574 3.20613 5.72314 0
M  V30 9754 H 906.491 4.93728 5.72511 0
M  V30 9755 H 907.759 4.13824 6.60583 0
M  V30 9756 N 911.988 -0.768124 1.37614 0
M  V30 9757 C 912.898 -1.91249 1.35871 0
M  V30 9758 C 913.914 -1.7208 0.257786 0
M  V30 9759 O 915.09 -1.95253 0.493782 0
M  V30 9760 C 912.155 -3.26423 1.16829 0
M  V30 9761 C 911.216 -3.5822 2.36594 0
M  V30 9762 C 910.449 -4.86945 2.1845 0
M  V30 9763 O 910.672 -5.58258 1.17064 0
M  V30 9764 O 909.606 -5.17888 3.06718 0
M  V30 9765 H 913.432 -1.95671 2.32264 0
M  V30 9766 H 911.017 -0.911382 1.18382 0
M  V30 9767 H 912.899 -4.07269 1.08212 0
M  V30 9768 H 911.574 -3.22845 0.235123 0
M  V30 9769 H 910.481 -2.77594 2.50783 0
M  V30 9770 H 911.814 -3.66545 3.2849 0
M  V30 9771 N 913.466 -1.22244 -0.994698 0
M  V30 9772 C 914.398 -0.948706 -2.08644 0
M  V30 9773 C 915.411 0.0720049 -1.62641 0
M  V30 9774 O 916.6 -0.161778 -1.77765 0
M  V30 9775 C 913.7 -0.404885 -3.36473 0
M  V30 9776 C 912.873 -1.48239 -4.11514 0
M  V30 9777 C 911.932 -0.94597 -5.17627 0
M  V30 9778 O 910.958 -1.63177 -5.45309 0
M  V30 9779 N 912.16 0.23355 -5.8003 0
M  V30 9780 H 914.925 -1.88858 -2.32707 0
M  V30 9781 H 912.486 -1.12908 -1.16032 0
M  V30 9782 H 914.478 -0.0313903 -4.04688 0
M  V30 9783 H 913.048 0.440061 -3.09487 0
M  V30 9784 H 912.268 -2.02928 -3.37955 0
M  V30 9785 H 913.556 -2.20741 -4.58422 0
M  V30 9786 H 912.954 0.80756 -5.59906 0
M  V30 9787 H 911.511 0.54845 -6.49488 0
M  V30 9788 N 914.944 1.19125 -1.03184 0
M  V30 9789 C 915.874 2.24675 -0.635889 0
M  V30 9790 C 916.855 1.66321 0.356565 0
M  V30 9791 O 918.04 1.92728 0.238625 0
M  V30 9792 C 915.17 3.47298 0.011069 0
M  V30 9793 C 914.124 4.18345 -0.903979 0
M  V30 9794 C 913.45 5.34561 -0.12197 0
M  V30 9795 C 914.75 4.72816 -2.21907 0
M  V30 9796 H 916.444 2.5805 -1.51825 0
M  V30 9797 H 913.99 1.24039 -0.73146 0
M  V30 9798 H 915.943 4.20333 0.299729 0
M  V30 9799 H 914.667 3.13131 0.928245 0
M  V30 9800 H 913.326 3.47196 -1.17688 0
M  V30 9801 H 912.974 4.9664 0.797334 0
M  V30 9802 H 912.674 5.83029 -0.731498 0
M  V30 9803 H 914.198 6.10391 0.159881 0
M  V30 9804 H 915.612 5.3759 -1.99173 0
M  V30 9805 H 914.009 5.31782 -2.78078 0
M  V30 9806 H 915.079 3.9072 -2.87168 0
M  V30 9807 N 916.422 0.810101 1.35185 0
M  V30 9808 C 917.354 0.180581 2.28488 0
M  V30 9809 C 918.367 -0.622154 1.50443 0
M  V30 9810 O 919.556 -0.453938 1.72632 0
M  V30 9811 C 916.656 -0.766447 3.30119 0
M  V30 9812 C 915.829 -0.00932028 4.37399 0
M  V30 9813 C 914.888 -0.875354 5.18868 0
M  V30 9814 O 913.914 -0.325012 5.68271 0
M  V30 9815 N 915.116 -2.19695 5.37321 0
M  V30 9816 H 917.881 0.98212 2.83151 0
M  V30 9817 H 915.442 0.665879 1.47573 0
M  V30 9818 H 917.434 -1.35012 3.81515 0
M  V30 9819 H 916.004 -1.46878 2.75945 0
M  V30 9820 H 915.224 0.755585 3.86891 0
M  V30 9821 H 916.512 0.512352 5.06214 0
M  V30 9822 H 915.91 -2.66797 4.98834 0
M  V30 9823 H 914.467 -2.72978 5.91884 0
M  V30 9824 N 917.9 -1.47166 0.563914 0
M  V30 9825 C 918.832 -2.28165 -0.217583 0
M  V30 9826 C 919.845 -1.37405 -0.873134 0
M  V30 9827 O 921.034 -1.6217 -0.745857 0
M  V30 9828 C 918.134 -3.11873 -1.32621 0
M  V30 9829 C 917.307 -4.30637 -0.766177 0
M  V30 9830 C 916.366 -4.95889 -1.76014 0
M  V30 9831 O 915.392 -5.54071 -1.3036 0
M  V30 9832 N 916.594 -4.91191 -3.09373 0
M  V30 9833 H 919.359 -2.95876 0.477256 0
M  V30 9834 H 916.92 -1.5687 0.40043 0
M  V30 9835 H 918.912 -3.52392 -1.99003 0
M  V30 9836 H 917.482 -2.46361 -1.92419 0
M  V30 9837 H 916.702 -3.94129 0.0745998 0
M  V30 9838 H 917.99 -5.07442 -0.371472 0
M  V30 9839 H 917.388 -4.45133 -3.49104 0
M  V30 9840 H 915.945 -5.35708 -3.71295 0
M  V30 9841 N 919.378 -0.300708 -1.54705 0
M  V30 9842 C 920.618 0.30953 -2.02043 0
M  V30 9843 C 920.982 1.51114 -1.18442 0
M  V30 9844 O 922.183 2.19273 -1.55477 0
M  V30 9845 C 920.454 0.657489 -3.513 0
M  V30 9846 S 922.013 1.25063 -4.206 0
M  V30 9847 H 918.831 0.0950019 -0.704624 0
M  V30 9848 H 921.433 -0.428512 -1.90746 0
M  V30 9849 H 920.137 -0.225532 -4.0978 0
M  V30 9850 H 919.668 1.42633 -3.66633 0
M  V30 9851 H 921.683 2.53844 -4.26354 0
M  V30 9852 N 920.856 1.57574 -0.0284266 0
M  V30 9853 C 921.788 2.07079 0.982391 0
M  V30 9854 C 922.801 0.994078 1.28926 0
M  V30 9855 O 923.99 1.27028 1.25404 0
M  V30 9856 C 921.09 2.47978 2.30998 0
M  V30 9857 C 920.263 3.7872 2.18838 0
M  V30 9858 C 919.322 4.06177 3.34524 0
M  V30 9859 O 918.348 4.76438 3.11441 0
M  V30 9860 N 919.55 3.56297 4.58293 0
M  V30 9861 H 922.315 2.94421 0.560011 0
M  V30 9862 H 919.876 1.61124 0.158347 0
M  V30 9863 H 921.868 2.63439 3.07216 0
M  V30 9864 H 920.438 1.66005 2.64879 0
M  V30 9865 H 919.658 3.73062 1.27351 0
M  V30 9866 H 920.946 4.6438 2.07915 0
M  V30 9867 H 920.344 2.99453 4.79942 0
M  V30 9868 H 918.901 3.77038 5.31682 0
M  V30 9869 N 922.334 -0.244713 1.55689 0
M  V30 9870 C 923.297 -1.2864 1.89695 0
M  V30 9871 C 924.297 -1.40969 0.773583 0
M  V30 9872 O 925.487 -1.39632 1.04156 0
M  V30 9873 C 922.619 -2.66379 2.12732 0
M  V30 9874 H 923.812 -0.997033 2.82841 0
M  V30 9875 H 921.365 -0.484103 1.48614 0
M  V30 9876 H 922.1 -3.00452 1.22062 0
M  V30 9877 H 921.885 -2.58812 2.94549 0
M  V30 9878 H 923.375 -3.41592 2.40218 0
M  V30 9879 N 923.813 -1.49104 -0.510467 0
M  V30 9880 C 924.723 -1.67792 -1.6396 0
M  V30 9881 C 925.739 -0.560454 -1.64727 0
M  V30 9882 O 926.915 -0.833985 -1.83321 0
M  V30 9883 C 923.98 -1.73154 -3.00364 0
M  V30 9884 C 923.041 -2.9667 -3.10299 0
M  V30 9885 C 922.274 -3.01767 -4.40196 0
M  V30 9886 O 922.497 -2.1472 -5.28443 0
M  V30 9887 O 921.431 -3.94137 -4.54906 0
M  V30 9888 H 925.257 -2.63428 -1.51126 0
M  V30 9889 H 922.842 -1.32734 -0.685719 0
M  V30 9890 H 924.724 -1.79089 -3.81451 0
M  V30 9891 H 923.399 -0.806952 -3.1348 0
M  V30 9892 H 922.306 -2.96257 -2.28435 0
M  V30 9893 H 923.639 -3.88578 -3.02106 0
M  V30 9894 N 925.291 0.760815 -1.38019 0
M  V30 9895 C 926.201 1.90526 -1.36884 0
M  V30 9896 C 927.217 1.71941 -0.266908 0
M  V30 9897 O 928.393 1.94988 -0.50413 0
M  V30 9898 C 925.458 3.25799 -1.18558 0
M  V30 9899 C 924.519 3.56961 -2.3849 0
M  V30 9900 C 923.752 4.8578 -2.21029 0
M  V30 9901 O 923.975 5.57629 -1.20023 0
M  V30 9902 O 922.909 5.16254 -3.0946 0
M  V30 9903 H 926.735 1.94437 -2.33298 0
M  V30 9904 H 924.32 0.905091 -1.18863 0
M  V30 9905 H 926.202 4.0669 -1.1037 0
M  V30 9906 H 924.877 3.22716 -0.252241 0
M  V30 9907 H 923.784 2.7626 -2.52252 0
M  V30 9908 H 925.117 3.64798 -3.30429 0
M  V30 9909 N 926.769 1.22769 0.988202 0
M  V30 9910 C 927.679 1.01844 2.11341 0
M  V30 9911 C 928.695 -0.0346937 1.73965 0
M  V30 9912 O 929.871 0.159061 2.00771 0
M  V30 9913 C 926.936 0.603837 3.41401 0
M  V30 9914 C 925.997 1.73113 3.92849 0
M  V30 9915 C 925.23 1.33621 5.16702 0
M  V30 9916 O 925.453 0.217041 5.69987 0
M  V30 9917 O 924.387 2.15444 5.62021 0
M  V30 9918 H 928.213 1.96127 2.31879 0
M  V30 9919 H 925.798 1.01405 1.09715 0
M  V30 9920 H 927.68 0.383196 4.19654 0
M  V30 9921 H 926.355 -0.310082 3.22211 0
M  V30 9922 H 925.262 2.00634 3.15748 0
M  V30 9923 H 926.595 2.62308 4.1648 0
M  V30 9924 N 928.247 -1.18576 1.03814 0
M  V30 9925 C 929.21 -2.2033 0.63146 0
M  V30 9926 C 930.21 -1.57787 -0.309816 0
M  V30 9927 O 931.4 -1.73938 -0.0955598 0
M  V30 9928 C 928.532 -3.40818 -0.0745963 0
M  V30 9929 H 929.725 -2.57824 1.53189 0
M  V30 9930 H 927.278 -1.32416 0.830398 0
M  V30 9931 H 928.013 -3.08853 -0.988947 0
M  V30 9932 H 927.798 -3.87453 0.6019 0
M  V30 9933 H 929.288 -4.16166 -0.345727 0
M  V30 9934 N 929.725 -0.817259 -1.34754 0
M  V30 9935 C 930.973 -0.401852 -1.98065 0
M  V30 9936 C 931.294 1.03718 -1.65129 0
M  V30 9937 O 930.564 1.71921 -0.939141 0
M  V30 9938 H 929.144 -0.145603 -0.732672 0
M  V30 9939 H 931.806 -1.04545 -1.64488 0
M  V30 9940 H 930.902 -0.516241 -3.07801 0
M  V30 9941 N 931.203 1.46865 -0.571711 0
M  V30 9942 C 932.133 2.3298 0.155795 0
M  V30 9943 C 933.114 1.44678 0.894553 0
M  V30 9944 O 934.299 1.73513 0.872176 0
M  V30 9945 C 931.429 3.26745 1.17708 0
M  V30 9946 C 930.383 4.24401 0.553863 0
M  V30 9947 C 929.709 5.07595 1.68083 0
M  V30 9948 C 931.009 5.19884 -0.501827 0
M  V30 9949 H 932.703 2.94056 -0.563176 0
M  V30 9950 H 930.249 1.41402 -0.27228 0
M  V30 9951 H 932.202 3.85838 1.6943 0
M  V30 9952 H 930.926 2.63753 1.92618 0
M  V30 9953 H 929.585 3.66554 0.057815 0
M  V30 9954 H 929.233 4.40996 2.41933 0
M  V30 9955 H 928.933 5.73722 1.26953 0
M  V30 9956 H 930.457 5.6955 2.20103 0
M  V30 9957 H 931.871 5.73257 -0.0701057 0
M  V30 9958 H 930.268 5.94293 -0.832815 0
M  V30 9959 H 931.338 4.64482 -1.39229 0
M  V30 9960 N 932.681 0.308908 1.54543 0
M  V30 9961 C 933.611 -0.556657 2.26768 0
M  V30 9962 C 934.592 -1.13145 1.27013 0
M  V30 9963 O 935.777 -1.15931 1.558 0
M  V30 9964 C 932.907 -1.72481 3.01443 0
M  V30 9965 C 931.861 -1.28001 4.08411 0
M  V30 9966 C 931.187 -2.53395 4.70845 0
M  V30 9967 C 932.487 -0.405497 5.20724 0
M  V30 9968 H 934.181 0.0457618 2.99365 0
M  V30 9969 H 931.727 0.0234495 1.43981 0
M  V30 9970 H 933.68 -2.3365 3.50693 0
M  V30 9971 H 932.404 -2.35359 2.26437 0
M  V30 9972 H 931.063 -0.69133 3.60022 0
M  V30 9973 H 930.711 -3.14604 3.92471 0
M  V30 9974 H 930.411 -2.2433 5.43093 0
M  V30 9975 H 931.935 -3.15352 5.22863 0
M  V30 9976 H 933.349 -0.923076 5.6582 0
M  V30 9977 H 931.746 -0.208282 5.99738 0
M  V30 9978 H 932.816 0.567412 4.81569 0
M  V30 9979 N 934.159 -1.57557 0.0367827 0
M  V30 9980 C 935.575 -1.56366 -0.31967 0
M  V30 9981 C 935.775 -1.04313 -1.72398 0
M  V30 9982 O 934.831 -0.693278 -2.42796 0
M  V30 9983 C 936.144 -3.00267 -0.161274 0
M  V30 9984 C 937.692 -3.12128 -0.233464 0
M  V30 9985 C 938.167 -4.57882 -0.103767 0
M  V30 9986 N 939.658 -4.62922 -0.160506 0
M  V30 9987 C 940.393 -5.73338 -0.0840493 0
M  V30 9988 N 939.889 -6.92786 0.043933 0
M  V30 9989 N 941.682 -5.61929 -0.138592 0
M  V30 9990 H 933.833 -1.8972 0.954996 0
M  V30 9991 H 936.096 -0.87304 0.369467 0
M  V30 9992 H 935.802 -3.42331 0.80639 0
M  V30 9993 H 935.676 -3.65599 -0.928304 0
M  V30 9994 H 938.063 -2.69972 -1.19159 0
M  V30 9995 H 938.144 -2.49503 0.564075 0
M  V30 9996 H 937.788 -5.0072 0.850973 0
M  V30 9997 H 937.718 -5.18496 -0.920268 0
M  V30 9998 H 940.209 -3.7701 -0.259257 0
M  V30 9999 H 940.522 -7.72741 0.095372 0
M  V30 10000 H 938.867 -6.94955 0.0788211 0
M  V30 10001 H 942.058 -4.67499 -0.237031 0
M  V30 10002 H 942.231 -6.47956 -0.075546 0
M  V30 10003 N 935.637 0.236453 -1.55816 0
M  V30 10004 C 937.053 0.585465 -1.48474 0
M  V30 10005 C 937.253 1.8785 -0.72902 0
M  V30 10006 O 936.309 2.51131 -0.262614 0
M  V30 10007 C 937.622 0.678506 -2.92945 0
M  V30 10008 C 939.17 0.770135 -3.03378 0
M  V30 10009 C 939.645 0.894649 -4.49177 0
M  V30 10010 N 941.136 0.959253 -4.53158 0
M  V30 10011 C 941.871 1.07505 -5.63232 0
M  V30 10012 N 941.367 1.15572 -6.83092 0
M  V30 10013 N 943.16 1.10902 -5.51051 0
M  V30 10014 H 935.311 -0.612241 -2.03385 0
M  V30 10015 H 937.574 -0.212796 -0.923808 0
M  V30 10016 H 937.28 -0.201757 -3.51121 0
M  V30 10017 H 937.154 1.54703 -3.44016 0
M  V30 10018 H 939.541 1.64085 -2.45276 0
M  V30 10019 H 939.622 -0.123753 -2.555 0
M  V30 10020 H 939.266 0.0284537 -5.07892 0
M  V30 10021 H 939.196 1.80373 -4.94745 0
M  V30 10022 H 941.687 0.907827 -3.66834 0
M  V30 10023 H 942 1.24343 -7.62731 0
M  V30 10024 H 940.345 1.12511 -6.85833 0
M  V30 10025 H 943.536 1.04255 -4.56343 0
M  V30 10026 H 943.709 1.19581 -6.36871 0
M  V30 10027 N 937.115 1.49373 0.502552 0
M  V30 10028 C 938.047 1.62045 1.62093 0
M  V30 10029 C 939.06 0.503221 1.54827 0
M  V30 10030 O 940.249 0.775208 1.60788 0
M  V30 10031 C 937.349 1.55971 3.00876 0
M  V30 10032 C 936.522 2.832 3.33341 0
M  V30 10033 C 935.581 2.702 4.51529 0
M  V30 10034 O 934.607 3.44132 4.53389 0
M  V30 10035 N 935.809 1.81642 5.5135 0
M  V30 10036 H 938.574 2.58501 1.51649 0
M  V30 10037 H 936.135 1.46442 0.690396 0
M  V30 10038 H 938.127 1.4493 3.77859 0
M  V30 10039 H 936.697 0.673795 3.05252 0
M  V30 10040 H 935.917 3.08604 2.4527 0
M  V30 10041 H 937.205 3.67551 3.51829 0
M  V30 10042 H 936.603 1.20829 5.52645 0
M  V30 10043 H 935.16 1.76524 6.27441 0
M  V30 10044 N 938.594 -0.753485 1.38421 0
M  V30 10045 C 940.01 -1.05656 1.1962 0
M  V30 10046 C 940.21 -2.0145 0.0449443 0
M  V30 10047 O 939.266 -2.45039 -0.609253 0
M  V30 10048 C 940.579 -1.63655 2.52265 0
M  V30 10049 C 942.127 -1.75825 2.58949 0
M  V30 10050 C 942.602 -2.37236 3.91769 0
M  V30 10051 N 944.093 -2.44666 3.9331 0
M  V30 10052 C 944.828 -2.93077 4.92842 0
M  V30 10053 N 944.324 -3.41523 6.02772 0
M  V30 10054 N 946.117 -2.92118 4.80232 0
M  V30 10055 H 938.268 -0.117799 2.12073 0
M  V30 10056 H 940.531 -0.114889 0.941012 0
M  V30 10057 H 940.237 -1.00734 3.36965 0
M  V30 10058 H 940.111 -2.62715 2.70667 0
M  V30 10059 H 942.498 -2.37873 1.74644 0
M  V30 10060 H 942.579 -0.754693 2.44414 0
M  V30 10061 H 942.223 -1.75822 4.76497 0
M  V30 10062 H 942.153 -3.38233 4.03616 0
M  V30 10063 H 944.644 -2.10403 3.1391 0
M  V30 10064 H 944.957 -3.76919 6.74649 0
M  V30 10065 H 943.302 -3.3958 6.06391 0
M  V30 10066 H 946.493 -2.53582 3.93464 0
M  V30 10067 H 946.666 -3.29535 5.57952 0
M  V30 10068 N 940.072 -1.23292 -0.981677 0
M  V30 10069 C 941.004 -0.970782 -2.07626 0
M  V30 10070 C 942.017 0.0547506 -1.62708 0
M  V30 10071 O 943.206 -0.180623 -1.77584 0
M  V30 10072 C 940.306 -0.44055 -3.36024 0
M  V30 10073 C 939.479 -1.52595 -4.09919 0
M  V30 10074 C 938.538 -1.00082 -5.16595 0
M  V30 10075 O 937.564 -1.68951 -5.43548 0
M  V30 10076 N 938.766 0.172017 -5.80245 0
M  V30 10077 H 941.531 -1.91316 -2.30691 0
M  V30 10078 H 939.092 -1.14133 -1.14828 0
M  V30 10079 H 941.084 -0.0743111 -4.04632 0
M  V30 10080 H 939.654 0.407211 -3.09936 0
M  V30 10081 H 938.874 -2.06501 -3.35784 0
M  V30 10082 H 940.162 -2.2559 -4.56055 0
M  V30 10083 H 939.56 0.748129 -5.60731 0
M  V30 10084 H 938.117 0.479532 -6.50034 0
M  V30 10085 N 941.55 1.18024 -1.04442 0
M  V30 10086 C 942.78 1.91753 -0.769044 0
M  V30 10087 C 943.188 1.76629 0.678141 0
M  V30 10088 O 942.531 1.09589 1.47431 0
M  V30 10089 C 942.593 3.43505 -1.0604 0
M  V30 10090 C 942.257 3.82409 -2.50225 0
M  V30 10091 C 943.254 3.8588 -3.48414 0
M  V30 10092 C 940.939 4.13594 -2.85036 0
M  V30 10093 C 942.933 4.19993 -4.79463 0
M  V30 10094 C 940.62 4.47377 -4.1629 0
M  V30 10095 C 941.618 4.50553 -5.13314 0
M  V30 10096 O 941.306 4.83546 -6.42214 0
M  V30 10097 H 941.038 0.615466 -0.279603 0
M  V30 10098 H 943.592 1.5065 -1.3962 0
M  V30 10099 H 941.822 3.84866 -0.376125 0
M  V30 10100 H 943.511 3.98486 -0.772235 0
M  V30 10101 H 944.277 3.6192 -3.2286 0
M  V30 10102 H 940.156 4.10297 -2.10185 0
M  V30 10103 H 943.7 4.22387 -5.55189 0
M  V30 10104 H 939.597 4.70798 -4.4161 0
M  V30 10105 H 940.365 5.01433 -6.46921 0
M  V30 10106 N 943.028 0.824394 1.34319 0
M  V30 10107 C 944.275 0.413167 1.9824 0
M  V30 10108 C 944.603 -1.02412 1.65354 0
M  V30 10109 O 943.858 -1.72831 0.91803 0
M  V30 10110 C 944.157 0.564024 3.52921 0
M  V30 10111 C 943.823 1.96725 4.05722 0
M  V30 10112 C 942.485 2.35111 4.19853 0
M  V30 10113 C 944.837 2.88447 4.34106 0
M  V30 10114 C 942.165 3.64551 4.59695 0
M  V30 10115 C 944.517 4.17353 4.75394 0
M  V30 10116 C 943.181 4.55714 4.8773 0
M  V30 10117 H 942.451 0.151188 0.725412 0
M  V30 10118 H 945.098 1.04863 1.60238 0
M  V30 10119 H 943.403 -0.154816 3.91494 0
M  V30 10120 H 945.1 0.226347 4.00361 0
M  V30 10121 H 941.69 1.65908 3.95187 0
M  V30 10122 H 945.874 2.60034 4.22725 0
M  V30 10123 H 941.13 3.94097 4.67437 0
M  V30 10124 H 945.304 4.88512 4.96315 0
M  V30 10125 H 942.931 5.56064 5.1836 0
M  V30 10126 N 944.506 -1.46559 0.579492 0
M  V30 10127 C 945.416 -2.34066 -0.15816 0
M  V30 10128 C 946.432 -1.49556 -0.88932 0
M  V30 10129 O 947.608 -1.82434 -0.853226 0
M  V30 10130 C 944.673 -3.26683 -1.161 0
M  V30 10131 C 943.734 -4.27092 -0.434855 0
M  V30 10132 C 942.967 -5.15283 -1.38992 0
M  V30 10133 O 943.19 -5.06345 -2.62623 0
M  V30 10134 O 942.124 -5.95099 -0.902253 0
M  V30 10135 H 945.95 -2.98488 0.560234 0
M  V30 10136 H 943.535 -1.45482 0.339918 0
M  V30 10137 H 945.417 -3.8383 -1.73932 0
M  V30 10138 H 944.092 -2.64862 -1.86091 0
M  V30 10139 H 942.999 -3.73641 0.185224 0
M  V30 10140 H 944.332 -4.9169 0.224031 0
M  V30 10141 N 945.984 -0.3171 -1.54377 0
M  V30 10142 C 946.914 0.544623 -2.2706 0
M  V30 10143 C 947.895 1.12469 -1.27611 0
M  V30 10144 O 949.08 1.15103 -1.56413 0
M  V30 10145 C 946.21 1.70879 -3.02353 0
M  V30 10146 C 945.164 1.25833 -4.09084 0
M  V30 10147 C 944.49 2.50894 -4.72182 0
M  V30 10148 C 945.79 0.377876 -5.20931 0
M  V30 10149 H 947.484 -0.0616372 -2.99337 0
M  V30 10150 H 945.03 -0.0310848 -1.43966 0
M  V30 10151 H 946.983 2.31787 -3.51927 0
M  V30 10152 H 945.707 2.34155 -2.27682 0
M  V30 10153 H 944.366 0.672228 -3.60384 0
M  V30 10154 H 944.014 3.12518 -3.94134 0
M  V30 10155 H 943.714 2.21447 -5.44275 0
M  V30 10156 H 945.238 3.12575 -5.24528 0
M  V30 10157 H 946.652 0.893056 -5.66302 0
M  V30 10158 H 945.049 0.176474 -5.9984 0
M  V30 10159 H 946.119 -0.592943 -4.81261 0
M  V30 10160 N 947.462 1.57535 -0.0451378 0
M  V30 10161 C 948.394 2.08109 0.960372 0
M  V30 10162 C 949.407 1.0077 1.27864 0
M  V30 10163 O 950.596 1.28351 1.24049 0
M  V30 10164 C 947.696 2.50414 2.28355 0
M  V30 10165 C 946.869 3.8102 2.14808 0
M  V30 10166 C 945.928 4.09702 3.30198 0
M  V30 10167 O 944.954 4.79715 3.0637 0
M  V30 10168 N 946.156 3.61138 4.54489 0
M  V30 10169 H 948.921 2.94999 0.528752 0
M  V30 10170 H 946.482 1.61283 0.141248 0
M  V30 10171 H 948.474 2.66683 3.04405 0
M  V30 10172 H 947.044 1.68805 2.63104 0
M  V30 10173 H 946.264 3.74392 1.23387 0
M  V30 10174 H 947.552 4.66559 2.02978 0
M  V30 10175 H 946.95 3.04527 4.76739 0
M  V30 10176 H 945.507 3.82656 5.27653 0
M  V30 10177 N 948.94 -0.228186 1.55939 0
M  V30 10178 C 950.18 -0.960695 1.80416 0
M  V30 10179 C 950.544 -1.81795 0.617615 0
M  V30 10180 O 951.745 -2.58369 0.741545 0
M  V30 10181 C 950.016 -1.78298 3.09749 0
M  V30 10182 S 951.575 -2.57203 3.55517 0
M  V30 10183 H 948.393 -0.322825 0.633486 0
M  V30 10184 H 950.995 -0.226852 1.94179 0
M  V30 10185 H 949.699 -1.14323 3.94155 0
M  V30 10186 H 949.23 -2.55924 2.98775 0
M  V30 10187 H 951.245 -3.80632 3.1833 0
M  V30 10188 N 950.418 -1.49637 -0.494624 0
M  V30 10189 C 951.834 -1.36541 -0.826361 0
M  V30 10190 C 952.034 -0.403386 -1.97421 0
M  V30 10191 O 951.09 0.162614 -2.51976 0
M  V30 10192 C 952.403 -2.77401 -1.16057 0
M  V30 10193 C 953.951 -2.86148 -1.26841 0
M  V30 10194 C 954.426 -4.27789 -1.63587 0
M  V30 10195 N 955.917 -4.3063 -1.70624 0
M  V30 10196 C 956.652 -5.37198 -2.00514 0
M  V30 10197 N 956.148 -6.54004 -2.28584 0
M  V30 10198 N 957.941 -5.2462 -2.01818 0
M  V30 10199 H 950.092 -2.10776 0.26219 0
M  V30 10200 H 952.355 -0.946419 0.0547235 0
M  V30 10201 H 952.061 -3.49526 -0.390434 0
M  V30 10202 H 951.935 -3.1317 -2.10249 0
M  V30 10203 H 954.322 -2.14256 -2.02925 0
M  V30 10204 H 954.403 -2.53953 -0.30684 0
M  V30 10205 H 954.047 -5.00209 -0.880507 0
M  V30 10206 H 953.977 -4.57453 -2.60854 0
M  V30 10207 H 956.468 -3.46393 -1.51065 0
M  V30 10208 H 956.781 -7.31041 -2.50598 0
M  V30 10209 H 955.126 -6.57219 -2.26027 0
M  V30 10210 H 958.317 -4.32371 -1.79369 0
M  V30 10211 H 958.49 -6.07765 -2.24778 0
M  V30 10212 N 951.896 0.746133 -1.38819 0
M  V30 10213 C 952.828 1.86991 -1.3254 0
M  V30 10214 C 953.841 1.61077 -0.236216 0
M  V30 10215 O 955.03 1.71518 -0.494341 0
M  V30 10216 C 952.13 3.22786 -1.03258 0
M  V30 10217 C 951.303 3.76145 -2.23234 0
M  V30 10218 C 950.362 4.90474 -1.90581 0
M  V30 10219 O 949.388 5.04717 -2.63153 0
M  V30 10220 N 950.59 5.74015 -0.86525 0
M  V30 10221 H 953.355 1.92885 -2.2938 0
M  V30 10222 H 950.916 0.926392 -1.32776 0
M  V30 10223 H 952.908 3.96824 -0.794533 0
M  V30 10224 H 951.478 3.12231 -0.151895 0
M  V30 10225 H 950.698 2.93587 -2.63059 0
M  V30 10226 H 951.986 4.08528 -3.03285 0
M  V30 10227 H 951.384 5.65086 -0.263577 0
M  V30 10228 H 949.941 6.48168 -0.687087 0
M  V30 10229 N 953.375 1.23811 0.975125 0
M  V30 10230 C 954.605 1.0986 1.7497 0
M  V30 10231 C 955.013 -0.352366 1.8589 0
M  V30 10232 O 954.356 -1.2553 1.34119 0
M  V30 10233 C 954.418 1.65584 3.19096 0
M  V30 10234 C 954.082 3.14395 3.3167 0
M  V30 10235 C 955.079 4.1163 3.17579 0
M  V30 10236 C 952.764 3.54208 3.56149 0
M  V30 10237 C 954.758 5.46661 3.27781 0
M  V30 10238 C 952.445 4.89382 3.65989 0
M  V30 10239 C 953.443 5.85418 3.51817 0
M  V30 10240 O 953.131 7.18135 3.61299 0
M  V30 10241 H 952.863 0.384854 0.555755 0
M  V30 10242 H 955.417 1.64242 1.23343 0
M  V30 10243 H 953.647 1.05627 3.71994 0
M  V30 10244 H 955.336 1.47032 3.78334 0
M  V30 10245 H 956.102 3.82214 2.98559 0
M  V30 10246 H 951.981 2.79968 3.66249 0
M  V30 10247 H 955.525 6.21601 3.16636 0
M  V30 10248 H 951.422 5.18473 3.84521 0
M  V30 10249 H 952.19 7.25956 3.78061 0
M  V30 10250 N 954.853 -1.17469 1.05066 0
M  V30 10251 C 955.8 -2.21443 0.650512 0
M  V30 10252 C 956.77 -1.62441 -0.346702 0
M  V30 10253 O 957.955 -1.89305 -0.238404 0
M  V30 10254 C 955.095 -3.45087 0.0301014 0
M  V30 10255 C 954.208 -4.18385 1.07599 0
M  V30 10256 C 953.343 -5.29513 0.423038 0
M  V30 10257 C 952.382 -5.94596 1.45333 0
M  V30 10258 N 951.519 -6.97241 0.824623 0
M  V30 10259 H 956.359 -2.55025 1.54163 0
M  V30 10260 H 953.896 -1.25274 0.771032 0
M  V30 10261 H 955.854 -4.15754 -0.347032 0
M  V30 10262 H 954.484 -3.12093 -0.824481 0
M  V30 10263 H 953.536 -3.46446 1.57097 0
M  V30 10264 H 954.848 -4.62899 1.85813 0
M  V30 10265 H 954.002 -6.067 -0.00774975 0
M  V30 10266 H 952.741 -4.86129 -0.391092 0
M  V30 10267 H 951.746 -5.16142 1.89415 0
M  V30 10268 H 952.971 -6.40061 2.26934 0
M  V30 10269 H 950.917 -6.55993 0.0309804 0
M  V30 10270 H 950.834 -7.40059 1.54432 0
M  V30 10271 H 952.102 -7.78375 0.418567 0
M  V30 10272 N 956.331 -0.831506 -1.3388 0
M  V30 10273 C 957.747 -0.518349 -1.50948 0
M  V30 10274 C 957.947 0.955807 -1.77388 0
M  V30 10275 O 957.003 1.73993 -1.82983 0
M  V30 10276 C 958.316 -1.38531 -2.66889 0
M  V30 10277 C 959.864 -1.38332 -2.80772 0
M  V30 10278 C 960.339 -2.23497 -3.99766 0
M  V30 10279 N 961.83 -2.21167 -4.06988 0
M  V30 10280 C 962.565 -2.83805 -4.98239 0
M  V30 10281 N 962.061 -3.55468 -5.94655 0
M  V30 10282 N 963.854 -2.73314 -4.91178 0
M  V30 10283 H 956.005 -1.78588 -1.14978 0
M  V30 10284 H 958.268 -0.761508 -0.564633 0
M  V30 10285 H 957.974 -2.43255 -2.54007 0
M  V30 10286 H 957.848 -1.05611 -3.62114 0
M  V30 10287 H 960.235 -0.343832 -2.9309 0
M  V30 10288 H 960.316 -1.75256 -1.86331 0
M  V30 10289 H 959.96 -3.27501 -3.88208 0
M  V30 10290 H 959.89 -1.83919 -4.93438 0
M  V30 10291 H 962.381 -1.69046 -3.37982 0
M  V30 10292 H 962.694 -4.00487 -6.60931 0
M  V30 10293 H 961.039 -3.59575 -5.94753 0
M  V30 10294 H 964.23 -2.16897 -4.14817 0
M  V30 10295 H 964.403 -3.22416 -5.62096 0
M  V30 10296 N 957.809 1.4625 -0.587256 0
M  V30 10297 C 958.756 2.30354 0.143384 0
M  V30 10298 C 959.726 1.40891 0.879716 0
M  V30 10299 O 960.911 1.69837 0.869486 0
M  V30 10300 C 958.051 3.25441 1.14815 0
M  V30 10301 C 957.164 4.30004 0.414792 0
M  V30 10302 C 956.299 5.12214 1.40748 0
M  V30 10303 C 955.338 6.08523 0.660786 0
M  V30 10304 N 954.475 6.83585 1.60176 0
M  V30 10305 H 959.315 2.92304 -0.579866 0
M  V30 10306 H 956.852 1.44055 -0.29777 0
M  V30 10307 H 958.81 3.79018 1.7436 0
M  V30 10308 H 957.44 2.6529 1.83906 0
M  V30 10309 H 956.492 3.79248 -0.295787 0
M  V30 10310 H 957.804 4.98515 -0.168738 0
M  V30 10311 H 956.958 5.70091 2.0756 0
M  V30 10312 H 955.697 4.43675 2.02494 0
M  V30 10313 H 954.702 5.49796 -0.0210864 0
M  V30 10314 H 955.927 6.79083 0.0486551 0
M  V30 10315 H 953.873 6.17752 2.20724 0
M  V30 10316 H 953.79 7.48373 1.07115 0
M  V30 10317 H 955.058 7.46016 2.26009 0
M  V30 10318 N 959.287 0.325282 1.54207 0
M  V30 10319 C 960.22 -0.582485 2.20641 0
M  V30 10320 C 961.198 -1.11441 1.18405 0
M  V30 10321 O 962.382 -1.17809 1.4715 0
M  V30 10322 C 959.509 -1.79944 2.86946 0
M  V30 10323 C 958.555 -1.39861 4.02916 0
M  V30 10324 S 959.388 -0.433859 5.3374 0
M  V30 10325 C 960.544 -1.65806 6.03539 0
M  V30 10326 H 960.777 -0.0181601 2.97294 0
M  V30 10327 H 958.31 0.109365 1.54012 0
M  V30 10328 H 960.268 -2.4977 3.25769 0
M  V30 10329 H 958.929 -2.33495 2.10092 0
M  V30 10330 H 958.122 -2.30547 4.48179 0
M  V30 10331 H 957.724 -0.780036 3.65775 0
M  V30 10332 H 960.016 -2.59524 6.25822 0
M  V30 10333 H 960.959 -1.24756 6.97023 0
M  V30 10334 H 961.367 -1.84581 5.3347 0
M  V30 10335 N 960.765 -1.57509 0.0534917 0
M  V30 10336 C 961.695 -2.14698 -0.917999 0
M  V30 10337 C 962.676 -1.06924 -1.32292 0
M  V30 10338 O 963.861 -1.34875 -1.39723 0
M  V30 10339 C 960.991 -2.69383 -2.19203 0
M  V30 10340 C 959.945 -3.82161 -1.9271 0
M  V30 10341 C 959.271 -4.23373 -3.26587 0
M  V30 10342 C 960.571 -5.07199 -1.24686 0
M  V30 10343 H 962.265 -2.96125 -0.44165 0
M  V30 10344 H 959.811 -1.42446 -0.210993 0
M  V30 10345 H 961.764 -3.08031 -2.87567 0
M  V30 10346 H 960.488 -1.85151 -2.69048 0
M  V30 10347 H 959.147 -3.43989 -1.26757 0
M  V30 10348 H 958.795 -3.36089 -3.74237 0
M  V30 10349 H 958.495 -4.99385 -3.09658 0
M  V30 10350 H 960.019 -4.64623 -3.96178 0
M  V30 10351 H 961.433 -5.43279 -1.83088 0
M  V30 10352 H 959.83 -5.88369 -1.18076 0
M  V30 10353 H 960.9 -4.84386 -0.223227 0
M  V30 10354 N 962.243 0.219913 -1.56058 0
M  V30 10355 C 963.173 1.27572 -1.9557 0
M  V30 10356 C 964.154 1.48801 -0.824148 0
M  V30 10357 O 965.339 1.60957 -1.08658 0
M  V30 10358 C 962.469 2.62517 -2.27381 0
M  V30 10359 C 961.423 2.55941 -3.43042 0
M  V30 10360 C 960.749 3.94931 -3.60463 0
M  V30 10361 C 962.049 2.10584 -4.77966 0
M  V30 10362 H 963.743 0.947482 -2.84013 0
M  V30 10363 H 961.289 0.454337 -1.36645 0
M  V30 10364 H 963.242 3.36538 -2.53615 0
M  V30 10365 H 961.966 2.97031 -1.35794 0
M  V30 10366 H 960.625 1.84377 -3.1686 0
M  V30 10367 H 960.273 4.26756 -2.66249 0
M  V30 10368 H 959.973 3.91413 -4.38258 0
M  V30 10369 H 961.497 4.70611 -3.89046 0
M  V30 10370 H 962.911 2.74349 -5.03394 0
M  V30 10371 H 961.308 2.18122 -5.59055 0
M  V30 10372 H 962.378 1.05818 -4.73213 0
M  V30 10373 N 963.721 1.49897 0.486681 0
M  V30 10374 C 964.684 1.67086 1.56891 0
M  V30 10375 C 965.684 0.54209 1.51387 0
M  V30 10376 O 966.874 0.80883 1.54284 0
M  V30 10377 C 964.006 1.68159 2.96539 0
M  V30 10378 H 965.199 2.63626 1.42974 0
M  V30 10379 H 962.752 1.39143 0.711954 0
M  V30 10380 H 963.487 0.732562 3.15918 0
M  V30 10381 H 963.272 2.50147 3.01942 0
M  V30 10382 H 964.762 1.83466 3.7514 0
M  V30 10383 N 965.199 -0.738761 1.39212 0
M  V30 10384 C 966.615 -1.04381 1.20734 0
M  V30 10385 C 966.815 -2.01391 0.0663082 0
M  V30 10386 O 965.871 -2.45672 -0.583229 0
M  V30 10387 C 967.184 -1.6097 2.53987 0
M  V30 10388 C 968.732 -1.73069 2.60799 0
M  V30 10389 C 969.207 -2.33067 3.94264 0
M  V30 10390 N 970.698 -2.40481 3.95883 0
M  V30 10391 C 971.433 -2.87834 4.95923 0
M  V30 10392 N 970.929 -3.35111 6.0636 0
M  V30 10393 N 972.722 -2.87009 4.83304 0
M  V30 10394 H 964.873 -0.0952996 2.12186 0
M  V30 10395 H 967.136 -0.104902 0.942178 0
M  V30 10396 H 966.842 -0.971548 3.38015 0
M  V30 10397 H 966.716 -2.59829 2.73439 0
M  V30 10398 H 969.103 -2.36007 1.77157 0
M  V30 10399 H 969.184 -0.728728 2.452 0
M  V30 10400 H 968.828 -1.70758 4.78335 0
M  V30 10401 H 968.758 -3.33933 4.07181 0
M  V30 10402 H 971.249 -2.07061 3.16123 0
M  V30 10403 H 971.562 -3.69742 6.78609 0
M  V30 10404 H 969.907 -3.33129 6.09959 0
M  V30 10405 H 973.098 -2.49395 3.96131 0
M  V30 10406 H 973.271 -3.23598 5.61416 0
M  V30 10407 N 966.677 -1.24326 -0.968545 0
M  V30 10408 C 967.627 -1.00191 -2.04807 0
M  V30 10409 C 968.611 0.0563524 -1.60801 0
M  V30 10410 O 969.803 -0.157268 -1.763 0
M  V30 10411 C 966.932 -0.607749 -3.37878 0
M  V30 10412 C 966.018 -1.70204 -3.88447 0
M  V30 10413 N 966.409 -2.93463 -4.11962 0
M  V30 10414 C 964.707 -1.57936 -4.171 0
M  V30 10415 C 965.408 -3.64397 -4.5342 0
M  V30 10416 N 964.384 -2.91956 -4.58544 0
M  V30 10417 H 968.186 -1.93786 -2.20962 0
M  V30 10418 H 965.7 -1.1444 -1.15227 0
M  V30 10419 H 967.697 -0.416079 -4.14819 0
M  V30 10420 H 966.357 0.321026 -3.23109 0
M  V30 10421 H 967.368 -3.2965 -3.99438 0
M  V30 10422 H 964.045 -0.718552 -4.1127 0
M  V30 10423 H 965.435 -4.70125 -4.80034 0
M  V30 10424 N 968.156 1.1691 -1.05688 0
M  V30 10425 C 969.381 1.91745 -0.790478 0
M  V30 10426 C 969.806 1.76568 0.648478 0
M  V30 10427 O 969.164 1.08682 1.45114 0
M  V30 10428 C 969.212 3.4067 -1.18222 0
M  V30 10429 O 968.316 4.11177 -0.317341 0
M  V30 10430 H 967.657 0.5976 -0.28943 0
M  V30 10431 H 970.187 1.48157 -1.41105 0
M  V30 10432 H 970.197 3.91424 -1.15114 0
M  V30 10433 H 968.872 3.51036 -2.2304 0
M  V30 10434 H 967.449 3.70645 -0.409459 0
M  V30 10435 N 969.634 0.838594 1.33437 0
M  V30 10436 C 970.564 0.286672 2.31734 0
M  V30 10437 C 971.545 -0.605451 1.5896 0
M  V30 10438 O 972.73 -0.529059 1.86854 0
M  V30 10439 C 969.86 -0.539311 3.43087 0
M  V30 10440 C 968.814 0.256997 4.27228 0
M  V30 10441 C 968.14 -0.692718 5.30194 0
M  V30 10442 C 969.44 1.47391 5.01072 0
M  V30 10443 H 971.134 1.10798 2.78144 0
M  V30 10444 H 968.68 0.534235 1.33723 0
M  V30 10445 H 970.633 -0.935724 4.1088 0
M  V30 10446 H 969.357 -1.39383 2.95364 0
M  V30 10447 H 968.016 0.634967 3.61059 0
M  V30 10448 H 967.664 -1.54363 4.78729 0
M  V30 10449 H 967.364 -0.164023 5.87371 0
M  V30 10450 H 968.888 -1.08665 6.00853 0
M  V30 10451 H 970.302 1.15067 5.61634 0
M  V30 10452 H 968.699 1.93937 5.67898 0
M  V30 10453 H 969.769 2.24382 4.29861 0
M  V30 10454 N 971.112 -1.45937 0.595003 0
M  V30 10455 C 972.389 -1.95592 0.0178748 0
M  V30 10456 C 972.769 -1.53758 -1.44643 0
M  V30 10457 O 972.117 -0.794104 -2.14257 0
M  V30 10458 C 972.327 -3.4841 0.202789 0
M  V30 10459 C 973.675 -4.2453 0.0770121 0
M  V30 10460 O 974.699 -3.55954 0.132257 0
M  V30 10461 O 973.558 -5.46479 -0.0484271 0
M  V30 10462 H 970.652 -0.825888 -0.0428702 0
M  V30 10463 H 973.198 -1.56162 0.664184 0
M  V30 10464 H 971.97 -3.71787 1.22027 0
M  V30 10465 H 971.593 -3.947 -0.479376 0
M  V30 10466 N 972.59 -0.333456 -1.54032 0
M  V30 10467 C 973.522 0.562174 -2.22199 0
M  V30 10468 C 974.535 1.07202 -1.22522 0
M  V30 10469 O 975.724 0.983897 -1.48935 0
M  V30 10470 C 972.824 1.78525 -2.88066 0
M  V30 10471 C 971.997 1.41242 -4.13968 0
M  V30 10472 C 971.056 2.49408 -4.63338 0
M  V30 10473 O 970.082 2.13138 -5.27789 0
M  V30 10474 N 971.284 3.805 -4.38406 0
M  V30 10475 H 974.049 -0.0215629 -2.99692 0
M  V30 10476 H 971.61 -0.157111 -1.61136 0
M  V30 10477 H 973.602 2.50298 -3.18014 0
M  V30 10478 H 972.172 2.2766 -2.14219 0
M  V30 10479 H 971.392 0.525887 -3.90676 0
M  V30 10480 H 972.68 1.13916 -4.95884 0
M  V30 10481 H 972.078 4.12761 -3.86839 0
M  V30 10482 H 970.635 4.48474 -4.72984 0
M  V30 10483 N 974.068 1.57479 -0.061844 0
M  V30 10484 C 975.345 1.84484 0.649993 0
M  V30 10485 C 975.725 0.952366 1.88396 0
M  V30 10486 O 975.073 0.0161035 2.28494 0
M  V30 10487 C 975.283 3.34452 0.997133 0
M  V30 10488 C 976.631 4.01724 1.37488 0
M  V30 10489 O 977.655 3.3914 1.08916 0
M  V30 10490 O 976.514 5.12091 1.90854 0
M  V30 10491 H 973.608 0.761798 0.321858 0
M  V30 10492 H 976.154 1.6945 -0.0920192 0
M  V30 10493 H 974.926 3.91115 0.120301 0
M  V30 10494 H 974.549 3.54713 1.79624 0
M  V30 10495 N 975.546 -0.211634 1.56173 0
M  V30 10496 C 976.476 -1.26533 1.96244 0
M  V30 10497 C 977.457 -1.48362 0.832028 0
M  V30 10498 O 978.642 -1.60378 1.0951 0
M  V30 10499 C 975.772 -2.61307 2.2877 0
M  V30 10500 C 974.726 -2.54119 3.44395 0
M  V30 10501 C 974.052 -3.93014 3.62552 0
M  V30 10502 C 975.352 -2.08046 4.79076 0
M  V30 10503 H 977.046 -0.932407 2.84511 0
M  V30 10504 H 974.592 -0.447084 1.36884 0
M  V30 10505 H 976.545 -3.35188 2.55396 0
M  V30 10506 H 975.269 -2.96307 1.37367 0
M  V30 10507 H 973.928 -1.82694 3.17834 0
M  V30 10508 H 973.576 -4.25338 2.68508 0
M  V30 10509 H 973.276 -3.89083 4.40327 0
M  V30 10510 H 974.8 -4.68542 3.91537 0
M  V30 10511 H 976.214 -2.71676 5.04842 0
M  V30 10512 H 974.611 -2.15154 5.60204 0
M  V30 10513 H 975.681 -1.03306 4.73768 0
M  V30 10514 N 977.024 -1.50153 -0.478725 0
M  V30 10515 C 977.954 -1.71384 -1.58587 0
M  V30 10516 C 978.935 -0.562705 -1.60523 0
M  V30 10517 O 980.12 -0.80101 -1.76911 0
M  V30 10518 C 977.25 -1.80094 -2.96957 0
M  V30 10519 C 976.204 -2.95218 -3.09888 0
M  V30 10520 C 975.53 -2.89063 -4.49829 0
M  V30 10521 C 976.83 -4.35841 -2.8782 0
M  V30 10522 H 978.524 -2.64081 -1.41073 0
M  V30 10523 H 976.07 -1.27081 -0.677239 0
M  V30 10524 H 978.023 -1.93531 -3.74331 0
M  V30 10525 H 976.747 -0.840131 -3.1561 0
M  V30 10526 H 975.406 -2.81419 -2.34944 0
M  V30 10527 H 975.054 -1.90844 -4.6539 0
M  V30 10528 H 974.754 -3.66345 -4.59418 0
M  V30 10529 H 976.278 -3.04539 -5.29234 0
M  V30 10530 H 977.692 -4.50205 -3.54948 0
M  V30 10531 H 976.089 -5.14515 -3.0886 0
M  V30 10532 H 977.159 -4.48739 -1.83742 0
M  V30 10533 N 978.502 0.731368 -1.39602 0
M  V30 10534 C 979.918 1.03739 -1.21286 0
M  V30 10535 C 980.118 2.01353 -0.0769875 0
M  V30 10536 O 979.174 2.45978 0.570193 0
M  V30 10537 C 980.487 1.59621 -2.54837 0
M  V30 10538 C 982.035 1.71683 -2.61713 0
M  V30 10539 C 982.51 2.30973 -3.95494 0
M  V30 10540 N 984.001 2.38378 -3.97153 0
M  V30 10541 C 984.736 2.852 -4.97442 0
M  V30 10542 N 984.232 3.31891 -6.08129 0
M  V30 10543 N 986.025 2.84441 -4.84819 0
M  V30 10544 H 978.176 0.0840456 -2.12234 0
M  V30 10545 H 980.439 0.0999038 -0.942721 0
M  V30 10546 H 980.145 0.953608 -3.38525 0
M  V30 10547 H 980.019 2.58375 -2.74813 0
M  V30 10548 H 982.406 2.35064 -1.78406 0
M  V30 10549 H 982.487 0.715714 -2.45583 0
M  V30 10550 H 982.131 1.68219 -4.79234 0
M  V30 10551 H 982.061 3.31769 -4.08946 0
M  V30 10552 H 984.552 2.05382 -3.17217 0
M  V30 10553 H 984.865 3.66138 -6.8056 0
M  V30 10554 H 983.21 3.2989 -6.11717 0
M  V30 10555 H 986.401 2.4729 -3.97448 0
M  V30 10556 H 986.574 3.20616 -5.63124 0
M  V30 10557 N 979.98 1.24838 0.961938 0
M  V30 10558 C 980.89 1.06304 2.09133 0
M  V30 10559 C 981.906 0.00221475 1.74 0
M  V30 10560 O 983.082 0.201611 2.00388 0
M  V30 10561 C 980.147 0.676117 3.40043 0
M  V30 10562 C 979.208 1.81407 3.89089 0
M  V30 10563 C 978.441 1.44551 5.13752 0
M  V30 10564 O 978.664 0.337894 5.69398 0
M  V30 10565 O 977.598 2.27316 5.57325 0
M  V30 10566 H 981.424 2.01001 2.27667 0
M  V30 10567 H 979.009 1.0371 1.07539 0
M  V30 10568 H 980.891 0.472124 4.18747 0
M  V30 10569 H 979.566 -0.241667 3.22797 0
M  V30 10570 H 978.473 2.07286 3.11421 0
M  V30 10571 H 979.806 2.71083 4.10822 0
M  V30 10572 N 981.458 -1.16348 1.06306 0
M  V30 10573 C 982.735 -1.829 0.69331 0
M  V30 10574 C 983.115 -1.94298 -0.82531 0
M  V30 10575 O 982.463 -1.48619 -1.73565 0
M  V30 10576 C 982.673 -3.1989 1.3954 0
M  V30 10577 C 984.021 -3.95662 1.54068 0
M  V30 10578 O 985.045 -3.29408 1.35532 0
M  V30 10579 O 983.904 -5.14422 1.84479 0
M  V30 10580 H 980.998 -0.789738 0.245445 0
M  V30 10581 H 983.544 -1.23549 1.16334 0
M  V30 10582 H 982.316 -3.06629 2.43093 0
M  V30 10583 H 981.939 -3.86918 0.915453 0
M  V30 10584 N 982.937 -0.845659 -1.3299 0
M  V30 10585 C 983.867 -0.298957 -2.31578 0
M  V30 10586 C 984.848 0.597012 -1.59279 0
M  V30 10587 O 986.033 0.519142 -1.87132 0
M  V30 10588 C 983.163 0.521109 -3.43368 0
M  V30 10589 C 982.117 -0.279651 -4.27085 0
M  V30 10590 C 981.443 0.664591 -5.30554 0
M  V30 10591 C 982.743 -1.50046 -5.00283 0
M  V30 10592 H 984.437 -1.12272 -2.77552 0
M  V30 10593 H 981.983 -0.54132 -1.33438 0
M  V30 10594 H 983.936 0.913921 -4.1137 0
M  V30 10595 H 982.66 1.37815 -2.96099 0
M  V30 10596 H 981.319 -0.654106 -3.60717 0
M  V30 10597 H 980.967 1.51822 -4.79541 0
M  V30 10598 H 980.667 0.132871 -5.8745 0
M  V30 10599 H 982.191 1.05477 -6.01421 0
M  V30 10600 H 983.605 -1.18044 -5.61016 0
M  V30 10601 H 982.002 -1.96946 -5.66862 0
M  V30 10602 H 983.072 -2.26659 -4.28665 0
M  V30 10603 N 984.415 1.45619 -0.602734 0
M  V30 10604 C 985.363 2.32228 0.131484 0
M  V30 10605 C 986.357 1.45681 0.864484 0
M  V30 10606 O 987.563 1.62193 0.7806 0
M  V30 10607 H 983.938 0.7495 0.0612638 0
M  V30 10608 H 985.909 2.91941 -0.617496 0
M  V30 10609 C 984.658 3.29213 1.11866 0
M  V30 10610 H 983.981 3.95801 0.564061 0
M  V30 10611 H 985.421 3.92554 1.60242 0
M  V30 10612 C 983.88 2.56028 2.18978 0
M  V30 10613 O 984.41 2.33806 3.26646 0
M  V30 10614 N 982.616 2.16245 1.94129 0
M  V30 10615 H 982.163 2.34518 1.06579 0
M  V30 10616 H 982.121 1.67601 2.66003 0
M  V30 10617 N 985.893 0.34162 1.53853 0
M  V30 10618 C 986.84 -0.516058 2.24957 0
M  V30 10619 C 987.81 -1.09711 1.2471 0
M  V30 10620 O 988.995 -1.13409 1.53438 0
M  V30 10621 C 986.135 -1.66207 3.02439 0
M  V30 10622 C 985.248 -1.10851 4.17536 0
M  V30 10623 C 984.383 -2.22167 4.82509 0
M  V30 10624 C 983.422 -1.64152 5.89678 0
M  V30 10625 N 982.559 -2.69203 6.4844 0
M  V30 10626 H 987.399 0.0968275 2.97843 0
M  V30 10627 H 984.936 0.0595565 1.46979 0
M  V30 10628 H 986.894 -2.33672 3.4562 0
M  V30 10629 H 985.524 -2.24597 2.31853 0
M  V30 10630 H 984.576 -0.324853 3.7901 0
M  V30 10631 H 985.888 -0.644151 4.94623 0
M  V30 10632 H 985.042 -2.97501 5.28751 0
M  V30 10633 H 983.781 -2.71946 4.04842 0
M  V30 10634 H 982.786 -0.873228 5.42821 0
M  V30 10635 H 984.011 -1.15228 6.69253 0
M  V30 10636 H 981.957 -3.1824 5.73637 0
M  V30 10637 H 981.874 -2.27383 7.20994 0
M  V30 10638 H 983.142 -3.44312 6.99335 0
M  V30 10639 N 987.371 -1.57444 0.0701946 0
M  V30 10640 C 988.318 -2.12631 -0.897599 0
M  V30 10641 C 989.288 -1.03841 -1.29639 0
M  V30 10642 O 990.473 -1.31495 -1.38253 0
M  V30 10643 C 987.613 -2.6911 -2.16041 0
M  V30 10644 C 986.726 -3.9205 -1.8144 0
M  V30 10645 C 985.861 -4.36778 -3.02321 0
M  V30 10646 C 984.9 -5.52371 -2.63729 0
M  V30 10647 N 984.037 -5.92065 -3.77364 0
M  V30 10648 H 988.877 -2.95024 -0.420104 0
M  V30 10649 H 986.414 -1.45792 -0.195716 0
M  V30 10650 H 988.372 -2.99963 -2.89962 0
M  V30 10651 H 987.002 -1.89484 -2.61334 0
M  V30 10652 H 986.054 -3.67669 -0.975896 0
M  V30 10653 H 987.366 -4.76011 -1.49046 0
M  V30 10654 H 986.52 -4.69285 -3.84521 0
M  V30 10655 H 985.259 -3.51668 -3.37907 0
M  V30 10656 H 984.264 -5.19517 -1.7995 0
M  V30 10657 H 985.489 -6.39212 -2.29315 0
M  V30 10658 H 983.435 -5.09904 -4.12715 0
M  V30 10659 H 983.352 -6.70762 -3.48733 0
M  V30 10660 H 984.62 -6.29193 -4.60148 0
M  V30 10661 N 988.849 0.203349 -1.56283 0
M  V30 10662 C 989.781 1.27592 -1.90402 0
M  V30 10663 C 990.794 1.4213 -0.79391 0
M  V30 10664 O 991.983 1.42703 -1.07229 0
M  V30 10665 C 989.083 2.64919 -2.11356 0
M  V30 10666 C 988.256 2.72095 -3.42466 0
M  V30 10667 C 987.315 3.9056 -3.52631 0
M  V30 10668 O 986.341 3.78048 -4.25521 0
M  V30 10669 N 987.543 5.0566 -2.85111 0
M  V30 10670 H 990.308 0.986423 -2.83001 0
M  V30 10671 H 987.869 0.39331 -1.5705 0
M  V30 10672 H 989.861 3.42581 -2.15453 0
M  V30 10673 H 988.431 2.86391 -1.25295 0
M  V30 10674 H 987.651 1.8077 -3.50308 0
M  V30 10675 H 988.939 2.73874 -4.28801 0
M  V30 10676 H 988.337 5.18723 -2.25705 0
M  V30 10677 H 986.894 5.81299 -2.94847 0
M  V30 10678 N 990.327 1.50405 0.470755 0
M  V30 10679 C 991.555 1.65168 1.24608 0
M  V30 10680 C 991.97 0.335153 1.85801 0
M  V30 10681 O 991.327 -0.682919 1.69241 0
M  V30 10682 C 991.378 2.74305 2.35455 0
M  V30 10683 O 991.099 4.00854 1.76771 0
M  V30 10684 C 992.6 3.00044 3.26326 0
M  V30 10685 H 989.82 0.555186 0.376842 0
M  V30 10686 H 992.364 1.9663 0.56187 0
M  V30 10687 H 990.519 2.45536 2.99651 0
M  V30 10688 H 990.933 4.61211 2.49769 0
M  V30 10689 H 992.407 3.8007 4.00313 0
M  V30 10690 H 992.884 2.11128 3.85126 0
M  V30 10691 H 993.49 3.30345 2.67866 0
M  V30 10692 N 991.805 -0.723954 1.39988 0
M  V30 10693 C 992.737 -1.84859 1.35498 0
M  V30 10694 C 993.75 -1.60681 0.261812 0
M  V30 10695 O 994.939 -1.7071 0.521566 0
M  V30 10696 C 992.039 -3.21103 1.08381 0
M  V30 10697 C 991.212 -3.72546 2.2919 0
M  V30 10698 C 990.271 -4.8738 1.9836 0
M  V30 10699 O 989.297 -5.00467 2.71149 0
M  V30 10700 N 990.499 -5.72566 0.956461 0
M  V30 10701 H 993.264 -1.89212 2.3242 0
M  V30 10702 H 990.825 -0.905152 1.34233 0
M  V30 10703 H 992.817 -3.9551 0.857564 0
M  V30 10704 H 991.387 -3.1195 0.201549 0
M  V30 10705 H 990.607 -2.89365 2.67697 0
M  V30 10706 H 991.895 -4.03652 3.09746 0
M  V30 10707 H 991.293 -5.64595 0.353444 0
M  V30 10708 H 989.85 -6.46993 0.790118 0
M  V30 10709 N 993.283 -1.25346 -0.955304 0
M  V30 10710 C 994.23 -1.05672 -2.05188 0
M  V30 10711 C 995.2 0.0339217 -1.66065 0
M  V30 10712 O 996.385 -0.123126 -1.90402 0
M  V30 10713 C 993.525 -0.680791 -3.38318 0
M  V30 10714 C 992.638 -1.84622 -3.90562 0
M  V30 10715 C 991.773 -1.41471 -5.12015 0
M  V30 10716 C 990.812 -2.54931 -5.56486 0
M  V30 10717 N 989.949 -2.1256 -6.69151 0
M  V30 10718 H 994.789 -1.9952 -2.2135 0
M  V30 10719 H 992.326 -0.993588 -1.08472 0
M  V30 10720 H 994.284 -0.443794 -4.14833 0
M  V30 10721 H 992.914 0.2207 -3.22045 0
M  V30 10722 H 991.966 -2.19654 -3.10574 0
M  V30 10723 H 993.278 -2.6983 -4.19515 0
M  V30 10724 H 992.432 -1.13732 -5.95945 0
M  V30 10725 H 991.171 -0.533334 -4.84775 0
M  V30 10726 H 990.176 -2.83415 -4.71122 0
M  V30 10727 H 991.401 -3.43645 -5.85734 0
M  V30 10728 H 989.347 -1.26838 -6.43621 0
M  V30 10729 H 989.264 -2.91317 -6.97618 0
M  V30 10730 H 990.532 -1.87996 -7.5649 0
M  V30 10731 N 994.761 1.15782 -1.06922 0
M  V30 10732 C 996.038 1.8253 -0.703 0
M  V30 10733 C 996.418 1.94733 0.814994 0
M  V30 10734 O 995.766 1.49537 1.72774 0
M  V30 10735 C 995.976 3.19145 -1.41234 0
M  V30 10736 C 997.324 3.94839 -1.56164 0
M  V30 10737 O 998.348 3.28685 -1.37277 0
M  V30 10738 O 997.207 5.13436 -1.87205 0
M  V30 10739 H 994.301 0.788425 -0.24963 0
M  V30 10740 H 996.847 1.22931 -1.16988 0
M  V30 10741 H 995.619 3.05336 -2.44715 0
M  V30 10742 H 995.242 3.86427 -0.935959 0
M  V30 10743 N 996.239 0.8527 1.3254 0
M  V30 10744 C 997.169 0.311234 2.31416 0
M  V30 10745 C 998.15 -0.588557 1.59593 0
M  V30 10746 O 999.335 -0.509211 1.87405 0
M  V30 10747 C 996.465 -0.502892 3.4364 0
M  V30 10748 C 995.419 0.302296 4.26931 0
M  V30 10749 C 994.745 -0.636445 5.30899 0
M  V30 10750 C 996.045 1.52697 4.99481 0
M  V30 10751 H 997.739 1.13742 2.76953 0
M  V30 10752 H 995.285 0.548389 1.33149 0
M  V30 10753 H 997.238 -0.892092 4.11849 0
M  V30 10754 H 995.962 -1.36242 2.96826 0
M  V30 10755 H 994.621 0.673226 3.60365 0
M  V30 10756 H 994.269 -1.49277 4.80339 0
M  V30 10757 H 993.969 -0.101716 5.87512 0
M  V30 10758 H 995.493 -1.02286 6.01972 0
M  V30 10759 H 996.907 1.21017 5.60382 0
M  V30 10760 H 995.304 1.9995 5.65809 0
M  V30 10761 H 996.374 2.28929 4.27457 0
M  V30 10762 N 997.718 -1.45297 0.610449 0
M  V30 10763 C 998.628 -2.34349 -0.108475 0
M  V30 10764 C 999.644 -1.51409 -0.857397 0
M  V30 10765 O 1000.82 -1.84202 -0.814337 0
M  V30 10766 C 997.885 -3.29072 -1.09144 0
M  V30 10767 C 996.946 -4.27918 -0.344165 0
M  V30 10768 C 996.179 -5.18116 -1.28031 0
M  V30 10769 O 996.402 -5.11802 -2.51824 0
M  V30 10770 O 995.336 -5.96879 -0.775821 0
M  V30 10771 H 999.162 -2.97232 0.623421 0
M  V30 10772 H 996.747 -1.44728 0.3707 0
M  V30 10773 H 998.629 -3.87433 -1.65751 0
M  V30 10774 H 997.304 -2.68749 -1.80431 0
M  V30 10775 H 996.211 -3.73164 0.264437 0
M  V30 10776 H 997.544 -4.91104 0.328275 0
M  V30 10777 N 999.196 -0.349774 -1.5367 0
M  V30 10778 C 1000.44 0.245095 -2.02925 0
M  V30 10779 C 1000.8 1.4727 -1.23189 0
M  V30 10780 O 1002 2.14215 -1.62374 0
M  V30 10781 C 1000.27 0.545392 -3.53214 0
M  V30 10782 S 1001.83 1.11619 -4.24366 0
M  V30 10783 H 998.649 0.0725368 -0.70729 0
M  V30 10784 H 1001.25 -0.488979 -1.89286 0
M  V30 10785 H 999.955 -0.355786 -4.08855 0
M  V30 10786 H 999.486 1.30897 -3.70985 0
M  V30 10787 H 1001.5 2.40151 -4.34214 0
M  V30 10788 N 1000.67 1.57404 -0.0785433 0
M  V30 10789 C 1001.64 2.11977 0.871693 0
M  V30 10790 C 1002.64 1.04529 1.2219 0
M  V30 10791 O 1003.83 1.30488 1.15406 0
M  V30 10792 C 1000.96 2.6267 2.17296 0
M  V30 10793 H 1002.15 2.97246 0.398115 0
M  V30 10794 H 999.705 1.5537 0.170251 0
M  V30 10795 H 1000.44 1.80873 2.69175 0
M  V30 10796 H 1000.22 3.41214 1.93171 0
M  V30 10797 H 1001.71 3.04943 2.85306 0
M  V30 10798 N 1002.15 -0.195058 1.56388 0
M  V30 10799 C 1003.08 -1.24444 1.97575 0
M  V30 10800 C 1004.06 -1.47471 0.847717 0
M  V30 10801 O 1005.25 -1.59208 1.11205 0
M  V30 10802 C 1002.38 -2.58866 2.31529 0
M  V30 10803 C 1001.33 -2.50451 3.47071 0
M  V30 10804 C 1000.66 -3.89146 3.667 0
M  V30 10805 C 1001.96 -2.02953 4.81256 0
M  V30 10806 H 1003.65 -0.902178 2.85484 0
M  V30 10807 H 1001.2 -0.43254 1.3735 0
M  V30 10808 H 1003.15 -3.3246 2.58936 0
M  V30 10809 H 1001.87 -2.94833 1.40502 0
M  V30 10810 H 1000.53 -1.79313 3.19754 0
M  V30 10811 H 1000.18 -4.22466 2.73004 0
M  V30 10812 H 999.882 -3.84391 4.44429 0
M  V30 10813 H 1001.41 -4.64363 3.96484 0
M  V30 10814 H 1002.82 -2.66306 5.07695 0
M  V30 10815 H 1001.22 -2.092 5.62455 0
M  V30 10816 H 1002.29 -0.982757 4.74837 0
M  V30 10817 N 1003.63 -1.50653 -0.462772 0
M  V30 10818 C 1004.56 -1.73056 -1.5676 0
M  V30 10819 C 1005.54 -0.579699 -1.59917 0
M  V30 10820 O 1006.73 -0.819729 -1.76051 0
M  V30 10821 C 1003.86 -1.83234 -2.9503 0
M  V30 10822 C 1002.81 -2.98488 -3.06739 0
M  V30 10823 C 1002.14 -2.93818 -4.46738 0
M  V30 10824 C 1003.44 -4.38869 -2.83181 0
M  V30 10825 H 1005.13 -2.65562 -1.38265 0
M  V30 10826 H 1002.68 -1.27792 -0.663722 0
M  V30 10827 H 1004.63 -1.97491 -3.72257 0
M  V30 10828 H 1003.35 -0.873558 -3.14701 0
M  V30 10829 H 1002.01 -2.83895 -2.31946 0
M  V30 10830 H 1001.66 -1.95769 -4.63339 0
M  V30 10831 H 1001.36 -3.71197 -4.55507 0
M  V30 10832 H 1002.88 -3.10135 -5.25974 0
M  V30 10833 H 1004.3 -4.53945 -3.50153 0
M  V30 10834 H 1002.69 -5.17762 -3.03386 0
M  V30 10835 H 1003.76 -4.50663 -1.78972 0
M  V30 10836 N 1005.11 0.71652 -1.4037 0
M  V30 10837 C 1006.04 1.84345 -1.43315 0
M  V30 10838 C 1007.02 1.67537 -0.294186 0
M  V30 10839 O 1008.2 1.87582 -0.502671 0
M  V30 10840 C 1005.33 3.2229 -1.29408 0
M  V30 10841 C 1004.29 3.53769 -2.40897 0
M  V30 10842 C 1003.61 4.90847 -2.12068 0
M  V30 10843 C 1004.91 3.54862 -3.83237 0
M  V30 10844 H 1006.61 1.82138 -2.37626 0
M  V30 10845 H 1004.15 0.874873 -1.14376 0
M  V30 10846 H 1006.11 4.00819 -1.30085 0
M  V30 10847 H 1004.83 3.2507 -0.31573 0
M  V30 10848 H 1003.49 2.77579 -2.39469 0
M  V30 10849 H 1003.14 4.90229 -1.12626 0
M  V30 10850 H 1002.84 5.12875 -2.86762 0
M  V30 10851 H 1004.36 5.71711 -2.14426 0
M  V30 10852 H 1005.78 4.23432 -3.86494 0
M  V30 10853 H 1004.17 3.88416 -4.57442 0
M  V30 10854 H 1005.24 2.54266 -4.12888 0
M  V30 10855 N 1006.59 1.25851 0.948643 0
M  V30 10856 C 1008 1.02802 1.22081 0
M  V30 10857 C 1008.2 -0.251461 1.99925 0
M  V30 10858 O 1007.26 -0.962592 2.33432 0
M  V30 10859 C 1008.57 2.25489 1.98936 0
M  V30 10860 C 1010.12 2.30312 2.11956 0
M  V30 10861 C 1010.59 3.52671 2.92211 0
M  V30 10862 N 1012.09 3.53103 2.99787 0
M  V30 10863 C 1012.82 4.44445 3.62294 0
M  V30 10864 N 1012.32 5.46065 4.26362 0
M  V30 10865 N 1014.11 4.32113 3.59493 0
M  V30 10866 H 1006.26 2.08042 0.428044 0
M  V30 10867 H 1008.52 0.913928 0.251872 0
M  V30 10868 H 1008.23 3.18513 1.4914 0
M  V30 10869 H 1008.1 2.2914 2.99624 0
M  V30 10870 H 1010.49 1.37808 2.60946 0
M  V30 10871 H 1010.57 2.30676 1.10554 0
M  V30 10872 H 1010.22 4.45501 2.43909 0
M  V30 10873 H 1010.15 3.49554 3.93853 0
M  V30 10874 H 1012.64 2.79597 2.54232 0
M  V30 10875 H 1012.95 6.11964 4.71932 0
M  V30 10876 H 1011.29 5.49931 4.24972 0
M  V30 10877 H 1014.49 3.51946 3.08629 0
M  V30 10878 H 1014.66 5.03493 4.0792 0
M  V30 10879 N 1008.06 -1.15214 1.07534 0
M  V30 10880 C 1009 -2.19634 0.655261 0
M  V30 10881 C 1010.01 -1.60139 -0.293165 0
M  V30 10882 O 1011.2 -1.78311 -0.0821957 0
M  V30 10883 C 1008.3 -3.38851 -0.0578281 0
M  V30 10884 C 1007.47 -4.27888 0.90725 0
M  V30 10885 C 1006.53 -5.25692 0.231115 0
M  V30 10886 O 1005.56 -5.62469 0.872746 0
M  V30 10887 N 1006.76 -5.71424 -1.0225 0
M  V30 10888 H 1009.52 -2.56292 1.55353 0
M  V30 10889 H 1007.08 -1.30347 0.960271 0
M  V30 10890 H 1009.08 -4.01334 -0.520874 0
M  V30 10891 H 1007.65 -3.00593 -0.858071 0
M  V30 10892 H 1006.87 -3.62475 1.54937 0
M  V30 10893 H 1008.15 -4.84246 1.56151 0
M  V30 10894 H 1007.55 -5.43659 -1.56369 0
M  V30 10895 H 1006.11 -6.35938 -1.42919 0
M  V30 10896 N 1009.54 -0.859717 -1.32086 0
M  V30 10897 C 1010.49 -0.279715 -2.26278 0
M  V30 10898 C 1011.48 0.577348 -1.50185 0
M  V30 10899 O 1012.67 0.425903 -1.71799 0
M  V30 10900 C 1009.8 0.526622 -3.39237 0
M  V30 10901 C 1008.88 -0.343112 -4.2271 0
M  V30 10902 N 1009.27 -1.43176 -4.85113 0
M  V30 10903 C 1007.57 -0.133744 -4.45799 0
M  V30 10904 C 1008.27 -1.96725 -5.47425 0
M  V30 10905 N 1007.25 -1.26569 -5.2866 0
M  V30 10906 H 1011.05 -1.11191 -2.72055 0
M  V30 10907 H 1008.57 -0.706372 -1.46233 0
M  V30 10908 H 1010.56 0.958587 -4.0573 0
M  V30 10909 H 1009.22 1.35655 -2.95005 0
M  V30 10910 H 1010.23 -1.81469 -4.85066 0
M  V30 10911 H 1006.91 0.661064 -4.12233 0
M  V30 10912 H 1008.3 -2.88006 -6.07044 0
M  V30 10913 N 1011.02 1.44971 -0.618145 0
M  V30 10914 C 1011.93 2.34403 0.0960457 0
M  V30 10915 C 1012.95 1.51862 0.849355 0
M  V30 10916 O 1014.12 1.84632 0.804557 0
M  V30 10917 C 1011.19 3.29646 1.07397 0
M  V30 10918 C 1010.25 4.28095 0.321466 0
M  V30 10919 C 1009.48 5.18787 1.25281 0
M  V30 10920 O 1009.7 5.1313 2.49106 0
M  V30 10921 O 1008.64 5.97282 0.744156 0
M  V30 10922 H 1012.46 2.96898 -0.639176 0
M  V30 10923 H 1010.05 1.44529 -0.37837 0
M  V30 10924 H 1011.93 3.88307 1.63694 0
M  V30 10925 H 1010.61 2.69702 1.79004 0
M  V30 10926 H 1009.51 3.73019 -0.284223 0
M  V30 10927 H 1010.85 4.90923 -0.354315 0
M  V30 10928 N 1012.5 0.357919 1.53482 0
M  V30 10929 C 1013.46 -0.479797 2.24122 0
M  V30 10930 C 1014.46 -1.01596 1.24639 0
M  V30 10931 O 1015.65 -0.902928 1.48973 0
M  V30 10932 C 1012.78 -1.66983 2.97203 0
M  V30 10933 H 1013.98 0.138219 2.99581 0
M  V30 10934 H 1011.53 0.109484 1.55916 0
M  V30 10935 H 1012.26 -2.32615 2.25966 0
M  V30 10936 H 1012.05 -1.29242 3.70188 0
M  V30 10937 H 1013.54 -2.26367 3.50924 0
M  V30 10938 N 1013.98 -1.5736 0.0868897 0
M  V30 10939 C 1015.2 -1.98388 -0.587349 0
M  V30 10940 C 1015.62 -0.965757 -1.6223 0
M  V30 10941 O 1014.98 0.0456981 -1.82443 0
M  V30 10942 C 1015.03 -3.39479 -1.24242 0
M  V30 10943 O 1014.75 -4.37393 -0.248878 0
M  V30 10944 C 1016.25 -3.95465 -2.00305 0
M  V30 10945 H 1013.47 -0.652111 -0.15809 0
M  V30 10946 H 1016.01 -2.03843 0.163754 0
M  V30 10947 H 1014.17 -3.35063 -1.94451 0
M  V30 10948 H 1014.58 -5.19525 -0.720678 0
M  V30 10949 H 1016.06 -4.96363 -2.41511 0
M  V30 10950 H 1016.53 -3.32832 -2.86565 0
M  V30 10951 H 1017.14 -4.03328 -1.34931 0
M  V30 10952 N 1015.45 0.186762 -1.56489 0
M  V30 10953 C 1016.87 0.537933 -1.50261 0
M  V30 10954 C 1017.07 1.85435 -0.788414 0
M  V30 10955 O 1016.13 2.50168 -0.342377 0
M  V30 10956 C 1017.44 0.584965 -2.94955 0
M  V30 10957 C 1018.99 0.673228 -3.05674 0
M  V30 10958 C 1019.46 0.751294 -4.51796 0
M  V30 10959 N 1020.95 0.814599 -4.55981 0
M  V30 10960 C 1021.69 0.895313 -5.66367 0
M  V30 10961 N 1021.18 0.937814 -6.86423 0
M  V30 10962 N 1022.98 0.933145 -5.543 0
M  V30 10963 H 1015.13 -0.676636 -2.01334 0
M  V30 10964 H 1017.39 -0.242079 -0.916571 0
M  V30 10965 H 1017.1 -0.313361 -3.50301 0
M  V30 10966 H 1016.97 1.4368 -3.48763 0
M  V30 10967 H 1019.36 1.56198 -2.50372 0
M  V30 10968 H 1019.44 -0.204976 -2.54977 0
M  V30 10969 H 1019.08 -0.133143 -5.07725 0
M  V30 10970 H 1019.01 1.64542 -5.00233 0
M  V30 10971 H 1021.5 0.790662 -3.69536 0
M  V30 10972 H 1021.82 1.00015 -7.66301 0
M  V30 10973 H 1020.16 0.906351 -6.89065 0
M  V30 10974 H 1023.35 0.896836 -4.59428 0
M  V30 10975 H 1023.53 0.992588 -6.40353 0
M  V30 10976 N 1016.93 1.50896 0.454776 0
M  V30 10977 C 1017.84 1.73762 1.5762 0
M  V30 10978 C 1018.86 0.621206 1.62533 0
M  V30 10979 O 1020.03 0.901449 1.801 0
M  V30 10980 C 1017.1 1.84183 2.9373 0
M  V30 10981 C 1016.16 3.07982 2.99075 0
M  V30 10982 C 1015.39 3.17896 4.28693 0
M  V30 10983 O 1015.62 2.34184 5.20109 0
M  V30 10984 O 1014.55 4.10749 4.39964 0
M  V30 10985 H 1018.38 2.68856 1.41245 0
M  V30 10986 H 1015.96 1.35187 0.635984 0
M  V30 10987 H 1017.84 1.93123 3.74542 0
M  V30 10988 H 1016.52 0.922742 3.10269 0
M  V30 10989 H 1015.43 3.04531 2.17282 0
M  V30 10990 H 1016.76 3.99523 2.87476 0
M  V30 10991 N 1018.41 -0.709066 1.40748 0
M  V30 10992 C 1019.34 -1.83583 1.4429 0
M  V30 10993 C 1020.32 -1.67378 0.303067 0
M  V30 10994 O 1021.51 -1.87312 0.512612 0
M  V30 10995 C 1018.64 -3.21599 1.31116 0
M  V30 10996 C 1017.59 -3.52486 2.4277 0
M  V30 10997 C 1016.92 -4.89716 2.14668 0
M  V30 10998 C 1018.22 -3.52824 3.85113 0
M  V30 10999 H 1019.91 -1.80876 2.38588 0
M  V30 11000 H 1017.46 -0.868795 1.14839 0
M  V30 11001 H 1019.41 -4.00123 1.32209 0
M  V30 11002 H 1018.13 -3.24898 0.332965 0
M  V30 11003 H 1016.79 -2.76305 2.40937 0
M  V30 11004 H 1016.44 -4.89625 1.15224 0
M  V30 11005 H 1016.14 -5.11347 2.89478 0
M  V30 11006 H 1017.66 -5.70566 2.17455 0
M  V30 11007 H 1019.08 -4.21377 3.88734 0
M  V30 11008 H 1017.48 -3.85984 4.59496 0
M  V30 11009 H 1018.55 -2.52073 4.14231 0
M  V30 11010 N 1019.89 -1.26353 -0.941956 0
M  V30 11011 C 1020.8 -1.09618 -2.07415 0
M  V30 11012 C 1021.82 -0.0298963 -1.73974 0
M  V30 11013 O 1022.99 -0.233466 -2.00042 0
M  V30 11014 C 1020.06 -0.73013 -3.38925 0
M  V30 11015 C 1019.12 -1.87574 -3.86153 0
M  V30 11016 C 1018.35 -1.52706 -5.11387 0
M  V30 11017 O 1018.57 -0.428438 -5.68789 0
M  V30 11018 O 1017.51 -2.36154 -5.53638 0
M  V30 11019 H 1021.33 -2.04598 -2.2444 0
M  V30 11020 H 1018.92 -1.05407 -1.05876 0
M  V30 11021 H 1020.8 -0.538684 -4.17943 0
M  V30 11022 H 1019.48 0.190282 -3.2314 0
M  V30 11023 H 1018.38 -2.12214 -3.08084 0
M  V30 11024 H 1019.72 -2.77585 -4.06457 0
M  V30 11025 N 1021.37 1.14642 -1.08144 0
M  V30 11026 C 1022.3 2.21775 -0.730609 0
M  V30 11027 C 1023.28 1.67683 0.285702 0
M  V30 11028 O 1024.46 1.93567 0.156667 0
M  V30 11029 C 1021.59 3.47033 -0.136242 0
M  V30 11030 C 1020.55 4.14134 -1.0806 0
M  V30 11031 C 1019.87 5.33563 -0.348585 0
M  V30 11032 C 1021.17 4.62978 -2.41761 0
M  V30 11033 H 1022.87 2.51378 -1.62633 0
M  V30 11034 H 1020.41 1.20825 -0.783411 0
M  V30 11035 H 1022.37 4.21226 0.121182 0
M  V30 11036 H 1021.09 3.16786 0.7946 0
M  V30 11037 H 1019.75 3.41892 -1.32308 0
M  V30 11038 H 1019.4 4.99575 0.585974 0
M  V30 11039 H 1019.1 5.79402 -0.978122 0
M  V30 11040 H 1020.62 6.10519 -0.0991508 0
M  V30 11041 H 1022.04 5.28659 -2.21795 0
M  V30 11042 H 1020.43 5.1951 -3.00383 0
M  V30 11043 H 1021.5 3.78189 -3.03482 0
M  V30 11044 N 1022.85 0.866709 1.31628 0
M  V30 11045 C 1024.26 0.558188 1.49521 0
M  V30 11046 C 1024.46 -0.90844 1.7986 0
M  V30 11047 O 1023.52 -1.6908 1.87531 0
M  V30 11048 C 1024.83 1.45559 2.63122 0
M  V30 11049 C 1026.38 1.45728 2.77006 0
M  V30 11050 C 1026.85 2.34017 3.937 0
M  V30 11051 N 1028.34 2.31879 4.00982 0
M  V30 11052 C 1029.08 2.96915 4.90539 0
M  V30 11053 N 1028.58 3.71109 5.85021 0
M  V30 11054 N 1030.37 2.86241 4.83759 0
M  V30 11055 H 1022.52 1.81574 1.10203 0
M  V30 11056 H 1024.78 0.77621 0.544244 0
M  V30 11057 H 1024.49 2.49904 2.47469 0
M  V30 11058 H 1024.36 1.15174 3.59186 0
M  V30 11059 H 1026.75 0.421419 2.92075 0
M  V30 11060 H 1026.83 1.80134 1.81619 0
M  V30 11061 H 1026.47 3.37678 3.79389 0
M  V30 11062 H 1026.4 1.96937 4.88388 0
M  V30 11063 H 1028.9 1.77948 3.33381 0
M  V30 11064 H 1029.21 4.1787 6.5008 0
M  V30 11065 H 1027.55 3.75217 5.8501 0
M  V30 11066 H 1030.74 2.27819 4.08921 0
M  V30 11067 H 1030.92 3.37206 5.5335 0
M  V30 11068 N 1024.32 -1.44642 0.625825 0
M  V30 11069 C 1025.26 -2.28882 -0.120614 0
M  V30 11070 C 1026.27 -1.40985 -0.81407 0
M  V30 11071 O 1027.46 -1.65188 -0.676404 0
M  V30 11072 C 1024.56 -3.17217 -1.19274 0
M  V30 11073 C 1023.73 -4.33499 -0.582839 0
M  V30 11074 C 1022.79 -5.02908 -1.54823 0
M  V30 11075 O 1021.82 -5.59102 -1.06743 0
M  V30 11076 N 1023.02 -5.0387 -2.88262 0
M  V30 11077 H 1025.78 -2.93585 0.602318 0
M  V30 11078 H 1023.34 -1.5503 0.466604 0
M  V30 11079 H 1025.34 -3.60515 -1.83878 0
M  V30 11080 H 1023.91 -2.54301 -1.81797 0
M  V30 11081 H 1023.13 -3.93458 0.241696 0
M  V30 11082 H 1024.41 -5.08561 -0.155914 0
M  V30 11083 H 1023.81 -4.59539 -3.2991 0
M  V30 11084 H 1022.37 -5.50974 -3.4824 0
M  V30 11085 N 1025.8 -0.366053 -1.5329 0
M  V30 11086 C 1026.73 0.47211 -2.28677 0
M  V30 11087 C 1027.71 1.08353 -1.31125 0
M  V30 11088 O 1028.9 1.10069 -1.59995 0
M  V30 11089 C 1026.03 1.61174 -3.07637 0
M  V30 11090 C 1024.98 1.12755 -4.12881 0
M  V30 11091 C 1024.31 2.35745 -4.79925 0
M  V30 11092 C 1025.61 0.211954 -5.2187 0
M  V30 11093 H 1027.3 -0.156838 -2.98989 0
M  V30 11094 H 1024.85 -0.0768709 -1.43795 0
M  V30 11095 H 1026.8 2.20473 -3.59123 0
M  V30 11096 H 1025.52 2.26793 -2.35016 0
M  V30 11097 H 1024.18 0.557234 -3.6234 0
M  V30 11098 H 1023.83 2.99821 -4.03877 0
M  V30 11099 H 1023.53 2.04019 -5.51044 0
M  V30 11100 H 1025.06 2.95729 -5.34207 0
M  V30 11101 H 1026.47 0.71244 -5.68856 0
M  V30 11102 H 1024.87 -0.0144501 -6.00098 0
M  V30 11103 H 1025.94 -0.745753 -4.79131 0
M  V30 11104 N 1027.28 1.57312 -0.0952337 0
M  V30 11105 C 1028.21 2.11059 0.893678 0
M  V30 11106 C 1029.22 1.04787 1.24594 0
M  V30 11107 O 1030.41 1.32233 1.19903 0
M  V30 11108 C 1027.51 2.57552 2.20272 0
M  V30 11109 C 1026.69 3.87661 2.02578 0
M  V30 11110 C 1025.75 4.2 3.16996 0
M  V30 11111 O 1024.77 4.89219 2.90953 0
M  V30 11112 N 1025.97 3.75414 4.42769 0
M  V30 11113 H 1028.74 2.96532 0.434632 0
M  V30 11114 H 1026.3 1.6165 0.0898661 0
M  V30 11115 H 1028.29 2.76232 2.95766 0
M  V30 11116 H 1026.86 1.7709 2.576 0
M  V30 11117 H 1026.08 3.78128 1.11413 0
M  V30 11118 H 1027.37 4.7278 1.88032 0
M  V30 11119 H 1026.77 3.1954 4.66809 0
M  V30 11120 H 1025.32 3.99249 5.15212 0
M  V30 11121 N 1028.76 -0.17846 1.56586 0
M  V30 11122 C 1029.72 -1.20479 1.94981 0
M  V30 11123 C 1030.72 -1.37561 0.832677 0
M  V30 11124 O 1031.91 -1.35089 1.09984 0
M  V30 11125 C 1029.04 -2.57117 2.23839 0
M  V30 11126 H 1030.24 -0.876173 2.86816 0
M  V30 11127 H 1027.79 -0.420635 1.50534 0
M  V30 11128 H 1028.52 -2.95005 1.34695 0
M  V30 11129 H 1028.31 -2.46086 3.05261 0
M  V30 11130 H 1029.8 -3.31096 2.5449 0
M  V30 11131 N 1030.24 -1.51135 -0.446768 0
M  V30 11132 C 1031.48 -1.63578 -1.19875 0
M  V30 11133 C 1031.81 -0.346478 -1.91084 0
M  V30 11134 O 1031.09 0.653447 -1.83195 0
M  V30 11135 C 1031.37 -2.83275 -2.22323 0
M  V30 11136 C 1031.23 -4.22155 -1.55259 0
M  V30 11137 C 1032.54 -2.98496 -3.23401 0
M  V30 11138 H 1029.66 -0.595333 -0.434452 0
M  V30 11139 H 1032.31 -1.83593 -0.48923 0
M  V30 11140 H 1030.46 -2.6634 -2.82834 0
M  V30 11141 H 1032.13 -4.50736 -0.981571 0
M  V30 11142 H 1030.37 -4.25288 -0.855122 0
M  V30 11143 H 1031.04 -5.01882 -2.29823 0
M  V30 11144 H 1033.52 -3.14079 -2.72935 0
M  V30 11145 H 1032.39 -3.83828 -3.92386 0
M  V30 11146 H 1032.65 -2.10157 -3.88956 0
M  V30 11147 N 1031.71 0.701592 -1.41122 0
M  V30 11148 C 1032.65 1.8268 -1.38422 0
M  V30 11149 C 1033.66 1.60244 -0.287342 0
M  V30 11150 O 1034.85 1.69859 -0.548658 0
M  V30 11151 C 1031.95 3.19338 -1.13475 0
M  V30 11152 C 1031.12 3.68853 -2.35088 0
M  V30 11153 C 1030.18 4.84163 -2.06089 0
M  V30 11154 O 1029.21 4.9609 -2.79077 0
M  V30 11155 N 1030.41 5.70972 -1.04743 0
M  V30 11156 H 1033.17 1.8549 -2.35401 0
M  V30 11157 H 1030.73 0.883682 -1.35656 0
M  V30 11158 H 1032.73 3.94095 -0.920377 0
M  V30 11159 H 1031.3 3.11589 -0.251152 0
M  V30 11160 H 1030.52 2.8507 -2.72266 0
M  V30 11161 H 1031.8 3.98673 -3.16129 0
M  V30 11162 H 1031.2 5.63961 -0.443221 0
M  V30 11163 H 1029.76 6.45654 -0.892949 0
M  V30 11164 N 1033.19 1.2685 0.935242 0
M  V30 11165 C 1034.61 1.04091 1.20984 0
M  V30 11166 C 1034.81 -0.230242 2.0018 0
M  V30 11167 O 1033.86 -0.93778 2.3444 0
M  V30 11168 C 1035.18 2.27586 1.96533 0
M  V30 11169 C 1036.72 2.32547 2.09501 0
M  V30 11170 C 1037.2 3.55751 2.88454 0
M  V30 11171 N 1038.69 3.56263 2.96025 0
M  V30 11172 C 1039.43 4.48262 3.57559 0
M  V30 11173 N 1038.92 5.50557 4.20546 0
M  V30 11174 N 1040.71 4.35901 3.5489 0
M  V30 11175 H 1032.87 2.08484 0.405954 0
M  V30 11176 H 1035.13 0.916548 0.242164 0
M  V30 11177 H 1034.83 3.20076 1.45753 0
M  V30 11178 H 1034.71 2.32305 2.97177 0
M  V30 11179 H 1037.1 1.40568 2.5947 0
M  V30 11180 H 1037.18 2.31836 1.08101 0
M  V30 11181 H 1036.82 4.48063 2.3917 0
M  V30 11182 H 1036.75 3.53711 3.90123 0
M  V30 11183 H 1039.24 2.82278 2.51252 0
M  V30 11184 H 1039.55 6.16935 4.65415 0
M  V30 11185 H 1037.9 5.54407 4.19115 0
M  V30 11186 H 1041.09 3.552 3.04879 0
M  V30 11187 H 1041.26 5.07792 4.02557 0
M  V30 11188 N 1034.67 -1.14067 1.0875 0
M  V30 11189 C 1035.9 -1.89041 0.840902 0
M  V30 11190 C 1036.31 -1.78768 -0.60725 0
M  V30 11191 O 1035.67 -1.14945 -1.41753 0
M  V30 11192 C 1035.72 -3.38891 1.25838 0
M  V30 11193 O 1035.44 -3.48886 2.64972 0
M  V30 11194 C 1036.94 -4.30852 1.04315 0
M  V30 11195 H 1034.16 -0.598685 0.303014 0
M  V30 11196 H 1036.71 -1.44438 1.44769 0
M  V30 11197 H 1034.86 -3.81103 0.695627 0
M  V30 11198 H 1035.28 -4.41989 2.82393 0
M  V30 11199 H 1036.75 -5.34353 1.38461 0
M  V30 11200 H 1037.23 -4.39196 -0.0195784 0
M  V30 11201 H 1037.83 -3.944 1.59151 0
M  V30 11202 N 1036.15 -0.873678 -1.31166 0
M  V30 11203 C 1037.56 -0.566109 -1.49223 0
M  V30 11204 C 1037.76 0.898889 -1.80339 0
M  V30 11205 O 1036.82 1.68084 -1.88425 0
M  V30 11206 C 1038.13 -1.46952 -2.62346 0
M  V30 11207 C 1039.68 -1.47195 -2.76229 0
M  V30 11208 C 1040.16 -2.36102 -3.92454 0
M  V30 11209 N 1041.65 -2.34003 -3.99746 0
M  V30 11210 C 1042.38 -2.99513 -4.88958 0
M  V30 11211 N 1041.88 -3.74206 -5.83045 0
M  V30 11212 N 1043.67 -2.88802 -4.82234 0
M  V30 11213 H 1035.82 -1.82156 -1.09239 0
M  V30 11214 H 1038.09 -0.779086 -0.54012 0
M  V30 11215 H 1037.79 -2.51213 -2.4614 0
M  V30 11216 H 1037.67 -1.17077 -3.5857 0
M  V30 11217 H 1040.05 -0.436902 -2.91848 0
M  V30 11218 H 1040.13 -1.81095 -1.80661 0
M  V30 11219 H 1039.78 -3.39685 -3.77593 0
M  V30 11220 H 1039.71 -1.99524 -4.87337 0
M  V30 11221 H 1042.2 -1.79713 -3.32433 0
M  V30 11222 H 1042.51 -4.21312 -6.47855 0
M  V30 11223 H 1040.86 -3.78314 -5.83012 0
M  V30 11224 H 1044.05 -2.29984 -4.07707 0
M  V30 11225 H 1044.22 -3.40136 -5.51554 0
M  V30 11226 N 1037.63 1.44308 -0.633487 0
M  V30 11227 C 1038.59 2.2912 0.060376 0
M  V30 11228 C 1039.59 1.41166 0.769992 0
M  V30 11229 O 1040.78 1.63012 0.614224 0
M  V30 11230 C 1037.91 3.22798 1.0961 0
M  V30 11231 H 1039.1 2.91958 -0.685617 0
M  V30 11232 H 1036.66 1.51259 -0.393738 0
M  V30 11233 H 1037.39 2.64815 1.87199 0
M  V30 11234 H 1037.18 3.87618 0.591161 0
M  V30 11235 H 1038.67 3.86504 1.58127 0
M  V30 11236 N 1039.1 0.374177 1.53094 0
M  V30 11237 C 1040.01 -0.475935 2.29722 0
M  V30 11238 C 1041.03 -1.085 1.36029 0
M  V30 11239 O 1042.21 -1.09408 1.69091 0
M  V30 11240 C 1039.27 -1.59572 3.07795 0
M  V30 11241 C 1038.33 -1.01332 4.17169 0
M  V30 11242 C 1037.57 -2.07975 4.9151 0
M  V30 11243 O 1037.79 -3.29232 4.65793 0
M  V30 11244 O 1036.72 -1.7055 5.77232 0
M  V30 11245 H 1040.55 0.147877 3.0334 0
M  V30 11246 H 1038.13 0.138312 1.48758 0
M  V30 11247 H 1040.02 -2.24658 3.5652 0
M  V30 11248 H 1038.69 -2.20478 2.37005 0
M  V30 11249 H 1037.6 -0.326133 3.72676 0
M  V30 11250 H 1038.93 -0.4487 4.90151 0
M  V30 11251 N 1040.58 -1.57259 0.103575 0
M  V30 11252 C 1041.51 -2.17509 -0.84923 0
M  V30 11253 C 1042.49 -1.11079 -1.28824 0
M  V30 11254 O 1043.68 -1.39252 -1.35361 0
M  V30 11255 C 1040.81 -2.76221 -2.10522 0
M  V30 11256 C 1039.76 -3.88098 -1.80454 0
M  V30 11257 C 1039.09 -4.33549 -3.12952 0
M  V30 11258 C 1040.39 -5.10909 -1.08486 0
M  V30 11259 H 1042.08 -2.9738 -0.347217 0
M  V30 11260 H 1039.63 -1.43045 -0.165568 0
M  V30 11261 H 1041.58 -3.17024 -2.77621 0
M  V30 11262 H 1040.31 -1.93617 -2.63021 0
M  V30 11263 H 1038.96 -3.47847 -1.15749 0
M  V30 11264 H 1038.61 -3.47825 -3.63355 0
M  V30 11265 H 1038.31 -5.08984 -2.93614 0
M  V30 11266 H 1039.84 -4.76992 -3.81196 0
M  V30 11267 H 1041.25 -5.48828 -1.65711 0
M  V30 11268 H 1039.65 -5.91828 -0.992973 0
M  V30 11269 H 1040.72 -4.84851 -0.0690108 0
M  V30 11270 N 1042.06 0.170153 -1.56679 0
M  V30 11271 C 1043.29 0.902134 -1.86197 0
M  V30 11272 C 1043.7 1.75775 -0.689098 0
M  V30 11273 O 1043.06 1.79271 0.341763 0
M  V30 11274 C 1043.11 1.77792 -3.14757 0
M  V30 11275 O 1042.83 0.956817 -4.27524 0
M  V30 11276 C 1044.33 2.61947 -3.57629 0
M  V30 11277 H 1041.55 0.262026 -0.617724 0
M  V30 11278 H 1044.1 0.169899 -2.03793 0
M  V30 11279 H 1042.25 2.46348 -2.98984 0
M  V30 11280 H 1042.67 1.5559 -5.00891 0
M  V30 11281 H 1044.14 3.19011 -4.50484 0
M  V30 11282 H 1044.62 3.36873 -2.81803 0
M  V30 11283 H 1045.22 1.98721 -3.76019 0
M  V30 11284 N 1043.54 1.5137 0.438746 0
M  V30 11285 C 1044.95 1.39514 0.775116 0
M  V30 11286 C 1045.15 0.47638 1.95788 0
M  V30 11287 O 1044.21 -0.0689832 2.52406 0
M  V30 11288 C 1045.52 2.81517 1.05681 0
M  V30 11289 C 1047.07 2.90658 1.16133 0
M  V30 11290 C 1047.55 4.33566 1.47597 0
M  V30 11291 N 1049.04 4.36665 1.54524 0
M  V30 11292 C 1049.77 5.4427 1.80438 0
M  V30 11293 N 1049.27 6.62037 2.04154 0
M  V30 11294 N 1051.06 5.31749 1.82208 0
M  V30 11295 H 1043.21 2.09657 -0.340237 0
M  V30 11296 H 1045.48 0.943736 -0.0898115 0
M  V30 11297 H 1045.18 3.50734 0.260441 0
M  V30 11298 H 1045.06 3.20757 1.98481 0
M  V30 11299 H 1047.44 2.2164 1.94833 0
M  V30 11300 H 1047.52 2.54917 0.212376 0
M  V30 11301 H 1047.17 5.03133 0.694251 0
M  V30 11302 H 1047.1 4.66819 2.43696 0
M  V30 11303 H 1049.59 3.51761 1.38105 0
M  V30 11304 H 1049.9 7.39838 2.23293 0
M  V30 11305 H 1048.25 6.65155 2.01479 0
M  V30 11306 H 1051.44 4.3873 1.63198 0
M  V30 11307 H 1051.61 6.15689 2.02067 0
M  V30 11308 N 1045.02 -0.694098 1.41492 0
M  V30 11309 C 1045.95 -1.82042 1.46229 0
M  V30 11310 C 1046.93 -1.67047 0.320803 0
M  V30 11311 O 1048.11 -1.86758 0.53245 0
M  V30 11312 C 1045.24 -3.2019 1.34519 0
M  V30 11313 C 1044.2 -3.49892 2.46495 0
M  V30 11314 C 1043.52 -4.87411 2.1985 0
M  V30 11315 C 1044.82 -3.4872 3.88834 0
M  V30 11316 H 1046.52 -1.78335 2.40493 0
M  V30 11317 H 1044.06 -0.856566 1.15754 0
M  V30 11318 H 1046.02 -3.98699 1.36445 0
M  V30 11319 H 1044.74 -3.24527 0.367406 0
M  V30 11320 H 1043.4 -2.73734 2.43854 0
M  V30 11321 H 1043.05 -4.88375 1.20411 0
M  V30 11322 H 1042.75 -5.08248 2.94885 0
M  V30 11323 H 1044.27 -5.68228 2.23494 0
M  V30 11324 H 1045.68 -4.1723 3.93182 0
M  V30 11325 H 1044.08 -3.81089 4.63564 0
M  V30 11326 H 1045.15 -2.47665 4.16881 0
M  V30 11327 N 1046.49 -1.27344 -0.928501 0
M  V30 11328 C 1047.43 -1.05797 -2.03322 0
M  V30 11329 C 1048.44 -0.0143086 -1.62794 0
M  V30 11330 O 1049.63 -0.25578 -1.76658 0
M  V30 11331 C 1046.73 -0.582673 -3.33853 0
M  V30 11332 C 1045.9 -1.69844 -4.03078 0
M  V30 11333 C 1044.96 -1.21902 -5.11885 0
M  V30 11334 O 1043.99 -1.91853 -5.35893 0
M  V30 11335 N 1045.19 -0.0742392 -5.80453 0
M  V30 11336 H 1047.95 -2.00928 -2.22369 0
M  V30 11337 H 1045.51 -1.189 -1.09883 0
M  V30 11338 H 1047.51 -0.245862 -4.03952 0
M  V30 11339 H 1046.08 0.27539 -3.11385 0
M  V30 11340 H 1045.3 -2.20557 -3.26723 0
M  V30 11341 H 1046.58 -2.4473 -4.46077 0
M  V30 11342 H 1045.98 0.509631 -5.634 0
M  V30 11343 H 1044.54 0.203399 -6.51483 0
M  V30 11344 N 1047.97 1.13488 -1.09353 0
M  V30 11345 C 1048.92 2.16933 -0.701709 0
M  V30 11346 C 1049.91 1.58382 0.283553 0
M  V30 11347 O 1051.1 1.7675 0.0940391 0
M  V30 11348 C 1048.23 3.43079 -0.123031 0
M  V30 11349 C 1047.31 4.08639 -1.13466 0
M  V30 11350 N 1047.7 4.49377 -2.32152 0
M  V30 11351 C 1046 4.35265 -0.972632 0
M  V30 11352 C 1046.7 5.00464 -2.96497 0
M  V30 11353 N 1045.68 4.95275 -2.24061 0
M  V30 11354 H 1049.48 2.46183 -1.60534 0
M  V30 11355 H 1047 1.30275 -0.969644 0
M  V30 11356 H 1048.99 4.1653 0.17569 0
M  V30 11357 H 1047.65 3.15304 0.775461 0
M  V30 11358 H 1048.66 4.42105 -2.69748 0
M  V30 11359 H 1045.34 4.17301 -0.12876 0
M  V30 11360 H 1046.73 5.41785 -3.9739 0
M  V30 11361 N 1049.45 0.880621 1.30701 0
M  V30 11362 C 1050.38 0.301443 2.27209 0
M  V30 11363 C 1051.4 -0.541533 1.53529 0
M  V30 11364 O 1052.59 -0.361791 1.74795 0
M  V30 11365 C 1049.69 -0.59038 3.33718 0
M  V30 11366 C 1048.86 0.222549 4.36833 0
M  V30 11367 C 1047.92 -0.599083 5.22779 0
M  V30 11368 O 1046.94 -0.0233267 5.69195 0
M  V30 11369 N 1048.15 -1.90904 5.48211 0
M  V30 11370 H 1050.91 1.13083 2.77547 0
M  V30 11371 H 1048.47 0.743168 1.43835 0
M  V30 11372 H 1050.46 -1.14599 3.88135 0
M  V30 11373 H 1049.03 -1.32044 2.83343 0
M  V30 11374 H 1048.25 0.959606 3.82342 0
M  V30 11375 H 1049.54 0.779965 5.02786 0
M  V30 11376 H 1048.94 -2.3998 5.12275 0
M  V30 11377 H 1047.5 -2.4122 6.05521 0
M  V30 11378 N 1050.93 -1.4397 0.641131 0
M  V30 11379 C 1052.16 -2.06303 0.157006 0
M  V30 11380 C 1052.57 -1.47981 -1.17248 0
M  V30 11381 O 1051.93 -0.606471 -1.72128 0
M  V30 11382 C 1051.98 -3.6147 0.0468425 0
M  V30 11383 O 1051.7 -4.17622 1.32376 0
M  V30 11384 C 1053.2 -4.40857 -0.464795 0
M  V30 11385 H 1050.42 -0.665684 0.0842946 0
M  V30 11386 H 1052.97 -1.84675 0.878363 0
M  V30 11387 H 1051.12 -3.82325 -0.625006 0
M  V30 11388 H 1051.54 -5.11167 1.17509 0
M  V30 11389 H 1053.01 -5.49813 -0.490862 0
M  V30 11390 H 1053.49 -4.13016 -1.4938 0
M  V30 11391 H 1054.09 -4.24943 0.174146 0
M  V30 11392 N 1052.41 -0.382291 -1.52893 0
M  V30 11393 C 1053.32 0.463745 -2.29971 0
M  V30 11394 C 1054.33 1.07777 -1.36602 0
M  V30 11395 O 1055.51 1.0851 -1.69669 0
M  V30 11396 C 1052.57 1.57938 -3.08637 0
M  V30 11397 C 1051.64 0.991182 -4.17701 0
M  V30 11398 C 1050.87 2.05365 -4.92606 0
M  V30 11399 O 1051.09 3.26757 -4.67532 0
M  V30 11400 O 1050.03 1.67487 -5.78128 0
M  V30 11401 H 1053.85 -0.163962 -3.03257 0
M  V30 11402 H 1051.44 -0.146199 -1.48683 0
M  V30 11403 H 1053.32 2.22765 -3.57706 0
M  V30 11404 H 1051.99 2.19218 -2.3817 0
M  V30 11405 H 1050.9 0.306364 -3.72843 0
M  V30 11406 H 1052.23 0.422699 -4.90382 0
M  V30 11407 N 1053.89 1.57202 -0.111913 0
M  V30 11408 C 1054.82 2.17957 0.837683 0
M  V30 11409 C 1055.8 1.1176 1.28233 0
M  V30 11410 O 1056.98 1.39967 1.34621 0
M  V30 11411 C 1054.11 2.77333 2.09054 0
M  V30 11412 C 1053.07 3.8905 1.78393 0
M  V30 11413 C 1052.39 4.35203 3.10649 0
M  V30 11414 C 1053.69 5.11477 1.05775 0
M  V30 11415 H 1055.39 2.9756 0.331441 0
M  V30 11416 H 1052.93 1.43131 0.157979 0
M  V30 11417 H 1054.88 3.18492 2.75936 0
M  V30 11418 H 1053.61 1.95009 2.6199 0
M  V30 11419 H 1052.27 3.48456 1.13903 0
M  V30 11420 H 1051.92 3.49747 3.61506 0
M  V30 11421 H 1051.62 5.10534 2.9091 0
M  V30 11422 H 1053.14 4.79007 3.78661 0
M  V30 11423 H 1054.55 5.497 1.62798 0
M  V30 11424 H 1052.95 5.92346 0.961573 0
M  V30 11425 H 1054.02 4.84881 0.043297 0
M  V30 11426 N 1055.36 -0.161842 1.56767 0
M  V30 11427 C 1056.61 -0.875192 1.82167 0
M  V30 11428 C 1056.93 -1.82367 0.690444 0
M  V30 11429 O 1056.2 -1.93756 -0.289023 0
M  V30 11430 H 1054.78 -0.326178 0.672024 0
M  V30 11431 H 1057.44 -0.159392 1.94247 0
M  V30 11432 H 1056.54 -1.44639 2.76561 0
M  V30 11433 N 1056.84 -1.516 -0.430713 0
M  V30 11434 C 1057.79 -1.73975 -1.54387 0
M  V30 11435 C 1058.78 -0.606222 -1.58181 0
M  V30 11436 O 1059.99 -0.787764 -1.61846 0
M  V30 11437 H 1056.36 -0.549811 -0.513041 0
M  V30 11438 H 1058.34 -2.67274 -1.32692 0
M  V30 11439 C 1057.08 -1.88794 -2.9198 0
M  V30 11440 H 1056.41 -2.75425 -2.89795 0
M  V30 11441 H 1057.85 -2.08458 -3.69217 0
M  V30 11442 C 1056.31 -0.649427 -3.30581 0
M  V30 11443 O 1056.84 0.192823 -4.01237 0
M  V30 11444 N 1055.04 -0.491586 -2.86412 0
M  V30 11445 H 1054.59 -1.17806 -2.29084 0
M  V30 11446 H 1054.55 0.33583 -3.12601 0
M  V30 11447 N 1058.32 0.686584 -1.41858 0
M  V30 11448 C 1059.25 1.81202 -1.40352 0
M  V30 11449 C 1060.26 1.5993 -0.304322 0
M  V30 11450 O 1061.45 1.69267 -0.566643 0
M  V30 11451 C 1058.55 3.18116 -1.16856 0
M  V30 11452 C 1057.73 3.66339 -2.38987 0
M  V30 11453 C 1056.79 4.8195 -2.11212 0
M  V30 11454 O 1055.81 4.93102 -2.84323 0
M  V30 11455 N 1057.01 5.69829 -1.10793 0
M  V30 11456 H 1059.78 1.82983 -2.37355 0
M  V30 11457 H 1057.34 0.869244 -1.36586 0
M  V30 11458 H 1059.33 3.93097 -0.962125 0
M  V30 11459 H 1057.9 3.11306 -0.284186 0
M  V30 11460 H 1057.12 2.82166 -2.75274 0
M  V30 11461 H 1058.41 3.95297 -3.2034 0
M  V30 11462 H 1057.81 5.63459 -0.503012 0
M  V30 11463 H 1056.36 6.44671 -0.961379 0
M  V30 11464 N 1059.8 1.27835 0.921735 0
M  V30 11465 C 1060.73 1.136 2.04003 0
M  V30 11466 C 1061.71 0.0358756 1.70062 0
M  V30 11467 O 1062.89 0.211438 1.93046 0
M  V30 11468 C 1060.02 0.788697 3.38226 0
M  V30 11469 C 1058.98 1.84272 3.863 0
M  V30 11470 C 1058.3 1.34923 5.17397 0
M  V30 11471 C 1059.6 3.24788 4.09035 0
M  V30 11472 H 1061.3 2.07149 2.1617 0
M  V30 11473 H 1058.84 0.997349 1.0387 0
M  V30 11474 H 1060.8 0.675911 4.15944 0
M  V30 11475 H 1059.52 -0.182499 3.2609 0
M  V30 11476 H 1058.18 1.94451 3.1078 0
M  V30 11477 H 1057.83 0.367328 5.01657 0
M  V30 11478 H 1057.53 2.05397 5.50532 0
M  V30 11479 H 1059.05 1.24951 5.97678 0
M  V30 11480 H 1060.47 3.17575 4.77304 0
M  V30 11481 H 1058.86 3.93025 4.53488 0
M  V30 11482 H 1059.93 3.69398 3.14122 0
M  V30 11483 N 1061.28 -1.12907 1.09954 0
M  V30 11484 C 1062.19 -2.22082 0.756095 0
M  V30 11485 C 1063.2 -1.72277 -0.244272 0
M  V30 11486 O 1064.38 -2.01224 -0.0842637 0
M  V30 11487 C 1061.44 -3.46192 0.187642 0
M  V30 11488 C 1060.5 -4.10861 1.24465 0
M  V30 11489 C 1059.74 -5.29047 0.703227 0
M  V30 11490 O 1059.96 -5.68443 -0.472043 0
M  V30 11491 O 1058.89 -5.83904 1.46082 0
M  V30 11492 H 1062.72 -2.53842 1.66727 0
M  V30 11493 H 1060.3 -1.21145 0.874316 0
M  V30 11494 H 1062.19 -4.21212 -0.125774 0
M  V30 11495 H 1060.86 -3.16119 -0.696459 0
M  V30 11496 H 1059.77 -3.37643 1.61085 0
M  V30 11497 H 1061.1 -4.45078 2.10159 0
M  V30 11498 N 1062.75 -0.88754 -1.30232 0
M  V30 11499 C 1063.98 -0.521549 -1.99909 0
M  V30 11500 C 1064.39 0.895086 -1.66688 0
M  V30 11501 O 1063.73 1.60053 -0.90159 0
M  V30 11502 C 1063.8 -0.619564 -3.54121 0
M  V30 11503 C 1063.46 -2.00097 -4.10865 0
M  V30 11504 C 1064.46 -2.97068 -4.26669 0
M  V30 11505 C 1062.14 -2.30706 -4.46184 0
M  V30 11506 C 1064.14 -4.2278 -4.77007 0
M  V30 11507 C 1061.82 -3.56663 -4.96221 0
M  V30 11508 C 1062.82 -4.52515 -5.11585 0
M  V30 11509 O 1062.51 -5.76237 -5.60541 0
M  V30 11510 H 1062.24 -0.199904 -0.645766 0
M  V30 11511 H 1064.8 -1.19546 -1.67027 0
M  V30 11512 H 1063.03 0.111334 -3.8654 0
M  V30 11513 H 1064.71 -0.26448 -4.05037 0
M  V30 11514 H 1065.48 -2.74734 -3.99683 0
M  V30 11515 H 1061.36 -1.56865 -4.33491 0
M  V30 11516 H 1064.9 -4.97603 -4.88914 0
M  V30 11517 H 1060.8 -3.78834 -5.22643 0
M  V30 11518 H 1061.57 -5.78655 -5.78879 0
M  V30 11519 N 1064.23 1.43628 -0.648757 0
M  V30 11520 C 1065.18 2.32529 0.057536 0
M  V30 11521 C 1066.17 1.48358 0.817699 0
M  V30 11522 O 1067.38 1.64595 0.728605 0
M  V30 11523 H 1063.76 0.75107 0.037388 0
M  V30 11524 H 1065.73 2.89829 -0.710062 0
M  V30 11525 C 1064.48 3.32605 1.01336 0
M  V30 11526 H 1063.8 3.97395 0.437855 0
M  V30 11527 H 1065.24 3.97453 1.47672 0
M  V30 11528 C 1063.7 2.62865 2.10722 0
M  V30 11529 O 1064.23 2.4408 3.19042 0
M  V30 11530 N 1062.43 2.22312 1.87152 0
M  V30 11531 H 1061.98 2.3779 0.990644 0
M  V30 11532 H 1061.94 1.75979 2.60536 0
M  V30 11533 N 1065.71 0.390394 1.52688 0
M  V30 11534 C 1066.66 -0.444229 2.26485 0
M  V30 11535 C 1067.63 -1.05688 1.28138 0
M  V30 11536 O 1068.81 -1.0847 1.56968 0
M  V30 11537 C 1065.95 -1.56501 3.07574 0
M  V30 11538 C 1065.07 -0.975111 4.20851 0
M  V30 11539 C 1064.2 -2.06704 4.89333 0
M  V30 11540 C 1063.24 -1.45309 5.94602 0
M  V30 11541 N 1062.38 -2.48437 6.56676 0
M  V30 11542 H 1067.22 0.191535 2.97384 0
M  V30 11543 H 1064.75 0.106287 1.46716 0
M  V30 11544 H 1066.71 -2.22558 3.52879 0
M  V30 11545 H 1065.34 -2.17107 2.38881 0
M  V30 11546 H 1064.39 -0.204109 3.79852 0
M  V30 11547 H 1065.71 -0.486465 4.96422 0
M  V30 11548 H 1064.86 -2.80528 5.37949 0
M  V30 11549 H 1063.6 -2.58928 4.13289 0
M  V30 11550 H 1062.6 -0.700091 5.45324 0
M  V30 11551 H 1063.83 -0.938775 6.7258 0
M  V30 11552 H 1061.77 -2.99829 5.83471 0
M  V30 11553 H 1061.69 -2.04331 7.27863 0
M  V30 11554 H 1062.96 -3.21888 7.09935 0
M  V30 11555 N 1067.19 -1.57141 0.120249 0
M  V30 11556 C 1068.6 -1.5784 -0.236335 0
M  V30 11557 C 1068.8 -1.13304 -1.66626 0
M  V30 11558 O 1067.86 -0.821004 -2.3878 0
M  V30 11559 C 1069.17 -3.007 -0.00188211 0
M  V30 11560 C 1070.72 -3.12927 -0.0676838 0
M  V30 11561 C 1071.2 -4.57789 0.139092 0
M  V30 11562 N 1072.69 -4.63122 0.085104 0
M  V30 11563 C 1073.42 -5.72978 0.219983 0
M  V30 11564 N 1072.92 -6.91579 0.411102 0
M  V30 11565 N 1074.71 -5.61874 0.159469 0
M  V30 11566 H 1066.86 -1.84391 1.05422 0
M  V30 11567 H 1069.13 -0.852228 0.415225 0
M  V30 11568 H 1068.83 -3.37575 0.986718 0
M  V30 11569 H 1068.71 -3.70005 -0.733203 0
M  V30 11570 H 1071.09 -2.75909 -1.04681 0
M  V30 11571 H 1071.17 -2.46162 0.695538 0
M  V30 11572 H 1070.82 -4.95506 1.1152 0
M  V30 11573 H 1070.75 -5.22646 -0.644131 0
M  V30 11574 H 1073.24 -3.77854 -0.0590479 0
M  V30 11575 H 1073.55 -7.71149 0.504851 0
M  V30 11576 H 1071.9 -6.9356 0.447091 0
M  V30 11577 H 1075.09 -4.68099 0.0111131 0
M  V30 11578 H 1075.26 -6.47445 0.268028 0
M  V30 11579 N 1068.67 0.153526 -1.5685 0
M  V30 11580 C 1070.08 0.505939 -1.51368 0
M  V30 11581 C 1070.28 1.83721 -0.82757 0
M  V30 11582 O 1069.34 2.49385 -0.395364 0
M  V30 11583 C 1070.65 0.522269 -2.9613 0
M  V30 11584 C 1072.2 0.608238 -3.07033 0
M  V30 11585 C 1072.67 0.655292 -4.53288 0
M  V30 11586 N 1074.17 0.717695 -4.57606 0
M  V30 11587 C 1074.9 0.774977 -5.68139 0
M  V30 11588 N 1074.4 0.792003 -6.88258 0
M  V30 11589 N 1076.19 0.81536 -5.56155 0
M  V30 11590 H 1068.34 -0.71919 -1.99853 0
M  V30 11591 H 1070.6 -0.261466 -0.91123 0
M  V30 11592 H 1070.31 -0.387595 -3.49558 0
M  V30 11593 H 1070.18 1.3625 -3.51733 0
M  V30 11594 H 1072.57 1.50852 -2.53629 0
M  V30 11595 H 1072.65 -0.259014 -2.54485 0
M  V30 11596 H 1072.3 -0.240809 -5.07329 0
M  V30 11597 H 1072.23 1.53894 -5.03611 0
M  V30 11598 H 1074.72 0.7121 -3.7113 0
M  V30 11599 H 1075.03 0.837378 -7.6825 0
M  V30 11600 H 1073.37 0.759986 -6.90832 0
M  V30 11601 H 1076.57 0.799183 -4.61227 0
M  V30 11602 H 1076.74 0.856537 -6.42314 0
M  V30 11603 N 1070.14 1.51827 0.422667 0
M  V30 11604 C 1071.05 1.77066 1.53899 0
M  V30 11605 C 1072.07 0.655541 1.61179 0
M  V30 11606 O 1073.25 0.939448 1.78147 0
M  V30 11607 C 1070.31 1.90372 2.89758 0
M  V30 11608 C 1069.37 3.14256 2.92475 0
M  V30 11609 C 1068.61 3.26918 4.21853 0
M  V30 11610 O 1068.83 2.45164 5.15025 0
M  V30 11611 O 1067.76 4.19989 4.31153 0
M  V30 11612 H 1071.59 2.71791 1.35511 0
M  V30 11613 H 1069.17 1.36506 0.607165 0
M  V30 11614 H 1071.06 2.01024 3.70361 0
M  V30 11615 H 1069.73 0.988347 3.08242 0
M  V30 11616 H 1068.64 3.09072 2.10773 0
M  V30 11617 H 1069.97 4.0553 2.78937 0
M  V30 11618 N 1071.62 -0.679052 1.4222 0
M  V30 11619 C 1072.55 -1.80455 1.41311 0
M  V30 11620 C 1073.57 -1.59767 0.312799 0
M  V30 11621 O 1074.76 -1.68964 0.575612 0
M  V30 11622 C 1071.86 -3.17492 1.18541 0
M  V30 11623 C 1071.03 -3.65066 2.40926 0
M  V30 11624 C 1070.09 -4.80823 2.13765 0
M  V30 11625 O 1069.11 -4.91587 2.86934 0
M  V30 11626 N 1070.32 -5.69233 1.13813 0
M  V30 11627 H 1073.08 -1.81722 2.38322 0
M  V30 11628 H 1070.64 -0.861988 1.37045 0
M  V30 11629 H 1072.63 -3.92581 0.982958 0
M  V30 11630 H 1071.2 -3.1115 0.300691 0
M  V30 11631 H 1070.42 -2.80702 2.76767 0
M  V30 11632 H 1071.71 -3.93593 3.22431 0
M  V30 11633 H 1071.11 -5.63185 0.532887 0
M  V30 11634 H 1069.67 -6.44152 0.995554 0
M  V30 11635 N 1073.1 -1.28322 -0.914942 0
M  V30 11636 C 1074.01 -1.13993 -2.05043 0
M  V30 11637 C 1075.03 -0.0667921 -1.73872 0
M  V30 11638 O 1076.2 -0.275845 -1.99502 0
M  V30 11639 C 1073.27 -0.801856 -3.373 0
M  V30 11640 C 1072.33 -1.95723 -3.82088 0
M  V30 11641 C 1071.56 -1.63519 -5.08033 0
M  V30 11642 O 1071.78 -0.54899 -5.67752 0
M  V30 11643 O 1070.72 -2.47844 -5.48504 0
M  V30 11644 H 1074.54 -2.09313 -2.2005 0
M  V30 11645 H 1072.13 -1.0763 -1.03616 0
M  V30 11646 H 1074.01 -0.627214 -4.16706 0
M  V30 11647 H 1072.69 0.121696 -3.23471 0
M  V30 11648 H 1071.59 -2.18702 -3.03514 0
M  V30 11649 H 1072.93 -2.86144 -4.00478 0
M  V30 11650 N 1074.58 1.12322 -1.10551 0
M  V30 11651 C 1075.51 2.20176 -0.777486 0
M  V30 11652 C 1076.49 1.68252 0.250069 0
M  V30 11653 O 1077.67 1.93856 0.115574 0
M  V30 11654 C 1074.8 3.46666 -0.209822 0
M  V30 11655 C 1073.76 4.11749 -1.1682 0
M  V30 11656 C 1073.08 5.32703 -0.461684 0
M  V30 11657 C 1074.38 4.57746 -2.51527 0
M  V30 11658 H 1076.08 2.47872 -1.67928 0
M  V30 11659 H 1073.62 1.19136 -0.808863 0
M  V30 11660 H 1075.58 4.21388 0.0318068 0
M  V30 11661 H 1074.3 3.18401 0.727226 0
M  V30 11662 H 1072.96 3.39009 -1.3953 0
M  V30 11663 H 1072.61 5.00706 0.479875 0
M  V30 11664 H 1072.31 5.77197 -1.1008 0
M  V30 11665 H 1073.83 6.10172 -0.228629 0
M  V30 11666 H 1075.25 5.23835 -2.32958 0
M  V30 11667 H 1073.64 5.13021 -3.11335 0
M  V30 11668 H 1074.71 3.71667 -3.11435 0
M  V30 11669 N 1076.06 0.894434 1.2976 0
M  V30 11670 C 1077.47 0.589778 1.48303 0
M  V30 11671 C 1077.67 -0.870085 1.81746 0
M  V30 11672 O 1076.73 -1.65065 1.91076 0
M  V30 11673 C 1078.04 1.51107 2.59975 0
M  V30 11674 C 1079.59 1.51571 2.73853 0
M  V30 11675 C 1080.06 2.42316 3.88648 0
M  V30 11676 N 1081.56 2.40333 3.95973 0
M  V30 11677 C 1082.29 3.07254 4.84131 0
M  V30 11678 N 1081.79 3.83435 5.77018 0
M  V30 11679 N 1083.58 2.96438 4.77578 0
M  V30 11680 H 1075.73 1.83871 1.06327 0
M  V30 11681 H 1077.99 0.78758 0.527657 0
M  V30 11682 H 1077.7 2.55097 2.42112 0
M  V30 11683 H 1077.57 1.22767 3.56662 0
M  V30 11684 H 1079.96 0.483277 2.91116 0
M  V30 11685 H 1080.04 1.83946 1.77757 0
M  V30 11686 H 1079.69 3.4565 3.72141 0
M  V30 11687 H 1079.62 2.07252 4.84101 0
M  V30 11688 H 1082.11 1.84979 3.29532 0
M  V30 11689 H 1082.42 4.31565 6.4107 0
M  V30 11690 H 1080.76 3.87542 5.7692 0
M  V30 11691 H 1083.96 2.36442 4.03996 0
M  V30 11692 H 1084.13 3.48867 5.46073 0
M  V30 11693 N 1077.53 -1.43282 0.656365 0
M  V30 11694 C 1078.47 -2.29087 -0.0720378 0
M  V30 11695 C 1079.48 -1.4268 -0.783982 0
M  V30 11696 O 1080.67 -1.66585 -0.641213 0
M  V30 11697 C 1077.77 -3.19676 -1.12519 0
M  V30 11698 C 1076.94 -4.34638 -0.490756 0
M  V30 11699 C 1076 -5.06079 -1.44121 0
M  V30 11700 O 1075.03 -5.6124 -0.948595 0
M  V30 11701 N 1076.23 -5.09872 -2.77509 0
M  V30 11702 H 1078.99 -2.92241 0.664456 0
M  V30 11703 H 1076.55 -1.54006 0.499383 0
M  V30 11704 H 1078.55 -3.64334 -1.76189 0
M  V30 11705 H 1077.12 -2.581 -1.76362 0
M  V30 11706 H 1076.34 -3.92857 0.3251 0
M  V30 11707 H 1077.62 -5.08777 -0.0480061 0
M  V30 11708 H 1077.02 -4.66433 -3.20088 0
M  V30 11709 H 1075.58 -5.58237 -3.36474 0
M  V30 11710 N 1079.01 -0.398486 -1.52479 0
M  V30 11711 C 1079.96 0.432212 -2.26717 0
M  V30 11712 C 1080.93 1.05007 -1.28696 0
M  V30 11713 O 1082.12 1.07636 -1.57541 0
M  V30 11714 C 1079.26 1.54868 -3.08399 0
M  V30 11715 C 1078.37 0.952779 -4.21362 0
M  V30 11716 C 1077.5 2.04106 -4.90423 0
M  V30 11717 C 1076.54 1.42153 -5.95364 0
M  V30 11718 N 1075.68 2.44951 -6.57984 0
M  V30 11719 H 1080.52 -0.207303 -2.97278 0
M  V30 11720 H 1078.06 -0.114066 -1.46657 0
M  V30 11721 H 1080.01 2.20684 -3.54054 0
M  V30 11722 H 1078.64 2.15837 -2.4003 0
M  V30 11723 H 1077.7 0.183962 -3.79955 0
M  V30 11724 H 1079.01 0.460131 -4.96673 0
M  V30 11725 H 1078.16 2.77672 -5.39429 0
M  V30 11726 H 1076.9 2.56733 -4.14656 0
M  V30 11727 H 1075.91 0.671161 -5.45688 0
M  V30 11728 H 1077.13 0.903093 -6.73068 0
M  V30 11729 H 1075.08 2.9673 -5.85053 0
M  V30 11730 H 1074.99 2.00468 -7.28937 0
M  V30 11731 H 1076.26 3.18119 -7.11632 0
M  V30 11732 N 1080.49 1.57075 -0.12858 0
M  V30 11733 C 1081.44 2.12379 0.829418 0
M  V30 11734 C 1082.43 1.04694 1.2218 0
M  V30 11735 O 1083.62 1.30909 1.1913 0
M  V30 11736 C 1080.75 2.73436 2.07575 0
M  V30 11737 C 1079.83 3.88217 1.7073 0
M  V30 11738 N 1080.22 4.94864 1.04609 0
M  V30 11739 C 1078.52 3.9858 2.00125 0
M  V30 11740 C 1079.22 5.7514 0.871137 0
M  V30 11741 N 1078.2 5.25284 1.39918 0
M  V30 11742 H 1082 2.92209 0.314816 0
M  V30 11743 H 1079.51 1.62233 0.0735788 0
M  V30 11744 H 1081.51 3.11406 2.77185 0
M  V30 11745 H 1080.17 1.95073 2.5957 0
M  V30 11746 H 1081.18 5.13025 0.708961 0
M  V30 11747 H 1077.86 3.3127 2.541 0
M  V30 11748 H 1079.25 6.7098 0.351395 0
M  V30 11749 N 1081.97 -0.145205 1.5693 0
M  V30 11750 C 1082.93 -1.16316 1.97492 0
M  V30 11751 C 1083.93 -1.35764 0.861668 0
M  V30 11752 O 1085.12 -1.32726 1.12825 0
M  V30 11753 C 1082.25 -2.52311 2.29242 0
M  V30 11754 H 1083.45 -0.815138 2.8861 0
M  V30 11755 H 1081 -0.38861 1.51392 0
M  V30 11756 H 1081.74 -2.92081 1.40922 0
M  V30 11757 H 1081.52 -2.39555 3.10412 0
M  V30 11758 H 1083.01 -3.25624 2.61456 0
M  V30 11759 N 1083.45 -1.52049 -0.414609 0
M  V30 11760 C 1084.41 -1.74382 -1.4874 0
M  V30 11761 C 1085.41 -0.613701 -1.48628 0
M  V30 11762 O 1086.6 -0.88152 -1.50249 0
M  V30 11763 C 1083.73 -1.82116 -2.88178 0
M  V30 11764 H 1084.93 -2.70147 -1.30233 0
M  V30 11765 H 1082.48 -1.42382 -0.644756 0
M  V30 11766 H 1083.21 -0.882457 -3.12063 0
M  V30 11767 H 1083 -2.64268 -2.89663 0
M  V30 11768 H 1084.49 -2.01155 -3.65959 0
M  V30 11769 N 1084.93 0.6715 -1.42579 0
M  V30 11770 C 1085.86 1.79703 -1.42266 0
M  V30 11771 C 1086.87 1.59599 -0.321268 0
M  V30 11772 O 1088.06 1.68657 -0.584564 0
M  V30 11773 C 1085.16 3.16859 -1.20224 0
M  V30 11774 C 1084.33 3.63783 -2.42859 0
M  V30 11775 C 1083.39 4.79683 -2.16312 0
M  V30 11776 O 1082.42 4.90058 -2.89537 0
M  V30 11777 N 1083.62 5.68622 -1.16831 0
M  V30 11778 H 1086.38 1.80455 -2.39282 0
M  V30 11779 H 1083.95 0.854708 -1.375 0
M  V30 11780 H 1085.94 3.92054 -1.00376 0
M  V30 11781 H 1084.51 3.10987 -0.317188 0
M  V30 11782 H 1083.73 2.7923 -2.78252 0
M  V30 11783 H 1085.02 3.91877 -3.24514 0
M  V30 11784 H 1084.41 5.62894 -0.562746 0
M  V30 11785 H 1082.97 6.43615 -1.0297 0
M  V30 11786 N 1086.4 1.28806 0.908124 0
M  V30 11787 C 1087.65 1.1646 1.66027 0
M  V30 11788 C 1087.98 -0.285025 1.92097 0
M  V30 11789 O 1087.26 -1.20675 1.52538 0
M  V30 11790 C 1087.54 1.96951 3.01467 0
M  V30 11791 C 1087.39 3.50007 2.82515 0
M  V30 11792 C 1088.71 1.78932 4.02084 0
M  V30 11793 H 1085.83 0.424435 0.602515 0
M  V30 11794 H 1088.47 1.58185 1.0525 0
M  V30 11795 H 1086.62 1.61495 3.53344 0
M  V30 11796 H 1088.3 3.95401 2.37605 0
M  V30 11797 H 1086.54 3.75356 2.17463 0
M  V30 11798 H 1087.21 4.01591 3.7872 0
M  V30 11799 H 1089.69 2.09885 3.59287 0
M  V30 11800 H 1088.56 2.37615 4.94803 0
M  V30 11801 H 1088.82 0.742286 4.35824 0
M  V30 11802 N 1087.88 -1.11734 1.11145 0
M  V30 11803 C 1089.3 -1.35412 0.844736 0
M  V30 11804 C 1089.5 -1.94347 -0.532111 0
M  V30 11805 O 1088.55 -2.17443 -1.28353 0
M  V30 11806 C 1089.87 -2.28869 1.95037 0
M  V30 11807 C 1091.41 -2.42442 1.97967 0
M  V30 11808 C 1091.89 -3.39219 3.07725 0
M  V30 11809 N 1093.38 -3.4678 3.07079 0
M  V30 11810 C 1094.12 -4.21595 3.88646 0
M  V30 11811 N 1093.61 -4.99411 4.80167 0
M  V30 11812 N 1095.4 -4.17075 3.76835 0
M  V30 11813 H 1087.56 -0.718412 1.99881 0
M  V30 11814 H 1089.82 -0.378787 0.869037 0
M  V30 11815 H 1089.52 -1.92752 2.94176 0
M  V30 11816 H 1089.4 -3.2906 1.84389 0
M  V30 11817 H 1091.79 -2.77835 0.994561 0
M  V30 11818 H 1091.87 -1.42113 2.12691 0
M  V30 11819 H 1091.51 -3.04553 4.0646 0
M  V30 11820 H 1091.44 -4.39394 2.90242 0
M  V30 11821 H 1093.93 -2.91272 2.40767 0
M  V30 11822 H 1094.24 -5.53856 5.38946 0
M  V30 11823 H 1092.59 -4.98582 4.84191 0
M  V30 11824 H 1095.78 -3.55369 3.04681 0
M  V30 11825 H 1095.95 -4.75125 4.40637 0
M  V30 11826 N 1089.36 -0.901303 -1.29284 0
M  V30 11827 C 1090.29 -0.337552 -2.26701 0
M  V30 11828 C 1091.3 0.517039 -1.54371 0
M  V30 11829 O 1092.49 0.333937 -1.75349 0
M  V30 11830 C 1089.59 0.537214 -3.34615 0
M  V30 11831 C 1088.77 -0.292017 -4.36424 0
M  V30 11832 C 1087.83 0.515837 -5.23666 0
M  V30 11833 O 1086.85 -0.0672303 -5.6916 0
M  V30 11834 N 1088.05 1.82159 -5.51179 0
M  V30 11835 H 1090.82 -1.17484 -2.75713 0
M  V30 11836 H 1088.38 -0.765957 -1.42635 0
M  V30 11837 H 1090.37 1.0841 -3.8991 0
M  V30 11838 H 1088.94 1.2752 -2.85408 0
M  V30 11839 H 1088.16 -1.02031 -3.80767 0
M  V30 11840 H 1089.45 -0.859855 -5.01482 0
M  V30 11841 H 1088.85 2.318 -5.16028 0
M  V30 11842 H 1087.4 2.31556 -6.09282 0
M  V30 11843 N 1090.84 1.42931 -0.663954 0
M  V30 11844 C 1091.77 2.29122 0.0598878 0
M  V30 11845 C 1092.78 1.43094 0.776404 0
M  V30 11846 O 1093.97 1.66923 0.63237 0
M  V30 11847 C 1091.07 3.20268 1.10822 0
M  V30 11848 C 1090.24 4.34892 0.4677 0
M  V30 11849 C 1089.3 5.06836 1.41435 0
M  V30 11850 O 1088.33 5.61735 0.918818 0
M  V30 11851 N 1089.53 5.11336 2.74801 0
M  V30 11852 H 1092.3 2.91885 -0.679945 0
M  V30 11853 H 1089.86 1.53739 -0.507543 0
M  V30 11854 H 1091.85 3.65264 1.74255 0
M  V30 11855 H 1090.42 2.59031 1.7499 0
M  V30 11856 H 1089.64 3.92679 -0.34593 0
M  V30 11857 H 1090.93 5.08796 0.0210237 0
M  V30 11858 H 1090.33 4.68124 3.1761 0
M  V30 11859 H 1088.88 5.60013 3.33509 0
M  V30 11860 N 1092.32 0.406567 1.52266 0
M  V30 11861 C 1093.73 -0.063607 1.86592 0
M  V30 11862 C 1094.08 -1.4466 1.32544 0
M  V30 11863 O 1093.2 -2.05971 0.663692 0
M  V30 11864 C 1093.8 -0.122198 3.3858 0
M  V30 11865 C 1092.36 -0.536701 3.72554 0
M  V30 11866 C 1091.5 0.290422 2.75775 0
M  V30 11867 H 1094.45 0.623738 1.45929 0
M  V30 11868 H 1094.48 -0.937964 3.68758 0
M  V30 11869 H 1093.99 0.884495 3.77887 0
M  V30 11870 H 1092.09 -1.55013 3.38824 0
M  V30 11871 H 1092.2 -0.282867 4.78264 0
M  V30 11872 H 1090.57 -0.246864 2.53501 0
M  V30 11873 H 1091.35 1.29541 3.17921 0
M  V30 11874 N 1093.79 -1.57004 0.136909 0
M  V30 11875 C 1094.74 -2.16246 -0.806607 0
M  V30 11876 C 1095.71 -1.09246 -1.25118 0
M  V30 11877 O 1096.9 -1.3724 -1.32551 0
M  V30 11878 C 1094.04 -2.78031 -2.04433 0
M  V30 11879 C 1093.15 -3.99393 -1.64649 0
M  V30 11880 C 1092.28 -4.49208 -2.83524 0
M  V30 11881 C 1091.32 -5.63059 -2.40064 0
M  V30 11882 N 1090.46 -6.07537 -3.51913 0
M  V30 11883 H 1095.3 -2.9654 -0.294596 0
M  V30 11884 H 1092.84 -1.46491 -0.133705 0
M  V30 11885 H 1094.8 -3.11992 -2.76978 0
M  V30 11886 H 1093.43 -2.00398 -2.53062 0
M  V30 11887 H 1092.48 -3.71477 -0.819077 0
M  V30 11888 H 1093.79 -4.81904 -1.28723 0
M  V30 11889 H 1092.94 -4.85171 -3.64271 0
M  V30 11890 H 1091.68 -3.65683 -3.22688 0
M  V30 11891 H 1090.69 -5.26682 -1.57754 0
M  V30 11892 H 1091.91 -6.48362 -2.01997 0
M  V30 11893 H 1089.86 -5.2695 -3.90717 0
M  V30 11894 H 1089.78 -6.84949 -3.1997 0
M  V30 11895 H 1091.04 -6.48143 -4.33048 0
M  V30 11896 N 1095.27 0.136881 -1.57004 0
M  V30 11897 C 1096.5 0.866405 -1.88436 0
M  V30 11898 C 1096.92 1.73483 -0.727006 0
M  V30 11899 O 1096.28 1.78398 0.323094 0
M  V30 11900 C 1096.33 1.69059 -3.18514 0
M  V30 11901 O 1095.43 2.79584 -3.03161 0
M  V30 11902 H 1094.77 0.240709 -0.618834 0
M  V30 11903 H 1097.3 0.124653 -2.0422 0
M  V30 11904 H 1097.31 2.08353 -3.50789 0
M  V30 11905 H 1095.99 1.05296 -4.0235 0
M  V30 11906 H 1094.57 2.43623 -2.82315 0
M  V30 11907 N 1096.75 1.52266 0.40654 0
M  V30 11908 C 1097.68 1.78755 1.50229 0
M  V30 11909 C 1098.66 0.638652 1.57655 0
M  V30 11910 O 1099.85 0.884505 1.72888 0
M  V30 11911 C 1096.98 1.94057 2.88026 0
M  V30 11912 C 1095.93 3.09667 2.95449 0
M  V30 11913 C 1095.26 3.10196 4.35526 0
M  V30 11914 C 1096.56 4.49077 2.66697 0
M  V30 11915 H 1098.25 2.70511 1.28313 0
M  V30 11916 H 1095.8 1.30167 0.615836 0
M  V30 11917 H 1097.75 2.11171 3.64671 0
M  V30 11918 H 1096.47 0.989755 3.11242 0
M  V30 11919 H 1095.13 2.92308 2.2125 0
M  V30 11920 H 1094.78 2.12831 4.55754 0
M  V30 11921 H 1094.48 3.87847 4.41416 0
M  V30 11922 H 1096 3.29443 5.14101 0
M  V30 11923 H 1097.42 4.66628 3.33064 0
M  V30 11924 H 1095.82 5.28665 2.8396 0
M  V30 11925 H 1096.89 4.56995 1.62122 0
M  V30 11926 N 1098.23 -0.663929 1.42933 0
M  V30 11927 C 1099.18 -1.77717 1.47259 0
M  V30 11928 C 1100.15 -1.62922 0.323387 0
M  V30 11929 O 1101.33 -1.83319 0.529021 0
M  V30 11930 C 1098.47 -3.15814 1.39124 0
M  V30 11931 C 1097.58 -3.4182 2.64165 0
M  V30 11932 C 1096.72 -4.69705 2.48094 0
M  V30 11933 C 1095.76 -4.88781 3.68456 0
M  V30 11934 N 1094.89 -6.07915 3.51261 0
M  V30 11935 H 1099.73 -1.73355 2.42388 0
M  V30 11936 H 1097.27 -0.846121 1.2033 0
M  V30 11937 H 1099.23 -3.95633 1.32403 0
M  V30 11938 H 1097.86 -3.19274 0.475829 0
M  V30 11939 H 1096.91 -2.56176 2.81208 0
M  V30 11940 H 1098.22 -3.51805 3.53602 0
M  V30 11941 H 1097.38 -5.57632 2.39021 0
M  V30 11942 H 1096.12 -4.62022 1.56164 0
M  V30 11943 H 1095.12 -3.99292 3.7795 0
M  V30 11944 H 1096.35 -4.98301 4.61381 0
M  V30 11945 H 1094.29 -6.01384 2.62057 0
M  V30 11946 H 1094.21 -6.1881 4.34293 0
M  V30 11947 H 1095.48 -6.98492 3.4602 0
M  V30 11948 N 1099.71 -1.29285 -0.901281 0
M  V30 11949 C 1100.95 -1.17339 -1.65407 0
M  V30 11950 C 1101.29 0.274834 -1.92245 0
M  V30 11951 O 1100.56 1.19865 -1.53176 0
M  V30 11952 C 1100.84 -1.98547 -3.00418 0
M  V30 11953 C 1100.7 -3.51501 -2.80655 0
M  V30 11954 C 1102.02 -1.81062 -4.01129 0
M  V30 11955 H 1099.13 -0.427624 -0.600255 0
M  V30 11956 H 1101.78 -1.58741 -1.0441 0
M  V30 11957 H 1099.93 -1.63366 -3.52482 0
M  V30 11958 H 1101.6 -3.96655 -2.35505 0
M  V30 11959 H 1099.84 -3.76504 -2.15469 0
M  V30 11960 H 1100.51 -4.03593 -3.76585 0
M  V30 11961 H 1102.99 -2.11788 -3.58169 0
M  V30 11962 H 1101.86 -2.40235 -4.93536 0
M  V30 11963 H 1102.13 -0.765388 -4.35424 0
M  V30 11964 N 1101.18 1.11143 -1.11736 0
M  V30 11965 C 1102.6 1.34962 -0.851905 0
M  V30 11966 C 1102.8 1.94627 0.521797 0
M  V30 11967 O 1101.86 2.18121 1.27198 0
M  V30 11968 C 1103.17 2.27832 -1.96248 0
M  V30 11969 C 1104.72 2.41388 -1.9925 0
M  V30 11970 C 1105.19 3.37582 -3.09519 0
M  V30 11971 N 1106.68 3.45147 -3.08914 0
M  V30 11972 C 1107.42 4.19527 -3.90876 0
M  V30 11973 N 1106.91 4.96858 -4.82809 0
M  V30 11974 N 1108.71 4.15071 -3.79042 0
M  V30 11975 H 1100.86 0.707801 -2.0026 0
M  V30 11976 H 1103.12 0.374172 -0.871033 0
M  V30 11977 H 1102.83 1.91189 -2.95194 0
M  V30 11978 H 1102.7 3.28078 -1.86132 0
M  V30 11979 H 1105.09 2.77304 -1.00928 0
M  V30 11980 H 1105.17 1.40983 -2.13442 0
M  V30 11981 H 1104.81 3.02393 -4.0807 0
M  V30 11982 H 1104.74 4.37849 -2.92568 0
M  V30 11983 H 1107.23 2.89991 -2.42309 0
M  V30 11984 H 1107.55 5.5099 -5.41876 0
M  V30 11985 H 1105.89 4.96008 -4.86828 0
M  V30 11986 H 1109.08 3.53748 -3.06562 0
M  V30 11987 H 1109.26 4.72781 -4.4315 0
M  V30 11988 N 1102.66 0.908147 1.28804 0
M  V30 11989 C 1103.63 0.397058 2.25735 0
M  V30 11990 C 1104.63 -0.473483 1.53671 0
M  V30 11991 O 1105.82 -0.277335 1.71978 0
M  V30 11992 C 1102.95 -0.431392 3.38159 0
M  V30 11993 H 1104.14 1.25323 2.72459 0
M  V30 11994 H 1101.69 0.687041 1.4039 0
M  V30 11995 H 1102.43 -1.3072 2.96787 0
M  V30 11996 H 1102.21 0.192502 3.91627 0
M  V30 11997 H 1103.7 -0.78 4.10251 0
M  V30 11998 N 1104.14 -1.42577 0.671525 0
M  V30 11999 C 1105.39 -2.01185 0.192051 0
M  V30 12000 C 1105.71 -1.53349 -1.20454 0
M  V30 12001 O 1104.98 -0.753781 -1.80817 0
M  V30 12002 H 1103.56 -0.743898 0.0680106 0
M  V30 12003 H 1106.22 -1.74539 0.8673 0
M  V30 12004 H 1105.32 -3.11516 0.190796 0
M  V30 12005 N 1105.62 -0.414636 -1.52048 0
M  V30 12006 C 1106.55 0.443601 -2.24866 0
M  V30 12007 C 1107.56 1.00556 -1.28032 0
M  V30 12008 O 1108.75 0.903566 -1.53941 0
M  V30 12009 C 1105.85 1.63004 -2.97124 0
M  V30 12010 C 1105.03 1.191 -4.20873 0
M  V30 12011 C 1104.08 2.24497 -4.75907 0
M  V30 12012 O 1103.11 1.84861 -5.38345 0
M  V30 12013 N 1104.31 3.56727 -4.57959 0
M  V30 12014 H 1107.08 -0.180393 -2.99157 0
M  V30 12015 H 1104.64 -0.242305 -1.60077 0
M  V30 12016 H 1106.63 2.33089 -3.30835 0
M  V30 12017 H 1105.2 2.15984 -2.25986 0
M  V30 12018 H 1104.42 0.318059 -3.92915 0
M  V30 12019 H 1105.71 0.874699 -5.01225 0
M  V30 12020 H 1105.11 3.91675 -4.08175 0
M  V30 12021 H 1103.66 4.22772 -4.96092 0
M  V30 12022 N 1107.1 1.56929 -0.145233 0
M  V30 12023 C 1108.51 1.58196 0.211194 0
M  V30 12024 C 1108.71 1.15941 1.64803 0
M  V30 12025 O 1107.77 0.858888 2.37443 0
M  V30 12026 C 1109.08 3.00665 -0.0459569 0
M  V30 12027 C 1110.63 3.12995 0.0178913 0
M  V30 12028 C 1111.1 4.5751 -0.211905 0
M  V30 12029 N 1112.6 4.62928 -0.158772 0
M  V30 12030 C 1113.33 5.72555 -0.311111 0
M  V30 12031 N 1112.83 6.90838 -0.521074 0
M  V30 12032 N 1114.62 5.61549 -0.248838 0
M  V30 12033 H 1106.77 1.8269 -1.08342 0
M  V30 12034 H 1109.03 0.845514 -0.428731 0
M  V30 12035 H 1108.74 3.35962 -1.0403 0
M  V30 12036 H 1108.61 3.71125 0.674246 0
M  V30 12037 H 1111 2.7754 1.00278 0
M  V30 12038 H 1111.08 2.45025 -0.734612 0
M  V30 12039 H 1110.73 4.93669 -1.19389 0
M  V30 12040 H 1110.66 5.23604 0.560901 0
M  V30 12041 H 1113.15 3.779 -0.00107283 0
M  V30 12042 H 1113.46 7.70248 -0.62747 0
M  V30 12043 H 1111.8 6.92761 -0.557374 0
M  V30 12044 H 1115 4.68022 -0.0855821 0
M  V30 12045 H 1115.17 6.46937 -0.370997 0
M  V30 12046 N 1108.58 -0.128553 1.57075 0
M  V30 12047 C 1109.99 -0.686713 1.73612 0
M  V30 12048 C 1110.34 -1.80778 0.762478 0
M  V30 12049 O 1109.46 -2.16297 -0.0667779 0
M  V30 12050 C 1110.06 -1.25246 3.148 0
M  V30 12051 C 1108.62 -1.757 3.32876 0
M  V30 12052 C 1107.76 -0.652844 2.69506 0
M  V30 12053 H 1110.71 0.0972859 1.58402 0
M  V30 12054 H 1110.74 -2.1222 3.15821 0
M  V30 12055 H 1110.25 -0.436308 3.8564 0
M  V30 12056 H 1108.35 -2.59824 2.67063 0
M  V30 12057 H 1108.46 -1.87302 4.4097 0
M  V30 12058 H 1106.83 -1.08408 2.30477 0
M  V30 12059 H 1107.61 0.15217 3.42963 0
M  V30 12060 N 1110.05 -1.5248 -0.398459 0
M  V30 12061 C 1111.46 -1.59107 -0.976817 0
M  V30 12062 C 1111.82 -0.438104 -1.91246 0
M  V30 12063 O 1110.94 0.440111 -2.11877 0
M  V30 12064 C 1111.54 -2.88373 -1.77838 0
M  V30 12065 C 1110.09 -2.97445 -2.30659 0
M  V30 12066 C 1109.24 -2.5414 -1.10942 0
M  V30 12067 H 1112.19 -1.57695 -0.178324 0
M  V30 12068 H 1112.21 -2.74327 -2.63676 0
M  V30 12069 H 1111.73 -3.72269 -1.09714 0
M  V30 12070 H 1109.83 -2.18066 -3.02123 0
M  V30 12071 H 1109.94 -4.019 -2.60794 0
M  V30 12072 H 1108.3 -2.08237 -1.46661 0
M  V30 12073 H 1109.09 -3.40421 -0.443684 0
M  V30 12074 N 1111.53 0.65634 -1.43283 0
M  V30 12075 C 1112.78 1.41347 -1.44449 0
M  V30 12076 C 1113.1 1.94879 -0.0687217 0
M  V30 12077 O 1112.37 1.74235 0.895492 0
M  V30 12078 H 1110.95 0.524578 -0.531815 0
M  V30 12079 H 1113.61 0.774292 -1.7886 0
M  V30 12080 H 1112.71 2.25737 -2.15521 0
M  V30 12081 N 1113.01 1.29761 0.894412 0
M  V30 12082 C 1113.94 1.17902 2.01547 0
M  V30 12083 C 1114.92 0.0719402 1.69948 0
M  V30 12084 O 1116.11 0.252338 1.92554 0
M  V30 12085 C 1113.24 0.860262 3.36477 0
M  V30 12086 C 1112.19 1.92424 3.82305 0
M  V30 12087 C 1111.52 1.45868 5.14419 0
M  V30 12088 C 1112.82 3.33391 4.02054 0
M  V30 12089 H 1114.51 2.11688 2.11727 0
M  V30 12090 H 1112.06 1.01916 1.01731 0
M  V30 12091 H 1114.01 0.763987 4.14417 0
M  V30 12092 H 1112.73 -0.113289 3.26403 0
M  V30 12093 H 1111.39 2.00999 3.06586 0
M  V30 12094 H 1111.04 0.473654 5.00765 0
M  V30 12095 H 1110.74 2.17028 5.46052 0
M  V30 12096 H 1112.26 1.37601 5.94894 0
M  V30 12097 H 1113.68 3.27628 4.7046 0
M  V30 12098 H 1112.07 4.02555 4.4505 0
M  V30 12099 H 1113.14 3.75978 3.06216 0
M  V30 12100 N 1114.49 -1.10549 1.12324 0
M  V30 12101 C 1115.9 -1.63991 0.892402 0
M  V30 12102 C 1116.25 -1.87631 -0.573506 0
M  V30 12103 O 1115.37 -1.6174 -1.43768 0
M  V30 12104 C 1115.97 -2.97914 1.61347 0
M  V30 12105 C 1114.53 -3.48227 1.42881 0
M  V30 12106 C 1113.68 -2.22857 1.65015 0
M  V30 12107 H 1116.63 -0.94065 1.27818 0
M  V30 12108 H 1116.65 -3.65326 1.06382 0
M  V30 12109 H 1116.16 -2.80677 2.68034 0
M  V30 12110 H 1114.26 -3.70611 0.384441 0
M  V30 12111 H 1114.37 -4.26419 2.18413 0
M  V30 12112 H 1112.74 -2.30941 1.07417 0
M  V30 12113 H 1113.52 -2.08152 2.72997 0
M  V30 12114 N 1115.97 -0.914965 -1.28321 0
M  V30 12115 C 1116.9 -0.421292 -2.29668 0
M  V30 12116 C 1117.88 0.511743 -1.6222 0
M  V30 12117 O 1119.06 0.419218 -1.89621 0
M  V30 12118 C 1116.19 0.338364 -3.45648 0
M  V30 12119 C 1115.15 -0.505646 -4.25003 0
M  V30 12120 C 1114.47 0.382421 -5.33331 0
M  V30 12121 C 1115.77 -1.76354 -4.91626 0
M  V30 12122 H 1117.47 -1.26826 -2.71211 0
M  V30 12123 H 1115.01 -0.611291 -1.30381 0
M  V30 12124 H 1116.96 0.694578 -4.15636 0
M  V30 12125 H 1115.69 1.21925 -3.02988 0
M  V30 12126 H 1114.35 -0.844395 -3.56743 0
M  V30 12127 H 1114 1.26189 -4.86914 0
M  V30 12128 H 1113.7 -0.17871 -5.87328 0
M  V30 12129 H 1115.22 0.73449 -6.06166 0
M  V30 12130 H 1116.63 -1.47616 -5.5397 0
M  V30 12131 H 1115.03 -2.26717 -5.55625 0
M  V30 12132 H 1116.1 -2.49063 -4.16048 0
M  V30 12133 N 1117.44 1.42219 -0.679077 0
M  V30 12134 C 1118.85 1.8459 -0.279877 0
M  V30 12135 C 1119.21 1.56839 1.17881 0
M  V30 12136 O 1118.33 1.03039 1.90294 0
M  V30 12137 C 1118.93 3.35072 -0.501185 0
M  V30 12138 C 1117.48 3.76076 -0.156065 0
M  V30 12139 C 1116.63 2.65763 -0.791549 0
M  V30 12140 H 1119.58 1.32005 -0.880932 0
M  V30 12141 H 1119.6 3.79708 0.245349 0
M  V30 12142 H 1119.12 3.55239 -1.56291 0
M  V30 12143 H 1117.22 3.61516 0.90205 0
M  V30 12144 H 1117.33 4.75334 -0.599572 0
M  V30 12145 H 1115.69 2.53726 -0.222514 0
M  V30 12146 H 1116.48 2.88751 -1.85682 0
M  V30 12147 N 1118.92 0.422693 1.51826 0
M  V30 12148 C 1120.17 -0.150066 2.01141 0
M  V30 12149 C 1120.48 -1.45059 1.31214 0
M  V30 12150 O 1121.69 -2.10542 1.71419 0
M  V30 12151 C 1120.15 -0.317985 3.58492 0
M  V30 12152 C 1119.75 0.971244 4.37345 0
M  V30 12153 C 1121.5 -0.845303 4.15999 0
M  V30 12154 C 1119.4 0.769769 5.86369 0
M  V30 12155 H 1118.33 -0.0598567 0.75162 0
M  V30 12156 H 1120.99 0.550217 1.75057 0
M  V30 12157 H 1119.37 -1.08092 3.80962 0
M  V30 12158 H 1120.54 1.74138 4.26629 0
M  V30 12159 H 1118.86 1.42599 3.91222 0
M  V30 12160 H 1121.45 -1.01229 5.2503 0
M  V30 12161 H 1121.8 -1.82375 3.74226 0
M  V30 12162 H 1122.33 -0.141067 3.9755 0
M  V30 12163 H 1119.07 1.72017 6.32527 0
M  V30 12164 H 1118.59 0.0391717 5.99787 0
M  V30 12165 H 1120.27 0.417225 6.45653 0
M  V30 12166 N 1120.4 -1.5685 0.153553 0
M  V30 12167 C 1121.81 -1.83074 -0.36618 0
M  V30 12168 C 1122.16 -1.07257 -1.64288 0
M  V30 12169 O 1121.29 -0.319925 -2.14022 0
M  V30 12170 C 1121.88 -3.32086 -0.671142 0
M  V30 12171 C 1120.44 -3.58868 -1.13537 0
M  V30 12172 C 1119.59 -2.76827 -0.161887 0
M  V30 12173 H 1122.54 -1.54129 0.378139 0
M  V30 12174 H 1122.56 -3.48598 -1.52512 0
M  V30 12175 H 1122.07 -3.8724 0.258234 0
M  V30 12176 H 1120.17 -3.09107 -2.08047 0
M  V30 12177 H 1120.29 -4.67299 -1.05682 0
M  V30 12178 H 1118.65 -2.46112 -0.6558 0
M  V30 12179 H 1119.43 -3.34755 0.761195 0
M  V30 12180 N 1121.88 0.120221 -1.57141 0
M  V30 12181 C 1123.13 0.826586 -1.84423 0
M  V30 12182 C 1123.45 1.80473 -0.738553 0
M  V30 12183 O 1122.72 1.94454 0.23755 0
M  V30 12184 H 1121.3 0.308246 -0.680436 0
M  V30 12185 H 1123.96 0.107835 -1.94601 0
M  V30 12186 H 1123.05 1.37256 -2.80298 0
M  V30 12187 N 1123.36 1.52689 0.390367 0
M  V30 12188 C 1124.32 1.76726 1.45947 0
M  V30 12189 C 1125.32 0.637269 1.47633 0
M  V30 12190 O 1126.51 0.905312 1.48828 0
M  V30 12191 C 1123.64 1.86678 2.85244 0
M  V30 12192 H 1124.83 2.72185 1.25918 0
M  V30 12193 H 1122.39 1.4339 0.622023 0
M  V30 12194 H 1123.12 0.931991 3.10619 0
M  V30 12195 H 1122.91 2.68843 2.85422 0
M  V30 12196 H 1124.4 2.06952 3.62713 0
M  V30 12197 N 1124.83 -0.648732 1.43629 0
M  V30 12198 C 1125.76 -1.77298 1.51947 0
M  V30 12199 C 1126.75 -1.65942 0.373785 0
M  V30 12200 O 1127.93 -1.8497 0.591596 0
M  V30 12201 C 1125.06 -3.15749 1.44638 0
M  V30 12202 C 1124.01 -3.41872 2.57502 0
M  V30 12203 C 1123.34 -4.8017 2.35246 0
M  V30 12204 C 1124.64 -3.36173 3.99731 0
M  V30 12205 H 1126.33 -1.70594 2.46045 0
M  V30 12206 H 1123.88 -0.819306 1.1842 0
M  V30 12207 H 1125.83 -3.94156 1.4906 0
M  V30 12208 H 1124.56 -3.23194 0.470466 0
M  V30 12209 H 1123.22 -2.65838 2.5244 0
M  V30 12210 H 1122.86 -4.84297 1.35887 0
M  V30 12211 H 1122.56 -4.9861 3.10906 0
M  V30 12212 H 1124.09 -5.6083 2.41459 0
M  V30 12213 H 1125.5 -4.0451 4.06257 0
M  V30 12214 H 1123.9 -3.66148 4.75453 0
M  V30 12215 H 1124.97 -2.34277 4.24549 0
M  V30 12216 N 1126.31 -1.30234 -0.887518 0
M  V30 12217 C 1127.56 -1.18675 -1.63587 0
M  V30 12218 C 1127.88 0.259342 -1.93268 0
M  V30 12219 O 1127.15 1.17523 -1.56733 0
M  V30 12220 H 1125.73 -0.436224 -0.606397 0
M  V30 12221 H 1128.39 -1.63326 -1.06351 0
M  V30 12222 H 1127.49 -1.74575 -2.58708 0
M  V30 12223 N 1127.79 1.09952 -1.12909 0
M  V30 12224 C 1129.2 1.63516 -0.901087 0
M  V30 12225 C 1129.55 1.87932 0.563547 0
M  V30 12226 O 1128.68 1.625 1.42908 0
M  V30 12227 C 1129.27 2.97054 -1.62924 0
M  V30 12228 C 1127.83 3.47464 -1.44725 0
M  V30 12229 C 1126.98 2.21979 -1.66194 0
M  V30 12230 H 1129.93 0.933858 -1.28315 0
M  V30 12231 H 1129.95 3.64757 -1.08318 0
M  V30 12232 H 1129.46 2.79251 -2.69519 0
M  V30 12233 H 1127.56 3.70402 -0.40409 0
M  V30 12234 H 1127.68 4.25254 -2.20671 0
M  V30 12235 H 1126.04 2.30368 -1.0864 0
M  V30 12236 H 1126.82 2.06702 -2.74097 0
M  V30 12237 N 1129.27 0.921757 1.27833 0
M  V30 12238 C 1130.68 0.604496 1.76643 0
M  V30 12239 C 1131.03 -0.880294 1.75343 0
M  V30 12240 O 1130.16 -1.68875 1.35315 0
M  V30 12241 C 1130.75 1.09055 3.20768 0
M  V30 12242 C 1129.31 0.824066 3.67268 0
M  V30 12243 C 1128.46 1.25269 2.47392 0
M  V30 12244 H 1131.41 1.10217 1.14184 0
M  V30 12245 H 1131.43 0.435558 3.77999 0
M  V30 12246 H 1130.94 2.17122 3.21682 0
M  V30 12247 H 1129.04 -0.243055 3.71806 0
M  V30 12248 H 1129.15 1.43743 4.57028 0
M  V30 12249 H 1127.52 0.671313 2.45694 0
M  V30 12250 H 1128.3 2.34188 2.5102 0
M  V30 12251 N 1130.75 -1.41857 0.686609 0
M  V30 12252 C 1131.69 -2.326 0.0041351 0
M  V30 12253 C 1132.69 -1.50474 -0.778077 0
M  V30 12254 O 1133.89 -1.66468 -0.684709 0
M  V30 12255 H 1130.27 -0.751797 -0.0174615 0
M  V30 12256 H 1132.24 -2.87844 0.786656 0
M  V30 12257 C 1130.99 -3.35175 -0.924819 0
M  V30 12258 H 1130.31 -3.98416 -0.332339 0
M  V30 12259 H 1131.75 -4.01229 -1.37082 0
M  V30 12260 C 1130.21 -2.68359 -2.03679 0
M  V30 12261 O 1130.74 -2.52453 -3.12459 0
M  V30 12262 N 1128.95 -2.27196 -1.81192 0
M  V30 12263 H 1128.49 -2.40333 -0.92725 0
M  V30 12264 H 1128.45 -1.82824 -2.55778 0
M  V30 12265 N 1132.22 -0.430739 -1.51599 0
M  V30 12266 C 1133.45 0.136797 -2.06447 0
M  V30 12267 C 1133.87 1.37027 -1.29881 0
M  V30 12268 O 1133.22 1.78983 -0.356543 0
M  V30 12269 C 1133.28 0.465637 -3.58489 0
M  V30 12270 O 1133 -0.718873 -4.32162 0
M  V30 12271 C 1134.5 1.08456 -4.29828 0
M  V30 12272 H 1131.72 0.0108468 -0.670912 0
M  V30 12273 H 1134.26 -0.607921 -1.95255 0
M  V30 12274 H 1132.42 1.16025 -3.69617 0
M  V30 12275 H 1132.83 -0.439195 -5.22658 0
M  V30 12276 H 1134.3 1.2647 -5.37317 0
M  V30 12277 H 1134.78 2.06376 -3.87693 0
M  V30 12278 H 1135.39 0.429525 -4.23125 0
M  V30 12279 N 1133.7 1.56767 -0.161869 0
M  V30 12280 C 1134.95 1.96206 0.484537 0
M  V30 12281 C 1135.27 1.04848 1.64414 0
M  V30 12282 O 1134.54 0.112946 1.95574 0
M  V30 12283 H 1133.12 0.724491 0.181994 0
M  V30 12284 H 1135.78 1.93406 -0.240845 0
M  V30 12285 H 1134.88 3.00279 0.85083 0
M  V30 12286 N 1135.18 -0.111886 1.57202 0
M  V30 12287 C 1136.41 -0.832407 1.89416 0
M  V30 12288 C 1136.82 -1.73096 0.753861 0
M  V30 12289 O 1136.18 -1.80416 -0.274992 0
M  V30 12290 C 1136.23 -1.65988 3.21139 0
M  V30 12291 O 1135.95 -0.797485 4.3078 0
M  V30 12292 C 1137.45 -2.48493 3.67105 0
M  V30 12293 H 1134.67 -0.238919 0.627024 0
M  V30 12294 H 1137.22 -0.0941456 2.04283 0
M  V30 12295 H 1135.37 -2.35082 3.07921 0
M  V30 12296 H 1135.79 -1.36892 5.06321 0
M  V30 12297 H 1137.26 -3.02072 4.62014 0
M  V30 12298 H 1137.74 -3.26182 2.94112 0
M  V30 12299 H 1138.34 -1.84628 3.83135 0
M  V30 12300 N 1136.66 -1.52894 -0.382264 0
M  V30 12301 C 1138.07 -1.60135 -0.959887 0
M  V30 12302 C 1138.42 -0.458363 -1.90771 0
M  V30 12303 O 1137.55 0.417614 -2.12332 0
M  V30 12304 C 1138.14 -2.90243 -1.74769 0
M  V30 12305 C 1136.7 -2.99874 -2.27491 0
M  V30 12306 C 1135.85 -2.55302 -1.0824 0
M  V30 12307 H 1138.8 -1.57875 -0.161589 0
M  V30 12308 H 1138.82 -2.77108 -2.60751 0
M  V30 12309 H 1138.33 -3.73412 -1.0576 0
M  V30 12310 H 1136.43 -2.21258 -2.99793 0
M  V30 12311 H 1136.54 -4.04643 -2.56516 0
M  V30 12312 H 1134.91 -2.09781 -1.44444 0
M  V30 12313 H 1135.69 -3.40872 -0.407553 0
M  V30 12314 N 1138.14 0.641106 -1.43971 0
M  V30 12315 C 1139.39 1.39676 -1.45511 0
M  V30 12316 C 1139.7 1.95403 -0.0877084 0
M  V30 12317 O 1140.91 2.71493 0.0193965 0
M  V30 12318 C 1139.36 2.52839 -2.56126 0
M  V30 12319 C 1138.97 2.03668 -3.99028 0
M  V30 12320 C 1140.71 3.30118 -2.66875 0
M  V30 12321 C 1138.62 3.14114 -5.01085 0
M  V30 12322 H 1137.55 0.524854 -0.541336 0
M  V30 12323 H 1140.2 0.69075 -1.70003 0
M  V30 12324 H 1138.58 3.25968 -2.24857 0
M  V30 12325 H 1139.76 1.3747 -4.39817 0
M  V30 12326 H 1138.07 1.39233 -3.92432 0
M  V30 12327 H 1140.67 4.12434 -3.40297 0
M  V30 12328 H 1141.01 3.78946 -1.72353 0
M  V30 12329 H 1141.55 2.64075 -2.97505 0
M  V30 12330 H 1138.28 2.70241 -5.97202 0
M  V30 12331 H 1137.8 3.78985 -4.64898 0
M  V30 12332 H 1139.48 3.79051 -5.24337 0
M  V30 12333 N 1139.62 1.30703 0.880598 0
M  V30 12334 C 1140.53 1.19389 2.01949 0
M  V30 12335 C 1141.54 0.112868 1.73634 0
M  V30 12336 O 1142.72 0.328643 1.98701 0
M  V30 12337 C 1139.78 0.891004 3.35055 0
M  V30 12338 C 1138.84 2.05784 3.76764 0
M  V30 12339 C 1138.08 1.76931 5.03519 0
M  V30 12340 O 1138.3 0.699326 5.66097 0
M  V30 12341 O 1137.23 2.623 5.4174 0
M  V30 12342 H 1141.06 2.15073 2.14423 0
M  V30 12343 H 1138.64 1.10339 1.00726 0
M  V30 12344 H 1140.53 0.737476 4.14897 0
M  V30 12345 H 1139.2 -0.0358909 3.2368 0
M  V30 12346 H 1138.11 2.26672 2.97608 0
M  V30 12347 H 1139.44 2.96661 3.9275 0
M  V30 12348 N 1141.09 -1.09351 1.1349 0
M  V30 12349 C 1142.03 -2.15852 0.770763 0
M  V30 12350 C 1143.04 -1.61468 -0.207866 0
M  V30 12351 O 1144.23 -1.78496 0.0124385 0
M  V30 12352 C 1141.33 -3.38681 0.121871 0
M  V30 12353 C 1140.5 -4.22477 1.13279 0
M  V30 12354 C 1139.56 -5.23728 0.509448 0
M  V30 12355 O 1138.59 -5.57052 1.16967 0
M  V30 12356 N 1139.79 -5.76041 -0.718159 0
M  V30 12357 H 1142.55 -2.47696 1.6872 0
M  V30 12358 H 1140.11 -1.25074 1.02801 0
M  V30 12359 H 1142.11 -4.03531 -0.307404 0
M  V30 12360 H 1140.68 -3.04718 -0.697527 0
M  V30 12361 H 1139.9 -3.53753 1.73933 0
M  V30 12362 H 1141.18 -4.75288 1.81601 0
M  V30 12363 H 1140.58 -5.51183 -1.27331 0
M  V30 12364 H 1139.14 -6.4262 -1.09008 0
M  V30 12365 N 1142.57 -0.928524 -1.27343 0
M  V30 12366 C 1143.5 -0.385563 -2.25934 0
M  V30 12367 C 1144.52 0.484178 -1.55433 0
M  V30 12368 O 1145.71 0.296668 -1.76017 0
M  V30 12369 C 1142.81 0.466116 -3.35679 0
M  V30 12370 C 1141.98 -0.384523 -4.35707 0
M  V30 12371 C 1141.04 0.404644 -5.24642 0
M  V30 12372 O 1140.06 -0.187943 -5.6889 0
M  V30 12373 N 1141.27 1.70426 -5.54919 0
M  V30 12374 H 1144.03 -1.23306 -2.73159 0
M  V30 12375 H 1141.59 -0.796039 -1.40978 0
M  V30 12376 H 1143.58 1.00115 -3.92121 0
M  V30 12377 H 1142.15 1.21437 -2.88048 0
M  V30 12378 H 1141.37 -1.10085 -3.78517 0
M  V30 12379 H 1142.66 -0.966033 -4.99545 0
M  V30 12380 H 1142.06 2.20802 -5.20829 0
M  V30 12381 H 1140.62 2.1858 -6.14057 0
M  V30 12382 N 1144.05 1.41491 -0.694123 0
M  V30 12383 C 1145.46 1.84283 -0.299439 0
M  V30 12384 C 1145.81 1.58081 1.16211 0
M  V30 12385 O 1144.94 1.05051 1.89191 0
M  V30 12386 C 1145.53 3.34522 -0.536696 0
M  V30 12387 C 1144.09 3.7589 -0.195944 0
M  V30 12388 C 1143.24 2.64908 -0.819692 0
M  V30 12389 H 1146.19 1.31063 -0.894884 0
M  V30 12390 H 1146.21 3.79947 0.205062 0
M  V30 12391 H 1145.72 3.53561 -1.6005 0
M  V30 12392 H 1143.82 3.62452 0.863655 0
M  V30 12393 H 1143.94 4.74671 -0.649954 0
M  V30 12394 H 1142.3 2.53476 -0.249412 0
M  V30 12395 H 1143.08 2.86765 -1.88734 0
M  V30 12396 N 1145.53 0.438773 1.51369 0
M  V30 12397 C 1146.77 -0.126367 2.04009 0
M  V30 12398 C 1147.13 -1.39837 1.31566 0
M  V30 12399 O 1148.33 -2.04384 1.74587 0
M  V30 12400 C 1146.6 -0.338531 3.55793 0
M  V30 12401 S 1148.16 -0.866869 4.30152 0
M  V30 12402 H 1144.98 -0.0311763 0.710316 0
M  V30 12403 H 1147.58 0.598507 1.86113 0
M  V30 12404 H 1146.29 0.593555 4.06085 0
M  V30 12405 H 1145.82 -1.09044 3.77985 0
M  V30 12406 H 1147.83 -2.14427 4.47477 0
M  V30 12407 N 1147.01 -1.56678 0.170181 0
M  V30 12408 C 1148.23 -2.0166 -0.484543 0
M  V30 12409 C 1148.66 -1.04962 -1.56091 0
M  V30 12410 O 1148.01 -0.0289887 -1.81277 0
M  V30 12411 C 1148.06 -3.45252 -1.04084 0
M  V30 12412 O 1147.17 -3.51623 -2.15488 0
M  V30 12413 H 1146.51 -0.653765 -0.116135 0
M  V30 12414 H 1149.04 -2.02761 0.273737 0
M  V30 12415 H 1149.05 -3.84534 -1.36373 0
M  V30 12416 H 1147.72 -4.15131 -0.252738 0
M  V30 12417 H 1146.3 -3.242 -1.84252 0
M  V30 12418 N 1148.48 0.103547 -1.57259 0
M  V30 12419 C 1149.89 0.659006 -1.74683 0
M  V30 12420 C 1150.25 1.79542 -0.791142 0
M  V30 12421 O 1149.37 2.16376 0.0323585 0
M  V30 12422 C 1149.97 1.20222 -3.16752 0
M  V30 12423 C 1148.52 1.70382 -3.35629 0
M  V30 12424 C 1147.67 0.609886 -2.7051 0
M  V30 12425 H 1150.62 -0.122474 -1.58227 0
M  V30 12426 H 1150.64 2.07169 -3.19157 0
M  V30 12427 H 1150.16 0.374901 -3.86285 0
M  V30 12428 H 1148.26 2.55542 -2.71162 0
M  V30 12429 H 1148.37 1.80263 -4.43894 0
M  V30 12430 H 1146.73 1.04728 -2.32173 0
M  V30 12431 H 1147.52 -0.206713 -3.42677 0
M  V30 12432 N 1149.96 1.53094 0.37415 0
M  V30 12433 C 1151.21 1.68527 1.11548 0
M  V30 12434 C 1151.53 0.435253 1.9008 0
M  V30 12435 O 1150.8 -0.550594 1.88003 0
M  V30 12436 H 1149.38 0.621255 0.41479 0
M  V30 12437 H 1152.04 1.90258 0.422844 0
M  V30 12438 H 1151.14 2.54248 1.81009 0
M  V30 12439 N 1151.44 -0.633461 1.44309 0
M  V30 12440 C 1152.37 -1.75868 1.4698 0
M  V30 12441 C 1153.38 -1.58691 0.363469 0
M  V30 12442 O 1154.57 -1.67048 0.629075 0
M  V30 12443 C 1151.67 -3.1356 1.28582 0
M  V30 12444 C 1150.85 -3.57217 2.52418 0
M  V30 12445 C 1149.91 -4.73779 2.28954 0
M  V30 12446 O 1148.93 -4.8221 3.02428 0
M  V30 12447 N 1150.13 -5.65324 1.31866 0
M  V30 12448 H 1152.9 -1.74048 2.43983 0
M  V30 12449 H 1150.46 -0.817952 1.39718 0
M  V30 12450 H 1152.45 -3.89255 1.10736 0
M  V30 12451 H 1151.02 -3.10036 0.399529 0
M  V30 12452 H 1150.24 -2.71755 2.85557 0
M  V30 12453 H 1151.53 -3.83136 3.3479 0
M  V30 12454 H 1150.93 -5.61204 0.71179 0
M  V30 12455 H 1149.48 -6.40659 1.19998 0
M  V30 12456 N 1152.92 -1.31168 -0.873655 0
M  V30 12457 C 1153.83 -1.20458 -2.01313 0
M  V30 12458 C 1154.84 -0.122074 -1.73571 0
M  V30 12459 O 1156.02 -0.339176 -1.98523 0
M  V30 12460 C 1153.09 -0.90876 -3.34578 0
M  V30 12461 C 1152.15 -2.07779 -3.75668 0
M  V30 12462 C 1151.38 -1.79599 -5.02573 0
M  V30 12463 O 1151.6 -0.729338 -5.65718 0
M  V30 12464 O 1150.54 -2.65169 -5.40341 0
M  V30 12465 H 1154.36 -2.16207 -2.13279 0
M  V30 12466 H 1151.95 -1.10871 -1.00139 0
M  V30 12467 H 1153.83 -0.759469 -4.145 0
M  V30 12468 H 1152.5 0.0187249 -3.23695 0
M  V30 12469 H 1151.41 -2.28247 -2.96402 0
M  V30 12470 H 1152.74 -2.9874 -3.91172 0
M  V30 12471 N 1154.4 1.08748 -1.14068 0
M  V30 12472 C 1155.36 2.1375 -0.827266 0
M  V30 12473 C 1156.36 1.59936 0.166496 0
M  V30 12474 O 1157.55 1.74092 -0.0614305 0
M  V30 12475 C 1154.68 3.40106 -0.232557 0
M  V30 12476 H 1155.87 2.42985 -1.7578 0
M  V30 12477 H 1153.43 1.24402 -0.946244 0
M  V30 12478 H 1154.16 3.16503 0.706859 0
M  V30 12479 H 1153.95 3.8046 -0.948293 0
M  V30 12480 H 1155.44 4.17589 -0.0303662 0
M  V30 12481 N 1155.87 0.935264 1.26849 0
M  V30 12482 C 1157.12 0.580548 1.94313 0
M  V30 12483 C 1157.45 -0.877205 1.73259 0
M  V30 12484 O 1156.73 -1.62679 1.06611 0
M  V30 12485 C 1157.01 0.916445 3.48243 0
M  V30 12486 C 1156.86 2.42851 3.78607 0
M  V30 12487 C 1158.18 0.427665 4.38017 0
M  V30 12488 H 1155.3 0.21239 0.705733 0
M  V30 12489 H 1157.94 1.16841 1.49827 0
M  V30 12490 H 1156.09 0.416169 3.86265 0
M  V30 12491 H 1157.77 3.00106 3.50335 0
M  V30 12492 H 1156.01 2.8745 3.24892 0
M  V30 12493 H 1156.68 2.61405 4.8618 0
M  V30 12494 H 1159.16 0.856525 4.07189 0
M  V30 12495 H 1158.03 0.691571 5.44526 0
M  V30 12496 H 1158.29 -0.672344 4.36958 0
M  V30 12497 N 1157.35 -1.41121 0.701616 0
M  V30 12498 C 1158.28 -2.33436 0.0545974 0
M  V30 12499 C 1159.26 -1.52144 -0.760662 0
M  V30 12500 O 1160.45 -1.80661 -0.712414 0
M  V30 12501 C 1157.58 -3.36015 -0.878117 0
M  V30 12502 C 1156.53 -4.27664 -0.169511 0
M  V30 12503 C 1155.86 -5.20666 -1.21699 0
M  V30 12504 C 1157.16 -5.13254 0.967859 0
M  V30 12505 H 1158.85 -2.87791 0.825637 0
M  V30 12506 H 1156.4 -1.38377 0.398484 0
M  V30 12507 H 1158.35 -3.99526 -1.34004 0
M  V30 12508 H 1157.08 -2.80024 -1.68089 0
M  V30 12509 H 1155.73 -3.65586 0.272441 0
M  V30 12510 H 1155.38 -4.60987 -2.01246 0
M  V30 12511 H 1155.08 -5.82822 -0.747836 0
M  V30 12512 H 1156.61 -5.87053 -1.6793 0
M  V30 12513 H 1158.02 -5.70298 0.585944 0
M  V30 12514 H 1156.42 -5.84381 1.3645 0
M  V30 12515 H 1157.49 -4.5006 1.80483 0
M  V30 12516 N 1158.83 -0.446794 -1.51134 0
M  V30 12517 C 1160.11 0.176892 -1.94798 0
M  V30 12518 C 1160.49 1.59229 -1.38598 0
M  V30 12519 O 1159.84 2.21097 -0.576905 0
M  V30 12520 C 1160.05 0.145 -3.48699 0
M  V30 12521 C 1161.39 0.345917 -4.23189 0
M  V30 12522 O 1162.42 0.222691 -3.55503 0
M  V30 12523 O 1161.28 0.592112 -5.43283 0
M  V30 12524 H 1158.37 0.12486 -0.81752 0
M  V30 12525 H 1160.92 -0.505453 -1.61998 0
M  V30 12526 H 1159.69 -0.844156 -3.82086 0
M  V30 12527 H 1159.31 0.869851 -3.87968 0
M  V30 12528 N 1160.31 1.56586 -0.178487 0
M  V30 12529 C 1161.24 2.155 0.780543 0
M  V30 12530 C 1162.25 1.11244 1.18864 0
M  V30 12531 O 1163.44 1.38403 1.12725 0
M  V30 12532 C 1160.54 2.68867 2.0631 0
M  V30 12533 C 1159.72 3.97854 1.81744 0
M  V30 12534 C 1158.77 4.36213 2.94287 0
M  V30 12535 O 1157.8 5.03954 2.64612 0
M  V30 12536 N 1159 3.98356 4.22247 0
M  V30 12537 H 1161.77 2.98419 0.276836 0
M  V30 12538 H 1159.33 1.61899 0.00405241 0
M  V30 12539 H 1161.32 2.91522 2.80708 0
M  V30 12540 H 1159.89 1.90496 2.47851 0
M  V30 12541 H 1159.11 3.83502 0.912127 0
M  V30 12542 H 1160.4 4.82083 1.62707 0
M  V30 12543 H 1159.8 3.43835 4.49215 0
M  V30 12544 H 1158.35 4.25998 4.93325 0
M  V30 12545 N 1161.79 -0.095206 1.57312 0
M  V30 12546 C 1163.2 -0.449411 1.53142 0
M  V30 12547 C 1163.4 -1.80523 0.895187 0
M  V30 12548 O 1162.46 -2.47746 0.487649 0
M  V30 12549 C 1163.77 -0.412002 2.97864 0
M  V30 12550 C 1165.32 -0.493866 3.09079 0
M  V30 12551 C 1165.79 -0.486606 4.55408 0
M  V30 12552 N 1167.29 -0.547363 4.59955 0
M  V30 12553 C 1168.02 -0.563582 5.70624 0
M  V30 12554 N 1167.52 -0.536015 6.90723 0
M  V30 12555 N 1169.31 -0.608385 5.58798 0
M  V30 12556 H 1161.46 0.792869 1.97047 0
M  V30 12557 H 1163.72 0.295106 0.900898 0
M  V30 12558 H 1163.43 0.517064 3.47878 0
M  V30 12559 H 1163.3 -1.23102 3.56547 0
M  V30 12560 H 1165.69 -1.41335 2.59053 0
M  V30 12561 H 1165.77 0.353286 2.53349 0
M  V30 12562 H 1165.42 0.428935 5.06086 0
M  V30 12563 H 1165.35 -1.35097 5.08976 0
M  V30 12564 H 1167.84 -0.573867 3.73517 0
M  V30 12565 H 1168.15 -0.551671 7.70828 0
M  V30 12566 H 1166.49 -0.503064 6.93177 0
M  V30 12567 H 1169.69 -0.627451 4.63876 0
M  V30 12568 H 1169.86 -0.617556 6.45051 0
M  V30 12569 N 1163.26 -1.53291 -0.366026 0
M  V30 12570 C 1164.2 -1.7448 -1.47079 0
M  V30 12571 C 1165.18 -0.593147 -1.51395 0
M  V30 12572 O 1166.36 -0.825686 -1.69454 0
M  V30 12573 C 1163.49 -1.82319 -2.85443 0
M  V30 12574 C 1162.53 -3.04285 -2.98852 0
M  V30 12575 S 1163.37 -4.63812 -2.67653 0
M  V30 12576 C 1164.52 -4.74499 -4.08168 0
M  V30 12577 H 1164.75 -2.67911 -1.28884 0
M  V30 12578 H 1162.29 -1.43874 -0.560335 0
M  V30 12579 H 1164.25 -1.87521 -3.65166 0
M  V30 12580 H 1162.91 -0.899398 -3.00948 0
M  V30 12581 H 1162.1 -3.06379 -4.00185 0
M  V30 12582 H 1161.7 -2.97193 -2.27051 0
M  V30 12583 H 1163.99 -4.54527 -5.02406 0
M  V30 12584 H 1164.94 -5.76558 -4.1108 0
M  V30 12585 H 1165.34 -4.03136 -3.95147 0
M  V30 12586 N 1164.74 0.6258 -1.44643 0
M  V30 12587 C 1165.67 1.74858 -1.54748 0
M  V30 12588 C 1166.65 1.65327 -0.400138 0
M  V30 12589 O 1167.84 1.84005 -0.620948 0
M  V30 12590 C 1164.97 3.13408 -1.49643 0
M  V30 12591 C 1163.92 3.37733 -2.62908 0
M  V30 12592 C 1163.25 4.76367 -2.42855 0
M  V30 12593 C 1164.55 3.29771 -4.05029 0
M  V30 12594 H 1166.24 1.66658 -2.48728 0
M  V30 12595 H 1163.79 0.800363 -1.19709 0
M  V30 12596 H 1165.74 3.91735 -1.55312 0
M  V30 12597 H 1164.47 3.22404 -0.521824 0
M  V30 12598 H 1163.12 2.61788 -2.56637 0
M  V30 12599 H 1162.77 4.82074 -1.43575 0
M  V30 12600 H 1162.47 4.936 -3.18799 0
M  V30 12601 H 1164 5.56917 -2.50351 0
M  V30 12602 H 1165.41 3.97996 -4.12641 0
M  V30 12603 H 1163.81 3.58538 -4.81218 0
M  V30 12604 H 1164.88 2.27493 -4.28223 0
M  V30 12605 N 1166.22 1.31629 0.866686 0
M  V30 12606 C 1167.47 1.21263 1.61678 0
M  V30 12607 C 1167.79 -0.228562 1.93656 0
M  V30 12608 O 1167.06 -1.15014 1.58583 0
M  V30 12609 H 1165.64 0.445817 0.59938 0
M  V30 12610 H 1168.3 1.64998 1.03739 0
M  V30 12611 H 1167.4 1.78669 2.55898 0
M  V30 12612 N 1167.7 -1.08142 1.14644 0
M  V30 12613 C 1168.61 -2.18675 0.849607 0
M  V30 12614 C 1169.63 -1.73158 -0.170983 0
M  V30 12615 O 1170.8 -2.014 0.0011579 0
M  V30 12616 C 1167.87 -3.45084 0.334305 0
M  V30 12617 C 1166.93 -4.05213 1.41779 0
M  V30 12618 C 1166.16 -5.25588 0.926981 0
M  V30 12619 O 1166.38 -5.69934 -0.230522 0
M  V30 12620 O 1165.32 -5.77183 1.70715 0
M  V30 12621 H 1169.14 -2.46542 1.77343 0
M  V30 12622 H 1166.73 -1.17328 0.924911 0
M  V30 12623 H 1168.61 -4.21367 0.0529893 0
M  V30 12624 H 1167.29 -3.18788 -0.561755 0
M  V30 12625 H 1166.19 -3.30507 1.7526 0
M  V30 12626 H 1167.53 -4.35764 2.28847 0
M  V30 12627 N 1169.18 -0.941978 -1.26351 0
M  V30 12628 C 1170.09 -0.45833 -2.30079 0
M  V30 12629 C 1171.1 0.468084 -1.67586 0
M  V30 12630 O 1172.28 0.347418 -1.98381 0
M  V30 12631 C 1169.34 0.26797 -3.45663 0
M  V30 12632 C 1168.41 -0.695102 -4.23635 0
M  V30 12633 C 1167.64 -0.003369 -5.337 0
M  V30 12634 O 1167.86 1.21342 -5.57344 0
M  V30 12635 O 1166.8 -0.682476 -5.98018 0
M  V30 12636 H 1170.62 -1.31998 -2.73514 0
M  V30 12637 H 1168.21 -0.707897 -1.31564 0
M  V30 12638 H 1170.09 0.677061 -4.15925 0
M  V30 12639 H 1168.76 1.105 -3.04256 0
M  V30 12640 H 1167.67 -1.15415 -3.55851 0
M  V30 12641 H 1169 -1.49977 -4.68794 0
M  V30 12642 N 1170.66 1.40747 -0.709091 0
M  V30 12643 C 1171.57 2.3454 -0.0532205 0
M  V30 12644 C 1172.58 1.56956 0.751057 0
M  V30 12645 O 1173.76 1.89375 0.685509 0
M  V30 12646 C 1170.82 3.35809 0.862157 0
M  V30 12647 C 1169.88 4.29273 0.0485632 0
M  V30 12648 C 1169.12 5.25705 0.920345 0
M  V30 12649 O 1169.34 5.27933 2.15969 0
M  V30 12650 O 1168.27 6.00806 0.3628 0
M  V30 12651 H 1172.1 2.92232 -0.826698 0
M  V30 12652 H 1169.68 1.4183 -0.469519 0
M  V30 12653 H 1171.57 3.97931 1.38668 0
M  V30 12654 H 1170.24 2.8054 1.61489 0
M  V30 12655 H 1169.15 3.70456 -0.520873 0
M  V30 12656 H 1170.48 4.87676 -0.665807 0
M  V30 12657 N 1172.13 0.454803 1.50895 0
M  V30 12658 C 1173.04 -0.353495 2.31921 0
M  V30 12659 C 1174.06 -1.01136 1.41589 0
M  V30 12660 O 1175.24 -1.00291 1.74653 0
M  V30 12661 C 1172.3 -1.43032 3.15821 0
M  V30 12662 C 1171.36 -0.790763 4.21954 0
M  V30 12663 C 1170.59 -1.81628 5.01843 0
M  V30 12664 O 1170.82 -3.04078 4.8259 0
M  V30 12665 O 1169.75 -1.39713 5.8546 0
M  V30 12666 H 1173.58 0.308463 3.02129 0
M  V30 12667 H 1171.16 0.216971 1.47816 0
M  V30 12668 H 1173.04 -2.05444 3.67927 0
M  V30 12669 H 1171.72 -2.07605 2.48358 0
M  V30 12670 H 1170.63 -0.128127 3.73881 0
M  V30 12671 H 1171.96 -0.188251 4.9184 0
M  V30 12672 N 1173.61 -1.56489 0.186789 0
M  V30 12673 C 1174.57 -2.17478 -0.723596 0
M  V30 12674 C 1175.57 -1.12698 -1.14699 0
M  V30 12675 O 1176.76 -1.38128 -1.06143 0
M  V30 12676 C 1173.9 -2.77015 -1.98685 0
M  V30 12677 H 1175.09 -2.99282 -0.192403 0
M  V30 12678 H 1172.64 -1.56174 -0.0628153 0
M  V30 12679 H 1173.38 -1.98987 -2.56076 0
M  V30 12680 H 1173.16 -3.53711 -1.69207 0
M  V30 12681 H 1174.65 -3.23872 -2.63622 0
M  V30 12682 N 1175.09 0.086862 -1.5736 0
M  V30 12683 C 1176.34 0.790008 -1.8678 0
M  V30 12684 C 1176.67 1.77977 -0.777042 0
M  V30 12685 O 1175.94 1.93317 0.21419 0
M  V30 12686 C 1176.23 1.51143 -3.26845 0
M  V30 12687 C 1176.08 0.539106 -4.46558 0
M  V30 12688 C 1177.4 2.46003 -3.64926 0
M  V30 12689 H 1174.52 0.285741 -0.679354 0
M  V30 12690 H 1177.16 0.0534655 -1.89925 0
M  V30 12691 H 1175.31 2.13928 -3.24295 0
M  V30 12692 H 1176.98 -0.0823679 -4.61226 0
M  V30 12693 H 1175.22 -0.146842 -4.33551 0
M  V30 12694 H 1175.9 1.0812 -5.41308 0
M  V30 12695 H 1178.37 1.93306 -3.68473 0
M  V30 12696 H 1177.25 2.93493 -4.63846 0
M  V30 12697 H 1177.51 3.30133 -2.94049 0
M  V30 12698 N 1176.57 1.53483 0.357892 0
M  V30 12699 C 1177.82 1.69701 1.09754 0
M  V30 12700 C 1178.14 0.455389 1.89608 0
M  V30 12701 O 1177.41 -0.530623 1.88577 0
M  V30 12702 H 1175.99 0.62562 0.408178 0
M  V30 12703 H 1178.65 1.90696 0.402641 0
M  V30 12704 H 1177.74 2.56154 1.78302 0
M  V30 12705 N 1178.05 -0.61812 1.44973 0
M  V30 12706 C 1178.96 -1.7579 1.55355 0
M  V30 12707 C 1179.97 -1.68384 0.438512 0
M  V30 12708 O 1181.15 -1.88928 0.697715 0
M  V30 12709 C 1178.21 -3.1222 1.50729 0
M  V30 12710 C 1177.27 -3.3116 2.73188 0
M  V30 12711 C 1176.51 -4.61082 2.68774 0
M  V30 12712 O 1176.73 -5.42728 1.75507 0
M  V30 12713 O 1175.66 -4.82506 3.59821 0
M  V30 12714 H 1179.49 -1.69983 2.51674 0
M  V30 12715 H 1177.07 -0.780934 1.27365 0
M  V30 12716 H 1178.96 -3.93524 1.5072 0
M  V30 12717 H 1177.63 -3.18541 0.575587 0
M  V30 12718 H 1176.54 -2.49485 2.78762 0
M  V30 12719 H 1177.87 -3.29709 3.65449 0
M  V30 12720 N 1179.52 -1.32087 -0.859693 0
M  V30 12721 C 1180.94 -1.10968 -1.14709 0
M  V30 12722 C 1181.14 0.113139 -2.01182 0
M  V30 12723 O 1180.2 0.799499 -2.39508 0
M  V30 12724 C 1181.51 -2.38657 -1.8293 0
M  V30 12725 C 1183.06 -2.44366 -1.95587 0
M  V30 12726 C 1183.53 -3.71963 -2.67222 0
M  V30 12727 N 1185.02 -3.72916 -2.7475 0
M  V30 12728 C 1185.76 -4.68346 -3.30816 0
M  V30 12729 N 1185.25 -5.74139 -3.87732 0
M  V30 12730 N 1187.05 -4.55851 -3.28872 0
M  V30 12731 H 1179.2 -2.10497 -0.283711 0
M  V30 12732 H 1181.46 -0.929108 -0.188315 0
M  V30 12733 H 1181.17 -3.2803 -1.26844 0
M  V30 12734 H 1181.04 -2.49236 -2.83128 0
M  V30 12735 H 1183.43 -1.55456 -2.50833 0
M  V30 12736 H 1183.51 -2.37744 -0.944001 0
M  V30 12737 H 1183.15 -4.61245 -2.1264 0
M  V30 12738 H 1183.08 -3.75855 -3.68837 0
M  V30 12739 H 1185.57 -2.96447 -2.34367 0
M  V30 12740 H 1185.89 -6.43021 -4.28654 0
M  V30 12741 H 1184.23 -5.779 -3.86078 0
M  V30 12742 H 1187.42 -3.72371 -2.83651 0
M  V30 12743 H 1187.6 -5.30398 -3.72266 0
M  V30 12744 N 1181 1.07532 -1.15215 0
M  V30 12745 C 1182.42 1.32183 -0.894411 0
M  V30 12746 C 1182.62 1.96188 0.459614 0
M  V30 12747 O 1181.67 2.22057 1.20195 0
M  V30 12748 C 1182.99 2.21473 -2.03397 0
M  V30 12749 C 1184.53 2.34927 -2.06829 0
M  V30 12750 C 1185.01 3.27564 -3.20103 0
M  V30 12751 N 1186.5 3.35144 -3.19738 0
M  V30 12752 C 1187.24 4.0688 -4.04025 0
M  V30 12753 N 1186.73 4.81246 -4.98371 0
M  V30 12754 N 1188.52 4.02802 -3.92055 0
M  V30 12755 H 1180.68 0.643732 -2.0241 0
M  V30 12756 H 1182.94 0.346272 -0.882496 0
M  V30 12757 H 1182.64 1.81701 -3.01127 0
M  V30 12758 H 1182.52 3.2199 -1.96475 0
M  V30 12759 H 1184.91 2.73953 -1.09699 0
M  V30 12760 H 1184.99 1.34121 -2.17819 0
M  V30 12761 H 1184.63 2.89258 -4.17483 0
M  V30 12762 H 1184.56 4.2832 -3.06349 0
M  V30 12763 H 1187.05 2.82135 -2.51412 0
M  V30 12764 H 1187.36 5.33472 -5.59131 0
M  V30 12765 H 1185.71 4.80268 -5.02362 0
M  V30 12766 H 1188.9 3.43816 -3.17661 0
M  V30 12767 H 1189.07 4.58443 -4.57967 0
M  V30 12768 N 1182.48 0.948665 1.2585 0
M  V30 12769 C 1183.73 0.595938 1.92695 0
M  V30 12770 C 1184.04 -0.870229 1.75175 0
M  V30 12771 O 1185.25 -1.33266 2.36543 0
M  V30 12772 C 1183.7 1.01511 3.45288 0
M  V30 12773 C 1183.31 2.50341 3.71528 0
M  V30 12774 C 1185.06 0.734635 4.18095 0
M  V30 12775 C 1182.96 2.8609 5.17597 0
M  V30 12776 H 1181.89 0.219171 0.721443 0
M  V30 12777 H 1184.54 1.15231 1.42807 0
M  V30 12778 H 1182.93 0.387201 3.94102 0
M  V30 12779 H 1184.1 3.18101 3.3339 0
M  V30 12780 H 1182.42 2.75797 3.11969 0
M  V30 12781 H 1185.01 0.977962 5.25681 0
M  V30 12782 H 1185.36 -0.328807 4.14999 0
M  V30 12783 H 1185.89 1.32262 3.75169 0
M  V30 12784 H 1182.63 3.91427 5.25799 0
M  V30 12785 H 1182.15 2.22999 5.56805 0
M  V30 12786 H 1183.83 2.74959 5.85668 0
M  V30 12787 N 1183.96 -1.40369 0.716545 0
M  V30 12788 C 1184.89 -2.33365 0.0793533 0
M  V30 12789 C 1185.87 -1.52943 -0.744482 0
M  V30 12790 O 1187.05 -1.81406 -0.693212 0
M  V30 12791 C 1184.18 -3.36928 -0.842429 0
M  V30 12792 C 1183.14 -4.2782 -0.124142 0
M  V30 12793 C 1182.46 -5.21928 -1.1617 0
M  V30 12794 C 1183.76 -5.12199 1.02224 0
M  V30 12795 H 1185.46 -2.86899 0.856115 0
M  V30 12796 H 1183 -1.37946 0.413138 0
M  V30 12797 H 1184.96 -4.00925 -1.29759 0
M  V30 12798 H 1183.68 -2.81791 -1.6511 0
M  V30 12799 H 1182.34 -3.65277 0.311201 0
M  V30 12800 H 1181.99 -4.63096 -1.96345 0
M  V30 12801 H 1181.69 -5.83582 -0.685978 0
M  V30 12802 H 1183.21 -5.88802 -1.61694 0
M  V30 12803 H 1184.63 -5.69644 0.646399 0
M  V30 12804 H 1183.02 -5.82901 1.4264 0
M  V30 12805 H 1184.09 -4.4812 1.85246 0
M  V30 12806 N 1185.44 -0.462799 -1.50652 0
M  V30 12807 C 1186.68 0.0948568 -2.01877 0
M  V30 12808 C 1187.01 1.4096 -1.34741 0
M  V30 12809 O 1186.28 1.89671 -0.49006 0
M  V30 12810 H 1184.86 0.0380453 -0.746031 0
M  V30 12811 H 1187.52 -0.611327 -1.85064 0
M  V30 12812 H 1186.61 0.252378 -3.11078 0
M  V30 12813 N 1186.91 1.56388 -0.195085 0
M  V30 12814 C 1187.86 2.19091 0.725793 0
M  V30 12815 C 1188.83 1.13814 1.20977 0
M  V30 12816 O 1190.02 1.42065 1.27366 0
M  V30 12817 C 1187.16 2.85427 1.93973 0
M  V30 12818 C 1186.27 4.05229 1.49712 0
M  V30 12819 C 1185.4 4.59421 2.66656 0
M  V30 12820 C 1184.44 5.71581 2.19001 0
M  V30 12821 N 1183.58 6.2018 3.29123 0
M  V30 12822 H 1188.42 2.97429 0.184334 0
M  V30 12823 H 1185.96 1.46886 0.0792434 0
M  V30 12824 H 1187.92 3.22057 2.65208 0
M  V30 12825 H 1186.55 2.09652 2.4545 0
M  V30 12826 H 1185.6 3.74261 0.680641 0
M  V30 12827 H 1186.91 4.8635 1.10749 0
M  V30 12828 H 1186.06 4.98357 3.46014 0
M  V30 12829 H 1184.8 3.77407 3.08893 0
M  V30 12830 H 1183.81 5.32174 1.38097 0
M  V30 12831 H 1185.03 6.55413 1.77795 0
M  V30 12832 H 1182.98 5.41088 3.70891 0
M  V30 12833 H 1182.9 6.96353 2.94328 0
M  V30 12834 H 1184.16 6.63769 4.08694 0
M  V30 12835 N 1188.39 -0.0785156 1.57404 0
M  V30 12836 C 1189.3 -1.11203 2.0657 0
M  V30 12837 C 1190.32 -1.42822 0.993872 0
M  V30 12838 O 1191.49 -1.53133 1.30814 0
M  V30 12839 C 1188.56 -2.40812 2.4942 0
M  V30 12840 C 1187.62 -2.16225 3.70871 0
M  V30 12841 C 1186.85 -3.39654 4.11668 0
M  V30 12842 O 1187.08 -4.48521 3.524 0
M  V30 12843 O 1186.01 -3.28263 5.04507 0
M  V30 12844 H 1189.84 -0.724381 2.94935 0
M  V30 12845 H 1187.42 -0.292184 1.46515 0
M  V30 12846 H 1189.3 -3.17101 2.77534 0
M  V30 12847 H 1187.98 -2.7897 1.64187 0
M  V30 12848 H 1186.89 -1.37663 3.4785 0
M  V30 12849 H 1188.22 -1.82951 4.56935 0
M  V30 12850 N 1189.87 -1.5367 -0.349747 0
M  V30 12851 C 1191.12 -1.70281 -1.08853 0
M  V30 12852 C 1191.44 -0.465438 -1.89364 0
M  V30 12853 O 1190.71 0.520615 -1.88856 0
M  V30 12854 H 1189.29 -0.627775 -0.404854 0
M  V30 12855 H 1191.95 -1.90906 -0.392523 0
M  V30 12856 H 1191.05 -2.57096 -1.76941 0
M  V30 12857 N 1191.35 0.610423 -1.45298 0
M  V30 12858 C 1192.31 1.70324 -1.5337 0
M  V30 12859 C 1193.31 1.55393 -0.413492 0
M  V30 12860 O 1194.5 1.60512 -0.676872 0
M  V30 12861 C 1191.63 3.09572 -1.42752 0
M  V30 12862 H 1192.83 1.64535 -2.50736 0
M  V30 12863 H 1190.38 0.825906 -1.32697 0
M  V30 12864 H 1191.11 3.2094 -0.465601 0
M  V30 12865 H 1190.9 3.21817 -2.24 0
M  V30 12866 H 1192.39 3.89178 -1.51427 0
M  V30 12867 N 1192.83 1.32541 0.852676 0
M  V30 12868 C 1194.05 1.2622 1.6394 0
M  V30 12869 C 1194.47 -0.169455 1.88038 0
M  V30 12870 O 1193.83 -1.10719 1.45078 0
M  V30 12871 C 1193.88 2.02062 2.99755 0
M  V30 12872 O 1193.6 3.39641 2.76723 0
M  V30 12873 C 1195.1 2.02787 3.94198 0
M  V30 12874 H 1192.32 0.435405 0.510552 0
M  V30 12875 H 1194.86 1.74696 1.06309 0
M  V30 12876 H 1193.02 1.57303 3.54026 0
M  V30 12877 H 1193.43 3.78484 3.63111 0
M  V30 12878 H 1194.91 2.60333 4.86755 0
M  V30 12879 H 1195.38 1.01464 4.27319 0
M  V30 12880 H 1195.99 2.47504 3.45864 0
M  V30 12881 N 1194.3 -1.0692 1.15784 0
M  V30 12882 C 1195.23 -2.16216 0.881649 0
M  V30 12883 C 1196.22 -1.69253 -0.16951 0
M  V30 12884 O 1197.4 -1.94186 -0.0229511 0
M  V30 12885 C 1194.53 -3.4527 0.374982 0
M  V30 12886 C 1193.48 -4.05706 1.36332 0
M  V30 12887 C 1192.81 -5.29894 0.715317 0
M  V30 12888 C 1194.11 -4.45224 2.7308 0
M  V30 12889 H 1195.8 -2.39577 1.79563 0
M  V30 12890 H 1193.35 -1.15141 0.864784 0
M  V30 12891 H 1195.3 -4.2106 0.169279 0
M  V30 12892 H 1194.03 -3.21508 -0.574485 0
M  V30 12893 H 1192.69 -3.31965 1.55546 0
M  V30 12894 H 1192.33 -5.02425 -0.240436 0
M  V30 12895 H 1192.03 -5.71287 1.37494 0
M  V30 12896 H 1193.56 -6.08386 0.519489 0
M  V30 12897 H 1194.97 -5.12124 2.57686 0
M  V30 12898 H 1193.37 -4.97583 3.35457 0
M  V30 12899 H 1194.44 -3.56384 3.28813 0
M  V30 12900 N 1195.78 -0.955326 -1.25345 0
M  V30 12901 C 1196.69 -0.482707 -2.2958 0
M  V30 12902 C 1197.71 0.450283 -1.68073 0
M  V30 12903 O 1198.88 0.326358 -1.98738 0
M  V30 12904 C 1195.95 0.231293 -3.45928 0
M  V30 12905 C 1195.01 -0.739995 -4.22874 0
M  V30 12906 C 1194.24 -0.0599748 -5.33666 0
M  V30 12907 O 1194.47 1.15423 -5.586 0
M  V30 12908 O 1193.4 -0.745865 -5.97261 0
M  V30 12909 H 1197.23 -1.34892 -2.72099 0
M  V30 12910 H 1194.81 -0.721812 -1.30806 0
M  V30 12911 H 1196.69 0.632908 -4.1662 0
M  V30 12912 H 1195.37 1.07267 -3.0541 0
M  V30 12913 H 1194.28 -1.19183 -3.54607 0
M  V30 12914 H 1195.61 -1.54941 -4.67177 0
M  V30 12915 N 1197.26 1.39987 -0.723979 0
M  V30 12916 C 1198.67 1.83606 -0.338461 0
M  V30 12917 C 1199.02 1.6051 1.12831 0
M  V30 12918 O 1198.15 1.09041 1.8692 0
M  V30 12919 C 1198.74 3.33308 -0.607533 0
M  V30 12920 C 1197.3 3.75389 -0.275632 0
M  V30 12921 C 1196.45 2.6311 -0.875699 0
M  V30 12922 H 1199.4 1.29135 -0.922483 0
M  V30 12923 H 1199.42 3.80297 0.124424 0
M  V30 12924 H 1198.93 3.50087 -1.67514 0
M  V30 12925 H 1197.03 3.64203 0.786579 0
M  V30 12926 H 1197.15 4.73185 -0.750492 0
M  V30 12927 H 1195.51 2.5289 -0.303122 0
M  V30 12928 H 1196.29 2.82698 -1.94774 0
M  V30 12929 N 1198.74 0.470782 1.50404 0
M  V30 12930 C 1199.69 -0.32355 2.28521 0
M  V30 12931 C 1200.66 -0.987472 1.3356 0
M  V30 12932 O 1201.84 -0.999969 1.62497 0
M  V30 12933 C 1198.98 -1.39977 3.15437 0
M  V30 12934 C 1198.09 -0.750656 4.25428 0
M  V30 12935 C 1197.23 -1.80474 4.99602 0
M  V30 12936 C 1196.27 -1.13586 6.01469 0
M  V30 12937 N 1195.41 -2.13279 6.68922 0
M  V30 12938 H 1200.25 0.348902 2.9595 0
M  V30 12939 H 1197.78 0.183908 1.45946 0
M  V30 12940 H 1199.74 -2.0354 3.6418 0
M  V30 12941 H 1198.37 -2.04139 2.50054 0
M  V30 12942 H 1197.42 -0.00247092 3.804 0
M  V30 12943 H 1198.73 -0.222638 4.98303 0
M  V30 12944 H 1197.89 -2.51619 5.52062 0
M  V30 12945 H 1196.63 -2.36657 4.26433 0
M  V30 12946 H 1195.63 -0.410042 5.48269 0
M  V30 12947 H 1196.86 -0.580935 6.76611 0
M  V30 12948 H 1194.8 -2.68479 5.98544 0
M  V30 12949 H 1194.72 -1.65461 7.37671 0
M  V30 12950 H 1195.99 -2.83804 7.26 0
M  V30 12951 N 1200.22 -1.56282 0.203376 0
M  V30 12952 C 1201.15 -2.16714 -0.74616 0
M  V30 12953 C 1202.16 -1.13121 -1.17079 0
M  V30 12954 O 1203.35 -1.40179 -1.10509 0
M  V30 12955 C 1200.45 -2.72115 -2.02007 0
M  V30 12956 C 1199.62 -4.00695 -1.75391 0
M  V30 12957 C 1198.68 -4.40839 -2.8731 0
M  V30 12958 O 1197.71 -5.081 -2.56561 0
M  V30 12959 N 1198.91 -4.05024 -4.15856 0
M  V30 12960 H 1201.68 -2.98821 -0.229326 0
M  V30 12961 H 1199.24 -1.61885 0.0217049 0
M  V30 12962 H 1201.23 -2.95951 -2.76035 0
M  V30 12963 H 1199.8 -1.94415 -2.44789 0
M  V30 12964 H 1199.02 -3.84905 -0.851 0
M  V30 12965 H 1200.31 -4.8461 -1.55017 0
M  V30 12966 H 1199.71 -3.50938 -4.43688 0
M  V30 12967 H 1198.26 -4.33792 -4.86485 0
M  V30 12968 N 1201.7 0.070167 -1.57444 0
M  V30 12969 C 1202.63 1.10996 -2.0053 0
M  V30 12970 C 1203.64 1.3489 -0.91151 0
M  V30 12971 O 1204.83 1.33102 -1.18938 0
M  V30 12972 C 1201.93 2.46053 -2.33048 0
M  V30 12973 C 1201.1 2.42092 -3.64294 0
M  V30 12974 C 1200.16 3.5927 -3.84463 0
M  V30 12975 O 1199.19 3.40625 -4.5603 0
M  V30 12976 N 1200.39 4.79677 -3.26941 0
M  V30 12977 H 1203.15 0.743029 -2.90343 0
M  V30 12978 H 1200.72 0.258794 -1.59818 0
M  V30 12979 H 1202.71 3.23089 -2.43712 0
M  V30 12980 H 1201.28 2.74742 -1.49116 0
M  V30 12981 H 1200.5 1.5043 -3.64368 0
M  V30 12982 H 1201.79 2.36548 -4.50469 0
M  V30 12983 H 1201.18 4.97729 -2.68855 0
M  V30 12984 H 1199.74 5.54219 -3.43051 0
M  V30 12985 N 1203.17 1.53854 0.341593 0
M  V30 12986 C 1204.59 1.44161 0.684821 0
M  V30 12987 C 1204.79 0.599929 1.92362 0
M  V30 12988 O 1203.85 0.0916771 2.52334 0
M  V30 12989 C 1205.16 2.87668 0.875637 0
M  V30 12990 C 1206.71 2.97455 0.974131 0
M  V30 12991 C 1207.18 4.42075 1.19725 0
M  V30 12992 N 1208.67 4.45609 1.2644 0
M  V30 12993 C 1209.41 5.54643 1.45459 0
M  V30 12994 N 1208.9 6.7368 1.61637 0
M  V30 12995 N 1210.7 5.4226 1.48022 0
M  V30 12996 H 1202.85 2.07069 -0.472883 0
M  V30 12997 H 1205.11 0.936114 -0.149648 0
M  V30 12998 H 1204.82 3.51681 0.0368595 0
M  V30 12999 H 1204.69 3.32731 1.7768 0
M  V30 13000 H 1207.08 2.33582 1.80343 0
M  V30 13001 H 1207.16 2.55751 0.0498282 0
M  V30 13002 H 1206.8 5.06529 0.372872 0
M  V30 13003 H 1206.73 4.81372 2.13515 0
M  V30 13004 H 1209.22 3.59831 1.15455 0
M  V30 13005 H 1209.54 7.52541 1.7579 0
M  V30 13006 H 1207.88 6.76622 1.5877 0
M  V30 13007 H 1211.07 4.48221 1.34966 0
M  V30 13008 H 1211.25 6.27293 1.62502 0
M  V30 13009 N 1204.65 -0.602709 1.4562 0
M  V30 13010 C 1205.9 -1.35769 1.49163 0
M  V30 13011 C 1206.21 -1.95102 0.139485 0
M  V30 13012 O 1207.42 -2.71449 0.0525919 0
M  V30 13013 C 1205.88 -2.45959 2.62739 0
M  V30 13014 C 1205.48 -1.93017 4.04288 0
M  V30 13015 C 1207.23 -3.22926 2.75534 0
M  V30 13016 C 1205.13 -3.00718 5.09237 0
M  V30 13017 H 1204.06 -0.510317 0.555061 0
M  V30 13018 H 1206.72 -0.645434 1.71774 0
M  V30 13019 H 1205.1 -3.19892 2.3342 0
M  V30 13020 H 1206.27 -1.2576 4.43307 0
M  V30 13021 H 1204.59 -1.2878 3.95986 0
M  V30 13022 H 1207.18 -4.03267 3.51112 0
M  V30 13023 H 1207.53 -3.74243 1.82339 0
M  V30 13024 H 1208.06 -2.56095 3.04402 0
M  V30 13025 H 1204.8 -2.54312 6.04157 0
M  V30 13026 H 1204.32 -3.66526 4.74783 0
M  V30 13027 H 1206 -3.65016 5.34202 0
M  V30 13028 N 1206.13 -1.32992 -0.845635 0
M  V30 13029 C 1207.06 -1.25301 -1.97033 0
M  V30 13030 C 1208.04 -0.134966 -1.69564 0
M  V30 13031 O 1209.23 -0.323629 -1.91484 0
M  V30 13032 C 1206.36 -0.984551 -3.33052 0
M  V30 13033 C 1205.31 -2.06481 -3.749 0
M  V30 13034 C 1204.64 -1.6486 -5.08651 0
M  V30 13035 C 1205.94 -3.48083 -3.89404 0
M  V30 13036 H 1207.63 -2.194 -2.03725 0
M  V30 13037 H 1205.18 -1.05621 -0.978783 0
M  V30 13038 H 1207.13 -0.917269 -4.11296 0
M  V30 13039 H 1205.85 -0.00793116 -3.26599 0
M  V30 13040 H 1204.51 -2.1224 -2.98915 0
M  V30 13041 H 1204.16 -0.659183 -4.98662 0
M  V30 13042 H 1203.86 -2.37145 -5.37621 0
M  V30 13043 H 1205.38 -1.59585 -5.89377 0
M  V30 13044 H 1206.8 -3.44863 -4.57976 0
M  V30 13045 H 1205.19 -4.18796 -4.29802 0
M  V30 13046 H 1206.26 -3.87084 -2.92051 0
M  V30 13047 N 1207.61 1.06304 -1.1635 0
M  V30 13048 C 1208.86 1.78747 -0.943074 0
M  V30 13049 C 1209.18 1.87646 0.530483 0
M  V30 13050 O 1208.45 1.38506 1.38538 0
M  V30 13051 H 1207.03 0.662072 -0.345932 0
M  V30 13052 H 1209.69 1.28413 -1.46615 0
M  V30 13053 H 1208.78 2.80828 -1.3617 0
M  V30 13054 N 1209.09 0.96196 1.24836 0
M  V30 13055 C 1210 0.494876 2.29321 0
M  V30 13056 C 1211.01 -0.441363 1.68309 0
M  V30 13057 O 1212.19 -0.315814 1.98908 0
M  V30 13058 C 1209.25 -0.212944 3.46045 0
M  V30 13059 C 1208.31 0.762411 4.22476 0
M  V30 13060 C 1207.55 0.0882756 5.33627 0
M  V30 13061 O 1207.77 -1.12459 5.59204 0
M  V30 13062 O 1206.7 0.777529 5.96857 0
M  V30 13063 H 1210.53 1.36333 2.7138 0
M  V30 13064 H 1208.11 0.728738 1.30421 0
M  V30 13065 H 1210 -0.610805 4.1695 0
M  V30 13066 H 1208.67 -1.05645 3.05975 0
M  V30 13067 H 1207.58 1.21062 3.5397 0
M  V30 13068 H 1208.91 1.57416 4.66349 0
M  V30 13069 N 1210.56 -1.39601 0.731392 0
M  V30 13070 C 1211.47 -2.34425 0.090527 0
M  V30 13071 C 1212.49 -1.58131 -0.725992 0
M  V30 13072 O 1213.67 -1.90441 -0.655294 0
M  V30 13073 C 1210.73 -3.37138 -0.808624 0
M  V30 13074 C 1209.79 -4.29295 0.0197365 0
M  V30 13075 C 1209.02 -5.27102 -0.836593 0
M  V30 13076 O 1209.25 -5.31302 -2.07543 0
M  V30 13077 O 1208.18 -6.01307 -0.267172 0
M  V30 13078 H 1212.01 -2.9088 0.873084 0
M  V30 13079 H 1209.59 -1.41066 0.492024 0
M  V30 13080 H 1211.47 -4.00087 -1.32319 0
M  V30 13081 H 1210.15 -2.83074 -1.57006 0
M  V30 13082 H 1209.06 -3.69581 0.579744 0
M  V30 13083 H 1210.39 -4.86555 0.743308 0
M  V30 13084 N 1212.04 -0.478751 -1.50152 0
M  V30 13085 C 1213.27 0.0732929 -2.0727 0
M  V30 13086 C 1213.69 1.32066 -1.33941 0
M  V30 13087 O 1213.05 1.7707 -0.389367 0
M  V30 13088 C 1213.1 0.332528 -3.59064 0
M  V30 13089 O 1212.2 1.41158 -3.8749 0
M  V30 13090 H 1211.54 -0.0163684 -0.663798 0
M  V30 13091 H 1214.07 -0.671993 -1.9325 0
M  V30 13092 H 1214.08 0.570735 -4.03988 0
M  V30 13093 H 1212.76 -0.578934 -4.11851 0
M  V30 13094 H 1211.34 1.16008 -3.54396 0
M  V30 13095 N 1213.52 1.56172 -0.211661 0
M  V30 13096 C 1214.77 1.97648 0.421871 0
M  V30 13097 C 1215.09 1.10026 1.60995 0
M  V30 13098 O 1214.36 0.175109 1.95116 0
M  V30 13099 H 1212.94 0.729914 0.158852 0
M  V30 13100 H 1215.6 1.92542 -0.302254 0
M  V30 13101 H 1214.7 3.02834 0.754868 0
M  V30 13102 N 1215 -0.0618163 1.57479 0
M  V30 13103 C 1215.96 -1.05684 2.0338 0
M  V30 13104 C 1216.96 -1.31006 0.932423 0
M  V30 13105 O 1218.15 -1.26559 1.19702 0
M  V30 13106 C 1215.28 -2.39805 2.42294 0
M  V30 13107 H 1216.48 -0.661006 2.92525 0
M  V30 13108 H 1214.03 -0.307814 1.53239 0
M  V30 13109 H 1214.76 -2.84201 1.56207 0
M  V30 13110 H 1214.55 -2.22764 3.22674 0
M  V30 13111 H 1216.04 -3.11307 2.78349 0
M  V30 13112 N 1216.48 -1.54033 -0.333429 0
M  V30 13113 C 1217.89 -1.63107 -0.908455 0
M  V30 13114 C 1218.24 -0.518823 -1.89216 0
M  V30 13115 O 1217.36 0.34985 -2.13553 0
M  V30 13116 C 1217.96 -2.95657 -1.65447 0
M  V30 13117 C 1216.52 -3.0696 -2.17836 0
M  V30 13118 C 1215.66 -2.58617 -1.00063 0
M  V30 13119 H 1218.62 -1.58309 -0.11128 0
M  V30 13120 H 1218.64 -2.85263 -2.51804 0
M  V30 13121 H 1218.15 -3.76588 -0.938263 0
M  V30 13122 H 1216.25 -2.30683 -2.92602 0
M  V30 13123 H 1216.36 -4.12599 -2.43513 0
M  V30 13124 H 1214.73 -2.1427 -1.37697 0
M  V30 13125 H 1215.51 -3.41996 -0.298901 0
M  V30 13126 N 1217.95 0.594978 -1.45938 0
M  V30 13127 C 1219.18 1.38482 -1.54394 0
M  V30 13128 C 1219.6 1.87222 -0.181563 0
M  V30 13129 O 1218.96 1.60869 0.836119 0
M  V30 13130 C 1219.01 2.55676 -2.54287 0
M  V30 13131 O 1218.11 3.5672 -2.06941 0
M  V30 13132 H 1217.46 0.412918 -0.519995 0
M  V30 13133 H 1219.99 0.722899 -1.91404 0
M  V30 13134 H 1220 3.02756 -2.73501 0
M  V30 13135 H 1218.67 2.19552 -3.53228 0
M  V30 13136 H 1217.25 3.16204 -1.97661 0
M  V30 13137 N 1219.43 1.33438 0.838571 0
M  V30 13138 C 1220.84 1.22366 1.41009 0
M  V30 13139 C 1221.19 -0.157317 1.95568 0
M  V30 13140 O 1220.32 -1.05692 1.88834 0
M  V30 13141 C 1220.91 2.21542 2.56329 0
M  V30 13142 C 1219.47 2.14309 3.09433 0
M  V30 13143 C 1218.62 2.09012 1.82235 0
M  V30 13144 H 1221.57 1.45032 0.64431 0
M  V30 13145 H 1221.59 1.82332 3.33969 0
M  V30 13146 H 1221.1 3.22042 2.16589 0
M  V30 13147 H 1219.21 1.17113 3.53717 0
M  V30 13148 H 1219.32 3.04866 3.69586 0
M  V30 13149 H 1217.68 1.54492 2.02495 0
M  V30 13150 H 1218.47 3.11319 1.4469 0
M  V30 13151 N 1220.91 -1.05686 1.16912 0
M  V30 13152 C 1222.14 -1.82821 0.979348 0
M  V30 13153 C 1222.56 -1.82196 -0.467575 0
M  V30 13154 O 1221.92 -1.22727 -1.33445 0
M  V30 13155 C 1221.97 -3.2705 1.51891 0
M  V30 13156 O 1221.07 -4.05899 0.729341 0
M  V30 13157 H 1220.41 -0.565455 0.348076 0
M  V30 13158 H 1222.94 -1.33211 1.55293 0
M  V30 13159 H 1222.95 -3.77859 1.53904 0
M  V30 13160 H 1221.63 -3.26819 2.5722 0
M  V30 13161 H 1220.2 -3.64646 0.780221 0
M  V30 13162 N 1222.39 -0.968567 -1.24324 0
M  V30 13163 C 1223.8 -0.66964 -1.74278 0
M  V30 13164 C 1224.15 0.81461 -1.7849 0
M  V30 13165 O 1223.28 1.63736 -1.4149 0
M  V30 13166 C 1223.87 -1.20885 -3.165 0
M  V30 13167 C 1222.43 -0.959808 -3.63957 0
M  V30 13168 C 1221.58 -1.34365 -2.42573 0
M  V30 13169 H 1224.53 -1.14379 -1.10015 0
M  V30 13170 H 1224.55 -0.57555 -3.76122 0
M  V30 13171 H 1224.06 -2.28912 -3.13402 0
M  V30 13172 H 1222.16 0.104894 -3.72452 0
M  V30 13173 H 1222.27 -1.60606 -4.51378 0
M  V30 13174 H 1220.64 -0.762039 -2.43033 0
M  V30 13175 H 1221.42 -2.43343 -2.42155 0
M  V30 13176 N 1223.87 1.39211 -0.738786 0
M  V30 13177 C 1224.8 2.29117 -0.0616489 0
M  V30 13178 C 1225.81 1.47008 0.699462 0
M  V30 13179 O 1227 1.70041 0.542998 0
M  V30 13180 C 1224.1 3.25692 0.936893 0
M  V30 13181 C 1223.27 4.3676 0.236515 0
M  V30 13182 C 1222.33 5.1362 1.1437 0
M  V30 13183 O 1221.36 5.65816 0.619762 0
M  V30 13184 N 1222.56 5.25184 2.4731 0
M  V30 13185 H 1225.33 2.8787 -0.833711 0
M  V30 13186 H 1222.89 1.50832 -0.588323 0
M  V30 13187 H 1224.88 3.73987 1.54648 0
M  V30 13188 H 1223.45 2.67943 1.61014 0
M  V30 13189 H 1222.67 3.90293 -0.553594 0
M  V30 13190 H 1223.96 5.08192 -0.248707 0
M  V30 13191 H 1223.35 4.84302 2.92349 0
M  V30 13192 H 1221.91 5.76905 3.03355 0
M  V30 13193 N 1225.34 0.486708 1.49896 0
M  V30 13194 C 1226.29 -0.299294 2.28851 0
M  V30 13195 C 1227.26 -0.973251 1.346 0
M  V30 13196 O 1228.45 -0.982678 1.63548 0
M  V30 13197 C 1225.59 -1.36624 3.16904 0
M  V30 13198 C 1224.7 -0.705492 4.262 0
M  V30 13199 C 1223.83 -1.75165 5.01488 0
M  V30 13200 C 1222.87 -1.072 6.0264 0
M  V30 13201 N 1222.01 -2.06172 6.71147 0
M  V30 13202 H 1226.85 0.380272 2.95564 0
M  V30 13203 H 1224.39 0.199377 1.45743 0
M  V30 13204 H 1226.35 -1.99666 3.66319 0
M  V30 13205 H 1224.98 -2.01476 2.52205 0
M  V30 13206 H 1224.03 0.0378757 3.80381 0
M  V30 13207 H 1225.34 -0.169774 4.98511 0
M  V30 13208 H 1224.49 -2.45749 5.547 0
M  V30 13209 H 1223.23 -2.3212 4.28919 0
M  V30 13210 H 1222.24 -0.351868 5.48673 0
M  V30 13211 H 1223.46 -0.509139 6.77189 0
M  V30 13212 H 1221.41 -2.62115 6.01358 0
M  V30 13213 H 1221.33 -1.57627 7.39385 0
M  V30 13214 H 1222.59 -2.76088 7.28969 0
M  V30 13215 N 1226.82 -1.56058 0.219941 0
M  V30 13216 C 1227.77 -2.16853 -0.704185 0
M  V30 13217 C 1228.76 -1.11639 -1.15869 0
M  V30 13218 O 1229.95 -1.37632 -1.11295 0
M  V30 13219 C 1227.08 -2.85073 -1.9128 0
M  V30 13220 C 1226.16 -3.9751 -1.47805 0
M  V30 13221 N 1226.56 -5.00121 -0.755792 0
M  V30 13222 C 1224.85 -4.0957 -1.76546 0
M  V30 13223 C 1225.55 -5.79241 -0.534332 0
M  V30 13224 N 1224.53 -5.32549 -1.09055 0
M  V30 13225 H 1228.33 -2.93547 -0.143914 0
M  V30 13226 H 1225.85 -1.62386 0.021133 0
M  V30 13227 H 1227.84 -3.27037 -2.58558 0
M  V30 13228 H 1226.5 -2.09874 -2.47756 0
M  V30 13229 H 1227.51 -5.16285 -0.408647 0
M  V30 13230 H 1224.19 -3.45521 -2.34353 0
M  V30 13231 H 1225.58 -6.71888 0.0404032 0
M  V30 13232 N 1228.3 0.053464 -1.57509 0
M  V30 13233 C 1229.55 0.747622 -1.87763 0
M  V30 13234 C 1229.87 1.77178 -0.814433 0
M  V30 13235 O 1229.14 1.95287 0.154862 0
M  V30 13236 H 1227.72 0.279109 -0.692898 0
M  V30 13237 H 1230.38 0.0252006 -1.94884 0
M  V30 13238 H 1229.48 1.25244 -2.85868 0
M  V30 13239 N 1229.78 1.54207 0.325255 0
M  V30 13240 C 1231 1.7661 1.08736 0
M  V30 13241 C 1231.43 0.512449 1.80985 0
M  V30 13242 O 1230.79 -0.535913 1.73198 0
M  V30 13243 C 1230.84 2.95797 2.06243 0
M  V30 13244 O 1229.94 2.67225 3.14109 0
M  V30 13245 H 1229.28 0.585282 0.313593 0
M  V30 13246 H 1231.81 2.01225 0.370066 0
M  V30 13247 H 1231.82 3.23097 2.49143 0
M  V30 13248 H 1230.5 3.86712 1.53058 0
M  V30 13249 H 1229.07 2.50869 2.75897 0
M  V30 13250 N 1231.26 -0.58723 1.46251 0
M  V30 13251 C 1232.19 -1.70694 1.5933 0
M  V30 13252 C 1233.17 -1.64208 0.443831 0
M  V30 13253 O 1234.35 -1.82294 0.669516 0
M  V30 13254 C 1231.48 -3.0933 1.579 0
M  V30 13255 C 1230.44 -3.30643 2.7177 0
M  V30 13256 C 1229.76 -4.69761 2.554 0
M  V30 13257 C 1231.06 -3.18916 4.1363 0
M  V30 13258 H 1232.76 -1.60004 2.53059 0
M  V30 13259 H 1230.3 -0.768343 1.21789 0
M  V30 13260 H 1232.26 -3.87479 1.65644 0
M  V30 13261 H 1230.98 -3.20907 0.60712 0
M  V30 13262 H 1229.64 -2.54892 2.63488 0
M  V30 13263 H 1229.29 -4.78098 1.56306 0
M  V30 13264 H 1228.99 -4.84974 3.31774 0
M  V30 13265 H 1230.51 -5.50084 2.65028 0
M  V30 13266 H 1231.93 -3.86915 4.23048 0
M  V30 13267 H 1230.32 -3.45653 4.90555 0
M  V30 13268 H 1231.39 -2.1606 4.34104 0
M  V30 13269 N 1232.74 -1.33881 -0.831482 0
M  V30 13270 C 1233.98 -1.25942 -1.58955 0
M  V30 13271 C 1234.31 0.172542 -1.93432 0
M  V30 13272 O 1233.59 1.11577 -1.59314 0
M  V30 13273 C 1233.87 -2.14193 -2.89471 0
M  V30 13274 C 1233.73 -3.65883 -2.61628 0
M  V30 13275 C 1235.04 -2.02071 -3.90967 0
M  V30 13276 H 1232.16 -0.458841 -0.576744 0
M  V30 13277 H 1234.81 -1.64052 -0.958482 0
M  V30 13278 H 1232.96 -1.81821 -3.43327 0
M  V30 13279 H 1234.63 -4.08581 -2.14148 0
M  V30 13280 H 1232.87 -3.87397 -1.95208 0
M  V30 13281 H 1233.54 -4.22988 -3.54662 0
M  V30 13282 H 1236.02 -2.30476 -3.46439 0
M  V30 13283 H 1234.89 -2.66059 -4.80108 0
M  V30 13284 H 1235.15 -0.995121 -4.30755 0
M  V30 13285 N 1234.21 1.05064 -1.1747 0
M  V30 13286 C 1235.49 1.74999 -0.873776 0
M  V30 13287 C 1235.87 2.01615 0.625676 0
M  V30 13288 O 1235.22 1.65324 1.57734 0
M  V30 13289 C 1235.43 3.04231 -1.7101 0
M  V30 13290 C 1236.78 3.78157 -1.93087 0
M  V30 13291 O 1237.8 3.14104 -1.6798 0
M  V30 13292 O 1236.66 4.93255 -2.3529 0
M  V30 13293 H 1233.75 0.761042 -0.323641 0
M  V30 13294 H 1236.3 1.1122 -1.28172 0
M  V30 13295 H 1235.07 2.80621 -2.72704 0
M  V30 13296 H 1234.69 3.75746 -1.30002 0
M  V30 13297 N 1235.69 0.975146 1.23809 0
M  V30 13298 C 1236.6 0.51917 2.28783 0
M  V30 13299 C 1237.62 -0.423487 1.68768 0
M  V30 13300 O 1238.79 -0.294699 1.99232 0
M  V30 13301 C 1235.86 -0.176229 3.46252 0
M  V30 13302 C 1234.92 0.807177 4.21643 0
M  V30 13303 C 1234.15 0.144869 5.33503 0
M  V30 13304 O 1234.38 -1.06522 5.60365 0
M  V30 13305 O 1233.31 0.84079 5.95999 0
M  V30 13306 H 1237.14 1.39204 2.69919 0
M  V30 13307 H 1234.72 0.74253 1.29641 0
M  V30 13308 H 1236.6 -0.566547 4.17574 0
M  V30 13309 H 1235.28 -1.02394 3.07078 0
M  V30 13310 H 1234.18 1.2481 3.52666 0
M  V30 13311 H 1235.52 1.62354 4.64653 0
M  V30 13312 N 1237.17 -1.38817 0.746158 0
M  V30 13313 C 1238.08 -2.34316 0.115386 0
M  V30 13314 C 1239.1 -1.58892 -0.709179 0
M  V30 13315 O 1240.27 -1.91126 -0.635059 0
M  V30 13316 C 1237.34 -3.37977 -0.772821 0
M  V30 13317 C 1236.4 -4.2925 0.0652679 0
M  V30 13318 C 1235.63 -5.2796 -0.78064 0
M  V30 13319 O 1235.85 -5.33474 -2.01896 0
M  V30 13320 O 1234.79 -6.01556 -0.20338 0
M  V30 13321 H 1238.61 -2.89937 0.903887 0
M  V30 13322 H 1236.2 -1.40536 0.506958 0
M  V30 13323 H 1238.08 -4.01468 -1.28068 0
M  V30 13324 H 1236.76 -2.84723 -1.53994 0
M  V30 13325 H 1235.66 -3.68945 0.61891 0
M  V30 13326 H 1237 -4.85739 0.794871 0
M  V30 13327 N 1238.65 -0.49465 -1.49636 0
M  V30 13328 C 1239.89 0.0521945 -2.02733 0
M  V30 13329 C 1240.23 1.3723 -1.37411 0
M  V30 13330 O 1239.5 1.87758 -0.507642 0
M  V30 13331 C 1239.78 0.2114 -3.59479 0
M  V30 13332 C 1239.64 -1.13138 -4.35339 0
M  V30 13333 C 1240.96 0.955015 -4.29613 0
M  V30 13334 H 1238.08 0.0174946 -0.736792 0
M  V30 13335 H 1240.72 -0.644827 -1.78723 0
M  V30 13336 H 1238.87 0.805078 -3.80067 0
M  V30 13337 H 1240.54 -1.76345 -4.26263 0
M  V30 13338 H 1238.78 -1.72224 -3.98147 0
M  V30 13339 H 1239.45 -0.97336 -5.4335 0
M  V30 13340 H 1241.93 0.451575 -4.13642 0
M  V30 13341 H 1240.81 1.03524 -5.39049 0
M  V30 13342 H 1241.07 1.99724 -3.94414 0
M  V30 13343 N 1240.13 1.55939 -0.228214 0
M  V30 13344 C 1241.37 1.99518 0.395485 0
M  V30 13345 C 1241.73 1.11339 1.56912 0
M  V30 13346 O 1241.02 0.164788 1.9089 0
M  V30 13347 C 1241.21 3.46581 0.872732 0
M  V30 13348 C 1241.04 4.48987 -0.253122 0
M  V30 13349 C 1239.81 5.0012 -0.721702 0
M  V30 13350 C 1242.01 5.02967 -1.0737 0
M  V30 13351 N 1239.99 5.86242 -1.82192 0
M  V30 13352 C 1241.36 5.86079 -2.02265 0
M  V30 13353 C 1243.42 4.85315 -1.11238 0
M  V30 13354 C 1242.12 6.53424 -3.00716 0
M  V30 13355 C 1244.15 5.53423 -2.0851 0
M  V30 13356 C 1243.51 6.36308 -3.02144 0
M  V30 13357 H 1239.61 0.774053 0.1112 0
M  V30 13358 H 1242.19 1.91681 -0.341512 0
M  V30 13359 H 1240.36 3.54852 1.57907 0
M  V30 13360 H 1242.1 3.77066 1.46981 0
M  V30 13361 H 1238.85 4.7259 -0.309119 0
M  V30 13362 H 1239.27 6.34003 -2.37423 0
M  V30 13363 H 1243.92 4.20881 -0.402389 0
M  V30 13364 H 1241.63 7.17035 -3.72674 0
M  V30 13365 H 1245.22 5.41727 -2.12186 0
M  V30 13366 H 1244.1 6.88081 -3.76183 0
M  V30 13367 N 1241.6 -0.0451101 1.57535 0
M  V30 13368 C 1242.85 -0.737654 1.88157 0
M  V30 13369 C 1243.17 -1.76743 0.823817 0
M  V30 13370 O 1242.44 -1.95366 -0.144503 0
M  V30 13371 H 1241.02 -0.275431 0.694368 0
M  V30 13372 H 1243.69 -0.0148651 1.94894 0
M  V30 13373 H 1242.78 -1.23726 2.86528 0
M  V30 13374 N 1243.08 -1.54377 -0.317073 0
M  V30 13375 C 1244.01 -1.8721 -1.39552 0
M  V30 13376 C 1244.99 -0.729483 -1.53664 0
M  V30 13377 O 1246.18 -0.983799 -1.67437 0
M  V30 13378 C 1243.31 -2.1052 -2.76222 0
M  V30 13379 C 1242.26 -3.26366 -2.76892 0
M  V30 13380 C 1241.59 -3.35061 -4.16699 0
M  V30 13381 C 1242.89 -4.63862 -2.40061 0
M  V30 13382 H 1244.58 -2.77532 -1.12323 0
M  V30 13383 H 1242.13 -1.33536 -0.538897 0
M  V30 13384 H 1244.08 -2.32073 -3.51739 0
M  V30 13385 H 1242.81 -1.16953 -3.04942 0
M  V30 13386 H 1241.46 -3.0471 -2.03831 0
M  V30 13387 H 1241.11 -2.39041 -4.4257 0
M  V30 13388 H 1240.81 -4.12923 -4.18053 0
M  V30 13389 H 1242.34 -3.58856 -4.94019 0
M  V30 13390 H 1243.75 -4.85252 -3.05292 0
M  V30 13391 H 1242.15 -5.44321 -2.52655 0
M  V30 13392 H 1243.22 -4.6567 -1.35202 0
M  V30 13393 N 1244.56 0.579466 -1.4656 0
M  V30 13394 C 1245.97 1.1616 -1.46164 0
M  V30 13395 C 1246.32 1.95134 -0.20423 0
M  V30 13396 O 1245.45 2.05022 0.692457 0
M  V30 13397 C 1246.04 2.11322 -2.64818 0
M  V30 13398 C 1244.6 2.64852 -2.67452 0
M  V30 13399 C 1243.75 1.40786 -2.38903 0
M  V30 13400 H 1246.7 0.367229 -1.54393 0
M  V30 13401 H 1246.72 2.94839 -2.4052 0
M  V30 13402 H 1246.23 1.53815 -3.56318 0
M  V30 13403 H 1244.33 3.26219 -1.80032 0
M  V30 13404 H 1244.45 3.07366 -3.67509 0
M  V30 13405 H 1242.81 1.70707 -1.89027 0
M  V30 13406 H 1243.59 0.851049 -3.32584 0
M  V30 13407 N 1246.04 1.3432 0.824371 0
M  V30 13408 C 1246.95 1.27847 1.96704 0
M  V30 13409 C 1247.96 0.18641 1.72999 0
M  V30 13410 O 1249.14 0.412623 1.97128 0
M  V30 13411 C 1246.21 1.03231 3.30975 0
M  V30 13412 C 1245.27 2.21579 3.67697 0
M  V30 13413 C 1244.5 1.98128 4.95561 0
M  V30 13414 O 1244.72 0.938798 5.62621 0
M  V30 13415 O 1243.66 2.85041 5.30128 0
M  V30 13416 H 1247.48 2.23974 2.05108 0
M  V30 13417 H 1245.07 1.14512 0.959554 0
M  V30 13418 H 1246.95 0.912784 4.11395 0
M  V30 13419 H 1245.62 0.101425 3.23541 0
M  V30 13420 H 1244.53 2.3909 2.87727 0
M  V30 13421 H 1245.86 3.13052 3.79815 0
M  V30 13422 N 1247.52 -1.0444 1.18026 0
M  V30 13423 C 1248.43 -2.15862 0.918747 0
M  V30 13424 C 1249.44 -1.73614 -0.115808 0
M  V30 13425 O 1250.62 -2.01294 0.0652312 0
M  V30 13426 C 1247.68 -3.43846 0.443922 0
M  V30 13427 C 1246.74 -4.00497 1.54599 0
M  V30 13428 C 1245.98 -5.22373 1.09372 0
M  V30 13429 O 1246.2 -5.70379 -0.049085 0
M  V30 13430 O 1245.13 -5.71459 1.88992 0
M  V30 13431 H 1248.96 -2.40776 1.85097 0
M  V30 13432 H 1246.55 -1.14326 0.961769 0
M  V30 13433 H 1248.43 -4.20985 0.187017 0
M  V30 13434 H 1247.1 -3.20414 -0.460051 0
M  V30 13435 H 1246.01 -3.24764 1.85686 0
M  V30 13436 H 1247.34 -4.28262 2.42595 0
M  V30 13437 N 1248.99 -0.981699 -1.2329 0
M  V30 13438 C 1250.24 -0.646818 -1.91048 0
M  V30 13439 C 1250.56 0.823479 -1.77421 0
M  V30 13440 O 1251.76 1.26948 -2.39993 0
M  V30 13441 C 1250.22 -1.1063 -3.42475 0
M  V30 13442 C 1249.83 -2.60103 -3.6476 0
M  V30 13443 C 1251.57 -0.845227 -4.16 0
M  V30 13444 C 1249.48 -2.99712 -5.0983 0
M  V30 13445 H 1248.41 -0.238221 -0.715379 0
M  V30 13446 H 1251.06 -1.18977 -1.39702 0
M  V30 13447 H 1249.44 -0.491554 -3.92937 0
M  V30 13448 H 1250.61 -3.26828 -3.24839 0
M  V30 13449 H 1248.93 -2.83972 -3.04547 0
M  V30 13450 H 1251.53 -1.11699 -5.22903 0
M  V30 13451 H 1251.87 0.218661 -4.15725 0
M  V30 13452 H 1252.4 -1.42162 -3.7153 0
M  V30 13453 H 1249.14 -4.0523 -5.15237 0
M  V30 13454 H 1248.66 -2.37683 -5.50697 0
M  V30 13455 H 1250.34 -2.9039 -5.78172 0
M  V30 13456 N 1250.47 1.3842 -0.753509 0
M  V30 13457 C 1251.38 2.34252 -0.127811 0
M  V30 13458 C 1252.4 1.59266 0.700743 0
M  V30 13459 O 1253.57 1.9146 0.624914 0
M  V30 13460 C 1250.64 3.38382 0.754886 0
M  V30 13461 C 1249.7 4.2921 -0.0880312 0
M  V30 13462 C 1248.93 5.28367 0.75263 0
M  V30 13463 O 1249.16 5.34537 1.99064 0
M  V30 13464 O 1248.09 6.01656 0.171475 0
M  V30 13465 H 1251.92 2.89454 -0.91925 0
M  V30 13466 H 1249.5 1.40265 -0.514404 0
M  V30 13467 H 1251.38 4.02141 1.25938 0
M  V30 13468 H 1250.06 2.85536 1.52482 0
M  V30 13469 H 1248.97 3.68611 -0.638468 0
M  V30 13470 H 1250.3 4.85311 -0.82062 0
M  V30 13471 N 1251.95 0.502579 1.49372 0
M  V30 13472 C 1252.86 -0.279532 2.32929 0
M  V30 13473 C 1253.88 -0.965806 1.44735 0
M  V30 13474 O 1255.05 -0.946839 1.77755 0
M  V30 13475 C 1252.12 -1.32913 3.20211 0
M  V30 13476 C 1251.18 -0.656121 4.24256 0
M  V30 13477 C 1250.41 -1.65571 5.07368 0
M  V30 13478 O 1250.63 -2.88571 4.92019 0
M  V30 13479 O 1249.57 -1.21016 5.89609 0
M  V30 13480 H 1253.39 0.404427 3.00995 0
M  V30 13481 H 1250.98 0.263888 1.47051 0
M  V30 13482 H 1252.86 -1.93635 3.74277 0
M  V30 13483 H 1251.54 -1.99598 2.54837 0
M  V30 13484 H 1250.44 -0.00911489 3.74099 0
M  V30 13485 H 1251.78 -0.0316802 4.9219 0
M  V30 13486 N 1253.43 -1.55816 0.23648 0
M  V30 13487 C 1254.36 -2.23924 -0.661834 0
M  V30 13488 C 1255.34 -1.21597 -1.18946 0
M  V30 13489 O 1256.52 -1.50222 -1.23073 0
M  V30 13490 C 1253.65 -2.93069 -1.86355 0
M  V30 13491 C 1252.61 -4.01996 -1.46913 0
M  V30 13492 C 1251.93 -4.58512 -2.75083 0
M  V30 13493 C 1253.23 -5.18265 -0.647964 0
M  V30 13494 H 1254.93 -2.99253 -0.0939368 0
M  V30 13495 H 1252.47 -1.43934 -0.0437407 0
M  V30 13496 H 1254.43 -3.39412 -2.49755 0
M  V30 13497 H 1253.15 -2.15212 -2.45665 0
M  V30 13498 H 1251.81 -3.56406 -0.858522 0
M  V30 13499 H 1251.46 -3.77368 -3.3257 0
M  V30 13500 H 1251.16 -5.32037 -2.49421 0
M  V30 13501 H 1252.68 -5.07583 -3.39399 0
M  V30 13502 H 1254.1 -5.60898 -1.18602 0
M  V30 13503 H 1252.49 -5.98114 -0.487823 0
M  V30 13504 H 1253.56 -4.83691 0.342151 0
M  V30 13505 N 1254.91 0.036755 -1.57557 0
M  V30 13506 C 1256.32 0.392264 -1.54704 0
M  V30 13507 C 1256.52 1.77076 -0.96157 0
M  V30 13508 O 1255.58 2.45766 -0.579263 0
M  V30 13509 C 1256.89 0.301168 -2.99188 0
M  V30 13510 C 1258.44 0.378813 -3.10699 0
M  V30 13511 C 1258.91 0.317249 -4.569 0
M  V30 13512 N 1260.41 0.376277 -4.61669 0
M  V30 13513 C 1261.14 0.351411 -5.72322 0
M  V30 13514 N 1260.64 0.279288 -6.92237 0
M  V30 13515 N 1262.43 0.400571 -5.60671 0
M  V30 13516 H 1254.58 -0.865455 -1.93968 0
M  V30 13517 H 1256.84 -0.328339 -0.889324 0
M  V30 13518 H 1256.55 -0.64582 -3.4572 0
M  V30 13519 H 1256.42 1.09784 -3.6087 0
M  V30 13520 H 1258.81 1.31623 -2.6412 0
M  V30 13521 H 1258.89 -0.447072 -2.51863 0
M  V30 13522 H 1258.54 -0.616469 -5.04145 0
M  V30 13523 H 1258.47 1.16114 -5.13639 0
M  V30 13524 H 1260.96 0.434843 -3.7539 0
M  V30 13525 H 1261.27 0.265202 -7.72345 0
M  V30 13526 H 1259.61 0.24545 -6.94566 0
M  V30 13527 H 1262.81 0.454854 -4.65885 0
M  V30 13528 H 1262.98 0.377724 -6.46898 0
M  V30 13529 N 1256.39 1.54543 0.308881 0
M  V30 13530 C 1257.63 1.73706 1.04661 0
M  V30 13531 C 1257.96 0.517111 1.87189 0
M  V30 13532 O 1257.24 -0.485856 1.88334 0
M  V30 13533 C 1257.52 3.02141 1.95916 0
M  V30 13534 C 1257.38 4.34419 1.1662 0
M  V30 13535 C 1258.69 3.26401 2.95213 0
M  V30 13536 H 1255.81 0.63203 0.379087 0
M  V30 13537 H 1258.46 1.87253 0.321947 0
M  V30 13538 H 1256.61 2.90723 2.57706 0
M  V30 13539 H 1258.28 4.57743 0.571772 0
M  V30 13540 H 1256.52 4.3126 0.468747 0
M  V30 13541 H 1257.19 5.20535 1.83704 0
M  V30 13542 H 1259.67 3.37377 2.43549 0
M  V30 13543 H 1258.54 4.17597 3.56235 0
M  V30 13544 H 1258.8 2.44322 3.68455 0
M  V30 13545 N 1257.86 -0.571685 1.46866 0
M  V30 13546 C 1259.27 -1.15383 1.46778 0
M  V30 13547 C 1259.63 -1.95023 0.214576 0
M  V30 13548 O 1258.75 -2.05386 -0.681574 0
M  V30 13549 C 1259.35 -2.09915 2.65935 0
M  V30 13550 C 1257.9 -2.6343 2.68852 0
M  V30 13551 C 1257.05 -1.39517 2.39646 0
M  V30 13552 H 1260 -0.359036 1.54585 0
M  V30 13553 H 1260.02 -2.9356 2.42081 0
M  V30 13554 H 1259.54 -1.51923 3.57129 0
M  V30 13555 H 1257.64 -3.2526 1.8176 0
M  V30 13556 H 1257.75 -3.05412 3.69134 0
M  V30 13557 H 1256.11 -1.69702 1.8993 0
M  V30 13558 H 1256.9 -0.833399 3.33031 0
M  V30 13559 N 1259.34 -1.34755 -0.817236 0
M  V30 13560 C 1260.57 -1.30676 -1.61054 0
M  V30 13561 C 1260.99 0.115343 -1.87746 0
M  V30 13562 O 1260.35 1.07887 -1.45705 0
M  V30 13563 C 1260.4 -2.10881 -2.92509 0
M  V30 13564 O 1259.5 -1.48223 -3.84842 0
M  V30 13565 H 1258.84 -0.448531 -0.489608 0
M  V30 13566 H 1261.37 -1.77642 -1.01512 0
M  V30 13567 H 1261.38 -2.22446 -3.42026 0
M  V30 13568 H 1260.06 -3.14274 -2.72406 0
M  V30 13569 H 1258.63 -1.45434 -3.4337 0
M  V30 13570 N 1260.82 1.03812 -1.18578 0
M  V30 13571 C 1261.75 2.13802 -0.938665 0
M  V30 13572 C 1262.73 1.69643 0.124575 0
M  V30 13573 O 1263.92 1.94179 -0.0285421 0
M  V30 13574 C 1261.05 3.44154 -0.466392 0
M  V30 13575 C 1260 4.01949 -1.47041 0
M  V30 13576 C 1259.33 5.27811 -0.855558 0
M  V30 13577 C 1260.63 4.37827 -2.84789 0
M  V30 13578 H 1262.32 2.34732 -1.85852 0
M  V30 13579 H 1259.87 1.12808 -0.895007 0
M  V30 13580 H 1261.82 4.20463 -0.280856 0
M  V30 13581 H 1260.54 3.22918 0.489041 0
M  V30 13582 H 1259.2 3.27725 -1.64293 0
M  V30 13583 H 1258.85 5.02886 0.107142 0
M  V30 13584 H 1258.55 5.67441 -1.52592 0
M  V30 13585 H 1260.07 6.06795 -0.680609 0
M  V30 13586 H 1261.49 5.05112 -2.71173 0
M  V30 13587 H 1259.88 4.88514 -3.48532 0
M  V30 13588 H 1260.95 3.47541 -3.38147 0
M  V30 13589 N 1262.3 0.988223 1.22768 0
M  V30 13590 C 1263.54 0.662441 1.91676 0
M  V30 13591 C 1263.88 -0.802931 1.76824 0
M  V30 13592 O 1263.15 -1.58011 1.13415 0
M  V30 13593 C 1263.43 1.06332 3.44043 0
M  V30 13594 C 1263.29 2.5869 3.67967 0
M  V30 13595 C 1264.61 0.613058 4.35809 0
M  V30 13596 H 1261.73 0.242132 0.69609 0
M  V30 13597 H 1264.37 1.23091 1.44736 0
M  V30 13598 H 1262.52 0.579623 3.84152 0
M  V30 13599 H 1264.19 3.14694 3.37291 0
M  V30 13600 H 1262.43 3.00971 3.12408 0
M  V30 13601 H 1263.1 2.8179 4.74656 0
M  V30 13602 H 1265.58 1.02846 4.0319 0
M  V30 13603 H 1264.46 0.921901 5.41103 0
M  V30 13604 H 1264.72 -0.48641 4.39416 0
M  V30 13605 N 1263.78 -1.38018 0.760839 0
M  V30 13606 C 1265.19 -1.82645 0.387022 0
M  V30 13607 C 1265.54 -1.63445 -1.08536 0
M  V30 13608 O 1264.66 -1.13958 -1.83963 0
M  V30 13609 C 1265.26 -3.3158 0.69569 0
M  V30 13610 C 1263.82 -3.74527 0.375063 0
M  V30 13611 C 1262.96 -2.60696 0.94515 0
M  V30 13612 H 1265.91 -1.26644 0.956396 0
M  V30 13613 H 1265.94 -3.80493 -0.0235511 0
M  V30 13614 H 1265.45 -3.45522 1.76737 0
M  V30 13615 H 1263.55 -3.6616 -0.689741 0
M  V30 13616 H 1263.66 -4.71029 0.875685 0
M  V30 13617 H 1262.03 -2.51997 0.370065 0
M  V30 13618 H 1262.81 -2.77434 2.02201 0
M  V30 13619 N 1265.25 -0.510493 -1.49103 0
M  V30 13620 C 1266.19 0.299697 -2.27232 0
M  V30 13621 C 1267.2 0.922102 -1.34168 0
M  V30 13622 O 1268.39 0.803836 -1.59376 0
M  V30 13623 C 1265.49 1.43778 -3.06889 0
M  V30 13624 C 1264.66 0.920927 -4.27595 0
M  V30 13625 C 1263.72 1.93777 -4.89221 0
M  V30 13626 O 1262.75 1.5025 -5.49011 0
M  V30 13627 N 1263.95 3.2688 -4.79718 0
M  V30 13628 H 1266.71 -0.37028 -2.97404 0
M  V30 13629 H 1264.27 -0.343617 -1.58212 0
M  V30 13630 H 1266.27 2.11577 -3.44988 0
M  V30 13631 H 1264.84 2.01175 -2.39264 0
M  V30 13632 H 1264.06 0.0675358 -3.94142 0
M  V30 13633 H 1265.34 0.554168 -5.05773 0
M  V30 13634 H 1264.74 3.64924 -4.32258 0
M  V30 13635 H 1263.3 3.90366 -5.21974 0
M  V30 13636 N 1266.73 1.55688 -0.24474 0
M  V30 13637 C 1267.64 2.24933 0.666519 0
M  V30 13638 C 1268.66 1.26471 1.19503 0
M  V30 13639 O 1269.83 1.59342 1.23176 0
M  V30 13640 C 1266.9 2.9336 1.84772 0
M  V30 13641 C 1265.96 4.07225 1.35889 0
M  V30 13642 C 1265.19 4.72381 2.48379 0
M  V30 13643 O 1265.42 4.36605 3.67059 0
M  V30 13644 O 1264.35 5.60933 2.18261 0
M  V30 13645 H 1268.18 3.03513 0.106507 0
M  V30 13646 H 1265.76 1.49394 -0.0133309 0
M  V30 13647 H 1267.64 3.36468 2.53708 0
M  V30 13648 H 1266.32 2.17721 2.39539 0
M  V30 13649 H 1265.22 3.68639 0.636881 0
M  V30 13650 H 1266.56 4.84676 0.857333 0
M  V30 13651 N 1268.21 -0.0283989 1.57574 0
M  V30 13652 C 1269.63 -0.384054 1.5491 0
M  V30 13653 C 1269.83 -1.76564 0.970947 0
M  V30 13654 O 1268.88 -2.45455 0.592288 0
M  V30 13655 C 1270.19 -0.285297 2.99344 0
M  V30 13656 C 1271.74 -0.36233 3.10896 0
M  V30 13657 C 1272.22 -0.293014 4.57062 0
M  V30 13658 N 1273.71 -0.351788 4.61862 0
M  V30 13659 C 1274.44 -0.321054 5.725 0
M  V30 13660 N 1273.94 -0.242573 6.92375 0
M  V30 13661 N 1275.73 -0.370832 5.60875 0
M  V30 13662 H 1267.88 0.87573 1.93506 0
M  V30 13663 H 1270.15 0.33305 0.887571 0
M  V30 13664 H 1269.85 0.664146 3.45372 0
M  V30 13665 H 1269.73 -1.07869 3.61447 0
M  V30 13666 H 1272.11 -1.30221 2.64814 0
M  V30 13667 H 1272.19 0.460422 2.51622 0
M  V30 13668 H 1271.84 0.643197 5.03811 0
M  V30 13669 H 1271.77 -1.13388 5.14248 0
M  V30 13670 H 1274.26 -0.414929 3.75615 0
M  V30 13671 H 1274.57 -0.224239 7.72475 0
M  V30 13672 H 1272.92 -0.208612 6.94687 0
M  V30 13673 H 1276.11 -0.430141 4.6612 0
M  V30 13674 H 1276.28 -0.343412 6.47089 0
M  V30 13675 N 1269.69 -1.54705 -0.300681 0
M  V30 13676 C 1270.91 -1.78318 -1.05913 0
M  V30 13677 C 1271.34 -0.541177 -1.80147 0
M  V30 13678 O 1270.7 0.508291 -1.74029 0
M  V30 13679 C 1270.74 -2.99041 -2.01511 0
M  V30 13680 O 1269.85 -2.72188 -3.09818 0
M  V30 13681 H 1269.19 -0.590197 -0.304242 0
M  V30 13682 H 1271.72 -2.01789 -0.338006 0
M  V30 13683 H 1271.73 -3.2702 -2.43971 0
M  V30 13684 H 1270.4 -3.89098 -1.46886 0
M  V30 13685 H 1268.98 -2.55227 -2.71871 0
M  V30 13686 N 1271.17 0.563888 -1.47167 0
M  V30 13687 C 1272.42 1.31766 -1.5271 0
M  V30 13688 C 1272.73 1.94664 -0.191164 0
M  V30 13689 O 1273.93 2.71214 -0.124543 0
M  V30 13690 C 1272.39 2.38907 -2.69168 0
M  V30 13691 C 1272 1.8223 -4.09263 0
M  V30 13692 C 1273.74 3.15508 -2.83999 0
M  V30 13693 C 1271.65 2.87111 -5.17031 0
M  V30 13694 H 1270.58 0.495421 -0.568396 0
M  V30 13695 H 1273.23 0.599665 -1.73425 0
M  V30 13696 H 1271.61 3.13591 -2.4182 0
M  V30 13697 H 1272.79 1.13963 -4.46485 0
M  V30 13698 H 1271.1 1.18235 -3.99261 0
M  V30 13699 H 1273.7 3.93816 -3.61681 0
M  V30 13700 H 1274.04 3.69277 -1.92197 0
M  V30 13701 H 1274.57 2.47934 -3.11085 0
M  V30 13702 H 1271.31 2.38204 -6.10687 0
M  V30 13703 H 1270.83 3.53809 -4.84334 0
M  V30 13704 H 1272.51 3.50724 -5.43692 0
M  V30 13705 N 1272.64 1.35187 0.810078 0
M  V30 13706 C 1273.89 1.28454 1.56931 0
M  V30 13707 C 1274.22 -0.141747 1.93682 0
M  V30 13708 O 1273.5 -1.09028 1.61069 0
M  V30 13709 C 1273.78 2.18771 2.86027 0
M  V30 13710 C 1273.63 3.69999 2.55774 0
M  V30 13711 C 1274.95 2.08265 3.87703 0
M  V30 13712 H 1272.07 0.467959 0.569371 0
M  V30 13713 H 1274.71 1.65556 0.932262 0
M  V30 13714 H 1272.86 1.8726 3.40391 0
M  V30 13715 H 1274.54 4.11936 2.07621 0
M  V30 13716 H 1272.78 3.90453 1.89021 0
M  V30 13717 H 1273.45 4.28577 3.47888 0
M  V30 13718 H 1275.93 2.35958 3.42729 0
M  V30 13719 H 1274.8 2.73663 4.75815 0
M  V30 13720 H 1275.06 1.06352 4.29117 0
M  V30 13721 N 1274.12 -1.03182 1.19127 0
M  V30 13722 C 1275.37 -1.76184 0.990134 0
M  V30 13723 C 1275.69 -1.88986 -0.480546 0
M  V30 13724 O 1274.96 -1.4213 -1.34817 0
M  V30 13725 H 1273.54 -0.652668 0.363364 0
M  V30 13726 H 1276.2 -1.24481 1.49968 0
M  V30 13727 H 1275.3 -2.77119 1.43568 0
M  V30 13728 N 1275.6 -0.99472 -1.22242 0
M  V30 13729 C 1276.53 -0.504783 -2.23572 0
M  V30 13730 C 1277.55 0.401105 -1.57781 0
M  V30 13731 O 1278.73 0.202948 -1.77343 0
M  V30 13732 C 1275.83 0.287524 -3.37678 0
M  V30 13733 C 1275.01 -0.614941 -4.33056 0
M  V30 13734 C 1274.07 0.125974 -5.26049 0
M  V30 13735 O 1273.09 -0.489234 -5.67094 0
M  V30 13736 N 1274.29 1.40772 -5.63173 0
M  V30 13737 H 1277.06 -1.37612 -2.66238 0
M  V30 13738 H 1274.62 -0.86965 -1.3656 0
M  V30 13739 H 1276.61 0.791884 -3.96877 0
M  V30 13740 H 1275.18 1.05998 -2.9408 0
M  V30 13741 H 1274.4 -1.29994 -3.72149 0
M  V30 13742 H 1275.69 -1.22947 -4.93722 0
M  V30 13743 H 1275.09 1.92884 -5.31801 0
M  V30 13744 H 1273.65 1.85723 -6.2478 0
M  V30 13745 N 1277.08 1.37613 -0.768148 0
M  V30 13746 C 1277.99 2.34103 -0.152649 0
M  V30 13747 C 1279 1.6 0.683811 0
M  V30 13748 O 1280.18 1.92112 0.604572 0
M  V30 13749 C 1277.25 3.39164 0.718954 0
M  V30 13750 C 1276.31 4.29092 -0.13355 0
M  V30 13751 C 1275.54 5.29135 0.696547 0
M  V30 13752 O 1275.76 5.36618 1.93383 0
M  V30 13753 O 1274.7 6.01804 0.107652 0
M  V30 13754 H 1278.52 2.88462 -0.949899 0
M  V30 13755 H 1276.11 1.39711 -0.529252 0
M  V30 13756 H 1277.99 4.03454 1.21665 0
M  V30 13757 H 1276.66 2.87137 1.49445 0
M  V30 13758 H 1275.57 3.67914 -0.677528 0
M  V30 13759 H 1276.9 4.84413 -0.872048 0
M  V30 13760 N 1278.56 0.518393 1.4883 0
M  V30 13761 C 1279.47 -0.254811 2.33212 0
M  V30 13762 C 1280.48 -0.950401 1.45751 0
M  V30 13763 O 1281.66 -0.927932 1.78749 0
M  V30 13764 C 1278.72 -1.29509 3.21603 0
M  V30 13765 C 1277.78 -0.611086 4.24928 0
M  V30 13766 C 1277.02 -1.6018 5.09095 0
M  V30 13767 O 1277.24 -2.83336 4.95052 0
M  V30 13768 O 1276.17 -1.14756 5.90859 0
M  V30 13769 H 1280 0.436329 3.00549 0
M  V30 13770 H 1277.59 0.27947 1.46763 0
M  V30 13771 H 1279.47 -1.89654 3.7631 0
M  V30 13772 H 1278.14 -1.96884 2.5694 0
M  V30 13773 H 1277.05 0.0305638 3.74088 0
M  V30 13774 H 1278.38 0.0205249 4.92196 0
M  V30 13775 N 1280.03 -1.55556 0.252993 0
M  V30 13776 C 1281 -2.20351 -0.630705 0
M  V30 13777 C 1282 -1.17461 -1.09816 0
M  V30 13778 O 1283.19 -1.42505 -1.00189 0
M  V30 13779 C 1280.32 -2.85192 -1.86757 0
M  V30 13780 H 1281.51 -2.99829 -0.0652939 0
M  V30 13781 H 1279.07 -1.563 0.00347982 0
M  V30 13782 H 1279.8 -2.09669 -2.47406 0
M  V30 13783 H 1279.59 -3.60569 -1.54053 0
M  V30 13784 H 1281.08 -3.34762 -2.49648 0
M  V30 13785 N 1281.51 0.0200419 -1.57587 0
M  V30 13786 C 1282.76 0.707627 -1.89307 0
M  V30 13787 C 1283.08 1.7541 -0.851831 0
M  V30 13788 O 1282.35 1.95571 0.113404 0
M  V30 13789 H 1280.93 0.264349 -0.698662 0
M  V30 13790 H 1283.59 -0.0161428 -1.94893 0
M  V30 13791 H 1282.69 1.19152 -2.8846 0
M  V30 13792 N 1282.99 1.54862 0.292472 0
M  V30 13793 C 1284.22 1.7855 1.04534 0
M  V30 13794 C 1284.63 0.549161 1.80637 0
M  V30 13795 O 1283.99 -0.481268 1.7604 0
M  V30 13796 C 1284.04 2.99849 2.01923 0
M  V30 13797 O 1283.76 4.18706 1.28907 0
M  V30 13798 C 1285.26 3.35991 2.8918 0
M  V30 13799 H 1282.48 0.595279 0.309652 0
M  V30 13800 H 1285.03 2.01834 0.329159 0
M  V30 13801 H 1283.18 2.78749 2.69032 0
M  V30 13802 H 1283.6 4.87151 1.94383 0
M  V30 13803 H 1285.07 4.24085 3.53349 0
M  V30 13804 H 1285.55 2.54524 3.57931 0
M  V30 13805 H 1286.15 3.59281 2.27591 0
M  V30 13806 N 1284.47 -0.556076 1.47464 0
M  V30 13807 C 1285.71 -1.31283 1.55358 0
M  V30 13808 C 1286.07 -1.91212 0.213492 0
M  V30 13809 O 1285.36 -1.74963 -0.780934 0
M  V30 13810 C 1285.56 -2.44298 2.6087 0
M  V30 13811 C 1285.39 -1.95444 4.05008 0
M  V30 13812 C 1284.16 -1.79235 4.72443 0
M  V30 13813 C 1286.35 -1.49825 4.91993 0
M  V30 13814 N 1284.34 -1.24732 6.01095 0
M  V30 13815 C 1285.71 -1.07095 6.1068 0
M  V30 13816 C 1287.76 -1.37887 4.78426 0
M  V30 13817 C 1286.46 -0.536134 7.17299 0
M  V30 13818 C 1288.49 -0.858066 5.85142 0
M  V30 13819 C 1287.85 -0.440699 7.0302 0
M  V30 13820 H 1283.95 -0.472387 0.623197 0
M  V30 13821 H 1286.54 -0.630184 1.84219 0
M  V30 13822 H 1284.71 -3.10092 2.33875 0
M  V30 13823 H 1286.44 -3.11299 2.58601 0
M  V30 13824 H 1283.19 -2.01984 4.28368 0
M  V30 13825 H 1283.62 -0.995659 6.69638 0
M  V30 13826 H 1288.26 -1.68766 3.87657 0
M  V30 13827 H 1285.98 -0.214967 8.07814 0
M  V30 13828 H 1289.56 -0.769235 5.76692 0
M  V30 13829 H 1288.44 -0.0439514 7.84188 0
M  V30 13830 N 1285.95 -1.35615 -0.802897 0
M  V30 13831 C 1287.17 -1.32377 -1.59659 0
M  V30 13832 C 1287.6 0.0954235 -1.87858 0
M  V30 13833 O 1286.96 1.06336 -1.46842 0
M  V30 13834 C 1287 -2.13972 -2.90256 0
M  V30 13835 O 1286.11 -1.52296 -3.83249 0
M  V30 13836 H 1285.45 -0.453699 -0.484823 0
M  V30 13837 H 1287.98 -1.78708 -0.996217 0
M  V30 13838 H 1287.99 -2.26061 -3.39647 0
M  V30 13839 H 1286.66 -3.17145 -2.69057 0
M  V30 13840 H 1285.24 -1.49068 -3.41809 0
M  V30 13841 N 1287.43 1.02549 -1.19673 0
M  V30 13842 C 1288.36 2.12794 -0.961289 0
M  V30 13843 C 1289.34 1.69766 0.106575 0
M  V30 13844 O 1290.52 1.94138 -0.0491358 0
M  V30 13845 C 1287.65 3.4364 -0.502868 0
M  V30 13846 C 1286.61 4.00367 -1.51296 0
M  V30 13847 C 1285.93 5.26874 -0.911491 0
M  V30 13848 C 1287.23 4.34782 -2.89416 0
M  V30 13849 H 1288.93 2.32748 -1.88331 0
M  V30 13850 H 1286.47 1.11852 -0.906922 0
M  V30 13851 H 1288.42 4.20141 -0.325436 0
M  V30 13852 H 1287.15 3.23418 0.454764 0
M  V30 13853 H 1285.81 3.25964 -1.67759 0
M  V30 13854 H 1285.46 5.02971 0.0537982 0
M  V30 13855 H 1285.16 5.65791 -1.58602 0
M  V30 13856 H 1286.68 6.06039 -0.74493 0
M  V30 13857 H 1288.09 5.02207 -2.76516 0
M  V30 13858 H 1286.49 4.8479 -3.53693 0
M  V30 13859 H 1287.56 3.43935 -3.41814 0
M  V30 13860 N 1288.9 1.00119 1.21713 0
M  V30 13861 C 1290.15 0.692409 1.91252 0
M  V30 13862 C 1290.5 -0.768052 1.76405 0
M  V30 13863 O 1289.8 -1.54913 1.1275 0
M  V30 13864 C 1289.99 1.04376 3.41819 0
M  V30 13865 C 1289.82 2.53682 3.71316 0
M  V30 13866 C 1288.59 3.20222 3.90879 0
M  V30 13867 C 1290.79 3.51829 3.75127 0
M  V30 13868 N 1288.77 4.58919 4.07758 0
M  V30 13869 C 1290.14 4.7602 3.97246 0
M  V30 13870 C 1292.2 3.46019 3.58015 0
M  V30 13871 C 1290.9 5.95108 4.04029 0
M  V30 13872 C 1292.93 4.64492 3.66061 0
M  V30 13873 C 1292.29 5.87486 3.88638 0
M  V30 13874 H 1288.39 0.304785 0.72016 0
M  V30 13875 H 1290.97 1.28289 1.46459 0
M  V30 13876 H 1289.14 0.481773 3.854 0
M  V30 13877 H 1290.87 0.690108 3.98773 0
M  V30 13878 H 1287.63 2.70673 3.8863 0
M  V30 13879 H 1288.05 5.30884 4.20108 0
M  V30 13880 H 1292.69 2.51938 3.3954 0
M  V30 13881 H 1290.41 6.89585 4.21305 0
M  V30 13882 H 1294 4.61595 3.54148 0
M  V30 13883 H 1292.88 6.77628 3.94703 0
M  V30 13884 N 1290.38 -1.37203 0.775435 0
M  V30 13885 C 1291.63 -1.99207 0.340756 0
M  V30 13886 C 1291.95 -1.61861 -1.08747 0
M  V30 13887 O 1291.22 -0.88583 -1.74728 0
M  V30 13888 H 1289.8 -0.736803 0.123004 0
M  V30 13889 H 1292.46 -1.67625 0.994379 0
M  V30 13890 H 1291.56 -3.09243 0.421346 0
M  V30 13891 N 1291.86 -0.526279 -1.48553 0
M  V30 13892 C 1292.81 0.238513 -2.29564 0
M  V30 13893 C 1293.78 0.937222 -1.37133 0
M  V30 13894 O 1294.96 0.93897 -1.66096 0
M  V30 13895 C 1292.1 1.28173 -3.20415 0
M  V30 13896 C 1291.21 0.592244 -4.27921 0
M  V30 13897 C 1290.35 1.61808 -5.05956 0
M  V30 13898 C 1289.39 0.911846 -6.0527 0
M  V30 13899 N 1288.53 1.88305 -6.76377 0
M  V30 13900 H 1293.37 -0.458502 -2.94452 0
M  V30 13901 H 1290.9 -0.237948 -1.45163 0
M  V30 13902 H 1292.86 1.89883 -3.71484 0
M  V30 13903 H 1291.49 1.94718 -2.57458 0
M  V30 13904 H 1290.54 -0.138714 -3.80147 0
M  V30 13905 H 1291.85 0.0375427 -4.98786 0
M  V30 13906 H 1291.01 2.30956 -5.61021 0
M  V30 13907 H 1289.75 2.20667 -4.34922 0
M  V30 13908 H 1288.75 0.206273 -5.49413 0
M  V30 13909 H 1289.98 0.329415 -6.78301 0
M  V30 13910 H 1287.92 2.46079 -6.08096 0
M  V30 13911 H 1287.84 1.37969 -7.43304 0
M  V30 13912 H 1289.11 2.56663 -7.36033 0
M  V30 13913 N 1293.34 1.5542 -0.261239 0
M  V30 13914 C 1294.25 2.25627 0.642625 0
M  V30 13915 C 1295.26 1.27732 1.18155 0
M  V30 13916 O 1296.44 1.60639 1.21479 0
M  V30 13917 C 1293.5 2.95303 1.8165 0
M  V30 13918 C 1292.57 4.08644 1.31563 0
M  V30 13919 C 1291.8 4.74988 2.43355 0
M  V30 13920 O 1292.02 4.40474 3.62407 0
M  V30 13921 O 1290.96 5.63217 2.12299 0
M  V30 13922 H 1294.78 3.03609 0.0743091 0
M  V30 13923 H 1292.37 1.49372 -0.0291754 0
M  V30 13924 H 1294.25 3.3914 2.50125 0
M  V30 13925 H 1292.92 2.2025 2.37217 0
M  V30 13926 H 1291.83 3.69294 0.597746 0
M  V30 13927 H 1293.16 4.85558 0.805878 0
M  V30 13928 N 1294.82 -0.0116844 1.57596 0
M  V30 13929 C 1296.09 -0.735344 1.81251 0
M  V30 13930 C 1296.47 -1.92634 0.863446 0
M  V30 13931 O 1295.82 -2.28321 -0.0905028 0
M  V30 13932 C 1296.03 -1.15206 3.29437 0
M  V30 13933 C 1297.38 -1.56078 3.94873 0
M  V30 13934 O 1298.4 -1.24618 3.3369 0
M  V30 13935 O 1297.26 -2.14534 5.0263 0
M  V30 13936 H 1294.36 -0.357044 0.745955 0
M  V30 13937 H 1296.9 0.0128733 1.69695 0
M  V30 13938 H 1295.67 -0.302619 3.90128 0
M  V30 13939 H 1295.3 -1.95975 3.45947 0
M  V30 13940 N 1296.29 -1.55015 -0.284256 0
M  V30 13941 C 1297.2 -1.90203 -1.37332 0
M  V30 13942 C 1298.22 -0.797994 -1.54622 0
M  V30 13943 O 1299.4 -1.09602 -1.68965 0
M  V30 13944 C 1296.46 -2.15687 -2.71441 0
M  V30 13945 C 1295.52 -3.39313 -2.62993 0
M  V30 13946 C 1294.75 -3.63571 -3.90707 0
M  V30 13947 O 1294.98 -2.90538 -4.9086 0
M  V30 13948 O 1293.91 -4.57102 -3.91589 0
M  V30 13949 H 1297.74 -2.82888 -1.1049 0
M  V30 13950 H 1295.32 -1.41418 -0.481798 0
M  V30 13951 H 1297.2 -2.33553 -3.50758 0
M  V30 13952 H 1295.88 -1.26185 -2.98092 0
M  V30 13953 H 1294.79 -3.26793 -1.82091 0
M  V30 13954 H 1296.12 -4.28997 -2.41293 0
M  V30 13955 N 1297.77 0.548248 -1.47757 0
M  V30 13956 C 1299 1.335 -1.58722 0
M  V30 13957 C 1299.42 1.86549 -0.241034 0
M  V30 13958 O 1298.78 1.63447 0.784517 0
M  V30 13959 C 1298.83 2.47457 -2.62293 0
M  V30 13960 O 1297.93 3.49956 -2.18185 0
M  V30 13961 H 1297.27 0.396166 -0.532868 0
M  V30 13962 H 1299.8 0.66164 -1.93607 0
M  V30 13963 H 1299.81 2.93901 -2.82995 0
M  V30 13964 H 1298.49 2.08203 -3.60034 0
M  V30 13965 H 1297.06 3.09755 -2.0762 0
M  V30 13966 N 1299.25 1.36039 0.795694 0
M  V30 13967 C 1300.18 1.32528 1.92246 0
M  V30 13968 C 1301.16 0.197805 1.68946 0
M  V30 13969 O 1302.35 0.394474 1.90151 0
M  V30 13970 C 1299.48 1.10748 3.29169 0
M  V30 13971 C 1298.43 2.20253 3.66978 0
M  V30 13972 C 1297.76 1.83624 5.02181 0
M  V30 13973 C 1299.06 3.62296 3.76216 0
M  V30 13974 H 1300.75 2.2681 1.95442 0
M  V30 13975 H 1298.3 1.09181 0.938908 0
M  V30 13976 H 1300.25 1.06929 4.07608 0
M  V30 13977 H 1298.97 0.129141 3.26345 0
M  V30 13978 H 1297.63 2.23187 2.90832 0
M  V30 13979 H 1297.28 0.843804 4.95872 0
M  V30 13980 H 1296.98 2.56935 5.28449 0
M  V30 13981 H 1298.5 1.81349 5.83048 0
M  V30 13982 H 1299.92 3.61623 4.44861 0
M  V30 13983 H 1298.31 4.34459 4.13963 0
M  V30 13984 H 1299.38 3.97657 2.77483 0
M  V30 13985 N 1300.73 -1.01913 1.20215 0
M  V30 13986 C 1301.66 -2.12282 0.97256 0
M  V30 13987 C 1302.64 -1.6982 -0.0975709 0
M  V30 13988 O 1303.82 -1.94109 0.0594307 0
M  V30 13989 C 1300.95 -3.43369 0.521085 0
M  V30 13990 C 1299.91 -3.99559 1.53417 0
M  V30 13991 C 1299.23 -5.26383 0.93942 0
M  V30 13992 C 1300.53 -4.33241 2.91718 0
M  V30 13993 H 1302.23 -2.31746 1.89563 0
M  V30 13994 H 1299.77 -1.1137 0.912841 0
M  V30 13995 H 1301.73 -4.19963 0.347713 0
M  V30 13996 H 1300.45 -3.23655 -0.437605 0
M  V30 13997 H 1299.11 -3.25069 1.69486 0
M  V30 13998 H 1298.76 -5.02993 -0.0271236 0
M  V30 13999 H 1298.46 -5.64942 1.616 0
M  V30 14000 H 1299.98 -6.05635 0.777059 0
M  V30 14001 H 1301.4 -5.00734 2.79175 0
M  V30 14002 H 1299.79 -4.82907 3.56259 0
M  V30 14003 H 1300.86 -3.42118 3.43633 0
M  V30 14004 N 1302.21 -1.00763 -1.2118 0
M  V30 14005 C 1303.48 -0.607236 -1.85935 0
M  V30 14006 C 1303.86 0.915048 -1.90237 0
M  V30 14007 O 1303.21 1.80308 -1.40361 0
M  V30 14008 C 1303.42 -1.24466 -3.26051 0
M  V30 14009 C 1304.77 -1.35443 -4.02418 0
M  V30 14010 O 1305.79 -1.20018 -3.35372 0
M  V30 14011 O 1304.65 -1.60282 -5.22467 0
M  V30 14012 H 1301.75 -0.208338 -0.800328 0
M  V30 14013 H 1304.29 -1.10444 -1.28842 0
M  V30 14014 H 1303.06 -2.28524 -3.17635 0
M  V30 14015 H 1302.69 -0.733966 -3.90767 0
M  V30 14016 N 1303.68 1.3679 -0.7827 0
M  V30 14017 C 1304.59 2.33928 -0.17747 0
M  V30 14018 C 1305.61 1.60716 0.666802 0
M  V30 14019 O 1306.79 1.92742 0.584162 0
M  V30 14020 C 1303.85 3.39907 0.68294 0
M  V30 14021 C 1302.91 4.28926 -0.179053 0
M  V30 14022 C 1302.15 5.29844 0.640386 0
M  V30 14023 O 1302.37 5.38639 1.87681 0
M  V30 14024 O 1301.3 6.01884 0.0438164 0
M  V30 14025 H 1305.13 2.87439 -0.980441 0
M  V30 14026 H 1302.71 1.39142 -0.54404 0
M  V30 14027 H 1304.6 4.04722 1.17379 0
M  V30 14028 H 1303.27 2.88706 1.46391 0
M  V30 14029 H 1302.18 3.67174 -0.716512 0
M  V30 14030 H 1303.51 4.83461 -0.923377 0
M  V30 14031 N 1305.16 0.53415 1.48272 0
M  V30 14032 C 1306.07 -0.230062 2.33469 0
M  V30 14033 C 1307.09 -0.934889 1.46751 0
M  V30 14034 O 1308.26 -0.908921 1.79724 0
M  V30 14035 C 1305.33 -1.2609 3.22958 0
M  V30 14036 C 1304.39 -0.565983 4.25553 0
M  V30 14037 C 1303.62 -1.54771 5.10766 0
M  V30 14038 O 1303.85 -2.7807 4.9803 0
M  V30 14039 O 1302.78 -1.08482 5.92043 0
M  V30 14040 H 1306.61 0.468182 3.0007 0
M  V30 14041 H 1304.19 0.29502 1.46458 0
M  V30 14042 H 1306.07 -1.85652 3.783 0
M  V30 14043 H 1304.75 -1.94148 2.59014 0
M  V30 14044 H 1303.66 0.0702391 3.74034 0
M  V30 14045 H 1304.99 0.0727277 4.92146 0
M  V30 14046 N 1306.64 -1.55279 0.269478 0
M  V30 14047 C 1307.89 -1.99471 -0.348913 0
M  V30 14048 C 1308.22 -1.15784 -1.56283 0
M  V30 14049 O 1307.47 -0.214115 -1.94525 0
M  V30 14050 C 1307.77 -3.48773 -0.780535 0
M  V30 14051 C 1307.44 -4.49705 0.328113 0
M  V30 14052 C 1306.1 -4.77024 0.632544 0
M  V30 14053 C 1308.45 -5.09984 1.07544 0
M  V30 14054 C 1305.78 -5.61893 1.68798 0
M  V30 14055 C 1308.13 -5.95999 2.12057 0
M  V30 14056 C 1306.79 -6.21642 2.4314 0
M  V30 14057 H 1306.06 -0.729918 -0.127676 0
M  V30 14058 H 1308.71 -1.87651 0.382015 0
M  V30 14059 H 1307.02 -3.5804 -1.59105 0
M  V30 14060 H 1308.71 -3.80369 -1.26966 0
M  V30 14061 H 1305.3 -4.28524 0.0807131 0
M  V30 14062 H 1309.49 -4.88906 0.853506 0
M  V30 14063 H 1304.74 -5.80009 1.93389 0
M  V30 14064 H 1308.92 -6.41743 2.70442 0
M  V30 14065 H 1306.54 -6.87198 3.25059 0
M  V30 14066 N 1308.12 0.00332656 -1.576 0
M  V30 14067 C 1309.03 1.01221 -2.1164 0
M  V30 14068 C 1310.04 1.37918 -1.06088 0
M  V30 14069 O 1311.22 1.46717 -1.37971 0
M  V30 14070 C 1308.29 2.28638 -2.60626 0
M  V30 14071 C 1307.35 1.98284 -3.80765 0
M  V30 14072 C 1306.58 3.19626 -4.27405 0
M  V30 14073 O 1306.8 4.31196 -3.73398 0
M  V30 14074 O 1305.74 3.03819 -5.19594 0
M  V30 14075 H 1309.56 0.582839 -2.98055 0
M  V30 14076 H 1307.15 0.221947 -1.47742 0
M  V30 14077 H 1309.03 3.03498 -2.92347 0
M  V30 14078 H 1307.7 2.70819 -1.7731 0
M  V30 14079 H 1306.61 1.2091 -3.54022 0
M  V30 14080 H 1307.94 1.60942 -4.65144 0
M  V30 14081 N 1309.6 1.55164 0.276031 0
M  V30 14082 C 1310.53 1.90844 1.34539 0
M  V30 14083 C 1311.51 0.769968 1.51676 0
M  V30 14084 O 1312.69 1.02785 1.64769 0
M  V30 14085 C 1309.82 2.17769 2.70543 0
M  V30 14086 C 1308.78 3.33592 2.68142 0
M  V30 14087 C 1308.1 3.45991 4.07669 0
M  V30 14088 C 1309.4 4.70064 2.27678 0
M  V30 14089 H 1311.1 2.80412 1.04926 0
M  V30 14090 H 1308.64 1.34918 0.503303 0
M  V30 14091 H 1310.6 2.41317 3.45462 0
M  V30 14092 H 1309.32 1.24997 3.01734 0
M  V30 14093 H 1307.98 3.10007 1.95681 0
M  V30 14094 H 1307.63 2.50691 4.36077 0
M  V30 14095 H 1307.33 4.23862 4.06958 0
M  V30 14096 H 1308.85 3.71828 4.84331 0
M  V30 14097 H 1310.26 4.93176 2.92319 0
M  V30 14098 H 1308.66 5.50829 2.38134 0
M  V30 14099 H 1309.73 4.69091 1.22808 0
M  V30 14100 N 1311.07 -0.540404 1.48045 0
M  V30 14101 C 1312.32 -1.29422 1.55224 0
M  V30 14102 C 1312.64 -1.93716 0.223365 0
M  V30 14103 O 1311.91 -1.808 -0.754204 0
M  V30 14104 H 1310.49 -0.480658 0.571819 0
M  V30 14105 H 1313.16 -0.629712 1.84447 0
M  V30 14106 H 1312.25 -2.07897 2.32777 0
M  V30 14107 N 1312.55 -1.36459 -0.788468 0
M  V30 14108 C 1313.8 -1.31942 -1.54799 0
M  V30 14109 C 1314.15 0.100282 -1.92138 0
M  V30 14110 O 1313.45 1.05505 -1.59935 0
M  V30 14111 C 1313.64 -2.17672 -2.83467 0
M  V30 14112 C 1313.47 -3.67836 -2.58702 0
M  V30 14113 C 1312.24 -4.37009 -2.53675 0
M  V30 14114 C 1314.44 -4.61081 -2.27835 0
M  V30 14115 N 1312.42 -5.72811 -2.20817 0
M  V30 14116 C 1313.79 -5.85137 -2.04973 0
M  V30 14117 C 1315.85 -4.49636 -2.13849 0
M  V30 14118 C 1314.55 -6.99034 -1.69541 0
M  V30 14119 C 1316.57 -5.63401 -1.79816 0
M  V30 14120 C 1315.94 -6.86497 -1.57803 0
M  V30 14121 H 1312.04 -0.538087 -0.567438 0
M  V30 14122 H 1314.62 -1.7152 -0.921358 0
M  V30 14123 H 1312.79 -1.80338 -3.43995 0
M  V30 14124 H 1314.52 -2.04539 -3.49208 0
M  V30 14125 H 1311.28 -3.89822 -2.68953 0
M  V30 14126 H 1311.7 -6.44535 -2.07132 0
M  V30 14127 H 1316.34 -3.55054 -2.29558 0
M  V30 14128 H 1314.06 -7.93567 -1.52571 0
M  V30 14129 H 1317.65 -5.56508 -1.69677 0
M  V30 14130 H 1316.53 -7.73036 -1.31855 0
M  V30 14131 N 1314.03 1.01274 -1.20754 0
M  V30 14132 C 1315.28 1.75191 -1.02156 0
M  V30 14133 C 1315.61 1.89038 0.444791 0
M  V30 14134 O 1314.88 1.41903 1.33018 0
M  V30 14135 C 1315.17 3.16892 -1.71031 0
M  V30 14136 C 1315.02 3.10816 -3.25136 0
M  V30 14137 C 1316.34 4.15648 -1.44654 0
M  V30 14138 H 1313.46 0.635922 -0.372521 0
M  V30 14139 H 1316.1 1.18119 -1.48822 0
M  V30 14140 H 1314.25 3.6562 -1.31357 0
M  V30 14141 H 1315.92 2.69863 -3.74128 0
M  V30 14142 H 1314.17 2.48113 -3.5584 0
M  V30 14143 H 1314.84 4.11001 -3.68487 0
M  V30 14144 H 1317.31 3.75592 -1.7908 0
M  V30 14145 H 1316.19 5.12954 -1.95371 0
M  V30 14146 H 1316.45 4.40507 -0.37494 0
M  V30 14147 N 1315.51 1.01404 1.20644 0
M  V30 14148 C 1316.44 0.540288 2.22741 0
M  V30 14149 C 1317.45 -0.375953 1.584 0
M  V30 14150 O 1318.64 -0.174708 1.77643 0
M  V30 14151 C 1315.74 -0.233766 3.38093 0
M  V30 14152 C 1314.92 0.683759 4.32023 0
M  V30 14153 C 1313.98 -0.0422681 5.26183 0
M  V30 14154 O 1313 0.579392 5.66243 0
M  V30 14155 N 1314.2 -1.31794 5.65341 0
M  V30 14156 H 1316.97 1.41831 2.64015 0
M  V30 14157 H 1314.53 0.891265 1.35159 0
M  V30 14158 H 1316.52 -0.728645 3.98087 0
M  V30 14159 H 1315.09 -1.01306 2.9573 0
M  V30 14160 H 1314.31 1.35899 3.70034 0
M  V30 14161 H 1315.6 1.30786 4.91704 0
M  V30 14162 H 1315 -1.84399 5.34802 0
M  V30 14163 H 1313.55 -1.7576 6.27656 0
M  V30 14164 N 1316.99 -1.36373 0.789944 0
M  V30 14165 C 1318.24 -1.98834 0.361866 0
M  V30 14166 C 1318.56 -1.63006 -1.07024 0
M  V30 14167 O 1317.83 -0.904312 -1.73779 0
M  V30 14168 H 1316.41 -0.735457 0.130812 0
M  V30 14169 H 1319.07 -1.66561 1.0121 0
M  V30 14170 H 1318.16 -3.08778 0.454122 0
M  V30 14171 N 1318.47 -0.542005 -1.47987 0
M  V30 14172 C 1319.88 -0.104646 -1.86406 0
M  V30 14173 C 1320.23 1.32139 -1.4503 0
M  V30 14174 O 1319.35 1.99159 -0.846439 0
M  V30 14175 C 1319.95 -0.183133 -3.38305 0
M  V30 14176 C 1318.51 0.199098 -3.75873 0
M  V30 14177 C 1317.65 -0.537532 -2.7204 0
M  V30 14178 H 1320.6 -0.75259 -1.3972 0
M  V30 14179 H 1320.63 0.602149 -3.75705 0
M  V30 14180 H 1320.14 -1.22113 -3.68389 0
M  V30 14181 H 1318.24 1.23878 -3.51404 0
M  V30 14182 H 1318.35 -0.14888 -4.78869 0
M  V30 14183 H 1316.72 0.0176255 -2.54694 0
M  V30 14184 H 1317.5 -1.57639 -3.04967 0
M  V30 14185 N 1319.94 1.55134 -0.277709 0
M  V30 14186 C 1320.91 2.21327 0.595569 0
M  V30 14187 C 1321.91 1.19193 1.07933 0
M  V30 14188 O 1323.1 1.44081 0.979093 0
M  V30 14189 C 1320.23 2.88127 1.82196 0
M  V30 14190 H 1321.42 2.99895 0.0175855 0
M  V30 14191 H 1318.97 1.56274 -0.0283453 0
M  V30 14192 H 1319.71 2.13578 2.44039 0
M  V30 14193 H 1319.49 3.62974 1.48297 0
M  V30 14194 H 1320.98 3.38691 2.44291 0
M  V30 14195 N 1321.42 0.00503138 1.57599 0
M  V30 14196 C 1322.35 -0.983586 2.11773 0
M  V30 14197 C 1323.33 -1.35518 1.02805 0
M  V30 14198 O 1324.52 -1.43804 1.30514 0
M  V30 14199 C 1321.65 -2.27383 2.62515 0
M  V30 14200 C 1320.6 -2.0437 3.76054 0
M  V30 14201 C 1319.93 -3.39451 4.1313 0
M  V30 14202 C 1321.23 -1.40223 5.03125 0
M  V30 14203 H 1322.92 -0.532501 2.94627 0
M  V30 14204 H 1320.47 -0.254696 1.4173 0
M  V30 14205 H 1322.42 -2.96903 2.99043 0
M  V30 14206 H 1321.14 -2.74614 1.7679 0
M  V30 14207 H 1319.8 -1.37275 3.39928 0
M  V30 14208 H 1319.45 -3.84395 3.24422 0
M  V30 14209 H 1319.15 -3.24868 4.89627 0
M  V30 14210 H 1320.68 -4.10279 4.52221 0
M  V30 14211 H 1322.09 -1.99708 5.37392 0
M  V30 14212 H 1320.49 -1.36112 5.8446 0
M  V30 14213 H 1321.56 -0.372073 4.8347 0
M  V30 14214 N 1322.9 -1.55308 -0.267798 0
M  V30 14215 C 1324.13 -1.80191 -1.01681 0
M  V30 14216 C 1324.54 -0.57783 -1.7974 0
M  V30 14217 O 1323.9 0.4532 -1.76783 0
M  V30 14218 C 1323.95 -3.03023 -1.97127 0
M  V30 14219 O 1323.67 -4.20704 -1.22229 0
M  V30 14220 C 1325.17 -3.40549 -2.83798 0
M  V30 14221 H 1322.39 -0.60013 -0.300142 0
M  V30 14222 H 1324.94 -2.02332 -0.297007 0
M  V30 14223 H 1323.09 -2.82993 -2.64563 0
M  V30 14224 H 1323.51 -4.90181 -1.86608 0
M  V30 14225 H 1324.98 -4.29653 -3.46557 0
M  V30 14226 H 1325.46 -2.60186 -3.53836 0
M  V30 14227 H 1326.06 -3.62856 -2.21846 0
M  V30 14228 N 1324.38 0.532545 -1.4833 0
M  V30 14229 C 1325.79 1.11451 -1.49785 0
M  V30 14230 C 1326.14 1.94386 -0.266207 0
M  V30 14231 O 1325.26 2.07121 0.62688 0
M  V30 14232 C 1325.86 2.0279 -2.71407 0
M  V30 14233 C 1324.42 2.56209 -2.75742 0
M  V30 14234 C 1323.57 1.33114 -2.43261 0
M  V30 14235 H 1326.52 0.317924 -1.55483 0
M  V30 14236 H 1326.54 2.87038 -2.49779 0
M  V30 14237 H 1326.05 1.42401 -3.61031 0
M  V30 14238 H 1324.15 3.20327 -1.9032 0
M  V30 14239 H 1324.26 2.95518 -3.77102 0
M  V30 14240 H 1322.63 1.64607 -1.94362 0
M  V30 14241 H 1323.41 0.744809 -3.35123 0
M  V30 14242 N 1325.86 1.36875 0.78122 0
M  V30 14243 C 1327.1 1.31754 1.54171 0
M  V30 14244 C 1327.43 -0.100632 1.93939 0
M  V30 14245 O 1326.71 -1.05587 1.63345 0
M  V30 14246 C 1326.99 2.24789 2.81322 0
M  V30 14247 C 1326.85 3.75342 2.47868 0
M  V30 14248 C 1328.16 2.16442 3.83198 0
M  V30 14249 H 1325.28 0.479931 0.559317 0
M  V30 14250 H 1327.93 1.67497 0.896935 0
M  V30 14251 H 1326.08 1.94438 3.36342 0
M  V30 14252 H 1327.75 4.16247 1.98836 0
M  V30 14253 H 1325.99 3.94375 1.80696 0
M  V30 14254 H 1326.66 4.3586 3.38719 0
M  V30 14255 H 1329.14 2.43175 3.37647 0
M  V30 14256 H 1328.01 2.83695 4.69903 0
M  V30 14257 H 1328.27 1.15431 4.26765 0
M  V30 14258 N 1327.33 -1.00632 1.21289 0
M  V30 14259 C 1328.74 -1.55838 1.02817 0
M  V30 14260 C 1329.1 -1.91816 -0.412425 0
M  V30 14261 O 1328.22 -1.73342 -1.29543 0
M  V30 14262 C 1328.82 -2.83168 1.86014 0
M  V30 14263 C 1327.37 -3.34865 1.71879 0
M  V30 14264 C 1326.52 -2.0807 1.83309 0
M  V30 14265 H 1329.47 -0.828939 1.3533 0
M  V30 14266 H 1329.49 -3.54996 1.36961 0
M  V30 14267 H 1329.01 -2.56951 2.90857 0
M  V30 14268 H 1327.11 -3.6602 0.697153 0
M  V30 14269 H 1327.22 -4.06374 2.53766 0
M  V30 14270 H 1325.58 -2.21006 1.26603 0
M  V30 14271 H 1326.37 -1.84267 2.89656 0
M  V30 14272 N 1328.81 -1.02043 -1.20104 0
M  V30 14273 C 1329.72 -0.603724 -2.26699 0
M  V30 14274 C 1330.74 0.360558 -1.70223 0
M  V30 14275 O 1331.91 0.220552 -2.00189 0
M  V30 14276 C 1328.98 0.0475988 -3.46667 0
M  V30 14277 C 1328.04 -0.963111 -4.18357 0
M  V30 14278 C 1327.27 -0.342775 -5.32598 0
M  V30 14279 O 1327.5 0.856509 -5.63933 0
M  V30 14280 O 1326.43 -1.06141 -5.92467 0
M  V30 14281 H 1330.26 -1.49125 -2.64566 0
M  V30 14282 H 1327.84 -0.790134 -1.26796 0
M  V30 14283 H 1329.72 0.411177 -4.19389 0
M  V30 14284 H 1328.4 0.909266 -3.10667 0
M  V30 14285 H 1327.3 -1.37813 -3.47791 0
M  V30 14286 H 1328.64 -1.79487 -4.58307 0
M  V30 14287 N 1330.29 1.35952 -0.797165 0
M  V30 14288 C 1331.2 2.33726 -0.202271 0
M  V30 14289 C 1332.22 1.61415 0.649719 0
M  V30 14290 O 1333.39 1.93351 0.563686 0
M  V30 14291 C 1330.46 3.40612 0.64685 0
M  V30 14292 C 1329.52 4.28712 -0.224536 0
M  V30 14293 C 1328.75 5.30493 0.584153 0
M  V30 14294 O 1328.97 5.40599 1.81957 0
M  V30 14295 O 1327.91 6.01897 -0.0200239 0
M  V30 14296 H 1331.73 2.86383 -1.01087 0
M  V30 14297 H 1329.32 1.38557 -0.558768 0
M  V30 14298 H 1331.2 4.05944 1.1308 0
M  V30 14299 H 1329.88 2.90243 1.43321 0
M  V30 14300 H 1328.78 3.66394 -0.755415 0
M  V30 14301 H 1330.12 4.82454 -0.974603 0
M  V30 14302 N 1331.77 0.549846 1.47697 0
M  V30 14303 C 1332.68 -0.205286 2.337 0
M  V30 14304 C 1333.69 -0.919271 1.47734 0
M  V30 14305 O 1334.87 -0.889808 1.80678 0
M  V30 14306 C 1331.94 -1.22658 3.24278 0
M  V30 14307 C 1331 -0.520815 4.26129 0
M  V30 14308 C 1330.23 -1.49345 5.12378 0
M  V30 14309 O 1330.45 -2.72772 5.00951 0
M  V30 14310 O 1329.39 -1.02197 5.93161 0
M  V30 14311 H 1333.21 0.499982 2.99556 0
M  V30 14312 H 1330.8 0.310538 1.46137 0
M  V30 14313 H 1332.68 -1.8163 3.80248 0
M  V30 14314 H 1331.35 -1.9139 2.61059 0
M  V30 14315 H 1330.26 0.109906 3.73939 0
M  V30 14316 H 1331.59 0.124922 4.92041 0
M  V30 14317 N 1333.25 -1.54984 0.285932 0
M  V30 14318 C 1334.16 -2.26621 -0.606648 0
M  V30 14319 C 1335.17 -1.29595 -1.16108 0
M  V30 14320 O 1336.35 -1.62551 -1.18908 0
M  V30 14321 C 1333.41 -2.98156 -1.76929 0
M  V30 14322 C 1332.47 -4.10685 -1.25045 0
M  V30 14323 C 1331.71 -4.788 -2.35768 0
M  V30 14324 O 1331.93 -4.46183 -3.55354 0
M  V30 14325 O 1330.86 -5.66523 -2.03312 0
M  V30 14326 H 1334.69 -3.03689 -0.0259981 0
M  V30 14327 H 1332.28 -1.49306 0.0529355 0
M  V30 14328 H 1334.16 -3.43076 -2.44697 0
M  V30 14329 H 1332.83 -2.23996 -2.33683 0
M  V30 14330 H 1331.74 -3.70198 -0.538919 0
M  V30 14331 H 1333.07 -4.86778 -0.728528 0
M  V30 14332 N 1334.72 -0.0133892 -1.57594 0
M  V30 14333 C 1335.63 0.989701 -2.12702 0
M  V30 14334 C 1336.65 1.36785 -1.07545 0
M  V30 14335 O 1337.83 1.45246 -1.39519 0
M  V30 14336 C 1334.89 2.2586 -2.63036 0
M  V30 14337 C 1333.95 1.94234 -3.82847 0
M  V30 14338 C 1333.19 3.15075 -4.30771 0
M  V30 14339 O 1333.41 4.27212 -3.7795 0
M  V30 14340 O 1332.34 2.98291 -5.22787 0
M  V30 14341 H 1336.17 0.551194 -2.98656 0
M  V30 14342 H 1333.75 0.206264 -1.47969 0
M  V30 14343 H 1335.64 3.0038 -2.9555 0
M  V30 14344 H 1334.31 2.68923 -1.80173 0
M  V30 14345 H 1333.22 1.17148 -3.55285 0
M  V30 14346 H 1334.55 1.55999 -4.66824 0
M  V30 14347 N 1336.2 1.55448 0.259558 0
M  V30 14348 C 1337.11 1.92364 1.34289 0
M  V30 14349 C 1338.13 0.822492 1.53333 0
M  V30 14350 O 1339.3 1.12277 1.672 0
M  V30 14351 C 1336.37 2.19978 2.67975 0
M  V30 14352 C 1335.43 3.43454 2.57562 0
M  V30 14353 C 1334.66 3.69741 3.84873 0
M  V30 14354 O 1334.89 2.9831 4.86176 0
M  V30 14355 O 1333.82 4.63274 3.84267 0
M  V30 14356 H 1337.65 2.8461 1.05975 0
M  V30 14357 H 1335.23 1.42167 0.459239 0
M  V30 14358 H 1337.11 2.39104 3.46998 0
M  V30 14359 H 1335.79 1.30912 2.96047 0
M  V30 14360 H 1334.7 3.29649 1.76869 0
M  V30 14361 H 1336.03 4.32782 2.34437 0
M  V30 14362 N 1337.68 -0.524672 1.4861 0
M  V30 14363 C 1338.59 -1.65554 1.6622 0
M  V30 14364 C 1339.61 -1.65254 0.54471 0
M  V30 14365 O 1340.78 -1.84109 0.816454 0
M  V30 14366 C 1337.85 -3.02003 1.7028 0
M  V30 14367 C 1336.91 -3.13116 2.93695 0
M  V30 14368 C 1336.14 -4.43055 2.97553 0
M  V30 14369 O 1336.36 -5.30468 2.09667 0
M  V30 14370 O 1335.3 -4.58646 3.89779 0
M  V30 14371 H 1339.12 -1.53633 2.61974 0
M  V30 14372 H 1336.71 -0.698354 1.32073 0
M  V30 14373 H 1338.59 -3.83143 1.75441 0
M  V30 14374 H 1337.27 -3.14236 0.777002 0
M  V30 14375 H 1336.17 -2.31251 2.94064 0
M  V30 14376 H 1337.51 -3.058 3.85677 0
M  V30 14377 N 1339.16 -1.37287 -0.77395 0
M  V30 14378 C 1340.07 -1.35059 -1.91823 0
M  V30 14379 C 1341.08 -0.250489 -1.72188 0
M  V30 14380 O 1342.26 -0.485501 -1.95461 0
M  V30 14381 C 1339.33 -1.15444 -3.26915 0
M  V30 14382 C 1338.39 -2.35073 -3.5922 0
M  V30 14383 C 1337.62 -2.16384 -4.87867 0
M  V30 14384 O 1337.84 -1.14696 -5.58749 0
M  V30 14385 O 1336.78 -3.0452 -5.19183 0
M  V30 14386 H 1340.6 -2.31432 -1.96654 0
M  V30 14387 H 1338.19 -1.17994 -0.916392 0
M  V30 14388 H 1340.07 -1.06484 -4.07724 0
M  V30 14389 H 1338.74 -0.221435 -3.22942 0
M  V30 14390 H 1337.65 -2.49604 -2.78655 0
M  V30 14391 H 1338.98 -3.26933 -3.67934 0
M  V30 14392 N 1340.64 0.999871 -1.21821 0
M  V30 14393 C 1341.88 1.73497 -1.0365 0
M  V30 14394 C 1342.21 1.90194 0.430271 0
M  V30 14395 O 1341.48 1.45655 1.31002 0
M  V30 14396 H 1340.06 0.642804 -0.380541 0
M  V30 14397 H 1342.72 1.20461 -1.53216 0
M  V30 14398 H 1341.81 2.73215 -1.50864 0
M  V30 14399 N 1342.11 1.02678 1.19562 0
M  V30 14400 C 1343.08 0.610407 2.20922 0
M  V30 14401 C 1344.08 -0.324858 1.57484 0
M  V30 14402 O 1345.27 -0.112153 1.73839 0
M  V30 14403 C 1342.4 -0.107115 3.40732 0
M  V30 14404 H 1343.59 1.50722 2.59274 0
M  V30 14405 H 1341.15 0.817725 1.33203 0
M  V30 14406 H 1341.88 -1.01837 3.07896 0
M  V30 14407 H 1341.67 0.564901 3.88009 0
M  V30 14408 H 1343.16 -0.385423 4.15818 0
M  V30 14409 N 1343.59 -1.35528 0.804364 0
M  V30 14410 C 1345 -1.81321 0.444933 0
M  V30 14411 C 1345.35 -1.66816 -1.03281 0
M  V30 14412 O 1344.48 -1.19753 -1.80245 0
M  V30 14413 C 1345.07 -3.29199 0.800827 0
M  V30 14414 C 1343.63 -3.73144 0.494026 0
M  V30 14415 C 1342.78 -2.57557 1.02761 0
M  V30 14416 H 1345.73 -1.23537 0.996203 0
M  V30 14417 H 1345.75 -3.80375 0.0975117 0
M  V30 14418 H 1345.26 -3.39725 1.8764 0
M  V30 14419 H 1343.37 -3.68169 -0.572901 0
M  V30 14420 H 1343.48 -4.68005 1.0251 0
M  V30 14421 H 1341.84 -2.50692 0.450048 0
M  V30 14422 H 1342.63 -2.70861 2.10925 0
M  V30 14423 N 1345.07 -0.557671 -1.47404 0
M  V30 14424 C 1346.32 -0.0316382 -2.01675 0
M  V30 14425 C 1346.63 1.32656 -1.43742 0
M  V30 14426 O 1347.84 1.94253 -1.89678 0
M  V30 14427 C 1346.3 -0.00606931 -3.59899 0
M  V30 14428 C 1345.9 -1.36106 -4.26825 0
M  V30 14429 C 1347.65 0.467332 -4.2192 0
M  V30 14430 C 1345.55 -1.29457 -5.77057 0
M  V30 14431 H 1344.48 -0.00805738 -0.753957 0
M  V30 14432 H 1347.14 -0.705592 -1.69392 0
M  V30 14433 H 1345.52 0.733541 -3.89147 0
M  V30 14434 H 1346.69 -2.11842 -4.09218 0
M  V30 14435 H 1345.01 -1.77243 -3.76794 0
M  V30 14436 H 1347.6 0.535478 -5.32012 0
M  V30 14437 H 1347.95 1.47942 -3.89126 0
M  V30 14438 H 1348.48 -0.217434 -3.97205 0
M  V30 14439 H 1345.22 -2.28267 -6.14471 0
M  V30 14440 H 1344.74 -0.579022 -5.96999 0
M  V30 14441 H 1346.42 -0.996834 -6.39275 0
M  V30 14442 N 1346.55 1.54831 -0.294147 0
M  V30 14443 C 1347.8 1.99606 0.316509 0
M  V30 14444 C 1348.12 1.18405 1.54936 0
M  V30 14445 O 1347.39 0.278289 1.93913 0
M  V30 14446 H 1345.97 0.737309 0.119938 0
M  V30 14447 H 1348.63 1.90669 -0.403891 0
M  V30 14448 H 1347.73 3.06409 0.593282 0
M  V30 14449 N 1348.03 0.0217466 1.57585 0
M  V30 14450 C 1349.26 -0.668881 1.9579 0
M  V30 14451 C 1349.67 -1.66085 0.897849 0
M  V30 14452 O 1349.03 -1.82098 -0.121099 0
M  V30 14453 C 1349.08 -1.38174 3.34051 0
M  V30 14454 O 1348.8 -0.429527 4.35989 0
M  V30 14455 C 1350.3 -2.16487 3.86844 0
M  V30 14456 H 1347.52 -0.184919 0.645016 0
M  V30 14457 H 1350.06 0.0793241 2.04346 0
M  V30 14458 H 1348.22 -2.0814 3.26736 0
M  V30 14459 H 1348.63 -0.934887 5.16101 0
M  V30 14460 H 1350.11 -2.61829 4.85952 0
M  V30 14461 H 1350.58 -3.00082 3.20698 0
M  V30 14462 H 1351.19 -1.51493 3.97404 0
M  V30 14463 N 1349.51 -1.55583 -0.251311 0
M  V30 14464 C 1350.92 -1.67693 -0.820719 0
M  V30 14465 C 1351.27 -0.618393 -1.862 0
M  V30 14466 O 1350.39 0.236158 -2.15108 0
M  V30 14467 C 1350.99 -3.04011 -1.49542 0
M  V30 14468 C 1349.55 -3.18075 -2.01259 0
M  V30 14469 C 1348.69 -2.63557 -0.862138 0
M  V30 14470 H 1351.64 -1.58677 -0.0272072 0
M  V30 14471 H 1351.67 -2.9821 -2.36328 0
M  V30 14472 H 1351.18 -3.81032 -0.737323 0
M  V30 14473 H 1349.28 -2.45869 -2.79963 0
M  V30 14474 H 1349.39 -4.24927 -2.213 0
M  V30 14475 H 1347.76 -2.21268 -1.26145 0
M  V30 14476 H 1348.54 -3.431 -0.117196 0
M  V30 14477 N 1350.98 0.516783 -1.48886 0
M  V30 14478 C 1352.4 0.84654 -1.35299 0
M  V30 14479 C 1352.6 1.97998 -0.374035 0
M  V30 14480 O 1351.66 2.51707 0.200003 0
M  V30 14481 C 1352.97 1.20162 -2.75648 0
M  V30 14482 C 1354.52 1.31074 -2.84233 0
M  V30 14483 C 1354.99 1.69919 -4.25313 0
M  V30 14484 N 1356.48 1.76998 -4.28049 0
M  V30 14485 C 1357.22 2.08466 -5.34162 0
M  V30 14486 N 1356.71 2.38268 -6.50538 0
M  V30 14487 N 1358.51 2.09584 -5.21566 0
M  V30 14488 H 1350.66 -0.230871 -2.11142 0
M  V30 14489 H 1352.92 -0.0406678 -0.947127 0
M  V30 14490 H 1352.63 0.442278 -3.48908 0
M  V30 14491 H 1352.5 2.14875 -3.10014 0
M  V30 14492 H 1354.89 2.06083 -2.1122 0
M  V30 14493 H 1354.97 0.344506 -2.5347 0
M  V30 14494 H 1354.61 0.954667 -4.98847 0
M  V30 14495 H 1354.54 2.67616 -4.5353 0
M  V30 14496 H 1357.03 1.56191 -3.44112 0
M  V30 14497 H 1357.35 2.61423 -7.2724 0
M  V30 14498 H 1355.69 2.35758 -6.53791 0
M  V30 14499 H 1358.88 1.85768 -4.2966 0
M  V30 14500 H 1359.06 2.33776 -6.04362 0
M  V30 14501 N 1352.46 1.37696 0.766659 0
M  V30 14502 C 1353.74 1.23715 1.51506 0
M  V30 14503 C 1354.12 -0.167091 2.10438 0
M  V30 14504 O 1353.47 -1.17526 1.95959 0
M  V30 14505 C 1353.68 2.33715 2.59188 0
M  V30 14506 C 1355.02 2.71504 3.26451 0
M  V30 14507 O 1356.05 2.32929 2.69486 0
M  V30 14508 O 1354.91 3.37981 4.29454 0
M  V30 14509 H 1352 0.483046 0.671264 0
M  V30 14510 H 1354.55 1.49489 0.803188 0
M  V30 14511 H 1353.32 3.27729 2.13797 0
M  V30 14512 H 1352.94 2.09433 3.3797 0
M  V30 14513 N 1353.94 -0.993397 1.22349 0
M  V30 14514 C 1355.35 -1.54739 1.04465 0
M  V30 14515 C 1355.7 -1.92243 -0.392057 0
M  V30 14516 O 1354.83 -1.74707 -1.27697 0
M  V30 14517 C 1355.42 -2.81179 1.89007 0
M  V30 14518 C 1353.98 -3.33023 1.75421 0
M  V30 14519 C 1353.13 -2.06114 1.85505 0
M  V30 14520 H 1356.08 -0.814539 1.36202 0
M  V30 14521 H 1356.1 -3.53523 1.40718 0
M  V30 14522 H 1355.61 -2.53851 2.93566 0
M  V30 14523 H 1353.71 -3.6526 0.735935 0
M  V30 14524 H 1353.83 -4.03659 2.58062 0
M  V30 14525 H 1352.19 -2.19651 1.2894 0
M  V30 14526 H 1352.97 -1.81184 2.91594 0
M  V30 14527 N 1355.42 -1.03311 -1.19015 0
M  V30 14528 C 1356.67 -0.730593 -1.88432 0
M  V30 14529 C 1356.99 0.743392 -1.80274 0
M  V30 14530 O 1356.26 1.5359 -1.21601 0
M  V30 14531 H 1354.84 -0.267253 -0.697556 0
M  V30 14532 H 1357.5 -1.30824 -1.44468 0
M  V30 14533 H 1356.59 -1.02867 -2.9466 0
M  V30 14534 N 1356.9 1.35099 -0.81154 0
M  V30 14535 C 1358.17 1.93009 -0.317289 0
M  V30 14536 C 1358.55 1.74101 1.19382 0
M  V30 14537 O 1357.9 1.11295 1.99564 0
M  V30 14538 C 1358.11 3.41191 -0.734123 0
M  V30 14539 C 1359.46 4.1834 -0.726437 0
M  V30 14540 O 1360.48 3.49727 -0.67598 0
M  V30 14541 O 1359.34 5.4077 -0.789291 0
M  V30 14542 H 1356.44 0.822707 -0.084153 0
M  V30 14543 H 1358.98 1.44145 -0.895569 0
M  V30 14544 H 1357.75 3.48705 -1.7754 0
M  V30 14545 H 1357.38 3.97384 -0.130919 0
M  V30 14546 N 1358.37 0.56548 1.47106 0
M  V30 14547 C 1359.62 0.0444375 2.02051 0
M  V30 14548 C 1359.94 -1.31344 1.44131 0
M  V30 14549 O 1359.21 -1.85845 0.619556 0
M  V30 14550 H 1357.79 0.0134375 0.746879 0
M  V30 14551 H 1360.45 0.737362 1.80413 0
M  V30 14552 H 1359.55 -0.0374834 3.12077 0
M  V30 14553 N 1359.85 -1.54672 0.302354 0
M  V30 14554 C 1361.09 -2.02076 -0.30738 0
M  V30 14555 C 1361.46 -1.18603 -1.50988 0
M  V30 14556 O 1362.66 -1.5571 -2.19107 0
M  V30 14557 C 1360.93 -3.5137 -0.65375 0
M  V30 14558 S 1362.49 -4.20733 -1.24615 0
M  V30 14559 H 1359.31 -0.704725 -0.0942521 0
M  V30 14560 H 1361.91 -1.907 0.430542 0
M  V30 14561 H 1360.61 -4.09756 0.229892 0
M  V30 14562 H 1360.14 -3.66784 -1.42243 0
M  V30 14563 H 1362.16 -4.26624 -2.5339 0
M  V30 14564 N 1361.33 -0.0301034 -1.57571 0
M  V30 14565 C 1362.74 0.508591 -1.79639 0
M  V30 14566 C 1363.09 1.72191 -0.940458 0
M  V30 14567 O 1362.22 2.15872 -0.151138 0
M  V30 14568 C 1362.81 0.929446 -3.25802 0
M  V30 14569 C 1361.37 1.41325 -3.48861 0
M  V30 14570 C 1360.52 0.378433 -2.74706 0
M  V30 14571 H 1363.47 -0.256131 -1.56619 0
M  V30 14572 H 1363.49 1.79374 -3.35567 0
M  V30 14573 H 1363 0.0461738 -3.88073 0
M  V30 14574 H 1361.1 2.31641 -2.91844 0
M  V30 14575 H 1361.22 1.41995 -4.57574 0
M  V30 14576 H 1359.58 0.846744 -2.40213 0
M  V30 14577 H 1360.36 -0.49639 -3.39692 0
M  V30 14578 N 1362.81 1.55714 0.243056 0
M  V30 14579 C 1364.03 1.82126 0.992219 0
M  V30 14580 C 1364.46 0.607665 1.78014 0
M  V30 14581 O 1363.82 -0.443351 1.75796 0
M  V30 14582 C 1363.86 3.06314 1.90274 0
M  V30 14583 O 1362.97 2.83499 2.99503 0
M  V30 14584 H 1362.31 0.601082 0.282128 0
M  V30 14585 H 1364.84 2.02904 0.262881 0
M  V30 14586 H 1364.85 3.35849 2.31666 0
M  V30 14587 H 1363.52 3.94282 1.32344 0
M  V30 14588 H 1362.1 2.65141 2.62211 0
M  V30 14589 N 1364.29 -0.50888 1.49158 0
M  V30 14590 C 1365.7 -1.09054 1.51539 0
M  V30 14591 C 1366.05 -1.93938 0.297099 0
M  V30 14592 O 1365.17 -2.08092 -0.593849 0
M  V30 14593 C 1365.77 -1.98447 2.74599 0
M  V30 14594 C 1364.33 -2.5179 2.79783 0
M  V30 14595 C 1363.47 -1.29227 2.45348 0
M  V30 14596 H 1366.43 -0.293148 1.55969 0
M  V30 14597 H 1366.45 -2.83028 2.54314 0
M  V30 14598 H 1365.96 -1.3664 3.63251 0
M  V30 14599 H 1364.06 -3.17258 1.95392 0
M  V30 14600 H 1364.17 -2.89481 3.81756 0
M  V30 14601 H 1362.54 -1.61494 1.96957 0
M  V30 14602 H 1363.32 -0.6914 3.36266 0
M  V30 14603 N 1365.76 -1.381 -0.759346 0
M  V30 14604 C 1367.04 -1.24517 -1.50847 0
M  V30 14605 C 1367.42 0.155929 -2.10523 0
M  V30 14606 O 1366.77 1.16485 -1.96579 0
M  V30 14607 C 1366.98 -2.35086 -2.57945 0
M  V30 14608 C 1368.33 -2.73232 -3.25007 0
M  V30 14609 O 1369.35 -2.34355 -2.68247 0
M  V30 14610 O 1368.21 -3.40254 -4.27656 0
M  V30 14611 H 1365.3 -0.486599 -0.668693 0
M  V30 14612 H 1367.85 -1.49913 -0.795249 0
M  V30 14613 H 1366.62 -3.28858 -2.12056 0
M  V30 14614 H 1366.25 -2.11222 -3.36854 0
M  V30 14615 N 1367.24 0.986894 -1.22875 0
M  V30 14616 C 1368.49 1.72152 -1.05103 0
M  V30 14617 C 1368.8 1.91185 0.413248 0
M  V30 14618 O 1370.01 2.62031 0.710759 0
M  V30 14619 C 1368.47 3.09771 -1.8322 0
M  V30 14620 C 1368.07 2.98648 -3.33936 0
M  V30 14621 C 1369.82 3.87238 -1.73917 0
M  V30 14622 C 1367.73 4.31459 -4.04471 0
M  V30 14623 H 1366.66 0.645498 -0.389677 0
M  V30 14624 H 1369.31 1.10125 -1.46781 0
M  V30 14625 H 1367.69 3.72515 -1.34345 0
M  V30 14626 H 1368.86 2.45033 -3.9025 0
M  V30 14627 H 1367.18 2.34661 -3.43982 0
M  V30 14628 H 1369.77 4.85549 -2.23933 0
M  V30 14629 H 1370.12 4.1036 -0.700711 0
M  V30 14630 H 1370.65 3.31183 -2.20369 0
M  V30 14631 H 1367.39 4.13534 -5.08596 0
M  V30 14632 H 1366.91 4.84964 -3.52944 0
M  V30 14633 H 1368.59 5.00179 -4.10403 0
M  V30 14634 N 1368.72 1.0394 1.18466 0
M  V30 14635 C 1370.13 0.77011 1.70077 0
M  V30 14636 C 1370.48 -0.70916 1.82935 0
M  V30 14637 O 1369.61 -1.55209 1.50795 0
M  V30 14638 C 1370.2 1.39132 3.08914 0
M  V30 14639 C 1368.76 1.17037 3.57742 0
M  V30 14640 C 1367.91 1.48279 2.34326 0
M  V30 14641 H 1370.86 1.20598 1.03159 0
M  V30 14642 H 1370.88 0.793861 3.72126 0
M  V30 14643 H 1370.39 2.46795 2.99523 0
M  V30 14644 H 1368.49 0.112435 3.7243 0
M  V30 14645 H 1368.61 1.8665 4.41247 0
M  V30 14646 H 1366.97 0.902438 2.38177 0
M  V30 14647 H 1367.75 2.57047 2.27556 0
M  V30 14648 N 1370.2 -1.34667 0.818693 0
M  V30 14649 C 1371.61 -1.80839 0.46414 0
M  V30 14650 C 1371.96 -1.67902 -1.01506 0
M  V30 14651 O 1371.09 -1.21658 -1.78964 0
M  V30 14652 C 1371.68 -3.28331 0.835698 0
M  V30 14653 C 1370.24 -3.72599 0.533575 0
M  V30 14654 C 1369.39 -2.56452 1.05487 0
M  V30 14655 H 1372.34 -1.22474 1.00925 0
M  V30 14656 H 1372.36 -3.8025 0.13785 0
M  V30 14657 H 1371.87 -3.37715 1.91233 0
M  V30 14658 H 1369.97 -3.68756 -0.533819 0
M  V30 14659 H 1370.08 -4.66891 1.07468 0
M  V30 14660 H 1368.45 -2.50201 0.476612 0
M  V30 14661 H 1369.23 -2.68608 2.13786 0
M  V30 14662 N 1371.68 -0.573274 -1.46804 0
M  V30 14663 C 1372.59 0.168081 -2.33997 0
M  V30 14664 C 1373.6 0.895652 -1.49178 0
M  V30 14665 O 1374.78 0.860951 -1.8207 0
M  V30 14666 C 1371.84 1.17483 -3.26188 0
M  V30 14667 C 1370.9 0.452956 -4.26904 0
M  V30 14668 C 1370.14 1.41175 -5.1469 0
M  V30 14669 O 1370.36 2.64767 -5.05227 0
M  V30 14670 O 1369.29 0.927472 -5.94711 0
M  V30 14671 H 1373.12 -0.547576 -2.98723 0
M  V30 14672 H 1370.71 -0.333747 -1.45624 0
M  V30 14673 H 1372.59 1.75557 -3.8309 0
M  V30 14674 H 1371.26 1.87213 -2.6407 0
M  V30 14675 H 1370.17 -0.169383 -3.73716 0
M  V30 14676 H 1371.5 -0.203186 -4.9178 0
M  V30 14677 N 1373.15 1.5451 -0.310553 0
M  V30 14678 C 1374.57 1.85829 0.180166 0
M  V30 14679 C 1374.92 1.23239 1.52665 0
M  V30 14680 O 1374.04 0.53359 2.09718 0
M  V30 14681 C 1374.64 3.37153 0.333687 0
M  V30 14682 C 1373.2 3.68469 0.768625 0
M  V30 14683 C 1372.34 2.77051 -0.117399 0
M  V30 14684 H 1375.29 1.49544 -0.531262 0
M  V30 14685 H 1375.31 3.62171 1.16673 0
M  V30 14686 H 1374.83 3.82678 -0.646455 0
M  V30 14687 H 1372.93 3.28467 1.75898 0
M  V30 14688 H 1373.04 4.75559 0.581392 0
M  V30 14689 H 1371.4 2.51461 0.404905 0
M  V30 14690 H 1372.19 3.254 -1.09407 0
M  V30 14691 N 1374.63 0.0384594 1.57553 0
M  V30 14692 C 1376.04 -0.499057 1.79906 0
M  V30 14693 C 1376.4 -1.7169 0.949577 0
M  V30 14694 O 1375.52 -2.15788 0.162584 0
M  V30 14695 C 1376.12 -0.912155 3.2629 0
M  V30 14696 C 1374.67 -1.39473 3.49606 0
M  V30 14697 C 1373.82 -0.363859 2.74902 0
M  V30 14698 H 1376.77 0.264433 1.56481 0
M  V30 14699 H 1376.79 -1.77592 3.36513 0
M  V30 14700 H 1376.31 -0.0255928 3.88092 0
M  V30 14701 H 1374.41 -2.3009 2.93068 0
M  V30 14702 H 1374.52 -1.39566 4.58321 0
M  V30 14703 H 1372.88 -0.833993 2.40659 0
M  V30 14704 H 1373.67 0.514398 3.39424 0
M  V30 14705 N 1376.11 -1.55841 -0.234795 0
M  V30 14706 C 1377.52 -1.68555 -0.802886 0
M  V30 14707 C 1377.87 -0.638107 -1.85533 0
M  V30 14708 O 1377 0.21333 -2.15346 0
M  V30 14709 C 1377.59 -3.0558 -1.46309 0
M  V30 14710 C 1376.15 -3.20192 -1.97874 0
M  V30 14711 C 1375.3 -2.64457 -0.834136 0
M  V30 14712 H 1378.25 -1.58697 -0.0103759 0
M  V30 14713 H 1378.27 -3.007 -2.33152 0
M  V30 14714 H 1377.78 -3.81792 -0.696868 0
M  V30 14715 H 1375.88 -2.48825 -2.77339 0
M  V30 14716 H 1376 -4.27251 -2.1678 0
M  V30 14717 H 1374.36 -2.22593 -1.23791 0
M  V30 14718 H 1375.14 -3.43205 -0.0807988 0
M  V30 14719 N 1377.59 0.500963 -1.49426 0
M  V30 14720 C 1378.82 1.27911 -1.62624 0
M  V30 14721 C 1379.23 1.86439 -0.297651 0
M  V30 14722 O 1378.59 1.67831 0.716879 0
M  V30 14723 C 1378.64 2.40934 -2.69505 0
M  V30 14724 O 1378.36 1.84811 -3.97211 0
M  V30 14725 C 1379.86 3.32305 -2.93408 0
M  V30 14726 H 1377.08 0.387951 -0.547481 0
M  V30 14727 H 1379.63 0.601372 -1.95458 0
M  V30 14728 H 1377.78 3.04537 -2.39449 0
M  V30 14729 H 1378.2 2.59011 -4.56085 0
M  V30 14730 H 1379.67 4.0789 -3.71927 0
M  V30 14731 H 1380.15 3.89301 -2.03325 0
M  V30 14732 H 1380.75 2.74467 -3.24881 0
M  V30 14733 N 1379.07 1.38501 0.752011 0
M  V30 14734 C 1380.02 1.32359 1.85648 0
M  V30 14735 C 1381 0.207578 1.59555 0
M  V30 14736 O 1382.19 0.443683 1.71349 0
M  V30 14737 C 1379.32 1.15253 3.23375 0
M  V30 14738 C 1378.41 2.31483 3.55354 0
M  V30 14739 N 1378.8 3.56929 3.58379 0
M  V30 14740 C 1377.1 2.2407 3.85628 0
M  V30 14741 C 1377.8 4.33691 3.87669 0
M  V30 14742 N 1376.77 3.63065 4.04579 0
M  V30 14743 H 1380.58 2.27336 1.86267 0
M  V30 14744 H 1378.09 1.31755 0.949441 0
M  V30 14745 H 1380.09 1.08937 4.02416 0
M  V30 14746 H 1378.75 0.212108 3.24006 0
M  V30 14747 H 1379.76 3.90578 3.40101 0
M  V30 14748 H 1376.44 1.38196 3.93965 0
M  V30 14749 H 1377.83 5.42349 3.9662 0
M  V30 14750 N 1380.55 -0.980364 1.23396 0
M  V30 14751 C 1381.48 -2.0908 1.0396 0
M  V30 14752 C 1382.46 -1.70044 -0.0434946 0
M  V30 14753 O 1383.64 -1.93822 0.121155 0
M  V30 14754 C 1380.77 -3.41537 0.630061 0
M  V30 14755 C 1379.73 -3.94476 1.66051 0
M  V30 14756 C 1379.05 -5.23128 1.10641 0
M  V30 14757 C 1380.35 -4.23741 3.05354 0
M  V30 14758 H 1382.05 -2.25598 1.9684 0
M  V30 14759 H 1379.59 -1.08409 0.94781 0
M  V30 14760 H 1381.54 -4.18644 0.481145 0
M  V30 14761 H 1380.27 -3.24883 -0.334416 0
M  V30 14762 H 1378.93 -3.19513 1.79742 0
M  V30 14763 H 1378.58 -5.02824 0.132913 0
M  V30 14764 H 1378.28 -5.59515 1.79492 0
M  V30 14765 H 1379.8 -6.02857 0.969344 0
M  V30 14766 H 1381.21 -4.91598 2.94964 0
M  V30 14767 H 1379.61 -4.71329 3.71442 0
M  V30 14768 H 1380.68 -3.31012 3.54343 0
M  V30 14769 N 1382.02 -1.04567 -1.17913 0
M  V30 14770 C 1383.44 -0.76584 -1.40025 0
M  V30 14771 C 1383.64 0.642484 -1.90983 0
M  V30 14772 O 1382.7 1.40589 -2.0974 0
M  V30 14773 C 1384.01 -1.81616 -2.39658 0
M  V30 14774 C 1385.56 -1.83765 -2.53376 0
M  V30 14775 C 1386.03 -2.87803 -3.56277 0
M  V30 14776 N 1387.52 -2.86726 -3.63789 0
M  V30 14777 C 1388.26 -3.63876 -4.4315 0
M  V30 14778 N 1387.75 -4.50793 -5.26077 0
M  V30 14779 N 1389.55 -3.52344 -4.37962 0
M  V30 14780 H 1381.7 -1.95442 -0.831647 0
M  V30 14781 H 1383.96 -0.84593 -0.42791 0
M  V30 14782 H 1383.67 -2.8266 -2.09275 0
M  V30 14783 H 1383.54 -1.65251 -3.39075 0
M  V30 14784 H 1385.93 -0.833896 -2.83073 0
M  V30 14785 H 1386.01 -2.04208 -1.54055 0
M  V30 14786 H 1385.65 -3.88361 -3.2732 0
M  V30 14787 H 1385.58 -2.64614 -4.55288 0
M  V30 14788 H 1388.07 -2.237 -3.04576 0
M  V30 14789 H 1388.39 -5.0636 -5.83798 0
M  V30 14790 H 1386.73 -4.54858 -5.2548 0
M  V30 14791 H 1389.92 -2.8384 -3.72226 0
M  V30 14792 H 1390.1 -4.12718 -4.99568 0
M  V30 14793 N 1383.5 1.34231 -0.825823 0
M  V30 14794 C 1384.91 1.8059 -0.473724 0
M  V30 14795 C 1385.26 1.68438 1.00614 0
M  V30 14796 O 1384.39 1.22606 1.78317 0
M  V30 14797 C 1384.98 3.27884 -0.853099 0
M  V30 14798 C 1383.54 3.72311 -0.553327 0
M  V30 14799 C 1382.69 2.55889 -1.06845 0
M  V30 14800 H 1385.64 1.21937 -1.01573 0
M  V30 14801 H 1385.66 3.80172 -0.158014 0
M  V30 14802 H 1385.17 3.36696 -1.93021 0
M  V30 14803 H 1383.27 3.69034 0.514256 0
M  V30 14804 H 1383.39 4.66315 -1.09942 0
M  V30 14805 H 1381.75 2.49945 -0.489874 0
M  V30 14806 H 1382.53 2.67471 -2.15207 0
M  V30 14807 N 1384.98 0.581051 1.46498 0
M  V30 14808 C 1386.22 0.0686577 2.04285 0
M  V30 14809 C 1386.58 -1.2666 1.44296 0
M  V30 14810 O 1387.78 -1.86813 1.93273 0
M  V30 14811 C 1386.06 0.0021308 3.574 0
M  V30 14812 S 1387.61 -0.452928 4.36456 0
M  V30 14813 H 1384.43 0.0366686 0.710054 0
M  V30 14814 H 1387.03 0.773174 1.79561 0
M  V30 14815 H 1385.74 0.977908 3.98579 0
M  V30 14816 H 1385.27 -0.725207 3.86658 0
M  V30 14817 H 1387.28 -1.708 4.65877 0
M  V30 14818 N 1386.46 -1.54343 0.318742 0
M  V30 14819 C 1387.87 -1.85922 -0.170309 0
M  V30 14820 C 1388.22 -1.24047 -1.52009 0
M  V30 14821 O 1387.34 -0.544705 -2.09432 0
M  V30 14822 C 1387.94 -3.37325 -0.315802 0
M  V30 14823 C 1386.5 -3.68871 -0.749073 0
M  V30 14824 C 1385.65 -2.76985 0.13209 0
M  V30 14825 H 1388.6 -1.4926 0.539185 0
M  V30 14826 H 1388.62 -3.62784 -1.14751 0
M  V30 14827 H 1388.13 -3.8233 0.66674 0
M  V30 14828 H 1386.23 -3.29396 -1.74153 0
M  V30 14829 H 1386.34 -4.75861 -0.556164 0
M  V30 14830 H 1384.71 -2.51672 -0.391564 0
M  V30 14831 H 1385.49 -3.24815 1.11131 0
M  V30 14832 N 1387.94 -0.0468143 -1.5753 0
M  V30 14833 C 1388.9 0.914225 -2.10177 0
M  V30 14834 C 1389.9 1.24271 -1.02045 0
M  V30 14835 O 1391.09 1.18012 -1.28136 0
M  V30 14836 C 1388.22 2.22544 -2.58238 0
M  V30 14837 H 1389.41 0.457922 -2.96383 0
M  V30 14838 H 1386.97 0.20152 -1.54995 0
M  V30 14839 H 1387.7 2.72765 -1.75413 0
M  V30 14840 H 1387.49 2.00007 -3.37253 0
M  V30 14841 H 1388.98 2.91392 -2.99133 0
M  V30 14842 N 1389.41 1.55964 0.226527 0
M  V30 14843 C 1390.64 1.83168 0.972846 0
M  V30 14844 C 1391.06 0.626512 1.7736 0
M  V30 14845 O 1390.42 -0.42468 1.76256 0
M  V30 14846 C 1390.47 3.08315 1.87014 0
M  V30 14847 O 1389.57 2.8666 2.96479 0
M  V30 14848 H 1388.92 0.604041 0.275736 0
M  V30 14849 H 1391.45 2.03172 0.241345 0
M  V30 14850 H 1391.46 3.38288 2.28091 0
M  V30 14851 H 1390.13 3.95663 1.28154 0
M  V30 14852 H 1388.71 2.67907 2.59384 0
M  V30 14853 N 1390.89 -0.493031 1.4969 0
M  V30 14854 C 1391.82 -1.61058 1.63074 0
M  V30 14855 C 1392.84 -1.54504 0.513069 0
M  V30 14856 O 1394.03 -1.60291 0.785431 0
M  V30 14857 C 1391.13 -2.99877 1.57883 0
M  V30 14858 C 1390.3 -3.31531 2.85317 0
M  V30 14859 C 1389.36 -4.49799 2.7307 0
M  V30 14860 O 1388.38 -4.51189 3.47012 0
M  V30 14861 N 1389.59 -5.50182 1.85148 0
M  V30 14862 H 1392.35 -1.5 2.59461 0
M  V30 14863 H 1389.91 -0.681057 1.46878 0
M  V30 14864 H 1391.9 -3.76928 1.47333 0
M  V30 14865 H 1390.47 -3.04817 0.693218 0
M  V30 14866 H 1389.69 -2.433 3.10159 0
M  V30 14867 H 1390.98 -3.49481 3.69784 0
M  V30 14868 H 1390.38 -5.51865 1.24345 0
M  V30 14869 H 1388.94 -6.26305 1.80516 0
M  V30 14870 N 1392.37 -1.38898 -0.744656 0
M  V30 14871 C 1393.3 -1.39571 -1.87195 0
M  V30 14872 C 1394.28 -0.260372 -1.68095 0
M  V30 14873 O 1395.47 -0.464776 -1.88556 0
M  V30 14874 C 1392.6 -1.22889 -3.24832 0
M  V30 14875 C 1391.55 -2.33721 -3.58551 0
M  V30 14876 C 1390.88 -2.02136 -4.9502 0
M  V30 14877 C 1392.18 -3.7601 -3.62511 0
M  V30 14878 H 1393.87 -2.33908 -1.86889 0
M  V30 14879 H 1391.42 -1.12591 -0.897739 0
M  V30 14880 H 1393.37 -1.21983 -4.03359 0
M  V30 14881 H 1392.09 -0.250172 -3.2564 0
M  V30 14882 H 1390.75 -2.33828 -2.82348 0
M  V30 14883 H 1390.4 -1.02726 -4.92399 0
M  V30 14884 H 1390.1 -2.76371 -5.18549 0
M  V30 14885 H 1391.62 -2.02864 -5.75915 0
M  V30 14886 H 1393.04 -3.77885 -4.31133 0
M  V30 14887 H 1391.44 -4.49524 -3.97553 0
M  V30 14888 H 1392.51 -4.07682 -2.62533 0
M  V30 14889 N 1393.85 0.973806 -1.23914 0
M  V30 14890 C 1395.26 1.53057 -1.06913 0
M  V30 14891 C 1395.61 1.92842 0.361423 0
M  V30 14892 O 1394.74 1.76716 1.24901 0
M  V30 14893 C 1395.33 2.78137 -1.93457 0
M  V30 14894 C 1393.89 3.3019 -1.80697 0
M  V30 14895 C 1393.04 2.03137 -1.88761 0
M  V30 14896 H 1395.99 0.792767 -1.37481 0
M  V30 14897 H 1396.01 3.5124 -1.46325 0
M  V30 14898 H 1395.52 2.49149 -2.97568 0
M  V30 14899 H 1393.62 3.64043 -0.793951 0
M  V30 14900 H 1393.73 3.99503 -2.64451 0
M  V30 14901 H 1392.1 2.17572 -1.32418 0
M  V30 14902 H 1392.88 1.76522 -2.9444 0
M  V30 14903 N 1395.33 1.05191 1.17357 0
M  V30 14904 C 1396.57 0.760479 1.87246 0
M  V30 14905 C 1396.9 -0.714618 1.81434 0
M  V30 14906 O 1396.17 -1.51636 1.24029 0
M  V30 14907 H 1394.75 0.278317 0.693216 0
M  V30 14908 H 1397.41 1.33106 1.42369 0
M  V30 14909 H 1396.5 1.07542 2.92987 0
M  V30 14910 N 1396.8 -1.33791 0.83293 0
M  V30 14911 C 1397.73 -2.31853 0.276846 0
M  V30 14912 C 1398.72 -1.58702 -0.612184 0
M  V30 14913 O 1399.9 -1.86629 -0.536975 0
M  V30 14914 C 1397.03 -3.42855 -0.55385 0
M  V30 14915 C 1395.98 -4.27333 0.238884 0
M  V30 14916 C 1395.31 -5.29895 -0.715187 0
M  V30 14917 C 1396.61 -5.01692 1.45265 0
M  V30 14918 H 1398.3 -2.78611 1.09618 0
M  V30 14919 H 1395.85 -1.33949 0.528562 0
M  V30 14920 H 1397.8 -4.10479 -0.953133 0
M  V30 14921 H 1396.53 -2.94771 -1.40634 0
M  V30 14922 H 1395.19 -3.61325 0.619656 0
M  V30 14923 H 1394.83 -4.7807 -1.56391 0
M  V30 14924 H 1394.53 -5.87296 -0.188921 0
M  V30 14925 H 1396.06 -6.00387 -1.11211 0
M  V30 14926 H 1397.47 -5.62117 1.12685 0
M  V30 14927 H 1395.87 -5.68715 1.91528 0
M  V30 14928 H 1396.94 -4.30809 2.22558 0
M  V30 14929 N 1398.28 -0.588812 -1.46187 0
M  V30 14930 C 1399.21 0.128595 -2.33146 0
M  V30 14931 C 1400.19 0.877608 -1.45712 0
M  V30 14932 O 1401.38 0.851866 -1.74519 0
M  V30 14933 C 1398.51 1.13886 -3.28096 0
M  V30 14934 C 1397.46 0.504296 -4.25019 0
M  V30 14935 C 1396.79 1.62147 -5.09522 0
M  V30 14936 C 1398.09 -0.562466 -5.19263 0
M  V30 14937 H 1399.78 -0.597455 -2.93378 0
M  V30 14938 H 1397.33 -0.288764 -1.41075 0
M  V30 14939 H 1399.28 1.64916 -3.8779 0
M  V30 14940 H 1398.01 1.89527 -2.65983 0
M  V30 14941 H 1396.66 0.0150325 -3.66597 0
M  V30 14942 H 1396.31 2.36769 -4.4379 0
M  V30 14943 H 1396.01 1.20249 -5.75164 0
M  V30 14944 H 1397.54 2.13441 -5.7208 0
M  V30 14945 H 1398.95 -0.137003 -5.73136 0
M  V30 14946 H 1397.35 -0.902115 -5.93281 0
M  V30 14947 H 1398.42 -1.4464 -4.62825 0
M  V30 14948 N 1399.76 1.54172 -0.326923 0
M  V30 14949 C 1400.99 2.05512 0.279231 0
M  V30 14950 C 1401.41 1.20131 1.44741 0
M  V30 14951 O 1400.77 0.211191 1.80066 0
M  V30 14952 C 1400.82 3.53971 0.688263 0
M  V30 14953 O 1399.92 3.71516 1.79025 0
M  V30 14954 H 1399.26 0.662131 0.0497826 0
M  V30 14955 H 1401.79 1.98979 -0.476309 0
M  V30 14956 H 1401.8 3.96302 0.970002 0
M  V30 14957 H 1400.48 4.15568 -0.166132 0
M  V30 14958 H 1399.05 3.4109 1.50706 0
M  V30 14959 N 1401.24 0.0551678 1.57503 0
M  V30 14960 C 1402.19 -0.927586 2.08278 0
M  V30 14961 C 1403.17 -1.26931 0.988802 0
M  V30 14962 O 1404.36 -1.25107 1.25209 0
M  V30 14963 C 1401.49 -2.20105 2.63456 0
M  V30 14964 C 1400.58 -1.88654 3.7983 0
M  V30 14965 N 1400.97 -1.2758 4.89446 0
M  V30 14966 C 1399.27 -2.185 3.8881 0
M  V30 14967 C 1399.97 -1.13848 5.7045 0
M  V30 14968 N 1398.95 -1.6427 5.18186 0
M  V30 14969 H 1402.75 -0.450784 2.90422 0
M  V30 14970 H 1400.26 -0.149178 1.61713 0
M  V30 14971 H 1402.26 -2.9141 2.98137 0
M  V30 14972 H 1400.92 -2.68388 1.82752 0
M  V30 14973 H 1401.93 -0.947506 5.09159 0
M  V30 14974 H 1398.61 -2.69276 3.19056 0
M  V30 14975 H 1400 -0.664014 6.68611 0
M  V30 14976 N 1402.72 -1.56081 -0.218252 0
M  V30 14977 C 1403.96 -1.78893 -0.940296 0
M  V30 14978 C 1404.29 -0.62425 -1.84738 0
M  V30 14979 O 1403.56 0.358686 -1.92588 0
M  V30 14980 H 1402.14 -0.659828 -0.350193 0
M  V30 14981 H 1404.8 -1.93546 -0.229316 0
M  V30 14982 H 1403.89 -2.71167 -1.54516 0
M  V30 14983 N 1404.2 0.485086 -1.49949 0
M  V30 14984 C 1405.13 1.59312 -1.7071 0
M  V30 14985 C 1406.11 1.6076 -0.555896 0
M  V30 14986 O 1407.29 1.77249 -0.793504 0
M  V30 14987 C 1404.42 2.97718 -1.78834 0
M  V30 14988 C 1403.38 3.11136 -2.93902 0
M  V30 14989 C 1402.7 4.51051 -2.87154 0
M  V30 14990 C 1404 2.89665 -4.34617 0
M  V30 14991 H 1405.7 1.42192 -2.6348 0
M  V30 14992 H 1403.24 0.68262 -1.26792 0
M  V30 14993 H 1405.19 3.75148 -1.91943 0
M  V30 14994 H 1403.92 3.15963 -0.826744 0
M  V30 14995 H 1402.58 2.36135 -2.80421 0
M  V30 14996 H 1402.23 4.66195 -1.88869 0
M  V30 14997 H 1401.93 4.60967 -3.64394 0
M  V30 14998 H 1403.45 5.3052 -3.02293 0
M  V30 14999 H 1404.86 3.56853 -4.48697 0
M  V30 15000 H 1403.26 3.11039 -5.13201 0
M  V30 15001 H 1404.33 1.85642 -4.47956 0
M  V30 15002 N 1405.67 1.39291 0.737279 0
M  V30 15003 C 1406.6 1.40562 1.86452 0
M  V30 15004 C 1407.58 0.269283 1.67955 0
M  V30 15005 O 1408.77 0.474769 1.88307 0
M  V30 15006 C 1405.9 1.2461 3.24175 0
M  V30 15007 C 1404.85 2.35619 3.57306 0
M  V30 15008 C 1404.18 2.04758 4.93941 0
M  V30 15009 C 1405.48 3.77927 3.60512 0
M  V30 15010 H 1407.17 2.34896 1.85646 0
M  V30 15011 H 1404.72 1.13065 0.891756 0
M  V30 15012 H 1406.67 1.2412 4.02706 0
M  V30 15013 H 1405.4 0.267438 3.25503 0
M  V30 15014 H 1404.06 2.35322 2.81104 0
M  V30 15015 H 1403.7 1.05336 4.91847 0
M  V30 15016 H 1403.4 2.79117 5.17076 0
M  V30 15017 H 1404.93 2.05915 5.74832 0
M  V30 15018 H 1406.34 3.80166 4.29123 0
M  V30 15019 H 1404.74 4.51626 3.95164 0
M  V30 15020 H 1405.81 4.09068 2.60368 0
M  V30 15021 N 1407.15 -0.967221 1.24429 0
M  V30 15022 C 1408.11 -2.04344 1.03808 0
M  V30 15023 C 1409.11 -1.60799 -0.00476972 0
M  V30 15024 O 1410.3 -1.72591 0.236241 0
M  V30 15025 C 1407.44 -3.36041 0.573496 0
M  V30 15026 H 1408.63 -2.2407 1.9933 0
M  V30 15027 H 1406.18 -1.14253 1.06658 0
M  V30 15028 H 1406.92 -3.22008 -0.384898 0
M  V30 15029 H 1406.7 -3.68991 1.32619 0
M  V30 15030 H 1408.19 -4.15165 0.450272 0
M  V30 15031 N 1408.63 -1.05812 -1.16797 0
M  V30 15032 C 1409.88 -0.770398 -1.8684 0
M  V30 15033 C 1410.2 0.704986 -1.8181 0
M  V30 15034 O 1409.47 1.50977 -1.24832 0
M  V30 15035 H 1408.05 -0.281989 -0.691731 0
M  V30 15036 H 1410.71 -1.33859 -1.41661 0
M  V30 15037 H 1409.81 -1.09094 -2.92412 0
M  V30 15038 N 1410.11 1.33347 -0.840014 0
M  V30 15039 C 1411.04 2.31703 -0.289138 0
M  V30 15040 C 1412.02 1.59024 0.603759 0
M  V30 15041 O 1413.2 1.86911 0.527071 0
M  V30 15042 C 1410.33 3.43144 0.53566 0
M  V30 15043 C 1409.29 4.272 -0.261544 0
M  V30 15044 C 1408.61 5.30267 0.687075 0
M  V30 15045 C 1409.91 5.00915 -1.47924 0
M  V30 15046 H 1411.61 2.78026 -1.11094 0
M  V30 15047 H 1409.15 1.33666 -0.535658 0
M  V30 15048 H 1411.11 4.10979 0.931351 0
M  V30 15049 H 1409.83 2.95512 1.39069 0
M  V30 15050 H 1408.49 3.60991 -0.638809 0
M  V30 15051 H 1408.14 4.78893 1.53853 0
M  V30 15052 H 1407.84 5.87388 0.157773 0
M  V30 15053 H 1409.36 6.00968 1.08026 0
M  V30 15054 H 1410.78 5.61511 -1.15664 0
M  V30 15055 H 1409.17 5.67692 -1.94541 0
M  V30 15056 H 1410.24 4.29622 -2.24839 0
M  V30 15057 N 1411.59 0.596556 1.45873 0
M  V30 15058 C 1412.81 0.0916466 2.07197 0
M  V30 15059 C 1413.24 -1.21004 1.44012 0
M  V30 15060 O 1412.59 -1.73415 0.528844 0
M  V30 15061 C 1412.64 -0.0461457 3.6057 0
M  V30 15062 O 1411.75 -1.09919 3.97481 0
M  V30 15063 H 1411.09 0.0690655 0.660398 0
M  V30 15064 H 1413.62 0.823434 1.87299 0
M  V30 15065 H 1413.63 -0.2479 4.07246 0
M  V30 15066 H 1412.3 0.904381 4.05948 0
M  V30 15067 H 1410.88 -0.874788 3.62494 0
M  V30 15068 N 1413.06 -1.53996 0.335095 0
M  V30 15069 C 1414.31 -2.00772 -0.263997 0
M  V30 15070 C 1414.64 -1.22309 -1.51231 0
M  V30 15071 O 1413.89 -0.296427 -1.93442 0
M  V30 15072 C 1414.19 -3.51769 -0.631907 0
M  V30 15073 C 1413.86 -4.47908 0.518553 0
M  V30 15074 C 1412.52 -4.73912 0.834297 0
M  V30 15075 C 1414.87 -5.04964 1.29078 0
M  V30 15076 C 1412.2 -5.54228 1.92478 0
M  V30 15077 C 1414.55 -5.86469 2.37144 0
M  V30 15078 C 1413.22 -6.1077 2.69288 0
M  V30 15079 H 1412.49 -0.734676 -0.0966033 0
M  V30 15080 H 1415.13 -1.85862 0.46126 0
M  V30 15081 H 1413.44 -3.64466 -1.43776 0
M  V30 15082 H 1415.14 -3.85412 -1.10719 0
M  V30 15083 H 1411.73 -4.27796 0.262392 0
M  V30 15084 H 1415.91 -4.84846 1.0601 0
M  V30 15085 H 1411.17 -5.71285 2.17816 0
M  V30 15086 H 1415.34 -6.29695 2.97417 0
M  V30 15087 H 1412.97 -6.72792 3.53913 0
M  V30 15088 N 1414.54 -0.0635198 -1.57472 0
M  V30 15089 C 1415.5 0.891881 -2.11135 0
M  V30 15090 C 1416.5 1.23182 -1.03358 0
M  V30 15091 O 1417.69 1.16646 -1.2938 0
M  V30 15092 C 1414.83 2.19792 -2.60584 0
M  V30 15093 H 1416.02 0.426461 -2.96852 0
M  V30 15094 H 1413.57 0.185069 -1.552 0
M  V30 15095 H 1414.31 2.70889 -1.78297 0
M  V30 15096 H 1414.09 1.96419 -3.39355 0
M  V30 15097 H 1415.58 2.88203 -3.02206 0
M  V30 15098 N 1416.02 1.56195 0.209972 0
M  V30 15099 C 1417.27 1.80011 0.93402 0
M  V30 15100 C 1417.6 0.635109 1.83521 0
M  V30 15101 O 1416.87 -0.365099 1.91043 0
M  V30 15102 C 1417.16 3.13989 1.76304 0
M  V30 15103 C 1417.01 4.40956 0.887567 0
M  V30 15104 C 1418.33 3.44514 2.73857 0
M  V30 15105 H 1415.45 0.654859 0.338125 0
M  V30 15106 H 1418.09 1.88921 0.20221 0
M  V30 15107 H 1416.24 3.06524 2.38695 0
M  V30 15108 H 1417.91 4.60452 0.279507 0
M  V30 15109 H 1416.15 4.33368 0.193533 0
M  V30 15110 H 1416.83 5.31164 1.50228 0
M  V30 15111 H 1419.3 3.52182 2.216 0
M  V30 15112 H 1418.18 4.39407 3.28957 0
M  V30 15113 H 1418.44 2.6726 3.52171 0
M  V30 15114 N 1417.5 -0.477127 1.50204 0
M  V30 15115 C 1418.75 -1.22722 1.60573 0
M  V30 15116 C 1419.07 -1.92595 0.305326 0
M  V30 15117 O 1418.34 -1.83836 -0.676842 0
M  V30 15118 H 1416.92 -0.455973 0.591691 0
M  V30 15119 H 1419.58 -0.550915 1.86952 0
M  V30 15120 H 1418.67 -1.97837 2.41385 0
M  V30 15121 N 1418.98 -1.3968 -0.729882 0
M  V30 15122 C 1420.2 -1.40654 -1.52418 0
M  V30 15123 C 1420.63 -0.00428997 -1.881 0
M  V30 15124 O 1419.98 0.984023 -1.52272 0
M  V30 15125 C 1420.03 -2.29057 -2.78506 0
M  V30 15126 O 1419.14 -1.72397 -3.74637 0
M  V30 15127 H 1418.48 -0.478761 -0.460091 0
M  V30 15128 H 1421.01 -1.83738 -0.900087 0
M  V30 15129 H 1421.02 -2.43748 -3.27187 0
M  V30 15130 H 1419.69 -3.30961 -2.51868 0
M  V30 15131 H 1418.27 -1.66977 -3.33426 0
M  V30 15132 N 1420.45 0.960609 -1.2494 0
M  V30 15133 C 1421.68 1.7446 -1.12153 0
M  V30 15134 C 1422.1 1.85335 0.321315 0
M  V30 15135 O 1421.46 1.32944 1.23271 0
M  V30 15136 C 1421.51 3.13945 -1.774 0
M  V30 15137 O 1420.61 3.9882 -1.04958 0
M  V30 15138 H 1419.96 0.536007 -0.391909 0
M  V30 15139 H 1422.49 1.2045 -1.65388 0
M  V30 15140 H 1422.5 3.64434 -1.83444 0
M  V30 15141 H 1421.17 3.05346 -2.82377 0
M  V30 15142 H 1419.75 3.57293 -1.06752 0
M  V30 15143 N 1421.93 1.0643 1.16234 0
M  V30 15144 C 1423.16 0.802671 1.91238 0
M  V30 15145 C 1423.58 -0.637222 1.76978 0
M  V30 15146 O 1422.94 -1.44419 1.09603 0
M  V30 15147 C 1422.99 1.20389 3.3991 0
M  V30 15148 O 1422.09 0.343516 4.10967 0
M  V30 15149 H 1421.43 0.29323 0.595745 0
M  V30 15150 H 1423.96 1.42046 1.47255 0
M  V30 15151 H 1423.97 1.17604 3.90683 0
M  V30 15152 H 1422.65 2.2527 3.49608 0
M  V30 15153 H 1421.23 0.433051 3.70377 0
M  V30 15154 N 1423.41 -1.329 0.847073 0
M  V30 15155 C 1424.66 -1.9712 0.445872 0
M  V30 15156 C 1424.98 -1.67398 -1.00014 0
M  V30 15157 O 1424.25 -0.977204 -1.69787 0
M  V30 15158 H 1422.83 -0.729247 0.161887 0
M  V30 15159 H 1425.49 -1.62118 1.08184 0
M  V30 15160 H 1424.59 -3.06575 0.584676 0
M  V30 15161 N 1424.89 -0.604284 -1.45555 0
M  V30 15162 C 1425.82 0.103859 -2.33269 0
M  V30 15163 C 1426.8 0.862104 -1.46635 0
M  V30 15164 O 1427.98 0.833308 -1.75413 0
M  V30 15165 C 1425.11 1.104 -3.29286 0
M  V30 15166 C 1424.07 0.459189 -4.2553 0
M  V30 15167 C 1423.39 1.56734 -5.11213 0
M  V30 15168 C 1424.69 -0.617509 -5.18637 0
M  V30 15169 H 1426.39 -0.628538 -2.92728 0
M  V30 15170 H 1423.93 -0.303711 -1.40761 0
M  V30 15171 H 1425.89 1.60794 -3.89517 0
M  V30 15172 H 1424.61 1.86695 -2.67979 0
M  V30 15173 H 1423.27 -0.0238508 -3.66592 0
M  V30 15174 H 1422.92 2.32049 -4.46276 0
M  V30 15175 H 1422.62 1.14142 -5.76407 0
M  V30 15176 H 1424.14 2.07361 -5.74312 0
M  V30 15177 H 1425.56 -0.197784 -5.72959 0
M  V30 15178 H 1423.95 -0.96499 -5.9229 0
M  V30 15179 H 1425.02 -1.49541 -4.61265 0
M  V30 15180 N 1426.37 1.53816 -0.343257 0
M  V30 15181 C 1427.3 2.27951 0.506005 0
M  V30 15182 C 1428.28 1.29502 1.10287 0
M  V30 15183 O 1429.46 1.58344 1.12432 0
M  V30 15184 C 1426.59 3.0521 1.65723 0
M  V30 15185 C 1425.55 4.11161 1.18871 0
M  V30 15186 C 1424.87 4.76373 2.42843 0
M  V30 15187 C 1426.17 5.21498 0.289403 0
M  V30 15188 H 1427.87 2.99189 -0.112435 0
M  V30 15189 H 1425.41 1.43893 -0.055516 0
M  V30 15190 H 1427.37 3.55811 2.2578 0
M  V30 15191 H 1426.09 2.31624 2.30256 0
M  V30 15192 H 1424.75 3.61473 0.610962 0
M  V30 15193 H 1424.4 3.99381 3.05784 0
M  V30 15194 H 1424.1 5.47955 2.12177 0
M  V30 15195 H 1425.62 5.29758 3.03627 0
M  V30 15196 H 1427.03 5.67736 0.796808 0
M  V30 15197 H 1425.43 6.00054 0.0746366 0
M  V30 15198 H 1426.5 4.80185 -0.674543 0
M  V30 15199 N 1427.84 0.0718701 1.57436 0
M  V30 15200 C 1429.26 -0.460784 1.80924 0
M  V30 15201 C 1429.61 -1.69637 0.985781 0
M  V30 15202 O 1428.73 -2.15395 0.208319 0
M  V30 15203 C 1429.33 -0.842738 3.28151 0
M  V30 15204 C 1427.89 -1.32026 3.52486 0
M  V30 15205 C 1427.03 -0.305466 2.75612 0
M  V30 15206 H 1429.98 0.297566 1.55885 0
M  V30 15207 H 1430 -1.70414 3.40205 0
M  V30 15208 H 1429.52 0.056733 3.88059 0
M  V30 15209 H 1427.62 -2.23822 2.97883 0
M  V30 15210 H 1427.73 -1.29813 4.61178 0
M  V30 15211 H 1426.09 -0.782758 2.42374 0
M  V30 15212 H 1426.88 0.586279 3.38257 0
M  V30 15213 N 1429.32 -1.56304 -0.201686 0
M  V30 15214 C 1430.25 -1.97046 -1.25281 0
M  V30 15215 C 1431.23 -0.841458 -1.47829 0
M  V30 15216 O 1432.42 -1.10529 -1.59678 0
M  V30 15217 C 1429.55 -2.30429 -2.59845 0
M  V30 15218 C 1428.5 -3.46006 -2.5192 0
M  V30 15219 C 1427.83 -3.65047 -3.90697 0
M  V30 15220 C 1429.13 -4.80391 -2.04992 0
M  V30 15221 H 1430.82 -2.85099 -0.914272 0
M  V30 15222 H 1428.37 -1.37166 -0.438359 0
M  V30 15223 H 1430.32 -2.57525 -3.33555 0
M  V30 15224 H 1429.05 -1.39251 -2.95426 0
M  V30 15225 H 1427.7 -3.18991 -1.80667 0
M  V30 15226 H 1427.35 -2.71211 -4.2362 0
M  V30 15227 H 1427.05 -4.42796 -3.86271 0
M  V30 15228 H 1428.58 -3.94512 -4.66039 0
M  V30 15229 H 1429.99 -5.06561 -2.68456 0
M  V30 15230 H 1428.39 -5.61563 -2.11582 0
M  V30 15231 H 1429.46 -4.74416 -1.00288 0
M  V30 15232 N 1430.8 0.469154 -1.50455 0
M  V30 15233 C 1431.73 1.57493 -1.7239 0
M  V30 15234 C 1432.71 1.60161 -0.572915 0
M  V30 15235 O 1433.9 1.76397 -0.812259 0
M  V30 15236 C 1431.03 2.95804 -1.81981 0
M  V30 15237 C 1429.98 3.08001 -2.97185 0
M  V30 15238 C 1429.31 4.4798 -2.91922 0
M  V30 15239 C 1430.61 2.85039 -4.37665 0
M  V30 15240 H 1432.3 1.39389 -2.64974 0
M  V30 15241 H 1429.85 0.669133 -1.27509 0
M  V30 15242 H 1431.8 3.73091 -1.95911 0
M  V30 15243 H 1430.52 3.15068 -0.86021 0
M  V30 15244 H 1429.18 2.33148 -2.82909 0
M  V30 15245 H 1428.83 4.64165 -1.93803 0
M  V30 15246 H 1428.53 4.57076 -3.69263 0
M  V30 15247 H 1430.05 5.27284 -3.07903 0
M  V30 15248 H 1431.47 3.52074 -4.52456 0
M  V30 15249 H 1429.87 3.05578 -5.16471 0
M  V30 15250 H 1430.94 1.8088 -4.499 0
M  V30 15251 N 1432.28 1.40065 0.722464 0
M  V30 15252 C 1433.21 1.42532 1.84951 0
M  V30 15253 C 1434.19 0.287082 1.6766 0
M  V30 15254 O 1435.37 0.494715 1.87793 0
M  V30 15255 C 1432.5 1.28041 3.22836 0
M  V30 15256 C 1431.46 2.39396 3.54787 0
M  V30 15257 C 1430.78 2.09986 4.91742 0
M  V30 15258 C 1432.08 3.81729 3.56483 0
M  V30 15259 H 1433.78 2.36851 1.83144 0
M  V30 15260 H 1431.32 1.14005 0.879714 0
M  V30 15261 H 1433.28 1.28385 4.01367 0
M  V30 15262 H 1432 0.301947 3.25201 0
M  V30 15263 H 1430.66 2.3829 2.78592 0
M  V30 15264 H 1430.31 1.10547 4.90702 0
M  V30 15265 H 1430.01 2.84586 5.14086 0
M  V30 15266 H 1431.53 2.12 5.72615 0
M  V30 15267 H 1432.95 3.84696 4.25067 0
M  V30 15268 H 1431.34 4.55791 3.90351 0
M  V30 15269 H 1432.41 4.11807 2.56014 0
M  V30 15270 N 1433.76 -0.95397 1.25448 0
M  V30 15271 C 1434.69 -2.06828 1.08372 0
M  V30 15272 C 1435.67 -1.70098 -0.00741585 0
M  V30 15273 O 1436.85 -1.93521 0.16224 0
M  V30 15274 C 1433.98 -3.40124 0.702365 0
M  V30 15275 C 1432.94 -3.90865 1.74381 0
M  V30 15276 C 1432.26 -5.20663 1.21712 0
M  V30 15277 C 1433.56 -4.17169 3.14273 0
M  V30 15278 H 1435.26 -2.21372 2.01581 0
M  V30 15279 H 1432.8 -1.06374 0.970592 0
M  V30 15280 H 1434.76 -4.17529 0.569837 0
M  V30 15281 H 1433.48 -3.2552 -0.265428 0
M  V30 15282 H 1432.14 -3.15628 1.86479 0
M  V30 15283 H 1431.79 -5.02429 0.23954 0
M  V30 15284 H 1431.49 -5.55581 1.91319 0
M  V30 15285 H 1433.01 -6.00665 1.097 0
M  V30 15286 H 1434.43 -4.85231 3.05325 0
M  V30 15287 H 1432.82 -4.63344 3.81356 0
M  V30 15288 H 1433.89 -3.23421 3.61285 0
M  V30 15289 N 1435.24 -1.07045 -1.15668 0
M  V30 15290 C 1436.17 -0.709413 -2.22463 0
M  V30 15291 C 1437.15 0.30169 -1.67403 0
M  V30 15292 O 1438.33 0.175131 -1.93409 0
M  V30 15293 C 1435.46 -0.103121 -3.47147 0
M  V30 15294 C 1434.42 -1.04103 -4.15146 0
M  V30 15295 C 1433.74 -0.297656 -5.33871 0
M  V30 15296 C 1435.04 -2.37332 -4.65264 0
M  V30 15297 H 1436.74 -1.60227 -2.52918 0
M  V30 15298 H 1434.28 -0.771846 -1.21567 0
M  V30 15299 H 1436.23 0.161371 -4.21091 0
M  V30 15300 H 1434.96 0.824792 -3.16014 0
M  V30 15301 H 1433.62 -1.2904 -3.43139 0
M  V30 15302 H 1433.27 0.633618 -4.98993 0
M  V30 15303 H 1432.97 -0.922789 -5.80309 0
M  V30 15304 H 1434.49 -0.0408892 -6.10586 0
M  V30 15305 H 1435.9 -2.1674 -5.30751 0
M  V30 15306 H 1434.3 -2.95412 -5.22352 0
M  V30 15307 H 1435.37 -2.99859 -3.81068 0
M  V30 15308 N 1436.71 1.32449 -0.85411 0
M  V30 15309 C 1437.64 2.31383 -0.313697 0
M  V30 15310 C 1438.62 1.59656 0.586858 0
M  V30 15311 O 1439.81 1.87459 0.507216 0
M  V30 15312 C 1436.94 3.43693 0.499235 0
M  V30 15313 C 1435.89 4.26899 -0.306839 0
M  V30 15314 C 1435.22 5.30966 0.630795 0
M  V30 15315 C 1436.52 4.99318 -1.53229 0
M  V30 15316 H 1438.21 2.76832 -1.14037 0
M  V30 15317 H 1435.76 1.33091 -0.549805 0
M  V30 15318 H 1437.71 4.11944 0.887709 0
M  V30 15319 H 1436.44 2.96971 1.35926 0
M  V30 15320 H 1435.1 3.60294 -0.677061 0
M  V30 15321 H 1434.74 4.80498 1.48765 0
M  V30 15322 H 1434.44 5.87522 0.0954635 0
M  V30 15323 H 1435.97 6.0208 1.01646 0
M  V30 15324 H 1437.38 5.60253 -1.21614 0
M  V30 15325 H 1435.78 5.65596 -2.00552 0
M  V30 15326 H 1436.85 4.27213 -2.29383 0
M  V30 15327 N 1438.19 0.611994 1.45232 0
M  V30 15328 C 1439.12 -0.0914869 2.33321 0
M  V30 15329 C 1440.1 -0.854315 1.4709 0
M  V30 15330 O 1441.29 -0.823994 1.75852 0
M  V30 15331 C 1438.42 -1.08652 3.29867 0
M  V30 15332 C 1437.37 -0.436615 4.25767 0
M  V30 15333 C 1436.7 -1.54021 5.12037 0
M  V30 15334 C 1438 0.645005 5.18302 0
M  V30 15335 H 1439.69 0.644053 2.92391 0
M  V30 15336 H 1437.24 0.311171 1.40598 0
M  V30 15337 H 1439.19 -1.58726 3.90364 0
M  V30 15338 H 1437.91 -1.85271 2.68965 0
M  V30 15339 H 1436.57 0.0432918 3.66574 0
M  V30 15340 H 1436.22 -2.29679 4.475 0
M  V30 15341 H 1435.92 -1.11084 5.77005 0
M  V30 15342 H 1437.45 -2.04313 5.75403 0
M  V30 15343 H 1438.86 0.228166 5.72846 0
M  V30 15344 H 1437.26 0.996387 5.9177 0
M  V30 15345 H 1438.33 1.51985 4.60466 0
M  V30 15346 N 1439.67 -1.53632 0.351409 0
M  V30 15347 C 1441.08 -1.86241 -0.130834 0
M  V30 15348 C 1441.43 -1.27243 -1.49344 0
M  V30 15349 O 1440.56 -0.589006 -2.0823 0
M  V30 15350 C 1441.15 -3.37919 -0.244179 0
M  V30 15351 C 1439.71 -3.70377 -0.670662 0
M  V30 15352 C 1438.86 -2.76643 0.190813 0
M  V30 15353 H 1441.81 -1.48083 0.570724 0
M  V30 15354 H 1441.83 -3.65137 -1.07029 0
M  V30 15355 H 1441.34 -3.8083 0.747688 0
M  V30 15356 H 1439.44 -3.33015 -1.67127 0
M  V30 15357 H 1439.56 -4.76934 -0.455102 0
M  V30 15358 H 1437.92 -2.52446 -0.338092 0
M  V30 15359 H 1438.7 -3.22385 1.17996 0
M  V30 15360 N 1441.15 -0.0802183 -1.57396 0
M  V30 15361 C 1442.08 0.881426 -2.16225 0
M  V30 15362 C 1443.06 1.30459 -1.09154 0
M  V30 15363 O 1444.24 1.37413 -1.37227 0
M  V30 15364 C 1441.37 2.14599 -2.73065 0
M  V30 15365 C 1440.33 1.86195 -3.85377 0
M  V30 15366 C 1439.65 3.19354 -4.28856 0
M  V30 15367 C 1440.95 1.16059 -5.09242 0
M  V30 15368 H 1442.65 0.391325 -2.96832 0
M  V30 15369 H 1440.19 0.186785 -1.42783 0
M  V30 15370 H 1442.15 2.82297 -3.12868 0
M  V30 15371 H 1440.87 2.65866 -1.89691 0
M  V30 15372 H 1439.53 1.209 -3.46091 0
M  V30 15373 H 1439.18 3.68479 -3.42392 0
M  V30 15374 H 1438.88 3.01137 -5.04569 0
M  V30 15375 H 1440.4 3.88235 -4.71281 0
M  V30 15376 H 1441.82 1.7384 -5.46308 0
M  V30 15377 H 1440.21 1.08072 -5.90288 0
M  V30 15378 H 1441.28 0.14098 -4.84695 0
M  V30 15379 N 1442.63 1.56409 0.193394 0
M  V30 15380 C 1443.56 1.97707 1.24234 0
M  V30 15381 C 1444.54 0.849286 1.47381 0
M  V30 15382 O 1445.72 1.11374 1.59089 0
M  V30 15383 C 1442.85 2.31804 2.5862 0
M  V30 15384 C 1441.81 3.47337 2.50082 0
M  V30 15385 C 1441.13 3.67114 3.88756 0
M  V30 15386 C 1442.43 4.81472 2.02441 0
M  V30 15387 H 1444.13 2.8558 0.89914 0
M  V30 15388 H 1441.67 1.37396 0.431078 0
M  V30 15389 H 1443.62 2.5929 3.32185 0
M  V30 15390 H 1442.35 1.40816 2.94684 0
M  V30 15391 H 1441.01 3.19944 1.78973 0
M  V30 15392 H 1440.66 2.73454 4.22175 0
M  V30 15393 H 1440.36 4.44838 3.83918 0
M  V30 15394 H 1441.88 3.96978 4.6394 0
M  V30 15395 H 1443.29 5.07978 2.65766 0
M  V30 15396 H 1441.69 5.62677 2.08601 0
M  V30 15397 H 1442.76 4.74941 0.977704 0
M  V30 15398 N 1444.1 -0.461169 1.50702 0
M  V30 15399 C 1445.07 -1.54032 1.69725 0
M  V30 15400 C 1446.07 -1.50445 0.567707 0
M  V30 15401 O 1447.26 -1.52889 0.834901 0
M  V30 15402 C 1444.39 -2.93642 1.73168 0
M  V30 15403 H 1445.58 -1.38478 2.66015 0
M  V30 15404 H 1443.13 -0.688235 1.40332 0
M  V30 15405 H 1443.87 -3.14629 0.786078 0
M  V30 15406 H 1443.65 -2.97652 2.55236 0
M  V30 15407 H 1445.14 -3.71972 1.89807 0
M  V30 15408 N 1445.58 -1.40446 -0.715026 0
M  V30 15409 C 1446.54 -1.40506 -1.81082 0
M  V30 15410 C 1447.54 -0.298768 -1.58 0
M  V30 15411 O 1448.73 -0.5577 -1.65031 0
M  V30 15412 C 1445.87 -1.19735 -3.19181 0
M  V30 15413 H 1447.06 -2.38034 -1.82427 0
M  V30 15414 H 1444.61 -1.26303 -0.920718 0
M  V30 15415 H 1445.35 -0.229695 -3.23486 0
M  V30 15416 H 1445.13 -1.99871 -3.37334 0
M  V30 15417 H 1446.62 -1.22566 -3.99208 0
M  V30 15418 N 1447.06 0.947303 -1.25952 0
M  V30 15419 C 1447.99 2.0487 -1.02767 0
M  V30 15420 C 1449 1.62797 0.00985984 0
M  V30 15421 O 1450.19 1.77018 -0.229527 0
M  V30 15422 C 1447.29 3.34682 -0.533048 0
M  V30 15423 C 1446.47 4.05555 -1.63841 0
M  V30 15424 C 1445.53 5.13638 -1.1429 0
M  V30 15425 O 1444.55 5.38682 -1.83876 0
M  V30 15426 N 1445.75 5.80499 0.0119377 0
M  V30 15427 H 1448.52 2.25327 -1.97605 0
M  V30 15428 H 1446.08 1.11636 -1.17256 0
M  V30 15429 H 1448.07 4.04273 -0.185868 0
M  V30 15430 H 1446.64 3.10941 0.321585 0
M  V30 15431 H 1445.86 3.29962 -2.15683 0
M  V30 15432 H 1447.15 4.49661 -2.38081 0
M  V30 15433 H 1446.55 5.62581 0.593212 0
M  V30 15434 H 1445.1 6.51109 0.30009 0
M  V30 15435 N 1448.54 1.07657 1.15099 0
M  V30 15436 C 1449.79 0.800025 1.85591 0
M  V30 15437 C 1450.11 -0.675973 1.82909 0
M  V30 15438 O 1449.38 -1.48971 1.27218 0
M  V30 15439 H 1447.96 0.292958 0.687157 0
M  V30 15440 H 1450.62 1.36096 1.39513 0
M  V30 15441 H 1449.72 1.13733 2.90639 0
M  V30 15442 N 1450.02 -1.31994 0.861122 0
M  V30 15443 C 1451.26 -1.96636 0.466754 0
M  V30 15444 C 1451.59 -1.6845 -0.982328 0
M  V30 15445 O 1450.86 -0.995157 -1.68741 0
M  V30 15446 H 1449.44 -0.727489 0.169613 0
M  V30 15447 H 1452.1 -1.60962 1.09897 0
M  V30 15448 H 1451.19 -3.05937 0.61716 0
M  V30 15449 N 1451.49 -0.619688 -1.44906 0
M  V30 15450 C 1452.74 -0.119397 -2.01747 0
M  V30 15451 C 1453.06 1.25904 -1.48907 0
M  V30 15452 O 1452.33 1.83417 -0.688104 0
M  V30 15453 H 1450.91 -0.0411482 -0.745866 0
M  V30 15454 H 1453.58 -0.803813 -1.77552 0
M  V30 15455 H 1452.67 -0.078368 -3.12002 0
M  V30 15456 N 1452.97 1.53444 -0.359552 0
M  V30 15457 C 1454.22 2.00769 0.231564 0
M  V30 15458 C 1454.54 1.2487 1.49775 0
M  V30 15459 O 1453.81 0.360284 1.92558 0
M  V30 15460 H 1452.39 0.741732 0.0885581 0
M  V30 15461 H 1455.05 1.88785 -0.484397 0
M  V30 15462 H 1454.15 3.0865 0.462789 0
M  V30 15463 N 1454.45 0.0885642 1.57351 0
M  V30 15464 C 1455.38 -0.869946 2.16689 0
M  V30 15465 C 1456.36 -1.29878 1.09844 0
M  V30 15466 O 1457.55 -1.36684 1.37954 0
M  V30 15467 C 1454.68 -2.13148 2.74199 0
M  V30 15468 C 1453.63 -1.84149 3.86359 0
M  V30 15469 C 1452.96 -3.17075 4.30543 0
M  V30 15470 C 1454.26 -1.13357 5.09851 0
M  V30 15471 H 1455.95 -0.375578 2.97035 0
M  V30 15472 H 1453.5 -0.17921 1.42881 0
M  V30 15473 H 1455.45 -2.80634 3.14361 0
M  V30 15474 H 1454.17 -2.64856 1.91098 0
M  V30 15475 H 1452.83 -1.19063 3.46727 0
M  V30 15476 H 1452.48 -3.66658 3.44342 0
M  V30 15477 H 1452.18 -2.98457 5.06159 0
M  V30 15478 H 1453.7 -3.85731 4.73333 0
M  V30 15479 H 1455.12 -1.70941 5.47222 0
M  V30 15480 H 1453.52 -1.0494 5.90853 0
M  V30 15481 H 1454.59 -0.115273 4.84763 0
M  V30 15482 N 1455.93 -1.56509 -0.185096 0
M  V30 15483 C 1456.86 -1.91878 -1.25361 0
M  V30 15484 C 1457.87 -0.810443 -1.41194 0
M  V30 15485 O 1459.06 -1.08887 -1.41442 0
M  V30 15486 C 1456.16 -2.14433 -2.62434 0
M  V30 15487 C 1455.34 -3.45618 -2.6808 0
M  V30 15488 C 1454.39 -3.57165 -3.86419 0
M  V30 15489 O 1453.42 -4.29904 -3.73056 0
M  V30 15490 N 1454.62 -2.90993 -5.02298 0
M  V30 15491 H 1457.39 -2.84133 -0.953328 0
M  V30 15492 H 1454.95 -1.57498 -0.374955 0
M  V30 15493 H 1456.94 -2.19437 -3.40044 0
M  V30 15494 H 1455.51 -1.28629 -2.84909 0
M  V30 15495 H 1454.73 -3.52394 -1.76669 0
M  V30 15496 H 1456.02 -4.31968 -2.68851 0
M  V30 15497 H 1455.42 -2.31743 -5.16054 0
M  V30 15498 H 1453.97 -3.01611 -5.77819 0
M  V30 15499 N 1457.41 0.45317 -1.50944 0
M  V30 15500 C 1458.37 1.5313 -1.7054 0
M  V30 15501 C 1459.37 1.50142 -0.575678 0
M  V30 15502 O 1460.56 1.52444 -0.842997 0
M  V30 15503 C 1457.69 2.92719 -1.74723 0
M  V30 15504 H 1458.88 1.37066 -2.66745 0
M  V30 15505 H 1456.44 0.680783 -1.40695 0
M  V30 15506 H 1457.17 3.14208 -0.802753 0
M  V30 15507 H 1456.96 2.96295 -2.56811 0
M  V30 15508 H 1458.45 3.7096 -1.91777 0
M  V30 15509 N 1458.88 1.40823 0.707568 0
M  V30 15510 C 1459.85 1.41464 1.80334 0
M  V30 15511 C 1460.85 0.307143 1.57839 0
M  V30 15512 O 1462.04 0.566444 1.64733 0
M  V30 15513 C 1459.17 1.21426 3.18541 0
M  V30 15514 H 1460.36 2.38998 1.81162 0
M  V30 15515 H 1457.92 1.2679 0.914007 0
M  V30 15516 H 1458.65 0.246847 3.23359 0
M  V30 15517 H 1458.44 2.01657 3.36269 0
M  V30 15518 H 1459.93 1.24681 3.98553 0
M  V30 15519 N 1460.36 -0.94061 1.26453 0
M  V30 15520 C 1461.29 -2.05667 1.10559 0
M  V30 15521 C 1462.27 -1.70097 0.0106258 0
M  V30 15522 O 1463.46 -1.93338 0.182756 0
M  V30 15523 C 1460.59 -3.3936 0.7384 0
M  V30 15524 C 1459.54 -3.88993 1.78517 0
M  V30 15525 C 1458.87 -5.19343 1.27228 0
M  V30 15526 C 1460.17 -4.13812 3.1868 0
M  V30 15527 H 1461.86 -2.19221 2.03918 0
M  V30 15528 H 1459.41 -1.05339 0.98182 0
M  V30 15529 H 1461.36 -4.16902 0.61409 0
M  V30 15530 H 1460.09 -3.25783 -0.230887 0
M  V30 15531 H 1458.74 -3.13633 1.89816 0
M  V30 15532 H 1458.39 -5.02147 0.292816 0
M  V30 15533 H 1458.09 -5.53521 1.97201 0
M  V30 15534 H 1459.62 -5.99468 1.16065 0
M  V30 15535 H 1461.03 -4.81966 3.10455 0
M  V30 15536 H 1459.43 -4.59273 3.86249 0
M  V30 15537 H 1460.5 -3.19571 3.64695 0
M  V30 15538 N 1461.84 -1.08266 -1.14527 0
M  V30 15539 C 1462.77 -0.732968 -2.21698 0
M  V30 15540 C 1463.75 0.283917 -1.67714 0
M  V30 15541 O 1464.94 0.154607 -1.93584 0
M  V30 15542 C 1462.07 -0.139935 -3.47018 0
M  V30 15543 C 1461.02 -1.08501 -4.14019 0
M  V30 15544 C 1460.35 -0.354263 -5.33525 0
M  V30 15545 C 1461.65 -2.42254 -4.62721 0
M  V30 15546 H 1463.34 -1.629 -2.51205 0
M  V30 15547 H 1460.89 -0.784696 -1.20742 0
M  V30 15548 H 1462.84 0.1167 -4.21238 0
M  V30 15549 H 1461.56 0.791228 -3.16871 0
M  V30 15550 H 1460.22 -1.32672 -3.41751 0
M  V30 15551 H 1459.87 0.580658 -4.99637 0
M  V30 15552 H 1459.57 -0.984287 -5.79297 0
M  V30 15553 H 1461.09 -0.105648 -6.10509 0
M  V30 15554 H 1462.51 -2.22357 -5.28422 0
M  V30 15555 H 1460.91 -3.00935 -5.1919 0
M  V30 15556 H 1461.98 -3.03884 -3.77866 0
M  V30 15557 N 1463.32 1.31536 -0.86811 0
M  V30 15558 C 1464.28 2.26849 -0.327456 0
M  V30 15559 C 1465.28 1.52142 0.520514 0
M  V30 15560 O 1466.47 1.71044 0.330088 0
M  V30 15561 C 1463.6 3.36673 0.535174 0
M  V30 15562 H 1464.8 2.76184 -1.16886 0
M  V30 15563 H 1462.35 1.42437 -0.643545 0
M  V30 15564 H 1463.09 2.92627 1.39785 0
M  V30 15565 H 1462.87 3.92034 -0.0719835 0
M  V30 15566 H 1464.36 4.07658 0.905786 0
M  V30 15567 N 1464.8 0.627364 1.44575 0
M  V30 15568 C 1465.73 -0.066735 2.33405 0
M  V30 15569 C 1466.71 -0.838666 1.47988 0
M  V30 15570 O 1467.89 -0.805296 1.76716 0
M  V30 15571 C 1465.02 -1.05148 3.31 0
M  V30 15572 C 1463.98 -0.391433 4.26206 0
M  V30 15573 C 1463.3 -1.48581 5.13642 0
M  V30 15574 C 1464.6 0.699942 5.17589 0
M  V30 15575 H 1466.3 0.675029 2.91691 0
M  V30 15576 H 1463.84 0.326066 1.4026 0
M  V30 15577 H 1465.8 -1.54576 3.92026 0
M  V30 15578 H 1464.52 -1.82408 2.70915 0
M  V30 15579 H 1463.18 0.0821694 3.66508 0
M  V30 15580 H 1462.83 -2.2492 4.49911 0
M  V30 15581 H 1462.53 -1.04957 5.7815 0
M  V30 15582 H 1464.05 -1.98198 5.77538 0
M  V30 15583 H 1465.47 0.288911 5.72572 0
M  V30 15584 H 1463.86 1.0591 5.9068 0
M  V30 15585 H 1464.93 1.5686 4.58828 0
M  V30 15586 N 1466.28 -1.53251 0.367684 0
M  V30 15587 C 1467.19 -2.29518 -0.485669 0
M  V30 15588 C 1468.2 -1.35568 -1.09075 0
M  V30 15589 O 1469.38 -1.68626 -1.10124 0
M  V30 15590 C 1466.44 -3.07115 -1.60876 0
M  V30 15591 C 1465.5 -4.16736 -1.031 0
M  V30 15592 C 1464.74 -4.90624 -2.10056 0
M  V30 15593 O 1464.96 -4.64393 -3.31203 0
M  V30 15594 O 1463.89 -5.76503 -1.72996 0
M  V30 15595 H 1467.72 -3.034 0.135017 0
M  V30 15596 H 1465.3 -1.48816 0.132005 0
M  V30 15597 H 1467.19 -3.55564 -2.26168 0
M  V30 15598 H 1465.86 -2.36068 -2.21481 0
M  V30 15599 H 1464.77 -3.72534 -0.341928 0
M  V30 15600 H 1466.1 -4.89956 -0.469473 0
M  V30 15601 N 1467.75 -0.0969077 -1.57302 0
M  V30 15602 C 1469 0.567212 -1.94706 0
M  V30 15603 C 1469.33 1.67721 -0.978937 0
M  V30 15604 O 1468.61 1.94496 -0.0123016 0
M  V30 15605 C 1468.89 1.12069 -3.42217 0
M  V30 15606 C 1468.74 0.015615 -4.49797 0
M  V30 15607 C 1470.06 2.0185 -3.91081 0
M  V30 15608 H 1467.18 0.204716 -0.707997 0
M  V30 15609 H 1469.82 -0.167984 -1.89256 0
M  V30 15610 H 1467.97 1.74723 -3.46993 0
M  V30 15611 H 1469.65 -0.61871 -4.57132 0
M  V30 15612 H 1467.89 -0.650529 -4.28895 0
M  V30 15613 H 1468.56 0.443724 -5.50214 0
M  V30 15614 H 1471.04 1.49098 -3.8847 0
M  V30 15615 H 1469.91 2.37502 -4.94858 0
M  V30 15616 H 1470.17 2.93659 -3.3048 0
M  V30 15617 N 1469.23 1.56605 0.176793 0
M  V30 15618 C 1470.48 1.81324 0.892535 0
M  V30 15619 C 1470.8 0.67301 1.83018 0
M  V30 15620 O 1470.07 -0.307498 1.93472 0
M  V30 15621 H 1468.65 0.668881 0.332576 0
M  V30 15622 H 1471.31 1.94086 0.17792 0
M  V30 15623 H 1470.41 2.75168 1.47272 0
M  V30 15624 N 1470.71 -0.445159 1.51182 0
M  V30 15625 C 1471.64 -1.5473 1.74874 0
M  V30 15626 C 1472.62 -1.5923 0.598323 0
M  V30 15627 O 1473.81 -1.75083 0.840219 0
M  V30 15628 C 1470.94 -2.92872 1.86664 0
M  V30 15629 C 1469.89 -3.03235 3.02048 0
M  V30 15630 C 1469.22 -4.43279 2.99012 0
M  V30 15631 C 1470.52 -2.7804 4.42144 0
M  V30 15632 H 1472.21 -1.35156 2.67158 0
M  V30 15633 H 1469.76 -0.648763 1.28558 0
M  V30 15634 H 1471.71 -3.69927 2.01822 0
M  V30 15635 H 1470.43 -3.1366 0.910225 0
M  V30 15636 H 1469.09 -2.28617 2.86583 0
M  V30 15637 H 1468.74 -4.61023 2.01163 0
M  V30 15638 H 1468.44 -4.51144 3.76488 0
M  V30 15639 H 1469.96 -5.22319 3.16252 0
M  V30 15640 H 1471.38 -3.44831 4.58 0
M  V30 15641 H 1469.77 -2.97323 5.21267 0
M  V30 15642 H 1470.84 -1.737 4.52721 0
M  V30 15643 N 1472.19 -1.41197 -0.700089 0
M  V30 15644 C 1473.43 -1.40519 -1.46227 0
M  V30 15645 C 1473.77 -0.0126108 -1.94196 0
M  V30 15646 O 1473.04 0.958837 -1.69223 0
M  V30 15647 C 1473.32 -2.40808 -2.67738 0
M  V30 15648 C 1473.18 -3.89154 -2.25563 0
M  V30 15649 C 1474.5 -2.38415 -3.69927 0
M  V30 15650 H 1471.62 -0.511724 -0.530384 0
M  V30 15651 H 1474.26 -1.72441 -0.797754 0
M  V30 15652 H 1472.41 -2.13717 -3.24434 0
M  V30 15653 H 1474.08 -4.27132 -1.74229 0
M  V30 15654 H 1472.32 -4.04239 -1.57395 0
M  V30 15655 H 1472.99 -4.54866 -3.12731 0
M  V30 15656 H 1475.47 -2.62447 -3.22895 0
M  V30 15657 H 1474.35 -3.10609 -4.52563 0
M  V30 15658 H 1474.61 -1.40116 -4.19309 0
M  V30 15659 N 1473.67 0.933891 -1.2695 0
M  V30 15660 C 1474.91 1.67759 -1.12701 0
M  V30 15661 C 1475.23 1.92207 0.328848 0
M  V30 15662 O 1474.5 1.52394 1.23097 0
M  V30 15663 H 1473.08 0.621729 -0.41408 0
M  V30 15664 H 1475.75 1.1217 -1.59386 0
M  V30 15665 H 1474.84 2.64834 -1.65135 0
M  V30 15666 N 1475.14 1.08871 1.13951 0
M  V30 15667 C 1476.07 0.744715 2.21306 0
M  V30 15668 C 1477.05 -0.275019 1.67862 0
M  V30 15669 O 1478.24 -0.144339 1.93663 0
M  V30 15670 C 1475.37 0.158336 3.46939 0
M  V30 15671 C 1474.32 1.10695 4.13438 0
M  V30 15672 C 1473.65 0.382552 5.3333 0
M  V30 15673 C 1474.95 2.44704 4.61429 0
M  V30 15674 H 1476.64 1.6423 2.50337 0
M  V30 15675 H 1474.19 0.791088 1.20324 0
M  V30 15676 H 1476.14 -0.0943587 4.21294 0
M  V30 15677 H 1474.87 -0.774413 3.17286 0
M  V30 15678 H 1473.53 1.34482 3.41043 0
M  V30 15679 H 1473.17 -0.554153 4.99938 0
M  V30 15680 H 1472.87 1.01499 5.78767 0
M  V30 15681 H 1474.4 0.138023 6.10444 0
M  V30 15682 H 1475.81 2.25156 5.27236 0
M  V30 15683 H 1474.21 3.03684 5.17586 0
M  V30 15684 H 1475.28 3.05883 3.76249 0
M  V30 15685 N 1476.62 -1.31073 0.875073 0
M  V30 15686 C 1477.87 -1.9613 0.487584 0
M  V30 15687 C 1478.19 -1.69482 -0.964407 0
M  V30 15688 O 1477.46 -1.013 -1.67676 0
M  V30 15689 H 1476.04 -0.725649 0.177319 0
M  V30 15690 H 1478.7 -1.59787 1.11598 0
M  V30 15691 H 1477.8 -3.05265 0.649574 0
M  V30 15692 N 1478.1 -0.635022 -1.4424 0
M  V30 15693 C 1479.06 0.0579377 -2.29127 0
M  V30 15694 C 1480.06 0.768489 -1.41248 0
M  V30 15695 O 1481.25 0.612489 -1.63077 0
M  V30 15696 C 1478.39 1.09266 -3.22914 0
M  V30 15697 H 1479.58 -0.688723 -2.91885 0
M  V30 15698 H 1477.13 -0.395347 -1.51217 0
M  V30 15699 H 1477.87 1.86917 -2.65014 0
M  V30 15700 H 1477.65 0.587036 -3.87681 0
M  V30 15701 H 1479.14 1.57716 -3.86672 0
M  V30 15702 N 1479.58 1.53054 -0.375806 0
M  V30 15703 C 1480.8 2.06296 0.213708 0
M  V30 15704 C 1481.23 1.24675 1.40846 0
M  V30 15705 O 1480.59 0.268371 1.79303 0
M  V30 15706 C 1480.63 3.55981 0.575301 0
M  V30 15707 O 1479.74 3.77023 1.67115 0
M  V30 15708 H 1479.08 0.66338 0.0286922 0
M  V30 15709 H 1481.61 1.97362 -0.539371 0
M  V30 15710 H 1481.62 3.99187 0.843431 0
M  V30 15711 H 1480.29 4.14829 -0.298258 0
M  V30 15712 H 1478.87 3.45712 1.39778 0
M  V30 15713 N 1481.06 0.105248 1.57248 0
M  V30 15714 C 1482.29 -0.563339 1.98771 0
M  V30 15715 C 1482.69 -1.6163 0.98348 0
M  V30 15716 O 1482.04 -1.83669 -0.0337474 0
M  V30 15717 C 1482.1 -1.26026 3.36686 0
M  V30 15718 C 1481.76 -0.356865 4.55605 0
M  V30 15719 C 1482.76 0.399055 5.18366 0
M  V30 15720 C 1480.45 -0.271954 5.01563 0
M  V30 15721 C 1482.44 1.22776 6.25464 0
M  V30 15722 C 1480.13 0.560395 6.08525 0
M  V30 15723 C 1481.12 1.30889 6.70341 0
M  V30 15724 O 1480.81 2.12745 7.75239 0
M  V30 15725 H 1480.54 -0.154882 0.658018 0
M  V30 15726 H 1483.1 0.184266 2.04572 0
M  V30 15727 H 1481.33 -2.05465 3.27599 0
M  V30 15728 H 1483.02 -1.82439 3.62589 0
M  V30 15729 H 1483.78 0.343247 4.83784 0
M  V30 15730 H 1479.66 -0.844224 4.53204 0
M  V30 15731 H 1483.21 1.81248 6.73643 0
M  V30 15732 H 1479.1 0.617647 6.42538 0
M  V30 15733 H 1479.87 2.05537 7.92273 0
M  V30 15734 N 1482.53 -1.56697 -0.168486 0
M  V30 15735 C 1483.46 -1.99659 -1.21073 0
M  V30 15736 C 1484.45 -0.872625 -1.46011 0
M  V30 15737 O 1485.63 -1.13891 -1.57297 0
M  V30 15738 C 1482.76 -2.35889 -2.54899 0
M  V30 15739 C 1481.71 -3.51272 -2.44524 0
M  V30 15740 C 1481.04 -3.73253 -3.82866 0
M  V30 15741 C 1482.34 -4.84631 -1.94756 0
M  V30 15742 H 1484.03 -2.86974 -0.853593 0
M  V30 15743 H 1481.58 -1.38065 -0.409165 0
M  V30 15744 H 1483.53 -2.64542 -3.28017 0
M  V30 15745 H 1482.26 -1.45486 -2.92406 0
M  V30 15746 H 1480.92 -3.22751 -1.7386 0
M  V30 15747 H 1480.56 -2.80136 -4.17772 0
M  V30 15748 H 1480.26 -4.5089 -3.76792 0
M  V30 15749 H 1481.79 -4.04309 -4.57566 0
M  V30 15750 H 1483.2 -5.12142 -2.5765 0
M  V30 15751 H 1481.6 -5.65925 -1.99623 0
M  V30 15752 H 1482.67 -4.76436 -0.902021 0
M  V30 15753 N 1484.01 0.437135 -1.51416 0
M  V30 15754 C 1484.94 1.538 -1.75692 0
M  V30 15755 C 1485.92 1.5891 -0.606759 0
M  V30 15756 O 1487.11 1.74635 -0.849492 0
M  V30 15757 C 1484.24 2.91877 -1.88215 0
M  V30 15758 C 1483.19 3.01628 -3.03652 0
M  V30 15759 C 1482.52 4.41687 -3.01358 0
M  V30 15760 C 1483.82 2.75691 -4.43612 0
M  V30 15761 H 1485.51 1.33737 -2.67871 0
M  V30 15762 H 1483.06 0.641936 -1.289 0
M  V30 15763 H 1485.01 3.68851 -2.03781 0
M  V30 15764 H 1483.74 3.13173 -0.926847 0
M  V30 15765 H 1482.39 2.27094 -2.87791 0
M  V30 15766 H 1482.04 4.5995 -2.03605 0
M  V30 15767 H 1481.74 4.49141 -3.78875 0
M  V30 15768 H 1483.27 5.20634 -3.19018 0
M  V30 15769 H 1484.68 3.42398 -4.59822 0
M  V30 15770 H 1483.08 2.94554 -5.22836 0
M  V30 15771 H 1484.15 1.71297 -4.53636 0
M  V30 15772 N 1485.49 1.41566 0.692592 0
M  V30 15773 C 1486.42 1.46423 1.81886 0
M  V30 15774 C 1487.4 0.32258 1.67013 0
M  V30 15775 O 1488.59 0.534437 1.86701 0
M  V30 15776 C 1485.72 1.3486 3.20047 0
M  V30 15777 C 1484.67 2.46867 3.49629 0
M  V30 15778 C 1484 2.20369 4.87177 0
M  V30 15779 C 1485.3 3.89205 3.48306 0
M  V30 15780 H 1486.99 2.40683 1.78079 0
M  V30 15781 H 1484.54 1.15845 0.855334 0
M  V30 15782 H 1486.49 1.36869 3.98553 0
M  V30 15783 H 1485.21 0.370859 3.24488 0
M  V30 15784 H 1483.87 2.44146 2.73475 0
M  V30 15785 H 1483.52 1.20931 4.88247 0
M  V30 15786 H 1483.22 2.95426 5.07934 0
M  V30 15787 H 1484.74 2.24099 5.6799 0
M  V30 15788 H 1486.16 3.93626 4.16811 0
M  V30 15789 H 1484.56 4.63969 3.80595 0
M  V30 15790 H 1485.63 4.17144 2.47222 0
M  V30 15791 N 1486.97 -0.927146 1.27443 0
M  V30 15792 C 1488.21 -1.68946 1.15051 0
M  V30 15793 C 1488.57 -1.89664 -0.298585 0
M  V30 15794 O 1489.77 -2.63218 -0.544943 0
M  V30 15795 C 1488.04 -3.01884 1.91313 0
M  V30 15796 S 1489.6 -3.93021 1.9514 0
M  V30 15797 H 1486.42 -0.580376 0.410713 0
M  V30 15798 H 1489.02 -1.10378 1.61359 0
M  V30 15799 H 1487.73 -2.84496 2.95787 0
M  V30 15800 H 1487.26 -3.65504 1.45501 0
M  V30 15801 H 1489.27 -4.85002 1.04822 0
M  V30 15802 N 1488.45 -1.09474 -1.13372 0
M  V30 15803 C 1489.67 -0.852921 -1.88502 0
M  V30 15804 C 1490.09 0.595855 -1.79151 0
M  V30 15805 O 1489.45 1.41019 -1.15845 0
M  V30 15806 C 1489.5 -1.27993 -3.38083 0
M  V30 15807 O 1489.22 -2.67189 -3.47191 0
M  V30 15808 C 1490.72 -1.07056 -4.30179 0
M  V30 15809 H 1487.94 -0.30682 -0.596743 0
M  V30 15810 H 1490.48 -1.45685 -1.43513 0
M  V30 15811 H 1488.64 -0.719879 -3.80653 0
M  V30 15812 H 1489.05 -2.85202 -4.40182 0
M  V30 15813 H 1490.53 -1.4186 -5.3346 0
M  V30 15814 H 1491 -0.00838732 -4.39199 0
M  V30 15815 H 1491.61 -1.61659 -3.93378 0
M  V30 15816 N 1489.92 1.30607 -0.882012 0
M  V30 15817 C 1490.89 2.26489 -0.351498 0
M  V30 15818 C 1491.89 1.52686 0.504348 0
M  V30 15819 O 1493.08 1.71385 0.311928 0
M  V30 15820 C 1490.21 3.37222 0.499435 0
M  V30 15821 H 1491.4 2.74929 -1.19809 0
M  V30 15822 H 1488.96 1.41746 -0.658616 0
M  V30 15823 H 1489.69 2.94093 1.36673 0
M  V30 15824 H 1489.48 3.91936 -0.11356 0
M  V30 15825 H 1490.97 4.08596 0.862497 0
M  V30 15826 N 1491.4 0.642663 1.43901 0
M  V30 15827 C 1492.33 -0.0419756 2.33462 0
M  V30 15828 C 1493.31 -0.822923 1.48869 0
M  V30 15829 O 1494.5 -0.786508 1.7756 0
M  V30 15830 C 1491.63 -1.01631 3.32097 0
M  V30 15831 C 1490.58 -0.346206 4.26597 0
M  V30 15832 C 1489.91 -1.43125 5.15189 0
M  V30 15833 C 1491.21 0.754799 5.16817 0
M  V30 15834 H 1492.9 0.705929 2.90959 0
M  V30 15835 H 1490.45 0.340924 1.39906 0
M  V30 15836 H 1492.4 -1.5041 3.93643 0
M  V30 15837 H 1491.13 -1.79525 2.72834 0
M  V30 15838 H 1489.78 0.121038 3.664 0
M  V30 15839 H 1489.43 -2.20135 4.52271 0
M  V30 15840 H 1489.13 -0.988194 5.79231 0
M  V30 15841 H 1490.66 -1.92061 5.79607 0
M  V30 15842 H 1492.07 0.349624 5.72233 0
M  V30 15843 H 1490.47 1.12169 5.89524 0
M  V30 15844 H 1491.54 1.61718 4.57138 0
M  V30 15845 N 1492.88 -1.52852 0.383918 0
M  V30 15846 C 1493.83 -2.23089 -0.470652 0
M  V30 15847 C 1494.82 -1.23278 -1.03399 0
M  V30 15848 O 1496.01 -1.48641 -0.960985 0
M  V30 15849 C 1493.14 -3.03721 -1.60025 0
M  V30 15850 C 1492.22 -4.10924 -1.04892 0
M  V30 15851 N 1492.61 -5.05312 -0.222083 0
M  V30 15852 C 1490.91 -4.25958 -1.32195 0
M  V30 15853 C 1491.61 -5.81642 0.0818929 0
M  V30 15854 N 1490.59 -5.41101 -0.520629 0
M  V30 15855 H 1494.39 -2.93421 0.167663 0
M  V30 15856 H 1491.9 -1.6125 0.192927 0
M  V30 15857 H 1493.9 -3.52572 -2.22482 0
M  V30 15858 H 1492.56 -2.34924 -2.24145 0
M  V30 15859 H 1493.57 -5.1771 0.140223 0
M  V30 15860 H 1490.25 -3.68389 -1.96457 0
M  V30 15861 H 1491.64 -6.67684 0.751481 0
M  V30 15862 N 1494.36 -0.113586 -1.5719 0
M  V30 15863 C 1495.29 0.835363 -2.18046 0
M  V30 15864 C 1496.27 1.28114 -1.11897 0
M  V30 15865 O 1497.46 1.34472 -1.40111 0
M  V30 15866 C 1494.59 2.08759 -2.77556 0
M  V30 15867 C 1493.54 1.77979 -3.8924 0
M  V30 15868 C 1492.87 3.10185 -4.35533 0
M  V30 15869 C 1494.17 1.05231 -5.11589 0
M  V30 15870 H 1495.86 0.328275 -2.97595 0
M  V30 15871 H 1493.41 0.156456 -1.43148 0
M  V30 15872 H 1495.36 2.75597 -3.18785 0
M  V30 15873 H 1494.08 2.61783 -1.95288 0
M  V30 15874 H 1492.74 1.13532 -3.48577 0
M  V30 15875 H 1492.39 3.61133 -3.50131 0
M  V30 15876 H 1492.09 2.90367 -5.10843 0
M  V30 15877 H 1493.61 3.78151 -4.7941 0
M  V30 15878 H 1495.03 1.62213 -5.49872 0
M  V30 15879 H 1493.42 0.955269 -5.92448 0
M  V30 15880 H 1494.49 0.038137 -4.84885 0
M  V30 15881 N 1495.84 1.56784 0.160173 0
M  V30 15882 C 1497.25 1.72193 0.721552 0
M  V30 15883 C 1497.6 0.725901 1.82278 0
M  V30 15884 O 1496.72 -0.110343 2.16118 0
M  V30 15885 C 1497.32 3.12212 1.31563 0
M  V30 15886 C 1495.88 3.29268 1.82371 0
M  V30 15887 C 1495.03 2.68136 0.70701 0
M  V30 15888 H 1497.98 1.58565 -0.0653521 0
M  V30 15889 H 1498 3.11481 2.1854 0
M  V30 15890 H 1497.51 3.84682 0.513917 0
M  V30 15891 H 1495.61 2.61774 2.65152 0
M  V30 15892 H 1495.72 4.37107 1.96149 0
M  V30 15893 H 1494.09 2.28246 1.1303 0
M  V30 15894 H 1494.87 3.432 -0.0830407 0
M  V30 15895 N 1497.32 -0.429099 1.51646 0
M  V30 15896 C 1498.54 -1.20465 1.68828 0
M  V30 15897 C 1498.97 -1.84044 0.388514 0
M  V30 15898 O 1498.32 -1.69165 -0.652152 0
M  V30 15899 C 1498.37 -2.25831 2.81128 0
M  V30 15900 O 1497.48 -3.31511 2.45305 0
M  V30 15901 H 1496.82 -0.352568 0.562665 0
M  V30 15902 H 1499.35 -0.505698 1.98252 0
M  V30 15903 H 1499.36 -2.70484 3.05455 0
M  V30 15904 H 1498.03 -1.78934 3.7544 0
M  V30 15905 H 1496.61 -2.92277 2.31579 0
M  V30 15906 N 1498.79 -1.41931 -0.685074 0
M  V30 15907 C 1500.02 -1.45432 -1.47866 0
M  V30 15908 C 1500.44 -0.0641302 -1.87991 0
M  V30 15909 O 1499.8 0.935081 -1.55325 0
M  V30 15910 C 1499.85 -2.37801 -2.71077 0
M  V30 15911 O 1498.95 -1.84229 -3.68963 0
M  V30 15912 H 1498.29 -0.493156 -0.444627 0
M  V30 15913 H 1500.82 -1.86508 -0.841177 0
M  V30 15914 H 1500.83 -2.54033 -3.19266 0
M  V30 15915 H 1499.51 -3.38807 -2.41211 0
M  V30 15916 H 1498.09 -1.775 -3.27945 0
M  V30 15917 N 1500.27 0.920374 -1.27933 0
M  V30 15918 C 1501.2 2.03882 -1.13817 0
M  V30 15919 C 1502.18 1.70058 -0.0376853 0
M  V30 15920 O 1503.37 1.93023 -0.213492 0
M  V30 15921 C 1500.5 3.38142 -0.792296 0
M  V30 15922 C 1499.45 3.86104 -1.84683 0
M  V30 15923 C 1498.78 5.17253 -1.35474 0
M  V30 15924 C 1500.08 4.0869 -3.25223 0
M  V30 15925 H 1501.77 2.15949 -2.07379 0
M  V30 15926 H 1499.32 1.03764 -0.998454 0
M  V30 15927 H 1501.27 4.15872 -0.680337 0
M  V30 15928 H 1499.99 3.26109 0.179029 0
M  V30 15929 H 1498.65 3.10573 -1.94782 0
M  V30 15930 H 1498.3 5.01618 -0.372666 0
M  V30 15931 H 1498 5.50314 -2.05982 0
M  V30 15932 H 1499.53 5.97545 -1.25587 0
M  V30 15933 H 1500.94 4.76965 -3.18083 0
M  V30 15934 H 1499.34 4.5307 -3.93507 0
M  V30 15935 H 1500.41 3.13729 -3.69733 0
M  V30 15936 N 1501.75 1.10074 1.1279 0
M  V30 15937 C 1503 0.840873 1.84216 0
M  V30 15938 C 1503.32 -0.633551 1.83892 0
M  V30 15939 O 1502.58 -1.48283 1.27714 0
M  V30 15940 C 1502.88 1.32969 3.31744 0
M  V30 15941 C 1502.54 2.81489 3.52242 0
M  V30 15942 C 1501.21 3.22048 3.57545 0
M  V30 15943 C 1503.56 3.77216 3.59664 0
M  V30 15944 C 1500.89 4.57092 3.67809 0
M  V30 15945 C 1503.24 5.12057 3.71457 0
M  V30 15946 C 1501.9 5.52196 3.75014 0
M  V30 15947 H 1501.17 0.307697 0.674095 0
M  V30 15948 H 1503.82 1.37669 1.33115 0
M  V30 15949 H 1502.12 0.713819 3.85243 0
M  V30 15950 H 1503.82 1.10515 3.8547 0
M  V30 15951 H 1500.41 2.49106 3.48775 0
M  V30 15952 H 1504.6 3.4699 3.5484 0
M  V30 15953 H 1499.85 4.87618 3.68834 0
M  V30 15954 H 1504.03 5.86081 3.76142 0
M  V30 15955 H 1501.65 6.56833 3.8272 0
M  V30 15956 N 1503.23 -1.30138 0.888926 0
M  V30 15957 C 1504.16 -2.3047 0.374934 0
M  V30 15958 C 1505.14 -1.61156 -0.544322 0
M  V30 15959 O 1506.32 -1.88738 -0.457337 0
M  V30 15960 C 1503.45 -3.44896 -0.407935 0
M  V30 15961 C 1502.41 -4.25935 0.419916 0
M  V30 15962 C 1501.73 -5.32452 -0.489797 0
M  V30 15963 C 1503.03 -4.9508 1.66413 0
M  V30 15964 H 1504.73 -2.73711 1.21337 0
M  V30 15965 H 1502.27 -1.31586 0.584899 0
M  V30 15966 H 1504.23 -4.14153 -0.778177 0
M  V30 15967 H 1502.95 -3.0047 -1.28005 0
M  V30 15968 H 1501.61 -3.58372 0.772348 0
M  V30 15969 H 1501.26 -4.84273 -1.35974 0
M  V30 15970 H 1500.96 -5.87569 0.0603412 0
M  V30 15971 H 1502.48 -6.04563 -0.856468 0
M  V30 15972 H 1503.9 -5.56831 1.36425 0
M  V30 15973 H 1502.29 -5.6008 2.15477 0
M  V30 15974 H 1503.36 -4.20981 2.4063 0
M  V30 15975 N 1504.71 -0.650285 -1.43559 0
M  V30 15976 C 1505.64 0.0295939 -2.33481 0
M  V30 15977 C 1506.62 0.815017 -1.49303 0
M  V30 15978 O 1507.8 0.77708 -1.77975 0
M  V30 15979 C 1504.93 0.998683 -3.32631 0
M  V30 15980 C 1503.89 0.323577 -4.26775 0
M  V30 15981 C 1503.21 1.40391 -5.1594 0
M  V30 15982 C 1504.51 -0.782197 -5.1641 0
M  V30 15983 H 1506.21 -0.721349 -2.9058 0
M  V30 15984 H 1503.75 -0.348339 -1.39723 0
M  V30 15985 H 1505.7 1.4832 -3.94435 0
M  V30 15986 H 1504.43 1.78075 -2.73782 0
M  V30 15987 H 1503.09 -0.140467 -3.66331 0
M  V30 15988 H 1502.74 2.17734 -4.53432 0
M  V30 15989 H 1502.44 0.957462 -5.79747 0
M  V30 15990 H 1503.96 1.88985 -5.80618 0
M  V30 15991 H 1505.37 -0.379966 -5.72039 0
M  V30 15992 H 1503.77 -1.15293 -5.88921 0
M  V30 15993 H 1504.84 -1.6414 -4.56274 0
M  V30 15994 N 1506.18 1.52647 -0.392018 0
M  V30 15995 C 1507.11 2.29446 0.433228 0
M  V30 15996 C 1508.09 1.32945 1.06111 0
M  V30 15997 O 1509.28 1.61841 1.07337 0
M  V30 15998 C 1506.41 3.10328 1.55929 0
M  V30 15999 C 1505.36 4.14735 1.05731 0
M  V30 16000 C 1504.69 4.83858 2.27565 0
M  V30 16001 C 1505.99 5.22154 0.123346 0
M  V30 16002 H 1507.68 2.9868 -0.207563 0
M  V30 16003 H 1505.23 1.43643 -0.101266 0
M  V30 16004 H 1507.18 3.62814 2.14346 0
M  V30 16005 H 1505.91 2.38832 2.22771 0
M  V30 16006 H 1504.57 3.63234 0.495653 0
M  V30 16007 H 1504.21 4.08907 2.92923 0
M  V30 16008 H 1503.91 5.54428 1.94637 0
M  V30 16009 H 1505.44 5.39149 2.86619 0
M  V30 16010 H 1506.85 5.69983 0.615784 0
M  V30 16011 H 1505.25 5.99987 -0.116304 0
M  V30 16012 H 1506.32 4.77796 -0.826969 0
M  V30 16013 N 1507.66 0.121921 1.57128 0
M  V30 16014 C 1508.63 -0.812905 2.143 0
M  V30 16015 C 1509.63 -1.19261 1.07858 0
M  V30 16016 O 1510.82 -1.11764 1.33621 0
M  V30 16017 C 1507.95 -2.09969 2.68562 0
M  V30 16018 H 1509.14 -0.315992 2.98231 0
M  V30 16019 H 1506.69 -0.12734 1.5578 0
M  V30 16020 H 1507.43 -2.64085 1.88228 0
M  V30 16021 H 1507.21 -1.83688 3.46412 0
M  V30 16022 H 1508.7 -2.76788 3.12695 0
M  V30 16023 N 1509.14 -1.56867 -0.151857 0
M  V30 16024 C 1510.07 -1.94494 -1.21263 0
M  V30 16025 C 1511.09 -0.84021 -1.39443 0
M  V30 16026 O 1512.27 -1.11863 -1.391 0
M  V30 16027 C 1509.37 -2.19952 -2.57826 0
M  V30 16028 C 1508.55 -3.51227 -2.60689 0
M  V30 16029 C 1507.61 -3.65282 -3.78756 0
M  V30 16030 O 1506.63 -4.3772 -3.63854 0
M  V30 16031 N 1507.83 -3.01582 -4.96012 0
M  V30 16032 H 1510.6 -2.86092 -0.892845 0
M  V30 16033 H 1508.16 -1.58258 -0.341463 0
M  V30 16034 H 1510.15 -2.266 -3.35312 0
M  V30 16035 H 1508.72 -1.34643 -2.82117 0
M  V30 16036 H 1507.94 -3.56062 -1.69155 0
M  V30 16037 H 1509.23 -4.37574 -2.59628 0
M  V30 16038 H 1508.63 -2.42637 -5.11022 0
M  V30 16039 H 1507.19 -3.13799 -5.71291 0
M  V30 16040 N 1510.62 0.421051 -1.51871 0
M  V30 16041 C 1511.87 1.16677 -1.65018 0
M  V30 16042 C 1512.19 1.91329 -0.376596 0
M  V30 16043 O 1511.46 1.86221 0.608146 0
M  V30 16044 H 1510.04 0.433698 -0.608206 0
M  V30 16045 H 1512.7 0.48115 -1.88868 0
M  V30 16046 H 1511.8 1.88742 -2.48562 0
M  V30 16047 N 1512.1 1.42293 0.677538 0
M  V30 16048 C 1513.32 1.46008 1.46592 0
M  V30 16049 C 1513.74 0.0706015 1.88668 0
M  V30 16050 O 1513.1 -0.914076 1.57959 0
M  V30 16051 C 1513.15 2.38477 2.71682 0
M  V30 16052 O 1512.87 3.72019 2.31372 0
M  V30 16053 C 1514.37 2.51185 3.65269 0
M  V30 16054 H 1511.59 0.49669 0.451154 0
M  V30 16055 H 1514.13 1.86777 0.832736 0
M  V30 16056 H 1512.29 2.00969 3.31195 0
M  V30 16057 H 1512.7 4.21514 3.12131 0
M  V30 16058 H 1514.18 3.20014 4.49772 0
M  V30 16059 H 1514.65 1.54885 4.10983 0
M  V30 16060 H 1515.26 2.89404 3.1165 0
M  V30 16061 N 1513.57 -0.913576 1.28419 0
M  V30 16062 C 1514.54 -1.99757 1.12382 0
M  V30 16063 C 1515.54 -1.60675 0.063435 0
M  V30 16064 O 1516.73 -1.71433 0.30923 0
M  V30 16065 C 1513.86 -3.33307 0.715506 0
M  V30 16066 H 1515.05 -2.15414 2.08655 0
M  V30 16067 H 1512.61 -1.09626 1.11408 0
M  V30 16068 H 1513.34 -3.23351 -0.247977 0
M  V30 16069 H 1513.13 -3.63034 1.4815 0
M  V30 16070 H 1514.62 -4.12882 0.625953 0
M  V30 16071 N 1515.05 -1.1067 -1.12204 0
M  V30 16072 C 1515.98 -0.779829 -2.20093 0
M  V30 16073 C 1516.96 0.248279 -1.68278 0
M  V30 16074 O 1518.15 0.113511 -1.93868 0
M  V30 16075 C 1515.28 -0.213511 -3.46643 0
M  V30 16076 C 1514.23 -1.17258 -4.11624 0
M  V30 16077 C 1513.56 -0.467352 -5.32654 0
M  V30 16078 C 1514.86 -2.52014 -4.57478 0
M  V30 16079 H 1516.55 -1.68192 -2.47693 0
M  V30 16080 H 1514.1 -0.810131 -1.1905 0
M  V30 16081 H 1516.05 0.0273225 -4.21391 0
M  V30 16082 H 1514.78 0.723837 -3.18478 0
M  V30 16083 H 1513.43 -1.39891 -3.3886 0
M  V30 16084 H 1513.08 0.474547 -5.00756 0
M  V30 16085 H 1512.78 -1.10694 -5.77079 0
M  V30 16086 H 1514.31 -0.235122 -6.10147 0
M  V30 16087 H 1515.72 -2.33516 -5.23587 0
M  V30 16088 H 1514.12 -3.1188 -5.1269 0
M  V30 16089 H 1515.19 -3.11831 -3.71335 0
M  V30 16090 N 1516.53 1.29665 -0.895815 0
M  V30 16091 C 1517.78 1.9533 -0.518725 0
M  V30 16092 C 1518.1 1.70995 0.937322 0
M  V30 16093 O 1517.37 1.03955 1.66043 0
M  V30 16094 H 1515.95 0.722736 -0.188841 0
M  V30 16095 H 1518.61 1.57991 -1.14126 0
M  V30 16096 H 1517.71 3.04193 -0.698057 0
M  V30 16097 N 1518.01 0.657889 1.43212 0
M  V30 16098 C 1518.97 -0.0214783 2.2919 0
M  V30 16099 C 1519.97 -0.745921 1.42452 0
M  V30 16100 O 1521.16 -0.586468 1.64031 0
M  V30 16101 C 1518.29 -1.04115 3.24612 0
M  V30 16102 H 1519.49 0.735072 2.90752 0
M  V30 16103 H 1517.04 0.419354 1.50569 0
M  V30 16104 H 1517.77 -1.82677 2.67954 0
M  V30 16105 H 1517.56 -0.525285 3.88566 0
M  V30 16106 H 1519.05 -1.51544 3.89132 0
M  V30 16107 N 1519.49 -1.52437 0.400108 0
M  V30 16108 C 1520.73 -2.0201 -0.17887 0
M  V30 16109 C 1521.07 -1.2856 -1.45554 0
M  V30 16110 O 1520.34 -0.389236 -1.90565 0
M  V30 16111 C 1520.62 -3.57453 -0.435784 0
M  V30 16112 C 1520.48 -4.41562 0.85693 0
M  V30 16113 C 1521.8 -4.228 -1.2218 0
M  V30 16114 H 1518.91 -0.734256 -0.063535 0
M  V30 16115 H 1521.56 -1.82406 0.531801 0
M  V30 16116 H 1519.71 -3.74288 -1.04117 0
M  V30 16117 H 1521.38 -4.36456 1.49344 0
M  V30 16118 H 1519.62 -4.08138 1.46989 0
M  V30 16119 H 1520.29 -5.48374 0.631675 0
M  V30 16120 H 1522.77 -4.10009 -0.709359 0
M  V30 16121 H 1521.64 -5.3152 -1.37031 0
M  V30 16122 H 1521.91 -3.81153 -2.23998 0
M  V30 16123 N 1520.96 -0.130252 -1.57061 0
M  V30 16124 C 1521.89 0.812189 -2.18919 0
M  V30 16125 C 1522.88 1.2692 -1.13249 0
M  V30 16126 O 1524.06 1.32978 -1.41529 0
M  V30 16127 C 1521.19 2.05803 -2.79754 0
M  V30 16128 C 1520.14 1.73841 -3.91105 0
M  V30 16129 C 1519.47 3.05549 -4.38799 0
M  V30 16130 C 1520.77 0.997991 -5.12677 0
M  V30 16131 H 1522.46 0.296692 -2.97926 0
M  V30 16132 H 1520.01 0.141265 -1.43305 0
M  V30 16133 H 1521.96 2.72201 -3.21691 0
M  V30 16134 H 1520.69 2.59697 -1.98053 0
M  V30 16135 H 1519.35 1.09828 -3.49762 0
M  V30 16136 H 1518.99 3.57399 -3.53942 0
M  V30 16137 H 1518.69 2.84932 -5.13894 0
M  V30 16138 H 1520.22 3.73045 -4.83394 0
M  V30 16139 H 1521.63 1.56372 -5.51562 0
M  V30 16140 H 1520.03 0.892378 -5.93428 0
M  V30 16141 H 1521.1 -0.0132936 -4.84898 0
M  V30 16142 N 1522.44 1.56945 0.143535 0
M  V30 16143 C 1523.69 1.83176 0.853873 0
M  V30 16144 C 1524.01 0.71168 1.81549 0
M  V30 16145 O 1523.28 -0.266391 1.9408 0
M  V30 16146 H 1521.86 0.675785 0.318313 0
M  V30 16147 H 1524.52 1.9442 0.136712 0
M  V30 16148 H 1523.62 2.7823 1.41402 0
M  V30 16149 N 1523.92 -0.412991 1.52093 0
M  V30 16150 C 1524.85 -1.50986 1.78117 0
M  V30 16151 C 1525.83 -1.57925 0.631963 0
M  V30 16152 O 1527.02 -1.73261 0.877168 0
M  V30 16153 C 1524.15 -2.88846 1.92835 0
M  V30 16154 C 1523.1 -2.96759 3.08412 0
M  V30 16155 C 1522.43 -4.36837 3.08347 0
M  V30 16156 C 1523.73 -2.68599 4.47942 0
M  V30 16157 H 1525.42 -1.29459 2.69964 0
M  V30 16158 H 1522.97 -0.621348 1.29905 0
M  V30 16159 H 1524.92 -3.65563 2.09623 0
M  V30 16160 H 1523.64 -3.11658 0.976553 0
M  V30 16161 H 1522.3 -2.22487 2.91368 0
M  V30 16162 H 1521.95 -4.56652 2.10897 0
M  V30 16163 H 1521.65 -4.43056 3.85973 0
M  V30 16164 H 1523.18 -5.15493 3.2726 0
M  V30 16165 H 1524.59 -3.35039 4.65212 0
M  V30 16166 H 1522.99 -2.86199 5.27456 0
M  V30 16167 H 1524.06 -1.64058 4.56304 0
M  V30 16168 N 1525.4 -1.4265 -0.669982 0
M  V30 16169 C 1526.62 -1.46992 -1.46315 0
M  V30 16170 C 1527.05 -0.0840655 -1.87912 0
M  V30 16171 O 1526.41 0.918554 -1.56308 0
M  V30 16172 C 1526.46 -2.40663 -2.6854 0
M  V30 16173 O 1525.56 -1.88132 -3.66988 0
M  V30 16174 H 1524.9 -0.497844 -0.439372 0
M  V30 16175 H 1527.43 -1.8739 -0.821348 0
M  V30 16176 H 1527.44 -2.57405 -3.16554 0
M  V30 16177 H 1526.12 -3.41346 -2.37604 0
M  V30 16178 H 1524.69 -1.80969 -3.26044 0
M  V30 16179 N 1526.88 0.906753 -1.28902 0
M  V30 16180 C 1528.12 1.65925 -1.17646 0
M  V30 16181 C 1528.48 1.90484 0.270837 0
M  V30 16182 O 1527.77 1.49914 1.19317 0
M  V30 16183 C 1527.97 3.0171 -1.91588 0
M  V30 16184 C 1527.79 2.90403 -3.4336 0
M  V30 16185 C 1526.56 2.91551 -4.12706 0
M  V30 16186 C 1528.76 2.67955 -4.38981 0
M  V30 16187 N 1526.74 2.70907 -5.50893 0
M  V30 16188 C 1528.12 2.56222 -5.6458 0
M  V30 16189 C 1530.17 2.53007 -4.28826 0
M  V30 16190 C 1528.87 2.31064 -6.81177 0
M  V30 16191 C 1530.9 2.2923 -5.45167 0
M  V30 16192 C 1530.26 2.18257 -6.69734 0
M  V30 16193 H 1526.36 0.613064 -0.485466 0
M  V30 16194 H 1528.94 1.07031 -1.62642 0
M  V30 16195 H 1527.12 3.58676 -1.49016 0
M  V30 16196 H 1528.85 3.66021 -1.72657 0
M  V30 16197 H 1525.6 3.02571 -3.64346 0
M  V30 16198 H 1526.03 2.63657 -6.2355 0
M  V30 16199 H 1530.67 2.60238 -3.33221 0
M  V30 16200 H 1528.39 2.22572 -7.76844 0
M  V30 16201 H 1531.97 2.18518 -5.39204 0
M  V30 16202 H 1530.85 2.00112 -7.58238 0
M  V30 16203 N 1528.36 1.11264 1.11616 0
M  V30 16204 C 1529.77 0.846176 1.35322 0
M  V30 16205 C 1529.97 -0.530043 1.94404 0
M  V30 16206 O 1529.03 -1.28122 2.1758 0
M  V30 16207 C 1530.34 1.9528 2.28662 0
M  V30 16208 C 1531.89 1.98225 2.42231 0
M  V30 16209 C 1532.36 3.08086 3.38891 0
M  V30 16210 N 1533.85 3.07448 3.46453 0
M  V30 16211 C 1534.59 3.89094 4.21181 0
M  V30 16212 N 1534.09 4.80698 4.989 0
M  V30 16213 N 1535.88 3.77279 4.16674 0
M  V30 16214 H 1528.03 1.99958 0.716284 0
M  V30 16215 H 1530.29 0.869439 0.377862 0
M  V30 16216 H 1530 2.94381 1.92439 0
M  V30 16217 H 1529.87 1.84739 3.28864 0
M  V30 16218 H 1532.26 0.997517 2.77729 0
M  V30 16219 H 1532.34 2.12842 1.41887 0
M  V30 16220 H 1531.98 4.06784 3.0412 0
M  V30 16221 H 1531.91 2.90709 4.39085 0
M  V30 16222 H 1534.41 2.41077 2.91016 0
M  V30 16223 H 1534.72 5.39535 5.53282 0
M  V30 16224 H 1533.06 4.84721 4.98067 0
M  V30 16225 H 1536.25 3.05059 3.55044 0
M  V30 16226 H 1536.43 4.41142 4.74655 0
M  V30 16227 N 1529.83 -1.29188 0.902679 0
M  V30 16228 C 1531.25 -1.47924 0.599209 0
M  V30 16229 C 1531.45 -1.82297 -0.858494 0
M  V30 16230 O 1530.51 -1.92123 -1.63845 0
M  V30 16231 C 1531.82 -2.59008 1.52759 0
M  V30 16232 C 1533.37 -2.72882 1.53312 0
M  V30 16233 C 1533.84 -3.87097 2.44785 0
M  V30 16234 N 1535.33 -3.94435 2.42849 0
M  V30 16235 C 1536.07 -4.82165 3.1033 0
M  V30 16236 N 1535.56 -5.74565 3.87101 0
M  V30 16237 N 1537.36 -4.75681 2.99473 0
M  V30 16238 H 1529.51 -1.05154 1.84544 0
M  V30 16239 H 1531.77 -0.522632 0.790924 0
M  V30 16240 H 1531.48 -2.40483 2.56634 0
M  V30 16241 H 1531.35 -3.55873 1.25036 0
M  V30 16242 H 1533.74 -2.90802 0.501804 0
M  V30 16243 H 1533.82 -1.76582 1.85074 0
M  V30 16244 H 1533.46 -3.69932 3.48012 0
M  V30 16245 H 1533.39 -4.82772 2.10331 0
M  V30 16246 H 1535.88 -3.28347 1.87074 0
M  V30 16247 H 1536.2 -6.3831 4.35638 0
M  V30 16248 H 1534.54 -5.74441 3.91207 0
M  V30 16249 H 1537.73 -4.02483 2.39009 0
M  V30 16250 H 1537.91 -5.4384 3.52337 0
M  V30 16251 N 1531.31 -0.665475 -1.42861 0
M  V30 16252 C 1532.56 -0.183521 -2.01265 0
M  V30 16253 C 1532.88 1.21103 -1.52837 0
M  V30 16254 O 1532.15 1.81135 -0.746109 0
M  V30 16255 H 1530.73 -0.0648565 -0.744179 0
M  V30 16256 H 1533.39 -0.859893 -1.74905 0
M  V30 16257 H 1532.49 -0.177589 -3.11594 0
M  V30 16258 N 1532.79 1.52222 -0.408187 0
M  V30 16259 C 1533.72 2.29892 0.408868 0
M  V30 16260 C 1534.7 1.34063 1.04695 0
M  V30 16261 O 1535.89 1.6297 1.05615 0
M  V30 16262 C 1533.02 3.11964 1.52629 0
M  V30 16263 C 1531.97 4.15833 1.01326 0
M  V30 16264 C 1531.3 4.86244 2.2242 0
M  V30 16265 C 1532.6 5.22256 0.0679573 0
M  V30 16266 H 1534.29 2.98443 -0.23923 0
M  V30 16267 H 1531.84 1.43528 -0.116496 0
M  V30 16268 H 1533.79 3.65067 2.10486 0
M  V30 16269 H 1532.51 2.41181 2.20225 0
M  V30 16270 H 1531.17 3.63739 0.4571 0
M  V30 16271 H 1530.82 4.11991 2.88569 0
M  V30 16272 H 1530.52 5.56461 1.88746 0
M  V30 16273 H 1532.04 5.42159 2.80885 0
M  V30 16274 H 1533.46 5.70604 0.555295 0
M  V30 16275 H 1531.85 5.9983 -0.179934 0
M  V30 16276 H 1532.92 4.76892 -0.877599 0
M  V30 16277 N 1534.27 0.138579 1.5699 0
M  V30 16278 C 1535.2 -0.842105 2.12094 0
M  V30 16279 C 1536.18 -1.24798 1.04232 0
M  V30 16280 O 1537.36 -1.34557 1.3201 0
M  V30 16281 C 1534.49 -2.1296 2.63373 0
M  V30 16282 C 1533.54 -1.8703 3.83304 0
M  V30 16283 S 1534.37 -1.06889 5.24724 0
M  V30 16284 C 1535.52 -2.36776 5.79386 0
M  V30 16285 H 1535.76 -0.373475 2.94945 0
M  V30 16286 H 1533.29 -0.0755566 1.54215 0
M  V30 16287 H 1535.25 -2.86927 2.9357 0
M  V30 16288 H 1533.91 -2.56939 1.80668 0
M  V30 16289 H 1533.1 -2.82478 4.17399 0
M  V30 16290 H 1532.7 -1.21176 3.53825 0
M  V30 16291 H 1535 -3.32486 5.90304 0
M  V30 16292 H 1535.94 -2.07197 6.77108 0
M  V30 16293 H 1536.35 -2.47039 5.07575 0
M  V30 16294 N 1535.75 -1.57019 -0.13521 0
M  V30 16295 C 1536.99 -1.83626 -0.844147 0
M  V30 16296 C 1537.31 -0.721298 -1.81169 0
M  V30 16297 O 1536.58 0.256095 -1.94219 0
M  V30 16298 H 1535.16 -0.677464 -0.314725 0
M  V30 16299 H 1537.83 -1.9449 -0.126399 0
M  V30 16300 H 1536.92 -2.78976 -1.39925 0
M  V30 16301 N 1537.22 0.404919 -1.52309 0
M  V30 16302 C 1538.47 1.15319 -1.66822 0
M  V30 16303 C 1538.8 1.90056 -0.399041 0
M  V30 16304 O 1538.08 1.84927 0.602679 0
M  V30 16305 C 1538.36 2.14426 -2.89298 0
M  V30 16306 C 1538.21 1.43558 -4.26276 0
M  V30 16307 C 1539.53 3.15046 -3.07301 0
M  V30 16308 H 1536.65 0.417869 -0.607087 0
M  V30 16309 H 1539.29 0.438414 -1.84873 0
M  V30 16310 H 1537.44 2.75382 -2.74039 0
M  V30 16311 H 1539.12 0.856899 -4.53271 0
M  V30 16312 H 1537.36 0.737515 -4.27485 0
M  V30 16313 H 1538.03 2.15895 -5.08029 0
M  V30 16314 H 1540.51 2.6417 -3.21486 0
M  V30 16315 H 1539.38 3.81652 -3.94503 0
M  V30 16316 H 1539.64 3.83012 -2.20803 0
M  V30 16317 N 1538.7 1.43003 0.662408 0
M  V30 16318 C 1540.11 1.39275 1.24336 0
M  V30 16319 C 1540.46 0.0921999 1.95983 0
M  V30 16320 O 1539.59 -0.808677 2.00722 0
M  V30 16321 C 1540.18 2.52287 2.26134 0
M  V30 16322 C 1538.74 2.51853 2.79727 0
M  V30 16323 C 1537.89 2.30453 1.5423 0
M  V30 16324 H 1540.84 1.52038 0.455002 0
M  V30 16325 H 1540.86 2.23249 3.08123 0
M  V30 16326 H 1540.37 3.46929 1.73959 0
M  V30 16327 H 1538.48 1.61064 3.3599 0
M  V30 16328 H 1538.59 3.49313 3.27898 0
M  V30 16329 H 1536.95 1.78946 1.81247 0
M  V30 16330 H 1537.74 3.27167 1.04003 0
M  V30 16331 N 1540.18 -0.899904 1.29381 0
M  V30 16332 C 1541.11 -2.02045 1.17047 0
M  V30 16333 C 1542.09 -1.69977 0.0647354 0
M  V30 16334 O 1543.28 -1.92659 0.244173 0
M  V30 16335 C 1540.41 -3.36839 0.845991 0
M  V30 16336 C 1539.36 -3.83117 1.90802 0
M  V30 16337 C 1538.69 -5.15032 1.43686 0
M  V30 16338 C 1539.99 -4.03464 3.31684 0
M  V30 16339 H 1541.68 -2.12623 2.10789 0
M  V30 16340 H 1539.23 -1.02162 1.01484 0
M  V30 16341 H 1541.18 -4.14737 0.746413 0
M  V30 16342 H 1539.9 -3.26352 -0.127125 0
M  V30 16343 H 1538.56 -3.07435 1.99698 0
M  V30 16344 H 1538.21 -5.00961 0.452422 0
M  V30 16345 H 1537.91 -5.46967 2.14711 0
M  V30 16346 H 1539.43 -5.95472 1.35078 0
M  V30 16347 H 1540.85 -4.71845 3.25631 0
M  V30 16348 H 1539.25 -4.46752 4.00665 0
M  V30 16349 H 1540.32 -3.07807 3.74677 0
M  V30 16350 N 1541.66 -1.11854 -1.11024 0
M  V30 16351 C 1542.91 -0.868355 -1.82494 0
M  V30 16352 C 1543.23 0.607622 -1.85292 0
M  V30 16353 O 1542.5 1.44147 -1.32659 0
M  V30 16354 H 1541.08 -0.31826 -0.67581 0
M  V30 16355 H 1543.74 -1.4118 -1.34366 0
M  V30 16356 H 1542.84 -1.24441 -2.86218 0
M  V30 16357 N 1543.14 1.28707 -0.909517 0
M  V30 16358 C 1544.07 2.29845 -0.411552 0
M  V30 16359 C 1545.05 1.62001 0.518615 0
M  V30 16360 O 1546.23 1.89442 0.427252 0
M  V30 16361 C 1543.36 3.45501 0.353013 0
M  V30 16362 C 1542.32 4.25213 -0.487625 0
M  V30 16363 C 1541.64 5.33164 0.405026 0
M  V30 16364 C 1542.94 4.9237 -1.74268 0
M  V30 16365 H 1544.64 2.71746 -1.25676 0
M  V30 16366 H 1542.18 1.30639 -0.605759 0
M  V30 16367 H 1544.14 4.15338 0.712191 0
M  V30 16368 H 1542.86 3.02469 1.23209 0
M  V30 16369 H 1541.52 3.57098 -0.829265 0
M  V30 16370 H 1541.17 4.86375 1.28252 0
M  V30 16371 H 1540.87 5.87399 -0.153811 0
M  V30 16372 H 1542.39 6.0585 0.760179 0
M  V30 16373 H 1543.8 5.5459 -1.45266 0
M  V30 16374 H 1542.2 5.56581 -2.2436 0
M  V30 16375 H 1543.27 4.171 -2.47297 0
M  V30 16376 N 1544.61 0.673042 1.42506 0
M  V30 16377 C 1545.86 0.194192 2.01165 0
M  V30 16378 C 1546.18 -1.2029 1.53477 0
M  V30 16379 O 1545.45 -1.80737 0.755704 0
M  V30 16380 H 1544.03 0.0688022 0.743825 0
M  V30 16381 H 1546.7 0.869157 1.74447 0
M  V30 16382 H 1545.79 0.194111 3.11496 0
M  V30 16383 N 1546.09 -1.52004 0.416254 0
M  V30 16384 C 1547.06 -2.2579 -0.393882 0
M  V30 16385 C 1548.06 -1.28427 -0.967637 0
M  V30 16386 O 1549.25 -1.52311 -0.845396 0
M  V30 16387 C 1546.38 -3.03361 -1.55515 0
M  V30 16388 H 1547.57 -2.98835 0.252492 0
M  V30 16389 H 1545.12 -1.55384 0.168929 0
M  V30 16390 H 1545.86 -2.34682 -2.23818 0
M  V30 16391 H 1545.64 -3.74852 -1.15015 0
M  V30 16392 H 1547.13 -3.5931 -2.12805 0
M  V30 16393 N 1547.57 -0.146903 -1.56914 0
M  V30 16394 C 1548.53 0.778709 -2.15566 0
M  V30 16395 C 1549.53 1.1753 -1.09742 0
M  V30 16396 O 1550.72 1.09624 -1.35382 0
M  V30 16397 C 1547.86 2.0567 -2.71869 0
M  V30 16398 H 1549.05 0.268506 -2.98696 0
M  V30 16399 H 1546.6 0.10254 -1.55963 0
M  V30 16400 H 1547.34 2.61057 -1.92405 0
M  V30 16401 H 1547.12 1.78154 -3.4929 0
M  V30 16402 H 1548.61 2.71779 -3.17059 0
M  V30 16403 N 1549.05 1.57088 0.126881 0
M  V30 16404 C 1550.29 1.8559 0.832347 0
M  V30 16405 C 1550.65 0.733619 1.77865 0
M  V30 16406 O 1549.94 -0.266984 1.89731 0
M  V30 16407 C 1550.14 3.18225 1.62688 0
M  V30 16408 C 1549.97 4.43248 0.759021 0
M  V30 16409 C 1548.74 5.03577 0.416881 0
M  V30 16410 C 1550.93 5.14237 0.080205 0
M  V30 16411 N 1548.92 6.12156 -0.462469 0
M  V30 16412 C 1550.29 6.16494 -0.658463 0
M  V30 16413 C 1552.34 4.979 0.00296555 0
M  V30 16414 C 1551.04 7.04179 -1.46711 0
M  V30 16415 C 1553.07 5.86066 -0.792477 0
M  V30 16416 C 1552.43 6.87819 -1.51936 0
M  V30 16417 H 1548.53 0.729476 0.281759 0
M  V30 16418 H 1551.12 1.94461 0.0965231 0
M  V30 16419 H 1549.29 3.10465 2.3338 0
M  V30 16420 H 1551.02 3.34562 2.27707 0
M  V30 16421 H 1547.77 4.67506 0.757316 0
M  V30 16422 H 1548.2 6.71074 -0.893761 0
M  V30 16423 H 1552.84 4.192 0.55059 0
M  V30 16424 H 1550.56 7.82293 -2.02592 0
M  V30 16425 H 1554.14 5.75491 -0.854496 0
M  V30 16426 H 1553.02 7.54861 -2.12498 0
M  V30 16427 N 1550.53 -0.396836 1.52522 0
M  V30 16428 C 1551.46 -1.49088 1.79708 0
M  V30 16429 C 1552.44 -1.57246 0.648678 0
M  V30 16430 O 1553.62 -1.72321 0.895495 0
M  V30 16431 C 1550.75 -2.86785 1.95887 0
M  V30 16432 C 1549.71 -2.93472 3.11542 0
M  V30 16433 C 1549.03 -4.33542 3.12963 0
M  V30 16434 C 1550.33 -2.63832 4.50766 0
M  V30 16435 H 1552.03 -1.26588 2.71322 0
M  V30 16436 H 1549.57 -0.607535 1.30557 0
M  V30 16437 H 1551.53 -3.63319 2.13489 0
M  V30 16438 H 1550.25 -3.10605 1.00955 0
M  V30 16439 H 1548.91 -2.19384 2.93711 0
M  V30 16440 H 1548.56 -4.5439 2.15729 0
M  V30 16441 H 1548.26 -4.38938 3.9065 0
M  V30 16442 H 1549.78 -5.11993 3.32709 0
M  V30 16443 H 1551.19 -3.30086 4.68739 0
M  V30 16444 H 1549.59 -2.80589 5.30462 0
M  V30 16445 H 1550.66 -1.59209 4.58018 0
M  V30 16446 N 1552.01 -1.43353 -0.654814 0
M  V30 16447 C 1552.94 -1.51194 -1.7794 0
M  V30 16448 C 1553.92 -0.366747 -1.66099 0
M  V30 16449 O 1555.1 -0.58375 -1.85219 0
M  V30 16450 C 1552.23 -1.43298 -3.16359 0
M  V30 16451 C 1551.19 -2.5605 -3.42961 0
M  V30 16452 C 1550.51 -2.33208 -4.81163 0
M  V30 16453 C 1551.81 -3.98303 -3.37864 0
M  V30 16454 H 1553.51 -2.4532 -1.71635 0
M  V30 16455 H 1551.05 -1.18072 -0.824319 0
M  V30 16456 H 1553 -1.47388 -3.94784 0
M  V30 16457 H 1551.73 -0.456761 -3.2339 0
M  V30 16458 H 1550.39 -2.5131 -2.66906 0
M  V30 16459 H 1550.04 -1.33833 -4.84869 0
M  V30 16460 H 1549.74 -3.08789 -4.99923 0
M  V30 16461 H 1551.26 -2.39079 -5.61848 0
M  V30 16462 H 1552.67 -4.04538 -4.06229 0
M  V30 16463 H 1551.07 -4.73897 -3.6816 0
M  V30 16464 H 1552.14 -4.23552 -2.36075 0
M  V30 16465 N 1553.48 0.89303 -1.29857 0
M  V30 16466 C 1554.45 1.97944 -1.15546 0
M  V30 16467 C 1555.45 1.60554 -0.088989 0
M  V30 16468 O 1556.64 1.7092 -0.336464 0
M  V30 16469 C 1553.77 3.32126 -0.768442 0
M  V30 16470 H 1554.96 2.12067 -2.12055 0
M  V30 16471 H 1552.51 1.0784 -1.13138 0
M  V30 16472 H 1553.25 3.23704 0.196504 0
M  V30 16473 H 1553.03 3.60631 -1.53907 0
M  V30 16474 H 1554.52 4.11834 -0.691559 0
M  V30 16475 N 1554.96 1.12442 1.10429 0
M  V30 16476 C 1556.21 0.890989 1.82847 0
M  V30 16477 C 1556.56 -0.576982 1.83545 0
M  V30 16478 O 1555.86 -1.42106 1.28516 0
M  V30 16479 C 1556.05 1.39976 3.28849 0
M  V30 16480 C 1555.88 2.91567 3.42373 0
M  V30 16481 C 1554.65 3.59803 3.54781 0
M  V30 16482 C 1556.85 3.89566 3.35772 0
M  V30 16483 N 1554.83 4.99508 3.56882 0
M  V30 16484 C 1556.2 5.154 3.44619 0
M  V30 16485 C 1558.25 3.81977 3.19372 0
M  V30 16486 C 1556.96 6.34537 3.38756 0
M  V30 16487 C 1558.98 5.00636 3.1483 0
M  V30 16488 C 1558.35 6.25328 3.24259 0
M  V30 16489 H 1554.44 0.379313 0.683846 0
M  V30 16490 H 1557.03 1.43073 1.32054 0
M  V30 16491 H 1555.2 0.887076 3.78134 0
M  V30 16492 H 1556.93 1.1084 3.89226 0
M  V30 16493 H 1553.69 3.10295 3.5779 0
M  V30 16494 H 1554.11 5.72376 3.61544 0
M  V30 16495 H 1558.75 2.86468 3.1096 0
M  V30 16496 H 1556.47 7.30312 3.45934 0
M  V30 16497 H 1560.06 4.96494 3.03291 0
M  V30 16498 H 1558.94 7.15605 3.20747 0
M  V30 16499 N 1556.44 -1.28223 0.91633 0
M  V30 16500 C 1557.85 -1.76898 0.597003 0
M  V30 16501 C 1558.2 -1.74969 -0.887719 0
M  V30 16502 O 1557.33 -1.34598 -1.69447 0
M  V30 16503 C 1557.92 -3.21228 1.07694 0
M  V30 16504 C 1556.48 -3.67614 0.80849 0
M  V30 16505 C 1555.63 -2.47921 1.24219 0
M  V30 16506 H 1558.58 -1.1465 1.09732 0
M  V30 16507 H 1558.6 -3.7818 0.419531 0
M  V30 16508 H 1558.11 -3.226 2.15757 0
M  V30 16509 H 1556.21 -3.717 -0.258814 0
M  V30 16510 H 1556.33 -4.57633 1.41804 0
M  V30 16511 H 1554.69 -2.45976 0.660892 0
M  V30 16512 H 1555.47 -2.5201 2.33122 0
M  V30 16513 N 1557.92 -0.68059 -1.42147 0
M  V30 16514 C 1559.17 -0.204857 -2.01059 0
M  V30 16515 C 1559.49 1.19475 -1.54113 0
M  V30 16516 O 1558.76 1.80334 -0.765279 0
M  V30 16517 H 1557.34 -0.0727459 -0.743449 0
M  V30 16518 H 1560 -0.878396 -1.73983 0
M  V30 16519 H 1559.09 -0.210628 -3.11388 0
M  V30 16520 N 1559.4 1.51781 -0.424309 0
M  V30 16521 C 1560.33 2.30313 0.384462 0
M  V30 16522 C 1561.31 1.35166 1.03268 0
M  V30 16523 O 1562.49 1.64081 1.0388 0
M  V30 16524 C 1559.62 3.13566 1.49311 0
M  V30 16525 C 1558.58 4.16884 0.969096 0
M  V30 16526 C 1557.9 4.88576 2.17251 0
M  V30 16527 C 1559.2 5.22298 0.0125613 0
M  V30 16528 H 1560.9 2.98172 -0.270871 0
M  V30 16529 H 1558.44 1.43396 -0.131712 0
M  V30 16530 H 1560.39 3.67279 2.06602 0
M  V30 16531 H 1559.12 2.43504 2.17655 0
M  V30 16532 H 1557.78 3.64203 0.418494 0
M  V30 16533 H 1557.43 4.15029 2.84183 0
M  V30 16534 H 1557.13 5.58432 1.82833 0
M  V30 16535 H 1558.65 5.45107 2.75119 0
M  V30 16536 H 1560.06 5.71161 0.494744 0
M  V30 16537 H 1558.46 5.99606 -0.243544 0
M  V30 16538 H 1559.53 4.75935 -0.92813 0
M  V30 16539 N 1560.87 0.155222 1.56834 0
M  V30 16540 C 1561.84 -0.767266 2.15976 0
M  V30 16541 C 1562.84 -1.16946 1.10364 0
M  V30 16542 O 1564.03 -1.08905 1.35961 0
M  V30 16543 C 1561.16 -2.04226 2.72956 0
M  V30 16544 H 1562.35 -0.252662 2.98834 0
M  V30 16545 H 1559.9 -0.0942677 1.56015 0
M  V30 16546 H 1560.64 -2.60033 1.93787 0
M  V30 16547 H 1560.42 -1.76299 3.5023 0
M  V30 16548 H 1561.91 -2.70093 3.18495 0
M  V30 16549 N 1562.35 -1.57153 -0.118549 0
M  V30 16550 C 1563.28 -2.03409 -1.1466 0
M  V30 16551 C 1564.26 -0.918636 -1.43161 0
M  V30 16552 O 1565.45 -1.18838 -1.53594 0
M  V30 16553 C 1562.58 -2.43879 -2.47265 0
M  V30 16554 C 1561.53 -3.58873 -2.33225 0
M  V30 16555 C 1560.86 -3.85244 -3.70798 0
M  V30 16556 C 1562.16 -4.90582 -1.79239 0
M  V30 16557 H 1563.85 -2.89545 -0.761862 0
M  V30 16558 H 1561.4 -1.39296 -0.365034 0
M  V30 16559 H 1563.35 -2.74844 -3.19435 0
M  V30 16560 H 1562.07 -1.54715 -2.8763 0
M  V30 16561 H 1560.73 -3.28119 -1.63504 0
M  V30 16562 H 1560.38 -2.93285 -4.08648 0
M  V30 16563 H 1560.08 -4.62649 -3.62257 0
M  V30 16564 H 1561.61 -4.18661 -4.44472 0
M  V30 16565 H 1563.02 -5.20079 -2.41227 0
M  V30 16566 H 1561.42 -5.71989 -1.81518 0
M  V30 16567 H 1562.49 -4.79065 -0.74999 0
M  V30 16568 N 1563.83 0.388742 -1.5273 0
M  V30 16569 C 1565.24 0.966667 -1.59726 0
M  V30 16570 C 1565.59 1.90963 -0.450272 0
M  V30 16571 O 1564.72 2.12153 0.426611 0
M  V30 16572 C 1565.31 1.75998 -2.895 0
M  V30 16573 C 1563.87 2.28761 -2.98907 0
M  V30 16574 C 1563.02 1.09322 -2.54841 0
M  V30 16575 H 1565.97 0.16828 -1.57805 0
M  V30 16576 H 1565.99 2.61924 -2.76 0
M  V30 16577 H 1565.5 1.07342 -3.7296 0
M  V30 16578 H 1563.6 3.00728 -2.19985 0
M  V30 16579 H 1563.72 2.58229 -4.03552 0
M  V30 16580 H 1562.08 1.45332 -2.09167 0
M  V30 16581 H 1562.86 0.421999 -3.40696 0
M  V30 16582 N 1565.31 1.43698 0.647203 0
M  V30 16583 C 1566.24 1.52135 1.77136 0
M  V30 16584 C 1567.22 0.375551 1.65902 0
M  V30 16585 O 1568.4 0.593564 1.84907 0
M  V30 16586 C 1565.53 1.44974 3.15594 0
M  V30 16587 C 1564.49 2.57866 3.41598 0
M  V30 16588 C 1563.81 2.35757 4.7992 0
M  V30 16589 C 1565.11 4.00089 3.35747 0
M  V30 16590 H 1566.81 2.46227 1.70332 0
M  V30 16591 H 1564.35 1.18507 0.818046 0
M  V30 16592 H 1566.31 1.4948 3.93997 0
M  V30 16593 H 1565.03 0.473905 3.23143 0
M  V30 16594 H 1563.69 2.52722 2.65569 0
M  V30 16595 H 1563.34 1.36403 4.84152 0
M  V30 16596 H 1563.04 3.11436 4.98278 0
M  V30 16597 H 1564.56 2.42055 5.60572 0
M  V30 16598 H 1565.98 4.06687 4.04078 0
M  V30 16599 H 1564.37 4.75842 3.65642 0
M  V30 16600 H 1565.44 4.24798 2.33825 0
M  V30 16601 N 1566.79 -0.886131 1.30328 0
M  V30 16602 C 1568.03 -1.64026 1.19261 0
M  V30 16603 C 1568.37 -1.92553 -0.252379 0
M  V30 16604 O 1567.64 -1.54564 -1.18069 0
M  V30 16605 C 1567.92 -2.9808 2.0204 0
M  V30 16606 C 1567.78 -2.76534 3.54752 0
M  V30 16607 C 1569.1 -3.98989 1.85731 0
M  V30 16608 H 1566.21 -0.595224 0.4346 0
M  V30 16609 H 1568.86 -1.0255 1.59949 0
M  V30 16610 H 1567.01 -3.50552 1.67469 0
M  V30 16611 H 1568.68 -2.3086 3.99376 0
M  V30 16612 H 1566.92 -2.1106 3.78993 0
M  V30 16613 H 1567.59 -3.71849 4.07961 0
M  V30 16614 H 1570.07 -3.55673 2.15953 0
M  V30 16615 H 1568.94 -4.90699 2.45979 0
M  V30 16616 H 1569.21 -4.34501 0.816152 0
M  V30 16617 N 1568.26 -1.13026 -1.09832 0
M  V30 16618 C 1569.23 -0.806832 -2.14529 0
M  V30 16619 C 1570.23 0.18175 -1.5977 0
M  V30 16620 O 1571.42 -0.0448155 -1.74142 0
M  V30 16621 C 1568.55 -0.200093 -3.40312 0
M  V30 16622 H 1569.74 -1.73453 -2.44651 0
M  V30 16623 H 1567.3 -0.934331 -1.25299 0
M  V30 16624 H 1568.03 0.737028 -3.15814 0
M  V30 16625 H 1567.82 -0.911945 -3.81348 0
M  V30 16626 H 1569.31 0.00948247 -4.17599 0
M  V30 16627 N 1569.74 1.27735 -0.923117 0
M  V30 16628 C 1570.68 2.25293 -0.363081 0
M  V30 16629 C 1571.65 1.53442 0.537978 0
M  V30 16630 O 1572.84 1.82299 0.479521 0
M  V30 16631 C 1569.96 3.35281 0.480058 0
M  V30 16632 C 1569.01 4.25004 -0.356928 0
M  V30 16633 S 1569.84 5.05417 -1.76959 0
M  V30 16634 C 1571 6.18892 -0.934006 0
M  V30 16635 H 1571.23 2.72448 -1.18993 0
M  V30 16636 H 1568.77 1.3632 -0.724991 0
M  V30 16637 H 1570.72 3.99101 0.960668 0
M  V30 16638 H 1569.38 2.86774 1.28139 0
M  V30 16639 H 1568.58 5.03175 0.288203 0
M  V30 16640 H 1568.18 3.65955 -0.771538 0
M  V30 16641 H 1570.47 6.77292 -0.167905 0
M  V30 16642 H 1571.41 6.87672 -1.68858 0
M  V30 16643 H 1571.82 5.62472 -0.478042 0
M  V30 16644 N 1571.22 0.688118 1.41784 0
M  V30 16645 C 1572.18 0.0271411 2.29184 0
M  V30 16646 C 1573.18 -0.715537 1.44002 0
M  V30 16647 O 1574.37 -0.551542 1.65238 0
M  V30 16648 C 1571.51 -0.97206 3.26747 0
M  V30 16649 H 1572.7 0.79658 2.89127 0
M  V30 16650 H 1570.25 0.451198 1.49646 0
M  V30 16651 H 1570.99 -1.76953 2.71769 0
M  V30 16652 H 1570.77 -0.442746 3.89592 0
M  V30 16653 H 1572.26 -1.43256 3.92259 0
M  V30 16654 N 1572.7 -1.51554 0.432352 0
M  V30 16655 C 1573.66 -2.26195 -0.369912 0
M  V30 16656 C 1574.66 -1.29446 -0.953961 0
M  V30 16657 O 1575.85 -1.53199 -0.829193 0
M  V30 16658 C 1572.98 -3.04993 -1.52289 0
M  V30 16659 H 1574.18 -2.98551 0.284173 0
M  V30 16660 H 1571.73 -1.55197 0.1854 0
M  V30 16661 H 1572.46 -2.37043 -2.21317 0
M  V30 16662 H 1572.25 -3.76051 -1.11032 0
M  V30 16663 H 1573.74 -3.61547 -2.08982 0
M  V30 16664 N 1574.18 -0.163538 -1.56749 0
M  V30 16665 C 1575.42 0.482449 -1.96257 0
M  V30 16666 C 1575.75 1.64302 -1.05023 0
M  V30 16667 O 1575.02 1.95562 -0.115027 0
M  V30 16668 H 1573.6 0.181222 -0.724684 0
M  V30 16669 H 1576.26 -0.242903 -1.9338 0
M  V30 16670 H 1575.35 0.847634 -3.00369 0
M  V30 16671 N 1575.65 1.57214 0.110213 0
M  V30 16672 C 1576.9 1.84946 0.814827 0
M  V30 16673 C 1577.22 0.750029 1.79999 0
M  V30 16674 O 1576.49 -0.225164 1.94602 0
M  V30 16675 H 1575.07 0.682385 0.303907 0
M  V30 16676 H 1577.74 1.94666 0.0954415 0
M  V30 16677 H 1576.83 2.81167 1.35469 0
M  V30 16678 N 1577.13 -0.380637 1.52934 0
M  V30 16679 C 1578.55 -0.721287 1.42371 0
M  V30 16680 C 1578.75 -1.93826 0.55078 0
M  V30 16681 O 1577.8 -2.52485 0.02743 0
M  V30 16682 C 1579.12 -0.948564 2.85347 0
M  V30 16683 C 1580.67 -1.04952 2.9488 0
M  V30 16684 C 1581.14 -1.30937 4.38885 0
M  V30 16685 N 1582.63 -1.3774 4.42246 0
M  V30 16686 C 1583.37 -1.59527 5.50762 0
M  V30 16687 N 1582.86 -1.7873 6.69349 0
M  V30 16688 N 1584.66 -1.61774 5.38317 0
M  V30 16689 H 1576.81 0.420032 2.08205 0
M  V30 16690 H 1579.07 0.125776 0.939619 0
M  V30 16691 H 1578.78 -0.126348 3.51473 0
M  V30 16692 H 1578.65 -1.8609 3.28101 0
M  V30 16693 H 1581.04 -1.86229 2.28917 0
M  V30 16694 H 1581.12 -0.114899 2.55542 0
M  V30 16695 H 1580.76 -0.50166 5.05416 0
M  V30 16696 H 1580.69 -2.25696 4.75782 0
M  V30 16697 H 1583.18 -1.24575 3.56777 0
M  V30 16698 H 1583.5 -1.94885 7.47823 0
M  V30 16699 H 1581.84 -1.75938 6.72362 0
M  V30 16700 H 1585.03 -1.4633 4.44641 0
M  V30 16701 H 1585.2 -1.78414 6.22955 0
M  V30 16702 N 1578.61 -1.44039 -0.639573 0
M  V30 16703 C 1579.86 -1.47589 -1.39961 0
M  V30 16704 C 1580.21 -0.103692 -1.9212 0
M  V30 16705 O 1579.5 0.879803 -1.70206 0
M  V30 16706 C 1579.7 -2.46459 -2.5883 0
M  V30 16707 C 1579.53 -3.93157 -2.18306 0
M  V30 16708 C 1578.3 -4.61409 -2.05984 0
M  V30 16709 C 1580.5 -4.8261 -1.77741 0
M  V30 16710 N 1578.48 -5.9297 -1.58935 0
M  V30 16711 C 1579.85 -6.03549 -1.41875 0
M  V30 16712 C 1581.9 -4.69749 -1.65046 0
M  V30 16713 C 1580.61 -7.13054 -0.94584 0
M  V30 16714 C 1582.63 -5.79271 -1.1916 0
M  V30 16715 C 1581.99 -6.99345 -0.842389 0
M  V30 16716 H 1578.09 -0.595136 -0.507284 0
M  V30 16717 H 1580.68 -1.8031 -0.734598 0
M  V30 16718 H 1578.85 -2.15742 -3.22971 0
M  V30 16719 H 1580.58 -2.40359 -3.25592 0
M  V30 16720 H 1577.34 -4.16104 -2.26173 0
M  V30 16721 H 1577.76 -6.62841 -1.37733 0
M  V30 16722 H 1582.4 -3.77361 -1.90679 0
M  V30 16723 H 1580.12 -8.05259 -0.677011 0
M  V30 16724 H 1583.71 -5.71344 -1.09808 0
M  V30 16725 H 1582.59 -7.8265 -0.492752 0
M  V30 16726 N 1580.09 0.879207 -1.30796 0
M  V30 16727 C 1581.33 1.63392 -1.20129 0
M  V30 16728 C 1581.67 1.92684 0.242164 0
M  V30 16729 O 1580.94 1.55188 1.17247 0
M  V30 16730 C 1581.23 2.97005 -2.03618 0
M  V30 16731 C 1581.08 2.74649 -3.56214 0
M  V30 16732 C 1582.4 3.97998 -1.87845 0
M  V30 16733 H 1579.52 0.592911 -0.437751 0
M  V30 16734 H 1582.16 1.017 -1.6049 0
M  V30 16735 H 1580.31 3.49659 -1.69326 0
M  V30 16736 H 1581.98 2.28738 -4.00595 0
M  V30 16737 H 1580.22 2.09048 -3.80107 0
M  V30 16738 H 1580.89 3.69681 -4.09927 0
M  V30 16739 H 1583.37 3.54523 -2.17836 0
M  V30 16740 H 1582.25 4.89388 -2.48578 0
M  V30 16741 H 1582.51 4.34062 -0.839183 0
M  V30 16742 N 1581.57 1.13606 1.09231 0
M  V30 16743 C 1582.98 0.87469 1.33497 0
M  V30 16744 C 1583.18 -0.488687 1.95484 0
M  V30 16745 O 1582.24 -1.23478 2.20249 0
M  V30 16746 C 1583.55 2.00086 2.24468 0
M  V30 16747 C 1585.1 2.03319 2.37972 0
M  V30 16748 C 1585.58 3.15205 3.3228 0
M  V30 16749 N 1587.07 3.14728 3.39854 0
M  V30 16750 C 1587.8 3.97941 4.12833 0
M  V30 16751 N 1587.3 4.91172 4.88591 0
M  V30 16752 N 1589.09 3.86032 4.08578 0
M  V30 16753 H 1581.24 2.01432 0.673709 0
M  V30 16754 H 1583.5 0.877259 0.359334 0
M  V30 16755 H 1583.21 2.98397 1.86151 0
M  V30 16756 H 1583.08 1.91673 3.24871 0
M  V30 16757 H 1585.47 1.0562 2.75551 0
M  V30 16758 H 1585.55 2.15804 1.3734 0
M  V30 16759 H 1585.2 4.13143 2.95423 0
M  V30 16760 H 1585.13 2.99957 4.3282 0
M  V30 16761 H 1587.62 2.47196 2.85837 0
M  V30 16762 H 1587.93 5.5115 5.41714 0
M  V30 16763 H 1586.28 4.95177 4.87673 0
M  V30 16764 H 1589.47 3.12522 3.48494 0
M  V30 16765 H 1589.64 4.51111 4.65191 0
M  V30 16766 N 1583.05 -1.27244 0.929878 0
M  V30 16767 C 1583.98 -2.25893 0.387967 0
M  V30 16768 C 1584.99 -1.55485 -0.482524 0
M  V30 16769 O 1586.18 -1.76049 -0.294795 0
M  V30 16770 C 1583.28 -3.35729 -0.462544 0
M  V30 16771 C 1582.45 -4.35665 0.38916 0
M  V30 16772 C 1581.51 -5.24685 -0.399061 0
M  V30 16773 O 1580.54 -5.68869 0.193996 0
M  V30 16774 N 1581.74 -5.551 -1.69836 0
M  V30 16775 H 1584.5 -2.73027 1.23597 0
M  V30 16776 H 1582.07 -1.40893 0.797539 0
M  V30 16777 H 1584.06 -3.92228 -0.996974 0
M  V30 16778 H 1582.63 -2.88177 -1.2113 0
M  V30 16779 H 1581.85 -3.78399 1.10488 0
M  V30 16780 H 1583.14 -4.99442 0.971349 0
M  V30 16781 H 1582.53 -5.21064 -2.20248 0
M  V30 16782 H 1581.09 -6.14289 -2.17927 0
M  V30 16783 N 1584.52 -0.695628 -1.41417 0
M  V30 16784 C 1585.46 0.00883515 -2.29198 0
M  V30 16785 C 1586.47 0.744337 -1.44788 0
M  V30 16786 O 1587.66 0.59503 -1.6829 0
M  V30 16787 C 1584.76 1.0366 -3.22657 0
M  V30 16788 C 1583.93 0.37071 -4.35826 0
M  V30 16789 C 1582.99 1.3011 -5.09861 0
M  V30 16790 O 1582.02 0.793461 -5.63642 0
M  V30 16791 N 1583.22 2.63343 -5.1733 0
M  V30 16792 H 1585.98 -0.744795 -2.90298 0
M  V30 16793 H 1583.54 -0.541663 -1.5257 0
M  V30 16794 H 1585.54 1.66075 -3.69054 0
M  V30 16795 H 1584.11 1.69177 -2.62865 0
M  V30 16796 H 1583.33 -0.433315 -3.91811 0
M  V30 16797 H 1584.61 -0.0923178 -5.08716 0
M  V30 16798 H 1584.01 3.07103 -4.75083 0
M  V30 16799 H 1582.57 3.20952 -5.67303 0
M  V30 16800 N 1586 1.51322 -0.440383 0
M  V30 16801 C 1587.25 2.01714 0.124815 0
M  V30 16802 C 1587.57 1.32634 1.42945 0
M  V30 16803 O 1586.84 0.461849 1.90378 0
M  V30 16804 H 1585.42 0.745384 0.049116 0
M  V30 16805 H 1588.08 1.85951 -0.583787 0
M  V30 16806 H 1587.18 3.10669 0.29853 0
M  V30 16807 N 1587.48 0.171848 1.5666 0
M  V30 16808 C 1588.89 -0.34479 1.83489 0
M  V30 16809 C 1589.24 -1.63025 1.09167 0
M  V30 16810 O 1588.37 -2.13634 0.34488 0
M  V30 16811 C 1588.96 -0.63234 3.32847 0
M  V30 16812 C 1587.52 -1.09342 3.60169 0
M  V30 16813 C 1586.67 -0.129569 2.76997 0
M  V30 16814 H 1589.62 0.396101 1.53677 0
M  V30 16815 H 1589.64 -1.48434 3.50354 0
M  V30 16816 H 1589.15 0.303409 3.86912 0
M  V30 16817 H 1587.25 -2.04425 3.11514 0
M  V30 16818 H 1587.37 -1.00221 4.685 0
M  V30 16819 H 1585.73 -0.627033 2.46861 0
M  V30 16820 H 1586.51 0.800211 3.33844 0
M  V30 16821 N 1588.96 -1.5727 -0.101874 0
M  V30 16822 C 1590.37 -1.5295 -0.455899 0
M  V30 16823 C 1590.57 -0.887526 -1.80901 0
M  V30 16824 O 1589.63 -0.477143 -2.47951 0
M  V30 16825 C 1590.94 -2.97687 -0.424625 0
M  V30 16826 C 1592.49 -3.08867 -0.506963 0
M  V30 16827 C 1592.97 -4.55197 -0.505907 0
M  V30 16828 N 1594.46 -4.59718 -0.566856 0
M  V30 16829 C 1595.19 -5.7038 -0.587766 0
M  V30 16830 N 1594.69 -6.9049 -0.56529 0
M  V30 16831 N 1596.48 -5.58535 -0.632067 0
M  V30 16832 H 1588.63 -1.97381 0.784509 0
M  V30 16833 H 1590.89 -0.902141 0.291284 0
M  V30 16834 H 1590.6 -3.48094 0.502312 0
M  V30 16835 H 1590.47 -3.56022 -1.24612 0
M  V30 16836 H 1592.86 -2.58451 -1.42432 0
M  V30 16837 H 1592.94 -2.53496 0.342544 0
M  V30 16838 H 1592.59 -5.06263 0.407477 0
M  V30 16839 H 1592.52 -5.08399 -1.37253 0
M  V30 16840 H 1595.01 -3.73271 -0.589696 0
M  V30 16841 H 1595.32 -7.70588 -0.584342 0
M  V30 16842 H 1593.67 -6.92957 -0.532444 0
M  V30 16843 H 1596.86 -4.63606 -0.647109 0
M  V30 16844 H 1597.03 -6.44783 -0.644895 0
M  V30 16845 N 1590.44 0.372521 -1.53134 0
M  V30 16846 C 1591.68 1.11754 -1.6923 0
M  V30 16847 C 1592.01 1.89167 -0.439265 0
M  V30 16848 O 1591.29 1.86164 0.563317 0
M  V30 16849 C 1591.57 2.08242 -2.93781 0
M  V30 16850 C 1591.43 1.34484 -4.29225 0
M  V30 16851 C 1592.74 3.08457 -3.13914 0
M  V30 16852 H 1589.86 0.404898 -0.615814 0
M  V30 16853 H 1592.51 0.399101 -1.85761 0
M  V30 16854 H 1590.66 2.69507 -2.79818 0
M  V30 16855 H 1592.33 0.76056 -4.54987 0
M  V30 16856 H 1590.57 0.646673 -4.28953 0
M  V30 16857 H 1591.24 2.05071 -5.12494 0
M  V30 16858 H 1593.72 2.57292 -3.27017 0
M  V30 16859 H 1592.59 3.73198 -4.0251 0
M  V30 16860 H 1592.85 3.78243 -2.28878 0
M  V30 16861 N 1591.91 1.44376 0.631925 0
M  V30 16862 C 1593.33 1.28245 0.950014 0
M  V30 16863 C 1593.53 0.217644 2.00321 0
M  V30 16864 O 1592.59 -0.396736 2.49364 0
M  V30 16865 C 1593.9 2.65378 1.41404 0
M  V30 16866 C 1595.45 2.73081 1.52956 0
M  V30 16867 C 1595.92 4.10682 2.02742 0
M  V30 16868 N 1597.41 4.12854 2.10014 0
M  V30 16869 C 1598.15 5.16173 2.49705 0
M  V30 16870 N 1597.64 6.29855 2.88539 0
M  V30 16871 N 1599.44 5.03528 2.49832 0
M  V30 16872 H 1591.59 2.12302 -0.0646167 0
M  V30 16873 H 1593.85 0.9474 0.0337162 0
M  V30 16874 H 1593.56 3.44366 0.714476 0
M  V30 16875 H 1593.43 2.92213 2.3852 0
M  V30 16876 H 1595.82 1.94412 2.22009 0
M  V30 16877 H 1595.9 2.49988 0.542176 0
M  V30 16878 H 1595.54 4.89827 1.34285 0
M  V30 16879 H 1595.47 4.31152 3.02351 0
M  V30 16880 H 1597.96 3.30806 1.8269 0
M  V30 16881 H 1598.28 7.04505 3.17637 0
M  V30 16882 H 1596.62 6.33294 2.86293 0
M  V30 16883 H 1599.81 4.13773 2.18883 0
M  V30 16884 H 1599.99 5.84172 2.80441 0
M  V30 16885 N 1593.39 -0.872258 1.31261 0
M  V30 16886 C 1594.81 -1.15763 1.09868 0
M  V30 16887 C 1595.01 -2.01065 -0.132331 0
M  V30 16888 O 1594.06 -2.38735 -0.822317 0
M  V30 16889 C 1595.38 -1.85199 2.36901 0
M  V30 16890 C 1596.92 -1.9791 2.42489 0
M  V30 16891 C 1597.4 -2.70759 3.69396 0
M  V30 16892 N 1598.89 -2.78296 3.70278 0
M  V30 16893 C 1599.63 -3.3527 4.65168 0
M  V30 16894 N 1599.12 -3.93193 5.70413 0
M  V30 16895 N 1600.91 -3.33206 4.52692 0
M  V30 16896 H 1593.07 -0.303784 2.10216 0
M  V30 16897 H 1595.33 -0.197172 0.927269 0
M  V30 16898 H 1595.03 -1.29968 3.26804 0
M  V30 16899 H 1594.91 -2.85493 2.46523 0
M  V30 16900 H 1597.3 -2.52305 1.53056 0
M  V30 16901 H 1597.38 -0.966644 2.36833 0
M  V30 16902 H 1597.02 -2.17031 4.59195 0
M  V30 16903 H 1596.95 -3.72407 3.72318 0
M  V30 16904 H 1599.44 -2.37185 2.94197 0
M  V30 16905 H 1599.75 -4.34771 6.38901 0
M  V30 16906 H 1598.1 -3.91575 5.7419 0
M  V30 16907 H 1601.29 -2.87191 3.69647 0
M  V30 16908 H 1601.46 -3.7731 5.26822 0
M  V30 16909 N 1594.87 -1.14184 -1.08627 0
M  V30 16910 C 1596.12 -0.906869 -1.80611 0
M  V30 16911 C 1596.44 0.568182 -1.86539 0
M  V30 16912 O 1595.71 1.41301 -1.35687 0
M  V30 16913 H 1594.29 -0.332523 -0.668908 0
M  V30 16914 H 1596.95 -1.43998 -1.31341 0
M  V30 16915 H 1596.05 -1.30484 -2.83514 0
M  V30 16916 N 1596.35 1.26749 -0.936613 0
M  V30 16917 C 1597.6 1.93255 -0.577524 0
M  V30 16918 C 1597.91 1.74337 0.886905 0
M  V30 16919 O 1599.12 2.3526 1.35517 0
M  V30 16920 C 1597.57 3.4624 -0.982119 0
M  V30 16921 C 1597.18 3.739 -2.46784 0
M  V30 16922 C 1598.92 4.18777 -0.694706 0
M  V30 16923 C 1596.83 5.20303 -2.81138 0
M  V30 16924 H 1595.76 0.723502 -0.212276 0
M  V30 16925 H 1598.41 1.43901 -1.13863 0
M  V30 16926 H 1596.79 3.94454 -0.349577 0
M  V30 16927 H 1597.97 3.3641 -3.14905 0
M  V30 16928 H 1596.28 3.14587 -2.72808 0
M  V30 16929 H 1598.88 5.2659 -0.927756 0
M  V30 16930 H 1599.22 4.14667 0.368392 0
M  V30 16931 H 1599.76 3.76414 -1.28676 0
M  V30 16932 H 1596.5 5.29511 -3.86392 0
M  V30 16933 H 1596.02 5.58907 -2.17675 0
M  V30 16934 H 1597.69 5.88265 -2.69358 0
M  V30 16935 N 1597.83 0.703118 1.41046 0
M  V30 16936 C 1599.05 0.245088 2.05947 0
M  V30 16937 C 1599.48 -1.09988 1.52592 0
M  V30 16938 O 1598.83 -1.69015 0.656023 0
M  V30 16939 C 1598.88 0.221444 3.59919 0
M  V30 16940 O 1597.99 -0.801324 4.0454 0
M  V30 16941 H 1597.33 0.117862 0.653456 0
M  V30 16942 H 1599.86 0.960099 1.80674 0
M  V30 16943 H 1599.87 0.0548681 4.07963 0
M  V30 16944 H 1598.54 1.20301 3.98121 0
M  V30 16945 H 1597.12 -0.603489 3.67984 0
M  V30 16946 N 1599.3 -1.51086 0.448402 0
M  V30 16947 C 1600.72 -1.59278 0.101286 0
M  V30 16948 C 1600.92 -1.45847 -1.39036 0
M  V30 16949 O 1599.98 -1.30534 -2.16142 0
M  V30 16950 C 1601.29 -2.93999 0.631264 0
M  V30 16951 C 1602.84 -3.07337 0.59268 0
M  V30 16952 C 1603.31 -4.44599 1.09982 0
M  V30 16953 N 1604.8 -4.50949 1.05827 0
M  V30 16954 C 1605.54 -5.55503 1.42142 0
M  V30 16955 N 1605.03 -6.67422 1.85796 0
M  V30 16956 N 1606.83 -5.45922 1.33888 0
M  V30 16957 H 1598.98 -1.58062 1.41881 0
M  V30 16958 H 1601.24 -0.745702 0.585349 0
M  V30 16959 H 1600.95 -3.09233 1.67534 0
M  V30 16960 H 1600.82 -3.77149 0.0622533 0
M  V30 16961 H 1603.21 -2.91764 -0.442437 0
M  V30 16962 H 1603.29 -2.26 1.19823 0
M  V30 16963 H 1602.93 -4.60919 2.13345 0
M  V30 16964 H 1602.86 -5.24492 0.470703 0
M  V30 16965 H 1605.35 -3.70627 0.737822 0
M  V30 16966 H 1605.67 -7.43234 2.11714 0
M  V30 16967 H 1604.01 -6.68601 1.89731 0
M  V30 16968 H 1607.2 -4.57372 0.996415 0
M  V30 16969 H 1607.38 -6.2729 1.62517 0
M  V30 16970 N 1600.78 -0.180154 -1.56567 0
M  V30 16971 C 1601.71 0.742131 -2.21393 0
M  V30 16972 C 1602.69 1.23253 -1.1723 0
M  V30 16973 O 1603.88 1.28408 -1.45688 0
M  V30 16974 C 1601.01 1.96799 -2.8616 0
M  V30 16975 C 1599.96 1.6131 -3.96438 0
M  V30 16976 C 1599.29 2.91434 -4.48297 0
M  V30 16977 C 1600.59 0.834382 -5.15592 0
M  V30 16978 H 1602.28 0.201759 -2.98719 0
M  V30 16979 H 1599.83 0.0956016 -1.43682 0
M  V30 16980 H 1601.78 2.61828 -3.30188 0
M  V30 16981 H 1600.51 2.53264 -2.06215 0
M  V30 16982 H 1599.16 0.986451 -3.53079 0
M  V30 16983 H 1598.81 3.45958 -3.65133 0
M  V30 16984 H 1598.51 2.68439 -5.22699 0
M  V30 16985 H 1600.04 3.57478 -4.95017 0
M  V30 16986 H 1601.45 1.38745 -5.56258 0
M  V30 16987 H 1599.85 0.703132 -5.95966 0
M  V30 16988 H 1600.92 -0.167554 -4.8461 0
M  V30 16989 N 1602.26 1.57322 0.0935319 0
M  V30 16990 C 1603.51 1.87313 0.792794 0
M  V30 16991 C 1603.86 0.771181 1.76268 0
M  V30 16992 O 1603.15 -0.226679 1.90254 0
M  V30 16993 C 1603.35 3.21605 1.55901 0
M  V30 16994 C 1603.18 4.44758 0.66483 0
M  V30 16995 C 1601.95 5.04348 0.309971 0
M  V30 16996 C 1604.15 5.14292 -0.0288905 0
M  V30 16997 N 1602.13 6.11037 -0.592212 0
M  V30 16998 C 1603.5 6.14958 -0.789082 0
M  V30 16999 C 1605.55 4.97794 -0.102647 0
M  V30 17000 C 1604.26 7.00909 -1.61614 0
M  V30 17001 C 1606.28 5.84254 -0.916612 0
M  V30 17002 C 1605.64 6.84441 -1.66492 0
M  V30 17003 H 1601.74 0.735289 0.266222 0
M  V30 17004 H 1604.33 1.94622 0.0552534 0
M  V30 17005 H 1602.5 3.15345 2.26742 0
M  V30 17006 H 1604.23 3.39317 2.20559 0
M  V30 17007 H 1600.99 4.69007 0.65798 0
M  V30 17008 H 1601.41 6.69028 -1.0359 0
M  V30 17009 H 1606.05 4.20273 0.461548 0
M  V30 17010 H 1603.77 7.7782 -2.1914 0
M  V30 17011 H 1607.36 5.73549 -0.976374 0
M  V30 17012 H 1606.24 7.50183 -2.28461 0
M  V30 17013 N 1603.74 -0.364395 1.53329 0
M  V30 17014 C 1604.67 -1.45243 1.8283 0
M  V30 17015 C 1605.65 -1.55834 0.681886 0
M  V30 17016 O 1606.83 -1.70383 0.931845 0
M  V30 17017 C 1603.96 -2.82565 2.01926 0
M  V30 17018 C 1602.92 -2.86797 3.17697 0
M  V30 17019 C 1602.24 -4.26806 3.22089 0
M  V30 17020 C 1603.54 -2.54212 4.56261 0
M  V30 17021 H 1605.24 -1.20804 2.73946 0
M  V30 17022 H 1602.78 -0.579705 1.31816 0
M  V30 17023 H 1604.74 -3.58709 2.21147 0
M  V30 17024 H 1603.46 -3.08394 1.07521 0
M  V30 17025 H 1602.12 -2.13105 2.98298 0
M  V30 17026 H 1601.77 -4.49712 2.25318 0
M  V30 17027 H 1601.47 -4.30553 3.99873 0
M  V30 17028 H 1602.99 -5.04821 3.43495 0
M  V30 17029 H 1604.41 -3.20069 4.75635 0
M  V30 17030 H 1602.8 -2.69273 5.36295 0
M  V30 17031 H 1603.87 -1.49458 4.61292 0
M  V30 17032 N 1605.22 -1.44709 -0.62426 0
M  V30 17033 C 1606.63 -1.28747 -0.9432 0
M  V30 17034 C 1606.83 -0.228265 -2.00203 0
M  V30 17035 O 1605.89 0.383506 -2.49571 0
M  V30 17036 C 1607.2 -2.66124 -1.39995 0
M  V30 17037 C 1608.75 -2.73889 -1.51506 0
M  V30 17038 C 1609.22 -4.11751 -2.00562 0
M  V30 17039 N 1610.72 -4.13962 -2.07821 0
M  V30 17040 C 1611.45 -5.1749 -2.46964 0
M  V30 17041 N 1610.95 -6.31376 -2.85195 0
M  V30 17042 N 1612.74 -5.04846 -2.47158 0
M  V30 17043 H 1604.89 -2.12264 0.0758746 0
M  V30 17044 H 1607.15 -0.947566 -0.0286915 0
M  V30 17045 H 1606.86 -3.4474 -0.696203 0
M  V30 17046 H 1606.73 -2.93474 -2.36967 0
M  V30 17047 H 1609.12 -1.95587 -2.20975 0
M  V30 17048 H 1609.2 -2.50272 -0.528911 0
M  V30 17049 H 1608.85 -4.90532 -1.31685 0
M  V30 17050 H 1608.78 -4.32749 -3.0006 0
M  V30 17051 H 1611.27 -3.31771 -1.80933 0
M  V30 17052 H 1611.58 -7.06179 -3.13896 0
M  V30 17053 H 1609.92 -6.34804 -2.8293 0
M  V30 17054 H 1613.12 -4.14927 -2.16686 0
M  V30 17055 H 1613.29 -5.85651 -2.77339 0
M  V30 17056 N 1606.69 0.865285 -1.31722 0
M  V30 17057 C 1607.94 1.62108 -1.21855 0
M  V30 17058 C 1608.27 1.9293 0.221714 0
M  V30 17059 O 1607.55 1.56423 1.15595 0
M  V30 17060 C 1607.83 2.94828 -2.06756 0
M  V30 17061 C 1607.68 2.70855 -3.59107 0
M  V30 17062 C 1609 3.95983 -1.92055 0
M  V30 17063 H 1606.12 0.588234 -0.444015 0
M  V30 17064 H 1608.76 0.999922 -1.6156 0
M  V30 17065 H 1606.91 3.47843 -1.73025 0
M  V30 17066 H 1608.59 2.24477 -4.02999 0
M  V30 17067 H 1606.83 2.05004 -3.82303 0
M  V30 17068 H 1607.5 3.65312 -4.13825 0
M  V30 17069 H 1609.98 3.52193 -2.21584 0
M  V30 17070 H 1608.85 4.86724 -2.53754 0
M  V30 17071 H 1609.11 4.33148 -0.885174 0
M  V30 17072 N 1608.17 1.14759 1.0802 0
M  V30 17073 C 1609.1 0.860977 2.17047 0
M  V30 17074 C 1610.08 -0.185652 1.69084 0
M  V30 17075 O 1611.27 -0.0414797 1.94156 0
M  V30 17076 C 1608.4 0.342018 3.45612 0
M  V30 17077 C 1607.35 1.32455 4.06989 0
M  V30 17078 C 1606.68 0.664721 5.30552 0
M  V30 17079 C 1607.98 2.68819 4.4781 0
M  V30 17080 H 1609.67 1.77269 2.4128 0
M  V30 17081 H 1607.22 0.853757 1.15961 0
M  V30 17082 H 1609.17 0.129093 4.21202 0
M  V30 17083 H 1607.9 -0.605138 3.20945 0
M  V30 17084 H 1606.55 1.52371 3.33435 0
M  V30 17085 H 1606.2 -0.288367 5.02173 0
M  V30 17086 H 1605.9 1.32036 5.72573 0
M  V30 17087 H 1607.43 0.461412 6.08854 0
M  V30 17088 H 1608.84 2.52787 5.14559 0
M  V30 17089 H 1607.24 3.30694 5.00761 0
M  V30 17090 H 1608.31 3.25398 3.59506 0
M  V30 17091 N 1609.65 -1.26251 0.943322 0
M  V30 17092 C 1610.58 -2.28673 0.472347 0
M  V30 17093 C 1611.56 -1.63319 -0.475481 0
M  V30 17094 O 1612.75 -1.90508 -0.376875 0
M  V30 17095 C 1609.88 -3.46316 -0.261286 0
M  V30 17096 C 1608.83 -4.23771 0.600192 0
M  V30 17097 C 1608.16 -5.3405 -0.263525 0
M  V30 17098 C 1609.46 -4.87576 1.87262 0
M  V30 17099 H 1611.15 -2.68319 1.32836 0
M  V30 17100 H 1608.7 -1.28987 0.640182 0
M  V30 17101 H 1610.65 -4.1708 -0.601821 0
M  V30 17102 H 1609.37 -3.05629 -1.15146 0
M  V30 17103 H 1608.03 -3.54774 0.923651 0
M  V30 17104 H 1607.68 -4.89604 -1.15312 0
M  V30 17105 H 1607.38 -5.86784 0.309495 0
M  V30 17106 H 1608.9 -6.07652 -0.599281 0
M  V30 17107 H 1610.32 -5.50544 1.59919 0
M  V30 17108 H 1608.72 -5.50437 2.39038 0
M  V30 17109 H 1609.79 -4.10397 2.58268 0
M  V30 17110 N 1611.13 -0.710588 -1.40671 0
M  V30 17111 C 1612.55 -0.383638 -1.54921 0
M  V30 17112 C 1612.75 1.10805 -1.68299 0
M  V30 17113 O 1611.8 1.89406 -1.66978 0
M  V30 17114 C 1613.11 -1.14532 -2.78034 0
M  V30 17115 C 1614.66 -1.13113 -2.91847 0
M  V30 17116 C 1615.14 -1.87487 -4.17867 0
M  V30 17117 N 1616.63 -1.8453 -4.24856 0
M  V30 17118 C 1617.36 -2.38904 -5.2126 0
M  V30 17119 N 1616.86 -3.01813 -6.23603 0
M  V30 17120 N 1618.65 -2.29075 -5.13304 0
M  V30 17121 H 1610.8 -1.67789 -1.30233 0
M  V30 17122 H 1613.07 -0.70892 -0.629393 0
M  V30 17123 H 1612.77 -2.19983 -2.74409 0
M  V30 17124 H 1612.65 -0.733669 -3.69996 0
M  V30 17125 H 1615.03 -0.0848347 -2.94978 0
M  V30 17126 H 1615.11 -1.58196 -2.01017 0
M  V30 17127 H 1614.76 -2.92104 -4.15497 0
M  V30 17128 H 1614.69 -1.39827 -5.07697 0
M  V30 17129 H 1617.18 -1.38679 -3.51535 0
M  V30 17130 H 1617.49 -3.40832 -6.9358 0
M  V30 17131 H 1615.84 -3.05896 -6.24062 0
M  V30 17132 H 1619.03 -1.79589 -4.32279 0
M  V30 17133 H 1619.2 -2.71752 -5.88264 0
M  V30 17134 N 1612.61 1.50847 -0.456408 0
M  V30 17135 C 1613.54 2.31077 0.335523 0
M  V30 17136 C 1614.52 1.37326 1.00377 0
M  V30 17137 O 1615.7 1.66247 1.00376 0
M  V30 17138 C 1612.83 3.16662 1.42627 0
M  V30 17139 C 1611.79 4.18846 0.88045 0
M  V30 17140 C 1611.11 4.93074 2.06838 0
M  V30 17141 C 1612.41 5.22208 -0.0982288 0
M  V30 17142 H 1614.11 2.97531 -0.334056 0
M  V30 17143 H 1611.65 1.43085 -0.162099 0
M  V30 17144 H 1613.61 3.71578 1.98765 0
M  V30 17145 H 1612.33 2.48066 2.12441 0
M  V30 17146 H 1610.99 3.65009 0.341147 0
M  V30 17147 H 1610.64 4.20963 2.75316 0
M  V30 17148 H 1610.34 5.62184 1.70947 0
M  V30 17149 H 1611.86 5.5082 2.63494 0
M  V30 17150 H 1613.28 5.72082 0.373481 0
M  V30 17151 H 1611.67 5.98954 -0.370674 0
M  V30 17152 H 1612.74 4.73859 -1.02887 0
M  V30 17153 N 1614.09 0.188454 1.56469 0
M  V30 17154 C 1615.31 -0.460975 2.02212 0
M  V30 17155 C 1615.74 -1.54856 1.06777 0
M  V30 17156 O 1615.09 -1.81231 0.0501425 0
M  V30 17157 C 1615.14 -1.00047 3.46443 0
M  V30 17158 O 1614.25 -2.1137 3.54114 0
M  V30 17159 H 1613.59 -0.108497 0.655076 0
M  V30 17160 H 1616.12 0.297381 2.02427 0
M  V30 17161 H 1616.13 -1.31876 3.86099 0
M  V30 17162 H 1614.8 -0.204273 4.15398 0
M  V30 17163 H 1613.38 -1.80456 3.26328 0
M  V30 17164 N 1615.56 -1.5737 -0.0851874 0
M  V30 17165 C 1616.97 -1.7544 -0.638575 0
M  V30 17166 C 1617.33 -0.812041 -1.78607 0
M  V30 17167 O 1616.45 0.00710428 -2.16399 0
M  V30 17168 C 1617.05 -3.18134 -1.16517 0
M  V30 17169 C 1615.6 -3.37594 -1.66454 0
M  V30 17170 C 1614.75 -2.71203 -0.578274 0
M  V30 17171 H 1617.7 -1.58073 0.140931 0
M  V30 17172 H 1617.72 -3.21553 -2.0343 0
M  V30 17173 H 1617.24 -3.86696 -0.329794 0
M  V30 17174 H 1615.34 -2.74126 -2.5236 0
M  V30 17175 H 1615.45 -4.45968 -1.75071 0
M  V30 17176 H 1613.81 -2.33379 -1.02011 0
M  V30 17177 H 1614.6 -3.42413 0.246691 0
M  V30 17178 N 1617.04 0.356258 -1.53521 0
M  V30 17179 C 1617.97 1.45965 -1.75413 0
M  V30 17180 C 1618.95 1.51015 -0.602774 0
M  V30 17181 O 1620.14 1.68925 -0.836459 0
M  V30 17182 C 1617.26 2.84276 -1.84132 0
M  V30 17183 C 1616.31 2.96909 -3.06182 0
M  V30 17184 S 1617.14 2.64695 -4.65507 0
M  V30 17185 C 1618.3 4.05138 -4.77089 0
M  V30 17186 H 1618.53 1.27176 -2.68726 0
M  V30 17187 H 1616.06 0.551163 -1.44227 0
M  V30 17188 H 1618.02 3.63965 -1.89842 0
M  V30 17189 H 1616.68 3.00369 -0.918542 0
M  V30 17190 H 1615.88 3.98226 -3.08921 0
M  V30 17191 H 1615.48 2.25154 -2.98633 0
M  V30 17192 H 1617.77 4.99502 -4.57717 0
M  V30 17193 H 1618.71 4.074 -5.79164 0
M  V30 17194 H 1619.12 3.92572 -4.05644 0
M  V30 17195 N 1618.52 1.45038 0.616577 0
M  V30 17196 C 1619.48 1.52647 1.70973 0
M  V30 17197 C 1620.48 0.406902 1.55567 0
M  V30 17198 O 1621.67 0.670062 1.60797 0
M  V30 17199 C 1618.8 1.41438 3.10174 0
M  V30 17200 H 1620 2.50036 1.65596 0
M  V30 17201 H 1617.55 1.32346 0.831524 0
M  V30 17202 H 1618.29 0.451991 3.21135 0
M  V30 17203 H 1618.07 2.22634 3.22764 0
M  V30 17204 H 1619.56 1.49776 3.89817 0
M  V30 17205 N 1620 -0.858287 1.32179 0
M  V30 17206 C 1621.24 -1.61221 1.22532 0
M  V30 17207 C 1621.57 -1.93322 -0.213739 0
M  V30 17208 O 1620.83 -1.5719 -1.16575 0
M  V30 17209 C 1621.13 -2.94391 2.02654 0
M  V30 17210 C 1620.79 -2.81735 3.52046 0
M  V30 17211 C 1619.45 -2.7799 3.92778 0
M  V30 17212 C 1621.81 -2.67928 4.47062 0
M  V30 17213 C 1619.13 -2.58312 5.26775 0
M  V30 17214 C 1621.49 -2.49785 5.81197 0
M  V30 17215 C 1620.15 -2.44431 6.21136 0
M  V30 17216 H 1619.42 -0.589949 0.448376 0
M  V30 17217 H 1622.07 -0.995897 1.63567 0
M  V30 17218 H 1620.37 -3.60122 1.54336 0
M  V30 17219 H 1622.07 -3.5174 1.92561 0
M  V30 17220 H 1618.66 -2.85472 3.19693 0
M  V30 17221 H 1622.84 -2.69868 4.16515 0
M  V30 17222 H 1618.1 -2.526 5.56779 0
M  V30 17223 H 1622.27 -2.38081 6.54439 0
M  V30 17224 H 1619.9 -2.28943 7.24906 0
M  V30 17225 N 1621.48 -1.1533 -1.07409 0
M  V30 17226 C 1622.89 -0.895817 -1.32088 0
M  V30 17227 C 1623.09 0.457526 -1.96237 0
M  V30 17228 O 1622.15 1.19958 -2.22185 0
M  V30 17229 C 1623.46 -2.03632 -2.21256 0
M  V30 17230 C 1625.01 -2.07079 -2.34707 0
M  V30 17231 C 1625.48 -3.20451 -3.27223 0
M  V30 17232 N 1626.97 -3.20095 -3.34804 0
M  V30 17233 C 1627.71 -4.04458 -4.0645 0
M  V30 17234 N 1627.21 -4.98883 -4.80715 0
M  V30 17235 N 1629 -3.92483 -4.02385 0
M  V30 17236 H 1621.15 -2.02478 -0.641578 0
M  V30 17237 H 1623.41 -0.882864 -0.345332 0
M  V30 17238 H 1623.12 -3.0132 -1.81381 0
M  V30 17239 H 1622.99 -1.96817 -3.21781 0
M  V30 17240 H 1625.38 -1.09991 -2.73836 0
M  V30 17241 H 1625.46 -2.17962 -1.3389 0
M  V30 17242 H 1625.1 -4.17791 -2.88813 0
M  V30 17243 H 1625.03 -3.06805 -4.27993 0
M  V30 17244 H 1627.53 -2.51712 -2.81868 0
M  V30 17245 H 1627.84 -5.59698 -5.32877 0
M  V30 17246 H 1626.18 -5.02872 -4.79734 0
M  V30 17247 H 1629.37 -3.18026 -3.43478 0
M  V30 17248 H 1629.55 -4.58454 -4.57956 0
M  V30 17249 N 1622.95 1.25748 -0.950004 0
M  V30 17250 C 1623.92 2.24307 -0.47106 0
M  V30 17251 C 1624.92 1.55145 0.422704 0
M  V30 17252 O 1626.11 1.72797 0.220642 0
M  V30 17253 C 1623.24 3.39395 0.319979 0
M  V30 17254 H 1624.43 2.68192 -1.34214 0
M  V30 17255 H 1621.98 1.38056 -0.732827 0
M  V30 17256 H 1622.72 3.00925 1.20892 0
M  V30 17257 H 1622.5 3.90783 -0.321157 0
M  V30 17258 H 1623.99 4.12594 0.644697 0
M  V30 17259 N 1624.43 0.718038 1.40292 0
M  V30 17260 C 1625.36 0.0818367 2.33357 0
M  V30 17261 C 1626.34 -0.742854 1.53022 0
M  V30 17262 O 1627.53 -0.691281 1.8148 0
M  V30 17263 C 1624.66 -0.838843 3.37017 0
M  V30 17264 C 1623.61 -0.119589 4.27833 0
M  V30 17265 C 1622.94 -1.15615 5.22051 0
M  V30 17266 C 1624.24 1.02769 5.1209 0
M  V30 17267 H 1625.93 0.859167 2.86808 0
M  V30 17268 H 1623.48 0.414606 1.37902 0
M  V30 17269 H 1625.43 -1.29332 4.01063 0
M  V30 17270 H 1624.15 -1.6481 2.81967 0
M  V30 17271 H 1622.81 0.315088 3.65243 0
M  V30 17272 H 1622.46 -1.95852 4.63304 0
M  V30 17273 H 1622.16 -0.679767 5.83655 0
M  V30 17274 H 1623.69 -1.61068 5.88973 0
M  V30 17275 H 1625.1 0.652461 5.69575 0
M  V30 17276 H 1623.5 1.4326 5.82749 0
M  V30 17277 H 1624.57 1.85723 4.47923 0
M  V30 17278 N 1625.91 -1.50602 0.464402 0
M  V30 17279 C 1626.84 -2.26203 -0.36943 0
M  V30 17280 C 1627.86 -1.31269 -0.962924 0
M  V30 17281 O 1629.04 -1.56829 -0.852465 0
M  V30 17282 C 1626.14 -3.02323 -1.53147 0
M  V30 17283 C 1625.32 -4.24561 -1.05198 0
M  V30 17284 C 1624.38 -4.83031 -2.08729 0
M  V30 17285 O 1623.4 -5.44131 -1.67062 0
M  V30 17286 N 1624.6 -4.6944 -3.41477 0
M  V30 17287 H 1627.37 -2.98402 0.278652 0
M  V30 17288 H 1624.93 -1.59193 0.294803 0
M  V30 17289 H 1626.92 -3.38319 -2.22086 0
M  V30 17290 H 1625.49 -2.32965 -2.08438 0
M  V30 17291 H 1624.71 -3.93748 -0.188705 0
M  V30 17292 H 1626 -5.0383 -0.709434 0
M  V30 17293 H 1625.4 -4.20832 -3.78044 0
M  V30 17294 H 1623.96 -5.09724 -4.06233 0
M  V30 17295 N 1627.39 -0.19675 -1.56367 0
M  V30 17296 C 1628.64 0.440711 -1.97236 0
M  V30 17297 C 1628.96 1.62037 -1.08485 0
M  V30 17298 O 1628.23 1.95274 -0.156483 0
M  V30 17299 H 1626.81 0.16581 -0.728365 0
M  V30 17300 H 1629.47 -0.283867 -1.92822 0
M  V30 17301 H 1628.57 0.783731 -3.02099 0
M  V30 17302 N 1628.87 1.57413 0.0768405 0
M  V30 17303 C 1630.11 1.88835 0.78235 0
M  V30 17304 C 1630.47 0.789942 1.74997 0
M  V30 17305 O 1631.67 0.987092 2.5002 0
M  V30 17306 C 1629.94 3.25491 1.47616 0
M  V30 17307 S 1631.5 3.78649 2.21743 0
M  V30 17308 H 1628.32 0.661649 0.260272 0
M  V30 17309 H 1630.92 1.95462 0.0386596 0
M  V30 17310 H 1629.63 4.03338 0.758047 0
M  V30 17311 H 1629.16 3.22049 2.25938 0
M  V30 17312 H 1631.17 3.53531 3.48182 0
M  V30 17313 N 1630.34 -0.348112 1.53707 0
M  V30 17314 C 1631.59 -1.08671 1.70396 0
M  V30 17315 C 1631.91 -1.89314 0.467453 0
M  V30 17316 O 1631.18 -1.88911 -0.518605 0
M  V30 17317 H 1629.76 -0.404186 0.628206 0
M  V30 17318 H 1632.43 -0.390491 1.90948 0
M  V30 17319 H 1631.52 -1.76668 2.57284 0
M  V30 17320 N 1631.82 -1.45363 -0.608876 0
M  V30 17321 C 1632.79 -1.53551 -1.70161 0
M  V30 17322 C 1633.79 -0.415146 -1.55349 0
M  V30 17323 O 1634.98 -0.67858 -1.6044 0
M  V30 17324 C 1632.11 -1.43081 -3.0942 0
M  V30 17325 H 1633.3 -2.5091 -1.64268 0
M  V30 17326 H 1630.85 -1.32785 -0.824493 0
M  V30 17327 H 1631.59 -0.469016 -3.20891 0
M  V30 17328 H 1631.37 -2.24343 -3.21579 0
M  V30 17329 H 1632.86 -1.51841 -3.89017 0
M  V30 17330 N 1633.3 0.851265 -1.32632 0
M  V30 17331 C 1634.55 1.60807 -1.23568 0
M  V30 17332 C 1634.88 1.93155 0.201238 0
M  V30 17333 O 1634.15 1.5764 1.13929 0
M  V30 17334 C 1634.44 2.92619 -2.09872 0
M  V30 17335 C 1634.29 2.67031 -3.61959 0
M  V30 17336 C 1635.61 3.93924 -1.96244 0
M  V30 17337 H 1632.73 0.583492 -0.450229 0
M  V30 17338 H 1635.37 0.98273 -1.62611 0
M  V30 17339 H 1633.52 3.45988 -1.76704 0
M  V30 17340 H 1635.19 2.2019 -4.05357 0
M  V30 17341 H 1633.44 2.00938 -3.84456 0
M  V30 17342 H 1634.11 3.60902 -4.17676 0
M  V30 17343 H 1636.58 3.49823 -2.25307 0
M  V30 17344 H 1635.46 4.84005 -2.58902 0
M  V30 17345 H 1635.72 4.32185 -0.931065 0
M  V30 17346 N 1634.78 1.15898 1.06796 0
M  V30 17347 C 1636.03 0.935488 1.79145 0
M  V30 17348 C 1636.35 -0.538433 1.87419 0
M  V30 17349 O 1635.62 -1.39124 1.37917 0
M  V30 17350 H 1634.2 0.343123 0.663533 0
M  V30 17351 H 1636.86 1.4607 1.29034 0
M  V30 17352 H 1635.96 1.34978 2.81402 0
M  V30 17353 N 1636.26 -1.25243 0.956659 0
M  V30 17354 C 1637.53 -1.88287 0.529832 0
M  V30 17355 C 1637.91 -1.8629 -0.992929 0
M  V30 17356 O 1637.26 -1.32785 -1.85958 0
M  V30 17357 C 1637.47 -3.30919 1.10877 0
M  V30 17358 C 1638.82 -4.07674 1.18687 0
M  V30 17359 O 1639.84 -3.40048 1.06047 0
M  V30 17360 O 1638.7 -5.28648 1.38541 0
M  V30 17361 H 1635.8 -0.808258 0.175066 0
M  V30 17362 H 1638.34 -1.33298 1.05022 0
M  V30 17363 H 1637.11 -3.26813 2.15195 0
M  V30 17364 H 1636.74 -3.93468 0.571755 0
M  V30 17365 N 1637.73 -0.725468 -1.3991 0
M  V30 17366 C 1639.15 -0.400048 -1.54505 0
M  V30 17367 C 1639.35 1.09014 -1.69464 0
M  V30 17368 O 1638.41 1.87624 -1.68977 0
M  V30 17369 C 1639.72 -1.17474 -2.76804 0
M  V30 17370 C 1641.27 -1.16202 -2.9063 0
M  V30 17371 C 1641.74 -1.91908 -4.15855 0
M  V30 17372 N 1643.23 -1.89026 -4.22875 0
M  V30 17373 C 1643.97 -2.4442 -5.18697 0
M  V30 17374 N 1643.46 -3.0841 -6.20367 0
M  V30 17375 N 1645.26 -2.34506 -5.10846 0
M  V30 17376 H 1637.41 -1.6916 -1.28447 0
M  V30 17377 H 1639.67 -0.715556 -0.621839 0
M  V30 17378 H 1639.38 -2.22881 -2.72061 0
M  V30 17379 H 1639.25 -0.772871 -3.69197 0
M  V30 17380 H 1641.64 -0.116116 -2.94871 0
M  V30 17381 H 1641.72 -1.60319 -1.99327 0
M  V30 17382 H 1641.36 -2.96494 -4.12375 0
M  V30 17383 H 1641.29 -1.45204 -5.06185 0
M  V30 17384 H 1643.78 -1.42399 -3.50044 0
M  V30 17385 H 1644.1 -3.48169 -6.89926 0
M  V30 17386 H 1642.44 -3.12497 -6.20782 0
M  V30 17387 H 1645.63 -1.84164 -4.3035 0
M  V30 17388 H 1645.81 -2.77976 -5.85349 0
M  V30 17389 N 1639.21 1.50354 -0.472382 0
M  V30 17390 C 1640.46 2.01934 0.0820006 0
M  V30 17391 C 1640.78 1.35636 1.401 0
M  V30 17392 O 1640.05 0.502127 1.89355 0
M  V30 17393 H 1638.63 0.746258 0.0332943 0
M  V30 17394 H 1641.29 1.84671 -0.623099 0
M  V30 17395 H 1640.39 3.11232 0.232565 0
M  V30 17396 N 1640.69 0.205039 1.56261 0
M  V30 17397 C 1641.62 -0.706815 2.22545 0
M  V30 17398 C 1642.6 -1.21372 1.19176 0
M  V30 17399 O 1643.79 -1.26074 1.47712 0
M  V30 17400 C 1640.92 -1.92221 2.89255 0
M  V30 17401 C 1639.87 -1.54982 3.98954 0
M  V30 17402 C 1639.2 -2.84265 4.52877 0
M  V30 17403 C 1640.5 -0.75225 5.16854 0
M  V30 17404 H 1642.19 -0.15421 2.99003 0
M  V30 17405 H 1639.74 -0.0727309 1.43816 0
M  V30 17406 H 1641.69 -2.56542 3.34311 0
M  V30 17407 H 1640.41 -2.49952 2.10218 0
M  V30 17408 H 1639.07 -0.930155 3.54604 0
M  V30 17409 H 1638.72 -3.40105 3.70591 0
M  V30 17410 H 1638.42 -2.60089 5.26904 0
M  V30 17411 H 1639.95 -3.49557 5.00642 0
M  V30 17412 H 1641.36 -1.29878 5.58395 0
M  V30 17413 H 1639.76 -0.60823 5.9701 0
M  V30 17414 H 1640.83 0.24463 4.84283 0
M  V30 17415 N 1642.17 -1.57451 -0.0684915 0
M  V30 17416 C 1643.42 -1.87411 -0.76702 0
M  V30 17417 C 1643.74 -0.797219 -1.77411 0
M  V30 17418 O 1643 0.206424 -1.94608 0
M  V30 17419 C 1643.3 -3.24044 -1.50765 0
M  V30 17420 C 1642.96 -4.46331 -0.640238 0
M  V30 17421 C 1641.63 -4.79525 -0.401205 0
M  V30 17422 C 1643.98 -5.21185 -0.0389475 0
M  V30 17423 C 1641.31 -5.84983 0.448547 0
M  V30 17424 C 1643.66 -6.27543 0.798278 0
M  V30 17425 C 1642.32 -6.59235 1.04715 0
M  V30 17426 H 1641.59 -0.685787 -0.280673 0
M  V30 17427 H 1644.24 -1.9148 -0.0277143 0
M  V30 17428 H 1642.54 -3.15782 -2.31925 0
M  V30 17429 H 1644.24 -3.44461 -2.05299 0
M  V30 17430 H 1640.83 -4.20354 -0.836675 0
M  V30 17431 H 1645.02 -4.95852 -0.210729 0
M  V30 17432 H 1640.27 -6.07934 0.650077 0
M  V30 17433 H 1644.45 -6.84705 1.27092 0
M  V30 17434 H 1642.07 -7.40779 1.70737 0
M  V30 17435 N 1643.65 0.339955 -1.5389 0
M  V30 17436 C 1644.61 1.40058 -1.81429 0
M  V30 17437 C 1645.61 1.45458 -0.685463 0
M  V30 17438 O 1646.8 1.45771 -0.953754 0
M  V30 17439 C 1643.93 2.78952 -1.95955 0
M  V30 17440 H 1645.13 1.16902 -2.76178 0
M  V30 17441 H 1642.68 0.574543 -1.45357 0
M  V30 17442 H 1643.41 3.07387 -1.03361 0
M  V30 17443 H 1643.2 2.76429 -2.78082 0
M  V30 17444 H 1644.69 3.55713 -2.18765 0
M  V30 17445 N 1645.13 1.45684 0.601159 0
M  V30 17446 C 1646.06 1.57694 1.72206 0
M  V30 17447 C 1647.04 0.428141 1.64624 0
M  V30 17448 O 1648.22 0.65209 1.82925 0
M  V30 17449 C 1645.35 1.54941 3.10822 0
M  V30 17450 C 1644.31 2.68603 3.33222 0
M  V30 17451 C 1643.63 2.50906 4.72176 0
M  V30 17452 C 1644.93 4.10568 3.22849 0
M  V30 17453 H 1646.63 2.51521 1.62412 0
M  V30 17454 H 1644.17 1.2105 0.779929 0
M  V30 17455 H 1646.12 1.61939 3.89042 0
M  V30 17456 H 1644.85 0.576471 3.21472 0
M  V30 17457 H 1643.51 2.61043 2.57394 0
M  V30 17458 H 1643.16 1.51736 4.79568 0
M  V30 17459 H 1642.86 3.27131 4.88118 0
M  V30 17460 H 1644.38 2.59767 5.52588 0
M  V30 17461 H 1645.79 4.19336 3.90935 0
M  V30 17462 H 1644.19 4.87234 3.50318 0
M  V30 17463 H 1645.26 4.32022 2.20192 0
M  V30 17464 N 1646.6 -0.84422 1.33082 0
M  V30 17465 C 1647.83 -1.62896 1.27076 0
M  V30 17466 C 1648.24 -1.88509 -0.161583 0
M  V30 17467 O 1647.58 -1.46184 -1.11247 0
M  V30 17468 C 1647.65 -3.00611 1.97163 0
M  V30 17469 C 1647.31 -2.97993 3.46481 0
M  V30 17470 C 1648.31 -2.74092 4.4178 0
M  V30 17471 C 1645.99 -3.18299 3.88576 0
M  V30 17472 C 1647.99 -2.70515 5.77148 0
M  V30 17473 C 1645.67 -3.14348 5.2405 0
M  V30 17474 C 1646.67 -2.90486 6.18148 0
M  V30 17475 O 1646.36 -2.86429 7.51142 0
M  V30 17476 H 1646.09 -0.513756 0.439353 0
M  V30 17477 H 1648.65 -1.06009 1.7593 0
M  V30 17478 H 1646.88 -3.5933 1.42893 0
M  V30 17479 H 1648.56 -3.61428 1.84728 0
M  V30 17480 H 1649.33 -2.58161 4.10582 0
M  V30 17481 H 1645.21 -3.35893 3.15748 0
M  V30 17482 H 1648.75 -2.5181 6.50567 0
M  V30 17483 H 1644.65 -3.29826 5.54874 0
M  V30 17484 H 1645.42 -3.02309 7.60626 0
M  V30 17485 N 1648.08 -1.16463 -1.0618 0
M  V30 17486 C 1649.49 -0.95436 -1.60465 0
M  V30 17487 C 1649.84 0.501455 -1.89684 0
M  V30 17488 O 1648.97 1.37488 -1.67111 0
M  V30 17489 C 1649.56 -1.72603 -2.91537 0
M  V30 17490 C 1648.12 -1.56071 -3.42518 0
M  V30 17491 C 1647.27 -1.73403 -2.16395 0
M  V30 17492 H 1650.22 -1.31316 -0.891166 0
M  V30 17493 H 1650.24 -1.20252 -3.60998 0
M  V30 17494 H 1649.75 -2.78554 -2.70239 0
M  V30 17495 H 1647.85 -0.525652 -3.68874 0
M  V30 17496 H 1647.97 -2.34533 -4.17769 0
M  V30 17497 H 1646.33 -1.16155 -2.26672 0
M  V30 17498 H 1647.11 -2.80745 -1.97578 0
M  V30 17499 N 1649.56 1.24734 -0.963288 0
M  V30 17500 C 1650.51 2.25555 -0.48926 0
M  V30 17501 C 1651.48 1.59521 0.462848 0
M  V30 17502 O 1652.66 1.87095 0.374188 0
M  V30 17503 C 1649.8 3.44407 0.218629 0
M  V30 17504 C 1648.91 4.25051 -0.77173 0
M  V30 17505 C 1648.05 5.31185 -0.0403986 0
M  V30 17506 C 1647.09 6.03523 -1.02112 0
M  V30 17507 N 1646.23 7.0137 -0.320083 0
M  V30 17508 H 1651.07 2.6547 -1.35386 0
M  V30 17509 H 1648.6 1.30504 -0.678762 0
M  V30 17510 H 1650.56 4.12173 0.645701 0
M  V30 17511 H 1649.19 3.05341 1.04722 0
M  V30 17512 H 1648.24 3.56865 -1.31726 0
M  V30 17513 H 1649.55 4.75084 -1.51976 0
M  V30 17514 H 1648.71 6.05067 0.444886 0
M  V30 17515 H 1647.45 4.82048 0.740356 0
M  V30 17516 H 1646.45 5.28448 -1.51732 0
M  V30 17517 H 1647.68 6.54749 -1.80224 0
M  V30 17518 H 1645.62 6.54511 0.441775 0
M  V30 17519 H 1645.54 7.49263 -1.00705 0
M  V30 17520 H 1646.81 7.79368 0.143379 0
M  V30 17521 N 1651.04 0.732878 1.39523 0
M  V30 17522 C 1652.27 0.29007 2.04857 0
M  V30 17523 C 1652.68 -1.07435 1.55252 0
M  V30 17524 O 1652.04 -1.67847 0.716497 0
M  V30 17525 C 1652.09 0.280464 3.6041 0
M  V30 17526 O 1651.81 1.59102 4.08189 0
M  V30 17527 C 1653.31 -0.178772 4.42939 0
M  V30 17528 H 1650.53 0.12716 0.658841 0
M  V30 17529 H 1653.07 0.995933 1.7861 0
M  V30 17530 H 1651.23 -0.376494 3.85566 0
M  V30 17531 H 1651.64 1.50314 5.025 0
M  V30 17532 H 1653.12 -0.134335 5.51837 0
M  V30 17533 H 1653.59 -1.22362 4.21811 0
M  V30 17534 H 1654.2 0.448543 4.22928 0
M  V30 17535 N 1652.52 -1.50101 0.480349 0
M  V30 17536 C 1653.46 -2.30347 -0.322924 0
M  V30 17537 C 1654.46 -1.3804 -0.981904 0
M  V30 17538 O 1655.66 -1.55188 -0.91195 0
M  V30 17539 H 1652.04 -0.741875 -0.122985 0
M  V30 17540 H 1654.01 -2.96045 0.374155 0
M  V30 17541 C 1652.76 -3.18844 -1.38686 0
M  V30 17542 H 1652.08 -3.89787 -0.889181 0
M  V30 17543 H 1653.52 -3.77971 -1.9213 0
M  V30 17544 C 1651.98 -2.37058 -2.39385 0
M  V30 17545 O 1652.51 -2.06016 -3.44848 0
M  V30 17546 N 1650.72 -1.99465 -2.11334 0
M  V30 17547 H 1650.26 -2.24909 -1.25593 0
M  V30 17548 H 1650.22 -1.45048 -2.78942 0
M  V30 17549 N 1653.99 -0.213323 -1.5615 0
M  V30 17550 C 1654.94 0.700175 -2.19923 0
M  V30 17551 C 1655.91 1.19641 -1.15218 0
M  V30 17552 O 1657.1 1.257 -1.43542 0
M  V30 17553 C 1654.24 1.90629 -2.87671 0
M  V30 17554 C 1653.35 1.44973 -4.06948 0
M  V30 17555 C 1652.48 2.61277 -4.62502 0
M  V30 17556 C 1651.52 2.12316 -5.74098 0
M  V30 17557 N 1650.66 3.21862 -6.23978 0
M  V30 17558 H 1655.5 0.14961 -2.97624 0
M  V30 17559 H 1653.04 0.0620957 -1.46969 0
M  V30 17560 H 1654.99 2.61431 -3.2513 0
M  V30 17561 H 1653.62 2.42987 -2.12502 0
M  V30 17562 H 1652.68 0.636917 -3.7503 0
M  V30 17563 H 1653.99 1.05065 -4.87609 0
M  V30 17564 H 1653.14 3.40174 -5.02361 0
M  V30 17565 H 1651.88 3.04468 -3.80987 0
M  V30 17566 H 1650.89 1.31877 -5.33749 0
M  V30 17567 H 1652.11 1.70134 -6.57443 0
M  V30 17568 H 1650.06 3.64551 -5.45379 0
M  V30 17569 H 1649.97 2.86181 -6.9974 0
M  V30 17570 H 1651.24 4.0092 -6.68493 0
M  V30 17571 N 1655.47 1.57485 0.0601405 0
M  V30 17572 C 1656.75 1.78904 0.790732 0
M  V30 17573 C 1657.13 0.803802 1.95198 0
M  V30 17574 O 1656.48 -0.16067 2.27934 0
M  V30 17575 C 1656.69 3.25738 1.25282 0
M  V30 17576 C 1658.04 3.89887 1.68147 0
M  V30 17577 O 1659.06 3.297 1.3482 0
M  V30 17578 O 1657.92 4.95796 2.29889 0
M  V30 17579 H 1655.01 0.734623 0.379814 0
M  V30 17580 H 1657.56 1.69654 0.0393151 0
M  V30 17581 H 1656.33 3.89013 0.422442 0
M  V30 17582 H 1655.95 3.39757 2.06521 0
M  V30 17583 N 1656.95 -0.331789 1.54068 0
M  V30 17584 C 1658.2 -1.06858 1.71539 0
M  V30 17585 C 1658.52 -1.88808 0.487506 0
M  V30 17586 O 1657.79 -1.8945 -0.498539 0
M  V30 17587 H 1656.37 -0.3975 0.632457 0
M  V30 17588 H 1659.03 -0.370216 1.91352 0
M  V30 17589 H 1658.13 -1.73929 2.59143 0
M  V30 17590 N 1658.43 -1.46001 -0.593424 0
M  V30 17591 C 1659.68 -1.50755 -1.352 0
M  V30 17592 C 1660 -0.154929 -1.93882 0
M  V30 17593 O 1659.26 0.848161 -1.76365 0
M  V30 17594 C 1659.56 -2.54568 -2.50858 0
M  V30 17595 C 1659.22 -3.98888 -2.10236 0
M  V30 17596 C 1657.89 -4.38182 -1.98872 0
M  V30 17597 C 1660.24 -4.89591 -1.78746 0
M  V30 17598 C 1657.57 -5.66057 -1.5426 0
M  V30 17599 C 1659.92 -6.17892 -1.35617 0
M  V30 17600 C 1658.58 -6.56103 -1.22822 0
M  V30 17601 H 1657.85 -0.551652 -0.494734 0
M  V30 17602 H 1660.5 -1.79422 -0.669327 0
M  V30 17603 H 1658.8 -2.19523 -3.24526 0
M  V30 17604 H 1660.5 -2.5548 -3.09081 0
M  V30 17605 H 1657.09 -3.67822 -2.20012 0
M  V30 17606 H 1661.27 -4.59959 -1.86416 0
M  V30 17607 H 1656.53 -5.94444 -1.42988 0
M  V30 17608 H 1660.7 -6.87609 -1.10301 0
M  V30 17609 H 1658.33 -7.55086 -0.880285 0
M  V30 17610 N 1659.91 0.83715 -1.33527 0
M  V30 17611 C 1661.32 1.12809 -1.12899 0
M  V30 17612 C 1661.52 2.01345 0.0789761 0
M  V30 17613 O 1660.58 2.40831 0.758732 0
M  V30 17614 C 1661.89 1.78852 -2.41728 0
M  V30 17615 C 1663.44 1.91411 -2.47651 0
M  V30 17616 C 1663.91 2.6087 -3.76445 0
M  V30 17617 N 1665.41 2.68381 -3.77526 0
M  V30 17618 C 1666.14 3.22819 -4.73894 0
M  V30 17619 N 1665.64 3.77931 -5.80638 0
M  V30 17620 N 1667.43 3.21087 -4.61367 0
M  V30 17621 H 1659.58 0.247942 -2.10948 0
M  V30 17622 H 1661.84 0.172518 -0.93217 0
M  V30 17623 H 1661.55 1.21258 -3.30135 0
M  V30 17624 H 1661.42 2.78856 -2.54006 0
M  V30 17625 H 1663.81 2.48159 -1.59691 0
M  V30 17626 H 1663.89 0.903512 -2.39312 0
M  V30 17627 H 1663.54 2.0478 -4.64787 0
M  V30 17628 H 1663.47 3.62404 -3.82061 0
M  V30 17629 H 1665.96 2.29301 -3.00382 0
M  V30 17630 H 1666.27 4.17678 -6.50204 0
M  V30 17631 H 1664.61 3.76214 -5.8437 0
M  V30 17632 H 1667.81 2.7729 -3.77131 0
M  V30 17633 H 1667.98 3.6321 -5.3664 0
M  V30 17634 N 1661.38 1.17024 1.05561 0
M  V30 17635 C 1662.61 0.981293 1.82717 0
M  V30 17636 C 1663.03 -0.465636 1.82246 0
M  V30 17637 O 1662.39 -1.33315 1.22869 0
M  V30 17638 C 1662.44 1.52239 3.26888 0
M  V30 17639 O 1661.54 0.73366 4.05822 0
M  V30 17640 H 1660.89 0.348677 0.565084 0
M  V30 17641 H 1663.42 1.55435 1.33046 0
M  V30 17642 H 1663.43 1.54306 3.77695 0
M  V30 17643 H 1662.1 2.57567 3.26545 0
M  V30 17644 H 1660.68 0.784101 3.64563 0
M  V30 17645 N 1662.86 -1.24221 0.969889 0
M  V30 17646 C 1664.28 -1.4454 0.676778 0
M  V30 17647 C 1664.48 -1.86591 -0.760656 0
M  V30 17648 O 1663.53 -2.00538 -1.5343 0
M  V30 17649 C 1664.85 -2.50546 1.66274 0
M  V30 17650 C 1666.4 -2.64372 1.67561 0
M  V30 17651 C 1666.87 -3.73577 2.6496 0
M  V30 17652 N 1668.36 -3.81007 2.63416 0
M  V30 17653 C 1669.1 -4.65037 3.35452 0
M  V30 17654 N 1668.59 -5.53238 4.17013 0
M  V30 17655 N 1670.39 -4.59138 3.24266 0
M  V30 17656 H 1662.54 -0.952237 1.89858 0
M  V30 17657 H 1664.8 -0.479972 0.817515 0
M  V30 17658 H 1664.51 -2.26541 2.6902 0
M  V30 17659 H 1664.38 -3.48745 1.43724 0
M  V30 17660 H 1666.77 -2.87733 0.655247 0
M  V30 17661 H 1666.85 -1.66523 1.94174 0
M  V30 17662 H 1666.49 -3.50965 3.67132 0
M  V30 17663 H 1666.42 -4.70944 2.35626 0
M  V30 17664 H 1668.91 -3.17969 2.04216 0
M  V30 17665 H 1669.23 -6.1432 4.68861 0
M  V30 17666 H 1667.57 -5.52896 4.21107 0
M  V30 17667 H 1670.76 -3.89247 2.60008 0
M  V30 17668 H 1670.93 -5.24399 3.8067 0
M  V30 17669 N 1664.34 -0.740267 -1.39132 0
M  V30 17670 C 1665.27 -0.118951 -2.33197 0
M  V30 17671 C 1666.25 0.718416 -1.54184 0
M  V30 17672 O 1667.44 0.662322 -1.82557 0
M  V30 17673 C 1664.57 0.78512 -3.38309 0
M  V30 17674 C 1663.52 0.0515093 -4.27969 0
M  V30 17675 C 1662.85 1.07295 -5.23824 0
M  V30 17676 C 1664.15 -1.10903 -5.1039 0
M  V30 17677 H 1665.84 -0.904687 -2.85405 0
M  V30 17678 H 1663.39 -0.436493 -1.37225 0
M  V30 17679 H 1665.34 1.22935 -4.03069 0
M  V30 17680 H 1664.06 1.60303 -2.84553 0
M  V30 17681 H 1662.72 -0.373156 -3.64696 0
M  V30 17682 H 1662.37 1.88456 -4.66362 0
M  V30 17683 H 1662.07 0.586827 -5.84662 0
M  V30 17684 H 1663.59 1.51677 -5.91461 0
M  V30 17685 H 1665.01 -0.742993 -5.68465 0
M  V30 17686 H 1663.41 -1.52513 -5.80396 0
M  V30 17687 H 1664.48 -1.92825 -4.44912 0
M  V30 17688 N 1665.82 1.49844 -0.488302 0
M  V30 17689 C 1667.23 1.86663 -0.037377 0
M  V30 17690 C 1667.58 1.40172 1.37281 0
M  V30 17691 O 1666.71 0.77409 2.02081 0
M  V30 17692 C 1667.3 3.38745 -0.0610523 0
M  V30 17693 C 1665.86 3.74911 0.334475 0
M  V30 17694 C 1665.01 2.73801 -0.439109 0
M  V30 17695 H 1667.96 1.42343 -0.70173 0
M  V30 17696 H 1667.98 3.7329 0.737203 0
M  V30 17697 H 1667.49 3.72551 -1.08753 0
M  V30 17698 H 1665.59 3.4671 1.36466 0
M  V30 17699 H 1665.7 4.79094 0.0238536 0
M  V30 17700 H 1664.07 2.54465 0.109433 0
M  V30 17701 H 1664.85 3.10452 -1.46542 0
M  V30 17702 N 1667.3 0.221601 1.56034 0
M  V30 17703 C 1668.54 -0.410695 1.98598 0
M  V30 17704 C 1668.88 -1.59412 1.10912 0
M  V30 17705 O 1668.15 -1.93783 0.166819 0
M  V30 17706 C 1668.43 -0.845199 3.50041 0
M  V30 17707 C 1668.29 0.341866 4.48499 0
M  V30 17708 C 1669.61 -1.70135 4.05884 0
M  V30 17709 H 1666.72 -0.147808 0.722026 0
M  V30 17710 H 1669.37 0.317846 1.87323 0
M  V30 17711 H 1667.52 -1.46597 3.5978 0
M  V30 17712 H 1669.19 0.980014 4.5077 0
M  V30 17713 H 1667.43 0.989294 4.22369 0
M  V30 17714 H 1668.1 -0.00509234 5.52 0
M  V30 17715 H 1670.58 -1.17757 3.9909 0
M  V30 17716 H 1669.45 -1.97427 5.12166 0
M  V30 17717 H 1669.72 -2.66469 3.5277 0
M  V30 17718 N 1668.77 -1.57515 -0.0517878 0
M  V30 17719 C 1670.19 -1.76755 -0.601218 0
M  V30 17720 C 1670.54 -0.849744 -1.76844 0
M  V30 17721 O 1669.66 -0.0387987 -2.16365 0
M  V30 17722 C 1670.26 -3.20534 -1.09743 0
M  V30 17723 C 1668.82 -3.41049 -1.59256 0
M  V30 17724 C 1667.96 -2.72369 -0.520618 0
M  V30 17725 H 1670.91 -1.57739 0.174429 0
M  V30 17726 H 1670.93 -3.25796 -1.96563 0
M  V30 17727 H 1670.45 -3.87309 -0.247696 0
M  V30 17728 H 1668.55 -2.79417 -2.46489 0
M  V30 17729 H 1668.66 -4.49581 -1.65572 0
M  V30 17730 H 1667.02 -2.3549 -0.97038 0
M  V30 17731 H 1667.81 -3.41812 0.319266 0
M  V30 17732 N 1670.25 0.323614 -1.54242 0
M  V30 17733 C 1671.5 1.05947 -1.72104 0
M  V30 17734 C 1671.82 1.88547 -0.497512 0
M  V30 17735 O 1671.09 1.89712 0.488485 0
M  V30 17736 H 1669.67 0.394141 -0.634557 0
M  V30 17737 H 1672.33 0.360063 -1.91545 0
M  V30 17738 H 1671.43 1.72552 -2.60062 0
M  V30 17739 N 1671.73 1.46313 0.585673 0
M  V30 17740 C 1673.14 1.4567 1.16778 0
M  V30 17741 C 1673.49 0.195957 1.95219 0
M  V30 17742 O 1672.62 -0.701142 2.04727 0
M  V30 17743 C 1673.21 2.6392 2.12443 0
M  V30 17744 C 1671.77 2.66327 2.65983 0
M  V30 17745 C 1670.92 2.38304 1.41797 0
M  V30 17746 H 1673.87 1.54236 0.37377 0
M  V30 17747 H 1673.89 2.39268 2.95856 0
M  V30 17748 H 1673.4 3.55663 1.55324 0
M  V30 17749 H 1671.5 1.78648 3.2698 0
M  V30 17750 H 1671.62 3.66203 3.08921 0
M  V30 17751 H 1669.98 1.88302 1.71507 0
M  V30 17752 H 1670.76 3.3222 0.86514 0
M  V30 17753 N 1673.21 -0.830057 1.33969 0
M  V30 17754 C 1674.63 -1.12209 1.13496 0
M  V30 17755 C 1674.83 -2.01384 -0.0682972 0
M  V30 17756 O 1673.88 -2.4123 -0.745949 0
M  V30 17757 C 1675.19 -1.77568 2.42673 0
M  V30 17758 C 1676.74 -1.90095 2.48662 0
M  V30 17759 C 1677.22 -2.5887 3.77823 0
M  V30 17760 N 1678.71 -2.66375 3.78944 0
M  V30 17761 C 1679.44 -3.20301 4.75599 0
M  V30 17762 N 1678.94 -3.74846 5.82634 0
M  V30 17763 N 1680.73 -3.18636 4.63063 0
M  V30 17764 H 1672.88 -0.236752 2.11076 0
M  V30 17765 H 1675.15 -0.167572 0.933072 0
M  V30 17766 H 1674.85 -1.19505 3.30774 0
M  V30 17767 H 1674.73 -2.77505 2.55481 0
M  V30 17768 H 1677.11 -2.47308 1.61005 0
M  V30 17769 H 1677.19 -0.890808 2.39788 0
M  V30 17770 H 1676.84 -2.02313 4.65867 0
M  V30 17771 H 1676.77 -3.60373 3.83978 0
M  V30 17772 H 1679.26 -2.27705 3.01594 0
M  V30 17773 H 1679.57 -4.14224 6.52409 0
M  V30 17774 H 1677.92 -3.7311 5.86357 0
M  V30 17775 H 1681.11 -2.75286 3.78597 0
M  V30 17776 H 1681.28 -3.60359 5.38559 0
M  V30 17777 N 1674.69 -1.17582 -1.04939 0
M  V30 17778 C 1676.1 -0.923633 -1.30158 0
M  V30 17779 C 1676.3 0.415798 -1.97163 0
M  V30 17780 O 1675.36 1.15218 -2.2468 0
M  V30 17781 C 1676.67 -2.0828 -2.16887 0
M  V30 17782 C 1678.22 -2.12011 -2.30262 0
M  V30 17783 C 1678.7 -3.2732 -3.20352 0
M  V30 17784 N 1680.19 -3.27125 -3.27939 0
M  V30 17785 C 1680.92 -4.12988 -3.97779 0
M  V30 17786 N 1680.42 -5.08968 -4.70025 0
M  V30 17787 N 1682.21 -4.0093 -3.93969 0
M  V30 17788 H 1674.36 -2.03794 -0.598485 0
M  V30 17789 H 1676.62 -0.889991 -0.326528 0
M  V30 17790 H 1676.33 -3.051 -1.74948 0
M  V30 17791 H 1676.2 -2.03599 -3.17533 0
M  V30 17792 H 1678.59 -1.15774 -2.71441 0
M  V30 17793 H 1678.67 -2.20752 -1.29236 0
M  V30 17794 H 1678.32 -4.23823 -2.79886 0
M  V30 17795 H 1678.25 -3.15814 -4.21389 0
M  V30 17796 H 1680.74 -2.57634 -2.76465 0
M  V30 17797 H 1681.05 -5.70876 -5.20885 0
M  V30 17798 H 1679.4 -5.12935 -4.68959 0
M  V30 17799 H 1682.59 -3.2524 -3.36654 0
M  V30 17800 H 1682.76 -4.68065 -4.48128 0
M  V30 17801 N 1676.17 1.23705 -0.976463 0
M  V30 17802 C 1677.58 1.44179 -0.684434 0
M  V30 17803 C 1677.78 1.86992 0.75075 0
M  V30 17804 O 1676.84 2.01349 1.52365 0
M  V30 17805 C 1678.15 2.49661 -1.676 0
M  V30 17806 C 1679.7 2.63479 -1.68961 0
M  V30 17807 C 1680.17 3.72167 -2.66938 0
M  V30 17808 N 1681.66 3.79605 -2.65433 0
M  V30 17809 C 1682.4 4.63251 -3.37914 0
M  V30 17810 N 1681.9 5.51018 -4.19941 0
M  V30 17811 N 1683.69 4.57412 -3.26697 0
M  V30 17812 H 1675.84 0.942155 -1.90361 0
M  V30 17813 H 1678.1 0.475629 -0.820049 0
M  V30 17814 H 1677.81 2.25111 -2.70218 0
M  V30 17815 H 1677.68 3.47978 -1.45571 0
M  V30 17816 H 1680.07 2.87382 -0.670497 0
M  V30 17817 H 1680.15 1.65491 -1.95055 0
M  V30 17818 H 1679.79 3.49013 -3.68988 0
M  V30 17819 H 1679.72 4.69688 -2.3812 0
M  V30 17820 H 1682.22 3.16882 -2.05899 0
M  V30 17821 H 1682.53 6.11825 -4.72113 0
M  V30 17822 H 1680.87 5.50655 -4.24033 0
M  V30 17823 H 1684.06 3.87863 -2.62069 0
M  V30 17824 H 1684.24 5.22373 -3.83446 0
M  V30 17825 N 1677.64 0.747635 1.38738 0
M  V30 17826 C 1678.59 0.105258 2.32362 0
M  V30 17827 C 1679.59 -0.711921 1.53714 0
M  V30 17828 O 1680.79 -0.611687 1.69288 0
M  V30 17829 H 1677.17 0.0152406 0.751846 0
M  V30 17830 H 1679.14 0.911057 2.84152 0
M  V30 17831 C 1677.89 -0.778221 3.38879 0
M  V30 17832 H 1677.21 -0.158806 3.99484 0
M  V30 17833 H 1678.65 -1.19509 4.06809 0
M  V30 17834 C 1677.11 -1.91819 2.76961 0
M  V30 17835 O 1677.64 -3.01187 2.65799 0
M  V30 17836 N 1675.84 -1.71143 2.34859 0
M  V30 17837 H 1675.39 -0.821885 2.44137 0
M  V30 17838 H 1675.35 -2.47588 1.93772 0
M  V30 17839 N 1679.12 -1.49583 0.496242 0
M  V30 17840 C 1680.53 -1.8664 0.0472756 0
M  V30 17841 C 1680.88 -1.40898 -1.36536 0
M  V30 17842 O 1680.01 -0.784796 -2.01668 0
M  V30 17843 C 1680.6 -3.38708 0.079016 0
M  V30 17844 C 1679.16 -3.75083 -0.314587 0
M  V30 17845 C 1678.31 -2.73565 0.453624 0
M  V30 17846 H 1681.26 -1.41969 0.709269 0
M  V30 17847 H 1681.28 -3.73676 -0.717396 0
M  V30 17848 H 1680.79 -3.71969 1.10727 0
M  V30 17849 H 1678.89 -3.47429 -1.34625 0
M  V30 17850 H 1679.01 -4.791 0.00155427 0
M  V30 17851 H 1677.37 -2.54519 -0.095937 0
M  V30 17852 H 1678.15 -3.0967 1.48186 0
M  V30 17853 N 1680.6 -0.229873 -1.55915 0
M  V30 17854 C 1682.02 0.125347 -1.59107 0
M  V30 17855 C 1682.22 1.58293 -1.24682 0
M  V30 17856 O 1681.27 2.32452 -0.986018 0
M  V30 17857 C 1682.58 -0.208461 -2.99977 0
M  V30 17858 C 1684.13 -0.151373 -3.12634 0
M  V30 17859 C 1684.61 -0.458972 -4.55694 0
M  V30 17860 N 1686.1 -0.408847 -4.61392 0
M  V30 17861 C 1686.83 -0.620239 -5.70036 0
M  V30 17862 N 1686.33 -0.893851 -6.8701 0
M  V30 17863 N 1688.12 -0.552107 -5.59382 0
M  V30 17864 H 1680.27 -1.18062 -1.76565 0
M  V30 17865 H 1682.54 -0.473821 -0.821095 0
M  V30 17866 H 1682.24 -1.22043 -3.29846 0
M  V30 17867 H 1682.12 0.472591 -3.74228 0
M  V30 17868 H 1684.5 0.851249 -2.82556 0
M  V30 17869 H 1684.58 -0.866024 -2.40694 0
M  V30 17870 H 1684.23 -1.45907 -4.86491 0
M  V30 17871 H 1684.16 0.276965 -5.25871 0
M  V30 17872 H 1686.65 -0.205404 -3.77341 0
M  V30 17873 H 1686.96 -1.04303 -7.65729 0
M  V30 17874 H 1685.31 -0.931138 -6.88734 0
M  V30 17875 H 1688.5 -0.338518 -4.66874 0
M  V30 17876 H 1688.67 -0.720256 -6.43985 0
M  V30 17877 N 1682.08 1.5754 0.0434337 0
M  V30 17878 C 1683.31 1.92856 0.749268 0
M  V30 17879 C 1683.72 0.828405 1.69655 0
M  V30 17880 O 1683.08 -0.196294 1.81441 0
M  V30 17881 C 1683.13 3.28052 1.51869 0
M  V30 17882 O 1682.85 4.3384 0.609442 0
M  V30 17883 C 1684.35 3.77562 2.32298 0
M  V30 17884 H 1681.57 0.636818 0.211433 0
M  V30 17885 H 1684.11 2.04499 0.00524119 0
M  V30 17886 H 1682.27 3.1785 2.21472 0
M  V30 17887 H 1682.68 5.11794 1.1475 0
M  V30 17888 H 1684.16 4.7471 2.817 0
M  V30 17889 H 1684.63 3.08015 3.13087 0
M  V30 17890 H 1685.24 3.908 1.67796 0
M  V30 17891 N 1683.56 -0.31543 1.54411 0
M  V30 17892 C 1684.78 -1.07173 1.76979 0
M  V30 17893 C 1685.2 -1.81432 0.522285 0
M  V30 17894 O 1684.56 -1.75306 -0.507348 0
M  V30 17895 C 1684.61 -2.06352 2.96818 0
M  V30 17896 O 1684.33 -1.35108 4.16746 0
M  V30 17897 C 1685.83 -2.94136 3.31661 0
M  V30 17898 H 1683.05 -0.318455 0.590616 0
M  V30 17899 H 1685.59 -0.359085 2.01323 0
M  V30 17900 H 1683.75 -2.7314 2.74724 0
M  V30 17901 H 1684.16 -2.01593 4.84211 0
M  V30 17902 H 1685.64 -3.59606 4.18793 0
M  V30 17903 H 1686.11 -3.6167 2.49182 0
M  V30 17904 H 1686.72 -2.32899 3.55863 0
M  V30 17905 N 1685.03 -1.46622 -0.577906 0
M  V30 17906 C 1685.97 -1.53587 -1.70128 0
M  V30 17907 C 1686.98 -0.423789 -1.57187 0
M  V30 17908 O 1688.17 -0.692392 -1.64524 0
M  V30 17909 C 1685.27 -1.40459 -3.08422 0
M  V30 17910 C 1684.44 -2.65872 -3.47319 0
M  V30 17911 C 1683.5 -2.46875 -4.64693 0
M  V30 17912 O 1682.53 -3.20617 -4.70312 0
M  V30 17913 N 1683.73 -1.53352 -5.59878 0
M  V30 17914 H 1686.49 -2.50449 -1.64606 0
M  V30 17915 H 1684.05 -1.42739 -0.764014 0
M  V30 17916 H 1686.05 -1.25516 -3.84744 0
M  V30 17917 H 1684.62 -0.517603 -3.08285 0
M  V30 17918 H 1683.84 -2.95724 -2.60655 0
M  V30 17919 H 1685.12 -3.49173 -3.70075 0
M  V30 17920 H 1684.52 -0.925526 -5.58078 0
M  V30 17921 H 1683.08 -1.4437 -6.3561 0
M  V30 17922 N 1686.51 0.822941 -1.34408 0
M  V30 17923 C 1687.46 1.92272 -1.22537 0
M  V30 17924 C 1688.45 1.60418 -0.124416 0
M  V30 17925 O 1689.64 1.73422 -0.354077 0
M  V30 17926 C 1686.77 3.28926 -0.982998 0
M  V30 17927 C 1685.85 3.66898 -2.12712 0
M  V30 17928 N 1686.24 3.76436 -3.37831 0
M  V30 17929 C 1684.54 3.96746 -2.03736 0
M  V30 17930 C 1685.24 4.09674 -4.12968 0
M  V30 17931 N 1684.22 4.22893 -3.41559 0
M  V30 17932 H 1688.02 1.97824 -2.17354 0
M  V30 17933 H 1685.54 1.0166 -1.26645 0
M  V30 17934 H 1687.53 4.07531 -0.878862 0
M  V30 17935 H 1686.19 3.24671 -0.0435162 0
M  V30 17936 H 1687.2 3.59931 -3.72384 0
M  V30 17937 H 1683.88 4.00611 -1.17544 0
M  V30 17938 H 1685.27 4.24257 -5.21014 0
M  V30 17939 N 1687.99 1.18137 1.04314 0
M  V30 17940 C 1689.4 0.979768 1.58926 0
M  V30 17941 C 1689.75 -0.471214 1.90457 0
M  V30 17942 O 1688.88 -1.34812 1.69277 0
M  V30 17943 C 1689.47 1.77219 2.88754 0
M  V30 17944 C 1688.03 1.61501 3.39992 0
M  V30 17945 C 1687.18 1.76824 2.13609 0
M  V30 17946 H 1690.13 1.32717 0.870162 0
M  V30 17947 H 1690.15 1.2598 3.59039 0
M  V30 17948 H 1689.66 2.82818 2.65773 0
M  V30 17949 H 1687.76 0.58427 3.67991 0
M  V30 17950 H 1687.88 2.4115 4.13985 0
M  V30 17951 H 1686.24 1.19747 2.24795 0
M  V30 17952 H 1687.02 2.83853 1.93087 0
M  V30 17953 N 1689.47 -1.23186 0.98301 0
M  V30 17954 C 1690.4 -2.27054 0.544858 0
M  V30 17955 C 1691.38 -1.64749 -0.423281 0
M  V30 17956 O 1692.56 -1.91611 -0.316075 0
M  V30 17957 C 1689.69 -3.46972 -0.150976 0
M  V30 17958 C 1688.65 -4.21647 0.734707 0
M  V30 17959 C 1687.97 -5.34618 -0.0934874 0
M  V30 17960 C 1689.27 -4.81372 2.02679 0
M  V30 17961 H 1690.97 -2.63957 1.41305 0
M  V30 17962 H 1688.51 -1.26885 0.680895 0
M  V30 17963 H 1690.47 -4.18784 -0.468825 0
M  V30 17964 H 1689.19 -3.09137 -1.05364 0
M  V30 17965 H 1687.85 -3.51655 1.03605 0
M  V30 17966 H 1687.5 -4.93025 -0.996768 0
M  V30 17967 H 1687.2 -5.85503 0.496019 0
M  V30 17968 H 1688.72 -6.09251 -0.405658 0
M  V30 17969 H 1690.14 -5.45178 1.77353 0
M  V30 17970 H 1688.53 -5.42554 2.56429 0
M  V30 17971 H 1689.6 -4.01972 2.71194 0
M  V30 17972 N 1690.95 -0.754982 -1.38339 0
M  V30 17973 C 1691.91 -0.136457 -2.28793 0
M  V30 17974 C 1692.91 0.646016 -1.47252 0
M  V30 17975 O 1694.1 0.472077 -1.67681 0
M  V30 17976 C 1691.23 0.815058 -3.31013 0
M  V30 17977 H 1692.42 -0.933619 -2.84997 0
M  V30 17978 H 1689.98 -0.522082 -1.47323 0
M  V30 17979 H 1690.71 1.63785 -2.79902 0
M  V30 17980 H 1690.5 0.256363 -3.91261 0
M  V30 17981 H 1691.99 1.24378 -3.98648 0
M  V30 17982 N 1692.42 1.49318 -0.504168 0
M  V30 17983 C 1693.35 2.32027 0.261837 0
M  V30 17984 C 1694.34 1.4045 0.959575 0
M  V30 17985 O 1695.52 1.69357 0.950365 0
M  V30 17986 C 1692.65 3.21039 1.3248 0
M  V30 17987 C 1691.6 4.21435 0.746752 0
M  V30 17988 C 1690.93 4.99405 1.91047 0
M  V30 17989 C 1692.23 5.21631 -0.264315 0
M  V30 17990 H 1693.92 2.96317 -0.428544 0
M  V30 17991 H 1691.47 1.42497 -0.207539 0
M  V30 17992 H 1693.42 3.77714 1.86843 0
M  V30 17993 H 1692.15 2.54699 2.04441 0
M  V30 17994 H 1690.81 3.6591 0.22485 0
M  V30 17995 H 1690.45 4.29509 2.61784 0
M  V30 17996 H 1690.15 5.67338 1.52975 0
M  V30 17997 H 1691.68 5.58924 2.45837 0
M  V30 17998 H 1693.09 5.72981 0.191288 0
M  V30 17999 H 1691.49 5.97472 -0.561039 0
M  V30 18000 H 1692.56 4.70346 -1.17911 0
M  V30 18001 N 1693.9 0.238138 1.5579 0
M  V30 18002 C 1694.83 -0.659451 2.23994 0
M  V30 18003 C 1695.81 -1.18817 1.21723 0
M  V30 18004 O 1697 -1.22913 1.50353 0
M  V30 18005 C 1694.13 -1.86043 2.93267 0
M  V30 18006 C 1693.08 -1.46485 4.02152 0
M  V30 18007 C 1692.41 -2.74595 4.58805 0
M  V30 18008 C 1693.71 -0.642448 5.18334 0
M  V30 18009 H 1695.4 -0.0907522 2.99262 0
M  V30 18010 H 1692.95 -0.042209 1.43938 0
M  V30 18011 H 1694.9 -2.49393 3.39678 0
M  V30 18012 H 1693.63 -2.45436 2.15473 0
M  V30 18013 H 1692.28 -0.854729 3.56497 0
M  V30 18014 H 1691.93 -3.32168 3.77721 0
M  V30 18015 H 1691.63 -2.48854 5.32302 0
M  V30 18016 H 1693.16 -3.38859 5.07944 0
M  V30 18017 H 1694.57 -1.18005 5.61024 0
M  V30 18018 H 1692.97 -0.481458 5.98166 0
M  V30 18019 H 1694.04 0.347298 4.83655 0
M  V30 18020 N 1695.38 -1.57561 -0.0350783 0
M  V30 18021 C 1696.34 -2.05145 -1.02217 0
M  V30 18022 C 1697.34 -0.954524 -1.29404 0
M  V30 18023 O 1698.53 -1.21833 -1.24509 0
M  V30 18024 C 1695.67 -2.4633 -2.35658 0
M  V30 18025 H 1696.86 -2.93605 -0.61126 0
M  V30 18026 H 1694.41 -1.53739 -0.28176 0
M  V30 18027 H 1695.15 -1.61008 -2.81508 0
M  V30 18028 H 1694.93 -3.26408 -2.17256 0
M  V30 18029 H 1696.42 -2.83592 -3.06537 0
M  V30 18030 N 1696.86 0.307236 -1.54576 0
M  V30 18031 C 1698.27 0.652539 -1.45651 0
M  V30 18032 C 1698.47 1.90978 -0.64263 0
M  V30 18033 O 1697.53 2.52067 -0.147863 0
M  V30 18034 C 1698.84 0.811341 -2.89547 0
M  V30 18035 C 1700.39 0.90763 -2.99551 0
M  V30 18036 C 1700.87 1.09848 -4.44632 0
M  V30 18037 N 1702.36 1.16483 -4.48315 0
M  V30 18038 C 1703.09 1.33068 -5.57746 0
M  V30 18039 N 1702.59 1.46591 -6.77114 0
M  V30 18040 N 1704.38 1.35906 -5.45423 0
M  V30 18041 H 1696.53 -0.518891 -2.05964 0
M  V30 18042 H 1698.8 -0.170463 -0.932548 0
M  V30 18043 H 1698.5 -0.0414879 -3.51676 0
M  V30 18044 H 1698.38 1.70224 -3.36606 0
M  V30 18045 H 1700.76 1.75095 -2.37541 0
M  V30 18046 H 1700.84 -0.00715386 -2.55799 0
M  V30 18047 H 1700.49 0.259948 -5.07234 0
M  V30 18048 H 1700.42 2.02739 -4.86009 0
M  V30 18049 H 1702.91 1.07411 -3.62314 0
M  V30 18050 H 1703.22 1.58983 -7.5627 0
M  V30 18051 H 1701.57 1.43658 -6.79991 0
M  V30 18052 H 1704.76 1.24949 -4.51116 0
M  V30 18053 H 1704.93 1.48489 -6.30758 0
M  V30 18054 N 1698.34 1.46926 0.570122 0
M  V30 18055 C 1699.58 1.53113 1.32982 0
M  V30 18056 C 1699.92 0.187401 1.93294 0
M  V30 18057 O 1699.19 -0.802585 1.77169 0
M  V30 18058 C 1699.47 2.63936 2.44969 0
M  V30 18059 C 1699.33 4.07882 1.8961 0
M  V30 18060 C 1700.65 2.70753 3.46959 0
M  V30 18061 H 1697.76 0.557398 0.482158 0
M  V30 18062 H 1700.41 1.78923 0.639259 0
M  V30 18063 H 1698.56 2.42059 3.03874 0
M  V30 18064 H 1700.23 4.41084 1.35066 0
M  V30 18065 H 1698.47 4.16768 1.20361 0
M  V30 18066 H 1699.14 4.81175 2.70508 0
M  V30 18067 H 1701.62 2.90452 2.97954 0
M  V30 18068 H 1700.49 3.50093 4.2276 0
M  V30 18069 H 1700.76 1.77299 4.04991 0
M  V30 18070 N 1699.82 -0.815801 1.34842 0
M  V30 18071 C 1701.06 -1.57426 1.28797 0
M  V30 18072 C 1701.42 -1.91897 -0.138973 0
M  V30 18073 O 1700.71 -1.57777 -1.08706 0
M  V30 18074 C 1700.9 -2.87795 2.11917 0
M  V30 18075 C 1700.73 -2.6606 3.62549 0
M  V30 18076 C 1699.5 -2.62428 4.3181 0
M  V30 18077 C 1701.7 -2.37078 4.56397 0
M  V30 18078 N 1699.68 -2.32313 5.68246 0
M  V30 18079 C 1701.05 -2.16721 5.80889 0
M  V30 18080 C 1703.11 -2.22865 4.45237 0
M  V30 18081 C 1701.81 -1.8359 6.95476 0
M  V30 18082 C 1703.84 -1.9113 5.59663 0
M  V30 18083 C 1703.2 -1.71602 6.83178 0
M  V30 18084 H 1699.3 -0.578164 0.526545 0
M  V30 18085 H 1701.88 -0.955728 1.69629 0
M  V30 18086 H 1700.05 -3.47559 1.7337 0
M  V30 18087 H 1701.79 -3.53258 1.97461 0
M  V30 18088 H 1698.54 -2.76753 3.84324 0
M  V30 18089 H 1698.96 -2.20076 6.40231 0
M  V30 18090 H 1703.61 -2.36665 3.50357 0
M  V30 18091 H 1701.32 -1.68528 7.90332 0
M  V30 18092 H 1704.91 -1.80854 5.52976 0
M  V30 18093 H 1703.79 -1.47403 7.70222 0
M  V30 18094 N 1701.29 -1.18689 -1.03686 0
M  V30 18095 C 1702.54 -0.98606 -1.77214 0
M  V30 18096 C 1702.87 0.482788 -1.88103 0
M  V30 18097 O 1702.15 1.3585 -1.39194 0
M  V30 18098 C 1702.43 -1.64611 -3.20274 0
M  V30 18099 C 1702.28 -3.18808 -3.17304 0
M  V30 18100 C 1703.6 -1.36251 -4.18478 0
M  V30 18101 H 1700.72 -0.359634 -0.643298 0
M  V30 18102 H 1703.36 -1.46412 -1.21094 0
M  V30 18103 H 1701.51 -1.23964 -3.68192 0
M  V30 18104 H 1703.19 -3.68615 -2.77346 0
M  V30 18105 H 1701.43 -3.50769 -2.55232 0
M  V30 18106 H 1702.1 -3.60131 -4.18341 0
M  V30 18107 H 1704.58 -1.71476 -3.79124 0
M  V30 18108 H 1703.45 -1.84997 -5.16786 0
M  V30 18109 H 1703.71 -0.286113 -4.41173 0
M  V30 18110 N 1702.77 1.22662 -0.989529 0
M  V30 18111 C 1703.7 2.26762 -0.556891 0
M  V30 18112 C 1704.68 1.64971 0.414538 0
M  V30 18113 O 1705.87 1.91775 0.305909 0
M  V30 18114 C 1703 3.47047 0.132573 0
M  V30 18115 C 1701.95 4.21251 -0.757058 0
M  V30 18116 C 1701.28 5.3466 0.065134 0
M  V30 18117 C 1702.58 4.8029 -2.05229 0
M  V30 18118 H 1704.27 2.63204 -1.42703 0
M  V30 18119 H 1701.82 1.26522 -0.687614 0
M  V30 18120 H 1703.77 4.19027 0.446609 0
M  V30 18121 H 1702.49 3.09692 1.03723 0
M  V30 18122 H 1701.15 3.51101 -1.05469 0
M  V30 18123 H 1700.8 4.93547 0.970607 0
M  V30 18124 H 1700.5 5.85231 -0.527063 0
M  V30 18125 H 1702.03 6.09458 0.373342 0
M  V30 18126 H 1703.44 5.44229 -1.80242 0
M  V30 18127 H 1701.84 5.41186 -2.59302 0
M  V30 18128 H 1702.91 4.00529 -2.73322 0
M  V30 18129 N 1704.25 0.762308 1.37937 0
M  V30 18130 C 1705.49 0.327411 2.01761 0
M  V30 18131 C 1705.85 -1.07319 1.59206 0
M  V30 18132 O 1707.05 -1.60769 2.15423 0
M  V30 18133 C 1705.33 0.455779 3.54482 0
M  V30 18134 S 1706.88 0.104752 4.38675 0
M  V30 18135 H 1703.7 0.126503 0.699656 0
M  V30 18136 H 1706.3 0.994846 1.68295 0
M  V30 18137 H 1705.01 1.47593 3.82942 0
M  V30 18138 H 1704.54 -0.228536 3.92736 0
M  V30 18139 H 1706.55 -1.10282 4.83789 0
M  V30 18140 N 1705.73 -1.49049 0.51208 0
M  V30 18141 C 1706.67 -2.29326 -0.260408 0
M  V30 18142 C 1707.64 -1.36232 -0.950265 0
M  V30 18143 O 1708.83 -1.65193 -0.954777 0
M  V30 18144 C 1705.97 -3.19177 -1.31225 0
M  V30 18145 C 1705.08 -4.27336 -0.63305 0
M  V30 18146 C 1704.22 -5.04389 -1.66628 0
M  V30 18147 C 1703.26 -6.04372 -0.969561 0
M  V30 18148 N 1702.39 -6.74549 -1.94751 0
M  V30 18149 H 1707.23 -2.94876 0.430384 0
M  V30 18150 H 1704.77 -1.45383 0.224086 0
M  V30 18151 H 1706.73 -3.69655 -1.9342 0
M  V30 18152 H 1705.36 -2.55588 -1.97166 0
M  V30 18153 H 1704.41 -3.80262 0.102433 0
M  V30 18154 H 1705.72 -4.98727 -0.0851363 0
M  V30 18155 H 1704.88 -5.58791 -2.36299 0
M  V30 18156 H 1703.62 -4.32797 -2.24807 0
M  V30 18157 H 1702.62 -5.49191 -0.25869 0
M  V30 18158 H 1703.85 -6.77955 -0.394125 0
M  V30 18159 H 1701.79 -6.0572 -2.5187 0
M  V30 18160 H 1701.71 -7.41954 -1.45055 0
M  V30 18161 H 1702.98 -7.3355 -2.63675 0
M  V30 18162 N 1707.21 -0.246397 -1.55662 0
M  V30 18163 C 1708.45 0.377739 -1.98539 0
M  V30 18164 C 1708.77 1.58504 -1.13585 0
M  V30 18165 O 1708.04 1.94677 -0.218528 0
M  V30 18166 H 1706.62 0.142554 -0.733272 0
M  V30 18167 H 1709.29 -0.345069 -1.91821 0
M  V30 18168 H 1708.38 0.687224 -3.0444 0
M  V30 18169 N 1708.68 1.57577 0.026722 0
M  V30 18170 C 1709.93 1.90507 0.712634 0
M  V30 18171 C 1710.28 0.845249 1.72839 0
M  V30 18172 O 1709.58 -0.145782 1.91045 0
M  V30 18173 C 1709.77 3.27927 1.42121 0
M  V30 18174 C 1709.6 4.47178 0.475595 0
M  V30 18175 C 1708.37 5.05209 0.0957809 0
M  V30 18176 C 1710.57 5.13707 -0.246993 0
M  V30 18177 N 1708.55 6.07975 -0.850841 0
M  V30 18178 C 1709.92 6.11058 -1.0492 0
M  V30 18179 C 1711.98 4.96911 -0.313686 0
M  V30 18180 C 1710.68 6.93424 -1.91197 0
M  V30 18181 C 1712.71 5.7984 -1.16359 0
M  V30 18182 C 1712.07 6.76764 -1.95371 0
M  V30 18183 H 1708.17 0.745919 0.234797 0
M  V30 18184 H 1710.75 1.94681 -0.027342 0
M  V30 18185 H 1708.92 3.24678 2.13163 0
M  V30 18186 H 1710.65 3.48366 2.05969 0
M  V30 18187 H 1707.41 4.71376 0.458466 0
M  V30 18188 H 1707.83 6.64032 -1.31873 0
M  V30 18189 H 1712.47 4.21853 0.28288 0
M  V30 18190 H 1710.19 7.67825 -2.51932 0
M  V30 18191 H 1713.78 5.68892 -1.21876 0
M  V30 18192 H 1712.66 7.39818 -2.60074 0
M  V30 18193 N 1710.16 -0.299034 1.54737 0
M  V30 18194 C 1711.11 -1.38889 1.86581 0
M  V30 18195 C 1712.1 -1.52396 0.739723 0
M  V30 18196 O 1713.31 -1.5449 0.92374 0
M  V30 18197 H 1709.68 -0.463969 0.591808 0
M  V30 18198 H 1711.66 -1.09268 2.77674 0
M  V30 18199 C 1710.4 -2.74702 2.13152 0
M  V30 18200 H 1709.73 -2.65092 2.99277 0
M  V30 18201 H 1711.17 -3.49967 2.39372 0
M  V30 18202 C 1709.63 -3.23789 0.930706 0
M  V30 18203 O 1710.16 -4.01412 0.152193 0
M  V30 18204 N 1708.36 -2.81137 0.735545 0
M  V30 18205 H 1707.91 -2.1813 1.37029 0
M  V30 18206 H 1707.87 -3.1433 -0.0663452 0
M  V30 18207 N 1711.64 -1.47227 -0.562322 0
M  V30 18208 C 1712.89 -1.54801 -1.31941 0
M  V30 18209 C 1713.24 -0.205385 -1.91301 0
M  V30 18210 O 1712.53 0.788343 -1.7463 0
M  V30 18211 C 1712.73 -2.59832 -2.45402 0
M  V30 18212 C 1712.56 -4.04176 -1.97159 0
M  V30 18213 C 1711.33 -4.71679 -1.81236 0
M  V30 18214 C 1713.52 -4.91353 -1.51909 0
M  V30 18215 N 1711.51 -6.00561 -1.27279 0
M  V30 18216 C 1712.88 -6.10221 -1.09683 0
M  V30 18217 C 1714.93 -4.77837 -1.39914 0
M  V30 18218 C 1713.64 -7.17065 -0.566536 0
M  V30 18219 C 1715.66 -5.84773 -0.882863 0
M  V30 18220 C 1715.02 -7.02827 -0.470497 0
M  V30 18221 H 1711.12 -0.621189 -0.475024 0
M  V30 18222 H 1713.71 -1.83951 -0.637987 0
M  V30 18223 H 1711.88 -2.32559 -3.1108 0
M  V30 18224 H 1713.61 -2.5728 -3.12393 0
M  V30 18225 H 1710.36 -4.27508 -2.03798 0
M  V30 18226 H 1710.79 -6.6921 -1.02404 0
M  V30 18227 H 1715.43 -3.86938 -1.70408 0
M  V30 18228 H 1713.15 -8.07716 -0.249209 0
M  V30 18229 H 1716.73 -5.76361 -0.793674 0
M  V30 18230 H 1715.61 -7.84162 -0.0771934 0
M  V30 18231 N 1713.12 0.808639 -1.35273 0
M  V30 18232 C 1714.53 1.10389 -1.15267 0
M  V30 18233 C 1714.73 2.01467 0.0362501 0
M  V30 18234 O 1713.79 2.42386 0.707477 0
M  V30 18235 C 1715.1 1.73685 -2.45467 0
M  V30 18236 C 1716.65 1.86115 -2.51655 0
M  V30 18237 C 1717.13 2.52826 -3.81894 0
M  V30 18238 N 1718.62 2.60313 -3.83134 0
M  V30 18239 C 1719.35 3.12694 -4.80635 0
M  V30 18240 N 1718.85 3.6553 -5.88523 0
M  V30 18241 N 1720.64 3.11228 -4.68074 0
M  V30 18242 H 1712.79 0.203141 -2.11426 0
M  V30 18243 H 1715.05 0.152706 -0.93562 0
M  V30 18244 H 1714.76 1.14228 -3.32633 0
M  V30 18245 H 1714.63 2.73406 -2.59864 0
M  V30 18246 H 1717.02 2.44715 -1.64919 0
M  V30 18247 H 1717.1 0.852547 -2.41175 0
M  V30 18248 H 1716.75 1.94875 -4.69027 0
M  V30 18249 H 1716.68 3.54219 -3.89662 0
M  V30 18250 H 1719.17 2.22878 -3.05178 0
M  V30 18251 H 1719.48 4.03793 -6.58917 0
M  V30 18252 H 1717.83 3.63734 -5.92218 0
M  V30 18253 H 1721.02 2.69228 -3.82928 0
M  V30 18254 H 1721.19 3.51745 -5.44224 0
M  V30 18255 N 1714.6 1.19237 1.03055 0
M  V30 18256 C 1715.53 0.95226 2.132 0
M  V30 18257 C 1716.51 -0.113771 1.69719 0
M  V30 18258 O 1717.69 0.0409057 1.94157 0
M  V30 18259 C 1714.82 0.488296 3.4385 0
M  V30 18260 C 1713.78 1.49597 4.01005 0
M  V30 18261 C 1713.1 0.889148 5.27255 0
M  V30 18262 C 1714.4 2.87571 4.36005 0
M  V30 18263 H 1716.1 1.87343 2.33544 0
M  V30 18264 H 1713.64 0.902172 1.12236 0
M  V30 18265 H 1715.6 0.307623 4.20276 0
M  V30 18266 H 1714.32 -0.468469 3.23223 0
M  V30 18267 H 1712.98 1.66376 3.26672 0
M  V30 18268 H 1712.63 -0.0751191 5.02944 0
M  V30 18269 H 1712.33 1.56202 5.66458 0
M  V30 18270 H 1713.85 0.719233 6.06349 0
M  V30 18271 H 1715.26 2.74384 5.03375 0
M  V30 18272 H 1713.66 3.51635 4.86285 0
M  V30 18273 H 1714.73 3.40353 3.45381 0
M  V30 18274 N 1716.07 -1.22136 0.99602 0
M  V30 18275 C 1717.04 -2.22404 0.553986 0
M  V30 18276 C 1718.04 -1.56607 -0.364832 0
M  V30 18277 O 1719.23 -1.73497 -0.156358 0
M  V30 18278 C 1716.36 -3.40349 -0.193794 0
M  V30 18279 H 1717.55 -2.63026 1.44075 0
M  V30 18280 H 1715.11 -1.35241 0.78356 0
M  V30 18281 H 1715.84 -3.05204 -1.0964 0
M  V30 18282 H 1715.63 -3.89321 0.465972 0
M  V30 18283 H 1717.12 -4.14702 -0.491121 0
M  V30 18284 N 1717.55 -0.769612 -1.37531 0
M  V30 18285 C 1718.97 -0.449 -1.53154 0
M  V30 18286 C 1719.17 1.03568 -1.72847 0
M  V30 18287 O 1718.22 1.82154 -1.74861 0
M  V30 18288 C 1719.54 -1.26221 -2.72926 0
M  V30 18289 C 1721.09 -1.2539 -2.86786 0
M  V30 18290 C 1721.56 -2.05041 -4.09539 0
M  V30 18291 N 1723.05 -2.02384 -4.16647 0
M  V30 18292 C 1723.79 -2.60798 -5.10658 0
M  V30 18293 N 1723.28 -3.27991 -6.10241 0
M  V30 18294 N 1725.08 -2.5064 -5.03126 0
M  V30 18295 H 1717.23 -1.73161 -1.23 0
M  V30 18296 H 1719.49 -0.734977 -0.598759 0
M  V30 18297 H 1719.2 -2.31423 -2.64832 0
M  V30 18298 H 1719.07 -0.889937 -3.66551 0
M  V30 18299 H 1721.46 -0.209869 -2.94353 0
M  V30 18300 H 1721.54 -1.6658 -1.94126 0
M  V30 18301 H 1721.18 -3.09464 -4.02734 0
M  V30 18302 H 1721.11 -1.61234 -5.01309 0
M  V30 18303 H 1723.6 -1.53464 -3.45337 0
M  V30 18304 H 1723.92 -3.69942 -6.785 0
M  V30 18305 H 1722.26 -3.32089 -6.10526 0
M  V30 18306 H 1725.45 -1.97762 -4.24273 0
M  V30 18307 H 1725.62 -2.96458 -5.76209 0
M  V30 18308 N 1719.03 1.48775 -0.519977 0
M  V30 18309 C 1719.99 2.27967 0.237405 0
M  V30 18310 C 1720.99 1.34787 0.876868 0
M  V30 18311 O 1722.18 1.57773 0.738463 0
M  V30 18312 C 1719.32 3.13353 1.34248 0
M  V30 18313 H 1720.51 2.96386 -0.457753 0
M  V30 18314 H 1718.06 1.53852 -0.275569 0
M  V30 18315 H 1718.8 2.49543 2.0712 0
M  V30 18316 H 1718.58 3.81885 0.889187 0
M  V30 18317 H 1720.07 3.73116 1.87547 0
M  V30 18318 N 1720.51 0.254649 1.55529 0
M  V30 18319 C 1721.73 -0.374795 2.03985 0
M  V30 18320 C 1722.16 -1.50188 1.13249 0
M  V30 18321 O 1721.52 -1.80855 0.126963 0
M  V30 18322 C 1721.56 -0.852635 3.50375 0
M  V30 18323 O 1720.67 -1.9616 3.6276 0
M  V30 18324 H 1720.01 -0.0806157 0.659088 0
M  V30 18325 H 1722.54 0.38297 2.00984 0
M  V30 18326 H 1722.55 -1.15381 3.91345 0
M  V30 18327 H 1721.22 -0.0279044 4.15891 0
M  V30 18328 H 1719.8 -1.66453 3.33688 0
M  V30 18329 N 1721.99 -1.57589 -0.0183649 0
M  V30 18330 C 1722.92 -2.04071 -1.04343 0
M  V30 18331 C 1723.93 -0.955366 -1.3182 0
M  V30 18332 O 1725.12 -1.23249 -1.29119 0
M  V30 18333 C 1722.22 -2.41011 -2.38258 0
M  V30 18334 C 1721.39 -3.72057 -2.29984 0
M  V30 18335 C 1720.45 -3.96067 -3.46435 0
M  V30 18336 O 1719.48 -4.66982 -3.25447 0
M  V30 18337 N 1720.68 -3.42535 -4.68669 0
M  V30 18338 H 1723.45 -2.92629 -0.647168 0
M  V30 18339 H 1721.01 -1.60583 -0.20611 0
M  V30 18340 H 1723 -2.54203 -3.14902 0
M  V30 18341 H 1721.57 -1.58068 -2.69691 0
M  V30 18342 H 1720.79 -3.69117 -1.38369 0
M  V30 18343 H 1722.08 -4.58003 -2.2161 0
M  V30 18344 H 1721.47 -2.85073 -4.8862 0
M  V30 18345 H 1720.03 -3.61087 -5.42641 0
M  V30 18346 N 1723.46 0.290824 -1.54893 0
M  V30 18347 C 1724.71 1.02272 -1.74312 0
M  V30 18348 C 1725.03 1.87449 -0.537393 0
M  V30 18349 O 1724.3 1.90705 0.448135 0
M  V30 18350 H 1722.88 0.380592 -0.642774 0
M  V30 18351 H 1725.55 0.319353 -1.92266 0
M  V30 18352 H 1724.64 1.66997 -2.63663 0
M  V30 18353 N 1724.94 1.47523 0.554506 0
M  V30 18354 C 1725.87 1.63093 1.67102 0
M  V30 18355 C 1726.85 0.480298 1.63178 0
M  V30 18356 O 1728.04 0.709956 1.80757 0
M  V30 18357 C 1725.17 1.64751 3.05736 0
M  V30 18358 C 1724.12 2.79068 3.24507 0
M  V30 18359 C 1723.45 2.65801 4.63955 0
M  V30 18360 C 1724.75 4.20631 3.09623 0
M  V30 18361 H 1726.44 2.56561 1.54328 0
M  V30 18362 H 1723.99 1.2347 0.741023 0
M  V30 18363 H 1725.94 1.74234 3.83693 0
M  V30 18364 H 1724.67 0.678453 3.19475 0
M  V30 18365 H 1723.32 2.691 2.48959 0
M  V30 18366 H 1722.97 1.66917 4.74497 0
M  V30 18367 H 1722.67 3.42494 4.77464 0
M  V30 18368 H 1724.2 2.77216 5.44044 0
M  V30 18369 H 1725.61 4.31562 3.77396 0
M  V30 18370 H 1724.01 4.98133 3.3464 0
M  V30 18371 H 1725.08 4.38809 2.06336 0
M  V30 18372 N 1726.42 -0.801453 1.357 0
M  V30 18373 C 1727.38 -1.89514 1.28907 0
M  V30 18374 C 1728.38 -1.59559 0.19938 0
M  V30 18375 O 1729.57 -1.68196 0.453408 0
M  V30 18376 C 1726.71 -3.26044 0.995411 0
M  V30 18377 H 1727.9 -1.96956 2.2616 0
M  V30 18378 H 1725.45 -0.997899 1.20298 0
M  V30 18379 H 1726.19 -3.24289 0.0269561 0
M  V30 18380 H 1725.97 -3.49172 1.78385 0
M  V30 18381 H 1727.46 -4.06092 0.97362 0
M  V30 18382 N 1727.9 -1.19782 -1.02421 0
M  V30 18383 C 1729.12 -1.02939 -1.80051 0
M  V30 18384 C 1729.55 0.417153 -1.83416 0
M  V30 18385 O 1728.91 1.3001 -1.26361 0
M  V30 18386 C 1728.95 -1.60853 -3.22736 0
M  V30 18387 O 1728.06 -0.840999 -4.03734 0
M  V30 18388 H 1727.4 -0.363537 -0.555641 0
M  V30 18389 H 1729.93 -1.58908 -1.28878 0
M  V30 18390 H 1729.94 -1.64266 -3.73471 0
M  V30 18391 H 1728.61 -2.66135 -3.19602 0
M  V30 18392 H 1727.19 -0.880482 -3.62356 0
M  V30 18393 N 1729.38 1.21606 -1.00248 0
M  V30 18394 C 1730.33 2.21711 -0.531824 0
M  V30 18395 C 1731.31 1.55714 0.405201 0
M  V30 18396 O 1732.5 1.75493 0.230462 0
M  V30 18397 C 1729.63 3.43003 0.142686 0
M  V30 18398 C 1728.72 4.16191 -0.815209 0
M  V30 18399 N 1729.11 4.65986 -1.967 0
M  V30 18400 C 1727.41 4.41484 -0.633069 0
M  V30 18401 C 1728.11 5.21897 -2.56901 0
M  V30 18402 N 1727.08 5.11121 -1.85084 0
M  V30 18403 H 1730.89 2.57862 -1.41013 0
M  V30 18404 H 1728.4 1.37385 -0.86598 0
M  V30 18405 H 1730.4 4.13923 0.497322 0
M  V30 18406 H 1729.06 3.08362 1.01701 0
M  V30 18407 H 1730.07 4.61644 -2.34746 0
M  V30 18408 H 1726.75 4.17047 0.194381 0
M  V30 18409 H 1728.14 5.70898 -3.54296 0
M  V30 18410 N 1730.86 0.776895 1.37121 0
M  V30 18411 C 1731.79 0.180738 2.32799 0
M  V30 18412 C 1732.77 -0.677284 1.56035 0
M  V30 18413 O 1733.95 -0.613687 1.84249 0
M  V30 18414 C 1731.08 -0.695148 3.40272 0
M  V30 18415 C 1730.04 0.0619772 4.27955 0
M  V30 18416 C 1729.36 -0.933688 5.26485 0
M  V30 18417 C 1730.66 1.24396 5.0727 0
M  V30 18418 H 1732.36 0.980039 2.82906 0
M  V30 18419 H 1729.9 0.472722 1.3602 0
M  V30 18420 H 1731.85 -1.12205 4.06187 0
M  V30 18421 H 1730.58 -1.52702 2.88703 0
M  V30 18422 H 1729.24 0.469717 3.63578 0
M  V30 18423 H 1728.89 -1.76025 4.71194 0
M  V30 18424 H 1728.59 -0.431608 5.86013 0
M  V30 18425 H 1730.11 -1.35942 5.95275 0
M  V30 18426 H 1731.52 0.89345 5.66295 0
M  V30 18427 H 1729.92 1.67848 5.76149 0
M  V30 18428 H 1730.99 2.04553 4.39643 0
M  V30 18429 N 1732.33 -1.48497 0.527859 0
M  V30 18430 C 1733.74 -1.86498 0.0868541 0
M  V30 18431 C 1734.1 -1.43763 -1.33517 0
M  V30 18432 O 1733.22 -0.827397 -1.99958 0
M  V30 18433 C 1733.82 -3.38464 0.150843 0
M  V30 18434 C 1732.37 -3.75666 -0.234956 0
M  V30 18435 C 1731.52 -2.72541 0.511549 0
M  V30 18436 H 1734.47 -1.40432 0.739223 0
M  V30 18437 H 1734.49 -3.75114 -0.637972 0
M  V30 18438 H 1734.01 -3.69537 1.18592 0
M  V30 18439 H 1732.11 -3.50206 -1.27225 0
M  V30 18440 H 1732.22 -4.78989 0.103178 0
M  V30 18441 H 1730.58 -2.54665 -0.0419281 0
M  V30 18442 H 1731.37 -3.06457 1.54722 0
M  V30 18443 N 1733.81 -0.262893 -1.55392 0
M  V30 18444 C 1735.22 0.237224 -1.85187 0
M  V30 18445 C 1735.57 1.56383 -1.18486 0
M  V30 18446 O 1734.7 2.1126 -0.468849 0
M  V30 18447 C 1735.29 0.437206 -3.35967 0
M  V30 18448 C 1733.85 0.881568 -3.65931 0
M  V30 18449 C 1733 -0.0321489 -2.77281 0
M  V30 18450 H 1735.95 -0.485025 -1.51107 0
M  V30 18451 H 1735.97 1.27755 -3.58412 0
M  V30 18452 H 1735.48 -0.528474 -3.84485 0
M  V30 18453 H 1733.58 1.85915 -3.22903 0
M  V30 18454 H 1733.7 0.727355 -4.73547 0
M  V30 18455 H 1732.06 0.48204 -2.50097 0
M  V30 18456 H 1732.84 -0.99349 -3.2861 0
M  V30 18457 N 1735.29 1.57597 0.0100073 0
M  V30 18458 C 1736.54 1.91253 0.692388 0
M  V30 18459 C 1736.89 0.863533 1.71933 0
M  V30 18460 O 1736.18 -0.125511 1.91188 0
M  V30 18461 C 1736.38 3.29416 1.38635 0
M  V30 18462 C 1736.21 4.47657 0.428139 0
M  V30 18463 C 1734.98 5.05282 0.0421913 0
M  V30 18464 C 1737.17 5.13416 -0.301465 0
M  V30 18465 N 1735.16 6.07039 -0.915277 0
M  V30 18466 C 1736.53 6.09911 -1.11395 0
M  V30 18467 C 1738.58 4.9655 -0.366373 0
M  V30 18468 C 1737.29 6.91357 -1.98541 0
M  V30 18469 C 1739.31 5.78573 -1.22502 0
M  V30 18470 C 1738.67 6.74654 -2.02538 0
M  V30 18471 H 1734.77 0.748367 0.226872 0
M  V30 18472 H 1737.36 1.94641 -0.047989 0
M  V30 18473 H 1735.53 3.26921 2.09707 0
M  V30 18474 H 1737.26 3.50531 2.02263 0
M  V30 18475 H 1734.01 4.71835 0.408445 0
M  V30 18476 H 1734.44 6.62596 -1.38909 0
M  V30 18477 H 1739.08 4.22129 0.238121 0
M  V30 18478 H 1736.8 7.6511 -2.60062 0
M  V30 18479 H 1740.38 5.67567 -1.27903 0
M  V30 18480 H 1739.26 7.37018 -2.67906 0
M  V30 18481 N 1736.77 -0.282606 1.55045 0
M  V30 18482 C 1737.73 -1.33228 1.86502 0
M  V30 18483 C 1738.73 -1.42814 0.738977 0
M  V30 18484 O 1739.92 -1.42131 1.0072 0
M  V30 18485 C 1737.05 -2.71488 2.06173 0
M  V30 18486 H 1738.25 -1.06571 2.80326 0
M  V30 18487 H 1735.8 -0.520199 1.47389 0
M  V30 18488 H 1736.53 -3.03339 1.14699 0
M  V30 18489 H 1736.32 -2.65917 2.8815 0
M  V30 18490 H 1737.81 -3.47348 2.31817 0
M  V30 18491 N 1738.25 -1.47815 -0.546675 0
M  V30 18492 C 1739.49 -1.54238 -1.29975 0
M  V30 18493 C 1739.81 -0.213869 -1.94427 0
M  V30 18494 O 1741.01 -0.156187 -2.7105 0
M  V30 18495 C 1739.47 -2.71938 -2.35749 0
M  V30 18496 C 1739.08 -4.11362 -1.77441 0
M  V30 18497 C 1740.82 -2.87661 -3.12172 0
M  V30 18498 C 1738.73 -5.20347 -2.81057 0
M  V30 18499 H 1737.66 -0.574139 -0.488754 0
M  V30 18500 H 1740.31 -1.74113 -0.579384 0
M  V30 18501 H 1738.69 -2.45463 -3.10747 0
M  V30 18502 H 1739.87 -4.47785 -1.08744 0
M  V30 18503 H 1738.18 -4.00614 -1.13568 0
M  V30 18504 H 1740.78 -3.66252 -3.89568 0
M  V30 18505 H 1741.12 -1.96494 -3.67009 0
M  V30 18506 H 1741.65 -3.13957 -2.44286 0
M  V30 18507 H 1738.39 -6.13426 -2.31061 0
M  V30 18508 H 1737.91 -4.8843 -3.48132 0
M  V30 18509 H 1739.59 -5.47748 -3.44355 0
M  V30 18510 N 1739.72 0.794246 -1.36123 0
M  V30 18511 C 1740.67 1.8963 -1.26588 0
M  V30 18512 C 1741.66 1.60118 -0.158415 0
M  V30 18513 O 1742.85 1.72632 -0.390783 0
M  V30 18514 C 1739.98 3.26767 -1.05255 0
M  V30 18515 C 1739.06 3.62304 -2.20447 0
M  V30 18516 N 1739.46 3.69185 -3.4574 0
M  V30 18517 C 1737.75 3.92336 -2.12106 0
M  V30 18518 C 1738.45 4.00822 -4.21565 0
M  V30 18519 N 1737.43 4.15553 -3.50453 0
M  V30 18520 H 1741.23 1.93169 -2.21501 0
M  V30 18521 H 1738.75 0.989508 -1.28773 0
M  V30 18522 H 1740.74 4.05575 -0.965108 0
M  V30 18523 H 1739.4 3.24505 -0.112374 0
M  V30 18524 H 1740.41 3.51951 -3.79935 0
M  V30 18525 H 1737.09 3.98028 -1.26016 0
M  V30 18526 H 1738.48 4.1311 -5.29896 0
M  V30 18527 N 1741.2 1.20323 1.01785 0
M  V30 18528 C 1742.43 1.03821 1.78966 0
M  V30 18529 C 1742.84 -0.412622 1.84236 0
M  V30 18530 O 1742.2 -1.2865 1.29443 0
M  V30 18531 C 1742.25 1.61352 3.23493 0
M  V30 18532 O 1741.97 3.00758 3.18553 0
M  V30 18533 C 1743.47 1.49786 4.17228 0
M  V30 18534 H 1740.69 0.365291 0.562853 0
M  V30 18535 H 1743.24 1.59383 1.2813 0
M  V30 18536 H 1741.39 1.09913 3.71481 0
M  V30 18537 H 1741.81 3.28034 4.09261 0
M  V30 18538 H 1743.28 1.94802 5.16484 0
M  V30 18539 H 1743.76 0.450143 4.36887 0
M  V30 18540 H 1744.36 2.00409 3.75122 0
M  V30 18541 N 1742.68 -1.21073 1.00892 0
M  V30 18542 C 1743.61 -2.25847 0.592897 0
M  V30 18543 C 1744.59 -1.6561 -0.38824 0
M  V30 18544 O 1745.78 -1.92238 -0.275361 0
M  V30 18545 C 1742.91 -3.47214 -0.0773439 0
M  V30 18546 C 1741.86 -4.19994 0.82398 0
M  V30 18547 C 1741.19 -5.34696 0.0199341 0
M  V30 18548 C 1742.49 -4.76964 2.12844 0
M  V30 18549 H 1744.18 -2.609 1.46873 0
M  V30 18550 H 1741.73 -1.25412 0.707656 0
M  V30 18551 H 1743.68 -4.19684 -0.379889 0
M  V30 18552 H 1742.4 -3.11303 -0.987833 0
M  V30 18553 H 1741.06 -3.49379 1.11041 0
M  V30 18554 H 1740.71 -4.95028 -0.891966 0
M  V30 18555 H 1740.41 -5.84319 0.620102 0
M  V30 18556 H 1741.93 -6.09974 -0.276336 0
M  V30 18557 H 1743.35 -5.41293 1.88878 0
M  V30 18558 H 1741.74 -5.36992 2.67879 0
M  V30 18559 H 1742.81 -3.96129 2.79659 0
M  V30 18560 N 1744.16 -0.784156 -1.36707 0
M  V30 18561 C 1745.12 -0.184957 -2.28453 0
M  V30 18562 C 1746.12 0.614637 -1.4859 0
M  V30 18563 O 1747.31 0.436403 -1.68645 0
M  V30 18564 C 1744.44 0.744662 -3.32667 0
M  V30 18565 H 1745.64 -0.993861 -2.82953 0
M  V30 18566 H 1743.19 -0.553214 -1.46182 0
M  V30 18567 H 1743.92 1.57811 -2.83313 0
M  V30 18568 H 1743.71 0.173313 -3.91717 0
M  V30 18569 H 1745.2 1.15894 -4.01196 0
M  V30 18570 N 1745.64 1.48215 -0.535727 0
M  V30 18571 C 1746.86 2.07399 -0.00589172 0
M  V30 18572 C 1747.29 1.38886 1.26856 0
M  V30 18573 O 1746.64 0.456684 1.75454 0
M  V30 18574 C 1746.69 3.60071 0.195203 0
M  V30 18575 O 1745.8 3.92596 1.26261 0
M  V30 18576 H 1745.14 0.662689 -0.0416988 0
M  V30 18577 H 1747.67 1.90543 -0.745281 0
M  V30 18578 H 1747.68 4.05873 0.416085 0
M  V30 18579 H 1746.35 4.0934 -0.735747 0
M  V30 18580 H 1744.93 3.58567 1.02393 0
M  V30 18581 N 1747.11 0.27113 1.5525 0
M  V30 18582 C 1748.36 -0.340313 2.00533 0
M  V30 18583 C 1748.72 -1.53782 1.15623 0
M  V30 18584 O 1748.01 -1.90363 0.217368 0
M  V30 18585 C 1748.2 -0.776823 3.48856 0
M  V30 18586 C 1748.03 0.376843 4.48118 0
M  V30 18587 C 1746.8 0.859346 4.97939 0
M  V30 18588 C 1749 1.212 4.99815 0
M  V30 18589 N 1746.98 1.98289 5.80994 0
M  V30 18590 C 1748.35 2.1835 5.80279 0
M  V30 18591 C 1750.41 1.2458 4.82063 0
M  V30 18592 C 1749.11 3.18621 6.44882 0
M  V30 18593 C 1751.14 2.23693 5.47463 0
M  V30 18594 C 1750.5 3.19576 6.27734 0
M  V30 18595 H 1746.6 -0.0898119 0.776825 0
M  V30 18596 H 1749.18 0.394243 1.90667 0
M  V30 18597 H 1747.35 -1.48061 3.59072 0
M  V30 18598 H 1749.08 -1.36526 3.80976 0
M  V30 18599 H 1745.84 0.439328 4.71558 0
M  V30 18600 H 1746.26 2.54816 6.27214 0
M  V30 18601 H 1750.91 0.518302 4.19611 0
M  V30 18602 H 1748.62 3.92306 7.06486 0
M  V30 18603 H 1752.21 2.27044 5.3567 0
M  V30 18604 H 1751.09 3.95016 6.77445 0
M  V30 18605 N 1748.59 -1.576 -0.00164943 0
M  V30 18606 C 1749.84 -1.9012 -0.685486 0
M  V30 18607 C 1750.16 -0.872245 -1.74404 0
M  V30 18608 O 1749.43 0.090572 -1.95691 0
M  V30 18609 H 1748.01 -0.701699 -0.256177 0
M  V30 18610 H 1750.67 -1.94861 0.0388866 0
M  V30 18611 H 1749.77 -2.89831 -1.15778 0
M  V30 18612 N 1750.07 0.274379 -1.55193 0
M  V30 18613 C 1751 1.34336 -1.90987 0
M  V30 18614 C 1751.98 1.51594 -0.771582 0
M  V30 18615 O 1753.17 1.6466 -1.0296 0
M  V30 18616 C 1750.3 2.70312 -2.18057 0
M  V30 18617 C 1749.25 2.67787 -3.33878 0
M  V30 18618 C 1748.58 4.07301 -3.46425 0
M  V30 18619 C 1749.88 2.27178 -4.70306 0
M  V30 18620 H 1751.57 1.04627 -2.80524 0
M  V30 18621 H 1749.12 0.501867 -1.34971 0
M  V30 18622 H 1751.07 3.45205 -2.41685 0
M  V30 18623 H 1749.79 3.01601 -1.25318 0
M  V30 18624 H 1748.45 1.95351 -3.10216 0
M  V30 18625 H 1748.1 4.3581 -2.51155 0
M  V30 18626 H 1747.8 4.06507 -4.24295 0
M  V30 18627 H 1749.32 4.83935 -3.72343 0
M  V30 18628 H 1750.74 2.91794 -4.93487 0
M  V30 18629 H 1749.14 2.37548 -5.51082 0
M  V30 18630 H 1750.21 1.22309 -4.69221 0
M  V30 18631 N 1751.55 1.48103 0.538828 0
M  V30 18632 C 1752.48 1.64856 1.65363 0
M  V30 18633 C 1753.46 0.497579 1.6266 0
M  V30 18634 O 1754.64 0.729088 1.79994 0
M  V30 18635 C 1751.77 1.67984 3.03971 0
M  V30 18636 C 1750.73 2.82494 3.21529 0
M  V30 18637 C 1750.05 2.70706 4.6111 0
M  V30 18638 C 1751.35 4.23892 3.05145 0
M  V30 18639 H 1753.05 2.58183 1.51598 0
M  V30 18640 H 1750.59 1.24249 0.727886 0
M  V30 18641 H 1752.55 1.78294 3.81824 0
M  V30 18642 H 1751.27 0.712299 3.18738 0
M  V30 18643 H 1749.93 2.71725 2.46091 0
M  V30 18644 H 1749.58 1.7194 4.727 0
M  V30 18645 H 1749.28 3.47539 4.73804 0
M  V30 18646 H 1750.8 2.82971 5.41073 0
M  V30 18647 H 1752.22 4.3554 3.72797 0
M  V30 18648 H 1750.61 5.01654 3.29338 0
M  V30 18649 H 1751.68 4.40973 2.01671 0
M  V30 18650 N 1753.03 -0.787016 1.36542 0
M  V30 18651 C 1754.44 -1.08541 1.17008 0
M  V30 18652 C 1754.64 -2.015 -0.00419378 0
M  V30 18653 O 1753.7 -2.43481 -0.668826 0
M  V30 18654 C 1755.01 -1.69758 2.48199 0
M  V30 18655 C 1756.56 -1.82088 2.54584 0
M  V30 18656 C 1757.03 -2.46719 3.85868 0
M  V30 18657 N 1758.53 -2.54185 3.87227 0
M  V30 18658 C 1759.26 -3.05008 4.85549 0
M  V30 18659 N 1758.76 -3.56121 5.94264 0
M  V30 18660 N 1760.55 -3.03742 4.72966 0
M  V30 18661 H 1752.7 -0.16948 2.11723 0
M  V30 18662 H 1754.96 -0.137802 0.937931 0
M  V30 18663 H 1754.67 -1.08922 3.34408 0
M  V30 18664 H 1754.54 -2.69237 2.6418 0
M  V30 18665 H 1756.93 -2.42061 1.68792 0
M  V30 18666 H 1757.01 -0.814071 2.42501 0
M  V30 18667 H 1756.66 -1.87389 4.72068 0
M  V30 18668 H 1756.59 -3.47975 3.95248 0
M  V30 18669 H 1759.08 -2.17995 3.08685 0
M  V30 18670 H 1759.39 -3.93259 6.65257 0
M  V30 18671 H 1757.73 -3.54266 5.9793 0
M  V30 18672 H 1760.93 -2.63102 3.87163 0
M  V30 18673 H 1761.1 -3.43043 5.49751 0
M  V30 18674 N 1754.5 -1.20861 -1.01145 0
M  V30 18675 C 1755.75 -1.0199 -1.74478 0
M  V30 18676 C 1756.07 0.4484 -1.89775 0
M  V30 18677 O 1755.34 1.32386 -1.44398 0
M  V30 18678 H 1753.92 -0.37439 -0.646406 0
M  V30 18679 H 1756.59 -1.5206 -1.21917 0
M  V30 18680 H 1755.68 -1.48251 -2.74642 0
M  V30 18681 N 1755.98 1.20536 -1.01532 0
M  V30 18682 C 1756.89 2.26953 -0.594109 0
M  V30 18683 C 1757.91 1.70069 0.367771 0
M  V30 18684 O 1759.08 2.00093 0.229036 0
M  V30 18685 C 1756.15 3.46644 0.0622939 0
M  V30 18686 C 1755.21 4.18762 -0.945368 0
M  V30 18687 C 1754.44 5.32739 -0.320195 0
M  V30 18688 O 1754.67 5.63565 0.880407 0
M  V30 18689 O 1753.6 5.92912 -1.03629 0
M  V30 18690 H 1757.43 2.65196 -1.48003 0
M  V30 18691 H 1755.01 1.2713 -0.784752 0
M  V30 18692 H 1756.89 4.19211 0.428952 0
M  V30 18693 H 1755.57 3.10279 0.922428 0
M  V30 18694 H 1754.48 3.48372 -1.36337 0
M  V30 18695 H 1755.81 4.59064 -1.77543 0
M  V30 18696 N 1757.46 0.791395 1.36289 0
M  V30 18697 C 1758.88 0.473308 1.5242 0
M  V30 18698 C 1759.08 -1.00805 1.74473 0
M  V30 18699 O 1758.13 -1.79349 1.77737 0
M  V30 18700 C 1759.45 1.30547 2.70884 0
M  V30 18701 C 1760.99 1.29936 2.84755 0
M  V30 18702 C 1761.47 2.1153 4.06225 0
M  V30 18703 N 1762.96 2.08987 4.13375 0
M  V30 18704 C 1763.69 2.68889 5.06445 0
M  V30 18705 N 1763.19 3.37657 6.04946 0
M  V30 18706 N 1764.98 2.58612 4.99075 0
M  V30 18707 H 1757.13 1.75096 1.20229 0
M  V30 18708 H 1759.4 0.74441 0.586991 0
M  V30 18709 H 1759.1 2.35607 2.61117 0
M  V30 18710 H 1758.98 0.948139 3.65089 0
M  V30 18711 H 1761.36 0.256671 2.93982 0
M  V30 18712 H 1761.45 1.69647 1.91451 0
M  V30 18713 H 1761.09 3.15832 3.9776 0
M  V30 18714 H 1761.02 1.69189 4.98681 0
M  V30 18715 H 1763.51 1.58938 3.42851 0
M  V30 18716 H 1763.82 3.8069 6.72529 0
M  V30 18717 H 1762.17 3.4176 6.05165 0
M  V30 18718 H 1765.36 2.04487 4.21073 0
M  V30 18719 H 1765.53 3.05587 5.7142 0
M  V30 18720 N 1758.94 -1.47929 0.54358 0
M  V30 18721 C 1760.35 -1.86395 0.10663 0
M  V30 18722 C 1760.7 -1.45171 -1.31984 0
M  V30 18723 O 1759.83 -0.848558 -1.99069 0
M  V30 18724 C 1760.42 -3.38285 0.186733 0
M  V30 18725 C 1758.98 -3.75894 -0.195098 0
M  V30 18726 C 1758.13 -2.71983 0.540427 0
M  V30 18727 H 1761.08 -1.3964 0.754076 0
M  V30 18728 H 1761.1 -3.75769 -0.598151 0
M  V30 18729 H 1760.61 -3.68258 1.22505 0
M  V30 18730 H 1758.71 -3.51536 -1.23504 0
M  V30 18731 H 1758.83 -4.78853 0.153975 0
M  V30 18732 H 1757.19 -2.54696 -0.0149151 0
M  V30 18733 H 1757.97 -3.04799 1.57963 0
M  V30 18734 N 1760.42 -0.27936 -1.55104 0
M  V30 18735 C 1761.65 0.339429 -2.04097 0
M  V30 18736 C 1762.06 1.49151 -1.15756 0
M  V30 18737 O 1761.42 1.81624 -0.178558 0
M  V30 18738 C 1761.47 0.816392 -3.52161 0
M  V30 18739 O 1761.19 -0.289812 -4.3714 0
M  V30 18740 C 1762.69 1.50256 -4.17059 0
M  V30 18741 H 1759.91 0.0768615 -0.666583 0
M  V30 18742 H 1762.45 -0.412691 -2.00293 0
M  V30 18743 H 1760.61 1.51859 -3.56395 0
M  V30 18744 H 1761.02 0.0776213 -5.24443 0
M  V30 18745 H 1762.5 1.78767 -5.22251 0
M  V30 18746 H 1762.97 2.4355 -3.65486 0
M  V30 18747 H 1763.58 0.844106 -4.16839 0
M  V30 18748 N 1761.9 1.57599 -0.0067085 0
M  V30 18749 C 1763.31 1.55727 0.349452 0
M  V30 18750 C 1763.51 1.01004 1.74357 0
M  V30 18751 O 1762.57 0.646817 2.44075 0
M  V30 18752 C 1763.88 2.99905 0.218546 0
M  V30 18753 C 1765.43 3.11626 0.292987 0
M  V30 18754 C 1765.9 4.57601 0.191129 0
M  V30 18755 N 1767.39 4.62531 0.248819 0
M  V30 18756 C 1768.13 5.73074 0.193448 0
M  V30 18757 N 1767.63 6.92744 0.0882834 0
M  V30 18758 N 1769.42 5.61562 0.245803 0
M  V30 18759 H 1761.57 1.91508 -0.918617 0
M  V30 18760 H 1763.83 0.879931 -0.352739 0
M  V30 18761 H 1763.54 3.43807 -0.740914 0
M  V30 18762 H 1763.41 3.63761 0.997905 0
M  V30 18763 H 1765.8 2.67649 1.2429 0
M  V30 18764 H 1765.88 2.50534 -0.516358 0
M  V30 18765 H 1765.52 5.02253 -0.755263 0
M  V30 18766 H 1765.45 5.16646 1.01905 0
M  V30 18767 H 1767.95 3.76446 0.331157 0
M  V30 18768 H 1768.26 7.72782 0.052112 0
M  V30 18769 H 1766.6 6.94979 0.0538156 0
M  V30 18770 H 1769.79 4.66962 0.326204 0
M  V30 18771 H 1769.97 6.47694 0.199185 0
M  V30 18772 N 1763.37 -0.266145 1.55336 0
M  V30 18773 C 1764.62 -0.994648 1.7547 0
M  V30 18774 C 1764.94 -1.87201 0.56702 0
M  V30 18775 O 1766.14 -2.63582 0.650924 0
M  V30 18776 C 1764.6 -1.81844 3.10581 0
M  V30 18777 C 1764.21 -0.989413 4.36938 0
M  V30 18778 C 1765.95 -2.54084 3.40061 0
M  V30 18779 C 1763.86 -1.80799 5.63086 0
M  V30 18780 H 1762.79 -0.375097 0.654078 0
M  V30 18781 H 1765.44 -0.25004 1.81788 0
M  V30 18782 H 1763.82 -2.60427 2.98318 0
M  V30 18783 H 1764.99 -0.247271 4.60136 0
M  V30 18784 H 1763.31 -0.38125 4.14651 0
M  V30 18785 H 1765.91 -3.15744 4.3152 0
M  V30 18786 H 1766.25 -3.2472 2.60505 0
M  V30 18787 H 1766.78 -1.82526 3.53453 0
M  V30 18788 H 1763.52 -1.14571 6.4541 0
M  V30 18789 H 1763.04 -2.52592 5.4402 0
M  V30 18790 H 1764.72 -2.37994 6.01638 0
M  V30 18791 N 1764.85 -1.48386 -0.530967 0
M  V30 18792 C 1766.26 -1.49904 -1.11291 0
M  V30 18793 C 1766.61 -0.268276 -1.94357 0
M  V30 18794 O 1765.74 0.624676 -2.07188 0
M  V30 18795 C 1766.33 -2.71622 -2.02501 0
M  V30 18796 C 1764.89 -2.76015 -2.55916 0
M  V30 18797 C 1764.04 -2.43403 -1.32855 0
M  V30 18798 H 1766.99 -1.55517 -0.316269 0
M  V30 18799 H 1767.01 -2.50084 -2.86772 0
M  V30 18800 H 1766.52 -3.61182 -1.42017 0
M  V30 18801 H 1764.62 -1.9066 -3.20124 0
M  V30 18802 H 1764.74 -3.77416 -2.95116 0
M  V30 18803 H 1763.1 -1.94537 -1.644 0
M  V30 18804 H 1763.88 -3.35202 -0.741242 0
M  V30 18805 N 1766.33 0.779763 -1.36958 0
M  V30 18806 C 1767.75 1.07919 -1.17582 0
M  V30 18807 C 1767.95 2.01499 -0.00649229 0
M  V30 18808 O 1767 2.43832 0.655905 0
M  V30 18809 C 1768.31 1.68439 -2.49096 0
M  V30 18810 C 1769.86 1.80735 -2.55546 0
M  V30 18811 C 1770.34 2.44669 -3.87171 0
M  V30 18812 N 1771.83 2.52127 -3.88569 0
M  V30 18813 C 1772.56 3.02429 -4.87159 0
M  V30 18814 N 1772.06 3.52964 -5.96144 0
M  V30 18815 N 1773.85 3.0123 -4.7457 0
M  V30 18816 H 1766 0.158249 -2.1181 0
M  V30 18817 H 1768.27 0.132826 -0.938649 0
M  V30 18818 H 1767.97 1.07147 -3.34981 0
M  V30 18819 H 1767.85 2.67832 -2.65604 0
M  V30 18820 H 1770.23 2.41162 -1.70073 0
M  V30 18821 H 1770.31 0.801199 -2.42929 0
M  V30 18822 H 1769.96 1.84883 -4.73055 0
M  V30 18823 H 1769.89 3.45874 -3.97088 0
M  V30 18824 H 1772.38 2.16355 -3.09837 0
M  V30 18825 H 1772.69 3.89725 -6.67334 0
M  V30 18826 H 1771.04 3.5109 -5.998 0
M  V30 18827 H 1774.23 2.61045 -3.88553 0
M  V30 18828 H 1774.4 3.40122 -5.51562 0
M  V30 18829 N 1767.81 1.21396 1.00503 0
M  V30 18830 C 1768.74 0.997268 2.11132 0
M  V30 18831 C 1769.72 -0.0777455 1.69922 0
M  V30 18832 O 1770.9 0.08208 1.94026 0
M  V30 18833 C 1768.03 0.561122 3.42737 0
M  V30 18834 C 1766.99 1.58069 3.97741 0
M  V30 18835 C 1766.31 1.00079 5.25251 0
M  V30 18836 C 1767.61 2.96754 4.29807 0
M  V30 18837 H 1769.31 1.92255 2.29518 0
M  V30 18838 H 1766.85 0.925776 1.10297 0
M  V30 18839 H 1768.81 0.396701 4.19529 0
M  V30 18840 H 1767.53 -0.399804 3.24144 0
M  V30 18841 H 1766.19 1.73268 3.23069 0
M  V30 18842 H 1765.84 0.0315797 5.0299 0
M  V30 18843 H 1765.54 1.68182 5.63017 0
M  V30 18844 H 1767.06 0.847687 6.04687 0
M  V30 18845 H 1768.48 2.85 4.97441 0
M  V30 18846 H 1766.87 3.61871 4.78717 0
M  V30 18847 H 1767.94 3.47602 3.38084 0
M  V30 18848 N 1769.29 -1.19996 1.0217 0
M  V30 18849 C 1770.22 -2.25206 0.616818 0
M  V30 18850 C 1771.2 -1.66013 -0.370653 0
M  V30 18851 O 1772.38 -1.92519 -0.254956 0
M  V30 18852 C 1769.51 -3.47276 -0.0405129 0
M  V30 18853 C 1768.47 -4.19096 0.868479 0
M  V30 18854 C 1767.79 -5.34645 0.0766447 0
M  V30 18855 C 1769.09 -4.7468 2.1789 0
M  V30 18856 H 1770.79 -2.59328 1.49632 0
M  V30 18857 H 1768.33 -1.24655 0.720917 0
M  V30 18858 H 1770.28 -4.20063 -0.335355 0
M  V30 18859 H 1769.01 -3.12333 -0.954759 0
M  V30 18860 H 1767.67 -3.48181 1.1474 0
M  V30 18861 H 1767.32 -4.95946 -0.839411 0
M  V30 18862 H 1767.02 -5.83628 0.682041 0
M  V30 18863 H 1768.54 -6.10233 -0.211624 0
M  V30 18864 H 1769.95 -5.39259 1.94608 0
M  V30 18865 H 1768.35 -5.34121 2.7356 0
M  V30 18866 H 1769.42 -3.93141 2.83845 0
M  V30 18867 N 1770.76 -0.798611 -1.35867 0
M  V30 18868 C 1772.17 -0.437243 -1.81508 0
M  V30 18869 C 1772.53 1.03987 -1.66376 0
M  V30 18870 O 1771.65 1.80751 -1.18988 0
M  V30 18871 C 1772.25 -0.786865 -3.29536 0
M  V30 18872 C 1770.8 -0.478204 -3.7335 0
M  V30 18873 C 1769.95 -1.01668 -2.5799 0
M  V30 18874 H 1772.9 -0.990957 -1.23959 0
M  V30 18875 H 1772.92 -0.0813864 -3.80413 0
M  V30 18876 H 1772.44 -1.86198 -3.40517 0
M  V30 18877 H 1770.54 0.588503 -3.67923 0
M  V30 18878 H 1770.65 -1.00525 -4.68435 0
M  V30 18879 H 1769.01 -0.439417 -2.50881 0
M  V30 18880 H 1769.8 -2.09775 -2.71753 0
M  V30 18881 N 1772.24 1.47639 -0.551417 0
M  V30 18882 C 1773.66 1.58202 -0.210768 0
M  V30 18883 C 1773.86 1.55078 1.28659 0
M  V30 18884 O 1772.91 1.45113 2.06636 0
M  V30 18885 C 1774.23 2.88952 -0.832294 0
M  V30 18886 C 1775.77 3.02524 -0.80299 0
M  V30 18887 C 1776.25 4.35966 -1.40348 0
M  V30 18888 N 1777.74 4.42587 -1.3664 0
M  V30 18889 C 1778.48 5.44391 -1.80072 0
M  V30 18890 N 1777.97 6.53037 -2.31332 0
M  V30 18891 N 1779.76 5.35401 -1.71178 0
M  V30 18892 H 1771.92 1.47912 -1.52433 0
M  V30 18893 H 1774.18 0.703607 -0.635328 0
M  V30 18894 H 1773.88 2.96958 -1.88439 0
M  V30 18895 H 1773.76 3.75824 -0.321915 0
M  V30 18896 H 1776.15 2.94119 0.240395 0
M  V30 18897 H 1776.23 2.17209 -1.35107 0
M  V30 18898 H 1775.87 4.45127 -2.4459 0
M  V30 18899 H 1775.8 5.20004 -0.830897 0
M  V30 18900 H 1778.29 3.64664 -0.991386 0
M  V30 18901 H 1778.6 7.26884 -2.62411 0
M  V30 18902 H 1776.95 6.53942 -2.35339 0
M  V30 18903 H 1780.14 4.49421 -1.30912 0
M  V30 18904 H 1780.31 6.14604 -2.05344 0
M  V30 18905 N 1773.72 0.287581 1.54954 0
M  V30 18906 C 1774.95 -0.331442 2.04735 0
M  V30 18907 C 1775.37 -1.47752 1.16409 0
M  V30 18908 O 1774.73 -1.80545 0.165297 0
M  V30 18909 C 1774.78 -0.778123 3.52105 0
M  V30 18910 O 1773.88 -1.88422 3.66839 0
M  V30 18911 H 1773.22 -0.0666173 0.66065 0
M  V30 18912 H 1775.75 0.425516 2.00126 0
M  V30 18913 H 1775.76 -1.07054 3.93705 0
M  V30 18914 H 1774.44 0.0603184 4.15856 0
M  V30 18915 H 1773.01 -1.59338 3.37144 0
M  V30 18916 N 1775.2 -1.57593 0.0150662 0
M  V30 18917 C 1776.13 -2.06239 -0.999912 0
M  V30 18918 C 1777.14 -0.983112 -1.29764 0
M  V30 18919 O 1778.33 -1.25961 -1.26476 0
M  V30 18920 C 1775.43 -2.46011 -2.33092 0
M  V30 18921 C 1774.61 -3.76851 -2.2204 0
M  V30 18922 C 1773.66 -4.03326 -3.37956 0
M  V30 18923 O 1772.69 -4.73781 -3.15469 0
M  V30 18924 N 1773.89 -3.52399 -4.61298 0
M  V30 18925 H 1776.66 -2.93936 -0.584952 0
M  V30 18926 H 1774.22 -1.60984 -0.172001 0
M  V30 18927 H 1776.21 -2.60825 -3.09439 0
M  V30 18928 H 1774.78 -1.63753 -2.66277 0
M  V30 18929 H 1774 -3.71969 -1.30509 0
M  V30 18930 H 1775.29 -4.626 -2.11845 0
M  V30 18931 H 1774.69 -2.95374 -4.82463 0
M  V30 18932 H 1773.24 -3.72516 -5.3486 0
M  V30 18933 N 1776.68 0.257904 -1.55475 0
M  V30 18934 C 1778.09 0.605871 -1.47653 0
M  V30 18935 C 1778.29 1.88837 -0.703063 0
M  V30 18936 O 1777.35 2.51469 -0.227981 0
M  V30 18937 C 1778.66 0.718813 -2.91982 0
M  V30 18938 C 1780.21 0.81187 -3.02287 0
M  V30 18939 C 1780.68 0.956465 -4.47901 0
M  V30 18940 N 1782.18 1.02161 -4.51793 0
M  V30 18941 C 1782.91 1.15256 -5.61697 0
M  V30 18942 N 1782.41 1.24975 -6.81435 0
M  V30 18943 N 1784.2 1.18485 -5.4947 0
M  V30 18944 H 1776.35 -0.584154 -2.04209 0
M  V30 18945 H 1778.61 -0.200045 -0.926653 0
M  V30 18946 H 1778.32 -0.15335 -3.51366 0
M  V30 18947 H 1778.19 1.59429 -3.41851 0
M  V30 18948 H 1780.58 1.67449 -2.42991 0
M  V30 18949 H 1780.66 -0.0885307 -2.55647 0
M  V30 18950 H 1780.31 0.0984438 -5.07805 0
M  V30 18951 H 1780.24 1.87174 -4.92213 0
M  V30 18952 H 1782.73 0.958295 -3.65548 0
M  V30 18953 H 1783.04 1.34843 -7.60945 0
M  V30 18954 H 1781.38 1.21952 -6.84217 0
M  V30 18955 H 1784.58 1.10534 -4.54863 0
M  V30 18956 H 1784.75 1.28346 -6.35162 0
M  V30 18957 N 1778.15 1.48666 0.52309 0
M  V30 18958 C 1779.09 1.59796 1.64311 0
M  V30 18959 C 1780.1 0.481836 1.55506 0
M  V30 18960 O 1781.29 0.752977 1.61841 0
M  V30 18961 C 1778.39 1.5181 3.02997 0
M  V30 18962 C 1777.56 2.7858 3.37212 0
M  V30 18963 C 1776.62 2.63952 4.5521 0
M  V30 18964 O 1775.65 3.37851 4.58088 0
M  V30 18965 N 1776.85 1.74026 5.53801 0
M  V30 18966 H 1779.61 2.56386 1.55197 0
M  V30 18967 H 1777.17 1.45476 0.710511 0
M  V30 18968 H 1779.17 1.39709 3.7982 0
M  V30 18969 H 1777.74 0.631664 3.06152 0
M  V30 18970 H 1776.96 3.05194 2.495 0
M  V30 18971 H 1778.24 3.62668 3.56861 0
M  V30 18972 H 1777.64 1.13202 5.54258 0
M  V30 18973 H 1776.2 1.6786 6.29814 0
M  V30 18974 N 1779.63 -0.772489 1.37369 0
M  V30 18975 C 1780.56 -1.89969 1.35772 0
M  V30 18976 C 1781.54 -1.68586 0.226452 0
M  V30 18977 O 1782.73 -1.89454 0.426692 0
M  V30 18978 C 1779.86 -3.27242 1.16319 0
M  V30 18979 C 1778.81 -3.63187 2.2645 0
M  V30 18980 C 1778.14 -4.98992 1.92121 0
M  V30 18981 C 1779.44 -3.70013 3.6863 0
M  V30 18982 H 1781.13 -1.91564 2.30095 0
M  V30 18983 H 1778.68 -0.920241 1.10759 0
M  V30 18984 H 1780.63 -4.05734 1.13832 0
M  V30 18985 H 1779.36 -3.26078 0.184513 0
M  V30 18986 H 1778.01 -2.87001 2.28091 0
M  V30 18987 H 1777.66 -4.94368 0.927848 0
M  V30 18988 H 1777.36 -5.24012 2.65867 0
M  V30 18989 H 1778.89 -5.79886 1.91219 0
M  V30 18990 H 1780.3 -4.38659 3.69122 0
M  V30 18991 H 1778.7 -4.06529 4.41423 0
M  V30 18992 H 1779.77 -2.70694 4.02309 0
M  V30 18993 N 1781.11 -1.21927 -0.998575 0
M  V30 18994 C 1782.36 -1.03834 -1.73386 0
M  V30 18995 C 1782.68 0.428247 -1.90239 0
M  V30 18996 O 1781.95 1.30847 -1.45794 0
M  V30 18997 H 1780.53 -0.381225 -0.642399 0
M  V30 18998 H 1783.19 -1.53344 -1.20298 0
M  V30 18999 H 1782.29 -1.51155 -2.73054 0
M  V30 19000 N 1782.59 1.19452 -1.02805 0
M  V30 19001 C 1784 1.70804 -0.753845 0
M  V30 19002 C 1784.35 1.8225 0.726584 0
M  V30 19003 O 1783.48 1.49307 1.56641 0
M  V30 19004 C 1784.07 3.10227 -1.36178 0
M  V30 19005 C 1782.63 3.58842 -1.13618 0
M  V30 19006 C 1781.78 2.3573 -1.46036 0
M  V30 19007 H 1784.73 1.04305 -1.19608 0
M  V30 19008 H 1784.75 3.72867 -0.758315 0
M  V30 19009 H 1784.26 3.01864 -2.43925 0
M  V30 19010 H 1782.36 3.72521 -0.0768914 0
M  V30 19011 H 1782.47 4.43008 -1.82431 0
M  V30 19012 H 1780.84 2.39027 -0.879669 0
M  V30 19013 H 1781.62 2.29998 -2.54864 0
M  V30 19014 N 1784.07 0.805805 1.35442 0
M  V30 19015 C 1785.48 0.446863 1.81273 0
M  V30 19016 C 1785.83 -1.03104 1.66925 0
M  V30 19017 O 1784.95 -1.80117 1.19945 0
M  V30 19018 C 1785.55 0.80433 3.29114 0
M  V30 19019 C 1784.11 0.497997 3.73091 0
M  V30 19020 C 1783.25 1.03035 2.57447 0
M  V30 19021 H 1786.21 0.997517 1.23431 0
M  V30 19022 H 1786.23 0.101559 3.80364 0
M  V30 19023 H 1785.74 1.88001 3.39525 0
M  V30 19024 H 1783.84 -0.568982 3.6823 0
M  V30 19025 H 1783.95 1.03008 4.67896 0
M  V30 19026 H 1782.32 0.452716 2.50644 0
M  V30 19027 H 1783.1 2.11213 2.70636 0
M  V30 19028 N 1785.54 -1.47344 0.559239 0
M  V30 19029 C 1786.51 -2.28516 -0.17688 0
M  V30 19030 C 1787.51 -1.37065 -0.840823 0
M  V30 19031 O 1788.7 -1.59676 -0.696373 0
M  V30 19032 C 1785.83 -3.16803 -1.25892 0
M  V30 19033 H 1787.02 -2.95068 0.536174 0
M  V30 19034 H 1784.58 -1.53067 0.316263 0
M  V30 19035 H 1785.31 -2.54947 -2.00431 0
M  V30 19036 H 1785.1 -3.84108 -0.787625 0
M  V30 19037 H 1786.59 -3.77958 -1.77589 0
M  V30 19038 N 1787.02 -0.295795 -1.54799 0
M  V30 19039 C 1788.25 0.32058 -2.04907 0
M  V30 19040 C 1788.67 1.47132 -1.17191 0
M  V30 19041 O 1788.03 1.80455 -0.174869 0
M  V30 19042 C 1788.08 0.759439 -3.52512 0
M  V30 19043 O 1787.18 1.86474 -3.67833 0
M  V30 19044 H 1786.52 0.0631128 -0.660994 0
M  V30 19045 H 1789.05 -0.436123 -1.99898 0
M  V30 19046 H 1789.06 1.04965 -3.94267 0
M  V30 19047 H 1787.74 -0.0823715 -4.15818 0
M  V30 19048 H 1786.32 1.57547 -3.37984 0
M  V30 19049 N 1788.5 1.57583 -0.0234236 0
M  V30 19050 C 1789.92 1.56089 0.332916 0
M  V30 19051 C 1790.12 1.02847 1.73276 0
M  V30 19052 O 1789.17 0.672668 2.43375 0
M  V30 19053 C 1790.49 3.0012 0.186725 0
M  V30 19054 C 1792.03 3.11919 0.259918 0
M  V30 19055 C 1792.51 4.57778 0.142583 0
M  V30 19056 N 1794 4.62769 0.199748 0
M  V30 19057 C 1794.74 5.73247 0.132655 0
M  V30 19058 N 1794.23 6.92798 0.0148037 0
M  V30 19059 N 1796.02 5.61791 0.186228 0
M  V30 19060 H 1788.18 1.90523 -0.938877 0
M  V30 19061 H 1790.44 0.876141 -0.362052 0
M  V30 19062 H 1790.14 3.43002 -0.777338 0
M  V30 19063 H 1790.02 3.64798 0.959267 0
M  V30 19064 H 1792.41 2.68952 1.21444 0
M  V30 19065 H 1792.49 2.49972 -0.542901 0
M  V30 19066 H 1792.13 5.01424 -0.808491 0
M  V30 19067 H 1792.06 5.17698 0.964194 0
M  V30 19068 H 1794.55 3.76776 0.291211 0
M  V30 19069 H 1794.86 7.72794 -0.0298548 0
M  V30 19070 H 1793.21 6.94997 -0.0198993 0
M  V30 19071 H 1796.4 4.67282 0.276658 0
M  V30 19072 H 1796.57 6.47869 0.130478 0
M  V30 19073 N 1789.98 -0.249655 1.5561 0
M  V30 19074 C 1790.91 -1.33188 1.8653 0
M  V30 19075 C 1791.92 -1.44424 0.751366 0
M  V30 19076 O 1793.11 -1.45823 1.02946 0
M  V30 19077 C 1790.21 -2.71076 2.03398 0
M  V30 19078 C 1789.39 -2.82142 3.34237 0
M  V30 19079 C 1788.45 -4.00857 3.40882 0
M  V30 19080 O 1787.47 -3.90514 4.1411 0
M  V30 19081 N 1788.67 -5.13901 2.69974 0
M  V30 19082 H 1791.44 -1.07 2.79948 0
M  V30 19083 H 1789 -0.43976 1.55813 0
M  V30 19084 H 1790.99 -3.48826 2.05188 0
M  V30 19085 H 1789.56 -2.89985 1.16738 0
M  V30 19086 H 1788.78 -1.9109 3.44788 0
M  V30 19087 H 1790.07 -2.86483 4.20481 0
M  V30 19088 H 1789.47 -5.25195 2.10206 0
M  V30 19089 H 1788.02 -5.89796 2.7746 0
M  V30 19090 N 1791.46 -1.48941 -0.515198 0
M  V30 19091 C 1792.87 -1.51076 -1.09695 0
M  V30 19092 C 1793.22 -0.288875 -1.94062 0
M  V30 19093 O 1792.34 0.602665 -2.07839 0
M  V30 19094 C 1792.94 -2.73755 -1.99609 0
M  V30 19095 C 1791.5 -2.78714 -2.52974 0
M  V30 19096 C 1790.65 -2.44798 -1.30266 0
M  V30 19097 H 1793.6 -1.55843 -0.299757 0
M  V30 19098 H 1793.62 -2.53112 -2.84103 0
M  V30 19099 H 1793.13 -3.62668 -1.38178 0
M  V30 19100 H 1791.23 -1.94045 -3.18084 0
M  V30 19101 H 1791.34 -3.80525 -2.91097 0
M  V30 19102 H 1789.71 -1.9627 -1.62327 0
M  V30 19103 H 1790.49 -3.35969 -0.705648 0
M  V30 19104 N 1792.94 0.765193 -1.37777 0
M  V30 19105 C 1793.87 1.89247 -1.36777 0
M  V30 19106 C 1794.85 1.68463 -0.235389 0
M  V30 19107 O 1796.03 1.89225 -0.436733 0
M  V30 19108 C 1793.16 3.2662 -1.18053 0
M  V30 19109 C 1792.12 3.61981 -2.28372 0
M  V30 19110 C 1791.44 4.97967 -1.94765 0
M  V30 19111 C 1792.74 3.68053 -3.70587 0
M  V30 19112 H 1794.44 1.90341 -2.31108 0
M  V30 19113 H 1791.98 0.914355 -1.11245 0
M  V30 19114 H 1793.93 4.05125 -1.15982 0
M  V30 19115 H 1792.66 3.25976 -0.201803 0
M  V30 19116 H 1791.32 2.85788 -2.2961 0
M  V30 19117 H 1790.97 4.93869 -0.954052 0
M  V30 19118 H 1790.67 5.22594 -2.68642 0
M  V30 19119 H 1792.19 5.78864 -1.94292 0
M  V30 19120 H 1793.6 4.36696 -3.71443 0
M  V30 19121 H 1792 4.04183 -4.43572 0
M  V30 19122 H 1793.07 2.68556 -4.03739 0
M  V30 19123 N 1794.41 1.22455 0.992094 0
M  V30 19124 C 1795.82 1.04629 1.54627 0
M  V30 19125 C 1796.18 -0.390011 1.92285 0
M  V30 19126 O 1795.3 -1.27511 1.74842 0
M  V30 19127 C 1795.9 1.89306 2.80978 0
M  V30 19128 C 1794.45 1.75775 3.32836 0
M  V30 19129 C 1793.6 1.85724 2.05917 0
M  V30 19130 H 1796.55 1.36288 0.813089 0
M  V30 19131 H 1796.57 1.41095 3.53373 0
M  V30 19132 H 1796.09 2.93836 2.53539 0
M  V30 19133 H 1794.19 0.739821 3.65181 0
M  V30 19134 H 1794.3 2.58491 4.03385 0
M  V30 19135 H 1792.66 1.29173 2.19514 0
M  V30 19136 H 1793.45 2.91787 1.80874 0
M  V30 19137 N 1795.89 -1.18905 1.03437 0
M  V30 19138 C 1797.14 -1.88354 0.732598 0
M  V30 19139 C 1797.46 -1.80353 -0.741474 0
M  V30 19140 O 1796.73 -1.21764 -1.53461 0
M  V30 19141 H 1795.31 -0.697272 0.267995 0
M  V30 19142 H 1797.97 -1.44329 1.30978 0
M  V30 19143 H 1797.07 -2.94551 1.03181 0
M  V30 19144 N 1797.37 -0.812977 -1.35013 0
M  V30 19145 C 1798.6 -0.409014 -2.02817 0
M  V30 19146 C 1799.01 0.982004 -1.61252 0
M  V30 19147 O 1798.37 1.63384 -0.813137 0
M  V30 19148 C 1798.42 -0.490117 -3.58162 0
M  V30 19149 O 1798.14 -1.8263 -3.98218 0
M  V30 19150 C 1799.64 -0.0797786 -4.43228 0
M  V30 19151 H 1796.86 -0.165356 -0.650306 0
M  V30 19152 H 1799.41 -1.09837 -1.72499 0
M  V30 19153 H 1797.56 0.151057 -3.87105 0
M  V30 19154 H 1797.98 -1.79356 -4.92881 0
M  V30 19155 H 1799.45 -0.18763 -5.51681 0
M  V30 19156 H 1799.93 0.975612 -4.28227 0
M  V30 19157 H 1800.53 -0.694359 -4.19594 0
M  V30 19158 N 1798.85 1.47045 -0.567045 0
M  V30 19159 C 1799.78 2.32929 0.163191 0
M  V30 19160 C 1800.76 1.44393 0.899142 0
M  V30 19161 O 1801.94 1.73235 0.87768 0
M  V30 19162 C 1799.07 3.26369 1.18745 0
M  V30 19163 C 1798.03 4.24223 0.567335 0
M  V30 19164 C 1797.35 5.07058 1.69693 0
M  V30 19165 C 1798.65 5.2004 -0.485319 0
M  V30 19166 H 1800.35 2.94233 -0.553837 0
M  V30 19167 H 1797.89 1.41488 -0.267789 0
M  V30 19168 H 1799.85 3.85299 1.70654 0
M  V30 19169 H 1798.57 2.6314 1.93455 0
M  V30 19170 H 1797.23 3.66534 0.0694525 0
M  V30 19171 H 1796.88 4.40226 2.43331 0
M  V30 19172 H 1796.58 5.73316 1.28774 0
M  V30 19173 H 1798.1 5.68848 2.2191 0
M  V30 19174 H 1799.52 5.73277 -0.0519049 0
M  V30 19175 H 1797.91 5.94554 -0.813942 0
M  V30 19176 H 1798.98 4.64921 -1.37754 0
M  V30 19177 N 1800.33 0.304 1.5464 0
M  V30 19178 C 1801.29 -0.557917 2.22306 0
M  V30 19179 C 1802.29 -1.05895 1.21008 0
M  V30 19180 O 1803.48 -0.954497 1.45722 0
M  V30 19181 C 1800.61 -1.77279 2.91178 0
M  V30 19182 H 1801.8 0.0333187 2.99881 0
M  V30 19183 H 1799.36 0.0548659 1.56204 0
M  V30 19184 H 1800.09 -2.40378 2.17689 0
M  V30 19185 H 1799.88 -1.42115 3.65439 0
M  V30 19186 H 1801.37 -2.38507 3.42789 0
M  V30 19187 N 1801.8 -1.57568 0.0317802 0
M  V30 19188 C 1803.05 -1.91531 -0.645004 0
M  V30 19189 C 1803.37 -0.909042 -1.72515 0
M  V30 19190 O 1802.64 0.0490427 -1.95839 0
M  V30 19191 H 1801.22 -0.706976 -0.241236 0
M  V30 19192 H 1803.88 -1.94735 0.0802108 0
M  V30 19193 H 1802.98 -2.92221 -1.09604 0
M  V30 19194 N 1803.28 0.241399 -1.5574 0
M  V30 19195 C 1804.7 0.590176 -1.48287 0
M  V30 19196 C 1804.9 1.8808 -0.723052 0
M  V30 19197 O 1803.95 2.51213 -0.25464 0
M  V30 19198 C 1805.27 0.687804 -2.92728 0
M  V30 19199 C 1806.82 0.779763 -3.03131 0
M  V30 19200 C 1807.29 0.908905 -4.48891 0
M  V30 19201 N 1808.78 0.973636 -4.52852 0
M  V30 19202 C 1809.52 1.09292 -5.62888 0
M  V30 19203 N 1809.01 1.1774 -6.82722 0
M  V30 19204 N 1810.81 1.12651 -5.50696 0
M  V30 19205 H 1802.96 -0.605781 -2.03578 0
M  V30 19206 H 1805.22 -0.209862 -0.924479 0
M  V30 19207 H 1804.93 -0.190608 -3.51183 0
M  V30 19208 H 1804.8 1.55794 -3.43523 0
M  V30 19209 H 1807.19 1.64863 -2.44754 0
M  V30 19210 H 1807.27 -0.115641 -2.55538 0
M  V30 19211 H 1806.91 0.0445788 -5.0788 0
M  V30 19212 H 1806.84 1.81943 -4.9417 0
M  V30 19213 H 1809.33 0.919469 -3.66544 0
M  V30 19214 H 1809.65 1.26764 -7.62332 0
M  V30 19215 H 1807.99 1.14688 -6.85472 0
M  V30 19216 H 1811.18 1.05703 -4.56009 0
M  V30 19217 H 1811.35 1.21602 -6.36488 0
M  V30 19218 N 1804.76 1.49212 0.507292 0
M  V30 19219 C 1806.18 1.35835 0.837908 0
M  V30 19220 C 1806.38 0.386634 1.97756 0
M  V30 19221 O 1805.43 -0.183971 2.51829 0
M  V30 19222 C 1806.75 2.76407 1.18404 0
M  V30 19223 C 1808.29 2.85062 1.29262 0
M  V30 19224 C 1808.77 4.26387 1.67208 0
M  V30 19225 N 1810.26 4.29168 1.74268 0
M  V30 19226 C 1810.99 5.35479 2.05061 0
M  V30 19227 N 1810.49 6.52042 2.34121 0
M  V30 19228 N 1812.28 5.2289 2.06259 0
M  V30 19229 H 1804.43 2.1099 -0.244311 0
M  V30 19230 H 1806.7 0.946849 -0.0466977 0
M  V30 19231 H 1806.4 3.49183 0.420053 0
M  V30 19232 H 1806.28 3.11376 2.12896 0
M  V30 19233 H 1808.66 2.12528 2.04734 0
M  V30 19234 H 1808.75 2.53684 0.328359 0
M  V30 19235 H 1808.39 4.99445 0.922884 0
M  V30 19236 H 1808.32 4.55225 2.64723 0
M  V30 19237 H 1810.81 3.45099 1.53996 0
M  V30 19238 H 1811.12 7.2889 2.56787 0
M  V30 19239 H 1809.47 6.55279 2.31591 0
M  V30 19240 H 1812.66 4.30834 1.83028 0
M  V30 19241 H 1812.83 6.05838 2.29923 0
M  V30 19242 N 1806.24 -0.757876 1.38181 0
M  V30 19243 C 1807.46 -1.55221 1.37555 0
M  V30 19244 C 1807.89 -1.8807 -0.0336083 0
M  V30 19245 O 1807.25 -1.50258 -1.0145 0
M  V30 19246 C 1807.29 -2.83064 2.23399 0
M  V30 19247 O 1806.4 -3.78034 1.64814 0
M  V30 19248 H 1805.74 -0.469644 0.469394 0
M  V30 19249 H 1808.27 -0.936923 1.81887 0
M  V30 19250 H 1808.28 -3.32031 2.37106 0
M  V30 19251 H 1806.95 -2.58485 3.2582 0
M  V30 19252 H 1805.53 -3.36723 1.60225 0
M  V30 19253 N 1807.72 -1.22979 -0.985586 0
M  V30 19254 C 1809.13 -0.991329 -1.25079 0
M  V30 19255 C 1809.33 0.310701 -1.9909 0
M  V30 19256 O 1808.39 1.03147 -2.30471 0
M  V30 19257 C 1809.7 -2.19483 -2.05542 0
M  V30 19258 C 1811.25 -2.23918 -2.187 0
M  V30 19259 C 1811.72 -3.43841 -3.02552 0
M  V30 19260 N 1813.22 -3.44048 -3.10137 0
M  V30 19261 C 1813.95 -4.33493 -3.75328 0
M  V30 19262 N 1813.45 -5.33167 -4.42385 0
M  V30 19263 N 1815.24 -4.2125 -3.72163 0
M  V30 19264 H 1807.39 -2.0668 -0.489617 0
M  V30 19265 H 1809.65 -0.906048 -0.278892 0
M  V30 19266 H 1809.36 -3.13945 -1.5853 0
M  V30 19267 H 1809.23 -2.20144 -3.06295 0
M  V30 19268 H 1811.62 -1.3 -2.64923 0
M  V30 19269 H 1811.7 -2.27293 -1.17353 0
M  V30 19270 H 1811.35 -4.38063 -2.57027 0
M  V30 19271 H 1811.28 -3.37707 -4.04056 0
M  V30 19272 H 1813.77 -2.71927 -2.6242 0
M  V30 19273 H 1814.08 -5.97684 -4.89892 0
M  V30 19274 H 1812.42 -5.37073 -4.4111 0
M  V30 19275 H 1815.62 -3.42629 -3.18941 0
M  V30 19276 H 1815.79 -4.91162 -4.22687 0
M  V30 19277 N 1809.19 1.18355 -1.04066 0
M  V30 19278 C 1810.42 1.92275 -0.76406 0
M  V30 19279 C 1810.84 1.76176 0.678777 0
M  V30 19280 O 1810.19 1.0914 1.46269 0
M  V30 19281 C 1810.25 3.43686 -1.12083 0
M  V30 19282 O 1809.97 3.59277 -2.50702 0
M  V30 19283 C 1811.47 4.34705 -0.868726 0
M  V30 19284 H 1808.69 0.610406 -0.278649 0
M  V30 19285 H 1811.23 1.50153 -1.38832 0
M  V30 19286 H 1809.39 3.83596 -0.541528 0
M  V30 19287 H 1809.8 4.53007 -2.64357 0
M  V30 19288 H 1811.27 5.39497 -1.16821 0
M  V30 19289 H 1811.75 4.3876 0.196501 0
M  V30 19290 H 1812.36 4.00491 -1.43132 0
M  V30 19291 N 1810.67 0.820125 1.3458 0
M  V30 19292 C 1812.09 0.505533 1.51382 0
M  V30 19293 C 1812.29 -0.970812 1.76571 0
M  V30 19294 O 1811.34 -1.75538 1.81501 0
M  V30 19295 C 1812.66 1.36264 2.68054 0
M  V30 19296 C 1814.21 1.35947 2.81935 0
M  V30 19297 C 1814.68 2.201 4.01647 0
M  V30 19298 N 1816.17 2.17708 4.08849 0
M  V30 19299 C 1816.91 2.79571 5.00627 0
M  V30 19300 N 1816.4 3.50413 5.97647 0
M  V30 19301 N 1818.2 2.6914 4.93477 0
M  V30 19302 H 1810.35 1.77607 1.16488 0
M  V30 19303 H 1812.61 0.756693 0.571068 0
M  V30 19304 H 1812.32 2.41093 2.56061 0
M  V30 19305 H 1812.19 1.02537 3.62996 0
M  V30 19306 H 1814.58 0.318971 2.93371 0
M  V30 19307 H 1814.66 1.7367 1.8781 0
M  V30 19308 H 1814.3 3.24198 3.90971 0
M  V30 19309 H 1814.23 1.79729 4.9498 0
M  V30 19310 H 1816.72 1.66175 3.39403 0
M  V30 19311 H 1817.04 3.9487 6.64303 0
M  V30 19312 H 1815.38 3.54519 5.9778 0
M  V30 19313 H 1818.57 2.13372 4.16641 0
M  V30 19314 H 1818.74 3.17639 5.64809 0
M  V30 19315 N 1812.15 -1.46743 0.574835 0
M  V30 19316 C 1813.08 -2.2832 -0.20062 0
M  V30 19317 C 1814.1 -1.3805 -0.862898 0
M  V30 19318 O 1815.28 -1.6272 -0.733785 0
M  V30 19319 C 1812.38 -3.1285 -1.303 0
M  V30 19320 C 1811.56 -4.31195 -0.734153 0
M  V30 19321 C 1810.62 -4.97183 -1.72324 0
M  V30 19322 O 1809.64 -5.55025 -1.26239 0
M  V30 19323 N 1810.84 -4.93476 -3.05714 0
M  V30 19324 H 1813.61 -2.95513 0.499231 0
M  V30 19325 H 1811.17 -1.56568 0.412077 0
M  V30 19326 H 1813.16 -3.53861 -1.96378 0
M  V30 19327 H 1811.73 -2.47784 -1.90583 0
M  V30 19328 H 1810.95 -3.94063 0.103888 0
M  V30 19329 H 1812.24 -5.07704 -0.333751 0
M  V30 19330 H 1811.64 -4.47715 -3.45786 0
M  V30 19331 H 1810.2 -5.38453 -3.67304 0
M  V30 19332 N 1813.63 -0.312197 -1.54477 0
M  V30 19333 C 1814.85 0.298829 -2.05236 0
M  V30 19334 C 1815.28 1.45881 -1.18745 0
M  V30 19335 O 1814.64 1.80259 -0.193999 0
M  V30 19336 C 1814.68 0.722008 -3.53298 0
M  V30 19337 O 1813.79 1.82562 -3.6979 0
M  V30 19338 H 1813.13 0.0560985 -0.661626 0
M  V30 19339 H 1815.66 -0.4573 -1.99424 0
M  V30 19340 H 1815.67 1.00777 -3.95358 0
M  V30 19341 H 1814.34 -0.12647 -4.15708 0
M  V30 19342 H 1812.92 1.53954 -3.39636 0
M  V30 19343 N 1815.11 1.57549 -0.040136 0
M  V30 19344 C 1816.52 1.56434 0.316341 0
M  V30 19345 C 1816.72 1.04679 1.72176 0
M  V30 19346 O 1815.78 0.698444 2.42648 0
M  V30 19347 C 1817.09 3.00301 0.154883 0
M  V30 19348 C 1818.64 3.12177 0.226821 0
M  V30 19349 C 1819.11 4.57903 0.0940219 0
M  V30 19350 N 1820.61 4.62955 0.150654 0
M  V30 19351 C 1821.34 5.73355 0.0718466 0
M  V30 19352 N 1820.84 6.92775 -0.0586777 0
M  V30 19353 N 1822.63 5.61957 0.126632 0
M  V30 19354 H 1814.78 1.89516 -0.959032 0
M  V30 19355 H 1817.04 0.872251 -0.371324 0
M  V30 19356 H 1816.75 3.42158 -0.813674 0
M  V30 19357 H 1816.62 3.65795 0.920521 0
M  V30 19358 H 1819.01 2.70225 1.18584 0
M  V30 19359 H 1819.09 2.49383 -0.569384 0
M  V30 19360 H 1818.74 5.00538 -0.861629 0
M  V30 19361 H 1818.67 5.18691 0.909231 0
M  V30 19362 H 1821.16 3.77064 0.251232 0
M  V30 19363 H 1821.47 7.72719 -0.111818 0
M  V30 19364 H 1819.81 6.94937 -0.0936119 0
M  V30 19365 H 1823.01 4.67549 0.227081 0
M  V30 19366 H 1823.18 6.47971 0.0617551 0
M  V30 19367 N 1816.58 -0.233136 1.55866 0
M  V30 19368 C 1817.55 -1.27227 1.90646 0
M  V30 19369 C 1818.55 -1.4039 0.784038 0
M  V30 19370 O 1819.74 -1.38854 1.05191 0
M  V30 19371 C 1816.87 -2.64791 2.14706 0
M  V30 19372 H 1818.06 -0.975986 2.83575 0
M  V30 19373 H 1815.62 -0.473045 1.4897 0
M  V30 19374 H 1816.35 -2.99537 1.24291 0
M  V30 19375 H 1816.14 -2.56615 2.96464 0
M  V30 19376 H 1817.63 -3.39797 2.4275 0
M  V30 19377 N 1818.06 -1.49479 -0.499372 0
M  V30 19378 C 1818.99 -1.69182 -1.60934 0
M  V30 19379 C 1819.97 -0.54053 -1.61283 0
M  V30 19380 O 1821.16 -0.776554 -1.77998 0
M  V30 19381 C 1818.29 -1.75985 -2.99411 0
M  V30 19382 C 1817.24 -2.9092 -3.13926 0
M  V30 19383 C 1816.57 -2.82837 -4.5377 0
M  V30 19384 C 1817.87 -4.31833 -2.93799 0
M  V30 19385 H 1819.56 -2.62112 -1.44699 0
M  V30 19386 H 1817.11 -1.26135 -0.694688 0
M  V30 19387 H 1819.06 -1.88354 -3.76962 0
M  V30 19388 H 1817.79 -0.796557 -3.16737 0
M  V30 19389 H 1816.45 -2.78155 -2.388 0
M  V30 19390 H 1816.09 -1.84412 -4.67976 0
M  V30 19391 H 1815.79 -3.59979 -4.64423 0
M  V30 19392 H 1817.32 -2.97217 -5.3338 0
M  V30 19393 H 1818.73 -4.45271 -3.61119 0
M  V30 19394 H 1817.13 -5.10209 -3.15922 0
M  V30 19395 H 1818.2 -4.46165 -1.89908 0
M  V30 19396 N 1819.54 0.750537 -1.38581 0
M  V30 19397 C 1820.95 1.32802 -1.31227 0
M  V30 19398 C 1821.3 1.96176 0.0305372 0
M  V30 19399 O 1820.43 1.95272 0.932614 0
M  V30 19400 C 1821.02 2.41468 -2.37652 0
M  V30 19401 C 1819.58 2.94929 -2.33867 0
M  V30 19402 C 1818.73 1.68339 -2.20357 0
M  V30 19403 H 1821.68 0.549187 -1.48895 0
M  V30 19404 H 1821.7 3.21481 -2.03544 0
M  V30 19405 H 1821.21 1.95313 -3.35372 0
M  V30 19406 H 1819.31 3.45404 -1.39738 0
M  V30 19407 H 1819.43 3.491 -3.28125 0
M  V30 19408 H 1817.79 1.92082 -1.67262 0
M  V30 19409 H 1818.57 1.24258 -3.20023 0
M  V30 19410 N 1821.02 1.235 0.979051 0
M  V30 19411 C 1822.43 1.06263 1.53509 0
M  V30 19412 C 1822.78 -0.369594 1.92687 0
M  V30 19413 O 1821.91 -1.25649 1.76185 0
M  V30 19414 C 1822.5 1.92276 2.78954 0
M  V30 19415 C 1821.06 1.79296 3.30953 0
M  V30 19416 C 1820.21 1.87898 2.03935 0
M  V30 19417 H 1823.16 1.37143 0.798588 0
M  V30 19418 H 1823.18 1.44835 3.51857 0
M  V30 19419 H 1822.69 2.96509 2.50408 0
M  V30 19420 H 1820.79 0.778512 3.64376 0
M  V30 19421 H 1820.91 2.62755 4.0062 0
M  V30 19422 H 1819.27 1.31494 2.18131 0
M  V30 19423 H 1820.05 2.93689 1.77769 0
M  V30 19424 N 1822.5 -1.17802 1.04693 0
M  V30 19425 C 1823.74 -1.88469 0.76492 0
M  V30 19426 C 1824.1 -1.79209 -0.700145 0
M  V30 19427 O 1823.39 -1.18582 -1.50496 0
M  V30 19428 C 1823.59 -3.37585 1.17349 0
M  V30 19429 C 1823.41 -3.6136 2.67673 0
M  V30 19430 C 1822.18 -3.78368 3.34911 0
M  V30 19431 C 1824.38 -3.61422 3.65895 0
M  V30 19432 N 1822.36 -3.8994 4.74152 0
M  V30 19433 C 1823.74 -3.78783 4.90839 0
M  V30 19434 C 1825.79 -3.44544 3.59435 0
M  V30 19435 C 1824.49 -3.81014 6.10099 0
M  V30 19436 C 1826.52 -3.48061 4.78129 0
M  V30 19437 C 1825.88 -3.65926 6.01895 0
M  V30 19438 H 1821.98 -0.707999 0.332057 0
M  V30 19439 H 1824.56 -1.41454 1.33787 0
M  V30 19440 H 1822.74 -3.8328 0.628559 0
M  V30 19441 H 1824.47 -3.95847 0.841847 0
M  V30 19442 H 1821.22 -3.78013 2.85313 0
M  V30 19443 H 1821.65 -3.99534 5.46536 0
M  V30 19444 H 1826.29 -3.29674 2.64717 0
M  V30 19445 H 1824.01 -3.94671 7.05167 0
M  V30 19446 H 1827.59 -3.36268 4.74779 0
M  V30 19447 H 1826.47 -3.68545 6.92203 0
M  V30 19448 N 1823.98 -0.827251 -1.34143 0
M  V30 19449 C 1825.39 -0.513554 -1.51112 0
M  V30 19450 C 1825.59 0.961434 -1.77084 0
M  V30 19451 O 1824.65 1.74573 -1.82429 0
M  V30 19452 C 1825.96 -1.37683 -2.67327 0
M  V30 19453 C 1827.51 -1.3744 -2.8121 0
M  V30 19454 C 1827.98 -2.22226 -4.00474 0
M  V30 19455 N 1829.47 -2.19873 -4.07689 0
M  V30 19456 C 1830.21 -2.82222 -4.99138 0
M  V30 19457 N 1829.71 -3.53578 -5.95781 0
M  V30 19458 N 1831.5 -2.71753 -4.92043 0
M  V30 19459 H 1823.65 -1.78222 -1.15545 0
M  V30 19460 H 1825.91 -0.759711 -0.567047 0
M  V30 19461 H 1825.62 -2.42448 -2.54778 0
M  V30 19462 H 1825.49 -1.0446 -3.62447 0
M  V30 19463 H 1827.88 -0.334525 -2.93198 0
M  V30 19464 H 1827.96 -1.74663 -1.86886 0
M  V30 19465 H 1827.6 -3.26266 -3.89246 0
M  V30 19466 H 1827.53 -1.82352 -4.9402 0
M  V30 19467 H 1830.03 -1.67972 -3.38517 0
M  V30 19468 H 1830.34 -3.98387 -6.62199 0
M  V30 19469 H 1828.68 -3.57685 -5.95892 0
M  V30 19470 H 1831.87 -2.15579 -4.15504 0
M  V30 19471 H 1832.05 -3.2063 -5.63117 0
M  V30 19472 O 1825.49 1.44396 -0.723337 0
M  V30 19473 H 1826.18 1.91794 -0.271063 0
M  V30 END ATOM
M  V30 BEGIN BOND
M  V30 END BOND
M  V30 END CTAB
M  END
$$$$
