drugbank_target|P06441 Genome polyprotein (DB04634)
 OpenBabel12092120433D

  0  0  0     0  0            999 V3000
M  V30 BEGIN CTAB
M  V30 COUNTS 35236 35658 0 0 0
M  V30 BEGIN ATOM
M  V30 1 H -0.908 1.98254 -0.117106 0
M  V30 2 N 0 1.576 0 0
M  V30 3 C 0.933 2.03868 1.02534 0
M  V30 4 C 1.911 0.928543 1.3348 0
M  V30 5 O 3.095 1.19667 1.45644 0
M  V30 6 C 0.222 2.43627 2.35294 0
M  V30 7 C -0.732 3.65373 2.2001 0
M  V30 8 S 0.101 5.13292 1.52614 0
M  V30 9 C 1.257 5.56322 2.86805 0
M  V30 10 H 1.49 2.90518 0.631377 0
M  V30 11 H -0.977 1.52953 0.210867 0
M  V30 12 H 0.981 2.67203 3.11629 0
M  V30 13 H -0.358 1.57376 2.7183 0
M  V30 14 H -1.165 3.90944 3.18086 0
M  V30 15 H -1.563 3.418 1.51819 0
M  V30 16 H 0.729 5.58782 3.83104 0
M  V30 17 H 1.672 6.56266 2.65933 0
M  V30 18 H 2.08 4.83886 2.90714 0
M  V30 19 N 1.4781 -0.272755 1.55222 0
M  V30 20 C 2.4261 -1.35705 1.88909 0
M  V30 21 C 3.4201 -1.5112 0.765456 0
M  V30 22 O 4.6261 -1.52901 0.949802 0
M  V30 23 H 1.0011 -0.453868 0.59959 0
M  V30 24 H 2.9721 -1.04544 2.79487 0
M  V30 25 C 1.7211 -2.71049 2.17779 0
M  V30 26 H 1.0441 -2.59979 3.03728 0
M  V30 27 H 2.4841 -3.45858 2.45272 0
M  V30 28 C 0.9431 -3.22165 0.985473 0
M  V30 29 O 1.4731 -4.01096 0.220233 0
M  V30 30 N -0.3209 -2.7985 0.783108 0
M  V30 31 H -0.7739 -2.15775 1.40708 0
M  V30 32 H -0.8159 -3.14397 -0.0130392 0
M  V30 33 N 2.9562 -1.48159 -0.537278 0
M  V30 34 C 3.8892 -1.567 -1.65893 0
M  V30 35 C 4.8672 -0.41787 -1.57139 0
M  V30 36 O 6.0512 -0.628461 -1.77715 0
M  V30 37 C 3.1782 -1.48818 -3.04255 0
M  V30 38 C 2.2242 -2.68482 -3.31391 0
M  V30 39 S 3.0572 -4.30516 -3.1846 0
M  V30 40 C 4.2132 -4.2522 -4.59281 0
M  V30 41 H 4.4462 -2.5159 -1.58397 0
M  V30 42 H 1.9792 -1.36602 -0.719672 0
M  V30 43 H 3.9372 -1.44958 -3.84054 0
M  V30 44 H 2.5982 -0.552777 -3.09198 0
M  V30 45 H 1.7912 -2.59085 -4.32309 0
M  V30 46 H 1.3932 -2.69567 -2.59248 0
M  V30 47 H 3.6852 -3.94703 -5.5065 0
M  V30 48 H 4.6282 -5.26292 -4.73732 0
M  V30 49 H 5.0362 -3.55791 -4.38261 0
M  V30 50 N 4.4343 0.785586 -1.36625 0
M  V30 51 C 5.6593 1.57963 -1.34397 0
M  V30 52 C 6.0843 1.87964 0.071526 0
M  V30 53 O 5.4423 1.48182 1.0446 0
M  V30 54 C 5.4903 2.87511 -2.17646 0
M  V30 55 O 4.5943 3.81281 -1.57158 0
M  V30 56 H 3.9353 0.479014 -0.459828 0
M  V30 57 H 6.4653 0.973411 -1.79961 0
M  V30 58 H 6.4753 3.36745 -2.30362 0
M  V30 59 H 5.1503 2.65002 -3.20541 0
M  V30 60 H 3.7273 3.39885 -1.53403 0
M  V30 61 N 5.9124 1.20967 1.01018 0
M  V30 62 C 6.8594 0.964281 2.09691 0
M  V30 63 C 7.8294 -0.107853 1.65749 0
M  V30 64 O 9.0144 0.0381987 1.90762 0
M  V30 65 C 6.1544 0.52943 3.41015 0
M  V30 66 C 5.2674 1.67043 3.98398 0
M  V30 67 C 4.4024 1.18525 5.17808 0
M  V30 68 C 3.4414 2.29892 5.67288 0
M  V30 69 N 2.5784 1.82546 6.77954 0
M  V30 70 H 7.4184 1.89463 2.30017 0
M  V30 71 H 4.9554 0.944289 1.1279 0
M  V30 72 H 6.9134 0.258588 4.16398 0
M  V30 73 H 5.5434 -0.363919 3.20742 0
M  V30 74 H 4.5954 2.05603 3.20049 0
M  V30 75 H 5.9074 2.50877 4.31117 0
M  V30 76 H 5.0614 0.870762 6.00419 0
M  V30 77 H 3.8004 0.316887 4.86669 0
M  V30 78 H 2.8054 2.6215 4.83278 0
M  V30 79 H 4.0304 3.17216 6.00459 0
M  V30 80 H 1.9764 0.980454 6.48632 0
M  V30 81 H 1.8934 2.59956 7.09901 0
M  V30 82 H 3.1614 1.54115 7.64113 0
M  V30 83 N 7.3905 -1.2043 1.01659 0
M  V30 84 C 8.3225 -2.22626 0.544988 0
M  V30 85 C 9.3355 -1.58479 -0.372609 0
M  V30 86 O 10.5245 -1.77679 -0.170958 0
M  V30 87 C 7.6245 -3.38141 -0.22663 0
M  V30 88 C 6.7975 -4.31877 0.692876 0
M  V30 89 C 5.8565 -5.26191 -0.0311616 0
M  V30 90 O 4.8825 -5.6612 0.591343 0
M  V30 91 N 6.0845 -5.65618 -1.30601 0
M  V30 92 H 8.8495 -2.63716 1.42388 0
M  V30 93 H 6.4105 -1.34971 0.894116 0
M  V30 94 H 8.4025 -3.98239 -0.72024 0
M  V30 95 H 6.9725 -2.95943 -1.00681 0
M  V30 96 H 6.1925 -3.69746 1.36679 0
M  V30 97 H 7.4805 -4.91426 1.31824 0
M  V30 98 H 6.8785 -5.3519 -1.83269 0
M  V30 99 H 5.4355 -6.28025 -1.74435 0
M  V30 100 N 8.8686 -0.792821 -1.36206 0
M  V30 101 C 10.1166 -0.366062 -1.98757 0
M  V30 102 C 10.4376 1.0668 -1.63231 0
M  V30 103 O 9.7076 1.73587 -0.907978 0
M  V30 104 H 8.2876 -0.132364 -0.735179 0
M  V30 105 H 10.9496 -1.01562 -1.66347 0
M  V30 106 H 10.0456 -0.460638 -3.08682 0
M  V30 107 N 10.3467 1.47872 -0.545128 0
M  V30 108 C 11.5957 2.01695 -0.0145033 0
M  V30 109 C 11.9087 1.42609 1.33873 0
M  V30 110 O 13.1147 1.88021 1.95858 0
M  V30 111 C 11.5707 3.59892 0.0245068 0
M  V30 112 C 11.1787 4.27966 -1.32475 0
M  V30 113 C 12.9227 4.21507 0.50316 0
M  V30 114 C 10.8297 5.78136 -1.2455 0
M  V30 115 H 9.7597 0.753998 -0.00165172 0
M  V30 116 H 12.4107 1.69985 -0.691175 0
M  V30 117 H 10.7927 3.88509 0.766575 0
M  V30 118 H 11.9667 4.11003 -2.08357 0
M  V30 119 H 10.2817 3.78286 -1.74036 0
M  V30 120 H 12.8787 5.31538 0.580656 0
M  V30 121 H 13.2217 3.87855 1.51243 0
M  V30 122 H 13.7547 3.97376 -0.183681 0
M  V30 123 H 10.4937 6.16388 -2.23039 0
M  V30 124 H 10.0137 5.97469 -0.528282 0
M  V30 125 H 11.6927 6.40099 -0.942488 0
M  V30 126 N 11.8248 0.280983 1.55075 0
M  V30 127 C 13.0718 -0.334115 1.99725 0
M  V30 128 C 13.3998 -1.5542 1.1694 0
M  V30 129 O 12.6548 -1.94361 0.228531 0
M  V30 130 C 12.9538 -0.754656 3.49342 0
M  V30 131 C 12.6198 0.361445 4.49449 0
M  V30 132 C 11.2818 0.667893 4.76542 0
M  V30 133 C 13.6338 1.11322 5.09173 0
M  V30 134 C 10.9618 1.7296 5.60626 0
M  V30 135 C 13.3138 2.1647 5.9441 0
M  V30 136 C 11.9778 2.47742 6.19822 0
M  V30 137 H 11.2478 -0.122261 0.730844 0
M  V30 138 H 13.8948 0.395917 1.87363 0
M  V30 139 H 12.1998 -1.56446 3.5921 0
M  V30 140 H 13.8968 -1.24142 3.813 0
M  V30 141 H 10.4868 0.112481 4.28452 0
M  V30 142 H 14.6708 0.88973 4.8826 0
M  V30 143 H 9.9268 1.97684 5.78559 0
M  V30 144 H 14.1008 2.75193 6.3972 0
M  V30 145 H 11.7278 3.30145 6.84769 0
M  V30 146 N 13.3029 -1.57598 0.00835791 0
M  V30 147 C 14.2349 -2.05811 -1.00868 0
M  V30 148 C 15.2479 -0.977579 -1.30182 0
M  V30 149 O 16.4369 -1.25421 -1.27011 0
M  V30 150 C 13.5369 -2.45016 -2.34137 0
M  V30 151 C 12.7099 -3.75903 -2.23643 0
M  V30 152 C 11.7689 -4.01884 -3.3967 0
M  V30 153 O 10.7949 -4.72433 -3.17483 0
M  V30 154 N 11.9969 -3.50432 -4.62793 0
M  V30 155 H 14.7619 -2.93684 -0.597458 0
M  V30 156 H 12.3229 -1.60909 -0.178852 0
M  V30 157 H 14.3149 -2.59506 -3.10546 0
M  V30 158 H 12.8849 -1.62618 -2.66972 0
M  V30 159 H 12.1049 -3.7141 -1.32091 0
M  V30 160 H 13.3929 -4.61695 -2.13812 0
M  V30 161 H 12.7909 -2.93317 -4.83716 0
M  V30 162 H 11.3479 -3.70236 -5.3644 0
M  V30 163 N 14.781 0.264519 -1.55364 0
M  V30 164 C 16.009 1.013 -1.80405 0
M  V30 165 C 16.424 1.79618 -0.581622 0
M  V30 166 O 15.781 1.76879 0.449468 0
M  V30 167 C 15.832 1.96487 -3.03439 0
M  V30 168 O 15.553 1.21341 -4.20961 0
M  V30 169 C 17.054 2.83079 -3.41147 0
M  V30 170 H 14.274 0.298875 -0.600762 0
M  V30 171 H 16.818 0.292736 -2.02394 0
M  V30 172 H 14.973 2.63965 -2.83551 0
M  V30 173 H 15.387 1.85573 -4.90574 0
M  V30 174 H 16.861 3.4565 -4.30384 0
M  V30 175 H 17.338 3.53286 -2.60932 0
M  V30 176 H 17.944 2.2108 -3.63323 0
M  V30 177 N 16.2591 1.48442 0.529413 0
M  V30 178 C 17.5051 1.5672 1.28711 0
M  V30 179 C 17.8381 0.2406 1.92704 0
M  V30 180 O 17.1131 -0.753454 1.79313 0
M  V30 181 C 17.3961 2.70587 2.37603 0
M  V30 182 C 17.2491 4.12953 1.78297 0
M  V30 183 C 18.5681 2.80212 3.39366 0
M  V30 184 H 15.6871 0.570474 0.466613 0
M  V30 185 H 18.3291 1.80617 0.589706 0
M  V30 186 H 16.4791 2.50342 2.97088 0
M  V30 187 H 18.1511 4.44639 1.22858 0
M  V30 188 H 16.3941 4.19927 1.0883 0
M  V30 189 H 17.0651 4.88448 2.57144 0
M  V30 190 H 19.5411 2.98553 2.89836 0
M  V30 191 H 18.4171 3.61611 4.12951 0
M  V30 192 H 18.6781 1.88393 3.99951 0
M  V30 193 N 17.7372 -0.778329 1.37039 0
M  V30 194 C 18.9852 -1.53361 1.31623 0
M  V30 195 C 19.3062 -1.94739 -0.100831 0
M  V30 196 O 18.5762 -1.65797 -1.04347 0
M  V30 197 H 17.1562 -0.568794 0.484234 0
M  V30 198 H 19.8182 -0.926742 1.71457 0
M  V30 199 H 18.9142 -2.43606 1.95096 0
M  V30 200 N 19.2153 -1.21501 -1.00376 0
M  V30 201 C 20.4403 -1.05977 -1.78279 0
M  V30 202 C 20.8653 0.385994 -1.84097 0
M  V30 203 O 20.2233 1.27849 -1.28547 0
M  V30 204 C 20.2713 -1.66302 -3.19963 0
M  V30 205 O 19.3753 -0.909333 -4.0225 0
M  V30 206 H 18.7163 -0.372906 -0.549397 0
M  V30 207 H 21.2463 -1.6107 -1.26165 0
M  V30 208 H 21.2563 -1.70574 -3.70632 0
M  V30 209 H 19.9313 -2.71515 -3.15043 0
M  V30 210 H 18.5083 -0.941795 -3.60811 0
M  V30 211 N 20.6934 1.19889 -1.02296 0
M  V30 212 C 21.9414 1.89046 -0.714558 0
M  V30 213 C 22.2624 1.79636 0.758681 0
M  V30 214 O 21.5324 1.20292 1.54618 0
M  V30 215 H 20.1124 0.699802 -0.261317 0
M  V30 216 H 22.7744 1.45574 -1.29592 0
M  V30 217 H 21.8704 2.95524 -1.0036 0
M  V30 218 N 22.1715 0.800033 1.35784 0
M  V30 219 C 23.1015 0.220184 2.3246 0
M  V30 220 C 24.0825 -0.65073 1.57161 0
M  V30 221 O 25.2675 -0.582359 1.85263 0
M  V30 222 C 22.3975 -0.637353 3.41402 0
M  V30 223 C 21.3515 0.134531 4.27789 0
M  V30 224 C 20.6775 -0.844285 5.27992 0
M  V30 225 C 21.9775 1.32979 5.05088 0
M  V30 226 H 23.6715 1.02787 2.81203 0
M  V30 227 H 21.2175 0.495717 1.35199 0
M  V30 228 H 23.1705 -1.05302 4.08031 0
M  V30 229 H 21.8945 -1.47785 2.91251 0
M  V30 230 H 20.5535 0.531296 3.6273 0
M  V30 231 H 20.2015 -1.68011 4.74111 0
M  V30 232 H 19.9015 -0.332184 5.8666 0
M  V30 233 H 21.4255 -1.2583 5.97494 0
M  V30 234 H 22.8395 0.98934 5.64699 0
M  V30 235 H 21.2365 1.77593 5.7322 0
M  V30 236 H 22.3065 2.11978 4.36111 0
M  V30 237 N 23.6496 -1.47581 0.552962 0
M  V30 238 C 24.9266 -1.95563 -0.0381515 0
M  V30 239 C 25.3066 -1.49552 -1.48988 0
M  V30 240 O 24.6546 -0.732414 -2.16444 0
M  V30 241 C 24.8646 -3.48848 0.102919 0
M  V30 242 C 26.2126 -4.24577 -0.0446082 0
M  V30 243 O 27.2366 -3.56187 0.0302548 0
M  V30 244 O 26.0956 -5.46116 -0.204923 0
M  V30 245 H 23.1896 -0.824321 -0.0665067 0
M  V30 246 H 25.7356 -1.58001 0.619186 0
M  V30 247 H 24.5076 -3.75129 1.11328 0
M  V30 248 H 24.1306 -3.93165 -0.592224 0
M  V30 249 N 25.1277 -0.289203 -1.54924 0
M  V30 250 C 26.0777 0.606939 -2.19773 0
M  V30 251 C 27.0617 1.10783 -1.16687 0
M  V30 252 O 28.2537 1.05057 -1.4245 0
M  V30 253 C 25.3827 1.78398 -2.93307 0
M  V30 254 C 24.4687 1.29961 -4.03697 0
M  V30 255 N 24.8597 0.532377 -5.0299 0
M  V30 256 C 23.1577 1.58136 -4.17024 0
M  V30 257 C 23.8587 0.275912 -5.81045 0
M  V30 258 N 22.8347 0.852365 -5.36876 0
M  V30 259 H 26.6367 0.0130779 -2.93897 0
M  V30 260 H 24.1507 -0.09341 -1.62131 0
M  V30 261 H 26.1477 2.43741 -3.38225 0
M  V30 262 H 24.8077 2.38166 -2.20697 0
M  V30 263 H 25.8187 0.17838 -5.17593 0
M  V30 264 H 22.4957 2.18738 -3.55612 0
M  V30 265 H 23.8857 -0.339502 -6.71042 0
M  V30 266 N 26.6058 1.57591 -0.0167156 0
M  V30 267 C 27.8548 1.90461 0.663877 0
M  V30 268 C 28.1678 0.893515 1.73999 0
M  V30 269 O 29.3738 1.11302 2.47637 0
M  V30 270 C 27.8298 3.38155 1.23204 0
M  V30 271 C 27.4378 4.47597 0.189866 0
M  V30 272 C 29.1818 3.80111 1.88986 0
M  V30 273 C 27.0888 5.86379 0.768964 0
M  V30 274 H 26.0188 0.710738 0.251729 0
M  V30 275 H 28.6698 1.83326 -0.0799926 0
M  V30 276 H 27.0518 3.40182 2.02712 0
M  V30 277 H 28.2258 4.57112 -0.581846 0
M  V30 278 H 26.5408 4.14766 -0.368475 0
M  V30 279 H 29.1378 4.81145 2.33247 0
M  V30 280 H 29.4808 3.14511 2.72743 0
M  V30 281 H 30.0138 3.80454 1.16187 0
M  V30 282 H 26.7528 6.55493 -0.0301957 0
M  V30 283 H 26.2728 5.80496 1.50945 0
M  V30 284 H 27.9518 6.34563 1.26251 0
M  V30 285 N 28.0839 -0.256276 1.55502 0
M  V30 286 C 29.0139 -1.32102 1.92539 0
M  V30 287 C 29.9949 -1.50684 0.789194 0
M  V30 288 O 31.1799 -1.63449 1.04872 0
M  V30 289 C 28.3099 -2.67752 2.21192 0
M  V30 290 C 27.2639 -2.63878 3.36975 0
M  V30 291 C 26.5899 -4.03236 3.51147 0
M  V30 292 C 27.8899 -2.21682 4.72921 0
M  V30 293 H 29.5839 -1.01351 2.81724 0
M  V30 294 H 27.1299 -0.486105 1.35547 0
M  V30 295 H 29.0829 -3.42365 2.45691 0
M  V30 296 H 27.8069 -3.0012 1.28824 0
M  V30 297 H 26.4659 -1.91722 3.12471 0
M  V30 298 H 26.1139 -4.32854 2.56216 0
M  V30 299 H 25.8139 -4.01535 4.29003 0
M  V30 300 H 27.3379 -4.79563 3.77957 0
M  V30 301 H 28.7519 -2.86023 4.96854 0
M  V30 302 H 27.1489 -2.3111 5.53812 0
M  V30 303 H 28.2189 -1.16833 4.70615 0
M  V30 304 N 29.562 -1.4872 -0.521534 0
M  V30 305 C 30.787 -1.61101 -1.30618 0
M  V30 306 C 31.212 -0.274611 -1.86085 0
M  V30 307 O 30.57 0.754937 -1.64834 0
M  V30 308 C 30.618 -2.66709 -2.4269 0
M  V30 309 O 29.722 -2.24456 -3.45967 0
M  V30 310 H 29.063 -0.539921 -0.386499 0
M  V30 311 H 31.593 -1.94767 -0.626645 0
M  V30 312 H 31.603 -2.88245 -2.88754 0
M  V30 313 H 30.278 -3.63727 -2.01682 0
M  V30 314 H 28.855 -2.13168 -3.05964 0
M  V30 315 N 31.0401 0.771051 -1.3745 0
M  V30 316 C 31.9701 1.89827 -1.3597 0
M  V30 317 C 32.9511 1.68562 -0.228216 0
M  V30 318 O 34.1361 1.8941 -0.428675 0
M  V30 319 C 31.2661 3.2712 -1.16662 0
M  V30 320 C 30.2201 3.6295 -2.2683 0
M  V30 321 C 29.5461 4.98791 -1.92644 0
M  V30 322 C 30.8461 3.69627 -3.69017 0
M  V30 323 H 32.5401 1.91323 -2.30295 0
M  V30 324 H 30.0861 0.919082 -1.10855 0
M  V30 325 H 32.0391 4.05615 -1.14256 0
M  V30 326 H 30.7631 3.26059 -0.187926 0
M  V30 327 H 29.4221 2.86763 -2.28392 0
M  V30 328 H 29.0701 4.94271 -0.933021 0
M  V30 329 H 28.7701 5.23733 -2.66416 0
M  V30 330 H 30.2941 5.79685 -1.91826 0
M  V30 331 H 31.7081 4.38273 -3.69581 0
M  V30 332 H 30.1051 4.06067 -4.41848 0
M  V30 333 H 31.1751 2.70273 -4.02592 0
M  V30 334 N 32.5182 1.22032 0.997298 0
M  V30 335 C 33.4812 0.987909 2.06816 0
M  V30 336 C 34.4812 -0.0440084 1.6074 0
M  V30 337 O 35.6712 0.194053 1.73116 0
M  V30 338 C 32.8032 0.49132 3.37341 0
M  V30 339 H 33.9962 1.93803 2.28868 0
M  V30 340 H 31.5492 1.03838 1.16822 0
M  V30 341 H 32.2842 -0.463364 3.20973 0
M  V30 342 H 32.0692 1.23575 3.72118 0
M  V30 343 H 33.5592 0.348824 4.16141 0
M  V30 344 N 33.9963 -1.19345 1.0293 0
M  V30 345 C 35.2733 -1.84811 0.640642 0
M  V30 346 C 35.6533 -1.91855 -0.88062 0
M  V30 347 O 35.0013 -1.43587 -1.7775 0
M  V30 348 C 35.2113 -3.23755 1.30321 0
M  V30 349 C 36.5593 -3.99912 1.42673 0
M  V30 350 O 37.5833 -3.33155 1.26041 0
M  V30 351 O 36.4423 -5.19494 1.6967 0
M  V30 352 H 33.5363 -0.796443 0.222726 0
M  V30 353 H 36.0823 -1.26831 1.12748 0
M  V30 354 H 34.8543 -3.13466 2.34211 0
M  V30 355 H 34.4773 -3.89381 0.804261 0
M  V30 356 N 35.4744 -0.807222 -1.35358 0
M  V30 357 C 36.7234 -0.384376 -1.98004 0
M  V30 358 C 37.0364 1.0543 -1.64754 0
M  V30 359 O 38.2424 1.58029 -2.20769 0
M  V30 360 C 36.6984 -0.636326 -3.5423 0
M  V30 361 C 36.3064 -2.08759 -3.96388 0
M  V30 362 C 38.0504 -0.278869 -4.23583 0
M  V30 363 C 35.9574 -2.28525 -5.45463 0
M  V30 364 H 34.8874 -0.139986 -0.740891 0
M  V30 365 H 37.5384 -0.991369 -1.54415 0
M  V30 366 H 35.9204 0.0406256 -3.95979 0
M  V30 367 H 37.0944 -2.8024 -3.6579 0
M  V30 368 H 35.4094 -2.40497 -3.39926 0
M  V30 369 H 38.0064 -0.404599 -5.33167 0
M  V30 370 H 38.3494 0.775012 -4.09022 0
M  V30 371 H 38.8824 -0.909764 -3.87257 0
M  V30 372 H 35.6214 -3.32361 -5.64992 0
M  V30 373 H 35.1414 -1.61569 -5.77629 0
M  V30 374 H 36.8204 -2.10109 -6.11934 0
M  V30 375 N 36.9525 1.47285 -0.560781 0
M  V30 376 C 37.8625 2.33846 0.187954 0
M  V30 377 C 38.8785 1.48412 0.908293 0
M  V30 378 O 40.0545 1.81332 0.876388 0
M  V30 379 C 37.1195 3.25178 1.2025 0
M  V30 380 C 36.1805 4.26504 0.489208 0
M  V30 381 C 35.4135 5.13472 1.45542 0
M  V30 382 O 35.6365 5.02959 2.6905 0
M  V30 383 O 34.5705 5.93902 0.977963 0
M  V30 384 H 38.3965 2.99177 -0.522177 0
M  V30 385 H 35.9815 1.45903 -0.321364 0
M  V30 386 H 37.8635 3.81584 1.78805 0
M  V30 387 H 36.5385 2.6247 1.89449 0
M  V30 388 H 35.4455 3.73847 -0.137627 0
M  V30 389 H 36.7785 4.91935 -0.161399 0
M  V30 390 N 38.4306 0.297415 1.54768 0
M  V30 391 C 39.3406 -0.58983 2.27064 0
M  V30 392 C 40.3566 -1.15144 1.30453 0
M  V30 393 O 41.5326 -1.17699 1.63428 0
M  V30 394 C 38.5976 -1.74714 2.9946 0
M  V30 395 C 37.6586 -1.21997 4.11601 0
M  V30 396 C 36.8916 -2.32212 4.80535 0
M  V30 397 O 37.1146 -3.52036 4.48806 0
M  V30 398 O 36.0486 -1.99106 5.68014 0
M  V30 399 H 39.8746 -0.00348199 3.037 0
M  V30 400 H 37.4596 0.0640035 1.49263 0
M  V30 401 H 39.3416 -2.42147 3.44881 0
M  V30 402 H 38.0166 -2.32016 2.25722 0
M  V30 403 H 36.9236 -0.511458 3.70587 0
M  V30 404 H 38.2566 -0.692419 4.87305 0
M  V30 405 N 39.9087 -1.5758 0.0250728 0
M  V30 406 C 40.8187 -2.1343 -0.973905 0
M  V30 407 C 41.8347 -1.08556 -1.35984 0
M  V30 408 O 43.0107 -1.40592 -1.44207 0
M  V30 409 C 40.0757 -2.64703 -2.23904 0
M  V30 410 C 39.1367 -3.84276 -1.91391 0
M  V30 411 C 38.3697 -4.33095 -3.11873 0
M  V30 412 O 38.5927 -3.81107 -4.24398 0
M  V30 413 O 37.5267 -5.24984 -2.94406 0
M  V30 414 H 41.3527 -2.99057 -0.529036 0
M  V30 415 H 38.9377 -1.48118 -0.195288 0
M  V30 416 H 40.8197 -2.97769 -2.98181 0
M  V30 417 H 39.4947 -1.82161 -2.6758 0
M  V30 418 H 38.4017 -3.56143 -1.14511 0
M  V30 419 H 39.7347 -4.67968 -1.52534 0
M  V30 420 N 41.3868 0.248026 -1.55636 0
M  V30 421 C 42.3188 1.32993 -1.8667 0
M  V30 422 C 43.3318 1.44345 -0.752877 0
M  V30 423 O 44.5208 1.45715 -1.03098 0
M  V30 424 C 41.6208 2.70863 -2.03682 0
M  V30 425 C 40.7938 2.81792 -3.34532 0
M  V30 426 C 39.8528 4.005 -3.41301 0
M  V30 427 O 38.8788 3.9008 -4.14519 0
M  V30 428 N 40.0808 5.13618 -2.70512 0
M  V30 429 H 42.8458 1.06707 -2.8006 0
M  V30 430 H 40.4068 0.438129 -1.55859 0
M  V30 431 H 42.3988 3.48612 -2.05553 0
M  V30 432 H 40.9688 2.89862 -1.17041 0
M  V30 433 H 40.1888 1.90729 -3.44987 0
M  V30 434 H 41.4768 2.86043 -4.20781 0
M  V30 435 H 40.8748 5.24975 -2.10755 0
M  V30 436 H 39.4318 5.89505 -2.78077 0
M  V30 437 N 42.8649 1.48995 0.513639 0
M  V30 438 C 43.7979 1.59319 1.63379 0
M  V30 439 C 44.7759 0.442816 1.56454 0
M  V30 440 O 45.9599 0.656655 1.76693 0
M  V30 441 C 43.0869 1.5364 3.01848 0
M  V30 442 C 42.1329 2.7372 3.27078 0
M  V30 443 S 42.9659 4.35528 3.1157 0
M  V30 444 C 44.1219 4.32473 4.52458 0
M  V30 445 H 44.3549 2.54079 1.54374 0
M  V30 446 H 41.8879 1.3773 0.697849 0
M  V30 447 H 43.8459 1.51049 3.81699 0
M  V30 448 H 42.5069 0.601898 3.08279 0
M  V30 449 H 41.6999 2.6593 4.28132 0
M  V30 450 H 41.3019 2.73657 2.54927 0
M  V30 451 H 43.5939 4.03414 5.44301 0
M  V30 452 H 44.5369 5.33762 4.65299 0
M  V30 453 H 44.9449 3.62718 4.32546 0
M  V30 454 N 44.343 -0.763751 1.37857 0
M  V30 455 C 45.592 -1.51789 1.32827 0
M  V30 456 C 45.905 -1.95426 -0.0823719 0
M  V30 457 O 47.111 -2.70298 -0.255172 0
M  V30 458 C 45.567 -2.74133 2.33193 0
M  V30 459 C 45.175 -2.37562 3.79827 0
M  V30 460 C 46.919 -3.52054 2.37188 0
M  V30 461 C 44.826 -3.56456 4.71904 0
M  V30 462 H 43.756 -0.569896 0.493695 0
M  V30 463 H 46.407 -0.835822 1.63359 0
M  V30 464 H 44.789 -3.4427 1.9569 0
M  V30 465 H 45.963 -1.75157 4.26212 0
M  V30 466 H 44.278 -1.72798 3.78853 0
M  V30 467 H 46.875 -4.40437 3.03182 0
M  V30 468 H 47.218 -3.92486 1.38782 0
M  V30 469 H 47.751 -2.88921 2.7344 0
M  V30 470 H 44.49 -3.21099 5.71468 0
M  V30 471 H 44.01 -4.17938 4.30218 0
M  V30 472 H 45.689 -4.23168 4.89426 0
M  V30 473 N 45.8211 -1.22559 -0.990812 0
M  V30 474 C 46.7531 -0.955325 -2.08342 0
M  V30 475 C 47.7661 0.0668408 -1.62663 0
M  V30 476 O 48.9551 -0.167421 -1.77713 0
M  V30 477 C 46.0551 -0.415566 -3.36342 0
M  V30 478 C 45.2281 -1.49544 -4.11042 0
M  V30 479 C 44.2871 -0.962399 -5.17324 0
M  V30 480 O 43.3131 -1.64907 -5.44788 0
M  V30 481 N 44.5151 0.215134 -5.80101 0
M  V30 482 H 47.2801 -1.89596 -2.32106 0
M  V30 483 H 44.8411 -1.13276 -1.15673 0
M  V30 484 H 46.8331 -0.0442386 -4.04676 0
M  V30 485 H 45.4031 0.430232 -3.09625 0
M  V30 486 H 44.6231 -2.04 -3.37309 0
M  V30 487 H 45.9111 -2.22195 -4.57719 0
M  V30 488 H 45.3091 0.789779 -5.6016 0
M  V30 489 H 43.8661 0.527826 -6.49659 0
M  V30 490 N 47.2992 1.18797 -1.03562 0
M  V30 491 C 48.5242 1.9314 -0.755764 0
M  V30 492 C 48.9492 1.7537 0.68022 0
M  V30 493 O 48.3072 1.06046 1.47051 0
M  V30 494 C 48.3552 3.42747 -1.12058 0
M  V30 495 O 47.4592 4.11683 -0.243124 0
M  V30 496 H 46.8002 0.602724 -0.278604 0
M  V30 497 H 49.3302 1.50678 -1.3841 0
M  V30 498 H 49.3402 3.93437 -1.08035 0
M  V30 499 H 48.0152 3.55002 -2.16672 0
M  V30 500 H 46.5922 3.71323 -0.342539 0
M  V30 501 N 48.7773 0.814389 1.34928 0
M  V30 502 C 50.0233 0.399013 1.98836 0
M  V30 503 C 50.3563 -1.03314 1.64438 0
M  V30 504 O 49.6313 -1.71811 0.911659 0
M  V30 505 C 49.9143 0.591629 3.55207 0
M  V30 506 C 49.7673 2.06928 3.99376 0
M  V30 507 C 51.0863 0.022199 4.40094 0
M  V30 508 H 48.2053 0.146451 0.722303 0
M  V30 509 H 50.8473 1.02537 1.59957 0
M  V30 510 H 48.9973 0.0584441 3.88456 0
M  V30 511 H 50.6693 2.66544 3.76499 0
M  V30 512 H 48.9123 2.56287 3.49999 0
M  V30 513 H 49.5833 2.1549 5.08201 0
M  V30 514 H 52.0593 0.477643 4.13349 0
M  V30 515 H 50.9353 0.186832 5.48582 0
M  V30 516 H 51.1963 -1.07215 4.28902 0
M  V30 517 N 50.2554 -1.46986 0.568584 0
M  V30 518 C 51.5324 -1.95592 -0.0174074 0
M  V30 519 C 51.9124 -1.51124 -1.47393 0
M  V30 520 O 51.2604 -0.755329 -2.15655 0
M  V30 521 C 51.4704 -3.48719 0.139913 0
M  V30 522 C 52.8184 -4.246 0.000426376 0
M  V30 523 O 53.8424 -3.56135 0.0680316 0
M  V30 524 O 52.7014 -5.46302 -0.146988 0
M  V30 525 H 49.7954 -0.82498 -0.0577599 0
M  V30 526 H 52.3414 -1.57335 0.635909 0
M  V30 527 H 51.1134 -3.73927 1.15301 0
M  V30 528 H 50.7364 -3.93771 -0.550491 0
M  V30 529 N 51.7335 -0.305618 -1.54608 0
M  V30 530 C 53.1495 0.0476228 -1.59529 0
M  V30 531 C 53.3495 1.52025 -1.32252 0
M  V30 532 O 52.4055 2.27368 -1.09818 0
M  V30 533 C 53.7185 -0.354471 -2.98603 0
M  V30 534 C 55.2665 -0.303622 -3.11524 0
M  V30 535 C 55.7415 -0.680608 -4.52915 0
M  V30 536 N 57.2325 -0.63332 -4.5885 0
M  V30 537 C 57.9675 -0.897432 -5.66334 0
M  V30 538 N 57.4635 -1.22775 -6.81834 0
M  V30 539 N 59.2565 -0.824186 -5.56025 0
M  V30 540 H 51.4075 -1.2653 -1.70599 0
M  V30 541 H 53.6705 -0.513291 -0.797017 0
M  V30 542 H 53.3765 -1.3798 -3.23503 0
M  V30 543 H 53.2505 0.289568 -3.76087 0
M  V30 544 H 55.6375 0.712472 -2.8637 0
M  V30 545 H 55.7185 -0.982348 -2.36185 0
M  V30 546 H 55.3625 -1.69453 -4.78799 0
M  V30 547 H 55.2925 0.0202385 -5.26596 0
M  V30 548 H 57.7835 -0.389138 -3.75891 0
M  V30 549 H 58.0965 -1.41513 -7.59733 0
M  V30 550 H 56.4415 -1.26583 -6.83375 0
M  V30 551 H 59.6325 -0.565748 -4.64669 0
M  V30 552 H 59.8055 -1.03338 -6.39707 0
M  V30 553 N 53.2116 1.57565 -0.0334293 0
M  V30 554 C 54.4396 1.9628 0.654347 0
M  V30 555 C 54.8546 0.910138 1.65414 0
M  V30 556 O 54.2116 -0.107595 1.82183 0
M  V30 557 C 54.2626 3.35067 1.35693 0
M  V30 558 O 53.9836 4.36296 0.397191 0
M  V30 559 C 55.4846 3.88439 2.13613 0
M  V30 560 H 52.7046 0.646369 0.180132 0
M  V30 561 H 55.2486 2.04282 -0.0944721 0
M  V30 562 H 53.4036 3.2827 2.05712 0
M  V30 563 H 53.8176 5.1678 0.896597 0
M  V30 564 H 55.2916 4.8788 2.58219 0
M  V30 565 H 55.7686 3.22914 2.97696 0
M  V30 566 H 56.3746 3.98516 1.48543 0
M  V30 567 N 54.6897 -0.239769 1.55765 0
M  V30 568 C 55.6527 -1.28038 1.90103 0
M  V30 569 C 56.6527 -1.40723 0.778055 0
M  V30 570 O 57.8427 -1.39301 1.04599 0
M  V30 571 C 54.9747 -2.65702 2.13577 0
M  V30 572 H 56.1677 -0.988048 2.83157 0
M  V30 573 H 53.7207 -0.479382 1.48767 0
M  V30 574 H 54.4557 -3.00063 1.23015 0
M  V30 575 H 54.2407 -2.57875 2.95369 0
M  V30 576 H 55.7307 -3.40828 2.41301 0
M  V30 577 N 56.1678 -1.49265 -0.50573 0
M  V30 578 C 57.4138 -1.58748 -1.26202 0
M  V30 579 C 57.7468 -0.271227 -1.92297 0
M  V30 580 O 57.0218 0.724831 -1.80489 0
M  V30 581 C 57.3048 -2.74332 -2.33268 0
M  V30 582 C 57.1578 -4.15737 -1.71705 0
M  V30 583 C 58.4768 -2.85576 -3.34865 0
M  V30 584 H 55.5958 -0.577826 -0.457478 0
M  V30 585 H 58.2378 -1.81532 -0.560897 0
M  V30 586 H 56.3878 -2.55036 -2.93068 0
M  V30 587 H 58.0598 -4.46537 -1.15769 0
M  V30 588 H 56.3028 -4.21605 -1.02135 0
M  V30 589 H 56.9738 -4.92477 -2.49341 0
M  V30 590 H 59.4498 -3.03127 -2.8505 0
M  V30 591 H 58.3258 -3.68135 -4.07146 0
M  V30 592 H 58.5868 -1.94732 -3.96903 0
M  V30 593 N 57.6459 0.756429 -1.3826 0
M  V30 594 C 58.8739 1.54565 -1.3754 0
M  V30 595 C 59.2889 1.88767 0.0355331 0
M  V30 596 O 58.6459 1.52572 1.0014 0
M  V30 597 C 58.6969 2.84654 -2.22833 0
M  V30 598 O 58.4179 2.51912 -3.5843 0
M  V30 599 C 59.9189 3.78807 -2.30261 0
M  V30 600 H 57.1389 0.478353 -0.470553 0
M  V30 601 H 59.6829 0.936381 -1.81803 0
M  V30 602 H 57.8379 3.41965 -1.8204 0
M  V30 603 H 58.2519 3.35325 -4.03308 0
M  V30 604 H 59.7259 4.67045 -2.94233 0
M  V30 605 H 60.2029 4.19038 -1.31545 0
M  V30 606 H 60.8089 3.2742 -2.71433 0
M  V30 607 N 59.124 1.23083 0.984299 0
M  V30 608 C 60.372 1.05848 1.72165 0
M  V30 609 C 60.693 -0.406049 1.90726 0
M  V30 610 O 59.963 -1.29139 1.47309 0
M  V30 611 H 58.543 0.388685 0.637913 0
M  V30 612 H 61.205 1.54736 1.18503 0
M  V30 613 H 60.301 1.54327 2.71274 0
M  V30 614 N 60.6021 -1.18246 1.0419 0
M  V30 615 C 61.5651 -2.20128 0.638452 0
M  V30 616 C 62.5651 -1.57885 -0.304805 0
M  V30 617 O 63.7551 -1.73967 -0.0900369 0
M  V30 618 C 60.8871 -3.4084 -0.0637751 0
M  V30 619 H 62.0801 -2.57336 1.54007 0
M  V30 620 H 59.6331 -1.32152 0.834598 0
M  V30 621 H 60.3681 -3.09166 -0.979136 0
M  V30 622 H 60.1531 -3.8726 0.614198 0
M  V30 623 H 61.6431 -4.16274 -0.332512 0
M  V30 624 N 62.0802 -0.821533 -1.34494 0
M  V30 625 C 63.3052 -0.420873 -2.03085 0
M  V30 626 C 63.7302 0.964915 -1.61465 0
M  V30 627 O 63.0882 1.62763 -0.798607 0
M  V30 628 C 63.1362 -0.529414 -3.56693 0
M  V30 629 O 62.2402 0.451302 -4.09923 0
M  V30 630 H 61.5812 -0.173489 -0.640935 0
M  V30 631 H 64.1112 -1.11157 -1.71771 0
M  V30 632 H 64.1212 -0.404671 -4.05988 0
M  V30 633 H 62.7962 -1.54014 -3.86332 0
M  V30 634 H 61.3732 0.285558 -3.71805 0
M  V30 635 N 63.5583 1.46682 -0.576371 0
M  V30 636 C 64.7883 2.06498 -0.0648694 0
M  V30 637 C 65.1963 1.42665 1.24271 0
M  V30 638 O 64.5393 0.523886 1.76071 0
M  V30 639 C 64.6013 3.5904 0.181816 0
M  V30 640 C 64.2653 4.45028 -1.0392 0
M  V30 641 C 65.2623 4.81959 -1.94966 0
M  V30 642 C 62.9473 4.86259 -1.25927 0
M  V30 643 C 64.9413 5.58942 -3.06371 0
M  V30 644 C 62.6283 5.63002 -2.37638 0
M  V30 645 C 63.6263 5.99257 -3.2769 0
M  V30 646 O 63.3143 6.7445 -4.37461 0
M  V30 647 H 63.0463 0.674028 -0.0515987 0
M  V30 648 H 65.6003 1.89393 -0.794951 0
M  V30 649 H 63.8303 3.74429 0.966436 0
M  V30 650 H 65.5193 4.00806 0.641047 0
M  V30 651 H 66.2853 4.50689 -1.79177 0
M  V30 652 H 62.1643 4.57494 -0.567448 0
M  V30 653 H 65.7083 5.87158 -3.76684 0
M  V30 654 H 61.6053 5.93686 -2.53392 0
M  V30 655 H 62.3733 6.92867 -4.35749 0
M  V30 656 N 65.0364 0.313813 1.54444 0
M  V30 657 C 66.2834 -0.291675 2.00388 0
M  V30 658 C 66.6114 -1.52904 1.2021 0
M  V30 659 O 65.8664 -1.93833 0.269707 0
M  V30 660 C 66.1654 -0.680386 3.50864 0
M  V30 661 C 65.8314 0.456699 4.48581 0
M  V30 662 C 64.4934 0.768824 4.75018 0
M  V30 663 C 66.8454 1.22098 5.06697 0
M  V30 664 C 64.1734 1.84812 5.56831 0
M  V30 665 C 66.5254 2.29029 5.89685 0
M  V30 666 C 65.1894 2.60834 6.14428 0
M  V30 667 H 64.4594 -0.106732 0.733273 0
M  V30 668 H 67.1064 0.43557 1.86481 0
M  V30 669 H 65.4114 -1.48791 3.62448 0
M  V30 670 H 67.1084 -1.16026 3.83847 0
M  V30 671 H 63.6984 0.203337 4.28117 0
M  V30 672 H 67.8824 0.993096 4.86263 0
M  V30 673 H 63.1384 2.09912 5.74236 0
M  V30 674 H 67.3124 2.887 6.33739 0
M  V30 675 H 64.9394 3.44596 6.77612 0
M  V30 676 N 66.5145 -1.57545 0.0417849 0
M  V30 677 C 67.7425 -1.96624 -0.643928 0
M  V30 678 C 68.1575 -0.918897 -1.64929 0
M  V30 679 O 67.5145 0.0979323 -1.82237 0
M  V30 680 C 67.5655 -3.35781 -1.33914 0
M  V30 681 O 67.2865 -4.365 -0.374048 0
M  V30 682 C 68.7875 -3.89566 -2.1155 0
M  V30 683 H 66.0075 -0.647316 -0.176702 0
M  V30 684 H 68.5515 -2.04229 0.105304 0
M  V30 685 H 66.7065 -3.29357 -2.03968 0
M  V30 686 H 67.1205 -5.17248 -0.869179 0
M  V30 687 H 68.5945 -4.89242 -2.55628 0
M  V30 688 H 69.0715 -3.24488 -2.9598 0
M  V30 689 H 69.6775 -3.99298 -1.46427 0
M  V30 690 N 67.9926 0.231505 -1.5589 0
M  V30 691 C 69.2176 0.978689 -1.82856 0
M  V30 692 C 69.6426 1.77559 -0.620846 0
M  V30 693 O 69.0006 1.76119 0.430305 0
M  V30 694 C 69.0486 1.87997 -3.07716 0
M  V30 695 O 68.1526 2.97393 -2.85712 0
M  V30 696 H 67.4936 0.277663 -0.603158 0
M  V30 697 H 70.0236 0.24783 -2.03093 0
M  V30 698 H 70.0336 2.2917 -3.37558 0
M  V30 699 H 68.7086 1.29417 -3.95252 0
M  V30 700 H 67.2856 2.60238 -2.67078 0
M  V30 701 N 69.4707 1.49531 0.497807 0
M  V30 702 C 70.7167 1.59415 1.25358 0
M  V30 703 C 71.0497 0.281422 1.9215 0
M  V30 704 O 70.3247 -0.715249 1.80871 0
M  V30 705 C 70.6077 2.75566 2.3181 0
M  V30 706 C 70.4607 4.16642 1.69498 0
M  V30 707 C 71.7797 2.87347 3.33346 0
M  V30 708 H 68.8987 0.580244 0.454408 0
M  V30 709 H 71.5407 1.81827 0.551262 0
M  V30 710 H 69.6907 2.56587 2.91711 0
M  V30 711 H 71.3627 4.47145 1.13399 0
M  V30 712 H 69.6057 4.22141 0.998978 0
M  V30 713 H 70.2767 4.93792 2.46725 0
M  V30 714 H 72.7527 3.04634 2.83438 0
M  V30 715 H 71.6287 3.70289 4.05188 0
M  V30 716 H 71.8897 1.96834 3.95865 0
M  V30 717 N 70.9488 -0.749086 1.3866 0
M  V30 718 C 72.2258 -1.4992 1.25632 0
M  V30 719 C 72.6058 -2.10633 -0.140317 0
M  V30 720 O 71.9538 -1.97437 -1.15025 0
M  V30 721 C 72.1638 -2.56195 2.36992 0
M  V30 722 C 73.5118 -3.22972 2.75634 0
M  V30 723 O 74.5358 -2.66502 2.36337 0
M  V30 724 O 73.3948 -4.25122 3.43415 0
M  V30 725 H 70.4888 -0.665067 0.491544 0
M  V30 726 H 73.0348 -0.784113 1.50498 0
M  V30 727 H 71.8068 -2.09612 3.30422 0
M  V30 728 H 71.4298 -3.35279 2.13714 0
M  V30 729 N 72.4269 -1.23603 -0.977757 0
M  V30 730 C 73.3589 -0.977369 -2.07317 0
M  V30 731 C 74.3719 0.0495845 -1.62724 0
M  V30 732 O 75.5609 -0.186261 -1.77526 0
M  V30 733 C 72.6609 -0.451216 -3.35883 0
M  V30 734 C 71.8339 -1.53896 -4.09432 0
M  V30 735 C 70.8929 -1.01721 -5.16274 0
M  V30 736 O 69.9189 -1.70676 -5.43009 0
M  V30 737 N 71.1209 0.153594 -5.80297 0
M  V30 738 H 73.8859 -1.92047 -2.30082 0
M  V30 739 H 71.4469 -1.14497 -1.14465 0
M  V30 740 H 73.4389 -0.0871574 -4.04606 0
M  V30 741 H 72.0089 0.397368 -3.10064 0
M  V30 742 H 71.2289 -2.07566 -3.35127 0
M  V30 743 H 72.5169 -2.27037 -4.55337 0
M  V30 744 H 71.9149 0.730323 -5.60966 0
M  V30 745 H 70.4719 0.458892 -6.50183 0
M  V30 746 N 73.905 1.17692 -1.04816 0
M  V30 747 C 75.13 1.92327 -0.776207 0
M  V30 748 C 75.555 1.76082 0.661581 0
M  V30 749 O 74.913 1.076 1.45917 0
M  V30 750 C 74.961 3.41539 -1.15687 0
M  V30 751 O 74.065 4.11402 -0.286775 0
M  V30 752 H 73.406 0.599735 -0.284981 0
M  V30 753 H 75.936 1.49201 -1.4 0
M  V30 754 H 75.946 3.92269 -1.12202 0
M  V30 755 H 74.621 3.52684 -2.20425 0
M  V30 756 H 73.198 3.70939 -0.381903 0
M  V30 757 N 75.3831 0.828654 1.34056 0
M  V30 758 C 76.6081 0.431637 2.02859 0
M  V30 759 C 77.0331 -0.956339 1.61975 0
M  V30 760 O 76.3911 -1.62338 0.807228 0
M  V30 761 C 76.4391 0.548323 3.56407 0
M  V30 762 O 75.5431 -0.429556 4.10157 0
M  V30 763 H 74.8841 0.176886 0.640006 0
M  V30 764 H 77.4141 1.12066 1.71179 0
M  V30 765 H 77.4241 0.426196 4.05768 0
M  V30 766 H 76.0991 1.5606 3.8551 0
M  V30 767 H 74.6761 -0.265836 3.71951 0
M  V30 768 N 76.8612 -1.46375 0.584142 0
M  V30 769 C 78.1072 -2.02678 0.0703716 0
M  V30 770 C 78.4402 -1.4545 -1.28678 0
M  V30 771 O 77.7152 -0.62014 -1.84349 0
M  V30 772 C 77.9982 -3.60099 0.00614674 0
M  V30 773 C 77.8512 -4.27709 1.3923 0
M  V30 774 C 79.1702 -4.34598 -0.693742 0
M  V30 775 H 76.2892 -0.736504 0.027047 0
M  V30 776 H 78.9312 -1.74501 0.751615 0
M  V30 777 H 77.0812 -3.84236 -0.574009 0
M  V30 778 H 78.7532 -4.14832 2.01773 0
M  V30 779 H 76.9962 -3.87016 1.95962 0
M  V30 780 H 77.6672 -5.36478 1.29982 0
M  V30 781 H 80.1432 -4.15615 -0.200869 0
M  V30 782 H 79.0192 -5.44318 -0.707714 0
M  V30 783 H 79.2802 -4.05759 -1.75533 0
M  V30 784 N 78.3393 -0.321999 -1.54275 0
M  V30 785 C 79.2893 0.560185 -2.21011 0
M  V30 786 C 80.2733 1.08283 -1.19011 0
M  V30 787 O 81.4653 1.02011 -1.44647 0
M  V30 788 C 78.5943 1.72137 -2.97025 0
M  V30 789 C 77.6803 1.21369 -4.06363 0
M  V30 790 N 78.0713 0.425566 -5.04007 0
M  V30 791 C 76.3693 1.49255 -4.20284 0
M  V30 792 C 77.0703 0.152601 -5.815 0
M  V30 793 N 76.0463 0.738294 -5.38563 0
M  V30 794 H 79.8483 -0.049265 -2.93859 0
M  V30 795 H 77.3623 -0.127779 -1.61897 0
M  V30 796 H 79.3593 2.36512 -3.43319 0
M  V30 797 H 78.0193 2.33431 -2.25699 0
M  V30 798 H 79.0303 0.068551 -5.17855 0
M  V30 799 H 75.7073 2.11145 -3.60172 0
M  V30 800 H 77.0973 -0.481764 -6.70171 0
M  V30 801 N 79.8174 1.5752 -0.0501392 0
M  V30 802 C 81.0454 1.96963 0.633492 0
M  V30 803 C 81.4604 0.927631 1.6444 0
M  V30 804 O 80.8174 -0.0882665 1.82286 0
M  V30 805 C 80.8684 3.36487 1.32132 0
M  V30 806 O 80.5894 4.36693 0.350894 0
M  V30 807 C 82.0904 3.90682 2.09481 0
M  V30 808 H 79.3104 0.648244 0.173266 0
M  V30 809 H 81.8544 2.0417 -0.116134 0
M  V30 810 H 80.0094 3.30434 2.02218 0
M  V30 811 H 80.4234 5.17702 0.841735 0
M  V30 812 H 81.8974 4.90591 2.5303 0
M  V30 813 H 82.3744 3.26053 2.94255 0
M  V30 814 H 82.9804 4.00069 1.44307 0
M  V30 815 N 81.2955 -0.223234 1.56011 0
M  V30 816 C 82.2585 -1.26014 1.9145 0
M  V30 817 C 83.2585 -1.3989 0.792937 0
M  V30 818 O 84.4485 -1.38184 1.0607 0
M  V30 819 C 81.5805 -2.63422 2.16383 0
M  V30 820 H 82.7735 -0.95796 2.84189 0
M  V30 821 H 80.3265 -0.463576 1.49267 0
M  V30 822 H 81.0615 -2.98741 1.2619 0
M  V30 823 H 80.8465 -2.54728 2.98088 0
M  V30 824 H 82.3365 -3.38249 2.44903 0
M  V30 825 N 82.7736 -1.49793 -0.48987 0
M  V30 826 C 83.6836 -1.70036 -1.61632 0
M  V30 827 C 84.6996 -0.583102 -1.63939 0
M  V30 828 O 85.8756 -0.859169 -1.82154 0
M  V30 829 C 82.9406 -1.77277 -2.97949 0
M  V30 830 C 82.0016 -3.00918 -3.06181 0
M  V30 831 C 81.2346 -3.07804 -4.35996 0
M  V30 832 O 81.4576 -2.21982 -5.25433 0
M  V30 833 O 80.3916 -4.00369 -4.49431 0
M  V30 834 H 84.2176 -2.65486 -1.47482 0
M  V30 835 H 81.8026 -1.33666 -0.667362 0
M  V30 836 H 83.6846 -1.84329 -3.78947 0
M  V30 837 H 82.3596 -0.850076 -3.12339 0
M  V30 838 H 81.2666 -2.99377 -2.2433 0
M  V30 839 H 82.5996 -3.92704 -2.96723 0
M  V30 840 N 84.2517 0.741722 -1.39055 0
M  V30 841 C 85.4977 1.50336 -1.36113 0
M  V30 842 C 85.8307 1.94148 0.0450796 0
M  V30 843 O 85.1057 1.66301 1.00868 0
M  V30 844 C 85.3887 2.74773 -2.32749 0
M  V30 845 C 85.2417 2.37023 -3.82283 0
M  V30 846 C 86.5607 3.76846 -2.27322 0
M  V30 847 H 83.6797 0.545351 -0.495743 0
M  V30 848 H 86.3217 0.848624 -1.69995 0
M  V30 849 H 84.4717 3.30639 -2.03986 0
M  V30 850 H 86.1437 1.8684 -4.21768 0
M  V30 851 H 84.3867 1.69334 -3.99385 0
M  V30 852 H 85.0577 3.26104 -4.45376 0
M  V30 853 H 87.5337 3.30548 -2.5274 0
M  V30 854 H 86.4097 4.6159 -2.97028 0
M  V30 855 H 86.6707 4.23286 -1.27599 0
M  V30 856 N 85.7298 1.2412 0.971189 0
M  V30 857 C 86.9778 1.07668 1.71032 0
M  V30 858 C 87.2988 -0.385797 1.91146 0
M  V30 859 O 86.5688 -1.27569 1.4867 0
M  V30 860 H 85.1488 0.395429 0.633755 0
M  V30 861 H 87.8108 1.55984 1.16855 0
M  V30 862 H 86.9068 1.57195 2.69622 0
M  V30 863 N 87.2079 -1.17134 1.05439 0
M  V30 864 C 88.4329 -1.91913 0.786396 0
M  V30 865 C 88.8579 -1.7643 -0.652234 0
M  V30 866 O 88.2159 -1.08372 -1.45345 0
M  V30 867 C 88.2639 -3.40921 1.17497 0
M  V30 868 O 87.3679 -4.11244 0.308589 0
M  V30 869 H 86.7089 -0.598215 0.288158 0
M  V30 870 H 89.2389 -1.48457 1.4079 0
M  V30 871 H 89.2489 -3.91668 1.14281 0
M  V30 872 H 87.9239 -3.5151 2.22292 0
M  V30 873 H 86.5009 -3.70731 0.40157 0
M  V30 874 N 88.686 -0.835752 -1.33615 0
M  V30 875 C 89.636 -0.238856 -2.26745 0
M  V30 876 C 90.62 0.604343 -1.49119 0
M  V30 877 O 91.812 0.456822 -1.71003 0
M  V30 878 C 88.941 0.587725 -3.38232 0
M  V30 879 C 88.027 -0.266811 -4.2326 0
M  V30 880 N 88.418 -1.34403 -4.87616 0
M  V30 881 C 86.716 -0.0533131 -4.45968 0
M  V30 882 C 87.417 -1.86819 -5.50884 0
M  V30 883 N 86.393 -1.17013 -5.30857 0
M  V30 884 H 90.195 -1.06266 -2.74016 0
M  V30 885 H 87.709 -0.679881 -1.47483 0
M  V30 886 H 89.706 1.03161 -4.03935 0
M  V30 887 H 88.366 1.40954 -2.9251 0
M  V30 888 H 89.377 -1.7269 -4.88261 0
M  V30 889 H 86.054 0.735312 -4.10974 0
M  V30 890 H 87.444 -2.7701 -6.1214 0
M  V30 891 N 90.1641 1.46063 -0.591896 0
M  V30 892 C 91.0961 2.28539 0.174001 0
M  V30 893 C 92.1091 1.39047 0.846753 0
M  V30 894 O 93.2981 1.63564 0.714774 0
M  V30 895 C 90.3981 3.14347 1.26645 0
M  V30 896 C 89.5711 4.32021 0.683856 0
M  V30 897 C 88.6301 4.99157 1.66518 0
M  V30 898 O 87.6561 5.56458 1.19763 0
M  V30 899 N 88.8581 4.97005 2.99943 0
M  V30 900 H 91.6231 2.94911 -0.533633 0
M  V30 901 H 89.1841 1.56077 -0.430294 0
M  V30 902 H 91.1761 3.56125 1.92242 0
M  V30 903 H 89.7461 2.49988 1.87682 0
M  V30 904 H 88.9661 3.93915 -0.1498 0
M  V30 905 H 90.2541 5.08059 0.274567 0
M  V30 906 H 89.6521 4.51714 3.40545 0
M  V30 907 H 88.2091 5.42696 3.61004 0
M  V30 908 N 91.6422 0.330177 1.54103 0
M  V30 909 C 92.8912 -0.271336 1.99867 0
M  V30 910 C 93.2042 -1.52723 1.22209 0
M  V30 911 O 94.4102 -2.20515 1.58383 0
M  V30 912 C 92.8662 -0.534032 3.55916 0
M  V30 913 C 92.4742 0.705193 4.42415 0
M  V30 914 C 94.2182 -1.09514 4.1013 0
M  V30 915 C 92.1252 0.414035 5.89949 0
M  V30 916 H 91.0552 -0.105166 0.74663 0
M  V30 917 H 93.7062 0.443429 1.78062 0
M  V30 918 H 92.0882 -1.30915 3.73734 0
M  V30 919 H 93.2622 1.4804 4.36372 0
M  V30 920 H 91.5772 1.18698 3.99124 0
M  V30 921 H 94.1742 -1.3277 5.17954 0
M  V30 922 H 94.5172 -2.04656 3.62521 0
M  V30 923 H 95.0502 -0.381038 3.95971 0
M  V30 924 H 91.7892 1.33481 6.41766 0
M  V30 925 H 91.3092 -0.323336 5.98928 0
M  V30 926 H 92.9882 0.0263105 6.46995 0
M  V30 927 N 93.1203 -1.57491 0.0584922 0
M  V30 928 C 94.0303 -2.15448 -0.928414 0
M  V30 929 C 95.0463 -1.11416 -1.3365 0
M  V30 930 O 96.2223 -1.4362 -1.41193 0
M  V30 931 C 93.2873 -2.69393 -2.18239 0
M  V30 932 C 92.3483 -3.88249 -1.83196 0
M  V30 933 C 91.5813 -4.39613 -3.02616 0
M  V30 934 O 91.8043 -3.90023 -4.16219 0
M  V30 935 O 90.7383 -5.31111 -2.83204 0
M  V30 936 H 94.5643 -3.00112 -0.465483 0
M  V30 937 H 92.1493 -1.48499 -0.163826 0
M  V30 938 H 94.0313 -3.04026 -2.91798 0
M  V30 939 H 92.7063 -1.87796 -2.63656 0
M  V30 940 H 91.6133 -3.58492 -1.06931 0
M  V30 941 H 92.9463 -4.71098 -1.42573 0
M  V30 942 N 94.5984 0.214957 -1.56127 0
M  V30 943 C 96.0094 0.781386 -1.69562 0
M  V30 944 C 96.3604 1.84707 -0.66165 0
M  V30 945 O 95.4854 2.156 0.185927 0
M  V30 946 C 96.0804 1.42411 -3.07416 0
M  V30 947 C 94.6394 1.93786 -3.22683 0
M  V30 948 C 93.7864 0.800438 -2.65496 0
M  V30 949 H 96.7374 -0.00980633 -1.58697 0
M  V30 950 H 96.7584 2.29309 -3.0364 0
M  V30 951 H 96.2704 0.64826 -3.82648 0
M  V30 952 H 94.3714 2.74152 -2.52332 0
M  V30 953 H 94.4844 2.1133 -4.29973 0
M  V30 954 H 92.8484 1.2095 -2.2415 0
M  V30 955 H 93.6314 0.0371471 -3.4328 0
M  V30 956 N 96.0765 1.50051 0.48192 0
M  V30 957 C 97.0065 1.71046 1.58951 0
M  V30 958 C 97.9875 0.559288 1.60642 0
M  V30 959 O 99.1725 0.797243 1.77081 0
M  V30 960 C 96.3025 1.79462 2.97339 0
M  V30 961 C 95.2565 2.94558 3.10515 0
M  V30 962 C 94.5825 2.88105 4.50444 0
M  V30 963 C 95.8825 4.35227 2.88747 0
M  V30 964 H 97.5765 2.6378 1.41635 0
M  V30 965 H 95.1225 1.26936 0.679942 0
M  V30 966 H 97.0755 1.92734 3.74742 0
M  V30 967 H 95.7995 0.833412 3.15788 0
M  V30 968 H 94.4585 2.80918 2.35543 0
M  V30 969 H 94.1065 1.89853 4.65795 0
M  V30 970 H 93.8065 3.65366 4.60197 0
M  V30 971 H 95.3305 3.03412 5.29881 0
M  V30 972 H 96.7445 4.49449 3.55905 0
M  V30 973 H 95.1415 5.13856 3.09955 0
M  V30 974 H 96.2115 4.48347 1.84696 0
M  V30 975 N 97.5546 -0.734337 1.39446 0
M  V30 976 C 98.5016 -1.84835 1.38219 0
M  V30 977 C 99.4716 -1.64331 0.24179 0
M  V30 978 O 100.657 -1.85728 0.437002 0
M  V30 979 C 97.7966 -3.22355 1.23212 0
M  V30 980 C 96.9096 -3.5456 2.46801 0
M  V30 981 C 96.0446 -4.81485 2.24377 0
M  V30 982 C 95.0836 -5.06536 3.43639 0
M  V30 983 N 94.2206 -6.24665 3.20528 0
M  V30 984 H 99.0606 -1.85219 2.33448 0
M  V30 985 H 96.5976 -0.905039 1.15963 0
M  V30 986 H 98.5556 -4.0174 1.12522 0
M  V30 987 H 97.1856 -3.21248 0.316121 0
M  V30 988 H 96.2376 -2.69872 2.68092 0
M  V30 989 H 97.5496 -3.6899 3.3563 0
M  V30 990 H 96.7036 -5.68852 2.10933 0
M  V30 991 H 95.4426 -4.6923 1.32944 0
M  V30 992 H 94.4476 -4.17632 3.5758 0
M  V30 993 H 95.6726 -5.20676 4.35974 0
M  V30 994 H 93.6186 -6.13696 2.3176 0
M  V30 995 H 93.5356 -6.39685 4.02913 0
M  V30 996 H 94.8036 -7.14868 3.10779 0
M  V30 997 N 99.0327 -1.24633 -0.964593 0
M  V30 998 C 100.261 -1.11501 -1.74285 0
M  V30 999 C 100.676 0.332165 -1.85855 0
M  V30 1000 O 100.033 1.22903 -1.34911 0
M  V30 1001 C 100.084 -1.75258 -3.16175 0
M  V30 1002 O 99.8047 -3.14318 -3.05182 0
M  V30 1003 C 101.306 -1.67776 -4.10324 0
M  V30 1004 H 98.5257 -0.389407 -0.546446 0
M  V30 1005 H 101.07 -1.64801 -1.21083 0
M  V30 1006 H 99.2247 -1.25954 -3.66353 0
M  V30 1007 H 99.6387 -3.4551 -3.94618 0
M  V30 1008 H 101.113 -2.17064 -5.0753 0
M  V30 1009 H 101.59 -0.639584 -4.34518 0
M  V30 1010 H 102.196 -2.16522 -3.66058 0
M  V30 1011 N 100.511 1.16574 -1.06058 0
M  V30 1012 C 101.736 1.91493 -0.796562 0
M  V30 1013 C 102.161 1.76773 0.642868 0
M  V30 1014 O 101.519 1.09142 1.44768 0
M  V30 1015 C 101.567 3.40293 -1.19303 0
M  V30 1016 O 100.671 4.11074 -0.330394 0
M  V30 1017 H 100.012 0.596678 -0.291326 0
M  V30 1018 H 102.542 1.47708 -1.41575 0
M  V30 1019 H 102.552 3.91057 -1.16356 0
M  V30 1020 H 101.227 3.50326 -2.24153 0
M  V30 1021 H 99.8038 3.70513 -0.421225 0
M  V30 1022 N 101.989 0.842826 1.3317 0
M  V30 1023 C 103.235 0.441099 1.97945 0
M  V30 1024 C 103.568 -0.998024 1.66593 0
M  V30 1025 O 102.843 -1.69839 0.947898 0
M  V30 1026 C 103.126 0.666841 3.53872 0
M  V30 1027 C 102.979 2.15352 3.94897 0
M  V30 1028 C 104.298 0.115544 4.39948 0
M  V30 1029 H 101.417 0.161739 0.719034 0
M  V30 1030 H 104.059 1.05907 1.57746 0
M  V30 1031 H 102.209 0.140828 3.88245 0
M  V30 1032 H 103.881 2.7447 3.70761 0
M  V30 1033 H 102.124 2.63653 3.44484 0
M  V30 1034 H 102.795 2.26221 5.03516 0
M  V30 1035 H 105.271 0.565213 4.12243 0
M  V30 1036 H 104.147 0.303152 5.48062 0
M  V30 1037 H 104.408 -0.980935 4.3108 0
M  V30 1038 N 103.467 -1.45747 0.599634 0
M  V30 1039 C 104.744 -1.95585 0.0240846 0
M  V30 1040 C 105.124 -1.54217 -1.44154 0
M  V30 1041 O 104.472 -0.800903 -2.14004 0
M  V30 1042 C 104.682 -3.48344 0.21385 0
M  V30 1043 C 106.03 -4.24504 0.0904902 0
M  V30 1044 O 107.054 -3.55911 0.143558 0
M  V30 1045 O 105.913 -5.46491 -0.0310766 0
M  V30 1046 H 103.007 -0.82602 -0.0402478 0
M  V30 1047 H 105.553 -1.55951 0.669139 0
M  V30 1048 H 104.325 -3.71397 1.23206 0
M  V30 1049 H 103.948 -3.9485 -0.466842 0
M  V30 1050 N 104.945 -0.338344 -1.53925 0
M  V30 1051 C 105.892 0.520845 -2.24846 0
M  V30 1052 C 106.862 1.09976 -1.24477 0
M  V30 1053 O 108.047 1.13735 -1.53196 0
M  V30 1054 C 105.187 1.6685 -3.02084 0
M  V30 1055 C 104.3 1.11739 -4.17299 0
M  V30 1056 C 103.435 2.23193 -4.82036 0
M  V30 1057 C 102.474 1.65407 -5.89328 0
M  V30 1058 N 101.611 2.70582 -6.47866 0
M  V30 1059 H 106.451 -0.0904881 -2.97863 0
M  V30 1060 H 103.988 -0.0564282 -1.46992 0
M  V30 1061 H 105.946 2.34407 -3.45122 0
M  V30 1062 H 104.576 2.2509 -2.31375 0
M  V30 1063 H 103.628 0.332919 -3.7894 0
M  V30 1064 H 104.94 0.654677 -4.94485 0
M  V30 1065 H 104.094 2.98626 -5.28117 0
M  V30 1066 H 102.833 2.72807 -4.04262 0
M  V30 1067 H 101.838 0.884779 -5.42634 0
M  V30 1068 H 103.063 1.16652 -6.69006 0
M  V30 1069 H 101.009 3.1946 -5.72959 0
M  V30 1070 H 100.926 2.28917 -7.20509 0
M  V30 1071 H 102.194 3.45799 -6.98601 0
M  V30 1072 N 106.423 1.57458 -0.0668435 0
M  V30 1073 C 107.834 1.80776 0.466558 0
M  V30 1074 C 108.185 0.980361 1.69951 0
M  V30 1075 O 107.31 0.201441 2.1546 0
M  V30 1076 C 107.905 3.27881 0.85321 0
M  V30 1077 C 106.464 3.52062 1.3315 0
M  V30 1078 C 105.611 2.75513 0.314264 0
M  V30 1079 H 108.562 1.5598 -0.292588 0
M  V30 1080 H 108.583 3.39659 1.715 0
M  V30 1081 H 108.095 3.88075 -0.0443439 0
M  V30 1082 H 106.196 2.97167 2.24772 0
M  V30 1083 H 106.309 4.60762 1.31285 0
M  V30 1084 H 104.673 2.42123 0.790492 0
M  V30 1085 H 105.456 3.38442 -0.575477 0
M  V30 1086 N 107.901 -0.206675 1.56239 0
M  V30 1087 C 109.149 -0.927007 1.79586 0
M  V30 1088 C 109.47 -1.8427 0.637929 0
M  V30 1089 O 108.74 -1.92849 -0.344398 0
M  V30 1090 H 107.32 -0.345292 0.662407 0
M  V30 1091 H 109.982 -0.21496 1.93711 0
M  V30 1092 H 109.078 -1.52501 2.72305 0
M  V30 1093 N 109.379 -1.50304 -0.473955 0
M  V30 1094 C 110.604 -1.65175 -1.25427 0
M  V30 1095 C 111.029 -0.333673 -1.85117 0
M  V30 1096 O 110.387 0.702114 -1.67153 0
M  V30 1097 C 110.435 -2.74295 -2.34082 0
M  V30 1098 O 109.539 -2.35349 -3.38651 0
M  V30 1099 H 108.88 -0.551944 -0.369126 0
M  V30 1100 H 111.41 -1.96662 -0.564364 0
M  V30 1101 H 111.42 -2.97285 -2.79438 0
M  V30 1102 H 110.095 -3.69959 -1.90008 0
M  V30 1103 H 108.672 -2.22794 -2.99027 0
M  V30 1104 N 110.857 0.726932 -1.39834 0
M  V30 1105 C 111.804 1.841 -1.39197 0
M  V30 1106 C 112.774 1.642 -0.250502 0
M  V30 1107 O 113.959 1.85494 -0.446846 0
M  V30 1108 C 111.099 3.21697 -1.24919 0
M  V30 1109 C 110.212 3.53247 -2.48678 0
M  V30 1110 C 109.347 4.80289 -2.26928 0
M  V30 1111 C 108.386 5.04707 -3.4632 0
M  V30 1112 N 107.523 6.22956 -3.23836 0
M  V30 1113 H 112.363 1.83979 -2.34427 0
M  V30 1114 H 109.9 0.898876 -1.16442 0
M  V30 1115 H 111.858 4.01137 -1.1465 0
M  V30 1116 H 110.488 3.21076 -0.333153 0
M  V30 1117 H 109.54 2.68447 -2.69519 0
M  V30 1118 H 110.852 3.67205 -3.37582 0
M  V30 1119 H 110.006 5.67725 -2.13947 0
M  V30 1120 H 108.745 4.68519 -1.35431 0
M  V30 1121 H 107.75 4.1573 -3.5979 0
M  V30 1122 H 108.975 5.18357 -4.38729 0
M  V30 1123 H 106.921 6.12459 -2.35011 0
M  V30 1124 H 106.838 6.37539 -4.063 0
M  V30 1125 H 108.106 7.1321 -3.14566 0
M  V30 1126 N 112.336 1.25143 0.95797 0
M  V30 1127 C 113.283 1.05235 2.05412 0
M  V30 1128 C 114.253 -0.0374561 1.66058 0
M  V30 1129 O 115.438 0.119073 1.90428 0
M  V30 1130 C 112.578 0.673589 3.38462 0
M  V30 1131 C 111.691 1.8379 3.90954 0
M  V30 1132 C 110.826 1.40381 5.12315 0
M  V30 1133 C 109.865 2.53746 5.57027 0
M  V30 1134 N 109.002 2.11136 6.69601 0
M  V30 1135 H 113.842 1.99048 2.21774 0
M  V30 1136 H 111.379 0.991277 1.08683 0
M  V30 1137 H 113.337 0.434964 4.14926 0
M  V30 1138 H 111.967 -0.227554 3.21997 0
M  V30 1139 H 111.019 2.18992 3.11041 0
M  V30 1140 H 112.331 2.68937 4.20089 0
M  V30 1141 H 111.485 1.12464 5.96185 0
M  V30 1142 H 110.224 0.523015 4.84887 0
M  V30 1143 H 109.229 2.82412 4.71724 0
M  V30 1144 H 110.454 3.42398 5.86464 0
M  V30 1145 H 108.4 1.25468 6.4389 0
M  V30 1146 H 108.317 2.89832 6.98236 0
M  V30 1147 H 109.585 1.86385 7.56889 0
M  V30 1148 N 113.814 -1.1601 1.06675 0
M  V30 1149 C 115.042 -1.90527 0.806667 0
M  V30 1150 C 115.457 -1.77643 -0.639396 0
M  V30 1151 O 114.814 -1.12369 -1.43803 0
M  V30 1152 C 114.865 -3.41106 1.19705 0
M  V30 1153 O 114.586 -3.53608 2.58636 0
M  V30 1154 C 116.087 -4.32663 0.965266 0
M  V30 1155 H 113.307 -0.604053 0.292166 0
M  V30 1156 H 115.851 -1.47026 1.4214 0
M  V30 1157 H 114.006 -3.82296 0.626774 0
M  V30 1158 H 114.42 -4.47011 2.74375 0
M  V30 1159 H 115.894 -5.36763 1.288 0
M  V30 1160 H 116.371 -4.39089 -0.0987936 0
M  V30 1161 H 116.977 -3.97206 1.52011 0
M  V30 1162 N 115.292 -0.849877 -1.32721 0
M  V30 1163 C 116.224 -0.248332 -2.27851 0
M  V30 1164 C 117.237 0.577218 -1.52224 0
M  V30 1165 O 118.426 0.402489 -1.73903 0
M  V30 1166 C 115.526 0.668107 -3.32249 0
M  V30 1167 C 114.699 -0.120534 -4.37234 0
M  V30 1168 C 113.758 0.720932 -5.21238 0
M  V30 1169 O 112.784 0.156166 -5.68986 0
M  V30 1170 N 113.986 2.03647 -5.43607 0
M  V30 1171 H 116.751 -1.06575 -2.80111 0
M  V30 1172 H 114.312 -0.709395 -1.45531 0
M  V30 1173 H 116.304 1.23627 -3.85355 0
M  V30 1174 H 114.874 1.38621 -2.80184 0
M  V30 1175 H 114.094 -0.870108 -3.84477 0
M  V30 1176 H 115.382 -0.662406 -5.0447 0
M  V30 1177 H 114.78 2.51871 -5.06535 0
M  V30 1178 H 113.337 2.55287 -5.99727 0
M  V30 1179 N 116.77 1.45427 -0.607355 0
M  V30 1180 C 118.018 2.01841 -0.102253 0
M  V30 1181 C 118.339 1.47832 1.27164 0
M  V30 1182 O 117.609 0.672497 1.83995 0
M  V30 1183 H 116.189 0.746188 -0.0348101 0
M  V30 1184 H 118.851 1.78229 -0.7887 0
M  V30 1185 H 117.947 3.12057 -0.0518585 0
M  V30 1186 N 118.248 0.346503 1.53744 0
M  V30 1187 C 119.158 -0.517293 2.28826 0
M  V30 1188 C 120.174 -1.10935 1.3405 0
M  V30 1189 O 121.35 -1.1244 1.6709 0
M  V30 1190 C 118.415 -1.65098 3.04866 0
M  V30 1191 C 117.476 -1.0884 4.15274 0
M  V30 1192 C 116.709 -2.16806 4.87679 0
M  V30 1193 O 116.932 -3.3758 4.59778 0
M  V30 1194 O 115.866 -1.80934 5.74061 0
M  V30 1195 H 119.692 0.0931396 3.03557 0
M  V30 1196 H 117.277 0.111458 1.48984 0
M  V30 1197 H 119.159 -2.31053 3.5241 0
M  V30 1198 H 117.834 -2.24717 2.32989 0
M  V30 1199 H 116.741 -0.3933 3.72027 0
M  V30 1200 H 118.074 -0.537036 4.89261 0
M  V30 1201 N 119.726 -1.57421 0.075193 0
M  V30 1202 C 120.673 -2.12915 -0.890843 0
M  V30 1203 C 121.643 -1.04252 -1.29309 0
M  V30 1204 O 122.828 -1.31933 -1.37834 0
M  V30 1205 C 119.968 -2.69795 -2.15186 0
M  V30 1206 C 119.081 -3.92624 -1.80194 0
M  V30 1207 C 118.216 -4.37736 -3.00933 0
M  V30 1208 C 117.255 -5.53205 -2.61974 0
M  V30 1209 N 116.392 -5.9326 -3.75483 0
M  V30 1210 H 121.232 -2.95156 -0.410735 0
M  V30 1211 H 118.769 -1.45854 -0.191086 0
M  V30 1212 H 120.727 -3.00883 -2.89008 0
M  V30 1213 H 119.357 -1.90313 -2.60731 0
M  V30 1214 H 118.409 -3.67977 -0.964218 0
M  V30 1215 H 119.721 -4.76482 -1.47534 0
M  V30 1216 H 118.875 -4.70503 -3.8303 0
M  V30 1217 H 117.614 -3.52739 -3.36789 0
M  V30 1218 H 116.619 -5.20086 -1.783 0
M  V30 1219 H 117.844 -6.39936 -2.27284 0
M  V30 1220 H 115.79 -5.11212 -4.11094 0
M  V30 1221 H 115.707 -6.71865 -3.46602 0
M  V30 1222 H 116.975 -6.30651 -4.58148 0
M  V30 1223 N 121.204 0.198386 -1.56346 0
M  V30 1224 C 122.451 0.919286 -1.80431 0
M  V30 1225 C 122.779 1.83393 -0.647866 0
M  V30 1226 O 122.034 1.92236 0.366556 0
M  V30 1227 C 122.333 1.77031 -3.10475 0
M  V30 1228 C 121.999 1.00693 -4.39513 0
M  V30 1229 C 120.661 0.796145 -4.74568 0
M  V30 1230 C 123.013 0.469559 -5.19081 0
M  V30 1231 C 120.341 0.0364588 -5.86689 0
M  V30 1232 C 122.693 -0.2769 -6.31994 0
M  V30 1233 C 121.357 -0.49873 -6.65634 0
M  V30 1234 H 120.627 0.336391 -0.660244 0
M  V30 1235 H 123.274 0.185872 -1.90596 0
M  V30 1236 H 121.579 2.5723 -2.95533 0
M  V30 1237 H 123.276 2.33065 -3.26315 0
M  V30 1238 H 119.866 1.18122 -4.12001 0
M  V30 1239 H 124.05 0.619816 -4.92414 0
M  V30 1240 H 119.306 -0.145412 -6.11227 0
M  V30 1241 H 123.48 -0.700684 -6.92866 0
M  V30 1242 H 121.107 -1.0893 -7.52355 0
M  V30 1243 N 122.682 1.50554 0.465978 0
M  V30 1244 C 123.929 1.61798 1.21768 0
M  V30 1245 C 124.257 0.320696 1.91838 0
M  V30 1246 O 123.512 -0.693724 1.82992 0
M  V30 1247 C 123.811 2.75152 2.28093 0
M  V30 1248 C 123.477 4.15454 1.75239 0
M  V30 1249 C 122.139 4.53628 1.60546 0
M  V30 1250 C 124.491 5.03121 1.36083 0
M  V30 1251 C 121.819 5.77204 1.05128 0
M  V30 1252 C 124.171 6.27249 0.821056 0
M  V30 1253 C 122.835 6.64221 0.660795 0
M  V30 1254 H 122.105 0.592063 0.445582 0
M  V30 1255 H 124.752 1.84503 0.512927 0
M  V30 1256 H 123.057 2.46556 3.04496 0
M  V30 1257 H 124.754 2.81055 2.86023 0
M  V30 1258 H 121.344 3.85341 1.87644 0
M  V30 1259 H 125.528 4.74257 1.46267 0
M  V30 1260 H 120.784 6.0452 0.91462 0
M  V30 1261 H 124.958 6.94537 0.509018 0
M  V30 1262 H 122.585 7.59854 0.229226 0
M  V30 1263 N 124.16 -0.719506 1.40217 0
M  V30 1264 C 125.09 -1.8465 1.42922 0
M  V30 1265 C 126.071 -1.67599 0.29062 0
M  V30 1266 O 127.256 -1.87688 0.498677 0
M  V30 1267 C 124.386 -3.22565 1.28722 0
M  V30 1268 C 123.34 -3.54281 2.40144 0
M  V30 1269 C 122.666 -4.91298 2.11023 0
M  V30 1270 C 123.966 -3.55676 3.82481 0
M  V30 1271 H 125.66 -1.82644 2.37237 0
M  V30 1272 H 123.206 -0.877305 1.1419 0
M  V30 1273 H 125.159 -4.01095 1.29232 0
M  V30 1274 H 123.883 -3.25137 0.308811 0
M  V30 1275 H 122.542 -2.78088 2.38877 0
M  V30 1276 H 122.19 -4.90468 1.11582 0
M  V30 1277 H 121.89 -5.13485 2.8567 0
M  V30 1278 H 123.414 -5.72166 2.13209 0
M  V30 1279 H 124.828 -4.24254 3.85592 0
M  V30 1280 H 123.225 -3.89388 4.56614 0
M  V30 1281 H 124.295 -2.55144 4.12346 0
M  V30 1282 N 125.638 -1.25649 -0.95132 0
M  V30 1283 C 126.887 -1.09988 -1.69073 0
M  V30 1284 C 127.2 0.358355 -1.92289 0
M  V30 1285 O 128.406 0.635466 -2.63958 0
M  V30 1286 C 126.862 -1.92012 -3.044 0
M  V30 1287 C 126.47 -3.42347 -2.88968 0
M  V30 1288 C 128.214 -1.8493 -3.82101 0
M  V30 1289 C 126.121 -4.16655 -4.19705 0
M  V30 1290 H 125.051 -0.407993 -0.63408 0
M  V30 1291 H 127.702 -1.49873 -1.05879 0
M  V30 1292 H 126.084 -1.44952 -3.68517 0
M  V30 1293 H 127.258 -3.97104 -2.33762 0
M  V30 1294 H 125.573 -3.50557 -2.24719 0
M  V30 1295 H 128.17 -2.37739 -4.78941 0
M  V30 1296 H 128.513 -0.817883 -4.08187 0
M  V30 1297 H 129.046 -2.29758 -3.2474 0
M  V30 1298 H 125.785 -5.20224 -3.98807 0
M  V30 1299 H 125.305 -3.66681 -4.74663 0
M  V30 1300 H 126.984 -4.24551 -4.88227 0
M  V30 1301 N 127.117 1.15442 -1.07289 0
M  V30 1302 C 128.067 2.18164 -0.662467 0
M  V30 1303 C 129.051 1.57845 0.312074 0
M  V30 1304 O 130.243 1.76552 0.125905 0
M  V30 1305 C 127.372 3.43246 -0.0611295 0
M  V30 1306 C 126.458 4.1062 -1.06077 0
M  V30 1307 N 126.849 4.53491 -2.24008 0
M  V30 1308 C 125.147 4.36949 -0.893964 0
M  V30 1309 C 125.848 5.05731 -2.87422 0
M  V30 1310 N 124.824 4.99236 -2.15091 0
M  V30 1311 H 128.626 2.49038 -1.56068 0
M  V30 1312 H 126.14 1.32003 -0.945988 0
M  V30 1313 H 128.137 4.16145 0.250792 0
M  V30 1314 H 126.797 3.13854 0.832207 0
M  V30 1315 H 127.808 4.46898 -2.6173 0
M  V30 1316 H 124.485 4.17466 -0.0534693 0
M  V30 1317 H 125.875 5.48865 -3.87553 0
M  V30 1318 N 128.595 0.856903 1.32268 0
M  V30 1319 C 129.82 0.474569 2.01897 0
M  V30 1320 C 130.245 -0.921766 1.63967 0
M  V30 1321 O 129.603 -1.60589 0.84148 0
M  V30 1322 C 129.651 0.623799 3.55164 0
M  V30 1323 O 128.755 -0.342459 4.10976 0
M  V30 1324 H 128.096 0.190422 0.63611 0
M  V30 1325 H 130.626 1.15672 1.68764 0
M  V30 1326 H 130.636 0.512169 4.04773 0
M  V30 1327 H 129.311 1.64202 3.82113 0
M  V30 1328 H 127.888 -0.18688 3.72431 0
M  V30 1329 N 130.073 -1.45103 0.615059 0
M  V30 1330 C 131.036 -2.29025 -0.0895485 0
M  V30 1331 C 132.036 -1.40174 -0.787906 0
M  V30 1332 O 133.226 -1.62217 -0.634933 0
M  V30 1333 C 130.358 -3.21376 -1.13711 0
M  V30 1334 H 131.551 -2.92807 0.648382 0
M  V30 1335 H 129.104 -1.51749 0.374444 0
M  V30 1336 H 129.839 -2.6241 -1.90556 0
M  V30 1337 H 129.624 -3.86834 -0.640475 0
M  V30 1338 H 131.114 -3.84459 -1.63036 0
M  V30 1339 N 131.551 -0.354651 -1.53558 0
M  V30 1340 C 132.828 0.294281 -1.93374 0
M  V30 1341 C 133.208 1.67313 -1.28723 0
M  V30 1342 O 132.556 2.24179 -0.442247 0
M  V30 1343 C 132.766 0.355445 -3.47185 0
M  V30 1344 C 134.114 0.601007 -4.20325 0
M  V30 1345 O 135.138 0.437106 -3.53508 0
M  V30 1346 O 133.997 0.919322 -5.38712 0
M  V30 1347 H 131.091 0.174033 -0.808481 0
M  V30 1348 H 133.637 -0.406638 -1.64756 0
M  V30 1349 H 132.409 -0.611729 -3.86489 0
M  V30 1350 H 132.032 1.1027 -3.82003 0
M  V30 1351 N 133.029 1.57378 -0.0835403 0
M  V30 1352 C 134.275 1.95025 0.577664 0
M  V30 1353 C 134.63 0.964049 1.66505 0
M  V30 1354 O 133.923 -0.0118235 1.91596 0
M  V30 1355 C 134.117 3.37063 1.1884 0
M  V30 1356 C 133.946 4.49409 0.16171 0
M  V30 1357 C 132.716 5.04642 -0.257756 0
M  V30 1358 C 134.914 5.10722 -0.605634 0
M  V30 1359 N 132.896 6.00537 -1.27393 0
M  V30 1360 C 134.267 6.02225 -1.47395 0
M  V30 1361 C 136.322 4.93501 -0.660418 0
M  V30 1362 C 135.025 6.78355 -2.39221 0
M  V30 1363 C 137.051 5.70283 -1.56623 0
M  V30 1364 C 136.413 6.61444 -2.4222 0
M  V30 1365 H 132.512 0.760512 0.182058 0
M  V30 1366 H 135.096 1.94013 -0.163419 0
M  V30 1367 H 133.267 3.3879 1.89936 0
M  V30 1368 H 134.999 3.61917 1.81103 0
M  V30 1369 H 131.754 4.73428 0.127702 0
M  V30 1370 H 132.178 6.53184 -1.77987 0
M  V30 1371 H 136.82 4.22798 -0.0128221 0
M  V30 1372 H 134.538 7.48327 -3.05011 0
M  V30 1373 H 138.124 5.58976 -1.61361 0
M  V30 1374 H 137.004 7.1982 -3.11174 0
M  V30 1375 N 134.507 -0.190092 1.56449 0
M  V30 1376 C 135.437 -1.23816 1.97969 0
M  V30 1377 C 136.418 -1.47201 0.852395 0
M  V30 1378 O 137.603 -1.58854 1.1171 0
M  V30 1379 C 134.733 -2.5813 2.3235 0
M  V30 1380 C 133.687 -2.49348 3.47864 0
M  V30 1381 C 133.013 -3.8798 3.67934 0
M  V30 1382 C 134.313 -2.01424 4.81898 0
M  V30 1383 H 136.007 -0.89311 2.85769 0
M  V30 1384 H 133.553 -0.428177 1.37487 0
M  V30 1385 H 135.506 -3.31637 2.59991 0
M  V30 1386 H 134.23 -2.94386 1.41438 0
M  V30 1387 H 132.889 -1.78297 3.20321 0
M  V30 1388 H 132.537 -4.21597 2.74344 0
M  V30 1389 H 132.237 -3.82978 4.45648 0
M  V30 1390 H 133.761 -4.63101 3.97957 0
M  V30 1391 H 135.175 -2.64693 5.08538 0
M  V30 1392 H 133.572 -2.07413 5.63116 0
M  V30 1393 H 134.642 -0.967677 4.75146 0
M  V30 1394 N 135.985 -1.50799 -0.457987 0
M  V30 1395 C 137.213 -1.66218 -1.23203 0
M  V30 1396 C 137.628 -0.350894 -1.85511 0
M  V30 1397 O 136.985 0.668546 -1.69814 0
M  V30 1398 C 137.036 -2.76291 -2.33121 0
M  V30 1399 O 136.757 -4.02338 -1.73366 0
M  V30 1400 C 138.258 -3.028 -3.2377 0
M  V30 1401 H 135.478 -0.558361 -0.372121 0
M  V30 1402 H 138.022 -1.97099 -0.545179 0
M  V30 1403 H 136.177 -2.48068 -2.97558 0
M  V30 1404 H 136.591 -4.63312 -2.4585 0
M  V30 1405 H 138.065 -3.8345 -3.97077 0
M  V30 1406 H 138.542 -2.14385 -3.83322 0
M  V30 1407 H 139.148 -3.32604 -2.65056 0
M  V30 1408 N 137.463 0.71206 -1.40597 0
M  V30 1409 C 138.691 1.50111 -1.42388 0
M  V30 1410 C 139.106 1.88784 -0.0245395 0
M  V30 1411 O 138.463 1.55681 0.952351 0
M  V30 1412 C 138.514 2.7742 -2.31776 0
M  V30 1413 O 138.235 2.40382 -3.66262 0
M  V30 1414 C 139.736 3.7129 -2.42196 0
M  V30 1415 H 136.956 0.46314 -0.485533 0
M  V30 1416 H 139.5 0.878068 -1.8469 0
M  V30 1417 H 137.655 3.36001 -1.92827 0
M  V30 1418 H 138.069 3.22324 -4.13772 0
M  V30 1419 H 139.543 4.57448 -3.08943 0
M  V30 1420 H 140.02 4.14641 -1.44809 0
M  V30 1421 H 140.626 3.18619 -2.81712 0
M  V30 1422 N 138.941 1.26152 0.944643 0
M  V30 1423 C 139.891 1.04081 2.02857 0
M  V30 1424 C 140.875 -0.0256555 1.6088 0
M  V30 1425 O 142.067 0.190884 1.75968 0
M  V30 1426 C 139.196 0.672118 3.36656 0
M  V30 1427 C 138.282 1.77586 3.85128 0
M  V30 1428 N 138.673 3.01272 4.06287 0
M  V30 1429 C 136.971 1.65867 4.1401 0
M  V30 1430 C 137.672 3.72983 4.46384 0
M  V30 1431 N 136.648 3.00653 4.52889 0
M  V30 1432 H 140.45 1.97968 2.17223 0
M  V30 1433 H 137.964 1.16618 1.13022 0
M  V30 1434 H 139.961 0.495166 4.13949 0
M  V30 1435 H 138.621 -0.259307 3.23663 0
M  V30 1436 H 139.632 3.37213 3.93075 0
M  V30 1437 H 136.309 0.796907 4.09824 0
M  V30 1438 H 137.699 4.792 4.70975 0
M  V30 1439 N 140.419 -1.14872 1.07899 0
M  V30 1440 C 141.382 -2.17986 0.708161 0
M  V30 1441 C 142.382 -1.58775 -0.25442 0
M  V30 1442 O 143.572 -1.74166 -0.034645 0
M  V30 1443 C 140.704 -3.40871 0.0446929 0
M  V30 1444 H 141.897 -2.52306 1.62116 0
M  V30 1445 H 139.45 -1.2943 0.876218 0
M  V30 1446 H 140.185 -3.12124 -0.880281 0
M  V30 1447 H 139.97 -3.8511 0.737091 0
M  V30 1448 H 141.46 -4.17121 -0.19991 0
M  V30 1449 N 141.898 -0.863906 -1.31812 0
M  V30 1450 C 142.828 -0.330843 -2.31144 0
M  V30 1451 C 143.809 0.575005 -1.60087 0
M  V30 1452 O 144.994 0.493304 -1.8783 0
M  V30 1453 C 142.124 0.47374 -3.44054 0
M  V30 1454 C 141.078 -0.338481 -4.26659 0
M  V30 1455 C 140.404 0.591412 -5.31419 0
M  V30 1456 C 141.704 -1.56926 -4.98168 0
M  V30 1457 H 143.398 -1.16086 -2.75979 0
M  V30 1458 H 140.944 -0.559657 -1.32679 0
M  V30 1459 H 142.897 0.857143 -4.12591 0
M  V30 1460 H 141.621 1.33721 -2.9797 0
M  V30 1461 H 140.28 -0.703754 -3.59782 0
M  V30 1462 H 139.928 1.45199 -4.81587 0
M  V30 1463 H 139.628 0.0519022 -5.87577 0
M  V30 1464 H 141.152 0.97179 -6.02817 0
M  V30 1465 H 142.566 -1.25764 -5.59336 0
M  V30 1466 H 140.963 -2.04739 -5.64094 0
M  V30 1467 H 142.033 -2.32544 -4.25501 0
M  V30 1468 N 143.376 1.44774 -0.622745 0
M  V30 1469 C 144.623 2.02121 -0.1239 0
M  V30 1470 C 144.951 1.48915 1.25118 0
M  V30 1471 O 144.206 0.660045 1.84233 0
M  V30 1472 C 144.505 3.57364 -0.0508323 0
M  V30 1473 C 144.171 4.29787 -1.36358 0
M  V30 1474 C 142.833 4.4929 -1.72314 0
M  V30 1475 C 145.185 4.71062 -2.23048 0
M  V30 1476 C 142.513 5.07325 -2.94682 0
M  V30 1477 C 144.865 5.30452 -3.44679 0
M  V30 1478 C 143.529 5.48175 -3.80868 0
M  V30 1479 H 142.799 0.739612 -0.0453381 0
M  V30 1480 H 145.446 1.73648 -0.807389 0
M  V30 1481 H 143.751 3.85202 0.715991 0
M  V30 1482 H 145.448 3.99456 0.351533 0
M  V30 1483 H 142.038 4.14932 -1.07375 0
M  V30 1484 H 146.222 4.55715 -1.96565 0
M  V30 1485 H 141.478 5.19235 -3.22809 0
M  V30 1486 H 145.652 5.61385 -4.12092 0
M  V30 1487 H 143.279 5.92912 -4.75773 0
M  V30 1488 N 144.854 0.36279 1.53368 0
M  V30 1489 C 145.804 -0.501391 2.22419 0
M  V30 1490 C 146.788 -1.0509 1.2184 0
M  V30 1491 O 147.98 -0.981404 1.47301 0
M  V30 1492 C 145.109 -1.64201 3.01484 0
M  V30 1493 C 144.195 -1.10552 4.09438 0
M  V30 1494 N 144.586 -0.291788 5.04958 0
M  V30 1495 C 142.884 -1.3806 4.24094 0
M  V30 1496 C 143.585 0.00162655 5.817 0
M  V30 1497 N 142.561 -0.595244 5.40331 0
M  V30 1498 H 146.363 0.127159 2.93625 0
M  V30 1499 H 143.877 0.170658 1.61501 0
M  V30 1500 H 145.874 -2.27326 3.49469 0
M  V30 1501 H 144.534 -2.27365 2.31809 0
M  V30 1502 H 145.545 0.0687731 5.17854 0
M  V30 1503 H 142.222 -2.01522 3.65644 0
M  V30 1504 H 143.612 0.659278 6.68658 0
M  V30 1505 N 146.332 -1.57332 0.0918853 0
M  V30 1506 C 147.242 -2.17368 -0.882505 0
M  V30 1507 C 148.258 -1.14226 -1.31257 0
M  V30 1508 O 149.434 -1.46582 -1.38115 0
M  V30 1509 C 146.499 -2.73962 -2.12476 0
M  V30 1510 C 145.56 -3.92048 -1.7492 0
M  V30 1511 C 144.793 -4.45933 -2.93223 0
M  V30 1512 O 145.016 -3.98764 -4.07852 0
M  V30 1513 O 143.95 -5.36999 -2.71875 0
M  V30 1514 H 147.776 -3.01031 -0.40172 0
M  V30 1515 H 145.361 -1.48813 -0.132291 0
M  V30 1516 H 147.243 -3.10147 -2.85283 0
M  V30 1517 H 145.918 -1.93347 -2.59613 0
M  V30 1518 H 144.825 -3.6068 -0.993025 0
M  V30 1519 H 146.158 -4.74017 -1.32548 0
M  V30 1520 N 147.81 0.181792 -1.56548 0
M  V30 1521 C 149.056 0.901431 -1.81665 0
M  V30 1522 C 149.389 1.82347 -0.668075 0
M  V30 1523 O 148.664 1.91669 0.330615 0
M  V30 1524 C 148.947 1.70618 -3.17115 0
M  V30 1525 C 148.8 0.807964 -4.42484 0
M  V30 1526 C 150.119 2.67605 -3.49393 0
M  V30 1527 H 147.238 0.32627 -0.660846 0
M  V30 1528 H 149.88 0.168134 -1.89255 0
M  V30 1529 H 148.03 2.33133 -3.10775 0
M  V30 1530 H 149.702 0.19649 -4.60881 0
M  V30 1531 H 147.945 0.115411 -4.33646 0
M  V30 1532 H 148.616 1.40632 -5.33785 0
M  V30 1533 H 151.092 2.15218 -3.56118 0
M  V30 1534 H 149.968 3.20985 -4.45264 0
M  V30 1535 H 150.229 3.47298 -2.73563 0
M  V30 1536 N 149.288 1.51039 0.449983 0
M  V30 1537 C 150.251 1.70863 1.5277 0
M  V30 1538 C 151.251 0.578846 1.5002 0
M  V30 1539 O 152.441 0.846213 1.52266 0
M  V30 1540 C 149.573 1.75341 2.9235 0
M  V30 1541 H 150.766 2.67034 1.36502 0
M  V30 1542 H 148.319 1.40838 0.677812 0
M  V30 1543 H 149.054 0.809383 3.14037 0
M  V30 1544 H 148.839 2.57436 2.95752 0
M  V30 1545 H 150.329 1.92559 3.70555 0
M  V30 1546 N 150.766 -0.704594 1.40972 0
M  V30 1547 C 151.713 -1.81862 1.42109 0
M  V30 1548 C 152.683 -1.63781 0.276593 0
M  V30 1549 O 153.868 -1.84759 0.4763 0
M  V30 1550 C 151.008 -3.19669 1.30022 0
M  V30 1551 C 150.121 -3.49246 2.54267 0
M  V30 1552 C 149.256 -4.76618 2.3454 0
M  V30 1553 C 148.295 -4.99133 3.54306 0
M  V30 1554 N 147.432 -6.17726 3.33706 0
M  V30 1555 H 152.272 -1.80226 2.37324 0
M  V30 1556 H 149.809 -0.880238 1.17857 0
M  V30 1557 H 151.767 -3.99263 1.21018 0
M  V30 1558 H 150.397 -3.20506 0.384192 0
M  V30 1559 H 149.449 -2.64125 2.73756 0
M  V30 1560 H 150.761 -3.61788 3.43381 0
M  V30 1561 H 149.915 -5.64249 2.22952 0
M  V30 1562 H 148.654 -4.66305 1.42867 0
M  V30 1563 H 147.659 -4.09953 3.66359 0
M  V30 1564 H 148.884 -5.11311 4.4692 0
M  V30 1565 H 146.83 -6.08642 2.44725 0
M  V30 1566 H 146.747 -6.30995 4.16391 0
M  V30 1567 H 148.015 -7.08115 3.25873 0
M  V30 1568 N 152.244 -1.26651 -0.937939 0
M  V30 1569 C 153.174 -1.10993 -2.05433 0
M  V30 1570 C 154.155 -0.0142161 -1.70094 0
M  V30 1571 O 155.34 -0.186837 -1.93299 0
M  V30 1572 C 152.47 -0.745561 -3.39203 0
M  V30 1573 C 151.424 -1.79337 -3.88616 0
M  V30 1574 C 150.75 -1.28324 -5.19073 0
M  V30 1575 C 152.05 -3.19553 -4.13138 0
M  V30 1576 H 153.744 -2.0438 -2.1879 0
M  V30 1577 H 151.29 -0.984041 -1.05131 0
M  V30 1578 H 153.243 -0.622888 -4.16771 0
M  V30 1579 H 151.967 0.22401 -3.25831 0
M  V30 1580 H 150.626 -1.90477 -3.13231 0
M  V30 1581 H 150.274 -0.303414 -5.02084 0
M  V30 1582 H 149.974 -1.98369 -5.53103 0
M  V30 1583 H 151.498 -1.1733 -5.99221 0
M  V30 1584 H 152.912 -3.11471 -4.81309 0
M  V30 1585 H 151.309 -3.87218 -4.58457 0
M  V30 1586 H 152.379 -3.65368 -3.18801 0
M  V30 1587 N 153.722 1.14298 -1.08507 0
M  V30 1588 C 154.999 1.81544 -0.728088 0
M  V30 1589 C 155.379 1.95838 0.78808 0
M  V30 1590 O 154.727 1.51904 1.70697 0
M  V30 1591 C 154.937 3.17169 -1.45619 0
M  V30 1592 C 156.285 3.9265 -1.61591 0
M  V30 1593 O 157.309 3.26762 -1.41793 0
M  V30 1594 O 156.168 5.10807 -1.94263 0
M  V30 1595 H 153.262 0.78491 -0.260471 0
M  V30 1596 H 155.808 1.21307 -1.18671 0
M  V30 1597 H 154.58 3.01934 -2.489 0
M  V30 1598 H 154.203 3.851 -0.989124 0
M  V30 1599 N 155.201 0.870884 1.31352 0
M  V30 1600 C 156.447 0.482987 1.96965 0
M  V30 1601 C 156.78 -0.962462 1.68672 0
M  V30 1602 O 156.055 -1.6779 0.98371 0
M  V30 1603 C 156.338 0.741752 3.52378 0
M  V30 1604 C 156.191 2.2368 3.9024 0
M  V30 1605 C 157.51 0.208838 4.39604 0
M  V30 1606 H 154.629 0.176955 0.715441 0
M  V30 1607 H 157.271 1.09229 1.55464 0
M  V30 1608 H 155.421 0.223149 3.87859 0
M  V30 1609 H 157.093 2.82273 3.64856 0
M  V30 1610 H 155.336 2.70901 3.38814 0
M  V30 1611 H 156.007 2.3685 4.98604 0
M  V30 1612 H 158.483 0.652529 4.10952 0
M  V30 1613 H 157.359 0.419336 5.47296 0
M  V30 1614 H 157.62 -0.889275 4.33064 0
M  V30 1615 N 156.679 -1.44442 0.630414 0
M  V30 1616 C 157.925 -2.02351 0.134816 0
M  V30 1617 C 158.258 -1.4947 -1.23986 0
M  V30 1618 O 157.533 -0.678475 -1.82283 0
M  V30 1619 C 157.816 -3.59898 0.120707 0
M  V30 1620 C 157.669 -4.23063 1.52767 0
M  V30 1621 C 158.988 -4.36585 -0.555127 0
M  V30 1622 H 156.107 -0.73527 0.0504646 0
M  V30 1623 H 158.749 -1.72022 0.806751 0
M  V30 1624 H 156.899 -3.85868 -0.451477 0
M  V30 1625 H 158.571 -4.08202 2.14869 0
M  V30 1626 H 156.814 -3.80586 2.08175 0
M  V30 1627 H 157.485 -5.32071 1.46984 0
M  V30 1628 H 159.961 -4.16044 -0.0685429 0
M  V30 1629 H 158.837 -5.46294 -0.534185 0
M  V30 1630 H 159.098 -4.11138 -1.62535 0
M  V30 1631 N 158.157 -0.370918 -1.53173 0
M  V30 1632 C 159.104 0.473035 -2.259 0
M  V30 1633 C 160.074 1.07311 -1.26781 0
M  V30 1634 O 161.259 1.1046 -1.55574 0
M  V30 1635 C 158.399 1.60405 -3.05556 0
M  V30 1636 C 157.512 1.02863 -4.19575 0
M  V30 1637 C 156.647 2.12918 -4.86661 0
M  V30 1638 C 155.686 1.52869 -5.92704 0
M  V30 1639 N 154.823 2.56779 -6.53459 0
M  V30 1640 H 159.663 -0.153649 -2.97604 0
M  V30 1641 H 157.2 -0.0875946 -1.46839 0
M  V30 1642 H 159.158 2.27034 -3.50016 0
M  V30 1643 H 157.788 2.20131 -2.36097 0
M  V30 1644 H 156.84 0.252465 -3.79561 0
M  V30 1645 H 158.152 0.549642 -4.95762 0
M  V30 1646 H 157.306 2.87356 -5.34333 0
M  V30 1647 H 156.045 2.6417 -4.09958 0
M  V30 1648 H 155.05 0.769479 -5.44389 0
M  V30 1649 H 156.275 1.02435 -6.7133 0
M  V30 1650 H 154.221 3.07235 -5.79606 0
M  V30 1651 H 154.138 2.13583 -7.25202 0
M  V30 1652 H 155.406 3.30903 -7.05779 0
M  V30 1653 N 159.635 1.57281 -0.100228 0
M  V30 1654 C 160.565 2.17328 0.853857 0
M  V30 1655 C 161.546 1.10804 1.2906 0
M  V30 1656 O 162.731 1.38963 1.35657 0
M  V30 1657 C 159.861 2.75772 2.11109 0
M  V30 1658 C 158.815 3.87713 1.81279 0
M  V30 1659 C 158.141 4.32882 3.13874 0
M  V30 1660 C 159.441 5.10677 1.09574 0
M  V30 1661 H 161.135 2.97305 0.353545 0
M  V30 1662 H 158.681 1.43009 0.168612 0
M  V30 1663 H 160.634 3.16433 2.78296 0
M  V30 1664 H 159.358 1.93057 2.63432 0
M  V30 1665 H 158.017 3.476 1.16489 0
M  V30 1666 H 157.665 3.47051 3.64095 0
M  V30 1667 H 157.365 5.08358 2.94696 0
M  V30 1668 H 158.889 4.7618 3.82211 0
M  V30 1669 H 160.303 5.48474 1.66879 0
M  V30 1670 H 158.7 5.91615 1.00557 0
M  V30 1671 H 159.77 4.84835 0.0793299 0
M  V30 1672 N 161.113 -0.173488 1.56642 0
M  V30 1673 C 162.043 -1.2171 1.99271 0
M  V30 1674 C 163.024 -1.46289 0.867959 0
M  V30 1675 O 164.209 -1.5766 1.13388 0
M  V30 1676 C 161.339 -2.55651 2.35074 0
M  V30 1677 C 160.293 -2.45645 3.50489 0
M  V30 1678 C 159.619 -3.84056 3.72028 0
M  V30 1679 C 160.919 -1.96302 4.84007 0
M  V30 1680 H 162.613 -0.86275 2.867 0
M  V30 1681 H 160.159 -0.413571 1.37933 0
M  V30 1682 H 162.112 -3.2886 2.63494 0
M  V30 1683 H 160.836 -2.92869 1.44552 0
M  V30 1684 H 159.495 -1.7489 3.22194 0
M  V30 1685 H 159.143 -4.18664 2.788 0
M  V30 1686 H 158.843 -3.7823 4.49684 0
M  V30 1687 H 160.367 -4.58854 4.02846 0
M  V30 1688 H 161.781 -2.59284 5.11317 0
M  V30 1689 H 160.178 -2.01429 5.65284 0
M  V30 1690 H 161.248 -0.917226 4.76146 0
M  V30 1691 N 162.591 -1.51276 -0.441967 0
M  V30 1692 C 163.821 -1.67273 -1.21257 0
M  V30 1693 C 164.229 -0.367624 -1.85594 0
M  V30 1694 O 163.572 0.663349 -1.71305 0
M  V30 1695 C 163.634 -2.72807 -2.34129 0
M  V30 1696 C 163.298 -4.1554 -1.90198 0
M  V30 1697 C 164.295 -5.00471 -1.40801 0
M  V30 1698 C 161.98 -4.61616 -1.9803 0
M  V30 1699 C 163.974 -6.29536 -0.998174 0
M  V30 1700 C 161.661 -5.90679 -1.56658 0
M  V30 1701 C 162.659 -6.74466 -1.07633 0
M  V30 1702 O 162.347 -8.01116 -0.668459 0
M  V30 1703 H 162.079 -0.564614 -0.371734 0
M  V30 1704 H 164.633 -1.9843 -0.530521 0
M  V30 1705 H 162.863 -2.36954 -3.05597 0
M  V30 1706 H 164.552 -2.77729 -2.96009 0
M  V30 1707 H 165.318 -4.66079 -1.34148 0
M  V30 1708 H 161.197 -3.96526 -2.35135 0
M  V30 1709 H 164.741 -6.94885 -0.61482 0
M  V30 1710 H 160.638 -6.24586 -1.62979 0
M  V30 1711 H 161.406 -8.14633 -0.794722 0
M  V30 1712 N 164.069 0.697108 -1.41344 0
M  V30 1713 C 165.017 1.83237 -1.43272 0
M  V30 1714 C 166.011 1.66522 -0.310947 0
M  V30 1715 O 167.217 1.73402 -0.482899 0
M  V30 1716 H 163.592 0.603802 -0.448249 0
M  V30 1717 H 165.563 1.78727 -2.38954 0
M  V30 1718 C 164.312 3.21245 -1.33029 0
M  V30 1719 H 163.635 3.34723 -2.18633 0
M  V30 1720 H 165.075 4.00763 -1.38439 0
M  V30 1721 C 163.534 3.36873 -0.0424635 0
M  V30 1722 O 164.064 3.91177 0.913421 0
M  V30 1723 N 162.27 2.90581 0.0331145 0
M  V30 1724 H 161.817 2.46577 -0.745506 0
M  V30 1725 H 161.775 3.01416 0.894199 0
M  V30 1726 N 165.547 1.27147 0.931209 0
M  V30 1727 C 166.457 1.11372 2.06478 0
M  V30 1728 C 167.473 0.044645 1.73943 0
M  V30 1729 O 168.649 0.250417 1.99837 0
M  V30 1730 C 165.714 0.758838 3.38294 0
M  V30 1731 C 164.775 1.90841 3.84549 0
M  V30 1732 C 164.008 1.57036 5.10074 0
M  V30 1733 O 164.231 0.476645 5.68405 0
M  V30 1734 O 163.165 2.40839 5.51616 0
M  V30 1735 H 166.991 2.06493 2.22698 0
M  V30 1736 H 164.576 1.06301 1.04978 0
M  V30 1737 H 166.458 0.574098 4.17471 0
M  V30 1738 H 165.133 -0.162879 3.2329 0
M  V30 1739 H 164.04 2.14819 3.06274 0
M  V30 1740 H 165.373 2.81021 4.04089 0
M  V30 1741 N 167.025 -1.13721 1.09112 0
M  V30 1742 C 167.957 -2.1871 0.685467 0
M  V30 1743 C 168.97 -1.60527 -0.271068 0
M  V30 1744 O 170.159 -1.78407 -0.0576148 0
M  V30 1745 C 167.259 -3.38898 -0.0111255 0
M  V30 1746 C 166.432 -4.26597 0.966131 0
M  V30 1747 C 165.491 -5.25324 0.303539 0
M  V30 1748 O 164.517 -5.61213 0.950177 0
M  V30 1749 N 165.719 -5.72779 -0.943651 0
M  V30 1750 H 168.484 -2.54126 1.58871 0
M  V30 1751 H 166.045 -1.29012 0.978143 0
M  V30 1752 H 168.037 -4.02014 -0.465517 0
M  V30 1753 H 166.607 -3.01747 -0.816565 0
M  V30 1754 H 165.827 -3.60306 1.59917 0
M  V30 1755 H 167.115 -4.82048 1.6281 0
M  V30 1756 H 166.513 -5.45762 -1.48862 0
M  V30 1757 H 165.07 -6.37847 -1.34142 0
M  V30 1758 N 168.503 -0.877838 -1.30888 0
M  V30 1759 C 169.75 -0.492696 -1.96415 0
M  V30 1760 C 170.078 0.956671 -1.69346 0
M  V30 1761 O 169.333 1.68993 -0.986913 0
M  V30 1762 C 169.632 -0.705748 -3.50363 0
M  V30 1763 C 169.298 -2.1291 -3.97467 0
M  V30 1764 C 167.96 -2.51834 -4.1004 0
M  V30 1765 C 170.312 -3.05702 -4.22132 0
M  V30 1766 C 167.64 -3.82775 -4.44635 0
M  V30 1767 C 169.992 -4.36166 -4.58194 0
M  V30 1768 C 168.656 -4.74993 -4.68975 0
M  V30 1769 H 167.926 -0.18029 -0.718733 0
M  V30 1770 H 170.573 -1.11233 -1.55883 0
M  V30 1771 H 168.878 -0.00303058 -3.918 0
M  V30 1772 H 170.575 -0.387456 -3.99124 0
M  V30 1773 H 167.165 -1.81694 -3.88182 0
M  V30 1774 H 171.349 -2.76853 -4.11906 0
M  V30 1775 H 166.605 -4.12609 -4.51181 0
M  V30 1776 H 170.779 -5.08111 -4.76231 0
M  V30 1777 H 168.406 -5.76495 -4.95537 0
M  V30 1778 N 169.982 1.44106 -0.638065 0
M  V30 1779 C 170.945 2.29138 0.0531013 0
M  V30 1780 C 171.945 1.41409 0.765506 0
M  V30 1781 O 173.135 1.63206 0.609046 0
M  V30 1782 C 170.267 3.23144 1.08584 0
M  V30 1783 H 171.46 2.91739 -0.694883 0
M  V30 1784 H 169.013 1.51134 -0.398538 0
M  V30 1785 H 169.748 2.65408 1.86357 0
M  V30 1786 H 169.533 3.87804 0.578852 0
M  V30 1787 H 171.023 3.87004 1.56899 0
M  V30 1788 N 171.46 0.379036 1.52974 0
M  V30 1789 C 172.706 -0.206727 2.01744 0
M  V30 1790 C 173.039 -1.47314 1.26539 0
M  V30 1791 O 172.314 -1.91084 0.362903 0
M  V30 1792 C 172.597 -0.485066 3.56818 0
M  V30 1793 C 172.45 0.795919 4.42702 0
M  V30 1794 C 173.769 -1.28003 4.21074 0
M  V30 1795 H 170.888 -0.0736607 0.73331 0
M  V30 1796 H 173.53 0.506581 1.83122 0
M  V30 1797 H 171.68 -1.09272 3.72816 0
M  V30 1798 H 173.352 1.43307 4.38476 0
M  V30 1799 H 171.595 1.41344 4.10127 0
M  V30 1800 H 172.266 0.555947 5.49193 0
M  V30 1801 H 174.742 -0.765867 4.08991 0
M  V30 1802 H 173.618 -1.44352 5.29579 0
M  V30 1803 H 173.879 -2.29236 3.78026 0
M  V30 1804 N 172.938 -1.57226 0.108567 0
M  V30 1805 C 173.87 -2.11809 -0.875752 0
M  V30 1806 C 174.883 -1.05839 -1.23701 0
M  V30 1807 O 176.072 -1.33245 -1.18778 0
M  V30 1808 C 173.172 -2.59411 -2.18081 0
M  V30 1809 C 172.345 -3.89364 -1.99284 0
M  V30 1810 C 171.404 -4.22672 -3.13424 0
M  V30 1811 O 170.43 -4.91668 -2.86795 0
M  V30 1812 N 171.632 -3.79154 -4.3957 0
M  V30 1813 H 174.397 -2.9689 -0.409477 0
M  V30 1814 H 171.958 -1.61721 -0.076158 0
M  V30 1815 H 173.95 -2.7873 -2.93414 0
M  V30 1816 H 172.52 -1.79268 -2.5609 0
M  V30 1817 H 171.74 -3.79059 -1.08203 0
M  V30 1818 H 173.028 -4.74358 -1.84017 0
M  V30 1819 H 172.426 -3.23486 -4.64083 0
M  V30 1820 H 170.983 -4.03602 -5.11809 0
M  V30 1821 N 174.416 0.165178 -1.56732 0
M  V30 1822 C 175.664 0.879068 -1.8198 0
M  V30 1823 C 175.985 1.82514 -0.686561 0
M  V30 1824 O 175.255 1.93694 0.293146 0
M  V30 1825 H 173.835 0.327608 -0.671329 0
M  V30 1826 H 176.497 0.163526 -1.94213 0
M  V30 1827 H 175.593 1.45228 -2.76252 0
M  V30 1828 N 175.894 1.51508 0.433938 0
M  V30 1829 C 176.824 1.76016 1.53429 0
M  V30 1830 C 177.805 0.610112 1.58782 0
M  V30 1831 O 178.99 0.853177 1.74455 0
M  V30 1832 C 176.12 1.88831 2.9148 0
M  V30 1833 C 175.074 3.04288 3.00987 0
M  V30 1834 C 174.4 3.0229 4.4105 0
M  V30 1835 C 175.7 4.44193 2.74754 0
M  V30 1836 H 177.394 2.68152 1.33171 0
M  V30 1837 H 174.94 1.29035 0.639214 0
M  V30 1838 H 176.893 2.04559 3.6842 0
M  V30 1839 H 175.617 0.933455 3.12976 0
M  V30 1840 H 174.276 2.8827 2.26486 0
M  V30 1841 H 173.924 2.04576 4.59519 0
M  V30 1842 H 173.624 3.79822 4.4834 0
M  V30 1843 H 175.148 3.20116 5.1996 0
M  V30 1844 H 176.562 4.60544 3.41426 0
M  V30 1845 H 174.959 5.23457 2.9345 0
M  V30 1846 H 176.029 4.53996 1.70339 0
M  V30 1847 N 177.372 -0.689602 1.41712 0
M  V30 1848 C 178.302 -1.81577 1.46806 0
M  V30 1849 C 179.283 -1.66945 0.326105 0
M  V30 1850 O 180.468 -1.86588 0.538377 0
M  V30 1851 C 177.598 -3.19762 1.35535 0
M  V30 1852 C 176.552 -3.49107 2.47605 0
M  V30 1853 C 175.878 -4.86711 2.21397 0
M  V30 1854 C 177.178 -3.47483 3.89939 0
M  V30 1855 H 178.872 -1.7757 2.41058 0
M  V30 1856 H 176.418 -0.852887 1.16025 0
M  V30 1857 H 178.371 -3.98263 1.3771 0
M  V30 1858 H 177.095 -3.24409 0.377708 0
M  V30 1859 H 175.754 -2.72959 2.44722 0
M  V30 1860 H 175.402 -4.8799 1.21961 0
M  V30 1861 H 175.102 -5.0731 2.96497 0
M  V30 1862 H 176.626 -5.67515 2.25297 0
M  V30 1863 H 178.04 -4.1598 3.94505 0
M  V30 1864 H 176.437 -3.79615 4.64771 0
M  V30 1865 H 177.507 -2.46341 4.17665 0
M  V30 1866 N 178.85 -1.27639 -0.924453 0
M  V30 1867 C 180.266 -1.05113 -1.20097 0
M  V30 1868 C 180.466 0.213262 -2.00368 0
M  V30 1869 O 179.522 0.91787 -2.35226 0
M  V30 1870 C 180.835 -2.29244 -1.94596 0
M  V30 1871 C 182.383 -2.34315 -2.07522 0
M  V30 1872 C 182.858 -3.58183 -2.85427 0
M  V30 1873 N 184.349 -3.5876 -2.92994 0
M  V30 1874 C 185.084 -4.51277 -3.53746 0
M  V30 1875 N 184.58 -5.54102 -4.15863 0
M  V30 1876 N 186.373 -4.38894 -3.51181 0
M  V30 1877 H 178.524 -2.08821 -0.388264 0
M  V30 1878 H 180.787 -0.918568 -0.234385 0
M  V30 1879 H 180.493 -3.21301 -1.43034 0
M  V30 1880 H 180.367 -2.34816 -2.95197 0
M  V30 1881 H 182.754 -1.42762 -2.58269 0
M  V30 1882 H 182.835 -2.32744 -1.06131 0
M  V30 1883 H 182.479 -4.50074 -2.35363 0
M  V30 1884 H 182.409 -3.57006 -3.8711 0
M  V30 1885 H 184.9 -2.84398 -2.4885 0
M  V30 1886 H 185.213 -6.20859 -4.60168 0
M  V30 1887 H 183.558 -5.57941 -4.144 0
M  V30 1888 H 186.749 -3.57772 -3.01856 0
M  V30 1889 H 186.922 -5.11186 -3.98237 0
M  V30 1890 N 180.328 1.1314 -1.09713 0
M  V30 1891 C 181.558 1.88048 -0.855656 0
M  V30 1892 C 181.966 1.79537 0.596919 0
M  V30 1893 O 181.309 1.16196 1.42282 0
M  V30 1894 C 181.371 3.38314 -1.21589 0
M  V30 1895 C 181.035 3.70605 -2.67397 0
M  V30 1896 C 182.032 3.69596 -3.65643 0
M  V30 1897 C 179.717 4.0017 -3.03593 0
M  V30 1898 C 181.711 3.977 -4.9811 0
M  V30 1899 C 179.398 4.27935 -4.36251 0
M  V30 1900 C 180.396 4.26685 -5.33318 0
M  V30 1901 O 180.084 4.53767 -6.63589 0
M  V30 1902 H 179.816 0.60208 -0.307368 0
M  V30 1903 H 182.37 1.44128 -1.46343 0
M  V30 1904 H 180.6 3.82752 -0.551177 0
M  V30 1905 H 182.289 3.94552 -0.953083 0
M  V30 1906 H 183.055 3.46826 -3.39023 0
M  V30 1907 H 178.934 4.00289 -2.2867 0
M  V30 1908 H 182.478 3.9664 -5.73866 0
M  V30 1909 H 178.375 4.50178 -4.62613 0
M  V30 1910 H 179.143 4.71422 -6.69107 0
M  V30 1911 N 181.806 0.884767 1.30421 0
M  V30 1912 C 182.756 0.322846 2.25703 0
M  V30 1913 C 183.74 -0.548582 1.51259 0
M  V30 1914 O 184.932 -0.39304 1.72581 0
M  V30 1915 C 182.061 -0.461787 3.4018 0
M  V30 1916 C 181.147 0.423717 4.21978 0
M  V30 1917 N 181.538 1.52408 4.82292 0
M  V30 1918 C 179.836 0.218795 4.45463 0
M  V30 1919 C 180.537 2.07136 5.43571 0
M  V30 1920 N 179.513 1.36635 5.26148 0
M  V30 1921 H 183.315 1.16363 2.69883 0
M  V30 1922 H 180.829 0.73415 1.44859 0
M  V30 1923 H 182.826 -0.880985 4.07485 0
M  V30 1924 H 181.486 -1.30001 2.9754 0
M  V30 1925 H 182.497 1.90693 4.81515 0
M  V30 1926 H 179.174 -0.582275 4.1342 0
M  V30 1927 H 180.564 2.99538 6.01437 0
M  V30 1928 N 183.284 -1.43765 0.645699 0
M  V30 1929 C 184.512 -2.06253 0.163556 0
M  V30 1930 C 184.927 -1.48352 -1.16778 0
M  V30 1931 O 184.284 -0.611932 -1.71935 0
M  V30 1932 C 184.335 -3.61453 0.0583186 0
M  V30 1933 O 184.056 -4.172 1.33702 0
M  V30 1934 C 185.557 -4.41002 -0.450795 0
M  V30 1935 H 182.777 -0.665413 0.0864077 0
M  V30 1936 H 185.321 -1.84396 0.884222 0
M  V30 1937 H 183.476 -3.82522 -0.612865 0
M  V30 1938 H 183.89 -5.10791 1.19131 0
M  V30 1939 H 185.364 -5.49966 -0.473403 0
M  V30 1940 H 185.841 -4.13488 -1.48068 0
M  V30 1941 H 186.447 -4.24886 0.187637 0
M  V30 1942 N 184.763 -0.387143 -1.52771 0
M  V30 1943 C 185.993 0.195585 -2.05672 0
M  V30 1944 C 186.401 1.41241 -1.25887 0
M  V30 1945 O 185.744 1.81265 -0.298081 0
M  V30 1946 C 185.806 0.632327 -3.53895 0
M  V30 1947 C 185.47 -0.470739 -4.54569 0
M  V30 1948 C 186.467 -1.32746 -5.02667 0
M  V30 1949 C 184.152 -0.637151 -4.98243 0
M  V30 1950 C 186.146 -2.33574 -5.93061 0
M  V30 1951 C 183.833 -1.64877 -5.88438 0
M  V30 1952 C 184.831 -2.49649 -6.35739 0
M  V30 1953 O 184.519 -3.49082 -7.24153 0
M  V30 1954 H 184.251 0.033658 -0.675162 0
M  V30 1955 H 186.805 -0.550221 -1.97893 0
M  V30 1956 H 185.035 1.43008 -3.59285 0
M  V30 1957 H 186.724 1.14048 -3.89548 0
M  V30 1958 H 187.49 -1.21019 -4.69659 0
M  V30 1959 H 183.369 0.0129567 -4.60998 0
M  V30 1960 H 186.913 -2.99777 -6.29904 0
M  V30 1961 H 182.81 -1.76643 -6.2086 0
M  V30 1962 H 183.578 -3.45065 -7.42208 0
M  V30 1963 N 186.241 1.57166 -0.116904 0
M  V30 1964 C 187.204 2.14039 0.819742 0
M  V30 1965 C 188.204 1.07477 1.19605 0
M  V30 1966 O 189.394 1.33263 1.1219 0
M  V30 1967 C 186.526 2.67891 2.10826 0
M  V30 1968 H 187.719 2.98128 0.325511 0
M  V30 1969 H 185.272 1.55739 0.132312 0
M  V30 1970 H 186.007 1.87384 2.64685 0
M  V30 1971 H 185.792 3.45823 1.84793 0
M  V30 1972 H 187.282 3.11809 2.77785 0
M  V30 1973 N 187.719 -0.156864 1.56817 0
M  V30 1974 C 189.135 -0.50916 1.5126 0
M  V30 1975 C 189.335 -1.83897 0.823658 0
M  V30 1976 O 188.391 -2.49469 0.390055 0
M  V30 1977 C 189.704 -0.52857 2.96018 0
M  V30 1978 C 191.252 -0.614771 3.06903 0
M  V30 1979 C 191.727 -0.664938 4.53147 0
M  V30 1980 N 193.218 -0.727433 4.57452 0
M  V30 1981 C 193.953 -0.787067 5.67973 0
M  V30 1982 N 193.449 -0.806649 6.88088 0
M  V30 1983 N 195.242 -0.827195 5.5598 0
M  V30 1984 H 187.393 0.714935 2.00006 0
M  V30 1985 H 189.656 0.259526 0.911784 0
M  V30 1986 H 189.362 0.380154 3.49639 0
M  V30 1987 H 189.236 -1.36998 3.51442 0
M  V30 1988 H 191.623 -1.51392 2.53307 0
M  V30 1989 H 191.704 0.253597 2.5454 0
M  V30 1990 H 191.348 0.230011 5.07379 0
M  V30 1991 H 191.278 -1.54966 5.03282 0
M  V30 1992 H 193.769 -0.719998 3.70978 0
M  V30 1993 H 194.082 -0.853727 7.6807 0
M  V30 1994 H 192.427 -0.774687 6.90669 0
M  V30 1995 H 195.618 -0.808998 4.61056 0
M  V30 1996 H 195.791 -0.870206 6.4213 0
M  V30 1997 N 189.197 -1.51736 -0.425897 0
M  V30 1998 C 190.444 -1.6497 -1.17436 0
M  V30 1999 C 190.772 -0.371445 -1.9092 0
M  V30 2000 O 190.027 0.644963 -1.84767 0
M  V30 2001 C 190.326 -2.81103 -2.20717 0
M  V30 2002 C 189.992 -4.19954 -1.64162 0
M  V30 2003 C 188.654 -4.57725 -1.48462 0
M  V30 2004 C 191.006 -5.06552 -1.22696 0
M  V30 2005 C 188.334 -5.79789 -0.897873 0
M  V30 2006 C 190.686 -6.29205 -0.654464 0
M  V30 2007 C 189.35 -6.6574 -0.484456 0
M  V30 2008 H 188.62 -0.603668 -0.429727 0
M  V30 2009 H 191.267 -1.85798 -0.463829 0
M  V30 2010 H 189.572 -2.54542 -2.97852 0
M  V30 2011 H 191.269 -2.8854 -2.78471 0
M  V30 2012 H 187.859 -3.90181 -1.77361 0
M  V30 2013 H 192.043 -4.77968 -1.33642 0
M  V30 2014 H 187.299 -6.06733 -0.75402 0
M  V30 2015 H 191.473 -6.95643 -0.324694 0
M  V30 2016 H 189.1 -7.60195 -0.0276833 0
M  V30 2017 N 190.675 0.682077 -1.42076 0
M  V30 2018 C 191.923 1.4393 -1.41876 0
M  V30 2019 C 192.244 1.94971 -0.0335599 0
M  V30 2020 O 191.514 1.72591 0.926773 0
M  V30 2021 H 190.094 0.534085 -0.522267 0
M  V30 2022 H 192.756 0.806427 -1.77434 0
M  V30 2023 H 191.852 2.29588 -2.11414 0
M  V30 2024 N 192.153 1.28127 0.917671 0
M  V30 2025 C 193.402 1.14432 1.66097 0
M  V30 2026 C 193.715 -0.307247 1.93172 0
M  V30 2027 O 194.921 -0.565259 2.65551 0
M  V30 2028 C 193.377 2.00015 2.99202 0
M  V30 2029 C 192.985 3.49889 2.79789 0
M  V30 2030 C 194.729 1.94996 3.77064 0
M  V30 2031 C 192.636 4.27636 4.08511 0
M  V30 2032 H 191.566 0.424662 0.62304 0
M  V30 2033 H 194.217 1.52628 1.01868 0
M  V30 2034 H 192.599 1.54672 3.64544 0
M  V30 2035 H 193.773 4.03162 2.23152 0
M  V30 2036 H 192.088 3.56392 2.15345 0
M  V30 2037 H 194.685 2.50354 4.72469 0
M  V30 2038 H 195.028 0.925819 4.05875 0
M  V30 2039 H 195.561 2.38287 3.18534 0
M  V30 2040 H 192.3 5.30615 3.84874 0
M  V30 2041 H 191.82 3.79137 4.64774 0
M  V30 2042 H 193.499 4.37346 4.76799 0
M  V30 2043 N 193.631 -1.12557 1.10312 0
M  V30 2044 C 194.541 -2.21841 0.763142 0
M  V30 2045 C 195.557 -1.72354 -0.238801 0
M  V30 2046 O 196.733 -2.01249 -0.0778746 0
M  V30 2047 C 193.798 -3.46131 0.198632 0
M  V30 2048 C 192.859 -4.10464 1.25769 0
M  V30 2049 C 192.092 -5.28821 0.72002 0
M  V30 2050 O 192.315 -5.6859 -0.453993 0
M  V30 2051 O 191.249 -5.83437 1.47935 0
M  V30 2052 H 195.075 -2.53312 1.67532 0
M  V30 2053 H 192.66 -1.20867 0.878157 0
M  V30 2054 H 194.542 -4.2125 -0.112401 0
M  V30 2055 H 193.217 -3.16338 -0.686419 0
M  V30 2056 H 192.124 -3.3713 1.62156 0
M  V30 2057 H 193.457 -4.44408 2.11571 0
M  V30 2058 N 195.109 -0.891671 -1.2995 0
M  V30 2059 C 196.358 -0.509521 -1.95158 0
M  V30 2060 C 196.671 0.947388 -1.71125 0
M  V30 2061 O 197.877 1.43669 -2.30372 0
M  V30 2062 C 196.333 -0.860315 -3.49466 0
M  V30 2063 C 195.941 -2.33545 -3.8231 0
M  V30 2064 C 197.685 -0.547687 -4.20952 0
M  V30 2065 C 195.592 -2.62752 -5.29826 0
M  V30 2066 H 194.522 -0.18682 -0.730489 0
M  V30 2067 H 197.173 -1.08756 -1.47798 0
M  V30 2068 H 195.555 -0.211285 -3.95436 0
M  V30 2069 H 196.729 -3.02936 -3.47227 0
M  V30 2070 H 195.044 -2.61629 -3.23944 0
M  V30 2071 H 197.641 -0.742854 -5.29515 0
M  V30 2072 H 197.984 0.51332 -4.13123 0
M  V30 2073 H 198.517 -1.1542 -3.80688 0
M  V30 2074 H 195.256 -3.6762 -5.42712 0
M  V30 2075 H 194.776 -1.97977 -5.66185 0
M  V30 2076 H 196.455 -2.48601 -5.97333 0
M  V30 2077 N 196.587 1.43421 -0.653314 0
M  V30 2078 C 197.519 2.29071 0.0769134 0
M  V30 2079 C 198.532 1.42513 0.787017 0
M  V30 2080 O 199.721 1.66449 0.644757 0
M  V30 2081 C 196.821 3.19436 1.13199 0
M  V30 2082 C 195.994 4.34533 0.500006 0
M  V30 2083 C 195.053 5.05771 1.45198 0
M  V30 2084 O 194.079 5.61037 0.960538 0
M  V30 2085 N 195.281 5.0928 2.78594 0
M  V30 2086 H 198.046 2.92382 -0.658235 0
M  V30 2087 H 195.607 1.54112 -0.496104 0
M  V30 2088 H 197.599 3.63958 1.76964 0
M  V30 2089 H 196.169 2.57724 1.7691 0
M  V30 2090 H 195.389 3.92925 -0.316738 0
M  V30 2091 H 196.677 5.08766 0.0588345 0
M  V30 2092 H 196.075 4.65751 3.2108 0
M  V30 2093 H 194.632 5.57519 3.37662 0
M  V30 2094 N 198.065 0.39524 1.52563 0
M  V30 2095 C 199.311 -0.185318 2.01952 0
M  V30 2096 C 199.644 -1.45964 1.28095 0
M  V30 2097 O 198.919 -1.90689 0.38315 0
M  V30 2098 C 199.202 -0.447193 3.57312 0
M  V30 2099 C 199.055 0.842828 4.41833 0
M  V30 2100 C 200.374 -1.23529 4.22408 0
M  V30 2101 H 197.493 -0.0658788 0.73405 0
M  V30 2102 H 200.135 0.525975 1.82575 0
M  V30 2103 H 198.285 -1.05312 3.73954 0
M  V30 2104 H 199.957 1.4795 4.36931 0
M  V30 2105 H 198.2 1.45686 4.08605 0
M  V30 2106 H 198.871 0.614165 5.48573 0
M  V30 2107 H 201.347 -0.722445 4.0978 0
M  V30 2108 H 200.223 -1.38727 5.3108 0
M  V30 2109 H 200.484 -2.25213 3.80436 0
M  V30 2110 N 199.544 -1.57102 0.125237 0
M  V30 2111 C 200.476 -2.12726 -0.853237 0
M  V30 2112 C 201.489 -1.07145 -1.22571 0
M  V30 2113 O 202.678 -1.34497 -1.17358 0
M  V30 2114 C 199.778 -2.61709 -2.15317 0
M  V30 2115 C 198.951 -3.91456 -1.95143 0
M  V30 2116 C 198.01 -4.25973 -3.08923 0
M  V30 2117 O 197.036 -4.94682 -2.81564 0
M  V30 2118 N 198.238 -3.83795 -4.35524 0
M  V30 2119 H 201.003 -2.97307 -0.377964 0
M  V30 2120 H 198.564 -1.61792 -0.0590011 0
M  V30 2121 H 200.556 -2.81826 -2.90441 0
M  V30 2122 H 199.126 -1.81974 -2.54174 0
M  V30 2123 H 198.346 -3.80185 -1.04177 0
M  V30 2124 H 199.634 -4.76283 -1.78976 0
M  V30 2125 H 199.032 -3.2839 -4.60626 0
M  V30 2126 H 197.589 -4.09008 -5.07499 0
M  V30 2127 N 201.022 0.148545 -1.56898 0
M  V30 2128 C 202.271 0.85984 -1.82454 0
M  V30 2129 C 202.584 1.82406 -0.706229 0
M  V30 2130 O 203.79 2.57938 -0.847349 0
M  V30 2131 C 202.246 1.57967 -3.2338 0
M  V30 2132 C 201.854 0.65794 -4.43142 0
M  V30 2133 C 203.598 2.27784 -3.58211 0
M  V30 2134 C 201.505 1.3793 -5.75091 0
M  V30 2135 H 200.435 0.324834 -0.68044 0
M  V30 2136 H 203.086 0.112588 -1.83154 0
M  V30 2137 H 201.468 2.37249 -3.17063 0
M  V30 2138 H 202.642 -0.0995497 -4.60692 0
M  V30 2139 H 200.957 0.0682643 -4.16344 0
M  V30 2140 H 203.554 2.8239 -4.54048 0
M  V30 2141 H 203.897 3.04204 -2.84193 0
M  V30 2142 H 204.43 1.55421 -3.66182 0
M  V30 2143 H 201.169 0.656982 -6.52199 0
M  V30 2144 H 200.689 2.10954 -5.61479 0
M  V30 2145 H 202.368 1.92063 -6.17835 0
M  V30 2146 N 202.5 1.5196 0.417844 0
M  V30 2147 C 203.448 1.75278 1.52907 0
M  V30 2148 C 204.442 0.619611 1.57662 0
M  V30 2149 O 205.648 0.801457 1.61173 0
M  V30 2150 H 202.023 0.554141 0.508362 0
M  V30 2151 H 203.994 2.68389 1.30422 0
M  V30 2152 C 202.743 1.91262 2.90369 0
M  V30 2153 H 202.066 2.77872 2.8745 0
M  V30 2154 H 203.506 2.11581 3.67436 0
M  V30 2155 C 201.965 0.677431 3.30019 0
M  V30 2156 O 202.495 -0.158799 4.01386 0
M  V30 2157 N 200.701 0.515851 2.85985 0
M  V30 2158 H 200.248 1.19744 2.28077 0
M  V30 2159 H 200.206 -0.309315 3.12875 0
M  V30 2160 N 203.978 -0.674533 1.42435 0
M  V30 2161 C 205.389 -1.25514 1.38214 0
M  V30 2162 C 205.74 -1.96055 0.0755464 0
M  V30 2163 O 204.865 -2.00028 -0.8257 0
M  V30 2164 C 205.46 -2.28269 2.50357 0
M  V30 2165 C 204.019 -2.81856 2.49467 0
M  V30 2166 C 203.166 -1.56182 2.29134 0
M  V30 2167 H 206.117 -0.467902 1.51646 0
M  V30 2168 H 206.138 -3.10009 2.20624 0
M  V30 2169 H 205.65 -1.769 3.45439 0
M  V30 2170 H 203.751 -3.37346 1.58204 0
M  V30 2171 H 203.864 -3.30854 3.46515 0
M  V30 2172 H 202.228 -1.82761 1.774 0
M  V30 2173 H 203.011 -1.06778 3.26272 0
M  V30 2174 N 205.456 -1.28612 -0.910864 0
M  V30 2175 C 206.684 -1.18792 -1.69399 0
M  V30 2176 C 207.099 0.253039 -1.87097 0
M  V30 2177 O 206.456 1.17071 -1.40003 0
M  V30 2178 C 206.507 -1.88511 -3.08457 0
M  V30 2179 O 206.228 -3.26979 -2.91576 0
M  V30 2180 C 207.729 -1.85029 -4.02839 0
M  V30 2181 H 204.949 -0.412233 -0.529438 0
M  V30 2182 H 207.493 -1.69788 -1.13984 0
M  V30 2183 H 205.648 -1.41379 -3.60681 0
M  V30 2184 H 206.062 -3.61936 -3.79608 0
M  V30 2185 H 207.536 -2.38395 -4.97867 0
M  V30 2186 H 208.013 -0.823303 -4.31414 0
M  V30 2187 H 208.619 -2.31853 -3.56545 0
M  V30 2188 N 206.934 1.1197 -1.10907 0
M  V30 2189 C 208.345 1.65114 -0.871446 0
M  V30 2190 C 208.696 1.86885 0.597353 0
M  V30 2191 O 207.821 1.59896 1.45816 0
M  V30 2192 C 208.416 2.99944 -1.5754 0
M  V30 2193 C 206.975 3.50018 -1.38435 0
M  V30 2194 C 206.122 2.24941 -1.62164 0
M  V30 2195 H 209.073 0.956851 -1.2661 0
M  V30 2196 H 209.094 3.66651 -1.01721 0
M  V30 2197 H 208.606 2.84067 -2.64438 0
M  V30 2198 H 206.707 3.71071 -0.337214 0
M  V30 2199 H 206.82 4.29165 -2.12965 0
M  V30 2200 H 205.184 2.3229 -1.04467 0
M  V30 2201 H 205.967 2.11612 -2.70324 0
M  V30 2202 N 208.412 0.89855 1.29475 0
M  V30 2203 C 209.659 0.523882 1.95606 0
M  V30 2204 C 209.987 -0.929608 1.70847 0
M  V30 2205 O 209.242 -1.67401 1.01367 0
M  V30 2206 C 209.541 0.761398 3.49195 0
M  V30 2207 C 209.207 2.19207 3.94029 0
M  V30 2208 C 207.869 2.58326 4.05982 0
M  V30 2209 C 210.221 3.12379 4.17216 0
M  V30 2210 C 207.549 3.898 4.38489 0
M  V30 2211 C 209.901 4.43401 4.51197 0
M  V30 2212 C 208.565 4.82394 4.61359 0
M  V30 2213 H 207.835 0.191702 0.715773 0
M  V30 2214 H 210.482 1.13699 1.54094 0
M  V30 2215 H 208.787 0.0653622 3.91745 0
M  V30 2216 H 210.484 0.450904 3.98457 0
M  V30 2217 H 207.074 1.87846 3.85242 0
M  V30 2218 H 211.258 2.83371 4.07449 0
M  V30 2219 H 206.514 4.19734 4.44559 0
M  V30 2220 H 210.688 5.15623 4.68087 0
M  V30 2221 H 208.315 5.84306 4.86303 0
M  V30 2222 N 209.89 -1.43072 0.660911 0
M  V30 2223 C 210.822 -2.29108 -0.0647641 0
M  V30 2224 C 211.835 -1.42928 -0.779448 0
M  V30 2225 O 213.024 -1.66788 -0.635921 0
M  V30 2226 C 210.124 -3.20032 -1.11503 0
M  V30 2227 C 209.297 -4.34792 -0.476955 0
M  V30 2228 C 208.356 -5.06534 -1.42513 0
M  V30 2229 O 207.382 -5.61538 -0.930771 0
M  V30 2230 N 208.584 -5.1075 -2.75889 0
M  V30 2231 H 211.349 -2.92029 0.673731 0
M  V30 2232 H 208.91 -1.53846 0.50427 0
M  V30 2233 H 210.902 -3.64892 -1.75032 0
M  V30 2234 H 209.472 -2.58658 -1.75541 0
M  V30 2235 H 208.692 -3.92752 0.337572 0
M  V30 2236 H 209.98 -5.0879 -0.0318525 0
M  V30 2237 H 209.378 -4.67447 -3.18606 0
M  V30 2238 H 207.935 -5.59302 -3.347 0
M  V30 2239 N 211.368 -0.403325 -1.52352 0
M  V30 2240 C 212.3 0.4603 -2.2453 0
M  V30 2241 C 213.313 1.01505 -1.27282 0
M  V30 2242 O 214.502 0.914982 -1.53266 0
M  V30 2243 C 211.602 1.65208 -2.95905 0
M  V30 2244 C 210.775 1.22224 -4.19976 0
M  V30 2245 C 209.834 2.28028 -4.74226 0
M  V30 2246 O 208.86 1.88857 -5.36956 0
M  V30 2247 N 210.062 3.6012 -4.55295 0
M  V30 2248 H 212.827 -0.158156 -2.99282 0
M  V30 2249 H 210.388 -0.230402 -1.60252 0
M  V30 2250 H 212.38 2.35541 -3.29093 0
M  V30 2251 H 210.95 2.17658 -2.24374 0
M  V30 2252 H 210.17 0.34725 -3.92668 0
M  V30 2253 H 211.458 0.911924 -5.00561 0
M  V30 2254 H 210.856 3.94698 -4.05253 0
M  V30 2255 H 209.413 4.26447 -4.92936 0
M  V30 2256 N 212.846 1.57033 -0.133567 0
M  V30 2257 C 214.094 1.953 0.519848 0
M  V30 2258 C 214.415 1.01866 1.66278 0
M  V30 2259 O 213.685 0.0776513 1.95746 0
M  V30 2260 H 212.265 0.721091 0.195032 0
M  V30 2261 H 214.927 1.93809 -0.205921 0
M  V30 2262 H 214.023 2.98695 0.904854 0
M  V30 2263 N 214.325 -0.140222 1.56975 0
M  V30 2264 C 215.573 -0.850005 1.83356 0
M  V30 2265 C 215.894 -1.81399 0.71551 0
M  V30 2266 O 215.164 -1.94136 -0.262294 0
M  V30 2267 H 213.744 -0.316886 0.676456 0
M  V30 2268 H 216.406 -0.132608 1.94448 0
M  V30 2269 H 215.502 -1.40814 2.78528 0
M  V30 2270 N 215.803 -1.52179 -0.40978 0
M  V30 2271 C 216.733 -1.78435 -1.5061 0
M  V30 2272 C 217.714 -0.635295 -1.57791 0
M  V30 2273 O 218.899 -0.880823 -1.73076 0
M  V30 2274 C 216.029 -1.93444 -2.88439 0
M  V30 2275 C 214.983 -3.09038 -2.96108 0
M  V30 2276 C 214.309 -3.09268 -4.36185 0
M  V30 2277 C 215.609 -4.48508 -2.67652 0
M  V30 2278 H 217.303 -2.70237 -1.28889 0
M  V30 2279 H 214.849 -1.30036 -0.618605 0
M  V30 2280 H 216.802 -2.10394 -3.65119 0
M  V30 2281 H 215.526 -0.983129 -3.11452 0
M  V30 2282 H 214.185 -2.91837 -2.21872 0
M  V30 2283 H 213.833 -2.11861 -4.56206 0
M  V30 2284 H 213.533 -3.86907 -4.42241 0
M  V30 2285 H 215.057 -3.28348 -5.14801 0
M  V30 2286 H 216.471 -4.65918 -3.34056 0
M  V30 2287 H 214.868 -5.28059 -2.85085 0
M  V30 2288 H 215.938 -4.56649 -1.63095 0
M  V30 2289 N 217.281 0.66697 -1.42791 0
M  V30 2290 C 218.53 1.42278 -1.42968 0
M  V30 2291 C 218.843 1.9553 -0.0524489 0
M  V30 2292 O 220.049 2.71414 0.068363 0
M  V30 2293 C 218.505 2.57418 -2.51524 0
M  V30 2294 C 218.113 2.10832 -3.9529 0
M  V30 2295 C 219.857 3.34878 -2.60877 0
M  V30 2296 C 217.764 3.23101 -4.95338 0
M  V30 2297 H 216.694 0.534533 -0.531781 0
M  V30 2298 H 219.345 0.721302 -1.68729 0
M  V30 2299 H 217.727 3.29971 -2.18941 0
M  V30 2300 H 218.901 1.4538 -4.37266 0
M  V30 2301 H 217.216 1.46289 -3.89857 0
M  V30 2302 H 219.813 4.18505 -3.32802 0
M  V30 2303 H 220.156 3.81993 -1.6549 0
M  V30 2304 H 220.689 2.69398 -2.92693 0
M  V30 2305 H 217.428 2.80969 -5.9223 0
M  V30 2306 H 216.948 3.87309 -4.57987 0
M  V30 2307 H 218.627 3.88447 -5.17415 0
M  V30 2308 N 218.759 1.29093 0.90403 0
M  V30 2309 C 219.999 1.18076 1.66845 0
M  V30 2310 C 220.363 -0.26436 1.90171 0
M  V30 2311 O 221.564 -0.497423 2.64157 0
M  V30 2312 C 219.835 1.96722 2.98388 0
M  V30 2313 S 221.394 2.0219 3.89441 0
M  V30 2314 H 218.212 0.421104 0.572881 0
M  V30 2315 H 220.814 1.63322 1.07453 0
M  V30 2316 H 219.518 3.00866 2.7912 0
M  V30 2317 H 219.049 1.52064 3.62823 0
M  V30 2318 H 221.064 1.13545 4.83034 0
M  V30 2319 N 220.237 -1.11381 1.11499 0
M  V30 2320 C 221.2 -2.15622 0.777153 0
M  V30 2321 C 222.2 -1.59504 -0.203779 0
M  V30 2322 O 223.39 -1.74188 0.020782 0
M  V30 2323 C 220.522 -3.40556 0.153116 0
M  V30 2324 H 221.715 -2.47021 1.70061 0
M  V30 2325 H 219.268 -1.26577 0.916952 0
M  V30 2326 H 220.003 -3.14767 -0.780536 0
M  V30 2327 H 219.788 -3.8257 0.859238 0
M  V30 2328 H 221.278 -4.17546 -0.0671044 0
M  V30 2329 N 221.715 -0.905404 -1.28997 0
M  V30 2330 C 222.648 -0.331959 -2.25773 0
M  V30 2331 C 223.626 0.559099 -1.52685 0
M  V30 2332 O 224.81 0.50463 -1.8162 0
M  V30 2333 C 221.937 0.526276 -3.34586 0
M  V30 2334 C 220.983 -0.298249 -4.25456 0
M  V30 2335 S 221.816 -1.69968 -5.0781 0
M  V30 2336 C 222.972 -0.848519 -6.20122 0
M  V30 2337 H 223.205 -1.15222 -2.74064 0
M  V30 2338 H 220.738 -0.706112 -1.37308 0
M  V30 2339 H 222.696 1.01565 -3.97737 0
M  V30 2340 H 221.357 1.32084 -2.84978 0
M  V30 2341 H 220.55 0.357607 -5.0273 0
M  V30 2342 H 220.152 -0.720968 -3.66985 0
M  V30 2343 H 222.444 -0.0744325 -6.77459 0
M  V30 2344 H 223.387 -1.59353 -6.89937 0
M  V30 2345 H 223.795 -0.400383 -5.63078 0
M  V30 2346 N 223.193 1.4272 -0.668489 0
M  V30 2347 C 224.439 2.01923 -0.188419 0
M  V30 2348 C 224.772 1.52704 1.19979 0
M  V30 2349 O 224.047 0.726566 1.8042 0
M  V30 2350 C 224.33 3.59451 -0.216085 0
M  V30 2351 C 224.183 4.18864 -1.6393 0
M  V30 2352 C 225.502 4.37903 0.439179 0
M  V30 2353 H 222.621 0.733674 -0.0699412 0
M  V30 2354 H 225.263 1.69822 -0.852076 0
M  V30 2355 H 223.413 3.86929 0.349012 0
M  V30 2356 H 225.085 4.02362 -2.25616 0
M  V30 2357 H 223.328 3.74933 -2.18193 0
M  V30 2358 H 223.999 5.27987 -1.61039 0
M  V30 2359 H 226.475 4.16079 -0.0417878 0
M  V30 2360 H 225.351 5.47519 0.389157 0
M  V30 2361 H 225.612 4.15303 1.51577 0
M  V30 2362 N 224.671 0.411399 1.52136 0
M  V30 2363 C 226.082 -0.0576826 1.86611 0
M  V30 2364 C 226.433 -1.44238 1.33003 0
M  V30 2365 O 225.558 -2.05759 0.670228 0
M  V30 2366 C 226.153 -0.111448 3.38617 0
M  V30 2367 C 224.712 -0.52487 3.72723 0
M  V30 2368 C 223.859 0.299176 2.75681 0
M  V30 2369 H 226.81 0.628368 1.4573 0
M  V30 2370 H 226.831 -0.926252 3.69054 0
M  V30 2371 H 226.343 0.896488 3.77604 0
M  V30 2372 H 224.444 -1.53936 3.39315 0
M  V30 2373 H 224.557 -0.267681 4.78352 0
M  V30 2374 H 222.921 -0.238814 2.53578 0
M  V30 2375 H 223.704 1.3055 3.17508 0
M  V30 2376 N 226.149 -1.5696 0.141893 0
M  V30 2377 C 227.397 -1.95573 -0.509484 0
M  V30 2378 C 227.718 -1.02746 -1.65736 0
M  V30 2379 O 226.988 -0.0880311 -1.95702 0
M  V30 2380 H 225.568 -0.722115 -0.191205 0
M  V30 2381 H 228.23 -1.93697 0.216196 0
M  V30 2382 H 227.326 -2.99171 -0.889 0
M  V30 2383 N 227.627 0.131896 -1.57047 0
M  V30 2384 C 228.904 0.871495 -1.75112 0
M  V30 2385 C 229.284 1.9866 -0.713949 0
M  V30 2386 O 228.632 2.26965 0.264447 0
M  V30 2387 C 228.842 1.40007 -3.19686 0
M  V30 2388 C 230.19 1.85752 -3.81813 0
M  V30 2389 O 231.214 1.49715 -3.23209 0
M  V30 2390 O 230.073 2.5226 -4.84796 0
M  V30 2391 H 227.167 0.412919 -0.716538 0
M  V30 2392 H 229.713 0.116641 -1.69299 0
M  V30 2393 H 228.485 0.599404 -3.86682 0
M  V30 2394 H 228.108 2.218 -3.29986 0
M  V30 2395 N 229.106 1.52395 0.401703 0
M  V30 2396 C 230.038 1.72505 1.50912 0
M  V30 2397 C 231.051 0.605468 1.51122 0
M  V30 2398 O 232.24 0.880828 1.55254 0
M  V30 2399 C 229.34 1.75711 2.89791 0
M  V30 2400 C 228.513 3.04824 3.1369 0
M  V30 2401 C 227.572 2.99743 4.32482 0
M  V30 2402 O 226.598 3.73635 4.29402 0
M  V30 2403 N 227.8 2.18047 5.37992 0
M  V30 2404 H 230.565 2.68049 1.34052 0
M  V30 2405 H 228.126 1.50724 0.591084 0
M  V30 2406 H 230.118 1.69834 3.6734 0
M  V30 2407 H 228.688 0.876092 3.00072 0
M  V30 2408 H 227.908 3.2429 2.24119 0
M  V30 2409 H 229.196 3.90221 3.26504 0
M  V30 2410 H 228.594 1.57456 5.43345 0
M  V30 2411 H 227.151 2.18021 6.14256 0
M  V30 2412 N 230.584 -0.659388 1.43143 0
M  V30 2413 C 231.809 -1.45221 1.48073 0
M  V30 2414 C 232.234 -1.87845 0.097995 0
M  V30 2415 O 231.592 -1.56985 -0.90694 0
M  V30 2416 C 231.64 -2.66748 2.42647 0
M  V30 2417 O 230.744 -3.65583 1.90848 0
M  V30 2418 H 230.085 -0.435669 0.501088 0
M  V30 2419 H 232.615 -0.807432 1.87994 0
M  V30 2420 H 232.625 -3.14637 2.59745 0
M  V30 2421 H 231.3 -2.35067 3.43098 0
M  V30 2422 H 229.877 -3.24693 1.83381 0
M  V30 2423 N 232.062 -1.29571 -0.897171 0
M  V30 2424 C 233.292 -1.20408 -1.67886 0
M  V30 2425 C 233.7 0.237429 -1.87704 0
M  V30 2426 O 233.043 1.17048 -1.41582 0
M  V30 2427 C 233.105 -1.84887 -3.08314 0
M  V30 2428 C 232.769 -3.34189 -3.11716 0
M  V30 2429 C 233.766 -4.30374 -2.91675 0
M  V30 2430 C 231.451 -3.75431 -3.33701 0
M  V30 2431 C 233.445 -5.65776 -2.93557 0
M  V30 2432 C 231.132 -5.10955 -3.35214 0
M  V30 2433 C 232.13 -6.05938 -3.15164 0
M  V30 2434 O 231.818 -7.38987 -3.1647 0
M  V30 2435 H 231.55 -0.418289 -0.531046 0
M  V30 2436 H 234.104 -1.71514 -1.13014 0
M  V30 2437 H 232.334 -1.28295 -3.64798 0
M  V30 2438 H 234.023 -1.70011 -3.6858 0
M  V30 2439 H 234.789 -3.99844 -2.74499 0
M  V30 2440 H 230.668 -3.01953 -3.48347 0
M  V30 2441 H 234.212 -6.39889 -2.77826 0
M  V30 2442 H 230.109 -5.4113 -3.51922 0
M  V30 2443 H 230.877 -7.47823 -3.3272 0
M  V30 2444 N 233.54 1.10788 -1.12088 0
M  V30 2445 C 234.788 1.8231 -0.872205 0
M  V30 2446 C 235.109 1.85419 0.603709 0
M  V30 2447 O 234.379 1.32963 1.43867 0
M  V30 2448 H 232.959 0.675137 -0.319686 0
M  V30 2449 H 235.621 1.34068 -1.41463 0
M  V30 2450 H 234.717 2.85955 -1.25045 0
M  V30 2451 N 235.018 0.912232 1.28515 0
M  V30 2452 C 236.243 0.559774 1.99703 0
M  V30 2453 C 236.668 -0.851393 1.67729 0
M  V30 2454 O 236.026 -1.56875 0.908834 0
M  V30 2455 C 236.074 0.773874 3.52198 0
M  V30 2456 O 235.178 -0.167842 4.12058 0
M  V30 2457 H 234.519 0.21723 0.627461 0
M  V30 2458 H 237.049 1.22725 1.63706 0
M  V30 2459 H 237.059 0.683386 4.02236 0
M  V30 2460 H 235.734 1.80261 3.74805 0
M  V30 2461 H 234.311 -0.0287509 3.72889 0
M  V30 2462 N 236.496 -1.42363 0.676048 0
M  V30 2463 C 237.745 -2.00745 0.196037 0
M  V30 2464 C 238.058 -1.54083 -1.20489 0
M  V30 2465 O 239.264 -2.04891 -1.78134 0
M  V30 2466 C 237.72 -3.58651 0.299616 0
M  V30 2467 C 237.328 -4.143 1.70468 0
M  V30 2468 C 239.072 -4.24326 -0.121619 0
M  V30 2469 C 236.979 -5.64574 1.76096 0
M  V30 2470 H 235.909 -0.750787 0.0695301 0
M  V30 2471 H 238.56 -1.63072 0.841412 0
M  V30 2472 H 236.942 -3.93833 -0.413673 0
M  V30 2473 H 238.116 -3.90575 2.44515 0
M  V30 2474 H 236.431 -3.61081 2.07387 0
M  V30 2475 H 239.028 -5.34607 -0.0997362 0
M  V30 2476 H 239.371 -3.99897 -1.15708 0
M  V30 2477 H 239.904 -3.94108 0.540706 0
M  V30 2478 H 236.643 -5.93804 2.77628 0
M  V30 2479 H 236.163 -5.90286 1.06406 0
M  V30 2480 H 237.842 -6.29013 1.51496 0
M  V30 2481 N 237.974 -0.419461 -1.51915 0
M  V30 2482 C 238.937 0.389116 -2.25873 0
M  V30 2483 C 239.937 0.964924 -1.28631 0
M  V30 2484 O 241.127 0.842179 -1.52489 0
M  V30 2485 C 238.259 1.54874 -3.03689 0
M  V30 2486 H 239.452 -0.258799 -2.98781 0
M  V30 2487 H 237.005 -0.172209 -1.55348 0
M  V30 2488 H 237.74 2.23323 -2.35154 0
M  V30 2489 H 237.525 1.14223 -3.75094 0
M  V30 2490 H 239.015 2.12046 -3.59759 0
M  V30 2491 N 239.452 1.56882 -0.150215 0
M  V30 2492 C 240.677 2.01027 0.510184 0
M  V30 2493 C 241.102 1.02966 1.57415 0
M  V30 2494 O 240.46 0.00590158 1.81299 0
M  V30 2495 C 240.508 3.43899 1.08472 0
M  V30 2496 O 239.612 3.4885 2.19948 0
M  V30 2497 H 238.953 0.652233 0.124451 0
M  V30 2498 H 241.483 2.03093 -0.247894 0
M  V30 2499 H 241.493 3.82766 1.41259 0
M  V30 2500 H 240.168 4.14776 0.305582 0
M  V30 2501 H 238.745 3.21827 1.88366 0
M  V30 2502 N 240.93 -0.123565 1.57115 0
M  V30 2503 C 241.86 -1.15309 2.03042 0
M  V30 2504 C 242.841 -1.43454 0.914061 0
M  V30 2505 O 244.026 -1.53973 1.18347 0
M  V30 2506 C 241.156 -2.48043 2.43089 0
M  V30 2507 C 240.11 -2.3437 3.58127 0
M  V30 2508 C 239.436 -3.72026 3.84059 0
M  V30 2509 C 240.736 -1.80804 4.90007 0
M  V30 2510 H 242.43 -0.771102 2.893 0
M  V30 2511 H 239.976 -0.369479 1.39179 0
M  V30 2512 H 241.929 -3.20311 2.73823 0
M  V30 2513 H 240.653 -2.88122 1.53796 0
M  V30 2514 H 239.312 -1.64551 3.27595 0
M  V30 2515 H 238.96 -4.09582 2.91979 0
M  V30 2516 H 238.66 -3.63732 4.6149 0
M  V30 2517 H 240.184 -4.45806 4.1724 0
M  V30 2518 H 241.598 -2.42886 5.19307 0
M  V30 2519 H 239.995 -1.83343 5.71407 0
M  V30 2520 H 241.065 -0.76528 4.78823 0
M  V30 2521 N 242.408 -1.52605 -0.393616 0
M  V30 2522 C 243.636 -1.71294 -1.16043 0
M  V30 2523 C 244.051 -0.429259 -1.83855 0
M  V30 2524 O 243.408 0.595921 -1.72496 0
M  V30 2525 C 243.459 -2.8593 -2.21193 0
M  V30 2526 O 243.18 -4.09329 -1.56146 0
M  V30 2527 C 244.681 -3.16259 -3.10636 0
M  V30 2528 H 241.901 -0.573641 -0.348104 0
M  V30 2529 H 244.445 -1.99234 -0.461092 0
M  V30 2530 H 242.6 -2.60465 -2.86769 0
M  V30 2531 H 243.014 -4.73323 -2.25978 0
M  V30 2532 H 244.488 -3.99946 -3.80456 0
M  V30 2533 H 244.965 -2.3045 -3.73884 0
M  V30 2534 H 245.571 -3.43547 -2.50711 0
M  V30 2535 N 243.887 0.651787 -1.4349 0
M  V30 2536 C 245.133 1.41376 -1.45398 0
M  V30 2537 C 245.466 1.94041 -0.0784823 0
M  V30 2538 O 244.741 1.72379 0.900878 0
M  V30 2539 C 245.024 2.59414 -2.49752 0
M  V30 2540 C 244.877 2.12232 -3.96582 0
M  V30 2541 C 246.196 3.61626 -2.50827 0
M  V30 2542 H 243.315 0.512719 -0.529422 0
M  V30 2543 H 245.957 0.738796 -1.75048 0
M  V30 2544 H 244.107 3.16997 -2.246 0
M  V30 2545 H 245.779 1.59639 -4.32797 0
M  V30 2546 H 244.022 1.43592 -4.09346 0
M  V30 2547 H 244.693 2.9712 -4.65214 0
M  V30 2548 H 247.169 3.13805 -2.7325 0
M  V30 2549 H 246.045 4.41766 -3.25783 0
M  V30 2550 H 246.306 4.14314 -1.5426 0
M  V30 2551 N 245.365 1.30045 0.890287 0
M  V30 2552 C 246.595 1.21296 1.67245 0
M  V30 2553 C 247.003 -0.227471 1.87828 0
M  V30 2554 O 246.346 -1.16296 1.422 0
M  V30 2555 C 246.408 1.86519 3.07329 0
M  V30 2556 C 246.072 3.35837 3.09939 0
M  V30 2557 C 247.069 4.31915 2.89389 0
M  V30 2558 C 244.754 3.77196 3.31706 0
M  V30 2559 C 246.748 5.67325 2.90552 0
M  V30 2560 C 244.435 5.12725 3.32499 0
M  V30 2561 C 245.433 6.076 3.11947 0
M  V30 2562 O 245.121 7.40655 3.12547 0
M  V30 2563 H 244.853 0.4211 0.528821 0
M  V30 2564 H 247.407 1.72111 1.12103 0
M  V30 2565 H 245.637 1.30228 3.64112 0
M  V30 2566 H 247.326 1.71963 3.67673 0
M  V30 2567 H 248.092 4.01294 2.72375 0
M  V30 2568 H 243.971 3.03796 3.4674 0
M  V30 2569 H 247.515 6.41354 2.74429 0
M  V30 2570 H 243.412 5.42988 3.49047 0
M  V30 2571 H 244.18 7.49577 3.28749 0
M  V30 2572 N 246.843 -1.10192 1.12674 0
M  V30 2573 C 248.254 -1.63707 0.897604 0
M  V30 2574 C 248.605 -1.87812 -0.567546 0
M  V30 2575 O 247.73 -1.62196 -1.43253 0
M  V30 2576 C 248.325 -2.974 1.62292 0
M  V30 2577 C 246.884 -3.47772 1.43986 0
M  V30 2578 C 246.031 -2.22332 1.65722 0
M  V30 2579 H 248.982 -0.936587 1.28116 0
M  V30 2580 H 249.003 -3.64986 1.07541 0
M  V30 2581 H 248.515 -2.79824 2.68924 0
M  V30 2582 H 246.616 -3.70487 0.396206 0
M  V30 2583 H 246.729 -4.25723 2.19765 0
M  V30 2584 H 245.093 -2.30599 1.08149 0
M  V30 2585 H 245.876 -2.07285 2.73657 0
M  V30 2586 N 248.321 -0.919034 -1.28029 0
M  V30 2587 C 249.271 -0.382574 -2.24767 0
M  V30 2588 C 250.255 0.508286 -1.52661 0
M  V30 2589 O 251.447 0.347145 -1.73562 0
M  V30 2590 C 248.576 0.371432 -3.41285 0
M  V30 2591 C 247.662 -0.535449 -4.20706 0
M  V30 2592 N 248.053 -1.65141 -4.78082 0
M  V30 2593 C 246.351 -0.336824 -4.44726 0
M  V30 2594 C 247.052 -2.21475 -5.37888 0
M  V30 2595 N 246.028 -1.50537 -5.22341 0
M  V30 2596 H 249.83 -1.23477 -2.66703 0
M  V30 2597 H 247.344 -0.772299 -1.42861 0
M  V30 2598 H 249.341 0.772638 -4.09678 0
M  V30 2599 H 248.001 1.22066 -3.00882 0
M  V30 2600 H 249.012 -2.03392 -4.7629 0
M  V30 2601 H 245.689 0.47246 -4.14818 0
M  V30 2602 H 247.079 -3.15379 -5.93284 0
M  V30 2603 N 249.799 1.42003 -0.683588 0
M  V30 2604 C 251.047 2.01015 -0.209101 0
M  V30 2605 C 251.368 1.54365 1.19149 0
M  V30 2606 O 250.638 0.769083 1.80172 0
M  V30 2607 H 249.218 0.743294 -0.074315 0
M  V30 2608 H 251.88 1.73798 -0.882066 0
M  V30 2609 H 250.976 3.11343 -0.2172 0
M  V30 2610 N 251.277 0.427512 1.51691 0
M  V30 2611 C 252.207 -0.3796 2.30394 0
M  V30 2612 C 253.188 -1.02982 1.35384 0
M  V30 2613 O 254.373 -1.03534 1.643 0
M  V30 2614 C 251.503 -1.48649 3.1388 0
M  V30 2615 C 250.457 -0.960294 4.17088 0
M  V30 2616 C 249.783 -2.16219 4.89033 0
M  V30 2617 C 251.083 -0.00153679 5.223 0
M  V30 2618 H 252.777 0.277164 2.98114 0
M  V30 2619 H 250.323 0.134739 1.43368 0
M  V30 2620 H 252.276 -2.05826 3.67714 0
M  V30 2621 H 251 -2.1714 2.43962 0
M  V30 2622 H 249.659 -0.410806 3.64291 0
M  V30 2623 H 249.307 -2.83307 4.15628 0
M  V30 2624 H 249.007 -1.81654 5.58816 0
M  V30 2625 H 250.531 -2.73968 5.45687 0
M  V30 2626 H 251.945 -0.482687 5.71264 0
M  V30 2627 H 250.342 0.256199 5.99553 0
M  V30 2628 H 251.412 0.938174 4.75738 0
M  V30 2629 N 252.755 -1.56801 0.158532 0
M  V30 2630 C 253.685 -2.20347 -0.772609 0
M  V30 2631 C 254.666 -1.15518 -1.24859 0
M  V30 2632 O 255.851 -1.43902 -1.30406 0
M  V30 2633 C 252.981 -2.83417 -2.00729 0
M  V30 2634 C 251.935 -3.94174 -1.66765 0
M  V30 2635 C 251.261 -4.44233 -2.97592 0
M  V30 2636 C 252.561 -5.14392 -0.905447 0
M  V30 2637 H 254.255 -2.98413 -0.242959 0
M  V30 2638 H 251.801 -1.43537 -0.115419 0
M  V30 2639 H 253.754 -3.26543 -2.6636 0
M  V30 2640 H 252.478 -2.02701 -2.56086 0
M  V30 2641 H 251.137 -3.51684 -1.03508 0
M  V30 2642 H 250.785 -3.60325 -3.50963 0
M  V30 2643 H 250.485 -5.18945 -2.75626 0
M  V30 2644 H 252.009 -4.90037 -3.64274 0
M  V30 2645 H 253.423 -5.5429 -1.46408 0
M  V30 2646 H 251.82 -5.9494 -0.7853 0
M  V30 2647 H 252.89 -4.84795 0.100668 0
M  V30 2648 N 254.233 0.115231 -1.57178 0
M  V30 2649 C 255.181 1.16014 -2.01602 0
M  V30 2650 C 256.175 1.42653 -0.913587 0
M  V30 2651 O 257.381 1.42571 -1.09879 0
M  V30 2652 H 253.756 0.391252 -0.642204 0
M  V30 2653 H 255.727 0.758998 -2.88586 0
M  V30 2654 C 254.476 2.47767 -2.4394 0
M  V30 2655 H 253.799 2.28108 -3.28339 0
M  V30 2656 H 255.239 3.19432 -2.78818 0
M  V30 2657 C 253.698 3.10617 -1.30455 0
M  V30 2658 O 254.228 3.96846 -0.622585 0
M  V30 2659 N 252.434 2.70553 -1.06064 0
M  V30 2660 H 251.981 2.00527 -1.61699 0
M  V30 2661 H 251.939 3.12934 -0.303284 0
M  V30 2662 N 255.711 1.52812 0.385517 0
M  V30 2663 C 256.951 1.69716 1.13911 0
M  V30 2664 C 257.315 0.42962 1.87132 0
M  V30 2665 O 258.516 0.475071 2.64569 0
M  V30 2666 C 256.787 2.90021 2.0886 0
M  V30 2667 S 258.346 3.27531 2.92009 0
M  V30 2668 H 255.164 0.59739 0.385547 0
M  V30 2669 H 257.766 1.90868 0.423061 0
M  V30 2670 H 256.47 3.80493 1.53797 0
M  V30 2671 H 256.001 2.71213 2.84969 0
M  V30 2672 H 258.016 2.77989 4.11019 0
M  V30 2673 N 257.189 -0.644168 1.43834 0
M  V30 2674 C 258.137 -1.77793 1.49974 0
M  V30 2675 C 259.131 -1.65253 0.372536 0
M  V30 2676 O 260.337 -1.7149 0.546924 0
M  V30 2677 H 256.712 -0.58675 0.47035 0
M  V30 2678 H 258.683 -1.69736 2.45423 0
M  V30 2679 C 257.432 -3.16087 1.4486 0
M  V30 2680 H 256.755 -3.26378 2.30905 0
M  V30 2681 H 258.195 -3.95349 1.53217 0
M  V30 2682 C 256.654 -3.36484 0.167463 0
M  V30 2683 O 257.184 -3.94298 -0.767609 0
M  V30 2684 N 255.39 -2.90504 0.0747556 0
M  V30 2685 H 254.937 -2.4364 0.836507 0
M  V30 2686 H 254.895 -3.04527 -0.781714 0
M  V30 2687 N 258.668 -1.30515 -0.883378 0
M  V30 2688 C 259.917 -1.18795 -1.63005 0
M  V30 2689 C 260.23 0.255923 -1.93919 0
M  V30 2690 O 261.436 0.494654 -2.66956 0
M  V30 2691 C 259.892 -2.07878 -2.93794 0
M  V30 2692 C 259.5 -3.57184 -2.70414 0
M  V30 2693 C 261.244 -2.04924 -3.71761 0
M  V30 2694 C 259.151 -4.38317 -3.97029 0
M  V30 2695 H 258.081 -0.441031 -0.611562 0
M  V30 2696 H 260.732 -1.55275 -0.977854 0
M  V30 2697 H 259.114 -1.64283 -3.60315 0
M  V30 2698 H 260.288 -4.08937 -2.12384 0
M  V30 2699 H 258.603 -3.61976 -2.0582 0
M  V30 2700 H 261.2 -2.62792 -4.65665 0
M  V30 2701 H 261.543 -1.0331 -4.03277 0
M  V30 2702 H 262.076 -2.46649 -3.12104 0
M  V30 2703 H 258.815 -5.40632 -3.70671 0
M  V30 2704 H 258.335 -3.91326 -4.54559 0
M  V30 2705 H 260.014 -4.49834 -4.65036 0
M  V30 2706 N 260.146 1.09593 -1.13257 0
M  V30 2707 C 261.094 2.18271 -0.803783 0
M  V30 2708 C 262.088 1.68054 0.213148 0
M  V30 2709 O 263.294 1.79862 0.0704699 0
M  V30 2710 H 259.669 0.711949 -0.242143 0
M  V30 2711 H 261.64 2.43235 -1.72856 0
M  V30 2712 C 260.389 3.46536 -0.28424 0
M  V30 2713 H 259.712 3.85545 -1.05807 0
M  V30 2714 H 261.152 4.23899 -0.0925945 0
M  V30 2715 C 259.611 3.22036 0.989684 0
M  V30 2716 O 260.141 3.44509 2.06584 0
M  V30 2717 N 258.347 2.7565 0.920086 0
M  V30 2718 H 257.894 2.57562 0.0442019 0
M  V30 2719 H 257.852 2.59635 1.77306 0
M  V30 2720 N 261.624 0.925811 1.2754 0
M  V30 2721 C 262.572 0.413897 2.28888 0
M  V30 2722 C 263.566 -0.500779 1.61829 0
M  V30 2723 O 264.772 -0.38069 1.75928 0
M  V30 2724 H 261.147 0.115274 0.743112 0
M  V30 2725 H 263.118 1.28151 2.69481 0
M  V30 2726 C 261.867 -0.319792 3.46226 0
M  V30 2727 H 261.19 0.374846 3.98039 0
M  V30 2728 H 262.63 -0.642435 4.19105 0
M  V30 2729 C 261.089 -1.53209 3.00048 0
M  V30 2730 O 261.619 -2.6309 3.03557 0
M  V30 2731 N 259.825 -1.38326 2.55566 0
M  V30 2732 H 259.372 -0.489292 2.5291 0
M  V30 2733 H 259.33 -2.19564 2.25031 0
M  V30 2734 N 263.102 -1.41638 0.69111 0
M  V30 2735 C 264.348 -2.01598 0.220519 0
M  V30 2736 C 264.681 -1.54594 -1.17535 0
M  V30 2737 O 263.956 -0.755177 -1.79241 0
M  V30 2738 C 264.239 -3.59062 0.273243 0
M  V30 2739 C 264.092 -4.16203 1.70573 0
M  V30 2740 C 265.411 -4.38546 -0.369457 0
M  V30 2741 H 262.53 -0.732468 0.0816045 0
M  V30 2742 H 265.172 -1.68445 0.878986 0
M  V30 2743 H 263.322 -3.87435 -0.287411 0
M  V30 2744 H 264.994 -3.98722 2.31989 0
M  V30 2745 H 263.237 -3.71414 2.2413 0
M  V30 2746 H 263.908 -5.25358 1.69419 0
M  V30 2747 H 266.384 -4.1596 0.107977 0
M  V30 2748 H 265.26 -5.48069 -0.302002 0
M  V30 2749 H 265.521 -4.17662 -1.44951 0
M  V30 2750 N 264.58 -0.43555 -1.51462 0
M  V30 2751 C 265.826 0.131709 -2.02372 0
M  V30 2752 C 266.159 1.42516 -1.3192 0
M  V30 2753 O 265.434 1.89606 -0.433573 0
M  V30 2754 C 265.717 0.352301 -3.58373 0
M  V30 2755 C 265.57 -0.959676 -4.39443 0
M  V30 2756 C 266.889 1.12286 -4.25535 0
M  V30 2757 H 264.008 0.0463936 -0.735538 0
M  V30 2758 H 266.65 -0.574197 -1.81116 0
M  V30 2759 H 264.8 0.9536 -3.76615 0
M  V30 2760 H 266.472 -1.59482 -4.32855 0
M  V30 2761 H 264.715 -1.56468 -4.04599 0
M  V30 2762 H 265.386 -0.759394 -5.46752 0
M  V30 2763 H 267.862 0.613545 -4.11552 0
M  V30 2764 H 266.738 1.24598 -5.34571 0
M  V30 2765 H 266.999 2.15048 -3.86273 0
M  V30 2766 N 266.058 1.56714 -0.166846 0
M  V30 2767 C 267.474 1.58473 0.189372 0
M  V30 2768 C 267.674 1.18201 1.63189 0
M  V30 2769 O 266.73 0.891528 2.36237 0
M  V30 2770 C 268.043 3.00573 -0.0873872 0
M  V30 2771 C 269.591 3.1299 -0.0252443 0
M  V30 2772 C 270.066 4.57174 -0.274934 0
M  V30 2773 N 271.557 4.62665 -0.222553 0
M  V30 2774 C 272.292 5.72072 -0.389985 0
M  V30 2775 N 271.788 6.90054 -0.616229 0
M  V30 2776 N 273.581 5.61153 -0.326202 0
M  V30 2777 H 265.732 1.8118 -1.10849 0
M  V30 2778 H 267.995 0.839525 -0.440342 0
M  V30 2779 H 267.701 3.34497 -1.0865 0
M  V30 2780 H 267.575 3.72019 0.623037 0
M  V30 2781 H 269.962 2.78895 0.96444 0
M  V30 2782 H 270.043 2.43989 -0.768309 0
M  V30 2783 H 269.687 4.91976 -1.26181 0
M  V30 2784 H 269.617 5.24328 0.48869 0
M  V30 2785 H 272.108 3.77863 -0.0531512 0
M  V30 2786 H 272.421 7.69311 -0.733559 0
M  V30 2787 H 270.766 6.91927 -0.652791 0
M  V30 2788 H 273.957 4.67859 -0.150072 0
M  V30 2789 H 274.13 6.46364 -0.460116 0
M  V30 2790 N 267.536 -0.106894 1.57237 0
M  V30 2791 C 268.785 -0.811163 1.8467 0
M  V30 2792 C 269.098 -1.80469 0.754342 0
M  V30 2793 O 270.304 -2.55601 0.915439 0
M  V30 2794 C 268.76 -1.49337 3.27454 0
M  V30 2795 C 268.368 -0.540217 4.44731 0
M  V30 2796 C 270.112 -2.18206 3.64124 0
M  V30 2797 C 268.019 -1.22634 5.78545 0
M  V30 2798 H 266.949 -0.306679 0.688813 0
M  V30 2799 H 269.6 -0.0639887 1.83388 0
M  V30 2800 H 267.982 -2.2876 3.23241 0
M  V30 2801 H 269.156 0.221659 4.60267 0
M  V30 2802 H 267.471 0.042146 4.16379 0
M  V30 2803 H 270.068 -2.70253 4.61376 0
M  V30 2804 H 270.411 -2.96562 2.92158 0
M  V30 2805 H 270.944 -1.45658 3.70174 0
M  V30 2806 H 267.683 -0.483832 6.53712 0
M  V30 2807 H 267.203 -1.95993 5.66874 0
M  V30 2808 H 268.882 -1.75615 6.2271 0
M  V30 2809 N 269.014 -1.53014 -0.377408 0
M  V30 2810 C 269.961 -1.78616 -1.46168 0
M  V30 2811 C 270.931 -0.629917 -1.53692 0
M  V30 2812 O 272.116 -0.870861 -1.69766 0
M  V30 2813 C 269.256 -1.97123 -2.8326 0
M  V30 2814 C 268.369 -3.24831 -2.84796 0
M  V30 2815 C 267.504 -3.33591 -4.13389 0
M  V30 2816 C 266.543 -4.55377 -4.09021 0
M  V30 2817 N 265.68 -4.61355 -5.29241 0
M  V30 2818 H 270.52 -2.71142 -1.23637 0
M  V30 2819 H 268.057 -1.34326 -0.599577 0
M  V30 2820 H 270.015 -2.05839 -3.62886 0
M  V30 2821 H 268.645 -1.07946 -3.04216 0
M  V30 2822 H 267.697 -3.25128 -1.97474 0
M  V30 2823 H 269.009 -4.14523 -2.77439 0
M  V30 2824 H 268.163 -3.41554 -5.01424 0
M  V30 2825 H 266.902 -2.41894 -4.23484 0
M  V30 2826 H 265.907 -4.47527 -3.19373 0
M  V30 2827 H 267.132 -5.48402 -4.00539 0
M  V30 2828 H 265.078 -3.72554 -5.39944 0
M  V30 2829 H 264.995 -5.44935 -5.24006 0
M  V30 2830 H 266.263 -4.73586 -6.19141 0
M  V30 2831 N 270.492 0.636531 -1.44174 0
M  V30 2832 C 271.738 1.39826 -1.4689 0
M  V30 2833 C 272.071 1.93947 -0.0990585 0
M  V30 2834 O 271.346 1.73325 0.882544 0
M  V30 2835 C 271.629 2.56751 -2.5249 0
M  V30 2836 C 271.482 2.08014 -3.98811 0
M  V30 2837 C 272.801 3.58946 -2.54649 0
M  V30 2838 H 269.92 0.507075 -0.53483 0
M  V30 2839 H 272.562 0.720188 -1.75822 0
M  V30 2840 H 270.712 3.14597 -2.2795 0
M  V30 2841 H 272.384 1.5504 -4.34466 0
M  V30 2842 H 270.627 1.39242 -4.10846 0
M  V30 2843 H 271.298 2.92169 -4.68339 0
M  V30 2844 H 273.774 3.1089 -2.76563 0
M  V30 2845 H 272.65 4.38286 -3.3045 0
M  V30 2846 H 272.911 4.12655 -1.58646 0
M  V30 2847 N 271.97 1.30982 0.876444 0
M  V30 2848 C 273.381 1.18277 1.44456 0
M  V30 2849 C 273.732 -0.213265 1.95037 0
M  V30 2850 O 272.857 -1.11057 1.85729 0
M  V30 2851 C 273.452 2.1411 2.62569 0
M  V30 2852 C 272.011 2.05358 3.15444 0
M  V30 2853 C 271.158 2.03706 1.88146 0
M  V30 2854 H 274.109 1.43127 0.685584 0
M  V30 2855 H 274.13 1.72692 3.39054 0
M  V30 2856 H 273.642 3.15706 2.25724 0
M  V30 2857 H 271.743 1.06934 3.56926 0
M  V30 2858 H 271.856 2.94156 3.78166 0
M  V30 2859 H 270.22 1.48629 2.06837 0
M  V30 2860 H 271.003 3.07047 1.53547 0
M  V30 2861 N 273.449 -1.08991 1.13837 0
M  V30 2862 C 274.696 -1.81258 0.902882 0
M  V30 2863 C 275.024 -1.85936 -0.570803 0
M  V30 2864 O 274.279 -1.3267 -1.43865 0
M  V30 2865 C 274.578 -3.27042 1.44147 0
M  V30 2866 C 274.244 -3.4249 2.93276 0
M  V30 2867 C 272.906 -3.46414 3.33992 0
M  V30 2868 C 275.258 -3.4666 3.892 0
M  V30 2869 C 272.586 -3.52091 4.69307 0
M  V30 2870 C 274.938 -3.53872 5.24364 0
M  V30 2871 C 273.602 -3.56066 5.646 0
M  V30 2872 H 272.872 -0.663268 0.330388 0
M  V30 2873 H 275.519 -1.28368 1.42105 0
M  V30 2874 H 273.824 -3.82599 0.844097 0
M  V30 2875 H 275.521 -3.81499 1.23528 0
M  V30 2876 H 272.111 -3.40124 2.60794 0
M  V30 2877 H 276.295 -3.42865 3.58828 0
M  V30 2878 H 271.551 -3.52079 4.9985 0
M  V30 2879 H 275.725 -3.56043 5.98503 0
M  V30 2880 H 273.352 -3.60218 6.69438 0
M  V30 2881 N 274.927 -0.932562 -1.27047 0
M  V30 2882 C 276.176 -0.571351 -1.93439 0
M  V30 2883 C 276.489 0.892467 -1.74053 0
M  V30 2884 O 277.695 1.36267 -2.34826 0
M  V30 2885 C 276.151 -0.97106 -3.46552 0
M  V30 2886 C 275.759 -2.4559 -3.74686 0
M  V30 2887 C 277.503 -0.681333 -4.18997 0
M  V30 2888 C 275.41 -2.79475 -5.21198 0
M  V30 2889 H 274.34 -0.209966 -0.724176 0
M  V30 2890 H 276.991 -1.13403 -1.44263 0
M  V30 2891 H 275.373 -0.336983 -3.94564 0
M  V30 2892 H 276.547 -3.13829 -3.37414 0
M  V30 2893 H 274.862 -2.71802 -3.15456 0
M  V30 2894 H 277.459 -0.910939 -5.26883 0
M  V30 2895 H 277.802 0.381628 -4.14547 0
M  V30 2896 H 278.335 -1.27473 -3.76823 0
M  V30 2897 H 275.074 -3.847 -5.30741 0
M  V30 2898 H 274.594 -2.1589 -5.596 0
M  V30 2899 H 276.273 -2.67478 -5.89122 0
M  V30 2900 N 276.405 1.4127 -0.698611 0
M  V30 2901 C 277.635 2.05205 -0.239644 0
M  V30 2902 C 278.043 1.52684 1.11733 0
M  V30 2903 O 277.386 0.671222 1.70998 0
M  V30 2904 C 277.448 3.59289 -0.123126 0
M  V30 2905 C 277.112 4.34619 -1.41263 0
M  V30 2906 C 278.109 4.63701 -2.35111 0
M  V30 2907 C 275.794 4.73837 -1.66684 0
M  V30 2908 C 277.788 5.30966 -3.52639 0
M  V30 2909 C 275.475 5.40837 -2.84498 0
M  V30 2910 C 276.473 5.69329 -3.77298 0
M  V30 2911 O 276.161 6.34949 -4.93047 0
M  V30 2912 H 275.893 0.66723 -0.108537 0
M  V30 2913 H 278.447 1.81974 -0.952602 0
M  V30 2914 H 276.677 3.81272 0.645628 0
M  V30 2915 H 278.366 4.04797 0.299056 0
M  V30 2916 H 279.132 4.33882 -2.16729 0
M  V30 2917 H 275.011 4.51039 -0.953135 0
M  V30 2918 H 278.555 5.53121 -4.25091 0
M  V30 2919 H 274.452 5.70075 -3.02795 0
M  V30 2920 H 275.22 6.53445 -4.92902 0
M  V30 2921 N 277.883 0.443576 1.51229 0
M  V30 2922 C 279.111 -0.11929 2.06556 0
M  V30 2923 C 279.526 -1.35921 1.31038 0
M  V30 2924 O 278.883 -1.78675 0.371704 0
M  V30 2925 C 278.934 -0.435228 3.5887 0
M  V30 2926 O 278.655 0.755486 4.31537 0
M  V30 2927 C 280.156 -1.04808 4.30732 0
M  V30 2928 H 277.376 -0.0051584 0.67098 0
M  V30 2929 H 279.92 0.624453 1.94733 0
M  V30 2930 H 278.075 -1.12887 3.70588 0
M  V30 2931 H 278.489 0.483491 5.22267 0
M  V30 2932 H 279.963 -1.2191 5.3837 0
M  V30 2933 H 280.44 -2.03081 3.89429 0
M  V30 2934 H 281.046 -0.393637 4.23474 0
M  V30 2935 N 279.361 -1.56624 0.175154 0
M  V30 2936 C 280.777 -1.58571 -0.180966 0
M  V30 2937 C 280.977 -1.19065 -1.6256 0
M  V30 2938 O 280.033 -0.904044 -2.35761 0
M  V30 2939 C 281.346 -3.00522 0.103326 0
M  V30 2940 C 282.894 -3.12972 0.0418426 0
M  V30 2941 C 283.369 -4.57022 0.299175 0
M  V30 2942 N 284.86 -4.62541 0.247086 0
M  V30 2943 C 285.595 -5.71857 0.420318 0
M  V30 2944 N 285.091 -6.89717 0.652816 0
M  V30 2945 N 286.884 -5.60972 0.355957 0
M  V30 2946 H 279.035 -1.80589 1.11809 0
M  V30 2947 H 281.298 -0.837178 0.444788 0
M  V30 2948 H 281.004 -3.33916 1.10422 0
M  V30 2949 H 280.878 -3.72344 -0.603299 0
M  V30 2950 H 283.265 -2.79403 -0.949636 0
M  V30 2951 H 283.346 -2.43578 0.781238 0
M  V30 2952 H 282.99 -4.913 1.28788 0
M  V30 2953 H 282.92 -5.24579 -0.460876 0
M  V30 2954 H 285.411 -3.77829 0.0731895 0
M  V30 2955 H 285.724 -7.68911 0.774347 0
M  V30 2956 H 284.069 -6.91572 0.689476 0
M  V30 2957 H 287.26 -4.67773 0.174882 0
M  V30 2958 H 287.433 -6.46111 0.494388 0
M  V30 2959 N 280.839 0.0985539 -1.57292 0
M  V30 2960 C 282.087 0.801092 -1.85545 0
M  V30 2961 C 282.408 1.79438 -0.763353 0
M  V30 2962 O 281.678 1.94763 0.21073 0
M  V30 2963 H 280.258 0.29884 -0.684619 0
M  V30 2964 H 282.92 0.0810064 -1.94732 0
M  V30 2965 H 282.016 1.3338 -2.82163 0
M  V30 2966 N 282.317 1.53212 0.369288 0
M  V30 2967 C 283.28 1.7872 1.43498 0
M  V30 2968 C 284.28 0.657554 1.46741 0
M  V30 2969 O 285.47 0.925736 1.47566 0
M  V30 2970 C 282.602 1.90591 2.82645 0
M  V30 2971 H 283.795 2.73894 1.22156 0
M  V30 2972 H 281.348 1.44233 0.602203 0
M  V30 2973 H 282.083 0.974709 3.09306 0
M  V30 2974 H 281.868 2.72751 2.8169 0
M  V30 2975 H 283.358 2.11931 3.59826 0
M  V30 2976 N 283.795 -0.628877 1.44509 0
M  V30 2977 C 285.025 -1.41349 1.50678 0
M  V30 2978 C 285.433 -1.88745 0.131075 0
M  V30 2979 O 284.776 -1.61592 -0.87371 0
M  V30 2980 C 284.838 -2.66608 2.41165 0
M  V30 2981 C 284.502 -2.40993 3.88293 0
M  V30 2982 C 285.499 -2.0268 4.78766 0
M  V30 2983 C 283.184 -2.54563 4.33016 0
M  V30 2984 C 285.178 -1.78269 6.11963 0
M  V30 2985 C 282.865 -2.29766 5.6626 0
M  V30 2986 C 283.863 -1.91678 6.55552 0
M  V30 2987 O 283.551 -1.67158 7.86329 0
M  V30 2988 H 283.283 -0.439851 0.51333 0
M  V30 2989 H 285.837 -0.776084 1.90174 0
M  V30 2990 H 284.067 -3.32994 1.96601 0
M  V30 2991 H 285.756 -3.28615 2.38259 0
M  V30 2992 H 286.522 -1.91751 4.45485 0
M  V30 2993 H 282.401 -2.83179 3.63773 0
M  V30 2994 H 285.945 -1.48465 6.81619 0
M  V30 2995 H 281.842 -2.40306 5.99102 0
M  V30 2996 H 282.61 -1.81386 7.98149 0
M  V30 2997 N 285.273 -1.31445 -0.869486 0
M  V30 2998 C 286.223 -1.15731 -1.96444 0
M  V30 2999 C 287.207 -0.0681855 -1.60755 0
M  V30 3000 O 288.399 -0.293154 -1.74555 0
M  V30 3001 C 285.528 -0.867255 -3.32165 0
M  V30 3002 C 284.614 -1.99738 -3.74119 0
M  V30 3003 N 285.005 -3.24447 -3.88031 0
M  V30 3004 C 283.303 -1.89723 -4.03635 0
M  V30 3005 C 284.004 -3.98374 -4.23879 0
M  V30 3006 N 282.98 -3.26547 -4.3459 0
M  V30 3007 H 286.782 -2.10296 -2.05312 0
M  V30 3008 H 284.296 -1.23009 -1.06031 0
M  V30 3009 H 286.293 -0.735668 -4.10358 0
M  V30 3010 H 284.953 0.0701614 -3.24624 0
M  V30 3011 H 285.964 -3.59557 -3.72746 0
M  V30 3012 H 282.641 -1.03449 -4.04481 0
M  V30 3013 H 284.031 -5.05844 -4.42235 0
M  V30 3014 N 286.751 1.08385 -1.14413 0
M  V30 3015 C 287.998 1.80776 -0.912482 0
M  V30 3016 C 288.326 1.86236 0.560934 0
M  V30 3017 O 287.581 1.33431 1.43159 0
M  V30 3018 C 287.88 3.26273 -1.45879 0
M  V30 3019 C 287.546 3.4093 -2.95089 0
M  V30 3020 C 286.208 3.44638 -3.35824 0
M  V30 3021 C 288.56 3.44591 -3.91033 0
M  V30 3022 C 285.888 3.49597 -4.71167 0
M  V30 3023 C 288.24 3.51086 -5.26233 0
M  V30 3024 C 286.904 3.53067 -5.6648 0
M  V30 3025 H 286.174 0.661507 -0.333901 0
M  V30 3026 H 288.821 1.27613 -1.42784 0
M  V30 3027 H 287.126 3.82146 -0.864376 0
M  V30 3028 H 288.823 3.80839 -1.2555 0
M  V30 3029 H 285.413 3.38736 -2.62594 0
M  V30 3030 H 289.597 3.40957 -3.60641 0
M  V30 3031 H 284.853 3.49424 -5.0171 0
M  V30 3032 H 289.027 3.52864 -6.00383 0
M  V30 3033 H 286.654 3.56662 -6.71339 0
M  V30 3034 N 288.23 0.939286 1.26551 0
M  V30 3035 C 289.177 0.446088 2.26448 0
M  V30 3036 C 290.147 -0.493234 1.58608 0
M  V30 3037 O 291.332 -0.409857 1.86346 0
M  V30 3038 C 288.472 -0.284375 3.43926 0
M  V30 3039 C 287.585 0.690399 4.26448 0
M  V30 3040 C 286.72 -0.0610712 5.31165 0
M  V30 3041 C 285.759 0.905649 6.05363 0
M  V30 3042 N 284.896 0.186055 7.01853 0
M  V30 3043 H 289.736 1.30291 2.68008 0
M  V30 3044 H 287.273 0.65371 1.31776 0
M  V30 3045 H 289.231 -0.724313 4.10864 0
M  V30 3046 H 287.861 -1.10535 3.03285 0
M  V30 3047 H 286.913 1.24885 3.59316 0
M  V30 3048 H 288.225 1.42873 4.779 0
M  V30 3049 H 287.379 -0.56038 6.04106 0
M  V30 3050 H 286.118 -0.832297 4.80546 0
M  V30 3051 H 285.123 1.4161 5.3125 0
M  V30 3052 H 286.348 1.67685 6.58072 0
M  V30 3053 H 284.294 -0.566714 6.53548 0
M  V30 3054 H 284.211 0.863752 7.51049 0
M  V30 3055 H 285.479 -0.292221 7.78952 0
M  V30 3056 N 289.708 -1.40897 0.706093 0
M  V30 3057 C 290.985 -1.94868 0.169099 0
M  V30 3058 C 291.365 -1.64485 -1.32318 0
M  V30 3059 O 290.713 -0.95744 -2.07474 0
M  V30 3060 C 290.923 -3.45798 0.471654 0
M  V30 3061 C 292.271 -4.22663 0.405127 0
M  V30 3062 O 293.295 -3.53865 0.407168 0
M  V30 3063 O 292.154 -5.45216 0.374383 0
M  V30 3064 H 289.248 -0.82673 0.0211352 0
M  V30 3065 H 291.794 -1.50558 0.782976 0
M  V30 3066 H 290.566 -3.61235 1.50416 0
M  V30 3067 H 290.189 -3.97225 -0.172666 0
M  V30 3068 N 291.186 -0.45159 -1.50991 0
M  V30 3069 C 292.597 0.00818571 -1.86698 0
M  V30 3070 C 292.948 1.40661 -1.3678 0
M  V30 3071 O 292.073 2.0391 -0.724546 0
M  V30 3072 C 292.668 0.0216303 -3.38793 0
M  V30 3073 C 291.227 0.425865 -3.73983 0
M  V30 3074 C 290.374 -0.372163 -2.74791 0
M  V30 3075 H 293.325 -0.666785 -1.44013 0
M  V30 3076 H 293.346 0.828078 -3.7138 0
M  V30 3077 H 292.858 -0.996288 -3.75094 0
M  V30 3078 H 290.959 1.44886 -3.43277 0
M  V30 3079 H 291.072 0.140761 -4.78893 0
M  V30 3080 H 289.436 0.171498 -2.54122 0
M  V30 3081 H 290.219 -1.38922 -3.13935 0
M  V30 3082 N 292.664 1.56529 -0.183458 0
M  V30 3083 C 293.596 2.15747 0.773697 0
M  V30 3084 C 294.609 1.1162 1.1851 0
M  V30 3085 O 295.798 1.3876 1.12285 0
M  V30 3086 C 292.898 2.6952 2.05456 0
M  V30 3087 C 292.071 3.98429 1.8048 0
M  V30 3088 C 291.13 4.37145 2.92901 0
M  V30 3089 O 290.156 5.04791 2.6301 0
M  V30 3090 N 291.358 3.99695 4.2098 0
M  V30 3091 H 294.123 2.98505 0.26736 0
M  V30 3092 H 291.684 1.619 -0.0010878 0
M  V30 3093 H 293.676 2.92412 2.79781 0
M  V30 3094 H 292.246 1.91282 2.47245 0
M  V30 3095 H 291.466 3.8379 0.899947 0
M  V30 3096 H 292.754 4.82597 1.61175 0
M  V30 3097 H 292.152 3.4526 4.48121 0
M  V30 3098 H 290.709 4.27562 4.9197 0
M  V30 3099 N 294.142 -0.090211 1.57342 0
M  V30 3100 C 295.372 -0.805055 1.90269 0
M  V30 3101 C 295.78 -1.72561 0.775842 0
M  V30 3102 O 295.123 -1.81839 -0.260843 0
M  V30 3103 C 295.185 -1.66734 3.18497 0
M  V30 3104 C 294.849 -0.918092 4.47683 0
M  V30 3105 C 295.846 -0.245674 5.19319 0
M  V30 3106 C 293.531 -0.890724 4.94339 0
M  V30 3107 C 295.525 0.444088 6.35851 0
M  V30 3108 C 293.212 -0.197179 6.10782 0
M  V30 3109 C 294.21 0.469044 6.81388 0
M  V30 3110 O 293.898 1.15146 7.95611 0
M  V30 3111 H 293.63 -0.235143 0.633785 0
M  V30 3112 H 296.184 -0.0703805 2.05279 0
M  V30 3113 H 294.414 -2.44437 2.99646 0
M  V30 3114 H 296.103 -2.25919 3.37217 0
M  V30 3115 H 296.869 -0.258246 4.84312 0
M  V30 3116 H 292.748 -1.39873 4.39268 0
M  V30 3117 H 296.292 0.964667 6.90898 0
M  V30 3118 H 292.189 -0.18247 6.45242 0
M  V30 3119 H 292.957 1.05885 8.11622 0
M  V30 3120 N 295.62 -1.53406 -0.361157 0
M  V30 3121 C 297.031 -1.61442 -0.937728 0
M  V30 3122 C 297.382 -0.48461 -1.90121 0
M  V30 3123 O 296.507 0.388312 -2.12888 0
M  V30 3124 C 297.102 -2.92624 -1.70753 0
M  V30 3125 C 295.661 -3.02981 -2.23337 0
M  V30 3126 C 294.808 -2.5677 -1.04712 0
M  V30 3127 H 297.759 -1.58083 -0.139816 0
M  V30 3128 H 297.78 -2.80675 -2.56908 0
M  V30 3129 H 297.292 -3.74834 -1.00604 0
M  V30 3130 H 295.393 -2.25368 -2.96715 0
M  V30 3131 H 295.506 -4.0814 -2.50916 0
M  V30 3132 H 293.87 -2.11752 -1.41539 0
M  V30 3133 H 294.653 -3.41402 -0.360539 0
M  V30 3134 N 297.098 0.621204 -1.44841 0
M  V30 3135 C 298.344 1.3826 -1.48365 0
M  V30 3136 C 298.677 1.93831 -0.119624 0
M  V30 3137 O 297.952 1.74251 0.864111 0
M  V30 3138 C 298.235 2.54058 -2.55199 0
M  V30 3139 C 298.088 2.03772 -4.00995 0
M  V30 3140 C 299.407 3.56225 -2.58442 0
M  V30 3141 H 296.526 0.501374 -0.540179 0
M  V30 3142 H 299.168 0.7015 -1.76576 0
M  V30 3143 H 297.318 3.12162 -2.31274 0
M  V30 3144 H 298.99 1.50423 -4.36086 0
M  V30 3145 H 297.233 1.34876 -4.12299 0
M  V30 3146 H 297.904 2.87185 -4.71411 0
M  V30 3147 H 300.38 3.07939 -2.79844 0
M  V30 3148 H 299.256 4.34756 -3.3508 0
M  V30 3149 H 299.517 4.10949 -1.63013 0
M  V30 3150 N 298.576 1.31904 0.862503 0
M  V30 3151 C 299.822 1.23207 1.61838 0
M  V30 3152 C 300.177 -0.206062 1.91293 0
M  V30 3153 O 299.47 -1.14162 1.53875 0
M  V30 3154 C 299.664 2.01713 2.95037 0
M  V30 3155 C 299.493 3.53014 2.78588 0
M  V30 3156 C 298.263 4.22359 2.77382 0
M  V30 3157 C 300.461 4.47819 2.52909 0
M  V30 3158 N 298.443 5.59766 2.52062 0
M  V30 3159 C 299.814 5.72947 2.36922 0
M  V30 3160 C 301.869 4.37162 2.38314 0
M  V30 3161 C 300.572 6.88623 2.07823 0
M  V30 3162 C 302.598 5.5263 2.10604 0
M  V30 3163 C 301.96 6.76752 1.95411 0
M  V30 3164 H 298.059 0.505984 0.596242 0
M  V30 3165 H 300.643 1.66179 1.01452 0
M  V30 3166 H 298.814 1.61098 3.53415 0
M  V30 3167 H 300.546 1.84975 3.59953 0
M  V30 3168 H 297.301 3.74401 2.90036 0
M  V30 3169 H 297.725 6.32135 2.42352 0
M  V30 3170 H 302.367 3.41857 2.48784 0
M  V30 3171 H 300.085 7.83948 1.9609 0
M  V30 3172 H 303.671 5.46307 2.00101 0
M  V30 3173 H 302.551 7.6459 1.74274 0
M  V30 3174 N 300.054 -1.07777 1.14986 0
M  V30 3175 C 300.964 -2.18404 0.856546 0
M  V30 3176 C 301.98 -1.73211 -0.165485 0
M  V30 3177 O 303.156 -2.01399 0.00755219 0
M  V30 3178 C 300.221 -3.44977 0.34526 0
M  V30 3179 C 299.282 -4.0476 1.43065 0
M  V30 3180 C 298.515 -5.25291 0.943663 0
M  V30 3181 O 298.738 -5.70004 -0.212426 0
M  V30 3182 O 297.672 -5.76638 1.72547 0
M  V30 3183 H 301.498 -2.45978 1.78125 0
M  V30 3184 H 299.083 -1.17033 0.928631 0
M  V30 3185 H 300.965 -4.21348 0.0663671 0
M  V30 3186 H 299.64 -3.18965 -0.551631 0
M  V30 3187 H 298.547 -3.29949 1.76309 0
M  V30 3188 H 299.88 -4.35035 2.30229 0
M  V30 3189 N 301.532 -0.945985 -1.26051 0
M  V30 3190 C 302.462 -0.477172 -2.28572 0
M  V30 3191 C 303.443 0.472032 -1.63419 0
M  V30 3192 O 304.628 0.372853 -1.90587 0
M  V30 3193 C 301.758 0.253975 -3.4637 0
M  V30 3194 C 300.712 -0.609135 -4.23643 0
M  V30 3195 C 300.038 0.252252 -5.34105 0
M  V30 3196 C 301.338 -1.8829 -4.8718 0
M  V30 3197 H 303.032 -1.33402 -2.68038 0
M  V30 3198 H 300.578 -0.642904 -1.28852 0
M  V30 3199 H 302.531 0.593016 -4.17207 0
M  V30 3200 H 301.255 1.145 -3.05871 0
M  V30 3201 H 299.914 -0.931138 -3.54578 0
M  V30 3202 H 299.562 1.14278 -4.89846 0
M  V30 3203 H 299.262 -0.32188 -5.86718 0
M  V30 3204 H 300.786 0.586454 -6.07777 0
M  V30 3205 H 302.2 -1.61081 -5.50205 0
M  V30 3206 H 300.597 -2.40199 -5.49931 0
M  V30 3207 H 301.667 -2.59134 -4.09851 0
M  V30 3208 N 303.011 1.40521 -0.713556 0
M  V30 3209 C 304.239 2.05237 -0.261775 0
M  V30 3210 C 304.654 1.53755 1.09567 0
M  V30 3211 O 304.011 0.693268 1.6882 0
M  V30 3212 C 304.062 3.60763 -0.230706 0
M  V30 3213 O 303.783 4.10345 -1.53455 0
M  V30 3214 C 305.284 4.42651 0.239874 0
M  V30 3215 H 302.504 0.660533 -0.118057 0
M  V30 3216 H 305.048 1.79967 -0.971192 0
M  V30 3217 H 303.203 3.8501 0.429661 0
M  V30 3218 H 303.617 5.04526 -1.43366 0
M  V30 3219 H 305.091 5.51599 0.210468 0
M  V30 3220 H 305.568 4.20082 1.28171 0
M  V30 3221 H 306.174 4.23507 -0.390142 0
M  V30 3222 N 304.489 0.459591 1.5075 0
M  V30 3223 C 305.738 -0.100971 2.01447 0
M  V30 3224 C 306.051 -1.41816 1.34713 0
M  V30 3225 O 307.257 -2.06299 1.76502 0
M  V30 3226 C 305.713 -0.23047 3.59161 0
M  V30 3227 C 305.321 1.0776 4.34847 0
M  V30 3228 C 307.065 -0.743608 4.17936 0
M  V30 3229 C 304.972 0.91253 5.84317 0
M  V30 3230 H 303.902 -0.0415102 0.752856 0
M  V30 3231 H 306.553 0.592742 1.73663 0
M  V30 3232 H 304.935 -0.987703 3.83485 0
M  V30 3233 H 306.109 1.8449 4.22256 0
M  V30 3234 H 304.424 1.52097 3.87628 0
M  V30 3235 H 307.021 -0.883959 5.27343 0
M  V30 3236 H 307.364 -1.73196 3.78562 0
M  V30 3237 H 307.897 -0.04408 3.97776 0
M  V30 3238 H 304.636 1.87391 6.28144 0
M  V30 3239 H 304.156 0.185422 5.99513 0
M  V30 3240 H 305.835 0.574547 6.44444 0
M  V30 3241 N 305.967 -1.56429 0.191757 0
M  V30 3242 C 307.383 -1.58754 -0.164137 0
M  V30 3243 C 307.583 -1.20782 -1.61288 0
M  V30 3244 O 306.639 -0.928999 -2.34789 0
M  V30 3245 C 307.952 -3.00396 0.135195 0
M  V30 3246 C 309.5 -3.1291 0.0750351 0
M  V30 3247 C 309.975 -4.56679 0.347632 0
M  V30 3248 N 311.466 -4.62252 0.296131 0
M  V30 3249 C 312.201 -5.71379 0.480948 0
M  V30 3250 N 311.697 -6.88986 0.725933 0
M  V30 3251 N 313.49 -5.60563 0.415435 0
M  V30 3252 H 305.641 -1.79393 1.13718 0
M  V30 3253 H 307.904 -0.832414 0.453643 0
M  V30 3254 H 307.61 -3.32726 1.13958 0
M  V30 3255 H 307.484 -3.72963 -0.563773 0
M  V30 3256 H 309.871 -2.80394 -0.919948 0
M  V30 3257 H 309.952 -2.42736 0.807029 0
M  V30 3258 H 309.596 -4.89907 1.33992 0
M  V30 3259 H 309.526 -5.25039 -0.405212 0
M  V30 3260 H 312.017 -3.7773 0.113259 0
M  V30 3261 H 312.33 -7.68046 0.855857 0
M  V30 3262 H 310.675 -6.90801 0.762788 0
M  V30 3263 H 313.866 -4.67561 0.224486 0
M  V30 3264 H 314.039 -6.45551 0.562889 0
M  V30 3265 N 307.445 0.0818655 -1.57387 0
M  V30 3266 C 308.691 0.784074 -1.8703 0
M  V30 3267 C 309.024 1.77729 -0.782689 0
M  V30 3268 O 308.299 1.93384 0.208051 0
M  V30 3269 C 308.582 1.50105 -3.27323 0
M  V30 3270 C 308.435 0.524925 -4.46727 0
M  V30 3271 C 309.754 2.44843 -3.65705 0
M  V30 3272 H 306.873 0.283582 -0.680257 0
M  V30 3273 H 309.515 0.0474352 -1.89941 0
M  V30 3274 H 307.665 2.12897 -3.24972 0
M  V30 3275 H 309.337 -0.0970111 -4.61198 0
M  V30 3276 H 307.58 -0.160606 -4.33503 0
M  V30 3277 H 308.251 1.064 -5.41648 0
M  V30 3278 H 310.727 1.92135 -3.69085 0
M  V30 3279 H 309.603 2.92018 -4.64776 0
M  V30 3280 H 309.864 3.29197 -2.95096 0
M  V30 3281 N 308.923 1.53595 0.353017 0
M  V30 3282 C 310.169 1.71581 1.09232 0
M  V30 3283 C 310.524 0.468328 1.86613 0
M  V30 3284 O 309.817 -0.538911 1.83865 0
M  V30 3285 C 310.011 2.91313 2.07054 0
M  V30 3286 C 309.84 4.27585 1.39287 0
M  V30 3287 C 308.61 4.92233 1.1417 0
M  V30 3288 C 310.808 5.07656 0.824005 0
M  V30 3289 N 308.79 6.124 0.428841 0
M  V30 3290 C 310.161 6.19531 0.241195 0
M  V30 3291 C 312.216 4.92609 0.723922 0
M  V30 3292 C 310.919 7.18002 -0.431952 0
M  V30 3293 C 312.945 5.91365 0.0645334 0
M  V30 3294 C 312.307 7.02571 -0.507347 0
M  V30 3295 H 308.406 0.680987 0.384422 0
M  V30 3296 H 310.99 1.91013 0.377096 0
M  V30 3297 H 309.161 2.73398 2.75877 0
M  V30 3298 H 310.893 2.98062 2.73753 0
M  V30 3299 H 307.648 4.51612 1.42631 0
M  V30 3300 H 308.072 6.76944 0.0874131 0
M  V30 3301 H 312.714 4.06808 1.15181 0
M  V30 3302 H 310.432 8.03384 -0.871758 0
M  V30 3303 H 314.018 5.81799 -0.0121469 0
M  V30 3304 H 312.898 7.77675 -1.0095 0
M  V30 3305 N 310.401 -0.613514 1.45168 0
M  V30 3306 C 311.626 -1.40437 1.52618 0
M  V30 3307 C 312.051 -1.87438 0.157707 0
M  V30 3308 O 311.409 -1.59791 -0.856537 0
M  V30 3309 C 311.457 -2.58894 2.51011 0
M  V30 3310 O 310.561 -3.59326 2.02382 0
M  V30 3311 H 309.902 -0.419506 0.514695 0
M  V30 3312 H 312.432 -0.747215 1.90467 0
M  V30 3313 H 312.442 -3.06214 2.69624 0
M  V30 3314 H 311.117 -2.24032 3.50403 0
M  V30 3315 H 309.694 -3.18695 1.93618 0
M  V30 3316 N 311.879 -1.3236 -0.855495 0
M  V30 3317 C 312.789 -1.23221 -1.99634 0
M  V30 3318 C 313.805 -0.145983 -1.73387 0
M  V30 3319 O 314.981 -0.366502 -1.98037 0
M  V30 3320 C 312.046 -0.954782 -3.33294 0
M  V30 3321 C 311.107 -2.12937 -3.72769 0
M  V30 3322 C 310.34 -1.86508 -5.00051 0
M  V30 3323 O 310.563 -0.807231 -5.64659 0
M  V30 3324 O 309.497 -2.72591 -5.36636 0
M  V30 3325 H 313.323 -2.19126 -2.1028 0
M  V30 3326 H 310.908 -1.12241 -0.986018 0
M  V30 3327 H 312.79 -0.816519 -4.13414 0
M  V30 3328 H 311.465 -0.0258854 -3.2369 0
M  V30 3329 H 310.372 -2.3231 -2.93228 0
M  V30 3330 H 311.705 -3.04102 -3.87018 0
M  V30 3331 N 313.357 1.07166 -1.15556 0
M  V30 3332 C 314.287 2.16403 -0.877046 0
M  V30 3333 C 315.268 1.69217 0.173111 0
M  V30 3334 O 316.453 1.94181 0.027084 0
M  V30 3335 C 313.583 3.45349 -0.367632 0
M  V30 3336 C 312.537 4.05995 -1.35468 0
M  V30 3337 C 311.863 5.30045 -0.704038 0
M  V30 3338 C 313.163 4.45804 -2.72132 0
M  V30 3339 H 314.857 2.39959 -1.79053 0
M  V30 3340 H 312.403 1.15325 -0.862331 0
M  V30 3341 H 314.356 4.21095 -0.160317 0
M  V30 3342 H 313.08 3.21385 0.581326 0
M  V30 3343 H 311.739 3.32296 -1.54839 0
M  V30 3344 H 311.387 5.02373 0.251128 0
M  V30 3345 H 311.087 5.71579 -1.36277 0
M  V30 3346 H 312.611 6.08495 -0.50654 0
M  V30 3347 H 314.025 5.12671 -2.56595 0
M  V30 3348 H 312.422 4.98296 -3.34397 0
M  V30 3349 H 313.492 3.57083 -3.28054 0
M  V30 3350 N 314.835 0.952656 1.25548 0
M  V30 3351 C 315.783 0.462354 2.27958 0
M  V30 3352 C 316.777 -0.46634 1.62855 0
M  V30 3353 O 317.983 -0.343287 1.76696 0
M  V30 3354 H 314.358 0.13101 0.7405 0
M  V30 3355 H 316.329 1.33839 2.66702 0
M  V30 3356 C 315.078 -0.24628 3.46827 0
M  V30 3357 H 314.401 0.459192 3.97154 0
M  V30 3358 H 315.841 -0.553393 4.20373 0
M  V30 3359 C 314.3 -1.4681 3.0323 0
M  V30 3360 O 314.83 -2.56591 3.09069 0
M  V30 3361 N 313.036 -1.32874 2.58443 0
M  V30 3362 H 312.583 -0.435536 2.53891 0
M  V30 3363 H 312.541 -2.14742 2.29637 0
M  V30 3364 N 316.313 -1.40141 0.720998 0
M  V30 3365 C 317.562 -2.0002 0.259804 0
M  V30 3366 C 317.875 -1.57839 -1.15526 0
M  V30 3367 O 319.081 -2.10455 -1.71525 0
M  V30 3368 C 317.537 -3.57516 0.413566 0
M  V30 3369 C 317.145 -4.08667 1.83562 0
M  V30 3370 C 318.889 -4.24498 0.0134387 0
M  V30 3371 C 316.796 -5.58686 1.93968 0
M  V30 3372 H 315.726 -0.748195 0.0933806 0
M  V30 3373 H 318.377 -1.60313 0.892866 0
M  V30 3374 H 316.759 -3.9495 -0.288169 0
M  V30 3375 H 317.933 -3.82598 2.56817 0
M  V30 3376 H 316.248 -3.543 2.1877 0
M  V30 3377 H 318.845 -5.34654 0.0703954 0
M  V30 3378 H 319.188 -4.03375 -1.02927 0
M  V30 3379 H 319.721 -3.92188 0.665815 0
M  V30 3380 H 316.46 -5.8467 2.96379 0
M  V30 3381 H 315.98 -5.86602 1.25131 0
M  V30 3382 H 317.659 -6.23875 1.71431 0
M  V30 3383 N 317.792 -0.46758 -1.50504 0
M  V30 3384 C 319.04 0.0884469 -2.01906 0
M  V30 3385 C 319.361 1.40532 -1.35188 0
M  V30 3386 O 318.631 1.89515 -0.496079 0
M  V30 3387 H 317.211 0.0356765 -0.746148 0
M  V30 3388 H 319.873 -0.6172 -1.84869 0
M  V30 3389 H 318.969 0.2425 -3.11156 0
M  V30 3390 N 319.27 1.56325 -0.20005 0
M  V30 3391 C 320.498 2.02105 0.442874 0
M  V30 3392 C 320.913 1.08014 1.5485 0
M  V30 3393 O 320.27 0.0858797 1.82298 0
M  V30 3394 C 320.321 3.47549 0.994583 0
M  V30 3395 O 320.042 4.38049 -0.0669322 0
M  V30 3396 C 321.543 4.0887 1.7129 0
M  V30 3397 H 318.763 0.661807 0.110691 0
M  V30 3398 H 321.307 2.02134 -0.310207 0
M  V30 3399 H 319.462 3.48204 1.69803 0
M  V30 3400 H 319.876 5.23368 0.344462 0
M  V30 3401 H 321.35 5.12475 2.05118 0
M  V30 3402 H 321.827 3.52615 2.61838 0
M  V30 3403 H 322.433 4.12002 1.05518 0
M  V30 3404 N 320.748 -0.0735177 1.57428 0
M  V30 3405 C 321.996 -0.771472 1.86796 0
M  V30 3406 C 322.317 -1.78201 0.791804 0
M  V30 3407 O 321.587 -1.95074 -0.179718 0
M  V30 3408 H 320.167 -0.28791 0.689287 0
M  V30 3409 H 322.829 -0.0500161 1.94836 0
M  V30 3410 H 321.925 -1.28874 2.8425 0
M  V30 3411 N 322.226 -1.5378 -0.344866 0
M  V30 3412 C 323.454 -1.74899 -1.10534 0
M  V30 3413 C 323.869 -0.487534 -1.82397 0
M  V30 3414 O 323.226 0.540741 -1.74305 0
M  V30 3415 C 323.277 -2.92822 -2.11984 0
M  V30 3416 O 322.998 -4.14089 -1.43044 0
M  V30 3417 C 324.499 -3.25982 -3.00417 0
M  V30 3418 H 321.719 -0.584426 -0.329678 0
M  V30 3419 H 324.263 -2.006 -0.397474 0
M  V30 3420 H 322.418 -2.69457 -2.78338 0
M  V30 3421 H 322.832 -4.80272 -2.10805 0
M  V30 3422 H 324.306 -4.11848 -3.67539 0
M  V30 3423 H 324.783 -2.42228 -3.66363 0
M  V30 3424 H 325.389 -3.51349 -2.39654 0
M  V30 3425 N 323.704 0.605807 -1.45491 0
M  V30 3426 C 324.929 1.39625 -1.53361 0
M  V30 3427 C 325.354 1.87351 -0.167645 0
M  V30 3428 O 324.712 1.60243 0.848051 0
M  V30 3429 C 324.76 2.57559 -2.5238 0
M  V30 3430 O 323.864 3.58248 -2.04285 0
M  V30 3431 H 323.205 0.416771 -0.516912 0
M  V30 3432 H 325.735 0.737103 -1.90861 0
M  V30 3433 H 325.745 3.0478 -2.71244 0
M  V30 3434 H 324.42 2.22171 -3.51586 0
M  V30 3435 H 322.997 3.17664 -1.95305 0
M  V30 3436 N 325.182 1.32811 0.848464 0
M  V30 3437 C 326.145 1.22194 1.9391 0
M  V30 3438 C 327.145 0.143404 1.60159 0
M  V30 3439 O 328.335 0.394253 1.6968 0
M  V30 3440 C 325.467 0.88067 3.29328 0
M  V30 3441 H 326.66 2.19127 2.04752 0
M  V30 3442 H 324.213 1.16731 1.0394 0
M  V30 3443 H 324.948 -0.0865776 3.24184 0
M  V30 3444 H 324.733 1.66052 3.55203 0
M  V30 3445 H 326.223 0.830871 4.09251 0
M  V30 3446 N 326.66 -1.06551 1.16123 0
M  V30 3447 C 327.89 -1.8274 0.963838 0
M  V30 3448 C 328.298 -1.82712 -0.491228 0
M  V30 3449 O 327.641 -1.24294 -1.35265 0
M  V30 3450 C 327.703 -3.3065 1.41106 0
M  V30 3451 C 327.367 -3.54384 2.88549 0
M  V30 3452 C 328.364 -3.4765 3.86569 0
M  V30 3453 C 326.049 -3.81789 3.26408 0
M  V30 3454 C 328.043 -3.67982 5.2045 0
M  V30 3455 C 325.73 -4.01772 4.60459 0
M  V30 3456 C 326.728 -3.94866 5.57288 0
M  V30 3457 O 326.416 -4.14306 6.88916 0
M  V30 3458 H 326.148 -0.583136 0.341948 0
M  V30 3459 H 328.702 -1.35351 1.54497 0
M  V30 3460 H 326.932 -3.78887 0.773394 0
M  V30 3461 H 328.621 -3.88324 1.1815 0
M  V30 3462 H 329.387 -3.2647 3.58667 0
M  V30 3463 H 325.266 -3.86276 2.51619 0
M  V30 3464 H 328.81 -3.62507 5.96015 0
M  V30 3465 H 324.707 -4.2244 4.88072 0
M  V30 3466 H 325.475 -4.31609 6.95454 0
M  V30 3467 N 328.138 -0.959301 -1.25041 0
M  V30 3468 C 329.366 -0.633949 -1.96948 0
M  V30 3469 C 329.781 0.794916 -1.7125 0
M  V30 3470 O 329.138 1.53231 -0.991287 0
M  V30 3471 C 329.189 -0.888805 -3.50403 0
M  V30 3472 O 328.91 -2.26149 -3.75218 0
M  V30 3473 C 330.411 -0.576482 -4.39536 0
M  V30 3474 H 327.631 -0.237263 -0.627652 0
M  V30 3475 H 330.175 -1.28495 -1.59089 0
M  V30 3476 H 328.33 -0.284145 -3.86357 0
M  V30 3477 H 328.744 -2.33514 -4.6965 0
M  V30 3478 H 330.218 -0.805314 -5.46094 0
M  V30 3479 H 330.695 0.489075 -4.36468 0
M  V30 3480 H 331.301 -1.16067 -4.09156 0
M  V30 3481 N 329.616 1.39756 -0.72842 0
M  V30 3482 C 330.841 2.05472 -0.282159 0
M  V30 3483 C 331.266 1.54549 1.07221 0
M  V30 3484 O 330.624 0.686372 1.67805 0
M  V30 3485 C 330.672 3.59462 -0.286264 0
M  V30 3486 O 329.776 4.05918 0.728298 0
M  V30 3487 H 329.117 0.651226 -0.129618 0
M  V30 3488 H 331.647 1.78915 -0.992499 0
M  V30 3489 H 331.657 4.07798 -0.128373 0
M  V30 3490 H 330.332 3.95889 -1.27456 0
M  V30 3491 H 328.909 3.69012 0.537081 0
M  V30 3492 N 331.094 0.475555 1.50254 0
M  V30 3493 C 332.024 -0.30611 2.31485 0
M  V30 3494 C 333.005 -0.986228 1.38591 0
M  V30 3495 O 334.19 -0.982541 1.67511 0
M  V30 3496 C 331.32 -1.38588 3.1845 0
M  V30 3497 C 330.274 -0.827115 4.19932 0
M  V30 3498 C 329.6 -2.00551 4.95665 0
M  V30 3499 C 330.9 0.16463 5.2204 0
M  V30 3500 H 332.594 0.371866 2.97082 0
M  V30 3501 H 330.14 0.180282 1.42867 0
M  V30 3502 H 332.093 -1.94023 3.74076 0
M  V30 3503 H 330.817 -2.09269 2.50747 0
M  V30 3504 H 329.476 -0.294702 3.65414 0
M  V30 3505 H 329.124 -2.6994 4.2443 0
M  V30 3506 H 328.824 -1.63784 5.64313 0
M  V30 3507 H 330.348 -2.56468 5.54127 0
M  V30 3508 H 331.762 -0.300699 5.72511 0
M  V30 3509 H 330.159 0.446813 5.98434 0
M  V30 3510 H 331.229 1.08905 4.72512 0
M  V30 3511 N 332.573 -1.56217 0.208337 0
M  V30 3512 C 333.521 -2.21053 -0.723769 0
M  V30 3513 C 334.515 -1.18578 -1.20978 0
M  V30 3514 O 335.721 -1.36691 -1.17114 0
M  V30 3515 H 332.096 -0.708595 -0.251788 0
M  V30 3516 H 334.067 -2.98006 -0.153365 0
M  V30 3517 C 332.816 -2.89417 -1.927 0
M  V30 3518 H 332.139 -3.68019 -1.56212 0
M  V30 3519 H 333.579 -3.38201 -2.55727 0
M  V30 3520 C 332.038 -1.91166 -2.77411 0
M  V30 3521 O 332.568 -1.42026 -3.75754 0
M  V30 3522 N 330.774 -1.59105 -2.43175 0
M  V30 3523 H 330.321 -1.99259 -1.63259 0
M  V30 3524 H 330.279 -0.936255 -3.00136 0
M  V30 3525 N 334.051 0.0651679 -1.57465 0
M  V30 3526 C 335.297 0.764193 -1.87851 0
M  V30 3527 C 335.63 1.76889 -0.801495 0
M  V30 3528 O 334.905 1.93594 0.187528 0
M  V30 3529 C 335.188 1.46625 -3.28897 0
M  V30 3530 C 335.041 0.477515 -4.47258 0
M  V30 3531 C 336.36 2.4095 -3.68281 0
M  V30 3532 H 333.479 0.276351 -0.683227 0
M  V30 3533 H 336.121 0.0272868 -1.8998 0
M  V30 3534 H 334.271 2.09438 -3.27212 0
M  V30 3535 H 335.943 -0.145922 -4.61069 0
M  V30 3536 H 334.186 -0.206576 -4.33308 0
M  V30 3537 H 334.857 1.0065 -5.42746 0
M  V30 3538 H 337.333 1.88209 -3.71102 0
M  V30 3539 H 336.209 2.87072 -4.67847 0
M  V30 3540 H 336.47 3.26049 -2.98571 0
M  V30 3541 N 335.529 1.53961 0.336706 0
M  V30 3542 C 336.459 1.85417 1.41925 0
M  V30 3543 C 337.44 0.709856 1.5458 0
M  V30 3544 O 338.625 0.962396 1.68676 0
M  V30 3545 C 335.755 2.06985 2.78881 0
M  V30 3546 C 334.709 3.22813 2.81026 0
M  V30 3547 C 334.035 3.29727 4.20932 0
M  V30 3548 C 335.335 4.60767 2.45949 0
M  V30 3549 H 337.029 2.76079 1.15848 0
M  V30 3550 H 334.575 1.32839 0.555859 0
M  V30 3551 H 336.528 2.27575 3.54665 0
M  V30 3552 H 335.252 1.13061 3.06406 0
M  V30 3553 H 333.911 3.0209 2.07695 0
M  V30 3554 H 333.559 2.33385 4.45579 0
M  V30 3555 H 333.259 4.07566 4.23277 0
M  V30 3556 H 334.783 3.52536 4.98549 0
M  V30 3557 H 336.197 4.81325 3.11446 0
M  V30 3558 H 334.594 5.4106 2.59566 0
M  V30 3559 H 335.664 4.6391 1.41122 0
M  V30 3560 N 337.007 -0.598083 1.45811 0
M  V30 3561 C 337.97 -1.69018 1.54808 0
M  V30 3562 C 338.97 -1.55037 0.426652 0
M  V30 3563 O 340.16 -1.59932 0.690456 0
M  V30 3564 C 337.292 -3.0835 1.45371 0
M  V30 3565 H 338.485 -1.62403 2.52121 0
M  V30 3566 H 336.038 -0.814626 1.33392 0
M  V30 3567 H 336.773 -3.20534 0.492793 0
M  V30 3568 H 336.558 -3.19907 2.26721 0
M  V30 3569 H 338.048 -3.8788 1.54721 0
M  V30 3570 N 338.485 -1.33259 -0.841409 0
M  V30 3571 C 339.901 -1.12538 -1.13169 0
M  V30 3572 C 340.101 0.0854037 -2.01319 0
M  V30 3573 O 339.157 0.766417 -2.40587 0
M  V30 3574 C 340.47 -2.41156 -1.79623 0
M  V30 3575 C 342.018 -2.47038 -1.922 0
M  V30 3576 C 342.493 -3.7561 -2.6207 0
M  V30 3577 N 343.984 -3.76667 -2.69585 0
M  V30 3578 C 344.719 -4.72861 -3.2433 0
M  V30 3579 N 344.215 -5.79428 -3.79783 0
M  V30 3580 N 346.008 -4.6034 -3.22558 0
M  V30 3581 H 338.159 -2.10868 -0.254676 0
M  V30 3582 H 340.422 -0.931615 -0.175493 0
M  V30 3583 H 340.128 -3.29747 -1.22311 0
M  V30 3584 H 340.002 -2.53114 -2.79666 0
M  V30 3585 H 342.389 -1.58898 -2.48667 0
M  V30 3586 H 342.47 -2.39022 -0.911148 0
M  V30 3587 H 342.114 -4.64131 -2.06263 0
M  V30 3588 H 342.044 -3.80902 -3.63622 0
M  V30 3589 H 344.535 -2.99648 -2.30259 0
M  V30 3590 H 344.848 -6.48867 -4.19752 0
M  V30 3591 H 343.193 -5.83166 -3.78078 0
M  V30 3592 H 346.384 -3.76244 -2.78492 0
M  V30 3593 H 346.557 -5.35478 -3.64921 0
M  V30 3594 N 339.963 1.05934 -1.16686 0
M  V30 3595 C 341.21 1.788 -0.950622 0
M  V30 3596 C 341.538 1.87384 0.521305 0
M  V30 3597 O 340.793 1.36438 1.40297 0
M  V30 3598 C 341.092 3.23105 -1.52767 0
M  V30 3599 C 340.758 3.34594 -3.02254 0
M  V30 3600 C 339.42 3.37437 -3.43059 0
M  V30 3601 C 341.772 3.36219 -3.98254 0
M  V30 3602 C 339.1 3.39525 -4.78477 0
M  V30 3603 C 341.452 3.39845 -5.33562 0
M  V30 3604 C 340.116 3.40971 -5.73842 0
M  V30 3605 H 339.386 0.654275 -0.347857 0
M  V30 3606 H 342.033 1.24555 -1.45459 0
M  V30 3607 H 340.338 3.80227 -0.94524 0
M  V30 3608 H 342.035 3.7809 -1.336 0
M  V30 3609 H 338.625 3.3309 -2.6972 0
M  V30 3610 H 342.809 3.33231 -3.67792 0
M  V30 3611 H 338.065 3.38703 -5.09009 0
M  V30 3612 H 342.239 3.4005 -6.07733 0
M  V30 3613 H 339.866 3.42342 -6.78753 0
M  V30 3614 N 341.441 0.965919 1.2453 0
M  V30 3615 C 342.669 0.644385 1.96609 0
M  V30 3616 C 343.084 -0.785823 1.71669 0
M  V30 3617 O 342.441 -1.52703 0.999399 0
M  V30 3618 C 342.492 0.907375 3.49927 0
M  V30 3619 O 342.213 2.28136 3.74013 0
M  V30 3620 C 343.714 0.599784 4.39224 0
M  V30 3621 H 340.934 0.240588 0.626385 0
M  V30 3622 H 343.478 1.29337 1.58405 0
M  V30 3623 H 341.633 0.304631 3.862 0
M  V30 3624 H 342.047 2.36002 4.68405 0
M  V30 3625 H 343.521 0.834263 5.45659 0
M  V30 3626 H 343.998 -0.465921 4.36722 0
M  V30 3627 H 344.604 1.18235 4.08535 0
M  V30 3628 N 342.919 -1.39368 0.735821 0
M  V30 3629 C 344.196 -1.94465 0.210395 0
M  V30 3630 C 344.576 -1.67254 -1.28799 0
M  V30 3631 O 343.924 -1.00123 -2.05396 0
M  V30 3632 C 344.134 -3.4472 0.544897 0
M  V30 3633 C 345.482 -4.21708 0.494689 0
M  V30 3634 O 346.506 -3.52922 0.482136 0
M  V30 3635 O 345.365 -5.44299 0.489947 0
M  V30 3636 H 342.459 -0.826096 0.0386666 0
M  V30 3637 H 345.005 -1.48863 0.814735 0
M  V30 3638 H 343.777 -3.57963 1.58045 0
M  V30 3639 H 343.4 -3.97502 -0.08837 0
M  V30 3640 N 344.397 -0.483516 -1.5 0
M  V30 3641 C 345.327 0.293829 -2.31644 0
M  V30 3642 C 346.308 0.978864 -1.39112 0
M  V30 3643 O 347.493 0.973644 -1.68029 0
M  V30 3644 C 344.623 1.36897 -3.19181 0
M  V30 3645 C 343.577 0.804833 -4.20365 0
M  V30 3646 C 342.903 1.9792 -4.96721 0
M  V30 3647 C 344.203 -0.192313 -5.21946 0
M  V30 3648 H 345.897 -0.387616 -2.9688 0
M  V30 3649 H 343.443 -0.187856 -1.42769 0
M  V30 3650 H 345.396 1.92037 -3.751 0
M  V30 3651 H 344.12 2.07936 -2.51853 0
M  V30 3652 H 342.779 0.275319 -3.65565 0
M  V30 3653 H 342.427 2.67686 -4.25856 0
M  V30 3654 H 342.127 1.60789 -5.65173 0
M  V30 3655 H 343.651 2.53526 -5.55479 0
M  V30 3656 H 345.065 0.270333 -5.72662 0
M  V30 3657 H 343.462 -0.478543 -5.98189 0
M  V30 3658 H 344.532 -1.11409 -4.71928 0
M  V30 3659 N 345.875 1.56104 -0.216619 0
M  V30 3660 C 346.785 2.23694 0.706982 0
M  V30 3661 C 347.801 1.24295 1.21765 0
M  V30 3662 O 348.977 1.57094 1.2603 0
M  V30 3663 C 346.042 2.8998 1.90033 0
M  V30 3664 C 345.103 4.04708 1.43213 0
M  V30 3665 C 344.336 4.67824 2.56859 0
M  V30 3666 O 344.559 4.29913 3.74874 0
M  V30 3667 O 343.493 5.56905 2.28343 0
M  V30 3668 H 347.319 3.03272 0.161235 0
M  V30 3669 H 344.904 1.49394 0.0136177 0
M  V30 3670 H 346.786 3.31837 2.59735 0
M  V30 3671 H 345.461 2.13365 2.43428 0
M  V30 3672 H 344.368 3.6743 0.70327 0
M  V30 3673 H 345.701 4.83051 0.944615 0
M  V30 3674 N 347.353 -0.0568162 1.57498 0
M  V30 3675 C 348.283 -1.06593 2.0775 0
M  V30 3676 C 349.264 -1.39448 0.974082 0
M  V30 3677 O 350.449 -1.48815 1.24771 0
M  V30 3678 C 347.579 -2.37509 2.5339 0
M  V30 3679 C 346.533 -2.1897 3.67745 0
M  V30 3680 C 345.859 -3.55402 3.99492 0
M  V30 3681 C 347.159 -1.59859 4.97235 0
M  V30 3682 H 348.853 -0.647706 2.9231 0
M  V30 3683 H 346.399 -0.310116 1.40621 0
M  V30 3684 H 348.352 -3.08409 2.87162 0
M  V30 3685 H 347.076 -2.8134 1.65878 0
M  V30 3686 H 345.735 -1.50508 3.3428 0
M  V30 3687 H 345.383 -3.9683 3.09088 0
M  V30 3688 H 345.083 -3.43831 4.76502 0
M  V30 3689 H 346.607 -4.27708 4.35773 0
M  V30 3690 H 348.021 -2.20642 5.29141 0
M  V30 3691 H 346.418 -1.58942 5.78669 0
M  V30 3692 H 347.488 -0.561506 4.81638 0
M  V30 3693 N 348.832 -1.54138 -0.328536 0
M  V30 3694 C 349.782 -1.79557 -1.4051 0
M  V30 3695 C 350.766 -0.651373 -1.47126 0
M  V30 3696 O 351.958 -0.911226 -1.51742 0
M  V30 3697 C 349.087 -2.02196 -2.77438 0
M  V30 3698 C 348.173 -3.22724 -2.75155 0
M  V30 3699 N 348.564 -4.43881 -2.42494 0
M  V30 3700 C 346.862 -3.24196 -3.06289 0
M  V30 3701 C 347.563 -5.25797 -2.48822 0
M  V30 3702 N 346.539 -4.62862 -2.8506 0
M  V30 3703 H 350.341 -2.70814 -1.1418 0
M  V30 3704 H 347.855 -1.53265 -0.536991 0
M  V30 3705 H 349.852 -2.18546 -3.55026 0
M  V30 3706 H 348.512 -1.12191 -3.04702 0
M  V30 3707 H 349.523 -4.70969 -2.15428 0
M  V30 3708 H 346.2 -2.44208 -3.38627 0
M  V30 3709 H 347.59 -6.32535 -2.26603 0
M  V30 3710 N 350.31 0.590341 -1.46126 0
M  V30 3711 C 351.558 1.34616 -1.50742 0
M  V30 3712 C 351.879 1.94363 -0.157486 0
M  V30 3713 O 351.149 1.78136 0.815136 0
M  V30 3714 H 349.729 0.499789 -0.555175 0
M  V30 3715 H 352.391 0.691953 -1.82203 0
M  V30 3716 H 351.487 2.15678 -2.25587 0
M  V30 3717 N 351.788 1.33704 0.83433 0
M  V30 3718 C 352.718 1.26967 1.95963 0
M  V30 3719 C 353.699 0.149337 1.69443 0
M  V30 3720 O 354.884 0.339852 1.91203 0
M  V30 3721 C 352.014 1.01275 3.32206 0
M  V30 3722 C 350.968 2.09652 3.73136 0
M  V30 3723 C 350.294 1.69166 5.07235 0
M  V30 3724 C 351.594 3.51372 3.86439 0
M  V30 3725 H 353.288 2.2112 2.01857 0
M  V30 3726 H 350.834 1.06447 0.969793 0
M  V30 3727 H 352.787 0.952106 4.10503 0
M  V30 3728 H 351.511 0.0356203 3.26581 0
M  V30 3729 H 350.17 2.14766 2.97104 0
M  V30 3730 H 349.818 0.701437 4.98085 0
M  V30 3731 H 349.518 2.41694 5.35591 0
M  V30 3732 H 351.042 1.64576 5.88003 0
M  V30 3733 H 352.456 3.48734 4.55036 0
M  V30 3734 H 350.853 4.22425 4.26236 0
M  V30 3735 H 351.923 3.89546 2.88759 0
M  V30 3736 N 353.266 -1.05314 1.17247 0
M  V30 3737 C 354.494 -1.81971 0.984593 0
M  V30 3738 C 354.909 -1.82929 -0.467166 0
M  V30 3739 O 354.266 -1.25564 -1.32438 0
M  V30 3740 C 354.317 -3.28143 1.51672 0
M  V30 3741 O 354.038 -3.27347 2.91163 0
M  V30 3742 C 355.539 -4.21493 1.37326 0
M  V30 3743 H 352.759 -0.573455 0.348411 0
M  V30 3744 H 355.303 -1.32808 1.55506 0
M  V30 3745 H 353.458 -3.74582 0.988302 0
M  V30 3746 H 353.872 -4.18824 3.15732 0
M  V30 3747 H 355.346 -5.22043 1.79375 0
M  V30 3748 H 355.823 -4.38031 0.320169 0
M  V30 3749 H 356.429 -3.80909 1.89178 0
M  V30 3750 N 354.744 -0.972509 -1.24016 0
M  V30 3751 C 356.155 -0.67517 -1.74064 0
M  V30 3752 C 356.506 0.808939 -1.78747 0
M  V30 3753 O 355.631 1.63286 -1.42009 0
M  V30 3754 C 356.226 -1.21889 -3.16115 0
M  V30 3755 C 354.785 -0.971358 -3.6365 0
M  V30 3756 C 353.932 -1.35134 -2.42145 0
M  V30 3757 H 356.883 -1.14727 -1.09651 0
M  V30 3758 H 356.904 -0.587489 -3.75937 0
M  V30 3759 H 356.416 -2.29906 -3.12674 0
M  V30 3760 H 354.517 0.0930686 -3.72484 0
M  V30 3761 H 354.63 -1.62039 -4.50866 0
M  V30 3762 H 352.994 -0.769751 -2.4279 0
M  V30 3763 H 353.777 -2.4411 -2.41381 0
M  V30 3764 N 356.222 1.38976 -0.743202 0
M  V30 3765 C 357.152 2.33171 -0.123873 0
M  V30 3766 C 358.133 1.54336 0.71516 0
M  V30 3767 O 359.318 1.82696 0.658467 0
M  V30 3768 C 356.448 3.38474 0.777978 0
M  V30 3769 C 355.402 4.27979 0.0424758 0
M  V30 3770 C 354.728 5.2405 1.06189 0
M  V30 3771 C 356.028 5.10155 -1.1198 0
M  V30 3772 H 357.722 2.85213 -0.910709 0
M  V30 3773 H 355.268 1.37133 -0.439388 0
M  V30 3774 H 357.221 4.03328 1.22084 0
M  V30 3775 H 355.945 2.84891 1.59702 0
M  V30 3776 H 354.604 3.64616 -0.380853 0
M  V30 3777 H 354.252 4.66758 1.87472 0
M  V30 3778 H 353.952 5.84785 0.574485 0
M  V30 3779 H 355.476 5.9178 1.50428 0
M  V30 3780 H 356.89 5.68307 -0.75499 0
M  V30 3781 H 355.287 5.80073 -1.53738 0
M  V30 3782 H 356.357 4.44504 -1.93764 0
M  V30 3783 N 357.7 0.491464 1.49741 0
M  V30 3784 C 358.925 -0.0557177 2.07325 0
M  V30 3785 C 359.35 -1.30925 1.35056 0
M  V30 3786 O 358.708 -1.76733 0.404365 0
M  V30 3787 C 358.756 -0.302074 3.59333 0
M  V30 3788 O 357.86 -1.37868 3.88672 0
M  V30 3789 H 357.201 0.0219956 0.663636 0
M  V30 3790 H 359.731 0.688352 1.92673 0
M  V30 3791 H 359.741 -0.536464 4.04458 0
M  V30 3792 H 358.416 0.61383 4.11345 0
M  V30 3793 H 356.993 -1.12999 3.55367 0
M  V30 3794 N 359.178 -1.55987 0.224894 0
M  V30 3795 C 360.406 -2.02784 -0.410665 0
M  V30 3796 C 360.821 -1.10464 -1.53112 0
M  V30 3797 O 360.178 -0.114871 -1.82138 0
M  V30 3798 C 360.229 -3.49087 -0.939165 0
M  V30 3799 O 359.95 -4.37887 0.136614 0
M  V30 3800 C 361.451 -4.11543 -1.64763 0
M  V30 3801 H 358.671 -0.663484 -0.100148 0
M  V30 3802 H 361.215 -2.01614 0.342326 0
M  V30 3803 H 359.37 -3.50861 -1.64242 0
M  V30 3804 H 359.784 -5.23849 -0.261155 0
M  V30 3805 H 361.258 -5.15673 -1.96939 0
M  V30 3806 H 361.735 -3.56736 -2.56195 0
M  V30 3807 H 362.341 -4.13629 -0.989503 0
M  V30 3808 N 360.656 0.0484629 -1.57525 0
M  V30 3809 C 361.588 1.08222 -2.02041 0
M  V30 3810 C 362.601 1.33621 -0.930012 0
M  V30 3811 O 363.79 1.3145 -1.20761 0
M  V30 3812 C 360.89 2.42818 -2.36416 0
M  V30 3813 C 360.063 2.37049 -3.67596 0
M  V30 3814 C 359.122 3.53937 -3.89378 0
M  V30 3815 O 358.148 3.34308 -4.60681 0
M  V30 3816 N 359.35 4.75126 -3.3352 0
M  V30 3817 H 362.115 0.702946 -2.9134 0
M  V30 3818 H 359.676 0.236745 -1.6016 0
M  V30 3819 H 361.668 3.197 -2.48141 0
M  V30 3820 H 360.238 2.72661 -1.52888 0
M  V30 3821 H 359.458 1.45395 -3.66407 0
M  V30 3822 H 360.746 2.30318 -4.53686 0
M  V30 3823 H 360.144 4.93976 -2.75688 0
M  V30 3824 H 358.701 5.49439 -3.50656 0
M  V30 3825 N 362.134 1.5431 0.320358 0
M  V30 3826 C 363.067 1.78769 1.41834 0
M  V30 3827 C 364.045 0.63783 1.49568 0
M  V30 3828 O 365.229 0.875628 1.66928 0
M  V30 3829 C 362.356 1.90712 2.79905 0
M  V30 3830 C 361.402 3.13023 2.89687 0
M  V30 3831 S 362.235 4.71554 2.53766 0
M  V30 3832 C 363.391 4.86408 3.93902 0
M  V30 3833 H 363.624 2.71619 1.20874 0
M  V30 3834 H 361.157 1.45474 0.517377 0
M  V30 3835 H 363.115 1.98279 3.59438 0
M  V30 3836 H 361.776 0.988343 2.98145 0
M  V30 3837 H 360.969 3.18124 3.90913 0
M  V30 3838 H 360.571 3.03803 2.18128 0
M  V30 3839 H 362.863 4.69241 4.88691 0
M  V30 3840 H 363.806 5.88508 3.93782 0
M  V30 3841 H 364.214 4.14689 3.83005 0
M  V30 3842 N 363.613 -0.582584 1.46437 0
M  V30 3843 C 364.546 -1.70633 1.51524 0
M  V30 3844 C 365.524 -1.58349 0.369351 0
M  V30 3845 O 366.708 -1.79563 0.573516 0
M  V30 3846 C 363.835 -3.08687 1.39392 0
M  V30 3847 C 362.881 -3.3949 2.58164 0
M  V30 3848 S 363.714 -3.31548 4.20519 0
M  V30 3849 C 364.87 -4.72139 4.10896 0
M  V30 3850 H 365.103 -1.66058 2.46601 0
M  V30 3851 H 362.636 -0.761337 1.34324 0
M  V30 3852 H 364.594 -3.8833 1.33079 0
M  V30 3853 H 363.255 -3.10751 0.457436 0
M  V30 3854 H 362.448 -4.40071 2.45669 0
M  V30 3855 H 362.05 -2.67415 2.61468 0
M  V30 3856 H 364.342 -5.62527 3.77584 0
M  V30 3857 H 365.285 -4.89692 5.11476 0
M  V30 3858 H 365.693 -4.48995 3.42146 0
M  V30 3859 N 365.091 -1.34144 -0.827227 0
M  V30 3860 C 366.507 -1.13732 -1.11969 0
M  V30 3861 C 366.707 0.0640463 -2.01398 0
M  V30 3862 O 365.763 0.740856 -2.41387 0
M  V30 3863 C 367.076 -2.43047 -1.77055 0
M  V30 3864 C 368.624 -2.49063 -1.89569 0
M  V30 3865 C 369.099 -3.78369 -2.58072 0
M  V30 3866 N 370.59 -3.79505 -2.65575 0
M  V30 3867 C 371.325 -4.76274 -3.19297 0
M  V30 3868 N 370.821 -5.83424 -3.73616 0
M  V30 3869 N 372.614 -4.63735 -3.17658 0
M  V30 3870 H 364.765 -2.11126 -0.232296 0
M  V30 3871 H 367.028 -0.933424 -0.165602 0
M  V30 3872 H 366.734 -3.31025 -1.18807 0
M  V30 3873 H 366.608 -2.56066 -2.76966 0
M  V30 3874 H 368.995 -1.61527 -2.46968 0
M  V30 3875 H 369.076 -2.39975 -0.885745 0
M  V30 3876 H 368.72 -4.66293 -2.01329 0
M  V30 3877 H 368.65 -3.84737 -3.59562 0
M  V30 3878 H 371.141 -3.02074 -2.27068 0
M  V30 3879 H 371.454 -6.53282 -4.12846 0
M  V30 3880 H 369.799 -5.87143 -3.71871 0
M  V30 3881 H 372.99 -3.79177 -2.74486 0
M  V30 3882 H 373.163 -5.39318 -3.59221 0
M  V30 3883 N 366.569 1.04691 -1.17803 0
M  V30 3884 C 367.517 2.14665 -0.895635 0
M  V30 3885 C 368.511 1.68806 0.141679 0
M  V30 3886 O 369.717 1.79999 -0.00587914 0
M  V30 3887 H 366.092 0.701038 -0.272121 0
M  V30 3888 H 368.063 2.35685 -1.83017 0
M  V30 3889 C 366.812 3.45019 -0.430962 0
M  V30 3890 H 366.135 3.8071 -1.22064 0
M  V30 3891 H 367.575 4.23125 -0.272301 0
M  V30 3892 C 366.034 3.25943 0.852207 0
M  V30 3893 O 366.564 3.5296 1.91786 0
M  V30 3894 N 364.77 2.79304 0.802346 0
M  V30 3895 H 364.317 2.57518 -0.0650788 0
M  V30 3896 H 364.275 2.66921 1.66134 0
M  V30 3897 N 368.047 0.979072 1.23499 0
M  V30 3898 C 368.957 0.526431 2.28617 0
M  V30 3899 C 369.973 -0.418126 1.68901 0
M  V30 3900 O 371.149 -0.288372 1.99325 0
M  V30 3901 C 368.214 -0.165235 3.46306 0
M  V30 3902 C 367.275 0.82056 4.21385 0
M  V30 3903 C 366.508 0.161807 5.33455 0
M  V30 3904 O 366.731 -1.04742 5.60701 0
M  V30 3905 O 365.665 0.859708 5.95729 0
M  V30 3906 H 369.491 1.4006 2.69475 0
M  V30 3907 H 367.076 0.746643 1.29405 0
M  V30 3908 H 368.958 -0.553287 4.17752 0
M  V30 3909 H 367.633 -1.01419 3.07402 0
M  V30 3910 H 366.54 1.25929 3.52268 0
M  V30 3911 H 367.873 1.63828 4.64135 0
M  V30 3912 N 369.525 -1.3858 0.750561 0
M  V30 3913 C 370.772 -2.00184 0.305373 0
M  V30 3914 C 371.1 -1.59575 -1.11203 0
M  V30 3915 O 370.355 -0.823236 -1.77542 0
M  V30 3916 C 370.654 -3.55455 0.372373 0
M  V30 3917 C 370.32 -4.15765 1.745 0
M  V30 3918 C 368.982 -4.31951 2.12065 0
M  V30 3919 C 371.334 -4.49067 2.64553 0
M  V30 3920 C 368.662 -4.78734 3.39162 0
M  V30 3921 C 371.014 -4.97265 3.91038 0
M  V30 3922 C 369.678 -5.11658 4.28676 0
M  V30 3923 H 368.948 -0.732526 0.111744 0
M  V30 3924 H 371.595 -1.65673 0.960451 0
M  V30 3925 H 369.9 -3.90084 -0.366272 0
M  V30 3926 H 371.597 -4.00999 0.00953918 0
M  V30 3927 H 368.187 -4.03579 1.44297 0
M  V30 3928 H 372.371 -4.36166 2.36796 0
M  V30 3929 H 367.627 -4.88062 3.68246 0
M  V30 3930 H 371.801 -5.22003 4.60962 0
M  V30 3931 H 369.428 -5.47668 5.27222 0
M  V30 3932 N 371.003 -0.499398 -1.49478 0
M  V30 3933 C 372.419 -0.155261 -1.58843 0
M  V30 3934 C 372.619 1.34008 -1.50479 0
M  V30 3935 O 371.675 2.11589 -1.37791 0
M  V30 3936 C 372.988 -0.730636 -2.91689 0
M  V30 3937 C 374.536 -0.696599 -3.0515 0
M  V30 3938 C 375.011 -1.25001 -4.40612 0
M  V30 3939 N 376.502 -1.21064 -4.47099 0
M  V30 3940 C 377.237 -1.60905 -5.50361 0
M  V30 3941 N 376.733 -2.08331 -6.60735 0
M  V30 3942 N 378.526 -1.52331 -5.41065 0
M  V30 3943 H 370.677 -1.47162 -1.53158 0
M  V30 3944 H 372.94 -0.610309 -0.725415 0
M  V30 3945 H 372.646 -1.77928 -3.03372 0
M  V30 3946 H 372.52 -0.190161 -3.7672 0
M  V30 3947 H 374.907 0.343204 -2.93097 0
M  V30 3948 H 374.988 -1.2742 -2.21806 0
M  V30 3949 H 374.632 -2.28859 -4.53416 0
M  V30 3950 H 374.562 -0.64836 -5.22593 0
M  V30 3951 H 377.053 -0.863128 -3.67911 0
M  V30 3952 H 377.366 -2.36805 -7.35624 0
M  V30 3953 H 375.711 -2.12304 -6.6178 0
M  V30 3954 H 378.902 -1.151 -4.53729 0
M  V30 3955 H 379.075 -1.83704 -6.21415 0
M  V30 3956 N 372.481 1.55866 -0.233164 0
M  V30 3957 C 373.727 1.98897 0.395959 0
M  V30 3958 C 374.06 1.12091 1.58585 0
M  V30 3959 O 373.335 0.181182 1.93654 0
M  V30 3960 C 373.618 3.50658 0.819224 0
M  V30 3961 C 373.471 4.48233 -0.375109 0
M  V30 3962 C 374.79 4.07135 1.67121 0
M  V30 3963 H 371.909 0.723102 0.142451 0
M  V30 3964 H 374.551 1.87082 -0.331725 0
M  V30 3965 H 372.701 3.60857 1.43925 0
M  V30 3966 H 374.373 4.50031 -1.01341 0
M  V30 3967 H 372.616 4.21624 -1.02058 0
M  V30 3968 H 373.287 5.51988 -0.0358328 0
M  V30 3969 H 375.763 3.99952 1.14795 0
M  V30 3970 H 374.639 5.13615 1.93625 0
M  V30 3971 H 374.9 3.54736 2.63846 0
M  V30 3972 N 373.959 -0.0401083 1.57549 0
M  V30 3973 C 375.184 -0.748931 1.93406 0
M  V30 3974 C 375.609 -1.68686 0.832274 0
M  V30 3975 O 374.967 -1.80047 -0.212818 0
M  V30 3976 C 375.015 -1.4916 3.28304 0
M  V30 3977 O 374.119 -2.6042 3.19774 0
M  V30 3978 H 373.46 -0.202212 0.63246 0
M  V30 3979 H 375.99 0.00112086 2.046 0
M  V30 3980 H 376 -1.86395 3.62934 0
M  V30 3981 H 374.675 -0.80364 4.08062 0
M  V30 3982 H 373.252 -2.25808 2.96758 0
M  V30 3983 N 375.437 -1.54477 -0.31217 0
M  V30 3984 C 376.665 -1.77205 -1.068 0
M  V30 3985 C 377.08 -0.526114 -1.81321 0
M  V30 3986 O 376.437 0.503647 -1.75413 0
M  V30 3987 C 376.488 -2.97253 -2.05725 0
M  V30 3988 O 376.209 -4.1703 -1.34228 0
M  V30 3989 C 377.71 -3.32281 -2.93435 0
M  V30 3990 H 374.93 -0.591287 -0.317208 0
M  V30 3991 H 377.474 -2.01398 -0.354834 0
M  V30 3992 H 375.629 -2.753 -2.72559 0
M  V30 3993 H 376.043 -4.84636 -2.00571 0
M  V30 3994 H 377.517 -4.19551 -3.58721 0
M  V30 3995 H 377.994 -2.49945 -3.61143 0
M  V30 3996 H 378.6 -3.56353 -2.32147 0
M  V30 3997 N 376.915 0.57481 -1.46744 0
M  V30 3998 C 378.143 1.35856 -1.56047 0
M  V30 3999 C 378.558 1.87691 -0.204365 0
M  V30 4000 O 377.915 1.64049 0.79963 0
M  V30 4001 C 377.966 2.54066 -2.57163 0
M  V30 4002 O 377.687 2.04377 -3.87507 0
M  V30 4003 C 379.188 3.46514 -2.76483 0
M  V30 4004 H 376.408 0.414754 -0.527466 0
M  V30 4005 H 378.952 0.698035 -1.92218 0
M  V30 4006 H 377.107 3.16092 -2.23974 0
M  V30 4007 H 377.521 2.81419 -4.4261 0
M  V30 4008 H 378.995 4.25919 -3.51137 0
M  V30 4009 H 379.472 3.98951 -1.83671 0
M  V30 4010 H 380.078 2.90318 -3.10799 0
M  V30 4011 N 378.394 1.34581 0.820102 0
M  V30 4012 C 379.304 1.28471 1.96297 0
M  V30 4013 C 380.32 0.191902 1.72939 0
M  V30 4014 O 381.496 0.418879 1.96996 0
M  V30 4015 C 378.561 1.04281 3.30645 0
M  V30 4016 C 377.622 2.22745 3.66992 0
M  V30 4017 C 376.855 1.997 4.9493 0
M  V30 4018 O 377.078 0.956656 5.6232 0
M  V30 4019 O 376.012 2.86723 5.2922 0
M  V30 4020 H 379.838 2.24624 2.04396 0
M  V30 4021 H 377.423 1.14816 0.955913 0
M  V30 4022 H 379.305 0.925841 4.11104 0
M  V30 4023 H 377.98 0.111697 3.23507 0
M  V30 4024 H 376.887 2.40003 2.86966 0
M  V30 4025 H 378.22 3.14257 3.78819 0
M  V30 4026 N 379.872 -1.04064 1.18357 0
M  V30 4027 C 380.82 -2.14187 0.907007 0
M  V30 4028 C 381.814 -1.68879 -0.132725 0
M  V30 4029 O 383.02 -1.79993 0.0154248 0
M  V30 4030 H 379.395 -0.699585 0.275835 0
M  V30 4031 H 381.366 -2.34711 1.84264 0
M  V30 4032 C 380.115 -3.44785 0.449254 0
M  V30 4033 H 379.438 -3.80058 1.24081 0
M  V30 4034 H 380.878 -4.22974 0.294737 0
M  V30 4035 C 379.337 -3.26391 -0.834909 0
M  V30 4036 O 379.867 -3.53973 -1.89911 0
M  V30 4037 N 378.073 -2.79726 -0.787523 0
M  V30 4038 H 377.62 -2.5748 0.0787347 0
M  V30 4039 H 377.578 -2.67798 -1.64716 0
M  V30 4040 N 381.35 -0.985608 -1.22978 0
M  V30 4041 C 382.596 -0.65836 -1.91816 0
M  V30 4042 C 382.929 0.806692 -1.76653 0
M  V30 4043 O 382.204 1.58252 -1.13078 0
M  V30 4044 C 382.487 -1.056 -3.44268 0
M  V30 4045 C 382.34 -2.57906 -3.68516 0
M  V30 4046 C 383.659 -0.603781 -4.35939 0
M  V30 4047 H 380.778 -0.24065 -0.696604 0
M  V30 4048 H 383.42 -1.22783 -1.44998 0
M  V30 4049 H 381.57 -0.571445 -3.84274 0
M  V30 4050 H 383.242 -3.13976 -3.3796 0
M  V30 4051 H 381.485 -3.00305 -3.13048 0
M  V30 4052 H 382.156 -2.80779 -4.75255 0
M  V30 4053 H 384.632 -1.01987 -4.03408 0
M  V30 4054 H 383.508 -0.910383 -5.41298 0
M  V30 4055 H 383.769 0.495761 -4.39312 0
M  V30 4056 N 382.828 1.3818 -0.7579 0
M  V30 4057 C 384.074 2.00316 -0.316453 0
M  V30 4058 C 384.407 1.60026 1.10025 0
M  V30 4059 O 383.682 0.839835 1.75434 0
M  V30 4060 C 383.965 3.57349 -0.444245 0
M  V30 4061 C 383.818 4.07591 -1.90236 0
M  V30 4062 C 385.137 4.3981 0.1598 0
M  V30 4063 H 382.256 0.727741 -0.116459 0
M  V30 4064 H 384.898 1.6406 -0.958352 0
M  V30 4065 H 383.048 3.88365 0.102233 0
M  V30 4066 H 384.72 3.87199 -2.50748 0
M  V30 4067 H 382.963 3.60297 -2.41595 0
M  V30 4068 H 383.634 5.16677 -1.94291 0
M  V30 4069 H 386.11 4.14971 -0.306314 0
M  V30 4070 H 384.986 5.48885 0.0401675 0
M  V30 4071 H 385.247 4.24102 1.24859 0
M  V30 4072 N 384.306 0.507319 1.49211 0
M  V30 4073 C 385.254 -0.281364 2.30892 0
M  V30 4074 C 386.248 -0.95687 1.39787 0
M  V30 4075 O 387.454 -0.883838 1.56807 0
M  V30 4076 H 383.829 -0.109597 0.743971 0
M  V30 4077 H 385.8 0.42744 2.95323 0
M  V30 4078 C 384.549 -1.32918 3.21291 0
M  V30 4079 H 383.872 -0.818799 3.91326 0
M  V30 4080 H 385.312 -1.85288 3.81372 0
M  V30 4081 C 383.771 -2.35074 2.41333 0
M  V30 4082 O 384.301 -3.4108 2.12197 0
M  V30 4083 N 382.507 -2.07705 2.03241 0
M  V30 4084 H 382.054 -1.2152 2.27136 0
M  V30 4085 H 382.012 -2.76283 1.50051 0
M  V30 4086 N 385.784 -1.5574 0.241426 0
M  V30 4087 C 386.714 -2.24133 -0.654722 0
M  V30 4088 C 387.695 -1.21974 -1.1856 0
M  V30 4089 O 388.88 -1.50612 -1.22595 0
M  V30 4090 C 386.01 -2.93659 -1.85423 0
M  V30 4091 C 384.964 -4.0246 -1.45636 0
M  V30 4092 C 384.29 -4.59383 -2.73626 0
M  V30 4093 C 385.59 -5.18468 -0.631506 0
M  V30 4094 H 387.284 -2.99281 -0.0844353 0
M  V30 4095 H 384.83 -1.43947 -0.0391707 0
M  V30 4096 H 386.783 -3.40203 -2.48676 0
M  V30 4097 H 385.507 -2.15991 -2.44981 0
M  V30 4098 H 384.166 -3.56676 -0.847202 0
M  V30 4099 H 383.814 -3.78422 -3.3137 0
M  V30 4100 H 383.514 -5.32826 -2.4773 0
M  V30 4101 H 385.038 -5.08658 -3.37786 0
M  V30 4102 H 386.452 -5.61272 -1.1682 0
M  V30 4103 H 384.849 -5.98266 -0.468831 0
M  V30 4104 H 385.919 -4.8358 0.357506 0
M  V30 4105 N 387.262 0.0317525 -1.57568 0
M  V30 4106 C 388.487 0.738664 -1.938 0
M  V30 4107 C 388.912 1.68242 -0.841208 0
M  V30 4108 O 388.27 1.80157 0.203267 0
M  V30 4109 C 388.318 1.47417 -3.29091 0
M  V30 4110 O 387.422 2.5872 -3.2115 0
M  V30 4111 H 386.763 0.198856 -0.633524 0
M  V30 4112 H 389.293 -0.0119713 -2.04596 0
M  V30 4113 H 389.303 1.84468 -3.63917 0
M  V30 4114 H 387.978 0.781988 -4.08482 0
M  V30 4115 H 386.555 2.24231 -2.97951 0
M  V30 4116 N 388.74 1.54641 0.303973 0
M  V30 4117 C 389.688 1.86137 1.39484 0
M  V30 4118 C 390.682 0.734854 1.52631 0
M  V30 4119 O 391.888 0.918803 1.54784 0
M  V30 4120 H 388.263 0.590324 0.465856 0
M  V30 4121 H 390.234 2.77324 1.10154 0
M  V30 4122 C 388.983 2.12274 2.75382 0
M  V30 4123 H 388.306 2.98429 2.66046 0
M  V30 4124 H 389.746 2.38254 3.5073 0
M  V30 4125 C 388.205 0.920365 3.24085 0
M  V30 4126 O 388.735 0.139377 4.01458 0
M  V30 4127 N 386.941 0.726566 2.81371 0
M  V30 4128 H 386.488 1.36332 2.18567 0
M  V30 4129 H 386.446 -0.0763799 3.14307 0
M  V30 4130 N 390.218 -0.567019 1.47046 0
M  V30 4131 C 391.448 -1.34831 1.56538 0
M  V30 4132 C 391.856 -1.8802 0.21101 0
M  V30 4133 O 391.199 -1.65152 -0.804387 0
M  V30 4134 C 391.261 -2.56139 2.52256 0
M  V30 4135 C 390.925 -2.24307 3.98165 0
M  V30 4136 C 391.922 -1.82192 4.86931 0
M  V30 4137 C 389.607 -2.35968 4.43423 0
M  V30 4138 C 391.601 -1.52153 6.18973 0
M  V30 4139 C 389.288 -2.05542 5.75496 0
M  V30 4140 C 390.286 -1.63701 6.63092 0
M  V30 4141 O 389.974 -1.33657 7.92711 0
M  V30 4142 H 389.706 -0.417683 0.531523 0
M  V30 4143 H 392.26 -0.694726 1.93294 0
M  V30 4144 H 390.49 -3.24356 2.10548 0
M  V30 4145 H 392.179 -3.18214 2.51982 0
M  V30 4146 H 392.945 -1.72684 4.53217 0
M  V30 4147 H 388.824 -2.67495 3.75456 0
M  V30 4148 H 392.368 -1.19421 6.87302 0
M  V30 4149 H 388.265 -2.14679 6.08755 0
M  V30 4150 H 389.033 -1.4737 8.05124 0
M  V30 4151 N 391.696 -1.35014 -0.812953 0
M  V30 4152 C 392.606 -1.2951 -1.95613 0
M  V30 4153 C 393.622 -0.20107 -1.72834 0
M  V30 4154 O 394.798 -0.42932 -1.96771 0
M  V30 4155 C 391.863 -1.06033 -3.30088 0
M  V30 4156 C 390.924 -2.24688 -3.65805 0
M  V30 4157 C 390.157 -2.02322 -4.93864 0
M  V30 4158 O 390.38 -0.986464 -5.61805 0
M  V30 4159 O 389.314 -2.89525 -5.27692 0
M  V30 4160 H 393.14 -2.25705 -2.03202 0
M  V30 4161 H 390.725 -1.15321 -0.949811 0
M  V30 4162 H 392.607 -0.94763 -4.10607 0
M  V30 4163 H 391.282 -0.128852 -3.23443 0
M  V30 4164 H 390.189 -2.41521 -2.85689 0
M  V30 4165 H 391.522 -3.16261 -3.77147 0
M  V30 4166 N 393.175 1.03435 -1.18907 0
M  V30 4167 C 394.452 1.73778 -0.89781 0
M  V30 4168 C 394.832 2.02458 0.597832 0
M  V30 4169 O 394.18 1.67482 1.55441 0
M  V30 4170 C 394.39 3.01845 -1.75187 0
M  V30 4171 C 395.738 3.7546 -1.9828 0
M  V30 4172 O 396.762 3.11759 -1.72293 0
M  V30 4173 O 395.621 4.89966 -2.42065 0
M  V30 4174 H 392.715 0.75651 -0.334098 0
M  V30 4175 H 395.261 1.09444 -1.29693 0
M  V30 4176 H 394.033 2.76836 -2.76545 0
M  V30 4177 H 393.656 3.73919 -1.35167 0
M  V30 4178 N 394.653 0.992116 1.22453 0
M  V30 4179 C 395.616 0.546883 2.2258 0
M  V30 4180 C 396.616 -0.369829 1.56489 0
M  V30 4181 O 397.806 -0.161896 1.73446 0
M  V30 4182 C 394.938 -0.204659 3.40285 0
M  V30 4183 H 396.131 1.43234 2.63484 0
M  V30 4184 H 393.684 0.779239 1.3549 0
M  V30 4185 H 394.419 -1.10614 3.04853 0
M  V30 4186 H 394.204 0.45354 3.89468 0
M  V30 4187 H 395.694 -0.504358 4.14543 0
M  V30 4188 N 396.131 -1.37776 0.765217 0
M  V30 4189 C 397.547 -1.53297 0.444108 0
M  V30 4190 C 397.747 -1.72515 -1.04119 0
M  V30 4191 O 396.803 -1.74278 -1.82711 0
M  V30 4192 C 398.116 -2.73328 1.25349 0
M  V30 4193 C 399.664 -2.87185 1.24473 0
M  V30 4194 C 400.139 -4.10191 2.03733 0
M  V30 4195 N 401.63 -4.17291 2.01053 0
M  V30 4196 C 402.365 -5.11488 2.59166 0
M  V30 4197 N 401.861 -6.11285 3.26041 0
M  V30 4198 N 403.654 -5.03924 2.49032 0
M  V30 4199 H 395.805 -1.23552 1.72768 0
M  V30 4200 H 398.068 -0.601103 0.733062 0
M  V30 4201 H 397.774 -2.6557 2.30577 0
M  V30 4202 H 397.648 -3.66834 0.87823 0
M  V30 4203 H 400.035 -2.94418 0.20047 0
M  V30 4204 H 400.116 -1.94657 1.65959 0
M  V30 4205 H 399.76 -4.0372 3.08176 0
M  V30 4206 H 399.69 -5.01821 1.59633 0
M  V30 4207 H 402.181 -3.45825 1.5236 0
M  V30 4208 H 402.494 -6.79678 3.67774 0
M  V30 4209 H 400.839 -6.11583 3.30138 0
M  V30 4210 H 404.03 -4.24902 1.96407 0
M  V30 4211 H 404.203 -5.77152 2.94617 0
M  V30 4212 N 397.609 -0.515225 -1.4894 0
M  V30 4213 C 398.572 0.244681 -2.2789 0
M  V30 4214 C 399.572 0.881166 -1.34507 0
M  V30 4215 O 400.762 0.743497 -1.57537 0
M  V30 4216 C 397.894 1.35247 -3.12923 0
M  V30 4217 H 399.087 -0.448289 -2.96531 0
M  V30 4218 H 396.64 -0.270656 -1.53939 0
M  V30 4219 H 397.375 2.07916 -2.48881 0
M  V30 4220 H 397.16 0.901374 -3.81599 0
M  V30 4221 H 398.65 1.88737 -3.72516 0
M  V30 4222 N 399.087 1.5561 -0.249682 0
M  V30 4223 C 400.034 2.21496 0.648694 0
M  V30 4224 C 401.004 1.17977 1.16921 0
M  V30 4225 O 402.189 1.46434 1.22318 0
M  V30 4226 C 399.329 2.92039 1.83868 0
M  V30 4227 C 398.442 4.10219 1.35442 0
M  V30 4228 C 397.577 4.6847 2.50419 0
M  V30 4229 C 396.616 5.78893 1.98869 0
M  V30 4230 N 395.753 6.31315 3.07223 0
M  V30 4231 H 400.593 2.97892 0.0801582 0
M  V30 4232 H 398.13 1.47074 0.0278031 0
M  V30 4233 H 400.088 3.31138 2.53778 0
M  V30 4234 H 398.718 2.18111 2.37965 0
M  V30 4235 H 397.77 3.76413 0.54928 0
M  V30 4236 H 399.082 4.89927 0.936649 0
M  V30 4237 H 398.236 5.10158 3.28366 0
M  V30 4238 H 396.975 3.87984 2.95499 0
M  V30 4239 H 395.98 5.3668 1.19393 0
M  V30 4240 H 397.205 6.61232 1.54755 0
M  V30 4241 H 395.151 5.53733 3.51732 0
M  V30 4242 H 395.068 7.06224 2.69784 0
M  V30 4243 H 396.336 6.77662 3.8522 0
M  V30 4244 N 400.565 -0.0233959 1.57583 0
M  V30 4245 C 401.498 -1.05549 2.02323 0
M  V30 4246 C 402.476 -1.34843 0.908626 0
M  V30 4247 O 403.66 -1.47404 1.17491 0
M  V30 4248 C 400.787 -2.38885 2.40108 0
M  V30 4249 C 399.833 -2.2541 3.62067 0
M  V30 4250 S 400.666 -1.60217 5.1097 0
M  V30 4251 C 401.822 -2.95032 5.52003 0
M  V30 4252 H 402.055 -0.674435 2.89549 0
M  V30 4253 H 399.588 -0.23355 1.52623 0
M  V30 4254 H 401.546 -3.15562 2.62547 0
M  V30 4255 H 400.207 -2.74137 1.53323 0
M  V30 4256 H 399.4 -3.23854 3.86179 0
M  V30 4257 H 399.002 -1.56876 3.39508 0
M  V30 4258 H 401.294 -3.91357 5.53033 0
M  V30 4259 H 402.237 -2.75646 6.52246 0
M  V30 4260 H 402.645 -2.97865 4.79517 0
M  V30 4261 N 402.043 -1.548 -0.295768 0
M  V30 4262 C 403.268 -1.78653 -1.05346 0
M  V30 4263 C 403.693 -0.546894 -1.79974 0
M  V30 4264 O 403.051 0.502763 -1.7419 0
M  V30 4265 C 403.099 -2.99679 -2.00561 0
M  V30 4266 O 402.203 -2.7317 -3.08953 0
M  V30 4267 H 401.544 -0.59116 -0.302367 0
M  V30 4268 H 404.074 -2.01895 -0.331598 0
M  V30 4269 H 404.084 -3.27793 -2.42932 0
M  V30 4270 H 402.759 -3.89562 -1.4565 0
M  V30 4271 H 401.336 -2.56089 -2.71059 0
M  V30 4272 N 403.521 0.559213 -1.47345 0
M  V30 4273 C 404.768 1.31648 -1.53867 0
M  V30 4274 C 405.096 1.93468 -0.200104 0
M  V30 4275 O 404.351 1.78295 0.806799 0
M  V30 4276 C 404.65 2.44853 -2.6035 0
M  V30 4277 C 404.316 2.00876 -4.03683 0
M  V30 4278 C 402.978 1.88599 -4.42701 0
M  V30 4279 C 405.33 1.67279 -4.93626 0
M  V30 4280 C 402.658 1.41017 -5.69501 0
M  V30 4281 C 405.01 1.21169 -6.20887 0
M  V30 4282 C 403.674 1.07487 -6.58789 0
M  V30 4283 H 402.944 0.481734 -0.56304 0
M  V30 4284 H 405.591 0.627301 -1.80934 0
M  V30 4285 H 403.896 3.19318 -2.27032 0
M  V30 4286 H 405.593 3.03039 -2.62619 0
M  V30 4287 H 402.183 2.11374 -3.72853 0
M  V30 4288 H 406.367 1.75638 -4.64182 0
M  V30 4289 H 401.623 1.29086 -5.97618 0
M  V30 4290 H 405.797 0.942345 -6.89995 0
M  V30 4291 H 403.424 0.703946 -7.56934 0
M  V30 4292 N 404.999 1.35443 0.805782 0
M  V30 4293 C 405.962 1.28301 1.89925 0
M  V30 4294 C 406.962 0.194285 1.59622 0
M  V30 4295 O 408.152 0.448036 1.6834 0
M  V30 4296 C 405.284 0.984997 3.2636 0
M  V30 4297 H 406.477 2.2553 1.97677 0
M  V30 4298 H 404.03 1.19979 1.00173 0
M  V30 4299 H 404.765 0.016603 3.24296 0
M  V30 4300 H 404.55 1.77269 3.4974 0
M  V30 4301 H 406.04 0.960651 4.064 0
M  V30 4302 N 406.477 -1.02803 1.19454 0
M  V30 4303 C 407.407 -2.12999 0.956758 0
M  V30 4304 C 408.388 -1.69743 -0.110188 0
M  V30 4305 O 409.573 -1.94148 0.0450038 0
M  V30 4306 C 406.703 -3.43746 0.495553 0
M  V30 4307 C 405.657 -4.00688 1.50443 0
M  V30 4308 C 404.983 -5.27067 0.900275 0
M  V30 4309 C 406.283 -4.35397 2.8849 0
M  V30 4310 H 407.977 -2.33148 1.87836 0
M  V30 4311 H 405.523 -1.12045 0.904539 0
M  V30 4312 H 407.476 -4.2021 0.316493 0
M  V30 4313 H 406.2 -3.23321 -0.461646 0
M  V30 4314 H 404.859 -3.2632 1.67065 0
M  V30 4315 H 404.507 -5.02959 -0.064503 0
M  V30 4316 H 404.207 -5.66127 1.57397 0
M  V30 4317 H 405.731 -6.06196 0.73203 0
M  V30 4318 H 407.145 -5.02795 2.75446 0
M  V30 4319 H 405.542 -4.85541 3.52661 0
M  V30 4320 H 406.612 -3.44662 3.41081 0
M  V30 4321 N 407.956 -0.998596 -1.21925 0
M  V30 4322 C 409.233 -0.593401 -1.86382 0
M  V30 4323 C 409.613 0.92916 -1.89552 0
M  V30 4324 O 408.961 1.81347 -1.39017 0
M  V30 4325 C 409.171 -1.22039 -3.26967 0
M  V30 4326 C 410.519 -1.32449 -4.03413 0
M  V30 4327 O 411.543 -1.17522 -3.36254 0
M  V30 4328 O 410.402 -1.56395 -5.23644 0
M  V30 4329 H 407.496 -0.202385 -0.801854 0
M  V30 4330 H 410.042 -1.09484 -1.29659 0
M  V30 4331 H 408.814 -2.26158 -3.19325 0
M  V30 4332 H 408.437 -0.704906 -3.91301 0
M  V30 4333 N 409.434 1.37368 -0.772513 0
M  V30 4334 C 410.366 2.28899 -0.117502 0
M  V30 4335 C 411.379 1.4867 0.663405 0
M  V30 4336 O 412.568 1.71314 0.501372 0
M  V30 4337 C 409.668 3.2788 0.857192 0
M  V30 4338 C 408.841 4.37207 0.129938 0
M  V30 4339 C 407.9 5.16257 1.01811 0
M  V30 4340 O 406.926 5.67159 0.481601 0
M  V30 4341 N 408.128 5.31058 2.3443 0
M  V30 4342 H 410.893 2.85752 -0.903662 0
M  V30 4343 H 408.454 1.49353 -0.62493 0
M  V30 4344 H 410.446 3.77647 1.45482 0
M  V30 4345 H 409.016 2.7179 1.54432 0
M  V30 4346 H 408.236 3.88827 -0.648605 0
M  V30 4347 H 409.524 5.07434 -0.372559 0
M  V30 4348 H 408.922 4.91287 2.80452 0
M  V30 4349 H 407.479 5.84131 2.89197 0
M  V30 4350 N 410.912 0.523116 1.48665 0
M  V30 4351 C 411.822 -0.247406 2.33292 0
M  V30 4352 C 412.838 -0.945769 1.46052 0
M  V30 4353 O 414.014 -0.922253 1.79043 0
M  V30 4354 C 411.079 -1.28487 3.22012 0
M  V30 4355 C 410.14 -0.597592 4.2512 0
M  V30 4356 C 409.373 -1.58563 5.09601 0
M  V30 4357 O 409.596 -2.81763 4.95949 0
M  V30 4358 O 408.53 -1.12879 5.91221 0
M  V30 4359 H 412.356 0.445869 3.00409 0
M  V30 4360 H 409.941 0.284128 1.46673 0
M  V30 4361 H 411.823 -1.88459 3.7691 0
M  V30 4362 H 410.498 -1.96068 2.57564 0
M  V30 4363 H 409.405 0.0424407 3.74076 0
M  V30 4364 H 410.738 0.0361517 4.92187 0
M  V30 4365 N 412.39 -1.55475 0.257931 0
M  V30 4366 C 413.667 -1.91155 -0.414629 0
M  V30 4367 C 414.047 -1.18008 -1.75035 0
M  V30 4368 O 413.395 -0.301193 -2.26506 0
M  V30 4369 C 413.605 -3.44283 -0.571859 0
M  V30 4370 C 414.953 -4.15744 -0.862678 0
M  V30 4371 O 415.977 -3.50083 -0.657314 0
M  V30 4372 O 414.836 -5.31909 -1.2544 0
M  V30 4373 H 411.93 -0.796016 -0.22425 0
M  V30 4374 H 414.476 -1.66976 0.302814 0
M  V30 4375 H 413.248 -3.89558 0.368844 0
M  V30 4376 H 412.871 -3.7436 -1.33943 0
M  V30 4377 N 413.868 0.0150385 -1.57593 0
M  V30 4378 C 415.114 0.69849 -1.91031 0
M  V30 4379 C 415.469 1.72208 -0.85804 0
M  V30 4380 O 414.762 1.91147 0.131614 0
M  V30 4381 C 414.956 1.39686 -3.28972 0
M  V30 4382 C 414.785 0.442428 -4.47518 0
M  V30 4383 C 413.555 0.0583223 -5.05266 0
M  V30 4384 C 415.753 -0.285072 -5.13509 0
M  V30 4385 N 413.735 -0.895893 -6.07328 0
M  V30 4386 C 415.106 -1.09447 -6.10263 0
M  V30 4387 C 417.161 -0.350518 -4.96665 0
M  V30 4388 C 415.864 -1.96333 -6.91987 0
M  V30 4389 C 417.89 -1.20655 -5.78962 0
M  V30 4390 C 417.252 -2.00383 -6.75297 0
M  V30 4391 H 413.351 0.22926 -0.747639 0
M  V30 4392 H 415.935 -0.0417748 -1.94655 0
M  V30 4393 H 414.106 2.1075 -3.2625 0
M  V30 4394 H 415.838 2.03381 -3.49883 0
M  V30 4395 H 412.593 0.423506 -4.71703 0
M  V30 4396 H 413.017 -1.36792 -6.63036 0
M  V30 4397 H 417.659 0.251596 -4.22051 0
M  V30 4398 H 415.377 -2.57618 -7.65936 0
M  V30 4399 H 418.963 -1.2609 -5.67972 0
M  V30 4400 H 417.843 -2.65552 -7.3787 0
M  V30 4401 N 415.346 1.54954 0.287554 0
M  V30 4402 C 416.293 1.86834 1.35505 0
M  V30 4403 C 417.263 0.718452 1.49758 0
M  V30 4404 O 418.448 0.968358 1.644 0
M  V30 4405 C 415.588 2.13303 2.71286 0
M  V30 4406 C 414.701 3.40883 2.65373 0
M  V30 4407 C 413.836 3.57125 3.93236 0
M  V30 4408 C 412.875 4.78449 3.81776 0
M  V30 4409 N 412.012 4.91426 5.01443 0
M  V30 4410 H 416.852 2.77889 1.07619 0
M  V30 4411 H 414.389 1.37593 0.520241 0
M  V30 4412 H 416.347 2.26646 3.50267 0
M  V30 4413 H 414.977 1.25499 2.97405 0
M  V30 4414 H 414.029 3.36088 1.78182 0
M  V30 4415 H 415.341 4.29993 2.52799 0
M  V30 4416 H 414.495 3.70207 4.80658 0
M  V30 4417 H 413.234 2.66173 4.0866 0
M  V30 4418 H 412.239 4.65386 2.92738 0
M  V30 4419 H 413.464 5.70822 3.67884 0
M  V30 4420 H 411.41 4.03401 5.17304 0
M  V30 4421 H 411.327 5.74559 4.91343 0
M  V30 4422 H 412.595 5.08879 5.90477 0
M  V30 4423 N 416.824 -0.551391 1.4764 0
M  V30 4424 C 418.049 -1.33837 1.58437 0
M  V30 4425 C 418.474 -1.866 0.237063 0
M  V30 4426 O 417.832 -1.6328 -0.787994 0
M  V30 4427 C 417.88 -2.48014 2.61766 0
M  V30 4428 O 416.984 -3.50419 2.1744 0
M  V30 4429 H 416.325 -0.397299 0.532024 0
M  V30 4430 H 418.855 -0.665759 1.93465 0
M  V30 4431 H 418.865 -2.94503 2.82369 0
M  V30 4432 H 417.54 -2.08969 3.5959 0
M  V30 4433 H 416.117 -3.10196 2.06961 0
M  V30 4434 N 418.302 -1.35869 -0.798587 0
M  V30 4435 C 419.579 -1.20145 -1.54352 0
M  V30 4436 C 419.959 0.216161 -2.0999 0
M  V30 4437 O 419.307 1.22068 -1.93162 0
M  V30 4438 C 419.517 -2.27602 -2.64572 0
M  V30 4439 C 420.865 -2.63811 -3.32699 0
M  V30 4440 O 421.889 -2.26576 -2.74849 0
M  V30 4441 O 420.748 -3.27866 -4.37226 0
M  V30 4442 H 417.842 -0.467248 -0.682355 0
M  V30 4443 H 420.388 -1.47574 -0.837859 0
M  V30 4444 H 419.16 -3.2265 -2.21388 0
M  V30 4445 H 418.783 -2.01488 -3.42766 0
M  V30 4446 N 419.78 1.02168 -1.19998 0
M  V30 4447 C 421.191 1.57135 -1.00825 0
M  V30 4448 C 421.542 1.91276 0.436818 0
M  V30 4449 O 420.667 1.71679 1.3174 0
M  V30 4450 C 421.262 2.85514 -1.82393 0
M  V30 4451 C 419.821 3.37027 -1.67601 0
M  V30 4452 C 418.968 2.10388 -1.80644 0
M  V30 4453 H 421.919 0.846106 -1.34264 0
M  V30 4454 H 421.94 3.56711 -1.32429 0
M  V30 4455 H 421.452 2.60634 -2.87561 0
M  V30 4456 H 419.553 3.66878 -0.650485 0
M  V30 4457 H 419.666 4.09572 -2.4857 0
M  V30 4458 H 418.03 2.22601 -1.23778 0
M  V30 4459 H 418.813 1.8794 -2.87286 0
M  V30 4460 N 421.258 1.00505 1.21394 0
M  V30 4461 C 422.483 0.706367 1.95001 0
M  V30 4462 C 422.908 -0.72463 1.73582 0
M  V30 4463 O 422.266 -1.49702 1.0227 0
M  V30 4464 C 422.314 1.03299 3.45487 0
M  V30 4465 O 421.418 0.138275 4.12168 0
M  V30 4466 H 420.759 0.263175 0.609619 0
M  V30 4467 H 423.289 1.34531 1.54151 0
M  V30 4468 H 423.299 0.979872 3.96059 0
M  V30 4469 H 421.974 2.07567 3.60401 0
M  V30 4470 H 420.551 0.247928 3.72075 0
M  V30 4471 N 422.737 -1.36956 0.779787 0
M  V30 4472 C 423.669 -2.28833 0.129639 0
M  V30 4473 C 424.682 -1.4902 -0.655511 0
M  V30 4474 O 425.871 -1.71578 -0.492279 0
M  V30 4475 C 422.971 -3.2833 -0.839792 0
M  V30 4476 C 422.144 -4.3727 -0.10675 0
M  V30 4477 C 421.203 -5.16789 -0.990717 0
M  V30 4478 O 420.229 -5.67406 -0.451516 0
M  V30 4479 N 421.431 -5.32294 -2.3161 0
M  V30 4480 H 424.196 -2.85268 0.918803 0
M  V30 4481 H 421.757 -1.49019 0.632841 0
M  V30 4482 H 423.749 -3.78413 -1.43477 0
M  V30 4483 H 422.319 -2.72605 -1.52988 0
M  V30 4484 H 421.539 -3.88478 0.669216 0
M  V30 4485 H 422.827 -5.07229 0.399464 0
M  V30 4486 H 422.225 -4.92768 -2.77843 0
M  V30 4487 H 420.782 -5.85656 -2.86095 0
M  V30 4488 N 424.215 -0.530993 -1.48385 0
M  V30 4489 C 425.463 0.00273189 -2.021 0
M  V30 4490 C 425.784 1.34672 -1.41027 0
M  V30 4491 O 425.054 1.8724 -0.576012 0
M  V30 4492 H 423.634 0.00399774 -0.746989 0
M  V30 4493 H 426.296 -0.695054 -1.82085 0
M  V30 4494 H 425.392 0.11031 -3.11905 0
M  V30 4495 N 425.693 1.55336 -0.266172 0
M  V30 4496 C 426.941 1.99003 0.35246 0
M  V30 4497 C 427.262 1.15591 1.57047 0
M  V30 4498 O 426.532 0.243268 1.94384 0
M  V30 4499 H 425.112 0.735025 0.133217 0
M  V30 4500 H 427.774 1.91367 -0.369434 0
M  V30 4501 H 426.87 3.05289 0.648453 0
M  V30 4502 N 427.171 -0.0066808 1.57599 0
M  V30 4503 C 428.419 -0.691552 1.899 0
M  V30 4504 C 428.74 -1.74682 0.866672 0
M  V30 4505 O 428.01 -1.95661 -0.0968189 0
M  V30 4506 H 426.59 -0.258416 0.700878 0
M  V30 4507 H 429.252 0.0326655 1.94873 0
M  V30 4508 H 428.348 -1.16702 2.8946 0
M  V30 4509 N 428.649 -1.55105 -0.279332 0
M  V30 4510 C 429.898 -1.74618 -1.00952 0
M  V30 4511 C 430.211 -0.551096 -1.87676 0
M  V30 4512 O 431.417 -0.628507 -2.64125 0
M  V30 4513 C 429.873 -3.09025 -1.84476 0
M  V30 4514 C 429.481 -4.36081 -1.0265 0
M  V30 4515 C 431.225 -3.37891 -2.56963 0
M  V30 4516 C 429.132 -5.6153 -1.85576 0
M  V30 4517 H 428.062 -0.650868 -0.38064 0
M  V30 4518 H 430.713 -1.81569 -0.265475 0
M  V30 4519 H 429.095 -2.96095 -2.62952 0
M  V30 4520 H 430.269 -4.59909 -0.286354 0
M  V30 4521 H 428.584 -4.14312 -0.416464 0
M  V30 4522 H 431.181 -4.28822 -3.19399 0
M  V30 4523 H 431.524 -2.57737 -3.26921 0
M  V30 4524 H 432.057 -3.5189 -1.85522 0
M  V30 4525 H 428.796 -6.44413 -1.2005 0
M  V30 4526 H 428.316 -5.41854 -2.57204 0
M  V30 4527 H 429.995 -5.99594 -2.43096 0
M  V30 4528 N 430.127 0.543554 -1.4793 0
M  V30 4529 C 431.074 1.64942 -1.6144 0
M  V30 4530 C 432.044 1.59692 -0.456903 0
M  V30 4531 O 433.229 1.78321 -0.678688 0
M  V30 4532 C 430.369 3.03238 -1.64744 0
M  V30 4533 C 429.482 3.18823 -2.91506 0
M  V30 4534 C 428.617 4.47599 -2.86057 0
M  V30 4535 C 427.656 4.56664 -4.07584 0
M  V30 4536 N 426.793 5.76811 -4.00292 0
M  V30 4537 H 431.633 1.52733 -2.55884 0
M  V30 4538 H 429.17 0.7438 -1.2691 0
M  V30 4539 H 431.128 3.83339 -1.64641 0
M  V30 4540 H 429.758 3.1425 -0.738017 0
M  V30 4541 H 428.81 2.32064 -3.01414 0
M  V30 4542 H 430.122 3.21384 -3.81463 0
M  V30 4543 H 429.276 5.35975 -2.84281 0
M  V30 4544 H 428.015 4.47538 -1.93807 0
M  V30 4545 H 427.02 3.66697 -4.09651 0
M  V30 4546 H 428.245 4.58474 -5.00978 0
M  V30 4547 H 426.191 5.77673 -3.10853 0
M  V30 4548 H 426.108 5.80808 -4.8394 0
M  V30 4549 H 427.376 6.67512 -4.02553 0
M  V30 4550 N 431.605 1.3629 0.791371 0
M  V30 4551 C 432.854 1.29742 1.54434 0
M  V30 4552 C 433.167 -0.121729 1.95221 0
M  V30 4553 O 434.373 -0.309579 2.69729 0
M  V30 4554 C 432.829 2.27623 2.78776 0
M  V30 4555 C 432.437 3.74963 2.45166 0
M  V30 4556 C 434.181 2.30047 3.56761 0
M  V30 4557 C 432.088 4.64626 3.65891 0
M  V30 4558 H 431.018 0.482113 0.579727 0
M  V30 4559 H 433.669 1.61642 0.868565 0
M  V30 4560 H 432.051 1.88714 3.48142 0
M  V30 4561 H 433.225 4.22596 1.83709 0
M  V30 4562 H 431.54 3.75295 1.80396 0
M  V30 4563 H 434.137 2.94247 4.46456 0
M  V30 4564 H 434.48 1.30846 3.95203 0
M  V30 4565 H 435.013 2.67563 2.94372 0
M  V30 4566 H 431.752 5.64883 3.32547 0
M  V30 4567 H 431.272 4.2171 4.26521 0
M  V30 4568 H 432.951 4.80801 4.32943 0
M  V30 4569 N 433.083 -1.0153 1.20538 0
M  V30 4570 C 434.311 -1.78746 1.04199 0
M  V30 4571 C 434.726 -1.84323 -0.408733 0
M  V30 4572 O 434.083 -1.29714 -1.28377 0
M  V30 4573 C 434.134 -3.23152 1.62035 0
M  V30 4574 O 433.855 -3.17918 3.0143 0
M  V30 4575 C 435.356 -4.16911 1.50666 0
M  V30 4576 H 432.576 -0.56208 0.366479 0
M  V30 4577 H 435.12 -1.27794 1.59653 0
M  V30 4578 H 433.275 -3.71248 1.10697 0
M  V30 4579 H 433.689 -4.08567 3.28897 0
M  V30 4580 H 435.163 -5.16072 1.95892 0
M  V30 4581 H 435.64 -4.36791 0.459363 0
M  V30 4582 H 436.246 -3.74698 2.01201 0
M  V30 4583 N 434.561 -1.01147 -1.20859 0
M  V30 4584 C 435.511 -0.548247 -2.2131 0
M  V30 4585 C 436.495 0.393646 -1.5601 0
M  V30 4586 O 437.687 0.217445 -1.75659 0
M  V30 4587 C 434.816 0.117252 -3.431 0
M  V30 4588 C 433.902 -0.846043 -4.15575 0
M  V30 4589 N 434.293 -2.00149 -4.64515 0
M  V30 4590 C 432.591 -0.665783 -4.41003 0
M  V30 4591 C 433.292 -2.60764 -5.19978 0
M  V30 4592 N 432.268 -1.88868 -5.09735 0
M  V30 4593 H 436.07 -1.42921 -2.56809 0
M  V30 4594 H 433.584 -0.876142 -1.36739 0
M  V30 4595 H 435.581 0.46662 -4.1428 0
M  V30 4596 H 434.241 0.994115 -3.09107 0
M  V30 4597 H 435.252 -2.38162 -4.5989 0
M  V30 4598 H 431.929 0.163456 -4.1718 0
M  V30 4599 H 433.319 -3.58519 -5.68255 0
M  V30 4600 N 436.039 1.36541 -0.78704 0
M  V30 4601 C 437.286 1.99304 -0.358341 0
M  V30 4602 C 437.614 1.62467 1.06933 0
M  V30 4603 O 436.869 0.870019 1.75297 0
M  V30 4604 C 437.168 3.54343 -0.466485 0
M  V30 4605 C 436.834 4.10993 -1.85461 0
M  V30 4606 C 435.496 4.26177 -2.23443 0
M  V30 4607 C 437.848 4.41895 -2.76366 0
M  V30 4608 C 435.176 4.69573 -3.51736 0
M  V30 4609 C 437.528 4.86722 -4.04084 0
M  V30 4610 C 436.192 5.00112 -4.42091 0
M  V30 4611 H 435.462 0.729306 -0.131126 0
M  V30 4612 H 438.109 1.63068 -1.00404 0
M  V30 4613 H 436.414 3.90918 0.262719 0
M  V30 4614 H 438.111 4.00833 -0.115854 0
M  V30 4615 H 434.701 3.99612 -1.54946 0
M  V30 4616 H 438.885 4.29735 -2.48277 0
M  V30 4617 H 434.141 4.78127 -3.81057 0
M  V30 4618 H 438.315 5.09598 -4.7464 0
M  V30 4619 H 435.942 5.33498 -5.41557 0
M  V30 4620 N 437.518 0.538854 1.48102 0
M  V30 4621 C 438.746 0.0123136 2.06896 0
M  V30 4622 C 439.161 -1.27312 1.39417 0
M  V30 4623 O 438.518 -1.75949 0.484582 0
M  V30 4624 C 438.569 -0.206118 3.60912 0
M  V30 4625 O 438.29 1.0284 4.25859 0
M  V30 4626 C 439.791 -0.772033 4.36526 0
M  V30 4627 H 437.011 0.0375239 0.66995 0
M  V30 4628 H 439.555 0.747032 1.90367 0
M  V30 4629 H 437.71 -0.89091 3.77017 0
M  V30 4630 H 438.124 0.814654 5.18135 0
M  V30 4631 H 439.598 -0.874251 5.45033 0
M  V30 4632 H 440.075 -1.77904 4.01555 0
M  V30 4633 H 440.681 -0.123526 4.25121 0
M  V30 4634 N 438.996 -1.55193 0.274407 0
M  V30 4635 C 440.224 -2.03987 -0.345943 0
M  V30 4636 C 440.639 -1.15279 -1.4952 0
M  V30 4637 O 439.996 -0.172759 -1.8168 0
M  V30 4638 C 440.047 -3.51898 -0.827631 0
M  V30 4639 O 439.768 -4.37231 0.275855 0
M  V30 4640 C 441.269 -4.16577 -1.51587 0
M  V30 4641 H 438.489 -0.666335 -0.0789892 0
M  V30 4642 H 441.033 -2.00423 0.406294 0
M  V30 4643 H 439.188 -3.55909 -1.52996 0
M  V30 4644 H 439.602 -5.24415 -0.0943638 0
M  V30 4645 H 441.076 -5.21678 -1.80433 0
M  V30 4646 H 441.553 -3.64707 -2.44716 0
M  V30 4647 H 442.159 -4.16568 -0.857409 0
M  V30 4648 N 440.474 -0.00167713 -1.576 0
M  V30 4649 C 441.72 0.67819 -1.91761 0
M  V30 4650 C 442.075 1.71288 -0.876256 0
M  V30 4651 O 441.368 1.91276 0.111333 0
M  V30 4652 C 441.562 1.36189 -3.30435 0
M  V30 4653 C 441.391 0.394938 -4.47962 0
M  V30 4654 C 440.161 0.00472875 -5.053 0
M  V30 4655 C 442.359 -0.339521 -5.13178 0
M  V30 4656 N 440.341 -0.960257 -6.06343 0
M  V30 4657 C 441.712 -1.15914 -6.09068 0
M  V30 4658 C 443.767 -0.403177 -4.96265 0
M  V30 4659 C 442.47 -2.03661 -6.89866 0
M  V30 4660 C 444.496 -1.26788 -5.77649 0
M  V30 4661 C 443.858 -2.07535 -6.73134 0
M  V30 4662 H 439.957 0.221317 -0.750028 0
M  V30 4663 H 442.541 -0.0624182 -1.946 0
M  V30 4664 H 440.712 2.07278 -3.28467 0
M  V30 4665 H 442.444 1.99658 -3.52021 0
M  V30 4666 H 439.199 0.373452 -4.72125 0
M  V30 4667 H 439.623 -1.43817 -6.61548 0
M  V30 4668 H 444.265 0.206818 -4.22294 0
M  V30 4669 H 441.983 -2.65727 -7.63161 0
M  V30 4670 H 445.569 -1.32107 -5.66603 0
M  V30 4671 H 444.449 -2.73363 -7.35012 0
M  V30 4672 N 441.952 1.55251 0.271103 0
M  V30 4673 C 443.18 1.79974 1.02064 0
M  V30 4674 C 443.595 0.574003 1.79863 0
M  V30 4675 O 442.952 -0.456962 1.76686 0
M  V30 4676 C 443.003 3.02603 1.97772 0
M  V30 4677 O 442.724 4.20443 1.23124 0
M  V30 4678 C 444.225 3.39944 2.84522 0
M  V30 4679 H 441.445 0.599489 0.301419 0
M  V30 4680 H 443.989 2.02268 0.301313 0
M  V30 4681 H 442.144 2.8243 2.65165 0
M  V30 4682 H 442.558 4.89783 1.87651 0
M  V30 4683 H 444.032 4.28915 3.47471 0
M  V30 4684 H 444.509 2.59432 3.54389 0
M  V30 4685 H 445.115 3.62383 2.22618 0
M  V30 4686 N 443.43 -0.535701 1.48216 0
M  V30 4687 C 444.655 -1.32149 1.59848 0
M  V30 4688 C 445.08 -1.86338 0.256842 0
M  V30 4689 O 444.438 -1.64107 -0.770632 0
M  V30 4690 C 444.486 -2.45224 2.64381 0
M  V30 4691 O 443.59 -3.48093 2.21144 0
M  V30 4692 H 442.931 -0.391634 0.536208 0
M  V30 4693 H 445.461 -0.645202 1.94161 0
M  V30 4694 H 445.471 -2.91491 2.85476 0
M  V30 4695 H 444.146 -2.05143 3.61786 0
M  V30 4696 H 442.723 -3.07984 2.10239 0
M  V30 4697 N 444.908 -1.36708 -0.784132 0
M  V30 4698 C 446.157 -1.30559 -1.53744 0
M  V30 4699 C 446.47 0.111374 -1.95283 0
M  V30 4700 O 447.676 0.29527 -2.6989 0
M  V30 4701 C 446.132 -2.29098 -2.77565 0
M  V30 4702 C 445.74 -3.76258 -2.43174 0
M  V30 4703 C 447.484 -2.31936 -3.55536 0
M  V30 4704 C 445.391 -4.6656 -3.63422 0
M  V30 4705 H 444.321 -0.48518 -0.577162 0
M  V30 4706 H 446.972 -1.62101 -0.859981 0
M  V30 4707 H 445.354 -1.90557 -3.47137 0
M  V30 4708 H 446.528 -4.23565 -1.81465 0
M  V30 4709 H 444.843 -3.76246 -1.78403 0
M  V30 4710 H 447.44 -2.9661 -4.44889 0
M  V30 4711 H 447.783 -1.3294 -3.94503 0
M  V30 4712 H 448.316 -2.6912 -2.92949 0
M  V30 4713 H 445.055 -5.66638 -3.29547 0
M  V30 4714 H 444.575 -4.23966 -4.24279 0
M  V30 4715 H 446.254 -4.8309 -4.30387 0
M  V30 4716 N 446.386 1.0089 -1.21074 0
M  V30 4717 C 447.797 1.56056 -1.02486 0
M  V30 4718 C 448.148 1.91728 0.416506 0
M  V30 4719 O 447.273 1.73066 1.29912 0
M  V30 4720 C 447.868 2.83563 -1.85411 0
M  V30 4721 C 446.427 3.3523 -1.71166 0
M  V30 4722 C 445.574 2.0846 -1.82865 0
M  V30 4723 H 448.525 0.831818 -1.35154 0
M  V30 4724 H 448.546 3.55286 -1.36205 0
M  V30 4725 H 448.058 2.57569 -2.9031 0
M  V30 4726 H 446.159 3.66167 -0.689361 0
M  V30 4727 H 446.272 4.06913 -2.52901 0
M  V30 4728 H 444.636 2.21275 -1.26132 0
M  V30 4729 H 445.419 1.84883 -2.89263 0
M  V30 4730 N 447.864 1.01787 1.20321 0
M  V30 4731 C 449.092 0.727194 1.937 0
M  V30 4732 C 449.507 -0.712305 1.74848 0
M  V30 4733 O 448.864 -1.48327 1.06327 0
M  V30 4734 C 448.915 1.05497 3.45764 0
M  V30 4735 O 448.636 2.43794 3.64 0
M  V30 4736 C 450.137 0.785534 4.36285 0
M  V30 4737 H 447.357 0.266939 0.615617 0
M  V30 4738 H 449.901 1.35939 1.52777 0
M  V30 4739 H 448.056 0.468158 3.84561 0
M  V30 4740 H 448.47 2.55656 4.57974 0
M  V30 4741 H 449.944 1.06495 5.4163 0
M  V30 4742 H 450.421 -0.280273 4.38305 0
M  V30 4743 H 451.027 1.35456 4.03152 0
M  V30 4744 N 449.342 -1.36122 0.79427 0
M  V30 4745 C 450.272 -2.32551 0.210328 0
M  V30 4746 C 451.253 -1.56884 -0.657386 0
M  V30 4747 O 452.438 -1.85014 -0.590207 0
M  V30 4748 C 449.568 -3.41128 -0.651819 0
M  V30 4749 C 448.522 -4.27842 0.116395 0
M  V30 4750 C 447.848 -5.2763 -0.86666 0
M  V30 4751 C 449.148 -5.05647 1.30837 0
M  V30 4752 H 450.842 -2.81636 1.01594 0
M  V30 4753 H 448.388 -1.35407 0.489981 0
M  V30 4754 H 450.341 -4.07581 -1.07031 0
M  V30 4755 H 449.065 -2.90622 -1.49019 0
M  V30 4756 H 447.724 -3.62952 0.515915 0
M  V30 4757 H 447.372 -4.73395 -1.70019 0
M  V30 4758 H 447.072 -5.86514 -0.35705 0
M  V30 4759 H 448.596 -5.96955 -1.28361 0
M  V30 4760 H 450.01 -5.65113 0.965393 0
M  V30 4761 H 448.407 -5.73967 1.75161 0
M  V30 4762 H 449.477 -4.37006 2.10128 0
M  V30 4763 N 450.82 -0.546701 -1.47814 0
M  V30 4764 C 451.783 0.196287 -2.28358 0
M  V30 4765 C 452.783 0.852437 -1.36346 0
M  V30 4766 O 453.973 0.709913 -1.59078 0
M  V30 4767 C 451.105 1.28579 -3.15722 0
M  V30 4768 H 452.298 -0.511086 -2.95513 0
M  V30 4769 H 449.851 -0.303248 -1.5333 0
M  V30 4770 H 450.586 2.0259 -2.53235 0
M  V30 4771 H 450.371 0.820229 -3.83425 0
M  V30 4772 H 451.861 1.80793 -3.76435 0
M  V30 4773 N 452.299 1.55045 -0.282633 0
M  V30 4774 C 453.262 2.21515 0.588539 0
M  V30 4775 C 454.262 1.19535 1.07554 0
M  V30 4776 O 455.452 1.44391 0.974514 0
M  V30 4777 C 452.584 2.88704 1.8128 0
M  V30 4778 H 453.777 2.99899 0.00806397 0
M  V30 4779 H 451.33 1.56265 -0.0333067 0
M  V30 4780 H 452.065 2.14352 2.43359 0
M  V30 4781 H 451.85 3.63443 1.47144 0
M  V30 4782 H 453.34 3.39465 2.43214 0
M  V30 4783 N 453.777 0.010035 1.57597 0
M  V30 4784 C 454.709 -1.00649 2.05918 0
M  V30 4785 C 455.722 -1.30077 0.978964 0
M  V30 4786 O 456.911 -1.26878 1.25556 0
M  V30 4787 C 454.011 -2.33876 2.45265 0
M  V30 4788 C 453.184 -2.23242 3.7614 0
M  V30 4789 C 452.243 -3.39242 4.02245 0
M  V30 4790 O 451.269 -3.1698 4.72771 0
M  V30 4791 N 452.471 -4.6242 3.50924 0
M  V30 4792 H 455.236 -0.594333 2.93748 0
M  V30 4793 H 452.797 -0.17714 1.60928 0
M  V30 4794 H 454.789 -3.1027 2.59836 0
M  V30 4795 H 453.359 -2.66799 1.62902 0
M  V30 4796 H 452.579 -1.31696 3.71551 0
M  V30 4797 H 453.867 -2.13321 4.61922 0
M  V30 4798 H 453.265 -4.83404 2.93832 0
M  V30 4799 H 451.822 -5.36046 3.70807 0
M  V30 4800 N 455.255 -1.55392 -0.262866 0
M  V30 4801 C 456.502 -1.76476 -0.993109 0
M  V30 4802 C 456.83 -0.571479 -1.85915 0
M  V30 4803 O 456.085 0.445733 -1.90556 0
M  V30 4804 C 456.384 -3.02889 -1.89718 0
M  V30 4805 C 456.05 -4.34974 -1.18781 0
M  V30 4806 C 454.712 -4.7087 -0.991699 0
M  V30 4807 C 457.064 -5.16695 -0.683798 0
M  V30 4808 C 454.392 -5.86036 -0.279024 0
M  V30 4809 C 456.744 -6.32598 0.0153327 0
M  V30 4810 C 455.408 -6.67127 0.223062 0
M  V30 4811 H 454.678 -0.64577 -0.363404 0
M  V30 4812 H 457.325 -1.89664 -0.264525 0
M  V30 4813 H 455.63 -2.84644 -2.6923 0
M  V30 4814 H 457.327 -3.16399 -2.46359 0
M  V30 4815 H 453.917 -4.06765 -1.35058 0
M  V30 4816 H 458.101 -4.8943 -0.8229 0
M  V30 4817 H 453.357 -6.11306 -0.107456 0
M  V30 4818 H 457.531 -6.95171 0.413584 0
M  V30 4819 H 455.158 -7.56216 0.777265 0
M  V30 4820 N 456.733 0.527833 -1.48498 0
M  V30 4821 C 458.144 1.10975 -1.50138 0
M  V30 4822 C 458.495 1.943 -0.272378 0
M  V30 4823 O 457.62 2.07319 0.620301 0
M  V30 4824 C 458.215 2.01927 -2.72049 0
M  V30 4825 C 456.774 2.55332 -2.76554 0
M  V30 4826 C 455.921 1.32341 -2.43683 0
M  V30 4827 H 458.872 0.312986 -1.55583 0
M  V30 4828 H 458.893 2.86244 -2.50689 0
M  V30 4829 H 458.405 1.41254 -3.61481 0
M  V30 4830 H 456.506 3.19721 -1.91336 0
M  V30 4831 H 456.619 2.94319 -3.78038 0
M  V30 4832 H 454.983 1.63989 -1.94884 0
M  V30 4833 H 455.766 0.734165 -3.35358 0
M  V30 4834 N 458.211 1.37122 0.776871 0
M  V30 4835 C 459.458 1.32047 1.53524 0
M  V30 4836 C 459.786 -0.0965631 1.9426 0
M  V30 4837 O 459.041 -1.06866 1.63945 0
M  V30 4838 C 459.34 2.20068 2.81611 0
M  V30 4839 C 459.006 3.68423 2.59953 0
M  V30 4840 C 457.668 4.08854 2.53755 0
M  V30 4841 C 460.02 4.62431 2.40431 0
M  V30 4842 C 457.348 5.41417 2.26018 0
M  V30 4843 C 459.7 5.95225 2.14219 0
M  V30 4844 C 458.364 6.34767 2.06462 0
M  V30 4845 H 457.634 0.483196 0.561785 0
M  V30 4846 H 460.281 1.69284 0.895268 0
M  V30 4847 H 458.586 1.75809 3.50141 0
M  V30 4848 H 460.283 2.13458 3.39465 0
M  V30 4849 H 456.873 3.36354 2.65638 0
M  V30 4850 H 461.057 4.32057 2.44213 0
M  V30 4851 H 456.313 5.71022 2.18504 0
M  V30 4852 H 460.487 6.67626 1.98112 0
M  V30 4853 H 458.114 7.37413 1.84733 0
M  V30 4854 N 459.689 -1.00246 1.21608 0
M  V30 4855 C 460.637 -2.11193 0.97469 0
M  V30 4856 C 461.631 -1.69216 -0.0789303 0
M  V30 4857 O 462.837 -1.79853 0.0726806 0
M  V30 4858 H 459.212 -0.690455 0.297953 0
M  V30 4859 H 461.183 -2.2873 1.91638 0
M  V30 4860 C 459.932 -3.43182 0.558717 0
M  V30 4861 H 459.255 -3.75918 1.3611 0
M  V30 4862 H 460.695 -4.21823 0.429154 0
M  V30 4863 C 459.154 -3.28882 -0.730648 0
M  V30 4864 O 459.684 -3.59835 -1.78554 0
M  V30 4865 N 457.89 -2.8209 -0.698131 0
M  V30 4866 H 457.437 -2.57099 0.16061 0
M  V30 4867 H 457.395 -2.72903 -1.56113 0
M  V30 4868 N 461.167 -1.02423 -1.1978 0
M  V30 4869 C 462.13 -0.605703 -2.21052 0
M  V30 4870 C 463.13 0.328209 -1.57415 0
M  V30 4871 O 464.32 0.115853 -1.73814 0
M  V30 4872 C 461.452 0.114366 -3.40708 0
M  V30 4873 H 462.645 -1.5017 -2.59594 0
M  V30 4874 H 460.198 -0.814888 -1.33376 0
M  V30 4875 H 460.933 1.02492 -3.07678 0
M  V30 4876 H 460.718 -0.556641 -3.88129 0
M  V30 4877 H 462.208 0.394272 -4.15735 0
M  V30 4878 N 462.645 1.35699 -0.801477 0
M  V30 4879 C 463.87 2.03687 -0.390678 0
M  V30 4880 C 464.295 1.60015 0.988778 0
M  V30 4881 O 463.653 0.774357 1.63931 0
M  V30 4882 C 463.701 3.57439 -0.476404 0
M  V30 4883 O 462.805 4.09208 0.512106 0
M  V30 4884 H 462.146 0.64344 -0.163956 0
M  V30 4885 H 464.676 1.73403 -1.08594 0
M  V30 4886 H 464.686 4.06544 -0.344357 0
M  V30 4887 H 463.361 3.88576 -1.48262 0
M  V30 4888 H 461.938 3.7134 0.340721 0
M  V30 4889 N 464.123 0.554532 1.47522 0
M  V30 4890 C 465.4 -0.0360704 1.95567 0
M  V30 4891 C 465.78 -1.48828 1.49711 0
M  V30 4892 O 465.128 -2.16366 0.734717 0
M  V30 4893 C 465.338 0.106631 3.48837 0
M  V30 4894 C 466.686 -0.0400899 4.24581 0
M  V30 4895 O 467.71 0.0340453 3.56184 0
M  V30 4896 O 466.569 -0.199111 5.46137 0
M  V30 4897 H 463.663 -0.0656294 0.824392 0
M  V30 4898 H 466.209 0.620867 1.57935 0
M  V30 4899 H 464.981 1.11727 3.7501 0
M  V30 4900 H 464.604 -0.58804 3.93227 0
M  V30 4901 N 465.601 -1.54893 0.290851 0
M  V30 4902 C 466.826 -2.04804 -0.32712 0
M  V30 4903 C 467.251 -1.16721 -1.47506 0
M  V30 4904 O 466.609 -0.169107 -1.8051 0
M  V30 4905 C 466.657 -3.52268 -0.770689 0
M  V30 4906 O 465.761 -3.67236 -1.87647 0
M  V30 4907 H 465.102 -0.660789 -0.0652227 0
M  V30 4908 H 467.632 -2.00036 0.429739 0
M  V30 4909 H 467.642 -3.9393 -1.06223 0
M  V30 4910 H 466.317 -4.15843 0.069096 0
M  V30 4911 H 464.894 -3.37479 -1.58626 0
M  V30 4912 N 467.08 -0.0183926 -1.57589 0
M  V30 4913 C 468.326 0.663543 -1.91638 0
M  V30 4914 C 468.659 1.72392 -0.894134 0
M  V30 4915 O 467.934 1.94316 0.0846449 0
M  V30 4916 C 468.217 1.28984 -3.36207 0
M  V30 4917 C 468.07 0.239761 -4.49161 0
M  V30 4918 C 469.389 2.2109 -3.80536 0
M  V30 4919 H 466.508 0.239746 -0.696915 0
M  V30 4920 H 469.15 -0.073456 -1.89858 0
M  V30 4921 H 467.3 1.91799 -3.37854 0
M  V30 4922 H 468.972 -0.390119 -4.59647 0
M  V30 4923 H 467.215 -0.435972 -4.31604 0
M  V30 4924 H 467.886 0.717383 -5.47319 0
M  V30 4925 H 470.362 1.68273 -3.80557 0
M  V30 4926 H 469.238 2.61869 -4.82406 0
M  V30 4927 H 469.499 3.09764 -3.15434 0
M  V30 4928 N 468.558 1.5553 0.254621 0
M  V30 4929 C 469.806 1.7665 0.981793 0
M  V30 4930 C 470.127 0.580963 1.86145 0
M  V30 4931 O 469.397 -0.403537 1.91699 0
M  V30 4932 H 467.977 0.651475 0.365498 0
M  V30 4933 H 470.639 1.92958 0.274426 0
M  V30 4934 H 469.735 2.67486 1.60802 0
M  V30 4935 N 470.036 -0.519951 1.48776 0
M  V30 4936 C 470.968 -1.63973 1.60142 0
M  V30 4937 C 471.981 -1.55404 0.485117 0
M  V30 4938 O 473.17 -1.61682 0.756391 0
M  V30 4939 C 470.27 -3.02676 1.52449 0
M  V30 4940 C 469.443 -3.36624 2.79291 0
M  V30 4941 C 468.502 -4.54652 2.64912 0
M  V30 4942 O 467.528 -4.57374 3.38818 0
M  V30 4943 N 468.73 -5.53432 1.75195 0
M  V30 4944 H 471.495 -1.54656 2.56713 0
M  V30 4945 H 469.056 -0.707439 1.45626 0
M  V30 4946 H 471.048 -3.79525 1.4051 0
M  V30 4947 H 469.618 -3.06018 0.638125 0
M  V30 4948 H 468.838 -2.48855 3.0572 0
M  V30 4949 H 470.126 -3.56094 3.6342 0
M  V30 4950 H 469.524 -5.54018 1.14371 0
M  V30 4951 H 468.081 -6.29459 1.69189 0
M  V30 4952 N 471.514 -1.37532 -0.769588 0
M  V30 4953 C 472.446 -1.29347 -1.89214 0
M  V30 4954 C 473.459 -0.208842 -1.61455 0
M  V30 4955 O 474.648 -0.465158 -1.72333 0
M  V30 4956 C 471.748 -0.977649 -3.24492 0
M  V30 4957 C 470.921 -2.16817 -3.7988 0
M  V30 4958 C 469.98 -1.82229 -4.93639 0
M  V30 4959 O 469.006 -2.54548 -5.09111 0
M  V30 4960 N 470.208 -0.767696 -5.75401 0
M  V30 4961 H 472.973 -2.26073 -1.96751 0
M  V30 4962 H 470.534 -1.31185 -0.948795 0
M  V30 4963 H 472.526 -0.727065 -3.98115 0
M  V30 4964 H 471.096 -0.0988777 -3.12444 0
M  V30 4965 H 470.316 -2.58038 -2.9801 0
M  V30 4966 H 471.604 -2.96308 -4.13617 0
M  V30 4967 H 471.002 -0.167626 -5.65452 0
M  V30 4968 H 469.559 -0.576973 -6.49241 0
M  V30 4969 N 472.992 0.995999 -1.22138 0
M  V30 4970 C 474.241 1.72928 -1.03821 0
M  V30 4971 C 474.554 1.90872 0.427444 0
M  V30 4972 O 475.76 2.61496 0.730212 0
M  V30 4973 C 474.216 3.11124 -1.80913 0
M  V30 4974 C 473.824 3.01122 -3.31707 0
M  V30 4975 C 475.568 3.8852 -1.71035 0
M  V30 4976 C 473.475 4.34453 -4.01253 0
M  V30 4977 H 472.405 0.648376 -0.384869 0
M  V30 4978 H 475.056 1.11213 -1.45959 0
M  V30 4979 H 473.438 3.73503 -1.31573 0
M  V30 4980 H 474.612 2.47926 -3.88419 0
M  V30 4981 H 472.927 2.3721 -3.42228 0
M  V30 4982 H 475.524 4.872 -2.20318 0
M  V30 4983 H 475.867 4.1087 -0.670196 0
M  V30 4984 H 476.4 3.32812 -2.17902 0
M  V30 4985 H 473.139 4.17303 -5.05508 0
M  V30 4986 H 472.659 4.87574 -3.49331 0
M  V30 4987 H 474.338 5.03215 -4.06674 0
M  V30 4988 N 474.47 1.03057 1.19235 0
M  V30 4989 C 475.417 0.612832 2.22515 0
M  V30 4990 C 476.387 -0.374224 1.61829 0
M  V30 4991 O 477.572 -0.270501 1.88873 0
M  V30 4992 C 474.712 -0.028475 3.45088 0
M  V30 4993 C 473.825 1.00483 4.20151 0
M  V30 4994 C 472.96 0.333102 5.30155 0
M  V30 4995 C 471.999 1.3522 5.96977 0
M  V30 4996 N 471.136 0.70616 6.9854 0
M  V30 4997 H 475.976 1.49812 2.57605 0
M  V30 4998 H 473.513 0.749658 1.26564 0
M  V30 4999 H 475.471 -0.417548 4.15105 0
M  V30 5000 H 474.101 -0.877334 3.10649 0
M  V30 5001 H 473.153 1.51194 3.49062 0
M  V30 5002 H 474.465 1.77929 4.65986 0
M  V30 5003 H 473.619 -0.110725 6.06599 0
M  V30 5004 H 472.358 -0.473547 4.85396 0
M  V30 5005 H 471.363 1.80627 5.19282 0
M  V30 5006 H 472.588 2.16037 6.4382 0
M  V30 5007 H 470.534 -0.0803667 6.55951 0
M  V30 5008 H 470.451 1.41848 7.42573 0
M  V30 5009 H 471.719 0.286391 7.78974 0
M  V30 5010 N 475.948 -1.35272 0.808662 0
M  V30 5011 C 477.194 -1.99003 0.390581 0
M  V30 5012 C 477.527 -1.63999 -1.0401 0
M  V30 5013 O 476.802 -0.904368 -1.72196 0
M  V30 5014 C 477.085 -3.55454 0.576566 0
M  V30 5015 C 476.938 -4.00249 2.05233 0
M  V30 5016 C 478.257 -4.401 0.00354277 0
M  V30 5017 H 475.376 -0.722917 0.143388 0
M  V30 5018 H 478.018 -1.6039 1.01858 0
M  V30 5019 H 476.168 -3.88477 0.0419766 0
M  V30 5020 H 477.84 -3.77626 2.64946 0
M  V30 5021 H 476.083 -3.51082 2.54801 0
M  V30 5022 H 476.754 -5.0911 2.13333 0
M  V30 5023 H 479.23 -4.13548 0.460117 0
M  V30 5024 H 478.106 -5.48656 0.163575 0
M  V30 5025 H 478.367 -4.28444 -1.09032 0
M  V30 5026 N 477.426 -0.562348 -1.47226 0
M  V30 5027 C 478.675 -0.038041 -2.01664 0
M  V30 5028 C 478.988 1.32199 -1.44162 0
M  V30 5029 O 480.194 1.9365 -1.90294 0
M  V30 5030 C 478.65 -0.0174958 -3.59896 0
M  V30 5031 C 478.258 -1.3746 -4.2639 0
M  V30 5032 C 480.002 0.453934 -4.22066 0
M  V30 5033 C 477.909 -1.31289 -5.76643 0
M  V30 5034 H 476.839 -0.0104511 -0.753928 0
M  V30 5035 H 479.49 -0.710966 -1.69167 0
M  V30 5036 H 477.872 0.721182 -3.89378 0
M  V30 5037 H 479.046 -2.1314 -4.08544 0
M  V30 5038 H 477.361 -1.78438 -3.7623 0
M  V30 5039 H 479.958 0.518584 -5.32179 0
M  V30 5040 H 480.301 1.46706 -3.89594 0
M  V30 5041 H 480.834 -0.230044 -3.97134 0
M  V30 5042 H 477.573 -2.30217 -6.13743 0
M  V30 5043 H 477.093 -0.597973 -5.96812 0
M  V30 5044 H 478.772 -1.01713 -6.38955 0
M  V30 5045 N 478.904 1.54736 -0.299062 0
M  V30 5046 C 480.315 1.8569 0.193971 0
M  V30 5047 C 480.666 1.22101 1.53577 0
M  V30 5048 O 479.791 0.51799 2.10109 0
M  V30 5049 C 480.386 3.36895 0.358733 0
M  V30 5050 C 478.945 3.67887 0.795986 0
M  V30 5051 C 478.092 2.77131 -0.096807 0
M  V30 5052 H 481.043 1.49934 -0.520134 0
M  V30 5053 H 481.064 3.61294 1.19361 0
M  V30 5054 H 480.576 3.83148 -0.617998 0
M  V30 5055 H 478.677 3.27151 1.78334 0
M  V30 5056 H 478.79 4.75114 0.616718 0
M  V30 5057 H 477.154 2.51153 0.423581 0
M  V30 5058 H 477.937 3.26204 -1.06986 0
M  V30 5059 N 480.382 0.0267497 1.57577 0
M  V30 5060 C 481.628 -0.653371 1.91987 0
M  V30 5061 C 481.961 -1.71915 0.903263 0
M  V30 5062 O 481.236 -1.94358 -0.0743387 0
M  V30 5063 C 481.519 -1.272 3.36886 0
M  V30 5064 C 481.372 -0.215938 4.49281 0
M  V30 5065 C 482.691 -2.19069 3.81703 0
M  V30 5066 H 479.81 -0.236047 0.698177 0
M  V30 5067 H 482.452 0.0835236 1.89816 0
M  V30 5068 H 480.602 -1.90005 3.38866 0
M  V30 5069 H 482.274 0.41449 4.59434 0
M  V30 5070 H 480.517 0.458855 4.31366 0
M  V30 5071 H 481.188 -0.688347 5.47691 0
M  V30 5072 H 483.664 -1.66253 3.81444 0
M  V30 5073 H 482.54 -2.59307 4.83788 0
M  V30 5074 H 482.801 -3.08087 3.17072 0
M  V30 5075 N 481.861 -1.55662 -0.24637 0
M  V30 5076 C 483.138 -1.68272 -0.997198 0
M  V30 5077 C 483.518 -0.566785 -2.03349 0
M  V30 5078 O 482.866 0.429688 -2.24424 0
M  V30 5079 C 483.076 -3.08594 -1.63006 0
M  V30 5080 C 484.424 -3.6721 -2.13171 0
M  V30 5081 O 485.448 -3.11397 -1.72946 0
M  V30 5082 O 484.307 -4.65054 -2.87031 0
M  V30 5083 H 481.401 -0.684429 -0.464205 0
M  V30 5084 H 483.947 -1.67993 -0.240114 0
M  V30 5085 H 482.719 -3.81264 -0.880527 0
M  V30 5086 H 482.342 -3.12886 -2.45333 0
M  V30 5087 N 483.339 0.512053 -1.4905 0
M  V30 5088 C 484.75 1.09376 -1.51307 0
M  V30 5089 C 485.101 1.94 -0.292971 0
M  V30 5090 O 484.226 2.07965 0.598277 0
M  V30 5091 C 484.821 1.99031 -2.74176 0
M  V30 5092 C 483.38 2.52385 -2.79247 0
M  V30 5093 C 482.527 1.29749 -2.45073 0
M  V30 5094 H 485.478 0.296467 -1.55906 0
M  V30 5095 H 485.499 2.83569 -2.53711 0
M  V30 5096 H 485.011 1.37412 -3.62959 0
M  V30 5097 H 483.112 3.17673 -1.94716 0
M  V30 5098 H 483.225 2.90293 -3.81139 0
M  V30 5099 H 481.589 1.61912 -1.96612 0
M  V30 5100 H 482.372 0.698555 -3.36118 0
M  V30 5101 N 484.817 1.37938 0.762283 0
M  V30 5102 C 486.047 1.36685 1.54922 0
M  V30 5103 C 486.455 -0.0474099 1.89141 0
M  V30 5104 O 485.798 -1.02213 1.52638 0
M  V30 5105 C 485.86 2.14963 2.88152 0
M  V30 5106 C 485.524 3.6385 2.76518 0
M  V30 5107 C 486.521 4.57531 2.46904 0
M  V30 5108 C 484.206 4.07095 2.94243 0
M  V30 5109 C 486.2 5.92436 2.35156 0
M  V30 5110 C 483.887 5.42083 2.82116 0
M  V30 5111 C 484.885 6.34567 2.52614 0
M  V30 5112 O 484.573 7.67073 2.40529 0
M  V30 5113 H 484.305 0.469586 0.486276 0
M  V30 5114 H 486.859 1.82012 0.951876 0
M  V30 5115 H 485.089 1.6434 3.50042 0
M  V30 5116 H 486.778 2.06224 3.49609 0
M  V30 5117 H 487.544 4.25428 2.32886 0
M  V30 5118 H 483.423 3.35462 3.16206 0
M  V30 5119 H 486.967 6.64591 2.12049 0
M  V30 5120 H 482.864 5.73785 2.95704 0
M  V30 5121 H 483.632 7.77499 2.55807 0
M  V30 5122 N 486.295 -0.989507 1.22664 0
M  V30 5123 C 487.542 -1.72953 1.05325 0
M  V30 5124 C 487.87 -1.90104 -0.411168 0
M  V30 5125 O 487.125 -1.44386 -1.32103 0
M  V30 5126 C 487.424 -3.13649 1.71345 0
M  V30 5127 C 487.09 -3.16403 3.21248 0
M  V30 5128 C 485.752 -3.16862 3.62149 0
M  V30 5129 C 488.104 -3.12428 4.17179 0
M  V30 5130 C 485.432 -3.11051 4.97458 0
M  V30 5131 C 487.784 -3.08159 5.52468 0
M  V30 5132 C 486.448 -3.06935 5.92746 0
M  V30 5133 H 485.718 -0.632881 0.385412 0
M  V30 5134 H 488.365 -1.15863 1.52473 0
M  V30 5135 H 486.67 -3.74069 1.16532 0
M  V30 5136 H 488.367 -3.69658 1.55416 0
M  V30 5137 H 484.957 -3.16798 2.88682 0
M  V30 5138 H 489.141 -3.11221 3.86595 0
M  V30 5139 H 484.397 -3.0845 5.27891 0
M  V30 5140 H 488.571 -3.04039 6.26525 0
M  V30 5141 H 486.198 -3.02186 6.97558 0
M  V30 5142 N 487.773 -1.03688 -1.18687 0
M  V30 5143 C 489.02 -0.73803 -1.88572 0
M  V30 5144 C 489.348 0.733973 -1.8012 0
M  V30 5145 O 488.603 1.55098 -1.19344 0
M  V30 5146 C 488.902 -1.14477 -3.3857 0
M  V30 5147 C 488.568 -2.61641 -3.67226 0
M  V30 5148 C 487.23 -3.01846 -3.74757 0
M  V30 5149 C 489.582 -3.56812 -3.79914 0
M  V30 5150 C 486.91 -4.36118 -3.92451 0
M  V30 5151 C 489.262 -4.90799 -3.99123 0
M  V30 5152 C 487.926 -5.3068 -4.04888 0
M  V30 5153 H 487.196 -0.270064 -0.690034 0
M  V30 5154 H 489.843 -1.3012 -1.40503 0
M  V30 5155 H 488.148 -0.500337 -3.88592 0
M  V30 5156 H 489.845 -0.89095 -3.90977 0
M  V30 5157 H 486.435 -2.29498 -3.61979 0
M  V30 5158 H 490.619 -3.26899 -3.73431 0
M  V30 5159 H 485.875 -4.66542 -3.95157 0
M  V30 5160 H 490.049 -5.64451 -4.07882 0
M  V30 5161 H 487.676 -6.34733 -4.18351 0
M  V30 5162 N 489.251 1.34841 -0.815825 0
M  V30 5163 C 490.183 2.28409 -0.190265 0
M  V30 5164 C 491.196 1.50705 0.615771 0
M  V30 5165 O 492.385 1.72822 0.446616 0
M  V30 5166 C 489.485 3.30441 0.752446 0
M  V30 5167 C 488.658 4.37399 -0.00922152 0
M  V30 5168 C 487.717 5.19234 0.853351 0
M  V30 5169 O 486.743 5.68404 0.300919 0
M  V30 5170 N 487.945 5.38248 2.17416 0
M  V30 5171 H 490.71 2.82732 -0.994114 0
M  V30 5172 H 488.271 1.47289 -0.672129 0
M  V30 5173 H 490.263 3.82084 1.33394 0
M  V30 5174 H 488.833 2.76565 1.45707 0
M  V30 5175 H 488.053 3.86567 -0.771979 0
M  V30 5176 H 489.341 5.05992 -0.533807 0
M  V30 5177 H 488.739 4.99961 2.6468 0
M  V30 5178 H 487.296 5.93035 2.70467 0
M  V30 5179 N 490.729 0.570148 1.46925 0
M  V30 5180 C 491.662 -0.218362 2.27153 0
M  V30 5181 C 492.64 -0.90847 1.34854 0
M  V30 5182 O 493.824 -0.924875 1.64251 0
M  V30 5183 C 490.951 -1.3122 3.12248 0
M  V30 5184 C 489.997 -0.729277 4.20219 0
M  V30 5185 S 490.83 0.434159 5.33737 0
M  V30 5186 C 491.986 -0.661188 6.22398 0
M  V30 5187 H 492.219 0.462393 2.93682 0
M  V30 5188 H 489.752 0.356753 1.50222 0
M  V30 5189 H 491.71 -1.93856 3.61842 0
M  V30 5190 H 490.371 -1.96485 2.45056 0
M  V30 5191 H 489.564 -1.5511 4.79538 0
M  V30 5192 H 489.166 -0.178836 3.73572 0
M  V30 5193 H 491.458 -1.55006 6.5953 0
M  V30 5194 H 492.401 -0.105046 7.08022 0
M  V30 5195 H 492.809 -0.959682 5.56283 0
M  V30 5196 N 492.207 -1.54576 0.307264 0
M  V30 5197 C 493.435 -2.04675 -0.302597 0
M  V30 5198 C 493.85 -1.18425 -1.47041 0
M  V30 5199 O 493.207 -0.211257 -1.81273 0
M  V30 5200 C 493.258 -3.53575 -0.752801 0
M  V30 5201 O 492.979 -4.36547 0.368536 0
M  V30 5202 C 494.48 -4.19699 -1.42717 0
M  V30 5203 H 491.7 -0.66786 -0.0648374 0
M  V30 5204 H 494.244 -1.99516 0.448716 0
M  V30 5205 H 492.399 -3.59074 -1.45412 0
M  V30 5206 H 492.813 -5.24497 0.0168937 0
M  V30 5207 H 494.287 -5.25388 -1.69327 0
M  V30 5208 H 494.764 -3.69815 -2.36925 0
M  V30 5209 H 495.37 -4.18293 -0.768856 0
M  V30 5210 N 493.685 -0.035106 -1.57561 0
M  V30 5211 C 494.633 0.962707 -2.11742 0
M  V30 5212 C 495.627 1.33296 -1.0454 0
M  V30 5213 O 496.833 1.31449 -1.22968 0
M  V30 5214 H 493.208 0.32826 -0.676572 0
M  V30 5215 H 495.179 0.48048 -2.94506 0
M  V30 5216 C 493.928 2.23388 -2.66445 0
M  V30 5217 H 493.251 1.95774 -3.48587 0
M  V30 5218 H 494.691 2.91402 -3.07995 0
M  V30 5219 C 493.15 2.96769 -1.59467 0
M  V30 5220 O 493.68 3.89105 -0.998 0
M  V30 5221 N 491.886 2.59212 -1.31369 0
M  V30 5222 H 491.433 1.84202 -1.80076 0
M  V30 5223 H 491.391 3.08618 -0.600173 0
M  V30 5224 N 495.163 1.55791 0.238111 0
M  V30 5225 C 496.391 1.82098 0.982233 0
M  V30 5226 C 496.806 0.612025 1.78605 0
M  V30 5227 O 496.163 -0.419381 1.77616 0
M  V30 5228 C 496.214 3.0673 1.91309 0
M  V30 5229 O 495.935 4.2296 1.14179 0
M  V30 5230 C 497.436 3.45903 2.77248 0
M  V30 5231 H 494.656 0.605748 0.288635 0
M  V30 5232 H 497.2 2.02862 0.258341 0
M  V30 5233 H 495.355 2.87991 2.59114 0
M  V30 5234 H 495.769 4.93653 1.7722 0
M  V30 5235 H 497.243 4.36189 3.38295 0
M  V30 5236 H 497.72 2.66891 3.48806 0
M  V30 5237 H 498.326 3.67024 2.14881 0
M  V30 5238 N 496.642 -0.504142 1.49319 0
M  V30 5239 C 497.59 -1.62689 1.66238 0
M  V30 5240 C 498.584 -1.6095 0.528349 0
M  V30 5241 O 499.79 -1.65496 0.707887 0
M  V30 5242 H 496.165 -0.539247 0.524134 0
M  V30 5243 H 498.136 -1.45571 2.60484 0
M  V30 5244 C 496.885 -3.00841 1.74328 0
M  V30 5245 H 496.208 -3.02884 2.60963 0
M  V30 5246 H 497.648 -3.78945 1.90202 0
M  V30 5247 C 496.107 -3.33355 0.487416 0
M  V30 5248 O 496.637 -3.99819 -0.388294 0
M  V30 5249 N 494.843 -2.88469 0.351306 0
M  V30 5250 H 494.39 -2.34557 1.06492 0
M  V30 5251 H 494.348 -3.10591 -0.487899 0
M  V30 5252 N 498.12 -1.38341 -0.754957 0
M  V30 5253 C 499.531 -1.30803 -1.3322 0
M  V30 5254 C 499.882 0.0368 -1.96165 0
M  V30 5255 O 499.007 0.938844 -1.94974 0
M  V30 5256 C 499.602 -2.3688 -2.42225 0
M  V30 5257 C 498.161 -2.32925 -2.95674 0
M  V30 5258 C 497.308 -2.19819 -1.69042 0
M  V30 5259 H 500.259 -1.48719 -0.553937 0
M  V30 5260 H 500.28 -2.02517 -3.22129 0
M  V30 5261 H 499.792 -3.34747 -1.96383 0
M  V30 5262 H 497.893 -1.38635 -3.45848 0
M  V30 5263 H 498.006 -3.27008 -3.50146 0
M  V30 5264 H 496.37 -1.66648 -1.92615 0
M  V30 5265 H 497.153 -3.19625 -1.25279 0
M  V30 5266 N 499.598 0.982988 -1.23187 0
M  V30 5267 C 500.875 1.69814 -0.970707 0
M  V30 5268 C 501.255 2.04811 0.511424 0
M  V30 5269 O 500.603 1.73924 1.48198 0
M  V30 5270 C 500.813 2.94143 -1.87831 0
M  V30 5271 C 502.161 3.66712 -2.14026 0
M  V30 5272 O 503.185 3.04171 -1.8536 0
M  V30 5273 O 502.044 4.79258 -2.62629 0
M  V30 5274 H 499.138 0.741659 -0.365884 0
M  V30 5275 H 501.684 1.03844 -1.34218 0
M  V30 5276 H 500.456 2.64858 -2.88038 0
M  V30 5277 H 500.079 3.6785 -1.50905 0
M  V30 5278 N 501.076 1.04316 1.18135 0
M  V30 5279 C 502.008 0.594444 2.21357 0
M  V30 5280 C 503.021 -0.337215 1.59269 0
M  V30 5281 O 504.21 -0.131337 1.78016 0
M  V30 5282 C 501.31 -0.151251 3.38562 0
M  V30 5283 C 500.483 0.788907 4.30227 0
M  V30 5284 C 499.542 0.0860572 5.2613 0
M  V30 5285 O 498.568 0.717302 5.64662 0
M  V30 5286 N 499.77 -1.17969 5.68387 0
M  V30 5287 H 502.535 1.48227 2.60478 0
M  V30 5288 H 500.096 0.92396 1.32946 0
M  V30 5289 H 502.088 -0.631352 3.99745 0
M  V30 5290 H 500.658 -0.940639 2.98112 0
M  V30 5291 H 499.878 1.44882 3.6661 0
M  V30 5292 H 501.166 1.42738 4.88368 0
M  V30 5293 H 500.564 -1.71302 5.3914 0
M  V30 5294 H 499.121 -1.60402 6.31755 0
M  V30 5295 N 502.554 -1.34406 0.822964 0
M  V30 5296 C 503.501 -2.29519 0.24284 0
M  V30 5297 C 504.471 -1.5359 -0.632397 0
M  V30 5298 O 505.656 -1.8196 -0.57403 0
M  V30 5299 C 502.796 -3.40032 -0.58925 0
M  V30 5300 C 501.909 -4.30899 0.308236 0
M  V30 5301 C 501.044 -5.28515 -0.533425 0
M  V30 5302 C 500.083 -6.1102 0.363444 0
M  V30 5303 N 499.22 -7.00725 -0.439147 0
M  V30 5304 H 504.06 -2.78537 1.05929 0
M  V30 5305 H 501.597 -1.3707 0.533872 0
M  V30 5306 H 503.555 -4.0279 -1.087 0
M  V30 5307 H 502.185 -2.92248 -1.37081 0
M  V30 5308 H 501.237 -3.69002 0.924203 0
M  V30 5309 H 502.549 -4.88717 0.997862 0
M  V30 5310 H 501.703 -5.96725 -1.09565 0
M  V30 5311 H 500.442 -4.71235 -1.25656 0
M  V30 5312 H 499.447 -5.41743 0.937812 0
M  V30 5313 H 500.672 -6.70381 1.08469 0
M  V30 5314 H 498.618 -6.45913 -1.14595 0
M  V30 5315 H 498.535 -7.55756 0.19209 0
M  V30 5316 H 499.803 -7.73263 -0.984124 0
M  V30 5317 N 504.032 -0.577932 -1.46621 0
M  V30 5318 C 505.272 -0.0643097 -2.04299 0
M  V30 5319 C 505.636 1.26967 -1.44026 0
M  V30 5320 O 506.837 1.87224 -1.92875 0
M  V30 5321 C 505.108 0.00547588 -3.574 0
M  V30 5322 S 506.667 0.462216 -4.36359 0
M  V30 5323 H 503.485 -0.0351573 -0.71013 0
M  V30 5324 H 506.087 -0.76935 -1.79725 0
M  V30 5325 H 504.791 -0.969423 -3.98786 0
M  V30 5326 H 504.322 0.733435 -3.86503 0
M  V30 5327 H 506.337 1.71791 -4.65513 0
M  V30 5328 N 505.51 1.54411 -0.315457 0
M  V30 5329 C 506.759 1.99599 0.290395 0
M  V30 5330 C 507.072 1.20746 1.53882 0
M  V30 5331 O 508.278 1.56272 2.22017 0
M  V30 5332 C 506.734 3.5539 0.56797 0
M  V30 5333 C 506.342 4.43068 -0.662945 0
M  V30 5334 C 508.086 4.09067 1.13422 0
M  V30 5335 C 505.993 5.90317 -0.357722 0
M  V30 5336 H 504.923 0.745592 0.112286 0
M  V30 5337 H 507.574 1.78477 -0.426418 0
M  V30 5338 H 505.956 3.72468 1.34476 0
M  V30 5339 H 507.13 4.37765 -1.43869 0
M  V30 5340 H 505.445 4.00238 -1.14884 0
M  V30 5341 H 508.042 5.16663 1.37707 0
M  V30 5342 H 508.385 3.60552 2.08106 0
M  V30 5343 H 508.918 3.95589 0.418805 0
M  V30 5344 H 505.657 6.4301 -1.27351 0
M  V30 5345 H 505.177 5.98592 0.380472 0
M  V30 5346 H 506.856 6.4699 0.0354284 0
M  V30 5347 N 506.988 0.0434614 1.5754 0
M  V30 5348 C 508.216 -0.641835 1.96693 0
M  V30 5349 C 508.631 -1.64832 0.920652 0
M  V30 5350 O 507.988 -1.82247 -0.095993 0
M  V30 5351 C 508.039 -1.33557 3.35924 0
M  V30 5352 O 507.76 -0.369403 4.3654 0
M  V30 5353 C 509.261 -2.11135 3.89791 0
M  V30 5354 H 506.481 -0.176013 0.647503 0
M  V30 5355 H 509.025 0.107478 2.04217 0
M  V30 5356 H 507.18 -2.03617 3.29574 0
M  V30 5357 H 507.594 -0.863674 5.1734 0
M  V30 5358 H 509.068 -2.55107 4.89514 0
M  V30 5359 H 509.545 -2.95634 3.24803 0
M  V30 5360 H 510.151 -1.46002 3.99454 0
M  V30 5361 N 508.466 -1.55915 -0.229846 0
M  V30 5362 C 509.429 -1.90914 -1.26824 0
M  V30 5363 C 510.429 -0.786999 -1.40225 0
M  V30 5364 O 511.619 -1.05484 -1.38632 0
M  V30 5365 C 508.751 -2.15264 -2.64337 0
M  V30 5366 H 509.944 -2.8378 -0.969998 0
M  V30 5367 H 507.497 -1.49069 -0.4699 0
M  V30 5368 H 508.232 -1.24923 -2.99274 0
M  V30 5369 H 508.017 -2.97005 -2.55989 0
M  V30 5370 H 509.507 -2.43467 -3.39284 0
M  V30 5371 N 509.944 0.496216 -1.49584 0
M  V30 5372 C 510.874 1.60576 -1.69521 0
M  V30 5373 C 511.855 1.61169 -0.543933 0
M  V30 5374 O 513.04 1.77834 -0.78031 0
M  V30 5375 C 510.17 2.99038 -1.76616 0
M  V30 5376 C 509.124 3.13312 -2.91581 0
M  V30 5377 C 508.45 4.53172 -2.83794 0
M  V30 5378 C 509.75 2.92886 -4.32452 0
M  V30 5379 H 511.444 1.44146 -2.62416 0
M  V30 5380 H 508.99 0.692024 -1.26282 0
M  V30 5381 H 510.943 3.76564 -1.8915 0
M  V30 5382 H 509.667 3.16568 -0.80324 0
M  V30 5383 H 508.326 2.38213 -2.78658 0
M  V30 5384 H 507.974 4.67585 -1.854 0
M  V30 5385 H 507.674 4.63662 -3.60958 0
M  V30 5386 H 509.198 5.32752 -2.98342 0
M  V30 5387 H 510.612 3.60178 -4.46032 0
M  V30 5388 H 509.009 3.14844 -5.10875 0
M  V30 5389 H 510.079 1.88966 -4.46565 0
M  V30 5390 N 511.423 1.38739 0.74761 0
M  V30 5391 C 512.386 1.36241 1.84312 0
M  V30 5392 C 513.386 0.261811 1.58654 0
M  V30 5393 O 514.576 0.519031 1.66288 0
M  V30 5394 C 511.708 1.12253 3.21888 0
M  V30 5395 H 512.901 2.33712 1.87933 0
M  V30 5396 H 510.454 1.2412 0.949946 0
M  V30 5397 H 511.189 0.154133 3.23934 0
M  V30 5398 H 510.974 1.91943 3.41907 0
M  V30 5399 H 512.464 1.13215 4.0196 0
M  V30 5400 N 512.901 -0.976442 1.23707 0
M  V30 5401 C 514.126 -1.75875 1.09922 0
M  V30 5402 C 514.551 -1.84911 -0.34489 0
M  V30 5403 O 513.909 -1.31363 -1.24954 0
M  V30 5404 C 513.957 -3.16179 1.73388 0
M  V30 5405 O 513.061 -4.00124 0.99871 0
M  V30 5406 H 512.402 -0.540954 0.385052 0
M  V30 5407 H 514.932 -1.22546 1.6384 0
M  V30 5408 H 514.942 -3.66741 1.78788 0
M  V30 5409 H 513.617 -3.08917 2.78466 0
M  V30 5410 H 512.194 -3.58624 1.02193 0
M  V30 5411 N 514.379 -1.04941 -1.1758 0
M  V30 5412 C 515.628 -0.753124 -1.87112 0
M  V30 5413 C 515.941 0.722507 -1.81767 0
M  V30 5414 O 517.147 1.13265 -2.46746 0
M  V30 5415 C 515.603 -1.29695 -3.35719 0
M  V30 5416 C 515.211 -2.80184 -3.49572 0
M  V30 5417 C 516.955 -1.07759 -4.10595 0
M  V30 5418 C 514.862 -3.2788 -4.92187 0
M  V30 5419 H 513.792 -0.278034 -0.700866 0
M  V30 5420 H 516.443 -1.26637 -1.32798 0
M  V30 5421 H 514.825 -0.711522 -3.89555 0
M  V30 5422 H 515.999 -3.44561 -3.05965 0
M  V30 5423 H 514.314 -3.00632 -2.88113 0
M  V30 5424 H 516.911 -1.40899 -5.15802 0
M  V30 5425 H 517.254 -0.0152302 -4.16297 0
M  V30 5426 H 517.787 -1.62809 -3.62957 0
M  V30 5427 H 514.526 -4.33535 -4.91658 0
M  V30 5428 H 514.046 -2.68245 -5.36475 0
M  V30 5429 H 515.725 -3.22412 -5.60945 0
M  V30 5430 N 515.857 1.33968 -0.830081 0
M  V30 5431 C 517.097 1.99879 -0.427521 0
M  V30 5432 C 517.461 1.64355 0.992546 0
M  V30 5433 O 518.662 2.23164 1.49837 0
M  V30 5434 C 516.933 3.51771 -0.631815 0
M  V30 5435 S 518.492 4.37608 -0.323168 0
M  V30 5436 H 515.31 0.692485 -0.161202 0
M  V30 5437 H 517.912 1.63129 -1.07745 0
M  V30 5438 H 516.616 3.75113 -1.66488 0
M  V30 5439 H 516.147 3.93386 0.0325936 0
M  V30 5440 H 518.162 4.88683 0.860432 0
M  V30 5441 N 517.335 0.585699 1.46312 0
M  V30 5442 C 518.267 -0.183687 2.28463 0
M  V30 5443 C 519.28 -0.85264 1.38686 0
M  V30 5444 O 520.469 -0.721701 1.6326 0
M  V30 5445 C 517.569 -1.27977 3.13808 0
M  V30 5446 C 516.742 -0.702164 4.31727 0
M  V30 5447 C 515.801 -1.68633 4.98447 0
M  V30 5448 O 514.827 -1.22121 5.55945 0
M  V30 5449 N 516.029 -3.02047 4.95729 0
M  V30 5450 H 518.794 0.521127 2.95134 0
M  V30 5451 H 516.355 0.423673 1.56258 0
M  V30 5452 H 518.347 -1.9375 3.55307 0
M  V30 5453 H 516.917 -1.8874 2.4919 0
M  V30 5454 H 516.137 0.1331 3.93975 0
M  V30 5455 H 517.425 -0.296101 5.07938 0
M  V30 5456 H 516.823 -3.42457 4.50266 0
M  V30 5457 H 515.38 -3.63301 5.41161 0
M  V30 5458 N 518.813 -1.54241 0.323641 0
M  V30 5459 C 519.746 -2.20579 -0.584833 0
M  V30 5460 C 520.724 -1.18286 -1.11567 0
M  V30 5461 O 521.908 -1.47025 -1.17966 0
M  V30 5462 C 519.035 -2.86754 -1.80249 0
M  V30 5463 C 518.081 -4.02767 -1.4029 0
M  V30 5464 S 518.914 -5.33693 -0.439539 0
M  V30 5465 C 520.07 -6.03362 -1.66448 0
M  V30 5466 H 520.303 -2.97292 -0.0213238 0
M  V30 5467 H 517.836 -1.54024 0.107726 0
M  V30 5468 H 519.794 -3.25503 -2.50116 0
M  V30 5469 H 518.455 -2.09844 -2.33719 0
M  V30 5470 H 517.648 -4.47933 -2.31024 0
M  V30 5471 H 517.25 -3.65692 -0.783928 0
M  V30 5472 H 519.542 -6.25546 -2.6019 0
M  V30 5473 H 520.485 -6.9689 -1.25498 0
M  V30 5474 H 520.893 -5.33273 -1.85149 0
M  V30 5475 N 520.291 -0.0518155 -1.57515 0
M  V30 5476 C 521.538 0.621823 -1.92716 0
M  V30 5477 C 521.866 1.70813 -0.930229 0
M  V30 5478 O 521.121 1.95616 0.0573708 0
M  V30 5479 C 521.42 1.25607 -3.34601 0
M  V30 5480 C 521.086 0.297901 -4.49915 0
M  V30 5481 C 519.748 0.034243 -4.81188 0
M  V30 5482 C 522.1 -0.358738 -5.19964 0
M  V30 5483 C 519.428 -0.893479 -5.79857 0
M  V30 5484 C 521.78 -1.27466 -6.19625 0
M  V30 5485 C 520.444 -1.54698 -6.49326 0
M  V30 5486 H 519.714 0.227541 -0.705199 0
M  V30 5487 H 522.361 -0.118432 -1.91133 0
M  V30 5488 H 520.666 2.07161 -3.32553 0
M  V30 5489 H 522.363 1.78424 -3.59118 0
M  V30 5490 H 518.953 0.513581 -4.25512 0
M  V30 5491 H 523.137 -0.168133 -4.96015 0
M  V30 5492 H 518.393 -1.11193 -6.01204 0
M  V30 5493 H 522.567 -1.78953 -6.73015 0
M  V30 5494 H 520.194 -2.26748 -7.25596 0
M  V30 5495 N 521.769 1.56035 0.221574 0
M  V30 5496 C 523.009 1.80822 0.953038 0
M  V30 5497 C 523.373 0.625316 1.81532 0
M  V30 5498 O 524.574 0.752491 2.58052 0
M  V30 5499 C 522.845 3.10503 1.76983 0
M  V30 5500 S 524.404 3.56604 2.55693 0
M  V30 5501 H 521.222 0.634849 0.320137 0
M  V30 5502 H 523.824 1.94274 0.218619 0
M  V30 5503 H 522.528 3.94636 1.12651 0
M  V30 5504 H 522.059 2.99858 2.54655 0
M  V30 5505 H 524.074 3.1994 3.79279 0
M  V30 5506 N 523.247 -0.488276 1.49845 0
M  V30 5507 C 524.494 -1.24157 1.59973 0
M  V30 5508 C 524.822 -1.92293 0.292182 0
M  V30 5509 O 524.077 -1.81942 -0.720813 0
M  V30 5510 C 524.376 -2.32152 2.71735 0
M  V30 5511 C 524.042 -1.81387 4.12807 0
M  V30 5512 C 522.704 -1.67262 4.51195 0
M  V30 5513 C 525.056 -1.43537 5.01045 0
M  V30 5514 C 522.384 -1.13685 5.7558 0
M  V30 5515 C 524.736 -0.914081 6.25961 0
M  V30 5516 C 523.4 -0.759327 6.63167 0
M  V30 5517 H 522.67 -0.454322 0.585383 0
M  V30 5518 H 525.317 -0.540261 1.83721 0
M  V30 5519 H 523.622 -3.08122 2.42008 0
M  V30 5520 H 525.319 -2.90164 2.76778 0
M  V30 5521 H 521.909 -1.93344 3.82513 0
M  V30 5522 H 526.093 -1.53292 4.72033 0
M  V30 5523 H 521.349 -1.00426 6.03096 0
M  V30 5524 H 525.523 -0.612066 6.93705 0
M  V30 5525 H 523.15 -0.342002 7.5943 0
M  V30 5526 N 524.725 -1.39134 -0.740242 0
M  V30 5527 C 525.971 -1.37278 -1.50088 0
M  V30 5528 C 526.326 0.0329967 -1.92372 0
M  V30 5529 O 525.619 0.998447 -1.63529 0
M  V30 5530 C 525.813 -2.27457 -2.75678 0
M  V30 5531 C 525.642 -3.76662 -2.45674 0
M  V30 5532 C 524.412 -4.45617 -2.38229 0
M  V30 5533 C 526.61 -4.6877 -2.11563 0
M  V30 5534 N 524.592 -5.80187 -2.00641 0
M  V30 5535 C 525.963 -5.91951 -1.84376 0
M  V30 5536 C 528.018 -4.56843 -1.97987 0
M  V30 5537 C 526.721 -7.04538 -1.4498 0
M  V30 5538 C 528.747 -5.69347 -1.59994 0
M  V30 5539 C 528.109 -6.91597 -1.33687 0
M  V30 5540 H 524.208 -0.557611 -0.548265 0
M  V30 5541 H 526.792 -1.74638 -0.860784 0
M  V30 5542 H 524.963 -1.92263 -3.37475 0
M  V30 5543 H 526.695 -2.16631 -3.41838 0
M  V30 5544 H 523.45 -3.98993 -2.5515 0
M  V30 5545 H 523.874 -6.51387 -1.84454 0
M  V30 5546 H 528.516 -3.62868 -2.16995 0
M  V30 5547 H 526.234 -7.98419 -1.24712 0
M  V30 5548 H 529.82 -5.62104 -1.50102 0
M  V30 5549 H 528.7 -7.77176 -1.04728 0
M  V30 5550 N 526.204 0.969867 -1.24223 0
M  V30 5551 C 527.62 1.23809 -1.00716 0
M  V30 5552 C 527.82 1.99469 0.285358 0
M  V30 5553 O 526.876 2.31764 1.00207 0
M  V30 5554 C 528.189 2.02734 -2.2208 0
M  V30 5555 C 529.737 2.15834 -2.26681 0
M  V30 5556 C 530.212 2.98154 -3.47661 0
M  V30 5557 N 531.703 3.05737 -3.47964 0
M  V30 5558 C 532.438 3.69785 -4.38231 0
M  V30 5559 N 531.934 4.35569 -5.3875 0
M  V30 5560 N 533.727 3.66775 -4.25949 0
M  V30 5561 H 525.878 0.463294 -2.07286 0
M  V30 5562 H 528.141 0.267348 -0.909521 0
M  V30 5563 H 527.847 1.54524 -3.15935 0
M  V30 5564 H 527.721 3.0347 -2.24021 0
M  V30 5565 H 530.108 2.63248 -1.33359 0
M  V30 5566 H 530.189 1.14453 -2.28767 0
M  V30 5567 H 529.833 2.51435 -4.41297 0
M  V30 5568 H 529.763 3.99729 -3.42818 0
M  V30 5569 H 532.254 2.58941 -2.75242 0
M  V30 5570 H 532.567 4.82251 -6.03866 0
M  V30 5571 H 530.912 4.34244 -5.42639 0
M  V30 5572 H 534.103 3.14558 -3.46657 0
M  V30 5573 H 534.276 4.16407 -4.96497 0
M  V30 5574 N 527.682 1.05563 1.17022 0
M  V30 5575 C 528.93 0.76642 1.87004 0
M  V30 5576 C 529.251 -0.708854 1.8166 0
M  V30 5577 O 528.521 -1.51242 1.2451 0
M  V30 5578 H 527.101 0.280516 0.692329 0
M  V30 5579 H 529.763 1.33557 1.41945 0
M  V30 5580 H 528.859 1.08472 2.92644 0
M  V30 5581 N 529.16 -1.33526 0.837174 0
M  V30 5582 C 530.437 -1.92369 0.354065 0
M  V30 5583 C 530.817 -1.76348 -1.16038 0
M  V30 5584 O 530.165 -1.15083 -1.97403 0
M  V30 5585 C 530.375 -3.39728 0.799101 0
M  V30 5586 C 531.723 -4.16877 0.806139 0
M  V30 5587 O 532.747 -3.48373 0.742597 0
M  V30 5588 O 531.606 -5.39166 0.892345 0
M  V30 5589 H 528.7 -0.820952 0.0998378 0
M  V30 5590 H 531.246 -1.42409 0.922913 0
M  V30 5591 H 530.018 -3.45254 1.84162 0
M  V30 5592 H 529.641 -3.97062 0.206731 0
M  V30 5593 N 530.638 -0.59345 -1.46 0
M  V30 5594 C 531.568 0.121192 -2.33185 0
M  V30 5595 C 532.549 0.872977 -1.4599 0
M  V30 5596 O 533.734 0.846321 -1.74789 0
M  V30 5597 C 530.864 1.12844 -3.28456 0
M  V30 5598 C 529.818 0.4908 -4.25177 0
M  V30 5599 C 529.144 1.60529 -5.10034 0
M  V30 5600 C 530.444 -0.578949 -5.19081 0
M  V30 5601 H 532.138 -0.606767 -2.93187 0
M  V30 5602 H 529.684 -0.293242 -1.40983 0
M  V30 5603 H 531.637 1.63684 -3.88311 0
M  V30 5604 H 530.361 1.88681 -2.66584 0
M  V30 5605 H 529.02 0.00339328 -3.666 0
M  V30 5606 H 528.668 2.35359 -4.44539 0
M  V30 5607 H 528.368 1.18422 -5.75543 0
M  V30 5608 H 529.892 2.11623 -5.72755 0
M  V30 5609 H 531.306 -0.155199 -5.7309 0
M  V30 5610 H 529.703 -0.920947 -5.92991 0
M  V30 5611 H 530.773 -1.46109 -4.62364 0
M  V30 5612 N 532.116 1.54067 -0.331816 0
M  V30 5613 C 533.362 2.01012 0.268667 0
M  V30 5614 C 533.695 1.2195 1.51136 0
M  V30 5615 O 532.97 0.303972 1.9211 0
M  V30 5616 C 533.253 3.55158 0.59456 0
M  V30 5617 C 533.106 4.4494 -0.659409 0
M  V30 5618 C 534.425 4.16939 1.4089 0
M  V30 5619 H 531.544 0.730698 0.0961756 0
M  V30 5620 H 534.186 1.84593 -0.450031 0
M  V30 5621 H 532.336 3.6928 1.20685 0
M  V30 5622 H 534.008 4.42675 -1.29756 0
M  V30 5623 H 532.251 4.1428 -1.28665 0
M  V30 5624 H 532.922 5.50643 -0.386804 0
M  V30 5625 H 535.398 4.06443 0.891272 0
M  V30 5626 H 534.274 5.24889 1.60569 0
M  V30 5627 H 534.535 3.70798 2.40752 0
M  V30 5628 N 533.594 0.0601682 1.57485 0
M  V30 5629 C 534.841 -0.611594 1.93043 0
M  V30 5630 C 535.169 -1.70317 0.939274 0
M  V30 5631 O 534.424 -1.95644 -0.046996 0
M  V30 5632 C 534.723 -1.23831 3.35262 0
M  V30 5633 C 534.389 -0.274037 4.50066 0
M  V30 5634 C 533.051 -0.00872394 4.81199 0
M  V30 5635 C 535.403 0.386308 5.19766 0
M  V30 5636 C 532.731 0.924218 5.79375 0
M  V30 5637 C 535.083 1.3075 6.1894 0
M  V30 5638 C 533.747 1.58139 6.48497 0
M  V30 5639 H 533.017 -0.223798 0.706396 0
M  V30 5640 H 535.664 0.128566 1.91068 0
M  V30 5641 H 533.969 -2.05394 3.33647 0
M  V30 5642 H 535.666 -1.76517 3.60059 0
M  V30 5643 H 532.256 -0.491008 4.25778 0
M  V30 5644 H 536.44 0.194436 4.95919 0
M  V30 5645 H 531.696 1.1438 6.00606 0
M  V30 5646 H 535.87 1.82519 6.72056 0
M  V30 5647 H 533.497 2.30593 7.24383 0
M  V30 5648 N 535.072 -1.5615 -0.213296 0
M  V30 5649 C 536.349 -1.70349 -0.961281 0
M  V30 5650 C 536.729 -0.609791 -2.02101 0
M  V30 5651 O 536.077 0.381987 -2.25285 0
M  V30 5652 C 536.287 -3.11982 -1.56424 0
M  V30 5653 C 537.635 -3.71649 -2.05334 0
M  V30 5654 O 538.659 -3.14995 -1.66302 0
M  V30 5655 O 537.518 -4.71038 -2.77102 0
M  V30 5656 H 534.612 -0.694121 -0.449582 0
M  V30 5657 H 537.158 -1.68464 -0.204426 0
M  V30 5658 H 535.93 -3.83046 -0.799457 0
M  V30 5659 H 535.553 -3.18019 -2.38641 0
M  V30 5660 N 536.55 0.480323 -1.50102 0
M  V30 5661 C 537.797 1.23307 -1.60629 0
M  V30 5662 C 538.125 1.92135 -0.302375 0
M  V30 5663 O 537.38 1.82321 0.711154 0
M  V30 5664 C 537.679 2.30708 -2.72963 0
M  V30 5665 C 537.345 1.79195 -4.13763 0
M  V30 5666 C 536.007 1.64867 -4.52076 0
M  V30 5667 C 538.359 1.40878 -5.018 0
M  V30 5668 C 535.687 1.10631 -5.76175 0
M  V30 5669 C 538.039 0.880872 -6.26437 0
M  V30 5670 C 536.703 0.724146 -6.6356 0
M  V30 5671 H 535.973 0.451211 -0.587784 0
M  V30 5672 H 538.62 0.53051 -1.84005 0
M  V30 5673 H 536.925 3.06834 -2.43639 0
M  V30 5674 H 538.622 2.88692 -2.78313 0
M  V30 5675 H 535.212 1.91313 -3.83533 0
M  V30 5676 H 539.396 1.50786 -4.7284 0
M  V30 5677 H 534.652 0.972263 -6.0362 0
M  V30 5678 H 538.826 0.575269 -6.9402 0
M  V30 5679 H 536.453 0.301722 -7.59601 0
M  V30 5680 N 538.028 1.39524 0.732853 0
M  V30 5681 C 538.96 1.34318 1.85718 0
M  V30 5682 C 539.973 0.251576 1.60844 0
M  V30 5683 O 541.162 0.510685 1.71039 0
M  V30 5684 C 538.262 1.06334 3.21786 0
M  V30 5685 C 537.435 2.26813 3.73998 0
M  V30 5686 C 536.494 1.95253 4.88634 0
M  V30 5687 O 535.52 2.67957 5.02183 0
M  V30 5688 N 536.722 0.919984 5.73164 0
M  V30 5689 H 539.487 2.3121 1.90688 0
M  V30 5690 H 537.048 1.33654 0.91368 0
M  V30 5691 H 539.04 0.832363 3.96048 0
M  V30 5692 H 537.61 0.181682 3.12072 0
M  V30 5693 H 536.83 2.65849 2.91064 0
M  V30 5694 H 538.118 3.0717 4.05616 0
M  V30 5695 H 537.516 0.317487 5.64808 0
M  V30 5696 H 536.073 0.748905 6.47483 0
M  V30 5697 N 539.506 -0.963266 1.24736 0
M  V30 5698 C 540.752 -1.70933 1.09131 0
M  V30 5699 C 541.085 -1.90676 -0.368273 0
M  V30 5700 O 540.36 -1.47147 -1.27193 0
M  V30 5701 C 540.643 -3.09744 1.83658 0
M  V30 5702 C 540.496 -2.97465 3.37394 0
M  V30 5703 C 541.815 -4.09483 1.61282 0
M  V30 5704 H 538.934 -0.620398 0.397838 0
M  V30 5705 H 541.576 -1.12028 1.53459 0
M  V30 5706 H 539.726 -3.60031 1.4598 0
M  V30 5707 H 541.398 -2.54571 3.84696 0
M  V30 5708 H 539.641 -2.33576 3.65547 0
M  V30 5709 H 540.312 -3.95822 3.84745 0
M  V30 5710 H 542.788 -3.68073 1.94066 0
M  V30 5711 H 541.664 -5.04666 2.15878 0
M  V30 5712 H 541.925 -4.38639 0.552102 0
M  V30 5713 N 540.985 -1.06182 -1.16461 0
M  V30 5714 C 542.232 -0.777863 -1.86964 0
M  V30 5715 C 542.56 0.695602 -1.81636 0
M  V30 5716 O 541.815 1.52532 -1.22607 0
M  V30 5717 C 542.114 -1.21633 -3.36066 0
M  V30 5718 C 541.78 -2.69371 -3.61594 0
M  V30 5719 C 540.442 -3.09727 -3.6827 0
M  V30 5720 C 542.794 -3.64791 -3.7226 0
M  V30 5721 C 540.122 -4.44345 -3.83112 0
M  V30 5722 C 542.474 -4.99155 -3.88623 0
M  V30 5723 C 541.138 -5.39149 -3.93541 0
M  V30 5724 H 540.408 -0.28464 -0.68415 0
M  V30 5725 H 543.055 -1.33071 -1.37711 0
M  V30 5726 H 541.36 -0.582651 -3.87443 0
M  V30 5727 H 543.057 -0.973682 -3.88999 0
M  V30 5728 H 539.647 -2.37124 -3.57029 0
M  V30 5729 H 543.831 -3.34746 -3.66413 0
M  V30 5730 H 539.087 -4.74819 -3.85172 0
M  V30 5731 H 543.261 -5.72976 -3.95817 0
M  V30 5732 H 540.888 -6.43464 -4.04794 0
M  V30 5733 N 542.463 1.3308 -0.844243 0
M  V30 5734 C 543.874 1.7992 -0.498566 0
M  V30 5735 C 544.225 1.69808 0.982834 0
M  V30 5736 O 543.35 1.25051 1.7661 0
M  V30 5737 C 543.945 3.26677 -0.898204 0
M  V30 5738 C 542.504 3.71513 -0.604583 0
M  V30 5739 C 541.651 2.54393 -1.10362 0
M  V30 5740 H 544.602 1.20526 -1.03244 0
M  V30 5741 H 544.623 3.79918 -0.21039 0
M  V30 5742 H 544.135 3.34004 -1.97643 0
M  V30 5743 H 542.236 3.69708 0.46335 0
M  V30 5744 H 542.349 4.64755 -1.16358 0
M  V30 5745 H 540.713 2.49246 -0.524273 0
M  V30 5746 H 541.496 2.6448 -2.18873 0
M  V30 5747 N 543.941 0.601185 1.45683 0
M  V30 5748 C 545.169 0.100054 2.06658 0
M  V30 5749 C 545.584 -1.21285 1.44691 0
M  V30 5750 O 544.941 -1.73735 0.558772 0
M  V30 5751 C 544.992 -0.0528579 3.61461 0
M  V30 5752 O 544.713 1.20809 4.21114 0
M  V30 5753 C 546.214 -0.586193 4.39407 0
M  V30 5754 H 543.434 0.065905 0.667756 0
M  V30 5755 H 545.978 0.827101 1.87028 0
M  V30 5756 H 544.133 -0.730203 3.80456 0
M  V30 5757 H 544.547 1.03368 5.14213 0
M  V30 5758 H 546.021 -0.642297 5.4825 0
M  V30 5759 H 546.498 -1.60713 4.0874 0
M  V30 5760 H 547.104 0.0568935 4.25262 0
M  V30 5761 N 545.419 -1.53889 0.339982 0
M  V30 5762 C 546.366 -2.24902 -0.518452 0
M  V30 5763 C 547.336 -1.24593 -1.09844 0
M  V30 5764 O 548.521 -1.53317 -1.13572 0
M  V30 5765 C 545.661 -3.02262 -1.66529 0
M  V30 5766 C 544.774 -4.17418 -1.11295 0
M  V30 5767 C 543.909 -4.82273 -2.2268 0
M  V30 5768 C 542.948 -5.89503 -1.6478 0
M  V30 5769 N 542.085 -6.48153 -2.69893 0
M  V30 5770 H 546.925 -2.97853 0.0936579 0
M  V30 5771 H 544.462 -1.46986 0.0579924 0
M  V30 5772 H 546.42 -3.45371 -2.3404 0
M  V30 5773 H 545.05 -2.31614 -2.24844 0
M  V30 5774 H 544.102 -3.78976 -0.328886 0
M  V30 5775 H 545.414 -4.94554 -0.649414 0
M  V30 5776 H 544.568 -5.28435 -2.98063 0
M  V30 5777 H 543.307 -4.04552 -2.72376 0
M  V30 5778 H 542.312 -5.42728 -0.879004 0
M  V30 5779 H 543.537 -6.6913 -1.1594 0
M  V30 5780 H 541.483 -5.73298 -3.1885 0
M  V30 5781 H 541.4 -7.20752 -2.28151 0
M  V30 5782 H 542.668 -6.98968 -3.45056 0
M  V30 5783 N 546.897 -0.0685191 -1.57451 0
M  V30 5784 C 548.127 0.609577 -1.97402 0
M  V30 5785 C 548.535 1.63882 -0.945489 0
M  V30 5786 O 547.878 1.8354 0.0766052 0
M  V30 5787 C 547.94 1.3385 -3.33653 0
M  V30 5788 C 547.604 0.463103 -4.54648 0
M  V30 5789 C 548.601 -0.277964 -5.19156 0
M  V30 5790 C 546.286 0.388941 -5.00792 0
M  V30 5791 C 548.28 -1.08145 -6.28159 0
M  V30 5792 C 545.967 -0.418217 -6.09667 0
M  V30 5793 C 546.965 -1.15208 -6.73213 0
M  V30 5794 O 546.653 -1.94594 -7.79993 0
M  V30 5795 H 546.385 0.170197 -0.654224 0
M  V30 5796 H 548.939 -0.13647 -2.04946 0
M  V30 5797 H 547.169 2.13055 -3.22714 0
M  V30 5798 H 548.858 1.90851 -3.58233 0
M  V30 5799 H 549.624 -0.230241 -4.84453 0
M  V30 5800 H 545.503 0.949769 -4.5111 0
M  V30 5801 H 549.047 -1.65476 -6.7769 0
M  V30 5802 H 544.944 -0.467515 -6.43805 0
M  V30 5803 H 545.712 -1.8699 -7.96854 0
M  V30 5804 N 548.375 1.56261 0.205012 0
M  V30 5805 C 549.325 1.90155 1.25798 0
M  V30 5806 C 550.309 0.766227 1.41484 0
M  V30 5807 O 551.501 1.02893 1.44021 0
M  V30 5808 C 548.63 2.23603 2.60493 0
M  V30 5809 C 547.716 3.43568 2.48639 0
M  V30 5810 N 548.107 4.61747 2.06455 0
M  V30 5811 C 546.405 3.4751 2.79558 0
M  V30 5812 C 547.106 5.43907 2.06253 0
M  V30 5813 N 546.082 4.84051 2.47377 0
M  V30 5814 H 549.884 2.79031 0.922986 0
M  V30 5815 H 547.398 1.57048 0.413501 0
M  V30 5816 H 549.395 2.46067 3.36537 0
M  V30 5817 H 548.055 1.36049 2.94823 0
M  V30 5818 H 549.066 4.86598 1.77321 0
M  V30 5819 H 545.743 2.70345 3.18151 0
M  V30 5820 H 547.133 6.48542 1.75622 0
M  V30 5821 N 549.853 -0.472356 1.50355 0
M  V30 5822 C 551.078 -1.25251 1.65309 0
M  V30 5823 C 551.503 -1.85081 0.335643 0
M  V30 5824 O 550.861 -1.67227 -0.700335 0
M  V30 5825 C 550.909 -2.3379 2.74544 0
M  V30 5826 O 550.013 -3.38401 2.35709 0
M  V30 5827 H 549.354 -0.368539 0.552336 0
M  V30 5828 H 551.884 -0.562271 1.96722 0
M  V30 5829 H 551.894 -2.79121 2.97583 0
M  V30 5830 H 550.569 -1.89614 3.70161 0
M  V30 5831 H 549.146 -2.9879 2.23112 0
M  V30 5832 N 551.331 -1.39911 -0.725443 0
M  V30 5833 C 552.579 -1.37382 -1.48224 0
M  V30 5834 C 552.9 0.0264107 -1.94982 0
M  V30 5835 O 552.17 0.979408 -1.6966 0
M  V30 5836 H 550.75 -0.505596 -0.549892 0
M  V30 5837 H 553.412 -1.7487 -0.860608 0
M  V30 5838 H 552.508 -2.04254 -2.3598 0
M  V30 5839 N 552.809 0.956637 -1.25245 0
M  V30 5840 C 554.225 1.22733 -1.02023 0
M  V30 5841 C 554.425 1.99761 0.264186 0
M  V30 5842 O 553.481 2.32814 0.977436 0
M  V30 5843 C 554.794 2.00367 -2.24217 0
M  V30 5844 C 556.342 2.13418 -2.28958 0
M  V30 5845 C 556.817 2.9445 -3.50803 0
M  V30 5846 N 558.308 3.02029 -3.51187 0
M  V30 5847 C 559.043 3.65116 -4.42129 0
M  V30 5848 N 558.539 4.2983 -5.43339 0
M  V30 5849 N 560.332 3.62237 -4.29815 0
M  V30 5850 H 552.483 0.441282 -2.07765 0
M  V30 5851 H 554.746 0.257686 -0.912306 0
M  V30 5852 H 554.452 1.51165 -3.17556 0
M  V30 5853 H 554.326 3.01077 -2.27228 0
M  V30 5854 H 556.713 2.61819 -1.36143 0
M  V30 5855 H 556.794 1.1202 -2.29968 0
M  V30 5856 H 556.438 2.46741 -4.43939 0
M  V30 5857 H 556.368 3.9607 -3.47039 0
M  V30 5858 H 558.859 2.56007 -2.77973 0
M  V30 5859 H 559.172 4.75819 -6.08947 0
M  V30 5860 H 557.517 4.28465 -5.47214 0
M  V30 5861 H 560.708 3.10863 -3.49974 0
M  V30 5862 H 560.881 4.11117 -5.00886 0
M  V30 5863 N 554.287 1.06798 1.15896 0
M  V30 5864 C 555.217 0.704677 2.22613 0
M  V30 5865 C 556.198 -0.305252 1.67339 0
M  V30 5866 O 557.383 -0.179247 1.93371 0
M  V30 5867 C 554.513 0.0957325 3.47168 0
M  V30 5868 C 553.467 1.0322 4.15367 0
M  V30 5869 C 552.793 0.286293 5.33933 0
M  V30 5870 C 554.093 2.36341 4.65768 0
M  V30 5871 H 555.787 1.59688 2.53259 0
M  V30 5872 H 553.333 0.769257 1.21731 0
M  V30 5873 H 555.286 -0.170333 4.21056 0
M  V30 5874 H 554.01 -0.831516 3.15838 0
M  V30 5875 H 552.669 1.28309 3.43413 0
M  V30 5876 H 552.317 -0.644237 4.98857 0
M  V30 5877 H 552.017 0.910436 5.80504 0
M  V30 5878 H 553.541 0.0278938 6.10594 0
M  V30 5879 H 554.955 2.1561 5.31211 0
M  V30 5880 H 553.352 2.94299 5.2298 0
M  V30 5881 H 554.422 2.99047 3.81705 0
M  V30 5882 N 555.766 -1.3263 0.851289 0
M  V30 5883 C 556.696 -2.31449 0.308771 0
M  V30 5884 C 557.677 -1.59531 -0.590255 0
M  V30 5885 O 558.862 -1.87351 -0.511205 0
M  V30 5886 C 555.992 -3.43586 -0.506548 0
M  V30 5887 C 554.946 -4.26963 0.297753 0
M  V30 5888 C 554.272 -5.30831 -0.642094 0
M  V30 5889 C 555.572 -4.99643 1.52166 0
M  V30 5890 H 557.266 -2.77074 1.13447 0
M  V30 5891 H 554.812 -1.33207 0.546971 0
M  V30 5892 H 556.765 -4.11754 -0.896474 0
M  V30 5893 H 555.489 -2.96681 -1.36558 0
M  V30 5894 H 554.148 -3.60437 0.669391 0
M  V30 5895 H 553.796 -4.8018 -1.49788 0
M  V30 5896 H 553.496 -5.87501 -0.107968 0
M  V30 5897 H 555.02 -6.01862 -1.02927 0
M  V30 5898 H 556.434 -5.6051 1.20421 0
M  V30 5899 H 554.831 -5.66022 1.99347 0
M  V30 5900 H 555.901 -4.27701 2.28474 0
M  V30 5901 N 557.244 -0.608902 -1.45362 0
M  V30 5902 C 558.491 -0.104607 -2.0223 0
M  V30 5903 C 558.819 1.26534 -1.47714 0
M  V30 5904 O 558.074 1.84855 -0.642435 0
M  V30 5905 C 558.373 -0.0167296 -3.57396 0
M  V30 5906 C 558.039 -1.32251 -4.31069 0
M  V30 5907 C 556.701 -1.68019 -4.50914 0
M  V30 5908 C 559.053 -2.18542 -4.73169 0
M  V30 5909 C 556.381 -2.89828 -5.10114 0
M  V30 5910 C 558.733 -3.39602 -5.33717 0
M  V30 5911 C 557.397 -3.7562 -5.51784 0
M  V30 5912 H 556.667 -0.0382785 -0.740011 0
M  V30 5913 H 559.314 -0.790782 -1.7441 0
M  V30 5914 H 557.619 0.752715 -3.84502 0
M  V30 5915 H 559.316 0.389634 -3.99103 0
M  V30 5916 H 555.906 -1.03411 -4.15938 0
M  V30 5917 H 560.09 -1.92208 -4.5757 0
M  V30 5918 H 555.346 -3.17839 -5.22291 0
M  V30 5919 H 559.52 -4.06716 -5.65292 0
M  V30 5920 H 557.147 -4.70093 -5.97425 0
M  V30 5921 N 558.722 1.53707 -0.348139 0
M  V30 5922 C 559.962 2.02899 0.247254 0
M  V30 5923 C 560.326 1.23033 1.47401 0
M  V30 5924 O 561.527 1.62146 2.14388 0
M  V30 5925 C 559.798 3.53156 0.549151 0
M  V30 5926 S 561.357 4.24247 1.1207 0
M  V30 5927 H 558.175 0.707213 0.0732894 0
M  V30 5928 H 560.777 1.89338 -0.486965 0
M  V30 5929 H 559.481 4.08893 -0.351435 0
M  V30 5930 H 559.012 3.70845 1.31291 0
M  V30 5931 H 561.027 4.33958 2.40613 0
M  V30 5932 N 560.2 0.0768682 1.57412 0
M  V30 5933 C 561.447 -0.591085 1.93681 0
M  V30 5934 C 561.775 -1.69311 0.957286 0
M  V30 5935 O 561.03 -1.95682 -0.0262428 0
M  V30 5936 C 561.329 -1.20268 3.36557 0
M  V30 5937 C 560.995 -0.226286 4.50332 0
M  V30 5938 C 559.657 0.0423142 4.81181 0
M  V30 5939 C 562.009 0.441415 5.19327 0
M  V30 5940 C 559.337 0.985616 5.78362 0
M  V30 5941 C 561.689 1.37307 6.17519 0
M  V30 5942 C 560.353 1.65009 6.46783 0
M  V30 5943 H 559.623 -0.216293 0.70873 0
M  V30 5944 H 562.27 0.148824 1.90921 0
M  V30 5945 H 560.575 -2.01844 3.35807 0
M  V30 5946 H 562.272 -1.72688 3.61911 0
M  V30 5947 H 558.862 -0.445821 4.26275 0
M  V30 5948 H 563.046 0.247023 4.95685 0
M  V30 5949 H 558.302 1.20743 5.99359 0
M  V30 5950 H 562.476 1.89637 6.70083 0
M  V30 5951 H 560.103 2.38263 7.21897 0
M  V30 5952 N 561.678 -1.56367 -0.196722 0
M  V30 5953 C 562.924 -1.80796 -0.918725 0
M  V30 5954 C 563.257 -0.650645 -1.82976 0
M  V30 5955 O 562.532 0.348889 -1.91345 0
M  V30 5956 C 562.815 -3.15472 -1.73636 0
M  V30 5957 C 562.668 -4.41693 -0.85015 0
M  V30 5958 C 563.987 -3.46824 -2.70927 0
M  V30 5959 H 561.106 -0.657702 -0.332561 0
M  V30 5960 H 563.748 -1.89086 -0.186186 0
M  V30 5961 H 561.898 -3.08536 -2.36088 0
M  V30 5962 H 563.57 -4.60673 -0.240459 0
M  V30 5963 H 561.813 -4.33517 -0.156785 0
M  V30 5964 H 562.484 -5.32419 -1.45719 0
M  V30 5965 H 564.96 -3.54049 -2.18607 0
M  V30 5966 H 563.836 -4.4218 -3.25219 0
M  V30 5967 H 564.097 -2.70236 -3.49893 0
M  V30 5968 N 563.156 0.464375 -1.50603 0
M  V30 5969 C 564.567 1.04507 -1.5471 0
M  V30 5970 C 564.918 1.9297 -0.354542 0
M  V30 5971 O 564.043 2.09763 0.531812 0
M  V30 5972 C 564.638 1.90207 -2.80369 0
M  V30 5973 C 563.197 2.43373 -2.87135 0
M  V30 5974 C 562.344 1.21886 -2.49076 0
M  V30 5975 H 565.295 0.246716 -1.56771 0
M  V30 5976 H 565.316 2.75353 -2.62604 0
M  V30 5977 H 564.828 1.25796 -3.67147 0
M  V30 5978 H 562.929 3.11318 -2.04724 0
M  V30 5979 H 563.042 2.7802 -3.90181 0
M  V30 5980 H 561.406 1.55575 -2.01664 0
M  V30 5981 H 562.189 0.591268 -3.3817 0
M  V30 5982 N 564.634 1.40294 0.718013 0
M  V30 5983 C 565.882 1.38167 1.47494 0
M  V30 5984 C 566.203 -0.01607 1.94993 0
M  V30 5985 O 565.473 -0.970396 1.70177 0
M  V30 5986 H 564.053 0.508505 0.547203 0
M  V30 5987 H 566.715 1.75324 0.851322 0
M  V30 5988 H 565.811 2.05503 2.34894 0
M  V30 5989 N 566.112 -0.949982 1.2575 0
M  V30 5990 C 567.06 -2.06869 1.06339 0
M  V30 5991 C 568.054 -1.69399 -0.00708901 0
M  V30 5992 O 569.26 -1.79383 0.148897 0
M  V30 5993 H 565.635 -0.677197 0.326969 0
M  V30 5994 H 567.606 -2.20396 2.01167 0
M  V30 5995 C 566.355 -3.40503 0.703769 0
M  V30 5996 H 565.678 -3.69807 1.51931 0
M  V30 5997 H 567.118 -4.19623 0.607677 0
M  V30 5998 C 565.577 -3.31685 -0.5905 0
M  V30 5999 O 566.107 -3.67085 -1.63131 0
M  V30 6000 N 564.313 -2.84797 -0.577859 0
M  V30 6001 H 563.86 -2.56186 0.26951 0
M  V30 6002 H 563.818 -2.79279 -1.44398 0
M  V30 6003 N 567.59 -1.07411 -1.15328 0
M  V30 6004 C 568.5 -0.706438 -2.23711 0
M  V30 6005 C 569.516 0.282586 -1.7169 0
M  V30 6006 O 570.692 0.129066 -2.00986 0
M  V30 6007 C 567.757 -0.11048 -3.46524 0
M  V30 6008 C 566.818 -1.15282 -4.13532 0
M  V30 6009 C 566.051 -0.585205 -5.30482 0
M  V30 6010 O 566.274 0.598549 -5.67251 0
M  V30 6011 O 565.208 -1.33039 -5.87013 0
M  V30 6012 H 569.034 -1.61031 -2.57493 0
M  V30 6013 H 566.619 -0.847113 -1.23062 0
M  V30 6014 H 568.501 0.21957 -4.20828 0
M  V30 6015 H 567.176 0.766703 -3.14489 0
M  V30 6016 H 566.083 -1.53523 -3.41147 0
M  V30 6017 H 567.416 -2.00192 -4.49649 0
M  V30 6018 N 569.068 1.32177 -0.85831 0
M  V30 6019 C 569.998 2.31282 -0.321041 0
M  V30 6020 C 570.979 1.59841 0.581786 0
M  V30 6021 O 572.164 1.87619 0.501262 0
M  V30 6022 C 569.294 3.4385 0.48832 0
M  V30 6023 C 568.248 4.26799 -0.320391 0
M  V30 6024 C 567.574 5.31164 0.613934 0
M  V30 6025 C 568.874 4.98829 -1.54813 0
M  V30 6026 H 570.568 2.76469 -1.14915 0
M  V30 6027 H 568.114 1.32916 -0.554028 0
M  V30 6028 H 570.067 4.12224 0.874626 0
M  V30 6029 H 568.791 2.97401 1.34983 0
M  V30 6030 H 567.45 3.60077 -0.688497 0
M  V30 6031 H 567.098 4.80967 1.47239 0
M  V30 6032 H 566.798 5.8755 0.0768097 0
M  V30 6033 H 568.322 6.024 0.997336 0
M  V30 6034 H 569.736 5.59864 -1.23392 0
M  V30 6035 H 568.133 5.64957 -2.02346 0
M  V30 6036 H 569.203 4.26483 -2.30739 0
M  V30 6037 N 570.547 0.616602 1.45037 0
M  V30 6038 C 571.796 0.112861 2.01384 0
M  V30 6039 C 572.109 -1.26758 1.48969 0
M  V30 6040 O 573.315 -1.86454 1.9735 0
M  V30 6041 C 571.771 0.151057 3.59583 0
M  V30 6042 C 571.379 1.53191 4.20995 0
M  V30 6043 C 573.123 -0.296974 4.2346 0
M  V30 6044 C 571.03 1.526 5.71373 0
M  V30 6045 H 569.96 0.0384254 0.75302 0
M  V30 6046 H 572.611 0.773262 1.66412 0
M  V30 6047 H 570.993 -0.57617 3.91786 0
M  V30 6048 H 572.167 2.28156 4.00352 0
M  V30 6049 H 570.482 1.92279 3.69348 0
M  V30 6050 H 573.079 -0.320712 5.33737 0
M  V30 6051 H 573.422 -1.32145 3.9477 0
M  V30 6052 H 573.955 0.377279 3.96007 0
M  V30 6053 H 570.694 2.52837 6.04776 0
M  V30 6054 H 570.214 0.819064 5.94181 0
M  V30 6055 H 571.893 1.25357 6.3474 0
M  V30 6056 N 572.025 -1.5352 0.356285 0
M  V30 6057 C 573.302 -1.93405 -0.292223 0
M  V30 6058 C 573.682 -1.28901 -1.67176 0
M  V30 6059 O 573.03 -0.444632 -2.24132 0
M  V30 6060 C 573.24 -3.47223 -0.35175 0
M  V30 6061 C 574.588 -4.20389 -0.596534 0
M  V30 6062 O 575.612 -3.53554 -0.433344 0
M  V30 6063 O 574.471 -5.3881 -0.913589 0
M  V30 6064 H 571.565 -0.808666 -0.173172 0
M  V30 6065 H 574.111 -1.64713 0.408391 0
M  V30 6066 H 572.883 -3.86423 0.615841 0
M  V30 6067 H 572.506 -3.8212 -1.09864 0
M  V30 6068 N 573.503 -0.0852151 -1.57369 0
M  V30 6069 C 574.749 0.581666 -1.94279 0
M  V30 6070 C 575.082 1.68444 -0.966446 0
M  V30 6071 O 574.357 1.945 0.00215277 0
M  V30 6072 C 574.64 1.14609 -3.41375 0
M  V30 6073 C 574.493 0.0490414 -4.49773 0
M  V30 6074 C 575.812 2.04751 -3.8957 0
M  V30 6075 H 572.931 0.209972 -0.706456 0
M  V30 6076 H 575.573 -0.153915 -1.89376 0
M  V30 6077 H 573.723 1.77297 -3.45685 0
M  V30 6078 H 575.395 -0.584721 -4.57579 0
M  V30 6079 H 573.638 -0.618638 -4.29366 0
M  V30 6080 H 574.309 0.484601 -5.49869 0
M  V30 6081 H 576.785 1.51981 -3.87351 0
M  V30 6082 H 575.661 2.41173 -4.93079 0
M  V30 6083 H 575.922 2.96107 -3.28288 0
M  V30 6084 N 574.981 1.5647 0.188427 0
M  V30 6085 C 576.209 1.85131 0.923803 0
M  V30 6086 C 576.624 0.668537 1.76567 0
M  V30 6087 O 575.981 -0.362662 1.7886 0
M  V30 6088 C 576.032 3.12661 1.81453 0
M  V30 6089 O 575.753 4.26378 1.00665 0
M  V30 6090 C 577.254 3.54548 2.66103 0
M  V30 6091 H 574.474 0.614624 0.269218 0
M  V30 6092 H 577.018 2.03581 0.193671 0
M  V30 6093 H 575.173 2.96088 2.49821 0
M  V30 6094 H 575.587 4.99041 1.61425 0
M  V30 6095 H 577.061 4.4673 3.24247 0
M  V30 6096 H 577.538 2.77853 3.40139 0
M  V30 6097 H 578.144 3.73674 2.03096 0
M  V30 6098 N 576.459 -0.456382 1.50847 0
M  V30 6099 C 577.707 -1.20497 1.62249 0
M  V30 6100 C 578.028 -1.92156 0.331839 0
M  V30 6101 O 577.298 -1.84751 -0.651443 0
M  V30 6102 H 575.878 -0.447775 0.597918 0
M  V30 6103 H 578.54 -0.525099 1.87693 0
M  V30 6104 H 577.636 -1.94492 2.44089 0
M  V30 6105 N 577.937 -1.40673 -0.710563 0
M  V30 6106 C 579.186 -1.38525 -1.46607 0
M  V30 6107 C 579.499 0.0077024 -1.95598 0
M  V30 6108 O 580.705 0.151792 -2.71075 0
M  V30 6109 C 579.161 -2.43489 -2.6503 0
M  V30 6110 C 578.769 -3.88619 -2.22888 0
M  V30 6111 C 580.513 -2.50456 -3.42742 0
M  V30 6112 C 578.42 -4.85168 -3.3818 0
M  V30 6113 H 577.35 -0.515092 -0.550632 0
M  V30 6114 H 580.001 -1.66431 -0.772846 0
M  V30 6115 H 578.383 -2.0869 -3.36548 0
M  V30 6116 H 579.557 -4.32588 -1.58758 0
M  V30 6117 H 577.872 -3.85174 -1.58208 0
M  V30 6118 H 580.469 -3.19776 -4.28541 0
M  V30 6119 H 580.812 -1.53665 -3.86902 0
M  V30 6120 H 581.345 -2.84271 -2.78271 0
M  V30 6121 H 578.084 -5.8331 -2.99047 0
M  V30 6122 H 577.604 -4.4586 -4.01209 0
M  V30 6123 H 579.283 -5.05225 -4.04174 0
M  V30 6124 N 579.415 0.9433 -1.26252 0
M  V30 6125 C 580.643 1.72367 -1.14443 0
M  V30 6126 C 581.058 1.86392 0.300572 0
M  V30 6127 O 580.415 1.36978 1.20596 0
M  V30 6128 C 580.466 3.13155 -1.806 0
M  V30 6129 O 580.187 2.99803 -3.19452 0
M  V30 6130 C 581.688 4.07417 -1.74717 0
M  V30 6131 H 578.908 0.539758 -0.398626 0
M  V30 6132 H 581.452 1.18268 -1.66832 0
M  V30 6133 H 579.607 3.64162 -1.32154 0
M  V30 6134 H 580.021 3.88697 -3.52158 0
M  V30 6135 H 581.495 5.03773 -2.25647 0
M  V30 6136 H 581.972 4.3337 -0.713244 0
M  V30 6137 H 582.578 3.6233 -2.22704 0
M  V30 6138 N 580.893 1.08022 1.14757 0
M  V30 6139 C 581.823 0.728248 2.21853 0
M  V30 6140 C 582.804 -0.287486 1.67653 0
M  V30 6141 O 583.989 -0.158727 1.9355 0
M  V30 6142 C 581.119 0.132549 3.47047 0
M  V30 6143 C 580.073 1.07619 4.14249 0
M  V30 6144 C 579.399 0.342907 5.33599 0
M  V30 6145 C 580.699 2.41268 4.63235 0
M  V30 6146 H 582.393 1.62365 2.51551 0
M  V30 6147 H 579.939 0.782125 1.20908 0
M  V30 6148 H 581.892 -0.125665 4.21213 0
M  V30 6149 H 580.616 -0.797971 3.16702 0
M  V30 6150 H 579.275 1.31944 3.42033 0
M  V30 6151 H 578.923 -0.59129 4.99513 0
M  V30 6152 H 578.623 0.971955 5.79506 0
M  V30 6153 H 580.147 0.0926538 6.1053 0
M  V30 6154 H 581.561 2.21232 5.28894 0
M  V30 6155 H 579.958 2.9983 5.19829 0
M  V30 6156 H 581.028 3.03079 3.78512 0
M  V30 6157 N 582.371 -1.3172 0.865308 0
M  V30 6158 C 583.318 -2.2863 0.315736 0
M  V30 6159 C 584.288 -1.55524 -0.583213 0
M  V30 6160 O 585.473 -1.83694 -0.51585 0
M  V30 6161 C 582.613 -3.41735 -0.480773 0
M  V30 6162 C 581.726 -4.297 0.445167 0
M  V30 6163 C 580.861 -5.29944 -0.365012 0
M  V30 6164 C 579.9 -6.09554 0.557651 0
M  V30 6165 N 579.037 -7.01768 -0.215994 0
M  V30 6166 H 583.877 -2.75026 1.14736 0
M  V30 6167 H 581.414 -1.35302 0.577209 0
M  V30 6168 H 583.372 -4.06045 -0.958306 0
M  V30 6169 H 582.002 -2.96461 -1.27714 0
M  V30 6170 H 581.054 -3.65875 1.04113 0
M  V30 6171 H 582.366 -4.85295 1.15284 0
M  V30 6172 H 581.52 -5.99908 -0.905255 0
M  V30 6173 H 580.259 -4.74994 -1.106 0
M  V30 6174 H 579.264 -5.38485 1.10969 0
M  V30 6175 H 580.489 -6.66591 1.29742 0
M  V30 6176 H 578.435 -6.49232 -0.939878 0
M  V30 6177 H 578.352 -7.54762 0.432431 0
M  V30 6178 H 579.62 -7.76002 -0.737618 0
M  V30 6179 N 583.85 -0.624285 -1.44708 0
M  V30 6180 C 584.782 0.12305 -2.28869 0
M  V30 6181 C 585.795 0.81557 -1.40898 0
M  V30 6182 O 586.984 0.678162 -1.65116 0
M  V30 6183 C 584.084 1.19612 -3.1709 0
M  V30 6184 C 583.257 0.587452 -4.33437 0
M  V30 6185 C 582.316 1.55358 -5.02743 0
M  V30 6186 O 581.341 1.07338 -5.58988 0
M  V30 6187 N 582.543 2.88798 -5.03563 0
M  V30 6188 H 585.308 -0.599193 -2.93649 0
M  V30 6189 H 582.87 -0.464954 -1.5508 0
M  V30 6190 H 584.861 1.84261 -3.60319 0
M  V30 6191 H 583.432 1.82067 -2.54107 0
M  V30 6192 H 582.652 -0.237509 -3.93484 0
M  V30 6193 H 583.94 0.161326 -5.08544 0
M  V30 6194 H 583.338 3.30399 -4.59188 0
M  V30 6195 H 581.894 3.48826 -5.50603 0
M  V30 6196 N 585.328 1.53329 -0.364422 0
M  V30 6197 C 586.291 2.24323 0.470292 0
M  V30 6198 C 587.291 1.25068 1.01067 0
M  V30 6199 O 588.481 1.49354 0.896605 0
M  V30 6200 C 585.613 2.97908 1.65722 0
M  V30 6201 H 586.806 2.9952 -0.150917 0
M  V30 6202 H 584.359 1.55868 -0.116092 0
M  V30 6203 H 585.094 2.2695 2.31655 0
M  V30 6204 H 584.879 3.70732 1.27671 0
M  V30 6205 H 586.369 3.5188 2.24878 0
M  V30 6206 N 586.806 0.0935595 1.57322 0
M  V30 6207 C 588.034 -0.578934 1.98635 0
M  V30 6208 C 588.449 -1.61819 0.972626 0
M  V30 6209 O 587.806 -1.82461 -0.0379638 0
M  V30 6210 C 587.857 -1.22802 3.40003 0
M  V30 6211 O 587.578 -0.230334 4.37494 0
M  V30 6212 C 589.079 -1.98627 3.96311 0
M  V30 6213 H 586.299 -0.155324 0.652775 0
M  V30 6214 H 588.843 0.172393 2.03772 0
M  V30 6215 H 586.998 -1.93029 3.35885 0
M  V30 6216 H 587.412 -0.698649 5.19826 0
M  V30 6217 H 588.886 -2.39405 4.97382 0
M  V30 6218 H 589.363 -2.85151 3.34044 0
M  V30 6219 H 589.969 -1.3322 4.03897 0
M  V30 6220 N 588.284 -1.56567 -0.180126 0
M  V30 6221 C 589.512 -1.85618 -0.913972 0
M  V30 6222 C 589.927 -0.677892 -1.7621 0
M  V30 6223 O 589.284 0.353171 -1.7905 0
M  V30 6224 C 589.335 -3.13619 -1.79793 0
M  V30 6225 O 589.056 -4.26906 -0.98402 0
M  V30 6226 C 590.557 -3.55954 -2.64219 0
M  V30 6227 H 587.777 -0.616043 -0.265954 0
M  V30 6228 H 590.321 -2.03681 -0.182872 0
M  V30 6229 H 588.476 -2.97409 -2.48247 0
M  V30 6230 H 588.89 -4.9989 -1.58776 0
M  V30 6231 H 590.364 -4.48444 -3.21873 0
M  V30 6232 H 590.841 -2.79653 -3.38661 0
M  V30 6233 H 591.447 -3.74746 -2.01111 0
M  V30 6234 N 589.762 0.448376 -1.51087 0
M  V30 6235 C 590.725 1.52588 -1.71025 0
M  V30 6236 C 591.725 1.49958 -0.580442 0
M  V30 6237 O 592.915 1.52176 -0.847833 0
M  V30 6238 C 590.047 2.92163 -1.75652 0
M  V30 6239 H 591.24 1.36218 -2.67179 0
M  V30 6240 H 588.793 0.676313 -1.4091 0
M  V30 6241 H 589.528 3.13951 -0.812724 0
M  V30 6242 H 589.313 2.95478 -2.57751 0
M  V30 6243 H 590.803 3.70349 -1.92953 0
M  V30 6244 N 591.24 1.41047 0.703093 0
M  V30 6245 C 592.651 1.35657 1.28274 0
M  V30 6246 C 593.002 0.0360309 1.96167 0
M  V30 6247 O 592.127 -0.865833 1.98324 0
M  V30 6248 C 592.722 2.45707 2.33267 0
M  V30 6249 C 591.281 2.43738 2.86825 0
M  V30 6250 C 590.428 2.25941 1.60767 0
M  V30 6251 H 593.379 1.50672 0.49836 0
M  V30 6252 H 593.4 2.14333 3.14391 0
M  V30 6253 H 592.912 3.41805 1.83824 0
M  V30 6254 H 591.013 1.51375 3.40465 0
M  V30 6255 H 591.126 3.39779 3.37768 0
M  V30 6256 H 589.49 1.73681 1.86298 0
M  V30 6257 H 590.273 3.24054 1.1333 0
M  V30 6258 N 592.718 -0.936591 1.26751 0
M  V30 6259 C 593.958 -1.69796 1.13792 0
M  V30 6260 C 594.322 -1.89437 -0.312671 0
M  V30 6261 O 595.523 -2.62806 -0.564489 0
M  V30 6262 C 593.794 -3.03297 1.89065 0
M  V30 6263 S 595.353 -3.94461 1.92214 0
M  V30 6264 H 592.171 -0.583412 0.406389 0
M  V30 6265 H 594.773 -1.11575 1.60535 0
M  V30 6266 H 593.477 -2.86687 2.93665 0
M  V30 6267 H 593.008 -3.66575 1.42781 0
M  V30 6268 H 595.023 -4.85767 1.01215 0
M  V30 6269 N 594.196 -1.08629 -1.14182 0
M  V30 6270 C 595.159 -0.722027 -2.1753 0
M  V30 6271 C 596.159 0.244305 -1.58933 0
M  V30 6272 O 597.349 0.0235545 -1.74184 0
M  V30 6273 C 594.481 -0.0663966 -3.40835 0
M  V30 6274 H 595.674 -1.63719 -2.51269 0
M  V30 6275 H 593.227 -0.884442 -1.28869 0
M  V30 6276 H 593.962 0.860389 -3.12678 0
M  V30 6277 H 593.747 -0.761598 -3.84632 0
M  V30 6278 H 595.237 0.173346 -4.1724 0
M  V30 6279 N 595.674 1.31259 -0.872281 0
M  V30 6280 C 596.92 1.96913 -0.485083 0
M  V30 6281 C 597.253 1.68774 0.960667 0
M  V30 6282 O 596.528 0.985495 1.67685 0
M  V30 6283 C 596.811 3.52299 -0.745502 0
M  V30 6284 C 596.664 3.90002 -2.24095 0
M  V30 6285 C 597.983 4.39582 -0.213516 0
M  V30 6286 H 595.102 0.715252 -0.177716 0
M  V30 6287 H 597.744 1.55347 -1.09395 0
M  V30 6288 H 595.894 3.87835 -0.227276 0
M  V30 6289 H 597.566 3.64555 -2.82661 0
M  V30 6290 H 595.809 3.38526 -2.71261 0
M  V30 6291 H 596.48 4.98352 -2.37381 0
M  V30 6292 H 598.956 4.10882 -0.656902 0
M  V30 6293 H 597.832 5.47251 -0.42516 0
M  V30 6294 H 598.093 4.33158 0.884666 0
M  V30 6295 N 597.152 0.631951 1.44375 0
M  V30 6296 C 598.085 -0.121822 2.27875 0
M  V30 6297 C 599.063 -0.850457 1.38586 0
M  V30 6298 O 600.247 -0.854378 1.68026 0
M  V30 6299 C 597.374 -1.17859 3.17533 0
M  V30 6300 C 596.42 -0.550391 4.22934 0
M  V30 6301 S 597.253 0.660145 5.31415 0
M  V30 6302 C 598.409 -0.396613 6.24642 0
M  V30 6303 H 598.642 0.586537 2.91457 0
M  V30 6304 H 596.175 0.420146 1.48574 0
M  V30 6305 H 598.133 -1.78335 3.69739 0
M  V30 6306 H 596.794 -1.85915 2.53169 0
M  V30 6307 H 595.987 -1.34631 4.85685 0
M  V30 6308 H 595.589 -0.0202306 3.73995 0
M  V30 6309 H 597.881 -1.26893 6.65511 0
M  V30 6310 H 598.824 0.195345 7.0783 0
M  V30 6311 H 599.232 -0.72288 5.59852 0
M  V30 6312 N 598.631 -1.53133 0.372548 0
M  V30 6313 C 599.908 -1.93704 -0.271693 0
M  V30 6314 C 600.288 -1.30667 -1.65799 0
M  V30 6315 O 599.636 -0.46838 -2.23648 0
M  V30 6316 C 599.846 -3.47576 -0.314903 0
M  V30 6317 C 601.194 -4.20998 -0.551912 0
M  V30 6318 O 602.218 -3.53994 -0.39582 0
M  V30 6319 O 601.077 -5.39748 -0.85639 0
M  V30 6320 H 598.171 -0.810457 -0.164586 0
M  V30 6321 H 600.717 -1.6427 0.425838 0
M  V30 6322 H 599.489 -3.85749 0.656792 0
M  V30 6323 H 599.112 -3.83264 -1.05804 0
M  V30 6324 N 600.109 -0.101901 -1.5727 0
M  V30 6325 C 601.358 0.559922 -1.93772 0
M  V30 6326 C 601.671 1.68913 -0.98629 0
M  V30 6327 O 602.877 2.41256 -1.24529 0
M  V30 6328 C 601.333 1.04739 -3.44322 0
M  V30 6329 C 600.941 -0.05243 -4.47969 0
M  V30 6330 C 602.685 1.68157 -3.89774 0
M  V30 6331 C 600.592 0.450781 -5.8968 0
M  V30 6332 H 599.522 0.212931 -0.723309 0
M  V30 6333 H 602.173 -0.179001 -1.82625 0
M  V30 6334 H 600.555 1.84021 -3.50645 0
M  V30 6335 H 601.729 -0.828157 -4.53297 0
M  V30 6336 H 600.044 -0.592202 -4.12167 0
M  V30 6337 H 602.641 2.0689 -4.93052 0
M  V30 6338 H 602.984 2.55338 -3.28798 0
M  V30 6339 H 603.517 0.954453 -3.8618 0
M  V30 6340 H 600.256 -0.38458 -6.54371 0
M  V30 6341 H 599.776 1.19336 -5.87809 0
M  V30 6342 H 601.455 0.917555 -6.40461 0
M  V30 6343 N 601.587 1.56661 0.17182 0
M  V30 6344 C 602.815 1.861 0.904115 0
M  V30 6345 C 603.23 0.687227 1.75848 0
M  V30 6346 O 602.587 -0.343671 1.79235 0
M  V30 6347 C 602.638 3.14568 1.78127 0
M  V30 6348 O 602.359 4.27422 0.961366 0
M  V30 6349 C 603.86 3.5735 2.62327 0
M  V30 6350 H 601.08 0.617445 0.262684 0
M  V30 6351 H 603.624 2.03775 0.172068 0
M  V30 6352 H 601.779 2.98721 2.46666 0
M  V30 6353 H 602.193 5.00725 1.56123 0
M  V30 6354 H 603.667 4.50144 3.1949 0
M  V30 6355 H 604.144 2.81445 3.37173 0
M  V30 6356 H 604.75 3.75807 1.99121 0
M  V30 6357 N 603.065 -0.440357 1.51323 0
M  V30 6358 C 604.313 -1.18769 1.63518 0
M  V30 6359 C 604.634 -1.91793 0.352201 0
M  V30 6360 O 603.904 -1.85432 -0.631811 0
M  V30 6361 H 602.484 -0.441408 0.602634 0
M  V30 6362 H 605.146 -0.505162 1.8824 0
M  V30 6363 H 604.242 -1.91892 2.46138 0
M  V30 6364 N 604.543 -1.41418 -0.695603 0
M  V30 6365 C 605.789 -1.40982 -1.4578 0
M  V30 6366 C 606.122 -0.0187763 -1.94191 0
M  V30 6367 O 605.397 0.95346 -1.69527 0
M  V30 6368 C 605.68 -2.41657 -2.66972 0
M  V30 6369 C 605.533 -3.89869 -2.24327 0
M  V30 6370 C 606.852 -2.39589 -3.69168 0
M  V30 6371 H 603.971 -0.513405 -0.528757 0
M  V30 6372 H 606.613 -1.72693 -0.792275 0
M  V30 6373 H 604.763 -2.14746 -3.23754 0
M  V30 6374 H 606.435 -4.27683 -1.72872 0
M  V30 6375 H 604.678 -4.04737 -1.56111 0
M  V30 6376 H 605.349 -4.55857 -3.11285 0
M  V30 6377 H 607.825 -2.63471 -3.2206 0
M  V30 6378 H 606.701 -3.12044 -4.51575 0
M  V30 6379 H 606.962 -1.41447 -4.18862 0
M  V30 6380 N 606.021 0.929856 -1.27246 0
M  V30 6381 C 606.953 2.03434 -1.0558 0
M  V30 6382 C 607.966 1.62795 -0.0125762 0
M  V30 6383 O 609.155 1.76685 -0.2539 0
M  V30 6384 C 606.255 3.33915 -0.57912 0
M  V30 6385 C 605.428 4.03259 -1.69415 0
M  V30 6386 C 604.487 5.12014 -1.21357 0
M  V30 6387 O 603.513 5.36097 -1.91282 0
M  V30 6388 N 604.715 5.8046 -0.0680622 0
M  V30 6389 H 607.48 2.22583 -2.00691 0
M  V30 6390 H 605.041 1.1001 -1.18783 0
M  V30 6391 H 607.033 4.03978 -0.241563 0
M  V30 6392 H 605.603 3.11355 0.278703 0
M  V30 6393 H 604.823 3.26958 -2.20209 0
M  V30 6394 H 606.111 4.46337 -2.44255 0
M  V30 6395 H 605.509 5.63345 0.515626 0
M  V30 6396 H 604.066 6.51461 0.210332 0
M  V30 6397 N 607.499 1.09233 1.13605 0
M  V30 6398 C 608.724 0.849067 1.89224 0
M  V30 6399 C 609.149 -0.593875 1.78479 0
M  V30 6400 O 608.507 -1.41703 1.13092 0
M  V30 6401 C 608.555 1.28642 3.36873 0
M  V30 6402 O 607.659 0.44363 4.10007 0
M  V30 6403 H 607 0.30767 0.588417 0
M  V30 6404 H 609.53 1.45595 1.43748 0
M  V30 6405 H 609.54 1.27096 3.87699 0
M  V30 6406 H 608.215 2.33729 3.44011 0
M  V30 6407 H 606.792 0.523241 3.69211 0
M  V30 6408 N 608.977 -1.30795 0.87923 0
M  V30 6409 C 610.205 -2.00527 0.509548 0
M  V30 6410 C 610.62 -1.65944 -0.90045 0
M  V30 6411 O 609.977 -0.893525 -1.5913 0
M  V30 6412 C 610.028 -3.55276 0.667943 0
M  V30 6413 O 609.749 -3.88625 2.02242 0
M  V30 6414 C 611.25 -4.4228 0.300494 0
M  V30 6415 H 608.47 -0.641261 0.197549 0
M  V30 6416 H 611.014 -1.66813 1.18295 0
M  V30 6417 H 609.169 -3.87377 0.0419843 0
M  V30 6418 H 609.583 -4.83334 2.03688 0
M  V30 6419 H 611.057 -5.50061 0.462242 0
M  V30 6420 H 611.534 -4.32556 -0.76106 0
M  V30 6421 H 612.14 -4.15613 0.902536 0
M  V30 6422 N 610.455 -0.639598 -1.44038 0
M  V30 6423 C 611.385 0.0469443 -2.33453 0
M  V30 6424 C 612.366 0.82609 -1.48694 0
M  V30 6425 O 613.551 0.790285 -1.77393 0
M  V30 6426 C 610.681 1.02338 -3.3188 0
M  V30 6427 C 609.635 0.355284 -4.26523 0
M  V30 6428 C 608.961 1.44221 -5.14883 0
M  V30 6429 C 610.261 -0.743798 -5.16977 0
M  V30 6430 H 611.955 -0.699735 -2.91108 0
M  V30 6431 H 609.501 -0.337946 -1.39978 0
M  V30 6432 H 611.454 1.51247 -3.93322 0
M  V30 6433 H 610.178 1.80105 -2.72451 0
M  V30 6434 H 608.837 -0.113239 -3.66425 0
M  V30 6435 H 608.485 2.21097 -4.51802 0
M  V30 6436 H 608.185 1.00052 -5.79019 0
M  V30 6437 H 609.709 1.93295 -5.79197 0
M  V30 6438 H 611.123 -0.337444 -5.72306 0
M  V30 6439 H 609.52 -1.10914 -5.89761 0
M  V30 6440 H 610.59 -1.60745 -4.57481 0
M  V30 6441 N 611.933 1.52934 -0.380664 0
M  V30 6442 C 613.349 1.59571 -0.0302429 0
M  V30 6443 C 613.549 1.39509 1.45394 0
M  V30 6444 O 612.605 1.20777 2.21741 0
M  V30 6445 C 613.918 2.96519 -0.499691 0
M  V30 6446 C 615.466 3.09672 -0.455204 0
M  V30 6447 C 615.941 4.49056 -0.900703 0
M  V30 6448 N 617.432 4.55215 -0.856367 0
M  V30 6449 C 618.167 5.61282 -1.17259 0
M  V30 6450 N 617.663 6.75035 -1.55885 0
M  V30 6451 N 619.456 5.51343 -1.0944 0
M  V30 6452 H 611.607 1.64224 -1.347 0
M  V30 6453 H 613.87 0.771033 -0.551554 0
M  V30 6454 H 613.576 3.16388 -1.53595 0
M  V30 6455 H 613.45 3.77052 0.105789 0
M  V30 6456 H 615.837 2.89504 0.571949 0
M  V30 6457 H 615.918 2.31113 -1.09638 0
M  V30 6458 H 615.562 4.69964 -1.92604 0
M  V30 6459 H 615.492 5.26068 -0.236629 0
M  V30 6460 H 617.983 3.73546 -0.572013 0
M  V30 6461 H 618.296 7.51926 -1.784 0
M  V30 6462 H 616.641 6.76388 -1.59764 0
M  V30 6463 H 619.832 4.61356 -0.791713 0
M  V30 6464 H 620.005 6.33905 -1.34417 0
M  V30 6465 N 613.412 0.11024 1.57214 0
M  V30 6466 C 614.659 -0.54987 1.94891 0
M  V30 6467 C 614.987 -1.67243 0.992984 0
M  V30 6468 O 614.242 -1.95694 0.0152703 0
M  V30 6469 C 614.541 -1.13102 3.39032 0
M  V30 6470 C 614.207 -0.130713 4.5071 0
M  V30 6471 C 612.869 0.14437 4.80983 0
M  V30 6472 C 615.221 0.551472 5.18274 0
M  V30 6473 C 612.549 1.10807 5.76141 0
M  V30 6474 C 614.901 1.50375 6.14467 0
M  V30 6475 C 613.565 1.78691 6.43138 0
M  V30 6476 H 612.835 -0.201212 0.713158 0
M  V30 6477 H 615.482 0.189288 1.90562 0
M  V30 6478 H 613.787 -1.94675 3.40013 0
M  V30 6479 H 615.484 -1.64973 3.65493 0
M  V30 6480 H 612.074 -0.355301 4.27125 0
M  V30 6481 H 616.258 0.35211 4.95049 0
M  V30 6482 H 611.514 1.3343 5.96663 0
M  V30 6483 H 615.688 2.03808 6.65909 0
M  V30 6484 H 613.315 2.53522 7.1668 0
M  V30 6485 N 614.89 -1.56749 -0.16351 0
M  V30 6486 C 616.306 -1.51043 -0.515567 0
M  V30 6487 C 616.506 -0.815855 -1.84245 0
M  V30 6488 O 615.562 -0.379477 -2.49632 0
M  V30 6489 C 616.875 -2.95791 -0.541114 0
M  V30 6490 C 618.423 -3.0664 -0.627776 0
M  V30 6491 C 618.898 -4.52861 -0.684141 0
M  V30 6492 N 620.389 -4.5714 -0.746818 0
M  V30 6493 C 621.124 -5.67634 -0.811137 0
M  V30 6494 N 620.62 -6.8774 -0.835811 0
M  V30 6495 N 622.413 -5.55624 -0.850756 0
M  V30 6496 H 614.564 -2.00307 0.70645 0
M  V30 6497 H 616.827 -0.912876 0.255659 0
M  V30 6498 H 616.533 -3.49797 0.365329 0
M  V30 6499 H 616.407 -3.50858 -1.38487 0
M  V30 6500 H 618.794 -2.52663 -1.52464 0
M  V30 6501 H 618.875 -2.54645 0.242805 0
M  V30 6502 H 618.519 -5.07472 0.2085 0
M  V30 6503 H 618.449 -5.02621 -1.57098 0
M  V30 6504 H 620.94 -3.70669 -0.735717 0
M  V30 6505 H 621.253 -7.67701 -0.886279 0
M  V30 6506 H 619.598 -6.90334 -0.803958 0
M  V30 6507 H 622.789 -4.60709 -0.828535 0
M  V30 6508 H 622.962 -6.41756 -0.897418 0
M  V30 6509 N 616.368 0.432326 -1.51554 0
M  V30 6510 C 617.614 1.18309 -1.64714 0
M  V30 6511 C 617.947 1.90745 -0.364696 0
M  V30 6512 O 617.222 1.8381 0.635936 0
M  V30 6513 C 617.505 2.1961 -2.85383 0
M  V30 6514 C 617.358 1.51223 -4.23617 0
M  V30 6515 C 618.677 3.20538 -3.01569 0
M  V30 6516 H 615.796 0.428751 -0.599451 0
M  V30 6517 H 618.438 0.471689 -1.84052 0
M  V30 6518 H 616.588 2.8028 -2.69027 0
M  V30 6519 H 618.26 0.938516 -4.51652 0
M  V30 6520 H 616.503 0.814501 -4.26085 0
M  V30 6521 H 617.174 2.25024 -5.04052 0
M  V30 6522 H 619.65 2.69926 -3.16669 0
M  V30 6523 H 618.526 3.88706 -3.87555 0
M  V30 6524 H 618.787 3.86933 -2.13859 0
M  V30 6525 N 617.846 1.41785 0.688094 0
M  V30 6526 C 619.257 1.3701 1.26828 0
M  V30 6527 C 619.608 0.056835 1.96118 0
M  V30 6528 O 618.733 -0.84475 1.99231 0
M  V30 6529 C 619.328 2.48168 2.30648 0
M  V30 6530 C 617.887 2.46766 2.84224 0
M  V30 6531 C 617.034 2.27633 1.58361 0
M  V30 6532 H 619.985 1.51192 0.482351 0
M  V30 6533 H 620.006 2.17655 3.121 0
M  V30 6534 H 619.518 3.43735 1.80188 0
M  V30 6535 H 617.619 1.54978 3.3884 0
M  V30 6536 H 617.732 3.43342 3.34145 0
M  V30 6537 H 616.096 1.75648 1.84445 0
M  V30 6538 H 616.879 3.25238 1.09887 0
M  V30 6539 N 619.324 -0.923095 1.27737 0
M  V30 6540 C 620.57 -1.67409 1.15524 0
M  V30 6541 C 620.925 -1.90124 -0.295072 0
M  V30 6542 O 620.218 -1.48382 -1.21216 0
M  V30 6543 C 620.412 -3.04125 1.8773 0
M  V30 6544 C 620.241 -2.94752 3.39634 0
M  V30 6545 C 619.011 -2.96783 4.0896 0
M  V30 6546 C 621.209 -2.73524 4.35533 0
M  V30 6547 N 619.191 -2.779 5.47398 0
M  V30 6548 C 620.562 -2.63391 5.61271 0
M  V30 6549 C 622.617 -2.58447 4.2557 0
M  V30 6550 C 621.32 -2.3972 6.78179 0
M  V30 6551 C 623.346 -2.36154 5.42204 0
M  V30 6552 C 622.708 -2.26768 6.669 0
M  V30 6553 H 618.807 -0.619196 0.477619 0
M  V30 6554 H 621.391 -1.09094 1.61266 0
M  V30 6555 H 619.562 -3.60545 1.44436 0
M  V30 6556 H 621.294 -3.6819 1.67982 0
M  V30 6557 H 618.049 -3.07186 3.60463 0
M  V30 6558 H 618.473 -2.71576 6.20141 0
M  V30 6559 H 623.115 -2.6446 3.2988 0
M  V30 6560 H 620.833 -2.32447 7.73947 0
M  V30 6561 H 624.419 -2.25367 5.36378 0
M  V30 6562 H 623.299 -2.09751 7.55628 0
M  V30 6563 N 620.802 -1.09834 -1.13024 0
M  V30 6564 C 622.051 -0.831806 -1.83749 0
M  V30 6565 C 622.364 0.644763 -1.84668 0
M  V30 6566 O 623.57 1.02697 -2.51327 0
M  V30 6567 C 622.026 -1.43817 -3.29916 0
M  V30 6568 C 621.634 -2.94759 -3.37374 0
M  V30 6569 C 623.378 -1.25077 -4.05655 0
M  V30 6570 C 621.285 -3.48461 -4.77838 0
M  V30 6571 H 620.215 -0.30751 -0.688443 0
M  V30 6572 H 622.866 -1.32156 -1.27307 0
M  V30 6573 H 621.248 -0.876106 -3.86187 0
M  V30 6574 H 622.422 -3.57228 -2.91076 0
M  V30 6575 H 620.737 -3.12581 -2.75103 0
M  V30 6576 H 623.334 -1.62649 -5.09362 0
M  V30 6577 H 623.677 -0.191782 -4.15858 0
M  V30 6578 H 624.21 -1.78057 -3.55725 0
M  V30 6579 H 620.949 -4.53998 -4.72828 0
M  V30 6580 H 620.469 -2.90757 -5.24615 0
M  V30 6581 H 622.148 -3.45914 -5.46766 0
M  V30 6582 N 622.28 1.30327 -0.886154 0
M  V30 6583 C 623.505 2.0079 -0.519425 0
M  V30 6584 C 623.93 1.65979 0.885013 0
M  V30 6585 O 623.288 0.877043 1.58675 0
M  V30 6586 C 623.336 3.53686 -0.702758 0
M  V30 6587 O 622.44 4.11637 0.250828 0
M  V30 6588 H 621.781 0.63171 -0.204544 0
M  V30 6589 H 624.311 1.66145 -1.19402 0
M  V30 6590 H 624.321 4.03531 -0.602207 0
M  V30 6591 H 622.996 3.78361 -1.72673 0
M  V30 6592 H 621.573 3.72755 0.103873 0
M  V30 6593 N 623.758 0.647228 1.43697 0
M  V30 6594 C 625.035 0.0883758 1.954 0
M  V30 6595 C 625.415 -1.39006 1.58873 0
M  V30 6596 O 624.763 -2.11255 0.87083 0
M  V30 6597 C 624.973 0.328263 3.47453 0
M  V30 6598 C 626.321 0.230009 4.23977 0
M  V30 6599 O 627.345 0.260496 3.55246 0
M  V30 6600 O 626.204 0.148615 5.46298 0
M  V30 6601 H 623.298 -0.0130683 0.826897 0
M  V30 6602 H 625.844 0.72005 1.53666 0
M  V30 6603 H 624.616 1.3535 3.67146 0
M  V30 6604 H 624.239 -0.336772 3.96171 0
M  V30 6605 N 625.236 -1.5273 0.388769 0
M  V30 6606 C 626.464 -2.05992 -0.193677 0
M  V30 6607 C 626.879 -1.26053 -1.40557 0
M  V30 6608 O 626.236 -0.307049 -1.79898 0
M  V30 6609 C 626.287 -3.57068 -0.564321 0
M  V30 6610 O 626.008 -4.3398 0.599422 0
M  V30 6611 C 627.509 -4.26674 -1.20269 0
M  V30 6612 H 624.729 -0.670358 -0.0293445 0
M  V30 6613 H 627.273 -1.96857 0.553844 0
M  V30 6614 H 625.428 -3.66277 -1.26174 0
M  V30 6615 H 625.842 -5.2367 0.294895 0
M  V30 6616 H 627.316 -5.33625 -1.4124 0
M  V30 6617 H 627.793 -3.81854 -2.16989 0
M  V30 6618 H 628.399 -4.2178 -0.546047 0
M  V30 6619 N 626.714 -0.118576 -1.57153 0
M  V30 6620 C 628.125 0.40687 -1.82213 0
M  V30 6621 C 628.476 1.66636 -1.03571 0
M  V30 6622 O 627.601 2.14682 -0.272171 0
M  V30 6623 C 628.196 0.744949 -3.30509 0
M  V30 6624 C 626.755 1.21503 -3.5625 0
M  V30 6625 C 625.902 0.223511 -2.76398 0
M  V30 6626 H 628.853 -0.343712 -1.54933 0
M  V30 6627 H 628.874 1.6024 -3.45114 0
M  V30 6628 H 628.386 -0.171911 -3.87719 0
M  V30 6629 H 626.487 2.1488 -3.04396 0
M  V30 6630 H 626.6 1.16065 -4.64829 0
M  V30 6631 H 624.964 0.71046 -2.44591 0
M  V30 6632 H 625.747 -0.686439 -3.36367 0
M  V30 6633 N 628.193 1.56834 0.155195 0
M  V30 6634 C 629.423 1.86778 0.883044 0
M  V30 6635 C 629.831 0.703824 1.75622 0
M  V30 6636 O 629.174 -0.33581 1.80605 0
M  V30 6637 C 629.236 3.1133 1.79761 0
M  V30 6638 C 628.9 4.43504 1.10242 0
M  V30 6639 C 629.897 5.17859 0.460204 0
M  V30 6640 C 627.582 4.90233 1.09437 0
M  V30 6641 C 629.576 6.37144 -0.180782 0
M  V30 6642 C 627.263 6.09444 0.449569 0
M  V30 6643 C 628.261 6.82744 -0.186888 0
M  V30 6644 O 627.949 7.99692 -0.821486 0
M  V30 6645 H 627.681 0.62352 0.261149 0
M  V30 6646 H 630.235 2.04813 0.155204 0
M  V30 6647 H 628.465 2.89282 2.56618 0
M  V30 6648 H 630.154 3.27587 2.39669 0
M  V30 6649 H 630.92 4.8283 0.458289 0
M  V30 6650 H 626.799 4.33109 1.57917 0
M  V30 6651 H 630.343 6.94296 -0.678154 0
M  V30 6652 H 626.24 6.43936 0.449123 0
M  V30 6653 H 627.008 8.15306 -0.722337 0
M  V30 6654 N 629.671 -0.424282 1.51781 0
M  V30 6655 C 631.087 -0.761768 1.40247 0
M  V30 6656 C 631.287 -1.95324 0.495041 0
M  V30 6657 O 630.343 -2.5246 -0.0448949 0
M  V30 6658 C 631.656 -1.0299 2.82513 0
M  V30 6659 C 633.204 -1.13354 2.91753 0
M  V30 6660 C 633.679 -1.43453 4.34954 0
M  V30 6661 N 635.17 -1.5035 4.3812 0
M  V30 6662 C 635.905 -1.75236 5.45967 0
M  V30 6663 N 635.401 -1.97827 6.63955 0
M  V30 6664 N 637.194 -1.77126 5.33463 0
M  V30 6665 H 629.345 0.360228 2.09323 0
M  V30 6666 H 631.608 0.0988128 0.942836 0
M  V30 6667 H 631.314 -0.226961 3.50967 0
M  V30 6668 H 631.188 -1.95411 3.22637 0
M  V30 6669 H 633.575 -1.92709 2.23489 0
M  V30 6670 H 633.656 -0.188041 2.55108 0
M  V30 6671 H 633.3 -0.646209 5.03772 0
M  V30 6672 H 633.23 -2.3923 4.69123 0
M  V30 6673 H 635.721 -1.34742 3.53062 0
M  V30 6674 H 636.034 -2.16223 7.41935 0
M  V30 6675 H 634.379 -1.95123 6.67047 0
M  V30 6676 H 637.57 -1.59005 4.40267 0
M  V30 6677 H 637.743 -1.96182 6.17589 0
M  V30 6678 N 631.149 -1.42148 -0.680565 0
M  V30 6679 C 632.395 -1.42521 -1.44277 0
M  V30 6680 C 632.728 -0.0393718 -1.9416 0
M  V30 6681 O 632.003 0.935425 -1.70529 0
M  V30 6682 C 632.286 -2.44475 -2.64394 0
M  V30 6683 C 632.139 -3.92226 -2.20179 0
M  V30 6684 C 633.458 -2.43491 -3.66606 0
M  V30 6685 H 630.577 -0.518985 -0.523282 0
M  V30 6686 H 633.219 -1.73524 -0.773914 0
M  V30 6687 H 631.369 -2.18168 -3.21458 0
M  V30 6688 H 633.041 -4.29493 -1.68327 0
M  V30 6689 H 631.284 -4.0637 -1.5181 0
M  V30 6690 H 631.955 -4.59133 -3.06433 0
M  V30 6691 H 634.431 -2.66872 -3.19247 0
M  V30 6692 H 633.307 -3.16816 -4.4824 0
M  V30 6693 H 633.568 -1.45881 -4.17338 0
M  V30 6694 N 632.627 0.916307 -1.28225 0
M  V30 6695 C 633.575 2.03977 -1.11786 0
M  V30 6696 C 634.569 1.69358 -0.0378265 0
M  V30 6697 O 635.775 1.78925 -0.196405 0
M  V30 6698 H 632.15 0.66829 -0.344809 0
M  V30 6699 H 634.121 2.14985 -2.06939 0
M  V30 6700 C 632.87 3.38518 -0.7938 0
M  V30 6701 H 632.193 3.65649 -1.61682 0
M  V30 6702 H 633.633 4.17864 -0.718719 0
M  V30 6703 C 632.092 3.33134 0.502353 0
M  V30 6704 O 632.622 3.71281 1.53341 0
M  V30 6705 N 630.828 2.86229 0.502147 0
M  V30 6706 H 630.375 2.55382 -0.337338 0
M  V30 6707 H 630.333 2.83009 1.36942 0
M  V30 6708 N 634.105 1.10431 1.1244 0
M  V30 6709 C 635.521 0.836096 1.35947 0
M  V30 6710 C 635.721 -0.544475 1.94004 0
M  V30 6711 O 634.777 -1.29735 2.16622 0
M  V30 6712 C 636.09 1.93575 2.30107 0
M  V30 6713 C 637.638 1.9642 2.43697 0
M  V30 6714 C 638.113 3.05559 3.41171 0
M  V30 6715 N 639.604 3.04865 3.48728 0
M  V30 6716 C 640.339 3.85954 4.24061 0
M  V30 6717 N 639.835 4.76977 5.02458 0
M  V30 6718 N 641.628 3.74172 4.19466 0
M  V30 6719 H 633.779 1.9942 0.731124 0
M  V30 6720 H 636.042 0.866607 0.384312 0
M  V30 6721 H 635.748 2.92943 1.94621 0
M  V30 6722 H 635.622 1.8229 3.30227 0
M  V30 6723 H 638.009 0.97685 2.78463 0
M  V30 6724 H 638.09 2.11782 1.43465 0
M  V30 6725 H 637.734 4.04513 3.07135 0
M  V30 6726 H 637.664 2.87438 4.41234 0
M  V30 6727 H 640.155 2.38908 2.92799 0
M  V30 6728 H 640.468 5.35409 5.57277 0
M  V30 6729 H 638.813 4.81006 5.01655 0
M  V30 6730 H 642.004 3.02412 3.57302 0
M  V30 6731 H 642.177 4.37602 4.77921 0
M  V30 6732 N 635.583 -1.29855 0.893053 0
M  V30 6733 C 636.813 -1.99686 0.530019 0
M  V30 6734 C 637.221 -1.67066 -0.888012 0
M  V30 6735 O 636.564 -0.908366 -1.5967 0
M  V30 6736 C 636.626 -3.53855 0.63457 0
M  V30 6737 C 636.29 -4.10013 2.01837 0
M  V30 6738 C 637.287 -4.25406 2.98874 0
M  V30 6739 C 634.972 -4.45202 2.32595 0
M  V30 6740 C 636.966 -4.7521 4.24799 0
M  V30 6741 C 634.653 -4.94704 3.58763 0
M  V30 6742 C 635.651 -5.09662 4.5468 0
M  V30 6743 O 635.339 -5.58093 5.78608 0
M  V30 6744 H 635.071 -0.644913 0.20264 0
M  V30 6745 H 637.625 -1.66518 1.20253 0
M  V30 6746 H 635.855 -3.86583 -0.0949477 0
M  V30 6747 H 637.544 -4.04922 0.281648 0
M  V30 6748 H 638.31 -3.98515 2.76425 0
M  V30 6749 H 634.189 -4.32822 1.58701 0
M  V30 6750 H 637.733 -4.86801 4.99671 0
M  V30 6751 H 633.63 -5.21032 3.81046 0
M  V30 6752 H 634.398 -5.7642 5.81104 0
M  V30 6753 N 637.061 -0.65484 -1.43351 0
M  V30 6754 C 638.289 -0.176685 -2.06144 0
M  V30 6755 C 638.704 1.15831 -1.49093 0
M  V30 6756 O 638.061 1.71542 -0.622868 0
M  V30 6757 C 638.112 -0.0813326 -3.61408 0
M  V30 6758 O 637.833 -1.36355 -4.1634 0
M  V30 6759 C 639.334 0.422706 -4.4128 0
M  V30 6760 H 636.554 -0.0906429 -0.66485 0
M  V30 6761 H 639.098 -0.895945 -1.83829 0
M  V30 6762 H 637.253 0.588496 -3.82904 0
M  V30 6763 H 637.667 -1.22381 -5.10023 0
M  V30 6764 H 639.141 0.438375 -5.50257 0
M  V30 6765 H 639.618 1.45432 -4.14423 0
M  V30 6766 H 640.224 -0.214687 -4.24758 0
M  V30 6767 N 638.539 1.52521 -0.396863 0
M  V30 6768 C 639.486 2.26671 0.434624 0
M  V30 6769 C 640.456 1.28584 1.05144 0
M  V30 6770 O 641.641 1.57426 1.07804 0
M  V30 6771 C 638.781 3.08234 1.55196 0
M  V30 6772 C 637.894 4.21261 0.957262 0
M  V30 6773 C 637.029 4.90205 2.04627 0
M  V30 6774 C 636.068 5.95213 1.42787 0
M  V30 6775 N 635.205 6.57723 2.45651 0
M  V30 6776 H 640.045 2.973 -0.204139 0
M  V30 6777 H 637.582 1.46669 -0.112505 0
M  V30 6778 H 639.54 3.53819 2.2106 0
M  V30 6779 H 638.17 2.398 2.16092 0
M  V30 6780 H 637.222 3.79935 0.188005 0
M  V30 6781 H 638.534 4.96624 0.465416 0
M  V30 6782 H 637.688 5.39133 2.78246 0
M  V30 6783 H 636.427 4.14383 2.57174 0
M  V30 6784 H 635.432 5.45616 0.676968 0
M  V30 6785 H 636.657 6.72972 0.910255 0
M  V30 6786 H 634.603 5.84737 2.97353 0
M  V30 6787 H 634.52 7.28723 2.01243 0
M  V30 6788 H 635.788 7.11293 3.18876 0
M  V30 6789 N 640.017 0.126909 1.57088 0
M  V30 6790 C 641.242 -0.53997 2.00248 0
M  V30 6791 C 641.667 -1.58927 1.00618 0
M  V30 6792 O 641.025 -1.81288 -0.0210131 0
M  V30 6793 C 641.073 -1.13565 3.4225 0
M  V30 6794 O 640.177 -2.25103 3.45547 0
M  V30 6795 H 639.518 -0.13412 0.650314 0
M  V30 6796 H 642.048 0.217718 2.03438 0
M  V30 6797 H 642.058 -1.46925 3.80627 0
M  V30 6798 H 640.733 -0.367122 4.14277 0
M  V30 6799 H 639.31 -1.93123 3.18995 0
M  V30 6800 N 641.495 -1.56914 -0.146875 0
M  V30 6801 C 642.458 -1.97368 -1.16526 0
M  V30 6802 C 643.458 -0.860223 -1.35856 0
M  V30 6803 O 644.648 -1.12684 -1.32846 0
M  V30 6804 C 641.78 -2.28974 -2.52555 0
M  V30 6805 H 642.973 -2.88523 -0.818209 0
M  V30 6806 H 640.526 -1.5135 -0.390221 0
M  V30 6807 H 641.261 -1.40611 -2.92231 0
M  V30 6808 H 641.046 -3.10157 -2.39886 0
M  V30 6809 H 642.536 -2.61109 -3.25902 0
M  V30 6810 N 642.974 0.416227 -1.52004 0
M  V30 6811 C 643.924 1.50558 -1.7122 0
M  V30 6812 C 644.908 1.50613 -0.56609 0
M  V30 6813 O 646.1 1.56709 -0.822874 0
M  V30 6814 C 643.229 2.88556 -1.85984 0
M  V30 6815 C 642.315 2.93177 -3.06445 0
M  V30 6816 N 642.706 2.67505 -4.29272 0
M  V30 6817 C 641.004 3.24343 -3.06133 0
M  V30 6818 C 641.705 2.78511 -5.10692 0
M  V30 6819 N 640.681 3.11087 -4.45787 0
M  V30 6820 H 644.483 1.29494 -2.63834 0
M  V30 6821 H 641.997 0.62384 -1.4994 0
M  V30 6822 H 643.994 3.66954 -1.97865 0
M  V30 6823 H 642.654 3.10624 -0.945654 0
M  V30 6824 H 643.665 2.42033 -4.57865 0
M  V30 6825 H 640.342 3.52051 -2.24425 0
M  V30 6826 H 641.732 2.62438 -6.18527 0
M  V30 6827 N 644.452 1.42507 0.673017 0
M  V30 6828 C 645.384 1.42074 1.79854 0
M  V30 6829 C 646.397 0.319569 1.59633 0
M  V30 6830 O 647.586 0.582769 1.68719 0
M  V30 6831 C 644.686 1.19886 3.16987 0
M  V30 6832 C 643.859 2.42471 3.64042 0
M  V30 6833 C 642.918 2.15802 4.79913 0
M  V30 6834 O 641.944 2.89015 4.90366 0
M  V30 6835 N 643.146 1.16225 5.68746 0
M  V30 6836 H 645.911 2.3909 1.8071 0
M  V30 6837 H 643.472 1.37409 0.856171 0
M  V30 6838 H 645.464 0.999591 3.92161 0
M  V30 6839 H 644.034 0.313879 3.1102 0
M  V30 6840 H 643.254 2.77954 2.79526 0
M  V30 6841 H 644.542 3.24097 3.92223 0
M  V30 6842 H 643.94 0.556756 5.62954 0
M  V30 6843 H 642.497 1.02285 6.43724 0
M  V30 6844 N 645.93 -0.909495 1.28709 0
M  V30 6845 C 646.877 -2.01245 1.13 0
M  V30 6846 C 647.847 -1.6608 0.0259684 0
M  V30 6847 O 649.032 -1.89835 0.191687 0
M  V30 6848 C 646.172 -3.35644 0.802315 0
M  V30 6849 C 645.285 -3.83653 1.98582 0
M  V30 6850 C 644.42 -5.06582 1.59837 0
M  V30 6851 C 643.459 -5.46934 2.74827 0
M  V30 6852 N 642.596 -6.61053 2.36546 0
M  V30 6853 H 647.436 -2.14013 2.0737 0
M  V30 6854 H 644.973 -1.0482 1.03205 0
M  V30 6855 H 646.931 -4.12963 0.593057 0
M  V30 6856 H 645.561 -3.22631 -0.104457 0
M  V30 6857 H 644.613 -3.02454 2.30708 0
M  V30 6858 H 645.925 -4.09515 2.84779 0
M  V30 6859 H 645.079 -5.91457 1.35143 0
M  V30 6860 H 643.818 -4.82537 0.707753 0
M  V30 6861 H 642.823 -4.60599 3.00215 0
M  V30 6862 H 644.048 -5.72965 3.64538 0
M  V30 6863 H 641.994 -6.3863 1.49959 0
M  V30 6864 H 641.911 -6.86662 3.16277 0
M  V30 6865 H 643.179 -7.49221 2.15146 0
M  V30 6866 N 647.408 -1.11026 -1.11852 0
M  V30 6867 C 648.656 -0.854769 -1.83134 0
M  V30 6868 C 648.977 0.621375 -1.84835 0
M  V30 6869 O 648.247 1.45129 -1.31584 0
M  V30 6870 H 646.827 -0.313229 -0.678157 0
M  V30 6871 H 649.489 -1.40178 -1.35411 0
M  V30 6872 H 648.585 -1.22311 -2.87135 0
M  V30 6873 N 648.886 1.2938 -0.899927 0
M  V30 6874 C 649.796 2.31462 -0.382437 0
M  V30 6875 C 650.812 1.65956 0.522929 0
M  V30 6876 O 651.988 1.97131 0.412454 0
M  V30 6877 C 649.053 3.44595 0.381472 0
M  V30 6878 C 648.114 4.25692 -0.555444 0
M  V30 6879 C 647.347 5.33422 0.172102 0
M  V30 6880 O 647.57 5.53053 1.396 0
M  V30 6881 O 646.504 5.99939 -0.485491 0
M  V30 6882 H 650.33 2.77706 -1.22934 0
M  V30 6883 H 647.915 1.33821 -0.664259 0
M  V30 6884 H 649.797 4.13474 0.813442 0
M  V30 6885 H 648.472 3.00458 1.20443 0
M  V30 6886 H 647.379 3.59453 -1.03653 0
M  V30 6887 H 648.712 4.73471 -1.34483 0
M  V30 6888 N 650.364 0.662433 1.43002 0
M  V30 6889 C 651.594 0.187343 2.05749 0
M  V30 6890 C 652.002 -1.15582 1.49791 0
M  V30 6891 O 651.345 -1.72651 0.627487 0
M  V30 6892 C 651.407 0.0316493 3.59486 0
M  V30 6893 C 651.071 1.30156 4.38073 0
M  V30 6894 C 652.068 2.23234 4.69535 0
M  V30 6895 C 649.753 1.54572 4.77926 0
M  V30 6896 C 651.747 3.39012 5.39768 0
M  V30 6897 C 649.434 2.70641 5.47902 0
M  V30 6898 C 650.432 3.62687 5.78746 0
M  V30 6899 O 650.12 4.76728 6.47291 0
M  V30 6900 H 649.852 0.0915214 0.669776 0
M  V30 6901 H 652.406 0.905982 1.8434 0
M  V30 6902 H 650.636 -0.742451 3.79506 0
M  V30 6903 H 652.325 -0.401977 4.03905 0
M  V30 6904 H 653.091 2.05616 4.39257 0
M  V30 6905 H 648.97 0.83804 4.53319 0
M  V30 6906 H 652.514 4.10877 5.63761 0
M  V30 6907 H 648.411 2.88189 5.77596 0
M  V30 6908 H 649.179 4.76113 6.65777 0
M  V30 6909 N 651.842 -1.52309 0.404946 0
M  V30 6910 C 653.07 -2.06185 -0.171818 0
M  V30 6911 C 653.485 -1.27536 -1.39212 0
M  V30 6912 O 652.842 -0.326112 -1.79563 0
M  V30 6913 C 652.893 -3.57647 -0.526417 0
M  V30 6914 O 652.614 -4.3332 0.645417 0
M  V30 6915 C 654.115 -4.27925 -1.15736 0
M  V30 6916 H 651.335 -0.670632 -0.0222328 0
M  V30 6917 H 653.879 -1.96259 0.574692 0
M  V30 6918 H 652.034 -3.67595 -1.22282 0
M  V30 6919 H 652.448 -5.23328 0.35042 0
M  V30 6920 H 653.922 -5.35093 -1.35572 0
M  V30 6921 H 654.399 -3.84134 -2.12926 0
M  V30 6922 H 655.005 -4.22335 -0.501281 0
M  V30 6923 N 653.32 -0.135238 -1.57019 0
M  V30 6924 C 654.283 0.794707 -2.14981 0
M  V30 6925 C 655.283 1.18342 -1.08866 0
M  V30 6926 O 656.473 1.10627 -1.34563 0
M  V30 6927 C 653.605 2.07685 -2.70333 0
M  V30 6928 H 654.798 0.290696 -2.98488 0
M  V30 6929 H 652.351 0.114128 -1.55883 0
M  V30 6930 H 653.086 2.6248 -1.9046 0
M  V30 6931 H 652.871 1.80745 -3.47957 0
M  V30 6932 H 654.361 2.74127 -3.1503 0
M  V30 6933 N 654.798 1.5699 0.138552 0
M  V30 6934 C 656.047 1.82998 0.848205 0
M  V30 6935 C 656.36 0.717829 1.81952 0
M  V30 6936 O 657.566 0.863756 2.57394 0
M  V30 6937 C 656.022 3.24379 1.55904 0
M  V30 6938 C 655.63 4.43552 0.62971 0
M  V30 6939 C 657.374 3.59654 2.25498 0
M  V30 6940 C 655.281 5.75957 1.34266 0
M  V30 6941 H 654.211 0.682495 0.320495 0
M  V30 6942 H 656.862 1.83222 0.100924 0
M  V30 6943 H 655.244 3.18567 2.35226 0
M  V30 6944 H 656.418 4.6062 -0.128882 0
M  V30 6945 H 654.733 4.16379 0.0417526 0
M  V30 6946 H 657.33 4.55837 2.79493 0
M  V30 6947 H 657.673 2.86124 3.02388 0
M  V30 6948 H 658.206 3.67164 1.53087 0
M  V30 6949 H 654.945 6.52604 0.615441 0
M  V30 6950 H 654.465 5.62811 2.07375 0
M  V30 6951 H 656.144 6.19046 1.88126 0
M  V30 6952 N 656.276 -0.40816 1.52223 0
M  V30 6953 C 657.524 -1.15274 1.66001 0
M  V30 6954 C 657.845 -1.91003 0.392803 0
M  V30 6955 O 657.115 -1.8673 -0.592336 0
M  V30 6956 H 655.695 -0.428526 0.611861 0
M  V30 6957 H 658.357 -0.46512 1.89269 0
M  V30 6958 H 657.453 -1.86628 2.50153 0
M  V30 6959 N 657.755 -1.42862 -0.66545 0
M  V30 6960 C 658.702 -1.4707 -1.77874 0
M  V30 6961 C 659.672 -0.321654 -1.62956 0
M  V30 6962 O 660.857 -0.52707 -1.83376 0
M  V30 6963 C 657.997 -1.38788 -3.15962 0
M  V30 6964 C 657.11 -2.63801 -3.42101 0
M  V30 6965 C 656.245 -2.47594 -4.69969 0
M  V30 6966 C 655.284 -3.67936 -4.89172 0
M  V30 6967 N 654.421 -3.50614 -6.08288 0
M  V30 6968 H 659.261 -2.42204 -1.73613 0
M  V30 6969 H 656.798 -1.20239 -0.847401 0
M  V30 6970 H 658.756 -1.31982 -3.95773 0
M  V30 6971 H 657.386 -0.472431 -3.19324 0
M  V30 6972 H 656.438 -2.80935 -2.56475 0
M  V30 6973 H 657.75 -3.53228 -3.52181 0
M  V30 6974 H 656.904 -2.38427 -5.57886 0
M  V30 6975 H 655.643 -1.55672 -4.62188 0
M  V30 6976 H 654.648 -3.77525 -3.99694 0
M  V30 6977 H 655.873 -4.60851 -4.98792 0
M  V30 6978 H 653.819 -2.61417 -6.01662 0
M  V30 6979 H 653.736 -4.33634 -6.19272 0
M  V30 6980 H 655.004 -3.45276 -6.98859 0
M  V30 6981 N 659.233 0.902656 -1.29189 0
M  V30 6982 C 660.163 2.02294 -1.16616 0
M  V30 6983 C 661.144 1.6999 -0.0611175 0
M  V30 6984 O 662.329 1.9271 -0.240072 0
M  V30 6985 C 659.459 3.37018 -0.83882 0
M  V30 6986 C 658.413 3.83522 -1.89986 0
M  V30 6987 C 657.739 5.15337 -1.42589 0
M  V30 6988 C 659.039 4.04169 -3.30824 0
M  V30 6989 H 660.733 2.13071 -2.10336 0
M  V30 6990 H 658.279 1.02378 -1.01266 0
M  V30 6991 H 660.232 4.14895 -0.737584 0
M  V30 6992 H 658.956 3.26325 0.134071 0
M  V30 6993 H 657.615 3.07859 -1.99043 0
M  V30 6994 H 657.263 5.01056 -0.441759 0
M  V30 6995 H 656.963 5.47423 -2.13547 0
M  V30 6996 H 658.487 5.95758 -1.3381 0
M  V30 6997 H 659.901 4.72537 -3.24626 0
M  V30 6998 H 658.298 4.47604 -3.99713 0
M  V30 6999 H 659.368 3.08604 -3.74021 0
M  V30 7000 N 660.711 1.11618 1.11262 0
M  V30 7001 C 661.96 0.860934 1.82403 0
M  V30 7002 C 662.273 -0.615303 1.8567 0
M  V30 7003 O 663.479 -0.986861 2.52929 0
M  V30 7004 C 661.935 1.49048 3.27586 0
M  V30 7005 C 661.543 3.00089 3.32642 0
M  V30 7006 C 663.287 1.31515 4.03614 0
M  V30 7007 C 661.194 3.56019 4.72234 0
M  V30 7008 H 660.124 0.318423 0.683464 0
M  V30 7009 H 662.775 1.34165 1.25188 0
M  V30 7010 H 661.157 0.937434 3.84744 0
M  V30 7011 H 662.331 3.61813 2.85356 0
M  V30 7012 H 660.646 3.16919 2.70096 0
M  V30 7013 H 663.243 1.70732 5.0671 0
M  V30 7014 H 663.586 0.257917 4.155 0
M  V30 7015 H 664.119 1.83694 3.52848 0
M  V30 7016 H 660.858 4.61463 4.65545 0
M  V30 7017 H 660.378 2.99066 5.19923 0
M  V30 7018 H 662.057 3.54568 5.41193 0
M  V30 7019 N 662.189 -1.289 0.906776 0
M  V30 7020 C 663.435 -1.95558 0.53712 0
M  V30 7021 C 663.768 -1.71262 -0.915582 0
M  V30 7022 O 663.043 -1.02961 -1.65013 0
M  V30 7023 C 663.326 -3.50198 0.838645 0
M  V30 7024 C 663.179 -3.83923 2.34357 0
M  V30 7025 C 664.498 -4.38861 0.329988 0
M  V30 7026 H 661.617 -0.710289 0.196617 0
M  V30 7027 H 664.259 -1.52392 1.13475 0
M  V30 7028 H 662.409 -3.87096 0.330024 0
M  V30 7029 H 664.081 -3.56933 2.92227 0
M  V30 7030 H 662.324 -3.31215 2.80141 0
M  V30 7031 H 662.995 -4.91883 2.5051 0
M  V30 7032 H 665.471 -4.08996 0.765609 0
M  V30 7033 H 664.347 -5.45931 0.570105 0
M  V30 7034 H 664.608 -4.35352 -0.769511 0
M  V30 7035 N 663.667 -0.670007 -1.42649 0
M  V30 7036 C 664.897 -0.198252 -2.05647 0
M  V30 7037 C 665.305 1.14786 -1.50402 0
M  V30 7038 O 664.648 1.72316 -0.636634 0
M  V30 7039 C 664.71 -0.0507132 -3.59464 0
M  V30 7040 C 664.374 -1.32478 -4.37377 0
M  V30 7041 C 665.371 -2.2572 -4.68344 0
M  V30 7042 C 663.056 -1.57104 -4.77099 0
M  V30 7043 C 665.05 -3.4187 -5.37963 0
M  V30 7044 C 662.737 -2.73543 -5.46459 0
M  V30 7045 C 663.735 -3.65751 -5.76815 0
M  V30 7046 O 663.423 -4.80154 -6.44753 0
M  V30 7047 H 663.155 -0.0950721 -0.669281 0
M  V30 7048 H 665.709 -0.915745 -1.83857 0
M  V30 7049 H 663.939 0.722314 -3.79894 0
M  V30 7050 H 665.628 0.380552 -4.04112 0
M  V30 7051 H 666.394 -2.07943 -4.38161 0
M  V30 7052 H 662.273 -0.862069 -4.52868 0
M  V30 7053 H 665.817 -4.13861 -5.61574 0
M  V30 7054 H 661.714 -2.91248 -5.7606 0
M  V30 7055 H 662.482 -4.79637 -6.63243 0
M  V30 7056 N 665.145 1.52092 -0.413018 0
M  V30 7057 C 666.385 2.03765 0.160975 0
M  V30 7058 C 666.749 1.29174 1.4205 0
M  V30 7059 O 667.95 1.71093 2.07318 0
M  V30 7060 C 666.221 3.55167 0.398871 0
M  V30 7061 S 667.78 4.28619 0.939755 0
M  V30 7062 H 664.598 0.709685 0.0432281 0
M  V30 7063 H 667.2 1.87102 -0.566831 0
M  V30 7064 H 665.904 4.07034 -0.524544 0
M  V30 7065 H 665.435 3.7608 1.15444 0
M  V30 7066 H 667.45 4.43773 2.21991 0
M  V30 7067 N 666.623 0.143563 1.56945 0
M  V30 7068 C 667.853 -0.514699 2.00086 0
M  V30 7069 C 668.261 -1.59184 1.0226 0
M  V30 7070 O 667.604 -1.83697 0.0110514 0
M  V30 7071 C 667.666 -1.17778 3.39659 0
M  V30 7072 C 667.33 -0.245657 4.56339 0
M  V30 7073 C 668.327 0.525343 5.17239 0
M  V30 7074 C 666.012 -0.149564 5.02077 0
M  V30 7075 C 668.006 1.37992 6.22284 0
M  V30 7076 C 665.693 0.708621 6.06978 0
M  V30 7077 C 666.691 1.47197 6.6695 0
M  V30 7078 O 666.379 2.31586 7.6982 0
M  V30 7079 H 666.111 -0.138789 0.661599 0
M  V30 7080 H 668.665 0.234098 2.04062 0
M  V30 7081 H 666.895 -1.97415 3.32512 0
M  V30 7082 H 668.584 -1.73542 3.6693 0
M  V30 7083 H 669.35 0.461118 4.82803 0
M  V30 7084 H 665.229 -0.733457 4.55128 0
M  V30 7085 H 668.773 1.97621 6.69023 0
M  V30 7086 H 664.67 0.77415 6.40841 0
M  V30 7087 H 665.438 2.24796 7.87025 0
M  V30 7088 N 668.101 -1.57061 -0.130224 0
M  V30 7089 C 669.049 -2.00486 -1.17933 0
M  V30 7090 C 670.043 -0.899933 -1.43519 0
M  V30 7091 O 671.249 -1.08514 -1.43613 0
M  V30 7092 H 667.624 -0.638441 -0.397363 0
M  V30 7093 H 669.595 -2.87848 -0.786501 0
M  V30 7094 C 668.344 -2.41565 -2.50084 0
M  V30 7095 H 667.667 -3.26148 -2.31231 0
M  V30 7096 H 669.107 -2.75757 -3.22078 0
M  V30 7097 C 667.566 -1.27485 -3.11848 0
M  V30 7098 O 668.096 -0.584688 -3.97422 0
M  V30 7099 N 666.302 -1.03478 -2.71552 0
M  V30 7100 H 665.849 -1.59779 -2.02061 0
M  V30 7101 H 665.807 -0.27341 -3.13209 0
M  V30 7102 N 669.579 0.400081 -1.52437 0
M  V30 7103 C 670.995 0.739359 -1.41441 0
M  V30 7104 C 671.195 1.94512 -0.526053 0
M  V30 7105 O 670.251 2.525 0.00472502 0
M  V30 7106 C 671.564 0.984824 -2.84116 0
M  V30 7107 C 673.112 1.08698 -2.93519 0
M  V30 7108 C 673.587 1.36515 -4.37181 0
M  V30 7109 N 675.078 1.43361 -4.40457 0
M  V30 7110 C 675.813 1.66528 -5.48686 0
M  V30 7111 N 675.309 1.87239 -6.67018 0
M  V30 7112 N 677.102 1.68617 -5.36213 0
M  V30 7113 H 669.253 -0.393484 -2.08723 0
M  V30 7114 H 671.516 -0.1138 -0.941145 0
M  V30 7115 H 671.222 0.171096 -3.51284 0
M  V30 7116 H 671.096 1.90253 -3.25705 0
M  V30 7117 H 673.483 1.89129 -2.26526 0
M  V30 7118 H 673.564 0.147432 -2.55375 0
M  V30 7119 H 673.208 0.565982 -5.04737 0
M  V30 7120 H 673.138 2.31737 -4.7287 0
M  V30 7121 H 675.629 1.29108 -3.55161 0
M  V30 7122 H 675.942 2.04392 -7.45281 0
M  V30 7123 H 674.287 1.84486 -6.70067 0
M  V30 7124 H 677.478 1.5198 -4.42741 0
M  V30 7125 H 677.651 1.86332 -6.20632 0
M  V30 7126 N 671.057 1.43213 0.657864 0
M  V30 7127 C 671.987 1.50815 1.78262 0
M  V30 7128 C 672.968 0.363211 1.66177 0
M  V30 7129 O 674.153 0.579806 1.85343 0
M  V30 7130 C 671.283 1.42625 3.16663 0
M  V30 7131 C 670.237 2.5532 3.43505 0
M  V30 7132 C 669.563 2.32184 4.81658 0
M  V30 7133 C 670.863 3.97583 3.38711 0
M  V30 7134 H 672.557 2.44954 1.72157 0
M  V30 7135 H 670.103 1.17896 0.82683 0
M  V30 7136 H 672.056 1.46548 3.95097 0
M  V30 7137 H 670.78 0.449877 3.23487 0
M  V30 7138 H 669.439 2.50742 2.6744 0
M  V30 7139 H 669.087 1.32801 4.85153 0
M  V30 7140 H 668.787 3.07724 5.00579 0
M  V30 7141 H 670.311 2.37883 5.62356 0
M  V30 7142 H 671.725 4.03673 4.07089 0
M  V30 7143 H 670.122 4.73112 3.69168 0
M  V30 7144 H 671.192 4.23049 2.36976 0
M  V30 7145 N 672.536 -0.895792 1.29666 0
M  V30 7146 C 673.764 -1.68001 1.20761 0
M  V30 7147 C 674.179 -1.87379 -0.231187 0
M  V30 7148 O 673.536 -1.41359 -1.15429 0
M  V30 7149 C 673.587 -3.06236 1.92098 0
M  V30 7150 O 673.308 -2.8774 3.30359 0
M  V30 7151 C 674.809 -4.00652 1.89717 0
M  V30 7152 H 672.029 -0.524591 0.418384 0
M  V30 7153 H 674.573 -1.11995 1.71106 0
M  V30 7154 H 672.728 -3.59007 1.45578 0
M  V30 7155 H 673.142 -3.75359 3.66342 0
M  V30 7156 H 674.616 -4.95051 2.44189 0
M  V30 7157 H 675.093 -4.30424 0.873595 0
M  V30 7158 H 675.699 -3.53815 2.35998 0
M  V30 7159 N 674.014 -1.12206 -1.10668 0
M  V30 7160 C 675.239 -0.898938 -1.86906 0
M  V30 7161 C 675.664 0.546346 -1.79991 0
M  V30 7162 O 675.022 1.38655 -1.1681 0
M  V30 7163 C 675.07 -1.37529 -3.33344 0
M  V30 7164 O 674.174 -0.55218 -4.08687 0
M  V30 7165 H 673.515 -0.323163 -0.580053 0
M  V30 7166 H 676.045 -1.49355 -1.39837 0
M  V30 7167 H 676.055 -1.3733 -3.84193 0
M  V30 7168 H 674.73 -2.42767 -3.37693 0
M  V30 7169 H 673.307 -0.620947 -3.67694 0
M  V30 7170 N 675.492 1.28418 -0.913599 0
M  V30 7171 C 676.903 1.77024 -0.593237 0
M  V30 7172 C 677.254 1.74779 0.891441 0
M  V30 7173 O 676.379 1.34237 1.69733 0
M  V30 7174 C 676.974 3.21456 -1.07011 0
M  V30 7175 C 675.533 3.67786 -0.800664 0
M  V30 7176 C 674.68 2.48185 -1.23691 0
M  V30 7177 H 677.631 1.14883 -1.09487 0
M  V30 7178 H 677.652 3.78269 -0.411481 0
M  V30 7179 H 677.164 3.23058 -2.1507 0
M  V30 7180 H 675.265 3.71644 0.266725 0
M  V30 7181 H 675.378 4.57934 -1.4083 0
M  V30 7182 H 673.742 2.46116 -0.655655 0
M  V30 7183 H 674.525 2.52506 -2.32585 0
M  V30 7184 N 676.97 0.677563 1.42291 0
M  V30 7185 C 678.195 0.207901 2.06355 0
M  V30 7186 C 678.62 -1.12723 1.50583 0
M  V30 7187 O 677.978 -1.70171 0.62543 0
M  V30 7188 C 678.026 0.156489 3.6026 0
M  V30 7189 O 677.13 -0.874162 4.03029 0
M  V30 7190 H 676.471 0.106056 0.655475 0
M  V30 7191 H 679.001 0.927354 1.82377 0
M  V30 7192 H 679.011 -0.0187258 4.07996 0
M  V30 7193 H 677.686 1.13101 4.00226 0
M  V30 7194 H 676.263 -0.669764 3.66836 0
M  V30 7195 N 678.448 -1.51871 0.421078 0
M  V30 7196 C 679.396 -2.28903 -0.413066 0
M  V30 7197 C 680.39 -1.3408 -1.03532 0
M  V30 7198 O 681.596 -1.5149 -0.972146 0
M  V30 7199 H 677.971 -0.736478 -0.152003 0
M  V30 7200 H 679.942 -2.97285 0.257695 0
M  V30 7201 C 678.691 -3.13156 -1.51091 0
M  V30 7202 H 678.014 -3.85997 -1.04145 0
M  V30 7203 H 679.454 -3.7014 -2.06814 0
M  V30 7204 C 677.913 -2.27482 -2.48503 0
M  V30 7205 O 678.443 -1.92325 -3.52667 0
M  V30 7206 N 676.649 -1.91019 -2.18998 0
M  V30 7207 H 676.196 -2.19808 -1.34322 0
M  V30 7208 H 676.154 -1.3399 -2.84419 0
M  V30 7209 N 679.926 -0.151884 -1.56866 0
M  V30 7210 C 681.172 0.498742 -1.96572 0
M  V30 7211 C 681.505 1.64194 -1.03702 0
M  V30 7212 O 680.78 1.94334 -0.0803432 0
M  V30 7213 C 681.063 1.00027 -3.45929 0
M  V30 7214 C 680.916 -0.141767 -4.49577 0
M  V30 7215 C 682.235 1.88044 -3.97904 0
M  V30 7216 H 679.354 0.17982 -0.714726 0
M  V30 7217 H 681.996 -0.234097 -1.88552 0
M  V30 7218 H 680.146 1.62476 -3.52894 0
M  V30 7219 H 681.818 -0.778269 -4.54687 0
M  V30 7220 H 680.061 -0.80019 -4.26356 0
M  V30 7221 H 680.732 0.250947 -5.51429 0
M  V30 7222 H 683.208 1.35416 -3.93449 0
M  V30 7223 H 682.084 2.20043 -5.02864 0
M  V30 7224 H 682.345 2.81916 -3.40552 0
M  V30 7225 N 681.404 1.57128 0.121893 0
M  V30 7226 C 682.367 1.99197 1.13372 0
M  V30 7227 C 683.367 0.881728 1.3447 0
M  V30 7228 O 684.557 1.14783 1.31036 0
M  V30 7229 C 681.689 2.32963 2.4888 0
M  V30 7230 H 682.882 2.89788 0.772204 0
M  V30 7231 H 680.435 1.51952 0.366093 0
M  V30 7232 H 681.17 1.45243 2.89957 0
M  V30 7233 H 680.955 3.13934 2.34921 0
M  V30 7234 H 682.445 2.66261 3.21706 0
M  V30 7235 N 682.882 -0.391992 1.52647 0
M  V30 7236 C 684.107 -1.16312 1.71716 0
M  V30 7237 C 684.532 -1.83042 0.433279 0
M  V30 7238 O 683.89 -1.70705 -0.610707 0
M  V30 7239 C 683.938 -2.18908 2.86551 0
M  V30 7240 O 683.042 -3.2543 2.53316 0
M  V30 7241 H 682.383 -0.338743 0.571095 0
M  V30 7242 H 684.913 -0.457202 1.99426 0
M  V30 7243 H 684.923 -2.62954 3.1196 0
M  V30 7244 H 683.598 -1.69726 3.79692 0
M  V30 7245 H 682.175 -2.86543 2.38637 0
M  V30 7246 N 684.36 -1.4356 -0.65026 0
M  V30 7247 C 685.31 -1.45392 -1.75628 0
M  V30 7248 C 686.294 -0.322006 -1.57645 0
M  V30 7249 O 687.486 -0.565996 -1.67707 0
M  V30 7250 C 684.615 -1.38254 -3.1423 0
M  V30 7251 C 683.701 -2.56487 -3.3775 0
M  V30 7252 N 684.092 -3.81824 -3.31729 0
M  V30 7253 C 682.39 -2.51274 -3.6848 0
M  V30 7254 C 683.091 -4.60497 -3.55412 0
M  V30 7255 N 682.067 -3.91274 -3.77367 0
M  V30 7256 H 685.869 -2.40167 -1.69402 0
M  V30 7257 H 683.383 -1.38254 -0.852037 0
M  V30 7258 H 685.38 -1.3765 -3.9352 0
M  V30 7259 H 684.04 -0.445019 -3.21636 0
M  V30 7260 H 685.051 -4.14069 -3.11074 0
M  V30 7261 H 681.728 -1.66223 -3.82983 0
M  V30 7262 H 683.118 -5.69518 -3.5651 0
M  V30 7263 N 685.838 0.888903 -1.30139 0
M  V30 7264 C 687.084 1.6428 -1.18912 0
M  V30 7265 C 687.417 1.92499 0.256477 0
M  V30 7266 O 686.692 1.54312 1.18397 0
M  V30 7267 C 686.975 2.9851 -2.01405 0
M  V30 7268 C 686.828 2.77288 -3.54163 0
M  V30 7269 C 688.147 3.99383 -1.84882 0
M  V30 7270 H 685.266 0.596148 -0.433333 0
M  V30 7271 H 687.908 1.0289 -1.5973 0
M  V30 7272 H 686.058 3.50907 -1.66722 0
M  V30 7273 H 687.73 2.31709 -3.98884 0
M  V30 7274 H 685.973 2.11867 -3.78543 0
M  V30 7275 H 686.644 3.72717 -4.07168 0
M  V30 7276 H 689.12 3.56132 -2.15196 0
M  V30 7277 H 687.996 4.91222 -2.44934 0
M  V30 7278 H 688.257 4.34674 -0.806902 0
M  V30 7279 N 687.317 1.12792 1.10072 0
M  V30 7280 C 688.733 0.864745 1.34143 0
M  V30 7281 C 688.933 -0.503201 1.95116 0
M  V30 7282 O 687.989 -1.25111 2.19325 0
M  V30 7283 C 689.302 1.98413 2.25949 0
M  V30 7284 C 690.85 2.01545 2.39476 0
M  V30 7285 C 691.325 3.12727 3.34613 0
M  V30 7286 N 692.816 3.12194 3.42183 0
M  V30 7287 C 693.551 3.94862 4.15779 0
M  V30 7288 N 693.047 4.87528 4.92228 0
M  V30 7289 N 694.84 3.82985 4.11435 0
M  V30 7290 H 686.991 2.00926 0.68866 0
M  V30 7291 H 689.254 0.874564 0.365844 0
M  V30 7292 H 688.96 2.97005 1.88364 0
M  V30 7293 H 688.834 1.89254 3.26287 0
M  V30 7294 H 691.221 1.0357 2.76328 0
M  V30 7295 H 691.302 2.14777 1.3894 0
M  V30 7296 H 690.946 4.10936 2.98486 0
M  V30 7297 H 690.876 2.96732 4.35037 0
M  V30 7298 H 693.367 2.45065 2.87666 0
M  V30 7299 H 693.68 5.47109 5.45794 0
M  V30 7300 H 692.025 4.91539 4.9134 0
M  V30 7301 H 695.216 3.09923 3.50807 0
M  V30 7302 H 695.389 4.47641 4.68531 0
M  V30 7303 N 688.795 -1.27931 0.920396 0
M  V30 7304 C 690.041 -1.94977 0.557832 0
M  V30 7305 C 690.374 -1.72224 -0.897365 0
M  V30 7306 O 689.649 -1.04705 -1.63912 0
M  V30 7307 C 689.932 -3.49289 0.875741 0
M  V30 7308 C 689.785 -3.81416 2.38416 0
M  V30 7309 C 691.104 -4.38486 0.376517 0
M  V30 7310 H 688.223 -0.708164 0.20414 0
M  V30 7311 H 690.865 -1.5118 1.15085 0
M  V30 7312 H 689.015 -3.86724 0.371062 0
M  V30 7313 H 690.687 -3.53813 2.95997 0
M  V30 7314 H 688.93 -3.28225 2.83639 0
M  V30 7315 H 689.601 -4.89198 2.55713 0
M  V30 7316 H 692.077 -4.08161 0.808945 0
M  V30 7317 H 690.953 -5.45296 0.627976 0
M  V30 7318 H 691.214 -4.36143 -0.723293 0
M  V30 7319 N 690.273 -0.685099 -1.4193 0
M  V30 7320 C 691.221 -0.00165985 -2.326 0
M  V30 7321 C 692.215 0.779678 -1.50391 0
M  V30 7322 O 693.421 0.68648 -1.66395 0
M  V30 7323 H 689.796 0.0182616 -0.751778 0
M  V30 7324 H 691.767 -0.783592 -2.87928 0
M  V30 7325 C 690.516 0.928385 -3.35077 0
M  V30 7326 H 689.839 0.336578 -3.98381 0
M  V30 7327 H 691.279 1.37509 -4.01083 0
M  V30 7328 C 689.738 2.03964 -2.68142 0
M  V30 7329 O 690.268 3.12727 -2.5212 0
M  V30 7330 N 688.474 1.81433 -2.27003 0
M  V30 7331 H 688.021 0.929807 -2.40234 0
M  V30 7332 H 687.979 2.55973 -1.82552 0
M  V30 7333 N 691.751 1.51645 -0.429126 0
M  V30 7334 C 692.997 2.02314 0.140286 0
M  V30 7335 C 693.33 1.31314 1.43074 0
M  V30 7336 O 692.605 0.425531 1.89788 0
M  V30 7337 C 692.888 3.5822 0.36749 0
M  V30 7338 C 692.741 4.39846 -0.941039 0
M  V30 7339 C 694.06 4.25055 1.14089 0
M  V30 7340 H 691.179 0.735335 0.0495112 0
M  V30 7341 H 693.821 1.81358 -0.566514 0
M  V30 7342 H 691.971 3.76207 0.969556 0
M  V30 7343 H 693.643 4.33527 -1.57646 0
M  V30 7344 H 691.886 4.05259 -1.54751 0
M  V30 7345 H 692.557 5.47069 -0.73621 0
M  V30 7346 H 695.033 4.11288 0.630986 0
M  V30 7347 H 693.909 5.34038 1.26863 0
M  V30 7348 H 694.17 3.85358 2.16683 0
M  V30 7349 N 693.229 0.160201 1.56784 0
M  V30 7350 C 694.459 -0.493449 2.00621 0
M  V30 7351 C 694.867 -1.5809 1.03943 0
M  V30 7352 O 694.21 -1.83675 0.0305343 0
M  V30 7353 C 694.272 -1.14169 3.4089 0
M  V30 7354 C 693.936 -0.197243 4.56574 0
M  V30 7355 C 694.933 0.580174 5.16653 0
M  V30 7356 C 692.618 -0.0963038 5.02208 0
M  V30 7357 C 694.612 1.44584 6.20785 0
M  V30 7358 C 692.299 0.772959 6.06192 0
M  V30 7359 C 693.297 1.54263 6.65351 0
M  V30 7360 O 692.985 2.39738 7.67321 0
M  V30 7361 H 692.717 -0.131764 0.663034 0
M  V30 7362 H 695.271 0.255728 2.03802 0
M  V30 7363 H 693.501 -1.93877 3.34587 0
M  V30 7364 H 695.19 -1.69641 3.6875 0
M  V30 7365 H 695.956 0.5123 4.82287 0
M  V30 7366 H 691.835 -0.685143 4.5588 0
M  V30 7367 H 695.379 2.04706 6.66889 0
M  V30 7368 H 691.276 0.842077 6.39984 0
M  V30 7369 H 692.044 2.33131 7.84597 0
M  V30 7370 N 694.707 -1.5719 -0.113559 0
M  V30 7371 C 695.637 -2.03772 -1.14013 0
M  V30 7372 C 696.618 -0.923176 -1.42869 0
M  V30 7373 O 697.803 -1.19325 -1.53216 0
M  V30 7374 C 694.933 -2.44663 -2.4649 0
M  V30 7375 C 693.887 -3.59612 -2.32085 0
M  V30 7376 C 693.213 -3.8642 -3.69573 0
M  V30 7377 C 694.513 -4.91149 -1.7768 0
M  V30 7378 H 696.207 -2.89785 -0.752665 0
M  V30 7379 H 693.753 -1.39412 -0.360609 0
M  V30 7380 H 695.706 -2.75857 -3.18561 0
M  V30 7381 H 694.43 -1.55628 -2.87137 0
M  V30 7382 H 693.089 -3.28636 -1.62461 0
M  V30 7383 H 692.737 -2.94581 -4.07715 0
M  V30 7384 H 692.437 -4.63797 -3.60786 0
M  V30 7385 H 693.961 -4.2007 -4.4314 0
M  V30 7386 H 695.375 -5.20843 -2.39574 0
M  V30 7387 H 693.772 -5.72562 -1.79701 0
M  V30 7388 H 694.842 -4.79301 -0.734776 0
M  V30 7389 N 696.185 0.383891 -1.52853 0
M  V30 7390 C 697.41 1.154 -1.7233 0
M  V30 7391 C 697.835 1.82809 -0.44298 0
M  V30 7392 O 697.193 1.71026 0.601645 0
M  V30 7393 C 697.241 2.17386 -2.87708 0
M  V30 7394 O 696.345 3.24082 -2.55038 0
M  V30 7395 H 695.686 0.335709 -0.572883 0
M  V30 7396 H 698.216 0.44662 -1.99666 0
M  V30 7397 H 698.226 2.61296 -3.1335 0
M  V30 7398 H 696.901 1.6771 -3.80587 0
M  V30 7399 H 695.478 2.85273 -2.40153 0
M  V30 7400 N 697.663 1.43903 0.642637 0
M  V30 7401 C 698.626 1.49538 1.73698 0
M  V30 7402 C 699.626 0.378776 1.56275 0
M  V30 7403 O 700.816 0.64095 1.6198 0
M  V30 7404 C 697.948 1.35821 3.12675 0
M  V30 7405 H 699.141 2.47008 1.70079 0
M  V30 7406 H 696.694 1.30824 0.85526 0
M  V30 7407 H 697.429 0.393994 3.21898 0
M  V30 7408 H 697.214 2.16776 3.26727 0
M  V30 7409 H 698.704 1.4272 3.92455 0
M  V30 7410 N 699.141 -0.881989 1.30609 0
M  V30 7411 C 700.39 -1.62878 1.18969 0
M  V30 7412 C 700.703 -1.93946 -0.253859 0
M  V30 7413 O 701.909 -2.67008 -0.491813 0
M  V30 7414 C 700.365 -2.93573 2.0819 0
M  V30 7415 C 699.973 -2.70034 3.57471 0
M  V30 7416 C 701.717 -3.71543 2.0532 0
M  V30 7417 C 699.624 -3.96563 4.38739 0
M  V30 7418 H 698.554 -0.611092 0.441682 0
M  V30 7419 H 701.205 -0.976201 1.55379 0
M  V30 7420 H 699.587 -3.6014 1.64666 0
M  V30 7421 H 700.761 -2.11949 4.09163 0
M  V30 7422 H 699.076 -2.05435 3.62195 0
M  V30 7423 H 701.673 -4.65386 2.63288 0
M  V30 7424 H 702.016 -4.03167 1.03739 0
M  V30 7425 H 702.549 -3.11842 2.46981 0
M  V30 7426 H 699.288 -3.70095 5.41027 0
M  V30 7427 H 698.808 -4.54142 3.9181 0
M  V30 7428 H 700.487 -4.64557 4.50329 0
M  V30 7429 N 700.619 -1.13374 -1.09472 0
M  V30 7430 C 701.567 -0.806105 -2.18185 0
M  V30 7431 C 702.561 0.21136 -1.68076 0
M  V30 7432 O 703.767 0.0685558 -1.79869 0
M  V30 7433 H 700.142 -0.242901 -0.71169 0
M  V30 7434 H 702.113 -1.73115 -2.43051 0
M  V30 7435 C 700.862 -0.287928 -3.46506 0
M  V30 7436 H 700.185 -1.06217 -3.85432 0
M  V30 7437 H 701.625 -0.0971054 -4.23889 0
M  V30 7438 C 700.084 0.986256 -3.22141 0
M  V30 7439 O 700.614 2.06217 -3.44728 0
M  V30 7440 N 698.82 0.917153 -2.75747 0
M  V30 7441 H 698.367 0.0414609 -2.57567 0
M  V30 7442 H 698.325 1.77029 -2.59823 0
M  V30 7443 N 702.098 1.27442 -0.927168 0
M  V30 7444 C 703.028 2.29256 -0.443188 0
M  V30 7445 C 704.009 1.62701 0.49624 0
M  V30 7446 O 705.194 1.90013 0.401105 0
M  V30 7447 C 702.324 3.45955 0.305366 0
M  V30 7448 C 701.278 4.24501 -0.546178 0
M  V30 7449 C 700.604 5.33671 0.331512 0
M  V30 7450 C 701.904 4.89921 -1.81037 0
M  V30 7451 H 703.598 2.69988 -1.29409 0
M  V30 7452 H 701.144 1.29792 -0.623705 0
M  V30 7453 H 703.097 4.1628 0.654885 0
M  V30 7454 H 701.821 3.04138 1.19029 0
M  V30 7455 H 700.48 3.55921 -0.878398 0
M  V30 7456 H 700.128 4.88096 1.21537 0
M  V30 7457 H 699.828 5.87131 -0.234746 0
M  V30 7458 H 701.352 6.0684 0.676614 0
M  V30 7459 H 702.766 5.52536 -1.52895 0
M  V30 7460 H 701.163 5.53436 -2.32009 0
M  V30 7461 H 702.233 4.13652 -2.53021 0
M  V30 7462 N 703.576 0.692616 1.41565 0
M  V30 7463 C 704.486 0.0258451 2.34586 0
M  V30 7464 C 705.502 -0.769324 1.56069 0
M  V30 7465 O 706.678 -0.707563 1.88562 0
M  V30 7466 C 703.743 -0.901289 3.3478 0
M  V30 7467 C 702.804 -0.0986579 4.29187 0
M  V30 7468 C 702.037 -0.981634 5.24595 0
M  V30 7469 O 702.26 -2.22115 5.25377 0
M  V30 7470 O 701.194 -0.432892 6.00341 0
M  V30 7471 H 705.02 0.792537 2.93177 0
M  V30 7472 H 702.605 0.452935 1.42369 0
M  V30 7473 H 704.487 -1.43302 3.96286 0
M  V30 7474 H 703.162 -1.64752 2.78637 0
M  V30 7475 H 702.069 0.477604 3.71039 0
M  V30 7476 H 703.402 0.608848 4.8842 0
M  V30 7477 N 705.054 -1.51416 0.437162 0
M  V30 7478 C 706.294 -2.03995 -0.128538 0
M  V30 7479 C 706.658 -1.31417 -1.39977 0
M  V30 7480 O 707.859 -1.74369 -2.0457 0
M  V30 7481 C 706.13 -3.55757 -0.342317 0
M  V30 7482 S 707.689 -4.3006 -0.871446 0
M  V30 7483 H 704.507 -0.710283 -0.0319322 0
M  V30 7484 H 707.109 -1.86177 0.596526 0
M  V30 7485 H 705.813 -4.06148 0.589233 0
M  V30 7486 H 705.344 -3.77869 -1.09447 0
M  V30 7487 H 707.359 -4.47248 -2.14903 0
M  V30 7488 N 706.532 -0.168513 -1.56696 0
M  V30 7489 C 707.779 0.477158 -1.96798 0
M  V30 7490 C 708.107 1.63442 -1.05437 0
M  V30 7491 O 707.362 1.95503 -0.0878903 0
M  V30 7492 C 707.661 1.00441 -3.42996 0
M  V30 7493 C 707.327 -0.0366556 -4.50885 0
M  V30 7494 C 705.989 -0.322785 -4.80116 0
M  V30 7495 C 708.341 -0.743447 -5.1587 0
M  V30 7496 C 705.669 -1.32114 -5.71632 0
M  V30 7497 C 708.021 -1.73077 -6.08463 0
M  V30 7498 C 706.685 -2.02437 -6.36062 0
M  V30 7499 H 705.955 0.174604 -0.720135 0
M  V30 7500 H 708.602 -0.259884 -1.89728 0
M  V30 7501 H 706.907 1.81922 -3.47004 0
M  V30 7502 H 708.604 1.51294 -3.71364 0
M  V30 7503 H 705.194 0.196532 -4.28149 0
M  V30 7504 H 709.378 -0.535602 -4.93401 0
M  V30 7505 H 704.634 -1.55482 -5.913 0
M  V30 7506 H 708.808 -2.28382 -6.57886 0
M  V30 7507 H 706.435 -2.79946 -7.06777 0
M  V30 7508 N 708.01 1.57248 0.105221 0
M  V30 7509 C 708.973 2.00388 1.11252 0
M  V30 7510 C 709.973 0.89594 1.33527 0
M  V30 7511 O 711.163 1.16166 1.29811 0
M  V30 7512 C 708.295 2.35589 2.46395 0
M  V30 7513 H 709.488 2.90591 0.741424 0
M  V30 7514 H 707.041 1.52332 0.349956 0
M  V30 7515 H 707.776 1.4831 2.884 0
M  V30 7516 H 707.561 3.16408 2.31578 0
M  V30 7517 H 709.051 2.69658 3.18864 0
M  V30 7518 N 709.488 -0.375779 1.53054 0
M  V30 7519 C 710.899 -0.95309 1.6054 0
M  V30 7520 C 711.25 -1.90575 0.466446 0
M  V30 7521 O 710.375 -2.12507 -0.408609 0
M  V30 7522 C 710.97 -1.73537 2.90982 0
M  V30 7523 C 709.529 -2.26218 3.00836 0
M  V30 7524 C 708.676 -1.07157 2.55759 0
M  V30 7525 H 711.627 -0.154895 1.57942 0
M  V30 7526 H 711.648 -2.59574 2.78211 0
M  V30 7527 H 711.16 -1.04176 3.73857 0
M  V30 7528 H 709.261 -2.98852 2.22527 0
M  V30 7529 H 709.374 -2.54799 4.05727 0
M  V30 7530 H 707.738 -1.43553 2.10391 0
M  V30 7531 H 708.521 -0.393099 3.41042 0
M  V30 7532 N 710.966 -1.44241 -0.634997 0
M  V30 7533 C 711.896 -1.53632 -1.7584 0
M  V30 7534 C 712.877 -0.389603 -1.65578 0
M  V30 7535 O 714.062 -0.609219 -1.84397 0
M  V30 7536 C 711.192 -1.47644 -3.14354 0
M  V30 7537 C 710.146 -2.60752 -3.394 0
M  V30 7538 C 709.472 -2.39817 -4.77904 0
M  V30 7539 C 710.772 -4.02921 -3.32343 0
M  V30 7540 H 712.466 -2.47662 -1.68238 0
M  V30 7541 H 710.012 -1.19197 -0.807969 0
M  V30 7542 H 711.965 -1.52815 -3.92716 0
M  V30 7543 H 710.689 -0.501284 -3.2273 0
M  V30 7544 H 709.348 -2.54965 -2.63417 0
M  V30 7545 H 708.996 -1.40502 -4.82978 0
M  V30 7546 H 708.696 -3.15649 -4.9562 0
M  V30 7547 H 710.22 -2.46799 -5.585 0
M  V30 7548 H 711.634 -4.10098 -4.00615 0
M  V30 7549 H 710.031 -4.78925 -3.61595 0
M  V30 7550 H 711.101 -4.26766 -2.30215 0
M  V30 7551 N 712.444 0.87505 -1.31075 0
M  V30 7552 C 713.674 1.65818 -1.2324 0
M  V30 7553 C 714.082 1.8808 0.205536 0
M  V30 7554 O 713.425 1.43548 1.14628 0
M  V30 7555 C 713.487 3.05131 -1.90093 0
M  V30 7556 C 713.151 3.05999 -3.39432 0
M  V30 7557 C 714.148 2.84328 -4.35263 0
M  V30 7558 C 711.833 3.27281 -3.81041 0
M  V30 7559 C 713.827 2.83912 -5.70678 0
M  V30 7560 C 711.514 3.26493 -5.16571 0
M  V30 7561 C 712.512 3.04834 -6.112 0
M  V30 7562 O 712.2 3.03882 -7.44252 0
M  V30 7563 H 711.932 0.52387 -0.427242 0
M  V30 7564 H 714.486 1.10086 -1.73408 0
M  V30 7565 H 712.716 3.62568 -1.34468 0
M  V30 7566 H 714.405 3.65641 -1.76242 0
M  V30 7567 H 715.171 2.67673 -4.04445 0
M  V30 7568 H 711.05 3.43171 -3.07822 0
M  V30 7569 H 714.594 2.66925 -6.44513 0
M  V30 7570 H 710.491 3.42687 -5.47025 0
M  V30 7571 H 711.259 3.19979 -7.53363 0
M  V30 7572 N 713.922 1.13953 1.08869 0
M  V30 7573 C 714.872 0.790812 2.13846 0
M  V30 7574 C 715.856 -0.217819 1.59419 0
M  V30 7575 O 717.048 -0.0208723 1.76988 0
M  V30 7576 C 714.177 0.26479 3.42277 0
M  V30 7577 C 713.263 1.30267 4.03598 0
M  V30 7578 N 713.654 2.50535 4.39393 0
M  V30 7579 C 711.952 1.15178 4.30871 0
M  V30 7580 C 712.653 3.16938 4.87776 0
M  V30 7581 N 711.629 2.44349 4.85587 0
M  V30 7582 H 715.431 1.70577 2.39334 0
M  V30 7583 H 712.945 1.02268 1.26154 0
M  V30 7584 H 714.942 -0.00330398 4.169 0
M  V30 7585 H 713.602 -0.644419 3.18241 0
M  V30 7586 H 714.613 2.87798 4.30572 0
M  V30 7587 H 711.29 0.301204 4.16412 0
M  V30 7588 H 712.68 4.19453 5.2489 0
M  V30 7589 N 715.4 -1.26948 0.933913 0
M  V30 7590 C 716.363 -2.24889 0.442457 0
M  V30 7591 C 717.363 -1.54594 -0.442426 0
M  V30 7592 O 718.553 -1.72502 -0.242629 0
M  V30 7593 C 715.685 -3.3896 -0.363173 0
M  V30 7594 H 716.878 -2.69879 1.30787 0
M  V30 7595 H 714.431 -1.38978 0.715187 0
M  V30 7596 H 715.166 -2.99361 -1.24714 0
M  V30 7597 H 714.951 -3.9116 0.271366 0
M  V30 7598 H 716.441 -4.11739 -0.697186 0
M  V30 7599 N 716.879 -0.700114 -1.41195 0
M  V30 7600 C 717.812 0.0129614 -2.28196 0
M  V30 7601 C 718.79 0.783367 -1.42486 0
M  V30 7602 O 719.974 0.773238 -1.71911 0
M  V30 7603 C 717.101 1.02575 -3.22794 0
M  V30 7604 C 716.147 0.347977 -4.25078 0
M  V30 7605 S 716.98 -0.912938 -5.27661 0
M  V30 7606 C 718.136 0.0981362 -6.25823 0
M  V30 7607 H 718.369 -0.724927 -2.88326 0
M  V30 7608 H 715.902 -0.490554 -1.464 0
M  V30 7609 H 717.86 1.60491 -3.77826 0
M  V30 7610 H 716.521 1.73624 -2.61751 0
M  V30 7611 H 715.714 1.11305 -4.91556 0
M  V30 7612 H 715.316 -0.15823 -3.73665 0
M  V30 7613 H 717.608 0.949965 -6.70807 0
M  V30 7614 H 718.551 -0.532838 -7.06092 0
M  V30 7615 H 718.959 0.454944 -5.62664 0
M  V30 7616 N 718.357 1.51182 -0.445186 0
M  V30 7617 C 719.634 1.9478 0.178965 0
M  V30 7618 C 720.014 1.38428 1.59376 0
M  V30 7619 O 719.362 0.574552 2.21159 0
M  V30 7620 C 719.572 3.48683 0.148711 0
M  V30 7621 C 720.92 4.23152 0.35042 0
M  V30 7622 O 721.944 3.55479 0.226474 0
M  V30 7623 O 720.803 5.4322 0.597893 0
M  V30 7624 H 717.897 0.817387 0.12573 0
M  V30 7625 H 720.443 1.62051 -0.503729 0
M  V30 7626 H 719.215 3.82176 -0.84009 0
M  V30 7627 H 718.838 3.87875 0.873979 0
M  V30 7628 N 719.835 0.176821 1.56605 0
M  V30 7629 C 721.081 -0.467406 1.9734 0
M  V30 7630 C 721.414 -1.62523 1.06301 0
M  V30 7631 O 720.689 -1.94182 0.11125 0
M  V30 7632 C 720.972 -0.945106 3.47476 0
M  V30 7633 C 720.825 0.213273 4.49294 0
M  V30 7634 C 722.144 -1.8169 4.00845 0
M  V30 7635 H 719.263 -0.168426 0.717497 0
M  V30 7636 H 721.905 0.264065 1.88156 0
M  V30 7637 H 720.055 -1.56841 3.55434 0
M  V30 7638 H 721.727 0.850508 4.53392 0
M  V30 7639 H 719.97 0.867918 4.25029 0
M  V30 7640 H 720.641 -0.163187 5.51759 0
M  V30 7641 H 723.117 -1.29139 3.95553 0
M  V30 7642 H 721.993 -2.12015 5.06301 0
M  V30 7643 H 722.254 -2.76463 3.44994 0
M  V30 7644 N 721.313 -1.57302 -0.09688 0
M  V30 7645 C 722.541 -1.90202 -0.814295 0
M  V30 7646 C 722.956 -0.770344 -1.72369 0
M  V30 7647 O 722.313 0.257764 -1.8067 0
M  V30 7648 C 722.364 -3.22708 -1.62916 0
M  V30 7649 O 722.085 -4.31522 -0.756343 0
M  V30 7650 C 723.586 -3.69459 -2.44979 0
M  V30 7651 H 720.806 -0.629275 -0.232925 0
M  V30 7652 H 723.35 -2.04364 -0.0746482 0
M  V30 7653 H 721.505 -3.1015 -2.32133 0
M  V30 7654 H 721.919 -5.07604 -1.32054 0
M  V30 7655 H 723.393 -4.64875 -2.9765 0
M  V30 7656 H 723.87 -2.97211 -3.23361 0
M  V30 7657 H 724.476 -3.84879 -1.80964 0
M  V30 7658 N 722.791 0.367657 -1.53252 0
M  V30 7659 C 724.019 1.13119 -1.73239 0
M  V30 7660 C 724.434 1.831 -0.460404 0
M  V30 7661 O 723.791 1.73483 0.566557 0
M  V30 7662 C 723.842 2.16308 -2.89643 0
M  V30 7663 O 723.563 1.49175 -4.1192 0
M  V30 7664 C 725.064 3.05224 -3.21486 0
M  V30 7665 H 722.284 0.338318 -0.579467 0
M  V30 7666 H 724.828 0.42721 -1.99988 0
M  V30 7667 H 722.983 2.82307 -2.65295 0
M  V30 7668 H 723.397 2.17912 -4.7709 0
M  V30 7669 H 724.871 3.73613 -4.06346 0
M  V30 7670 H 725.348 3.69919 -2.36763 0
M  V30 7671 H 725.954 2.44843 -3.47753 0
M  V30 7672 N 724.269 1.44576 0.627338 0
M  V30 7673 C 725.201 1.47724 1.75243 0
M  V30 7674 C 726.214 0.370193 1.58535 0
M  V30 7675 O 727.403 0.636151 1.66779 0
M  V30 7676 C 724.503 1.2991 3.13012 0
M  V30 7677 C 723.676 2.5393 3.56143 0
M  V30 7678 C 722.735 2.30961 4.72804 0
M  V30 7679 O 721.761 3.04469 4.80923 0
M  V30 7680 N 722.963 1.34261 5.6476 0
M  V30 7681 H 725.728 2.44718 1.73012 0
M  V30 7682 H 723.289 1.40064 0.812022 0
M  V30 7683 H 725.281 1.12385 3.88782 0
M  V30 7684 H 723.851 0.412668 3.09864 0
M  V30 7685 H 723.071 2.86707 2.70542 0
M  V30 7686 H 724.359 3.36411 3.81713 0
M  V30 7687 H 723.757 0.735573 5.60897 0
M  V30 7688 H 722.314 1.22713 6.40144 0
M  V30 7689 N 725.747 -0.868086 1.31537 0
M  V30 7690 C 726.993 -1.62367 1.2151 0
M  V30 7691 C 727.326 -1.92883 -0.225819 0
M  V30 7692 O 726.601 -1.56176 -1.15927 0
M  V30 7693 C 726.884 -2.95268 2.06129 0
M  V30 7694 C 726.737 -2.71619 3.58529 0
M  V30 7695 C 728.056 -3.96391 1.91212 0
M  V30 7696 H 725.175 -0.589178 0.442762 0
M  V30 7697 H 727.817 -1.00336 1.61347 0
M  V30 7698 H 725.967 -3.4821 1.72284 0
M  V30 7699 H 727.639 -2.25334 4.0252 0
M  V30 7700 H 725.882 -2.05817 3.81866 0
M  V30 7701 H 726.553 -3.66192 4.13047 0
M  V30 7702 H 729.029 -3.52663 2.20834 0
M  V30 7703 H 727.905 -4.87263 2.52718 0
M  V30 7704 H 728.166 -4.33335 0.875953 0
M  V30 7705 N 727.225 -1.14528 -1.08264 0
M  V30 7706 C 728.473 -0.912599 -1.80322 0
M  V30 7707 C 728.794 0.562256 -1.86718 0
M  V30 7708 O 728.064 1.40869 -1.36135 0
M  V30 7709 H 726.644 -0.334645 -0.667849 0
M  V30 7710 H 729.306 -1.44415 -1.30883 0
M  V30 7711 H 728.402 -1.31384 -2.83098 0
M  V30 7712 N 728.703 1.26451 -0.940633 0
M  V30 7713 C 729.98 1.88947 -0.505811 0
M  V30 7714 C 730.36 1.85011 1.01657 0
M  V30 7715 O 729.708 1.30406 1.87634 0
M  V30 7716 C 729.918 3.32304 -1.06654 0
M  V30 7717 C 731.266 4.09153 -1.13486 0
M  V30 7718 O 732.29 3.41371 -1.01708 0
M  V30 7719 O 731.149 5.30369 -1.31797 0
M  V30 7720 H 728.243 0.810422 -0.164759 0
M  V30 7721 H 730.789 1.34625 -1.03316 0
M  V30 7722 H 729.561 3.29527 -2.11015 0
M  V30 7723 H 729.184 3.94164 -0.521603 0
M  V30 7724 N 730.181 0.707592 1.40822 0
M  V30 7725 C 731.458 0.171172 1.9485 0
M  V30 7726 C 731.838 -1.32143 1.64625 0
M  V30 7727 O 731.186 -2.07372 0.959647 0
M  V30 7728 C 731.396 0.475334 3.45748 0
M  V30 7729 C 732.744 0.409625 4.22619 0
M  V30 7730 O 733.768 0.410934 3.53822 0
M  V30 7731 O 732.627 0.380185 5.45176 0
M  V30 7732 H 729.721 0.022015 0.826707 0
M  V30 7733 H 732.267 0.784577 1.50474 0
M  V30 7734 H 731.039 1.50801 3.61075 0
M  V30 7735 H 730.662 -0.168439 3.97243 0
M  V30 7736 N 731.66 -1.50943 0.453197 0
M  V30 7737 C 732.885 -2.07116 -0.108463 0
M  V30 7738 C 733.31 -1.31681 -1.3432 0
M  V30 7739 O 732.668 -0.359256 -1.77705 0
M  V30 7740 C 732.716 -3.58447 -0.393424 0
M  V30 7741 O 731.82 -3.85038 -1.47714 0
M  V30 7742 H 731.161 -0.66398 0.0050993 0
M  V30 7743 H 733.691 -1.94362 0.639095 0
M  V30 7744 H 733.701 -4.02961 -0.639222 0
M  V30 7745 H 732.376 -4.12774 0.508946 0
M  V30 7746 H 730.953 -3.52376 -1.22006 0
M  V30 7747 N 733.138 -0.185124 -1.56509 0
M  V30 7748 C 734.386 0.455357 -1.96903 0
M  V30 7749 C 734.707 1.62839 -1.07277 0
M  V30 7750 O 733.977 1.95385 -0.141966 0
M  V30 7751 H 732.557 0.171218 -0.727113 0
M  V30 7752 H 735.219 -0.26953 -1.93027 0
M  V30 7753 H 734.315 0.80616 -3.01509 0
M  V30 7754 N 734.616 1.57351 0.0885366 0
M  V30 7755 C 735.864 1.86051 0.789262 0
M  V30 7756 C 736.185 0.774763 1.78948 0
M  V30 7757 O 735.455 -0.198324 1.94894 0
M  V30 7758 H 734.035 0.686508 0.294475 0
M  V30 7759 H 736.697 1.94779 0.0686055 0
M  V30 7760 H 735.793 2.83007 1.31581 0
M  V30 7761 N 736.094 -0.359525 1.53444 0
M  V30 7762 C 737.341 -1.10152 1.6992 0
M  V30 7763 C 737.669 -1.89125 0.4541 0
M  V30 7764 O 736.924 -1.87396 -0.564023 0
M  V30 7765 C 737.223 -2.08287 2.90433 0
M  V30 7766 C 736.889 -1.45749 4.26694 0
M  V30 7767 C 735.551 -1.28421 4.63747 0
M  V30 7768 C 737.903 -1.00557 5.11408 0
M  V30 7769 C 735.231 -0.644951 5.83144 0
M  V30 7770 C 737.583 -0.380288 6.31456 0
M  V30 7771 C 736.247 -0.194557 6.67216 0
M  V30 7772 H 735.517 -0.403076 0.621781 0
M  V30 7773 H 738.164 -0.382612 1.87639 0
M  V30 7774 H 736.469 -2.86503 2.67251 0
M  V30 7775 H 738.166 -2.65662 3.00374 0
M  V30 7776 H 734.756 -1.6023 3.97523 0
M  V30 7777 H 738.94 -1.12735 4.83326 0
M  V30 7778 H 734.196 -0.48952 6.09437 0
M  V30 7779 H 738.37 -0.0219455 6.96397 0
M  V30 7780 H 735.997 0.30285 7.59597 0
M  V30 7781 N 737.572 -1.44907 -0.619662 0
M  V30 7782 C 738.797 -1.52021 -1.41083 0
M  V30 7783 C 739.222 -0.14976 -1.87503 0
M  V30 7784 O 738.58 0.863303 -1.59426 0
M  V30 7785 C 738.628 -2.49911 -2.59955 0
M  V30 7786 O 737.732 -2.00857 -3.60181 0
M  V30 7787 H 737.073 -0.512912 -0.421684 0
M  V30 7788 H 739.603 -1.90149 -0.755282 0
M  V30 7789 H 739.613 -2.68323 -3.07354 0
M  V30 7790 H 738.288 -3.4945 -2.25516 0
M  V30 7791 H 736.865 -1.92265 -3.19513 0
M  V30 7792 N 739.05 0.861098 -1.31996 0
M  V30 7793 C 740.278 1.6474 -1.25173 0
M  V30 7794 C 740.693 1.87926 0.181425 0
M  V30 7795 O 740.05 1.4437 1.1164 0
M  V30 7796 C 740.101 3.01036 -2.0015 0
M  V30 7797 O 739.822 2.7888 -3.37872 0
M  V30 7798 C 741.323 3.95481 -2.00273 0
M  V30 7799 H 738.543 0.513314 -0.432146 0
M  V30 7800 H 741.087 1.07419 -1.74016 0
M  V30 7801 H 739.242 3.55021 -1.55046 0
M  V30 7802 H 739.656 3.65514 -3.76165 0
M  V30 7803 H 741.13 4.88403 -2.57229 0
M  V30 7804 H 741.607 4.27957 -0.987407 0
M  V30 7805 H 742.213 3.47433 -2.45296 0
M  V30 7806 N 740.528 1.15101 1.07655 0
M  V30 7807 C 741.756 0.947731 1.83918 0
M  V30 7808 C 742.171 -0.503927 1.81951 0
M  V30 7809 O 741.528 -1.34941 1.2287 0
M  V30 7810 C 741.579 1.4503 3.31132 0
M  V30 7811 O 741.3 2.84508 3.33146 0
M  V30 7812 C 742.801 1.28806 4.24174 0
M  V30 7813 H 740.021 0.336786 0.580358 0
M  V30 7814 H 742.565 1.52799 1.35914 0
M  V30 7815 H 740.72 0.912632 3.76497 0
M  V30 7816 H 741.134 3.0723 4.251 0
M  V30 7817 H 742.608 1.6882 5.25551 0
M  V30 7818 H 743.085 0.231851 4.38588 0
M  V30 7819 H 743.691 1.81465 3.84643 0
M  V30 7820 N 742.006 -1.2595 0.947325 0
M  V30 7821 C 743.252 -1.9375 0.599064 0
M  V30 7822 C 743.585 -1.74088 -0.860632 0
M  V30 7823 O 742.86 -1.08158 -1.61654 0
M  V30 7824 C 743.143 -3.47353 0.949634 0
M  V30 7825 C 742.996 -3.76273 2.46452 0
M  V30 7826 C 744.315 -4.37589 0.469442 0
M  V30 7827 H 741.434 -0.703674 0.219115 0
M  V30 7828 H 744.076 -1.48705 1.18266 0
M  V30 7829 H 742.226 -3.8585 0.453008 0
M  V30 7830 H 743.898 -3.47455 3.03435 0
M  V30 7831 H 742.141 -3.22135 2.90537 0
M  V30 7832 H 742.812 -4.83664 2.66032 0
M  V30 7833 H 745.288 -4.06353 0.89534 0
M  V30 7834 H 744.164 -5.43841 0.7435 0
M  V30 7835 H 744.425 -4.37579 -0.630618 0
M  V30 7836 N 743.484 -0.715051 -1.40445 0
M  V30 7837 C 744.709 -0.26254 -2.05732 0
M  V30 7838 C 745.134 1.08691 -1.53519 0
M  V30 7839 O 744.492 1.68453 -0.670328 0
M  V30 7840 C 744.54 -0.25195 -3.59719 0
M  V30 7841 O 743.644 0.766998 -4.05205 0
M  V30 7842 H 742.985 -0.123398 -0.652433 0
M  V30 7843 H 745.515 -0.975382 -1.79854 0
M  V30 7844 H 745.525 -0.0894537 -4.07902 0
M  V30 7845 H 744.2 -1.23672 -3.97087 0
M  V30 7846 H 742.777 0.572269 -3.68483 0
M  V30 7847 N 744.962 1.50701 -0.461195 0
M  V30 7848 C 746.19 2.06681 0.0951756 0
M  V30 7849 C 746.605 1.32615 1.34382 0
M  V30 7850 O 745.962 0.392531 1.78229 0
M  V30 7851 C 746.013 3.59354 0.393316 0
M  V30 7852 O 745.734 4.30626 -0.805797 0
M  V30 7853 C 747.235 4.31926 0.997744 0
M  V30 7854 H 744.455 0.670995 -0.00267259 0
M  V30 7855 H 746.999 1.93991 -0.647137 0
M  V30 7856 H 745.154 3.7188 1.08555 0
M  V30 7857 H 745.568 5.21667 -0.544409 0
M  V30 7858 H 747.042 5.39756 1.15619 0
M  V30 7859 H 747.519 3.91772 1.98523 0
M  V30 7860 H 748.125 4.23905 0.344188 0
M  V30 7861 N 746.441 0.193421 1.56409 0
M  V30 7862 C 747.351 -0.740112 2.2262 0
M  V30 7863 C 748.367 -1.23597 1.22474 0
M  V30 7864 O 749.543 -1.28348 1.55206 0
M  V30 7865 C 746.608 -1.94317 2.87127 0
M  V30 7866 C 745.669 -1.49205 4.02538 0
M  V30 7867 C 744.902 -2.63776 4.63959 0
M  V30 7868 O 745.125 -3.81215 4.24301 0
M  V30 7869 O 744.059 -2.36585 5.53454 0
M  V30 7870 H 747.885 -0.206238 3.02999 0
M  V30 7871 H 745.47 -0.0357938 1.49357 0
M  V30 7872 H 747.352 -2.64633 3.27944 0
M  V30 7873 H 746.027 -2.46568 2.09728 0
M  V30 7874 H 744.934 -0.757738 3.66346 0
M  V30 7875 H 746.267 -1.01622 4.81595 0
M  V30 7876 N 747.919 -1.57396 -0.0801906 0
M  V30 7877 C 748.851 -1.9982 -1.12271 0
M  V30 7878 C 749.864 -0.902902 -1.35468 0
M  V30 7879 O 751.053 -1.18088 -1.33856 0
M  V30 7880 C 748.153 -2.31476 -2.47532 0
M  V30 7881 C 747.326 -3.62745 -2.44407 0
M  V30 7882 C 746.385 -3.82168 -3.6171 0
M  V30 7883 O 745.411 -4.53852 -3.43522 0
M  V30 7884 N 746.613 -3.2388 -4.81749 0
M  V30 7885 H 749.378 -2.89864 -0.761501 0
M  V30 7886 H 746.939 -1.5965 -0.268965 0
M  V30 7887 H 748.931 -2.4165 -3.24634 0
M  V30 7888 H 747.501 -1.47364 -2.75686 0
M  V30 7889 H 746.721 -3.63403 -1.52747 0
M  V30 7890 H 748.009 -4.48954 -2.39412 0
M  V30 7891 H 747.407 -2.6568 -4.9943 0
M  V30 7892 H 745.964 -3.39515 -5.56392 0
M  V30 7893 N 749.397 0.351382 -1.53633 0
M  V30 7894 C 750.345 1.45142 -1.8176 0
M  V30 7895 C 751.339 1.54819 -0.687571 0
M  V30 7896 O 752.545 1.57536 -0.870772 0
M  V30 7897 H 748.92 0.483789 -0.575719 0
M  V30 7898 H 750.891 1.1863 -2.73806 0
M  V30 7899 C 749.64 2.81779 -2.03706 0
M  V30 7900 H 748.963 2.75097 -2.90107 0
M  V30 7901 H 750.403 3.5789 -2.27356 0
M  V30 7902 C 748.862 3.26762 -0.820271 0
M  V30 7903 O 749.392 4.01697 -0.0158603 0
M  V30 7904 N 747.598 2.83472 -0.639699 0
M  V30 7905 H 747.145 2.22655 -1.29547 0
M  V30 7906 H 747.103 3.13924 0.172995 0
M  V30 7907 N 750.875 1.45233 0.611969 0
M  V30 7908 C 752.121 1.49242 1.37312 0
M  V30 7909 C 752.454 0.131963 1.93751 0
M  V30 7910 O 751.729 -0.852999 1.74798 0
M  V30 7911 C 752.012 2.56811 2.52428 0
M  V30 7912 C 751.865 4.02284 2.01215 0
M  V30 7913 C 753.184 2.60705 3.54572 0
M  V30 7914 H 750.303 0.54336 0.497925 0
M  V30 7915 H 752.945 1.77019 0.690242 0
M  V30 7916 H 751.095 2.33256 3.10683 0
M  V30 7917 H 752.767 4.37035 1.47643 0
M  V30 7918 H 751.01 4.1315 1.32248 0
M  V30 7919 H 751.681 4.7323 2.84178 0
M  V30 7920 H 754.157 2.81799 3.06151 0
M  V30 7921 H 753.033 3.37841 4.32614 0
M  V30 7922 H 753.294 1.65627 4.09903 0
M  V30 7923 N 752.353 -0.854086 1.3245 0
M  V30 7924 C 753.764 -1.42427 1.20712 0
M  V30 7925 C 754.115 -1.95371 -0.18013 0
M  V30 7926 O 753.24 -1.87587 -1.07889 0
M  V30 7927 C 753.835 -2.58897 2.18536 0
M  V30 7928 C 752.394 -3.11913 2.10683 0
M  V30 7929 C 751.541 -1.84661 2.06871 0
M  V30 7930 H 754.492 -0.661192 1.4427 0
M  V30 7931 H 754.513 -3.36074 1.78422 0
M  V30 7932 H 754.025 -2.20333 3.19492 0
M  V30 7933 H 752.126 -3.55059 1.12977 0
M  V30 7934 H 752.239 -3.73119 3.00532 0
M  V30 7935 H 750.603 -2.04285 1.52118 0
M  V30 7936 H 751.386 -1.48314 3.09609 0
M  V30 7937 N 753.831 -1.1567 -1.07043 0
M  V30 7938 C 755.108 -0.843948 -1.76456 0
M  V30 7939 C 755.488 0.659806 -2.00524 0
M  V30 7940 O 754.836 1.60518 -1.62623 0
M  V30 7941 C 755.046 -1.65822 -3.0709 0
M  V30 7942 C 756.394 -1.8664 -3.8138 0
M  V30 7943 O 757.418 -1.62624 -3.1691 0
M  V30 7944 O 756.277 -2.26884 -4.97178 0
M  V30 7945 H 753.371 -0.310677 -0.766426 0
M  V30 7946 H 755.917 -1.26266 -1.1338 0
M  V30 7947 H 754.689 -2.67902 -2.85209 0
M  V30 7948 H 754.312 -1.23605 -3.77899 0
M  V30 7949 N 755.309 1.25446 -0.953992 0
M  V30 7950 C 756.72 1.75047 -0.649255 0
M  V30 7951 C 757.071 1.77527 0.835385 0
M  V30 7952 O 756.196 1.39569 1.65377 0
M  V30 7953 C 756.791 3.17889 -1.17183 0
M  V30 7954 C 755.35 3.65052 -0.917267 0
M  V30 7955 C 754.497 2.44124 -1.31525 0
M  V30 7956 H 757.448 1.11342 -1.13087 0
M  V30 7957 H 757.469 3.76768 -0.531616 0
M  V30 7958 H 756.981 3.16052 -2.25239 0
M  V30 7959 H 755.082 3.72305 0.148354 0
M  V30 7960 H 755.195 4.53222 -1.55328 0
M  V30 7961 H 753.559 2.43906 -0.733624 0
M  V30 7962 H 754.342 2.44979 -2.405 0
M  V30 7963 N 756.787 0.722489 1.40064 0
M  V30 7964 C 757.719 0.0349057 2.29173 0
M  V30 7965 C 758.732 -0.716571 1.46182 0
M  V30 7966 O 759.921 -0.562806 1.69395 0
M  V30 7967 C 757.021 -0.974839 3.24577 0
M  V30 7968 C 756.194 -0.287471 4.36454 0
M  V30 7969 C 755.253 -1.20356 5.12251 0
M  V30 7970 O 754.279 -0.685753 5.65054 0
M  V30 7971 N 755.481 -2.53422 5.22262 0
M  V30 7972 H 758.246 0.800058 2.88824 0
M  V30 7973 H 755.807 0.57068 1.51509 0
M  V30 7974 H 757.799 -1.59002 3.72157 0
M  V30 7975 H 756.369 -1.6413 2.66046 0
M  V30 7976 H 755.589 0.508008 3.90913 0
M  V30 7977 H 756.877 0.189382 5.08447 0
M  V30 7978 H 756.275 -2.97981 4.80857 0
M  V30 7979 H 754.832 -3.10067 5.73325 0
M  V30 7980 N 758.265 -1.50454 0.469181 0
M  V30 7981 C 759.511 -2.02615 -0.0865971 0
M  V30 7982 C 759.844 -1.35062 -1.39542 0
M  V30 7983 O 759.119 -0.475701 -1.88593 0
M  V30 7984 C 759.402 -3.59068 -0.272385 0
M  V30 7985 C 759.255 -4.37196 1.05733 0
M  V30 7986 C 760.574 -4.2793 -1.0278 0
M  V30 7987 H 757.693 -0.736389 -0.0299977 0
M  V30 7988 H 760.335 -1.79792 0.614399 0
M  V30 7989 H 758.485 -3.78646 -0.869471 0
M  V30 7990 H 760.157 -4.29195 1.69084 0
M  V30 7991 H 758.4 -4.01013 1.65442 0
M  V30 7992 H 759.071 -5.44924 0.880997 0
M  V30 7993 H 761.547 -4.12816 -0.521718 0
M  V30 7994 H 760.423 -5.37214 -1.12659 0
M  V30 7995 H 760.684 -3.90968 -2.0639 0
M  V30 7996 N 759.743 -0.201713 -1.56304 0
M  V30 7997 C 760.991 0.434447 -1.97375 0
M  V30 7998 C 761.312 1.61692 -1.08998 0
M  V30 7999 O 760.582 1.95223 -0.162682 0
M  V30 8000 H 759.162 0.163497 -0.728888 0
M  V30 8001 H 761.824 -0.289988 -1.92731 0
M  V30 8002 H 760.92 0.774136 -3.02347 0
M  V30 8003 N 761.222 1.57436 0.0718424 0
M  V30 8004 C 762.471 1.86431 0.769826 0
M  V30 8005 C 762.784 0.794355 1.78744 0
M  V30 8006 O 763.99 0.972148 2.53499 0
M  V30 8007 C 762.446 3.307 1.42006 0
M  V30 8008 C 762.054 4.45824 0.441017 0
M  V30 8009 C 763.798 3.68894 2.10041 0
M  V30 8010 C 761.705 5.81134 1.09717 0
M  V30 8011 H 760.635 0.695474 0.291259 0
M  V30 8012 H 763.286 1.83485 0.0231224 0
M  V30 8013 H 761.668 3.28257 2.21502 0
M  V30 8014 H 762.842 4.59659 -0.32413 0
M  V30 8015 H 761.157 4.16181 -0.134886 0
M  V30 8016 H 763.754 4.67281 2.59908 0
M  V30 8017 H 764.097 2.98692 2.89981 0
M  V30 8018 H 764.63 3.73326 1.37376 0
M  V30 8019 H 761.369 6.54628 0.338095 0
M  V30 8020 H 760.889 5.711 1.83317 0
M  V30 8021 H 762.568 6.26468 1.617 0
M  V30 8022 N 762.7 -0.34323 1.53817 0
M  V30 8023 C 763.928 -1.10348 1.75017 0
M  V30 8024 C 764.343 -1.82345 0.489475 0
M  V30 8025 O 763.7 -1.74362 -0.538886 0
M  V30 8026 C 763.751 -2.11672 2.93048 0
M  V30 8027 O 763.472 -1.42603 4.14241 0
M  V30 8028 C 764.973 -3.0007 3.26301 0
M  V30 8029 H 762.193 -0.329056 0.584776 0
M  V30 8030 H 764.737 -0.395339 2.00642 0
M  V30 8031 H 762.892 -2.78051 2.69753 0
M  V30 8032 H 763.306 -2.10294 4.80496 0
M  V30 8033 H 764.78 -3.67101 4.12239 0
M  V30 8034 H 765.257 -3.66105 2.42618 0
M  V30 8035 H 765.863 -2.3928 3.51604 0
M  V30 8036 N 764.178 -1.45556 -0.604258 0
M  V30 8037 C 765.406 -1.53278 -1.38973 0
M  V30 8038 C 765.821 -0.166509 -1.88064 0
M  V30 8039 O 765.178 0.832519 -1.62405 0
M  V30 8040 C 765.229 -2.51992 -2.59195 0
M  V30 8041 O 764.95 -3.8331 -2.12143 0
M  V30 8042 C 766.451 -2.69445 -3.52015 0
M  V30 8043 H 763.671 -0.519003 -0.425297 0
M  V30 8044 H 766.215 -1.90773 -0.736621 0
M  V30 8045 H 764.37 -2.17561 -3.2054 0
M  V30 8046 H 764.784 -4.3685 -2.90279 0
M  V30 8047 H 766.258 -3.42485 -4.32907 0
M  V30 8048 H 766.735 -1.75596 -4.0257 0
M  V30 8049 H 767.341 -3.04886 -2.9652 0
M  V30 8050 N 765.656 0.84705 -1.32902 0
M  V30 8051 C 766.589 1.96038 -1.1681 0
M  V30 8052 C 767.567 1.62468 -0.0656144 0
M  V30 8053 O 768.751 1.87136 -0.226339 0
M  V30 8054 C 765.878 3.29362 -0.789839 0
M  V30 8055 C 764.924 3.81908 -1.89865 0
M  V30 8056 S 765.757 4.04576 -3.50826 0
M  V30 8057 C 766.913 5.40863 -3.14989 0
M  V30 8058 H 767.146 2.09387 -2.11055 0
M  V30 8059 H 764.679 0.999896 -1.1765 0
M  V30 8060 H 766.637 4.06405 -0.578369 0
M  V30 8061 H 765.298 3.13815 0.133878 0
M  V30 8062 H 764.491 4.78357 -1.58716 0
M  V30 8063 H 764.093 3.11733 -2.06636 0
M  V30 8064 H 766.385 6.23393 -2.65306 0
M  V30 8065 H 767.328 5.7698 -4.10488 0
M  V30 8066 H 767.736 5.05228 -2.51804 0
M  V30 8067 N 767.134 1.16236 1.06428 0
M  V30 8068 C 768.55 0.906983 1.31324 0
M  V30 8069 C 768.75 -0.440872 1.96618 0
M  V30 8070 O 767.806 -1.1807 2.23194 0
M  V30 8071 C 769.119 2.05501 2.19522 0
M  V30 8072 C 770.667 2.09061 2.32943 0
M  V30 8073 C 771.142 3.23214 3.24495 0
M  V30 8074 N 772.633 3.22922 3.32078 0
M  V30 8075 C 773.368 4.07889 4.03006 0
M  V30 8076 N 772.864 5.02941 4.76469 0
M  V30 8077 N 774.657 3.95881 3.99043 0
M  V30 8078 H 766.808 2.03015 0.624388 0
M  V30 8079 H 769.071 0.88576 0.337835 0
M  V30 8080 H 768.777 3.02847 1.78819 0
M  V30 8081 H 768.651 1.99538 3.201 0
M  V30 8082 H 771.038 1.12308 2.72893 0
M  V30 8083 H 771.119 2.19089 1.32037 0
M  V30 8084 H 770.763 4.20225 2.85261 0
M  V30 8085 H 770.693 3.10423 4.25377 0
M  V30 8086 H 773.184 2.54093 2.79724 0
M  V30 8087 H 773.497 5.64196 5.28112 0
M  V30 8088 H 771.842 5.06922 4.75453 0
M  V30 8089 H 775.033 3.20927 3.40769 0
M  V30 8090 H 775.206 4.62321 4.54052 0
M  V30 8091 N 768.612 -1.24939 0.960631 0
M  V30 8092 C 769.889 -1.88118 0.535807 0
M  V30 8093 C 770.269 -1.86605 -0.987009 0
M  V30 8094 O 769.617 -1.33375 -1.85536 0
M  V30 8095 C 769.827 -3.30565 1.11927 0
M  V30 8096 C 771.175 -4.07296 1.19981 0
M  V30 8097 O 772.199 -3.39709 1.07126 0
M  V30 8098 O 771.058 -5.28206 1.40218 0
M  V30 8099 H 768.152 -0.807698 0.177631 0
M  V30 8100 H 770.698 -1.32964 1.05445 0
M  V30 8101 H 769.47 -3.26128 2.16231 0
M  V30 8102 H 769.093 -3.93284 0.584245 0
M  V30 8103 N 770.09 -0.729906 -1.39679 0
M  V30 8104 C 771.02 -0.101618 -2.33279 0
M  V30 8105 C 772.001 0.729854 -1.53646 0
M  V30 8106 O 773.186 0.67587 -1.82059 0
M  V30 8107 C 770.316 0.81024 -3.37716 0
M  V30 8108 C 769.27 0.0833126 -4.27919 0
M  V30 8109 C 768.596 1.11185 -5.23012 0
M  V30 8110 C 769.896 -1.07107 -5.112 0
M  V30 8111 H 771.59 -0.883452 -2.86069 0
M  V30 8112 H 769.136 -0.426283 -1.37546 0
M  V30 8113 H 771.089 1.25927 -4.02145 0
M  V30 8114 H 769.813 1.62413 -2.83354 0
M  V30 8115 H 768.472 -0.346043 -3.64963 0
M  V30 8116 H 768.12 1.91917 -4.64948 0
M  V30 8117 H 767.82 0.63026 -5.8421 0
M  V30 8118 H 769.344 1.56068 -5.90318 0
M  V30 8119 H 770.758 -0.700726 -5.69002 0
M  V30 8120 H 769.155 -1.48196 -5.81514 0
M  V30 8121 H 770.225 -1.89513 -4.46332 0
M  V30 8122 N 771.568 1.50203 -0.477153 0
M  V30 8123 C 772.515 2.28656 0.31386 0
M  V30 8124 C 773.485 1.33977 0.981802 0
M  V30 8125 O 774.67 1.62919 0.993072 0
M  V30 8126 C 771.81 3.16027 1.38639 0
M  V30 8127 C 770.923 4.25743 0.732615 0
M  V30 8128 C 770.058 5.00363 1.78355 0
M  V30 8129 C 769.097 6.01945 1.11035 0
M  V30 8130 N 768.234 6.6982 2.10441 0
M  V30 8131 H 773.074 2.958 -0.361445 0
M  V30 8132 H 770.611 1.45867 -0.190093 0
M  V30 8133 H 772.569 3.6504 2.01994 0
M  V30 8134 H 771.199 2.50917 2.03077 0
M  V30 8135 H 770.251 3.80398 -0.0136546 0
M  V30 8136 H 771.563 4.98393 0.201513 0
M  V30 8137 H 770.717 5.53124 2.49276 0
M  V30 8138 H 769.456 4.27432 2.34847 0
M  V30 8139 H 768.461 5.48438 0.386797 0
M  V30 8140 H 769.686 6.76851 0.552248 0
M  V30 8141 H 767.632 5.99677 2.65939 0
M  V30 8142 H 767.549 7.38366 1.62332 0
M  V30 8143 H 768.817 7.27196 2.80724 0
M  V30 8144 N 773.046 0.209999 1.56195 0
M  V30 8145 C 774.294 -0.423974 1.97603 0
M  V30 8146 C 774.615 -1.61112 1.09854 0
M  V30 8147 O 773.885 -1.95134 0.173032 0
M  V30 8148 H 772.465 -0.159629 0.729745 0
M  V30 8149 H 775.127 0.300205 1.92574 0
M  V30 8150 H 774.223 -0.75809 3.02753 0
M  V30 8151 N 774.524 -1.57472 -0.0634922 0
M  V30 8152 C 775.471 -2.04258 -1.07457 0
M  V30 8153 C 776.441 -0.924804 -1.37973 0
M  V30 8154 O 777.626 -1.19305 -1.48899 0
M  V30 8155 C 774.766 -2.49832 -2.38071 0
M  V30 8156 C 773.879 -3.75263 -2.14014 0
M  V30 8157 C 773.014 -4.09585 -3.38251 0
M  V30 8158 C 772.053 -5.28032 -3.09594 0
M  V30 8159 N 771.19 -5.57953 -4.26185 0
M  V30 8160 H 776.03 -2.90402 -0.668626 0
M  V30 8161 H 773.567 -1.43609 -0.318572 0
M  V30 8162 H 775.525 -2.7431 -3.14341 0
M  V30 8163 H 774.155 -1.66654 -2.76453 0
M  V30 8164 H 773.207 -3.58075 -1.28399 0
M  V30 8165 H 774.519 -4.61667 -1.88852 0
M  V30 8166 H 773.673 -4.35008 -4.2291 0
M  V30 8167 H 772.412 -3.21765 -3.66495 0
M  V30 8168 H 771.417 -5.02397 -2.23332 0
M  V30 8169 H 772.642 -6.17477 -2.82663 0
M  V30 8170 H 770.588 -4.73092 -4.54445 0
M  V30 8171 H 770.505 -6.38793 -4.04326 0
M  V30 8172 H 771.773 -5.87931 -5.11817 0
M  V30 8173 N 776.003 0.335068 -1.53997 0
M  V30 8174 C 776.966 1.39481 -1.81872 0
M  V30 8175 C 777.966 1.4524 -0.690078 0
M  V30 8176 O 779.156 1.45467 -0.958377 0
M  V30 8177 C 776.288 2.78329 -1.9684 0
M  V30 8178 H 777.481 1.16024 -2.76547 0
M  V30 8179 H 775.034 0.569926 -1.45539 0
M  V30 8180 H 775.769 3.07058 -1.04337 0
M  V30 8181 H 775.554 2.75544 -2.78958 0
M  V30 8182 H 777.044 3.55016 -2.19894 0
M  V30 8183 N 777.481 1.45874 0.596531 0
M  V30 8184 C 778.429 1.55739 1.72766 0
M  V30 8185 C 779.423 0.426666 1.63939 0
M  V30 8186 O 780.629 0.60301 1.69599 0
M  V30 8187 H 777.004 0.489386 0.570968 0
M  V30 8188 H 778.975 2.50871 1.61575 0
M  V30 8189 C 777.724 1.55174 3.11153 0
M  V30 8190 H 777.047 2.41511 3.1861 0
M  V30 8191 H 778.487 1.66133 3.90097 0
M  V30 8192 C 776.946 0.278001 3.35751 0
M  V30 8193 O 777.476 -0.637557 3.96608 0
M  V30 8194 N 775.682 0.170227 2.90101 0
M  V30 8195 H 775.229 0.916159 2.40758 0
M  V30 8196 H 775.187 -0.68117 3.06932 0
M  V30 8197 N 778.959 -0.83999 1.33349 0
M  V30 8198 C 780.375 -1.13049 1.12659 0
M  V30 8199 C 780.575 -2.01328 -0.0832613 0
M  V30 8200 O 779.631 -2.40669 -0.763856 0
M  V30 8201 C 780.944 -1.79366 2.41347 0
M  V30 8202 C 782.492 -1.91937 2.47243 0
M  V30 8203 C 782.967 -2.6167 3.75889 0
M  V30 8204 N 784.458 -2.69184 3.76954 0
M  V30 8205 C 785.193 -3.23827 4.73206 0
M  V30 8206 N 784.689 -3.79166 5.79832 0
M  V30 8207 N 786.482 -3.22068 4.60683 0
M  V30 8208 H 778.633 -0.252432 2.10895 0
M  V30 8209 H 780.896 -0.174501 0.931801 0
M  V30 8210 H 780.602 -1.2196 3.29877 0
M  V30 8211 H 780.476 -2.79396 2.53412 0
M  V30 8212 H 782.863 -2.48498 1.59163 0
M  V30 8213 H 782.944 -0.908604 2.39119 0
M  V30 8214 H 782.588 -2.05769 4.64351 0
M  V30 8215 H 782.518 -3.63217 3.81289 0
M  V30 8216 H 785.009 -2.2994 2.99893 0
M  V30 8217 H 785.322 -4.19061 6.49313 0
M  V30 8218 H 783.667 -3.77457 5.83568 0
M  V30 8219 H 786.858 -2.78092 3.7654 0
M  V30 8220 H 787.031 -3.64351 5.35866 0
M  V30 8221 N 780.437 -1.16799 -1.0581 0
M  V30 8222 C 781.685 -0.950642 -1.78346 0
M  V30 8223 C 782.006 0.522524 -1.87869 0
M  V30 8224 O 781.276 1.3795 -1.39092 0
M  V30 8225 H 779.856 -0.348736 -0.6606 0
M  V30 8226 H 782.518 -1.47158 -1.27791 0
M  V30 8227 H 781.614 -1.37359 -2.80248 0
M  V30 8228 N 781.915 1.24427 -0.967243 0
M  V30 8229 C 782.862 2.25398 -0.496419 0
M  V30 8230 C 783.832 1.59667 0.457781 0
M  V30 8231 O 785.017 1.87213 0.368246 0
M  V30 8232 C 782.157 3.44474 0.207693 0
M  V30 8233 C 781.27 4.24804 -0.785221 0
M  V30 8234 C 780.405 5.31169 -0.0572631 0
M  V30 8235 C 779.444 6.03195 -1.04027 0
M  V30 8236 N 778.581 7.01265 -0.34235 0
M  V30 8237 H 783.421 2.65039 -1.36229 0
M  V30 8238 H 780.958 1.30288 -0.682902 0
M  V30 8239 H 782.916 4.12376 0.632612 0
M  V30 8240 H 781.546 3.05672 1.03752 0
M  V30 8241 H 780.598 3.56445 -1.32858 0
M  V30 8242 H 781.91 4.74599 -1.53483 0
M  V30 8243 H 781.064 6.05205 0.425674 0
M  V30 8244 H 779.803 4.8228 0.725047 0
M  V30 8245 H 778.808 5.27964 -1.53409 0
M  V30 8246 H 780.033 6.54173 -1.82302 0
M  V30 8247 H 777.979 6.54648 0.420993 0
M  V30 8248 H 777.896 7.48939 -1.03084 0
M  V30 8249 H 779.164 7.7941 0.118634 0
M  V30 8250 N 783.393 0.737304 1.3929 0
M  V30 8251 C 784.326 0.0475454 2.2815 0
M  V30 8252 C 785.304 -0.745314 1.44512 0
M  V30 8253 O 786.488 -0.727387 1.739 0
M  V30 8254 C 783.615 -0.939803 3.254 0
M  V30 8255 C 782.661 -0.235153 4.25851 0
M  V30 8256 S 783.494 1.05252 5.25055 0
M  V30 8257 C 784.65 0.0678242 6.25863 0
M  V30 8258 H 784.883 0.801117 2.86303 0
M  V30 8259 H 782.416 0.529197 1.45048 0
M  V30 8260 H 784.374 -1.50417 3.81949 0
M  V30 8261 H 783.035 -1.66623 2.66262 0
M  V30 8262 H 782.228 -0.982336 4.94334 0
M  V30 8263 H 781.83 0.257245 3.73114 0
M  V30 8264 H 784.122 -0.771779 6.7309 0
M  V30 8265 H 785.065 0.719858 7.04431 0
M  V30 8266 H 785.473 -0.305604 5.63672 0
M  V30 8267 N 784.871 -1.49948 0.485112 0
M  V30 8268 C 786.148 -1.95186 -0.12726 0
M  V30 8269 C 786.528 -1.42605 -1.5565 0
M  V30 8270 O 785.876 -0.632986 -2.19558 0
M  V30 8271 C 786.086 -3.48955 -0.0562117 0
M  V30 8272 C 787.434 -4.23932 -0.238106 0
M  V30 8273 O 788.458 -3.55955 -0.132145 0
M  V30 8274 O 787.317 -5.44614 -0.453658 0
M  V30 8275 H 784.411 -0.820433 -0.104014 0
M  V30 8276 H 786.957 -1.60659 0.546517 0
M  V30 8277 H 785.729 -3.79814 0.941122 0
M  V30 8278 H 785.352 -3.90056 -0.770834 0
M  V30 8279 N 786.349 -0.21828 -1.56081 0
M  V30 8280 C 787.595 0.414921 -1.9851 0
M  V30 8281 C 787.928 1.59648 -1.10573 0
M  V30 8282 O 787.203 1.93818 -0.162695 0
M  V30 8283 C 787.486 0.852647 -3.4986 0
M  V30 8284 C 787.339 -0.33232 -4.48571 0
M  V30 8285 C 788.658 1.70998 -4.05521 0
M  V30 8286 H 785.777 0.149344 -0.72171 0
M  V30 8287 H 788.419 -0.313858 -1.8739 0
M  V30 8288 H 786.569 1.47362 -3.59467 0
M  V30 8289 H 788.241 -0.970418 -4.50977 0
M  V30 8290 H 786.484 -0.980302 -4.22578 0
M  V30 8291 H 787.155 0.0168407 -5.51997 0
M  V30 8292 H 789.631 1.18606 -3.98838 0
M  V30 8293 H 788.507 1.98517 -5.11744 0
M  V30 8294 H 788.768 2.67219 -3.52202 0
M  V30 8295 N 787.827 1.57504 0.0551401 0
M  V30 8296 C 789.052 1.92682 0.767352 0
M  V30 8297 C 789.477 0.81614 1.69472 0
M  V30 8298 O 788.835 -0.229989 1.79835 0
M  V30 8299 C 788.883 3.26866 1.52286 0
M  V30 8300 O 787.987 3.17274 2.63459 0
M  V30 8301 H 787.328 0.630502 0.208238 0
M  V30 8302 H 789.858 2.04592 0.0184026 0
M  V30 8303 H 789.868 3.61138 1.8985 0
M  V30 8304 H 788.543 4.07276 0.842541 0
M  V30 8305 H 787.12 2.94589 2.2863 0
M  V30 8306 N 789.305 -0.326896 1.54172 0
M  V30 8307 C 790.553 -1.06313 1.71878 0
M  V30 8308 C 790.874 -1.88652 0.493498 0
M  V30 8309 O 790.144 -1.89608 -0.492522 0
M  V30 8310 H 788.724 -0.39549 0.633716 0
M  V30 8311 H 791.386 -0.364139 1.91468 0
M  V30 8312 H 790.482 -1.73105 2.59694 0
M  V30 8313 N 790.784 -1.46188 -0.588786 0
M  V30 8314 C 792.03 -1.51407 -1.34921 0
M  V30 8315 C 792.363 -0.162771 -1.93517 0
M  V30 8316 O 791.638 0.825082 -1.76132 0
M  V30 8317 C 791.921 -2.60795 -2.48311 0
M  V30 8318 C 791.774 -4.05435 -1.94789 0
M  V30 8319 C 793.093 -2.66313 -3.50379 0
M  V30 8320 H 790.212 -0.551213 -0.489217 0
M  V30 8321 H 792.854 -1.78095 -0.661993 0
M  V30 8322 H 791.004 -2.3817 -3.06932 0
M  V30 8323 H 792.676 -4.39328 -1.40672 0
M  V30 8324 H 790.919 -4.15202 -1.25659 0
M  V30 8325 H 791.59 -4.77691 -2.76613 0
M  V30 8326 H 794.066 -2.86634 -3.01629 0
M  V30 8327 H 792.942 -3.44681 -4.27184 0
M  V30 8328 H 793.203 -1.72127 -4.07216 0
M  V30 8329 N 792.262 0.832906 -1.33792 0
M  V30 8330 C 793.194 1.95042 -1.2038 0
M  V30 8331 C 794.207 1.62253 -0.133299 0
M  V30 8332 O 795.396 1.74315 -0.384261 0
M  V30 8333 C 792.496 3.287 -0.825215 0
M  V30 8334 C 791.669 3.89581 -1.98861 0
M  V30 8335 C 790.728 5.01602 -1.59003 0
M  V30 8336 O 789.754 5.20431 -2.30522 0
M  V30 8337 N 790.956 5.78356 -0.498446 0
M  V30 8338 H 793.721 2.07083 -2.16649 0
M  V30 8339 H 791.282 1.00896 -1.26616 0
M  V30 8340 H 793.274 4.01074 -0.540559 0
M  V30 8341 H 791.844 3.12565 0.0469796 0
M  V30 8342 H 791.064 3.09723 -2.43856 0
M  V30 8343 H 792.352 4.26989 -2.76691 0
M  V30 8344 H 791.75 5.65618 0.0963297 0
M  V30 8345 H 790.307 6.51226 -0.273485 0
M  V30 8346 N 793.74 1.17359 1.05189 0
M  V30 8347 C 794.703 0.892604 2.11105 0
M  V30 8348 C 795.703 -0.117236 1.60372 0
M  V30 8349 O 796.893 0.114936 1.7382 0
M  V30 8350 C 794.025 0.337032 3.3923 0
M  V30 8351 H 795.218 1.83169 2.37464 0
M  V30 8352 H 792.771 0.984051 1.21434 0
M  V30 8353 H 793.506 -0.609198 3.18527 0
M  V30 8354 H 793.291 1.06484 3.77364 0
M  V30 8355 H 794.781 0.158763 4.17298 0
M  V30 8356 N 795.218 -1.23913 0.973828 0
M  V30 8357 C 796.629 -1.73992 0.677021 0
M  V30 8358 C 796.98 -1.78833 -0.807036 0
M  V30 8359 O 796.105 -1.42183 -1.63135 0
M  V30 8360 C 796.7 -3.15985 1.22226 0
M  V30 8361 C 795.259 -3.63547 0.975228 0
M  V30 8362 C 794.406 -2.42001 1.35392 0
M  V30 8363 H 797.357 -1.09529 1.14844 0
M  V30 8364 H 797.378 -3.75875 0.591489 0
M  V30 8365 H 796.89 -3.12429 2.30238 0
M  V30 8366 H 794.991 -3.72493 -0.0891047 0
M  V30 8367 H 795.104 -4.50693 1.62518 0
M  V30 8368 H 793.468 -2.42708 0.772334 0
M  V30 8369 H 794.251 -2.41122 2.44367 0
M  V30 8370 N 796.696 -0.74468 -1.38897 0
M  V30 8371 C 798.112 -0.421302 -1.53939 0
M  V30 8372 C 798.312 1.06668 -1.70951 0
M  V30 8373 O 797.368 1.85278 -1.71547 0
M  V30 8374 C 798.681 -1.21278 -2.75159 0
M  V30 8375 C 800.229 -1.20196 -2.89001 0
M  V30 8376 C 800.704 -1.97621 -4.13171 0
M  V30 8377 N 802.195 -1.94836 -4.2023 0
M  V30 8378 C 802.93 -2.51545 -5.15279 0
M  V30 8379 N 802.426 -3.1693 -6.16058 0
M  V30 8380 N 804.219 -2.41524 -5.07565 0
M  V30 8381 H 796.37 -1.70914 -1.26103 0
M  V30 8382 H 798.633 -0.724058 -0.611919 0
M  V30 8383 H 798.339 -2.26609 -2.68963 0
M  V30 8384 H 798.213 -0.823677 -3.68097 0
M  V30 8385 H 800.6 -0.156742 -2.94683 0
M  V30 8386 H 800.681 -1.63051 -1.97099 0
M  V30 8387 H 800.325 -3.02149 -4.0825 0
M  V30 8388 H 800.255 -1.52166 -5.04136 0
M  V30 8389 H 802.746 -1.4721 -3.48048 0
M  V30 8390 H 803.059 -3.57644 -6.85062 0
M  V30 8391 H 801.404 -3.21023 -6.16417 0
M  V30 8392 H 804.595 -1.90077 -4.27771 0
M  V30 8393 H 804.768 -2.86016 -5.81462 0
M  V30 8394 N 798.174 1.49689 -0.493057 0
M  V30 8395 C 799.422 2.02027 0.0541642 0
M  V30 8396 C 799.743 1.37554 1.38217 0
M  V30 8397 O 799.013 0.528174 1.88646 0
M  V30 8398 H 797.593 0.746646 0.0230069 0
M  V30 8399 H 800.255 1.83795 -0.648489 0
M  V30 8400 H 799.351 3.11523 0.189652 0
M  V30 8401 N 799.652 0.226554 1.55963 0
M  V30 8402 C 800.877 -0.411527 2.03276 0
M  V30 8403 C 801.302 -1.52206 1.10521 0
M  V30 8404 O 800.66 -1.81054 0.0943217 0
M  V30 8405 C 800.708 -0.915694 3.4878 0
M  V30 8406 O 799.812 -2.02672 3.59163 0
M  V30 8407 H 799.153 -0.0924907 0.657527 0
M  V30 8408 H 801.683 0.346656 2.01642 0
M  V30 8409 H 801.693 -1.22421 3.892 0
M  V30 8410 H 800.368 -0.102915 4.15773 0
M  V30 8411 H 798.945 -1.72445 3.30632 0
M  V30 8412 N 801.13 -1.57531 -0.0467866 0
M  V30 8413 C 802.36 -1.92417 -0.752279 0
M  V30 8414 C 802.768 -0.823134 -1.70356 0
M  V30 8415 O 802.111 0.210598 -1.82489 0
M  V30 8416 C 802.173 -3.22974 -1.57887 0
M  V30 8417 C 801.837 -4.50045 -0.794285 0
M  V30 8418 C 802.834 -5.19799 -0.102368 0
M  V30 8419 C 800.519 -4.96608 -0.754061 0
M  V30 8420 C 802.513 -6.34385 0.619267 0
M  V30 8421 C 800.2 -6.11093 -0.0286682 0
M  V30 8422 C 801.198 -6.79835 0.656772 0
M  V30 8423 O 800.886 -7.92133 1.37042 0
M  V30 8424 H 800.618 -0.640029 -0.217576 0
M  V30 8425 H 803.172 -2.05395 -0.0137438 0
M  V30 8426 H 801.402 -3.06273 -2.3608 0
M  V30 8427 H 803.091 -3.43319 -2.16533 0
M  V30 8428 H 803.857 -4.8484 -0.124589 0
M  V30 8429 H 799.736 -4.42958 -1.27706 0
M  V30 8430 H 803.28 -6.87975 1.15483 0
M  V30 8431 H 799.177 -6.455 -0.00446214 0
M  V30 8432 H 799.945 -8.08394 1.28227 0
M  V30 8433 N 802.608 0.318715 -1.54344 0
M  V30 8434 C 803.54 1.41364 -1.80413 0
M  V30 8435 C 804.553 1.47627 -0.686294 0
M  V30 8436 O 805.742 1.50264 -0.963486 0
M  V30 8437 C 802.842 2.79867 -1.91123 0
M  V30 8438 C 802.015 2.96749 -3.21339 0
M  V30 8439 C 801.074 4.15642 -3.22689 0
M  V30 8440 O 800.1 4.08571 -3.96306 0
M  V30 8441 N 801.302 5.25416 -2.46817 0
M  V30 8442 H 804.067 1.19363 -2.74905 0
M  V30 8443 H 801.628 0.508722 -1.537 0
M  V30 8444 H 803.62 3.57619 -1.89448 0
M  V30 8445 H 802.19 2.94896 -1.03706 0
M  V30 8446 H 801.41 2.06257 -3.35934 0
M  V30 8447 H 802.698 3.04927 -4.07304 0
M  V30 8448 H 802.096 5.34037 -1.86605 0
M  V30 8449 H 800.653 6.01569 -2.50915 0
M  V30 8450 N 804.086 1.46499 0.581025 0
M  V30 8451 C 805.018 1.53225 1.70455 0
M  V30 8452 C 806.031 0.420443 1.57277 0
M  V30 8453 O 807.22 0.688888 1.64671 0
M  V30 8454 C 804.32 1.39803 3.08721 0
M  V30 8455 C 803.493 2.65132 3.47884 0
M  V30 8456 C 802.552 2.45886 4.65217 0
M  V30 8457 O 801.578 3.19615 4.70993 0
M  V30 8458 N 802.78 1.5216 5.60203 0
M  V30 8459 H 805.545 2.50098 1.65139 0
M  V30 8460 H 803.106 1.42576 0.76705 0
M  V30 8461 H 805.098 1.24697 3.8501 0
M  V30 8462 H 803.668 0.51104 3.08394 0
M  V30 8463 H 802.888 2.95169 2.61284 0
M  V30 8464 H 804.176 3.48385 3.70817 0
M  V30 8465 H 803.574 0.913646 5.58273 0
M  V30 8466 H 802.131 1.43017 6.35916 0
M  V30 8467 N 805.565 -0.825799 1.34232 0
M  V30 8468 C 806.497 -1.94401 1.21413 0
M  V30 8469 C 807.51 -1.6218 0.141902 0
M  V30 8470 O 808.699 -1.74109 0.3935 0
M  V30 8471 C 805.799 -3.28257 0.842635 0
M  V30 8472 C 804.972 -3.88521 2.00924 0
M  V30 8473 C 804.031 -5.00752 1.61661 0
M  V30 8474 O 803.057 -5.19201 2.33279 0
M  V30 8475 N 804.259 -5.78084 0.52911 0
M  V30 8476 H 807.024 -2.05931 2.17744 0
M  V30 8477 H 804.585 -1.00223 1.27149 0
M  V30 8478 H 806.577 -4.00781 0.561822 0
M  V30 8479 H 805.147 -3.12585 -0.0304029 0
M  V30 8480 H 804.367 -3.08425 2.45495 0
M  V30 8481 H 805.655 -4.25516 2.78951 0
M  V30 8482 H 805.053 -5.65661 -0.0663322 0
M  V30 8483 H 803.61 -6.51072 0.308017 0
M  V30 8484 N 807.043 -1.17915 -1.04565 0
M  V30 8485 C 807.973 -0.925033 -2.14395 0
M  V30 8486 C 808.954 0.135375 -1.6956 0
M  V30 8487 O 810.139 -0.0161774 -1.94193 0
M  V30 8488 C 807.269 -0.444469 -3.44444 0
M  V30 8489 C 806.223 -1.44478 -4.02877 0
M  V30 8490 C 805.549 -0.821933 -5.28345 0
M  V30 8491 C 806.849 -2.81995 -4.39632 0
M  V30 8492 H 808.543 -1.84354 -2.35911 0
M  V30 8493 H 806.089 -0.887806 -1.13375 0
M  V30 8494 H 808.042 -0.254078 -4.20633 0
M  V30 8495 H 806.766 0.509592 -3.226 0
M  V30 8496 H 805.425 -1.62203 -3.28764 0
M  V30 8497 H 805.073 0.139161 -5.02807 0
M  V30 8498 H 804.773 -1.48976 -5.68401 0
M  V30 8499 H 806.297 -0.641959 -6.07216 0
M  V30 8500 H 807.711 -2.67952 -5.06828 0
M  V30 8501 H 806.108 -3.45414 -4.90723 0
M  V30 8502 H 807.178 -3.35927 -3.49687 0
M  V30 8503 N 808.521 1.23394 -0.980386 0
M  V30 8504 C 809.469 2.26872 -0.513018 0
M  V30 8505 C 810.463 1.63853 0.429948 0
M  V30 8506 O 811.669 1.77417 0.303842 0
M  V30 8507 H 808.044 0.737398 -0.147473 0
M  V30 8508 H 810.015 2.63654 -1.39746 0
M  V30 8509 C 808.764 3.47289 0.168962 0
M  V30 8510 H 808.087 3.96033 -0.547546 0
M  V30 8511 H 809.527 4.21502 0.459616 0
M  V30 8512 C 807.986 3.06425 1.40019 0
M  V30 8513 O 808.516 3.14708 2.49643 0
M  V30 8514 N 806.722 2.61339 1.27084 0
M  V30 8515 H 806.269 2.54799 0.378872 0
M  V30 8516 H 806.227 2.34364 2.09573 0
M  V30 8517 N 809.999 0.752036 1.385 0
M  V30 8518 C 811.276 0.233075 1.94206 0
M  V30 8519 C 811.656 -1.26838 1.68746 0
M  V30 8520 O 811.004 -2.04214 1.02513 0
M  V30 8521 C 811.214 0.58509 3.44061 0
M  V30 8522 C 812.562 0.543871 4.21102 0
M  V30 8523 O 813.586 0.523291 3.52335 0
M  V30 8524 O 812.445 0.553436 5.4369 0
M  V30 8525 H 809.539 0.0483049 0.825588 0
M  V30 8526 H 812.085 0.832053 1.47902 0
M  V30 8527 H 810.857 1.62212 3.56094 0
M  V30 8528 H 810.48 -0.0419738 3.97578 0
M  V30 8529 N 811.477 -1.49425 0.500989 0
M  V30 8530 C 812.888 -1.86624 0.0532011 0
M  V30 8531 C 813.239 -1.41331 -1.36088 0
M  V30 8532 O 812.364 -0.791195 -2.01418 0
M  V30 8533 C 812.959 -3.38681 0.0897693 0
M  V30 8534 C 811.518 -3.75181 -0.302677 0
M  V30 8535 C 810.665 -2.73419 0.462307 0
M  V30 8536 H 813.616 -1.41743 0.713773 0
M  V30 8537 H 813.637 -3.73902 -0.705528 0
M  V30 8538 H 813.149 -3.71616 1.11907 0
M  V30 8539 H 811.25 -3.47855 -1.33521 0
M  V30 8540 H 811.363 -4.79097 0.0167653 0
M  V30 8541 H 809.727 -2.54548 -0.0878557 0
M  V30 8542 H 810.51 -3.09198 1.49169 0
M  V30 8543 N 812.955 -0.234822 -1.55841 0
M  V30 8544 C 814.201 0.393843 -1.98939 0
M  V30 8545 C 814.534 1.58466 -1.1226 0
M  V30 8546 O 813.809 1.93635 -0.183242 0
M  V30 8547 C 814.092 0.815492 -3.50745 0
M  V30 8548 C 813.945 -0.379878 -4.48193 0
M  V30 8549 C 815.264 1.66687 -4.07312 0
M  V30 8550 H 812.383 0.141681 -0.723253 0
M  V30 8551 H 815.025 -0.333716 -1.87046 0
M  V30 8552 H 813.175 1.43541 -3.6101 0
M  V30 8553 H 814.847 -1.0182 -4.49923 0
M  V30 8554 H 813.09 -1.02507 -4.21515 0
M  V30 8555 H 813.761 -0.0417069 -5.51984 0
M  V30 8556 H 816.237 1.14369 -4.00074 0
M  V30 8557 H 815.113 1.93078 -5.13821 0
M  V30 8558 H 815.374 2.63468 -3.55017 0
M  V30 8559 N 814.433 1.57553 0.0384317 0
M  V30 8560 C 815.363 2.0898 1.04161 0
M  V30 8561 C 816.344 0.99029 1.38301 0
M  V30 8562 O 817.529 1.26499 1.47349 0
M  V30 8563 C 814.659 2.56145 2.34536 0
M  V30 8564 C 813.613 3.70275 2.14663 0
M  V30 8565 C 812.939 4.03612 3.50715 0
M  V30 8566 C 814.239 4.99067 1.54045 0
M  V30 8567 H 815.933 2.93046 0.613548 0
M  V30 8568 H 813.479 1.40973 0.293684 0
M  V30 8569 H 815.432 2.90741 3.05037 0
M  V30 8570 H 814.156 1.6915 2.79385 0
M  V30 8571 H 812.815 3.36013 1.46597 0
M  V30 8572 H 812.463 3.13698 3.93195 0
M  V30 8573 H 812.163 4.80482 3.38247 0
M  V30 8574 H 813.687 4.40735 4.22593 0
M  V30 8575 H 815.101 5.3168 2.14451 0
M  V30 8576 H 813.498 5.80484 1.52178 0
M  V30 8577 H 814.568 4.8226 0.505259 0
M  V30 8578 N 815.911 -0.310526 1.54511 0
M  V30 8579 C 816.874 -1.3657 1.84068 0
M  V30 8580 C 817.874 -1.44123 0.713097 0
M  V30 8581 O 819.064 -1.43924 0.981399 0
M  V30 8582 C 816.196 -2.75162 2.01243 0
M  V30 8583 H 817.389 -1.1161 2.78358 0
M  V30 8584 H 814.942 -0.546699 1.46427 0
M  V30 8585 H 815.677 -3.05359 1.09208 0
M  V30 8586 H 815.462 -2.71071 2.83307 0
M  V30 8587 H 816.952 -3.51473 2.25514 0
M  V30 8588 N 817.389 -1.46805 -0.573248 0
M  V30 8589 C 818.336 -1.58084 -1.68161 0
M  V30 8590 C 819.306 -0.424636 -1.6058 0
M  V30 8591 O 820.491 -0.642623 -1.79652 0
M  V30 8592 C 817.631 -1.58601 -3.06496 0
M  V30 8593 C 816.744 -2.85023 -3.24632 0
M  V30 8594 C 815.879 -2.76981 -4.53271 0
M  V30 8595 C 814.918 -3.983 -4.64783 0
M  V30 8596 N 814.055 -3.88589 -5.84759 0
M  V30 8597 H 818.895 -2.52755 -1.57858 0
M  V30 8598 H 816.432 -1.25385 -0.769218 0
M  V30 8599 H 818.39 -1.56885 -3.86579 0
M  V30 8600 H 817.02 -0.674553 -3.15673 0
M  V30 8601 H 816.072 -2.96678 -2.38089 0
M  V30 8602 H 817.384 -3.7491 -3.29004 0
M  V30 8603 H 816.538 -2.73424 -5.41594 0
M  V30 8604 H 815.277 -1.84751 -4.51352 0
M  V30 8605 H 814.282 -4.02179 -3.74876 0
M  V30 8606 H 815.507 -4.91639 -4.68474 0
M  V30 8607 H 813.453 -2.99151 -5.83819 0
M  V30 8608 H 813.37 -4.7214 -5.90441 0
M  V30 8609 H 814.638 -3.89022 -6.75486 0
M  V30 8610 N 818.867 0.818669 -1.34668 0
M  V30 8611 C 819.814 1.92983 -1.26595 0
M  V30 8612 C 820.784 1.65506 -0.140315 0
M  V30 8613 O 821.969 1.88063 -0.322005 0
M  V30 8614 C 819.109 3.2932 -1.03163 0
M  V30 8615 C 818.222 3.69061 -2.24539 0
M  V30 8616 C 817.357 4.94368 -1.94355 0
M  V30 8617 C 816.396 5.26702 -3.11851 0
M  V30 8618 N 815.533 6.43187 -2.81522 0
M  V30 8619 H 820.373 1.99219 -2.2162 0
M  V30 8620 H 817.91 0.974612 -1.1018 0
M  V30 8621 H 819.868 4.07897 -0.87613 0
M  V30 8622 H 818.498 3.22584 -0.118045 0
M  V30 8623 H 817.55 2.85842 -2.50995 0
M  V30 8624 H 818.862 3.88924 -3.12313 0
M  V30 8625 H 818.016 5.80742 -1.75566 0
M  V30 8626 H 816.755 4.76515 -1.03848 0
M  V30 8627 H 815.76 4.38823 -3.31231 0
M  V30 8628 H 816.985 5.46492 -4.03142 0
M  V30 8629 H 814.931 6.26783 -1.93596 0
M  V30 8630 H 814.848 6.63243 -3.62829 0
M  V30 8631 H 816.116 7.32621 -2.66247 0
M  V30 8632 N 820.346 1.18468 1.03938 0
M  V30 8633 C 821.592 0.982286 1.77423 0
M  V30 8634 C 821.925 -0.48679 1.88 0
M  V30 8635 O 821.2 -1.36146 1.38905 0
M  V30 8636 C 821.483 1.63929 3.20623 0
M  V30 8637 C 821.336 3.18132 3.17982 0
M  V30 8638 C 822.655 1.3536 4.18767 0
M  V30 8639 H 819.774 0.358264 0.644062 0
M  V30 8640 H 822.416 1.46154 1.21405 0
M  V30 8641 H 820.566 1.2318 3.68455 0
M  V30 8642 H 822.238 3.68024 2.78129 0
M  V30 8643 H 820.481 3.50225 2.55978 0
M  V30 8644 H 821.152 3.5924 4.19107 0
M  V30 8645 H 823.628 1.70669 3.79488 0
M  V30 8646 H 822.504 1.83896 5.17178 0
M  V30 8647 H 822.765 0.276722 4.41233 0
M  V30 8648 N 821.824 -1.22873 0.986916 0
M  V30 8649 C 823.235 -1.73264 0.695438 0
M  V30 8650 C 823.586 -1.79679 -0.788023 0
M  V30 8651 O 822.711 -1.43905 -1.61618 0
M  V30 8652 C 823.306 -3.14671 1.2557 0
M  V30 8653 C 821.865 -3.62492 1.01373 0
M  V30 8654 C 821.012 -2.40551 1.37951 0
M  V30 8655 H 823.963 -1.08304 1.15999 0
M  V30 8656 H 823.984 -3.75226 0.631322 0
M  V30 8657 H 823.496 -3.0997 2.33539 0
M  V30 8658 H 821.597 -3.72567 -0.0495917 0
M  V30 8659 H 821.71 -4.48944 1.67289 0
M  V30 8660 H 820.074 -2.41875 0.798033 0
M  V30 8661 H 820.857 -2.38516 2.46911 0
M  V30 8662 N 823.302 -0.75937 -1.38099 0
M  V30 8663 C 824.212 -0.13774 -2.34195 0
M  V30 8664 C 825.228 0.693985 -1.59561 0
M  V30 8665 O 826.404 0.616792 -1.91723 0
M  V30 8666 C 823.469 0.740535 -3.38699 0
M  V30 8667 C 822.53 -0.106225 -4.29169 0
M  V30 8668 C 821.763 0.730225 -5.28681 0
M  V30 8669 O 821.986 1.96796 -5.35376 0
M  V30 8670 O 820.92 0.145969 -6.01723 0
M  V30 8671 H 824.746 -0.931512 -2.89061 0
M  V30 8672 H 822.331 -0.520345 -1.40046 0
M  V30 8673 H 824.213 1.24232 -4.02672 0
M  V30 8674 H 822.888 1.51271 -2.8618 0
M  V30 8675 H 821.795 -0.654088 -3.68337 0
M  V30 8676 H 823.128 -0.841186 -4.84959 0
M  V30 8677 N 824.78 1.49157 -0.508906 0
M  V30 8678 C 826.008 2.06879 0.0293734 0
M  V30 8679 C 826.423 1.36823 1.30095 0
M  V30 8680 O 825.78 0.449034 1.7689 0
M  V30 8681 C 825.831 3.60423 0.278791 0
M  V30 8682 O 825.552 4.27844 -0.942389 0
M  V30 8683 C 827.053 4.34881 0.859825 0
M  V30 8684 H 824.273 0.67057 -0.0240184 0
M  V30 8685 H 826.817 1.91834 -0.708526 0
M  V30 8686 H 824.972 3.75145 0.966689 0
M  V30 8687 H 825.386 5.19671 -0.710097 0
M  V30 8688 H 826.86 5.43161 0.983884 0
M  V30 8689 H 827.337 3.9789 1.85958 0
M  V30 8690 H 827.943 4.24785 0.209152 0
M  V30 8691 N 826.258 0.243083 1.55714 0
M  V30 8692 C 827.505 -0.38272 1.9885 0
M  V30 8693 C 827.833 -1.58225 1.13115 0
M  V30 8694 O 827.088 -1.94861 0.181067 0
M  V30 8695 C 827.387 -0.839621 3.47398 0
M  V30 8696 C 827.053 0.251737 4.50197 0
M  V30 8697 C 825.715 0.551487 4.78029 0
M  V30 8698 C 828.067 0.988728 5.11736 0
M  V30 8699 C 825.395 1.59237 5.64677 0
M  V30 8700 C 827.747 2.0191 5.99512 0
M  V30 8701 C 826.411 2.32554 6.2568 0
M  V30 8702 H 825.681 -0.140047 0.727645 0
M  V30 8703 H 828.328 0.35011 1.88272 0
M  V30 8704 H 826.633 -1.65159 3.55288 0
M  V30 8705 H 828.33 -1.33404 3.78159 0
M  V30 8706 H 824.92 0.00796741 4.28599 0
M  V30 8707 H 829.104 0.7704 4.90284 0
M  V30 8708 H 824.36 1.83517 5.83208 0
M  V30 8709 H 828.534 2.59511 6.46241 0
M  V30 8710 H 826.161 3.13349 6.92616 0
M  V30 8711 N 827.736 -1.57571 -0.0300757 0
M  V30 8712 C 829.147 -1.77567 -0.576802 0
M  V30 8713 C 829.498 -0.874034 -1.75656 0
M  V30 8714 O 828.623 -0.0686124 -2.16291 0
M  V30 8715 C 829.218 -3.22016 -1.05315 0
M  V30 8716 C 827.777 -3.43212 -1.5454 0
M  V30 8717 C 826.924 -2.73061 -0.483033 0
M  V30 8718 H 829.875 -1.57483 0.196151 0
M  V30 8719 H 829.896 -3.28474 -1.92055 0
M  V30 8720 H 829.408 -3.87613 -0.194298 0
M  V30 8721 H 827.509 -2.82788 -2.42615 0
M  V30 8722 H 827.622 -4.5182 -1.5936 0
M  V30 8723 H 825.986 -2.36805 -0.937835 0
M  V30 8724 H 826.769 -3.4134 0.366341 0
M  V30 8725 N 829.214 0.302327 -1.54673 0
M  V30 8726 C 830.124 1.39542 -1.88587 0
M  V30 8727 C 831.14 1.55543 -0.779895 0
M  V30 8728 O 832.316 1.70233 -1.07623 0
M  V30 8729 C 829.381 2.7394 -2.12504 0
M  V30 8730 C 828.442 2.66935 -3.3622 0
M  V30 8731 C 827.675 3.94923 -3.58987 0
M  V30 8732 O 827.898 4.94218 -2.84789 0
M  V30 8733 O 826.832 3.96896 -4.52501 0
M  V30 8734 H 830.658 1.13784 -2.81579 0
M  V30 8735 H 828.243 0.49827 -1.40846 0
M  V30 8736 H 830.125 3.5346 -2.29443 0
M  V30 8737 H 828.8 2.99544 -1.22698 0
M  V30 8738 H 827.707 1.85892 -3.24646 0
M  V30 8739 H 829.04 2.46283 -4.26152 0
M  V30 8740 N 830.692 1.47107 0.565454 0
M  V30 8741 C 831.622 1.61846 1.68309 0
M  V30 8742 C 832.603 0.468159 1.63531 0
M  V30 8743 O 833.788 0.696504 1.8128 0
M  V30 8744 C 830.918 1.62474 3.06952 0
M  V30 8745 C 829.872 2.76649 3.26572 0
M  V30 8746 C 829.198 2.62345 4.65917 0
M  V30 8747 C 830.498 4.18319 3.12741 0
M  V30 8748 H 832.192 2.55407 1.5623 0
M  V30 8749 H 829.738 1.22916 0.750179 0
M  V30 8750 H 831.691 1.71378 3.84977 0
M  V30 8751 H 830.415 0.654692 3.19971 0
M  V30 8752 H 829.074 2.67242 2.50952 0
M  V30 8753 H 828.722 1.63386 4.75725 0
M  V30 8754 H 828.422 3.38936 4.79996 0
M  V30 8755 H 829.946 2.73165 5.46089 0
M  V30 8756 H 831.36 4.28745 3.80593 0
M  V30 8757 H 829.757 4.95632 3.38333 0
M  V30 8758 H 830.827 4.37263 2.09592 0
M  V30 8759 N 832.17 -0.811516 1.35101 0
M  V30 8760 C 833.117 -1.92308 1.27617 0
M  V30 8761 C 834.087 -1.6543 0.149091 0
M  V30 8762 O 835.272 -1.8789 0.331974 0
M  V30 8763 C 832.412 -3.28768 1.04908 0
M  V30 8764 C 831.525 -3.67865 2.26493 0
M  V30 8765 C 830.66 -4.9333 1.96974 0
M  V30 8766 C 829.699 -5.25041 3.1464 0
M  V30 8767 N 828.836 -6.41685 2.84929 0
M  V30 8768 H 833.676 -1.98041 2.22674 0
M  V30 8769 H 831.213 -0.968755 1.10696 0
M  V30 8770 H 833.171 -4.07426 0.897749 0
M  V30 8771 H 831.801 -3.22517 0.135151 0
M  V30 8772 H 830.853 -2.84507 2.52507 0
M  V30 8773 H 832.165 -3.87263 3.14371 0
M  V30 8774 H 831.319 -5.79803 1.78643 0
M  V30 8775 H 830.058 -4.75958 1.06374 0
M  V30 8776 H 829.063 -4.3706 3.33554 0
M  V30 8777 H 830.288 -5.44346 4.06035 0
M  V30 8778 H 828.234 -6.25747 1.96918 0
M  V30 8779 H 828.151 -6.6131 3.66341 0
M  V30 8780 H 829.419 -7.31198 2.70128 0
M  V30 8781 N 833.648 -1.19017 -1.03309 0
M  V30 8782 C 835.059 -0.993206 -1.5809 0
M  V30 8783 C 835.41 0.45505 -1.9085 0
M  V30 8784 O 834.535 1.33372 -1.70414 0
M  V30 8785 C 835.13 -1.79661 -2.87241 0
M  V30 8786 C 833.689 -1.64377 -3.38611 0
M  V30 8787 C 832.836 -1.78628 -2.12102 0
M  V30 8788 H 835.787 -1.3345 -0.858879 0
M  V30 8789 H 835.808 -1.29019 -3.57958 0
M  V30 8790 H 835.32 -2.85061 -2.63366 0
M  V30 8791 H 833.421 -0.615447 -3.67482 0
M  V30 8792 H 833.534 -2.44651 -4.11926 0
M  V30 8793 H 831.898 -1.21648 -2.23772 0
M  V30 8794 H 832.681 -2.8548 -1.90673 0
M  V30 8795 N 835.127 1.22348 -0.993418 0
M  V30 8796 C 836.375 1.90733 -0.668246 0
M  V30 8797 C 836.696 1.77732 0.802261 0
M  V30 8798 O 835.966 1.16486 1.57505 0
M  V30 8799 H 834.546 0.705966 -0.244174 0
M  V30 8800 H 837.208 1.48691 -1.26004 0
M  V30 8801 H 836.304 2.97883 -0.931239 0
M  V30 8802 N 836.605 0.766683 1.37694 0
M  V30 8803 C 837.515 0.150158 2.34119 0
M  V30 8804 C 838.531 -0.685513 1.59927 0
M  V30 8805 O 839.707 -0.606616 1.92047 0
M  V30 8806 C 836.772 -0.722562 3.39087 0
M  V30 8807 C 835.833 0.128983 4.29106 0
M  V30 8808 C 835.066 -0.702178 5.29061 0
M  V30 8809 O 835.289 -1.93954 5.36412 0
M  V30 8810 O 834.223 -0.114056 6.01792 0
M  V30 8811 H 838.049 0.946829 2.88563 0
M  V30 8812 H 835.634 0.527765 1.39768 0
M  V30 8813 H 837.516 -1.22095 4.03325 0
M  V30 8814 H 836.191 -1.49751 2.86978 0
M  V30 8815 H 835.098 0.673612 3.67985 0
M  V30 8816 H 836.431 0.866892 4.84506 0
M  V30 8817 N 838.083 -1.48885 0.516809 0
M  V30 8818 C 839.308 -2.0739 -0.0205201 0
M  V30 8819 C 839.733 -1.37259 -1.28614 0
M  V30 8820 O 839.091 -0.434304 -1.76021 0
M  V30 8821 C 839.139 -3.59793 -0.24104 0
M  V30 8822 O 838.243 -3.90957 -1.31251 0
M  V30 8823 H 837.584 -0.663167 0.0332564 0
M  V30 8824 H 840.114 -1.91477 0.720956 0
M  V30 8825 H 840.124 -4.0531 -0.467737 0
M  V30 8826 H 838.799 -4.10244 0.68356 0
M  V30 8827 H 837.376 -3.57234 -1.06951 0
M  V30 8828 N 839.561 -0.251338 -1.55583 0
M  V30 8829 C 840.977 0.103409 -1.59265 0
M  V30 8830 C 841.177 1.56559 -1.26852 0
M  V30 8831 O 840.233 2.31071 -1.01796 0
M  V30 8832 C 841.546 -0.249781 -2.99661 0
M  V30 8833 C 843.094 -0.194442 -3.12395 0
M  V30 8834 C 843.569 -0.521728 -4.55019 0
M  V30 8835 N 845.06 -0.472393 -4.60785 0
M  V30 8836 C 845.795 -0.698737 -5.69127 0
M  V30 8837 N 845.291 -0.988443 -6.85713 0
M  V30 8838 N 847.084 -0.629143 -5.58568 0
M  V30 8839 H 839.235 -1.20484 -1.74921 0
M  V30 8840 H 841.498 -0.485092 -0.814488 0
M  V30 8841 H 841.204 -1.26577 -3.28133 0
M  V30 8842 H 841.078 0.420973 -3.74844 0
M  V30 8843 H 843.465 0.812229 -2.83702 0
M  V30 8844 H 843.546 -0.899111 -2.39478 0
M  V30 8845 H 843.19 -1.52597 -4.84434 0
M  V30 8846 H 843.12 0.204468 -5.26203 0
M  V30 8847 H 845.611 -0.257386 -3.77022 0
M  V30 8848 H 845.924 -1.14846 -7.64219 0
M  V30 8849 H 844.269 -1.02596 -6.87386 0
M  V30 8850 H 847.46 -0.402826 -4.66364 0
M  V30 8851 H 847.633 -0.808935 -6.42931 0
M  V30 8852 N 841.039 1.57585 0.0217189 0
M  V30 8853 C 841.989 2.03506 1.02807 0
M  V30 8854 C 842.973 0.925716 1.31603 0
M  V30 8855 O 844.165 1.18958 1.31065 0
M  V30 8856 C 841.294 2.52407 2.32693 0
M  V30 8857 C 840.38 3.70176 2.06955 0
M  V30 8858 N 840.771 4.82641 1.513 0
M  V30 8859 C 839.069 3.77691 2.37204 0
M  V30 8860 C 839.77 5.64218 1.41536 0
M  V30 8861 N 838.746 5.09557 1.89348 0
M  V30 8862 H 842.548 2.87878 0.591899 0
M  V30 8863 H 840.062 1.60793 0.227875 0
M  V30 8864 H 842.059 2.83569 3.05605 0
M  V30 8865 H 840.719 1.69444 2.76982 0
M  V30 8866 H 841.73 5.03931 1.19472 0
M  V30 8867 H 838.407 3.05542 2.84517 0
M  V30 8868 H 839.797 6.64576 0.989333 0
M  V30 8869 N 842.517 -0.29412 1.54831 0
M  V30 8870 C 843.745 -1.04724 1.78439 0
M  V30 8871 C 844.16 -1.80695 0.547239 0
M  V30 8872 O 843.517 -1.75989 -0.483141 0
M  V30 8873 C 843.568 -2.02242 2.99634 0
M  V30 8874 O 843.289 -1.29352 4.18568 0
M  V30 8875 C 844.79 -2.89537 3.35683 0
M  V30 8876 H 842.01 -0.310285 0.594949 0
M  V30 8877 H 844.554 -0.331306 2.01798 0
M  V30 8878 H 842.709 -2.69328 2.78462 0
M  V30 8879 H 843.123 -1.94901 4.86943 0
M  V30 8880 H 844.597 -3.538 4.23709 0
M  V30 8881 H 845.074 -3.58201 2.54143 0
M  V30 8882 H 845.68 -2.27973 3.59038 0
M  V30 8883 N 843.995 -1.47404 -0.557645 0
M  V30 8884 C 845.22 -1.57868 -1.34508 0
M  V30 8885 C 845.645 -0.229151 -1.86699 0
M  V30 8886 O 845.003 0.794908 -1.62944 0
M  V30 8887 C 845.051 -2.60712 -2.49122 0
M  V30 8888 O 844.155 -2.15952 -3.51338 0
M  V30 8889 H 843.496 -0.530335 -0.399551 0
M  V30 8890 H 846.026 -1.93181 -0.673954 0
M  V30 8891 H 846.036 -2.81118 -2.95697 0
M  V30 8892 H 844.711 -3.58701 -2.10491 0
M  V30 8893 H 843.288 -2.05644 -3.11071 0
M  V30 8894 N 845.473 0.80434 -1.35529 0
M  V30 8895 C 846.75 1.5486 -1.1949 0
M  V30 8896 C 847.13 2.09897 0.22506 0
M  V30 8897 O 846.478 1.92643 1.22886 0
M  V30 8898 C 846.688 2.65535 -2.26478 0
M  V30 8899 C 848.036 3.33814 -2.62399 0
M  V30 8900 O 849.06 2.75807 -2.25409 0
M  V30 8901 O 847.919 4.38612 -3.26009 0
M  V30 8902 H 845.013 0.68433 -0.464351 0
M  V30 8903 H 847.559 0.844107 -1.47217 0
M  V30 8904 H 846.331 2.22754 -3.21709 0
M  V30 8905 H 845.954 3.43617 -2.00033 0
M  V30 8906 N 846.951 1.19563 1.02676 0
M  V30 8907 C 847.901 0.903055 2.09354 0
M  V30 8908 C 848.885 -0.133009 1.60349 0
M  V30 8909 O 850.077 0.0729744 1.7685 0
M  V30 8910 C 847.206 0.445852 3.40392 0
M  V30 8911 C 846.292 1.51477 3.96126 0
M  V30 8912 N 846.683 2.73474 4.25495 0
M  V30 8913 C 844.981 1.37856 4.2416 0
M  V30 8914 C 845.682 3.42348 4.7029 0
M  V30 8915 N 844.658 2.69746 4.71952 0
M  V30 8916 H 848.46 1.83023 2.29956 0
M  V30 8917 H 845.974 1.08812 1.20556 0
M  V30 8918 H 847.971 0.21769 4.16331 0
M  V30 8919 H 846.631 -0.47482 3.2121 0
M  V30 8920 H 847.642 3.10217 4.14711 0
M  V30 8921 H 844.319 0.521512 4.1423 0
M  V30 8922 H 845.709 4.46686 5.01917 0
M  V30 8923 N 848.429 -1.21819 0.999893 0
M  V30 8924 C 849.362 -2.22635 0.500887 0
M  V30 8925 C 850.34 -1.56459 -0.442636 0
M  V30 8926 O 851.524 -1.84902 -0.366551 0
M  V30 8927 C 848.651 -3.37598 -0.273046 0
M  V30 8928 C 847.697 -4.22006 0.617511 0
M  V30 8929 S 848.53 -4.93583 2.07693 0
M  V30 8930 C 849.686 -6.1198 1.31269 0
M  V30 8931 H 849.919 -2.64618 1.35516 0
M  V30 8932 H 847.452 -1.31606 0.807419 0
M  V30 8933 H 849.41 -4.04251 -0.713515 0
M  V30 8934 H 848.071 -2.94108 -1.10268 0
M  V30 8935 H 847.264 -5.03995 0.0216543 0
M  V30 8936 H 846.866 -3.6052 0.99504 0
M  V30 8937 H 849.158 -6.74979 0.583933 0
M  V30 8938 H 850.101 -6.75991 2.10811 0
M  V30 8939 H 850.509 -5.5847 0.822901 0
M  V30 8940 N 849.908 -0.773975 -1.37286 0
M  V30 8941 C 851.133 -0.349561 -2.04433 0
M  V30 8942 C 851.558 1.02082 -1.5799 0
M  V30 8943 O 850.916 1.65458 -0.741172 0
M  V30 8944 C 850.964 -0.404292 -3.58326 0
M  V30 8945 O 850.068 0.594447 -4.08093 0
M  V30 8946 H 849.409 -0.150959 -0.646612 0
M  V30 8947 H 851.939 -1.05079 -1.75555 0
M  V30 8948 H 851.949 -0.262378 -4.07155 0
M  V30 8949 H 850.624 -1.40403 -3.91484 0
M  V30 8950 H 849.201 0.415468 -3.70578 0
M  V30 8951 N 851.386 1.48609 -0.524698 0
M  V30 8952 C 852.635 2.01696 0.0132937 0
M  V30 8953 C 852.948 1.40751 1.35825 0
M  V30 8954 O 854.154 1.85304 1.9843 0
M  V30 8955 C 852.61 3.59824 0.0741012 0
M  V30 8956 C 852.218 4.2975 -1.26564 0
M  V30 8957 C 853.962 4.20774 0.5612 0
M  V30 8958 C 851.869 5.79798 -1.16571 0
M  V30 8959 H 850.799 0.753949 0.00873931 0
M  V30 8960 H 853.45 1.70922 -0.667684 0
M  V30 8961 H 851.832 3.87416 0.820043 0
M  V30 8962 H 853.006 4.13836 -2.02674 0
M  V30 8963 H 851.321 3.80649 -1.68806 0
M  V30 8964 H 853.918 5.30687 0.653853 0
M  V30 8965 H 854.261 3.85734 1.56573 0
M  V30 8966 H 854.794 3.97591 -0.128901 0
M  V30 8967 H 851.533 6.19403 -2.14523 0
M  V30 8968 H 851.053 5.9814 -0.445894 0
M  V30 8969 H 852.732 6.41337 -0.854186 0
M  V30 8970 N 852.864 0.259585 1.55447 0
M  V30 8971 C 854.094 -0.364863 2.03353 0
M  V30 8972 C 854.502 -1.5116 1.13786 0
M  V30 8973 O 853.845 -1.83109 0.147283 0
M  V30 8974 C 853.907 -0.922587 3.4746 0
M  V30 8975 C 853.571 0.0935207 4.56904 0
M  V30 8976 C 854.568 0.907571 5.11917 0
M  V30 8977 C 852.253 0.223276 5.01804 0
M  V30 8978 C 854.247 1.83771 6.10333 0
M  V30 8979 C 851.934 1.15691 6.00049 0
M  V30 8980 C 852.932 1.96264 6.54194 0
M  V30 8981 O 852.62 2.88052 7.50521 0
M  V30 8982 H 852.352 -0.0893313 0.670072 0
M  V30 8983 H 854.906 0.384821 2.01763 0
M  V30 8984 H 853.136 -1.72206 3.4624 0
M  V30 8985 H 854.825 -1.45846 3.78792 0
M  V30 8986 H 855.591 0.817979 4.78052 0
M  V30 8987 H 851.47 -0.393834 4.59315 0
M  V30 8988 H 855.014 2.46703 6.52521 0
M  V30 8989 H 850.911 1.24738 6.33333 0
M  V30 8990 H 851.679 2.82557 7.68182 0
M  V30 8991 N 854.342 -1.57594 -0.0133615 0
M  V30 8992 C 855.289 -2.07574 -1.00905 0
M  V30 8993 C 856.259 -0.968231 -1.34961 0
M  V30 8994 O 857.444 -1.23981 -1.45028 0
M  V30 8995 C 854.584 -2.5728 -2.30002 0
M  V30 8996 C 853.697 -3.81881 -2.01967 0
M  V30 8997 C 852.832 -4.20139 -3.25049 0
M  V30 8998 C 851.871 -5.37614 -2.92639 0
M  V30 8999 N 851.008 -5.71229 -4.08218 0
M  V30 9000 H 855.848 -2.92382 -0.575899 0
M  V30 9001 H 853.385 -1.4455 -0.272722 0
M  V30 9002 H 855.343 -2.84171 -3.05454 0
M  V30 9003 H 853.973 -1.75365 -2.71011 0
M  V30 9004 H 853.025 -3.61979 -1.16942 0
M  V30 9005 H 854.337 -4.67441 -1.74069 0
M  V30 9006 H 853.491 -4.48242 -4.08857 0
M  V30 9007 H 852.23 -3.33262 -3.56073 0
M  V30 9008 H 851.235 -5.09248 -2.07235 0
M  V30 9009 H 852.46 -6.26157 -2.62876 0
M  V30 9010 H 850.406 -4.8731 -4.39164 0
M  V30 9011 H 850.323 -6.51333 -3.83799 0
M  V30 9012 H 851.591 -6.03917 -4.92854 0
M  V30 9013 N 855.82 0.285905 -1.54985 0
M  V30 9014 C 857.067 1.0192 -1.74982 0
M  V30 9015 C 857.395 1.86743 -0.543816 0
M  V30 9016 O 856.65 1.89874 0.473972 0
M  V30 9017 C 856.949 1.94193 -3.0004 0
M  V30 9018 C 856.615 1.25225 -4.33162 0
M  V30 9019 C 855.277 1.06149 -4.69346 0
M  V30 9020 C 857.629 0.760427 -5.15623 0
M  V30 9021 C 854.957 0.365991 -5.85557 0
M  V30 9022 C 857.309 0.0785787 -6.32551 0
M  V30 9023 C 855.973 -0.124002 -6.67385 0
M  V30 9024 H 855.243 0.372951 -0.640304 0
M  V30 9025 H 857.89 0.292652 -1.89251 0
M  V30 9026 H 856.195 2.73426 -2.80616 0
M  V30 9027 H 857.892 2.51029 -3.12707 0
M  V30 9028 H 854.482 1.41081 -4.04715 0
M  V30 9029 H 858.666 0.895466 -4.88155 0
M  V30 9030 H 853.922 0.198193 -6.11079 0
M  V30 9031 H 858.096 -0.310339 -6.95708 0
M  V30 9032 H 855.723 -0.664918 -7.57287 0
M  V30 9033 N 857.298 1.47698 0.54982 0
M  V30 9034 C 858.231 1.55288 1.67215 0
M  V30 9035 C 859.209 0.404533 1.57487 0
M  V30 9036 O 860.393 0.613372 1.78241 0
M  V30 9037 C 857.52 1.46233 3.05505 0
M  V30 9038 C 856.566 2.65662 3.33655 0
M  V30 9039 S 857.399 4.278 3.22098 0
M  V30 9040 C 858.555 4.21311 4.62869 0
M  V30 9041 H 858.788 2.50238 1.60524 0
M  V30 9042 H 856.321 1.35987 0.731227 0
M  V30 9043 H 858.279 1.41696 3.85269 0
M  V30 9044 H 856.94 0.526543 3.09655 0
M  V30 9045 H 856.133 2.55411 4.3449 0
M  V30 9046 H 855.735 2.67359 2.61524 0
M  V30 9047 H 858.027 3.90021 5.53977 0
M  V30 9048 H 858.97 5.22257 4.78177 0
M  V30 9049 H 859.378 3.52063 4.41262 0
M  V30 9050 N 858.776 -0.797141 1.35954 0
M  V30 9051 C 860.024 -1.55161 1.29497 0
M  V30 9052 C 860.345 -1.94582 -0.127659 0
M  V30 9053 O 859.615 -1.64343 -1.06622 0
M  V30 9054 H 858.195 -0.575413 0.47635 0
M  V30 9055 H 860.857 -0.950282 1.70164 0
M  V30 9056 H 859.953 -2.46272 1.9172 0
M  V30 9057 N 860.254 -1.20106 -1.0204 0
M  V30 9058 C 861.67 -0.955099 -1.27867 0
M  V30 9059 C 861.87 0.367595 -1.98119 0
M  V30 9060 O 860.926 1.09705 -2.27423 0
M  V30 9061 C 862.239 -2.13507 -2.11744 0
M  V30 9062 C 863.787 -2.17563 -2.25023 0
M  V30 9063 C 864.262 -3.35035 -3.12275 0
M  V30 9064 N 865.753 -3.35024 -3.19864 0
M  V30 9065 C 866.488 -4.22566 -3.8759 0
M  V30 9066 N 865.984 -5.20278 -4.57474 0
M  V30 9067 N 867.777 -4.10418 -3.84075 0
M  V30 9068 H 859.928 -2.05193 -0.54861 0
M  V30 9069 H 862.191 -0.897689 -0.304728 0
M  V30 9070 H 861.897 -3.09275 -1.67456 0
M  V30 9071 H 861.771 -2.11281 -3.12474 0
M  V30 9072 H 864.158 -1.22359 -2.68537 0
M  V30 9073 H 864.239 -2.23838 -1.23815 0
M  V30 9074 H 863.883 -4.30522 -2.69468 0
M  V30 9075 H 863.813 -3.25996 -4.13563 0
M  V30 9076 H 866.304 -2.64299 -2.701 0
M  V30 9077 H 866.617 -5.83408 -5.06809 0
M  V30 9078 H 864.962 -5.24219 -4.56311 0
M  V30 9079 H 868.153 -3.33353 -3.28623 0
M  V30 9080 H 868.326 -4.78854 -4.36581 0
M  V30 9081 N 861.732 1.21287 -1.00634 0
M  V30 9082 C 862.957 1.94925 -0.708441 0
M  V30 9083 C 863.382 1.73659 0.722783 0
M  V30 9084 O 862.74 1.02429 1.49593 0
M  V30 9085 C 862.788 3.45377 -1.03667 0
M  V30 9086 O 861.892 4.12153 -0.142661 0
M  V30 9087 H 861.233 0.609338 -0.263824 0
M  V30 9088 H 863.763 1.54008 -1.34695 0
M  V30 9089 H 863.773 3.95954 -0.984086 0
M  V30 9090 H 862.448 3.6018 -2.0795 0
M  V30 9091 H 861.025 3.72048 -0.251888 0
M  V30 9092 N 863.21 0.781244 1.36873 0
M  V30 9093 C 864.16 0.147313 2.27524 0
M  V30 9094 C 865.144 -0.663928 1.46563 0
M  V30 9095 O 866.336 -0.525343 1.69024 0
M  V30 9096 C 863.465 -0.723511 3.35589 0
M  V30 9097 C 862.551 0.0960763 4.23991 0
M  V30 9098 N 862.942 1.14649 4.92635 0
M  V30 9099 C 861.24 -0.126397 4.45821 0
M  V30 9100 C 861.941 1.64474 5.57964 0
M  V30 9101 N 860.917 0.955316 5.3514 0
M  V30 9102 H 864.719 0.951406 2.78075 0
M  V30 9103 H 862.233 0.619913 1.50103 0
M  V30 9104 H 864.23 -1.19351 3.99451 0
M  V30 9105 H 862.89 -1.52624 2.86594 0
M  V30 9106 H 863.901 1.5288 4.94821 0
M  V30 9107 H 860.578 -0.900284 4.07678 0
M  V30 9108 H 861.968 2.52124 6.22803 0
M  V30 9109 N 864.689 -1.48329 0.532571 0
M  V30 9110 C 865.936 -2.025 -0.000582356 0
M  V30 9111 C 866.264 -1.40942 -1.34036 0
M  V30 9112 O 865.519 -0.545545 -1.87942 0
M  V30 9113 C 865.818 -3.57 -0.168943 0
M  V30 9114 C 865.484 -4.37357 1.0968 0
M  V30 9115 C 864.146 -4.59033 1.44369 0
M  V30 9116 C 866.498 -4.83882 1.93669 0
M  V30 9117 C 863.826 -5.24481 2.62939 0
M  V30 9118 C 866.178 -5.50637 3.11419 0
M  V30 9119 C 864.842 -5.70551 3.46451 0
M  V30 9120 H 864.112 -0.741 -0.000213099 0
M  V30 9121 H 866.759 -1.78282 0.699117 0
M  V30 9122 H 865.064 -3.80072 -0.951429 0
M  V30 9123 H 866.761 -3.9654 -0.596422 0
M  V30 9124 H 863.351 -4.20748 0.816655 0
M  V30 9125 H 867.535 -4.66936 1.6818 0
M  V30 9126 H 862.791 -5.38096 2.9028 0
M  V30 9127 H 866.965 -5.85655 3.76803 0
M  V30 9128 H 864.592 -6.21037 4.38425 0
M  V30 9129 N 866.167 -0.267825 -1.55308 0
M  V30 9130 C 867.097 0.616585 -2.25212 0
M  V30 9131 C 868.078 1.16472 -1.23969 0
M  V30 9132 O 869.263 1.20021 -1.52672 0
M  V30 9133 C 866.393 1.80412 -2.96764 0
M  V30 9134 C 865.347 1.38784 -4.04874 0
M  V30 9135 C 864.673 2.65789 -4.63961 0
M  V30 9136 C 865.973 0.543415 -5.19465 0
M  V30 9137 H 867.667 0.0336257 -2.99381 0
M  V30 9138 H 865.213 0.0147328 -1.43992 0
M  V30 9139 H 867.166 2.42866 -3.44375 0
M  V30 9140 H 865.89 2.4128 -2.20118 0
M  V30 9141 H 864.549 0.786541 -3.58063 0
M  V30 9142 H 864.197 3.24899 -3.83992 0
M  V30 9143 H 863.897 2.38651 -5.36954 0
M  V30 9144 H 865.421 3.29104 -5.14318 0
M  V30 9145 H 866.835 1.07277 -5.63174 0
M  V30 9146 H 865.232 0.367219 -5.98975 0
M  V30 9147 H 866.302 -0.439534 -4.82904 0
M  V30 9148 N 867.645 1.57599 0.00500368 0
M  V30 9149 C 868.885 1.92205 0.695456 0
M  V30 9150 C 869.249 0.868894 1.71214 0
M  V30 9151 O 870.45 1.10004 2.4526 0
M  V30 9152 C 868.721 3.31882 1.32625 0
M  V30 9153 S 870.28 3.88364 2.04252 0
M  V30 9154 H 867.098 0.672826 0.22984 0
M  V30 9155 H 869.7 1.95435 -0.0504824 0
M  V30 9156 H 868.404 4.06375 0.573396 0
M  V30 9157 H 867.935 3.32013 2.11023 0
M  V30 9158 H 869.95 3.69035 3.31704 0
M  V30 9159 N 869.123 -0.277682 1.55134 0
M  V30 9160 C 870.351 -1.02826 1.7954 0
M  V30 9161 C 870.766 -1.80105 0.566373 0
M  V30 9162 O 870.123 -1.76491 -0.464448 0
M  V30 9163 C 870.174 -1.99053 3.01762 0
M  V30 9164 O 869.895 -1.24906 4.19917 0
M  V30 9165 C 871.396 -2.85961 3.38735 0
M  V30 9166 H 868.616 -0.303958 0.598206 0
M  V30 9167 H 871.16 -0.309884 2.02138 0
M  V30 9168 H 869.315 -2.66359 2.81303 0
M  V30 9169 H 869.729 -1.89725 4.88983 0
M  V30 9170 H 871.203 -3.49286 4.27438 0
M  V30 9171 H 871.68 -3.55486 2.57928 0
M  V30 9172 H 872.286 -2.24152 3.61436 0
M  V30 9173 N 870.601 -1.47988 -0.541979 0
M  V30 9174 C 871.848 -1.55393 -1.29843 0
M  V30 9175 C 872.176 -0.222668 -1.93221 0
M  V30 9176 O 871.431 0.785936 -1.79225 0
M  V30 9177 C 871.73 -2.63189 -2.41798 0
M  V30 9178 C 871.396 -4.05999 -1.96151 0
M  V30 9179 C 870.058 -4.44872 -1.83419 0
M  V30 9180 C 872.41 -4.95545 -1.61507 0
M  V30 9181 C 869.738 -5.71108 -1.34361 0
M  V30 9182 C 872.09 -6.22259 -1.13915 0
M  V30 9183 C 870.754 -6.59998 -0.997911 0
M  V30 9184 H 870.024 -0.568623 -0.47513 0
M  V30 9185 H 872.671 -1.81654 -0.606142 0
M  V30 9186 H 870.976 -2.30743 -3.16647 0
M  V30 9187 H 872.673 -2.66138 -2.99953 0
M  V30 9188 H 869.263 -3.75294 -2.07008 0
M  V30 9189 H 873.447 -4.662 -1.70209 0
M  V30 9190 H 868.703 -5.99083 -1.22103 0
M  V30 9191 H 872.877 -6.91048 -0.861755 0
M  V30 9192 H 870.504 -7.57704 -0.615561 0
M  V30 9193 N 872.079 0.78992 -1.36375 0
M  V30 9194 C 873.307 1.57873 -1.3373 0
M  V30 9195 C 873.722 1.88624 0.0815544 0
M  V30 9196 O 873.079 1.50085 1.03831 0
M  V30 9197 C 873.13 2.90003 -2.15825 0
M  V30 9198 O 872.851 2.60578 -3.5218 0
M  V30 9199 C 874.352 3.84309 -2.20955 0
M  V30 9200 H 871.572 0.489685 -0.458748 0
M  V30 9201 H 874.116 0.980436 -1.79465 0
M  V30 9202 H 872.271 3.46303 -1.73646 0
M  V30 9203 H 872.685 3.4506 -3.95011 0
M  V30 9204 H 874.159 4.74081 -2.82756 0
M  V30 9205 H 874.636 4.22121 -1.21287 0
M  V30 9206 H 875.242 3.33942 -2.63368 0
M  V30 9207 N 873.557 1.20646 1.01402 0
M  V30 9208 C 874.804 1.01819 1.7504 0
M  V30 9209 C 875.132 -0.449386 1.89237 0
M  V30 9210 O 874.387 -1.34985 1.41695 0
M  V30 9211 C 874.686 1.64991 3.17037 0
M  V30 9212 C 874.352 3.14808 3.22811 0
M  V30 9213 C 873.014 3.55692 3.24094 0
M  V30 9214 C 875.366 4.108 3.2077 0
M  V30 9215 C 872.694 4.9109 3.2101 0
M  V30 9216 C 875.046 5.46147 3.19227 0
M  V30 9217 C 873.71 5.86441 3.18815 0
M  V30 9218 H 872.98 0.372582 0.640518 0
M  V30 9219 H 875.627 1.50108 1.18911 0
M  V30 9220 H 873.932 1.08971 3.76341 0
M  V30 9221 H 875.629 1.47937 3.72714 0
M  V30 9222 H 872.219 2.8224 3.2255 0
M  V30 9223 H 876.403 3.80246 3.18946 0
M  V30 9224 H 871.659 5.21569 3.19023 0
M  V30 9225 H 875.833 6.20272 3.166 0
M  V30 9226 H 873.46 6.91328 3.16179 0
M  V30 9227 N 875.035 -1.20752 1.01276 0
M  V30 9228 C 875.983 -2.25432 0.572989 0
M  V30 9229 C 876.977 -1.64935 -0.386354 0
M  V30 9230 O 878.183 -1.7816 -0.256696 0
M  V30 9231 H 874.558 -0.733229 0.166972 0
M  V30 9232 H 876.529 -2.59856 1.46687 0
M  V30 9233 C 875.278 -3.47615 -0.0768249 0
M  V30 9234 H 874.601 -3.94442 0.652354 0
M  V30 9235 H 876.041 -4.22572 -0.3477 0
M  V30 9236 C 874.5 -3.1003 -1.31845 0
M  V30 9237 O 875.03 -3.21216 -2.41211 0
M  V30 9238 N 873.236 -2.64616 -1.20111 0
M  V30 9239 H 872.783 -2.55714 -0.311184 0
M  V30 9240 H 872.741 -2.39838 -2.03286 0
M  V30 9241 N 876.513 -0.788492 -1.36457 0
M  V30 9242 C 877.738 -0.371224 -2.04051 0
M  V30 9243 C 878.163 1.004 -1.59064 0
M  V30 9244 O 877.521 1.64663 -0.758679 0
M  V30 9245 C 877.569 -0.442275 -3.57877 0
M  V30 9246 O 876.673 0.55113 -4.08701 0
M  V30 9247 H 876.014 -0.157808 -0.644975 0
M  V30 9248 H 878.544 -1.06935 -1.74431 0
M  V30 9249 H 878.554 -0.305548 -4.06854 0
M  V30 9250 H 877.229 -1.44547 -3.89973 0
M  V30 9251 H 875.806 0.37614 -3.70998 0
M  V30 9252 N 877.991 1.48044 -0.54043 0
M  V30 9253 C 878.939 2.31461 0.229862 0
M  V30 9254 C 879.933 1.41884 0.925495 0
M  V30 9255 O 881.139 1.58736 0.848689 0
M  V30 9256 H 877.514 0.746227 0.0929975 0
M  V30 9257 H 879.485 2.94297 -0.493118 0
M  V30 9258 C 878.234 3.24172 1.25729 0
M  V30 9259 H 877.557 3.93052 0.731426 0
M  V30 9260 H 878.997 3.85404 1.76747 0
M  V30 9261 C 877.456 2.4651 2.2964 0
M  V30 9262 O 877.986 2.19742 3.36268 0
M  V30 9263 N 876.192 2.07817 2.03127 0
M  V30 9264 H 875.739 2.29786 1.1643 0
M  V30 9265 H 875.697 1.56168 2.72872 0
M  V30 9266 N 879.47 0.276058 1.55163 0
M  V30 9267 C 880.418 -0.626978 2.2399 0
M  V30 9268 C 881.412 -1.15708 1.23725 0
M  V30 9269 O 882.618 -1.1106 1.41653 0
M  V30 9270 H 878.993 -0.220742 0.718872 0
M  V30 9271 H 880.964 -0.0236569 2.98391 0
M  V30 9272 C 879.713 -1.79935 2.97521 0
M  V30 9273 H 879.036 -1.40064 3.74463 0
M  V30 9274 H 880.476 -2.40781 3.48999 0
M  V30 9275 C 878.935 -2.68838 2.03046 0
M  V30 9276 O 879.465 -3.69224 1.58229 0
M  V30 9277 N 877.671 -2.36028 1.69527 0
M  V30 9278 H 877.218 -1.54442 2.06169 0
M  V30 9279 H 877.176 -2.95782 1.06586 0
M  V30 9280 N 880.948 -1.576 0.00335426 0
M  V30 9281 C 881.895 -2.08632 -0.986975 0
M  V30 9282 C 882.865 -0.982491 -1.33927 0
M  V30 9283 O 884.05 -1.25513 -1.43705 0
M  V30 9284 C 881.19 -2.59705 -2.27261 0
M  V30 9285 C 880.303 -3.84002 -1.97905 0
M  V30 9286 C 879.438 -4.23563 -3.20574 0
M  V30 9287 C 878.477 -5.40688 -2.8692 0
M  V30 9288 N 877.614 -5.75526 -4.02136 0
M  V30 9289 H 882.454 -2.92977 -0.544855 0
M  V30 9290 H 879.991 -1.44831 -0.257376 0
M  V30 9291 H 881.949 -2.87395 -3.02423 0
M  V30 9292 H 880.579 -1.7823 -2.69136 0
M  V30 9293 H 879.631 -3.63199 -1.13096 0
M  V30 9294 H 880.943 -4.69261 -1.69102 0
M  V30 9295 H 880.097 -4.52554 -4.04079 0
M  V30 9296 H 878.836 -3.37019 -3.52518 0
M  V30 9297 H 877.841 -5.11417 -2.01822 0
M  V30 9298 H 879.066 -6.2891 -2.5622 0
M  V30 9299 H 877.012 -4.9194 -4.33971 0
M  V30 9300 H 876.929 -6.55367 -3.76869 0
M  V30 9301 H 878.197 -6.0911 -4.8642 0
M  V30 9302 N 882.426 0.269451 -1.5528 0
M  V30 9303 C 883.336 1.35511 -1.91505 0
M  V30 9304 C 884.352 1.53854 -0.812712 0
M  V30 9305 O 885.528 1.67912 -1.1121 0
M  V30 9306 C 882.593 2.6937 -2.18267 0
M  V30 9307 C 881.654 2.59743 -3.41807 0
M  V30 9308 C 880.887 3.87219 -3.67283 0
M  V30 9309 O 881.11 4.88066 -2.95208 0
M  V30 9310 O 880.044 3.87209 -4.60818 0
M  V30 9311 H 883.87 1.07785 -2.8393 0
M  V30 9312 H 881.455 0.468282 -1.41871 0
M  V30 9313 H 883.337 3.48513 -2.36889 0
M  V30 9314 H 882.012 2.96874 -1.29024 0
M  V30 9315 H 880.919 1.78964 -3.28516 0
M  V30 9316 H 882.252 2.37188 -4.3128 0
M  V30 9317 N 883.904 1.48273 0.534124 0
M  V30 9318 C 885.134 1.59503 1.31311 0
M  V30 9319 C 885.542 0.25284 1.87503 0
M  V30 9320 O 884.885 -0.767399 1.66903 0
M  V30 9321 C 884.947 2.57899 2.50456 0
M  V30 9322 C 884.611 4.03063 2.15382 0
M  V30 9323 C 885.608 4.90869 1.713 0
M  V30 9324 C 883.293 4.4857 2.26032 0
M  V30 9325 C 885.287 6.22209 1.38328 0
M  V30 9326 C 882.974 5.79932 1.92672 0
M  V30 9327 C 883.972 6.66574 1.4889 0
M  V30 9328 O 883.66 7.95492 1.15966 0
M  V30 9329 H 883.392 0.540695 0.405739 0
M  V30 9330 H 885.946 1.94794 0.651497 0
M  V30 9331 H 884.176 2.1772 3.19585 0
M  V30 9332 H 885.865 2.59008 3.12522 0
M  V30 9333 H 886.631 4.56951 1.62545 0
M  V30 9334 H 882.51 3.81321 2.59066 0
M  V30 9335 H 886.054 6.89792 1.04082 0
M  V30 9336 H 881.951 6.13386 2.01066 0
M  V30 9337 H 882.719 8.08207 1.29399 0
M  V30 9338 N 885.382 -0.782676 1.36792 0
M  V30 9339 C 886.61 -1.57162 1.34565 0
M  V30 9340 C 887.025 -1.88664 -0.0715501 0
M  V30 9341 O 886.382 -1.50633 -1.03033 0
M  V30 9342 C 886.433 -2.88854 2.1736 0
M  V30 9343 O 886.154 -2.58707 3.53557 0
M  V30 9344 C 887.655 -3.83132 2.2299 0
M  V30 9345 H 884.875 -0.487245 0.461338 0
M  V30 9346 H 887.419 -0.970905 1.79982 0
M  V30 9347 H 885.574 -3.45377 1.7548 0
M  V30 9348 H 885.988 -3.42961 3.96835 0
M  V30 9349 H 887.462 -4.72575 2.85266 0
M  V30 9350 H 887.939 -4.21472 1.23524 0
M  V30 9351 H 888.545 -3.32541 2.65135 0
M  V30 9352 N 886.86 -1.21182 -1.00761 0
M  V30 9353 C 888.107 -1.02746 -1.74498 0
M  V30 9354 C 888.435 0.439344 -1.89473 0
M  V30 9355 O 887.69 1.34232 -1.42409 0
M  V30 9356 C 887.989 -1.6667 -3.16158 0
M  V30 9357 C 887.655 -3.16515 -3.21137 0
M  V30 9358 C 886.317 -3.57405 -3.22203 0
M  V30 9359 C 888.669 -4.12495 -3.18587 0
M  V30 9360 C 885.997 -4.92786 -3.18401 0
M  V30 9361 C 888.349 -5.47833 -3.16326 0
M  V30 9362 C 887.013 -5.88124 -3.157 0
M  V30 9363 H 886.283 -0.375974 -0.638533 0
M  V30 9364 H 888.93 -1.50736 -1.18114 0
M  V30 9365 H 887.235 -1.10966 -3.75758 0
M  V30 9366 H 888.932 -1.49911 -3.71924 0
M  V30 9367 H 885.522 -2.83947 -3.21048 0
M  V30 9368 H 889.706 -3.81932 -3.16925 0
M  V30 9369 H 884.962 -5.23253 -3.16253 0
M  V30 9370 H 889.136 -6.21942 -3.13306 0
M  V30 9371 H 886.763 -6.92995 -3.12508 0
M  V30 9372 N 888.338 1.20213 -1.01915 0
M  V30 9373 C 889.749 1.7136 -0.741131 0
M  V30 9374 C 890.1 1.81705 0.740107 0
M  V30 9375 O 889.225 1.48139 1.57746 0
M  V30 9376 C 889.82 3.11231 -1.33869 0
M  V30 9377 C 888.379 3.59677 -1.10948 0
M  V30 9378 C 887.526 2.36809 -1.4428 0
M  V30 9379 H 890.477 1.05191 -1.1883 0
M  V30 9380 H 890.498 3.7342 -0.730585 0
M  V30 9381 H 890.01 3.03669 -2.41675 0
M  V30 9382 H 888.111 3.72568 -0.0492052 0
M  V30 9383 H 888.224 4.44351 -1.79134 0
M  V30 9384 H 886.588 2.39674 -0.861881 0
M  V30 9385 H 887.371 2.31886 -2.53148 0
M  V30 9386 N 889.816 0.795718 1.36037 0
M  V30 9387 C 891.065 0.367575 1.98322 0
M  V30 9388 C 891.378 -1.06823 1.63854 0
M  V30 9389 O 892.584 -1.59895 2.19421 0
M  V30 9390 C 891.04 0.606272 3.54757 0
M  V30 9391 C 890.648 2.0539 3.98144 0
M  V30 9392 C 892.392 0.242947 4.23804 0
M  V30 9393 C 890.299 2.23893 5.47381 0
M  V30 9394 H 889.229 0.133699 0.742052 0
M  V30 9395 H 891.88 0.978242 1.5525 0
M  V30 9396 H 890.262 -0.0741957 3.9593 0
M  V30 9397 H 891.436 2.77129 3.68152 0
M  V30 9398 H 889.751 2.37607 3.41953 0
M  V30 9399 H 892.348 0.359382 5.33491 0
M  V30 9400 H 892.691 -0.809661 4.08351 0
M  V30 9401 H 893.224 0.876899 3.88015 0
M  V30 9402 H 889.963 3.27559 5.6779 0
M  V30 9403 H 889.483 1.56666 5.78978 0
M  V30 9404 H 891.162 2.04914 6.13693 0
M  V30 9405 N 891.294 -1.47756 0.548274 0
M  V30 9406 C 892.522 -2.06884 0.0254873 0
M  V30 9407 C 892.937 -1.40225 -1.26422 0
M  V30 9408 O 892.294 -0.495776 -1.75637 0
M  V30 9409 C 892.345 -3.61036 -0.183134 0
M  V30 9410 O 892.066 -4.25195 1.05549 0
M  V30 9411 C 893.567 -4.37008 -0.744222 0
M  V30 9412 H 890.787 -0.669697 0.041789 0
M  V30 9413 H 893.331 -1.89888 0.759138 0
M  V30 9414 H 891.486 -3.77576 -0.866886 0
M  V30 9415 H 891.9 -5.17606 0.847629 0
M  V30 9416 H 893.374 -5.45579 -0.839529 0
M  V30 9417 H 893.851 -4.0268 -1.75344 0
M  V30 9418 H 894.457 -4.25191 -0.0964542 0
M  V30 9419 N 892.772 -0.284283 -1.55015 0
M  V30 9420 C 893.702 0.592663 -2.25853 0
M  V30 9421 C 894.683 1.15151 -1.25197 0
M  V30 9422 O 895.868 1.18395 -1.53936 0
M  V30 9423 C 892.998 1.77254 -2.98661 0
M  V30 9424 C 891.952 1.34482 -4.06323 0
M  V30 9425 C 891.278 2.60853 -4.66754 0
M  V30 9426 C 892.578 0.488288 -5.20013 0
M  V30 9427 H 894.272 0.00187041 -2.994 0
M  V30 9428 H 891.818 -0.000540402 -1.44 0
M  V30 9429 H 893.771 2.39199 -3.46932 0
M  V30 9430 H 892.495 2.38931 -2.22664 0
M  V30 9431 H 891.154 0.748519 -3.58877 0
M  V30 9432 H 890.802 3.20808 -3.87416 0
M  V30 9433 H 890.502 2.32942 -5.39455 0
M  V30 9434 H 892.026 3.23631 -5.1778 0
M  V30 9435 H 893.44 1.01298 -5.6428 0
M  V30 9436 H 891.837 0.303669 -5.99331 0
M  V30 9437 H 892.907 -0.490727 -4.8241 0
M  V30 9438 N 894.251 1.57596 -0.0117121 0
M  V30 9439 C 895.476 1.95764 0.684938 0
M  V30 9440 C 895.901 0.887285 1.65858 0
M  V30 9441 O 895.259 -0.153508 1.80649 0
M  V30 9442 C 895.307 3.33031 1.38285 0
M  V30 9443 O 894.411 3.28163 2.49765 0
M  V30 9444 H 893.752 0.638767 0.181309 0
M  V30 9445 H 896.282 2.04486 -0.0683883 0
M  V30 9446 H 896.292 3.68866 1.74362 0
M  V30 9447 H 894.967 4.10483 0.669043 0
M  V30 9448 H 893.544 3.04021 2.15929 0
M  V30 9449 N 895.729 -0.261212 1.5542 0
M  V30 9450 C 896.954 -1.01341 1.80955 0
M  V30 9451 C 897.379 -1.78711 0.586849 0
M  V30 9452 O 896.737 -1.75266 -0.463837 0
M  V30 9453 C 896.785 -1.93835 3.04073 0
M  V30 9454 O 895.889 -3.02791 2.79985 0
M  V30 9455 H 895.23 -0.289123 0.597749 0
M  V30 9456 H 897.76 -0.286543 2.02584 0
M  V30 9457 H 897.77 -2.3557 3.33123 0
M  V30 9458 H 896.445 -1.36936 3.9271 0
M  V30 9459 H 895.022 -2.65287 2.62063 0
M  V30 9460 N 897.207 -1.48554 -0.526253 0
M  V30 9461 C 898.435 -1.60429 -1.30652 0
M  V30 9462 C 898.85 -0.265963 -1.86917 0
M  V30 9463 O 898.207 0.745262 -1.6659 0
M  V30 9464 C 898.258 -2.65377 -2.45473 0
M  V30 9465 O 897.979 -3.94017 -1.91527 0
M  V30 9466 C 899.48 -2.87726 -3.37237 0
M  V30 9467 H 896.7 -0.540817 -0.397187 0
M  V30 9468 H 899.244 -1.94409 -0.634461 0
M  V30 9469 H 897.399 -2.34246 -3.08557 0
M  V30 9470 H 897.813 -4.51623 -2.66715 0
M  V30 9471 H 899.287 -3.64951 -4.14144 0
M  V30 9472 H 899.764 -1.96688 -3.92696 0
M  V30 9473 H 900.37 -3.20176 -2.79942 0
M  V30 9474 N 898.685 0.775411 -1.37205 0
M  V30 9475 C 899.91 1.5696 -1.35567 0
M  V30 9476 C 900.335 1.88012 0.0575554 0
M  V30 9477 O 899.693 1.48954 1.03355 0
M  V30 9478 C 899.741 2.85886 -2.19776 0
M  V30 9479 O 898.845 3.80103 -1.59987 0
M  V30 9480 H 898.186 0.475583 -0.463375 0
M  V30 9481 H 900.716 0.96001 -1.80679 0
M  V30 9482 H 900.726 3.35024 -2.32859 0
M  V30 9483 H 899.401 2.62613 -3.22502 0
M  V30 9484 H 897.978 3.38736 -1.55924 0
M  V30 9485 N 900.163 1.21714 1.00117 0
M  V30 9486 C 901.111 0.976937 2.11089 0
M  V30 9487 C 902.105 -0.0771295 1.69224 0
M  V30 9488 O 903.311 0.0745945 1.79845 0
M  V30 9489 H 899.686 0.298687 0.690138 0
M  V30 9490 H 901.657 1.91881 2.28526 0
M  V30 9491 C 900.406 0.562369 3.43122 0
M  V30 9492 H 899.729 1.36509 3.75773 0
M  V30 9493 H 901.169 0.433642 4.21777 0
M  V30 9494 C 899.628 -0.727148 3.28959 0
M  V30 9495 O 900.158 -1.78171 3.60025 0
M  V30 9496 N 898.364 -0.695129 2.82164 0
M  V30 9497 H 897.911 0.163346 2.57082 0
M  V30 9498 H 897.869 -1.55822 2.73069 0
M  V30 9499 N 901.641 -1.19671 1.02551 0
M  V30 9500 C 903.052 -1.70964 0.750208 0
M  V30 9501 C 903.403 -1.82095 -0.730461 0
M  V30 9502 O 902.528 -1.48974 -1.56958 0
M  V30 9503 C 903.123 -3.10516 1.35518 0
M  V30 9504 C 901.682 -3.59083 1.12854 0
M  V30 9505 C 900.829 -2.36041 1.45534 0
M  V30 9506 H 903.78 -1.04559 1.19386 0
M  V30 9507 H 903.801 -3.73028 0.750378 0
M  V30 9508 H 903.313 -3.02383 2.43282 0
M  V30 9509 H 901.414 -3.72536 0.0689627 0
M  V30 9510 H 901.527 -4.43395 1.81488 0
M  V30 9511 H 899.891 -2.39214 0.87458 0
M  V30 9512 H 900.674 -2.3054 2.54374 0
M  V30 9513 N 903.119 -0.802921 -1.35613 0
M  V30 9514 C 904.53 -0.443004 -1.81368 0
M  V30 9515 C 904.881 1.03459 -1.66706 0
M  V30 9516 O 904.006 1.80372 -1.19561 0
M  V30 9517 C 904.601 -0.797324 -3.29284 0
M  V30 9518 C 903.16 -0.490055 -3.73196 0
M  V30 9519 C 902.307 -1.02487 -2.57666 0
M  V30 9520 H 905.258 -0.994888 -1.23643 0
M  V30 9521 H 905.279 -0.0934638 -3.80385 0
M  V30 9522 H 904.791 -1.87278 -3.39924 0
M  V30 9523 H 902.892 0.576818 -3.68108 0
M  V30 9524 H 903.005 -1.02012 -4.68114 0
M  V30 9525 H 901.369 -0.44738 -2.5074 0
M  V30 9526 H 902.152 -2.10636 -2.71085 0
M  V30 9527 N 904.597 1.47463 -0.556102 0
M  V30 9528 C 905.547 2.27007 0.212592 0
M  V30 9529 C 906.531 1.34288 0.886312 0
M  V30 9530 O 907.723 1.5865 0.784801 0
M  V30 9531 C 904.852 3.20021 1.24263 0
M  V30 9532 C 903.938 4.2022 0.572385 0
M  V30 9533 N 904.329 5.04539 -0.35691 0
M  V30 9534 C 902.627 4.38276 0.826441 0
M  V30 9535 C 903.328 5.76895 -0.746134 0
M  V30 9536 N 902.304 5.43506 -0.101225 0
M  V30 9537 H 906.106 2.89582 -0.501925 0
M  V30 9538 H 903.62 1.57988 -0.375961 0
M  V30 9539 H 905.617 3.7569 1.80728 0
M  V30 9540 H 904.277 2.59003 1.95826 0
M  V30 9541 H 905.288 5.12715 -0.731012 0
M  V30 9542 H 901.965 3.88429 1.53066 0
M  V30 9543 H 903.355 6.5472 -1.50967 0
M  V30 9544 N 906.075 0.2925 1.54862 0
M  V30 9545 C 907.323 -0.318633 1.99572 0
M  V30 9546 C 907.644 -1.55062 1.1824 0
M  V30 9547 O 906.914 -1.93943 0.276226 0
M  V30 9548 H 905.494 -0.120722 0.737181 0
M  V30 9549 H 908.156 0.401862 1.90712 0
M  V30 9550 H 907.252 -0.596542 3.06346 0
M  V30 9551 N 907.553 -1.57587 0.0200696 0
M  V30 9552 C 908.483 -2.12702 -0.963333 0
M  V30 9553 C 909.464 -1.04094 -1.34531 0
M  V30 9554 O 910.649 -1.31881 -1.42552 0
M  V30 9555 C 907.779 -2.64673 -2.24868 0
M  V30 9556 C 906.733 -3.77987 -2.00772 0
M  V30 9557 C 906.059 -4.16351 -3.35494 0
M  V30 9558 C 907.359 -5.0444 -1.35416 0
M  V30 9559 H 909.053 -2.95121 -0.504363 0
M  V30 9560 H 906.599 -1.41966 -0.24116 0
M  V30 9561 H 908.552 -3.01862 -2.94036 0
M  V30 9562 H 907.276 -1.79403 -2.72914 0
M  V30 9563 H 905.935 -3.41223 -1.34025 0
M  V30 9564 H 905.583 -3.28075 -3.81282 0
M  V30 9565 H 905.283 -4.92705 -3.20181 0
M  V30 9566 H 906.807 -4.56115 -4.05945 0
M  V30 9567 H 908.221 -5.39273 -1.94571 0
M  V30 9568 H 906.618 -5.85732 -1.30529 0
M  V30 9569 H 907.688 -4.83803 -0.325923 0
M  V30 9570 N 909.032 0.252966 -1.55557 0
M  V30 9571 C 910.443 0.822503 -1.67606 0
M  V30 9572 C 910.794 1.86265 -0.616411 0
M  V30 9573 O 909.919 2.15082 0.238447 0
M  V30 9574 C 910.514 1.49866 -3.03852 0
M  V30 9575 C 909.073 2.01597 -3.17861 0
M  V30 9576 C 908.22 0.864943 -2.63465 0
M  V30 9577 H 911.171 0.0288958 -1.58674 0
M  V30 9578 H 911.192 2.36646 -2.97958 0
M  V30 9579 H 910.704 0.741378 -3.80953 0
M  V30 9580 H 908.805 2.80224 -2.45571 0
M  V30 9581 H 908.918 2.21752 -4.24692 0
M  V30 9582 H 907.282 1.2638 -2.21134 0
M  V30 9583 H 908.065 0.120847 -3.43087 0
M  V30 9584 N 910.51 1.48831 0.518367 0
M  V30 9585 C 911.735 1.61379 1.30275 0
M  V30 9586 C 912.16 0.278571 1.86026 0
M  V30 9587 O 911.518 -0.751427 1.64995 0
M  V30 9588 C 911.566 2.67225 2.42122 0
M  V30 9589 O 910.67 2.25192 3.45489 0
M  V30 9590 H 910.011 0.540742 0.385349 0
M  V30 9591 H 912.541 1.949 0.622498 0
M  V30 9592 H 912.551 2.88859 2.8814 0
M  V30 9593 H 911.226 3.64155 2.00907 0
M  V30 9594 H 909.803 2.13819 3.05509 0
M  V30 9595 N 911.988 -0.768124 1.37614 0
M  V30 9596 C 913.216 -1.55726 1.36224 0
M  V30 9597 C 913.631 -1.8873 -0.0515357 0
M  V30 9598 O 912.988 -1.51718 -1.0143 0
M  V30 9599 C 913.039 -2.86533 2.20412 0
M  V30 9600 O 912.76 -2.54942 3.56281 0
M  V30 9601 C 914.261 -3.80745 2.27041 0
M  V30 9602 H 911.481 -0.482325 0.46648 0
M  V30 9603 H 914.025 -0.95176 1.81002 0
M  V30 9604 H 912.18 -3.43496 1.79134 0
M  V30 9605 H 912.594 -3.38732 4.00451 0
M  V30 9606 H 914.068 -4.69523 2.90263 0
M  V30 9607 H 914.545 -4.20138 1.27987 0
M  V30 9608 H 915.151 -3.2971 2.68647 0
M  V30 9609 N 913.466 -1.22244 -0.994698 0
M  V30 9610 C 914.396 -1.01513 -2.10279 0
M  V30 9611 C 915.377 0.0633365 -1.69982 0
M  V30 9612 O 916.562 -0.0985268 -1.9395 0
M  V30 9613 C 913.692 -0.59016 -3.42249 0
M  V30 9614 C 912.646 -1.61436 -3.96387 0
M  V30 9615 C 911.972 -1.04528 -5.24383 0
M  V30 9616 C 913.272 -3.00388 -4.27276 0
M  V30 9617 H 914.966 -1.94194 -2.2788 0
M  V30 9618 H 912.512 -0.935094 -1.09508 0
M  V30 9619 H 914.465 -0.432254 -4.19177 0
M  V30 9620 H 913.189 0.372308 -3.24471 0
M  V30 9621 H 911.848 -1.76001 -3.21589 0
M  V30 9622 H 911.496 -0.0742225 -5.02945 0
M  V30 9623 H 911.196 -1.72949 -5.61571 0
M  V30 9624 H 912.72 -0.898922 -6.03947 0
M  V30 9625 H 914.134 -2.89207 -4.95007 0
M  V30 9626 H 912.531 -3.65916 -4.75631 0
M  V30 9627 H 913.601 -3.50456 -3.35125 0
M  V30 9628 N 914.944 1.19125 -1.03184 0
M  V30 9629 C 916.36 1.40909 -0.749447 0
M  V30 9630 C 916.56 1.9022 0.664729 0
M  V30 9631 O 915.616 2.08085 1.43028 0
M  V30 9632 C 916.929 2.41761 -1.78807 0
M  V30 9633 C 918.477 2.55503 -1.80796 0
M  V30 9634 C 918.952 3.59612 -2.83626 0
M  V30 9635 N 920.443 3.6711 -2.82461 0
M  V30 9636 C 921.178 4.47366 -3.5868 0
M  V30 9637 N 920.674 5.31302 -4.44623 0
M  V30 9638 N 922.467 4.42044 -3.47208 0
M  V30 9639 H 914.618 0.854399 -1.94458 0
M  V30 9640 H 916.881 0.437753 -0.840878 0
M  V30 9641 H 916.587 2.12559 -2.80199 0
M  V30 9642 H 916.461 3.40981 -1.61283 0
M  V30 9643 H 918.848 2.84027 -0.800803 0
M  V30 9644 H 918.929 1.56427 -2.02396 0
M  V30 9645 H 918.573 3.3183 -3.84515 0
M  V30 9646 H 918.503 4.58345 -2.59283 0
M  V30 9647 H 920.994 3.07166 -2.2013 0
M  V30 9648 H 921.307 5.89667 -4.99512 0
M  V30 9649 H 919.652 5.30753 -4.48694 0
M  V30 9650 H 922.843 3.75513 -2.79477 0
M  V30 9651 H 923.016 5.0435 -4.06859 0
M  V30 9652 N 916.422 0.810101 1.35185 0
M  V30 9653 C 917.668 0.401839 1.99391 0
M  V30 9654 C 918.023 -1.02059 1.63101 0
M  V30 9655 O 917.316 -1.69889 0.8859 0
M  V30 9656 C 917.51 0.526561 3.535 0
M  V30 9657 C 917.339 1.95956 4.04761 0
M  V30 9658 C 916.109 2.58869 4.33953 0
M  V30 9659 C 918.307 2.92459 4.23051 0
M  V30 9660 N 916.289 3.93542 4.71166 0
M  V30 9661 C 917.66 4.12011 4.633 0
M  V30 9662 C 919.715 2.89244 4.05268 0
M  V30 9663 C 918.418 5.28784 4.87627 0
M  V30 9664 C 920.444 4.05223 4.30753 0
M  V30 9665 C 919.806 5.23524 4.71277 0
M  V30 9666 H 915.905 0.194886 0.757327 0
M  V30 9667 H 918.489 1.05209 1.63827 0
M  V30 9668 H 916.66 -0.0937151 3.88287 0
M  V30 9669 H 918.392 0.0925434 4.04594 0
M  V30 9670 H 915.147 2.10198 4.24398 0
M  V30 9671 H 915.571 4.62889 4.94027 0
M  V30 9672 H 920.213 1.98932 3.73076 0
M  V30 9673 H 917.931 6.19666 5.18691 0
M  V30 9674 H 921.517 4.04121 4.18542 0
M  V30 9675 H 920.397 6.11776 4.90612 0
M  V30 9676 N 917.9 -1.47166 0.563914 0
M  V30 9677 C 919.147 -2.02456 0.042371 0
M  V30 9678 C 919.475 -1.43753 -1.31016 0
M  V30 9679 O 918.73 -0.585287 -1.86743 0
M  V30 9680 C 919.029 -3.57279 -0.0931797 0
M  V30 9681 C 918.695 -4.34932 1.18933 0
M  V30 9682 C 917.357 -4.55867 1.54073 0
M  V30 9683 C 919.709 -4.79665 2.03889 0
M  V30 9684 C 917.037 -5.18785 2.74005 0
M  V30 9685 C 919.389 -5.43907 3.23029 0
M  V30 9686 C 918.053 -5.63074 3.58475 0
M  V30 9687 H 917.323 -0.740838 0.0155047 0
M  V30 9688 H 919.97 -1.76759 0.736776 0
M  V30 9689 H 918.275 -3.82005 -0.870596 0
M  V30 9690 H 919.972 -3.97716 -0.512176 0
M  V30 9691 H 916.562 -4.18921 0.905718 0
M  V30 9692 H 920.746 -4.63264 1.78046 0
M  V30 9693 H 916.002 -5.31818 3.01628 0
M  V30 9694 H 920.176 -5.77531 3.89141 0
M  V30 9695 H 917.803 -6.11598 4.515 0
M  V30 9696 N 919.378 -0.300708 -1.54705 0
M  V30 9697 C 920.625 0.308654 -2.00134 0
M  V30 9698 C 920.953 1.53918 -1.1891 0
M  V30 9699 O 920.208 1.94054 -0.253263 0
M  V30 9700 C 920.507 0.710108 -3.50275 0
M  V30 9701 C 920.173 -0.418651 -4.48952 0
M  V30 9702 C 918.835 -0.728524 -4.75653 0
M  V30 9703 C 921.187 -1.17797 -5.07714 0
M  V30 9704 C 918.515 -1.80085 -5.58378 0
M  V30 9705 C 920.867 -2.24022 -5.91606 0
M  V30 9706 C 919.531 -2.55616 -6.16617 0
M  V30 9707 H 918.801 0.112945 -0.732342 0
M  V30 9708 H 921.448 -0.419744 -1.86843 0
M  V30 9709 H 919.753 1.51859 -3.61173 0
M  V30 9710 H 921.45 1.19277 -3.8285 0
M  V30 9711 H 918.04 -0.167034 -4.28274 0
M  V30 9712 H 922.224 -0.951835 -4.87087 0
M  V30 9713 H 917.48 -2.05036 -5.75995 0
M  V30 9714 H 921.654 -2.83317 -6.36164 0
M  V30 9715 H 919.281 -3.38839 -6.80509 0
M  V30 9716 N 920.856 1.57574 -0.0284266 0
M  V30 9717 C 921.804 2.11332 0.971675 0
M  V30 9718 C 922.798 1.03974 1.33738 0
M  V30 9719 O 924.004 1.22409 1.31969 0
M  V30 9720 H 920.379 0.675174 0.331125 0
M  V30 9721 H 922.35 2.943 0.49296 0
M  V30 9722 C 921.099 2.65496 2.24516 0
M  V30 9723 H 920.422 3.47753 1.9725 0
M  V30 9724 H 921.862 3.06757 2.92705 0
M  V30 9725 C 920.321 1.58207 2.97443 0
M  V30 9726 O 920.851 0.981496 3.89525 0
M  V30 9727 N 919.057 1.30269 2.59766 0
M  V30 9728 H 918.604 1.79294 1.84963 0
M  V30 9729 H 918.562 0.587085 3.0887 0
M  V30 9730 N 922.334 -0.244713 1.55689 0
M  V30 9731 C 923.264 -1.30667 1.93516 0
M  V30 9732 C 924.245 -1.50094 0.800371 0
M  V30 9733 O 925.43 -1.62665 1.06083 0
M  V30 9734 C 922.56 -2.66101 2.23176 0
M  V30 9735 C 921.514 -2.61366 3.38927 0
M  V30 9736 C 920.84 -4.00616 3.54134 0
M  V30 9737 C 922.14 -2.18161 4.74555 0
M  V30 9738 H 923.834 -0.992546 2.82469 0
M  V30 9739 H 921.38 -0.476018 1.35905 0
M  V30 9740 H 923.333 -3.4053 2.48228 0
M  V30 9741 H 922.057 -2.99154 1.31051 0
M  V30 9742 H 920.716 -1.89395 3.13887 0
M  V30 9743 H 920.364 -4.30938 2.59426 0
M  V30 9744 H 920.064 -3.98335 4.31975 0
M  V30 9745 H 921.588 -4.76741 3.8151 0
M  V30 9746 H 923.002 -2.82323 4.98965 0
M  V30 9747 H 921.399 -2.26988 5.55515 0
M  V30 9748 H 922.469 -1.13333 4.7147 0
M  V30 9749 N 923.813 -1.49104 -0.510467 0
M  V30 9750 C 925.06 -1.58112 -1.26518 0
M  V30 9751 C 925.388 -0.263603 -1.92705 0
M  V30 9752 O 924.643 0.747743 -1.80852 0
M  V30 9753 C 924.942 -2.68259 -2.36161 0
M  V30 9754 C 924.608 -4.10069 -1.87495 0
M  V30 9755 C 923.27 -4.48662 -1.73942 0
M  V30 9756 C 925.622 -4.98859 -1.5096 0
M  V30 9757 C 922.95 -5.73829 -1.22217 0
M  V30 9758 C 925.302 -6.24535 -1.00691 0
M  V30 9759 C 923.966 -6.61967 -0.857691 0
M  V30 9760 H 923.236 -0.578574 -0.462962 0
M  V30 9761 H 925.883 -1.82899 -0.567475 0
M  V30 9762 H 924.188 -2.37407 -3.11681 0
M  V30 9763 H 925.885 -2.7244 -2.9424 0
M  V30 9764 H 922.475 -3.79601 -1.99001 0
M  V30 9765 H 926.659 -4.69706 -1.60282 0
M  V30 9766 H 921.915 -6.01539 -1.09368 0
M  V30 9767 H 926.089 -6.9272 -0.71498 0
M  V30 9768 H 923.716 -7.58839 -0.454702 0
M  V30 9769 N 925.291 0.760815 -1.38019 0
M  V30 9770 C 926.223 1.88387 -1.30549 0
M  V30 9771 C 927.236 1.61319 -0.219119 0
M  V30 9772 O 928.425 1.72033 -0.476122 0
M  V30 9773 C 925.525 3.23863 -0.998291 0
M  V30 9774 C 924.698 3.78492 -2.19232 0
M  V30 9775 C 923.757 4.92468 -1.85368 0
M  V30 9776 O 922.783 5.0748 -2.57785 0
M  V30 9777 N 923.985 5.74901 -0.804319 0
M  V30 9778 H 926.75 1.95308 -2.27322 0
M  V30 9779 H 924.311 0.940423 -1.31786 0
M  V30 9780 H 926.303 3.97644 -0.7524 0
M  V30 9781 H 924.873 3.12374 -0.11877 0
M  V30 9782 H 924.093 2.96361 -2.5993 0
M  V30 9783 H 925.381 4.11722 -2.98935 0
M  V30 9784 H 924.779 5.65333 -0.203628 0
M  V30 9785 H 923.336 6.48861 -0.618301 0
M  V30 9786 N 926.769 1.22769 0.988202 0
M  V30 9787 C 927.699 1.02627 2.09738 0
M  V30 9788 C 928.68 -0.0543211 1.70013 0
M  V30 9789 O 929.865 0.108811 1.93895 0
M  V30 9790 C 926.995 0.608302 3.41931 0
M  V30 9791 C 925.949 1.63536 3.95525 0
M  V30 9792 C 925.275 1.07308 5.23822 0
M  V30 9793 C 926.575 3.02649 4.25677 0
M  V30 9794 H 928.269 1.954 2.26847 0
M  V30 9795 H 925.815 0.940888 1.09011 0
M  V30 9796 H 927.768 0.454478 4.18942 0
M  V30 9797 H 926.492 -0.355095 3.24664 0
M  V30 9798 H 925.151 1.77704 3.20651 0
M  V30 9799 H 924.799 0.100894 5.02899 0
M  V30 9800 H 924.499 1.75925 5.60646 0
M  V30 9801 H 926.023 0.930938 6.03462 0
M  V30 9802 H 927.437 2.91828 4.93467 0
M  V30 9803 H 925.834 3.68434 4.73684 0
M  V30 9804 H 926.904 3.52228 3.33262 0
M  V30 9805 N 928.247 -1.18576 1.03814 0
M  V30 9806 C 929.477 -1.92158 0.758864 0
M  V30 9807 C 929.885 -1.76267 -0.687498 0
M  V30 9808 O 929.228 -1.08806 -1.4801 0
M  V30 9809 C 929.29 -3.44063 1.04217 0
M  V30 9810 C 928.954 -3.8373 2.48193 0
M  V30 9811 C 929.951 -3.87722 3.46363 0
M  V30 9812 C 927.636 -4.151 2.82838 0
M  V30 9813 C 929.63 -4.2253 4.77229 0
M  V30 9814 C 927.317 -4.49578 4.13911 0
M  V30 9815 C 928.315 -4.53269 5.10917 0
M  V30 9816 O 928.003 -4.86945 6.39641 0
M  V30 9817 H 927.735 -0.61694 0.276335 0
M  V30 9818 H 930.289 -1.51388 1.38819 0
M  V30 9819 H 928.519 -3.85061 0.355709 0
M  V30 9820 H 930.208 -3.9889 0.751091 0
M  V30 9821 H 930.974 -3.63627 3.20936 0
M  V30 9822 H 926.853 -4.11406 2.08006 0
M  V30 9823 H 930.397 -4.25326 5.52941 0
M  V30 9824 H 926.294 -4.73133 4.39107 0
M  V30 9825 H 927.062 -5.04857 6.44253 0
M  V30 9826 N 929.725 -0.817259 -1.34754 0
M  V30 9827 C 931.141 -0.502309 -1.51489 0
M  V30 9828 C 931.341 0.974568 -1.76364 0
M  V30 9829 O 930.397 1.75924 -1.81127 0
M  V30 9830 C 931.71 -1.35693 -2.68343 0
M  V30 9831 C 933.258 -1.35347 -2.82224 0
M  V30 9832 C 933.733 -2.19244 -4.02114 0
M  V30 9833 N 935.224 -2.16837 -4.09311 0
M  V30 9834 C 935.959 -2.78505 -5.01221 0
M  V30 9835 N 935.455 -3.4914 -5.98392 0
M  V30 9836 N 937.248 -2.68089 -4.94049 0
M  V30 9837 H 929.399 -1.77359 -1.16866 0
M  V30 9838 H 931.662 -0.755476 -0.572678 0
M  V30 9839 H 931.368 -2.40548 -2.56573 0
M  V30 9840 H 931.242 -1.01764 -3.63213 0
M  V30 9841 H 933.629 -0.312727 -2.93438 0
M  V30 9842 H 933.71 -1.7327 -1.88179 0
M  V30 9843 H 933.354 -3.23365 -3.9166 0
M  V30 9844 H 933.284 -1.78675 -4.95361 0
M  V30 9845 H 935.775 -1.65452 -3.39756 0
M  V30 9846 H 936.088 -3.93455 -6.65141 0
M  V30 9847 H 934.433 -3.53246 -5.98533 0
M  V30 9848 H 937.624 -2.12485 -4.17094 0
M  V30 9849 H 937.797 -3.16436 -5.65484 0
M  V30 9850 N 931.203 1.46865 -0.571711 0
M  V30 9851 C 932.451 2.0203 -0.0530022 0
M  V30 9852 C 932.772 1.44687 1.30731 0
M  V30 9853 O 932.042 0.627429 1.85581 0
M  V30 9854 H 930.622 0.746815 -0.0166035 0
M  V30 9855 H 933.284 1.80099 -0.745003 0
M  V30 9856 H 932.38 3.12091 0.0242538 0
M  V30 9857 N 932.681 0.308908 1.54543 0
M  V30 9858 C 934.092 -0.182144 1.85809 0
M  V30 9859 C 934.443 -1.52796 1.23076 0
M  V30 9860 O 933.568 -2.09775 0.531358 0
M  V30 9861 C 934.163 -0.337275 3.37117 0
M  V30 9862 C 932.722 -0.772545 3.68387 0
M  V30 9863 C 931.869 0.114451 2.77064 0
M  V30 9864 H 934.82 0.529671 1.496 0
M  V30 9865 H 934.841 -1.17058 3.62046 0
M  V30 9866 H 934.353 0.642382 3.82747 0
M  V30 9867 H 932.454 -1.76247 3.2828 0
M  V30 9868 H 932.567 -0.586453 4.75497 0
M  V30 9869 H 930.931 -0.407581 2.51418 0
M  V30 9870 H 931.714 1.09061 3.25516 0
M  V30 9871 N 934.159 -1.57557 0.0367827 0
M  V30 9872 C 935.089 -2.13712 -0.940719 0
M  V30 9873 C 936.07 -1.05515 -1.33419 0
M  V30 9874 O 937.255 -1.33385 -1.41146 0
M  V30 9875 C 934.385 -2.67043 -2.22048 0
M  V30 9876 C 933.339 -3.80096 -1.96752 0
M  V30 9877 C 932.665 -4.19886 -3.31059 0
M  V30 9878 C 933.965 -5.05848 -1.30058 0
M  V30 9879 H 935.659 -2.9564 -0.473033 0
M  V30 9880 H 933.205 -1.42214 -0.226089 0
M  V30 9881 H 935.158 -3.04964 -2.90818 0
M  V30 9882 H 933.882 -1.82287 -2.70996 0
M  V30 9883 H 932.541 -3.42625 -1.30398 0
M  V30 9884 H 932.189 -3.32101 -3.77781 0
M  V30 9885 H 931.889 -4.96073 -3.14937 0
M  V30 9886 H 933.413 -4.60395 -4.01084 0
M  V30 9887 H 934.827 -5.41306 -1.8884 0
M  V30 9888 H 933.224 -5.87084 -1.24309 0
M  V30 9889 H 934.294 -4.84122 -0.274591 0
M  V30 9890 N 935.637 0.236453 -1.55816 0
M  V30 9891 C 936.914 0.986463 -1.68903 0
M  V30 9892 C 937.294 2.02984 -0.579722 0
M  V30 9893 O 936.642 2.24693 0.415389 0
M  V30 9894 C 936.852 1.61038 -3.09625 0
M  V30 9895 C 938.2 2.10829 -3.6856 0
M  V30 9896 O 939.224 1.7096 -3.12492 0
M  V30 9897 O 938.083 2.84064 -4.66873 0
M  V30 9898 H 935.177 0.459837 -0.687371 0
M  V30 9899 H 937.723 0.229412 -1.68142 0
M  V30 9900 H 936.495 0.856232 -3.81817 0
M  V30 9901 H 936.118 2.43336 -3.14441 0
M  V30 9902 N 937.115 1.49373 0.502552 0
M  V30 9903 C 938.045 1.68839 1.61294 0
M  V30 9904 C 939.026 0.537096 1.61398 0
M  V30 9905 O 940.211 0.772764 1.78163 0
M  V30 9906 C 937.341 1.75347 2.99784 0
M  V30 9907 C 936.295 2.90251 3.14545 0
M  V30 9908 C 935.621 2.8187 4.54371 0
M  V30 9909 C 936.921 4.31207 2.94717 0
M  V30 9910 H 938.615 2.61803 1.45257 0
M  V30 9911 H 936.161 1.25987 0.697371 0
M  V30 9912 H 938.114 1.87552 3.77362 0
M  V30 9913 H 936.838 0.789814 3.16906 0
M  V30 9914 H 935.497 2.77646 2.39392 0
M  V30 9915 H 935.145 1.83416 4.68367 0
M  V30 9916 H 934.845 3.5899 4.65188 0
M  V30 9917 H 936.369 2.96081 5.34012 0
M  V30 9918 H 937.783 4.44501 3.62065 0
M  V30 9919 H 936.18 5.09536 3.17007 0
M  V30 9920 H 937.25 4.45759 1.90857 0
M  V30 9921 N 938.594 -0.753485 1.38421 0
M  V30 9922 C 939.822 -1.54272 1.37868 0
M  V30 9923 C 940.237 -1.88774 -0.0315155 0
M  V30 9924 O 939.594 -1.52785 -0.998148 0
M  V30 9925 C 939.645 -2.84179 2.23438 0
M  V30 9926 O 939.366 -2.51149 3.58965 0
M  V30 9927 C 940.867 -3.78316 2.31067 0
M  V30 9928 H 938.087 -0.47735 0.47157 0
M  V30 9929 H 940.631 -0.932509 1.82001 0
M  V30 9930 H 938.786 -3.41577 1.82767 0
M  V30 9931 H 939.2 -3.34466 4.04021 0
M  V30 9932 H 940.674 -4.66418 2.95226 0
M  V30 9933 H 941.151 -4.18757 1.32436 0
M  V30 9934 H 941.757 -3.26842 2.72129 0
M  V30 9935 N 940.072 -1.23292 -0.981677 0
M  V30 9936 C 941.321 -1.05832 -1.71705 0
M  V30 9937 C 941.634 0.40514 -1.91358 0
M  V30 9938 O 942.84 0.699645 -2.6233 0
M  V30 9939 C 941.296 -1.84532 -3.08992 0
M  V30 9940 C 940.904 -3.35199 -2.9723 0
M  V30 9941 C 942.648 -1.75557 -3.86497 0
M  V30 9942 C 940.555 -4.06296 -4.29741 0
M  V30 9943 H 939.485 -0.39241 -0.64384 0
M  V30 9944 H 942.136 -1.47247 -1.09502 0
M  V30 9945 H 940.518 -1.35923 -3.71942 0
M  V30 9946 H 941.692 -3.91286 -2.43377 0
M  V30 9947 H 940.007 -3.44973 -2.332 0
M  V30 9948 H 942.604 -2.25989 -4.84596 0
M  V30 9949 H 942.947 -0.718101 -4.1006 0
M  V30 9950 H 943.48 -2.21771 -3.30246 0
M  V30 9951 H 940.219 -5.10344 -4.11375 0
M  V30 9952 H 939.739 -3.54997 -4.83464 0
M  V30 9953 H 941.418 -4.12519 -4.98434 0
M  V30 9954 N 941.55 1.18024 -1.04442 0
M  V30 9955 C 942.799 1.8743 -0.745185 0
M  V30 9956 C 943.112 1.81459 0.730206 0
M  V30 9957 O 944.318 2.46263 1.1431 0
M  V30 9958 C 942.774 3.36266 -1.28271 0
M  V30 9959 C 942.382 3.50757 -2.787 0
M  V30 9960 C 944.126 4.11048 -1.06018 0
M  V30 9961 C 942.033 4.93573 -3.25791 0
M  V30 9962 H 940.963 0.702038 -0.27506 0
M  V30 9963 H 943.614 1.33333 -1.26073 0
M  V30 9964 H 941.996 3.89853 -0.695002 0
M  V30 9965 H 943.17 3.07423 -3.43261 0
M  V30 9966 H 941.485 2.89385 -2.99408 0
M  V30 9967 H 944.082 5.16395 -1.38711 0
M  V30 9968 H 944.425 4.163 0.00241716 0
M  V30 9969 H 944.958 3.63644 -1.61269 0
M  V30 9970 H 941.697 4.93491 -4.31447 0
M  V30 9971 H 941.217 5.37607 -2.65968 0
M  V30 9972 H 942.896 5.62307 -3.20031 0
M  V30 9973 N 943.028 0.824394 1.34319 0
M  V30 9974 C 944.277 0.40956 1.97498 0
M  V30 9975 C 944.59 -1.03323 1.66083 0
M  V30 9976 O 945.796 -1.55205 2.22764 0
M  V30 9977 C 944.252 0.681384 3.53391 0
M  V30 9978 C 943.86 2.1379 3.93698 0
M  V30 9979 C 945.604 0.332788 4.23194 0
M  V30 9980 C 943.511 2.35453 5.42509 0
M  V30 9981 H 942.441 0.149409 0.739049 0
M  V30 9982 H 945.092 1.01095 1.5314 0
M  V30 9983 H 943.474 0.00980375 3.95999 0
M  V30 9984 H 944.648 2.84876 3.62191 0
M  V30 9985 H 942.963 2.44807 3.36836 0
M  V30 9986 H 945.56 0.472463 5.32609 0
M  V30 9987 H 945.903 -0.722862 4.09976 0
M  V30 9988 H 946.436 0.959005 3.86067 0
M  V30 9989 H 943.175 3.39529 5.60714 0
M  V30 9990 H 942.695 1.68912 5.75525 0
M  V30 9991 H 944.374 2.17885 6.09209 0
M  V30 9992 N 944.506 -1.46559 0.579492 0
M  V30 9993 C 945.734 -2.06784 0.0693648 0
M  V30 9994 C 946.149 -1.42875 -1.23419 0
M  V30 9995 O 945.506 -0.532919 -1.74546 0
M  V30 9996 C 945.557 -3.61343 -0.106511 0
M  V30 9997 O 945.278 -4.22861 1.14545 0
M  V30 9998 C 946.779 -4.38489 -0.651359 0
M  V30 9999 H 943.999 -0.66866 0.0559848 0
M  V30 10000 H 946.543 -1.88235 0.799245 0
M  V30 10001 H 944.698 -3.7933 -0.786601 0
M  V30 10002 H 945.112 -5.15691 0.95723 0
M  V30 10003 H 946.586 -5.47237 -0.723615 0
M  V30 10004 H 947.063 -4.06309 -1.66763 0
M  V30 10005 H 947.669 -4.253 -0.0062433 0
M  V30 10006 N 945.984 -0.3171 -1.54377 0
M  V30 10007 C 947.232 0.286842 -2.00054 0
M  V30 10008 C 947.553 1.53161 -1.20692 0
M  V30 10009 O 946.823 1.93479 -0.307045 0
M  V30 10010 H 945.403 0.108979 -0.739008 0
M  V30 10011 H 948.065 -0.432152 -1.90049 0
M  V30 10012 H 947.161 0.547729 -3.07256 0
M  V30 10013 N 947.462 1.57535 -0.0451378 0
M  V30 10014 C 948.425 2.1008 0.916461 0
M  V30 10015 C 949.425 1.01913 1.2438 0
M  V30 10016 O 950.615 1.2801 1.18148 0
M  V30 10017 C 947.747 2.58001 2.22818 0
M  V30 10018 H 948.94 2.96334 0.461076 0
M  V30 10019 H 946.493 1.54974 0.203169 0
M  V30 10020 H 947.228 1.75123 2.72951 0
M  V30 10021 H 947.013 3.3704 2.00366 0
M  V30 10022 H 948.503 2.98822 2.9171 0
M  V30 10023 N 948.94 -0.228186 1.55939 0
M  V30 10024 C 950.168 -0.970618 1.8272 0
M  V30 10025 C 950.583 -1.78212 0.623385 0
M  V30 10026 O 949.94 -1.77879 -0.408063 0
M  V30 10027 C 949.991 -1.89352 3.07942 0
M  V30 10028 O 949.712 -1.11483 4.23678 0
M  V30 10029 C 951.213 -2.75039 3.47661 0
M  V30 10030 H 948.433 -0.284772 0.607574 0
M  V30 10031 H 950.977 -0.245419 2.03022 0
M  V30 10032 H 949.132 -2.57275 2.89635 0
M  V30 10033 H 949.546 -1.74073 4.94772 0
M  V30 10034 H 951.02 -3.35511 4.38334 0
M  V30 10035 H 951.497 -3.471 2.69106 0
M  V30 10036 H 952.103 -2.1254 3.68384 0
M  V30 10037 N 950.418 -1.49637 -0.494624 0
M  V30 10038 C 951.695 -1.4995 -1.25596 0
M  V30 10039 C 952.075 -0.230805 -2.09834 0
M  V30 10040 O 951.423 0.786625 -2.14533 0
M  V30 10041 C 951.633 -2.78204 -2.10721 0
M  V30 10042 C 952.981 -3.27946 -2.69698 0
M  V30 10043 O 954.005 -2.79365 -2.20984 0
M  V30 10044 O 952.864 -4.12571 -3.58395 0
M  V30 10045 H 949.958 -0.60044 -0.568684 0
M  V30 10046 H 952.504 -1.61906 -0.508371 0
M  V30 10047 H 951.276 -3.62029 -1.48494 0
M  V30 10048 H 950.899 -2.69139 -2.92661 0
M  V30 10049 N 951.896 0.746133 -1.38819 0
M  V30 10050 C 953.142 1.50768 -1.35635 0
M  V30 10051 C 953.475 1.94132 0.0512435 0
M  V30 10052 O 952.75 1.65979 1.01396 0
M  V30 10053 C 953.033 2.7551 -2.31875 0
M  V30 10054 C 952.886 2.38236 -3.81528 0
M  V30 10055 C 954.205 3.77566 -2.26124 0
M  V30 10056 H 951.324 0.546922 -0.494009 0
M  V30 10057 H 953.966 0.854017 -1.69725 0
M  V30 10058 H 952.116 3.31285 -2.02935 0
M  V30 10059 H 953.788 1.88178 -4.21173 0
M  V30 10060 H 952.031 1.70601 -3.98846 0
M  V30 10061 H 952.702 3.27517 -4.44339 0
M  V30 10062 H 955.178 3.31349 -2.51689 0
M  V30 10063 H 954.054 4.62531 -2.95561 0
M  V30 10064 H 954.315 4.23689 -1.26254 0
M  V30 10065 N 953.375 1.23811 0.975125 0
M  V30 10066 C 954.652 0.9815 1.69192 0
M  V30 10067 C 955.032 -0.498373 2.05133 0
M  V30 10068 O 954.38 -1.47087 1.74864 0
M  V30 10069 C 954.59 1.89701 2.92941 0
M  V30 10070 C 955.938 2.16357 3.65342 0
M  V30 10071 O 956.962 1.87293 3.02985 0
M  V30 10072 O 955.821 2.65675 4.77576 0
M  V30 10073 H 952.915 0.370599 0.739314 0
M  V30 10074 H 955.461 1.34876 1.02988 0
M  V30 10075 H 954.233 2.89719 2.63018 0
M  V30 10076 H 953.856 1.53244 3.66881 0
M  V30 10077 N 954.853 -1.17469 1.05066 0
M  V30 10078 C 956.101 -1.87327 0.758485 0
M  V30 10079 C 956.422 -1.81358 -0.716549 0
M  V30 10080 O 955.692 -1.23868 -1.51768 0
M  V30 10081 H 954.272 -0.693512 0.277579 0
M  V30 10082 H 956.934 -1.4251 1.32954 0
M  V30 10083 H 956.03 -2.93101 1.0723 0
M  V30 10084 N 956.331 -0.831506 -1.3388 0
M  V30 10085 C 957.264 -0.2046 -2.27281 0
M  V30 10086 C 958.242 0.643992 -1.49303 0
M  V30 10087 O 959.426 0.605863 -1.78498 0
M  V30 10088 C 956.553 0.713409 -3.31101 0
M  V30 10089 C 955.599 -0.0587654 -4.2646 0
M  V30 10090 S 956.432 -1.41172 -5.16557 0
M  V30 10091 C 957.588 -0.498807 -6.23909 0
M  V30 10092 H 957.821 -0.996442 -2.80104 0
M  V30 10093 H 955.354 -0.62786 -1.41058 0
M  V30 10094 H 957.312 1.23748 -3.91403 0
M  V30 10095 H 955.973 1.47885 -2.77108 0
M  V30 10096 H 955.166 0.639466 -4.99927 0
M  V30 10097 H 954.768 -0.513665 -3.70456 0
M  V30 10098 H 957.06 0.306268 -6.76807 0
M  V30 10099 H 958.003 -1.20342 -6.97799 0
M  V30 10100 H 958.411 -0.0834242 -5.64438 0
M  V30 10101 N 957.809 1.4625 -0.587256 0
M  V30 10102 C 958.772 2.28812 0.133238 0
M  V30 10103 C 959.772 1.38645 0.814513 0
M  V30 10104 O 960.962 1.60975 0.665774 0
M  V30 10105 C 958.094 3.19147 1.19824 0
M  V30 10106 H 959.287 2.93991 -0.592386 0
M  V30 10107 H 956.84 1.52435 -0.345416 0
M  V30 10108 H 957.575 2.58725 1.95529 0
M  V30 10109 H 957.36 3.85541 0.71418 0
M  V30 10110 H 958.85 3.81278 1.70344 0
M  V30 10111 N 959.287 0.325282 1.54207 0
M  V30 10112 C 960.533 -0.269944 2.01601 0
M  V30 10113 C 960.888 -1.49643 1.20933 0
M  V30 10114 O 960.181 -1.89486 0.283838 0
M  V30 10115 C 960.375 -0.654292 3.5136 0
M  V30 10116 C 960.204 0.533397 4.46525 0
M  V30 10117 C 958.974 1.03304 4.94628 0
M  V30 10118 C 961.172 1.38613 4.95269 0
M  V30 10119 N 959.154 2.18495 5.73701 0
M  V30 10120 C 960.525 2.38519 5.72284 0
M  V30 10121 C 962.58 1.41369 4.77409 0
M  V30 10122 C 961.283 3.40988 6.3334 0
M  V30 10123 C 963.309 2.4271 5.39301 0
M  V30 10124 C 962.671 3.41343 6.16169 0
M  V30 10125 H 958.77 -0.0625778 0.779492 0
M  V30 10126 H 961.354 0.460711 1.89171 0
M  V30 10127 H 959.525 -1.35408 3.64032 0
M  V30 10128 H 961.257 -1.23114 3.85519 0
M  V30 10129 H 958.012 0.604045 4.69732 0
M  V30 10130 H 958.436 2.76605 6.17915 0
M  V30 10131 H 963.078 0.664796 4.17541 0
M  V30 10132 H 960.796 4.16784 6.92327 0
M  V30 10133 H 964.382 2.45647 5.27398 0
M  V30 10134 H 963.262 4.18476 6.6321 0
M  V30 10135 N 960.765 -1.57509 0.0534917 0
M  V30 10136 C 962.012 -1.92782 -0.619772 0
M  V30 10137 C 962.34 -0.932046 -1.70714 0
M  V30 10138 O 961.595 0.0552891 -1.95622 0
M  V30 10139 C 961.894 -3.34734 -1.25251 0
M  V30 10140 C 961.56 -4.49946 -0.293113 0
M  V30 10141 C 960.222 -4.81191 -0.0291223 0
M  V30 10142 C 962.574 -5.19925 0.364271 0
M  V30 10143 C 959.902 -5.79761 0.899649 0
M  V30 10144 C 962.254 -6.19489 1.28125 0
M  V30 10145 C 960.918 -6.49161 1.55389 0
M  V30 10146 H 960.188 -0.705441 -0.226791 0
M  V30 10147 H 962.835 -1.91121 0.120466 0
M  V30 10148 H 961.14 -3.32774 -2.06807 0
M  V30 10149 H 962.837 -3.59308 -1.78042 0
M  V30 10150 H 959.427 -4.25566 -0.509053 0
M  V30 10151 H 963.611 -4.95997 0.173411 0
M  V30 10152 H 958.867 -6.01085 1.11833 0
M  V30 10153 H 963.041 -6.72824 1.79669 0
M  V30 10154 H 960.668 -7.25354 2.2752 0
M  V30 10155 N 962.243 0.219913 -1.56058 0
M  V30 10156 C 963.471 0.960915 -1.83232 0
M  V30 10157 C 963.886 1.77878 -0.632828 0
M  V30 10158 O 963.243 1.78093 0.398624 0
M  V30 10159 C 963.294 1.87716 -3.08942 0
M  V30 10160 O 963.015 1.09235 -4.24263 0
M  V30 10161 C 964.516 2.73192 -3.49115 0
M  V30 10162 H 961.736 0.281546 -0.609075 0
M  V30 10163 H 964.28 0.234648 -2.03149 0
M  V30 10164 H 962.435 2.55736 -2.90995 0
M  V30 10165 H 962.849 1.71446 -4.95688 0
M  V30 10166 H 964.323 3.33181 -4.40107 0
M  V30 10167 H 964.8 3.45668 -2.70943 0
M  V30 10168 H 965.406 2.10583 -3.69506 0
M  V30 10169 N 963.721 1.49897 0.486681 0
M  V30 10170 C 965.132 1.53142 1.06792 0
M  V30 10171 C 965.483 0.325856 1.93475 0
M  V30 10172 O 964.608 -0.562893 2.08951 0
M  V30 10173 C 965.203 2.77514 1.94348 0
M  V30 10174 C 963.762 2.83491 2.47609 0
M  V30 10175 C 962.909 2.47239 1.2557 0
M  V30 10176 H 965.86 1.56387 0.269962 0
M  V30 10177 H 965.881 2.58487 2.79221 0
M  V30 10178 H 965.393 3.65239 1.31232 0
M  V30 10179 H 963.494 2.0008 3.14323 0
M  V30 10180 H 963.607 3.86011 2.83782 0
M  V30 10181 H 961.971 1.99332 1.58552 0
M  V30 10182 H 962.754 3.37255 0.641404 0
M  V30 10183 N 965.199 -0.738761 1.39212 0
M  V30 10184 C 966.445 -1.50046 1.36433 0
M  V30 10185 C 966.778 -1.94157 -0.0409474 0
M  V30 10186 O 966.053 -1.66515 -1.00514 0
M  V30 10187 C 966.336 -2.74277 2.33333 0
M  V30 10188 C 966.189 -2.36209 3.82786 0
M  V30 10189 C 967.508 -3.76361 2.28123 0
M  V30 10190 H 964.627 -0.544294 0.496903 0
M  V30 10191 H 967.269 -0.845005 1.70175 0
M  V30 10192 H 965.419 -3.30204 2.04689 0
M  V30 10193 H 967.091 -1.85942 4.22165 0
M  V30 10194 H 965.334 -1.68483 3.99745 0
M  V30 10195 H 966.005 -3.25156 4.46069 0
M  V30 10196 H 968.481 -3.30009 2.53443 0
M  V30 10197 H 967.357 -4.60957 2.9801 0
M  V30 10198 H 967.618 -4.23013 1.28499 0
M  V30 10199 N 966.677 -1.24326 -0.968545 0
M  V30 10200 C 967.925 -1.08032 -1.70803 0
M  V30 10201 C 968.246 0.381728 -1.91227 0
M  V30 10202 O 967.516 1.27253 -1.48942 0
M  V30 10203 H 966.096 -0.396777 -0.632912 0
M  V30 10204 H 968.758 -1.56232 -1.16523 0
M  V30 10205 H 967.854 -1.57769 -2.69287 0
M  V30 10206 N 968.156 1.1691 -1.05688 0
M  V30 10207 C 969.086 2.23275 -0.683402 0
M  V30 10208 C 970.067 1.6704 0.321206 0
M  V30 10209 O 971.252 1.93191 0.197691 0
M  V30 10210 C 968.382 3.47244 -0.0626006 0
M  V30 10211 C 967.336 4.16333 -0.992513 0
M  V30 10212 C 966.662 5.34182 -0.23533 0
M  V30 10213 C 967.962 4.68002 -2.31886 0
M  V30 10214 H 969.656 2.54771 -1.57264 0
M  V30 10215 H 967.202 1.2246 -0.757606 0
M  V30 10216 H 969.155 4.20874 0.210503 0
M  V30 10217 H 967.879 3.1503 0.861616 0
M  V30 10218 H 966.538 3.44622 -1.25026 0
M  V30 10219 H 966.186 4.9822 0.69181 0
M  V30 10220 H 965.886 5.81346 -0.855002 0
M  V30 10221 H 967.41 6.10592 0.0303717 0
M  V30 10222 H 968.824 5.33244 -2.10531 0
M  V30 10223 H 967.221 5.25764 -2.89296 0
M  V30 10224 H 968.291 3.84541 -2.95391 0
M  V30 10225 N 969.634 0.838594 1.33437 0
M  V30 10226 C 970.597 0.276843 2.27522 0
M  V30 10227 C 971.597 -0.554275 1.50945 0
M  V30 10228 O 972.787 -0.368107 1.70266 0
M  V30 10229 C 969.919 -0.610036 3.35397 0
M  V30 10230 H 971.112 1.10705 2.78719 0
M  V30 10231 H 968.665 0.611657 1.43835 0
M  V30 10232 H 969.4 -1.46269 2.89441 0
M  V30 10233 H 969.185 -0.0153615 3.92097 0
M  V30 10234 H 970.675 -0.996368 4.05539 0
M  V30 10235 N 971.112 -1.45937 0.595003 0
M  V30 10236 C 972.358 -2.0262 0.0854317 0
M  V30 10237 C 972.691 -1.46402 -1.27594 0
M  V30 10238 O 971.966 -0.633823 -1.83883 0
M  V30 10239 C 972.249 -3.60085 0.0329075 0
M  V30 10240 C 972.102 -4.26663 1.42405 0
M  V30 10241 C 973.421 -4.35101 -0.661426 0
M  V30 10242 H 970.54 -0.736282 0.0325196 0
M  V30 10243 H 973.182 -1.73938 0.764563 0
M  V30 10244 H 971.332 -3.84652 -0.545439 0
M  V30 10245 H 973.004 -4.13321 2.04851 0
M  V30 10246 H 971.247 -3.85549 1.98833 0
M  V30 10247 H 971.918 -5.35497 1.33965 0
M  V30 10248 H 974.394 -4.15753 -0.169977 0
M  V30 10249 H 973.27 -5.44829 -0.667243 0
M  V30 10250 H 973.531 -4.07053 -1.72513 0
M  V30 10251 N 972.59 -0.333456 -1.54032 0
M  V30 10252 C 973.867 0.320902 -1.9295 0
M  V30 10253 C 974.247 1.69071 -1.26405 0
M  V30 10254 O 973.595 2.24768 -0.411311 0
M  V30 10255 C 973.805 0.403257 -3.46662 0
M  V30 10256 C 975.153 0.658875 -4.19457 0
M  V30 10257 O 976.177 0.485781 -3.52872 0
M  V30 10258 O 975.036 0.993475 -5.37394 0
M  V30 10259 H 972.13 0.185158 -0.806006 0
M  V30 10260 H 974.676 -0.383895 -1.65301 0
M  V30 10261 H 973.448 -0.558409 -3.87295 0
M  V30 10262 H 973.071 1.15524 -3.80447 0
M  V30 10263 N 974.068 1.57479 -0.061844 0
M  V30 10264 C 975.479 1.80627 0.472295 0
M  V30 10265 C 975.83 0.97496 1.70261 0
M  V30 10266 O 974.955 0.1946 2.15523 0
M  V30 10267 C 975.55 3.27608 0.863616 0
M  V30 10268 C 974.109 3.51638 1.34267 0
M  V30 10269 C 973.256 2.75412 0.323009 0
M  V30 10270 H 976.207 1.56072 -0.287634 0
M  V30 10271 H 976.228 3.39113 1.72577 0
M  V30 10272 H 975.74 3.88087 -0.0320226 0
M  V30 10273 H 973.841 2.96452 2.25714 0
M  V30 10274 H 973.954 4.60342 1.32747 0
M  V30 10275 H 972.318 2.4187 0.798175 0
M  V30 10276 H 973.101 3.38623 -0.564729 0
M  V30 10277 N 975.546 -0.211634 1.56173 0
M  V30 10278 C 976.792 -0.931479 1.80818 0
M  V30 10279 C 977.147 -1.81571 0.636373 0
M  V30 10280 O 976.44 -1.8801 -0.369182 0
M  V30 10281 C 976.634 -1.79657 3.08963 0
M  V30 10282 C 976.463 -0.997577 4.38496 0
M  V30 10283 C 975.233 -0.688558 5.00587 0
M  V30 10284 C 977.431 -0.358138 5.13052 0
M  V30 10285 N 975.413 0.130797 6.13761 0
M  V30 10286 C 976.784 0.324159 6.19152 0
M  V30 10287 C 978.839 -0.272178 4.97156 0
M  V30 10288 C 977.542 1.08421 7.11082 0
M  V30 10289 C 979.568 0.474428 5.89494 0
M  V30 10290 C 978.93 1.14523 6.95028 0
M  V30 10291 H 975.029 -0.32079 0.713174 0
M  V30 10292 H 977.613 -0.201528 1.93654 0
M  V30 10293 H 975.784 -2.49826 2.97392 0
M  V30 10294 H 977.516 -2.45464 3.2176 0
M  V30 10295 H 974.271 -1.00899 4.62727 0
M  V30 10296 H 974.695 0.5296 6.74925 0
M  V30 10297 H 979.337 -0.776448 4.15609 0
M  V30 10298 H 977.055 1.59996 7.92103 0
M  V30 10299 H 980.641 0.542076 5.79269 0
M  V30 10300 H 979.521 1.71371 7.65246 0
M  V30 10301 N 977.024 -1.50153 -0.478725 0
M  V30 10302 C 978.27 -1.60998 -1.23318 0
M  V30 10303 C 978.603 -0.305868 -1.91776 0
M  V30 10304 O 977.878 0.692158 -1.81767 0
M  V30 10305 C 978.161 -2.78495 -2.28282 0
M  V30 10306 C 978.014 -4.18767 -1.64178 0
M  V30 10307 C 979.333 -2.91569 -3.2966 0
M  V30 10308 H 976.452 -0.585983 -0.446982 0
M  V30 10309 H 979.094 -1.82514 -0.528063 0
M  V30 10310 H 977.244 -2.60281 -2.8842 0
M  V30 10311 H 978.916 -4.48552 -1.07696 0
M  V30 10312 H 977.159 -4.23379 -0.94514 0
M  V30 10313 H 977.83 -4.96894 -2.40417 0
M  V30 10314 H 980.306 -3.08219 -2.79536 0
M  V30 10315 H 979.182 -3.75419 -4.0044 0
M  V30 10316 H 979.443 -2.01859 -3.93326 0
M  V30 10317 N 978.502 0.731368 -1.39602 0
M  V30 10318 C 979.412 1.87579 -1.40894 0
M  V30 10319 C 980.428 1.71336 -0.303319 0
M  V30 10320 O 981.604 1.93875 -0.545377 0
M  V30 10321 C 978.669 3.23211 -1.25442 0
M  V30 10322 C 977.73 3.51822 -2.46008 0
M  V30 10323 C 976.963 4.80982 -2.31284 0
M  V30 10324 O 977.186 5.54958 -1.31824 0
M  V30 10325 O 976.12 5.09574 -3.20341 0
M  V30 10326 H 979.946 1.89444 -2.3737 0
M  V30 10327 H 977.531 0.879675 -1.20756 0
M  V30 10328 H 979.413 4.04257 -1.18972 0
M  V30 10329 H 978.088 3.22108 -0.320637 0
M  V30 10330 H 976.995 2.70847 -2.58055 0
M  V30 10331 H 978.328 3.57707 -3.38093 0
M  V30 10332 N 979.98 1.24838 0.961938 0
M  V30 10333 C 980.927 1.04582 2.05745 0
M  V30 10334 C 981.897 -0.0427281 1.66045 0
M  V30 10335 O 983.082 0.113026 1.90465 0
M  V30 10336 C 980.222 0.66284 3.38675 0
M  V30 10337 C 979.335 1.82548 3.91536 0
M  V30 10338 C 978.47 1.38753 5.12758 0
M  V30 10339 C 977.509 2.51976 5.5783 0
M  V30 10340 N 976.646 2.09009 6.70268 0
M  V30 10341 H 981.486 1.98343 2.22405 0
M  V30 10342 H 979.023 0.987822 1.08998 0
M  V30 10343 H 980.981 0.421788 4.15062 0
M  V30 10344 H 979.611 -0.237776 3.21923 0
M  V30 10345 H 978.663 2.18004 3.11735 0
M  V30 10346 H 979.975 2.67601 4.20941 0
M  V30 10347 H 979.129 1.1057 5.96539 0
M  V30 10348 H 977.868 0.507618 4.85051 0
M  V30 10349 H 976.873 2.80912 4.72619 0
M  V30 10350 H 978.098 3.40534 5.87549 0
M  V30 10351 H 976.044 1.23423 6.44285 0
M  V30 10352 H 975.961 2.87613 6.99153 0
M  V30 10353 H 977.229 1.83981 7.57477 0
M  V30 10354 N 981.458 -1.16348 1.06306 0
M  V30 10355 C 982.368 -2.24375 0.685059 0
M  V30 10356 C 983.384 -1.71413 -0.298956 0
M  V30 10357 O 984.56 -2.00854 -0.148239 0
M  V30 10358 C 981.625 -3.46614 0.0774088 0
M  V30 10359 C 980.686 -4.14613 1.11331 0
M  V30 10360 C 979.919 -5.31016 0.534559 0
M  V30 10361 O 980.142 -5.66654 -0.65265 0
M  V30 10362 O 979.076 -5.88256 1.27431 0
M  V30 10363 H 982.902 -2.59018 1.58566 0
M  V30 10364 H 980.487 -1.23865 0.835332 0
M  V30 10365 H 982.369 -4.20599 -0.259716 0
M  V30 10366 H 981.044 -3.13743 -0.796677 0
M  V30 10367 H 979.951 -3.42597 1.50261 0
M  V30 10368 H 981.284 -4.51538 1.95893 0
M  V30 10369 N 982.937 -0.845659 -1.3299 0
M  V30 10370 C 984.162 -0.457435 -2.02293 0
M  V30 10371 C 984.587 0.935634 -1.63179 0
M  V30 10372 O 983.945 1.61297 -0.827835 0
M  V30 10373 C 983.993 -0.593665 -3.5568 0
M  V30 10374 O 983.097 0.37729 -4.10671 0
M  V30 10375 H 982.438 -0.185022 -0.637701 0
M  V30 10376 H 984.968 -1.14237 -1.69738 0
M  V30 10377 H 984.978 -0.477834 -4.05192 0
M  V30 10378 H 983.653 -1.60957 -3.83491 0
M  V30 10379 H 982.23 0.218448 -3.7226 0
M  V30 10380 N 984.415 1.45619 -0.602734 0
M  V30 10381 C 985.378 2.28941 0.108962 0
M  V30 10382 C 986.378 1.39501 0.799762 0
M  V30 10383 O 987.568 1.61673 0.648663 0
M  V30 10384 C 984.7 3.204 1.16432 0
M  V30 10385 H 985.893 2.93346 -0.623534 0
M  V30 10386 H 983.446 1.52061 -0.361565 0
M  V30 10387 H 984.181 2.60785 1.92774 0
M  V30 10388 H 983.966 3.86277 0.673248 0
M  V30 10389 H 985.456 3.83063 1.6629 0
M  V30 10390 N 985.893 0.34162 1.53853 0
M  V30 10391 C 986.823 -0.508431 2.27897 0
M  V30 10392 C 987.804 -1.10425 1.29384 0
M  V30 10393 O 988.989 -1.126 1.58224 0
M  V30 10394 C 986.119 -1.66048 3.05034 0
M  V30 10395 C 985.073 -1.19309 4.11035 0
M  V30 10396 C 984.399 -2.4335 4.76114 0
M  V30 10397 C 985.699 -0.294952 5.21467 0
M  V30 10398 H 987.393 0.109251 2.99201 0
M  V30 10399 H 984.939 0.0539847 1.43899 0
M  V30 10400 H 986.892 -2.26158 3.5557 0
M  V30 10401 H 985.616 -2.30503 2.31379 0
M  V30 10402 H 984.275 -0.614809 3.61408 0
M  V30 10403 H 983.923 -3.06208 3.99056 0
M  V30 10404 H 983.623 -2.1276 5.47729 0
M  V30 10405 H 985.147 -3.0419 5.29434 0
M  V30 10406 H 986.561 -0.80285 5.67651 0
M  V30 10407 H 984.958 -0.0810221 6.00045 0
M  V30 10408 H 986.028 0.669433 4.80257 0
M  V30 10409 N 987.371 -1.57444 0.0701946 0
M  V30 10410 C 988.596 -1.98171 -0.61181 0
M  V30 10411 C 989.021 -0.94823 -1.62451 0
M  V30 10412 O 988.379 0.0863553 -1.81094 0
M  V30 10413 C 988.427 -3.37934 -1.2583 0
M  V30 10414 O 987.531 -3.37207 -2.37414 0
M  V30 10415 H 986.872 -0.645056 -0.157477 0
M  V30 10416 H 989.402 -2.04091 0.144235 0
M  V30 10417 H 989.412 -3.75083 -1.60552 0
M  V30 10418 H 988.087 -4.12684 -0.516234 0
M  V30 10419 H 986.664 -3.11826 -2.04497 0
M  V30 10420 N 988.849 0.203349 -1.56283 0
M  V30 10421 C 990.098 0.92315 -1.79334 0
M  V30 10422 C 990.411 1.84765 -0.641977 0
M  V30 10423 O 991.617 2.60745 -0.756584 0
M  V30 10424 C 990.073 1.69184 -3.17655 0
M  V30 10425 C 989.681 0.812581 -4.40569 0
M  V30 10426 C 991.425 2.40177 -3.50022 0
M  V30 10427 C 989.332 1.57967 -5.69913 0
M  V30 10428 H 988.262 0.348442 -0.668659 0
M  V30 10429 H 990.913 0.1766 -1.82648 0
M  V30 10430 H 989.295 2.48197 -3.08568 0
M  V30 10431 H 990.469 0.0616956 -4.60759 0
M  V30 10432 H 988.784 0.21389 -4.1585 0
M  V30 10433 H 991.381 2.98103 -4.4389 0
M  V30 10434 H 991.724 3.13961 -2.73376 0
M  V30 10435 H 992.257 1.68138 -3.6052 0
M  V30 10436 H 988.996 0.884767 -6.49501 0
M  V30 10437 H 988.516 2.3047 -5.53754 0
M  V30 10438 H 990.195 2.13562 -6.10737 0
M  V30 10439 N 990.327 1.50405 0.470755 0
M  V30 10440 C 991.604 1.51929 1.23195 0
M  V30 10441 C 991.984 0.264159 2.09441 0
M  V30 10442 O 991.332 -0.752395 2.15757 0
M  V30 10443 C 991.542 2.81521 2.06269 0
M  V30 10444 C 992.89 3.32195 2.64446 0
M  V30 10445 O 993.914 2.82845 2.16511 0
M  V30 10446 O 992.773 4.18221 3.51786 0
M  V30 10447 H 989.867 0.609411 0.559059 0
M  V30 10448 H 992.413 1.62695 0.482549 0
M  V30 10449 H 991.185 3.64346 1.42715 0
M  V30 10450 H 990.808 2.7376 2.88342 0
M  V30 10451 N 991.805 -0.723954 1.39988 0
M  V30 10452 C 993.035 -1.51094 1.40905 0
M  V30 10453 C 993.443 -1.89199 0.00476744 0
M  V30 10454 O 992.786 -1.55398 -0.979646 0
M  V30 10455 C 992.848 -2.82114 2.22827 0
M  V30 10456 C 992.512 -2.66379 3.71337 0
M  V30 10457 C 993.509 -2.34192 4.64166 0
M  V30 10458 C 991.194 -2.82905 4.15054 0
M  V30 10459 C 993.188 -2.18729 5.98696 0
M  V30 10460 C 990.875 -2.67059 5.49657 0
M  V30 10461 C 991.873 -2.35018 6.41292 0
M  V30 10462 O 991.561 -2.19284 7.73414 0
M  V30 10463 H 991.293 -0.473142 0.482818 0
M  V30 10464 H 993.847 -0.901321 1.84568 0
M  V30 10465 H 992.077 -3.45377 1.7393 0
M  V30 10466 H 993.766 -3.43789 2.15787 0
M  V30 10467 H 994.532 -2.21065 4.31689 0
M  V30 10468 H 990.411 -3.06834 3.44055 0
M  V30 10469 H 993.955 -1.93641 6.70186 0
M  V30 10470 H 989.852 -2.79768 5.81722 0
M  V30 10471 H 990.62 -2.34269 7.84258 0
M  V30 10472 N 993.283 -1.25346 -0.955304 0
M  V30 10473 C 994.23 -1.05672 -2.05188 0
M  V30 10474 C 995.2 0.0339217 -1.66065 0
M  V30 10475 O 996.385 -0.123126 -1.90402 0
M  V30 10476 C 993.525 -0.680791 -3.38318 0
M  V30 10477 C 992.638 -1.84622 -3.90562 0
M  V30 10478 C 991.773 -1.41471 -5.12015 0
M  V30 10479 C 990.812 -2.54931 -5.56486 0
M  V30 10480 N 989.949 -2.1256 -6.69151 0
M  V30 10481 H 994.789 -1.9952 -2.2135 0
M  V30 10482 H 992.326 -0.993588 -1.08472 0
M  V30 10483 H 994.284 -0.443794 -4.14833 0
M  V30 10484 H 992.914 0.2207 -3.22045 0
M  V30 10485 H 991.966 -2.19654 -3.10574 0
M  V30 10486 H 993.278 -2.6983 -4.19515 0
M  V30 10487 H 992.432 -1.13732 -5.95945 0
M  V30 10488 H 991.171 -0.533334 -4.84775 0
M  V30 10489 H 990.176 -2.83415 -4.71122 0
M  V30 10490 H 991.401 -3.43645 -5.85734 0
M  V30 10491 H 989.347 -1.26838 -6.43621 0
M  V30 10492 H 989.264 -2.91317 -6.97618 0
M  V30 10493 H 990.532 -1.87996 -7.5649 0
M  V30 10494 N 994.761 1.15782 -1.06922 0
M  V30 10495 C 995.989 1.90355 -0.81072 0
M  V30 10496 C 996.404 1.77779 0.635614 0
M  V30 10497 O 995.761 1.12675 1.43564 0
M  V30 10498 C 995.812 3.4085 -1.2043 0
M  V30 10499 O 995.533 3.53057 -2.59388 0
M  V30 10500 C 997.034 4.32457 -0.974473 0
M  V30 10501 H 994.254 0.60343 -0.293451 0
M  V30 10502 H 996.798 1.46723 -1.42452 0
M  V30 10503 H 994.953 3.82162 -0.634909 0
M  V30 10504 H 995.367 4.46426 -2.75326 0
M  V30 10505 H 996.841 5.36488 -1.29942 0
M  V30 10506 H 997.318 4.39109 0.0894481 0
M  V30 10507 H 997.924 3.96882 -1.52856 0
M  V30 10508 N 996.239 0.8527 1.3254 0
M  V30 10509 C 997.202 0.300959 2.27215 0
M  V30 10510 C 998.202 -0.538235 1.51525 0
M  V30 10511 O 999.392 -0.350027 1.70647 0
M  V30 10512 C 996.524 -0.574428 3.36025 0
M  V30 10513 H 997.717 1.13655 2.77529 0
M  V30 10514 H 995.27 0.626878 1.43178 0
M  V30 10515 H 996.005 -1.43191 2.90976 0
M  V30 10516 H 995.79 0.0262265 3.92091 0
M  V30 10517 H 997.28 -0.9533 4.06573 0
M  V30 10518 N 997.718 -1.45297 0.610449 0
M  V30 10519 C 998.648 -2.33311 -0.0939698 0
M  V30 10520 C 999.629 -1.46999 -0.85588 0
M  V30 10521 O 1000.81 -1.75764 -0.825865 0
M  V30 10522 C 997.944 -3.29751 -1.09003 0
M  V30 10523 C 996.898 -4.2572 -0.441146 0
M  V30 10524 C 996.224 -5.11873 -1.54566 0
M  V30 10525 C 997.524 -5.1837 0.639489 0
M  V30 10526 H 999.218 -2.92459 0.640941 0
M  V30 10527 H 996.764 -1.40631 0.309675 0
M  V30 10528 H 998.717 -3.90195 -1.59141 0
M  V30 10529 H 997.441 -2.68768 -1.85557 0
M  V30 10530 H 996.1 -3.66579 0.0393908 0
M  V30 10531 H 995.748 -4.47256 -2.30155 0
M  V30 10532 H 995.448 -5.76886 -1.11698 0
M  V30 10533 H 996.972 -5.75185 -2.04925 0
M  V30 10534 H 998.386 -5.7287 0.22207 0
M  V30 10535 H 996.783 -5.91876 0.990089 0
M  V30 10536 H 997.853 -4.60627 1.51495 0
M  V30 10537 N 999.196 -0.349774 -1.5367 0
M  V30 10538 C 1000.44 0.244343 -2.00617 0
M  V30 10539 C 1000.76 1.50567 -1.23914 0
M  V30 10540 O 1000.03 1.92784 -0.348016 0
M  V30 10541 H 998.615 0.0932792 -0.741153 0
M  V30 10542 H 1001.28 -0.472367 -1.89089 0
M  V30 10543 H 1000.37 0.482433 -3.08349 0
M  V30 10544 N 1000.67 1.57404 -0.0785433 0
M  V30 10545 C 1001.64 2.11977 0.871693 0
M  V30 10546 C 1002.64 1.04529 1.2219 0
M  V30 10547 O 1003.83 1.30488 1.15406 0
M  V30 10548 C 1000.96 2.6267 2.17296 0
M  V30 10549 H 1002.15 2.97246 0.398115 0
M  V30 10550 H 999.705 1.5537 0.170251 0
M  V30 10551 H 1000.44 1.80873 2.69175 0
M  V30 10552 H 1000.22 3.41214 1.93171 0
M  V30 10553 H 1001.71 3.04943 2.85306 0
M  V30 10554 N 1002.15 -0.195058 1.56388 0
M  V30 10555 C 1003.4 -0.9168 1.80894 0
M  V30 10556 C 1003.73 -1.82907 0.652592 0
M  V30 10557 O 1003.01 -1.91382 -0.346853 0
M  V30 10558 C 1003.29 -1.733 3.15657 0
M  V30 10559 C 1003.14 -0.845449 4.41783 0
M  V30 10560 C 1004.46 -2.70557 3.47112 0
M  V30 10561 H 1001.58 -0.331861 0.658056 0
M  V30 10562 H 1004.22 -0.184174 1.89105 0
M  V30 10563 H 1002.37 -2.3576 3.08787 0
M  V30 10564 H 1004.04 -0.235557 4.60698 0
M  V30 10565 H 1002.29 -0.152172 4.33533 0
M  V30 10566 H 1002.96 -1.45152 5.32574 0
M  V30 10567 H 1005.43 -2.1823 3.54281 0
M  V30 10568 H 1004.31 -3.24749 4.42526 0
M  V30 10569 H 1004.57 -3.49605 2.70608 0
M  V30 10570 N 1003.63 -1.50653 -0.462772 0
M  V30 10571 C 1005.05 -1.38263 -0.797213 0
M  V30 10572 C 1005.25 -0.445172 -1.96521 0
M  V30 10573 O 1004.3 0.10913 -2.52264 0
M  V30 10574 C 1005.61 -2.798 -1.10146 0
M  V30 10575 C 1007.16 -2.88774 -1.20742 0
M  V30 10576 C 1007.64 -4.31163 -1.54476 0
M  V30 10577 N 1009.13 -4.34152 -1.61451 0
M  V30 10578 C 1009.86 -5.4133 -1.89074 0
M  V30 10579 N 1009.36 -6.58705 -2.1466 0
M  V30 10580 N 1011.15 -5.28783 -1.90645 0
M  V30 10581 H 1003.3 -2.10172 0.30684 0
M  V30 10582 H 1005.57 -0.945046 0.0747862 0
M  V30 10583 H 1005.27 -3.50276 -0.316207 0
M  V30 10584 H 1005.15 -3.17559 -2.03559 0
M  V30 10585 H 1007.53 -2.18512 -1.98334 0
M  V30 10586 H 1007.61 -2.54547 -0.252904 0
M  V30 10587 H 1007.26 -5.01965 -0.774207 0
M  V30 10588 H 1007.19 -4.62883 -2.51092 0
M  V30 10589 H 1009.68 -3.49519 -1.43684 0
M  V30 10590 H 1009.99 -7.36192 -2.35035 0
M  V30 10591 H 1008.34 -6.61866 -2.12035 0
M  V30 10592 H 1011.53 -4.36078 -1.70158 0
M  V30 10593 H 1011.7 -6.12396 -2.11836 0
M  V30 10594 N 1005.11 0.71652 -1.4037 0
M  V30 10595 C 1006.36 1.47638 -1.38597 0
M  V30 10596 C 1006.68 1.94496 0.0120141 0
M  V30 10597 O 1005.94 1.68437 0.996373 0
M  V30 10598 C 1006.24 2.71777 -2.32103 0
M  V30 10599 C 1005.9 2.43689 -3.79376 0
M  V30 10600 C 1004.57 2.35739 -4.195 0
M  V30 10601 C 1006.92 2.20099 -4.72447 0
M  V30 10602 C 1004.25 2.02265 -5.50732 0
M  V30 10603 C 1006.6 1.88138 -6.03976 0
M  V30 10604 C 1005.26 1.78669 -6.43143 0
M  V30 10605 H 1004.53 0.540246 -0.507163 0
M  V30 10606 H 1007.18 0.820822 -1.73017 0
M  V30 10607 H 1005.48 3.42166 -1.90865 0
M  V30 10608 H 1007.18 3.29864 -2.28015 0
M  V30 10609 H 1003.77 2.50763 -3.47585 0
M  V30 10610 H 1007.95 2.25198 -4.42266 0
M  V30 10611 H 1003.21 1.93471 -5.79982 0
M  V30 10612 H 1007.38 1.68898 -6.75608 0
M  V30 10613 H 1005.01 1.52498 -7.44747 0
M  V30 10614 N 1006.59 1.25851 0.948643 0
M  V30 10615 C 1007.53 1.06559 2.06756 0
M  V30 10616 C 1008.53 -0.00528632 1.69399 0
M  V30 10617 O 1009.73 0.150806 1.79367 0
M  V30 10618 H 1006.11 0.327689 0.676848 0
M  V30 10619 H 1008.08 2.01401 2.20182 0
M  V30 10620 C 1006.83 0.707392 3.40428 0
M  V30 10621 H 1006.15 1.52324 3.69645 0
M  V30 10622 H 1007.59 0.612142 4.19558 0
M  V30 10623 C 1006.05 -0.58697 3.31747 0
M  V30 10624 O 1006.58 -1.62741 3.67258 0
M  V30 10625 N 1004.79 -0.574828 2.84858 0
M  V30 10626 H 1004.33 0.272236 2.56157 0
M  V30 10627 H 1004.29 -1.441 2.79432 0
M  V30 10628 N 1008.06 -1.15214 1.07534 0
M  V30 10629 C 1009.29 -1.89922 0.820804 0
M  V30 10630 C 1009.71 -1.78114 -0.626177 0
M  V30 10631 O 1009.06 -1.13435 -1.42964 0
M  V30 10632 C 1009.12 -3.40207 1.22236 0
M  V30 10633 O 1008.84 -3.51676 2.61257 0
M  V30 10634 C 1010.34 -4.31934 0.997393 0
M  V30 10635 H 1007.56 -0.601865 0.296647 0
M  V30 10636 H 1010.1 -1.45965 1.43229 0
M  V30 10637 H 1008.26 -3.8182 0.655167 0
M  V30 10638 H 1008.67 -4.44959 2.77689 0
M  V30 10639 H 1010.14 -5.35791 1.32785 0
M  V30 10640 H 1010.62 -4.3915 -0.0661599 0
M  V30 10641 H 1011.23 -3.96066 1.54958 0
M  V30 10642 N 1009.54 -0.859717 -1.32086 0
M  V30 10643 C 1010.96 -0.55025 -1.49815 0
M  V30 10644 C 1011.16 0.917966 -1.79376 0
M  V30 10645 O 1010.21 1.70073 -1.86632 0
M  V30 10646 C 1011.53 -1.44161 -2.6389 0
M  V30 10647 C 1013.08 -1.44257 -2.77775 0
M  V30 10648 C 1013.55 -2.31926 -3.94936 0
M  V30 10649 N 1015.04 -2.2975 -4.02206 0
M  V30 10650 C 1015.78 -2.9431 -4.92107 0
M  V30 10651 N 1015.27 -3.68001 -5.86981 0
M  V30 10652 N 1017.07 -2.83671 -4.8527 0
M  V30 10653 H 1009.22 -1.80987 -1.11164 0
M  V30 10654 H 1011.48 -0.773313 -0.548353 0
M  V30 10655 H 1011.19 -2.48588 -2.4879 0
M  V30 10656 H 1011.06 -1.13268 -3.59792 0
M  V30 10657 H 1013.45 -0.405923 -2.92295 0
M  V30 10658 H 1013.53 -1.79169 -1.82571 0
M  V30 10659 H 1013.17 -3.35661 -3.81174 0
M  V30 10660 H 1013.1 -1.94344 -4.89426 0
M  V30 10661 H 1015.59 -1.76177 -3.3432 0
M  V30 10662 H 1015.91 -4.14417 -6.52287 0
M  V30 10663 H 1014.25 -3.72109 -5.86992 0
M  V30 10664 H 1017.44 -2.25647 -4.10123 0
M  V30 10665 H 1017.61 -3.34267 -5.5513 0
M  V30 10666 N 1011.02 1.44971 -0.618145 0
M  V30 10667 C 1012.44 1.57077 -0.282666 0
M  V30 10668 C 1012.64 1.60782 1.21456 0
M  V30 10669 O 1011.69 1.54382 1.99806 0
M  V30 10670 C 1013.01 2.84858 -0.963148 0
M  V30 10671 C 1014.55 2.9855 -0.940062 0
M  V30 10672 C 1015.03 4.29115 -1.60076 0
M  V30 10673 N 1016.52 4.35899 -1.56674 0
M  V30 10674 C 1017.25 5.35617 -2.04701 0
M  V30 10675 N 1016.75 6.41813 -2.6086 0
M  V30 10676 N 1018.54 5.27042 -1.95406 0
M  V30 10677 H 1010.69 1.4081 -1.59017 0
M  V30 10678 H 1012.96 0.673914 -0.666741 0
M  V30 10679 H 1012.66 2.88059 -2.0178 0
M  V30 10680 H 1012.54 3.73966 -0.492901 0
M  V30 10681 H 1014.92 2.94909 0.10607 0
M  V30 10682 H 1015.01 2.10825 -1.44868 0
M  V30 10683 H 1014.65 4.33514 -2.64627 0
M  V30 10684 H 1014.58 5.15675 -1.06708 0
M  V30 10685 H 1017.07 3.59766 -1.15659 0
M  V30 10686 H 1017.38 7.14166 -2.95273 0
M  V30 10687 H 1015.73 6.42534 -2.64905 0
M  V30 10688 H 1018.92 4.42987 -1.51263 0
M  V30 10689 H 1019.09 6.04604 -2.33147 0
M  V30 10690 N 1012.5 0.357919 1.53482 0
M  V30 10691 C 1013.73 -0.23514 2.05559 0
M  V30 10692 C 1014.14 -1.43068 1.23195 0
M  V30 10693 O 1013.5 -1.80481 0.270741 0
M  V30 10694 C 1013.55 -0.636147 3.55859 0
M  V30 10695 O 1013.27 0.511864 4.35099 0
M  V30 10696 C 1014.77 -1.28841 4.24164 0
M  V30 10697 H 1011.99 -0.0428446 0.669631 0
M  V30 10698 H 1014.54 0.51407 1.97933 0
M  V30 10699 H 1012.69 -1.33528 3.63661 0
M  V30 10700 H 1013.1 0.189328 5.24158 0
M  V30 10701 H 1014.58 -1.51962 5.30671 0
M  V30 10702 H 1015.06 -2.24638 3.77405 0
M  V30 10703 H 1015.66 -0.630914 4.20594 0
M  V30 10704 N 1013.98 -1.5736 0.0868897 0
M  V30 10705 C 1015.22 -1.9367 -0.577598 0
M  V30 10706 C 1015.55 -0.968844 -1.69229 0
M  V30 10707 O 1014.82 -0.0195061 -1.9589 0
M  V30 10708 H 1013.4 -0.714983 -0.216353 0
M  V30 10709 H 1016.06 -1.94335 0.148294 0
M  V30 10710 H 1015.15 -2.95877 -0.993128 0
M  V30 10711 N 1015.45 0.186762 -1.56489 0
M  V30 10712 C 1016.4 1.25084 -1.96104 0
M  V30 10713 C 1017.4 1.4667 -0.847609 0
M  V30 10714 O 1018.6 1.47432 -1.03266 0
M  V30 10715 H 1014.98 0.420121 -0.623701 0
M  V30 10716 H 1016.95 0.889761 -2.84826 0
M  V30 10717 C 1015.7 2.5863 -2.32392 0
M  V30 10718 H 1015.02 2.42838 -3.176 0
M  V30 10719 H 1016.46 3.3181 -2.63967 0
M  V30 10720 C 1014.92 3.16241 -1.16159 0
M  V30 10721 O 1015.45 3.99272 -0.441034 0
M  V30 10722 N 1013.66 2.75106 -0.936206 0
M  V30 10723 H 1013.2 2.0769 -1.5239 0
M  V30 10724 H 1013.16 3.13991 -0.160317 0
M  V30 10725 N 1016.93 1.50896 0.454776 0
M  V30 10726 C 1018.18 1.61936 1.20248 0
M  V30 10727 C 1018.49 0.332983 1.92745 0
M  V30 10728 O 1019.7 0.322512 2.69578 0
M  V30 10729 C 1018.16 2.85916 2.18587 0
M  V30 10730 C 1017.76 4.21492 1.51818 0
M  V30 10731 C 1019.51 3.06307 2.93898 0
M  V30 10732 C 1017.42 5.3664 2.48539 0
M  V30 10733 H 1016.35 0.603098 0.452536 0
M  V30 10734 H 1019 1.77345 0.471257 0
M  V30 10735 H 1017.38 2.64101 2.95071 0
M  V30 10736 H 1018.55 4.53623 0.810123 0
M  V30 10737 H 1016.87 4.06837 0.887265 0
M  V30 10738 H 1019.46 3.89507 3.66317 0
M  V30 10739 H 1019.81 2.18683 3.54236 0
M  V30 10740 H 1020.34 3.2838 2.24525 0
M  V30 10741 H 1017.08 6.26469 1.92916 0
M  V30 10742 H 1016.6 5.08907 3.17449 0
M  V30 10743 H 1018.28 5.67881 3.10033 0
M  V30 10744 N 1018.41 -0.709066 1.40748 0
M  V30 10745 C 1019.34 -1.83412 1.37451 0
M  V30 10746 C 1020.36 -1.60394 0.27884 0
M  V30 10747 O 1021.54 -1.70147 0.539642 0
M  V30 10748 C 1018.64 -3.19935 1.1178 0
M  V30 10749 C 1017.82 -3.70095 2.33128 0
M  V30 10750 C 1016.88 -4.85249 2.03518 0
M  V30 10751 O 1015.9 -4.97563 2.76442 0
M  V30 10752 N 1017.1 -5.7152 1.01714 0
M  V30 10753 H 1019.87 -1.86736 2.34414 0
M  V30 10754 H 1017.43 -0.890863 1.35186 0
M  V30 10755 H 1019.42 -3.94578 0.899464 0
M  V30 10756 H 1017.99 -3.11718 0.234624 0
M  V30 10757 H 1017.21 -2.8651 2.70751 0
M  V30 10758 H 1018.5 -4.00344 3.1401 0
M  V30 10759 H 1017.9 -5.64188 0.413307 0
M  V30 10760 H 1016.46 -6.46119 0.858696 0
M  V30 10761 N 1019.89 -1.26353 -0.941956 0
M  V30 10762 C 1021.14 -1.11241 -1.68251 0
M  V30 10763 C 1021.45 0.344055 -1.9255 0
M  V30 10764 O 1022.66 0.615832 -2.64423 0
M  V30 10765 C 1021.11 -1.94269 -3.02965 0
M  V30 10766 C 1020.72 -3.44485 -2.86415 0
M  V30 10767 C 1022.47 -1.87764 -3.80716 0
M  V30 10768 C 1020.37 -4.19763 -4.16597 0
M  V30 10769 H 1019.3 -0.412694 -0.63103 0
M  V30 10770 H 1021.95 -1.50656 -1.04762 0
M  V30 10771 H 1020.34 -1.47687 -3.6743 0
M  V30 10772 H 1021.51 -3.9883 -2.30805 0
M  V30 10773 H 1019.82 -3.52218 -2.22107 0
M  V30 10774 H 1022.42 -2.41292 -4.77161 0
M  V30 10775 H 1022.76 -0.848195 -4.07568 0
M  V30 10776 H 1023.3 -2.32165 -3.23024 0
M  V30 10777 H 1020.04 -5.23173 -3.9493 0
M  V30 10778 H 1019.56 -3.70198 -4.71925 0
M  V30 10779 H 1021.24 -4.28168 -4.85058 0
M  V30 10780 N 1021.37 1.14642 -1.08144 0
M  V30 10781 C 1022.78 1.37604 -0.808537 0
M  V30 10782 C 1022.98 1.92868 0.583452 0
M  V30 10783 O 1022.04 2.13964 1.34073 0
M  V30 10784 C 1023.35 2.3396 -1.889 0
M  V30 10785 C 1024.9 2.47605 -1.9147 0
M  V30 10786 C 1025.38 3.47258 -2.98623 0
M  V30 10787 N 1026.87 3.548 -2.97777 0
M  V30 10788 C 1027.6 4.31751 -3.77331 0
M  V30 10789 N 1027.1 5.11966 -4.66757 0
M  V30 10790 N 1028.89 4.2692 -3.65645 0
M  V30 10791 H 1021.04 0.771154 -1.97906 0
M  V30 10792 H 1023.3 0.401694 -0.858688 0
M  V30 10793 H 1023.01 2.00484 -2.88962 0
M  V30 10794 H 1022.88 3.33833 -1.756 0
M  V30 10795 H 1025.27 2.80375 -0.920548 0
M  V30 10796 H 1025.35 1.47702 -2.08848 0
M  V30 10797 H 1025 3.15223 -3.98243 0
M  V30 10798 H 1024.93 4.46935 -2.7849 0
M  V30 10799 H 1027.42 2.97553 -2.3296 0
M  V30 10800 H 1027.73 5.67951 -5.24072 0
M  V30 10801 H 1026.08 5.11245 -4.70801 0
M  V30 10802 H 1029.27 3.63322 -2.95152 0
M  V30 10803 H 1029.44 4.8664 -4.27885 0
M  V30 10804 N 1022.85 0.866709 1.31628 0
M  V30 10805 C 1023.78 0.335762 2.31073 0
M  V30 10806 C 1024.76 -0.571597 1.60209 0
M  V30 10807 O 1025.94 -0.489306 1.87935 0
M  V30 10808 C 1023.07 -0.466416 3.44154 0
M  V30 10809 C 1022.03 0.347561 4.26586 0
M  V30 10810 C 1021.35 -0.5801 5.31544 0
M  V30 10811 C 1022.65 1.57986 4.97833 0
M  V30 10812 H 1024.35 1.16673 2.75731 0
M  V30 10813 H 1021.89 0.56248 1.3256 0
M  V30 10814 H 1023.84 -0.84836 4.12772 0
M  V30 10815 H 1022.57 -1.33086 2.98254 0
M  V30 10816 H 1021.23 0.71141 3.59631 0
M  V30 10817 H 1020.88 -1.44174 4.81895 0
M  V30 10818 H 1020.58 -0.0393965 5.87587 0
M  V30 10819 H 1022.1 -0.958958 6.03023 0
M  V30 10820 H 1023.51 1.26954 5.59067 0
M  V30 10821 H 1021.91 2.05939 5.63657 0
M  V30 10822 H 1022.98 2.3345 4.25005 0
M  V30 10823 N 1024.32 -1.44642 0.625825 0
M  V30 10824 C 1025.73 -1.85502 0.211175 0
M  V30 10825 C 1026.09 -1.52356 -1.2362 0
M  V30 10826 O 1025.21 -0.959051 -1.93988 0
M  V30 10827 C 1025.81 -3.36702 0.37648 0
M  V30 10828 C 1024.36 -3.76396 0.0163795 0
M  V30 10829 C 1023.51 -2.68517 0.692368 0
M  V30 10830 H 1026.46 -1.35183 0.831333 0
M  V30 10831 H 1026.48 -3.78536 -0.386106 0
M  V30 10832 H 1026 -3.60795 1.42999 0
M  V30 10833 H 1024.1 -3.57919 -1.0356 0
M  V30 10834 H 1024.21 -4.77231 0.422742 0
M  V30 10835 H 1022.57 -2.54377 0.128191 0
M  V30 10836 H 1023.36 -2.95444 1.74837 0
M  V30 10837 N 1025.8 -0.366053 -1.5329 0
M  V30 10838 C 1027.05 0.216398 -2.02246 0
M  V30 10839 C 1027.4 1.46384 -1.24858 0
M  V30 10840 O 1026.7 1.88667 -0.333977 0
M  V30 10841 C 1026.89 0.560906 -3.52971 0
M  V30 10842 C 1026.72 -0.651598 -4.44954 0
M  V30 10843 C 1025.49 -1.16381 -4.91715 0
M  V30 10844 C 1027.69 -1.51695 -4.91419 0
M  V30 10845 N 1025.67 -2.33629 -5.67706 0
M  V30 10846 C 1027.04 -2.53608 -5.65759 0
M  V30 10847 C 1029.09 -1.53977 -4.73493 0
M  V30 10848 C 1027.8 -3.57661 -6.24076 0
M  V30 10849 C 1029.82 -2.56923 -5.32677 0
M  V30 10850 C 1029.19 -3.5756 -6.06902 0
M  V30 10851 H 1025.28 0.0418889 -0.780877 0
M  V30 10852 H 1027.87 -0.510704 -1.87883 0
M  V30 10853 H 1026.04 1.25708 -3.67494 0
M  V30 10854 H 1027.77 1.12849 -3.88648 0
M  V30 10855 H 1024.53 -0.728374 -4.67965 0
M  V30 10856 H 1024.95 -2.92891 -6.10364 0
M  V30 10857 H 1029.59 -0.775265 -4.15631 0
M  V30 10858 H 1027.31 -4.34993 -6.81034 0
M  V30 10859 H 1030.9 -2.59544 -5.207 0
M  V30 10860 H 1029.78 -4.35912 -6.51882 0
M  V30 10861 N 1027.28 1.57312 -0.0952337 0
M  V30 10862 C 1028.51 1.98409 0.575984 0
M  V30 10863 C 1028.92 0.973168 1.62253 0
M  V30 10864 O 1028.26 -0.0454416 1.83644 0
M  V30 10865 C 1028.32 3.35877 1.28167 0
M  V30 10866 C 1027.99 4.55368 0.385868 0
M  V30 10867 C 1028.98 5.1861 -0.366041 0
M  V30 10868 C 1026.67 5.0138 0.303885 0
M  V30 10869 C 1028.66 6.26233 -1.18791 0
M  V30 10870 C 1026.35 6.0887 -0.521637 0
M  V30 10871 C 1027.35 6.71161 -1.26618 0
M  V30 10872 O 1027.04 7.76577 -2.07804 0
M  V30 10873 H 1026.77 0.657018 0.159068 0
M  V30 10874 H 1029.32 2.04685 -0.171237 0
M  V30 10875 H 1027.55 3.26284 2.07547 0
M  V30 10876 H 1029.24 3.6142 1.84744 0
M  V30 10877 H 1030.01 4.83993 -0.312435 0
M  V30 10878 H 1025.89 4.52657 0.873065 0
M  V30 10879 H 1029.43 6.74784 -1.76955 0
M  V30 10880 H 1025.33 6.42918 -0.576722 0
M  V30 10881 H 1026.09 7.93566 -2.00489 0
M  V30 10882 N 1028.76 -0.17846 1.56586 0
M  V30 10883 C 1029.98 -0.916061 1.86073 0
M  V30 10884 C 1030.41 -1.75349 0.680754 0
M  V30 10885 O 1029.77 -1.77479 -0.37028 0
M  V30 10886 C 1029.81 -1.77445 3.1392 0
M  V30 10887 O 1028.92 -2.87524 2.95641 0
M  V30 10888 H 1028.26 -0.257031 0.612234 0
M  V30 10889 H 1030.79 -0.178755 2.03818 0
M  V30 10890 H 1030.8 -2.1758 3.45142 0
M  V30 10891 H 1029.47 -1.15927 3.99417 0
M  V30 10892 H 1028.05 -2.51023 2.75757 0
M  V30 10893 N 1030.24 -1.51135 -0.446768 0
M  V30 10894 C 1031.47 -1.66887 -1.21788 0
M  V30 10895 C 1031.87 -0.361729 -1.8571 0
M  V30 10896 O 1031.22 0.668784 -1.71093 0
M  V30 10897 C 1031.28 -2.72062 -2.34994 0
M  V30 10898 C 1030.94 -4.14935 -1.91516 0
M  V30 10899 C 1031.94 -5.00021 -1.42389 0
M  V30 10900 C 1029.62 -4.60985 -1.99495 0
M  V30 10901 C 1031.62 -6.29216 -1.01816 0
M  V30 10902 C 1029.31 -5.90179 -1.58532 0
M  V30 10903 C 1030.3 -6.74121 -1.09774 0
M  V30 10904 O 1029.99 -8.009 -0.69389 0
M  V30 10905 H 1029.72 -0.563431 -0.373525 0
M  V30 10906 H 1032.28 -1.98261 -0.536818 0
M  V30 10907 H 1030.51 -2.35983 -3.06348 0
M  V30 10908 H 1032.2 -2.76788 -2.96889 0
M  V30 10909 H 1032.96 -4.6565 -1.35627 0
M  V30 10910 H 1028.84 -3.95777 -2.36393 0
M  V30 10911 H 1032.39 -6.94687 -0.636879 0
M  V30 10912 H 1028.28 -6.24066 -1.64962 0
M  V30 10913 H 1029.05 -8.14376 -0.820582 0
M  V30 10914 N 1031.71 0.701592 -1.41122 0
M  V30 10915 C 1032.64 1.82815 -1.45262 0
M  V30 10916 C 1033.62 1.67215 -0.311939 0
M  V30 10917 O 1034.81 1.87038 -0.522538 0
M  V30 10918 C 1031.94 3.20899 -1.32819 0
M  V30 10919 C 1030.89 3.51194 -2.44636 0
M  V30 10920 C 1030.22 4.8857 -2.17263 0
M  V30 10921 C 1031.52 3.50777 -3.86979 0
M  V30 10922 H 1033.21 1.79608 -2.39544 0
M  V30 10923 H 1030.76 0.862693 -1.15298 0
M  V30 10924 H 1032.71 3.99417 -1.34329 0
M  V30 10925 H 1031.44 3.24717 -0.350191 0
M  V30 10926 H 1030.1 2.75024 -2.42399 0
M  V30 10927 H 1029.74 4.89007 -1.17819 0
M  V30 10928 H 1029.44 5.09805 -2.92186 0
M  V30 10929 H 1030.97 5.69405 -2.20478 0
M  V30 10930 H 1032.38 4.19309 -3.90964 0
M  V30 10931 H 1030.78 3.83542 -4.61536 0
M  V30 10932 H 1031.85 2.49873 -4.15562 0
M  V30 10933 N 1033.19 1.2685 0.935242 0
M  V30 10934 C 1034.42 1.15371 1.71386 0
M  V30 10935 C 1034.83 -0.293048 1.86917 0
M  V30 10936 O 1034.17 -1.212 1.38044 0
M  V30 10937 C 1034.23 1.75652 3.13666 0
M  V30 10938 C 1033.9 3.24788 3.215 0
M  V30 10939 C 1034.9 4.21525 3.04323 0
M  V30 10940 C 1032.58 3.65359 3.447 0
M  V30 10941 C 1034.57 5.56812 3.10224 0
M  V30 10942 C 1032.26 5.00778 3.50235 0
M  V30 10943 C 1033.26 5.96314 3.33014 0
M  V30 10944 O 1032.95 7.29266 3.38269 0
M  V30 10945 H 1032.68 0.40234 0.54323 0
M  V30 10946 H 1035.23 1.68083 1.18056 0
M  V30 10947 H 1033.46 1.17408 3.68446 0
M  V30 10948 H 1035.15 1.58994 3.73465 0
M  V30 10949 H 1035.92 3.91519 2.86249 0
M  V30 10950 H 1031.8 2.91479 3.57157 0
M  V30 10951 H 1035.34 6.3136 2.967 0
M  V30 10952 H 1031.24 5.30444 3.67831 0
M  V30 10953 H 1032.01 7.37616 3.54774 0
M  V30 10954 N 1034.67 -1.14067 1.0875 0
M  V30 10955 C 1035.63 -2.17453 0.724341 0
M  V30 10956 C 1036.63 -1.58959 -0.242614 0
M  V30 10957 O 1037.82 -1.74186 -0.0217008 0
M  V30 10958 C 1034.96 -3.40828 0.0700236 0
M  V30 10959 H 1036.15 -2.51094 1.63987 0
M  V30 10960 H 1033.7 -1.28775 0.885813 0
M  V30 10961 H 1034.44 -3.1277 -0.857061 0
M  V30 10962 H 1034.22 -3.84551 0.76569 0
M  V30 10963 H 1035.71 -4.17258 -0.168905 0
M  V30 10964 N 1036.15 -0.873678 -1.31166 0
M  V30 10965 C 1037.39 -0.487178 -1.96861 0
M  V30 10966 C 1037.73 0.95887 -1.68877 0
M  V30 10967 O 1037 1.6758 -0.987279 0
M  V30 10968 C 1037.29 -0.74925 -3.52219 0
M  V30 10969 C 1037.14 -2.2451 -3.89763 0
M  V30 10970 C 1038.46 -0.218194 -4.39559 0
M  V30 10971 H 1035.58 -0.178477 -0.715063 0
M  V30 10972 H 1038.22 -1.0956 -1.55231 0
M  V30 10973 H 1036.37 -0.231403 -3.8781 0
M  V30 10974 H 1038.04 -2.83049 -3.64254 0
M  V30 10975 H 1036.28 -2.71621 -3.38237 0
M  V30 10976 H 1036.95 -2.37911 -4.98099 0
M  V30 10977 H 1039.43 -0.661274 -4.10812 0
M  V30 10978 H 1038.31 -0.430983 -5.47205 0
M  V30 10979 H 1038.57 0.880056 -4.33252 0
M  V30 10980 N 1037.63 1.44308 -0.633487 0
M  V30 10981 C 1038.85 2.06897 -0.144347 0
M  V30 10982 C 1039.28 1.47045 1.173 0
M  V30 10983 O 1038.63 0.572806 1.72013 0
M  V30 10984 C 1038.68 3.60571 -0.0456324 0
M  V30 10985 O 1037.79 4.0015 0.997682 0
M  V30 10986 H 1037.13 0.658427 -0.0858499 0
M  V30 10987 H 1039.66 1.85142 -0.870833 0
M  V30 10988 H 1039.67 4.07745 0.144178 0
M  V30 10989 H 1038.34 4.03515 -1.0074 0
M  V30 10990 H 1036.92 3.64603 0.782252 0
M  V30 10991 N 1039.1 0.374177 1.53094 0
M  V30 10992 C 1040.35 -0.212396 2.00981 0
M  V30 10993 C 1040.67 -1.48576 1.26293 0
M  V30 10994 O 1039.94 -1.92206 0.378642 0
M  V30 10995 H 1038.52 -0.0814763 0.742543 0
M  V30 10996 H 1041.19 0.502389 1.88314 0
M  V30 10997 H 1040.28 -0.433316 3.09077 0
M  V30 10998 N 1040.58 -1.57259 0.103575 0
M  V30 10999 C 1041.55 -2.13337 -0.837859 0
M  V30 11000 C 1042.55 -1.06459 -1.20512 0
M  V30 11001 O 1043.74 -1.32307 -1.13316 0
M  V30 11002 C 1040.87 -2.66093 -2.13089 0
M  V30 11003 H 1042.06 -2.97842 -0.350775 0
M  V30 11004 H 1039.61 -1.55621 -0.145511 0
M  V30 11005 H 1040.35 -1.85133 -2.66264 0
M  V30 11006 H 1040.13 -3.44244 -1.87719 0
M  V30 11007 H 1041.62 -3.09443 -2.80419 0
M  V30 11008 N 1042.06 0.170153 -1.56679 0
M  V30 11009 C 1042.99 1.21285 -1.9953 0
M  V30 11010 C 1043.97 1.46104 -0.871071 0
M  V30 11011 O 1045.16 1.57419 -1.13724 0
M  V30 11012 C 1042.29 2.5515 -2.35618 0
M  V30 11013 C 1041.24 2.44898 -3.51011 0
M  V30 11014 C 1040.57 3.83263 -3.72845 0
M  V30 11015 C 1041.87 1.95271 -4.84424 0
M  V30 11016 H 1043.56 0.856646 -2.86883 0
M  V30 11017 H 1041.11 0.410634 -1.38021 0
M  V30 11018 H 1043.06 3.28299 -2.64193 0
M  V30 11019 H 1041.78 2.92561 -1.45175 0
M  V30 11020 H 1040.44 1.74203 -3.22566 0
M  V30 11021 H 1040.09 4.18069 -2.79691 0
M  V30 11022 H 1039.79 3.77272 -4.50488 0
M  V30 11023 H 1041.31 4.57996 -4.03822 0
M  V30 11024 H 1042.73 2.58195 -5.11867 0
M  V30 11025 H 1041.13 2.00225 -5.65712 0
M  V30 11026 H 1042.2 0.90709 -4.7634 0
M  V30 11027 N 1043.54 1.5137 0.438746 0
M  V30 11028 C 1044.82 1.54508 1.19944 0
M  V30 11029 C 1045.2 0.308525 2.08833 0
M  V30 11030 O 1044.54 -0.706461 2.17305 0
M  V30 11031 C 1044.75 2.85833 2.00251 0
M  V30 11032 C 1046.1 3.37729 2.5734 0
M  V30 11033 O 1047.13 2.87374 2.10463 0
M  V30 11034 O 1045.98 4.25589 3.42836 0
M  V30 11035 H 1043.08 0.621132 0.546007 0
M  V30 11036 H 1045.62 1.63682 0.447931 0
M  V30 11037 H 1044.4 3.67291 1.34955 0
M  V30 11038 H 1044.02 2.79815 2.8247 0
M  V30 11039 N 1045.02 -0.694098 1.41492 0
M  V30 11040 C 1046.26 -1.45127 1.4065 0
M  V30 11041 C 1046.59 -1.94993 0.0170289 0
M  V30 11042 O 1045.86 -1.71799 -0.941372 0
M  V30 11043 H 1044.44 -0.538493 0.51772 0
M  V30 11044 H 1047.1 -0.821441 1.76744 0
M  V30 11045 H 1046.19 -2.31372 2.0946 0
M  V30 11046 N 1046.49 -1.27344 -0.928501 0
M  V30 11047 C 1047.42 -1.12517 -2.04602 0
M  V30 11048 C 1048.41 -0.0268563 -1.70079 0
M  V30 11049 O 1049.59 -0.201197 -1.93155 0
M  V30 11050 C 1046.72 -0.770749 -3.3864 0
M  V30 11051 C 1045.67 -1.8222 -3.87272 0
M  V30 11052 C 1045 -1.32178 -5.18105 0
M  V30 11053 C 1046.3 -3.22614 -4.10752 0
M  V30 11054 H 1047.99 -2.06 -2.17265 0
M  V30 11055 H 1045.54 -0.991827 -1.04397 0
M  V30 11056 H 1047.49 -0.653843 -4.16297 0
M  V30 11057 H 1046.22 0.19979 -3.25988 0
M  V30 11058 H 1044.88 -1.928 -3.11807 0
M  V30 11059 H 1044.52 -0.340719 -5.01845 0
M  V30 11060 H 1044.22 -2.02474 -5.51614 0
M  V30 11061 H 1045.75 -1.2178 -5.98333 0
M  V30 11062 H 1047.16 -3.1504 -4.78981 0
M  V30 11063 H 1045.56 -3.90614 -4.55566 0
M  V30 11064 H 1046.63 -3.67727 -3.16077 0
M  V30 11065 N 1047.97 1.13488 -1.09353 0
M  V30 11066 C 1049.22 1.84383 -0.827488 0
M  V30 11067 C 1049.54 1.83892 0.648745 0
M  V30 11068 O 1048.81 1.29415 1.47066 0
M  V30 11069 H 1047.39 0.682732 -0.303127 0
M  V30 11070 H 1050.05 1.37477 -1.38152 0
M  V30 11071 H 1049.15 2.88919 -1.18035 0
M  V30 11072 N 1049.45 0.880621 1.30701 0
M  V30 11073 C 1050.73 0.41712 1.91101 0
M  V30 11074 C 1051.11 -1.10177 1.80067 0
M  V30 11075 O 1050.46 -1.93513 1.21511 0
M  V30 11076 C 1050.67 0.910364 3.36917 0
M  V30 11077 C 1052.01 0.942764 4.14001 0
M  V30 11078 O 1053.04 0.856733 3.45743 0
M  V30 11079 O 1051.9 1.06913 5.3594 0
M  V30 11080 H 1048.99 0.126775 0.817225 0
M  V30 11081 H 1051.54 0.969236 1.39298 0
M  V30 11082 H 1050.31 1.95414 3.39012 0
M  V30 11083 H 1049.93 0.337164 3.96168 0
M  V30 11084 N 1050.93 -1.4397 0.641131 0
M  V30 11085 C 1051.88 -2.30728 -0.0577905 0
M  V30 11086 C 1052.85 -1.44059 -0.826819 0
M  V30 11087 O 1054.03 -1.72947 -0.805853 0
M  V30 11088 C 1051.17 -3.29478 -1.02657 0
M  V30 11089 C 1050.28 -4.31247 -0.254913 0
M  V30 11090 C 1049.42 -5.17085 -1.2164 0
M  V30 11091 C 1048.46 -6.10556 -0.434481 0
M  V30 11092 N 1047.6 -6.89059 -1.34694 0
M  V30 11093 H 1052.44 -2.8995 0.687953 0
M  V30 11094 H 1049.97 -1.4285 0.351029 0
M  V30 11095 H 1051.93 -3.85228 -1.60173 0
M  V30 11096 H 1050.56 -2.71932 -1.73933 0
M  V30 11097 H 1049.61 -3.77889 0.436338 0
M  V30 11098 H 1050.92 -4.97545 0.353642 0
M  V30 11099 H 1050.08 -5.77402 -1.86258 0
M  V30 11100 H 1048.82 -4.50885 -1.85888 0
M  V30 11101 H 1047.82 -5.49339 0.225125 0
M  V30 11102 H 1049.05 -6.78795 0.203415 0
M  V30 11103 H 1046.99 -6.25518 -1.97644 0
M  V30 11104 H 1046.91 -7.51833 -0.792657 0
M  V30 11105 H 1048.18 -7.5389 -1.98165 0
M  V30 11106 N 1052.41 -0.382291 -1.52893 0
M  V30 11107 C 1053.64 0.202408 -2.05908 0
M  V30 11108 C 1054.05 1.4109 -1.25456 0
M  V30 11109 O 1053.41 1.80027 -0.29942 0
M  V30 11110 C 1053.46 0.579452 -3.56826 0
M  V30 11111 O 1053.18 -0.58102 -4.3423 0
M  V30 11112 C 1054.68 1.22076 -4.2616 0
M  V30 11113 H 1051.9 0.0321859 -0.670228 0
M  V30 11114 H 1054.44 -0.545494 -1.9709 0
M  V30 11115 H 1052.6 1.27726 -3.65739 0
M  V30 11116 H 1053.01 -0.272693 -5.23791 0
M  V30 11117 H 1054.49 1.435 -5.33021 0
M  V30 11118 H 1054.96 2.18605 -3.80931 0
M  V30 11119 H 1055.57 0.563922 -4.21545 0
M  V30 11120 N 1053.89 1.57202 -0.111913 0
M  V30 11121 C 1055.16 1.86459 0.590972 0
M  V30 11122 C 1055.54 1.01182 1.85271 0
M  V30 11123 O 1054.89 0.0887891 2.28327 0
M  V30 11124 C 1055.1 3.37455 0.890225 0
M  V30 11125 C 1056.45 4.05895 1.24638 0
M  V30 11126 O 1057.47 3.42433 0.980713 0
M  V30 11127 O 1056.33 5.17903 1.74466 0
M  V30 11128 H 1053.43 0.771652 0.297459 0
M  V30 11129 H 1055.97 1.69072 -0.145882 0
M  V30 11130 H 1054.74 3.913 -0.00419012 0
M  V30 11131 H 1054.37 3.60248 1.68248 0
M  V30 11132 N 1055.36 -0.161842 1.56767 0
M  V30 11133 C 1056.59 -0.896274 1.87034 0
M  V30 11134 C 1057.01 -1.74617 0.699314 0
M  V30 11135 O 1056.37 -1.77861 -0.351435 0
M  V30 11136 C 1056.42 -1.74105 3.15784 0
M  V30 11137 O 1055.52 -2.84372 2.98674 0
M  V30 11138 H 1054.86 -0.250523 0.614926 0
M  V30 11139 H 1057.39 -0.157127 2.03996 0
M  V30 11140 H 1057.4 -2.13907 3.4743 0
M  V30 11141 H 1056.08 -1.11684 4.00624 0
M  V30 11142 H 1054.66 -2.48084 2.78404 0
M  V30 11143 N 1056.84 -1.516 -0.430713 0
M  V30 11144 C 1058.07 -1.68414 -1.20185 0
M  V30 11145 C 1058.48 -0.384297 -1.84847 0
M  V30 11146 O 1057.84 0.637808 -1.70992 0
M  V30 11147 C 1057.89 -2.80451 -2.28099 0
M  V30 11148 O 1057.61 -4.05399 -1.66081 0
M  V30 11149 C 1059.11 -3.0859 -3.18256 0
M  V30 11150 H 1056.33 -0.564982 -0.361989 0
M  V30 11151 H 1058.88 -1.9805 -0.50954 0
M  V30 11152 H 1057.03 -2.53395 -2.93036 0
M  V30 11153 H 1057.45 -4.67671 -2.37453 0
M  V30 11154 H 1058.92 -3.9055 -3.90096 0
M  V30 11155 H 1059.4 -2.21264 -3.79393 0
M  V30 11156 H 1060 -3.37331 -2.59014 0
M  V30 11157 N 1058.32 0.686584 -1.41858 0
M  V30 11158 C 1059.57 1.44665 -1.41698 0
M  V30 11159 C 1059.89 1.94478 -0.0292442 0
M  V30 11160 O 1059.15 1.70512 0.960421 0
M  V30 11161 C 1059.45 2.66793 -2.37816 0
M  V30 11162 C 1059.11 2.35587 -3.8446 0
M  V30 11163 C 1057.78 2.26788 -4.24406 0
M  V30 11164 C 1060.13 2.10028 -4.77009 0
M  V30 11165 C 1057.46 1.90538 -5.54898 0
M  V30 11166 C 1059.81 1.75285 -6.07831 0
M  V30 11167 C 1058.47 1.64987 -6.46789 0
M  V30 11168 H 1057.74 0.529367 -0.518509 0
M  V30 11169 H 1060.39 0.783938 -1.74719 0
M  V30 11170 H 1058.69 3.38041 -1.9808 0
M  V30 11171 H 1060.39 3.24953 -2.34961 0
M  V30 11172 H 1056.98 2.43334 -3.52826 0
M  V30 11173 H 1061.17 2.15766 -4.46944 0
M  V30 11174 H 1056.42 1.81125 -5.83955 0
M  V30 11175 H 1060.6 1.5453 -6.79039 0
M  V30 11176 H 1058.22 1.36667 -7.47814 0
M  V30 11177 N 1059.8 1.27835 0.921735 0
M  V30 11178 C 1061.05 1.14296 1.66676 0
M  V30 11179 C 1061.37 -0.310493 1.92512 0
M  V30 11180 O 1060.64 -1.21637 1.53562 0
M  V30 11181 H 1059.22 0.419994 0.617749 0
M  V30 11182 H 1061.88 1.60449 1.10644 0
M  V30 11183 H 1060.97 1.67654 2.63246 0
M  V30 11184 N 1061.28 -1.12907 1.09954 0
M  V30 11185 C 1062.21 -2.20585 0.765799 0
M  V30 11186 C 1063.19 -1.68117 -0.258989 0
M  V30 11187 O 1064.37 -1.93792 -0.125853 0
M  V30 11188 C 1061.5 -3.46772 0.191435 0
M  V30 11189 C 1060.46 -4.12363 1.14635 0
M  V30 11190 C 1059.78 -5.3294 0.433426 0
M  V30 11191 C 1061.08 -4.59073 2.49096 0
M  V30 11192 H 1062.78 -2.48759 1.66612 0
M  V30 11193 H 1060.32 -1.19563 0.802534 0
M  V30 11194 H 1062.27 -4.21365 -0.0541535 0
M  V30 11195 H 1061 -3.18011 -0.744101 0
M  V30 11196 H 1059.66 -3.39744 1.37731 0
M  V30 11197 H 1059.31 -5.00444 -0.506422 0
M  V30 11198 H 1059.01 -5.77772 1.07018 0
M  V30 11199 H 1060.53 -6.10284 0.196267 0
M  V30 11200 H 1061.94 -5.25063 2.30177 0
M  V30 11201 H 1060.34 -5.14665 3.0861 0
M  V30 11202 H 1061.41 -3.73313 3.0946 0
M  V30 11203 N 1062.75 -0.88754 -1.30232 0
M  V30 11204 C 1064 -0.507279 -1.96043 0
M  V30 11205 C 1064.33 0.944059 -1.70052 0
M  V30 11206 O 1063.58 1.68255 -0.999444 0
M  V30 11207 C 1063.88 -0.731765 -3.49828 0
M  V30 11208 C 1063.55 -2.15858 -3.95874 0
M  V30 11209 C 1062.21 -2.54875 -4.08157 0
M  V30 11210 C 1064.56 -3.0883 -4.19849 0
M  V30 11211 C 1061.89 -3.86069 -4.41778 0
M  V30 11212 C 1064.24 -4.39559 -4.5494 0
M  V30 11213 C 1062.91 -4.78465 -4.65432 0
M  V30 11214 H 1062.18 -0.185627 -0.717373 0
M  V30 11215 H 1064.82 -1.12388 -1.55052 0
M  V30 11216 H 1063.13 -0.0321473 -3.91787 0
M  V30 11217 H 1064.83 -0.417107 -3.98825 0
M  V30 11218 H 1061.42 -1.84574 -3.86821 0
M  V30 11219 H 1065.6 -2.79906 -4.09837 0
M  V30 11220 H 1060.86 -4.1595 -4.48102 0
M  V30 11221 H 1065.03 -5.11636 -4.72442 0
M  V30 11222 H 1062.66 -5.80162 -4.91239 0
M  V30 11223 N 1064.23 1.43628 -0.648757 0
M  V30 11224 C 1065.16 2.33478 0.0320785 0
M  V30 11225 C 1066.14 1.49217 0.816605 0
M  V30 11226 O 1067.33 1.77892 0.778974 0
M  V30 11227 C 1064.46 3.32525 1.00222 0
M  V30 11228 C 1063.41 4.2674 0.328119 0
M  V30 11229 C 1062.74 5.15791 1.4094 0
M  V30 11230 C 1064.04 5.16493 -0.776701 0
M  V30 11231 H 1065.73 2.90657 -0.718257 0
M  V30 11232 H 1063.28 1.3976 -0.346852 0
M  V30 11233 H 1065.23 3.94277 1.4874 0
M  V30 11234 H 1063.96 2.73593 1.78366 0
M  V30 11235 H 1062.61 3.66346 -0.136569 0
M  V30 11236 H 1062.26 4.53201 2.18216 0
M  V30 11237 H 1061.96 5.79645 0.963631 0
M  V30 11238 H 1063.49 5.80416 1.89603 0
M  V30 11239 H 1064.9 5.7208 -0.373878 0
M  V30 11240 H 1063.3 5.89043 -1.14667 0
M  V30 11241 H 1064.37 4.56448 -1.63654 0
M  V30 11242 N 1065.71 0.390394 1.52688 0
M  V30 11243 C 1066.96 -0.191445 2.01593 0
M  V30 11244 C 1067.29 -1.46723 1.27681 0
M  V30 11245 O 1066.54 -1.92248 0.365972 0
M  V30 11246 C 1066.84 -0.50468 3.53819 0
M  V30 11247 C 1066.51 0.679691 4.45748 0
M  V30 11248 C 1065.17 1.0046 4.70597 0
M  V30 11249 C 1067.52 1.47198 4.99982 0
M  V30 11250 C 1064.85 2.12334 5.46929 0
M  V30 11251 C 1067.2 2.58133 5.77538 0
M  V30 11252 C 1065.86 2.91131 6.00665 0
M  V30 11253 H 1065.13 -0.0700548 0.737681 0
M  V30 11254 H 1067.78 0.527965 1.84078 0
M  V30 11255 H 1066.09 -1.30543 3.69413 0
M  V30 11256 H 1067.78 -0.967524 3.89153 0
M  V30 11257 H 1064.37 0.416446 4.26572 0
M  V30 11258 H 1068.56 1.2342 4.80709 0
M  V30 11259 H 1063.81 2.38269 5.63061 0
M  V30 11260 H 1067.99 3.19925 6.18564 0
M  V30 11261 H 1065.61 3.77938 6.59596 0
M  V30 11262 N 1067.19 -1.57141 0.120249 0
M  V30 11263 C 1068.1 -2.18925 -0.843155 0
M  V30 11264 C 1069.11 -1.16575 -1.29175 0
M  V30 11265 O 1070.29 -1.4905 -1.35448 0
M  V30 11266 C 1067.36 -2.7775 -2.075 0
M  V30 11267 C 1066.42 -3.95139 -1.6782 0
M  V30 11268 C 1065.65 -4.51149 -2.85132 0
M  V30 11269 O 1065.87 -4.06056 -4.00593 0
M  V30 11270 O 1064.81 -5.41815 -2.62145 0
M  V30 11271 H 1068.63 -3.01707 -0.347357 0
M  V30 11272 H 1066.22 -1.49028 -0.105427 0
M  V30 11273 H 1068.1 -3.15243 -2.79643 0
M  V30 11274 H 1066.77 -1.97998 -2.56083 0
M  V30 11275 H 1065.68 -3.62412 -0.927807 0
M  V30 11276 H 1067.01 -4.7633 -1.23977 0
M  V30 11277 N 1068.67 0.153526 -1.5685 0
M  V30 11278 C 1069.92 0.865628 -1.82181 0
M  V30 11279 C 1070.23 1.82629 -0.700434 0
M  V30 11280 O 1071.43 2.58206 -0.839155 0
M  V30 11281 C 1069.89 1.58993 -3.22877 0
M  V30 11282 C 1069.5 0.672006 -4.42931 0
M  V30 11283 C 1071.24 2.2892 -3.57486 0
M  V30 11284 C 1069.15 1.39755 -5.7465 0
M  V30 11285 H 1068.08 0.326993 -0.679406 0
M  V30 11286 H 1070.73 0.118403 -1.83118 0
M  V30 11287 H 1069.11 2.38255 -3.16308 0
M  V30 11288 H 1070.29 -0.0849226 -4.60722 0
M  V30 11289 H 1068.6 0.0814825 -4.1632 0
M  V30 11290 H 1071.2 2.8383 -4.5315 0
M  V30 11291 H 1071.54 3.05105 -2.83226 0
M  V30 11292 H 1072.07 1.56583 -3.65686 0
M  V30 11293 H 1068.81 0.677686 -6.51987 0
M  V30 11294 H 1068.33 2.12736 -5.60806 0
M  V30 11295 H 1070.01 1.94024 -6.17223 0
M  V30 11296 N 1070.14 1.51827 0.422667 0
M  V30 11297 C 1071.11 1.7359 1.49663 0
M  V30 11298 C 1072.11 0.605811 1.48952 0
M  V30 11299 O 1073.3 0.87354 1.50715 0
M  V30 11300 C 1070.43 1.80585 2.8914 0
M  V30 11301 H 1071.62 2.69453 1.31664 0
M  V30 11302 H 1069.18 1.42038 0.652298 0
M  V30 11303 H 1069.91 0.865895 3.12526 0
M  V30 11304 H 1069.7 2.62729 2.9106 0
M  V30 11305 H 1071.19 1.99212 3.67021 0
M  V30 11306 N 1071.62 -0.679052 1.4222 0
M  V30 11307 C 1072.57 -1.81398 1.45594 0
M  V30 11308 C 1073.56 -1.66112 0.332127 0
M  V30 11309 O 1074.77 -1.72772 0.504942 0
M  V30 11310 H 1071.15 -0.598045 0.455902 0
M  V30 11311 H 1073.12 -1.7567 2.41211 0
M  V30 11312 C 1071.87 -3.19525 1.37109 0
M  V30 11313 H 1071.19 -3.31912 2.22878 0
M  V30 11314 H 1072.63 -3.98967 1.43531 0
M  V30 11315 C 1071.09 -3.36792 0.0853593 0
M  V30 11316 O 1071.62 -3.92309 -0.863532 0
M  V30 11317 N 1069.82 -2.906 0.00389229 0
M  V30 11318 H 1069.37 -2.45607 0.776846 0
M  V30 11319 H 1069.33 -3.0253 -0.855742 0
M  V30 11320 N 1073.1 -1.28322 -0.914942 0
M  V30 11321 C 1074.33 -1.18083 -1.69529 0
M  V30 11322 C 1074.74 0.263274 -1.87359 0
M  V30 11323 O 1074.08 1.18988 -1.39955 0
M  V30 11324 C 1074.14 -1.8062 -3.10832 0
M  V30 11325 C 1073.81 -3.29861 -3.16292 0
M  V30 11326 C 1074.8 -4.26313 -2.97578 0
M  V30 11327 C 1072.49 -3.70797 -3.38843 0
M  V30 11328 C 1074.48 -5.61677 -3.01326 0
M  V30 11329 C 1072.17 -5.06287 -3.42223 0
M  V30 11330 C 1073.17 -6.01537 -3.23485 0
M  V30 11331 O 1072.86 -7.34556 -3.26624 0
M  V30 11332 H 1072.59 -0.410931 -0.53676 0
M  V30 11333 H 1075.14 -1.6994 -1.15367 0
M  V30 11334 H 1073.37 -1.23255 -3.66531 0
M  V30 11335 H 1075.06 -1.64915 -3.70888 0
M  V30 11336 H 1075.83 -3.96023 -2.79984 0
M  V30 11337 H 1071.71 -2.97124 -3.52475 0
M  V30 11338 H 1075.25 -6.36 -2.86618 0
M  V30 11339 H 1071.15 -5.36228 -3.59346 0
M  V30 11340 H 1071.92 -7.43167 -3.42994 0
M  V30 11341 N 1074.58 1.12322 -1.10551 0
M  V30 11342 C 1075.53 2.20166 -0.750317 0
M  V30 11343 C 1076.52 1.67484 0.254066 0
M  V30 11344 O 1077.73 1.79637 0.114309 0
M  V30 11345 H 1074.1 0.717642 -0.22471 0
M  V30 11346 H 1076.07 2.47378 -1.66873 0
M  V30 11347 C 1074.82 3.47126 -0.199651 0
M  V30 11348 H 1074.14 3.88011 -0.963735 0
M  V30 11349 H 1075.58 4.23999 0.0108033 0
M  V30 11350 C 1074.04 3.19526 1.06792 0
M  V30 11351 O 1074.57 3.39368 2.14923 0
M  V30 11352 N 1072.78 2.73324 0.987032 0
M  V30 11353 H 1072.33 2.57378 0.106997 0
M  V30 11354 H 1072.28 2.55234 1.83584 0
M  V30 11355 N 1076.06 0.894434 1.2976 0
M  V30 11356 C 1077.01 0.339611 2.25457 0
M  V30 11357 C 1077.99 -0.537326 1.51663 0
M  V30 11358 O 1079.18 -0.380204 1.72868 0
M  V30 11359 C 1076.31 -0.436494 3.40514 0
M  V30 11360 C 1075.4 0.455065 4.21651 0
M  V30 11361 N 1075.79 1.55988 4.81146 0
M  V30 11362 C 1074.09 0.251893 4.45288 0
M  V30 11363 C 1074.79 2.1117 5.42017 0
M  V30 11364 N 1073.76 1.40541 5.25118 0
M  V30 11365 H 1077.57 1.18365 2.69011 0
M  V30 11366 H 1075.08 0.744895 1.44309 0
M  V30 11367 H 1077.08 -0.850678 4.08129 0
M  V30 11368 H 1075.74 -1.27786 2.98498 0
M  V30 11369 H 1076.75 1.94266 4.80084 0
M  V30 11370 H 1073.42 -0.551536 4.13841 0
M  V30 11371 H 1074.81 3.04 5.99194 0
M  V30 11372 N 1077.53 -1.43282 0.656365 0
M  V30 11373 C 1078.76 -2.06641 0.177245 0
M  V30 11374 C 1079.18 -1.48893 -1.14946 0
M  V30 11375 O 1078.54 -0.600099 -1.7108 0
M  V30 11376 C 1078.59 -3.60453 0.10299 0
M  V30 11377 O 1077.69 -4.01687 -0.933895 0
M  V30 11378 H 1077.04 -0.656978 0.096314 0
M  V30 11379 H 1079.57 -1.83733 0.900178 0
M  V30 11380 H 1079.58 -4.07923 -0.079291 0
M  V30 11381 H 1078.25 -4.01861 1.07147 0
M  V30 11382 H 1076.83 -3.65801 -0.724148 0
M  V30 11383 N 1079.01 -0.398486 -1.52479 0
M  V30 11384 C 1080.29 0.238776 -1.94137 0
M  V30 11385 C 1080.67 1.63558 -1.33462 0
M  V30 11386 O 1080.02 2.22821 -0.506272 0
M  V30 11387 C 1080.23 0.255863 -3.48061 0
M  V30 11388 C 1081.58 0.480376 -4.21874 0
M  V30 11389 O 1082.6 0.335679 -3.54615 0
M  V30 11390 O 1081.46 0.764654 -5.41124 0
M  V30 11391 H 1078.55 0.150806 -0.813134 0
M  V30 11392 H 1081.1 -0.453659 -1.63524 0
M  V30 11393 H 1079.87 -0.722171 -3.84578 0
M  V30 11394 H 1079.49 0.99284 -3.85004 0
M  V30 11395 N 1080.49 1.57075 -0.12858 0
M  V30 11396 C 1081.4 2.19369 0.831533 0
M  V30 11397 C 1082.42 1.17258 1.28555 0
M  V30 11398 O 1083.59 1.49766 1.34656 0
M  V30 11399 C 1080.66 2.78846 2.06024 0
M  V30 11400 C 1079.72 3.96024 1.65722 0
M  V30 11401 C 1078.95 4.52655 2.82735 0
M  V30 11402 O 1079.18 4.08175 3.98434 0
M  V30 11403 O 1078.11 5.43198 2.59268 0
M  V30 11404 H 1081.94 3.01887 0.331352 0
M  V30 11405 H 1079.52 1.49081 0.0975226 0
M  V30 11406 H 1081.4 3.16721 2.77967 0
M  V30 11407 H 1080.08 1.99353 2.5503 0
M  V30 11408 H 1078.98 3.62899 0.908574 0
M  V30 11409 H 1080.32 4.76981 1.21449 0
M  V30 11410 N 1081.97 -0.145205 1.5693 0
M  V30 11411 C 1083.2 -0.871133 1.87336 0
M  V30 11412 C 1083.61 -1.7517 0.714992 0
M  V30 11413 O 1082.95 -1.80815 -0.324304 0
M  V30 11414 C 1083.01 -1.77775 3.12468 0
M  V30 11415 C 1082.68 -1.07416 4.44197 0
M  V30 11416 C 1083.67 -0.42722 5.18142 0
M  V30 11417 C 1081.36 -1.06313 4.9092 0
M  V30 11418 C 1083.35 0.221348 6.37016 0
M  V30 11419 C 1081.04 -0.410755 6.09718 0
M  V30 11420 C 1082.04 0.230357 6.82611 0
M  V30 11421 O 1081.73 0.872389 7.99152 0
M  V30 11422 H 1081.46 -0.257174 0.62517 0
M  V30 11423 H 1084.01 -0.142159 2.04907 0
M  V30 11424 H 1082.24 -2.54771 2.9091 0
M  V30 11425 H 1083.93 -2.37579 3.29107 0
M  V30 11426 H 1084.7 -0.427536 4.83112 0
M  V30 11427 H 1080.58 -1.55156 4.34105 0
M  V30 11428 H 1084.12 0.722349 6.9385 0
M  V30 11429 H 1080.02 -0.408112 6.44209 0
M  V30 11430 H 1080.78 0.774236 8.1483 0
M  V30 11431 N 1083.45 -1.52049 -0.414609 0
M  V30 11432 C 1084.38 -1.77956 -1.51175 0
M  V30 11433 C 1085.36 -0.630282 -1.57992 0
M  V30 11434 O 1086.54 -0.875324 -1.73354 0
M  V30 11435 C 1083.67 -1.92527 -2.89051 0
M  V30 11436 C 1082.63 -3.08096 -2.97087 0
M  V30 11437 C 1081.95 -3.07882 -4.37164 0
M  V30 11438 C 1083.25 -4.47656 -2.69075 0
M  V30 11439 H 1084.95 -2.69827 -1.29746 0
M  V30 11440 H 1082.49 -1.29839 -0.62273 0
M  V30 11441 H 1084.45 -2.09234 -3.65786 0
M  V30 11442 H 1083.17 -0.973235 -3.11762 0
M  V30 11443 H 1081.83 -2.91131 -2.22797 0
M  V30 11444 H 1081.48 -2.10411 -4.56877 0
M  V30 11445 H 1081.18 -3.85501 -4.43467 0
M  V30 11446 H 1082.7 -3.26712 -5.15841 0
M  V30 11447 H 1084.12 -4.64855 -3.35534 0
M  V30 11448 H 1082.51 -5.27151 -2.8676 0
M  V30 11449 H 1083.58 -4.56129 -1.64544 0
M  V30 11450 N 1084.93 0.6715 -1.42579 0
M  V30 11451 C 1086.15 1.46471 -1.46836 0
M  V30 11452 C 1086.58 1.87921 -0.0820658 0
M  V30 11453 O 1085.93 1.5621 0.920217 0
M  V30 11454 C 1085.98 2.68796 -2.40377 0
M  V30 11455 O 1085.09 3.67188 -1.87741 0
M  V30 11456 H 1084.43 0.439901 -0.497376 0
M  V30 11457 H 1086.96 0.823342 -1.87303 0
M  V30 11458 H 1086.97 3.16828 -2.57068 0
M  V30 11459 H 1085.64 2.37967 -3.41093 0
M  V30 11460 H 1084.22 3.26237 -1.80621 0
M  V30 11461 N 1086.4 1.28806 0.908124 0
M  V30 11462 C 1087.65 1.16287 1.65781 0
M  V30 11463 C 1087.98 -0.287389 1.92365 0
M  V30 11464 O 1087.23 -1.22491 1.52625 0
M  V30 11465 C 1087.53 1.91267 3.01914 0
M  V30 11466 C 1087.2 3.41033 2.9497 0
M  V30 11467 C 1085.86 3.81879 2.92783 0
M  V30 11468 C 1088.21 4.36507 2.848 0
M  V30 11469 C 1085.54 5.16529 2.78235 0
M  V30 11470 C 1087.89 5.71237 2.71792 0
M  V30 11471 C 1086.56 6.11351 2.67967 0
M  V30 11472 H 1085.83 0.425526 0.606637 0
M  V30 11473 H 1088.47 1.59646 1.05762 0
M  V30 11474 H 1086.78 1.40474 3.65752 0
M  V30 11475 H 1088.48 1.78992 3.58835 0
M  V30 11476 H 1085.07 3.08561 2.97469 0
M  V30 11477 H 1089.25 4.05909 2.85573 0
M  V30 11478 H 1084.51 5.4673 2.73672 0
M  V30 11479 H 1088.68 6.44872 2.62892 0
M  V30 11480 H 1086.31 7.15637 2.56451 0
M  V30 11481 N 1087.88 -1.11734 1.11145 0
M  V30 11482 C 1089.11 -1.87755 0.881062 0
M  V30 11483 C 1089.53 -1.79461 -0.563496 0
M  V30 11484 O 1088.89 -1.15481 -1.39763 0
M  V30 11485 C 1088.94 -3.34641 1.34342 0
M  V30 11486 O 1088.04 -4.09195 0.513157 0
M  V30 11487 H 1087.38 -0.583111 0.317613 0
M  V30 11488 H 1089.91 -1.41256 1.48013 0
M  V30 11489 H 1089.92 -3.85486 1.33658 0
M  V30 11490 H 1088.6 -3.39994 2.39534 0
M  V30 11491 H 1087.17 -3.68269 0.585833 0
M  V30 11492 N 1089.36 -0.901303 -1.29284 0
M  V30 11493 C 1090.6 -0.534971 -1.97275 0
M  V30 11494 C 1090.96 0.902226 -1.69481 0
M  V30 11495 O 1092.16 1.37551 -2.3094 0
M  V30 11496 C 1090.44 -0.821095 -3.4784 0
M  V30 11497 S 1091.99 -0.559312 -4.35221 0
M  V30 11498 H 1088.81 -0.198409 -0.682755 0
M  V30 11499 H 1091.41 -1.16408 -1.57065 0
M  V30 11500 H 1090.12 -1.86527 -3.65562 0
M  V30 11501 H 1089.65 -0.18016 -3.92987 0
M  V30 11502 H 1091.66 0.59494 -4.9262 0
M  V30 11503 N 1090.84 1.42931 -0.663954 0
M  V30 11504 C 1092.07 2.05729 -0.189532 0
M  V30 11505 C 1092.48 1.49914 1.15423 0
M  V30 11506 O 1091.82 0.629324 1.72584 0
M  V30 11507 C 1091.88 3.59482 -0.0354748 0
M  V30 11508 C 1091.54 4.37935 -1.30622 0
M  V30 11509 C 1092.54 4.69297 -2.23733 0
M  V30 11510 C 1090.23 4.77761 -1.5508 0
M  V30 11511 C 1092.22 5.39407 -3.39586 0
M  V30 11512 C 1089.91 5.47613 -2.71224 0
M  V30 11513 C 1090.91 5.7836 -3.63302 0
M  V30 11514 O 1090.59 6.46783 -4.77417 0
M  V30 11515 H 1090.33 0.669678 -0.0922342 0
M  V30 11516 H 1092.88 1.84243 -0.907943 0
M  V30 11517 H 1091.11 3.79584 0.738412 0
M  V30 11518 H 1092.8 4.03947 0.397679 0
M  V30 11519 H 1093.56 4.39038 -2.06084 0
M  V30 11520 H 1089.44 4.53229 -0.842863 0
M  V30 11521 H 1092.99 5.63323 -4.11476 0
M  V30 11522 H 1088.88 5.77289 -2.88804 0
M  V30 11523 H 1089.65 6.6527 -4.76821 0
M  V30 11524 N 1092.32 0.406567 1.52266 0
M  V30 11525 C 1093.25 -0.411314 2.29849 0
M  V30 11526 C 1094.23 -1.04838 1.33952 0
M  V30 11527 O 1095.41 -1.05788 1.62857 0
M  V30 11528 C 1092.54 -1.52961 3.11802 0
M  V30 11529 C 1091.5 -1.01768 4.15725 0
M  V30 11530 C 1090.82 -2.22938 4.86007 0
M  V30 11531 C 1092.12 -0.073515 5.22248 0
M  V30 11532 H 1093.82 0.236054 2.98468 0
M  V30 11533 H 1091.36 0.114968 1.4354 0
M  V30 11534 H 1093.31 -2.10874 3.64843 0
M  V30 11535 H 1092.04 -2.20482 2.40947 0
M  V30 11536 H 1090.7 -0.46097 3.6369 0
M  V30 11537 H 1090.35 -2.89007 4.11684 0
M  V30 11538 H 1090.05 -1.89338 5.5626 0
M  V30 11539 H 1091.57 -2.81462 5.41859 0
M  V30 11540 H 1092.98 -0.561367 5.70545 0
M  V30 11541 H 1091.38 0.173551 5.99849 0
M  V30 11542 H 1092.45 0.872524 4.76985 0
M  V30 11543 N 1093.79 -1.57004 0.136909 0
M  V30 11544 C 1095.02 -2.00587 -0.527209 0
M  V30 11545 C 1095.44 -1.01628 -1.58283 0
M  V30 11546 O 1094.8 0.00946934 -1.81298 0
M  V30 11547 C 1094.85 -3.42967 -1.11384 0
M  V30 11548 O 1093.95 -3.46973 -2.22898 0
M  V30 11549 H 1093.3 -0.651155 -0.129976 0
M  V30 11550 H 1095.83 -2.03296 0.230667 0
M  V30 11551 H 1095.84 -3.81555 -1.44499 0
M  V30 11552 H 1094.51 -4.14502 -0.340736 0
M  V30 11553 H 1093.09 -3.20219 -1.91087 0
M  V30 11554 N 1095.27 0.136881 -1.57004 0
M  V30 11555 C 1096.52 0.849031 -1.84172 0
M  V30 11556 C 1096.85 1.80359 -0.720027 0
M  V30 11557 O 1096.13 1.92538 0.275584 0
M  V30 11558 C 1096.41 1.61465 -3.21871 0
M  V30 11559 C 1096.26 0.680902 -4.44616 0
M  V30 11560 C 1097.58 2.57488 -3.56914 0
M  V30 11561 H 1094.7 0.307209 -0.669919 0
M  V30 11562 H 1097.34 0.113862 -1.89659 0
M  V30 11563 H 1095.49 2.24137 -3.17325 0
M  V30 11564 H 1097.16 0.0644094 -4.61255 0
M  V30 11565 H 1095.41 -0.00883629 -4.33799 0
M  V30 11566 H 1096.08 1.25286 -5.37594 0
M  V30 11567 H 1098.55 2.0493 -3.62136 0
M  V30 11568 H 1097.43 3.08101 -4.54274 0
M  V30 11569 H 1097.69 3.39321 -2.83397 0
M  V30 11570 N 1096.75 1.52266 0.40654 0
M  V30 11571 C 1097.98 1.70304 1.17491 0
M  V30 11572 C 1098.39 0.413656 1.84213 0
M  V30 11573 O 1097.75 -0.610524 1.71985 0
M  V30 11574 C 1097.8 2.84045 2.23609 0
M  V30 11575 O 1097.52 4.0799 1.5961 0
M  V30 11576 C 1099.02 3.13614 3.13306 0
M  V30 11577 H 1096.24 0.570669 0.352955 0
M  V30 11578 H 1098.79 1.98836 0.477967 0
M  V30 11579 H 1096.94 2.58025 2.88967 0
M  V30 11580 H 1097.36 4.7139 2.29983 0
M  V30 11581 H 1098.83 3.96707 3.83833 0
M  V30 11582 H 1099.31 2.27272 3.75824 0
M  V30 11583 H 1099.91 3.41409 2.53614 0
M  V30 11584 N 1098.23 -0.663929 1.42933 0
M  V30 11585 C 1099.14 -1.80643 1.49683 0
M  V30 11586 C 1100.15 -1.69694 0.38472 0
M  V30 11587 O 1101.33 -1.91052 0.637256 0
M  V30 11588 C 1098.4 -3.16858 1.4072 0
M  V30 11589 C 1097.46 -3.39684 2.62514 0
M  V30 11590 C 1096.69 -4.69399 2.53969 0
M  V30 11591 O 1096.91 -5.48037 1.58152 0
M  V30 11592 O 1095.85 -4.93709 3.44289 0
M  V30 11593 H 1099.67 -1.77903 2.46138 0
M  V30 11594 H 1097.26 -0.821059 1.24816 0
M  V30 11595 H 1099.14 -3.9812 1.38124 0
M  V30 11596 H 1097.81 -3.20211 0.473954 0
M  V30 11597 H 1096.72 -2.58227 2.70684 0
M  V30 11598 H 1098.05 -3.41169 3.54774 0
M  V30 11599 N 1099.71 -1.29285 -0.901281 0
M  V30 11600 C 1100.64 -1.10086 -2.01032 0
M  V30 11601 C 1101.65 -0.0488364 -1.62727 0
M  V30 11602 O 1102.84 -0.293194 -1.76076 0
M  V30 11603 C 1099.94 -0.653357 -3.32542 0
M  V30 11604 C 1099.11 -1.78355 -3.99385 0
M  V30 11605 C 1098.17 -1.32733 -5.09184 0
M  V30 11606 O 1097.2 -2.03177 -5.31703 0
M  V30 11607 N 1098.4 -0.197345 -5.80164 0
M  V30 11608 H 1101.17 -2.056 -2.18057 0
M  V30 11609 H 1098.73 -1.21204 -1.07337 0
M  V30 11610 H 1100.72 -0.331491 -4.0334 0
M  V30 11611 H 1099.29 0.209278 -3.11899 0
M  V30 11612 H 1098.51 -2.27438 -3.21972 0
M  V30 11613 H 1099.8 -2.54137 -4.40785 0
M  V30 11614 H 1099.19 0.390011 -5.64354 0
M  V30 11615 H 1097.75 0.0651642 -6.51767 0
M  V30 11616 N 1101.18 1.11143 -1.11736 0
M  V30 11617 C 1102.41 1.87285 -0.891007 0
M  V30 11618 C 1102.83 1.79758 0.553971 0
M  V30 11619 O 1102.19 1.16221 1.39149 0
M  V30 11620 C 1102.24 3.33924 -1.36114 0
M  V30 11621 O 1101.34 4.08917 -0.534851 0
M  V30 11622 H 1100.69 0.581418 -0.320701 0
M  V30 11623 H 1103.22 1.40469 -1.4876 0
M  V30 11624 H 1103.23 3.84772 -1.35701 0
M  V30 11625 H 1101.9 3.38719 -2.41334 0
M  V30 11626 H 1100.48 3.67954 -0.605355 0
M  V30 11627 N 1102.66 0.908147 1.28804 0
M  V30 11628 C 1103.57 0.397167 2.31214 0
M  V30 11629 C 1104.59 -0.512352 1.66286 0
M  V30 11630 O 1105.76 -0.399893 1.9739 0
M  V30 11631 C 1102.83 -0.359522 3.44831 0
M  V30 11632 C 1101.89 0.582539 4.25329 0
M  V30 11633 C 1101.12 -0.138133 5.33521 0
M  V30 11634 O 1101.35 -1.36076 5.53931 0
M  V30 11635 O 1100.28 0.523682 5.99618 0
M  V30 11636 H 1104.11 1.247 2.76918 0
M  V30 11637 H 1101.69 0.672766 1.33395 0
M  V30 11638 H 1103.57 -0.787098 4.13984 0
M  V30 11639 H 1102.25 -1.18528 3.01219 0
M  V30 11640 H 1101.16 1.0594 3.58786 0
M  V30 11641 H 1102.49 1.37495 4.72605 0
M  V30 11642 N 1104.14 -1.42577 0.671525 0
M  V30 11643 C 1105.39 -2.01584 0.192431 0
M  V30 11644 C 1105.72 -1.53076 -1.19992 0
M  V30 11645 O 1104.97 -0.722196 -1.81887 0
M  V30 11646 C 1105.27 -3.56985 0.172097 0
M  V30 11647 C 1104.94 -4.24912 1.50867 0
M  V30 11648 C 1103.6 -4.43182 1.87464 0
M  V30 11649 C 1105.95 -4.6322 2.38908 0
M  V30 11650 C 1103.28 -4.97031 3.11732 0
M  V30 11651 C 1105.63 -5.18447 3.62485 0
M  V30 11652 C 1104.29 -5.34932 3.99255 0
M  V30 11653 H 1103.56 -0.737647 0.0704155 0
M  V30 11654 H 1106.21 -1.70807 0.865862 0
M  V30 11655 H 1104.52 -3.87411 -0.584835 0
M  V30 11656 H 1106.21 -4.00419 -0.215749 0
M  V30 11657 H 1102.8 -4.11048 1.21397 0
M  V30 11658 H 1106.99 -4.4878 2.1192 0
M  V30 11659 H 1102.24 -5.07979 3.40246 0
M  V30 11660 H 1106.42 -5.47075 4.30909 0
M  V30 11661 H 1104.04 -5.76422 4.95623 0
M  V30 11662 N 1105.62 -0.414636 -1.52048 0
M  V30 11663 C 1106.85 0.158456 -2.05991 0
M  V30 11664 C 1107.26 1.38947 -1.28415 0
M  V30 11665 O 1106.6 1.80698 -0.330728 0
M  V30 11666 C 1106.66 0.568392 -3.54978 0
M  V30 11667 C 1106.33 -0.552654 -4.53646 0
M  V30 11668 C 1107.32 -1.41791 -5.00191 0
M  V30 11669 C 1105.01 -0.726917 -4.97012 0
M  V30 11670 C 1107 -2.44234 -5.88752 0
M  V30 11671 C 1104.69 -1.75464 -5.85368 0
M  V30 11672 C 1105.69 -2.61075 -6.31133 0
M  V30 11673 O 1105.37 -3.62087 -7.17738 0
M  V30 11674 H 1105.11 0.0214746 -0.675659 0
M  V30 11675 H 1107.66 -0.585825 -1.96869 0
M  V30 11676 H 1105.89 1.36504 -3.61806 0
M  V30 11677 H 1107.58 1.07003 -3.91542 0
M  V30 11678 H 1108.35 -1.29471 -4.67399 0
M  V30 11679 H 1104.22 -0.0701964 -4.60947 0
M  V30 11680 H 1107.77 -3.1109 -6.24395 0
M  V30 11681 H 1103.67 -1.87813 -6.17573 0
M  V30 11682 H 1104.43 -3.58396 -7.35863 0
M  V30 11683 N 1107.1 1.56929 -0.145233 0
M  V30 11684 C 1108.34 1.96068 0.50632 0
M  V30 11685 C 1108.67 1.02999 1.64989 0
M  V30 11686 O 1107.93 0.0588581 1.95611 0
M  V30 11687 C 1108.23 3.41467 1.05522 0
M  V30 11688 C 1107.89 4.5089 0.0302827 0
M  V30 11689 C 1106.55 4.80542 -0.251475 0
M  V30 11690 C 1108.91 5.16917 -0.666783 0
M  V30 11691 C 1106.23 5.7353 -1.23614 0
M  V30 11692 C 1108.59 6.10965 -1.64025 0
M  V30 11693 C 1107.25 6.38998 -1.92973 0
M  V30 11694 H 1106.52 0.717464 0.185276 0
M  V30 11695 H 1109.17 1.90093 -0.23169 0
M  V30 11696 H 1107.47 3.44265 1.87053 0
M  V30 11697 H 1109.17 3.69077 1.5679 0
M  V30 11698 H 1105.76 4.2781 0.260069 0
M  V30 11699 H 1109.94 4.94142 -0.462297 0
M  V30 11700 H 1105.2 5.93543 -1.46687 0
M  V30 11701 H 1109.37 6.61204 -2.18591 0
M  V30 11702 H 1107 7.10855 -2.69423 0
M  V30 11703 N 1108.58 -0.128553 1.57075 0
M  V30 11704 C 1109.99 -0.686713 1.73612 0
M  V30 11705 C 1110.34 -1.80778 0.762478 0
M  V30 11706 O 1109.46 -2.16297 -0.0667779 0
M  V30 11707 C 1110.06 -1.25246 3.148 0
M  V30 11708 C 1108.62 -1.757 3.32876 0
M  V30 11709 C 1107.76 -0.652844 2.69506 0
M  V30 11710 H 1110.71 0.0972859 1.58402 0
M  V30 11711 H 1110.74 -2.1222 3.15821 0
M  V30 11712 H 1110.25 -0.436308 3.8564 0
M  V30 11713 H 1108.35 -2.59824 2.67063 0
M  V30 11714 H 1108.46 -1.87302 4.4097 0
M  V30 11715 H 1106.83 -1.08408 2.30477 0
M  V30 11716 H 1107.61 0.15217 3.42963 0
M  V30 11717 N 1110.05 -1.5248 -0.398459 0
M  V30 11718 C 1111.47 -1.4152 -0.737854 0
M  V30 11719 C 1111.67 -0.528122 -1.94456 0
M  V30 11720 O 1110.73 0.00203799 -2.525 0
M  V30 11721 C 1112.04 -2.8422 -0.9818 0
M  V30 11722 C 1113.59 -2.93635 -1.08386 0
M  V30 11723 C 1114.06 -4.37327 -1.3605 0
M  V30 11724 N 1115.55 -4.40609 -1.42892 0
M  V30 11725 C 1116.29 -5.48863 -1.65944 0
M  V30 11726 N 1115.78 -6.67217 -1.86529 0
M  V30 11727 N 1117.58 -5.36393 -1.68046 0
M  V30 11728 H 1109.73 -2.08681 0.395705 0
M  V30 11729 H 1111.99 -0.941023 0.114801 0
M  V30 11730 H 1111.7 -3.51302 -0.167358 0
M  V30 11731 H 1111.57 -3.25907 -1.89907 0
M  V30 11732 H 1113.96 -2.26728 -1.88888 0
M  V30 11733 H 1114.04 -2.5539 -0.144714 0
M  V30 11734 H 1113.68 -5.04797 -0.56061 0
M  V30 11735 H 1113.61 -4.73116 -2.31233 0
M  V30 11736 H 1116.1 -3.55298 -1.2873 0
M  V30 11737 H 1116.42 -7.45498 -2.03599 0
M  V30 11738 H 1114.76 -6.70263 -1.83773 0
M  V30 11739 H 1117.95 -4.42903 -1.51509 0
M  V30 11740 H 1118.13 -6.2083 -1.85672 0
M  V30 11741 N 1111.53 0.65634 -1.43283 0
M  V30 11742 C 1112.49 1.75117 -1.47874 0
M  V30 11743 C 1113.49 1.56629 -0.363846 0
M  V30 11744 O 1114.68 1.62584 -0.625464 0
M  V30 11745 C 1111.82 3.13957 -1.32831 0
M  V30 11746 H 1113.01 1.72429 -2.45374 0
M  V30 11747 H 1110.56 0.867704 -1.30002 0
M  V30 11748 H 1111.3 3.22259 -0.36326 0
M  V30 11749 H 1111.08 3.28781 -2.13649 0
M  V30 11750 H 1112.57 3.93799 -1.38969 0
M  V30 11751 N 1113.01 1.29761 0.894412 0
M  V30 11752 C 1114.42 1.16275 1.46072 0
M  V30 11753 C 1114.77 -0.240123 1.94725 0
M  V30 11754 O 1113.9 -1.13606 1.84181 0
M  V30 11755 C 1114.49 2.10471 2.65494 0
M  V30 11756 C 1113.05 2.00992 3.18244 0
M  V30 11757 C 1112.2 2.01094 1.90936 0
M  V30 11758 H 1115.15 1.42169 0.705243 0
M  V30 11759 H 1115.17 1.68003 3.41402 0
M  V30 11760 H 1114.68 3.12566 2.30053 0
M  V30 11761 H 1112.78 1.02005 3.58365 0
M  V30 11762 H 1112.9 2.88916 3.82184 0
M  V30 11763 H 1111.26 1.45764 2.08866 0
M  V30 11764 H 1112.04 3.04902 1.57764 0
M  V30 11765 N 1114.49 -1.10549 1.12324 0
M  V30 11766 C 1115.42 -2.18911 0.812416 0
M  V30 11767 C 1116.4 -1.68628 -0.22327 0
M  V30 11768 O 1117.58 -1.94015 -0.0847184 0
M  V30 11769 C 1114.71 -3.46288 0.264947 0
M  V30 11770 C 1113.67 -4.09838 1.23356 0
M  V30 11771 C 1112.99 -5.31901 0.546374 0
M  V30 11772 C 1114.29 -4.53686 2.58778 0
M  V30 11773 H 1115.99 -2.45169 1.71851 0
M  V30 11774 H 1113.53 -1.17834 0.827715 0
M  V30 11775 H 1115.49 -4.21385 0.0352364 0
M  V30 11776 H 1114.21 -3.19517 -0.676479 0
M  V30 11777 H 1112.87 -3.36746 1.44906 0
M  V30 11778 H 1112.52 -5.01406 -0.400157 0
M  V30 11779 H 1112.22 -5.75372 1.19249 0
M  V30 11780 H 1113.74 -6.09731 0.325673 0
M  V30 11781 H 1115.16 -5.20063 2.41263 0
M  V30 11782 H 1113.55 -5.08003 3.19457 0
M  V30 11783 H 1114.62 -3.66665 3.17309 0
M  V30 11784 N 1115.97 -0.914965 -1.28321 0
M  V30 11785 C 1116.91 -0.394477 -2.29231 0
M  V30 11786 C 1117.91 0.514481 -1.61398 0
M  V30 11787 O 1119.11 0.395591 -1.75599 0
M  V30 11788 H 1115.49 -0.108969 -0.744063 0
M  V30 11789 H 1117.46 -1.25862 -2.70557 0
M  V30 11790 C 1116.21 0.349134 -3.45943 0
M  V30 11791 H 1115.53 -0.341087 -3.98342 0
M  V30 11792 H 1116.97 0.677944 -4.18545 0
M  V30 11793 C 1115.43 1.55747 -2.98738 0
M  V30 11794 O 1115.96 2.65654 -3.01315 0
M  V30 11795 N 1114.17 1.40488 -2.54384 0
M  V30 11796 H 1113.71 0.510716 -2.52487 0
M  V30 11797 H 1113.67 2.21464 -2.23161 0
M  V30 11798 N 1117.44 1.42219 -0.679077 0
M  V30 11799 C 1118.67 2.06333 -0.210097 0
M  V30 11800 C 1119.09 1.50703 1.12562 0
M  V30 11801 O 1118.45 0.627241 1.70104 0
M  V30 11802 C 1118.5 3.60243 -0.160322 0
M  V30 11803 O 1117.6 4.03122 0.869872 0
M  V30 11804 H 1116.94 0.655362 -0.106754 0
M  V30 11805 H 1119.47 1.82278 -0.929294 0
M  V30 11806 H 1119.48 4.07997 0.014384 0
M  V30 11807 H 1118.16 4.00106 -1.13526 0
M  V30 11808 H 1116.74 3.66907 0.66586 0
M  V30 11809 N 1118.92 0.422693 1.51826 0
M  V30 11810 C 1119.87 -0.41063 2.28947 0
M  V30 11811 C 1120.86 -1.03389 1.34191 0
M  V30 11812 O 1122.07 -0.970533 1.51594 0
M  V30 11813 H 1118.44 -0.151219 0.736639 0
M  V30 11814 H 1120.42 0.260859 2.97258 0
M  V30 11815 C 1119.16 -1.50758 3.13317 0
M  V30 11816 H 1118.49 -1.03734 3.86108 0
M  V30 11817 H 1119.93 -2.0642 3.7036 0
M  V30 11818 C 1118.39 -2.48261 2.27746 0
M  V30 11819 O 1118.92 -3.52462 1.92701 0
M  V30 11820 N 1117.12 -2.18795 1.91251 0
M  V30 11821 H 1116.67 -1.34088 2.1995 0
M  V30 11822 H 1116.63 -2.84276 1.34293 0
M  V30 11823 N 1120.4 -1.5685 0.153553 0
M  V30 11824 C 1121.36 -2.15894 -0.769564 0
M  V30 11825 C 1122.36 -1.10239 -1.17064 0
M  V30 11826 O 1123.55 -1.35845 -1.09049 0
M  V30 11827 C 1120.68 -2.72738 -2.04516 0
M  V30 11828 H 1121.88 -2.98807 -0.255842 0
M  V30 11829 H 1119.43 -1.56005 -0.0959279 0
M  V30 11830 H 1120.17 -1.9351 -2.60239 0
M  V30 11831 H 1119.95 -3.50042 -1.76672 0
M  V30 11832 H 1121.44 -3.18208 -2.70432 0
M  V30 11833 N 1121.88 0.120221 -1.57141 0
M  V30 11834 C 1122.81 1.17787 -1.95452 0
M  V30 11835 C 1123.79 1.40174 -0.824016 0
M  V30 11836 O 1124.97 1.54348 -1.08208 0
M  V30 11837 C 1122.1 2.53193 -2.24969 0
M  V30 11838 C 1121.15 2.47241 -3.47526 0
M  V30 11839 S 1121.98 1.91325 -5.00155 0
M  V30 11840 C 1123.13 3.28406 -5.32823 0
M  V30 11841 H 1123.37 0.851152 -2.84856 0
M  V30 11842 H 1120.9 0.326929 -1.50899 0
M  V30 11843 H 1122.86 3.31104 -2.42652 0
M  V30 11844 H 1121.52 2.83043 -1.36181 0
M  V30 11845 H 1120.71 3.46981 -3.65541 0
M  V30 11846 H 1120.31 1.7745 -3.29223 0
M  V30 11847 H 1122.61 4.24613 -5.2793 0
M  V30 11848 H 1123.55 3.1522 -6.34068 0
M  V30 11849 H 1123.96 3.26779 -4.603 0
M  V30 11850 N 1123.36 1.52689 0.390367 0
M  V30 11851 C 1124.29 1.80338 1.48325 0
M  V30 11852 C 1125.27 0.655338 1.56969 0
M  V30 11853 O 1126.45 0.902792 1.7194 0
M  V30 11854 C 1123.58 1.97101 2.85952 0
M  V30 11855 C 1122.54 3.12783 2.92148 0
M  V30 11856 C 1121.86 3.14798 4.32211 0
M  V30 11857 C 1123.16 4.5188 2.61919 0
M  V30 11858 H 1124.86 2.71857 1.25437 0
M  V30 11859 H 1122.4 1.30813 0.601995 0
M  V30 11860 H 1124.36 2.15027 3.62411 0
M  V30 11861 H 1123.08 1.02271 3.10174 0
M  V30 11862 H 1121.74 2.94638 2.18137 0
M  V30 11863 H 1121.39 2.17653 4.53471 0
M  V30 11864 H 1121.09 3.92507 4.37278 0
M  V30 11865 H 1122.61 3.34877 5.10578 0
M  V30 11866 H 1124.02 4.70134 3.28096 0
M  V30 11867 H 1122.42 5.31647 2.78337 0
M  V30 11868 H 1123.49 4.58689 1.57266 0
M  V30 11869 N 1124.83 -0.648732 1.43629 0
M  V30 11870 C 1126.06 -1.44117 1.49148 0
M  V30 11871 C 1126.48 -1.87767 0.111952 0
M  V30 11872 O 1125.84 -1.57655 -0.895249 0
M  V30 11873 C 1125.89 -2.64938 2.44623 0
M  V30 11874 O 1124.99 -3.64155 1.93559 0
M  V30 11875 H 1124.34 -0.431933 0.504312 0
M  V30 11876 H 1126.87 -0.793439 1.88589 0
M  V30 11877 H 1126.88 -3.12698 2.62076 0
M  V30 11878 H 1125.55 -2.3251 3.44836 0
M  V30 11879 H 1124.13 -3.23322 1.85789 0
M  V30 11880 N 1126.31 -1.30234 -0.887518 0
M  V30 11881 C 1127.54 -1.21829 -1.67229 0
M  V30 11882 C 1127.96 0.219251 -1.87523 0
M  V30 11883 O 1127.31 1.14526 -1.42091 0
M  V30 11884 C 1127.36 -1.94044 -3.05007 0
M  V30 11885 O 1127.08 -3.32185 -2.85631 0
M  V30 11886 C 1128.59 -1.92265 -3.99436 0
M  V30 11887 H 1125.81 -0.421716 -0.521916 0
M  V30 11888 H 1128.35 -1.71816 -1.10903 0
M  V30 11889 H 1126.5 -1.47861 -3.58072 0
M  V30 11890 H 1126.92 -3.68724 -3.73018 0
M  V30 11891 H 1128.39 -2.47336 -4.93486 0
M  V30 11892 H 1128.87 -0.900984 -4.29859 0
M  V30 11893 H 1129.48 -2.38247 -3.52305 0
M  V30 11894 N 1127.79 1.09952 -1.12909 0
M  V30 11895 C 1128.7 2.19999 -0.81471 0
M  V30 11896 C 1129.72 1.72864 0.19851 0
M  V30 11897 O 1130.89 2.01376 0.0308832 0
M  V30 11898 C 1127.96 3.45573 -0.279363 0
M  V30 11899 C 1127.02 4.07417 -1.35314 0
M  V30 11900 C 1126.25 5.26996 -0.843247 0
M  V30 11901 O 1126.47 5.69495 0.321164 0
M  V30 11902 O 1125.41 5.79826 -1.61511 0
M  V30 11903 H 1129.23 2.49333 -1.73398 0
M  V30 11904 H 1126.82 1.18784 -0.906128 0
M  V30 11905 H 1128.7 4.21398 0.0140531 0
M  V30 11906 H 1127.38 3.17854 0.612401 0
M  V30 11907 H 1126.28 3.33253 -1.6998 0
M  V30 11908 H 1127.62 4.39349 -2.21885 0
M  V30 11909 N 1129.27 0.921757 1.27833 0
M  V30 11910 C 1130.49 0.574599 1.99281 0
M  V30 11911 C 1130.92 -0.838905 1.68357 0
M  V30 11912 O 1130.28 -1.56196 0.920468 0
M  V30 11913 C 1130.32 0.800027 3.51613 0
M  V30 11914 O 1129.43 -0.137215 4.12172 0
M  V30 11915 H 1128.77 0.221887 0.625829 0
M  V30 11916 H 1131.3 1.23939 1.62789 0
M  V30 11917 H 1131.31 0.71326 4.01717 0
M  V30 11918 H 1129.98 1.83042 3.73455 0
M  V30 11919 H 1128.56 -0.00103872 3.729 0
M  V30 11920 N 1130.75 -1.41857 0.686609 0
M  V30 11921 C 1131.68 -2.28174 -0.0347358 0
M  V30 11922 C 1132.66 -1.41732 -0.796928 0
M  V30 11923 O 1133.84 -1.71165 -0.789607 0
M  V30 11924 C 1130.97 -3.21801 -1.0565 0
M  V30 11925 C 1130.01 -4.24727 -0.388523 0
M  V30 11926 S 1130.85 -5.28508 0.862546 0
M  V30 11927 C 1132 -6.25701 -0.157849 0
M  V30 11928 H 1132.24 -2.89005 0.697381 0
M  V30 11929 H 1129.77 -1.46861 0.476562 0
M  V30 11930 H 1131.73 -3.76278 -1.64089 0
M  V30 11931 H 1130.39 -2.60082 -1.76114 0
M  V30 11932 H 1129.58 -4.90471 -1.15991 0
M  V30 11933 H 1129.18 -3.73799 0.122567 0
M  V30 11934 H 1131.48 -6.6987 -1.01393 0
M  V30 11935 H 1132.42 -7.06569 0.465437 0
M  V30 11936 H 1132.83 -5.62204 -0.508614 0
M  V30 11937 N 1132.22 -0.430739 -1.51599 0
M  V30 11938 C 1133.16 0.429107 -2.24129 0
M  V30 11939 C 1134.14 1.03019 -1.25801 0
M  V30 11940 O 1135.32 1.07392 -1.54917 0
M  V30 11941 C 1132.45 1.59749 -2.9866 0
M  V30 11942 C 1131.49 1.11773 -4.11593 0
M  V30 11943 S 1132.33 0.0651468 -5.3546 0
M  V30 11944 C 1133.48 1.23835 -6.13527 0
M  V30 11945 H 1133.71 -0.186683 -2.96713 0
M  V30 11946 H 1131.25 -0.215201 -1.52893 0
M  V30 11947 H 1133.21 2.26735 -3.42201 0
M  V30 11948 H 1131.87 2.18468 -2.25678 0
M  V30 11949 H 1131.06 1.99125 -4.62996 0
M  V30 11950 H 1130.66 0.526209 -3.7028 0
M  V30 11951 H 1132.95 2.15796 -6.42214 0
M  V30 11952 H 1133.9 0.76443 -7.03962 0
M  V30 11953 H 1134.3 1.47393 -5.44918 0
M  V30 11954 N 1133.7 1.56767 -0.161869 0
M  V30 11955 C 1134.93 2.01401 0.49523 0
M  V30 11956 C 1135.35 1.04133 1.56646 0
M  V30 11957 O 1134.71 0.0193747 1.8129 0
M  V30 11958 C 1134.76 3.44695 1.05913 0
M  V30 11959 O 1133.86 3.50475 2.1735 0
M  V30 11960 H 1133.2 0.65314 0.1196 0
M  V30 11961 H 1135.73 2.02903 -0.26298 0
M  V30 11962 H 1135.74 3.83805 1.3841 0
M  V30 11963 H 1134.42 4.14991 0.274749 0
M  V30 11964 H 1133 3.23218 1.85969 0
M  V30 11965 N 1135.18 -0.111886 1.57202 0
M  V30 11966 C 1136.6 -0.465629 1.52657 0
M  V30 11967 C 1136.8 -1.81463 0.875989 0
M  V30 11968 O 1135.85 -2.4825 0.461345 0
M  V30 11969 C 1137.17 -0.443571 2.9741 0
M  V30 11970 C 1138.71 -0.52662 3.08538 0
M  V30 11971 C 1139.19 -0.53488 4.54866 0
M  V30 11972 N 1140.68 -0.596117 4.59348 0
M  V30 11973 C 1141.41 -0.624073 5.69994 0
M  V30 11974 N 1140.91 -0.609245 6.90116 0
M  V30 11975 N 1142.7 -0.667619 5.58121 0
M  V30 11976 H 1134.85 0.771925 1.97876 0
M  V30 11977 H 1137.12 0.285534 0.903977 0
M  V30 11978 H 1136.82 0.480138 3.48407 0
M  V30 11979 H 1136.7 -1.26876 3.55221 0
M  V30 11980 H 1139.08 -1.44075 2.57539 0
M  V30 11981 H 1139.17 0.326396 2.53709 0
M  V30 11982 H 1138.81 0.375233 5.06512 0
M  V30 11983 H 1138.74 -1.40488 5.07514 0
M  V30 11984 H 1141.23 -0.613452 3.72888 0
M  V30 11985 H 1141.54 -0.633396 7.702 0
M  V30 11986 H 1139.89 -0.576557 6.92604 0
M  V30 11987 H 1143.08 -0.676616 4.63184 0
M  V30 11988 H 1143.25 -0.685938 6.44359 0
M  V30 11989 N 1136.66 -1.52894 -0.382264 0
M  V30 11990 C 1137.91 -1.67489 -1.12385 0
M  V30 11991 C 1138.22 -0.424565 -1.90937 0
M  V30 11992 O 1139.43 -0.450763 -2.67732 0
M  V30 11993 C 1137.88 -2.96019 -2.04697 0
M  V30 11994 C 1137.49 -4.28255 -1.31535 0
M  V30 11995 C 1139.23 -3.19981 -2.78949 0
M  V30 11996 C 1137.14 -5.47887 -2.22652 0
M  V30 11997 H 1136.07 -0.624002 -0.423246 0
M  V30 11998 H 1138.72 -1.79392 -0.386107 0
M  V30 11999 H 1137.1 -2.77878 -2.82134 0
M  V30 12000 H 1138.28 -4.56971 -0.592771 0
M  V30 12001 H 1136.59 -4.10607 -0.692148 0
M  V30 12002 H 1139.19 -4.06541 -3.47316 0
M  V30 12003 H 1139.53 -2.35335 -3.43399 0
M  V30 12004 H 1140.07 -3.38718 -2.08602 0
M  V30 12005 H 1136.81 -6.3496 -1.62806 0
M  V30 12006 H 1136.33 -5.23473 -2.92807 0
M  V30 12007 H 1138 -5.82026 -2.82586 0
M  V30 12008 N 1138.14 0.641106 -1.43971 0
M  V30 12009 C 1139.1 1.73539 -1.49723 0
M  V30 12010 C 1140.1 1.56235 -0.380438 0
M  V30 12011 O 1141.29 1.61912 -0.642673 0
M  V30 12012 C 1138.42 3.1253 -1.36153 0
M  V30 12013 H 1139.62 1.69816 -2.47189 0
M  V30 12014 H 1137.17 0.853867 -1.30915 0
M  V30 12015 H 1137.9 3.21856 -0.39742 0
M  V30 12016 H 1137.69 3.26496 -2.17124 0
M  V30 12017 H 1139.18 3.92303 -1.43138 0
M  V30 12018 N 1139.62 1.30703 0.880598 0
M  V30 12019 C 1140.58 1.17429 1.96832 0
M  V30 12020 C 1141.58 0.104305 1.60461 0
M  V30 12021 O 1142.77 0.352758 1.70591 0
M  V30 12022 C 1139.9 0.800099 3.31378 0
M  V30 12023 H 1141.09 2.14069 2.10034 0
M  V30 12024 H 1138.65 1.14162 1.06755 0
M  V30 12025 H 1139.38 -0.165606 3.23877 0
M  V30 12026 H 1139.17 1.57341 3.59146 0
M  V30 12027 H 1140.66 0.730826 4.11155 0
M  V30 12028 N 1141.09 -1.09351 1.1349 0
M  V30 12029 C 1142.34 -1.81185 0.89535 0
M  V30 12030 C 1142.66 -1.86173 -0.580048 0
M  V30 12031 O 1141.93 -1.34784 -1.42162 0
M  V30 12032 H 1140.51 -0.671011 0.328257 0
M  V30 12033 H 1143.17 -1.32255 1.43159 0
M  V30 12034 H 1142.27 -2.84339 1.28676 0
M  V30 12035 N 1142.57 -0.928524 -1.27343 0
M  V30 12036 C 1143.85 -0.487758 -1.89421 0
M  V30 12037 C 1144.23 1.03418 -1.84032 0
M  V30 12038 O 1143.58 1.8887 -1.2861 0
M  V30 12039 C 1143.79 -1.03478 -3.33307 0
M  V30 12040 C 1145.13 -1.09577 -4.10217 0
M  V30 12041 O 1146.16 -0.984463 -3.42326 0
M  V30 12042 O 1145.02 -1.2673 -5.31603 0
M  V30 12043 H 1142.11 -0.157018 -0.811957 0
M  V30 12044 H 1144.66 -1.02027 -1.35605 0
M  V30 12045 H 1143.43 -2.07861 -3.31526 0
M  V30 12046 H 1143.05 -0.483967 -3.94644 0
M  V30 12047 N 1144.05 1.41491 -0.694123 0
M  V30 12048 C 1144.98 2.33462 -0.0422169 0
M  V30 12049 C 1145.96 1.51739 0.76872 0
M  V30 12050 O 1147.15 1.8028 0.721985 0
M  V30 12051 C 1144.28 3.35545 0.895925 0
M  V30 12052 C 1143.23 4.27568 0.192188 0
M  V30 12053 C 1142.56 5.20014 1.24459 0
M  V30 12054 C 1143.86 5.1376 -0.940626 0
M  V30 12055 H 1145.55 2.88225 -0.810363 0
M  V30 12056 H 1143.1 1.38586 -0.39114 0
M  V30 12057 H 1145.05 3.9881 1.36121 0
M  V30 12058 H 1143.77 2.79129 1.69572 0
M  V30 12059 H 1142.43 3.65726 -0.25305 0
M  V30 12060 H 1142.08 4.59913 2.03687 0
M  V30 12061 H 1141.78 5.82417 0.778734 0
M  V30 12062 H 1143.3 5.86155 1.71041 0
M  V30 12063 H 1144.72 5.70601 -0.555692 0
M  V30 12064 H 1143.11 5.85097 -1.33349 0
M  V30 12065 H 1144.18 4.51011 -1.78093 0
M  V30 12066 N 1145.53 0.438773 1.51369 0
M  V30 12067 C 1146.44 -0.378074 2.31534 0
M  V30 12068 C 1147.45 -1.02632 1.40508 0
M  V30 12069 O 1148.63 -1.02138 1.73579 0
M  V30 12070 C 1145.69 -1.46374 3.14286 0
M  V30 12071 C 1144.76 -0.835473 4.21092 0
M  V30 12072 C 1143.99 -1.86941 4.99889 0
M  V30 12073 O 1144.21 -3.0918 4.79337 0
M  V30 12074 O 1143.15 -1.45914 5.83946 0
M  V30 12075 H 1146.97 0.276401 3.0244 0
M  V30 12076 H 1144.56 0.201281 1.48038 0
M  V30 12077 H 1146.44 -2.09335 3.65728 0
M  V30 12078 H 1145.11 -2.10227 2.46143 0
M  V30 12079 H 1144.02 -0.167775 3.73724 0
M  V30 12080 H 1145.35 -0.240406 4.91613 0
M  V30 12081 N 1147.01 -1.56678 0.170181 0
M  V30 12082 C 1148.23 -2.0166 -0.484543 0
M  V30 12083 C 1148.66 -1.04962 -1.56091 0
M  V30 12084 O 1148.01 -0.0289887 -1.81277 0
M  V30 12085 C 1148.06 -3.45252 -1.04084 0
M  V30 12086 O 1147.17 -3.51623 -2.15488 0
M  V30 12087 H 1146.51 -0.653765 -0.116135 0
M  V30 12088 H 1149.04 -2.02761 0.273737 0
M  V30 12089 H 1149.05 -3.84534 -1.36373 0
M  V30 12090 H 1147.72 -4.15131 -0.252738 0
M  V30 12091 H 1146.3 -3.242 -1.84252 0
M  V30 12092 N 1148.48 0.103547 -1.57259 0
M  V30 12093 C 1149.71 0.82624 -1.90232 0
M  V30 12094 C 1150.13 1.71902 -0.763641 0
M  V30 12095 O 1149.49 1.79043 0.285181 0
M  V30 12096 C 1149.54 1.62265 -3.22029 0
M  V30 12097 O 1148.64 2.73091 -3.09023 0
M  V30 12098 H 1147.98 0.227528 -0.6238 0
M  V30 12099 H 1150.51 0.081307 -2.04438 0
M  V30 12100 H 1150.52 2.00865 -3.5513 0
M  V30 12101 H 1149.2 0.967383 -4.04493 0
M  V30 12102 H 1147.78 2.3758 -2.8742 0
M  V30 12103 N 1149.96 1.53094 0.37415 0
M  V30 12104 C 1151.21 1.69111 1.11934 0
M  V30 12105 C 1151.54 0.437252 1.89213 0
M  V30 12106 O 1150.82 -0.565298 1.86104 0
M  V30 12107 C 1151.1 2.93559 2.08554 0
M  V30 12108 C 1150.95 4.29082 1.3494 0
M  V30 12109 C 1152.27 3.13586 3.08791 0
M  V30 12110 H 1149.39 0.615383 0.405553 0
M  V30 12111 H 1152.03 1.85719 0.401078 0
M  V30 12112 H 1150.18 2.79531 2.69805 0
M  V30 12113 H 1151.85 4.54906 0.765402 0
M  V30 12114 H 1150.1 4.28884 0.651238 0
M  V30 12115 H 1150.77 5.12275 2.05616 0
M  V30 12116 H 1153.24 3.26743 2.57639 0
M  V30 12117 H 1152.12 4.02112 3.73627 0
M  V30 12118 H 1152.38 2.28475 3.78486 0
M  V30 12119 N 1151.44 -0.633461 1.44309 0
M  V30 12120 C 1152.72 -1.3917 1.37444 0
M  V30 12121 C 1153.1 -2.11076 0.0319994 0
M  V30 12122 O 1152.44 -2.06164 -0.98533 0
M  V30 12123 C 1152.65 -2.36005 2.57104 0
M  V30 12124 C 1154 -2.99407 3.01065 0
M  V30 12125 O 1155.03 -2.46331 2.57292 0
M  V30 12126 O 1153.89 -3.95686 3.76954 0
M  V30 12127 H 1150.98 -0.622746 0.544166 0
M  V30 12128 H 1153.53 -0.658712 1.56394 0
M  V30 12129 H 1152.3 -1.81955 3.46422 0
M  V30 12130 H 1151.92 -3.16725 2.40356 0
M  V30 12131 N 1152.92 -1.31168 -0.873655 0
M  V30 12132 C 1154.2 -1.11285 -1.60857 0
M  V30 12133 C 1154.58 0.333788 -2.08444 0
M  V30 12134 O 1153.92 1.32726 -1.86 0
M  V30 12135 C 1154.13 -2.12379 -2.7694 0
M  V30 12136 C 1155.48 -2.44704 -3.46994 0
M  V30 12137 O 1156.51 -2.10778 -2.87143 0
M  V30 12138 O 1155.36 -3.02786 -4.54954 0
M  V30 12139 H 1152.46 -0.428177 -0.707526 0
M  V30 12140 H 1155 -1.42634 -0.91944 0
M  V30 12141 H 1153.78 -3.09703 -2.39164 0
M  V30 12142 H 1153.4 -1.81914 -3.53544 0
M  V30 12143 N 1154.4 1.08748 -1.14068 0
M  V30 12144 C 1155.81 1.62551 -0.918379 0
M  V30 12145 C 1156.16 1.8852 0.543583 0
M  V30 12146 O 1155.28 1.64007 1.41176 0
M  V30 12147 C 1155.88 2.95309 -1.66066 0
M  V30 12148 C 1154.44 3.4591 -1.48403 0
M  V30 12149 C 1153.58 2.20204 -1.6854 0
M  V30 12150 H 1156.54 0.920196 -1.29298 0
M  V30 12151 H 1156.56 3.63587 -1.12181 0
M  V30 12152 H 1156.07 2.76377 -2.72465 0
M  V30 12153 H 1154.17 3.69953 -0.443353 0
M  V30 12154 H 1154.28 4.2289 -2.25169 0
M  V30 12155 H 1152.65 2.29203 -1.11077 0
M  V30 12156 H 1153.43 2.03783 -2.76274 0
M  V30 12157 N 1155.87 0.935264 1.26849 0
M  V30 12158 C 1157.29 0.636661 1.46352 0
M  V30 12159 C 1157.49 -0.811823 1.84423 0
M  V30 12160 O 1156.55 -1.58902 1.9623 0
M  V30 12161 C 1157.86 1.59301 2.55036 0
M  V30 12162 C 1159.41 1.60207 2.68892 0
M  V30 12163 C 1159.88 2.54558 3.80742 0
M  V30 12164 N 1161.37 2.52809 3.88126 0
M  V30 12165 C 1162.11 3.225 4.74111 0
M  V30 12166 N 1161.6 4.01598 5.64527 0
M  V30 12167 N 1163.4 3.11481 4.67906 0
M  V30 12168 H 1155.55 1.8716 1.00423 0
M  V30 12169 H 1157.81 0.803968 0.502334 0
M  V30 12170 H 1157.52 2.62671 2.33874 0
M  V30 12171 H 1157.39 1.34052 3.52576 0
M  V30 12172 H 1159.78 0.575649 2.89431 0
M  V30 12173 H 1159.86 1.89508 1.71815 0
M  V30 12174 H 1159.5 3.57314 3.60956 0
M  V30 12175 H 1159.43 2.22549 4.77263 0
M  V30 12176 H 1161.92 1.9537 3.2348 0
M  V30 12177 H 1162.24 4.51742 6.27016 0
M  V30 12178 H 1160.58 4.057 5.64298 0
M  V30 12179 H 1163.77 2.49175 3.9627 0
M  V30 12180 H 1163.95 3.66064 5.34697 0
M  V30 12181 N 1157.35 -1.41121 0.701616 0
M  V30 12182 C 1158.58 -2.05973 0.242896 0
M  V30 12183 C 1159 -1.52474 -1.10151 0
M  V30 12184 O 1158.36 -0.654224 -1.69085 0
M  V30 12185 C 1158.41 -3.59943 0.217614 0
M  V30 12186 O 1157.51 -4.04454 -0.805629 0
M  V30 12187 H 1156.85 -0.653581 0.117166 0
M  V30 12188 H 1159.38 -1.80777 0.958175 0
M  V30 12189 H 1159.39 -4.07969 0.0505267 0
M  V30 12190 H 1158.07 -3.98249 1.19877 0
M  V30 12191 H 1156.65 -3.6792 -0.607404 0
M  V30 12192 N 1158.83 -0.446794 -1.51134 0
M  V30 12193 C 1159.74 0.36579 -2.31731 0
M  V30 12194 C 1160.76 1.01886 -1.41051 0
M  V30 12195 O 1161.93 1.01216 -1.74119 0
M  V30 12196 C 1159 1.44705 -3.15058 0
M  V30 12197 C 1158.06 0.813129 -4.21529 0
M  V30 12198 C 1157.29 1.84287 -5.00873 0
M  V30 12199 O 1157.51 3.06633 -4.8097 0
M  V30 12200 O 1156.45 1.42816 -5.84711 0
M  V30 12201 H 1160.27 -0.292436 -3.02289 0
M  V30 12202 H 1157.86 -0.209129 -1.47929 0
M  V30 12203 H 1159.74 2.07393 -3.66833 0
M  V30 12204 H 1158.42 2.08919 -2.47254 0
M  V30 12205 H 1157.32 0.147953 -3.73807 0
M  V30 12206 H 1158.66 0.214331 -4.91733 0
M  V30 12207 N 1160.31 1.56586 -0.178487 0
M  V30 12208 C 1161.22 2.21903 0.761321 0
M  V30 12209 C 1162.23 1.21289 1.2476 0
M  V30 12210 O 1163.41 1.53974 1.29823 0
M  V30 12211 C 1160.48 2.85259 1.97048 0
M  V30 12212 C 1159.54 4.01095 1.53039 0
M  V30 12213 C 1158.77 4.61421 2.68191 0
M  V30 12214 O 1158.99 4.20644 3.85247 0
M  V30 12215 O 1157.93 5.51171 2.41855 0
M  V30 12216 H 1161.75 3.02788 0.235141 0
M  V30 12217 H 1159.34 1.49316 0.0500442 0
M  V30 12218 H 1161.22 3.25404 2.6775 0
M  V30 12219 H 1159.89 2.07366 2.48558 0
M  V30 12220 H 1158.8 3.65606 0.792661 0
M  V30 12221 H 1160.13 4.80603 1.06213 0
M  V30 12222 N 1161.79 -0.095206 1.57312 0
M  V30 12223 C 1163.06 -0.830388 1.77099 0
M  V30 12224 C 1163.44 -1.9694 0.760121 0
M  V30 12225 O 1162.79 -2.2752 -0.211403 0
M  V30 12226 C 1163 -1.32507 3.22867 0
M  V30 12227 C 1164.35 -1.7679 3.86045 0
M  V30 12228 O 1165.37 -1.42131 3.26615 0
M  V30 12229 O 1164.23 -2.40876 4.90552 0
M  V30 12230 H 1161.33 -0.396083 0.72598 0
M  V30 12231 H 1163.87 -0.0770965 1.69525 0
M  V30 12232 H 1162.64 -0.508992 3.87975 0
M  V30 12233 H 1162.27 -2.14037 3.35073 0
M  V30 12234 N 1163.26 -1.53291 -0.366026 0
M  V30 12235 C 1164.68 -1.43053 -0.707669 0
M  V30 12236 C 1164.88 -0.56925 -1.93292 0
M  V30 12237 O 1163.94 -0.0515214 -2.52447 0
M  V30 12238 C 1165.25 -2.86239 -0.921292 0
M  V30 12239 C 1166.8 -2.95868 -1.02133 0
M  V30 12240 C 1167.27 -4.40114 -1.26743 0
M  V30 12241 N 1168.76 -4.43541 -1.33514 0
M  V30 12242 C 1169.5 -5.52259 -1.54264 0
M  V30 12243 N 1168.99 -6.71024 -1.72335 0
M  V30 12244 N 1170.79 -5.39836 -1.5663 0
M  V30 12245 H 1162.94 -2.07795 0.43988 0
M  V30 12246 H 1165.2 -0.938376 0.134736 0
M  V30 12247 H 1164.91 -3.51578 -0.0928042 0
M  V30 12248 H 1164.78 -3.29862 -1.82951 0
M  V30 12249 H 1167.17 -2.30683 -1.84036 0
M  V30 12250 H 1167.25 -2.5564 -0.0905097 0
M  V30 12251 H 1166.89 -5.05872 -0.453409 0
M  V30 12252 H 1166.82 -4.77914 -2.21146 0
M  V30 12253 H 1169.31 -3.57949 -1.21165 0
M  V30 12254 H 1169.63 -7.49649 -1.8774 0
M  V30 12255 H 1167.97 -6.7401 -1.69514 0
M  V30 12256 H 1171.16 -4.46017 -1.4208 0
M  V30 12257 H 1171.34 -6.24629 -1.72461 0
M  V30 12258 N 1164.74 0.6258 -1.44643 0
M  V30 12259 C 1166.16 0.944569 -1.28647 0
M  V30 12260 C 1166.36 2.00227 -0.226134 0
M  V30 12261 O 1165.41 2.4953 0.386161 0
M  V30 12262 C 1166.73 1.40278 -2.65975 0
M  V30 12263 C 1168.28 1.51797 -2.73727 0
M  V30 12264 C 1168.75 2.01 -4.11537 0
M  V30 12265 N 1170.24 2.08262 -4.13741 0
M  V30 12266 C 1170.98 2.47515 -5.17227 0
M  V30 12267 N 1170.47 2.85867 -6.31072 0
M  V30 12268 N 1172.27 2.47695 -5.04583 0
M  V30 12269 H 1164.42 -0.0736157 -2.12272 0
M  V30 12270 H 1166.68 0.0296998 -0.947535 0
M  V30 12271 H 1166.39 0.699871 -3.44666 0
M  V30 12272 H 1166.26 2.37279 -2.93221 0
M  V30 12273 H 1168.65 2.21183 -1.95351 0
M  V30 12274 H 1168.73 0.531574 -2.50216 0
M  V30 12275 H 1168.37 1.32207 -4.90391 0
M  V30 12276 H 1168.3 3.0052 -4.32429 0
M  V30 12277 H 1170.79 1.81286 -3.31578 0
M  V30 12278 H 1171.11 3.14647 -7.05845 0
M  V30 12279 H 1169.45 2.83605 -6.34502 0
M  V30 12280 H 1172.64 2.17127 -4.14697 0
M  V30 12281 H 1172.81 2.77962 -5.85356 0
M  V30 12282 N 1166.22 1.31629 0.866686 0
M  V30 12283 C 1167.47 1.21503 1.61998 0
M  V30 12284 C 1167.8 -0.226044 1.93182 0
M  V30 12285 O 1167.05 -1.17573 1.56445 0
M  V30 12286 C 1167.35 2.00775 2.95676 0
M  V30 12287 C 1167.02 3.50245 2.83971 0
M  V30 12288 C 1165.68 3.91 2.80485 0
M  V30 12289 C 1168.03 4.45347 2.70769 0
M  V30 12290 C 1165.36 5.25119 2.61661 0
M  V30 12291 C 1167.71 5.79595 2.53481 0
M  V30 12292 C 1166.37 6.19567 2.48381 0
M  V30 12293 H 1165.64 0.44461 0.592792 0
M  V30 12294 H 1168.29 1.62929 1.00629 0
M  V30 12295 H 1166.6 1.52039 3.61097 0
M  V30 12296 H 1168.29 1.90318 3.52959 0
M  V30 12297 H 1164.88 3.17869 2.87502 0
M  V30 12298 H 1169.07 4.14789 2.72514 0
M  V30 12299 H 1164.32 5.5516 2.5614 0
M  V30 12300 H 1168.5 6.5291 2.42243 0
M  V30 12301 H 1166.12 7.23434 2.33554 0
M  V30 12302 N 1167.7 -1.08142 1.14644 0
M  V30 12303 C 1168.61 -2.18675 0.849607 0
M  V30 12304 C 1169.63 -1.73158 -0.170983 0
M  V30 12305 O 1170.8 -2.014 0.0011579 0
M  V30 12306 C 1167.87 -3.45084 0.334305 0
M  V30 12307 C 1166.93 -4.05213 1.41779 0
M  V30 12308 C 1166.16 -5.25588 0.926981 0
M  V30 12309 O 1166.38 -5.69934 -0.230522 0
M  V30 12310 O 1165.32 -5.77183 1.70715 0
M  V30 12311 H 1169.14 -2.46542 1.77343 0
M  V30 12312 H 1166.73 -1.17328 0.924911 0
M  V30 12313 H 1168.61 -4.21367 0.0529893 0
M  V30 12314 H 1167.29 -3.18788 -0.561755 0
M  V30 12315 H 1166.19 -3.30507 1.7526 0
M  V30 12316 H 1167.53 -4.35764 2.28847 0
M  V30 12317 N 1169.18 -0.941978 -1.26351 0
M  V30 12318 C 1170.4 -0.606231 -1.98342 0
M  V30 12319 C 1170.83 0.812014 -1.6967 0
M  V30 12320 O 1170.19 1.54712 -0.9452 0
M  V30 12321 C 1170.23 -0.855864 -3.50296 0
M  V30 12322 O 1169.34 0.0716251 -4.12338 0
M  V30 12323 H 1168.68 -0.231815 -0.62222 0
M  V30 12324 H 1171.21 -1.26513 -1.60797 0
M  V30 12325 H 1171.22 -0.777079 -4.00531 0
M  V30 12326 H 1169.89 -1.8896 -3.70496 0
M  V30 12327 H 1168.47 -0.0582866 -3.72854 0
M  V30 12328 N 1170.66 1.40747 -0.709091 0
M  V30 12329 C 1171.61 2.27982 -0.0289269 0
M  V30 12330 C 1172.59 1.42917 0.739164 0
M  V30 12331 O 1173.78 1.66067 0.612433 0
M  V30 12332 C 1170.91 3.31378 0.896856 0
M  V30 12333 C 1170 4.23918 0.124296 0
M  V30 12334 N 1170.39 4.97925 -0.889043 0
M  V30 12335 C 1168.69 4.44562 0.357808 0
M  V30 12336 C 1169.39 5.65754 -1.35268 0
M  V30 12337 N 1168.36 5.3938 -0.676047 0
M  V30 12338 H 1172.16 2.82641 -0.805676 0
M  V30 12339 H 1169.68 1.5312 -0.541105 0
M  V30 12340 H 1171.68 3.92712 1.39939 0
M  V30 12341 H 1170.34 2.78279 1.67305 0
M  V30 12342 H 1171.35 5.02095 -1.2697 0
M  V30 12343 H 1168.02 4.02451 1.11084 0
M  V30 12344 H 1169.41 6.35058 -2.19432 0
M  V30 12345 N 1172.13 0.454803 1.50895 0
M  V30 12346 C 1173.38 -0.107367 2.01414 0
M  V30 12347 C 1173.7 -1.42243 1.34262 0
M  V30 12348 O 1174.9 -2.06858 1.75846 0
M  V30 12349 C 1173.36 -0.241872 3.59086 0
M  V30 12350 C 1172.97 1.06379 4.35187 0
M  V30 12351 C 1174.71 -0.756873 4.17698 0
M  V30 12352 C 1172.62 0.893973 5.84604 0
M  V30 12353 H 1171.55 -0.0439003 0.752721 0
M  V30 12354 H 1174.2 0.587225 1.7385 0
M  V30 12355 H 1172.58 -0.999873 3.83169 0
M  V30 12356 H 1173.75 1.83148 4.2284 0
M  V30 12357 H 1172.07 1.50865 3.88109 0
M  V30 12358 H 1174.67 -0.900697 5.27059 0
M  V30 12359 H 1175.01 -1.74397 3.7801 0
M  V30 12360 H 1175.54 -0.0567088 3.9776 0
M  V30 12361 H 1172.28 1.85395 6.28736 0
M  V30 12362 H 1171.8 0.166387 5.99569 0
M  V30 12363 H 1173.48 0.554084 6.44623 0
M  V30 12364 N 1173.61 -1.56489 0.186789 0
M  V30 12365 C 1174.52 -2.22304 -0.749543 0
M  V30 12366 C 1175.54 -1.21949 -1.24115 0
M  V30 12367 O 1176.71 -1.5466 -1.29005 0
M  V30 12368 C 1173.78 -2.863 -1.95533 0
M  V30 12369 C 1172.84 -4.01901 -1.5091 0
M  V30 12370 C 1172.07 -4.62837 -2.6574 0
M  V30 12371 O 1172.3 -4.22681 -3.8301 0
M  V30 12372 O 1171.23 -5.52446 -2.38929 0
M  V30 12373 H 1175.06 -3.02909 -0.21908 0
M  V30 12374 H 1172.64 -1.49341 -0.0421249 0
M  V30 12375 H 1174.52 -3.2682 -2.6602 0
M  V30 12376 H 1173.2 -2.08681 -2.47455 0
M  V30 12377 H 1172.1 -3.66021 -0.773261 0
M  V30 12378 H 1173.44 -4.8116 -1.03663 0
M  V30 12379 N 1175.09 0.086862 -1.5736 0
M  V30 12380 C 1176.33 0.794358 -1.88333 0
M  V30 12381 C 1176.69 1.75496 -0.778783 0
M  V30 12382 O 1177.89 2.50643 -0.971152 0
M  V30 12383 C 1176.17 1.49686 -3.24544 0
M  V30 12384 S 1177.72 2.2415 -3.7723 0
M  V30 12385 H 1174.54 0.264479 -0.659979 0
M  V30 12386 H 1177.14 0.0511046 -1.95433 0
M  V30 12387 H 1175.85 0.783713 -4.02847 0
M  V30 12388 H 1175.38 2.27984 -3.20604 0
M  V30 12389 H 1177.39 3.50426 -3.51306 0
M  V30 12390 N 1176.57 1.53483 0.357892 0
M  V30 12391 C 1177.98 1.43426 0.700073 0
M  V30 12392 C 1178.18 0.579493 1.92987 0
M  V30 12393 O 1177.24 0.0649086 2.52417 0
M  V30 12394 C 1178.55 2.86723 0.906099 0
M  V30 12395 C 1180.1 2.96405 1.00563 0
M  V30 12396 C 1180.58 4.4078 1.24407 0
M  V30 12397 N 1182.07 4.44243 1.3116 0
M  V30 12398 C 1182.8 5.53069 1.51333 0
M  V30 12399 N 1182.3 6.71928 1.68774 0
M  V30 12400 N 1184.09 5.40659 1.53765 0
M  V30 12401 H 1176.24 2.07559 -0.450894 0
M  V30 12402 H 1178.5 0.937649 -0.139711 0
M  V30 12403 H 1178.21 3.51622 0.0741579 0
M  V30 12404 H 1178.08 3.30827 1.81199 0
M  V30 12405 H 1180.47 2.31656 1.8281 0
M  V30 12406 H 1180.55 2.55684 0.0769512 0
M  V30 12407 H 1180.2 5.06105 0.426575 0
M  V30 12408 H 1180.13 4.7908 2.18608 0
M  V30 12409 H 1182.62 3.58587 1.19265 0
M  V30 12410 H 1182.93 7.50634 1.83762 0
M  V30 12411 H 1181.28 6.749 1.65937 0
M  V30 12412 H 1184.47 4.46764 1.39713 0
M  V30 12413 H 1184.64 6.25535 1.69146 0
M  V30 12414 N 1178.05 -0.61812 1.44973 0
M  V30 12415 C 1178.99 -1.72942 1.52838 0
M  V30 12416 C 1179.96 -1.6181 0.375056 0
M  V30 12417 O 1181.15 -1.81544 0.587075 0
M  V30 12418 C 1178.29 -3.11228 1.49101 0
M  V30 12419 C 1177.4 -3.33243 2.74906 0
M  V30 12420 C 1176.54 -4.61574 2.62912 0
M  V30 12421 C 1175.57 -4.76811 3.8382 0
M  V30 12422 N 1174.71 -5.96432 3.70424 0
M  V30 12423 H 1179.55 -1.65556 2.47781 0
M  V30 12424 H 1177.09 -0.807411 1.2296 0
M  V30 12425 H 1179.05 -3.9122 1.44923 0
M  V30 12426 H 1177.68 -3.17598 0.577163 0
M  V30 12427 H 1176.73 -2.471 2.89216 0
M  V30 12428 H 1178.04 -3.40377 3.64616 0
M  V30 12429 H 1177.19 -5.49746 2.56641 0
M  V30 12430 H 1175.93 -4.5682 1.70784 0
M  V30 12431 H 1174.94 -3.87066 3.90461 0
M  V30 12432 H 1176.16 -4.83371 4.77001 0
M  V30 12433 H 1174.11 -5.92742 2.81057 0
M  V30 12434 H 1174.03 -6.0468 4.5376 0
M  V30 12435 H 1175.29 -6.8713 3.68067 0
M  V30 12436 N 1179.52 -1.32087 -0.859693 0
M  V30 12437 C 1180.93 -1.20107 -1.42938 0
M  V30 12438 C 1181.29 0.188411 -1.95293 0
M  V30 12439 O 1180.41 1.08683 -1.87128 0
M  V30 12440 C 1181.01 -2.17436 -2.59821 0
M  V30 12441 C 1179.56 -2.09359 -3.12803 0
M  V30 12442 C 1178.71 -2.06086 -1.85537 0
M  V30 12443 H 1181.66 -1.43989 -0.667302 0
M  V30 12444 H 1181.68 -1.76996 -3.36828 0
M  V30 12445 H 1181.2 -3.18555 -2.21685 0
M  V30 12446 H 1179.3 -1.1147 -3.55535 0
M  V30 12447 H 1179.41 -2.98947 -3.74389 0
M  V30 12448 H 1177.77 -1.51251 -2.04928 0
M  V30 12449 H 1178.56 -3.08978 -1.49625 0
M  V30 12450 N 1181 1.07532 -1.15215 0
M  V30 12451 C 1182.23 1.8355 -0.94831 0
M  V30 12452 C 1182.64 1.82289 0.506701 0
M  V30 12453 O 1181.98 1.23142 1.36314 0
M  V30 12454 C 1182.04 3.31834 -1.38298 0
M  V30 12455 C 1181.71 3.56818 -2.85535 0
M  V30 12456 C 1182.71 3.50915 -3.83608 0
M  V30 12457 C 1180.39 3.84543 -3.23159 0
M  V30 12458 C 1182.38 3.72382 -5.17311 0
M  V30 12459 C 1180.07 4.05662 -4.57036 0
M  V30 12460 C 1181.07 3.99576 -5.53921 0
M  V30 12461 O 1180.76 4.20132 -6.85379 0
M  V30 12462 H 1180.49 0.586014 -0.336992 0
M  V30 12463 H 1183.04 1.36656 -1.53344 0
M  V30 12464 H 1181.27 3.79529 -0.741244 0
M  V30 12465 H 1182.96 3.89312 -1.14853 0
M  V30 12466 H 1183.73 3.295 -3.55886 0
M  V30 12467 H 1179.61 3.88395 -2.48335 0
M  V30 12468 H 1183.15 3.67547 -5.92921 0
M  V30 12469 H 1179.05 4.26563 -4.84473 0
M  V30 12470 H 1179.82 4.3749 -6.91769 0
M  V30 12471 N 1182.48 0.948665 1.2585 0
M  V30 12472 C 1183.43 0.462904 2.2611 0
M  V30 12473 C 1184.4 -0.481433 1.5897 0
M  V30 12474 O 1185.58 -0.395997 1.86645 0
M  V30 12475 C 1182.72 -0.258808 3.44128 0
M  V30 12476 C 1181.84 0.722072 4.25923 0
M  V30 12477 C 1180.97 -0.0215958 5.31196 0
M  V30 12478 C 1180.01 0.950612 6.04673 0
M  V30 12479 N 1179.15 0.238209 7.01696 0
M  V30 12480 H 1183.99 1.32279 2.67032 0
M  V30 12481 H 1181.52 0.663485 1.31287 0
M  V30 12482 H 1183.48 -0.693759 4.11391 0
M  V30 12483 H 1182.11 -1.08278 3.04098 0
M  V30 12484 H 1181.16 1.27552 3.58378 0
M  V30 12485 H 1182.48 1.46421 4.76825 0
M  V30 12486 H 1181.63 -0.51547 6.04506 0
M  V30 12487 H 1180.37 -0.796563 4.81151 0
M  V30 12488 H 1179.37 1.45554 5.30183 0
M  V30 12489 H 1180.6 1.72571 6.56808 0
M  V30 12490 H 1178.54 -0.518129 6.53951 0
M  V30 12491 H 1178.46 0.919542 7.50387 0
M  V30 12492 H 1179.73 -0.234325 7.79148 0
M  V30 12493 N 1183.96 -1.40369 0.716545 0
M  V30 12494 C 1184.87 -2.34508 0.065658 0
M  V30 12495 C 1185.88 -1.57352 -0.742723 0
M  V30 12496 O 1187.06 -1.89735 -0.675456 0
M  V30 12497 C 1184.13 -3.36262 -0.844337 0
M  V30 12498 C 1183.19 -4.29292 -0.0257971 0
M  V30 12499 C 1182.42 -5.26185 -0.892452 0
M  V30 12500 O 1182.64 -5.29071 -2.13166 0
M  V30 12501 O 1181.58 -6.0099 -0.330933 0
M  V30 12502 H 1185.4 -2.91789 0.842184 0
M  V30 12503 H 1182.99 -1.41579 0.477034 0
M  V30 12504 H 1184.87 -3.98661 -1.36555 0
M  V30 12505 H 1183.54 -2.81393 -1.59999 0
M  V30 12506 H 1182.45 -3.70175 0.540512 0
M  V30 12507 H 1183.78 -4.87316 0.69166 0
M  V30 12508 N 1185.44 -0.462799 -1.50652 0
M  V30 12509 C 1186.37 0.325724 -2.31217 0
M  V30 12510 C 1187.35 0.997942 -1.3775 0
M  V30 12511 O 1188.53 0.996707 -1.66671 0
M  V30 12512 C 1185.66 1.41283 -3.17264 0
M  V30 12513 C 1184.62 0.862687 -4.19216 0
M  V30 12514 C 1183.94 2.04746 -4.93946 0
M  V30 12515 C 1185.24 -0.120365 -5.22161 0
M  V30 12516 H 1186.94 -0.346666 -2.97386 0
M  V30 12517 H 1184.48 -0.168163 -1.43015 0
M  V30 12518 H 1186.44 1.97188 -3.72418 0
M  V30 12519 H 1185.16 2.11387 -2.48964 0
M  V30 12520 H 1183.82 0.325671 -3.65151 0
M  V30 12521 H 1183.47 2.73529 -4.22127 0
M  V30 12522 H 1183.17 1.68562 -5.62904 0
M  V30 12523 H 1184.69 2.61157 -5.51932 0
M  V30 12524 H 1186.1 0.349226 -5.72235 0
M  V30 12525 H 1184.5 -0.396061 -5.98792 0
M  V30 12526 H 1185.57 -1.04895 -4.73418 0
M  V30 12527 N 1186.91 1.56388 -0.195085 0
M  V30 12528 C 1188.33 1.58788 0.160758 0
M  V30 12529 C 1188.53 1.21125 1.61031 0
M  V30 12530 O 1187.59 0.933994 2.34591 0
M  V30 12531 C 1188.9 3.00366 -0.141588 0
M  V30 12532 C 1190.45 3.12893 -0.0816947 0
M  V30 12533 C 1190.92 4.56604 -0.35735 0
M  V30 12534 N 1192.41 4.62188 -0.305968 0
M  V30 12535 C 1193.15 5.71276 -0.493108 0
M  V30 12536 N 1192.64 6.8883 -0.740595 0
M  V30 12537 N 1194.44 5.60473 -0.427365 0
M  V30 12538 H 1186.59 1.79151 -1.14099 0
M  V30 12539 H 1188.85 0.831446 -0.455413 0
M  V30 12540 H 1188.56 3.32483 -1.14666 0
M  V30 12541 H 1188.43 3.73082 0.555834 0
M  V30 12542 H 1190.82 2.80589 0.913978 0
M  V30 12543 H 1190.9 2.42564 -0.812193 0
M  V30 12544 H 1190.54 4.8962 -1.35034 0
M  V30 12545 H 1190.47 5.25124 0.394036 0
M  V30 12546 H 1192.96 3.77705 -0.121298 0
M  V30 12547 H 1193.28 7.67862 -0.872201 0
M  V30 12548 H 1191.62 6.90637 -0.777488 0
M  V30 12549 H 1194.81 4.67513 -0.234436 0
M  V30 12550 H 1194.99 6.45429 -0.576627 0
M  V30 12551 N 1188.39 -0.0785156 1.57404 0
M  V30 12552 C 1189.32 -1.09446 2.06262 0
M  V30 12553 C 1190.3 -1.40777 0.954772 0
M  V30 12554 O 1191.49 -1.5052 1.22708 0
M  V30 12555 C 1188.62 -2.40979 2.50093 0
M  V30 12556 C 1187.57 -2.24017 3.64692 0
M  V30 12557 C 1186.9 -3.60873 3.94556 0
M  V30 12558 C 1188.2 -1.66696 4.94985 0
M  V30 12559 H 1189.89 -0.687928 2.9139 0
M  V30 12560 H 1187.44 -0.329466 1.4018 0
M  V30 12561 H 1189.39 -3.12337 2.82884 0
M  V30 12562 H 1188.12 -2.83599 1.61985 0
M  V30 12563 H 1186.77 -1.55101 3.32174 0
M  V30 12564 H 1186.42 -4.01051 3.0359 0
M  V30 12565 H 1186.12 -3.50365 4.71718 0
M  V30 12566 H 1187.65 -4.33673 4.29837 0
M  V30 12567 H 1189.06 -2.27913 5.2605 0
M  V30 12568 H 1187.46 -1.66902 5.76423 0
M  V30 12569 H 1188.53 -0.627827 4.80818 0
M  V30 12570 N 1189.87 -1.5367 -0.349747 0
M  V30 12571 C 1190.78 -1.84207 -1.45275 0
M  V30 12572 C 1191.8 -0.731695 -1.57868 0
M  V30 12573 O 1192.97 -1.02337 -1.73462 0
M  V30 12574 C 1190.04 -2.0398 -2.80345 0
M  V30 12575 C 1189.1 -3.27853 -2.77148 0
M  V30 12576 C 1188.33 -3.46673 -4.05775 0
M  V30 12577 O 1188.55 -2.69457 -5.02741 0
M  V30 12578 O 1187.49 -4.40082 -4.10623 0
M  V30 12579 H 1191.31 -2.77947 -1.22389 0
M  V30 12580 H 1188.9 -1.39247 -0.541345 0
M  V30 12581 H 1190.78 -2.18466 -3.60348 0
M  V30 12582 H 1189.46 -1.13429 -3.03176 0
M  V30 12583 H 1188.36 -3.18776 -1.95787 0
M  V30 12584 H 1189.7 -4.18377 -2.59271 0
M  V30 12585 N 1191.35 0.610423 -1.45298 0
M  V30 12586 C 1192.59 1.37154 -1.49388 0
M  V30 12587 C 1192.93 1.93737 -0.134025 0
M  V30 12588 O 1192.2 1.74888 0.851138 0
M  V30 12589 C 1192.49 2.52155 -2.5708 0
M  V30 12590 C 1192.34 2.00786 -4.02498 0
M  V30 12591 C 1193.66 3.54294 -2.61082 0
M  V30 12592 H 1190.78 0.497346 -0.54389 0
M  V30 12593 H 1193.42 0.688358 -1.77092 0
M  V30 12594 H 1191.57 3.10434 -2.33587 0
M  V30 12595 H 1193.24 1.47178 -4.37191 0
M  V30 12596 H 1191.48 1.31809 -4.1329 0
M  V30 12597 H 1192.15 2.83674 -4.73533 0
M  V30 12598 H 1194.63 3.05851 -2.82125 0
M  V30 12599 H 1193.51 4.32254 -3.38301 0
M  V30 12600 H 1193.77 4.09726 -1.66063 0
M  V30 12601 N 1192.83 1.32541 0.852676 0
M  V30 12602 C 1194.07 1.22971 1.60383 0
M  V30 12603 C 1194.4 -0.208009 1.93887 0
M  V30 12604 O 1193.67 -1.13326 1.59794 0
M  V30 12605 H 1192.25 0.452149 0.594618 0
M  V30 12606 H 1194.91 1.66089 1.01983 0
M  V30 12607 H 1194 1.81373 2.53989 0
M  V30 12608 N 1194.3 -1.0692 1.15784 0
M  V30 12609 C 1195.25 -2.14235 0.858616 0
M  V30 12610 C 1196.22 -1.65006 -0.190295 0
M  V30 12611 O 1197.41 -1.90715 -0.0568853 0
M  V30 12612 C 1194.55 -3.43229 0.35888 0
M  V30 12613 C 1193.66 -4.06225 1.46987 0
M  V30 12614 C 1192.79 -5.2307 0.925812 0
M  V30 12615 C 1191.83 -5.78037 2.01345 0
M  V30 12616 N 1190.97 -6.86206 1.48544 0
M  V30 12617 H 1195.81 -2.3917 1.77769 0
M  V30 12618 H 1193.35 -1.17354 0.886925 0
M  V30 12619 H 1195.31 -4.17169 0.0508198 0
M  V30 12620 H 1193.94 -3.18531 -0.523259 0
M  V30 12621 H 1192.99 -3.29895 1.89403 0
M  V30 12622 H 1194.3 -4.43081 2.29088 0
M  V30 12623 H 1193.45 -6.04011 0.570555 0
M  V30 12624 H 1192.19 -4.87644 0.0740371 0
M  V30 12625 H 1191.2 -4.95738 2.37748 0
M  V30 12626 H 1192.42 -6.15517 2.86907 0
M  V30 12627 H 1190.37 -6.52711 0.656092 0
M  V30 12628 H 1190.29 -7.2197 2.24266 0
M  V30 12629 H 1191.55 -7.70842 1.15856 0
M  V30 12630 N 1195.78 -0.955326 -1.25345 0
M  V30 12631 C 1196.71 -0.4334 -2.25065 0
M  V30 12632 C 1197.73 0.451099 -1.56425 0
M  V30 12633 O 1198.92 0.259265 -1.76607 0
M  V30 12634 C 1196.02 0.394809 -3.36592 0
M  V30 12635 C 1195.19 -0.476856 -4.34793 0
M  V30 12636 C 1194.25 0.293269 -5.25382 0
M  V30 12637 O 1193.27 -0.30857 -5.68363 0
M  V30 12638 N 1194.48 1.58617 -5.58409 0
M  V30 12639 H 1197.24 -1.29073 -2.70482 0
M  V30 12640 H 1194.8 -0.825764 -1.39258 0
M  V30 12641 H 1196.79 0.917747 -3.94157 0
M  V30 12642 H 1195.36 1.153 -2.90559 0
M  V30 12643 H 1194.58 -1.18089 -3.76097 0
M  V30 12644 H 1195.87 -1.07178 -4.97384 0
M  V30 12645 H 1195.27 2.09705 -5.25395 0
M  V30 12646 H 1193.83 2.05506 -6.18555 0
M  V30 12647 N 1197.26 1.39987 -0.723979 0
M  V30 12648 C 1198.68 1.54547 -0.398403 0
M  V30 12649 C 1198.88 1.69348 1.09194 0
M  V30 12650 O 1197.93 1.68778 1.87804 0
M  V30 12651 C 1199.25 2.76929 -1.1718 0
M  V30 12652 C 1200.79 2.90754 -1.15893 0
M  V30 12653 C 1201.27 4.16059 -1.91465 0
M  V30 12654 N 1202.76 4.23076 -1.88576 0
M  V30 12655 C 1203.5 5.18957 -2.43867 0
M  V30 12656 N 1202.99 6.20695 -3.0775 0
M  V30 12657 N 1204.78 5.11095 -2.33962 0
M  V30 12658 H 1196.94 1.28626 -1.69024 0
M  V30 12659 H 1199.2 0.6226 -0.714894 0
M  V30 12660 H 1198.9 2.72298 -2.22591 0
M  V30 12661 H 1198.78 3.69279 -0.768941 0
M  V30 12662 H 1201.17 2.94884 -0.112978 0
M  V30 12663 H 1201.25 1.99498 -1.60107 0
M  V30 12664 H 1200.89 4.12691 -2.96055 0
M  V30 12665 H 1200.82 5.06339 -1.44665 0
M  V30 12666 H 1203.31 3.50195 -1.42027 0
M  V30 12667 H 1203.62 6.90296 -3.47435 0
M  V30 12668 H 1201.97 6.21114 -3.11837 0
M  V30 12669 H 1205.16 4.30546 -1.83706 0
M  V30 12670 H 1205.33 5.85644 -2.77353 0
M  V30 12671 N 1198.74 0.470782 1.50404 0
M  V30 12672 C 1199.67 -0.313458 2.31386 0
M  V30 12673 C 1200.65 -0.990623 1.38278 0
M  V30 12674 O 1201.84 -0.987854 1.67198 0
M  V30 12675 C 1198.97 -1.39599 3.18009 0
M  V30 12676 C 1197.92 -0.840443 4.19667 0
M  V30 12677 C 1197.25 -2.02124 4.95025 0
M  V30 12678 C 1198.55 0.148055 5.2209 0
M  V30 12679 H 1200.24 0.362432 2.97198 0
M  V30 12680 H 1197.79 0.175745 1.42924 0
M  V30 12681 H 1199.74 -1.9521 3.73458 0
M  V30 12682 H 1198.46 -2.10064 2.50081 0
M  V30 12683 H 1197.12 -0.306302 3.65318 0
M  V30 12684 H 1196.77 -2.71286 4.23571 0
M  V30 12685 H 1196.47 -1.65574 5.6379 0
M  V30 12686 H 1197.99 -2.58226 5.5331 0
M  V30 12687 H 1199.41 -0.318874 5.72413 0
M  V30 12688 H 1197.8 0.427811 5.98573 0
M  V30 12689 H 1198.87 1.07404 4.72855 0
M  V30 12690 N 1200.22 -1.56282 0.203376 0
M  V30 12691 C 1201.16 -2.19473 -0.714164 0
M  V30 12692 C 1202.13 -1.14454 -1.20372 0
M  V30 12693 O 1203.32 -1.42739 -1.26611 0
M  V30 12694 C 1200.46 -2.86451 -1.92457 0
M  V30 12695 C 1199.57 -4.06017 -1.47561 0
M  V30 12696 C 1198.71 -4.60829 -2.64216 0
M  V30 12697 C 1197.75 -5.72734 -2.15967 0
M  V30 12698 N 1196.88 -6.21916 -3.25829 0
M  V30 12699 H 1201.72 -2.97523 -0.168558 0
M  V30 12700 H 1199.26 -1.46926 -0.0714525 0
M  V30 12701 H 1201.22 -3.23459 -2.63496 0
M  V30 12702 H 1199.85 -2.10951 -2.44335 0
M  V30 12703 H 1198.9 -3.74617 -0.660784 0
M  V30 12704 H 1200.21 -4.8693 -1.08168 0
M  V30 12705 H 1199.37 -5.00185 -3.43366 0
M  V30 12706 H 1198.11 -3.7904 -3.06887 0
M  V30 12707 H 1197.11 -5.32899 -1.35273 0
M  V30 12708 H 1198.34 -6.56346 -1.74316 0
M  V30 12709 H 1196.28 -5.43047 -3.68016 0
M  V30 12710 H 1196.2 -6.97904 -2.90631 0
M  V30 12711 H 1197.47 -6.65927 -4.05168 0
M  V30 12712 N 1201.7 0.070167 -1.57444 0
M  V30 12713 C 1202.93 0.78076 -1.91279 0
M  V30 12714 C 1203.33 1.71559 -0.797754 0
M  V30 12715 O 1202.68 1.82156 0.237665 0
M  V30 12716 C 1202.74 1.62664 -3.20594 0
M  V30 12717 C 1202.4 0.861007 -4.48816 0
M  V30 12718 C 1203.4 0.179522 -5.1959 0
M  V30 12719 C 1201.08 0.8277 -4.95434 0
M  V30 12720 C 1203.08 -0.525024 -6.35234 0
M  V30 12721 C 1200.77 0.119382 -6.10983 0
M  V30 12722 C 1201.76 -0.555778 -6.80735 0
M  V30 12723 O 1201.45 -1.25268 -7.9408 0
M  V30 12724 H 1201.18 0.227053 -0.636728 0
M  V30 12725 H 1203.74 0.0442334 -2.05352 0
M  V30 12726 H 1201.97 2.40601 -3.02734 0
M  V30 12727 H 1203.66 2.21606 -3.40067 0
M  V30 12728 H 1204.42 0.19655 -4.84602 0
M  V30 12729 H 1200.3 1.34268 -4.41014 0
M  V30 12730 H 1203.85 -1.05257 -6.89613 0
M  V30 12731 H 1199.74 0.100287 -6.45422 0
M  V30 12732 H 1200.51 -1.16212 -8.10208 0
M  V30 12733 N 1203.17 1.53854 0.341593 0
M  V30 12734 C 1204.14 1.8128 1.40251 0
M  V30 12735 C 1205.14 0.683915 1.45531 0
M  V30 12736 O 1206.33 0.952202 1.45872 0
M  V30 12737 C 1203.46 1.95658 2.79161 0
M  V30 12738 H 1204.65 2.76053 1.17195 0
M  V30 12739 H 1202.2 1.45296 0.57609 0
M  V30 12740 H 1202.94 1.03034 3.07497 0
M  V30 12741 H 1202.72 2.77788 2.76724 0
M  V30 12742 H 1204.21 2.18387 3.55945 0
M  V30 12743 N 1204.65 -0.602709 1.4562 0
M  V30 12744 C 1205.58 -1.7271 1.50678 0
M  V30 12745 C 1206.6 -1.57884 0.397048 0
M  V30 12746 O 1207.79 -1.65676 0.664367 0
M  V30 12747 C 1204.89 -3.10762 1.35204 0
M  V30 12748 C 1204.06 -3.51782 2.59939 0
M  V30 12749 C 1203.12 -4.68816 2.38952 0
M  V30 12750 O 1202.14 -4.75686 3.12588 0
M  V30 12751 N 1203.35 -5.624 1.43827 0
M  V30 12752 H 1206.11 -1.68833 2.47619 0
M  V30 12753 H 1203.67 -0.788131 1.41422 0
M  V30 12754 H 1205.66 -3.86819 1.18967 0
M  V30 12755 H 1204.23 -3.09119 0.465203 0
M  V30 12756 H 1203.45 -2.65637 2.91257 0
M  V30 12757 H 1204.74 -3.75948 3.42842 0
M  V30 12758 H 1204.14 -5.59568 0.830669 0
M  V30 12759 H 1202.7 -6.37969 1.33561 0
M  V30 12760 N 1206.13 -1.32992 -0.845635 0
M  V30 12761 C 1207.04 -1.24701 -1.98713 0
M  V30 12762 C 1208.06 -0.158864 -1.73273 0
M  V30 12763 O 1209.23 -0.381209 -1.97759 0
M  V30 12764 C 1206.3 -0.979524 -3.32575 0
M  V30 12765 C 1205.36 -2.15701 -3.71176 0
M  V30 12766 C 1204.59 -1.90219 -4.98651 0
M  V30 12767 O 1204.81 -0.849171 -5.64044 0
M  V30 12768 O 1203.75 -2.76571 -5.34595 0
M  V30 12769 H 1207.57 -2.20683 -2.08645 0
M  V30 12770 H 1205.16 -1.12971 -0.97765 0
M  V30 12771 H 1207.04 -0.847219 -4.12796 0
M  V30 12772 H 1205.72 -0.0499398 -3.23661 0
M  V30 12773 H 1204.62 -2.34483 -2.91494 0
M  V30 12774 H 1205.96 -3.0697 -3.84747 0
M  V30 12775 N 1207.61 1.06304 -1.1635 0
M  V30 12776 C 1208.52 2.17296 -0.884289 0
M  V30 12777 C 1209.53 1.73408 0.143414 0
M  V30 12778 O 1210.71 2.01373 -0.0331987 0
M  V30 12779 C 1207.77 3.44509 -0.389163 0
M  V30 12780 C 1206.84 4.02906 -1.48208 0
M  V30 12781 C 1206.07 5.24047 -1.01048 0
M  V30 12782 O 1206.29 5.70229 0.139821 0
M  V30 12783 O 1205.23 5.74394 -1.79876 0
M  V30 12784 H 1209.05 2.4369 -1.81243 0
M  V30 12785 H 1206.64 1.15841 -0.943459 0
M  V30 12786 H 1208.52 4.21229 -0.120018 0
M  V30 12787 H 1207.19 3.19642 0.510968 0
M  V30 12788 H 1206.1 3.27677 -1.80496 0
M  V30 12789 H 1207.43 4.32068 -2.35751 0
M  V30 12790 N 1209.09 0.96196 1.24836 0
M  V30 12791 C 1210.02 0.506241 2.27946 0
M  V30 12792 C 1211 -0.451183 1.64007 0
M  V30 12793 O 1212.18 -0.348552 1.91046 0
M  V30 12794 C 1209.31 -0.209846 3.46665 0
M  V30 12795 C 1208.27 0.663035 4.22833 0
M  V30 12796 C 1207.59 -0.184216 5.34383 0
M  V30 12797 C 1208.89 1.94479 4.84742 0
M  V30 12798 H 1210.59 1.36805 2.66317 0
M  V30 12799 H 1208.13 0.65926 1.28023 0
M  V30 12800 H 1210.08 -0.539838 4.17928 0
M  V30 12801 H 1208.81 -1.10596 3.07305 0
M  V30 12802 H 1207.47 0.976216 3.53363 0
M  V30 12803 H 1207.12 -1.08031 4.91262 0
M  V30 12804 H 1206.82 0.39657 5.8626 0
M  V30 12805 H 1208.34 -0.509009 6.08475 0
M  V30 12806 H 1209.75 1.68074 5.48109 0
M  V30 12807 H 1208.15 2.47183 5.46828 0
M  V30 12808 H 1209.22 2.64332 4.06517 0
M  V30 12809 N 1210.56 -1.39601 0.731392 0
M  V30 12810 C 1211.79 -2.05411 0.286532 0
M  V30 12811 C 1212.21 -1.54777 -1.06892 0
M  V30 12812 O 1211.57 -0.689942 -1.67659 0
M  V30 12813 C 1211.62 -3.594 0.293914 0
M  V30 12814 O 1210.72 -4.06072 -0.719657 0
M  V30 12815 H 1210.06 -0.650949 0.131004 0
M  V30 12816 H 1212.59 -1.78703 0.996305 0
M  V30 12817 H 1212.6 -4.0777 0.137052 0
M  V30 12818 H 1211.28 -3.95617 1.28298 0
M  V30 12819 H 1209.86 -3.69125 -0.529226 0
M  V30 12820 N 1212.04 -0.478751 -1.50152 0
M  V30 12821 C 1212.99 0.325375 -2.30313 0
M  V30 12822 C 1213.98 0.983372 -1.37935 0
M  V30 12823 O 1215.19 0.913601 -1.55091 0
M  V30 12824 H 1211.57 0.123775 -0.741744 0
M  V30 12825 H 1213.54 -0.371004 -2.96085 0
M  V30 12826 C 1212.29 1.39026 -3.18696 0
M  V30 12827 H 1211.61 0.893329 -3.89692 0
M  V30 12828 H 1213.05 1.92533 -3.77766 0
M  V30 12829 C 1211.51 2.39637 -2.36803 0
M  V30 12830 O 1212.04 3.45067 -2.05649 0
M  V30 12831 N 1210.24 2.11546 -1.9924 0
M  V30 12832 H 1209.79 1.25832 -2.24775 0
M  V30 12833 H 1209.75 2.79096 -1.44751 0
M  V30 12834 N 1213.52 1.56172 -0.211661 0
M  V30 12835 C 1214.43 2.23468 0.714081 0
M  V30 12836 C 1215.45 1.23908 1.22159 0
M  V30 12837 O 1216.62 1.56693 1.26528 0
M  V30 12838 C 1213.69 2.89375 1.90953 0
M  V30 12839 C 1212.75 4.04251 1.44497 0
M  V30 12840 C 1211.98 4.67006 2.58343 0
M  V30 12841 O 1212.2 4.28721 3.76237 0
M  V30 12842 O 1211.14 5.56177 2.3011 0
M  V30 12843 H 1214.96 3.03219 0.170862 0
M  V30 12844 H 1212.55 1.49389 0.0183607 0
M  V30 12845 H 1214.43 3.3101 2.60787 0
M  V30 12846 H 1213.11 2.12591 2.44104 0
M  V30 12847 H 1212.01 3.67205 0.714932 0
M  V30 12848 H 1213.35 4.82748 0.959947 0
M  V30 12849 N 1215 -0.0618163 1.57479 0
M  V30 12850 C 1216.24 -0.760193 1.88013 0
M  V30 12851 C 1216.58 -1.76718 0.805258 0
M  V30 12852 O 1215.85 -1.93633 -0.183408 0
M  V30 12853 C 1216.14 -1.45924 3.29208 0
M  V30 12854 C 1215.99 -0.467994 4.47359 0
M  V30 12855 C 1217.31 -2.40166 3.68793 0
M  V30 12856 H 1214.43 -0.274896 0.683814 0
M  V30 12857 H 1217.07 -0.0232433 1.89986 0
M  V30 12858 H 1215.22 -2.08741 3.27657 0
M  V30 12859 H 1216.89 0.155735 4.61037 0
M  V30 12860 H 1215.13 0.215797 4.33263 0
M  V30 12861 H 1215.8 -0.994942 5.42959 0
M  V30 12862 H 1218.28 -1.87419 3.71501 0
M  V30 12863 H 1217.16 -2.86076 4.68457 0
M  V30 12864 H 1217.42 -3.25413 2.99264 0
M  V30 12865 N 1216.48 -1.54033 -0.333429 0
M  V30 12866 C 1217.41 -1.85719 -1.4153 0
M  V30 12867 C 1218.39 -0.713144 -1.54429 0
M  V30 12868 O 1219.57 -0.965984 -1.68471 0
M  V30 12869 C 1216.7 -2.07578 -2.78439 0
M  V30 12870 C 1215.66 -3.23411 -2.80338 0
M  V30 12871 C 1214.98 -3.30622 -4.2023 0
M  V30 12872 C 1216.28 -4.6129 -2.44968 0
M  V30 12873 H 1217.98 -2.76325 -1.15261 0
M  V30 12874 H 1215.52 -1.32957 -0.55303 0
M  V30 12875 H 1217.48 -2.28329 -3.5418 0
M  V30 12876 H 1216.2 -1.13713 -3.06165 0
M  V30 12877 H 1214.86 -3.02531 -2.07052 0
M  V30 12878 H 1214.51 -2.34333 -4.45081 0
M  V30 12879 H 1214.21 -4.08466 -4.22409 0
M  V30 12880 H 1215.73 -3.53596 -4.97798 0
M  V30 12881 H 1217.14 -4.81987 -3.10421 0
M  V30 12882 H 1215.54 -5.41611 -2.58414 0
M  V30 12883 H 1216.61 -4.6421 -1.40134 0
M  V30 12884 N 1217.95 0.594978 -1.45938 0
M  V30 12885 C 1219.37 1.17703 -1.44924 0
M  V30 12886 C 1219.72 1.9534 -0.183522 0
M  V30 12887 O 1218.84 2.04276 0.714163 0
M  V30 12888 C 1219.44 2.14119 -2.62561 0
M  V30 12889 C 1218 2.67674 -2.64627 0
M  V30 12890 C 1217.14 1.43312 -2.37397 0
M  V30 12891 H 1220.09 0.383583 -1.53995 0
M  V30 12892 H 1220.11 2.97374 -2.3738 0
M  V30 12893 H 1219.63 1.57586 -3.54667 0
M  V30 12894 H 1217.73 3.28111 -1.76562 0
M  V30 12895 H 1217.84 3.11246 -3.64229 0
M  V30 12896 H 1216.2 1.72702 -1.87206 0
M  V30 12897 H 1216.99 0.886276 -3.31663 0
M  V30 12898 N 1219.43 1.33438 0.838571 0
M  V30 12899 C 1220.84 1.22366 1.41009 0
M  V30 12900 C 1221.19 -0.157317 1.95568 0
M  V30 12901 O 1220.32 -1.05692 1.88834 0
M  V30 12902 C 1220.91 2.21542 2.56329 0
M  V30 12903 C 1219.47 2.14309 3.09433 0
M  V30 12904 C 1218.62 2.09012 1.82235 0
M  V30 12905 H 1221.57 1.45032 0.64431 0
M  V30 12906 H 1221.59 1.82332 3.33969 0
M  V30 12907 H 1221.1 3.22042 2.16589 0
M  V30 12908 H 1219.21 1.17113 3.53717 0
M  V30 12909 H 1219.32 3.04866 3.69586 0
M  V30 12910 H 1217.68 1.54492 2.02495 0
M  V30 12911 H 1218.47 3.11319 1.4469 0
M  V30 12912 N 1220.91 -1.05686 1.16912 0
M  V30 12913 C 1222.32 -1.60059 0.961153 0
M  V30 12914 C 1222.67 -1.89894 -0.493409 0
M  V30 12915 O 1221.8 -1.67692 -1.36778 0
M  V30 12916 C 1222.39 -2.90803 1.73837 0
M  V30 12917 C 1220.95 -3.41854 1.57522 0
M  V30 12918 C 1220.1 -2.15658 1.74319 0
M  V30 12919 H 1223.05 -0.885592 1.31693 0
M  V30 12920 H 1223.07 -3.60485 1.21781 0
M  V30 12921 H 1222.58 -2.69056 2.79697 0
M  V30 12922 H 1220.68 -3.68647 0.541284 0
M  V30 12923 H 1220.8 -4.16771 2.36302 0
M  V30 12924 H 1219.16 -2.26177 1.17115 0
M  V30 12925 H 1219.94 -1.96386 2.8158 0
M  V30 12926 N 1222.39 -0.968567 -1.24324 0
M  V30 12927 C 1223.8 -0.675239 -1.44612 0
M  V30 12928 C 1224 0.762641 -1.8651 0
M  V30 12929 O 1223.06 1.53644 -2.00374 0
M  V30 12930 C 1224.37 -1.66007 -2.50723 0
M  V30 12931 C 1225.92 -1.6728 -2.6455 0
M  V30 12932 C 1226.4 -2.64563 -3.73859 0
M  V30 12933 N 1227.89 -2.6301 -3.81287 0
M  V30 12934 C 1228.62 -3.34957 -4.65394 0
M  V30 12935 N 1228.12 -4.16424 -5.53681 0
M  V30 12936 N 1229.91 -3.23778 -4.59483 0
M  V30 12937 H 1222.06 -1.89757 -0.954257 0
M  V30 12938 H 1224.33 -0.817004 -0.480841 0
M  V30 12939 H 1224.03 -2.68779 -2.26827 0
M  V30 12940 H 1223.91 -1.43353 -3.48898 0
M  V30 12941 H 1226.29 -0.652184 -2.87803 0
M  V30 12942 H 1226.37 -1.93997 -1.6673 0
M  V30 12943 H 1226.02 -3.66759 -3.51355 0
M  V30 12944 H 1225.95 -2.35124 -4.71194 0
M  V30 12945 H 1228.44 -2.03877 -3.18186 0
M  V30 12946 H 1228.75 -4.68207 -6.14818 0
M  V30 12947 H 1227.1 -4.20518 -5.53344 0
M  V30 12948 H 1230.29 -2.59594 -3.89524 0
M  V30 12949 H 1230.46 -3.80112 -5.24804 0
M  V30 12950 N 1223.87 1.39211 -0.738786 0
M  V30 12951 C 1224.81 2.30578 -0.10129 0
M  V30 12952 C 1225.78 1.49412 0.725616 0
M  V30 12953 O 1226.97 1.78087 0.684799 0
M  V30 12954 C 1224.11 3.35767 0.797161 0
M  V30 12955 C 1223.22 4.31979 -0.0427701 0
M  V30 12956 C 1222.36 5.24236 0.857306 0
M  V30 12957 C 1221.4 6.12099 0.0128501 0
M  V30 12958 N 1220.53 6.96701 0.869067 0
M  V30 12959 H 1225.37 2.84522 -0.88606 0
M  V30 12960 H 1222.91 1.40093 -0.448602 0
M  V30 12961 H 1224.87 3.95347 1.33255 0
M  V30 12962 H 1223.5 2.83268 1.54787 0
M  V30 12963 H 1222.55 3.73986 -0.695622 0
M  V30 12964 H 1223.86 4.93927 -0.69555 0
M  V30 12965 H 1223.02 5.88861 1.4604 0
M  V30 12966 H 1221.75 4.62619 1.54386 0
M  V30 12967 H 1220.76 5.46483 -0.603018 0
M  V30 12968 H 1221.98 6.75781 -0.67054 0
M  V30 12969 H 1219.93 6.37647 1.54084 0
M  V30 12970 H 1219.85 7.55507 0.272852 0
M  V30 12971 H 1221.12 7.65751 1.4576 0
M  V30 12972 N 1225.34 0.486708 1.49896 0
M  V30 12973 C 1226.28 -0.345627 2.25567 0
M  V30 12974 C 1227.26 -0.982794 1.29537 0
M  V30 12975 O 1228.44 -1.01569 1.58796 0
M  V30 12976 C 1225.57 -1.48555 3.04383 0
M  V30 12977 C 1224.61 -0.964196 4.15458 0
M  V30 12978 S 1225.45 0.133631 5.35333 0
M  V30 12979 C 1226.6 -1.00979 6.17701 0
M  V30 12980 H 1226.83 0.296677 2.95816 0
M  V30 12981 H 1224.37 0.271798 1.51989 0
M  V30 12982 H 1226.33 -2.13878 3.50381 0
M  V30 12983 H 1224.99 -2.09942 2.33631 0
M  V30 12984 H 1224.18 -1.81804 4.70067 0
M  V30 12985 H 1223.78 -0.388419 3.71978 0
M  V30 12986 H 1226.07 -1.91812 6.4978 0
M  V30 12987 H 1227.02 -0.502633 7.06314 0
M  V30 12988 H 1227.42 -1.27067 5.50013 0
M  V30 12989 N 1226.82 -1.56058 0.219941 0
M  V30 12990 C 1227.77 -2.20218 -0.690846 0
M  V30 12991 C 1228.74 -1.15725 -1.19151 0
M  V30 12992 O 1229.93 -1.44073 -1.2509 0
M  V30 12993 C 1227.07 -2.88477 -1.89408 0
M  V30 12994 C 1226.18 -4.07559 -1.43246 0
M  V30 12995 C 1225.31 -4.63605 -2.59314 0
M  V30 12996 C 1224.35 -5.74993 -2.0988 0
M  V30 12997 N 1223.49 -6.25337 -3.19214 0
M  V30 12998 H 1228.33 -2.97685 -0.136992 0
M  V30 12999 H 1225.87 -1.46994 -0.055865 0
M  V30 13000 H 1227.82 -3.26235 -2.60051 0
M  V30 13001 H 1226.45 -2.1353 -2.42084 0
M  V30 13002 H 1225.51 -3.75297 -0.621013 0
M  V30 13003 H 1226.82 -4.8805 -1.02997 0
M  V30 13004 H 1225.97 -5.03798 -3.38041 0
M  V30 13005 H 1224.71 -3.82274 -3.0285 0
M  V30 13006 H 1223.72 -5.34304 -1.29613 0
M  V30 13007 H 1224.94 -6.58158 -1.67345 0
M  V30 13008 H 1222.89 -5.4692 -3.62236 0
M  V30 13009 H 1222.8 -7.00947 -2.83213 0
M  V30 13010 H 1224.07 -6.70187 -3.98083 0
M  V30 13011 N 1228.3 0.053464 -1.57509 0
M  V30 13012 C 1229.55 0.747622 -1.87763 0
M  V30 13013 C 1229.87 1.77178 -0.814433 0
M  V30 13014 O 1229.14 1.95287 0.154862 0
M  V30 13015 H 1227.72 0.279109 -0.692898 0
M  V30 13016 H 1230.38 0.0252006 -1.94884 0
M  V30 13017 H 1229.48 1.25244 -2.85868 0
M  V30 13018 N 1229.78 1.54207 0.325255 0
M  V30 13019 C 1230.71 1.86467 1.40543 0
M  V30 13020 C 1231.69 0.721324 1.54048 0
M  V30 13021 O 1232.88 0.974905 1.67956 0
M  V30 13022 C 1230.01 2.09052 2.77335 0
M  V30 13023 C 1228.96 3.24893 2.78619 0
M  V30 13024 C 1228.29 3.32846 4.1847 0
M  V30 13025 C 1229.59 4.62582 2.42518 0
M  V30 13026 H 1231.28 2.76932 1.13794 0
M  V30 13027 H 1228.83 1.33248 0.545971 0
M  V30 13028 H 1230.78 2.30204 3.52964 0
M  V30 13029 H 1229.5 1.15335 3.05558 0
M  V30 13030 H 1228.16 3.03625 2.05444 0
M  V30 13031 H 1227.81 2.3669 4.43832 0
M  V30 13032 H 1227.51 4.10701 4.20237 0
M  V30 13033 H 1229.03 3.56231 4.95915 0
M  V30 13034 H 1230.45 4.83627 3.07861 0
M  V30 13035 H 1228.84 5.42974 2.55538 0
M  V30 13036 H 1229.91 4.64946 1.3767 0
M  V30 13037 N 1231.26 -0.58723 1.46251 0
M  V30 13038 C 1232.5 -1.3456 1.51327 0
M  V30 13039 C 1232.83 -1.93815 0.163146 0
M  V30 13040 O 1232.09 -1.76723 -0.840677 0
M  V30 13041 C 1232.39 -2.49776 2.5563 0
M  V30 13042 C 1232.05 -2.08543 3.99776 0
M  V30 13043 C 1230.71 -1.97013 4.39021 0
M  V30 13044 C 1233.07 -1.76669 4.90344 0
M  V30 13045 C 1230.39 -1.5186 5.66706 0
M  V30 13046 C 1232.75 -1.32996 6.18462 0
M  V30 13047 C 1231.41 -1.20039 6.56618 0
M  V30 13048 H 1230.68 -0.492391 0.553744 0
M  V30 13049 H 1233.33 -0.661715 1.79704 0
M  V30 13050 H 1231.63 -3.23592 2.20897 0
M  V30 13051 H 1233.33 -3.07995 2.56788 0
M  V30 13052 H 1229.92 -2.18451 3.68751 0
M  V30 13053 H 1234.1 -1.84465 4.60746 0
M  V30 13054 H 1229.36 -1.40467 5.95045 0
M  V30 13055 H 1233.53 -1.07385 6.88071 0
M  V30 13056 H 1231.16 -0.848268 7.55452 0
M  V30 13057 N 1232.74 -1.33881 -0.831482 0
M  V30 13058 C 1233.96 -1.28961 -1.62431 0
M  V30 13059 C 1234.39 0.135249 -1.87613 0
M  V30 13060 O 1233.74 1.09426 -1.44553 0
M  V30 13061 C 1233.79 -2.07767 -2.94729 0
M  V30 13062 O 1232.9 -1.44133 -3.86393 0
M  V30 13063 H 1232.24 -0.443313 -0.494337 0
M  V30 13064 H 1234.77 -1.76555 -1.0339 0
M  V30 13065 H 1234.78 -2.18806 -3.44366 0
M  V30 13066 H 1233.45 -3.11367 -2.75724 0
M  V30 13067 H 1232.03 -1.41784 -3.44894 0
M  V30 13068 N 1234.21 1.05064 -1.1747 0
M  V30 13069 C 1235.15 2.12842 -0.850344 0
M  V30 13070 C 1236.16 1.62128 0.147796 0
M  V30 13071 O 1237.35 1.78327 -0.0786774 0
M  V30 13072 C 1234.45 3.37995 -0.247486 0
M  V30 13073 C 1233.62 4.17981 -1.28881 0
M  V30 13074 C 1232.68 5.21476 -0.703476 0
M  V30 13075 O 1231.71 5.52327 -1.37561 0
M  V30 13076 N 1232.91 5.78309 0.50387 0
M  V30 13077 H 1235.67 2.41264 -1.77797 0
M  V30 13078 H 1233.23 1.21172 -1.07373 0
M  V30 13079 H 1235.23 4.04394 0.157424 0
M  V30 13080 H 1233.8 3.07097 0.583952 0
M  V30 13081 H 1233.02 3.47054 -1.86942 0
M  V30 13082 H 1234.3 4.6822 -1.99116 0
M  V30 13083 H 1233.7 5.5553 1.06787 0
M  V30 13084 H 1232.26 6.46223 0.850828 0
M  V30 13085 N 1235.69 0.975146 1.23809 0
M  V30 13086 C 1236.65 0.516157 2.23312 0
M  V30 13087 C 1237.65 -0.39136 1.55965 0
M  V30 13088 O 1238.84 -0.185783 1.73206 0
M  V30 13089 C 1235.98 -0.251534 3.39971 0
M  V30 13090 H 1237.17 1.3959 2.65433 0
M  V30 13091 H 1234.72 0.760493 1.36551 0
M  V30 13092 H 1235.46 -1.14805 3.03299 0
M  V30 13093 H 1235.24 0.399825 3.90056 0
M  V30 13094 H 1236.73 -0.561438 4.13809 0
M  V30 13095 N 1237.17 -1.38817 0.746158 0
M  V30 13096 C 1238.12 -2.30521 0.113517 0
M  V30 13097 C 1239.09 -1.49795 -0.717682 0
M  V30 13098 O 1240.27 -1.78448 -0.675345 0
M  V30 13099 C 1237.41 -3.36185 -0.779343 0
M  V30 13100 C 1236.52 -4.3195 0.0656784 0
M  V30 13101 C 1235.66 -5.24684 -0.829492 0
M  V30 13102 C 1234.7 -6.12097 0.0196112 0
M  V30 13103 N 1233.84 -6.97152 -0.832107 0
M  V30 13104 H 1238.68 -2.84048 0.901136 0
M  V30 13105 H 1236.21 -1.39853 0.456025 0
M  V30 13106 H 1238.17 -3.96048 -1.31156 0
M  V30 13107 H 1236.8 -2.84085 -1.53282 0
M  V30 13108 H 1235.85 -3.73611 0.715445 0
M  V30 13109 H 1237.16 -4.93551 0.721735 0
M  V30 13110 H 1236.32 -5.89627 -1.42915 0
M  V30 13111 H 1235.06 -4.63431 -1.5193 0
M  V30 13112 H 1234.06 -5.46156 0.631991 0
M  V30 13113 H 1235.29 -6.75416 0.706369 0
M  V30 13114 H 1233.23 -6.38456 -1.507 0
M  V30 13115 H 1233.15 -7.55642 -0.232782 0
M  V30 13116 H 1234.42 -7.66513 -1.41697 0
M  V30 13117 N 1238.65 -0.49465 -1.49636 0
M  V30 13118 C 1239.9 0.0539277 -2.01628 0
M  V30 13119 C 1240.21 1.38634 -1.37986 0
M  V30 13120 O 1241.42 2.02123 -1.81269 0
M  V30 13121 C 1239.87 0.146582 -3.59601 0
M  V30 13122 C 1239.48 -1.1788 -4.32213 0
M  V30 13123 C 1241.22 0.645862 -4.19558 0
M  V30 13124 C 1239.13 -1.04866 -5.82028 0
M  V30 13125 H 1238.06 0.0239278 -0.75362 0
M  V30 13126 H 1240.71 -0.633112 -1.72232 0
M  V30 13127 H 1239.09 0.897931 -3.85685 0
M  V30 13128 H 1240.27 -1.94295 -4.17835 0
M  V30 13129 H 1238.58 -1.61102 -3.83973 0
M  V30 13130 H 1241.18 0.76064 -5.29262 0
M  V30 13131 H 1241.52 1.64313 -3.82501 0
M  V30 13132 H 1242.06 -0.04877 -3.9777 0
M  V30 13133 H 1238.79 -2.02 -6.23599 0
M  V30 13134 H 1238.31 -0.325293 -5.98917 0
M  V30 13135 H 1239.99 -0.724799 -6.42927 0
M  V30 13136 N 1240.13 1.55939 -0.228214 0
M  V30 13137 C 1241.35 2.0332 0.409364 0
M  V30 13138 C 1241.78 1.10683 1.52088 0
M  V30 13139 O 1241.13 0.0962484 1.81044 0
M  V30 13140 C 1241.18 3.48877 0.911981 0
M  V30 13141 O 1240.29 3.59378 2.02289 0
M  V30 13142 H 1239.63 0.657625 0.0917909 0
M  V30 13143 H 1242.16 2.01605 -0.348802 0
M  V30 13144 H 1242.17 3.89331 1.22007 0
M  V30 13145 H 1240.84 4.15783 0.0984902 0
M  V30 13146 H 1239.42 3.30815 1.72093 0
M  V30 13147 N 1241.6 -0.0451101 1.57535 0
M  V30 13148 C 1242.53 -1.05046 2.08537 0
M  V30 13149 C 1243.52 -1.3872 0.984418 0
M  V30 13150 O 1244.7 -1.47884 1.25873 0
M  V30 13151 C 1241.83 -2.3562 2.55148 0
M  V30 13152 C 1240.78 -2.16231 3.69362 0
M  V30 13153 C 1240.11 -3.52423 4.02122 0
M  V30 13154 C 1241.41 -1.56159 4.98409 0
M  V30 13155 H 1243.1 -0.625965 2.92783 0
M  V30 13156 H 1240.65 -0.299657 1.40848 0
M  V30 13157 H 1242.6 -3.06266 2.89446 0
M  V30 13158 H 1241.33 -2.80099 1.67964 0
M  V30 13159 H 1239.99 -1.4802 3.35389 0
M  V30 13160 H 1239.63 -3.94522 3.12028 0
M  V30 13161 H 1239.33 -3.4028 4.79044 0
M  V30 13162 H 1240.86 -4.24458 4.38939 0
M  V30 13163 H 1242.27 -2.16703 5.30766 0
M  V30 13164 H 1240.67 -1.54638 5.79834 0
M  V30 13165 H 1241.74 -0.525698 4.82042 0
M  V30 13166 N 1243.08 -1.54377 -0.317073 0
M  V30 13167 C 1244.33 -1.72893 -1.05424 0
M  V30 13168 C 1244.66 -0.506082 -1.87801 0
M  V30 13169 O 1243.91 0.51213 -1.8888 0
M  V30 13170 C 1244.21 -2.96066 -2.00199 0
M  V30 13171 C 1243.88 -4.30551 -1.33927 0
M  V30 13172 C 1242.54 -4.67112 -1.15584 0
M  V30 13173 C 1244.89 -5.13986 -0.864158 0
M  V30 13174 C 1242.22 -5.84701 -0.483892 0
M  V30 13175 C 1244.57 -6.32264 -0.206006 0
M  V30 13176 C 1243.24 -6.67499 -0.0104849 0
M  V30 13177 H 1242.51 -0.63266 -0.385776 0
M  V30 13178 H 1245.15 -1.88623 -0.330722 0
M  V30 13179 H 1243.46 -2.7505 -2.79024 0
M  V30 13180 H 1245.15 -3.07586 -2.57278 0
M  V30 13181 H 1241.74 -4.0179 -1.49207 0
M  V30 13182 H 1245.93 -4.86252 -0.993635 0
M  V30 13183 H 1241.18 -6.10555 -0.32127 0
M  V30 13184 H 1245.36 -6.96192 0.170108 0
M  V30 13185 H 1242.99 -7.58472 0.512209 0
M  V30 13186 N 1244.56 0.579466 -1.4656 0
M  V30 13187 C 1245.79 1.36153 -1.55389 0
M  V30 13188 C 1246.2 1.88192 -0.195062 0
M  V30 13189 O 1245.54 1.64464 0.81836 0
M  V30 13190 C 1245.6 2.58269 -2.50075 0
M  V30 13191 C 1245.27 2.27675 -3.96249 0
M  V30 13192 C 1246.26 1.86313 -4.85369 0
M  V30 13193 C 1243.95 2.39719 -4.41407 0
M  V30 13194 C 1245.94 1.57395 -6.17661 0
M  V30 13195 C 1243.63 2.10414 -5.73733 0
M  V30 13196 C 1244.63 1.69317 -6.6168 0
M  V30 13197 O 1244.32 1.40373 -7.9155 0
M  V30 13198 H 1244.05 0.422174 -0.527963 0
M  V30 13199 H 1246.6 0.711089 -1.92698 0
M  V30 13200 H 1244.83 3.26129 -2.0779 0
M  V30 13201 H 1246.52 3.20339 -2.49275 0
M  V30 13202 H 1247.29 1.7652 -4.51736 0
M  V30 13203 H 1243.17 2.70669 -3.73175 0
M  V30 13204 H 1246.71 1.25244 -6.86265 0
M  V30 13205 H 1242.61 2.19833 -6.06913 0
M  V30 13206 H 1243.38 1.54191 -8.03845 0
M  V30 13207 N 1246.04 1.3432 0.824371 0
M  V30 13208 C 1247.27 1.29669 1.61226 0
M  V30 13209 C 1247.68 -0.129532 1.88355 0
M  V30 13210 O 1247.04 -1.07616 1.47394 0
M  V30 13211 C 1247.09 2.08375 2.95402 0
M  V30 13212 O 1246.81 3.45434 2.69456 0
M  V30 13213 C 1248.31 2.11103 3.89808 0
M  V30 13214 H 1245.53 0.446137 0.501201 0
M  V30 13215 H 1248.08 1.76912 1.02579 0
M  V30 13216 H 1246.23 1.64777 3.5061 0
M  V30 13217 H 1246.64 3.86101 3.55001 0
M  V30 13218 H 1248.12 2.706 4.81124 0
M  V30 13219 H 1248.6 1.10505 4.25071 0
M  V30 13220 H 1249.2 2.54784 3.40537 0
M  V30 13221 N 1247.52 -1.0444 1.18026 0
M  V30 13222 C 1248.43 -2.15862 0.918747 0
M  V30 13223 C 1249.44 -1.73614 -0.115808 0
M  V30 13224 O 1250.62 -2.01294 0.0652312 0
M  V30 13225 C 1247.68 -3.43846 0.443922 0
M  V30 13226 C 1246.74 -4.00497 1.54599 0
M  V30 13227 C 1245.98 -5.22373 1.09372 0
M  V30 13228 O 1246.2 -5.70379 -0.049085 0
M  V30 13229 O 1245.13 -5.71459 1.88992 0
M  V30 13230 H 1248.96 -2.40776 1.85097 0
M  V30 13231 H 1246.55 -1.14326 0.961769 0
M  V30 13232 H 1248.43 -4.20985 0.187017 0
M  V30 13233 H 1247.1 -3.20414 -0.460051 0
M  V30 13234 H 1246.01 -3.24764 1.85686 0
M  V30 13235 H 1247.34 -4.28262 2.42595 0
M  V30 13236 N 1248.99 -0.981699 -1.2329 0
M  V30 13237 C 1249.9 -0.531296 -2.28505 0
M  V30 13238 C 1250.92 0.414531 -1.6899 0
M  V30 13239 O 1252.1 0.284129 -1.99386 0
M  V30 13240 C 1249.16 0.157864 -3.4634 0
M  V30 13241 C 1248.22 -0.829527 -4.21209 0
M  V30 13242 C 1247.46 -0.17316 -5.33419 0
M  V30 13243 O 1247.68 1.03549 -5.60922 0
M  V30 13244 O 1246.61 -0.872385 -5.95544 0
M  V30 13245 H 1250.44 -1.40633 -2.69177 0
M  V30 13246 H 1248.02 -0.749395 -1.29246 0
M  V30 13247 H 1249.91 0.544394 -4.17869 0
M  V30 13248 H 1248.58 1.00764 -3.07617 0
M  V30 13249 H 1247.49 -1.26678 -3.51999 0
M  V30 13250 H 1248.82 -1.64815 -4.63785 0
M  V30 13251 N 1250.47 1.3842 -0.753509 0
M  V30 13252 C 1251.42 2.27774 -0.101443 0
M  V30 13253 C 1252.41 1.45196 0.693322 0
M  V30 13254 O 1253.6 1.67931 0.55929 0
M  V30 13255 C 1250.73 3.34064 0.790977 0
M  V30 13256 C 1249.81 4.24099 -0.010633 0
M  V30 13257 N 1250.2 4.94845 -1.047 0
M  V30 13258 C 1248.5 4.45476 0.216193 0
M  V30 13259 C 1249.2 5.61164 -1.53199 0
M  V30 13260 N 1248.18 5.36956 -0.847304 0
M  V30 13261 H 1251.98 2.79935 -0.895188 0
M  V30 13262 H 1249.5 1.51321 -0.589545 0
M  V30 13263 H 1251.49 3.96965 1.27375 0
M  V30 13264 H 1250.15 2.83461 1.58367 0
M  V30 13265 H 1251.16 4.97801 -1.42879 0
M  V30 13266 H 1247.84 4.05781 0.982238 0
M  V30 13267 H 1249.23 6.27756 -2.39525 0
M  V30 13268 N 1251.95 0.502579 1.49372 0
M  V30 13269 C 1252.86 -0.279532 2.32929 0
M  V30 13270 C 1253.88 -0.965806 1.44735 0
M  V30 13271 O 1255.05 -0.946839 1.77755 0
M  V30 13272 C 1252.12 -1.32913 3.20211 0
M  V30 13273 C 1251.18 -0.656121 4.24256 0
M  V30 13274 C 1250.41 -1.65571 5.07368 0
M  V30 13275 O 1250.63 -2.88571 4.92019 0
M  V30 13276 O 1249.57 -1.21016 5.89609 0
M  V30 13277 H 1253.39 0.404427 3.00995 0
M  V30 13278 H 1250.98 0.263888 1.47051 0
M  V30 13279 H 1252.86 -1.93635 3.74277 0
M  V30 13280 H 1251.54 -1.99598 2.54837 0
M  V30 13281 H 1250.44 -0.00911489 3.74099 0
M  V30 13282 H 1251.78 -0.0316802 4.9219 0
M  V30 13283 N 1253.43 -1.55816 0.23648 0
M  V30 13284 C 1254.68 -1.97862 -0.391579 0
M  V30 13285 C 1254.99 -1.1276 -1.59827 0
M  V30 13286 O 1256.2 -1.44772 -2.29681 0
M  V30 13287 C 1254.65 -3.5204 -0.748065 0
M  V30 13288 C 1254.26 -4.45867 0.436643 0
M  V30 13289 C 1256 -4.02766 -1.3409 0
M  V30 13290 C 1253.91 -5.91373 0.0568909 0
M  V30 13291 H 1252.84 -0.738913 -0.150078 0
M  V30 13292 H 1255.49 -1.80415 0.335052 0
M  V30 13293 H 1253.87 -3.65143 -1.53254 0
M  V30 13294 H 1255.05 -4.44519 1.21408 0
M  V30 13295 H 1253.36 -4.05565 0.943702 0
M  V30 13296 H 1255.96 -5.08987 -1.63817 0
M  V30 13297 H 1256.3 -3.49496 -2.26182 0
M  V30 13298 H 1256.84 -3.92946 -0.619548 0
M  V30 13299 H 1253.58 -6.48657 0.944682 0
M  V30 13300 H 1253.1 -5.95881 -0.684557 0
M  V30 13301 H 1254.77 -6.45972 -0.364586 0
M  V30 13302 N 1254.91 0.036755 -1.57557 0
M  V30 13303 C 1255.84 1.07261 -2.01421 0
M  V30 13304 C 1256.82 1.35609 -0.897161 0
M  V30 13305 O 1258 1.48395 -1.16237 0
M  V30 13306 C 1255.13 2.40912 -2.38074 0
M  V30 13307 C 1254.17 2.28471 -3.60143 0
M  V30 13308 S 1255.01 1.64544 -5.09594 0
M  V30 13309 C 1256.16 2.99701 -5.49482 0
M  V30 13310 H 1256.4 0.698959 -2.88967 0
M  V30 13311 H 1253.93 0.246481 -1.5242 0
M  V30 13312 H 1255.89 3.17776 -2.59862 0
M  V30 13313 H 1254.55 2.75427 -1.50993 0
M  V30 13314 H 1253.74 3.27117 -3.8342 0
M  V30 13315 H 1253.34 1.59749 -3.38166 0
M  V30 13316 H 1255.64 3.96032 -5.49695 0
M  V30 13317 H 1256.58 2.81166 -6.49885 0
M  V30 13318 H 1256.99 3.0192 -4.76975 0
M  V30 13319 N 1256.39 1.54543 0.308881 0
M  V30 13320 C 1257.33 1.84949 1.38067 0
M  V30 13321 C 1258.3 0.697746 1.50734 0
M  V30 13322 O 1259.49 0.94561 1.65719 0
M  V30 13323 C 1256.63 2.09544 2.74199 0
M  V30 13324 C 1255.74 3.37193 2.70046 0
M  V30 13325 C 1254.88 3.51672 3.98121 0
M  V30 13326 C 1253.91 4.73143 3.88333 0
M  V30 13327 N 1253.05 4.84469 5.08167 0
M  V30 13328 H 1257.89 2.76379 1.11438 0
M  V30 13329 H 1255.43 1.36863 0.539153 0
M  V30 13330 H 1257.39 2.21798 3.53358 0
M  V30 13331 H 1256.02 1.21389 2.99106 0
M  V30 13332 H 1255.07 3.33601 1.82796 0
M  V30 13333 H 1256.38 4.26468 2.58701 0
M  V30 13334 H 1255.53 3.63548 4.85714 0
M  V30 13335 H 1254.27 2.60516 4.1229 0
M  V30 13336 H 1253.28 4.61308 2.99124 0
M  V30 13337 H 1254.5 5.65698 3.75716 0
M  V30 13338 H 1252.45 3.96234 5.22814 0
M  V30 13339 H 1252.37 5.67733 4.99215 0
M  V30 13340 H 1253.63 5.00693 5.97434 0
M  V30 13341 N 1257.86 -0.571685 1.46866 0
M  V30 13342 C 1259.11 -1.32948 1.52745 0
M  V30 13343 C 1259.44 -1.93631 0.183694 0
M  V30 13344 O 1258.69 -1.77605 -0.821886 0
M  V30 13345 C 1258.99 -2.47051 2.58264 0
M  V30 13346 C 1258.66 -2.04291 4.01965 0
M  V30 13347 C 1257.32 -1.92345 4.41086 0
M  V30 13348 C 1259.67 -1.71458 4.9219 0
M  V30 13349 C 1257 -1.4584 5.68285 0
M  V30 13350 C 1259.35 -1.26429 6.19837 0
M  V30 13351 C 1258.02 -1.13068 6.57854 0
M  V30 13352 H 1257.29 -0.48649 0.558935 0
M  V30 13353 H 1259.93 -0.642618 1.80396 0
M  V30 13354 H 1258.24 -3.21231 2.24316 0
M  V30 13355 H 1259.94 -3.05254 2.6004 0
M  V30 13356 H 1256.53 -2.14527 3.71047 0
M  V30 13357 H 1260.71 -1.79567 4.62676 0
M  V30 13358 H 1255.97 -1.34148 5.96502 0
M  V30 13359 H 1260.14 -1.00081 6.89171 0
M  V30 13360 H 1257.77 -0.768094 7.5631 0
M  V30 13361 N 1259.34 -1.34755 -0.817236 0
M  V30 13362 C 1260.57 -1.30676 -1.61054 0
M  V30 13363 C 1260.99 0.115343 -1.87746 0
M  V30 13364 O 1260.35 1.07887 -1.45705 0
M  V30 13365 C 1260.4 -2.10881 -2.92509 0
M  V30 13366 O 1259.5 -1.48223 -3.84842 0
M  V30 13367 H 1258.84 -0.448531 -0.489608 0
M  V30 13368 H 1261.37 -1.77642 -1.01512 0
M  V30 13369 H 1261.38 -2.22446 -3.42026 0
M  V30 13370 H 1260.06 -3.14274 -2.72406 0
M  V30 13371 H 1258.63 -1.45434 -3.4337 0
M  V30 13372 N 1260.82 1.03812 -1.18578 0
M  V30 13373 C 1262.07 1.77447 -0.994191 0
M  V30 13374 C 1262.42 1.86546 0.470974 0
M  V30 13375 O 1261.71 1.3644 1.34517 0
M  V30 13376 C 1261.91 3.20297 -1.5857 0
M  V30 13377 C 1261.74 3.25122 -3.10686 0
M  V30 13378 C 1260.51 3.33604 -3.79521 0
M  V30 13379 C 1262.7 3.12923 -4.08147 0
M  V30 13380 N 1260.69 3.27705 -5.19117 0
M  V30 13381 C 1262.06 3.14553 -5.34281 0
M  V30 13382 C 1264.11 2.96983 -3.99631 0
M  V30 13383 C 1262.82 3.0188 -6.52887 0
M  V30 13384 C 1264.84 2.85657 -5.17836 0
M  V30 13385 C 1264.2 2.87933 -6.42864 0
M  V30 13386 H 1260.3 0.661013 -0.417835 0
M  V30 13387 H 1262.89 1.23648 -1.50397 0
M  V30 13388 H 1261.06 3.72437 -1.10207 0
M  V30 13389 H 1262.79 3.82243 -1.32937 0
M  V30 13390 H 1259.54 3.39442 -3.30266 0
M  V30 13391 H 1259.97 3.28188 -5.92133 0
M  V30 13392 H 1264.61 2.94052 -3.03798 0
M  V30 13393 H 1262.33 3.03563 -7.48916 0
M  V30 13394 H 1265.91 2.74374 -5.1304 0
M  V30 13395 H 1264.79 2.79259 -7.32792 0
M  V30 13396 N 1262.3 0.988223 1.22768 0
M  V30 13397 C 1263.71 0.69816 1.4352 0
M  V30 13398 C 1263.91 -0.732872 1.877 0
M  V30 13399 O 1262.97 -1.50436 2.02793 0
M  V30 13400 C 1264.28 1.69975 2.4805 0
M  V30 13401 C 1265.83 1.71467 2.61855 0
M  V30 13402 C 1266.31 2.70477 3.69603 0
M  V30 13403 N 1267.8 2.69043 3.77055 0
M  V30 13404 C 1268.53 3.42319 4.60006 0
M  V30 13405 N 1268.03 4.2518 5.46986 0
M  V30 13406 N 1269.82 3.31047 4.54274 0
M  V30 13407 H 1261.97 1.91251 0.923948 0
M  V30 13408 H 1264.23 0.82455 0.467783 0
M  V30 13409 H 1263.94 2.72354 2.22523 0
M  V30 13410 H 1263.81 1.48885 3.46573 0
M  V30 13411 H 1266.2 0.697889 2.86729 0
M  V30 13412 H 1266.28 1.96625 1.63622 0
M  V30 13413 H 1265.93 3.72302 3.45476 0
M  V30 13414 H 1265.86 2.42591 4.67394 0
M  V30 13415 H 1268.35 2.08914 3.14902 0
M  V30 13416 H 1268.66 4.77929 6.07292 0
M  V30 13417 H 1267.01 4.29268 5.46584 0
M  V30 13418 H 1270.2 2.65758 3.85345 0
M  V30 13419 H 1270.37 3.88413 5.1869 0
M  V30 13420 N 1263.78 -1.38018 0.760839 0
M  V30 13421 C 1265.02 -1.99557 0.319609 0
M  V30 13422 C 1265.34 -1.60699 -1.10457 0
M  V30 13423 O 1264.61 -0.867248 -1.75658 0
M  V30 13424 H 1263.19 -0.738066 0.115182 0
M  V30 13425 H 1265.86 -1.6867 0.976544 0
M  V30 13426 H 1264.95 -3.09672 0.388523 0
M  V30 13427 N 1265.25 -0.510493 -1.49103 0
M  V30 13428 C 1266.5 0.030689 -2.02777 0
M  V30 13429 C 1266.83 1.35765 -1.38858 0
M  V30 13430 O 1266.11 1.87209 -0.527528 0
M  V30 13431 C 1266.39 0.173261 -3.59683 0
M  V30 13432 C 1266.24 -1.17749 -4.34114 0
M  V30 13433 C 1267.56 0.909395 -4.30602 0
M  V30 13434 H 1264.68 0.0096789 -0.736936 0
M  V30 13435 H 1267.32 -0.663746 -1.78029 0
M  V30 13436 H 1265.47 0.764721 -3.80899 0
M  V30 13437 H 1267.15 -1.80856 -4.24369 0
M  V30 13438 H 1265.39 -1.76438 -3.96298 0
M  V30 13439 H 1266.06 -1.03094 -5.42287 0
M  V30 13440 H 1268.54 0.407677 -4.14098 0
M  V30 13441 H 1267.41 0.978012 -5.40117 0
M  V30 13442 H 1267.67 1.9553 -3.96511 0
M  V30 13443 N 1266.73 1.55688 -0.24474 0
M  V30 13444 C 1267.96 2.0329 0.384808 0
M  V30 13445 C 1268.37 1.12405 1.51692 0
M  V30 13446 O 1267.73 0.138056 1.81977 0
M  V30 13447 C 1267.78 3.50255 0.894635 0
M  V30 13448 O 1267.5 4.37677 -0.192365 0
M  V30 13449 C 1269 4.13608 1.59509 0
M  V30 13450 H 1266.22 0.664706 0.0916908 0
M  V30 13451 H 1268.77 2.01162 -0.367973 0
M  V30 13452 H 1266.92 3.52924 1.5976 0
M  V30 13453 H 1267.34 5.2414 0.194424 0
M  V30 13454 H 1268.81 5.1814 1.90356 0
M  V30 13455 H 1269.29 3.5997 2.51631 0
M  V30 13456 H 1269.89 4.14856 0.936749 0
M  V30 13457 N 1268.21 -0.0283989 1.57574 0
M  V30 13458 C 1269.17 -1.01346 2.05576 0
M  V30 13459 C 1270.17 -1.28999 0.960001 0
M  V30 13460 O 1271.36 -1.23991 1.2236 0
M  V30 13461 C 1268.49 -2.34611 2.47327 0
M  V30 13462 H 1269.69 -0.598809 2.93861 0
M  V30 13463 H 1267.24 -0.27524 1.53857 0
M  V30 13464 H 1267.98 -2.80823 1.622 0
M  V30 13465 H 1267.76 -2.1587 3.27326 0
M  V30 13466 H 1269.25 -3.05332 2.84889 0
M  V30 13467 N 1269.69 -1.54705 -0.300681 0
M  V30 13468 C 1270.96 -1.6468 -1.05546 0
M  V30 13469 C 1271.34 -0.495292 -2.05207 0
M  V30 13470 O 1270.69 0.507944 -2.22783 0
M  V30 13471 C 1270.9 -3.02702 -1.73703 0
M  V30 13472 C 1272.25 -3.59527 -2.25888 0
M  V30 13473 O 1273.27 -3.05156 -1.83735 0
M  V30 13474 O 1272.13 -4.54727 -3.03126 0
M  V30 13475 H 1269.23 -0.667769 -0.487867 0
M  V30 13476 H 1271.77 -1.6705 -0.298743 0
M  V30 13477 H 1270.55 -3.7795 -1.01338 0
M  V30 13478 H 1270.17 -3.0411 -2.5613 0
M  V30 13479 N 1271.17 0.563888 -1.47167 0
M  V30 13480 C 1272.39 1.34693 -1.57052 0
M  V30 13481 C 1272.81 1.87534 -0.218308 0
M  V30 13482 O 1272.17 1.64639 0.787416 0
M  V30 13483 C 1272.22 2.52148 -2.59044 0
M  V30 13484 O 1271.94 2.01492 -3.89015 0
M  V30 13485 C 1273.44 3.4445 -2.7905 0
M  V30 13486 H 1270.66 0.410822 -0.530534 0
M  V30 13487 H 1273.2 0.683731 -1.92731 0
M  V30 13488 H 1271.36 3.14419 -2.26317 0
M  V30 13489 H 1271.77 2.78122 -4.44689 0
M  V30 13490 H 1273.25 4.23297 -3.54293 0
M  V30 13491 H 1273.72 3.97575 -1.86631 0
M  V30 13492 H 1274.33 2.88 -3.12948 0
M  V30 13493 N 1272.64 1.35187 0.810078 0
M  V30 13494 C 1274.06 1.15149 1.10512 0
M  V30 13495 C 1274.26 -0.038394 2.01463 0
M  V30 13496 O 1273.32 -0.710056 2.42311 0
M  V30 13497 C 1274.63 2.45282 1.73946 0
M  V30 13498 C 1276.18 2.51457 1.86382 0
M  V30 13499 C 1276.65 3.81625 2.53232 0
M  V30 13500 N 1278.14 3.82856 2.6072 0
M  V30 13501 C 1278.88 4.80302 3.13206 0
M  V30 13502 N 1278.37 5.88134 3.66156 0
M  V30 13503 N 1280.17 4.67743 3.11726 0
M  V30 13504 H 1272.32 2.11405 0.205391 0
M  V30 13505 H 1274.58 0.935457 0.153702 0
M  V30 13506 H 1274.29 3.32512 1.14582 0
M  V30 13507 H 1274.16 2.59573 2.73682 0
M  V30 13508 H 1276.55 1.64659 2.44891 0
M  V30 13509 H 1276.63 2.41084 0.855113 0
M  V30 13510 H 1276.27 4.68819 1.95375 0
M  V30 13511 H 1276.2 3.89285 3.54633 0
M  V30 13512 H 1278.69 3.04941 2.23203 0
M  V30 13513 H 1279.01 6.58487 4.04494 0
M  V30 13514 H 1277.35 5.91831 3.64364 0
M  V30 13515 H 1280.54 3.82642 2.69635 0
M  V30 13516 H 1280.72 5.43849 3.52324 0
M  V30 13517 N 1274.12 -1.03182 1.19127 0
M  V30 13518 C 1275.09 -2.09559 0.928307 0
M  V30 13519 C 1276.09 -1.60548 -0.0899992 0
M  V30 13520 O 1277.28 -1.736 0.144422 0
M  V30 13521 C 1274.41 -3.38609 0.394561 0
M  V30 13522 H 1275.6 -2.34321 1.87173 0
M  V30 13523 H 1273.15 -1.19746 1.00452 0
M  V30 13524 H 1273.89 -3.19515 -0.555046 0
M  V30 13525 H 1273.67 -3.75502 1.12873 0
M  V30 13526 H 1275.16 -4.16969 0.229569 0
M  V30 13527 N 1275.6 -0.99472 -1.22242 0
M  V30 13528 C 1276.53 -0.566499 -2.26524 0
M  V30 13529 C 1277.51 0.407541 -1.65146 0
M  V30 13530 O 1278.7 0.297777 -1.91903 0
M  V30 13531 C 1275.83 0.11786 -3.471 0
M  V30 13532 C 1274.78 -0.774908 -4.20927 0
M  V30 13533 C 1274.11 0.0424687 -5.34683 0
M  V30 13534 C 1275.41 -2.07263 -4.79416 0
M  V30 13535 H 1277.1 -1.43818 -2.62596 0
M  V30 13536 H 1274.65 -0.692971 -1.2623 0
M  V30 13537 H 1276.6 0.428842 -4.19212 0
M  V30 13538 H 1275.32 1.0241 -3.10129 0
M  V30 13539 H 1273.98 -1.06956 -3.50651 0
M  V30 13540 H 1273.63 0.949677 -4.93954 0
M  V30 13541 H 1273.33 -0.551867 -5.85003 0
M  V30 13542 H 1274.85 0.347504 -6.0961 0
M  V30 13543 H 1276.27 -1.82548 -5.4346 0
M  V30 13544 H 1274.67 -2.61594 -5.40082 0
M  V30 13545 H 1275.74 -2.75017 -3.99366 0
M  V30 13546 N 1277.08 1.37613 -0.768148 0
M  V30 13547 C 1278.49 1.53202 -0.44737 0
M  V30 13548 C 1278.69 1.72736 1.03752 0
M  V30 13549 O 1277.75 1.74667 1.8234 0
M  V30 13550 C 1279.06 2.7306 -1.25931 0
M  V30 13551 C 1280.61 2.8692 -1.25084 0
M  V30 13552 C 1281.09 4.09757 -2.04605 0
M  V30 13553 N 1282.58 4.16862 -2.0194 0
M  V30 13554 C 1283.31 5.10936 -2.60254 0
M  V30 13555 N 1282.81 6.1059 -3.27341 0
M  V30 13556 N 1284.6 5.03393 -2.50104 0
M  V30 13557 H 1276.75 1.23184 -1.7303 0
M  V30 13558 H 1279.02 0.599541 -0.73434 0
M  V30 13559 H 1278.72 2.65078 -2.31141 0
M  V30 13560 H 1278.6 3.66646 -0.886036 0
M  V30 13561 H 1280.98 2.94375 -0.206736 0
M  V30 13562 H 1281.06 1.94303 -1.66373 0
M  V30 13563 H 1280.71 4.03063 -3.09035 0
M  V30 13564 H 1280.64 5.01481 -1.60701 0
M  V30 13565 H 1283.13 3.455 -1.53096 0
M  V30 13566 H 1283.44 6.78893 -3.6922 0
M  V30 13567 H 1281.79 6.10879 -3.31439 0
M  V30 13568 H 1284.98 4.24483 -1.9731 0
M  V30 13569 H 1285.15 5.76524 -2.95844 0
M  V30 13570 N 1278.56 0.518393 1.4883 0
M  V30 13571 C 1279.97 0.175476 1.58632 0
M  V30 13572 C 1280.17 -1.32081 1.52174 0
M  V30 13573 O 1279.23 -2.09817 1.40474 0
M  V30 13574 C 1280.54 0.767722 2.90734 0
M  V30 13575 C 1282.09 0.735402 3.04238 0
M  V30 13576 C 1282.56 1.30602 4.38984 0
M  V30 13577 N 1284.06 1.26748 4.45521 0
M  V30 13578 C 1284.79 1.679 5.48267 0
M  V30 13579 N 1284.29 2.16728 6.58028 0
M  V30 13580 N 1286.08 1.59209 5.39082 0
M  V30 13581 H 1278.23 1.491 1.51271 0
M  V30 13582 H 1280.49 0.619497 0.717584 0
M  V30 13583 H 1280.2 1.81777 3.01081 0
M  V30 13584 H 1280.07 0.238119 3.76448 0
M  V30 13585 H 1282.46 -0.305852 2.93511 0
M  V30 13586 H 1282.54 1.30235 2.20165 0
M  V30 13587 H 1282.19 2.34614 4.50465 0
M  V30 13588 H 1282.12 0.714858 5.21725 0
M  V30 13589 H 1284.61 0.90991 3.66782 0
M  V30 13590 H 1284.92 2.46154 7.32549 0
M  V30 13591 H 1283.26 2.20714 6.59022 0
M  V30 13592 H 1286.46 1.20869 4.52226 0
M  V30 13593 H 1286.63 1.91602 6.19025 0
M  V30 13594 N 1280.03 -1.55556 0.252993 0
M  V30 13595 C 1281.28 -1.9909 -0.37005 0
M  V30 13596 C 1281.61 -1.1412 -1.57502 0
M  V30 13597 O 1280.86 -0.193471 -1.94741 0
M  V30 13598 C 1281.16 -3.47925 -0.817484 0
M  V30 13599 C 1280.83 -4.50027 0.280398 0
M  V30 13600 C 1279.49 -4.77669 0.581914 0
M  V30 13601 C 1281.84 -5.11096 1.02129 0
M  V30 13602 C 1279.17 -5.63652 1.62829 0
M  V30 13603 C 1281.52 -5.98215 2.05723 0
M  V30 13604 C 1280.19 -6.24186 2.36533 0
M  V30 13605 H 1279.46 -0.728522 -0.135411 0
M  V30 13606 H 1282.1 -1.88046 0.36209 0
M  V30 13607 H 1280.41 -3.56333 -1.62893 0
M  V30 13608 H 1282.11 -3.79001 -1.30993 0
M  V30 13609 H 1278.7 -4.28585 0.0352579 0
M  V30 13610 H 1282.88 -4.89784 0.801603 0
M  V30 13611 H 1278.14 -5.82028 1.87227 0
M  V30 13612 H 1282.31 -6.44575 2.6362 0
M  V30 13613 H 1279.94 -6.90607 3.17752 0
M  V30 13614 N 1281.51 0.0200419 -1.57587 0
M  V30 13615 C 1282.76 0.707627 -1.89307 0
M  V30 13616 C 1283.08 1.7541 -0.851831 0
M  V30 13617 O 1282.35 1.95571 0.113404 0
M  V30 13618 H 1280.93 0.264349 -0.698662 0
M  V30 13619 H 1283.59 -0.0161428 -1.94893 0
M  V30 13620 H 1282.69 1.19152 -2.8846 0
M  V30 13621 N 1282.99 1.54862 0.292472 0
M  V30 13622 C 1284.24 1.74548 1.02661 0
M  V30 13623 C 1284.57 0.535895 1.86972 0
M  V30 13624 O 1283.82 -0.482016 1.89671 0
M  V30 13625 C 1284.12 2.99214 1.95463 0
M  V30 13626 C 1283.79 4.32628 1.2706 0
M  V30 13627 C 1282.45 4.68892 1.08138 0
M  V30 13628 C 1284.8 5.15296 0.782278 0
M  V30 13629 C 1282.13 5.85397 0.39081 0
M  V30 13630 C 1284.48 6.32512 0.105392 0
M  V30 13631 C 1283.14 6.67431 -0.0957097 0
M  V30 13632 H 1282.41 0.638717 0.375662 0
M  V30 13633 H 1285.06 1.89125 0.300672 0
M  V30 13634 H 1283.37 2.79454 2.74613 0
M  V30 13635 H 1285.06 3.1164 2.52352 0
M  V30 13636 H 1281.65 4.04113 1.42796 0
M  V30 13637 H 1285.84 4.87771 0.916151 0
M  V30 13638 H 1281.09 6.10989 0.224095 0
M  V30 13639 H 1285.27 6.95833 -0.280845 0
M  V30 13640 H 1282.89 7.57562 -0.63281 0
M  V30 13641 N 1284.47 -0.556076 1.47464 0
M  V30 13642 C 1285.69 -1.3434 1.58011 0
M  V30 13643 C 1286.12 -1.86674 0.231138 0
M  V30 13644 O 1285.48 -1.63029 -0.793174 0
M  V30 13645 C 1285.52 -2.48844 2.60977 0
M  V30 13646 O 1284.63 -3.51108 2.16326 0
M  V30 13647 H 1283.97 -0.398986 0.53076 0
M  V30 13648 H 1286.5 -0.671898 1.93253 0
M  V30 13649 H 1286.51 -2.95398 2.81432 0
M  V30 13650 H 1285.18 -2.10109 3.58925 0
M  V30 13651 H 1283.76 -3.10852 2.05975 0
M  V30 13652 N 1285.95 -1.35615 -0.802897 0
M  V30 13653 C 1286.88 -1.31506 -1.92947 0
M  V30 13654 C 1287.86 -0.188843 -1.69048 0
M  V30 13655 O 1289.04 -0.384384 -1.90358 0
M  V30 13656 C 1286.17 -1.09001 -3.29752 0
M  V30 13657 C 1285.13 -2.18303 -3.68141 0
M  V30 13658 C 1284.45 -1.80959 -5.03148 0
M  V30 13659 C 1285.75 -3.60296 -3.78132 0
M  V30 13660 H 1287.45 -2.25771 -1.96642 0
M  V30 13661 H 1284.99 -1.08682 -0.944685 0
M  V30 13662 H 1286.95 -1.04766 -4.08169 0
M  V30 13663 H 1285.67 -0.111832 -3.26408 0
M  V30 13664 H 1284.33 -2.21642 -2.92011 0
M  V30 13665 H 1283.98 -0.817495 -4.96312 0
M  V30 13666 H 1283.68 -2.54129 -5.29804 0
M  V30 13667 H 1285.2 -1.78255 -5.84001 0
M  V30 13668 H 1286.62 -3.59259 -4.46773 0
M  V30 13669 H 1285.01 -4.32258 -4.16261 0
M  V30 13670 H 1286.08 -3.9618 -2.79588 0
M  V30 13671 N 1287.43 1.02549 -1.19673 0
M  V30 13672 C 1288.39 2.09064 -0.939407 0
M  V30 13673 C 1289.39 1.60593 0.0814837 0
M  V30 13674 O 1290.58 1.73521 -0.153626 0
M  V30 13675 C 1287.71 3.38395 -0.412513 0
M  V30 13676 H 1288.9 2.33325 -1.88413 0
M  V30 13677 H 1286.46 1.19211 -1.01086 0
M  V30 13678 H 1287.19 3.19805 0.538094 0
M  V30 13679 H 1286.98 3.74898 -1.14863 0
M  V30 13680 H 1288.47 4.16841 -0.251678 0
M  V30 13681 N 1288.9 1.00119 1.21713 0
M  V30 13682 C 1289.87 0.563409 2.22167 0
M  V30 13683 C 1290.87 -0.35819 1.5676 0
M  V30 13684 O 1292.06 -0.149001 1.73562 0
M  V30 13685 C 1289.19 -0.179365 3.40428 0
M  V30 13686 H 1290.38 1.45189 2.62412 0
M  V30 13687 H 1287.93 0.789286 1.34907 0
M  V30 13688 H 1288.67 -1.08345 3.05666 0
M  V30 13689 H 1288.45 0.482471 3.8912 0
M  V30 13690 H 1289.94 -0.473537 4.14906 0
M  V30 13691 N 1290.38 -1.37203 0.775435 0
M  V30 13692 C 1291.63 -1.99207 0.340756 0
M  V30 13693 C 1291.95 -1.61861 -1.08747 0
M  V30 13694 O 1291.22 -0.88583 -1.74728 0
M  V30 13695 H 1289.8 -0.736803 0.123004 0
M  V30 13696 H 1292.46 -1.67625 0.994379 0
M  V30 13697 H 1291.56 -3.09243 0.421346 0
M  V30 13698 N 1291.86 -0.526279 -1.48553 0
M  V30 13699 C 1293.28 -0.183886 -1.58537 0
M  V30 13700 C 1293.48 1.31272 -1.52872 0
M  V30 13701 O 1292.53 2.09069 -1.41585 0
M  V30 13702 C 1293.84 -0.78313 -2.90323 0
M  V30 13703 C 1295.39 -0.751527 -3.03844 0
M  V30 13704 C 1295.87 -1.32928 -4.38285 0
M  V30 13705 N 1297.36 -1.29109 -4.44843 0
M  V30 13706 C 1298.09 -1.70806 -5.47369 0
M  V30 13707 N 1297.59 -2.20215 -6.56869 0
M  V30 13708 N 1299.38 -1.62065 -5.3823 0
M  V30 13709 H 1291.53 -1.499 -1.50478 0
M  V30 13710 H 1293.8 -0.623294 -0.714289 0
M  V30 13711 H 1293.5 -1.83371 -3.00113 0
M  V30 13712 H 1293.38 -0.25808 -3.76316 0
M  V30 13713 H 1295.76 0.290282 -2.93669 0
M  V30 13714 H 1295.84 -1.314 -2.19471 0
M  V30 13715 H 1295.49 -2.37 -4.49214 0
M  V30 13716 H 1295.42 -0.742516 -5.21339 0
M  V30 13717 H 1297.91 -0.929348 -3.66294 0
M  V30 13718 H 1298.22 -2.50035 -7.31233 0
M  V30 13719 H 1296.57 -2.24206 -6.57842 0
M  V30 13720 H 1299.76 -1.23265 -4.51579 0
M  V30 13721 H 1299.93 -1.94883 -6.18001 0
M  V30 13722 N 1293.34 1.5542 -0.261239 0
M  V30 13723 C 1294.56 2.04142 0.366144 0
M  V30 13724 C 1294.99 1.13884 1.49706 0
M  V30 13725 O 1294.35 0.134629 1.80799 0
M  V30 13726 C 1294.39 3.50733 0.837774 0
M  V30 13727 O 1293.5 3.63588 1.94621 0
M  V30 13728 H 1292.84 0.659424 0.077821 0
M  V30 13729 H 1295.37 2.0082 -0.391487 0
M  V30 13730 H 1295.38 3.91831 1.13721 0
M  V30 13731 H 1294.05 4.15899 0.0102742 0
M  V30 13732 H 1292.63 3.34391 1.65037 0
M  V30 13733 N 1294.82 -0.0116844 1.57596 0
M  V30 13734 C 1296.06 -0.699994 1.90336 0
M  V30 13735 C 1296.39 -1.74067 0.861072 0
M  V30 13736 O 1295.67 -1.94119 -0.121712 0
M  V30 13737 C 1295.95 -1.35377 3.33684 0
M  V30 13738 C 1295.81 -0.325434 4.48621 0
M  V30 13739 C 1297.12 -2.28312 3.76247 0
M  V30 13740 H 1294.24 -0.253002 0.692213 0
M  V30 13741 H 1296.89 0.037211 1.89964 0
M  V30 13742 H 1295.04 -1.98212 3.34132 0
M  V30 13743 H 1296.71 0.302331 4.60308 0
M  V30 13744 H 1294.95 0.353527 4.32357 0
M  V30 13745 H 1295.62 -0.8217 5.4585 0
M  V30 13746 H 1298.1 -1.75505 3.77276 0
M  V30 13747 H 1296.97 -2.71028 4.77321 0
M  V30 13748 H 1297.23 -3.15727 3.09465 0
M  V30 13749 N 1296.29 -1.55015 -0.284256 0
M  V30 13750 C 1297.54 -1.76276 -1.01481 0
M  V30 13751 C 1297.89 -0.550981 -1.84342 0
M  V30 13752 O 1297.19 0.456483 -1.86083 0
M  V30 13753 C 1297.38 -3.00246 -1.93874 0
M  V30 13754 C 1297.21 -4.33365 -1.20104 0
M  V30 13755 C 1295.98 -4.9683 -0.921324 0
M  V30 13756 C 1298.18 -5.10822 -0.597078 0
M  V30 13757 N 1296.16 -6.13703 -0.155654 0
M  V30 13758 C 1297.53 -6.1999 0.0349821 0
M  V30 13759 C 1299.59 -4.95345 -0.503796 0
M  V30 13760 C 1298.29 -7.15365 0.751319 0
M  V30 13761 C 1300.32 -5.91065 0.198923 0
M  V30 13762 C 1299.68 -6.99614 0.819767 0
M  V30 13763 H 1295.78 -0.697434 -0.353709 0
M  V30 13764 H 1298.36 -1.92503 -0.291645 0
M  V30 13765 H 1296.53 -2.85414 -2.63426 0
M  V30 13766 H 1298.26 -3.09959 -2.60206 0
M  V30 13767 H 1295.02 -4.57517 -1.22375 0
M  V30 13768 H 1295.44 -6.76661 0.214183 0
M  V30 13769 H 1300.08 -4.11535 -0.969477 0
M  V30 13770 H 1297.8 -7.98704 1.22872 0
M  V30 13771 H 1301.39 -5.81167 0.271267 0
M  V30 13772 H 1300.27 -7.72407 1.35487 0
M  V30 13773 N 1297.77 0.548248 -1.47757 0
M  V30 13774 C 1299 1.3302 -1.58472 0
M  V30 13775 C 1299.41 1.87292 -0.238186 0
M  V30 13776 O 1298.77 1.65465 0.76991 0
M  V30 13777 C 1298.82 2.49386 -2.61704 0
M  V30 13778 O 1298.54 1.97355 -3.9113 0
M  V30 13779 C 1300.04 3.41471 -2.82688 0
M  V30 13780 H 1297.26 0.405172 -0.534861 0
M  V30 13781 H 1299.81 0.663251 -1.93446 0
M  V30 13782 H 1297.96 3.12001 -2.29639 0
M  V30 13783 H 1298.38 2.7339 -4.47614 0
M  V30 13784 H 1299.85 4.19516 -3.58762 0
M  V30 13785 H 1300.33 3.95573 -1.90837 0
M  V30 13786 H 1300.93 2.84664 -3.15985 0
M  V30 13787 N 1299.25 1.36039 0.795694 0
M  V30 13788 C 1300.18 1.32528 1.92246 0
M  V30 13789 C 1301.16 0.197805 1.68946 0
M  V30 13790 O 1302.35 0.394474 1.90151 0
M  V30 13791 C 1299.48 1.10748 3.29169 0
M  V30 13792 C 1298.43 2.20253 3.66978 0
M  V30 13793 C 1297.76 1.83624 5.02181 0
M  V30 13794 C 1299.06 3.62296 3.76216 0
M  V30 13795 H 1300.75 2.2681 1.95442 0
M  V30 13796 H 1298.3 1.09181 0.938908 0
M  V30 13797 H 1300.25 1.06929 4.07608 0
M  V30 13798 H 1298.97 0.129141 3.26345 0
M  V30 13799 H 1297.63 2.23187 2.90832 0
M  V30 13800 H 1297.28 0.843804 4.95872 0
M  V30 13801 H 1296.98 2.56935 5.28449 0
M  V30 13802 H 1298.5 1.81349 5.83048 0
M  V30 13803 H 1299.92 3.61623 4.44861 0
M  V30 13804 H 1298.31 4.34459 4.13963 0
M  V30 13805 H 1299.38 3.97657 2.77483 0
M  V30 13806 N 1300.73 -1.01913 1.20215 0
M  V30 13807 C 1301.64 -2.13864 0.964328 0
M  V30 13808 C 1302.65 -1.73821 -0.0789556 0
M  V30 13809 O 1303.83 -2.01111 0.107914 0
M  V30 13810 C 1300.9 -3.42827 0.516757 0
M  V30 13811 C 1299.96 -3.97127 1.63059 0
M  V30 13812 C 1299.19 -5.19935 1.20428 0
M  V30 13813 O 1299.41 -5.70355 0.0719119 0
M  V30 13814 O 1298.35 -5.67322 2.01071 0
M  V30 13815 H 1302.17 -2.36795 1.90162 0
M  V30 13816 H 1299.76 -1.1226 0.985803 0
M  V30 13817 H 1301.64 -4.20493 0.276272 0
M  V30 13818 H 1300.31 -3.21318 -0.391983 0
M  V30 13819 H 1299.22 -3.20752 1.92533 0
M  V30 13820 H 1300.55 -4.2302 2.51624 0
M  V30 13821 N 1302.21 -1.00763 -1.2118 0
M  V30 13822 C 1303.14 -0.515053 -2.22312 0
M  V30 13823 C 1304.12 0.432665 -1.56738 0
M  V30 13824 O 1305.3 0.35477 -1.85131 0
M  V30 13825 C 1302.43 0.251544 -3.37765 0
M  V30 13826 C 1301.47 -0.64437 -4.21604 0
M  V30 13827 S 1302.31 -2.10832 -4.9225 0
M  V30 13828 C 1303.46 -1.35163 -6.11132 0
M  V30 13829 H 1303.7 -1.37198 -2.6375 0
M  V30 13830 H 1301.23 -0.815783 -1.31089 0
M  V30 13831 H 1303.19 0.687761 -4.04698 0
M  V30 13832 H 1301.85 1.08393 -2.94805 0
M  V30 13833 H 1301.04 -0.0537452 -5.03971 0
M  V30 13834 H 1300.64 -1.01798 -3.5988 0
M  V30 13835 H 1302.94 -0.6269 -6.74593 0
M  V30 13836 H 1303.88 -2.15111 -6.74635 0
M  V30 13837 H 1304.29 -0.858444 -5.57935 0
M  V30 13838 N 1303.68 1.3679 -0.7827 0
M  V30 13839 C 1304.96 1.93639 -0.276278 0
M  V30 13840 C 1305.34 1.7153 1.23048 0
M  V30 13841 O 1304.69 1.07037 2.01879 0
M  V30 13842 C 1304.9 3.42672 -0.661586 0
M  V30 13843 C 1306.25 4.19786 -0.637538 0
M  V30 13844 O 1307.27 3.51082 -0.601645 0
M  V30 13845 O 1306.13 5.42323 -0.674408 0
M  V30 13846 H 1303.22 0.824307 -0.0666832 0
M  V30 13847 H 1305.77 1.46012 -0.864792 0
M  V30 13848 H 1304.54 3.52393 -1.70103 0
M  V30 13849 H 1304.17 3.97573 -0.0465987 0
M  V30 13850 N 1305.16 0.53415 1.48272 0
M  V30 13851 C 1306.13 -0.215641 2.28183 0
M  V30 13852 C 1307.13 -0.863966 1.35618 0
M  V30 13853 O 1308.32 -0.723375 1.58471 0
M  V30 13854 C 1305.45 -1.31251 3.1462 0
M  V30 13855 H 1306.64 0.486014 2.95936 0
M  V30 13856 H 1304.19 0.290237 1.53582 0
M  V30 13857 H 1304.93 -2.04729 2.51508 0
M  V30 13858 H 1304.71 -0.852706 3.82716 0
M  V30 13859 H 1306.2 -1.83978 3.74889 0
M  V30 13860 N 1306.64 -1.55279 0.269478 0
M  V30 13861 C 1307.89 -1.99077 -0.348224 0
M  V30 13862 C 1308.21 -1.15925 -1.568 0
M  V30 13863 O 1307.48 -0.247404 -1.94331 0
M  V30 13864 H 1306.06 -0.735307 -0.131653 0
M  V30 13865 H 1308.72 -1.91288 0.373506 0
M  V30 13866 H 1307.82 -3.05427 -0.641953 0
M  V30 13867 N 1308.12 0.00332656 -1.576 0
M  V30 13868 C 1309.36 0.68989 -1.90705 0
M  V30 13869 C 1309.7 1.73608 -0.870291 0
M  V30 13870 O 1308.97 1.94181 0.111416 0
M  V30 13871 C 1309.26 1.33605 -3.34397 0
M  V30 13872 C 1309.11 0.301638 -4.48787 0
M  V30 13873 C 1310.43 2.26313 -3.77453 0
M  V30 13874 H 1307.55 0.249328 -0.693545 0
M  V30 13875 H 1310.19 -0.0472847 -1.89941 0
M  V30 13876 H 1308.34 1.96437 -3.35179 0
M  V30 13877 H 1310.01 -0.326738 -4.60141 0
M  V30 13878 H 1308.25 -0.376451 -4.32163 0
M  V30 13879 H 1308.92 0.792741 -5.46278 0
M  V30 13880 H 1311.4 1.73502 -3.78201 0
M  V30 13881 H 1310.28 2.68492 -4.78752 0
M  V30 13882 H 1310.54 3.14082 -3.11135 0
M  V30 13883 N 1309.6 1.55164 0.276031 0
M  V30 13884 C 1310.53 1.90844 1.34539 0
M  V30 13885 C 1311.51 0.769968 1.51676 0
M  V30 13886 O 1312.69 1.02785 1.64769 0
M  V30 13887 C 1309.82 2.17769 2.70543 0
M  V30 13888 C 1308.78 3.33592 2.68142 0
M  V30 13889 C 1308.1 3.45991 4.07669 0
M  V30 13890 C 1309.4 4.70064 2.27678 0
M  V30 13891 H 1311.1 2.80412 1.04926 0
M  V30 13892 H 1308.64 1.34918 0.503303 0
M  V30 13893 H 1310.6 2.41317 3.45462 0
M  V30 13894 H 1309.32 1.24997 3.01734 0
M  V30 13895 H 1307.98 3.10007 1.95681 0
M  V30 13896 H 1307.63 2.50691 4.36077 0
M  V30 13897 H 1307.33 4.23862 4.06958 0
M  V30 13898 H 1308.85 3.71828 4.84331 0
M  V30 13899 H 1310.26 4.93176 2.92319 0
M  V30 13900 H 1308.66 5.50829 2.38134 0
M  V30 13901 H 1309.73 4.69091 1.22808 0
M  V30 13902 N 1311.07 -0.540404 1.48045 0
M  V30 13903 C 1312.3 -1.32177 1.59175 0
M  V30 13904 C 1312.72 -1.87163 0.248115 0
M  V30 13905 O 1312.07 -1.65871 -0.761124 0
M  V30 13906 C 1312.13 -2.47995 2.63023 0
M  V30 13907 O 1311.85 -1.95278 3.92171 0
M  V30 13908 C 1313.35 -3.39967 2.84495 0
M  V30 13909 H 1310.57 -0.40233 0.537002 0
M  V30 13910 H 1313.11 -0.652983 1.93795 0
M  V30 13911 H 1311.27 -3.10779 2.31291 0
M  V30 13912 H 1311.68 -2.71012 4.49058 0
M  V30 13913 H 1313.15 -4.17607 3.60982 0
M  V30 13914 H 1313.63 -3.94555 1.92932 0
M  V30 13915 H 1314.24 -2.82985 3.1749 0
M  V30 13916 N 1312.55 -1.36459 -0.788468 0
M  V30 13917 C 1313.8 -1.30483 -1.54333 0
M  V30 13918 C 1314.12 0.115266 -1.94659 0
M  V30 13919 O 1313.39 1.05573 -1.65019 0
M  V30 13920 H 1311.97 -0.480004 -0.572368 0
M  V30 13921 H 1314.63 -1.70765 -0.939428 0
M  V30 13922 H 1313.73 -1.93284 -2.45046 0
M  V30 13923 N 1314.03 1.01274 -1.20754 0
M  V30 13924 C 1315.45 1.27256 -0.963221 0
M  V30 13925 C 1315.65 1.98349 0.354972 0
M  V30 13926 O 1314.7 2.28116 1.08255 0
M  V30 13927 C 1316.02 2.1038 -2.14851 0
M  V30 13928 C 1317.56 2.23633 -2.18991 0
M  V30 13929 C 1318.04 3.10136 -3.37016 0
M  V30 13930 N 1319.53 3.17724 -3.37054 0
M  V30 13931 C 1320.26 3.84891 -4.25025 0
M  V30 13932 N 1319.76 4.54152 -5.23181 0
M  V30 13933 N 1321.55 3.81454 -4.12855 0
M  V30 13934 H 1313.7 0.535534 -2.05538 0
M  V30 13935 H 1315.97 0.299006 -0.899611 0
M  V30 13936 H 1315.67 1.65484 -3.10335 0
M  V30 13937 H 1315.55 3.11122 -2.13267 0
M  V30 13938 H 1317.93 2.67753 -1.24067 0
M  V30 13939 H 1318.02 1.22387 -2.24622 0
M  V30 13940 H 1317.66 2.66721 -4.32229 0
M  V30 13941 H 1317.59 4.11478 -3.28623 0
M  V30 13942 H 1320.08 2.68412 -2.66014 0
M  V30 13943 H 1320.39 5.03084 -5.86623 0
M  V30 13944 H 1318.74 4.52964 -5.27113 0
M  V30 13945 H 1321.93 3.26494 -3.35439 0
M  V30 13946 H 1322.1 4.33523 -4.81624 0
M  V30 13947 N 1315.51 1.01404 1.20644 0
M  V30 13948 C 1316.44 0.602465 2.25594 0
M  V30 13949 C 1317.42 -0.381216 1.65773 0
M  V30 13950 O 1318.61 -0.267209 1.92353 0
M  V30 13951 C 1315.74 -0.0626245 3.47244 0
M  V30 13952 C 1314.69 0.841776 4.1964 0
M  V30 13953 C 1314.02 0.0426002 5.34683 0
M  V30 13954 C 1315.32 2.14864 4.76058 0
M  V30 13955 H 1317.01 1.47977 2.60275 0
M  V30 13956 H 1314.56 0.712966 1.25111 0
M  V30 13957 H 1316.51 -0.362095 4.19841 0
M  V30 13958 H 1315.23 -0.974627 3.11719 0
M  V30 13959 H 1313.89 1.12521 3.48905 0
M  V30 13960 H 1313.54 -0.870973 4.95402 0
M  V30 13961 H 1313.24 0.644866 5.84051 0
M  V30 13962 H 1314.76 -0.250476 6.10086 0
M  V30 13963 H 1316.18 1.9117 5.40488 0
M  V30 13964 H 1314.57 2.70153 5.35852 0
M  V30 13965 H 1315.64 2.81336 3.9494 0
M  V30 13966 N 1316.99 -1.36373 0.789944 0
M  V30 13967 C 1318.24 -1.98476 0.359165 0
M  V30 13968 C 1318.55 -1.634 -1.07517 0
M  V30 13969 O 1319.76 -2.18742 -1.60824 0
M  V30 13970 C 1318.21 -3.55011 0.591228 0
M  V30 13971 C 1317.82 -3.99011 2.03701 0
M  V30 13972 C 1319.56 -4.23903 0.224979 0
M  V30 13973 C 1317.47 -5.48325 2.2157 0
M  V30 13974 H 1316.4 -0.742612 0.130552 0
M  V30 13975 H 1319.05 -1.55664 0.971652 0
M  V30 13976 H 1317.43 -3.95895 -0.0909788 0
M  V30 13977 H 1318.61 -3.69324 2.75566 0
M  V30 13978 H 1316.92 -3.42957 2.36155 0
M  V30 13979 H 1319.52 -5.33638 0.336764 0
M  V30 13980 H 1319.86 -4.08004 -0.826964 0
M  V30 13981 H 1320.4 -3.88383 0.860443 0
M  V30 13982 H 1317.13 -5.69173 3.25149 0
M  V30 13983 H 1316.65 -5.79637 1.54211 0
M  V30 13984 H 1318.33 -6.14556 2.0231 0
M  V30 13985 N 1318.47 -0.542005 -1.47987 0
M  V30 13986 C 1319.88 -0.200691 -1.58333 0
M  V30 13987 C 1320.08 1.29643 -1.54256 0
M  V30 13988 O 1319.14 2.07556 -1.43794 0
M  V30 13989 C 1320.45 -0.813878 -2.89476 0
M  V30 13990 C 1322 -0.783711 -3.0303 0
M  V30 13991 C 1322.47 -1.37569 -4.36851 0
M  V30 13992 N 1323.96 -1.33819 -4.43449 0
M  V30 13993 C 1324.7 -1.76602 -5.45527 0
M  V30 13994 N 1324.2 -2.27169 -6.54497 0
M  V30 13995 N 1325.99 -1.67765 -5.3648 0
M  V30 13996 H 1318.14 -1.51488 -1.4888 0
M  V30 13997 H 1320.4 -0.630835 -0.707638 0
M  V30 13998 H 1320.11 -1.86544 -2.98151 0
M  V30 13999 H 1319.98 -0.297978 -3.76021 0
M  V30 14000 H 1322.37 0.259118 -2.9396 0
M  V30 14001 H 1322.45 -1.33721 -2.18065 0
M  V30 14002 H 1322.09 -2.41751 -4.46675 0
M  V30 14003 H 1322.02 -0.797769 -5.20522 0
M  V30 14004 H 1324.52 -0.968147 -3.65288 0
M  V30 14005 H 1324.83 -2.57777 -7.2854 0
M  V30 14006 H 1323.17 -2.31171 -6.55427 0
M  V30 14007 H 1326.36 -1.28048 -4.50246 0
M  V30 14008 H 1326.54 -2.01426 -6.15899 0
M  V30 14009 N 1319.94 1.55134 -0.277709 0
M  V30 14010 C 1320.87 2.256 0.602232 0
M  V30 14011 C 1321.85 1.24708 1.15681 0
M  V30 14012 O 1323.04 1.53433 1.19046 0
M  V30 14013 C 1320.17 2.97907 1.78519 0
M  V30 14014 C 1319.12 4.0575 1.36203 0
M  V30 14015 C 1318.45 4.65644 2.62829 0
M  V30 14016 C 1319.75 5.19801 0.510327 0
M  V30 14017 H 1321.44 2.99396 0.0145622 0
M  V30 14018 H 1318.99 1.43999 0.00556389 0
M  V30 14019 H 1320.94 3.45915 2.40668 0
M  V30 14020 H 1319.67 2.21649 2.39873 0
M  V30 14021 H 1318.33 3.58557 0.763726 0
M  V30 14022 H 1317.97 3.86053 3.22447 0
M  V30 14023 H 1317.67 5.38463 2.35227 0
M  V30 14024 H 1319.2 5.16403 3.25823 0
M  V30 14025 H 1320.61 5.63845 1.03689 0
M  V30 14026 H 1319.01 5.99197 0.329073 0
M  V30 14027 H 1320.08 4.82614 -0.470273 0
M  V30 14028 N 1321.42 0.00503138 1.57599 0
M  V30 14029 C 1322.37 -1.00294 2.09866 0
M  V30 14030 C 1323.36 -1.35267 1.01977 0
M  V30 14031 O 1324.57 -1.33772 1.20437 0
M  V30 14032 H 1320.94 -0.341112 0.670184 0
M  V30 14033 H 1322.92 -0.536595 2.93536 0
M  V30 14034 C 1321.66 -2.28432 2.62133 0
M  V30 14035 H 1320.99 -2.02391 3.44787 0
M  V30 14036 H 1322.43 -2.97227 3.02378 0
M  V30 14037 C 1320.89 -2.99758 1.53774 0
M  V30 14038 O 1321.42 -3.90939 0.923563 0
M  V30 14039 N 1319.62 -2.61671 1.26398 0
M  V30 14040 H 1319.17 -1.87605 1.76528 0
M  V30 14041 H 1319.13 -3.09707 0.541168 0
M  V30 14042 N 1322.9 -1.55308 -0.267798 0
M  V30 14043 C 1324.18 -1.66881 -1.02029 0
M  V30 14044 C 1324.56 -0.538708 -2.04111 0
M  V30 14045 O 1323.9 0.460575 -2.2381 0
M  V30 14046 C 1324.11 -3.06318 -1.67243 0
M  V30 14047 C 1325.46 -3.64237 -2.18212 0
M  V30 14048 O 1326.49 -3.08984 -1.77221 0
M  V30 14049 O 1325.35 -4.61055 -2.93413 0
M  V30 14050 H 1322.44 -0.677967 -0.473593 0
M  V30 14051 H 1324.99 -1.67646 -0.263242 0
M  V30 14052 H 1323.76 -3.80015 -0.932985 0
M  V30 14053 H 1323.38 -3.09475 -2.49622 0
M  V30 14054 N 1324.38 0.532545 -1.4833 0
M  V30 14055 C 1325.29 1.66433 -1.65339 0
M  V30 14056 C 1326.3 1.65541 -0.535939 0
M  V30 14057 O 1327.48 1.84539 -0.806679 0
M  V30 14058 C 1324.54 3.02901 -1.68676 0
M  V30 14059 C 1323.61 3.14669 -2.92031 0
M  V30 14060 C 1322.84 4.44627 -2.95199 0
M  V30 14061 O 1323.06 5.31572 -2.06851 0
M  V30 14062 O 1322 4.60707 -3.87341 0
M  V30 14063 H 1325.82 1.5502 -2.61156 0
M  V30 14064 H 1323.41 0.705348 -1.31701 0
M  V30 14065 H 1325.29 3.84068 -1.73407 0
M  V30 14066 H 1323.96 3.14644 -0.760327 0
M  V30 14067 H 1322.87 2.32807 -2.92834 0
M  V30 14068 H 1324.2 3.07841 -3.8405 0
M  V30 14069 N 1325.86 1.36875 0.78122 0
M  V30 14070 C 1326.8 1.31869 1.89418 0
M  V30 14071 C 1327.77 0.185904 1.65056 0
M  V30 14072 O 1328.96 0.373745 1.87104 0
M  V30 14073 C 1326.1 1.12205 3.2635 0
M  V30 14074 C 1325.21 2.34631 3.62729 0
M  V30 14075 C 1324.35 2.07914 4.8882 0
M  V30 14076 C 1323.38 3.26257 5.17902 0
M  V30 14077 N 1322.52 2.99152 6.35179 0
M  V30 14078 H 1327.36 2.2703 1.93032 0
M  V30 14079 H 1324.9 1.12826 0.943857 0
M  V30 14080 H 1326.86 0.988282 4.05326 0
M  V30 14081 H 1325.49 0.206959 3.22136 0
M  V30 14082 H 1324.54 2.58782 2.78812 0
M  V30 14083 H 1325.85 3.22919 3.80164 0
M  V30 14084 H 1325 1.91514 5.7568 0
M  V30 14085 H 1323.74 1.1695 4.7347 0
M  V30 14086 H 1322.75 3.43207 4.29522 0
M  V30 14087 H 1323.97 4.1806 5.35166 0
M  V30 14088 H 1321.92 2.10807 6.21205 0
M  V30 14089 H 1321.84 3.80981 6.52985 0
M  V30 14090 H 1323.1 2.86349 7.25 0
M  V30 14091 N 1327.33 -1.00632 1.21289 0
M  V30 14092 C 1328.58 -1.74749 1.04089 0
M  V30 14093 C 1328.93 -1.8773 -0.421349 0
M  V30 14094 O 1328.23 -1.39958 -1.30852 0
M  V30 14095 C 1328.42 -3.1598 1.67007 0
M  V30 14096 C 1328.25 -3.1677 3.19197 0
M  V30 14097 C 1327.02 -3.23425 3.88233 0
M  V30 14098 C 1329.22 -3.01991 4.163 0
M  V30 14099 N 1327.2 -3.13827 5.27623 0
M  V30 14100 C 1328.57 -3.00276 5.42433 0
M  V30 14101 C 1330.63 -2.86284 4.07365 0
M  V30 14102 C 1329.33 -2.84463 6.60661 0
M  V30 14103 C 1331.36 -2.71827 5.25228 0
M  V30 14104 C 1330.72 -2.70787 6.50272 0
M  V30 14105 H 1326.82 -0.649702 0.435213 0
M  V30 14106 H 1329.4 -1.19617 1.53622 0
M  V30 14107 H 1327.57 -3.69384 1.20042 0
M  V30 14108 H 1329.3 -3.78584 1.43025 0
M  V30 14109 H 1326.06 -3.30566 3.3915 0
M  V30 14110 H 1326.48 -3.12374 6.00626 0
M  V30 14111 H 1331.12 -2.85894 3.11487 0
M  V30 14112 H 1328.84 -2.836 7.56701 0
M  V30 14113 H 1332.43 -2.60675 5.20134 0
M  V30 14114 H 1331.31 -2.59732 7.39938 0
M  V30 14115 N 1328.81 -1.02043 -1.20104 0
M  V30 14116 C 1330.04 -0.731315 -1.93544 0
M  V30 14117 C 1330.45 0.708582 -1.74999 0
M  V30 14118 O 1329.81 1.481 -1.06642 0
M  V30 14119 C 1329.86 -1.06233 -3.45538 0
M  V30 14120 O 1329.58 -2.44568 -3.63481 0
M  V30 14121 C 1331.08 -0.794818 -4.36116 0
M  V30 14122 H 1328.3 -0.268248 -0.615048 0
M  V30 14123 H 1330.85 -1.36264 -1.52488 0
M  V30 14124 H 1329 -0.476341 -3.8446 0
M  V30 14125 H 1329.42 -2.5663 -4.57429 0
M  V30 14126 H 1330.89 -1.07647 -5.41402 0
M  V30 14127 H 1331.37 0.270944 -4.38363 0
M  V30 14128 H 1331.97 -1.36314 -4.02863 0
M  V30 14129 N 1330.29 1.35952 -0.797165 0
M  V30 14130 C 1331.2 2.33726 -0.202271 0
M  V30 14131 C 1332.22 1.61415 0.649719 0
M  V30 14132 O 1333.39 1.93351 0.563686 0
M  V30 14133 C 1330.46 3.40612 0.64685 0
M  V30 14134 C 1329.52 4.28712 -0.224536 0
M  V30 14135 C 1328.75 5.30493 0.584153 0
M  V30 14136 O 1328.97 5.40599 1.81957 0
M  V30 14137 O 1327.91 6.01897 -0.0200239 0
M  V30 14138 H 1331.73 2.86383 -1.01087 0
M  V30 14139 H 1329.32 1.38557 -0.558768 0
M  V30 14140 H 1331.2 4.05944 1.1308 0
M  V30 14141 H 1329.88 2.90243 1.43321 0
M  V30 14142 H 1328.78 3.66394 -0.755415 0
M  V30 14143 H 1330.12 4.82454 -0.974603 0
M  V30 14144 N 1331.77 0.549846 1.47697 0
M  V30 14145 C 1332.7 -0.249645 2.2683 0
M  V30 14146 C 1333.68 -0.926968 1.33589 0
M  V30 14147 O 1334.86 -0.947423 1.62961 0
M  V30 14148 C 1331.99 -1.35511 3.1041 0
M  V30 14149 C 1331.04 -0.787118 4.19174 0
M  V30 14150 S 1331.87 0.360564 5.34285 0
M  V30 14151 C 1333.03 -0.746898 6.21428 0
M  V30 14152 H 1333.26 0.421876 2.94292 0
M  V30 14153 H 1330.79 0.336017 1.50699 0
M  V30 14154 H 1332.75 -1.98825 3.59137 0
M  V30 14155 H 1331.41 -1.99844 2.42325 0
M  V30 14156 H 1330.6 -1.61704 4.77355 0
M  V30 14157 H 1330.21 -0.230301 3.7329 0
M  V30 14158 H 1332.5 -1.6408 6.57331 0
M  V30 14159 H 1333.44 -0.202608 7.0781 0
M  V30 14160 H 1333.85 -1.03625 5.54907 0
M  V30 14161 N 1333.25 -1.54984 0.285932 0
M  V30 14162 C 1334.19 -2.2295 -0.596822 0
M  V30 14163 C 1335.16 -1.20674 -1.14136 0
M  V30 14164 O 1336.35 -1.49249 -1.18867 0
M  V30 14165 C 1333.49 -2.9625 -1.77002 0
M  V30 14166 C 1332.6 -4.13268 -1.25831 0
M  V30 14167 C 1331.74 -4.74187 -2.39417 0
M  V30 14168 C 1330.78 -5.83377 -1.85304 0
M  V30 14169 N 1329.91 -6.38313 -2.92405 0
M  V30 14170 H 1334.75 -2.97998 -0.0106104 0
M  V30 14171 H 1332.29 -1.47099 0.00653041 0
M  V30 14172 H 1334.25 -3.36971 -2.4598 0
M  V30 14173 H 1332.88 -2.23606 -2.3281 0
M  V30 14174 H 1331.93 -3.77593 -0.461278 0
M  V30 14175 H 1333.24 -4.91979 -0.822049 0
M  V30 14176 H 1332.4 -5.17683 -3.16369 0
M  V30 14177 H 1331.13 -3.94775 -2.86364 0
M  V30 14178 H 1330.14 -5.3932 -1.06835 0
M  V30 14179 H 1331.36 -6.64664 -1.3928 0
M  V30 14180 H 1329.31 -5.61791 -3.38713 0
M  V30 14181 H 1329.23 -7.12328 -2.53228 0
M  V30 14182 H 1330.5 -6.86468 -3.69299 0
M  V30 14183 N 1334.72 -0.0133892 -1.57594 0
M  V30 14184 C 1336 0.706416 -1.82398 0
M  V30 14185 C 1336.38 1.91236 -0.893983 0
M  V30 14186 O 1335.73 2.28436 0.0541675 0
M  V30 14187 C 1335.94 1.09951 -3.31228 0
M  V30 14188 C 1337.29 1.49776 -3.97306 0
M  V30 14189 O 1338.31 1.19293 -3.3563 0
M  V30 14190 O 1337.17 2.06511 -5.0598 0
M  V30 14191 H 1334.26 0.345131 -0.751541 0
M  V30 14192 H 1336.81 -0.0398687 -1.69653 0
M  V30 14193 H 1335.58 0.240514 -3.9056 0
M  V30 14194 H 1335.21 1.90447 -3.49021 0
M  V30 14195 N 1336.2 1.55448 0.259558 0
M  V30 14196 C 1337.48 1.6742 1.01143 0
M  V30 14197 C 1337.86 0.549525 2.03822 0
M  V30 14198 O 1337.21 -0.448699 2.24051 0
M  V30 14199 C 1337.42 3.07201 1.65616 0
M  V30 14200 C 1338.77 3.6539 2.16277 0
M  V30 14201 O 1339.79 3.0992 1.7558 0
M  V30 14202 O 1338.65 4.62604 2.90963 0
M  V30 14203 H 1335.74 0.680469 0.469991 0
M  V30 14204 H 1338.29 1.67783 0.254348 0
M  V30 14205 H 1337.06 3.80504 0.912819 0
M  V30 14206 H 1336.68 3.10794 2.47977 0
M  V30 14207 N 1337.68 -0.524672 1.4861 0
M  V30 14208 C 1338.63 -1.62872 1.63527 0
M  V30 14209 C 1339.6 -1.59097 0.477202 0
M  V30 14210 O 1340.78 -1.77443 0.701341 0
M  V30 14211 C 1337.92 -3.01116 1.68592 0
M  V30 14212 C 1337.04 -3.15085 2.95542 0
M  V30 14213 C 1336.17 -4.4392 2.91734 0
M  V30 14214 C 1335.21 -4.51436 4.13366 0
M  V30 14215 N 1334.35 -5.71667 4.07605 0
M  V30 14216 H 1339.19 -1.49462 2.57808 0
M  V30 14217 H 1336.72 -0.727578 1.27846 0
M  V30 14218 H 1338.68 -3.81212 1.6951 0
M  V30 14219 H 1337.31 -3.13285 0.777975 0
M  V30 14220 H 1336.36 -2.28207 3.04345 0
M  V30 14221 H 1337.68 -3.165 3.85524 0
M  V30 14222 H 1336.83 -5.32312 2.91083 0
M  V30 14223 H 1335.57 -4.45034 1.9949 0
M  V30 14224 H 1334.57 -3.6145 4.14287 0
M  V30 14225 H 1335.8 -4.52057 5.06776 0
M  V30 14226 H 1333.74 -5.73668 3.18184 0
M  V30 14227 H 1333.66 -5.74599 4.91297 0
M  V30 14228 H 1334.93 -6.62331 4.1102 0
M  V30 14229 N 1339.16 -1.37287 -0.77395 0
M  V30 14230 C 1340.41 -1.31698 -1.52769 0
M  V30 14231 C 1340.72 0.0968585 -1.9536 0
M  V30 14232 O 1341.93 0.275205 -2.70102 0
M  V30 14233 C 1340.38 -2.31154 -2.75854 0
M  V30 14234 C 1339.99 -3.78055 -2.40371 0
M  V30 14235 C 1341.73 -2.34572 -3.53803 0
M  V30 14236 C 1339.64 -4.69248 -3.59945 0
M  V30 14237 H 1338.57 -0.489456 -0.573541 0
M  V30 14238 H 1341.22 -1.62735 -0.84791 0
M  V30 14239 H 1339.6 -1.93132 -3.45711 0
M  V30 14240 H 1340.78 -4.24902 -1.78312 0
M  V30 14241 H 1339.09 -3.77562 -1.75602 0
M  V30 14242 H 1341.69 -2.99908 -4.42673 0
M  V30 14243 H 1342.03 -1.35868 -3.93504 0
M  V30 14244 H 1342.57 -2.7129 -2.90941 0
M  V30 14245 H 1339.31 -5.69072 -3.25327 0
M  V30 14246 H 1338.83 -4.27108 -4.21117 0
M  V30 14247 H 1340.5 -4.86275 -4.26785 0
M  V30 14248 N 1340.64 0.999871 -1.21821 0
M  V30 14249 C 1341.88 1.74098 -1.04009 0
M  V30 14250 C 1342.22 1.89499 0.424716 0
M  V30 14251 O 1341.49 1.43306 1.31505 0
M  V30 14252 C 1341.77 3.1506 -1.74382 0
M  V30 14253 C 1341.63 3.0735 -3.28414 0
M  V30 14254 C 1342.95 4.1409 -1.49055 0
M  V30 14255 H 1340.06 0.631935 -0.379245 0
M  V30 14256 H 1342.71 1.16534 -1.50066 0
M  V30 14257 H 1340.86 3.64206 -1.35227 0
M  V30 14258 H 1342.53 2.65879 -3.76969 0
M  V30 14259 H 1340.77 2.44325 -3.58452 0
M  V30 14260 H 1341.44 4.07069 -3.72825 0
M  V30 14261 H 1343.92 3.73672 -1.83054 0
M  V30 14262 H 1342.79 5.10853 -2.008 0
M  V30 14263 H 1343.06 4.40085 -0.421641 0
M  V30 14264 N 1342.11 1.02678 1.19562 0
M  V30 14265 C 1343.34 0.741424 1.93695 0
M  V30 14266 C 1343.76 -0.693203 1.74861 0
M  V30 14267 O 1343.12 -1.47833 1.04953 0
M  V30 14268 C 1343.17 1.09514 3.43568 0
M  V30 14269 O 1342.27 0.212596 4.11852 0
M  V30 14270 H 1341.62 0.274128 0.604773 0
M  V30 14271 H 1344.15 1.37289 1.517 0
M  V30 14272 H 1344.16 1.05115 3.94227 0
M  V30 14273 H 1342.83 2.14034 3.56598 0
M  V30 14274 H 1341.41 0.315 3.71567 0
M  V30 14275 N 1343.59 -1.35528 0.804364 0
M  V30 14276 C 1344.52 -2.32388 0.227604 0
M  V30 14277 C 1345.5 -1.57368 -0.645709 0
M  V30 14278 O 1346.69 -1.85448 -0.576441 0
M  V30 14279 C 1343.82 -3.41603 -0.62645 0
M  V30 14280 C 1342.77 -4.27743 0.148187 0
M  V30 14281 C 1342.1 -5.28259 -0.827425 0
M  V30 14282 C 1343.4 -5.04661 1.34591 0
M  V30 14283 H 1345.09 -2.80874 1.03684 0
M  V30 14284 H 1342.64 -1.3504 0.500031 0
M  V30 14285 H 1344.59 -4.08365 -1.03999 0
M  V30 14286 H 1343.32 -2.91721 -1.46855 0
M  V30 14287 H 1341.97 -3.62558 0.542874 0
M  V30 14288 H 1341.62 -4.74645 -1.66496 0
M  V30 14289 H 1341.32 -5.86763 -0.313453 0
M  V30 14290 H 1342.85 -5.97893 -1.23921 0
M  V30 14291 H 1344.26 -5.6438 1.00736 0
M  V30 14292 H 1342.66 -5.7265 1.79422 0
M  V30 14293 H 1343.73 -4.35432 2.1337 0
M  V30 14294 N 1345.07 -0.557671 -1.47404 0
M  V30 14295 C 1346.32 -0.0316382 -2.01675 0
M  V30 14296 C 1346.63 1.32656 -1.43742 0
M  V30 14297 O 1347.84 1.94253 -1.89678 0
M  V30 14298 C 1346.3 -0.00606931 -3.59899 0
M  V30 14299 C 1345.9 -1.36106 -4.26825 0
M  V30 14300 C 1347.65 0.467332 -4.2192 0
M  V30 14301 C 1345.55 -1.29457 -5.77057 0
M  V30 14302 H 1344.48 -0.00805738 -0.753957 0
M  V30 14303 H 1347.14 -0.705592 -1.69392 0
M  V30 14304 H 1345.52 0.733541 -3.89147 0
M  V30 14305 H 1346.69 -2.11842 -4.09218 0
M  V30 14306 H 1345.01 -1.77243 -3.76794 0
M  V30 14307 H 1347.6 0.535478 -5.32012 0
M  V30 14308 H 1347.95 1.47942 -3.89126 0
M  V30 14309 H 1348.48 -0.217434 -3.97205 0
M  V30 14310 H 1345.22 -2.28267 -6.14471 0
M  V30 14311 H 1344.74 -0.579022 -5.96999 0
M  V30 14312 H 1346.42 -0.996834 -6.39275 0
M  V30 14313 N 1346.55 1.54831 -0.294147 0
M  V30 14314 C 1347.46 2.26939 0.594621 0
M  V30 14315 C 1348.48 1.30209 1.15419 0
M  V30 14316 O 1349.65 1.6318 1.18044 0
M  V30 14317 C 1346.72 2.9909 1.75345 0
M  V30 14318 C 1345.78 4.11342 1.22865 0
M  V30 14319 C 1345.01 4.80043 2.33225 0
M  V30 14320 O 1345.23 4.48062 3.52983 0
M  V30 14321 O 1344.17 5.67593 2.00304 0
M  V30 14322 H 1347.99 3.03698 0.00989235 0
M  V30 14323 H 1345.58 1.49276 -0.0608528 0
M  V30 14324 H 1347.46 3.44369 2.42875 0
M  V30 14325 H 1346.14 2.25232 2.32492 0
M  V30 14326 H 1345.04 3.70478 0.519279 0
M  V30 14327 H 1346.38 4.87158 0.702703 0
M  V30 14328 N 1348.03 0.0217466 1.57585 0
M  V30 14329 C 1348.97 -0.962559 2.0977 0
M  V30 14330 C 1349.94 -1.32771 0.998053 0
M  V30 14331 O 1351.13 -1.42231 1.27181 0
M  V30 14332 C 1348.27 -2.24214 2.62339 0
M  V30 14333 C 1347.38 -1.9341 3.86286 0
M  V30 14334 C 1346.52 -3.15609 4.27275 0
M  V30 14335 C 1345.56 -2.8059 5.43999 0
M  V30 14336 N 1344.69 -3.95392 5.8018 0
M  V30 14337 H 1349.53 -0.510626 2.93593 0
M  V30 14338 H 1347.07 -0.240456 1.45121 0
M  V30 14339 H 1349.03 -2.99049 2.90905 0
M  V30 14340 H 1347.66 -2.67037 1.81358 0
M  V30 14341 H 1346.71 -1.08849 3.64494 0
M  V30 14342 H 1348.02 -1.63614 4.71203 0
M  V30 14343 H 1347.18 -3.9877 4.57239 0
M  V30 14344 H 1345.92 -3.48561 3.41111 0
M  V30 14345 H 1344.92 -1.9584 5.13738 0
M  V30 14346 H 1346.15 -2.48863 6.31858 0
M  V30 14347 H 1344.09 -4.282 4.96971 0
M  V30 14348 H 1344.01 -3.69195 6.59721 0
M  V30 14349 H 1345.28 -4.79279 6.14746 0
M  V30 14350 N 1349.51 -1.55583 -0.251311 0
M  V30 14351 C 1350.75 -1.77209 -0.979966 0
M  V30 14352 C 1351.08 -0.585279 -1.85485 0
M  V30 14353 O 1350.34 0.431559 -1.90882 0
M  V30 14354 C 1350.63 -3.04291 -1.87461 0
M  V30 14355 C 1350.3 -4.35844 -1.15545 0
M  V30 14356 C 1348.96 -4.71594 -0.956679 0
M  V30 14357 C 1351.31 -5.17189 -0.645381 0
M  V30 14358 C 1348.64 -5.86227 -0.235465 0
M  V30 14359 C 1350.99 -6.32569 0.0623441 0
M  V30 14360 C 1349.66 -6.66943 0.272634 0
M  V30 14361 H 1348.93 -0.648452 -0.358595 0
M  V30 14362 H 1351.58 -1.89856 -0.250423 0
M  V30 14363 H 1349.88 -2.86637 -2.67108 0
M  V30 14364 H 1351.58 -3.18221 -2.44001 0
M  V30 14365 H 1348.17 -4.07757 -1.32031 0
M  V30 14366 H 1352.35 -4.90028 -0.786505 0
M  V30 14367 H 1347.61 -6.11369 -0.0620232 0
M  V30 14368 H 1351.78 -6.94844 0.465234 0
M  V30 14369 H 1349.41 -7.55617 0.833442 0
M  V30 14370 N 1350.98 0.516783 -1.48886 0
M  V30 14371 C 1352.21 1.29628 -1.61258 0
M  V30 14372 C 1352.63 1.86744 -0.27786 0
M  V30 14373 O 1351.98 1.67061 0.734639 0
M  V30 14374 C 1352.03 2.43779 -2.66935 0
M  V30 14375 O 1351.76 1.89014 -3.95228 0
M  V30 14376 C 1353.26 3.35398 -2.89867 0
M  V30 14377 H 1350.48 0.393736 -0.543335 0
M  V30 14378 H 1353.02 0.622069 -1.94809 0
M  V30 14379 H 1351.18 3.0706 -2.36206 0
M  V30 14380 H 1351.59 2.63833 -4.53312 0
M  V30 14381 H 1353.06 4.11812 -3.6758 0
M  V30 14382 H 1353.54 3.91436 -1.99185 0
M  V30 14383 H 1354.15 2.77898 -3.21952 0
M  V30 14384 N 1352.46 1.37696 0.766659 0
M  V30 14385 C 1353.69 1.36564 1.56093 0
M  V30 14386 C 1354.11 -0.0455828 1.88045 0
M  V30 14387 O 1353.47 -1.02405 1.49609 0
M  V30 14388 C 1353.52 2.21592 2.84481 0
M  V30 14389 O 1352.62 1.62404 3.79076 0
M  V30 14390 H 1351.96 0.466394 0.472623 0
M  V30 14391 H 1354.49 1.81287 0.948486 0
M  V30 14392 H 1354.5 2.34987 3.33534 0
M  V30 14393 H 1353.18 3.24167 2.60554 0
M  V30 14394 H 1351.75 1.58078 3.37736 0
M  V30 14395 N 1353.94 -0.993397 1.22349 0
M  V30 14396 C 1354.89 -2.10463 0.990358 0
M  V30 14397 C 1355.88 -1.6927 -0.0663528 0
M  V30 14398 O 1357.09 -1.79794 0.0860444 0
M  V30 14399 H 1353.46 -0.688222 0.303075 0
M  V30 14400 H 1355.43 -2.273 1.93333 0
M  V30 14401 C 1354.18 -3.42757 0.584205 0
M  V30 14402 H 1353.51 -3.74896 1.38899 0
M  V30 14403 H 1354.95 -4.21492 0.46049 0
M  V30 14404 C 1353.4 -3.29416 -0.706187 0
M  V30 14405 O 1353.93 -3.61152 -1.75875 0
M  V30 14406 N 1352.14 -2.82601 -0.677148 0
M  V30 14407 H 1351.69 -2.56972 0.179712 0
M  V30 14408 H 1351.65 -2.74056 -1.54081 0
M  V30 14409 N 1355.42 -1.03311 -1.19015 0
M  V30 14410 C 1356.36 -0.617567 -2.22384 0
M  V30 14411 C 1357.33 0.370779 -1.61909 0
M  V30 14412 O 1358.52 0.266481 -1.8893 0
M  V30 14413 C 1355.66 0.0211303 -3.45094 0
M  V30 14414 C 1354.77 -1.01377 -4.19937 0
M  V30 14415 C 1353.91 -0.344385 -5.30082 0
M  V30 14416 C 1352.95 -1.3649 -5.96688 0
M  V30 14417 N 1352.08 -0.721026 -6.98388 0
M  V30 14418 H 1356.92 -1.5036 -2.57286 0
M  V30 14419 H 1354.46 -0.75235 -1.26405 0
M  V30 14420 H 1356.42 0.408713 -4.15193 0
M  V30 14421 H 1355.05 0.870721 -3.10835 0
M  V30 14422 H 1354.1 -1.51937 -3.4874 0
M  V30 14423 H 1355.41 -1.78921 -4.65606 0
M  V30 14424 H 1354.57 0.097814 -6.06621 0
M  V30 14425 H 1353.31 0.463216 -4.85495 0
M  V30 14426 H 1352.31 -1.81732 -5.18897 0
M  V30 14427 H 1353.54 -2.17407 -6.43359 0
M  V30 14428 H 1351.48 0.0664057 -6.55966 0
M  V30 14429 H 1351.4 -1.43428 -7.4227 0
M  V30 14430 H 1352.67 -0.30297 -7.78911 0
M  V30 14431 N 1356.9 1.35099 -0.81154 0
M  V30 14432 C 1358.13 2.02566 -0.406265 0
M  V30 14433 C 1358.53 1.61291 0.989032 0
M  V30 14434 O 1357.88 0.808496 1.64952 0
M  V30 14435 C 1357.94 3.57087 -0.415847 0
M  V30 14436 C 1357.6 4.21645 -1.76251 0
M  V30 14437 C 1358.6 4.42974 -2.72159 0
M  V30 14438 C 1356.28 4.58658 -2.04787 0
M  V30 14439 C 1358.28 5.00425 -3.94783 0
M  V30 14440 C 1355.97 5.15822 -3.27674 0
M  V30 14441 C 1356.96 5.36648 -4.2249 0
M  V30 14442 O 1356.65 5.92606 -5.43207 0
M  V30 14443 H 1356.38 0.65615 -0.162612 0
M  V30 14444 H 1358.94 1.73596 -1.09789 0
M  V30 14445 H 1357.17 3.85269 0.332409 0
M  V30 14446 H 1358.86 4.05887 -0.0322011 0
M  V30 14447 H 1359.62 4.14753 -2.51405 0
M  V30 14448 H 1355.5 4.41759 -1.31795 0
M  V30 14449 H 1359.05 5.16596 -4.68801 0
M  V30 14450 H 1354.94 5.4347 -3.48296 0
M  V30 14451 H 1355.71 6.11052 -5.44571 0
M  V30 14452 N 1358.37 0.56548 1.47106 0
M  V30 14453 C 1359.62 0.052857 2.03331 0
M  V30 14454 C 1359.97 -1.28594 1.43113 0
M  V30 14455 O 1359.27 -1.82596 0.580451 0
M  V30 14456 C 1359.46 -0.0893776 3.57288 0
M  V30 14457 C 1359.29 1.23408 4.32436 0
M  V30 14458 C 1358.06 1.80362 4.72015 0
M  V30 14459 C 1360.26 2.15326 4.67054 0
M  V30 14460 N 1358.24 3.06626 5.3184 0
M  V30 14461 C 1359.61 3.26172 5.27268 0
M  V30 14462 C 1361.67 2.15219 4.48983 0
M  V30 14463 C 1360.37 4.37021 5.71319 0
M  V30 14464 C 1362.4 3.25085 4.94038 0
M  V30 14465 C 1361.76 4.34651 5.54309 0
M  V30 14466 H 1357.86 0.0617057 0.779562 0
M  V30 14467 H 1360.44 0.754591 1.79483 0
M  V30 14468 H 1358.61 -0.760248 3.80887 0
M  V30 14469 H 1360.34 -0.604818 4.00155 0
M  V30 14470 H 1357.1 1.3406 4.5423 0
M  V30 14471 H 1357.52 3.71006 5.66289 0
M  V30 14472 H 1362.16 1.3179 4.01735 0
M  V30 14473 H 1359.88 5.21204 6.17553 0
M  V30 14474 H 1363.47 3.26099 4.8182 0
M  V30 14475 H 1362.35 5.18261 5.88536 0
M  V30 14476 N 1359.85 -1.54672 0.302354 0
M  V30 14477 C 1361.08 -2.05041 -0.311891 0
M  V30 14478 C 1361.5 -1.17814 -1.46634 0
M  V30 14479 O 1360.86 -0.182517 -1.80379 0
M  V30 14480 C 1360.91 -3.52831 -0.744489 0
M  V30 14481 O 1360.01 -3.68621 -1.84913 0
M  V30 14482 H 1359.35 -0.661255 -0.0603102 0
M  V30 14483 H 1361.88 -1.99711 0.444593 0
M  V30 14484 H 1361.89 -3.94708 -1.03293 0
M  V30 14485 H 1360.57 -4.1578 0.0999976 0
M  V30 14486 H 1359.15 -3.38649 -1.56113 0
M  V30 14487 N 1361.33 -0.0301034 -1.57571 0
M  V30 14488 C 1362.28 0.951421 -2.10277 0
M  V30 14489 C 1363.25 1.3224 -1.00508 0
M  V30 14490 O 1364.43 1.41554 -1.27934 0
M  V30 14491 C 1361.57 2.2282 -2.63525 0
M  V30 14492 C 1360.69 1.91359 -3.87306 0
M  V30 14493 C 1359.82 3.13339 -4.28943 0
M  V30 14494 C 1358.86 2.77701 -5.4548 0
M  V30 14495 N 1358 3.9231 -5.82269 0
M  V30 14496 H 1362.84 0.495049 -2.93859 0
M  V30 14497 H 1360.37 0.232756 -1.45247 0
M  V30 14498 H 1362.33 2.97502 -2.92487 0
M  V30 14499 H 1360.96 2.66072 -1.82772 0
M  V30 14500 H 1360.01 1.06915 -3.65066 0
M  V30 14501 H 1361.33 1.61112 -4.72064 0
M  V30 14502 H 1360.48 3.9634 -4.59347 0
M  V30 14503 H 1359.22 3.46747 -3.42954 0
M  V30 14504 H 1358.22 1.93113 -5.14769 0
M  V30 14505 H 1359.45 2.45508 -6.33169 0
M  V30 14506 H 1357.39 4.25559 -4.99235 0
M  V30 14507 H 1357.31 3.65691 -6.61669 0
M  V30 14508 H 1358.58 4.76012 -6.17279 0
M  V30 14509 N 1362.81 1.55714 0.243056 0
M  V30 14510 C 1364.05 1.77989 0.971993 0
M  V30 14511 C 1364.39 0.596038 1.84827 0
M  V30 14512 O 1363.66 -0.40554 1.90225 0
M  V30 14513 C 1363.95 3.10178 1.82925 0
M  V30 14514 C 1363.8 4.38974 0.9809 0
M  V30 14515 C 1365.12 3.38628 2.81103 0
M  V30 14516 H 1362.24 0.64754 0.35194 0
M  V30 14517 H 1364.88 1.88449 0.242237 0
M  V30 14518 H 1363.03 3.01392 2.45143 0
M  V30 14519 H 1364.7 4.59756 0.377113 0
M  V30 14520 H 1362.94 4.3286 0.285414 0
M  V30 14521 H 1363.61 5.27858 1.61461 0
M  V30 14522 H 1366.09 3.47403 2.29021 0
M  V30 14523 H 1364.97 4.32331 3.38203 0
M  V30 14524 H 1365.23 2.5973 3.57761 0
M  V30 14525 N 1364.29 -0.50888 1.49158 0
M  V30 14526 C 1365.23 -1.63216 1.6572 0
M  V30 14527 C 1366.23 -1.61117 0.523236 0
M  V30 14528 O 1367.43 -1.6572 0.702629 0
M  V30 14529 H 1363.81 -0.540909 0.522419 0
M  V30 14530 H 1365.78 -1.46397 2.6002 0
M  V30 14531 C 1364.53 -3.01393 1.73372 0
M  V30 14532 H 1363.85 -3.03711 2.6 0
M  V30 14533 H 1365.29 -3.79547 1.88998 0
M  V30 14534 C 1363.75 -3.33509 0.47683 0
M  V30 14535 O 1364.28 -3.99694 -0.400986 0
M  V30 14536 N 1362.49 -2.88579 0.342145 0
M  V30 14537 H 1362.03 -2.34894 1.05747 0
M  V30 14538 H 1361.99 -3.10435 -0.497757 0
M  V30 14539 N 1365.76 -1.381 -0.759346 0
M  V30 14540 C 1367.01 -1.33992 -1.5183 0
M  V30 14541 C 1367.34 0.0718172 -1.94367 0
M  V30 14542 O 1366.59 1.0477 -1.65293 0
M  V30 14543 C 1366.89 -2.23636 -2.78786 0
M  V30 14544 C 1366.56 -3.71703 -2.5524 0
M  V30 14545 C 1365.22 -4.12053 -2.48528 0
M  V30 14546 C 1367.57 -4.65455 -2.34523 0
M  V30 14547 C 1364.9 -5.44252 -2.19105 0
M  V30 14548 C 1367.25 -5.97905 -2.06622 0
M  V30 14549 C 1365.92 -6.37345 -1.98362 0
M  V30 14550 H 1365.19 -0.490311 -0.555587 0
M  V30 14551 H 1367.83 -1.70411 -0.873637 0
M  V30 14552 H 1366.14 -1.80253 -3.47874 0
M  V30 14553 H 1367.84 -2.17764 -3.36719 0
M  V30 14554 H 1364.43 -3.3971 -2.61333 0
M  V30 14555 H 1368.61 -4.35132 -2.38691 0
M  V30 14556 H 1363.87 -5.73758 -2.11214 0
M  V30 14557 H 1368.04 -6.70095 -1.89594 0
M  V30 14558 H 1365.67 -7.39706 -1.75328 0
M  V30 14559 N 1367.24 0.986894 -1.22875 0
M  V30 14560 C 1368.65 1.54182 -1.05284 0
M  V30 14561 C 1369 1.92448 0.381856 0
M  V30 14562 O 1368.13 1.75381 1.26769 0
M  V30 14563 C 1368.72 2.80173 -1.90496 0
M  V30 14564 C 1367.28 3.32088 -1.77185 0
M  V30 14565 C 1366.43 2.05128 -1.86596 0
M  V30 14566 H 1369.38 0.807304 -1.36632 0
M  V30 14567 H 1369.4 3.52772 -1.42591 0
M  V30 14568 H 1368.91 2.52291 -2.94908 0
M  V30 14569 H 1367.02 3.64864 -0.755295 0
M  V30 14570 H 1367.13 4.02285 -2.60199 0
M  V30 14571 H 1365.49 2.18964 -1.30103 0
M  V30 14572 H 1366.28 1.79635 -2.92551 0
M  V30 14573 N 1368.72 1.0394 1.18466 0
M  V30 14574 C 1369.67 0.59975 2.1997 0
M  V30 14575 C 1370.65 -0.357127 1.56887 0
M  V30 14576 O 1371.85 -0.176388 1.76119 0
M  V30 14577 C 1368.98 -0.0371434 3.4328 0
M  V30 14578 C 1368.06 0.942805 4.13488 0
M  V30 14579 N 1368.45 2.10936 4.59717 0
M  V30 14580 C 1366.75 0.768529 4.39329 0
M  V30 14581 C 1367.45 2.72829 5.1375 0
M  V30 14582 N 1366.43 2.00713 5.05188 0
M  V30 14583 H 1370.23 1.48875 2.53403 0
M  V30 14584 H 1367.74 0.907817 1.34657 0
M  V30 14585 H 1369.74 -0.369803 4.15257 0
M  V30 14586 H 1368.4 -0.921701 3.11343 0
M  V30 14587 H 1369.41 2.48831 4.54207 0
M  V30 14588 H 1366.09 -0.0660446 4.17448 0
M  V30 14589 H 1367.48 3.71684 5.59733 0
M  V30 14590 N 1370.2 -1.34667 0.818693 0
M  V30 14591 C 1371.45 -1.98022 0.40396 0
M  V30 14592 C 1371.77 -1.65239 -1.03542 0
M  V30 14593 O 1371.04 -0.94097 -1.71821 0
M  V30 14594 H 1369.62 -0.732517 0.146382 0
M  V30 14595 H 1372.28 -1.64377 1.0472 0
M  V30 14596 H 1371.38 -3.07746 0.519516 0
M  V30 14597 N 1371.68 -0.573274 -1.46804 0
M  V30 14598 C 1372.61 0.213527 -2.27199 0
M  V30 14599 C 1373.59 0.905598 -1.35047 0
M  V30 14600 O 1374.77 0.921377 -1.64447 0
M  V30 14601 C 1371.9 1.30556 -3.12527 0
M  V30 14602 C 1370.94 0.720331 -4.20373 0
M  V30 14603 S 1371.78 -0.445518 -5.33644 0
M  V30 14604 C 1372.93 0.64794 -6.22537 0
M  V30 14605 H 1373.17 -0.468642 -2.93583 0
M  V30 14606 H 1370.7 -0.359949 -1.50146 0
M  V30 14607 H 1372.66 1.93086 -3.62254 0
M  V30 14608 H 1371.32 1.95963 -2.45474 0
M  V30 14609 H 1370.51 1.54089 -4.79867 0
M  V30 14610 H 1370.11 0.170885 -3.73609 0
M  V30 14611 H 1372.41 1.53602 -6.59858 0
M  V30 14612 H 1373.35 0.0899764 -7.08043 0
M  V30 14613 H 1373.76 0.94784 -5.56486 0
M  V30 14614 N 1373.15 1.5451 -0.310553 0
M  V30 14615 C 1374.08 2.26827 0.554243 0
M  V30 14616 C 1375.07 1.27133 1.13009 0
M  V30 14617 O 1376.25 1.55923 1.15765 0
M  V30 14618 C 1373.38 3.01626 1.7216 0
M  V30 14619 C 1372.33 4.08547 1.27566 0
M  V30 14620 C 1371.66 4.71115 2.52893 0
M  V30 14621 C 1372.96 5.20766 0.399955 0
M  V30 14622 H 1374.65 2.9936 -0.0489475 0
M  V30 14623 H 1372.2 1.43978 -0.0249817 0
M  V30 14624 H 1374.15 3.50942 2.33276 0
M  V30 14625 H 1372.88 2.26688 2.35118 0
M  V30 14626 H 1371.54 3.60096 0.687499 0
M  V30 14627 H 1371.18 3.92805 3.14186 0
M  V30 14628 H 1370.88 5.43331 2.23752 0
M  V30 14629 H 1372.41 5.23198 3.14796 0
M  V30 14630 H 1373.82 5.65918 0.917054 0
M  V30 14631 H 1372.22 5.9976 0.2019 0
M  V30 14632 H 1373.29 4.81508 -0.572537 0
M  V30 14633 N 1374.63 0.0384594 1.57553 0
M  V30 14634 C 1375.91 -0.677308 1.83499 0
M  V30 14635 C 1376.29 -1.89789 0.924294 0
M  V30 14636 O 1375.64 -2.28493 -0.0178185 0
M  V30 14637 C 1375.85 -1.04667 3.32935 0
M  V30 14638 C 1377.2 -1.43436 3.99639 0
M  V30 14639 O 1378.22 -1.13938 3.37486 0
M  V30 14640 O 1377.08 -1.98435 5.09201 0
M  V30 14641 H 1374.17 -0.333131 0.756936 0
M  V30 14642 H 1376.72 0.066854 1.69568 0
M  V30 14643 H 1375.49 -0.178349 3.90893 0
M  V30 14644 H 1375.11 -1.8487 3.52007 0
M  V30 14645 N 1376.11 -1.55841 -0.234795 0
M  V30 14646 C 1377.04 -1.94344 -1.29432 0
M  V30 14647 C 1378.02 -0.809912 -1.49581 0
M  V30 14648 O 1379.21 -1.07117 -1.61986 0
M  V30 14649 C 1376.34 -2.24866 -2.64675 0
M  V30 14650 C 1375.29 -3.40584 -2.59203 0
M  V30 14651 C 1374.62 -3.56678 -3.98353 0
M  V30 14652 C 1375.92 -4.75935 -2.15135 0
M  V30 14653 H 1377.61 -2.83096 -0.97454 0
M  V30 14654 H 1375.16 -1.36205 -0.467355 0
M  V30 14655 H 1377.11 -2.50392 -3.38942 0
M  V30 14656 H 1375.83 -1.32953 -2.98314 0
M  V30 14657 H 1374.49 -3.15087 -1.87393 0
M  V30 14658 H 1374.14 -2.62164 -4.29277 0
M  V30 14659 H 1373.84 -4.34503 -3.95577 0
M  V30 14660 H 1375.37 -3.84538 -4.74302 0
M  V30 14661 H 1376.78 -5.00753 -2.7914 0
M  V30 14662 H 1375.18 -5.56949 -2.23446 0
M  V30 14663 H 1376.25 -4.72182 -1.10328 0
M  V30 14664 N 1377.59 0.500963 -1.49426 0
M  V30 14665 C 1378.5 1.62889 -1.68833 0
M  V30 14666 C 1379.52 1.64367 -0.570932 0
M  V30 14667 O 1380.69 1.82786 -0.845641 0
M  V30 14668 C 1377.76 2.99255 -1.75063 0
M  V30 14669 C 1376.82 3.08404 -2.9864 0
M  V30 14670 C 1376.05 4.38266 -3.04564 0
M  V30 14671 O 1376.27 5.27065 -2.1808 0
M  V30 14672 O 1375.21 4.52387 -3.97026 0
M  V30 14673 H 1379.03 1.49446 -2.64385 0
M  V30 14674 H 1376.62 0.677254 -1.33168 0
M  V30 14675 H 1378.5 3.80303 -1.81515 0
M  V30 14676 H 1377.18 3.1296 -0.826896 0
M  V30 14677 H 1376.08 2.26544 -2.97706 0
M  V30 14678 H 1377.42 2.99626 -3.90494 0
M  V30 14679 N 1379.07 1.38501 0.752011 0
M  V30 14680 C 1379.98 1.38094 1.8965 0
M  V30 14681 C 1380.99 0.277851 1.71767 0
M  V30 14682 O 1382.17 0.516536 1.94663 0
M  V30 14683 C 1379.23 1.2063 3.25037 0
M  V30 14684 C 1378.3 2.40758 3.55435 0
M  V30 14685 C 1377.53 2.24118 4.84362 0
M  V30 14686 O 1377.75 1.23571 5.56854 0
M  V30 14687 O 1376.69 3.12741 5.14273 0
M  V30 14688 H 1380.51 2.34532 1.92947 0
M  V30 14689 H 1378.1 1.19437 0.897504 0
M  V30 14690 H 1379.98 1.12957 4.05979 0
M  V30 14691 H 1378.65 0.272785 3.22549 0
M  V30 14692 H 1377.56 2.54006 2.74648 0
M  V30 14693 H 1378.89 3.32745 3.62686 0
M  V30 14694 N 1380.55 -0.980364 1.23396 0
M  V30 14695 C 1381.79 -1.71592 1.06015 0
M  V30 14696 C 1382.11 -1.91401 -0.403103 0
M  V30 14697 O 1383.31 -2.62405 -0.696853 0
M  V30 14698 C 1381.77 -3.08795 1.84861 0
M  V30 14699 C 1381.38 -2.96873 3.35515 0
M  V30 14700 C 1383.12 -3.8631 1.75968 0
M  V30 14701 C 1381.03 -4.29308 4.06753 0
M  V30 14702 H 1379.96 -0.643423 0.393095 0
M  V30 14703 H 1382.61 -1.09345 1.47363 0
M  V30 14704 H 1380.99 -3.71797 1.36318 0
M  V30 14705 H 1382.17 -2.4296 3.91544 0
M  V30 14706 H 1380.48 -2.32833 3.45221 0
M  V30 14707 H 1383.08 -4.84355 2.26504 0
M  V30 14708 H 1383.42 -4.09983 0.722464 0
M  V30 14709 H 1383.95 -3.3001 2.22122 0
M  V30 14710 H 1380.69 -4.10831 5.10782 0
M  V30 14711 H 1380.21 -4.83086 3.55511 0
M  V30 14712 H 1381.89 -4.97995 4.1305 0
M  V30 14713 N 1382.02 -1.04567 -1.17913 0
M  V30 14714 C 1382.99 -0.645476 -2.19923 0
M  V30 14715 C 1383.99 0.299763 -1.57981 0
M  V30 14716 O 1385.18 0.0844825 -1.73995 0
M  V30 14717 C 1382.31 0.0528935 -3.40859 0
M  V30 14718 H 1383.5 -1.54828 -2.56843 0
M  V30 14719 H 1381.05 -0.838812 -1.31885 0
M  V30 14720 H 1381.79 0.969261 -3.09477 0
M  V30 14721 H 1381.57 -0.626558 -3.87062 0
M  V30 14722 H 1383.06 0.319221 -4.16378 0
M  V30 14723 N 1383.5 1.34231 -0.825823 0
M  V30 14724 C 1384.46 2.27776 -0.25512 0
M  V30 14725 C 1385.46 1.50409 0.568654 0
M  V30 14726 O 1386.65 1.69907 0.384337 0
M  V30 14727 C 1383.79 3.348 0.642013 0
M  V30 14728 H 1384.98 2.79763 -1.0804 0
M  V30 14729 H 1382.53 1.44412 -0.597904 0
M  V30 14730 H 1383.27 2.88032 1.49024 0
M  V30 14731 H 1383.05 3.92064 0.0527756 0
M  V30 14732 H 1384.54 4.0457 1.03502 0
M  V30 14733 N 1384.98 0.581051 1.46498 0
M  V30 14734 C 1385.93 -0.165944 2.32007 0
M  V30 14735 C 1386.92 -0.886015 1.44382 0
M  V30 14736 O 1388.13 -0.804592 1.61017 0
M  V30 14737 H 1384.5 -0.0723834 0.748508 0
M  V30 14738 H 1386.47 0.574089 2.92826 0
M  V30 14739 C 1385.22 -1.16741 3.27516 0
M  V30 14740 H 1384.55 -0.622756 3.9492 0
M  V30 14741 H 1385.99 -1.66052 3.90132 0
M  V30 14742 C 1384.44 -2.22755 2.52749 0
M  V30 14743 O 1384.97 -3.30081 2.28932 0
M  V30 14744 N 1383.18 -1.97318 2.1334 0
M  V30 14745 H 1382.73 -1.10049 2.3291 0
M  V30 14746 H 1382.69 -2.68461 1.63633 0
M  V30 14747 N 1386.46 -1.54343 0.318742 0
M  V30 14748 C 1387.68 -2.05361 -0.290126 0
M  V30 14749 C 1388.11 -1.19362 -1.45376 0
M  V30 14750 O 1387.47 -0.201639 -1.80175 0
M  V30 14751 C 1387.51 -3.53601 -0.707025 0
M  V30 14752 O 1386.62 -3.70561 -1.80992 0
M  V30 14753 H 1385.96 -0.661858 -0.0532933 0
M  V30 14754 H 1388.49 -1.99228 0.46575 0
M  V30 14755 H 1388.5 -3.95782 -0.991005 0
M  V30 14756 H 1387.17 -4.1565 0.144091 0
M  V30 14757 H 1385.75 -3.40286 -1.52513 0
M  V30 14758 N 1387.94 -0.0468143 -1.5753 0
M  V30 14759 C 1388.88 0.929065 -2.11275 0
M  V30 14760 C 1389.85 1.31166 -1.01905 0
M  V30 14761 O 1391.04 1.40189 -1.29428 0
M  V30 14762 C 1388.18 2.20012 -2.65873 0
M  V30 14763 C 1387.29 1.8724 -3.89314 0
M  V30 14764 C 1386.43 3.08772 -4.32242 0
M  V30 14765 C 1385.46 2.719 -5.48395 0
M  V30 14766 N 1384.6 3.86112 -5.86397 0
M  V30 14767 H 1389.44 0.463854 -2.94368 0
M  V30 14768 H 1386.98 0.217338 -1.45486 0
M  V30 14769 H 1388.94 2.94383 -2.95626 0
M  V30 14770 H 1387.57 2.64118 -1.85584 0
M  V30 14771 H 1386.62 1.03037 -3.6618 0
M  V30 14772 H 1387.93 1.56096 -4.73746 0
M  V30 14773 H 1387.08 3.91446 -4.63525 0
M  V30 14774 H 1385.82 3.4309 -3.46613 0
M  V30 14775 H 1384.83 1.87642 -5.16789 0
M  V30 14776 H 1386.05 2.38779 -6.35737 0
M  V30 14777 H 1384 4.2024 -5.03721 0
M  V30 14778 H 1383.92 3.58652 -6.65511 0
M  V30 14779 H 1385.18 4.69438 -6.22293 0
M  V30 14780 N 1389.41 1.55964 0.226527 0
M  V30 14781 C 1390.69 1.69528 0.975689 0
M  V30 14782 C 1391.07 0.592635 2.02611 0
M  V30 14783 O 1390.42 -0.401073 2.24953 0
M  V30 14784 C 1390.63 3.10644 1.59063 0
M  V30 14785 C 1391.98 3.69895 2.08478 0
M  V30 14786 O 1393 3.13574 1.68966 0
M  V30 14787 O 1391.86 4.68672 2.81085 0
M  V30 14788 H 1388.95 0.690285 0.455451 0
M  V30 14789 H 1391.5 1.68285 0.218702 0
M  V30 14790 H 1390.27 3.82355 0.831903 0
M  V30 14791 H 1389.9 3.15984 2.41329 0
M  V30 14792 N 1390.89 -0.493031 1.4969 0
M  V30 14793 C 1392.14 -1.24664 1.59578 0
M  V30 14794 C 1392.47 -1.92385 0.286075 0
M  V30 14795 O 1391.72 -1.81712 -0.726586 0
M  V30 14796 C 1392.02 -2.33014 2.70997 0
M  V30 14797 C 1391.69 -1.82697 4.12229 0
M  V30 14798 C 1390.35 -1.68694 4.50662 0
M  V30 14799 C 1392.7 -1.45127 5.00587 0
M  V30 14800 C 1390.03 -1.15512 5.75216 0
M  V30 14801 C 1392.38 -0.933951 6.25668 0
M  V30 14802 C 1391.05 -0.780378 6.62923 0
M  V30 14803 H 1390.32 -0.456178 0.583937 0
M  V30 14804 H 1392.96 -0.546091 1.83549 0
M  V30 14805 H 1391.27 -3.08889 2.41029 0
M  V30 14806 H 1392.96 -2.91041 2.75855 0
M  V30 14807 H 1389.55 -1.94557 3.81897 0
M  V30 14808 H 1393.74 -1.5479 4.71544 0
M  V30 14809 H 1388.99 -1.0234 6.02774 0
M  V30 14810 H 1393.17 -0.634088 6.93507 0
M  V30 14811 H 1390.8 -0.366111 7.59318 0
M  V30 14812 N 1392.37 -1.38898 -0.744656 0
M  V30 14813 C 1393.78 -1.31789 -1.32244 0
M  V30 14814 C 1394.13 0.0222208 -1.96187 0
M  V30 14815 O 1393.26 0.924328 -1.95666 0
M  V30 14816 C 1393.85 -2.38674 -2.40458 0
M  V30 14817 C 1392.41 -2.35116 -2.93935 0
M  V30 14818 C 1391.56 -2.21069 -1.67403 0
M  V30 14819 H 1394.51 -1.49126 -0.54287 0
M  V30 14820 H 1394.53 -2.04905 -3.20615 0
M  V30 14821 H 1394.04 -3.36197 -1.9389 0
M  V30 14822 H 1392.14 -1.41201 -3.44809 0
M  V30 14823 H 1392.26 -3.29602 -3.47706 0
M  V30 14824 H 1390.62 -1.68074 -1.91372 0
M  V30 14825 H 1391.4 -3.20547 -1.229 0
M  V30 14826 N 1393.85 0.973806 -1.23914 0
M  V30 14827 C 1394.8 2.08861 -1.02372 0
M  V30 14828 C 1395.79 1.69354 0.039415 0
M  V30 14829 O 1397 1.79635 -0.114637 0
M  V30 14830 H 1393.37 0.683313 -0.313986 0
M  V30 14831 H 1395.34 2.24195 -1.96924 0
M  V30 14832 C 1394.09 3.41784 -0.638661 0
M  V30 14833 H 1393.41 3.72639 -1.44846 0
M  V30 14834 H 1394.85 4.20706 -0.527487 0
M  V30 14835 C 1393.31 3.30497 0.65369 0
M  V30 14836 O 1393.84 3.63905 1.70107 0
M  V30 14837 N 1392.05 2.83642 0.632104 0
M  V30 14838 H 1391.6 2.56654 -0.220571 0
M  V30 14839 H 1391.55 2.76472 1.49701 0
M  V30 14840 N 1395.33 1.05191 1.17357 0
M  V30 14841 C 1396.26 0.597207 2.20247 0
M  V30 14842 C 1397.24 -0.374194 1.58236 0
M  V30 14843 O 1398.42 -0.285815 1.86321 0
M  V30 14844 C 1395.55 -0.126012 3.38466 0
M  V30 14845 C 1394.59 0.800401 4.18922 0
M  V30 14846 S 1395.43 2.28956 4.84086 0
M  V30 14847 C 1396.58 1.57751 6.05694 0
M  V30 14848 H 1396.82 1.46893 2.58476 0
M  V30 14849 H 1394.35 0.863874 1.27971 0
M  V30 14850 H 1396.31 -0.537086 4.06971 0
M  V30 14851 H 1394.97 -0.97377 2.98624 0
M  V30 14852 H 1394.16 0.240754 5.03425 0
M  V30 14853 H 1393.76 1.15084 3.55853 0
M  V30 14854 H 1396.06 0.876839 6.71802 0
M  V30 14855 H 1397 2.40001 6.66187 0
M  V30 14856 H 1397.41 1.06493 5.54364 0
M  V30 14857 N 1396.8 -1.33791 0.83293 0
M  V30 14858 C 1398.03 -2.0272 0.438111 0
M  V30 14859 C 1398.45 -1.62279 -0.951163 0
M  V30 14860 O 1397.81 -0.812406 -1.62079 0
M  V30 14861 C 1397.86 -3.5623 0.559698 0
M  V30 14862 O 1396.96 -4.10292 -0.41646 0
M  V30 14863 H 1396.31 -0.639438 0.178928 0
M  V30 14864 H 1398.84 -1.70821 1.12612 0
M  V30 14865 H 1398.85 -4.0563 0.439148 0
M  V30 14866 H 1397.52 -3.8501 1.5729 0
M  V30 14867 H 1396.1 -3.72034 -0.25396 0
M  V30 14868 N 1398.28 -0.588812 -1.46187 0
M  V30 14869 C 1399.19 0.143253 -2.34162 0
M  V30 14870 C 1400.21 0.879779 -1.5012 0
M  V30 14871 O 1401.38 0.841592 -1.82973 0
M  V30 14872 C 1398.45 1.14017 -3.27416 0
M  V30 14873 C 1397.51 0.407651 -4.2736 0
M  V30 14874 C 1396.74 1.35708 -5.16158 0
M  V30 14875 O 1396.97 2.59394 -5.08007 0
M  V30 14876 O 1395.9 0.864343 -5.95662 0
M  V30 14877 H 1399.73 -0.579228 -2.98125 0
M  V30 14878 H 1397.31 -0.349174 -1.45262 0
M  V30 14879 H 1399.19 1.71484 -3.8493 0
M  V30 14880 H 1397.87 1.84401 -2.66041 0
M  V30 14881 H 1396.78 -0.209011 -3.73516 0
M  V30 14882 H 1398.11 -0.255334 -4.91537 0
M  V30 14883 N 1399.76 1.54172 -0.326923 0
M  V30 14884 C 1400.99 2.05044 0.276508 0
M  V30 14885 C 1401.4 1.20288 1.45521 0
M  V30 14886 O 1400.76 0.234324 1.80989 0
M  V30 14887 C 1400.81 3.54505 0.707714 0
M  V30 14888 O 1400.53 4.36042 -0.424098 0
M  V30 14889 C 1402.03 4.21482 1.3736 0
M  V30 14890 H 1399.25 0.668632 0.0563273 0
M  V30 14891 H 1401.8 1.98929 -0.474087 0
M  V30 14892 H 1399.95 3.60896 1.40828 0
M  V30 14893 H 1400.37 5.24433 -0.0836846 0
M  V30 14894 H 1401.84 5.27501 1.62623 0
M  V30 14895 H 1402.32 3.72802 2.32196 0
M  V30 14896 H 1402.92 4.19238 0.715526 0
M  V30 14897 N 1401.24 0.0551678 1.57503 0
M  V30 14898 C 1402.52 -0.657808 1.84207 0
M  V30 14899 C 1402.9 -1.88798 0.944372 0
M  V30 14900 O 1402.24 -2.28499 0.00641728 0
M  V30 14901 C 1402.45 -1.0113 3.34026 0
M  V30 14902 C 1403.8 -1.39189 4.01138 0
M  V30 14903 O 1404.83 -1.10353 3.38675 0
M  V30 14904 O 1403.68 -1.93023 5.11277 0
M  V30 14905 H 1400.78 -0.325084 0.760427 0
M  V30 14906 H 1403.32 0.0848352 1.69488 0
M  V30 14907 H 1402.1 -0.13688 3.91061 0
M  V30 14908 H 1401.72 -1.81126 3.53948 0
M  V30 14909 N 1402.72 -1.56081 -0.218252 0
M  V30 14910 C 1403.65 -1.95706 -1.27364 0
M  V30 14911 C 1404.63 -0.825731 -1.48713 0
M  V30 14912 O 1405.81 -1.08829 -1.60841 0
M  V30 14913 C 1402.94 -2.2766 -2.62275 0
M  V30 14914 C 1401.9 -3.43314 -2.55576 0
M  V30 14915 C 1401.22 -3.60883 -3.94547 0
M  V30 14916 C 1402.52 -4.7819 -2.10075 0
M  V30 14917 H 1404.22 -2.84113 -0.944459 0
M  V30 14918 H 1401.76 -1.36693 -0.452882 0
M  V30 14919 H 1403.72 -2.53973 -3.36268 0
M  V30 14920 H 1402.44 -1.3611 -2.96887 0
M  V30 14921 H 1401.1 -3.17056 -1.8404 0
M  V30 14922 H 1400.75 -2.66703 -4.26472 0
M  V30 14923 H 1400.45 -4.38674 -3.90946 0
M  V30 14924 H 1401.97 -3.89547 -4.70197 0
M  V30 14925 H 1403.38 -5.03686 -2.73813 0
M  V30 14926 H 1401.78 -5.59287 -2.17527 0
M  V30 14927 H 1402.85 -4.73325 -1.05314 0
M  V30 14928 N 1404.2 0.485086 -1.49949 0
M  V30 14929 C 1405.44 1.24816 -1.61865 0
M  V30 14930 C 1405.8 1.8955 -0.305741 0
M  V30 14931 O 1407 2.67118 -0.300216 0
M  V30 14932 C 1405.27 2.27464 -2.75672 0
M  V30 14933 S 1406.83 3.12898 -3.07637 0
M  V30 14934 H 1403.65 0.423964 -0.570767 0
M  V30 14935 H 1406.25 0.547552 -1.87676 0
M  V30 14936 H 1404.95 1.78464 -3.69566 0
M  V30 14937 H 1404.49 3.02172 -2.51904 0
M  V30 14938 H 1406.5 4.28395 -2.50384 0
M  V30 14939 N 1405.67 1.39291 0.737279 0
M  V30 14940 C 1406.92 1.3639 1.49679 0
M  V30 14941 C 1407.25 -0.0408859 1.94457 0
M  V30 14942 O 1406.5 -1.02127 1.66939 0
M  V30 14943 C 1406.8 2.28043 2.75193 0
M  V30 14944 C 1406.47 3.75717 2.49294 0
M  V30 14945 C 1405.13 4.15955 2.41941 0
M  V30 14946 C 1407.48 4.69127 2.27088 0
M  V30 14947 C 1404.81 5.47669 2.10419 0
M  V30 14948 C 1407.16 6.01116 1.97084 0
M  V30 14949 C 1405.83 6.4042 1.88197 0
M  V30 14950 H 1405.1 0.499088 0.547716 0
M  V30 14951 H 1407.74 1.71779 0.846416 0
M  V30 14952 H 1406.05 1.85765 3.44962 0
M  V30 14953 H 1407.75 2.23093 3.33212 0
M  V30 14954 H 1404.34 3.43825 2.55896 0
M  V30 14955 H 1408.52 4.38875 2.31739 0
M  V30 14956 H 1403.78 5.77046 2.02059 0
M  V30 14957 H 1407.95 6.73026 1.78909 0
M  V30 14958 H 1405.58 7.42401 1.63537 0
M  V30 14959 N 1407.15 -0.967221 1.24429 0
M  V30 14960 C 1408.08 -2.07966 1.06172 0
M  V30 14961 C 1409.06 -1.70081 -0.0254566 0
M  V30 14962 O 1410.25 -1.93682 0.141705 0
M  V30 14963 C 1407.38 -3.4085 0.666251 0
M  V30 14964 C 1406.33 -3.92692 1.70225 0
M  V30 14965 C 1405.66 -5.21925 1.16183 0
M  V30 14966 C 1406.96 -4.20478 3.09831 0
M  V30 14967 H 1408.65 -2.23497 1.99222 0
M  V30 14968 H 1406.2 -1.07398 0.959255 0
M  V30 14969 H 1408.15 -4.1811 0.52552 0
M  V30 14970 H 1406.87 -3.2522 -0.299939 0
M  V30 14971 H 1405.53 -3.17588 1.83121 0
M  V30 14972 H 1405.18 -5.02655 0.186237 0
M  V30 14973 H 1404.88 -5.57579 1.85416 0
M  V30 14974 H 1406.41 -6.01795 1.03323 0
M  V30 14975 H 1407.82 -4.88442 3.00162 0
M  V30 14976 H 1406.22 -4.67362 3.7642 0
M  V30 14977 H 1407.29 -3.27235 3.57834 0
M  V30 14978 N 1408.63 -1.05812 -1.16797 0
M  V30 14979 C 1409.56 -0.685778 -2.23202 0
M  V30 14980 C 1410.54 0.319428 -1.67074 0
M  V30 14981 O 1411.73 0.195635 -1.93212 0
M  V30 14982 C 1408.86 -0.0662958 -3.47237 0
M  V30 14983 C 1407.81 -0.996943 -4.16227 0
M  V30 14984 C 1407.14 -0.241015 -5.34157 0
M  V30 14985 C 1408.44 -2.32384 -4.67755 0
M  V30 14986 H 1410.13 -1.57535 -2.54604 0
M  V30 14987 H 1407.68 -0.758909 -1.22379 0
M  V30 14988 H 1409.63 0.206024 -4.20896 0
M  V30 14989 H 1408.35 0.858263 -3.15121 0
M  V30 14990 H 1407.01 -1.25393 -3.44488 0
M  V30 14991 H 1406.66 0.686508 -4.98293 0
M  V30 14992 H 1406.36 -0.861188 -5.81255 0
M  V30 14993 H 1407.88 0.0238739 -6.10595 0
M  V30 14994 H 1409.3 -2.11099 -5.3302 0
M  V30 14995 H 1407.69 -2.89855 -5.25456 0
M  V30 14996 H 1408.76 -2.958 -3.84227 0
M  V30 14997 N 1410.11 1.33347 -0.840014 0
M  V30 14998 C 1411.06 2.26668 -0.246093 0
M  V30 14999 C 1412.04 1.49311 0.59958 0
M  V30 15000 O 1413.23 1.71148 0.45136 0
M  V30 15001 C 1410.36 3.38418 0.576924 0
M  V30 15002 C 1409.45 4.23173 -0.280322 0
M  V30 15003 N 1409.84 4.87185 -1.35959 0
M  V30 15004 C 1408.14 4.45949 -0.0675504 0
M  V30 15005 C 1408.84 5.50285 -1.88576 0
M  V30 15006 N 1407.81 5.3048 -1.18707 0
M  V30 15007 H 1411.62 2.73675 -1.0714 0
M  V30 15008 H 1409.13 1.47266 -0.684586 0
M  V30 15009 H 1411.13 4.04262 1.01871 0
M  V30 15010 H 1409.79 2.92958 1.4002 0
M  V30 15011 H 1410.8 4.87707 -1.74248 0
M  V30 15012 H 1407.48 4.11206 0.722188 0
M  V30 15013 H 1408.87 6.11252 -2.78963 0
M  V30 15014 N 1411.59 0.596556 1.45873 0
M  V30 15015 C 1412.83 0.0959747 2.03173 0
M  V30 15016 C 1413.19 -1.25529 1.45809 0
M  V30 15017 O 1412.48 -1.81324 0.619052 0
M  V30 15018 C 1412.67 -0.0135714 3.57397 0
M  V30 15019 C 1412.5 1.32553 4.29721 0
M  V30 15020 C 1411.27 1.90333 4.68083 0
M  V30 15021 C 1413.47 2.25185 4.62381 0
M  V30 15022 N 1411.45 3.17838 5.25216 0
M  V30 15023 C 1412.82 3.37283 5.20231 0
M  V30 15024 C 1414.88 2.24694 4.44316 0
M  V30 15025 C 1413.58 4.49041 5.61921 0
M  V30 15026 C 1415.61 3.35491 4.87031 0
M  V30 15027 C 1414.97 4.46311 5.44964 0
M  V30 15028 H 1411.07 0.0782275 0.778077 0
M  V30 15029 H 1413.65 0.792492 1.77842 0
M  V30 15030 H 1411.82 -0.679285 3.82414 0
M  V30 15031 H 1413.56 -0.519803 4.01348 0
M  V30 15032 H 1410.31 1.43665 4.51284 0
M  V30 15033 H 1410.73 3.82935 5.58292 0
M  V30 15034 H 1415.38 1.40282 3.98849 0
M  V30 15035 H 1413.09 5.34186 6.06359 0
M  V30 15036 H 1416.68 3.36246 4.74795 0
M  V30 15037 H 1415.56 5.30629 5.77411 0
M  V30 15038 N 1413.06 -1.53996 0.335095 0
M  V30 15039 C 1413.99 -2.2768 -0.518087 0
M  V30 15040 C 1414.97 -1.28915 -1.10972 0
M  V30 15041 O 1416.16 -1.57745 -1.1327 0
M  V30 15042 C 1413.29 -3.04327 -1.67339 0
M  V30 15043 C 1412.24 -4.10525 -1.2105 0
M  V30 15044 C 1411.57 -4.75078 -2.45366 0
M  V30 15045 C 1412.87 -5.21337 -0.317055 0
M  V30 15046 H 1414.56 -2.99244 0.0965669 0
M  V30 15047 H 1412.11 -1.4392 0.0478842 0
M  V30 15048 H 1414.06 -3.54608 -2.27664 0
M  V30 15049 H 1412.79 -2.30399 -2.31481 0
M  V30 15050 H 1411.45 -3.61144 -0.630124 0
M  V30 15051 H 1411.09 -3.97754 -3.07897 0
M  V30 15052 H 1410.79 -5.46822 -2.1508 0
M  V30 15053 H 1412.32 -5.2814 -3.06432 0
M  V30 15054 H 1413.73 -5.67305 -0.826905 0
M  V30 15055 H 1412.13 -6.00006 -0.106458 0
M  V30 15056 H 1413.2 -4.80536 0.649068 0
M  V30 15057 N 1414.54 -0.0635198 -1.57472 0
M  V30 15058 C 1415.49 0.924358 -2.13444 0
M  V30 15059 C 1416.48 1.31389 -1.06927 0
M  V30 15060 O 1417.69 1.2921 -1.25319 0
M  V30 15061 H 1414.06 0.316003 -0.682383 0
M  V30 15062 H 1416.04 0.427281 -2.95325 0
M  V30 15063 C 1414.78 2.18546 -2.70431 0
M  V30 15064 H 1414.11 1.89455 -3.52061 0
M  V30 15065 H 1415.55 2.85799 -3.13201 0
M  V30 15066 C 1414.01 2.93845 -1.64794 0
M  V30 15067 O 1414.54 3.87242 -1.06802 0
M  V30 15068 N 1412.74 2.568 -1.36023 0
M  V30 15069 H 1412.29 1.80924 -1.83369 0
M  V30 15070 H 1412.25 3.07486 -0.655741 0
M  V30 15071 N 1416.02 1.56195 0.209972 0
M  V30 15072 C 1417.43 1.69811 0.775969 0
M  V30 15073 C 1417.78 0.667543 1.84495 0
M  V30 15074 O 1416.91 -0.179043 2.15658 0
M  V30 15075 C 1417.5 3.07869 1.41429 0
M  V30 15076 C 1416.06 3.233 1.92755 0
M  V30 15077 C 1415.21 2.6575 0.791958 0
M  V30 15078 H 1418.16 1.58693 -0.0148727 0
M  V30 15079 H 1418.18 3.04371 2.28339 0
M  V30 15080 H 1417.69 3.82853 0.63604 0
M  V30 15081 H 1415.79 2.53206 2.73345 0
M  V30 15082 H 1415.91 4.30645 2.09956 0
M  V30 15083 H 1414.27 2.24535 1.20234 0
M  V30 15084 H 1415.05 3.4329 0.0261877 0
M  V30 15085 N 1417.5 -0.477127 1.50204 0
M  V30 15086 C 1418.44 -1.57587 1.68626 0
M  V30 15087 C 1419.41 -1.57499 0.527576 0
M  V30 15088 O 1420.6 -1.75121 0.757438 0
M  V30 15089 C 1417.74 -2.956 1.78086 0
M  V30 15090 C 1416.85 -3.05523 3.05417 0
M  V30 15091 C 1415.99 -4.34414 3.05709 0
M  V30 15092 C 1415.03 -4.38057 4.27519 0
M  V30 15093 N 1414.16 -5.5841 4.25585 0
M  V30 15094 H 1419 -1.41185 2.62433 0
M  V30 15095 H 1416.54 -0.686537 1.30096 0
M  V30 15096 H 1418.5 -3.75626 1.81552 0
M  V30 15097 H 1417.13 -3.10651 0.877251 0
M  V30 15098 H 1416.18 -2.18409 3.11451 0
M  V30 15099 H 1417.49 -3.04075 3.95398 0
M  V30 15100 H 1416.65 -5.22782 3.07871 0
M  V30 15101 H 1415.39 -4.38462 2.13548 0
M  V30 15102 H 1414.39 -3.48087 4.25577 0
M  V30 15103 H 1415.62 -4.35705 5.20901 0
M  V30 15104 H 1413.56 -5.63255 3.36274 0
M  V30 15105 H 1413.48 -5.58677 5.09328 0
M  V30 15106 H 1414.75 -6.4892 4.31884 0
M  V30 15107 N 1418.98 -1.3968 -0.729882 0
M  V30 15108 C 1419.92 -1.38808 -1.84393 0
M  V30 15109 C 1420.89 -0.247035 -1.64253 0
M  V30 15110 O 1422.08 -0.44293 -1.85588 0
M  V30 15111 C 1419.22 -1.2424 -3.2196 0
M  V30 15112 C 1418.33 -2.47932 -3.53771 0
M  V30 15113 C 1417.47 -2.25913 -4.80767 0
M  V30 15114 C 1416.51 -3.45254 -5.05436 0
M  V30 15115 N 1415.64 -3.2252 -6.23638 0
M  V30 15116 H 1420.48 -2.34038 -1.84473 0
M  V30 15117 H 1418.02 -1.16252 -0.901332 0
M  V30 15118 H 1419.98 -1.13804 -4.01378 0
M  V30 15119 H 1418.61 -0.326375 -3.21146 0
M  V30 15120 H 1417.66 -2.68952 -2.69015 0
M  V30 15121 H 1418.97 -3.36806 -3.67917 0
M  V30 15122 H 1418.13 -2.12748 -5.68175 0
M  V30 15123 H 1416.86 -1.34441 -4.68804 0
M  V30 15124 H 1415.87 -3.58912 -4.16488 0
M  V30 15125 H 1417.09 -4.37634 -5.19282 0
M  V30 15126 H 1415.04 -2.33718 -6.12953 0
M  V30 15127 H 1414.96 -4.04954 -6.38395 0
M  V30 15128 H 1416.23 -3.1306 -7.13872 0
M  V30 15129 N 1420.45 0.960609 -1.2494 0
M  V30 15130 C 1421.7 1.69884 -1.08731 0
M  V30 15131 C 1422.02 1.92018 0.372602 0
M  V30 15132 O 1423.22 2.6348 0.655018 0
M  V30 15133 C 1421.68 3.05815 -1.8975 0
M  V30 15134 C 1421.29 2.91498 -3.40196 0
M  V30 15135 C 1423.03 3.83462 -1.82092 0
M  V30 15136 C 1420.94 4.22783 -4.13532 0
M  V30 15137 H 1419.87 0.637087 -0.403281 0
M  V30 15138 H 1422.52 1.06987 -1.49084 0
M  V30 15139 H 1420.9 3.69582 -1.42216 0
M  V30 15140 H 1422.07 2.367 -3.9536 0
M  V30 15141 H 1420.39 2.27312 -3.48882 0
M  V30 15142 H 1422.99 4.8069 -2.34181 0
M  V30 15143 H 1423.33 4.08782 -0.787597 0
M  V30 15144 H 1423.86 3.26435 -2.27344 0
M  V30 15145 H 1420.6 4.02653 -5.17253 0
M  V30 15146 H 1420.12 4.77369 -3.63152 0
M  V30 15147 H 1421.8 4.91361 -4.2092 0
M  V30 15148 N 1421.93 1.0643 1.16234 0
M  V30 15149 C 1422.88 0.670457 2.22728 0
M  V30 15150 C 1423.87 -0.31428 1.66459 0
M  V30 15151 O 1425.08 -0.178996 1.79108 0
M  V30 15152 H 1421.46 0.198692 0.725276 0
M  V30 15153 H 1423.43 1.57846 2.53233 0
M  V30 15154 C 1422.18 0.074379 3.4762 0
M  V30 15155 H 1421.5 0.823227 3.91233 0
M  V30 15156 H 1422.94 -0.163652 4.23684 0
M  V30 15157 C 1421.4 -1.18242 3.15469 0
M  V30 15158 O 1421.93 -2.27018 3.314 0
M  V30 15159 N 1420.13 -1.08493 2.69588 0
M  V30 15160 H 1419.68 -0.199714 2.56825 0
M  V30 15161 H 1419.64 -1.92666 2.48449 0
M  V30 15162 N 1423.41 -1.329 0.847073 0
M  V30 15163 C 1424.34 -2.31546 0.301422 0
M  V30 15164 C 1425.32 -1.59342 -0.595317 0
M  V30 15165 O 1426.51 -1.87188 -0.517151 0
M  V30 15166 C 1423.64 -3.43423 -0.517454 0
M  V30 15167 C 1422.59 -4.27055 0.284195 0
M  V30 15168 C 1421.92 -5.30624 -0.658944 0
M  V30 15169 C 1423.22 -5.00123 1.50578 0
M  V30 15170 H 1424.91 -2.77433 1.12567 0
M  V30 15171 H 1422.46 -1.3338 0.542739 0
M  V30 15172 H 1424.41 -4.11467 -0.909543 0
M  V30 15173 H 1423.13 -2.96246 -1.37499 0
M  V30 15174 H 1421.79 -3.60648 0.657944 0
M  V30 15175 H 1421.44 -4.79702 -1.51311 0
M  V30 15176 H 1421.14 -5.87464 -0.12662 0
M  V30 15177 H 1422.66 -6.01533 -1.04837 0
M  V30 15178 H 1424.08 -5.6089 1.18641 0
M  V30 15179 H 1422.48 -5.66652 1.97549 0
M  V30 15180 H 1423.55 -4.28424 2.27115 0
M  V30 15181 N 1424.89 -0.604284 -1.45555 0
M  V30 15182 C 1425.85 0.106526 -2.28952 0
M  V30 15183 C 1426.85 0.798277 -1.39586 0
M  V30 15184 O 1428.04 0.646943 -1.61741 0
M  V30 15185 C 1425.17 1.16091 -3.20524 0
M  V30 15186 H 1426.37 -0.626655 -2.9328 0
M  V30 15187 H 1423.92 -0.363183 -1.52022 0
M  V30 15188 H 1424.65 1.92496 -2.6099 0
M  V30 15189 H 1424.44 0.669137 -3.86348 0
M  V30 15190 H 1425.93 1.65882 -3.8324 0
M  V30 15191 N 1426.37 1.53816 -0.343257 0
M  V30 15192 C 1427.64 1.9315 0.308609 0
M  V30 15193 C 1428.02 1.27479 1.68263 0
M  V30 15194 O 1427.37 0.425614 2.24501 0
M  V30 15195 C 1427.58 3.46912 0.381176 0
M  V30 15196 C 1428.93 4.19868 0.632153 0
M  V30 15197 O 1429.95 3.53174 0.463303 0
M  V30 15198 O 1428.81 5.38016 0.959237 0
M  V30 15199 H 1425.91 0.807169 0.180022 0
M  V30 15200 H 1428.45 1.65053 -0.394412 0
M  V30 15201 H 1427.22 3.86932 -0.583058 0
M  V30 15202 H 1426.85 3.81175 1.13099 0
M  V30 15203 N 1427.84 0.0718701 1.57436 0
M  V30 15204 C 1429.26 -0.28476 1.57039 0
M  V30 15205 C 1429.46 -1.70032 1.08127 0
M  V30 15206 O 1428.52 -2.41191 0.747189 0
M  V30 15207 C 1429.83 -0.0943482 3.00552 0
M  V30 15208 C 1431.38 -0.163879 3.12571 0
M  V30 15209 C 1431.85 -0.00174658 4.58 0
M  V30 15210 N 1433.34 -0.0573489 4.63164 0
M  V30 15211 C 1434.08 0.0436849 5.73383 0
M  V30 15212 N 1433.57 0.198243 6.92516 0
M  V30 15213 N 1435.37 -0.0133856 5.62098 0
M  V30 15214 H 1427.52 0.99702 1.87545 0
M  V30 15215 H 1429.78 0.388822 0.864593 0
M  V30 15216 H 1429.49 0.882445 3.40449 0
M  V30 15217 H 1429.36 -0.846636 3.67576 0
M  V30 15218 H 1431.75 -1.13116 2.7256 0
M  V30 15219 H 1431.83 0.619513 2.48185 0
M  V30 15220 H 1431.47 0.9623 4.98701 0
M  V30 15221 H 1431.4 -0.804543 5.20418 0
M  V30 15222 H 1433.89 -0.175212 3.77494 0
M  V30 15223 H 1434.21 0.267479 7.72337 0
M  V30 15224 H 1432.55 0.233606 6.94607 0
M  V30 15225 H 1435.74 -0.132835 4.67911 0
M  V30 15226 H 1435.92 0.0688076 6.47963 0
M  V30 15227 N 1429.32 -1.56304 -0.201686 0
M  V30 15228 C 1430.26 -1.8907 -1.27781 0
M  V30 15229 C 1431.23 -0.75009 -1.44265 0
M  V30 15230 O 1432.42 -1.00044 -1.59761 0
M  V30 15231 C 1429.54 -2.11513 -2.64537 0
M  V30 15232 C 1428.59 -3.34214 -2.64959 0
M  V30 15233 S 1429.42 -4.89541 -2.17047 0
M  V30 15234 C 1430.58 -5.15044 -3.55641 0
M  V30 15235 H 1430.81 -2.8005 -0.997971 0
M  V30 15236 H 1428.35 -1.48997 -0.404872 0
M  V30 15237 H 1430.3 -2.25126 -3.43262 0
M  V30 15238 H 1428.96 -1.21295 -2.89735 0
M  V30 15239 H 1428.16 -3.47023 -3.65501 0
M  V30 15240 H 1427.76 -3.1956 -1.94312 0
M  V30 15241 H 1430.05 -5.05161 -4.51463 0
M  V30 15242 H 1430.99 -6.16838 -3.47731 0
M  V30 15243 H 1431.4 -4.42704 -3.50248 0
M  V30 15244 N 1430.8 0.469154 -1.50455 0
M  V30 15245 C 1431.73 1.57493 -1.7239 0
M  V30 15246 C 1432.71 1.60161 -0.572915 0
M  V30 15247 O 1433.9 1.76397 -0.812259 0
M  V30 15248 C 1431.03 2.95804 -1.81981 0
M  V30 15249 C 1429.98 3.08001 -2.97185 0
M  V30 15250 C 1429.31 4.4798 -2.91922 0
M  V30 15251 C 1430.61 2.85039 -4.37665 0
M  V30 15252 H 1432.3 1.39389 -2.64974 0
M  V30 15253 H 1429.85 0.669133 -1.27509 0
M  V30 15254 H 1431.8 3.73091 -1.95911 0
M  V30 15255 H 1430.52 3.15068 -0.86021 0
M  V30 15256 H 1429.18 2.33148 -2.82909 0
M  V30 15257 H 1428.83 4.64165 -1.93803 0
M  V30 15258 H 1428.53 4.57076 -3.69263 0
M  V30 15259 H 1430.05 5.27284 -3.07903 0
M  V30 15260 H 1431.47 3.52074 -4.52456 0
M  V30 15261 H 1429.87 3.05578 -5.16471 0
M  V30 15262 H 1430.94 1.8088 -4.499 0
M  V30 15263 N 1432.28 1.40065 0.722464 0
M  V30 15264 C 1433.53 1.37698 1.47932 0
M  V30 15265 C 1433.85 -0.0222608 1.94987 0
M  V30 15266 O 1433.12 -0.975795 1.69868 0
M  V30 15267 H 1431.7 0.506766 0.548815 0
M  V30 15268 H 1434.36 1.75053 0.856884 0
M  V30 15269 H 1433.46 2.04756 2.35545 0
M  V30 15270 N 1433.76 -0.95397 1.25448 0
M  V30 15271 C 1434.69 -2.06828 1.08372 0
M  V30 15272 C 1435.67 -1.70098 -0.00741585 0
M  V30 15273 O 1436.85 -1.93521 0.16224 0
M  V30 15274 C 1433.98 -3.40124 0.702365 0
M  V30 15275 C 1432.94 -3.90865 1.74381 0
M  V30 15276 C 1432.26 -5.20663 1.21712 0
M  V30 15277 C 1433.56 -4.17169 3.14273 0
M  V30 15278 H 1435.26 -2.21372 2.01581 0
M  V30 15279 H 1432.8 -1.06374 0.970592 0
M  V30 15280 H 1434.76 -4.17529 0.569837 0
M  V30 15281 H 1433.48 -3.2552 -0.265428 0
M  V30 15282 H 1432.14 -3.15628 1.86479 0
M  V30 15283 H 1431.79 -5.02429 0.23954 0
M  V30 15284 H 1431.49 -5.55581 1.91319 0
M  V30 15285 H 1433.01 -6.00665 1.097 0
M  V30 15286 H 1434.43 -4.85231 3.05325 0
M  V30 15287 H 1432.82 -4.63344 3.81356 0
M  V30 15288 H 1433.89 -3.23421 3.61285 0
M  V30 15289 N 1435.24 -1.07045 -1.15668 0
M  V30 15290 C 1436.46 -0.812802 -1.9081 0
M  V30 15291 C 1436.89 0.627827 -1.77313 0
M  V30 15292 O 1436.24 1.43836 -1.10368 0
M  V30 15293 C 1436.29 -1.2219 -3.39267 0
M  V30 15294 O 1435.4 -0.365305 -4.10779 0
M  V30 15295 H 1434.74 -0.296385 -0.594182 0
M  V30 15296 H 1437.27 -1.42825 -1.465 0
M  V30 15297 H 1437.28 -1.19674 -3.90054 0
M  V30 15298 H 1435.95 -2.27121 -3.48409 0
M  V30 15299 H 1434.53 -0.452687 -3.70142 0
M  V30 15300 N 1436.71 1.32449 -0.85411 0
M  V30 15301 C 1437.96 1.96881 -0.45632 0
M  V30 15302 C 1438.28 1.67926 0.991248 0
M  V30 15303 O 1437.55 0.986195 1.69266 0
M  V30 15304 H 1436.13 0.728378 -0.165752 0
M  V30 15305 H 1438.79 1.61542 -1.09042 0
M  V30 15306 H 1437.89 3.0626 -0.600927 0
M  V30 15307 N 1438.19 0.611994 1.45232 0
M  V30 15308 C 1439.44 0.109073 2.02506 0
M  V30 15309 C 1439.77 -1.25876 1.47881 0
M  V30 15310 O 1439.05 -1.83131 0.65524 0
M  V30 15311 C 1439.33 0.0749288 3.60022 0
M  V30 15312 C 1439.18 1.47374 4.24972 0
M  V30 15313 C 1440.5 -0.610602 4.35844 0
M  V30 15314 H 1437.62 0.0411101 0.735853 0
M  V30 15315 H 1440.26 0.78481 1.73034 0
M  V30 15316 H 1438.41 -0.500511 3.85262 0
M  V30 15317 H 1440.08 2.0966 4.10902 0
M  V30 15318 H 1438.33 2.03319 3.83202 0
M  V30 15319 H 1439 1.40206 5.33897 0
M  V30 15320 H 1441.47 -0.121445 4.15923 0
M  V30 15321 H 1440.35 -0.603614 5.45571 0
M  V30 15322 H 1440.61 -1.6775 4.09038 0
M  V30 15323 N 1439.67 -1.53632 0.351409 0
M  V30 15324 C 1440.6 -2.2284 -0.536204 0
M  V30 15325 C 1441.61 -1.23765 -1.05764 0
M  V30 15326 O 1442.8 -1.50073 -0.966449 0
M  V30 15327 C 1439.9 -2.9013 -1.75151 0
M  V30 15328 C 1439.08 -4.15588 -1.36401 0
M  V30 15329 C 1438.14 -4.66217 -2.43984 0
M  V30 15330 O 1437.16 -5.3024 -2.06964 0
M  V30 15331 N 1438.36 -4.42817 -3.75358 0
M  V30 15332 H 1441.13 -2.99647 0.0565368 0
M  V30 15333 H 1438.69 -1.60942 0.175905 0
M  V30 15334 H 1440.68 -3.20913 -2.4657 0
M  V30 15335 H 1439.25 -2.16862 -2.25144 0
M  V30 15336 H 1438.47 -3.91264 -0.480258 0
M  V30 15337 H 1439.76 -4.97179 -1.08121 0
M  V30 15338 H 1439.16 -3.9163 -4.08218 0
M  V30 15339 H 1437.71 -4.78186 -4.42924 0
M  V30 15340 N 1441.15 -0.0802183 -1.57396 0
M  V30 15341 C 1442.06 0.898597 -2.16708 0
M  V30 15342 C 1443.07 1.321 -1.1325 0
M  V30 15343 O 1444.25 1.39197 -1.45554 0
M  V30 15344 C 1441.31 2.14501 -2.72379 0
M  V30 15345 C 1440.38 1.77822 -3.9074 0
M  V30 15346 C 1439.61 2.96521 -4.43747 0
M  V30 15347 O 1439.83 4.10797 -3.9573 0
M  V30 15348 O 1438.77 2.75849 -5.34968 0
M  V30 15349 H 1442.59 0.424027 -3.00725 0
M  V30 15350 H 1440.18 0.14332 -1.48711 0
M  V30 15351 H 1442.06 2.87575 -3.08024 0
M  V30 15352 H 1440.73 2.61039 -1.91416 0
M  V30 15353 H 1439.64 1.01974 -3.59934 0
M  V30 15354 H 1440.97 1.36059 -4.73021 0
M  V30 15355 N 1442.63 1.56409 0.193394 0
M  V30 15356 C 1443.87 1.79919 0.911712 0
M  V30 15357 C 1444.19 0.653729 1.84352 0
M  V30 15358 O 1445.39 0.773172 2.60258 0
M  V30 15359 C 1443.85 3.18726 1.67158 0
M  V30 15360 C 1443.46 4.41078 0.784512 0
M  V30 15361 C 1445.2 3.51544 2.37944 0
M  V30 15362 C 1443.11 5.70907 1.54335 0
M  V30 15363 H 1442.04 0.670864 0.344177 0
M  V30 15364 H 1444.69 1.82757 0.164967 0
M  V30 15365 H 1443.07 3.10142 2.46227 0
M  V30 15366 H 1444.25 4.60789 0.032356 0
M  V30 15367 H 1442.56 4.15978 0.187407 0
M  V30 15368 H 1445.16 4.45779 2.95271 0
M  V30 15369 H 1445.5 2.75369 3.12214 0
M  V30 15370 H 1446.03 3.61583 1.65839 0
M  V30 15371 H 1442.77 6.50052 0.843393 0
M  V30 15372 H 1442.29 5.5521 2.26939 0
M  V30 15373 H 1443.97 6.12085 2.09669 0
M  V30 15374 N 1444.1 -0.461169 1.50702 0
M  V30 15375 C 1445.05 -1.5579 1.70288 0
M  V30 15376 C 1446.02 -1.5693 0.544251 0
M  V30 15377 O 1447.21 -1.74308 0.77597 0
M  V30 15378 C 1444.35 -2.93694 1.81212 0
M  V30 15379 C 1443.46 -3.02267 3.0864 0
M  V30 15380 C 1442.59 -4.31147 3.103 0
M  V30 15381 C 1441.63 -4.33498 4.32141 0
M  V30 15382 N 1440.77 -5.53864 4.31484 0
M  V30 15383 H 1445.61 -1.38393 2.63915 0
M  V30 15384 H 1443.15 -0.6727 1.30817 0
M  V30 15385 H 1445.1 -3.73679 1.85526 0
M  V30 15386 H 1443.73 -3.09703 0.91015 0
M  V30 15387 H 1442.79 -2.15093 3.1375 0
M  V30 15388 H 1444.1 -2.99864 3.98601 0
M  V30 15389 H 1443.25 -5.19487 3.13398 0
M  V30 15390 H 1441.99 -4.36172 2.18186 0
M  V30 15391 H 1441 -3.43554 4.29245 0
M  V30 15392 H 1442.22 -4.30156 5.25493 0
M  V30 15393 H 1440.17 -5.59657 3.42229 0
M  V30 15394 H 1440.08 -5.53244 5.15225 0
M  V30 15395 H 1441.35 -6.44302 4.38742 0
M  V30 15396 N 1445.58 -1.40446 -0.715026 0
M  V30 15397 C 1446.49 -1.43074 -1.85922 0
M  V30 15398 C 1447.51 -0.323294 -1.7097 0
M  V30 15399 O 1448.68 -0.567966 -1.93226 0
M  V30 15400 C 1445.75 -1.29206 -3.21725 0
M  V30 15401 C 1444.81 -2.50097 -3.48927 0
M  V30 15402 C 1444.04 -2.36881 -4.7825 0
M  V30 15403 O 1444.27 -1.38292 -5.53382 0
M  V30 15404 O 1443.2 -3.26266 -5.058 0
M  V30 15405 H 1447.03 -2.39565 -1.86661 0
M  V30 15406 H 1444.61 -1.21775 -0.865522 0
M  V30 15407 H 1446.49 -1.23681 -4.02841 0
M  V30 15408 H 1445.17 -0.358207 -3.21712 0
M  V30 15409 H 1444.07 -2.61199 -2.67817 0
M  V30 15410 H 1445.41 -3.42244 -3.53737 0
M  V30 15411 N 1447.06 0.947303 -1.25952 0
M  V30 15412 C 1447.99 2.0487 -1.02767 0
M  V30 15413 C 1449 1.62797 0.00985984 0
M  V30 15414 O 1450.19 1.77018 -0.229527 0
M  V30 15415 C 1447.29 3.34682 -0.533048 0
M  V30 15416 C 1446.47 4.05555 -1.63841 0
M  V30 15417 C 1445.53 5.13638 -1.1429 0
M  V30 15418 O 1444.55 5.38682 -1.83876 0
M  V30 15419 N 1445.75 5.80499 0.0119377 0
M  V30 15420 H 1448.52 2.25327 -1.97605 0
M  V30 15421 H 1446.08 1.11636 -1.17256 0
M  V30 15422 H 1448.07 4.04273 -0.185868 0
M  V30 15423 H 1446.64 3.10941 0.321585 0
M  V30 15424 H 1445.86 3.29962 -2.15683 0
M  V30 15425 H 1447.15 4.49661 -2.38081 0
M  V30 15426 H 1446.55 5.62581 0.593212 0
M  V30 15427 H 1445.1 6.51109 0.30009 0
M  V30 15428 N 1448.54 1.07657 1.15099 0
M  V30 15429 C 1449.79 0.800025 1.85591 0
M  V30 15430 C 1450.11 -0.675973 1.82909 0
M  V30 15431 O 1449.38 -1.48971 1.27218 0
M  V30 15432 H 1447.96 0.292958 0.687157 0
M  V30 15433 H 1450.62 1.36096 1.39513 0
M  V30 15434 H 1449.72 1.13733 2.90639 0
M  V30 15435 N 1450.02 -1.31994 0.861122 0
M  V30 15436 C 1451.26 -1.97317 0.468371 0
M  V30 15437 C 1451.6 -1.67954 -0.974941 0
M  V30 15438 O 1450.87 -0.971243 -1.68514 0
M  V30 15439 C 1451.15 -3.52918 0.715607 0
M  V30 15440 C 1451.01 -3.91888 2.20781 0
M  V30 15441 C 1452.33 -4.39747 0.17624 0
M  V30 15442 H 1449.44 -0.716733 0.171646 0
M  V30 15443 H 1452.09 -1.56269 1.08074 0
M  V30 15444 H 1450.24 -3.88013 0.194387 0
M  V30 15445 H 1451.91 -3.66938 2.7956 0
M  V30 15446 H 1450.15 -3.40813 2.68382 0
M  V30 15447 H 1450.82 -5.00346 2.33147 0
M  V30 15448 H 1453.3 -4.11424 0.622043 0
M  V30 15449 H 1452.17 -5.47592 0.378748 0
M  V30 15450 H 1452.44 -4.32393 -0.921358 0
M  V30 15451 N 1451.49 -0.619688 -1.44906 0
M  V30 15452 C 1452.74 -0.119397 -2.01747 0
M  V30 15453 C 1453.06 1.25904 -1.48907 0
M  V30 15454 O 1452.33 1.83417 -0.688104 0
M  V30 15455 H 1450.91 -0.0411482 -0.745866 0
M  V30 15456 H 1453.58 -0.803813 -1.77552 0
M  V30 15457 H 1452.67 -0.078368 -3.12002 0
M  V30 15458 N 1452.97 1.53444 -0.359552 0
M  V30 15459 C 1453.9 2.28475 0.4818 0
M  V30 15460 C 1454.88 1.30664 1.08908 0
M  V30 15461 O 1456.07 1.59527 1.10746 0
M  V30 15462 C 1453.2 3.06951 1.62477 0
M  V30 15463 C 1452.15 4.12399 1.14504 0
M  V30 15464 C 1451.48 4.78922 2.37777 0
M  V30 15465 C 1452.78 5.21775 0.234075 0
M  V30 15466 H 1454.47 2.99053 -0.144162 0
M  V30 15467 H 1452.02 1.43826 -0.0707746 0
M  V30 15468 H 1453.97 3.58186 2.21993 0
M  V30 15469 H 1452.7 2.34053 2.27787 0
M  V30 15470 H 1451.35 3.62101 0.572589 0
M  V30 15471 H 1451 4.02602 3.0153 0
M  V30 15472 H 1450.7 5.50175 2.06353 0
M  V30 15473 H 1452.23 5.32948 2.97991 0
M  V30 15474 H 1453.64 5.68549 0.736548 0
M  V30 15475 H 1452.04 6.00099 0.0109887 0
M  V30 15476 H 1453.11 4.79443 -0.725435 0
M  V30 15477 N 1454.45 0.0885642 1.57351 0
M  V30 15478 C 1455.7 -0.57633 1.93291 0
M  V30 15479 C 1456.01 -1.69743 0.971934 0
M  V30 15480 O 1457.22 -2.42304 1.22479 0
M  V30 15481 C 1455.67 -1.07655 3.43422 0
M  V30 15482 C 1455.28 0.0144488 4.47998 0
M  V30 15483 C 1457.03 -1.71455 3.88334 0
M  V30 15484 C 1454.93 -0.500758 5.89276 0
M  V30 15485 H 1453.86 -0.219055 0.721478 0
M  V30 15486 H 1456.51 0.163511 1.8277 0
M  V30 15487 H 1454.9 -1.86988 3.49072 0
M  V30 15488 H 1456.07 0.789696 4.53983 0
M  V30 15489 H 1454.39 0.557237 4.12655 0
M  V30 15490 H 1456.98 -2.11063 4.91281 0
M  V30 15491 H 1457.33 -2.58116 3.26621 0
M  V30 15492 H 1457.86 -0.987159 3.85357 0
M  V30 15493 H 1454.6 0.329088 6.54673 0
M  V30 15494 H 1454.12 -1.24315 5.86776 0
M  V30 15495 H 1455.8 -0.971821 6.3966 0
M  V30 15496 N 1455.93 -1.56509 -0.185096 0
M  V30 15497 C 1456.89 -1.94468 -1.21305 0
M  V30 15498 C 1457.89 -0.826838 -1.37913 0
M  V30 15499 O 1459.08 -1.09411 -1.35554 0
M  V30 15500 C 1456.21 -2.22747 -2.58063 0
M  V30 15501 H 1457.41 -2.86442 -0.888323 0
M  V30 15502 H 1454.96 -1.50354 -0.427012 0
M  V30 15503 H 1455.69 -1.33443 -2.95573 0
M  V30 15504 H 1455.48 -3.04215 -2.47378 0
M  V30 15505 H 1456.97 -2.53084 -3.32172 0
M  V30 15506 N 1457.41 0.45317 -1.50944 0
M  V30 15507 C 1458.32 1.57435 -1.73929 0
M  V30 15508 C 1459.33 1.62467 -0.622935 0
M  V30 15509 O 1460.51 1.80004 -0.903365 0
M  V30 15510 C 1457.57 2.93534 -1.84495 0
M  V30 15511 C 1456.63 2.98747 -3.083 0
M  V30 15512 C 1455.87 4.28354 -3.18352 0
M  V30 15513 O 1456.09 5.1986 -2.34738 0
M  V30 15514 O 1455.02 4.39527 -4.11217 0
M  V30 15515 H 1458.85 1.40959 -2.69006 0
M  V30 15516 H 1456.44 0.634545 -1.35255 0
M  V30 15517 H 1458.32 3.74336 -1.93522 0
M  V30 15518 H 1456.99 3.10171 -0.926044 0
M  V30 15519 H 1455.9 2.16958 -3.04762 0
M  V30 15520 H 1457.23 2.87051 -3.99828 0
M  V30 15521 N 1458.88 1.40823 0.707568 0
M  V30 15522 C 1460.12 1.40992 1.47989 0
M  V30 15523 C 1460.49 0.0138056 1.91995 0
M  V30 15524 O 1461.69 -0.109666 2.68576 0
M  V30 15525 C 1459.96 2.37857 2.66756 0
M  V30 15526 S 1461.52 2.56453 3.56058 0
M  V30 15527 H 1458.34 0.499622 0.505864 0
M  V30 15528 H 1460.94 1.77161 0.826703 0
M  V30 15529 H 1459.64 3.38113 2.32611 0
M  V30 15530 H 1459.17 2.03 3.36979 0
M  V30 15531 H 1461.19 1.82294 4.61501 0
M  V30 15532 N 1460.36 -0.94061 1.26453 0
M  V30 15533 C 1461.78 -1.21424 1.03578 0
M  V30 15534 C 1461.98 -2.00081 -0.238726 0
M  V30 15535 O 1461.03 -2.3404 -0.947709 0
M  V30 15536 C 1462.35 -1.97496 2.26751 0
M  V30 15537 C 1463.9 -2.10485 2.31657 0
M  V30 15538 C 1464.37 -2.89959 3.54525 0
M  V30 15539 N 1465.86 -2.97533 3.55005 0
M  V30 15540 C 1466.6 -3.59456 4.46742 0
M  V30 15541 N 1466.09 -4.22876 5.48769 0
M  V30 15542 N 1467.89 -3.56734 4.34393 0
M  V30 15543 H 1460.04 -0.414788 2.08311 0
M  V30 15544 H 1462.3 -0.246047 0.915513 0
M  V30 15545 H 1462.01 -1.47109 3.19456 0
M  V30 15546 H 1461.88 -2.98159 2.31043 0
M  V30 15547 H 1464.27 -2.60064 1.39466 0
M  V30 15548 H 1464.35 -1.09082 2.31376 0
M  V30 15549 H 1463.99 -2.41067 4.47045 0
M  V30 15550 H 1463.92 -3.91619 3.52054 0
M  V30 15551 H 1466.41 -2.52446 2.81211 0
M  V30 15552 H 1466.73 -4.68026 6.14956 0
M  V30 15553 H 1465.07 -4.21461 5.52626 0
M  V30 15554 H 1468.26 -3.06381 3.53904 0
M  V30 15555 H 1468.43 -4.04706 5.0608 0
M  V30 15556 N 1461.84 -1.08266 -1.14527 0
M  V30 15557 C 1463.07 -0.83288 -1.89396 0
M  V30 15558 C 1463.48 0.614823 -1.78509 0
M  V30 15559 O 1462.84 1.42239 -1.14343 0
M  V30 15560 C 1462.89 -1.244 -3.39421 0
M  V30 15561 O 1462.61 -2.63491 -3.50006 0
M  V30 15562 C 1464.11 -1.02488 -4.3129 0
M  V30 15563 H 1461.33 -0.300474 -0.599964 0
M  V30 15564 H 1463.88 -1.44155 -1.4505 0
M  V30 15565 H 1462.03 -0.679466 -3.81395 0
M  V30 15566 H 1462.45 -2.80517 -4.43182 0
M  V30 15567 H 1463.92 -1.36194 -5.34935 0
M  V30 15568 H 1464.4 0.0381961 -4.39183 0
M  V30 15569 H 1465 -1.57477 -3.95071 0
M  V30 15570 N 1463.32 1.31536 -0.86811 0
M  V30 15571 C 1464.57 1.96775 -0.47812 0
M  V30 15572 C 1464.89 1.68632 0.9692 0
M  V30 15573 O 1464.15 0.974357 1.6972 0
M  V30 15574 C 1464.45 3.50876 -0.679752 0
M  V30 15575 C 1464.11 3.99034 -2.09958 0
M  V30 15576 C 1462.78 4.11896 -2.48787 0
M  V30 15577 C 1465.13 4.24387 -3.02564 0
M  V30 15578 C 1462.46 4.47461 -3.79468 0
M  V30 15579 C 1464.81 4.61415 -4.32757 0
M  V30 15580 C 1463.47 4.72484 -4.71503 0
M  V30 15581 H 1462.74 0.720049 -0.174957 0
M  V30 15582 H 1465.39 1.56703 -1.10074 0
M  V30 15583 H 1463.69 3.91791 0.0260174 0
M  V30 15584 H 1465.39 3.994 -0.357855 0
M  V30 15585 H 1461.98 3.89518 -1.78811 0
M  V30 15586 H 1466.17 4.13947 -2.73791 0
M  V30 15587 H 1461.42 4.54227 -4.09252 0
M  V30 15588 H 1465.6 4.79985 -5.04566 0
M  V30 15589 H 1463.22 4.99798 -5.72806 0
M  V30 15590 N 1464.8 0.627364 1.44575 0
M  V30 15591 C 1465.73 -0.066735 2.33405 0
M  V30 15592 C 1466.71 -0.838666 1.47988 0
M  V30 15593 O 1467.89 -0.805296 1.76716 0
M  V30 15594 C 1465.02 -1.05148 3.31 0
M  V30 15595 C 1463.98 -0.391433 4.26206 0
M  V30 15596 C 1463.3 -1.48581 5.13642 0
M  V30 15597 C 1464.6 0.699942 5.17589 0
M  V30 15598 H 1466.3 0.675029 2.91691 0
M  V30 15599 H 1463.84 0.326066 1.4026 0
M  V30 15600 H 1465.8 -1.54576 3.92026 0
M  V30 15601 H 1464.52 -1.82408 2.70915 0
M  V30 15602 H 1463.18 0.0821694 3.66508 0
M  V30 15603 H 1462.83 -2.2492 4.49911 0
M  V30 15604 H 1462.53 -1.04957 5.7815 0
M  V30 15605 H 1464.05 -1.98198 5.77538 0
M  V30 15606 H 1465.47 0.288911 5.72572 0
M  V30 15607 H 1463.86 1.0591 5.9068 0
M  V30 15608 H 1464.93 1.5686 4.58828 0
M  V30 15609 N 1466.28 -1.53251 0.367684 0
M  V30 15610 C 1467.55 -1.93617 -0.277842 0
M  V30 15611 C 1467.93 -1.3014 -1.66213 0
M  V30 15612 O 1467.28 -0.461277 -2.23796 0
M  V30 15613 C 1467.49 -3.47475 -0.325937 0
M  V30 15614 C 1468.84 -4.2082 -0.565276 0
M  V30 15615 O 1469.86 -3.53866 -0.407057 0
M  V30 15616 O 1468.72 -5.39474 -0.873522 0
M  V30 15617 H 1465.82 -0.80993 -0.167158 0
M  V30 15618 H 1468.36 -1.64405 0.420621 0
M  V30 15619 H 1467.13 -3.85955 0.644542 0
M  V30 15620 H 1466.76 -3.82926 -1.07021 0
M  V30 15621 N 1467.75 -0.0969077 -1.57302 0
M  V30 15622 C 1468.98 0.578086 -1.99181 0
M  V30 15623 C 1469.4 1.60818 -0.975667 0
M  V30 15624 O 1468.76 1.81215 0.0556054 0
M  V30 15625 C 1468.81 1.20076 -3.40021 0
M  V30 15626 O 1467.91 2.31656 -3.41188 0
M  V30 15627 H 1467.25 0.146506 -0.647636 0
M  V30 15628 H 1469.78 -0.178855 -2.03817 0
M  V30 15629 H 1469.79 1.54162 -3.77754 0
M  V30 15630 H 1468.47 0.446114 -4.135 0
M  V30 15631 H 1467.05 1.99175 -3.15252 0
M  V30 15632 N 1469.23 1.56605 0.176793 0
M  V30 15633 C 1470.48 1.80875 0.892578 0
M  V30 15634 C 1470.79 0.673245 1.83648 0
M  V30 15635 O 1472 0.800732 2.59423 0
M  V30 15636 C 1470.46 3.20481 1.63768 0
M  V30 15637 C 1470.06 4.41885 0.737685 0
M  V30 15638 C 1471.81 3.54048 2.34202 0
M  V30 15639 C 1469.71 5.72512 1.48271 0
M  V30 15640 H 1468.64 0.674476 0.337042 0
M  V30 15641 H 1471.3 1.82922 0.145574 0
M  V30 15642 H 1469.68 3.12736 2.42924 0
M  V30 15643 H 1470.85 4.60797 -0.0165186 0
M  V30 15644 H 1469.17 4.16153 0.143277 0
M  V30 15645 H 1471.76 4.48886 2.90526 0
M  V30 15646 H 1472.11 2.78665 3.09276 0
M  V30 15647 H 1472.64 3.63322 1.61995 0
M  V30 15648 H 1469.38 6.5091 0.774399 0
M  V30 15649 H 1468.9 5.57586 2.21038 0
M  V30 15650 H 1470.58 6.14274 2.03165 0
M  V30 15651 N 1470.71 -0.445159 1.51182 0
M  V30 15652 C 1471.67 -1.52224 1.71349 0
M  V30 15653 C 1472.67 -1.49834 0.583632 0
M  V30 15654 O 1473.86 -1.51995 0.85107 0
M  V30 15655 C 1470.99 -2.91789 1.76273 0
M  V30 15656 H 1472.19 -1.35649 2.67468 0
M  V30 15657 H 1469.74 -0.673312 1.41054 0
M  V30 15658 H 1470.48 -3.13777 0.819405 0
M  V30 15659 H 1470.26 -2.94928 2.58379 0
M  V30 15660 H 1471.75 -3.69938 1.93741 0
M  V30 15661 N 1472.19 -1.41197 -0.700089 0
M  V30 15662 C 1473.44 -1.40034 -1.45722 0
M  V30 15663 C 1473.76 -0.00876281 -1.94998 0
M  V30 15664 O 1473.03 0.948647 -1.71399 0
M  V30 15665 H 1471.61 -0.515433 -0.540683 0
M  V30 15666 H 1474.27 -1.76394 -0.828926 0
M  V30 15667 H 1473.36 -2.08477 -2.32258 0
M  V30 15668 N 1473.67 0.933891 -1.2695 0
M  V30 15669 C 1474.89 1.71512 -1.15721 0
M  V30 15670 C 1475.31 1.8661 0.286712 0
M  V30 15671 O 1474.67 1.3787 1.19574 0
M  V30 15672 C 1474.72 3.11804 -1.82922 0
M  V30 15673 O 1474.44 2.97421 -3.21672 0
M  V30 15674 C 1475.94 4.06108 -1.7774 0
M  V30 15675 H 1473.16 0.53678 -0.402626 0
M  V30 15676 H 1475.7 1.17025 -1.67706 0
M  V30 15677 H 1473.86 3.6317 -1.34856 0
M  V30 15678 H 1474.27 3.86069 -3.55037 0
M  V30 15679 H 1475.75 5.02082 -2.29385 0
M  V30 15680 H 1476.22 4.32828 -0.74543 0
M  V30 15681 H 1476.83 3.60665 -2.25391 0
M  V30 15682 N 1475.14 1.08871 1.13951 0
M  V30 15683 C 1476.07 0.744715 2.21306 0
M  V30 15684 C 1477.05 -0.275019 1.67862 0
M  V30 15685 O 1478.24 -0.144339 1.93663 0
M  V30 15686 C 1475.37 0.158336 3.46939 0
M  V30 15687 C 1474.32 1.10695 4.13438 0
M  V30 15688 C 1473.65 0.382552 5.3333 0
M  V30 15689 C 1474.95 2.44704 4.61429 0
M  V30 15690 H 1476.64 1.6423 2.50337 0
M  V30 15691 H 1474.19 0.791088 1.20324 0
M  V30 15692 H 1476.14 -0.0943587 4.21294 0
M  V30 15693 H 1474.87 -0.774413 3.17286 0
M  V30 15694 H 1473.53 1.34482 3.41043 0
M  V30 15695 H 1473.17 -0.554153 4.99938 0
M  V30 15696 H 1472.87 1.01499 5.78767 0
M  V30 15697 H 1474.4 0.138023 6.10444 0
M  V30 15698 H 1475.81 2.25156 5.27236 0
M  V30 15699 H 1474.21 3.03684 5.17586 0
M  V30 15700 H 1475.28 3.05883 3.76249 0
M  V30 15701 N 1476.62 -1.31073 0.875073 0
M  V30 15702 C 1477.57 -2.28389 0.332718 0
M  V30 15703 C 1478.54 -1.55954 -0.571639 0
M  V30 15704 O 1479.72 -1.84073 -0.502185 0
M  V30 15705 C 1476.86 -3.42083 -0.455364 0
M  V30 15706 C 1475.98 -4.29358 0.477088 0
M  V30 15707 C 1475.11 -5.30201 -0.325619 0
M  V30 15708 C 1474.15 -6.09123 0.602935 0
M  V30 15709 N 1473.29 -7.01909 -0.163836 0
M  V30 15710 H 1478.13 -2.74166 1.16777 0
M  V30 15711 H 1475.66 -1.3487 0.587248 0
M  V30 15712 H 1477.62 -4.06746 -0.928104 0
M  V30 15713 H 1476.25 -2.97402 -1.25507 0
M  V30 15714 H 1475.3 -3.65091 1.06829 0
M  V30 15715 H 1476.62 -4.84425 1.18887 0
M  V30 15716 H 1475.77 -6.00565 -0.860647 0
M  V30 15717 H 1474.51 -4.75802 -1.07067 0
M  V30 15718 H 1473.51 -5.37645 1.14968 0
M  V30 15719 H 1474.74 -6.65609 1.34692 0
M  V30 15720 H 1472.69 -6.49913 -0.891604 0
M  V30 15721 H 1472.6 -7.5442 0.48851 0
M  V30 15722 H 1473.87 -7.76529 -0.679929 0
M  V30 15723 N 1478.1 -0.635022 -1.4424 0
M  V30 15724 C 1479.33 -0.146549 -2.06882 0
M  V30 15725 C 1479.75 1.17143 -1.4717 0
M  V30 15726 O 1479.11 1.71952 -0.574636 0
M  V30 15727 C 1479.16 -0.0494694 -3.60566 0
M  V30 15728 O 1478.26 0.993423 -4.00256 0
M  V30 15729 H 1477.6 -0.0865505 -0.658335 0
M  V30 15730 H 1480.13 -0.872803 -1.85049 0
M  V30 15731 H 1480.14 0.139839 -4.0776 0
M  V30 15732 H 1478.82 -1.01169 -4.03407 0
M  V30 15733 H 1477.39 0.778372 -3.64686 0
M  V30 15734 N 1479.58 1.53054 -0.375806 0
M  V30 15735 C 1480.51 2.22437 0.509628 0
M  V30 15736 C 1481.49 1.22005 1.07488 0
M  V30 15737 O 1482.67 1.50944 1.12907 0
M  V30 15738 C 1479.8 2.92707 1.70412 0
M  V30 15739 C 1478.85 4.07296 1.26538 0
M  V30 15740 S 1479.68 5.34877 0.258143 0
M  V30 15741 C 1480.84 6.08664 1.45873 0
M  V30 15742 H 1481.07 2.97193 -0.0795937 0
M  V30 15743 H 1478.6 1.53569 -0.159942 0
M  V30 15744 H 1480.56 3.33805 2.38924 0
M  V30 15745 H 1479.22 2.17655 2.26462 0
M  V30 15746 H 1478.41 4.55516 2.15687 0
M  V30 15747 H 1478.02 3.68142 0.659356 0
M  V30 15748 H 1480.31 6.34016 2.38808 0
M  V30 15749 H 1481.25 7.00748 1.01772 0
M  V30 15750 H 1481.66 5.3925 1.66942 0
M  V30 15751 N 1481.06 0.105248 1.57248 0
M  V30 15752 C 1481.99 -0.886904 2.1026 0
M  V30 15753 C 1482.97 -1.26981 1.01561 0
M  V30 15754 O 1484.15 -1.37327 1.29126 0
M  V30 15755 C 1481.28 -2.18499 2.58797 0
M  V30 15756 C 1480.32 -1.95119 3.79251 0
M  V30 15757 S 1481.16 -1.17995 5.22338 0
M  V30 15758 C 1482.31 -2.49012 5.74233 0
M  V30 15759 H 1482.55 -0.435954 2.94086 0
M  V30 15760 H 1480.08 -0.108251 1.5402 0
M  V30 15761 H 1482.04 -2.93089 2.87418 0
M  V30 15762 H 1480.7 -2.60714 1.75178 0
M  V30 15763 H 1479.89 -2.91268 4.11314 0
M  V30 15764 H 1479.49 -1.28654 3.51175 0
M  V30 15765 H 1481.79 -3.44932 5.83119 0
M  V30 15766 H 1482.73 -2.21513 6.7256 0
M  V30 15767 H 1483.14 -2.5775 5.0222 0
M  V30 15768 N 1482.53 -1.56697 -0.168486 0
M  V30 15769 C 1483.78 -1.82154 -0.884654 0
M  V30 15770 C 1484.11 -0.682778 -1.82122 0
M  V30 15771 O 1483.36 0.32977 -1.92902 0
M  V30 15772 C 1483.66 -3.138 -1.71068 0
M  V30 15773 C 1483.33 -4.41356 -0.922793 0
M  V30 15774 C 1481.99 -4.76002 -0.705352 0
M  V30 15775 C 1484.34 -5.19883 -0.370323 0
M  V30 15776 C 1481.67 -5.86651 0.0756121 0
M  V30 15777 C 1484.02 -6.31349 0.397568 0
M  V30 15778 C 1482.69 -6.6456 0.625782 0
M  V30 15779 H 1481.96 -0.666549 -0.323718 0
M  V30 15780 H 1484.6 -1.90916 -0.149432 0
M  V30 15781 H 1482.91 -3.00393 -2.51538 0
M  V30 15782 H 1484.61 -3.30708 -2.2679 0
M  V30 15783 H 1481.2 -4.14182 -1.10231 0
M  V30 15784 H 1485.38 -4.93509 -0.525646 0
M  V30 15785 H 1480.64 -6.10838 0.262137 0
M  V30 15786 H 1484.81 -6.91401 0.832902 0
M  V30 15787 H 1482.44 -7.50137 1.23281 0
M  V30 15788 N 1484.01 0.437135 -1.51416 0
M  V30 15789 C 1485.26 1.18421 -1.63771 0
M  V30 15790 C 1485.58 1.91718 -0.356282 0
M  V30 15791 O 1484.85 1.85566 0.627863 0
M  V30 15792 H 1483.43 0.440125 -0.603572 0
M  V30 15793 H 1486.09 0.501155 -1.88347 0
M  V30 15794 H 1485.19 1.91367 -2.46546 0
M  V30 15795 N 1485.49 1.41566 0.692592 0
M  V30 15796 C 1486.74 1.41083 1.45265 0
M  V30 15797 C 1487.07 0.0209998 1.94489 0
M  V30 15798 O 1486.32 -0.96764 1.70104 0
M  V30 15799 C 1486.62 2.36683 2.67799 0
M  V30 15800 C 1486.29 3.83458 2.37215 0
M  V30 15801 C 1484.95 4.23441 2.28585 0
M  V30 15802 C 1487.3 4.76114 2.12048 0
M  V30 15803 C 1484.63 5.54086 1.92888 0
M  V30 15804 C 1486.98 6.07082 1.7786 0
M  V30 15805 C 1485.64 6.46083 1.67727 0
M  V30 15806 H 1484.91 0.51626 0.531561 0
M  V30 15807 H 1487.56 1.74385 0.791337 0
M  V30 15808 H 1485.87 1.96645 3.38877 0
M  V30 15809 H 1487.56 2.33581 3.25946 0
M  V30 15810 H 1484.15 3.51792 2.44828 0
M  V30 15811 H 1488.34 4.46025 2.17659 0
M  V30 15812 H 1483.59 5.83182 1.83599 0
M  V30 15813 H 1487.77 6.78378 1.57407 0
M  V30 15814 H 1485.39 7.47228 1.39836 0
M  V30 15815 N 1486.97 -0.927146 1.27443 0
M  V30 15816 C 1487.92 -2.01402 1.06871 0
M  V30 15817 C 1488.9 -1.609 -0.00345395 0
M  V30 15818 O 1490.09 -1.75688 0.215147 0
M  V30 15819 C 1487.22 -3.35697 0.718508 0
M  V30 15820 C 1486.31 -3.82641 1.82884 0
M  V30 15821 N 1486.7 -4.02091 3.06849 0
M  V30 15822 C 1485 -4.11682 1.71564 0
M  V30 15823 C 1485.7 -4.41195 3.79107 0
M  V30 15824 N 1484.68 -4.48697 3.06874 0
M  V30 15825 H 1488.48 -2.14471 2.00946 0
M  V30 15826 H 1485.99 -1.11402 1.18166 0
M  V30 15827 H 1487.99 -4.13226 0.552238 0
M  V30 15828 H 1486.65 -3.2399 -0.214622 0
M  V30 15829 H 1487.66 -3.88384 3.42605 0
M  V30 15830 H 1484.34 -4.08685 0.853381 0
M  V30 15831 H 1485.73 -4.64318 4.85653 0
M  V30 15832 N 1488.45 -1.09474 -1.13372 0
M  V30 15833 C 1489.4 -0.704018 -2.16858 0
M  V30 15834 C 1490.38 0.281867 -1.58412 0
M  V30 15835 O 1491.57 0.0921582 -1.7676 0
M  V30 15836 C 1488.7 -0.126682 -3.43066 0
M  V30 15837 C 1487.79 -1.13901 -4.08518 0
M  V30 15838 N 1488.18 -2.3263 -4.49129 0
M  V30 15839 C 1486.48 -0.977263 -4.35162 0
M  V30 15840 C 1487.18 -2.9703 -5.00148 0
M  V30 15841 N 1486.15 -2.24588 -4.95037 0
M  V30 15842 H 1489.96 -1.60796 -2.46012 0
M  V30 15843 H 1487.47 -0.97103 -1.30172 0
M  V30 15844 H 1489.47 0.171257 -4.16548 0
M  V30 15845 H 1488.13 0.772105 -3.15386 0
M  V30 15846 H 1489.14 -2.70218 -4.41817 0
M  V30 15847 H 1485.81 -0.1332 -4.17287 0
M  V30 15848 H 1487.2 -3.97966 -5.41362 0
M  V30 15849 N 1489.92 1.30607 -0.882012 0
M  V30 15850 C 1491.15 2.00954 -0.513048 0
M  V30 15851 C 1491.57 1.65697 0.890279 0
M  V30 15852 O 1490.93 0.872001 1.58952 0
M  V30 15853 C 1490.98 3.53907 -0.691525 0
M  V30 15854 O 1490.08 4.11555 0.263896 0
M  V30 15855 H 1489.43 0.632356 -0.202537 0
M  V30 15856 H 1491.96 1.66524 -1.18874 0
M  V30 15857 H 1491.97 4.0372 -0.589392 0
M  V30 15858 H 1490.64 3.78907 -1.71471 0
M  V30 15859 H 1489.22 3.7272 0.115707 0
M  V30 15860 N 1491.4 0.642663 1.43901 0
M  V30 15861 C 1492.65 0.152003 2.0223 0
M  V30 15862 C 1492.98 -1.22711 1.50518 0
M  V30 15863 O 1492.26 -1.817 0.693937 0
M  V30 15864 C 1492.54 0.151278 3.59782 0
M  V30 15865 C 1492.39 1.56356 4.2175 0
M  V30 15866 C 1493.71 -0.518016 4.37041 0
M  V30 15867 H 1490.83 0.0567094 0.734815 0
M  V30 15868 H 1493.47 0.821337 1.7133 0
M  V30 15869 H 1491.62 -0.418679 3.86237 0
M  V30 15870 H 1493.29 2.18329 4.06362 0
M  V30 15871 H 1491.54 2.11401 3.78803 0
M  V30 15872 H 1492.21 1.51499 5.30803 0
M  V30 15873 H 1494.68 -0.0331947 4.16087 0
M  V30 15874 H 1493.56 -0.487754 5.46729 0
M  V30 15875 H 1493.82 -1.59036 4.12504 0
M  V30 15876 N 1492.88 -1.52852 0.383918 0
M  V30 15877 C 1494.11 -2.05929 -0.200216 0
M  V30 15878 C 1494.52 -1.25606 -1.40956 0
M  V30 15879 O 1493.88 -0.301336 -1.79995 0
M  V30 15880 C 1493.93 -3.56887 -0.575655 0
M  V30 15881 O 1493.65 -4.34168 0.58564 0
M  V30 15882 C 1495.15 -4.2629 -1.21623 0
M  V30 15883 H 1492.37 -0.670261 -0.0314727 0
M  V30 15884 H 1494.92 -1.97032 0.547591 0
M  V30 15885 H 1493.07 -3.65875 -1.27336 0
M  V30 15886 H 1493.49 -5.23761 0.278267 0
M  V30 15887 H 1494.96 -5.33174 -1.42933 0
M  V30 15888 H 1495.44 -3.81163 -2.182 0
M  V30 15889 H 1496.04 -4.21605 -0.559435 0
M  V30 15890 N 1494.36 -0.113586 -1.5719 0
M  V30 15891 C 1495.61 0.546529 -1.95297 0
M  V30 15892 C 1495.94 1.66674 -0.996671 0
M  V30 15893 O 1495.21 1.94472 -0.0329298 0
M  V30 15894 C 1495.5 1.08433 -3.43387 0
M  V30 15895 C 1495.35 -0.0320929 -4.49789 0
M  V30 15896 C 1496.67 1.97691 -3.932 0
M  V30 15897 H 1493.79 0.197195 -0.710129 0
M  V30 15898 H 1496.43 -0.188048 -1.89067 0
M  V30 15899 H 1494.58 1.71033 -3.48827 0
M  V30 15900 H 1496.25 -0.66716 -4.5645 0
M  V30 15901 H 1494.49 -0.695983 -4.2818 0
M  V30 15902 H 1495.17 0.385341 -5.50653 0
M  V30 15903 H 1497.64 1.4497 -3.90029 0
M  V30 15904 H 1496.52 2.3224 -4.97349 0
M  V30 15905 H 1496.78 2.90137 -3.33576 0
M  V30 15906 N 1495.84 1.56784 0.160173 0
M  V30 15907 C 1496.75 2.00514 1.21783 0
M  V30 15908 C 1497.76 0.918341 1.47792 0
M  V30 15909 O 1498.94 1.22683 1.59721 0
M  V30 15910 C 1496 2.36575 2.53443 0
M  V30 15911 C 1495.07 3.59138 2.35198 0
M  V30 15912 C 1494.3 3.93469 3.6058 0
M  V30 15913 O 1494.52 3.28625 4.6622 0
M  V30 15914 O 1493.46 4.86774 3.54027 0
M  V30 15915 H 1497.28 2.90774 0.876607 0
M  V30 15916 H 1494.87 1.44799 0.367897 0
M  V30 15917 H 1496.75 2.60687 3.31089 0
M  V30 15918 H 1495.42 1.49474 2.87122 0
M  V30 15919 H 1494.33 3.4023 1.55546 0
M  V30 15920 H 1495.66 4.46815 2.0644 0
M  V30 15921 N 1497.32 -0.429099 1.51646 0
M  V30 15922 C 1498.56 -1.17482 1.63954 0
M  V30 15923 C 1498.88 -1.92152 0.36565 0
M  V30 15924 O 1500.08 -2.68991 0.368221 0
M  V30 15925 C 1498.54 -2.13703 2.89585 0
M  V30 15926 C 1498.15 -1.44642 4.24008 0
M  V30 15927 C 1499.89 -2.88657 3.11252 0
M  V30 15928 C 1497.8 -2.39395 5.40781 0
M  V30 15929 H 1496.73 -0.442234 0.610692 0
M  V30 15930 H 1499.38 -0.441088 1.7812 0
M  V30 15931 H 1497.76 -2.90545 2.69071 0
M  V30 15932 H 1498.94 -0.733012 4.54932 0
M  V30 15933 H 1497.25 -0.818084 4.08285 0
M  V30 15934 H 1499.85 -3.59653 3.95669 0
M  V30 15935 H 1500.19 -3.50473 2.24664 0
M  V30 15936 H 1500.72 -2.18919 3.32144 0
M  V30 15937 H 1497.46 -1.82255 6.29653 0
M  V30 15938 H 1496.98 -3.08766 5.14222 0
M  V30 15939 H 1498.66 -3.0035 5.73061 0
M  V30 15940 N 1498.79 -1.41931 -0.685074 0
M  V30 15941 C 1500.04 -1.41147 -1.44085 0
M  V30 15942 C 1500.36 -0.0275793 -1.95581 0
M  V30 15943 O 1501.56 0.102873 -2.71305 0
M  V30 15944 C 1500.02 -2.4823 -2.60596 0
M  V30 15945 C 1499.63 -3.92576 -2.15842 0
M  V30 15946 C 1501.37 -2.56597 -3.38169 0
M  V30 15947 C 1499.28 -4.91189 -3.29374 0
M  V30 15948 H 1498.21 -0.52494 -0.541252 0
M  V30 15949 H 1500.86 -1.67798 -0.7427 0
M  V30 15950 H 1499.24 -2.14727 -3.32729 0
M  V30 15951 H 1500.41 -4.35381 -1.50929 0
M  V30 15952 H 1498.73 -3.87965 -1.51235 0
M  V30 15953 H 1501.33 -3.27453 -4.22704 0
M  V30 15954 H 1501.67 -1.60618 -3.84067 0
M  V30 15955 H 1502.2 -2.89244 -2.73099 0
M  V30 15956 H 1498.94 -5.88609 -2.88477 0
M  V30 15957 H 1498.46 -4.53024 -3.93102 0
M  V30 15958 H 1500.14 -5.12433 -3.94996 0
M  V30 15959 N 1500.27 0.920374 -1.27933 0
M  V30 15960 C 1501.22 2.04331 -1.11138 0
M  V30 15961 C 1502.21 1.69369 -0.0324493 0
M  V30 15962 O 1503.42 1.78987 -0.190723 0
M  V30 15963 H 1499.79 0.669381 -0.342685 0
M  V30 15964 H 1501.77 2.15641 -2.06256 0
M  V30 15965 C 1500.51 3.38768 -0.783049 0
M  V30 15966 H 1499.84 3.6616 -1.60521 0
M  V30 15967 H 1501.28 4.1809 -0.705448 0
M  V30 15968 C 1499.74 3.32972 0.512927 0
M  V30 15969 O 1500.27 3.70792 1.54519 0
M  V30 15970 N 1498.47 2.86068 0.511232 0
M  V30 15971 H 1498.02 2.55487 -0.329229 0
M  V30 15972 H 1497.98 2.82573 1.3784 0
M  V30 15973 N 1501.75 1.10074 1.1279 0
M  V30 15974 C 1502.98 0.862906 1.88047 0
M  V30 15975 C 1503.39 -0.586346 1.79464 0
M  V30 15976 O 1502.75 -1.40402 1.16591 0
M  V30 15977 C 1502.8 1.29784 3.37399 0
M  V30 15978 O 1502.52 2.69026 3.4577 0
M  V30 15979 C 1504.02 1.09336 4.29605 0
M  V30 15980 H 1501.24 0.309981 0.595108 0
M  V30 15981 H 1503.79 1.46444 1.42738 0
M  V30 15982 H 1501.94 0.740056 3.80266 0
M  V30 15983 H 1502.36 2.87532 4.38663 0
M  V30 15984 H 1503.83 1.44687 5.327 0
M  V30 15985 H 1504.31 0.031679 4.39189 0
M  V30 15986 H 1504.91 1.63743 3.92516 0
M  V30 15987 N 1503.23 -1.30138 0.888926 0
M  V30 15988 C 1504.47 -1.96279 0.51012 0
M  V30 15989 C 1504.81 -1.69984 -0.939096 0
M  V30 15990 O 1504.08 -1.00677 -1.66416 0
M  V30 15991 C 1504.36 -3.51321 0.790305 0
M  V30 15992 C 1504.22 -3.87116 2.29044 0
M  V30 15993 C 1505.54 -4.39274 0.269477 0
M  V30 15994 H 1502.66 -0.712931 0.18681 0
M  V30 15995 H 1505.3 -1.53942 1.11364 0
M  V30 15996 H 1503.45 -3.87514 0.276647 0
M  V30 15997 H 1505.12 -3.60926 2.87281 0
M  V30 15998 H 1503.36 -3.35044 2.7555 0
M  V30 15999 H 1504.03 -4.95288 2.43708 0
M  V30 16000 H 1506.51 -4.10012 0.709173 0
M  V30 16001 H 1505.39 -5.46665 0.494815 0
M  V30 16002 H 1505.65 -4.3425 -0.829434 0
M  V30 16003 N 1504.71 -0.650285 -1.43559 0
M  V30 16004 C 1505.64 0.0295939 -2.33481 0
M  V30 16005 C 1506.62 0.815017 -1.49303 0
M  V30 16006 O 1507.8 0.77708 -1.77975 0
M  V30 16007 C 1504.93 0.998683 -3.32631 0
M  V30 16008 C 1503.89 0.323577 -4.26775 0
M  V30 16009 C 1503.21 1.40391 -5.1594 0
M  V30 16010 C 1504.51 -0.782197 -5.1641 0
M  V30 16011 H 1506.21 -0.721349 -2.9058 0
M  V30 16012 H 1503.75 -0.348339 -1.39723 0
M  V30 16013 H 1505.7 1.4832 -3.94435 0
M  V30 16014 H 1504.43 1.78075 -2.73782 0
M  V30 16015 H 1503.09 -0.140467 -3.66331 0
M  V30 16016 H 1502.74 2.17734 -4.53432 0
M  V30 16017 H 1502.44 0.957462 -5.79747 0
M  V30 16018 H 1503.96 1.88985 -5.80618 0
M  V30 16019 H 1505.37 -0.379966 -5.72039 0
M  V30 16020 H 1503.77 -1.15293 -5.88921 0
M  V30 16021 H 1504.84 -1.6414 -4.56274 0
M  V30 16022 N 1506.18 1.52647 -0.392018 0
M  V30 16023 C 1507.42 2.03524 0.189041 0
M  V30 16024 C 1507.79 1.27204 1.43816 0
M  V30 16025 O 1508.99 1.6822 2.09656 0
M  V30 16026 C 1507.26 3.54584 0.447779 0
M  V30 16027 S 1508.82 4.27283 0.998734 0
M  V30 16028 H 1505.64 0.709022 0.0530042 0
M  V30 16029 H 1508.24 1.87866 -0.540993 0
M  V30 16030 H 1506.94 4.07718 -0.468401 0
M  V30 16031 H 1506.47 3.74453 1.20616 0
M  V30 16032 H 1508.49 4.40671 2.28086 0
M  V30 16033 N 1507.66 0.121921 1.57128 0
M  V30 16034 C 1508.91 -0.535371 1.95295 0
M  V30 16035 C 1509.24 -1.665 1.00539 0
M  V30 16036 O 1508.49 -1.95677 0.0298129 0
M  V30 16037 C 1508.79 -1.10579 3.39863 0
M  V30 16038 C 1508.46 -0.0972144 4.50795 0
M  V30 16039 C 1507.12 0.180111 4.80863 0
M  V30 16040 C 1509.47 0.589973 5.1785 0
M  V30 16041 C 1506.8 1.15086 5.75302 0
M  V30 16042 C 1509.15 1.54937 6.13333 0
M  V30 16043 C 1507.82 1.83465 6.41792 0
M  V30 16044 H 1507.09 -0.195906 0.714634 0
M  V30 16045 H 1509.73 0.203445 1.90416 0
M  V30 16046 H 1508.04 -1.92143 3.4145 0
M  V30 16047 H 1509.73 -1.62252 3.66709 0
M  V30 16048 H 1506.32 -0.32355 4.27377 0
M  V30 16049 H 1510.51 0.38889 4.94774 0
M  V30 16050 H 1505.76 1.3786 5.95655 0
M  V30 16051 H 1509.94 2.08751 6.64376 0
M  V30 16052 H 1507.57 2.58841 7.14777 0
M  V30 16053 N 1509.14 -1.56867 -0.151857 0
M  V30 16054 C 1510.39 -1.83353 -0.866566 0
M  V30 16055 C 1510.72 -0.702784 -1.81038 0
M  V30 16056 O 1509.99 0.293944 -1.92266 0
M  V30 16057 C 1510.28 -3.20316 -1.64529 0
M  V30 16058 C 1510.13 -4.43946 -0.723297 0
M  V30 16059 C 1511.45 -3.54441 -2.60882 0
M  V30 16060 H 1508.57 -0.666957 -0.313588 0
M  V30 16061 H 1511.21 -1.89541 -0.131954 0
M  V30 16062 H 1509.36 -3.15172 -2.27154 0
M  V30 16063 H 1511.03 -4.61173 -0.10842 0
M  V30 16064 H 1509.28 -4.33788 -0.0325582 0
M  V30 16065 H 1509.95 -5.36374 -1.3041 0
M  V30 16066 H 1512.42 -3.60164 -2.08377 0
M  V30 16067 H 1511.3 -4.51314 -3.12422 0
M  V30 16068 H 1511.56 -2.80146 -3.42009 0
M  V30 16069 N 1510.62 0.421051 -1.51871 0
M  V30 16070 C 1511.57 1.5122 -1.74359 0
M  V30 16071 C 1512.54 1.55432 -0.585667 0
M  V30 16072 O 1513.72 1.7219 -0.821912 0
M  V30 16073 C 1510.86 2.88787 -1.88935 0
M  V30 16074 C 1509.97 2.93977 -3.16546 0
M  V30 16075 C 1509.11 4.22768 -3.21622 0
M  V30 16076 C 1508.15 4.21888 -4.43483 0
M  V30 16077 N 1507.28 5.4223 -4.46017 0
M  V30 16078 H 1512.12 1.31348 -2.67492 0
M  V30 16079 H 1509.66 0.637779 -1.32555 0
M  V30 16080 H 1511.62 3.68629 -1.95368 0
M  V30 16081 H 1510.25 3.07181 -0.991942 0
M  V30 16082 H 1509.3 2.06699 -3.19343 0
M  V30 16083 H 1510.61 2.8919 -4.06412 0
M  V30 16084 H 1509.77 5.10995 -3.27061 0
M  V30 16085 H 1508.51 4.30234 -2.29674 0
M  V30 16086 H 1507.51 3.32052 -4.38202 0
M  V30 16087 H 1508.74 4.16072 -5.36713 0
M  V30 16088 H 1506.68 5.50386 -3.56947 0
M  V30 16089 H 1506.6 5.39389 -5.29713 0
M  V30 16090 H 1507.87 6.32443 -4.55671 0
M  V30 16091 N 1512.1 1.42293 0.677538 0
M  V30 16092 C 1513.32 1.46214 1.47092 0
M  V30 16093 C 1513.75 0.0740989 1.87954 0
M  V30 16094 O 1513.1 -0.926831 1.55819 0
M  V30 16095 C 1513.15 2.39236 2.69812 0
M  V30 16096 O 1512.26 1.86183 3.6798 0
M  V30 16097 H 1511.6 0.495507 0.442006 0
M  V30 16098 H 1514.13 1.86952 0.831274 0
M  V30 16099 H 1514.14 2.55723 3.17915 0
M  V30 16100 H 1512.81 3.40081 2.39411 0
M  V30 16101 H 1511.39 1.79237 3.26999 0
M  V30 16102 N 1513.57 -0.913576 1.28419 0
M  V30 16103 C 1514.82 -1.65944 1.15355 0
M  V30 16104 C 1515.14 -1.92706 -0.298228 0
M  V30 16105 O 1514.41 -1.54333 -1.20657 0
M  V30 16106 H 1512.99 -0.615063 0.423919 0
M  V30 16107 H 1515.66 -1.0962 1.6115 0
M  V30 16108 H 1514.75 -2.62173 1.69327 0
M  V30 16109 N 1515.05 -1.1067 -1.12204 0
M  V30 16110 C 1516.3 -0.845439 -1.83126 0
M  V30 16111 C 1516.61 0.631022 -1.85142 0
M  V30 16112 O 1517.82 1.00827 -2.52084 0
M  V30 16113 C 1516.28 -1.46265 -3.28838 0
M  V30 16114 C 1515.88 -2.97258 -3.35174 0
M  V30 16115 C 1517.63 -1.28088 -4.04714 0
M  V30 16116 C 1515.54 -3.52002 -4.75235 0
M  V30 16117 H 1514.47 -0.312617 -0.686139 0
M  V30 16118 H 1517.12 -1.33098 -1.26321 0
M  V30 16119 H 1515.5 -0.904781 -3.85525 0
M  V30 16120 H 1516.67 -3.59381 -2.88413 0
M  V30 16121 H 1514.99 -3.14617 -2.72773 0
M  V30 16122 H 1517.58 -1.6643 -5.08139 0
M  V30 16123 H 1517.93 -0.222682 -4.15704 0
M  V30 16124 H 1518.46 -1.80696 -3.54392 0
M  V30 16125 H 1515.2 -4.57499 -4.69441 0
M  V30 16126 H 1514.72 -2.94648 -5.22439 0
M  V30 16127 H 1516.4 -3.49967 -5.4418 0
M  V30 16128 N 1516.53 1.29665 -0.895815 0
M  V30 16129 C 1517.46 2.30268 -0.387151 0
M  V30 16130 C 1518.44 1.61442 0.535768 0
M  V30 16131 O 1519.63 1.88978 0.447321 0
M  V30 16132 C 1516.76 3.45107 0.389639 0
M  V30 16133 C 1515.71 4.25706 -0.442498 0
M  V30 16134 C 1515.04 5.32704 0.461552 0
M  V30 16135 C 1516.34 4.9419 -1.69036 0
M  V30 16136 H 1518.03 2.73064 -1.22786 0
M  V30 16137 H 1515.58 1.31274 -0.591869 0
M  V30 16138 H 1517.53 4.14559 0.756203 0
M  V30 16139 H 1516.25 3.01145 1.2641 0
M  V30 16140 H 1514.91 3.57957 -0.791343 0
M  V30 16141 H 1514.56 4.84987 1.33403 0
M  V30 16142 H 1514.26 5.87529 -0.0915006 0
M  V30 16143 H 1515.78 6.05009 0.824395 0
M  V30 16144 H 1517.2 5.561 -1.39376 0
M  V30 16145 H 1515.6 5.5893 -2.18444 0
M  V30 16146 H 1516.67 4.19699 -2.42859 0
M  V30 16147 N 1518.01 0.657889 1.43212 0
M  V30 16148 C 1518.94 -0.0172114 2.33494 0
M  V30 16149 C 1519.92 -0.807087 1.49733 0
M  V30 16150 O 1521.1 -0.767631 1.78385 0
M  V30 16151 C 1518.23 -0.981029 3.33156 0
M  V30 16152 C 1517.19 -0.30094 4.26941 0
M  V30 16153 C 1516.51 -1.37653 5.16678 0
M  V30 16154 C 1517.81 0.809572 5.15988 0
M  V30 16155 H 1519.51 0.736749 2.90194 0
M  V30 16156 H 1517.05 0.355744 1.39537 0
M  V30 16157 H 1519.01 -1.46226 3.95216 0
M  V30 16158 H 1517.73 -1.76621 2.74723 0
M  V30 16159 H 1516.39 0.159893 3.66251 0
M  V30 16160 H 1516.04 -2.15326 4.54581 0
M  V30 16161 H 1515.74 -0.926704 5.80246 0
M  V30 16162 H 1517.26 -1.85903 5.81612 0
M  V30 16163 H 1518.68 0.410297 5.7183 0
M  V30 16164 H 1517.07 1.18415 5.88301 0
M  V30 16165 H 1518.14 1.66558 4.55397 0
M  V30 16166 N 1519.49 -1.52437 0.400108 0
M  V30 16167 C 1520.72 -2.05831 -0.178105 0
M  V30 16168 C 1521.12 -1.27083 -1.40166 0
M  V30 16169 O 1520.47 -0.31347 -1.81006 0
M  V30 16170 C 1520.53 -3.5442 -0.602239 0
M  V30 16171 C 1520.19 -4.54153 0.509341 0
M  V30 16172 C 1521.19 -5.01521 1.37012 0
M  V30 16173 C 1518.88 -4.97683 0.679457 0
M  V30 16174 C 1520.87 -5.91056 2.38604 0
M  V30 16175 C 1518.56 -5.87016 1.6987 0
M  V30 16176 C 1519.55 -6.33595 2.55041 0
M  V30 16177 O 1519.24 -7.21161 3.55221 0
M  V30 16178 H 1518.97 -0.675423 -0.0279209 0
M  V30 16179 H 1521.53 -1.97419 0.567013 0
M  V30 16180 H 1519.76 -3.60487 -1.3995 0
M  V30 16181 H 1521.45 -3.90503 -1.10734 0
M  V30 16182 H 1522.21 -4.68614 1.25005 0
M  V30 16183 H 1518.09 -4.60993 0.0262086 0
M  V30 16184 H 1521.64 -6.27335 3.05118 0
M  V30 16185 H 1517.53 -6.19337 1.81912 0
M  V30 16186 H 1518.3 -7.39249 3.51358 0
M  V30 16187 N 1520.96 -0.130252 -1.57061 0
M  V30 16188 C 1522.21 0.525784 -1.95866 0
M  V30 16189 C 1522.54 1.65607 -1.01429 0
M  V30 16190 O 1521.82 1.94426 -0.0535544 0
M  V30 16191 C 1522.1 1.04784 -3.44517 0
M  V30 16192 C 1521.95 -0.0797972 -4.49729 0
M  V30 16193 C 1523.27 1.9351 -3.95275 0
M  V30 16194 H 1520.39 0.189652 -0.71218 0
M  V30 16195 H 1523.03 -0.208091 -1.88857 0
M  V30 16196 H 1521.18 1.67324 -3.50621 0
M  V30 16197 H 1522.86 -0.715535 -4.55717 0
M  V30 16198 H 1521.1 -0.741358 -4.27418 0
M  V30 16199 H 1521.77 0.326915 -5.51031 0
M  V30 16200 H 1524.25 1.40825 -3.91545 0
M  V30 16201 H 1523.12 2.26952 -4.99784 0
M  V30 16202 H 1523.38 2.86583 -3.36634 0
M  V30 16203 N 1522.44 1.56945 0.143535 0
M  V30 16204 C 1523.69 1.82728 0.854011 0
M  V30 16205 C 1524.01 0.712048 1.82179 0
M  V30 16206 O 1525.21 0.855579 2.57667 0
M  V30 16207 C 1523.67 3.23882 1.56934 0
M  V30 16208 C 1523.28 4.4335 0.643789 0
M  V30 16209 C 1525.02 3.58936 2.26639 0
M  V30 16210 C 1522.93 5.75528 1.36094 0
M  V30 16211 H 1521.86 0.681474 0.32266 0
M  V30 16212 H 1524.51 1.83189 0.106741 0
M  V30 16213 H 1522.89 3.17819 2.36236 0
M  V30 16214 H 1524.06 4.60658 -0.114257 0
M  V30 16215 H 1522.38 4.16364 0.0549721 0
M  V30 16216 H 1524.98 4.54948 2.80939 0
M  V30 16217 H 1525.32 2.85163 3.03295 0
M  V30 16218 H 1525.85 3.66676 1.54252 0
M  V30 16219 H 1522.59 6.52406 0.636157 0
M  V30 16220 H 1522.11 5.62149 2.09161 0
M  V30 16221 H 1523.79 6.18445 1.9009 0
M  V30 16222 N 1523.92 -0.412991 1.52093 0
M  V30 16223 C 1524.85 -1.52187 1.71382 0
M  V30 16224 C 1525.87 -1.51567 0.594247 0
M  V30 16225 O 1527.06 -1.55902 0.869293 0
M  V30 16226 C 1524.16 -2.91086 1.73557 0
M  V30 16227 C 1523.33 -3.15941 3.0249 0
M  V30 16228 C 1522.39 -4.34692 2.96529 0
M  V30 16229 O 1521.41 -4.3216 3.70441 0
M  V30 16230 N 1522.62 -5.39594 2.14052 0
M  V30 16231 H 1525.38 -1.36036 2.67047 0
M  V30 16232 H 1522.94 -0.602243 1.50282 0
M  V30 16233 H 1524.93 -3.68589 1.67106 0
M  V30 16234 H 1523.5 -3.00714 0.85382 0
M  V30 16235 H 1522.72 -2.26517 3.2262 0
M  V30 16236 H 1524.01 -3.29388 3.87789 0
M  V30 16237 H 1523.41 -5.44498 1.53424 0
M  V30 16238 H 1521.97 -6.15855 2.13461 0
M  V30 16239 N 1525.4 -1.4265 -0.669982 0
M  V30 16240 C 1526.33 -1.42457 -1.79551 0
M  V30 16241 C 1527.34 -0.322966 -1.59564 0
M  V30 16242 O 1528.53 -0.586359 -1.68594 0
M  V30 16243 C 1525.63 -1.20561 -3.16731 0
M  V30 16244 C 1524.81 -2.43246 -3.63525 0
M  V30 16245 C 1523.87 -2.16823 -4.79452 0
M  V30 16246 O 1522.89 -2.90058 -4.8975 0
M  V30 16247 N 1524.09 -1.17436 -5.68497 0
M  V30 16248 H 1526.86 -2.39474 -1.80201 0
M  V30 16249 H 1524.42 -1.37591 -0.853244 0
M  V30 16250 H 1526.41 -1.00794 -3.91947 0
M  V30 16251 H 1524.98 -0.320497 -3.10953 0
M  V30 16252 H 1524.2 -2.78549 -2.78934 0
M  V30 16253 H 1525.49 -3.24931 -3.91532 0
M  V30 16254 H 1524.89 -0.568736 -5.62834 0
M  V30 16255 H 1523.44 -1.03655 -6.43505 0
M  V30 16256 N 1526.88 0.906753 -1.28902 0
M  V30 16257 C 1527.81 2.02663 -1.15974 0
M  V30 16258 C 1528.79 1.70009 -0.0557202 0
M  V30 16259 O 1529.97 1.92786 -0.233952 0
M  V30 16260 C 1527.1 3.37283 -0.828115 0
M  V30 16261 C 1526.06 3.84123 -1.88767 0
M  V30 16262 C 1525.38 5.15787 -1.40953 0
M  V30 16263 C 1526.68 4.05217 -3.2954 0
M  V30 16264 H 1528.38 2.13738 -2.09658 0
M  V30 16265 H 1525.92 1.02699 -1.0094 0
M  V30 16266 H 1527.88 4.15127 -0.724408 0
M  V30 16267 H 1526.6 3.2628 0.14443 0
M  V30 16268 H 1525.26 3.0849 -1.98065 0
M  V30 16269 H 1524.91 5.01194 -0.425848 0
M  V30 16270 H 1524.61 5.48098 -2.11807 0
M  V30 16271 H 1526.13 5.9618 -1.31918 0
M  V30 16272 H 1527.55 4.73565 -3.23124 0
M  V30 16273 H 1525.94 4.48871 -3.9829 0
M  V30 16274 H 1527.01 3.0979 -3.73039 0
M  V30 16275 N 1528.36 1.11264 1.11616 0
M  V30 16276 C 1529.3 0.764321 2.19684 0
M  V30 16277 C 1530.3 -0.243396 1.67642 0
M  V30 16278 O 1531.5 -0.102869 1.79706 0
M  V30 16279 H 1527.88 0.229275 0.716196 0
M  V30 16280 H 1529.85 1.68445 2.46311 0
M  V30 16281 C 1528.6 0.22175 3.46992 0
M  V30 16282 H 1527.92 0.988422 3.87389 0
M  V30 16283 H 1529.36 0.0161946 4.23997 0
M  V30 16284 C 1527.82 -1.04755 3.202 0
M  V30 16285 O 1528.35 -2.12758 3.4073 0
M  V30 16286 N 1526.56 -0.969608 2.73947 0
M  V30 16287 H 1526.1 -0.0906063 2.57441 0
M  V30 16288 H 1526.06 -1.81955 2.56397 0
M  V30 16289 N 1529.83 -1.29188 0.902679 0
M  V30 16290 C 1530.77 -2.26665 0.339964 0
M  V30 16291 C 1531.78 -1.54426 -0.515396 0
M  V30 16292 O 1532.97 -1.75384 -0.332071 0
M  V30 16293 C 1530.07 -3.34672 -0.533653 0
M  V30 16294 C 1529.24 -4.36393 0.296661 0
M  V30 16295 C 1528.3 -5.2372 -0.510264 0
M  V30 16296 O 1527.33 -5.69153 0.0732871 0
M  V30 16297 N 1528.53 -5.51373 -1.81572 0
M  V30 16298 H 1531.29 -2.75588 1.17778 0
M  V30 16299 H 1528.85 -1.42553 0.767474 0
M  V30 16300 H 1530.85 -3.90025 -1.07995 0
M  V30 16301 H 1529.42 -2.85543 -1.27216 0
M  V30 16302 H 1528.64 -3.80658 1.02436 0
M  V30 16303 H 1529.92 -5.0139 0.865191 0
M  V30 16304 H 1529.32 -5.16275 -2.31251 0
M  V30 16305 H 1527.88 -6.09528 -2.30908 0
M  V30 16306 N 1531.31 -0.665475 -1.42861 0
M  V30 16307 C 1532.59 -0.113252 -1.95272 0
M  V30 16308 C 1532.97 1.36972 -1.6063 0
M  V30 16309 O 1532.32 2.10129 -0.897662 0
M  V30 16310 C 1532.53 -0.372482 -3.47007 0
M  V30 16311 C 1533.87 -0.283982 -4.23649 0
M  V30 16312 O 1534.9 -0.305714 -3.54886 0
M  V30 16313 O 1533.76 -0.218171 -5.46064 0
M  V30 16314 H 1530.85 0.00253712 -0.826996 0
M  V30 16315 H 1533.4 -0.739561 -1.52737 0
M  V30 16316 H 1532.17 -1.40015 -3.65392 0
M  V30 16317 H 1531.79 0.286294 -3.96568 0
M  V30 16318 N 1532.79 1.52222 -0.408187 0
M  V30 16319 C 1533.7 2.30725 0.424645 0
M  V30 16320 C 1534.72 1.38412 1.05442 0
M  V30 16321 O 1535.89 1.71486 1.05614 0
M  V30 16322 C 1532.96 3.11273 1.52677 0
M  V30 16323 C 1532.02 4.19323 0.920143 0
M  V30 16324 C 1531.25 4.96021 1.96974 0
M  V30 16325 O 1531.47 4.73011 3.18774 0
M  V30 16326 O 1530.41 5.80887 1.5765 0
M  V30 16327 H 1534.23 3.02935 -0.215411 0
M  V30 16328 H 1531.82 1.48413 -0.171414 0
M  V30 16329 H 1533.7 3.61436 2.16661 0
M  V30 16330 H 1532.38 2.41857 2.15144 0
M  V30 16331 H 1531.28 3.7331 0.243037 0
M  V30 16332 H 1532.62 4.91028 0.339405 0
M  V30 16333 N 1534.27 0.138579 1.5699 0
M  V30 16334 C 1535.22 -0.815878 2.12902 0
M  V30 16335 C 1536.2 -1.21511 1.0547 0
M  V30 16336 O 1537.39 -1.18294 1.31665 0
M  V30 16337 C 1534.52 -2.0583 2.74752 0
M  V30 16338 C 1533.61 -1.68255 3.89296 0
M  V30 16339 N 1534 -1.01456 4.9552 0
M  V30 16340 C 1532.3 -1.97583 3.99846 0
M  V30 16341 C 1533 -0.834498 5.75683 0
M  V30 16342 N 1531.97 -1.36571 5.26165 0
M  V30 16343 H 1535.78 -0.296204 2.92404 0
M  V30 16344 H 1533.29 -0.0632473 1.62277 0
M  V30 16345 H 1535.29 -2.75197 3.13165 0
M  V30 16346 H 1533.95 -2.58323 1.96721 0
M  V30 16347 H 1534.96 -0.67628 5.13466 0
M  V30 16348 H 1531.64 -2.51985 3.32881 0
M  V30 16349 H 1533.03 -0.308664 6.71191 0
M  V30 16350 N 1535.75 -1.57019 -0.13521 0
M  V30 16351 C 1536.97 -1.88528 -0.864399 0
M  V30 16352 C 1537.4 -0.728852 -1.73405 0
M  V30 16353 O 1536.75 0.321196 -1.78432 0
M  V30 16354 C 1536.8 -3.18694 -1.6872 0
M  V30 16355 O 1535.91 -3.03458 -2.79262 0
M  V30 16356 H 1535.25 -0.61909 -0.24005 0
M  V30 16357 H 1537.78 -2.04233 -0.12248 0
M  V30 16358 H 1537.79 -3.51011 -2.0798 0
M  V30 16359 H 1536.46 -4.02462 -1.04868 0
M  V30 16360 H 1535.04 -2.82575 -2.43323 0
M  V30 16361 N 1537.22 0.404919 -1.52309 0
M  V30 16362 C 1538.17 1.49281 -1.72334 0
M  V30 16363 C 1539.16 1.50188 -0.577267 0
M  V30 16364 O 1540.35 1.56093 -0.834497 0
M  V30 16365 C 1537.48 2.87166 -1.88123 0
M  V30 16366 C 1536.57 2.90891 -3.08615 0
M  V30 16367 N 1536.96 2.64307 -4.31249 0
M  V30 16368 C 1535.25 3.2206 -3.08535 0
M  V30 16369 C 1535.96 2.74708 -5.12748 0
M  V30 16370 N 1534.93 3.07766 -4.48086 0
M  V30 16371 H 1538.73 1.2753 -2.64789 0
M  V30 16372 H 1536.25 0.61268 -1.50399 0
M  V30 16373 H 1538.24 3.65473 -2.00587 0
M  V30 16374 H 1536.9 3.09913 -0.968712 0
M  V30 16375 H 1537.92 2.38624 -4.59651 0
M  V30 16376 H 1534.59 3.50373 -2.27035 0
M  V30 16377 H 1535.98 2.57835 -6.2046 0
M  V30 16378 N 1538.7 1.43003 0.662408 0
M  V30 16379 C 1539.95 1.43422 1.41821 0
M  V30 16380 C 1540.26 0.0586909 1.95512 0
M  V30 16381 O 1541.47 -0.0596978 2.71434 0
M  V30 16382 C 1539.93 2.52344 2.56613 0
M  V30 16383 C 1539.53 3.95961 2.09569 0
M  V30 16384 C 1541.28 2.61945 3.34044 0
M  V30 16385 C 1539.19 4.96367 3.21518 0
M  V30 16386 H 1538.12 0.533485 0.532832 0
M  V30 16387 H 1540.77 1.68958 0.715911 0
M  V30 16388 H 1539.15 2.19993 3.2927 0
M  V30 16389 H 1540.32 4.37728 1.43984 0
M  V30 16390 H 1538.64 3.90322 1.45044 0
M  V30 16391 H 1541.23 3.34137 4.17441 0
M  V30 16392 H 1541.58 1.66708 3.81463 0
M  V30 16393 H 1542.11 2.93552 2.68463 0
M  V30 16394 H 1538.85 5.93124 2.79077 0
M  V30 16395 H 1538.37 4.59221 3.85845 0
M  V30 16396 H 1540.05 5.18652 3.86793 0
M  V30 16397 N 1540.18 -0.899904 1.29381 0
M  V30 16398 C 1541.43 -1.64502 1.16713 0
M  V30 16399 C 1541.74 -1.93577 -0.280563 0
M  V30 16400 O 1542.95 -2.66305 -0.528563 0
M  V30 16401 C 1541.4 -2.96414 2.04125 0
M  V30 16402 C 1541.01 -2.74935 3.53716 0
M  V30 16403 C 1542.76 -3.74337 2.0018 0
M  V30 16404 C 1540.66 -4.02571 4.33232 0
M  V30 16405 H 1539.59 -0.617121 0.433218 0
M  V30 16406 H 1542.24 -0.997521 1.54019 0
M  V30 16407 H 1540.63 -3.62375 1.59687 0
M  V30 16408 H 1541.8 -2.17567 4.06203 0
M  V30 16409 H 1540.12 -2.10407 3.5933 0
M  V30 16410 H 1542.71 -4.6897 2.56849 0
M  V30 16411 H 1543.06 -4.04559 0.981735 0
M  V30 16412 H 1543.59 -3.15216 2.4266 0
M  V30 16413 H 1540.33 -3.77516 5.35875 0
M  V30 16414 H 1539.85 -4.59499 3.85514 0
M  V30 16415 H 1541.53 -4.70719 4.43884 0
M  V30 16416 N 1541.66 -1.11854 -1.11024 0
M  V30 16417 C 1542.91 -0.868355 -1.82494 0
M  V30 16418 C 1543.23 0.607622 -1.85292 0
M  V30 16419 O 1542.5 1.44147 -1.32659 0
M  V30 16420 H 1541.08 -0.31826 -0.67581 0
M  V30 16421 H 1543.74 -1.4118 -1.34366 0
M  V30 16422 H 1542.84 -1.24441 -2.86218 0
M  V30 16423 N 1543.14 1.28707 -0.909517 0
M  V30 16424 C 1544.07 2.29845 -0.411552 0
M  V30 16425 C 1545.05 1.62001 0.518615 0
M  V30 16426 O 1546.23 1.89442 0.427252 0
M  V30 16427 C 1543.36 3.45501 0.353013 0
M  V30 16428 C 1542.32 4.25213 -0.487625 0
M  V30 16429 C 1541.64 5.33164 0.405026 0
M  V30 16430 C 1542.94 4.9237 -1.74268 0
M  V30 16431 H 1544.64 2.71746 -1.25676 0
M  V30 16432 H 1542.18 1.30639 -0.605759 0
M  V30 16433 H 1544.14 4.15338 0.712191 0
M  V30 16434 H 1542.86 3.02469 1.23209 0
M  V30 16435 H 1541.52 3.57098 -0.829265 0
M  V30 16436 H 1541.17 4.86375 1.28252 0
M  V30 16437 H 1540.87 5.87399 -0.153811 0
M  V30 16438 H 1542.39 6.0585 0.760179 0
M  V30 16439 H 1543.8 5.5459 -1.45266 0
M  V30 16440 H 1542.2 5.56581 -2.2436 0
M  V30 16441 H 1543.27 4.171 -2.47297 0
M  V30 16442 N 1544.61 0.673042 1.42506 0
M  V30 16443 C 1545.54 0.00755467 2.33499 0
M  V30 16444 C 1546.53 -0.791161 1.50581 0
M  V30 16445 O 1547.71 -0.748668 1.79189 0
M  V30 16446 C 1544.84 -0.945638 3.34178 0
M  V30 16447 C 1543.79 -0.25564 4.27236 0
M  V30 16448 C 1543.12 -1.32165 5.18109 0
M  V30 16449 C 1544.42 0.864254 5.151 0
M  V30 16450 H 1546.11 0.767487 2.89396 0
M  V30 16451 H 1543.66 0.370524 1.39151 0
M  V30 16452 H 1545.61 -1.42026 3.96745 0
M  V30 16453 H 1544.34 -1.73697 2.76581 0
M  V30 16454 H 1543 0.19873 3.66061 0
M  V30 16455 H 1542.64 -2.10492 4.56839 0
M  V30 16456 H 1542.34 -0.865109 5.81197 0
M  V30 16457 H 1543.87 -1.79724 5.83551 0
M  V30 16458 H 1545.28 0.470924 5.71363 0
M  V30 16459 H 1543.68 1.24648 5.87012 0
M  V30 16460 H 1544.75 1.71378 4.53605 0
M  V30 16461 N 1546.09 -1.52004 0.416254 0
M  V30 16462 C 1547.51 -1.59457 0.0674775 0
M  V30 16463 C 1547.71 -1.42865 -1.42098 0
M  V30 16464 O 1546.76 -1.2592 -2.18862 0
M  V30 16465 C 1548.08 -2.95272 0.56876 0
M  V30 16466 C 1549.63 -3.08525 0.527356 0
M  V30 16467 C 1550.1 -4.46832 1.00526 0
M  V30 16468 N 1551.59 -4.53092 0.962377 0
M  V30 16469 C 1552.33 -5.58393 1.30327 0
M  V30 16470 N 1551.82 -6.71212 1.71597 0
M  V30 16471 N 1553.62 -5.48639 1.22278 0
M  V30 16472 H 1545.77 -1.61036 1.38496 0
M  V30 16473 H 1548.03 -0.75795 0.569399 0
M  V30 16474 H 1547.74 -3.12717 1.60937 0
M  V30 16475 H 1547.61 -3.77196 -0.0177595 0
M  V30 16476 H 1550 -2.9076 -0.504225 0
M  V30 16477 H 1550.08 -2.28491 1.15002 0
M  V30 16478 H 1549.72 -4.6534 2.03521 0
M  V30 16479 H 1549.65 -5.25373 0.359345 0
M  V30 16480 H 1552.14 -3.72109 0.65904 0
M  V30 16481 H 1552.46 -7.47558 1.95901 0
M  V30 16482 H 1550.8 -6.72475 1.75507 0
M  V30 16483 H 1553.99 -4.59383 0.899175 0
M  V30 16484 H 1554.16 -6.30596 1.49175 0
M  V30 16485 N 1547.57 -0.146903 -1.56914 0
M  V30 16486 C 1548.82 0.504981 -1.96412 0
M  V30 16487 C 1549.15 1.64522 -1.0318 0
M  V30 16488 O 1548.42 1.94359 -0.0741728 0
M  V30 16489 C 1548.71 1.01125 -3.45609 0
M  V30 16490 C 1548.56 -0.127493 -4.49619 0
M  V30 16491 C 1549.88 1.89306 -3.97305 0
M  V30 16492 H 1547 0.182088 -0.714152 0
M  V30 16493 H 1549.64 -0.22811 -1.88626 0
M  V30 16494 H 1547.79 1.63595 -3.52376 0
M  V30 16495 H 1549.46 -0.763829 -4.54932 0
M  V30 16496 H 1547.71 -0.786649 -4.26608 0
M  V30 16497 H 1548.38 0.268453 -5.51347 0
M  V30 16498 H 1550.85 1.36664 -3.93017 0
M  V30 16499 H 1549.73 2.21638 -5.02163 0
M  V30 16500 H 1549.99 2.82996 -3.39655 0
M  V30 16501 N 1549.05 1.57088 0.126881 0
M  V30 16502 C 1549.98 1.94951 1.18614 0
M  V30 16503 C 1550.96 0.818067 1.40522 0
M  V30 16504 O 1552.14 1.07553 1.54805 0
M  V30 16505 C 1549.27 2.23893 2.54144 0
M  V30 16506 C 1548.32 3.46475 2.48712 0
M  V30 16507 S 1549.15 4.9934 1.93443 0
M  V30 16508 C 1550.31 5.31426 3.30662 0
M  V30 16509 H 1550.54 2.84492 0.863219 0
M  V30 16510 H 1548.07 1.50759 0.333323 0
M  V30 16511 H 1550.03 2.41247 3.3213 0
M  V30 16512 H 1548.69 1.3498 2.83618 0
M  V30 16513 H 1547.88 3.64067 3.48528 0
M  V30 16514 H 1547.49 3.28467 1.78844 0
M  V30 16515 H 1549.78 5.26125 4.26847 0
M  V30 16516 H 1550.72 6.32726 3.17905 0
M  V30 16517 H 1551.13 4.5891 3.28727 0
M  V30 16518 N 1550.53 -0.396836 1.52522 0
M  V30 16519 C 1551.47 -1.50474 1.77371 0
M  V30 16520 C 1552.47 -1.56792 0.641307 0
M  V30 16521 O 1553.67 -1.60052 0.823621 0
M  V30 16522 H 1550.05 -0.500667 0.561103 0
M  V30 16523 H 1552.02 -1.26706 2.70163 0
M  V30 16524 C 1550.77 -2.87702 1.95251 0
M  V30 16525 H 1550.09 -2.83588 2.81812 0
M  V30 16526 H 1551.53 -3.64482 2.16631 0
M  V30 16527 C 1549.99 -3.29053 0.722904 0
M  V30 16528 O 1550.52 -4.01567 -0.103398 0
M  V30 16529 N 1548.73 -2.85246 0.555263 0
M  V30 16530 H 1548.27 -2.26403 1.22879 0
M  V30 16531 H 1548.23 -3.13272 -0.266113 0
M  V30 16532 N 1552.01 -1.43353 -0.654814 0
M  V30 16533 C 1553.24 -1.48107 -1.44041 0
M  V30 16534 C 1553.64 -0.0970423 -1.88951 0
M  V30 16535 O 1552.99 0.902686 -1.59991 0
M  V30 16536 C 1553.05 -2.36322 -2.7091 0
M  V30 16537 C 1552.71 -3.83887 -2.4795 0
M  V30 16538 C 1553.71 -4.75036 -2.11274 0
M  V30 16539 C 1551.39 -4.28359 -2.62324 0
M  V30 16540 C 1553.39 -6.08651 -1.89267 0
M  V30 16541 C 1551.08 -5.62028 -2.39933 0
M  V30 16542 C 1552.07 -6.51992 -2.0346 0
M  V30 16543 O 1551.76 -7.83189 -1.813 0
M  V30 16544 H 1551.49 -0.50532 -0.449029 0
M  V30 16545 H 1554.05 -1.88745 -0.810226 0
M  V30 16546 H 1552.28 -1.90569 -3.36482 0
M  V30 16547 H 1553.97 -2.32298 -3.32855 0
M  V30 16548 H 1554.73 -4.41957 -1.99747 0
M  V30 16549 H 1550.61 -3.58611 -2.89688 0
M  V30 16550 H 1554.16 -6.78833 -1.60723 0
M  V30 16551 H 1550.05 -5.94675 -2.51062 0
M  V30 16552 H 1550.82 -7.94751 -1.95738 0
M  V30 16553 N 1553.48 0.89303 -1.29857 0
M  V30 16554 C 1554.45 1.97944 -1.15546 0
M  V30 16555 C 1555.45 1.60554 -0.088989 0
M  V30 16556 O 1556.64 1.7092 -0.336464 0
M  V30 16557 C 1553.77 3.32126 -0.768442 0
M  V30 16558 H 1554.96 2.12067 -2.12055 0
M  V30 16559 H 1552.51 1.0784 -1.13138 0
M  V30 16560 H 1553.25 3.23704 0.196504 0
M  V30 16561 H 1553.03 3.60631 -1.53907 0
M  V30 16562 H 1554.52 4.11834 -0.691559 0
M  V30 16563 N 1554.96 1.12442 1.10429 0
M  V30 16564 C 1556.24 0.791191 1.78884 0
M  V30 16565 C 1556.62 -0.719044 1.98477 0
M  V30 16566 O 1555.97 -1.65275 1.57786 0
M  V30 16567 C 1556.18 1.56632 3.11877 0
M  V30 16568 C 1557.52 1.75236 3.86752 0
M  V30 16569 O 1558.55 1.53145 3.21598 0
M  V30 16570 O 1557.41 2.12025 5.03694 0
M  V30 16571 H 1554.5 0.287788 0.775311 0
M  V30 16572 H 1557.05 1.22844 1.17078 0
M  V30 16573 H 1555.82 2.59317 2.93037 0
M  V30 16574 H 1555.44 1.12332 3.81402 0
M  V30 16575 N 1556.44 -1.28223 0.91633 0
M  V30 16576 C 1557.69 -1.94149 0.546705 0
M  V30 16577 C 1558 -1.72904 -0.914529 0
M  V30 16578 O 1559.21 -2.33075 -1.39243 0
M  V30 16579 C 1557.66 -3.47759 0.92691 0
M  V30 16580 C 1557.27 -3.77779 2.40805 0
M  V30 16581 C 1559.02 -4.19829 0.627994 0
M  V30 16582 C 1556.92 -5.2471 2.72825 0
M  V30 16583 H 1555.85 -0.726787 0.200739 0
M  V30 16584 H 1558.5 -1.45694 1.1156 0
M  V30 16585 H 1556.89 -3.9496 0.286779 0
M  V30 16586 H 1558.06 -3.41377 3.09513 0
M  V30 16587 H 1556.37 -3.18887 2.67769 0
M  V30 16588 H 1558.97 -5.27999 0.843862 0
M  V30 16589 H 1559.31 -4.14028 -0.434315 0
M  V30 16590 H 1559.85 -3.78413 1.22671 0
M  V30 16591 H 1556.59 -5.35591 3.77919 0
M  V30 16592 H 1556.11 -5.623 2.08756 0
M  V30 16593 H 1557.79 -5.92475 2.59965 0
M  V30 16594 N 1557.92 -0.68059 -1.42147 0
M  V30 16595 C 1559.17 -0.204857 -2.01059 0
M  V30 16596 C 1559.49 1.19475 -1.54113 0
M  V30 16597 O 1558.76 1.80334 -0.765279 0
M  V30 16598 H 1557.34 -0.0727459 -0.743449 0
M  V30 16599 H 1560 -0.878396 -1.73983 0
M  V30 16600 H 1559.09 -0.210628 -3.11388 0
M  V30 16601 N 1559.4 1.51781 -0.424309 0
M  V30 16602 C 1560.64 2.03879 0.145828 0
M  V30 16603 C 1561 1.30226 1.41086 0
M  V30 16604 O 1562.2 1.72629 2.06041 0
M  V30 16605 C 1560.47 3.55454 0.372466 0
M  V30 16606 S 1562.03 4.29305 0.907876 0
M  V30 16607 H 1558.85 0.709986 0.0379529 0
M  V30 16608 H 1561.45 1.86676 -0.58072 0
M  V30 16609 H 1560.15 4.06633 -0.554778 0
M  V30 16610 H 1559.69 3.76928 1.12646 0
M  V30 16611 H 1561.7 4.4541 2.18687 0
M  V30 16612 N 1560.87 0.155222 1.56834 0
M  V30 16613 C 1562.1 -0.503763 2.01189 0
M  V30 16614 C 1562.52 -1.57086 1.03468 0
M  V30 16615 O 1561.88 -1.81296 0.0116895 0
M  V30 16616 C 1561.93 -1.07373 3.44243 0
M  V30 16617 O 1561.03 -2.18834 3.49551 0
M  V30 16618 H 1560.37 -0.122368 0.652627 0
M  V30 16619 H 1562.9 0.254377 2.03013 0
M  V30 16620 H 1562.91 -1.40036 3.83215 0
M  V30 16621 H 1561.59 -0.292339 4.14871 0
M  V30 16622 H 1560.17 -1.87337 3.22427 0
M  V30 16623 N 1562.35 -1.57153 -0.118549 0
M  V30 16624 C 1563.6 -1.8515 -0.82748 0
M  V30 16625 C 1563.93 -0.741026 -1.79506 0
M  V30 16626 O 1563.21 0.253095 -1.92846 0
M  V30 16627 C 1563.49 -3.23734 -1.57698 0
M  V30 16628 C 1563.34 -4.45381 -0.628967 0
M  V30 16629 C 1564.66 -3.59895 -2.53305 0
M  V30 16630 H 1561.78 -0.673459 -0.29937 0
M  V30 16631 H 1564.42 -1.89778 -0.0917198 0
M  V30 16632 H 1562.57 -3.19919 -2.20418 0
M  V30 16633 H 1564.24 -4.61299 -0.0105746 0
M  V30 16634 H 1562.49 -4.33759 0.059462 0
M  V30 16635 H 1563.16 -5.3902 -1.19004 0
M  V30 16636 H 1565.63 -3.64503 -2.0069 0
M  V30 16637 H 1564.51 -4.57839 -3.02778 0
M  V30 16638 H 1564.77 -2.87338 -3.3599 0
M  V30 16639 N 1563.83 0.388742 -1.5273 0
M  V30 16640 C 1565.08 1.13094 -1.67011 0
M  V30 16641 C 1565.39 1.91115 -0.416467 0
M  V30 16642 O 1566.6 2.67921 -0.43941 0
M  V30 16643 C 1565.05 2.0595 -2.95149 0
M  V30 16644 C 1564.66 1.3335 -4.27694 0
M  V30 16645 C 1566.41 2.80303 -3.18795 0
M  V30 16646 C 1564.31 2.24973 -5.46938 0
M  V30 16647 H 1563.24 0.425887 -0.622203 0
M  V30 16648 H 1565.89 0.393708 -1.79227 0
M  V30 16649 H 1564.28 2.83309 -2.7668 0
M  V30 16650 H 1565.45 0.612137 -4.56716 0
M  V30 16651 H 1563.76 0.709547 -4.1031 0
M  V30 16652 H 1566.36 3.49036 -4.05065 0
M  V30 16653 H 1566.7 3.44394 -2.33877 0
M  V30 16654 H 1567.24 2.10036 -3.37831 0
M  V30 16655 H 1563.98 1.65497 -6.34264 0
M  V30 16656 H 1563.5 2.95024 -5.22227 0
M  V30 16657 H 1565.18 2.8505 -5.80823 0
M  V30 16658 N 1565.31 1.43698 0.647203 0
M  V30 16659 C 1566.53 1.49301 1.43958 0
M  V30 16660 C 1566.96 0.11395 1.87755 0
M  V30 16661 O 1566.32 -0.893571 1.5775 0
M  V30 16662 C 1566.36 2.44905 2.64677 0
M  V30 16663 O 1565.47 1.93947 3.63948 0
M  V30 16664 H 1564.81 0.504771 0.431396 0
M  V30 16665 H 1567.34 1.88673 0.791432 0
M  V30 16666 H 1567.35 2.62409 3.12419 0
M  V30 16667 H 1566.02 3.45083 2.32143 0
M  V30 16668 H 1564.6 1.86133 3.23124 0
M  V30 16669 N 1566.79 -0.886131 1.30328 0
M  V30 16670 C 1568.03 -1.652 1.20367 0
M  V30 16671 C 1568.39 -1.90518 -0.238093 0
M  V30 16672 O 1569.59 -2.64819 -0.460926 0
M  V30 16673 C 1567.86 -2.95645 2.00821 0
M  V30 16674 S 1569.42 -3.86614 2.07545 0
M  V30 16675 H 1566.24 -0.567015 0.428969 0
M  V30 16676 H 1568.84 -1.05189 1.64789 0
M  V30 16677 H 1567.55 -2.74942 3.04688 0
M  V30 16678 H 1567.08 -3.6069 1.57056 0
M  V30 16679 H 1569.09 -4.81421 1.20199 0
M  V30 16680 N 1568.26 -1.13026 -1.09832 0
M  V30 16681 C 1569.51 -0.887662 -1.81563 0
M  V30 16682 C 1569.83 0.587935 -1.85926 0
M  V30 16683 O 1569.1 1.42732 -1.3418 0
M  V30 16684 H 1567.68 -0.32541 -0.672397 0
M  V30 16685 H 1570.35 -1.42597 -1.32861 0
M  V30 16686 H 1569.44 -1.2747 -2.84882 0
M  V30 16687 N 1569.74 1.27735 -0.923117 0
M  V30 16688 C 1570.69 2.26997 -0.417254 0
M  V30 16689 C 1571.66 1.57968 0.513364 0
M  V30 16690 O 1572.84 1.8581 0.433521 0
M  V30 16691 C 1569.98 3.43537 0.328089 0
M  V30 16692 C 1569.1 4.27291 -0.636112 0
M  V30 16693 C 1568.23 5.31044 0.128614 0
M  V30 16694 C 1567.27 6.06466 -0.828592 0
M  V30 16695 N 1566.41 7.02033 -0.0967858 0
M  V30 16696 H 1571.25 2.69643 -1.26872 0
M  V30 16697 H 1568.79 1.32597 -0.6369 0
M  V30 16698 H 1570.74 4.0991 0.776504 0
M  V30 16699 H 1569.37 3.01855 1.14383 0
M  V30 16700 H 1568.43 3.60875 -1.20306 0
M  V30 16701 H 1569.74 4.79679 -1.36784 0
M  V30 16702 H 1568.89 6.03345 0.637159 0
M  V30 16703 H 1567.63 4.79448 0.893341 0
M  V30 16704 H 1566.64 5.33008 -1.34843 0
M  V30 16705 H 1567.86 6.60151 -1.59303 0
M  V30 16706 H 1565.81 6.52774 0.649779 0
M  V30 16707 H 1565.72 7.52087 -0.768171 0
M  V30 16708 H 1566.99 7.78517 0.391257 0
M  V30 16709 N 1571.22 0.688118 1.41784 0
M  V30 16710 C 1572.47 0.216263 2.01644 0
M  V30 16711 C 1572.8 -1.17861 1.54345 0
M  V30 16712 O 1572.07 -1.794 0.751392 0
M  V30 16713 C 1572.36 0.265663 3.59119 0
M  V30 16714 C 1572.21 1.69694 4.16562 0
M  V30 16715 C 1573.53 -0.378713 4.38468 0
M  V30 16716 H 1570.65 0.0800582 0.732639 0
M  V30 16717 H 1573.29 0.875428 1.68631 0
M  V30 16718 H 1571.44 -0.295588 3.87374 0
M  V30 16719 H 1573.11 2.31146 3.9921 0
M  V30 16720 H 1571.36 2.23345 3.71886 0
M  V30 16721 H 1572.03 1.68309 5.25715 0
M  V30 16722 H 1574.5 0.0991969 4.15982 0
M  V30 16723 H 1573.38 -0.31357 5.48004 0
M  V30 16724 H 1573.64 -1.45832 4.17355 0
M  V30 16725 N 1572.7 -1.51554 0.432352 0
M  V30 16726 C 1573.95 -2.02044 -0.135779 0
M  V30 16727 C 1574.27 -1.31679 -1.43147 0
M  V30 16728 O 1573.53 -0.418849 -1.91165 0
M  V30 16729 C 1573.83 -3.55076 -0.406915 0
M  V30 16730 C 1573.49 -4.43704 0.802356 0
M  V30 16731 C 1572.16 -4.67647 1.134 0
M  V30 16732 C 1574.51 -4.95733 1.6093 0
M  V30 16733 C 1571.84 -5.40865 2.27335 0
M  V30 16734 C 1574.19 -5.702 2.73961 0
M  V30 16735 C 1572.85 -5.92408 3.07585 0
M  V30 16736 H 1572.12 -0.739332 -0.0496851 0
M  V30 16737 H 1574.77 -1.82552 0.578528 0
M  V30 16738 H 1573.07 -3.72872 -1.20306 0
M  V30 16739 H 1574.77 -3.91673 -0.859839 0
M  V30 16740 H 1571.36 -4.25261 0.533923 0
M  V30 16741 H 1575.54 -4.77123 1.3663 0
M  V30 16742 H 1570.8 -5.56276 2.53706 0
M  V30 16743 H 1574.97 -6.09506 3.36861 0
M  V30 16744 H 1572.6 -6.48923 3.95984 0
M  V30 16745 N 1574.18 -0.163538 -1.56749 0
M  V30 16746 C 1575.4 0.493087 -2.01453 0
M  V30 16747 C 1575.83 1.56535 -1.043 0
M  V30 16748 O 1575.18 1.81287 -0.0213039 0
M  V30 16749 C 1575.23 1.05546 -3.44808 0
M  V30 16750 O 1574.34 2.16977 -3.50706 0
M  V30 16751 H 1573.68 0.118905 -0.653267 0
M  V30 16752 H 1576.21 -0.265139 -2.02875 0
M  V30 16753 H 1576.22 1.38002 -3.83953 0
M  V30 16754 H 1574.89 0.270333 -4.1502 0
M  V30 16755 H 1573.47 1.85625 -3.23416 0
M  V30 16756 N 1575.65 1.57214 0.110213 0
M  V30 16757 C 1576.6 2.00978 1.13474 0
M  V30 16758 C 1577.57 0.883436 1.40658 0
M  V30 16759 O 1578.76 1.14832 1.52376 0
M  V30 16760 C 1575.9 2.42654 2.45383 0
M  V30 16761 C 1575.01 3.68744 2.2506 0
M  V30 16762 C 1574.14 3.99363 3.50261 0
M  V30 16763 C 1573.18 5.18608 3.25133 0
M  V30 16764 N 1572.32 5.45055 4.42561 0
M  V30 16765 H 1577.16 2.88289 0.754543 0
M  V30 16766 H 1574.7 1.426 0.361064 0
M  V30 16767 H 1576.66 2.64857 3.22345 0
M  V30 16768 H 1575.29 1.58374 2.81278 0
M  V30 16769 H 1574.34 3.54106 1.38972 0
M  V30 16770 H 1575.65 4.55857 2.02475 0
M  V30 16771 H 1574.8 4.22261 4.35638 0
M  V30 16772 H 1573.54 3.10743 3.75886 0
M  V30 16773 H 1572.55 4.95546 2.38148 0
M  V30 16774 H 1573.77 6.08814 3.0087 0
M  V30 16775 H 1571.72 4.59392 4.6829 0
M  V30 16776 H 1571.64 6.26508 4.23111 0
M  V30 16777 H 1572.9 5.72478 5.29046 0
M  V30 16778 N 1577.13 -0.380637 1.52934 0
M  V30 16779 C 1578.07 -1.48737 1.73068 0
M  V30 16780 C 1579.04 -1.51954 0.578673 0
M  V30 16781 O 1580.23 -1.70234 0.809479 0
M  V30 16782 C 1577.35 -2.8717 1.79587 0
M  V30 16783 C 1576.4 -3.01742 3.0142 0
M  V30 16784 S 1577.23 -2.72067 4.61237 0
M  V30 16785 C 1578.39 -4.12677 4.70583 0
M  V30 16786 H 1578.62 -1.31435 2.66669 0
M  V30 16787 H 1576.16 -0.574038 1.43332 0
M  V30 16788 H 1578.11 -3.66939 1.84028 0
M  V30 16789 H 1576.77 -3.01792 0.87064 0
M  V30 16790 H 1575.97 -4.0309 3.02546 0
M  V30 16791 H 1575.57 -2.29876 2.95013 0
M  V30 16792 H 1577.86 -5.0672 4.49712 0
M  V30 16793 H 1578.8 -4.16563 5.72609 0
M  V30 16794 H 1579.21 -3.98976 3.99348 0
M  V30 16795 N 1578.61 -1.44039 -0.639573 0
M  V30 16796 C 1579.54 -1.53073 -1.76327 0
M  V30 16797 C 1580.52 -0.384344 -1.65701 0
M  V30 16798 O 1581.71 -0.603362 -1.84589 0
M  V30 16799 C 1578.84 -1.46646 -3.14821 0
M  V30 16800 C 1577.79 -2.59673 -3.40226 0
M  V30 16801 C 1577.12 -2.38298 -4.78663 0
M  V30 16802 C 1578.42 -4.01864 -3.33621 0
M  V30 16803 H 1580.11 -2.47126 -1.69023 0
M  V30 16804 H 1577.66 -1.1894 -0.811749 0
M  V30 16805 H 1579.61 -1.51567 -3.93199 0
M  V30 16806 H 1578.33 -0.491035 -3.22888 0
M  V30 16807 H 1576.99 -2.54127 -2.64225 0
M  V30 16808 H 1576.64 -1.38968 -4.83422 0
M  V30 16809 H 1576.34 -3.14074 -4.9662 0
M  V30 16810 H 1577.86 -2.45025 -5.59281 0
M  V30 16811 H 1579.28 -4.08824 -4.01915 0
M  V30 16812 H 1577.68 -4.77775 -3.63113 0
M  V30 16813 H 1578.75 -4.26033 -2.31569 0
M  V30 16814 N 1580.09 0.879207 -1.30796 0
M  V30 16815 C 1581 2.01822 -1.19604 0
M  V30 16816 C 1582.01 1.73621 -0.114715 0
M  V30 16817 O 1583.19 1.98665 -0.330757 0
M  V30 16818 C 1580.26 3.3496 -0.894569 0
M  V30 16819 C 1579.32 3.76545 -2.06185 0
M  V30 16820 C 1578.55 5.0333 -1.77467 0
M  V30 16821 O 1578.77 5.66022 -0.70535 0
M  V30 16822 O 1577.71 5.41461 -2.62876 0
M  V30 16823 H 1581.53 2.14194 -2.15301 0
M  V30 16824 H 1579.12 1.00608 -1.10446 0
M  V30 16825 H 1581 4.14818 -0.741891 0
M  V30 16826 H 1579.67 3.23684 0.0324464 0
M  V30 16827 H 1578.58 2.97367 -2.26988 0
M  V30 16828 H 1579.91 3.92434 -2.97079 0
M  V30 16829 N 1581.57 1.13606 1.09231 0
M  V30 16830 C 1582.8 0.922295 1.85206 0
M  V30 16831 C 1583.21 -0.528954 1.81239 0
M  V30 16832 O 1582.57 -1.36622 1.20999 0
M  V30 16833 C 1582.62 1.40453 3.331 0
M  V30 16834 O 1582.34 2.7989 3.37036 0
M  V30 16835 C 1583.84 1.22948 4.25909 0
M  V30 16836 H 1581.06 0.328757 0.584945 0
M  V30 16837 H 1583.6 1.50911 1.38007 0
M  V30 16838 H 1581.76 0.86066 3.77719 0
M  V30 16839 H 1582.17 3.01342 4.29294 0
M  V30 16840 H 1583.65 1.61562 5.27827 0
M  V30 16841 H 1584.12 0.171387 4.38865 0
M  V30 16842 H 1584.73 1.76147 3.87108 0
M  V30 16843 N 1583.05 -1.27244 0.929878 0
M  V30 16844 C 1584.29 -1.94557 0.572306 0
M  V30 16845 C 1584.62 -1.72886 -0.884542 0
M  V30 16846 O 1583.9 -1.0592 -1.63129 0
M  V30 16847 C 1584.18 -3.48629 0.901675 0
M  V30 16848 C 1584.04 -3.79633 2.41244 0
M  V30 16849 C 1585.35 -4.38195 0.409093 0
M  V30 16850 H 1582.47 -0.706627 0.209397 0
M  V30 16851 H 1585.12 -1.50321 1.16205 0
M  V30 16852 H 1583.27 -3.86437 0.399791 0
M  V30 16853 H 1584.94 -3.51604 2.98618 0
M  V30 16854 H 1583.18 -3.26108 2.8607 0
M  V30 16855 H 1583.85 -4.87284 2.59342 0
M  V30 16856 H 1586.33 -4.07548 0.839256 0
M  V30 16857 H 1585.2 -5.44814 0.668482 0
M  V30 16858 H 1585.46 -4.36669 -0.690861 0
M  V30 16859 N 1584.52 -0.695628 -1.41417 0
M  V30 16860 C 1585.77 -0.226618 -2.01228 0
M  V30 16861 C 1586.1 1.17376 -1.5509 0
M  V30 16862 O 1585.35 1.80635 -0.752964 0
M  V30 16863 C 1585.65 -0.232664 -3.56642 0
M  V30 16864 C 1585.32 -1.58057 -4.2229 0
M  V30 16865 C 1583.98 -1.94959 -4.39937 0
M  V30 16866 C 1586.33 -2.46735 -4.59098 0
M  V30 16867 C 1583.66 -3.20123 -4.91669 0
M  V30 16868 C 1586.01 -3.71232 -5.1222 0
M  V30 16869 C 1584.68 -4.08277 -5.28078 0
M  V30 16870 H 1583.95 -0.0829255 -0.736345 0
M  V30 16871 H 1586.59 -0.894729 -1.69313 0
M  V30 16872 H 1584.9 0.518995 -3.88347 0
M  V30 16873 H 1586.6 0.147754 -4.00728 0
M  V30 16874 H 1583.19 -1.28356 -4.08929 0
M  V30 16875 H 1587.37 -2.19506 -4.45119 0
M  V30 16876 H 1582.63 -3.48819 -5.02131 0
M  V30 16877 H 1586.8 -4.40132 -5.39682 0
M  V30 16878 H 1584.43 -5.05335 -5.67927 0
M  V30 16879 N 1586 1.51322 -0.440383 0
M  V30 16880 C 1586.95 2.2941 0.383883 0
M  V30 16881 C 1587.94 1.35388 1.01816 0
M  V30 16882 O 1589.15 1.52716 0.952775 0
M  V30 16883 H 1585.52 0.738354 0.142611 0
M  V30 16884 H 1587.5 2.96933 -0.295532 0
M  V30 16885 C 1586.24 3.15055 1.47091 0
M  V30 16886 H 1585.57 3.87292 0.992214 0
M  V30 16887 H 1587.01 3.72744 2.02084 0
M  V30 16888 C 1585.47 2.30628 2.45586 0
M  V30 16889 O 1586 1.96801 3.50189 0
M  V30 16890 N 1584.2 1.93792 2.16548 0
M  V30 16891 H 1583.75 2.215 1.31512 0
M  V30 16892 H 1583.71 1.37601 2.82689 0
M  V30 16893 N 1587.48 0.171848 1.5666 0
M  V30 16894 C 1588.73 -0.467156 1.97963 0
M  V30 16895 C 1589.08 -1.60824 1.05609 0
M  V30 16896 O 1588.37 -1.9136 0.0958638 0
M  V30 16897 C 1588.57 -0.99711 3.43209 0
M  V30 16898 C 1588.4 0.0910934 4.49608 0
M  V30 16899 C 1587.17 0.540935 5.02396 0
M  V30 16900 C 1589.36 0.891679 5.06511 0
M  V30 16901 N 1587.35 1.60939 5.92429 0
M  V30 16902 C 1588.72 1.81005 5.9299 0
M  V30 16903 C 1590.77 0.9367 4.8901 0
M  V30 16904 C 1589.48 2.76964 6.6384 0
M  V30 16905 C 1591.5 1.88423 5.60581 0
M  V30 16906 C 1590.86 2.79008 6.46787 0
M  V30 16907 H 1586.96 -0.139033 0.769541 0
M  V30 16908 H 1589.55 0.272188 1.92788 0
M  V30 16909 H 1587.72 -1.70597 3.48929 0
M  V30 16910 H 1589.45 -1.60479 3.71522 0
M  V30 16911 H 1586.2 0.138545 4.73397 0
M  V30 16912 H 1586.63 2.14412 6.4215 0
M  V30 16913 H 1591.27 0.250396 4.22058 0
M  V30 16914 H 1588.99 3.46582 7.30005 0
M  V30 16915 H 1592.57 1.92518 5.49025 0
M  V30 16916 H 1591.45 3.51133 7.01196 0
M  V30 16917 N 1588.96 -1.5727 -0.101874 0
M  V30 16918 C 1589.89 -1.98253 -1.15014 0
M  V30 16919 C 1590.9 -0.884147 -1.36699 0
M  V30 16920 O 1592.09 -1.16232 -1.35471 0
M  V30 16921 C 1589.19 -2.28043 -2.50698 0
M  V30 16922 C 1588.36 -3.59343 -2.49383 0
M  V30 16923 C 1587.42 -3.77147 -3.66943 0
M  V30 16924 O 1586.45 -4.49075 -3.49744 0
M  V30 16925 N 1587.65 -3.1721 -4.86167 0
M  V30 16926 H 1590.42 -2.88787 -0.801375 0
M  V30 16927 H 1587.98 -1.59264 -0.290941 0
M  V30 16928 H 1589.97 -2.37153 -3.27934 0
M  V30 16929 H 1588.54 -1.4355 -2.77691 0
M  V30 16930 H 1587.76 -3.61264 -1.57741 0
M  V30 16931 H 1589.05 -4.45612 -2.45576 0
M  V30 16932 H 1588.45 -2.58772 -5.03044 0
M  V30 16933 H 1587 -3.31816 -5.61018 0
M  V30 16934 N 1590.44 0.372521 -1.53134 0
M  V30 16935 C 1591.37 1.47817 -1.73855 0
M  V30 16936 C 1592.35 1.51645 -0.586723 0
M  V30 16937 O 1593.53 1.69803 -0.818496 0
M  V30 16938 C 1590.66 2.86213 -1.81107 0
M  V30 16939 C 1589.7 3.00139 -3.03016 0
M  V30 16940 S 1590.54 2.69617 -4.62674 0
M  V30 16941 C 1591.69 4.10176 -4.72765 0
M  V30 16942 H 1591.93 1.30019 -2.67362 0
M  V30 16943 H 1589.46 0.566429 -1.43635 0
M  V30 16944 H 1591.42 3.65958 -1.85971 0
M  V30 16945 H 1590.08 3.01326 -0.886632 0
M  V30 16946 H 1589.27 4.0148 -3.0468 0
M  V30 16947 H 1588.87 2.28309 -2.96228 0
M  V30 16948 H 1591.16 5.04328 -4.52393 0
M  V30 16949 H 1592.11 4.1352 -5.7481 0
M  V30 16950 H 1592.52 3.96853 -4.01458 0
M  V30 16951 N 1591.91 1.44376 0.631925 0
M  V30 16952 C 1593.19 1.37592 1.39024 0
M  V30 16953 C 1593.57 0.0342456 2.11072 0
M  V30 16954 O 1592.92 -0.983136 2.06268 0
M  V30 16955 C 1593.13 2.57355 2.35732 0
M  V30 16956 C 1594.48 3.01384 2.99087 0
M  V30 16957 O 1595.5 2.57554 2.46057 0
M  V30 16958 O 1594.36 3.77375 3.95285 0
M  V30 16959 H 1591.45 0.544828 0.622167 0
M  V30 16960 H 1594 1.56464 0.657048 0
M  V30 16961 H 1592.77 3.46615 1.81587 0
M  V30 16962 H 1592.39 2.40693 3.16469 0
M  V30 16963 N 1593.39 -0.872258 1.31261 0
M  V30 16964 C 1594.62 -1.6632 1.23905 0
M  V30 16965 C 1595.04 -1.87109 -0.192878 0
M  V30 16966 O 1594.4 -1.4112 -1.1382 0
M  V30 16967 C 1594.45 -3.00979 1.98606 0
M  V30 16968 O 1593.55 -3.90642 1.32183 0
M  V30 16969 H 1592.89 -0.507736 0.427902 0
M  V30 16970 H 1595.42 -1.0877 1.73292 0
M  V30 16971 H 1595.43 -3.50931 2.08113 0
M  V30 16972 H 1594.11 -2.85168 3.02741 0
M  V30 16973 H 1592.68 -3.4909 1.31112 0
M  V30 16974 N 1594.87 -1.14184 -1.08627 0
M  V30 16975 C 1596.29 -0.881757 -1.33031 0
M  V30 16976 C 1596.49 0.478313 -1.95741 0
M  V30 16977 O 1595.54 1.22308 -2.209 0
M  V30 16978 C 1596.85 -2.01274 -2.23404 0
M  V30 16979 C 1598.4 -2.04578 -2.3689 0
M  V30 16980 C 1598.88 -3.16962 -3.30604 0
M  V30 16981 N 1600.37 -3.16526 -3.3818 0
M  V30 16982 C 1601.1 -4.00124 -4.10716 0
M  V30 16983 N 1600.6 -4.93757 -4.8598 0
M  V30 16984 N 1602.39 -3.88193 -4.06525 0
M  V30 16985 H 1594.54 -2.01787 -0.663017 0
M  V30 16986 H 1596.81 -0.879152 -0.354677 0
M  V30 16987 H 1596.51 -2.9938 -1.84566 0
M  V30 16988 H 1596.39 -1.93393 -3.2385 0
M  V30 16989 H 1598.77 -1.0708 -2.74987 0
M  V30 16990 H 1598.85 -2.16529 -1.36194 0
M  V30 16991 H 1598.5 -4.14704 -2.93228 0
M  V30 16992 H 1598.43 -3.02248 -4.31223 0
M  V30 16993 H 1600.92 -2.48708 -2.84522 0
M  V30 16994 H 1601.23 -5.54015 -5.38783 0
M  V30 16995 H 1599.58 -4.97756 -4.8504 0
M  V30 16996 H 1602.77 -3.14365 -3.46831 0
M  V30 16997 H 1602.94 -4.53571 -4.62793 0
M  V30 16998 N 1596.35 1.26749 -0.936613 0
M  V30 16999 C 1597.28 2.24895 -0.386956 0
M  V30 17000 C 1598.26 1.54004 0.521673 0
M  V30 17001 O 1599.44 1.82797 0.460158 0
M  V30 17002 C 1596.57 3.35771 0.44447 0
M  V30 17003 C 1595.62 4.24601 -0.401985 0
M  V30 17004 S 1596.45 5.03511 -1.82309 0
M  V30 17005 C 1597.61 6.17866 -0.999596 0
M  V30 17006 H 1597.84 2.71171 -1.21876 0
M  V30 17007 H 1595.37 1.35544 -0.739409 0
M  V30 17008 H 1597.33 4.00097 0.918284 0
M  V30 17009 H 1595.99 2.88117 1.2509 0
M  V30 17010 H 1595.18 5.03453 0.234819 0
M  V30 17011 H 1594.79 3.65116 -0.810309 0
M  V30 17012 H 1597.08 6.77076 -0.239732 0
M  V30 17013 H 1598.02 6.85842 -1.76142 0
M  V30 17014 H 1598.43 5.61934 -0.537672 0
M  V30 17015 N 1597.83 0.703118 1.41046 0
M  V30 17016 C 1598.76 -0.00810455 2.28199 0
M  V30 17017 C 1599.74 -0.780333 1.42652 0
M  V30 17018 O 1600.92 -0.769578 1.72075 0
M  V30 17019 C 1598.05 -1.01887 3.23012 0
M  V30 17020 C 1597.09 -0.338929 4.25151 0
M  V30 17021 S 1597.93 0.924166 5.27465 0
M  V30 17022 C 1599.08 -0.0848164 6.25843 0
M  V30 17023 H 1599.32 0.731062 2.88171 0
M  V30 17024 H 1596.85 0.493669 1.46295 0
M  V30 17025 H 1598.81 -1.59687 3.78167 0
M  V30 17026 H 1597.47 -1.73066 2.6212 0
M  V30 17027 H 1596.66 -1.10259 4.91792 0
M  V30 17028 H 1596.26 0.166183 3.73631 0
M  V30 17029 H 1598.56 -0.935686 6.71008 0
M  V30 17030 H 1599.5 0.547865 7.05977 0
M  V30 17031 H 1599.91 -0.442967 5.62759 0
M  V30 17032 N 1599.3 -1.51086 0.448402 0
M  V30 17033 C 1600.21 -2.3177 -0.363323 0
M  V30 17034 C 1601.23 -1.41159 -1.01736 0
M  V30 17035 O 1602.41 -1.74226 -1.01031 0
M  V30 17036 C 1599.47 -3.15211 -1.4437 0
M  V30 17037 C 1598.53 -4.21615 -0.808643 0
M  V30 17038 C 1597.77 -5.01069 -1.83754 0
M  V30 17039 O 1597.99 -4.81296 -3.06121 0
M  V30 17040 O 1596.92 -5.84863 -1.42193 0
M  V30 17041 H 1600.75 -3.02257 0.295653 0
M  V30 17042 H 1598.33 -1.47907 0.210703 0
M  V30 17043 H 1600.22 -3.67053 -2.07002 0
M  V30 17044 H 1598.89 -2.47476 -2.08656 0
M  V30 17045 H 1597.8 -3.73823 -0.143975 0
M  V30 17046 H 1599.13 -4.91756 -0.209098 0
M  V30 17047 N 1600.78 -0.180154 -1.56567 0
M  V30 17048 C 1601.71 0.742131 -2.21393 0
M  V30 17049 C 1602.69 1.23253 -1.1723 0
M  V30 17050 O 1603.88 1.28408 -1.45688 0
M  V30 17051 C 1601.01 1.96799 -2.8616 0
M  V30 17052 C 1599.96 1.6131 -3.96438 0
M  V30 17053 C 1599.29 2.91434 -4.48297 0
M  V30 17054 C 1600.59 0.834382 -5.15592 0
M  V30 17055 H 1602.28 0.201759 -2.98719 0
M  V30 17056 H 1599.83 0.0956016 -1.43682 0
M  V30 17057 H 1601.78 2.61828 -3.30188 0
M  V30 17058 H 1600.51 2.53264 -2.06215 0
M  V30 17059 H 1599.16 0.986451 -3.53079 0
M  V30 17060 H 1598.81 3.45958 -3.65133 0
M  V30 17061 H 1598.51 2.68439 -5.22699 0
M  V30 17062 H 1600.04 3.57478 -4.95017 0
M  V30 17063 H 1601.45 1.38745 -5.56258 0
M  V30 17064 H 1599.85 0.703132 -5.95966 0
M  V30 17065 H 1600.92 -0.167554 -4.8461 0
M  V30 17066 N 1602.26 1.57322 0.0935319 0
M  V30 17067 C 1603.68 1.5319 0.447781 0
M  V30 17068 C 1603.88 0.897107 1.80428 0
M  V30 17069 O 1602.93 0.490285 2.47694 0
M  V30 17070 C 1604.25 2.97908 0.408832 0
M  V30 17071 C 1605.79 3.09132 0.490576 0
M  V30 17072 C 1606.27 4.55459 0.481759 0
M  V30 17073 N 1607.76 4.60013 0.542468 0
M  V30 17074 C 1608.49 5.70683 0.557509 0
M  V30 17075 N 1607.99 6.9078 0.528664 0
M  V30 17076 N 1609.78 5.58862 0.602438 0
M  V30 17077 H 1601.93 1.96962 -0.794965 0
M  V30 17078 H 1604.2 0.900583 -0.296064 0
M  V30 17079 H 1603.9 3.47823 -0.520766 0
M  V30 17080 H 1603.78 3.56678 1.22722 0
M  V30 17081 H 1606.16 2.59203 1.41059 0
M  V30 17082 H 1606.25 2.53311 -0.355982 0
M  V30 17083 H 1605.89 5.0604 -0.43432 0
M  V30 17084 H 1605.82 5.09119 1.34555 0
M  V30 17085 H 1608.31 3.73578 0.569892 0
M  V30 17086 H 1608.62 7.70887 0.543467 0
M  V30 17087 H 1606.97 6.9323 0.495687 0
M  V30 17088 H 1610.16 4.63942 0.622514 0
M  V30 17089 H 1610.33 6.45116 0.610691 0
M  V30 17090 N 1603.74 -0.364395 1.53329 0
M  V30 17091 C 1604.97 -1.1275 1.7348 0
M  V30 17092 C 1605.38 -1.83002 0.4643 0
M  V30 17093 O 1604.74 -1.73603 -0.562864 0
M  V30 17094 C 1604.79 -2.15691 2.90103 0
M  V30 17095 O 1604.51 -1.48298 4.12237 0
M  V30 17096 C 1606.01 -3.04539 3.22135 0
M  V30 17097 H 1603.23 -0.337084 0.580186 0
M  V30 17098 H 1605.78 -0.422952 2.00078 0
M  V30 17099 H 1603.93 -2.81742 2.65895 0
M  V30 17100 H 1604.34 -2.16896 4.77553 0
M  V30 17101 H 1605.82 -3.72747 4.07141 0
M  V30 17102 H 1606.3 -3.69414 2.3755 0
M  V30 17103 H 1606.9 -2.44103 3.48273 0
M  V30 17104 N 1605.22 -1.44709 -0.62426 0
M  V30 17105 C 1606.15 -1.48097 -1.74928 0
M  V30 17106 C 1607.16 -0.373567 -1.58456 0
M  V30 17107 O 1608.35 -0.639699 -1.66644 0
M  V30 17108 C 1605.45 -1.30576 -3.12735 0
M  V30 17109 C 1604.62 -2.54688 -3.55602 0
M  V30 17110 C 1603.68 -2.31966 -4.72311 0
M  V30 17111 O 1602.71 -3.05492 -4.80274 0
M  V30 17112 N 1603.91 -1.35463 -5.64473 0
M  V30 17113 H 1606.68 -2.45086 -1.72491 0
M  V30 17114 H 1604.24 -1.40236 -0.809039 0
M  V30 17115 H 1606.23 -1.13212 -3.88542 0
M  V30 17116 H 1604.8 -0.419262 -3.09776 0
M  V30 17117 H 1604.02 -2.87282 -2.69931 0
M  V30 17118 H 1605.31 -3.37223 -3.80996 0
M  V30 17119 H 1604.7 -0.747509 -5.60739 0
M  V30 17120 H 1603.26 -1.24075 -6.39882 0
M  V30 17121 N 1606.69 0.865285 -1.31722 0
M  V30 17122 C 1607.92 1.65661 -1.24785 0
M  V30 17123 C 1608.34 1.87208 0.182952 0
M  V30 17124 O 1607.7 1.41721 1.1307 0
M  V30 17125 C 1607.75 2.99921 -2.00199 0
M  V30 17126 O 1606.85 3.89936 -1.34253 0
M  V30 17127 H 1606.2 0.505459 -0.430589 0
M  V30 17128 H 1608.73 1.0785 -1.73867 0
M  V30 17129 H 1608.74 3.49823 -2.09971 0
M  V30 17130 H 1607.41 2.83559 -3.04249 0
M  V30 17131 H 1605.99 3.4839 -1.32961 0
M  V30 17132 N 1608.17 1.14759 1.0802 0
M  V30 17133 C 1609.42 0.918248 1.80484 0
M  V30 17134 C 1609.75 -0.554986 1.86414 0
M  V30 17135 O 1609 -1.42732 1.33888 0
M  V30 17136 C 1609.3 1.4692 3.25805 0
M  V30 17137 C 1608.97 2.96176 3.39987 0
M  V30 17138 C 1607.63 3.36923 3.43564 0
M  V30 17139 C 1609.98 3.92131 3.43341 0
M  V30 17140 C 1607.31 4.72281 3.48092 0
M  V30 17141 C 1609.66 5.27351 3.49404 0
M  V30 17142 C 1608.33 5.67605 3.51256 0
M  V30 17143 H 1607.6 0.336011 0.660437 0
M  V30 17144 H 1610.24 1.43191 1.27156 0
M  V30 17145 H 1608.55 0.876571 3.81868 0
M  V30 17146 H 1610.24 1.26765 3.80436 0
M  V30 17147 H 1606.83 2.63675 3.37896 0
M  V30 17148 H 1611.02 3.61728 3.39804 0
M  V30 17149 H 1606.27 5.02823 3.4782 0
M  V30 17150 H 1610.45 6.01507 3.50946 0
M  V30 17151 H 1608.08 6.72474 3.54517 0
M  V30 17152 N 1609.65 -1.26251 0.943322 0
M  V30 17153 C 1610.88 -1.98278 0.608341 0
M  V30 17154 C 1611.3 -1.69756 -0.810208 0
M  V30 17155 O 1610.66 -0.946846 -1.54611 0
M  V30 17156 C 1610.71 -3.50205 0.859591 0
M  V30 17157 O 1609.81 -4.12345 -0.0672371 0
M  V30 17158 H 1609.15 -0.621973 0.232477 0
M  V30 17159 H 1611.68 -1.60662 1.26684 0
M  V30 17160 H 1611.69 -4.00449 0.781341 0
M  V30 17161 H 1610.37 -3.70294 1.89354 0
M  V30 17162 H 1608.94 -3.72848 0.0622543 0
M  V30 17163 N 1611.13 -0.710588 -1.40671 0
M  V30 17164 C 1612.08 -0.043614 -2.32559 0
M  V30 17165 C 1613.07 0.752425 -1.51773 0
M  V30 17166 O 1614.28 0.656356 -1.67607 0
M  V30 17167 H 1610.65 0.00469865 -0.751985 0
M  V30 17168 H 1612.62 -0.835399 -2.86468 0
M  V30 17169 C 1611.37 0.867796 -3.36697 0
M  V30 17170 H 1610.7 0.264667 -3.98923 0
M  V30 17171 H 1612.14 1.30252 -4.03498 0
M  V30 17172 C 1610.59 1.99094 -2.71778 0
M  V30 17173 O 1611.12 3.08129 -2.5772 0
M  V30 17174 N 1609.33 1.77309 -2.30239 0
M  V30 17175 H 1608.88 0.886325 -2.41872 0
M  V30 17176 H 1608.84 2.52639 -1.87139 0
M  V30 17177 N 1612.61 1.50847 -0.456408 0
M  V30 17178 C 1613.85 2.03174 0.0959527 0
M  V30 17179 C 1614.21 1.33328 1.38713 0
M  V30 17180 O 1613.5 0.44539 1.86351 0
M  V30 17181 C 1613.7 3.55678 0.350374 0
M  V30 17182 C 1613.52 4.40301 -0.914596 0
M  V30 17183 C 1612.29 4.83939 -1.45367 0
M  V30 17184 C 1614.49 4.81547 -1.80601 0
M  V30 17185 N 1612.47 5.52836 -2.66919 0
M  V30 17186 C 1613.85 5.49705 -2.86747 0
M  V30 17187 C 1615.9 4.63517 -1.81815 0
M  V30 17188 C 1614.6 6.01743 -3.94078 0
M  V30 17189 C 1616.63 5.16485 -2.88093 0
M  V30 17190 C 1615.99 5.84605 -3.92958 0
M  V30 17191 H 1612.09 0.781987 -0.00454189 0
M  V30 17192 H 1614.67 1.8452 -0.62134 0
M  V30 17193 H 1612.85 3.74309 1.0367 0
M  V30 17194 H 1614.58 3.94662 0.895777 0
M  V30 17195 H 1611.33 4.62816 -1.0049 0
M  V30 17196 H 1611.76 5.919 -3.28608 0
M  V30 17197 H 1616.4 4.10296 -1.02064 0
M  V30 17198 H 1614.12 6.54009 -4.74655 0
M  V30 17199 H 1617.7 5.04374 -2.89997 0
M  V30 17200 H 1616.58 6.24854 -4.73843 0
M  V30 17201 N 1614.09 0.188454 1.56469 0
M  V30 17202 C 1615.02 -0.730379 2.21783 0
M  V30 17203 C 1616 -1.22629 1.17882 0
M  V30 17204 O 1617.18 -1.27634 1.46367 0
M  V30 17205 C 1614.31 -1.95278 2.872 0
M  V30 17206 C 1613.27 -1.59205 3.97288 0
M  V30 17207 C 1612.59 -2.89052 4.49836 0
M  V30 17208 C 1613.89 -0.807027 5.16027 0
M  V30 17209 H 1615.59 -0.185914 2.98822 0
M  V30 17210 H 1613.13 -0.0879804 1.43731 0
M  V30 17211 H 1615.08 -2.60074 3.31571 0
M  V30 17212 H 1613.81 -2.52167 2.07556 0
M  V30 17213 H 1612.47 -0.967713 3.53597 0
M  V30 17214 H 1612.12 -3.44017 3.66963 0
M  V30 17215 H 1611.82 -2.65663 5.24115 0
M  V30 17216 H 1613.34 -3.54847 4.96906 0
M  V30 17217 H 1614.75 -1.35794 5.56986 0
M  V30 17218 H 1613.15 -0.671516 5.96331 0
M  V30 17219 H 1614.22 0.193251 4.84515 0
M  V30 17220 N 1615.56 -1.5737 -0.0851874 0
M  V30 17221 C 1616.98 -1.53425 -0.439651 0
M  V30 17222 C 1617.18 -0.906663 -1.7995 0
M  V30 17223 O 1616.24 -0.503414 -2.47431 0
M  V30 17224 C 1617.55 -2.9812 -0.393028 0
M  V30 17225 C 1619.1 -3.09387 -0.474175 0
M  V30 17226 C 1619.57 -4.55708 -0.457598 0
M  V30 17227 N 1621.06 -4.60294 -0.518065 0
M  V30 17228 C 1621.8 -5.70971 -0.527237 0
M  V30 17229 N 1621.29 -6.91051 -0.492023 0
M  V30 17230 N 1623.09 -5.59174 -0.572792 0
M  V30 17231 H 1615.24 -1.96538 0.805399 0
M  V30 17232 H 1617.5 -0.899 0.300836 0
M  V30 17233 H 1617.21 -3.47542 0.539204 0
M  V30 17234 H 1617.08 -3.57324 -1.20829 0
M  V30 17235 H 1619.47 -2.59948 -1.39683 0
M  V30 17236 H 1619.55 -2.53119 0.369411 0
M  V30 17237 H 1619.19 -5.05802 0.46115 0
M  V30 17238 H 1619.12 -5.09826 -1.31853 0
M  V30 17239 H 1621.61 -3.73875 -0.550072 0
M  V30 17240 H 1621.93 -7.71164 -0.502578 0
M  V30 17241 H 1620.27 -6.93483 -0.458917 0
M  V30 17242 H 1623.46 -4.64266 -0.597901 0
M  V30 17243 H 1623.64 -6.45431 -0.576471 0
M  V30 17244 N 1617.04 0.356258 -1.53521 0
M  V30 17245 C 1618.32 1.11414 -1.60768 0
M  V30 17246 C 1618.7 2.0686 -0.420991 0
M  V30 17247 O 1618.05 2.20807 0.587929 0
M  V30 17248 C 1618.26 1.84503 -2.96243 0
M  V30 17249 C 1619.6 2.38703 -3.5115 0
M  V30 17250 O 1620.63 1.94617 -2.98333 0
M  V30 17251 O 1619.49 3.19322 -4.43504 0
M  V30 17252 H 1616.58 0.511623 -0.649747 0
M  V30 17253 H 1619.13 0.358772 -1.65864 0
M  V30 17254 H 1617.9 1.14898 -3.74051 0
M  V30 17255 H 1617.52 2.66927 -2.94679 0
M  V30 17256 N 1618.52 1.45038 0.616577 0
M  V30 17257 C 1619.77 1.47861 1.37186 0
M  V30 17258 C 1620.08 0.120862 1.95226 0
M  V30 17259 O 1621.29 0.0266872 2.71487 0
M  V30 17260 C 1619.74 2.6038 2.48455 0
M  V30 17261 C 1619.35 4.02428 1.96866 0
M  V30 17262 C 1621.1 2.7244 3.25541 0
M  V30 17263 C 1619 5.06345 3.05563 0
M  V30 17264 H 1617.93 0.550166 0.51559 0
M  V30 17265 H 1620.58 1.71151 0.661796 0
M  V30 17266 H 1618.97 2.30357 3.22105 0
M  V30 17267 H 1620.14 4.42087 1.29985 0
M  V30 17268 H 1618.45 3.94739 1.32552 0
M  V30 17269 H 1621.05 3.47248 4.06599 0
M  V30 17270 H 1621.39 1.7876 3.75966 0
M  V30 17271 H 1621.93 3.01944 2.58988 0
M  V30 17272 H 1618.67 6.01703 2.60065 0
M  V30 17273 H 1618.19 4.71264 3.7104 0
M  V30 17274 H 1619.87 5.30695 3.70097 0
M  V30 17275 N 1620 -0.858287 1.32179 0
M  V30 17276 C 1621.24 -1.6261 1.23844 0
M  V30 17277 C 1621.6 -1.9098 -0.197628 0
M  V30 17278 O 1622.8 -2.65737 -0.40465 0
M  V30 17279 C 1621.07 -2.91319 2.07047 0
M  V30 17280 S 1622.63 -3.82125 2.15699 0
M  V30 17281 H 1619.45 -0.557789 0.4409 0
M  V30 17282 H 1622.05 -1.0167 1.66983 0
M  V30 17283 H 1620.76 -2.68417 3.10452 0
M  V30 17284 H 1620.29 -3.57277 1.64671 0
M  V30 17285 H 1622.3 -4.78764 1.30384 0
M  V30 17286 N 1621.48 -1.1533 -1.07409 0
M  V30 17287 C 1622.7 -0.952101 -1.84255 0
M  V30 17288 C 1623.13 0.494571 -1.81482 0
M  V30 17289 O 1622.48 1.35253 -1.20733 0
M  V30 17290 C 1622.53 -1.47019 -3.29268 0
M  V30 17291 O 1621.64 -0.669005 -4.06937 0
M  V30 17292 H 1620.98 -0.339643 -0.57056 0
M  V30 17293 H 1623.51 -1.53298 -1.35502 0
M  V30 17294 H 1623.52 -1.48278 -3.80102 0
M  V30 17295 H 1622.19 -2.5234 -3.30602 0
M  V30 17296 H 1620.77 -0.726003 -3.65764 0
M  V30 17297 N 1622.95 1.25748 -0.950004 0
M  V30 17298 C 1624.2 1.92954 -0.601104 0
M  V30 17299 C 1624.52 1.74817 0.863953 0
M  V30 17300 O 1623.79 1.10904 1.61484 0
M  V30 17301 H 1622.37 0.714077 -0.219325 0
M  V30 17302 H 1625.03 1.53009 -1.20724 0
M  V30 17303 H 1624.13 3.00959 -0.826447 0
M  V30 17304 N 1624.43 0.718038 1.40292 0
M  V30 17305 C 1625.68 0.255581 2.00074 0
M  V30 17306 C 1625.99 -1.15859 1.57594 0
M  V30 17307 O 1627.2 -1.71969 2.10092 0
M  V30 17308 C 1625.66 0.406019 3.57602 0
M  V30 17309 C 1625.26 1.82699 4.09054 0
M  V30 17310 C 1627.01 0.00447854 4.245 0
M  V30 17311 C 1624.91 1.92788 5.59094 0
M  V30 17312 H 1623.84 0.0918012 0.748391 0
M  V30 17313 H 1626.5 0.88948 1.60501 0
M  V30 17314 H 1624.88 -0.296504 3.94888 0
M  V30 17315 H 1626.05 2.56009 3.8314 0
M  V30 17316 H 1624.37 2.18021 3.54761 0
M  V30 17317 H 1626.96 0.05911 5.34667 0
M  V30 17318 H 1627.31 -1.03779 4.03157 0
M  V30 17319 H 1627.84 0.657535 3.92328 0
M  V30 17320 H 1624.58 2.95145 5.85295 0
M  V30 17321 H 1624.1 1.23893 5.86865 0
M  V30 17322 H 1625.78 1.70114 6.24236 0
M  V30 17323 N 1625.91 -1.50602 0.464402 0
M  V30 17324 C 1627.14 -2.06701 -0.0907765 0
M  V30 17325 C 1627.55 -1.32901 -1.341 0
M  V30 17326 O 1626.91 -0.396323 -1.78145 0
M  V30 17327 C 1626.96 -3.59437 -0.385667 0
M  V30 17328 O 1626.68 -4.30453 0.81496 0
M  V30 17329 C 1628.18 -4.32137 -0.988549 0
M  V30 17330 H 1625.4 -0.670987 0.00410069 0
M  V30 17331 H 1627.95 -1.93853 0.651264 0
M  V30 17332 H 1626.1 -3.7211 -1.07763 0
M  V30 17333 H 1626.52 -5.2155 0.55551 0
M  V30 17334 H 1627.99 -5.40001 -1.1447 0
M  V30 17335 H 1628.47 -3.92194 -1.97688 0
M  V30 17336 H 1629.07 -4.23977 -0.335166 0
M  V30 17337 N 1627.39 -0.19675 -1.56367 0
M  V30 17338 C 1628.64 0.441807 -1.96802 0
M  V30 17339 C 1628.95 1.62645 -1.08656 0
M  V30 17340 O 1630.16 2.33291 -1.3888 0
M  V30 17341 C 1628.61 0.837415 -3.50022 0
M  V30 17342 C 1628.22 -0.323031 -4.46834 0
M  V30 17343 C 1629.96 1.44296 -3.99223 0
M  V30 17344 C 1627.87 0.0936285 -5.91326 0
M  V30 17345 H 1626.8 0.168834 -0.734854 0
M  V30 17346 H 1629.45 -0.289029 -1.81209 0
M  V30 17347 H 1627.83 1.62497 -3.61124 0
M  V30 17348 H 1629.01 -1.10056 -4.47464 0
M  V30 17349 H 1627.32 -0.840182 -4.07836 0
M  V30 17350 H 1629.92 1.76718 -5.04653 0
M  V30 17351 H 1630.26 2.35003 -3.43627 0
M  V30 17352 H 1630.8 0.71935 -3.91242 0
M  V30 17353 H 1627.54 -0.779297 -6.50851 0
M  V30 17354 H 1627.06 0.835984 -5.93946 0
M  V30 17355 H 1628.73 0.528864 -6.44835 0
M  V30 17356 N 1628.87 1.57413 0.0768405 0
M  V30 17357 C 1630.11 1.87002 0.776948 0
M  V30 17358 C 1630.44 0.787799 1.77831 0
M  V30 17359 O 1629.7 -0.216742 1.94496 0
M  V30 17360 C 1630 3.2324 1.52482 0
M  V30 17361 C 1629.66 4.45986 0.663899 0
M  V30 17362 C 1628.32 4.79305 0.426629 0
M  V30 17363 C 1630.68 5.21157 0.0665867 0
M  V30 17364 C 1628 5.85213 -0.417518 0
M  V30 17365 C 1630.36 6.27958 -0.764986 0
M  V30 17366 C 1629.02 6.59781 -1.01218 0
M  V30 17367 H 1628.29 0.684289 0.284306 0
M  V30 17368 H 1630.94 1.91463 0.0378686 0
M  V30 17369 H 1629.24 3.14547 2.33596 0
M  V30 17370 H 1630.94 3.43368 2.07123 0
M  V30 17371 H 1627.53 4.19905 0.858956 0
M  V30 17372 H 1631.71 4.95734 0.237022 0
M  V30 17373 H 1626.97 6.0827 -0.617827 0
M  V30 17374 H 1631.14 6.85369 -1.23459 0
M  V30 17375 H 1628.77 7.41674 -1.66806 0
M  V30 17376 N 1630.34 -0.348112 1.53707 0
M  V30 17377 C 1631.29 -1.42729 1.81375 0
M  V30 17378 C 1632.26 -1.52461 0.659159 0
M  V30 17379 O 1633.45 -1.68072 0.903129 0
M  V30 17380 C 1630.59 -2.79443 2.02498 0
M  V30 17381 C 1629.7 -2.7854 3.30211 0
M  V30 17382 C 1628.83 -4.06942 3.41426 0
M  V30 17383 C 1627.87 -4.00248 4.63106 0
M  V30 17384 N 1627.01 -5.20332 4.7138 0
M  V30 17385 H 1631.85 -1.18436 2.73454 0
M  V30 17386 H 1629.39 -0.573809 1.35447 0
M  V30 17387 H 1631.35 -3.58888 2.12733 0
M  V30 17388 H 1629.98 -3.02099 1.13737 0
M  V30 17389 H 1629.03 -1.91227 3.28841 0
M  V30 17390 H 1630.34 -2.69471 4.19746 0
M  V30 17391 H 1629.49 -4.94808 3.51069 0
M  V30 17392 H 1628.23 -4.18786 2.49939 0
M  V30 17393 H 1627.24 -3.10767 4.53546 0
M  V30 17394 H 1628.46 -3.89991 5.55953 0
M  V30 17395 H 1626.41 -5.32729 3.828 0
M  V30 17396 H 1626.33 -5.13502 5.54844 0
M  V30 17397 H 1627.59 -6.09982 4.85326 0
M  V30 17398 N 1631.82 -1.45363 -0.608876 0
M  V30 17399 C 1633.05 -1.53066 -1.39949 0
M  V30 17400 C 1633.47 -0.16369 -1.87386 0
M  V30 17401 O 1632.83 0.851432 -1.60064 0
M  V30 17402 C 1632.88 -2.51836 -2.58091 0
M  V30 17403 O 1631.98 -2.03528 -3.58678 0
M  V30 17404 H 1631.32 -0.516031 -0.417861 0
M  V30 17405 H 1633.85 -1.90705 -0.74113 0
M  V30 17406 H 1633.86 -2.706 -3.05352 0
M  V30 17407 H 1632.54 -3.51117 -2.22912 0
M  V30 17408 H 1631.12 -1.94634 -3.18075 0
M  V30 17409 N 1633.3 0.851265 -1.32632 0
M  V30 17410 C 1634.55 1.60569 -1.23385 0
M  V30 17411 C 1634.88 1.93433 0.203484 0
M  V30 17412 O 1634.13 1.57806 1.1574 0
M  V30 17413 C 1634.43 2.93312 -2.04212 0
M  V30 17414 C 1634.1 2.79864 -3.53535 0
M  V30 17415 C 1632.76 2.75903 -3.94247 0
M  V30 17416 C 1635.11 2.65553 -4.48476 0
M  V30 17417 C 1632.44 2.55515 -5.28137 0
M  V30 17418 C 1634.79 2.467 -5.82514 0
M  V30 17419 C 1633.45 2.41134 -6.22423 0
M  V30 17420 H 1632.72 0.587563 -0.451498 0
M  V30 17421 H 1635.37 0.987209 -1.64093 0
M  V30 17422 H 1633.68 3.59298 -1.56243 0
M  V30 17423 H 1635.37 3.50714 -1.94424 0
M  V30 17424 H 1631.96 2.83773 -3.21202 0
M  V30 17425 H 1636.15 2.67655 -4.17941 0
M  V30 17426 H 1631.4 2.49644 -5.58111 0
M  V30 17427 H 1635.58 2.34607 -6.55692 0
M  V30 17428 H 1633.2 2.25095 -7.2611 0
M  V30 17429 N 1634.78 1.15898 1.06796 0
M  V30 17430 C 1635.73 0.860895 2.14143 0
M  V30 17431 C 1636.7 -0.188539 1.65026 0
M  V30 17432 O 1637.88 -0.0548558 1.90721 0
M  V30 17433 C 1635.02 0.362533 3.4319 0
M  V30 17434 C 1634.13 1.4742 4.06068 0
M  V30 17435 C 1633.27 0.931377 5.22971 0
M  V30 17436 C 1632.31 2.0196 5.77822 0
M  V30 17437 N 1631.44 1.49274 6.86048 0
M  V30 17438 H 1636.28 1.78023 2.38981 0
M  V30 17439 H 1633.82 0.888173 1.1726 0
M  V30 17440 H 1635.78 0.0552592 4.17163 0
M  V30 17441 H 1634.41 -0.519869 3.18586 0
M  V30 17442 H 1633.46 1.89754 3.29693 0
M  V30 17443 H 1634.77 2.29559 4.42836 0
M  V30 17444 H 1633.93 0.576982 6.0395 0
M  V30 17445 H 1632.67 0.0792265 4.87636 0
M  V30 17446 H 1631.67 2.38275 4.95485 0
M  V30 17447 H 1632.9 2.87562 6.15211 0
M  V30 17448 H 1630.84 0.663037 6.52641 0
M  V30 17449 H 1630.76 2.25035 7.21731 0
M  V30 17450 H 1632.03 1.16676 7.70718 0
M  V30 17451 N 1636.26 -1.25243 0.956659 0
M  V30 17452 C 1637.53 -1.88287 0.529832 0
M  V30 17453 C 1637.91 -1.8629 -0.992929 0
M  V30 17454 O 1637.26 -1.32785 -1.85958 0
M  V30 17455 C 1637.47 -3.30919 1.10877 0
M  V30 17456 C 1638.82 -4.07674 1.18687 0
M  V30 17457 O 1639.84 -3.40048 1.06047 0
M  V30 17458 O 1638.7 -5.28648 1.38541 0
M  V30 17459 H 1635.8 -0.808258 0.175066 0
M  V30 17460 H 1638.34 -1.33298 1.05022 0
M  V30 17461 H 1637.11 -3.26813 2.15195 0
M  V30 17462 H 1636.74 -3.93468 0.571755 0
M  V30 17463 N 1637.73 -0.725468 -1.3991 0
M  V30 17464 C 1638.7 -0.0878956 -2.29031 0
M  V30 17465 C 1639.7 0.677105 -1.45849 0
M  V30 17466 O 1640.89 0.507538 -1.66642 0
M  V30 17467 C 1638.02 0.885087 -3.2921 0
M  V30 17468 H 1639.21 -0.872957 -2.86914 0
M  V30 17469 H 1636.77 -0.490715 -1.48397 0
M  V30 17470 H 1637.5 1.69685 -2.76365 0
M  V30 17471 H 1637.29 0.339297 -3.90629 0
M  V30 17472 H 1638.78 1.32806 -3.9592 0
M  V30 17473 N 1639.21 1.50354 -0.472382 0
M  V30 17474 C 1640.46 2.01526 0.0838536 0
M  V30 17475 C 1640.77 1.35913 1.40667 0
M  V30 17476 O 1641.98 1.78248 2.04792 0
M  V30 17477 C 1640.44 3.59344 0.199949 0
M  V30 17478 C 1640.04 4.33916 -1.11451 0
M  V30 17479 C 1641.79 4.18553 0.708075 0
M  V30 17480 C 1639.7 5.83521 -0.962138 0
M  V30 17481 H 1638.63 0.753182 0.0351127 0
M  V30 17482 H 1641.28 1.73153 -0.607474 0
M  V30 17483 H 1639.66 3.8431 0.955088 0
M  V30 17484 H 1640.83 4.20673 -1.8807 0
M  V30 17485 H 1639.15 3.86322 -1.55385 0
M  V30 17486 H 1641.74 5.28075 0.839126 0
M  V30 17487 H 1642.09 3.80019 1.69973 0
M  V30 17488 H 1642.62 3.97799 0.0102847 0
M  V30 17489 H 1639.36 6.26529 -1.9272 0
M  V30 17490 H 1638.88 5.99334 -0.236348 0
M  V30 17491 H 1640.56 6.43933 -0.629276 0
M  V30 17492 N 1640.69 0.205039 1.56261 0
M  V30 17493 C 1641.92 -0.435787 2.01952 0
M  V30 17494 C 1642.33 -1.55048 1.08428 0
M  V30 17495 O 1641.67 -1.83512 0.0831276 0
M  V30 17496 C 1641.73 -1.04359 3.4402 0
M  V30 17497 C 1641.4 -0.0663955 4.56952 0
M  V30 17498 C 1642.4 0.727909 5.14779 0
M  V30 17499 C 1640.08 0.0475718 5.02277 0
M  V30 17500 C 1642.07 1.62305 6.16389 0
M  V30 17501 C 1639.76 0.94626 6.03729 0
M  V30 17502 C 1640.76 1.73256 6.6066 0
M  V30 17503 O 1640.45 2.61617 7.60139 0
M  V30 17504 H 1640.18 -0.112721 0.666536 0
M  V30 17505 H 1642.73 0.313993 2.02986 0
M  V30 17506 H 1640.96 -1.84215 3.40003 0
M  V30 17507 H 1642.65 -1.5901 3.73458 0
M  V30 17508 H 1643.42 0.65022 4.80622 0
M  V30 17509 H 1639.3 -0.554295 4.57656 0
M  V30 17510 H 1642.84 2.23722 6.60753 0
M  V30 17511 H 1638.74 1.02503 6.3731 0
M  V30 17512 H 1639.51 2.55507 7.77598 0
M  V30 17513 N 1642.17 -1.57451 -0.0684915 0
M  V30 17514 C 1643.42 -1.88551 -0.762893 0
M  V30 17515 C 1643.77 -0.799127 -1.75019 0
M  V30 17516 O 1643.06 0.196383 -1.90591 0
M  V30 17517 C 1643.26 -3.24044 -1.50765 0
M  V30 17518 C 1643.09 -4.4576 -0.593989 0
M  V30 17519 C 1641.86 -5.04778 -0.229695 0
M  V30 17520 C 1644.05 -5.14181 0.110706 0
M  V30 17521 N 1642.04 -6.10017 0.689348 0
M  V30 17522 C 1643.41 -6.13625 0.886817 0
M  V30 17523 C 1645.46 -4.97568 0.181829 0
M  V30 17524 C 1644.17 -6.98249 1.72745 0
M  V30 17525 C 1646.19 -5.82721 1.00945 0
M  V30 17526 C 1645.55 -6.81706 1.77359 0
M  V30 17527 H 1641.65 -0.739431 -0.254491 0
M  V30 17528 H 1644.24 -1.94685 -0.0242838 0
M  V30 17529 H 1642.41 -3.18913 -2.21696 0
M  V30 17530 H 1644.14 -3.42782 -2.15133 0
M  V30 17531 H 1640.89 -4.69994 -0.583282 0
M  V30 17532 H 1641.32 -6.67295 1.14221 0
M  V30 17533 H 1645.96 -4.20954 -0.394627 0
M  V30 17534 H 1643.68 -7.74235 2.31486 0
M  V30 17535 H 1647.26 -5.71923 1.0675 0
M  V30 17536 H 1646.14 -7.46454 2.40367 0
M  V30 17537 N 1643.65 0.339955 -1.5389 0
M  V30 17538 C 1644.58 1.42316 -1.85117 0
M  V30 17539 C 1645.56 1.5473 -0.706591 0
M  V30 17540 O 1646.74 1.68879 -0.958834 0
M  V30 17541 C 1643.87 2.79317 -2.06396 0
M  V30 17542 C 1642.83 2.81707 -3.22219 0
M  V30 17543 C 1642.15 4.21627 -3.28838 0
M  V30 17544 C 1643.45 2.46921 -4.60247 0
M  V30 17545 H 1645.15 1.16431 -2.75834 0
M  V30 17546 H 1642.69 0.558661 -1.32721 0
M  V30 17547 H 1644.65 3.55145 -2.26826 0
M  V30 17548 H 1643.37 3.06644 -1.12414 0
M  V30 17549 H 1642.03 2.08332 -3.01651 0
M  V30 17550 H 1641.68 4.4607 -2.32444 0
M  V30 17551 H 1641.38 4.24137 -4.06672 0
M  V30 17552 H 1642.9 4.99292 -3.51482 0
M  V30 17553 H 1644.32 3.12462 -4.80667 0
M  V30 17554 H 1642.71 2.60707 -5.40511 0
M  V30 17555 H 1643.78 1.421 -4.63611 0
M  V30 17556 N 1645.13 1.45684 0.601159 0
M  V30 17557 C 1646.36 1.53351 1.38445 0
M  V30 17558 C 1646.76 0.167103 1.88461 0
M  V30 17559 O 1646.11 -0.842684 1.63231 0
M  V30 17560 C 1646.17 2.46214 2.61952 0
M  V30 17561 C 1645.83 3.92826 2.33532 0
M  V30 17562 C 1646.83 4.8255 1.93498 0
M  V30 17563 C 1644.51 4.378 2.46245 0
M  V30 17564 C 1646.51 6.15257 1.66547 0
M  V30 17565 C 1644.2 5.70546 2.18908 0
M  V30 17566 C 1645.19 6.59094 1.79121 0
M  V30 17567 O 1644.88 7.89378 1.52108 0
M  V30 17568 H 1644.61 0.521638 0.429965 0
M  V30 17569 H 1647.17 1.91622 0.739617 0
M  V30 17570 H 1645.4 2.02926 3.29178 0
M  V30 17571 H 1647.09 2.44492 3.24004 0
M  V30 17572 H 1647.85 4.49066 1.83207 0
M  V30 17573 H 1643.73 3.69115 2.76179 0
M  V30 17574 H 1647.28 6.8433 1.35418 0
M  V30 17575 H 1643.17 6.03583 2.28818 0
M  V30 17576 H 1643.94 8.01468 1.66107 0
M  V30 17577 N 1646.6 -0.84422 1.33082 0
M  V30 17578 C 1647.83 -1.63133 1.27261 0
M  V30 17579 C 1648.25 -1.88142 -0.157479 0
M  V30 17580 O 1647.6 -1.4578 -1.09793 0
M  V30 17581 C 1647.65 -2.98462 2.03967 0
M  V30 17582 O 1647.38 -2.74555 3.41396 0
M  V30 17583 C 1648.88 -3.92899 2.05293 0
M  V30 17584 H 1646.1 -0.507769 0.438647 0
M  V30 17585 H 1648.64 -1.05194 1.75369 0
M  V30 17586 H 1646.8 -3.53017 1.59554 0
M  V30 17587 H 1647.21 -3.60694 3.80789 0
M  V30 17588 H 1648.68 -4.85088 2.63427 0
M  V30 17589 H 1649.16 -4.26665 1.04183 0
M  V30 17590 H 1649.77 -3.44281 2.49701 0
M  V30 17591 N 1648.08 -1.16463 -1.0618 0
M  V30 17592 C 1649.03 -0.87224 -2.13683 0
M  V30 17593 C 1650 0.179784 -1.65124 0
M  V30 17594 O 1651.18 0.0447406 -1.90748 0
M  V30 17595 C 1648.32 -0.380728 -3.42993 0
M  V30 17596 C 1647.44 -1.49571 -4.05281 0
M  V30 17597 C 1646.57 -0.959099 -5.2247 0
M  V30 17598 C 1645.61 -2.05021 -5.76743 0
M  V30 17599 N 1644.75 -1.5291 -6.85247 0
M  V30 17600 H 1649.59 -1.79288 -2.38033 0
M  V30 17601 H 1647.12 -0.894379 -1.16787 0
M  V30 17602 H 1649.08 -0.0773816 -4.17128 0
M  V30 17603 H 1647.71 0.502966 -3.18857 0
M  V30 17604 H 1646.76 -1.915 -3.28682 0
M  V30 17605 H 1648.08 -2.31904 -4.41613 0
M  V30 17606 H 1647.23 -0.609003 -6.03636 0
M  V30 17607 H 1645.97 -0.105086 -4.87587 0
M  V30 17608 H 1644.97 -2.40899 -4.94214 0
M  V30 17609 H 1646.2 -2.90821 -6.13678 0
M  V30 17610 H 1644.15 -0.697639 -6.5228 0
M  V30 17611 H 1644.06 -2.28859 -7.20527 0
M  V30 17612 H 1645.33 -1.20762 -7.70089 0
M  V30 17613 N 1649.56 1.24734 -0.963288 0
M  V30 17614 C 1650.49 2.27892 -0.508667 0
M  V30 17615 C 1651.47 1.64055 0.449438 0
M  V30 17616 O 1652.66 1.91083 0.346519 0
M  V30 17617 C 1649.79 3.46688 0.206157 0
M  V30 17618 C 1648.74 4.22762 -0.667534 0
M  V30 17619 C 1648.07 5.34402 0.178529 0
M  V30 17620 C 1649.37 4.84535 -1.94995 0
M  V30 17621 H 1651.06 2.66171 -1.37088 0
M  V30 17622 H 1648.61 1.27952 -0.660622 0
M  V30 17623 H 1650.56 4.17985 0.535391 0
M  V30 17624 H 1649.28 3.07422 1.10269 0
M  V30 17625 H 1647.94 3.53259 -0.979976 0
M  V30 17626 H 1647.59 4.91377 1.07508 0
M  V30 17627 H 1647.29 5.86218 -0.402808 0
M  V30 17628 H 1648.81 6.08529 0.502533 0
M  V30 17629 H 1650.23 5.4793 -1.68658 0
M  V30 17630 H 1648.62 5.46564 -2.47765 0
M  V30 17631 H 1649.69 4.06236 -2.64765 0
M  V30 17632 N 1651.04 0.732878 1.39523 0
M  V30 17633 C 1651.98 0.0915149 2.30618 0
M  V30 17634 C 1652.95 -0.731943 1.49103 0
M  V30 17635 O 1654.14 -0.692343 1.77796 0
M  V30 17636 C 1651.28 -0.811387 3.35426 0
M  V30 17637 C 1650.39 0.0244578 4.31993 0
M  V30 17638 C 1649.53 -0.879521 5.23868 0
M  V30 17639 C 1648.57 -0.0387974 6.12088 0
M  V30 17640 N 1647.7 -0.898593 6.96326 0
M  V30 17641 H 1652.54 0.87399 2.84895 0
M  V30 17642 H 1650.08 0.442659 1.40282 0
M  V30 17643 H 1652.04 -1.3493 3.94778 0
M  V30 17644 H 1650.67 -1.55986 2.8261 0
M  V30 17645 H 1649.72 0.679762 3.74277 0
M  V30 17646 H 1651.03 0.674606 4.94217 0
M  V30 17647 H 1650.19 -1.48535 5.88237 0
M  V30 17648 H 1648.93 -1.56345 4.6196 0
M  V30 17649 H 1647.93 0.579847 5.46734 0
M  V30 17650 H 1649.16 0.641887 6.7606 0
M  V30 17651 H 1647.1 -1.56786 6.36988 0
M  V30 17652 H 1647.02 -0.304876 7.55385 0
M  V30 17653 H 1648.29 -1.49005 7.65126 0
M  V30 17654 N 1652.52 -1.50101 0.480349 0
M  V30 17655 C 1653.79 -1.95144 -0.133456 0
M  V30 17656 C 1654.17 -1.4211 -1.56102 0
M  V30 17657 O 1653.52 -0.626012 -2.19757 0
M  V30 17658 C 1653.73 -3.48935 -0.0672904 0
M  V30 17659 C 1655.08 -4.23854 -0.251564 0
M  V30 17660 O 1656.1 -3.55911 -0.143446 0
M  V30 17661 O 1654.96 -5.44467 -0.470947 0
M  V30 17662 H 1652.06 -0.820098 -0.106619 0
M  V30 17663 H 1654.6 -1.60832 0.541413 0
M  V30 17664 H 1653.37 -3.80111 0.929058 0
M  V30 17665 H 1653 -3.8981 -0.783214 0
M  V30 17666 N 1653.99 -0.213323 -1.5615 0
M  V30 17667 C 1655.24 0.420598 -1.98084 0
M  V30 17668 C 1655.57 1.60355 -1.10075 0
M  V30 17669 O 1654.82 1.95171 -0.143848 0
M  V30 17670 C 1655.12 0.905764 -3.45732 0
M  V30 17671 C 1654.79 -0.165778 -4.50595 0
M  V30 17672 C 1653.45 -0.460161 -4.78995 0
M  V30 17673 C 1655.8 -0.890891 -5.1353 0
M  V30 17674 C 1653.13 -1.48432 -5.67613 0
M  V30 17675 C 1655.48 -1.90433 -6.03256 0
M  V30 17676 C 1654.15 -2.20572 -6.30004 0
M  V30 17677 H 1653.42 0.153908 -0.72484 0
M  V30 17678 H 1656.06 -0.314117 -1.88906 0
M  V30 17679 H 1654.37 1.71909 -3.52072 0
M  V30 17680 H 1656.07 1.40596 -3.75545 0
M  V30 17681 H 1652.66 0.0738261 -4.28536 0
M  V30 17682 H 1656.84 -0.676696 -4.91665 0
M  V30 17683 H 1652.1 -1.72354 -5.86604 0
M  V30 17684 H 1656.27 -2.47131 -6.51075 0
M  V30 17685 H 1653.9 -3.00074 -6.9847 0
M  V30 17686 N 1655.47 1.57485 0.0601405 0
M  V30 17687 C 1656.7 1.91772 0.768565 0
M  V30 17688 C 1657.11 0.808661 1.71048 0
M  V30 17689 O 1656.45 -0.226062 1.82304 0
M  V30 17690 C 1656.52 3.21623 1.6062 0
M  V30 17691 C 1656.18 4.49355 0.832411 0
M  V30 17692 C 1657.18 5.19694 0.146434 0
M  V30 17693 C 1654.86 4.95951 0.796137 0
M  V30 17694 C 1656.86 6.34887 -0.565461 0
M  V30 17695 C 1654.54 6.11047 0.0804763 0
M  V30 17696 C 1655.54 6.80367 -0.599112 0
M  V30 17697 O 1655.23 7.93266 -1.30322 0
M  V30 17698 H 1654.96 0.638161 0.222994 0
M  V30 17699 H 1657.51 2.05376 0.0311569 0
M  V30 17700 H 1655.74 3.0426 2.38668 0
M  V30 17701 H 1657.43 3.41471 2.19436 0
M  V30 17702 H 1658.2 4.84717 0.16569 0
M  V30 17703 H 1654.08 4.4186 1.31457 0
M  V30 17704 H 1657.62 6.88929 -1.09646 0
M  V30 17705 H 1653.52 6.45473 0.0591881 0
M  V30 17706 H 1654.29 8.09452 -1.21369 0
M  V30 17707 N 1656.95 -0.331789 1.54068 0
M  V30 17708 C 1657.86 -1.43116 1.8589 0
M  V30 17709 C 1658.88 -1.57003 0.75007 0
M  V30 17710 O 1660.05 -1.72256 1.04355 0
M  V30 17711 C 1657.12 -2.77945 2.07238 0
M  V30 17712 C 1656.18 -2.73303 3.31065 0
M  V30 17713 C 1655.41 -4.01702 3.51385 0
M  V30 17714 O 1655.63 -4.99562 2.75306 0
M  V30 17715 O 1654.57 -4.0546 4.44844 0
M  V30 17716 H 1658.39 -1.19137 2.79357 0
M  V30 17717 H 1655.98 -0.525057 1.3987 0
M  V30 17718 H 1657.86 -3.57774 2.22656 0
M  V30 17719 H 1656.54 -3.01831 1.16959 0
M  V30 17720 H 1655.44 -1.92054 3.21039 0
M  V30 17721 H 1656.78 -2.54371 4.21374 0
M  V30 17722 N 1658.43 -1.46001 -0.593424 0
M  V30 17723 C 1659.67 -1.50978 -1.35401 0
M  V30 17724 C 1660.01 -0.156626 -1.93567 0
M  V30 17725 O 1659.28 0.83067 -1.7587 0
M  V30 17726 C 1659.57 -2.60005 -2.49137 0
M  V30 17727 C 1659.42 -4.04814 -1.96075 0
M  V30 17728 C 1660.74 -2.65199 -3.51223 0
M  V30 17729 H 1657.86 -0.549657 -0.490965 0
M  V30 17730 H 1660.5 -1.77883 -0.667644 0
M  V30 17731 H 1658.65 -2.37194 -3.07687 0
M  V30 17732 H 1660.32 -4.38879 -1.42066 0
M  V30 17733 H 1658.56 -4.148 -1.26976 0
M  V30 17734 H 1659.23 -4.76811 -2.78128 0
M  V30 17735 H 1661.71 -2.85675 -3.02537 0
M  V30 17736 H 1660.59 -3.43323 -4.28276 0
M  V30 17737 H 1660.85 -1.70833 -4.0776 0
M  V30 17738 N 1659.91 0.83715 -1.33527 0
M  V30 17739 C 1660.85 1.96849 -1.23908 0
M  V30 17740 C 1661.85 1.6882 -0.140096 0
M  V30 17741 O 1663.05 1.77411 -0.304166 0
M  V30 17742 H 1659.43 0.646232 -0.384562 0
M  V30 17743 H 1661.4 2.02087 -2.19552 0
M  V30 17744 C 1660.15 3.33102 -0.996907 0
M  V30 17745 H 1659.47 3.5521 -1.83482 0
M  V30 17746 H 1660.91 4.12757 -0.96991 0
M  V30 17747 C 1659.37 3.3556 0.30013 0
M  V30 17748 O 1659.9 3.79868 1.30626 0
M  V30 17749 N 1658.11 2.8874 0.328269 0
M  V30 17750 H 1657.65 2.52877 -0.491043 0
M  V30 17751 H 1657.61 2.90767 1.19591 0
M  V30 17752 N 1661.38 1.17024 1.05561 0
M  V30 17753 C 1662.61 0.979328 1.81914 0
M  V30 17754 C 1663.02 -0.475688 1.83122 0
M  V30 17755 O 1662.37 -1.34205 1.25438 0
M  V30 17756 C 1662.43 1.4391 3.29439 0
M  V30 17757 C 1662.09 2.9155 3.5192 0
M  V30 17758 C 1663.09 3.89509 3.44353 0
M  V30 17759 C 1660.77 3.2964 3.79003 0
M  V30 17760 C 1662.77 5.23557 3.63548 0
M  V30 17761 C 1660.45 4.63855 3.97846 0
M  V30 17762 C 1661.45 5.60623 3.90117 0
M  V30 17763 O 1661.14 6.92411 4.08439 0
M  V30 17764 H 1660.87 0.34689 0.58021 0
M  V30 17765 H 1663.43 1.55641 1.34034 0
M  V30 17766 H 1661.66 0.805555 3.78216 0
M  V30 17767 H 1663.35 1.21445 3.87306 0
M  V30 17768 H 1664.11 3.61428 3.23412 0
M  V30 17769 H 1659.99 2.54891 3.84124 0
M  V30 17770 H 1663.53 5.99074 3.5743 0
M  V30 17771 H 1659.43 4.91644 4.18278 0
M  V30 17772 H 1660.2 6.99095 4.25685 0
M  V30 17773 N 1662.86 -1.24221 0.969889 0
M  V30 17774 C 1664.11 -1.91973 0.631725 0
M  V30 17775 C 1664.43 -1.76169 -0.836032 0
M  V30 17776 O 1663.7 -1.13459 -1.597 0
M  V30 17777 H 1662.28 -0.710497 0.230658 0
M  V30 17778 H 1664.94 -1.51069 1.23143 0
M  V30 17779 H 1664.04 -2.99606 0.874223 0
M  V30 17780 N 1664.34 -0.740267 -1.39132 0
M  V30 17781 C 1665.29 -0.103744 -2.30567 0
M  V30 17782 C 1666.26 0.724026 -1.49489 0
M  V30 17783 O 1667.44 0.682904 -1.7816 0
M  V30 17784 C 1664.58 0.793587 -3.35851 0
M  V30 17785 C 1663.7 -0.0473671 -4.31974 0
M  V30 17786 C 1662.83 0.851726 -5.24327 0
M  V30 17787 C 1661.87 0.00633633 -6.121 0
M  V30 17788 N 1661.01 0.861652 -6.96793 0
M  V30 17789 H 1665.85 -0.889087 -2.84428 0
M  V30 17790 H 1663.38 -0.450093 -1.40045 0
M  V30 17791 H 1665.34 1.32834 -3.95488 0
M  V30 17792 H 1663.97 1.54485 -2.83433 0
M  V30 17793 H 1663.02 -0.699601 -3.73911 0
M  V30 17794 H 1664.34 -0.700806 -4.93852 0
M  V30 17795 H 1663.49 1.45413 -5.89016 0
M  V30 17796 H 1662.23 1.53893 -4.62783 0
M  V30 17797 H 1661.23 -0.608833 -5.46419 0
M  V30 17798 H 1662.46 -0.677731 -6.7571 0
M  V30 17799 H 1660.4 1.53405 -6.37811 0
M  V30 17800 H 1660.32 0.264812 -7.55536 0
M  V30 17801 H 1661.59 1.44945 -7.65905 0
M  V30 17802 N 1665.82 1.49844 -0.488302 0
M  V30 17803 C 1666.77 2.28883 0.296859 0
M  V30 17804 C 1667.74 1.34703 0.971818 0
M  V30 17805 O 1668.92 1.63653 0.980937 0
M  V30 17806 C 1666.06 3.17049 1.36286 0
M  V30 17807 C 1665.17 4.26275 0.700956 0
M  V30 17808 C 1664.31 5.01674 1.74632 0
M  V30 17809 C 1663.35 6.02753 1.06559 0
M  V30 17810 N 1662.48 6.71366 2.05457 0
M  V30 17811 H 1667.32 2.95523 -0.383417 0
M  V30 17812 H 1664.86 1.45721 -0.200928 0
M  V30 17813 H 1666.82 3.66531 1.99276 0
M  V30 17814 H 1665.45 2.52419 2.01207 0
M  V30 17815 H 1664.5 3.80377 -0.0419236 0
M  V30 17816 H 1665.81 4.98529 0.164469 0
M  V30 17817 H 1664.97 5.54961 2.45159 0
M  V30 17818 H 1663.71 4.29166 2.31664 0
M  V30 17819 H 1662.71 5.4871 0.346029 0
M  V30 17820 H 1663.94 6.77243 0.501932 0
M  V30 17821 H 1661.88 6.01637 2.61475 0
M  V30 17822 H 1661.8 7.39552 1.56841 0
M  V30 17823 H 1663.07 7.29262 2.75312 0
M  V30 17824 N 1667.3 0.221601 1.56034 0
M  V30 17825 C 1668.24 -0.688502 2.20291 0
M  V30 17826 C 1669.21 -1.19028 1.15851 0
M  V30 17827 O 1670.4 -1.24936 1.44206 0
M  V30 17828 C 1667.54 -1.89101 2.88678 0
M  V30 17829 C 1666.65 -1.42812 4.07711 0
M  V30 17830 C 1665.79 -2.5882 4.63881 0
M  V30 17831 C 1664.83 -2.09268 5.75216 0
M  V30 17832 N 1663.96 -3.18549 6.25676 0
M  V30 17833 H 1668.8 -0.133824 2.97699 0
M  V30 17834 H 1666.34 -0.0543007 1.47 0
M  V30 17835 H 1668.3 -2.59704 3.26512 0
M  V30 17836 H 1666.93 -2.41857 2.13788 0
M  V30 17837 H 1665.98 -0.617019 3.75363 0
M  V30 17838 H 1667.29 -1.02478 4.8816 0
M  V30 17839 H 1666.45 -3.37505 5.04158 0
M  V30 17840 H 1665.18 -3.02443 3.82596 0
M  V30 17841 H 1664.19 -1.29045 5.34441 0
M  V30 17842 H 1665.41 -1.66645 6.58336 0
M  V30 17843 H 1663.36 -3.61653 5.47305 0
M  V30 17844 H 1663.28 -2.82466 7.01248 0
M  V30 17845 H 1664.55 -3.97369 6.7061 0
M  V30 17846 N 1668.77 -1.57515 -0.0517878 0
M  V30 17847 C 1670.05 -1.79321 -0.781233 0
M  V30 17848 C 1670.43 -0.814142 -1.94769 0
M  V30 17849 O 1669.78 0.14858 -2.28016 0
M  V30 17850 C 1669.99 -3.26398 -1.23553 0
M  V30 17851 C 1671.34 -3.90773 -1.66077 0
M  V30 17852 O 1672.36 -3.3041 -1.33069 0
M  V30 17853 O 1671.22 -4.97008 -2.27257 0
M  V30 17854 H 1668.31 -0.736627 -0.375912 0
M  V30 17855 H 1670.86 -1.69673 -0.0303173 0
M  V30 17856 H 1669.63 -3.89232 -0.401806 0
M  V30 17857 H 1669.26 -3.40848 -2.04716 0
M  V30 17858 N 1670.25 0.323614 -1.54242 0
M  V30 17859 C 1671.5 1.05909 -1.71657 0
M  V30 17860 C 1671.82 1.89177 -0.497151 0
M  V30 17861 O 1673.02 2.65816 -0.552649 0
M  V30 17862 C 1671.48 1.93246 -3.03618 0
M  V30 17863 C 1671.09 1.1509 -4.32965 0
M  V30 17864 C 1672.83 2.6653 -3.30397 0
M  V30 17865 C 1670.74 2.01573 -5.55988 0
M  V30 17866 H 1669.67 0.399114 -0.639706 0
M  V30 17867 H 1672.32 0.317338 -1.80735 0
M  V30 17868 H 1670.7 2.71319 -2.88447 0
M  V30 17869 H 1671.87 0.417877 -4.58901 0
M  V30 17870 H 1670.19 0.534882 -4.1295 0
M  V30 17871 H 1672.79 3.31542 -4.19504 0
M  V30 17872 H 1673.13 3.34164 -2.48274 0
M  V30 17873 H 1673.66 1.95518 -3.46435 0
M  V30 17874 H 1670.4 1.38446 -6.40713 0
M  V30 17875 H 1669.92 2.72609 -5.3427 0
M  V30 17876 H 1671.6 2.60159 -5.9239 0
M  V30 17877 N 1671.73 1.46313 0.585673 0
M  V30 17878 C 1672.66 1.59511 1.70524 0
M  V30 17879 C 1673.64 0.445578 1.6416 0
M  V30 17880 O 1674.83 0.671455 1.82223 0
M  V30 17881 C 1671.96 1.58229 3.09162 0
M  V30 17882 C 1670.91 2.72122 3.30354 0
M  V30 17883 C 1670.24 2.559 4.69489 0
M  V30 17884 C 1671.54 4.13969 3.18476 0
M  V30 17885 H 1673.23 2.53229 1.59735 0
M  V30 17886 H 1670.78 1.2187 0.767046 0
M  V30 17887 H 1672.73 1.66056 3.87303 0
M  V30 17888 H 1671.45 0.610535 3.20843 0
M  V30 17889 H 1670.11 2.63759 2.54611 0
M  V30 17890 H 1669.76 1.56814 4.77931 0
M  V30 17891 H 1669.46 3.32289 4.84621 0
M  V30 17892 H 1670.99 2.65613 5.49802 0
M  V30 17893 H 1672.4 4.23459 3.86465 0
M  V30 17894 H 1670.8 4.90922 3.45131 0
M  V30 17895 H 1671.87 4.34334 2.15598 0
M  V30 17896 N 1673.21 -0.830057 1.33969 0
M  V30 17897 C 1674.16 -1.96189 1.2495 0
M  V30 17898 C 1675.15 -1.68743 0.149047 0
M  V30 17899 O 1676.36 -1.77248 0.31357 0
M  V30 17900 H 1672.73 -0.644184 0.387983 0
M  V30 17901 H 1674.7 -2.0092 2.20621 0
M  V30 17902 C 1673.45 -3.32569 1.01456 0
M  V30 17903 H 1672.78 -3.54232 1.85363 0
M  V30 17904 H 1674.22 -4.12237 0.991786 0
M  V30 17905 C 1672.67 -3.35715 -0.282331 0
M  V30 17906 O 1673.2 -3.80556 -1.28609 0
M  V30 17907 N 1671.41 -2.8891 -0.312952 0
M  V30 17908 H 1670.96 -2.52613 0.504446 0
M  V30 17909 H 1670.92 -2.91397 -1.18047 0
M  V30 17910 N 1674.69 -1.17582 -1.04939 0
M  V30 17911 C 1675.94 -0.960189 -1.77379 0
M  V30 17912 C 1676.25 0.512001 -1.8878 0
M  V30 17913 O 1677.46 0.845912 -2.57986 0
M  V30 17914 C 1675.91 -1.66882 -3.18871 0
M  V30 17915 C 1675.52 -3.17972 -3.15591 0
M  V30 17916 C 1677.26 -1.53567 -3.95749 0
M  V30 17917 C 1675.17 -3.81513 -4.51887 0
M  V30 17918 H 1674.1 -0.35562 -0.664869 0
M  V30 17919 H 1676.75 -1.40863 -1.17601 0
M  V30 17920 H 1675.13 -1.14813 -3.78991 0
M  V30 17921 H 1676.31 -3.76995 -2.64974 0
M  V30 17922 H 1674.62 -3.31328 -2.52212 0
M  V30 17923 H 1677.22 -1.98408 -4.96526 0
M  V30 17924 H 1677.56 -0.486603 -4.13446 0
M  V30 17925 H 1678.1 -2.02868 -3.42183 0
M  V30 17926 H 1674.83 -4.86428 -4.39395 0
M  V30 17927 H 1674.35 -3.27276 -5.02643 0
M  V30 17928 H 1676.03 -3.83867 -5.20822 0
M  V30 17929 N 1676.17 1.23705 -0.976463 0
M  V30 17930 C 1677.1 2.2734 -0.532809 0
M  V30 17931 C 1678.08 1.64523 0.432012 0
M  V30 17932 O 1679.26 1.9144 0.326233 0
M  V30 17933 C 1676.39 3.46887 0.169374 0
M  V30 17934 C 1675.35 4.22031 -0.712336 0
M  V30 17935 C 1674.67 5.34561 0.121838 0
M  V30 17936 C 1675.97 4.8244 -2.00123 0
M  V30 17937 H 1677.67 2.64702 -1.39904 0
M  V30 17938 H 1675.21 1.27244 -0.674156 0
M  V30 17939 H 1677.16 4.18529 0.491028 0
M  V30 17940 H 1675.89 3.08574 1.07002 0
M  V30 17941 H 1674.55 3.522 -1.01739 0
M  V30 17942 H 1674.2 4.92489 1.0229 0
M  V30 17943 H 1673.9 5.85758 -0.464962 0
M  V30 17944 H 1675.42 6.09027 0.437963 0
M  V30 17945 H 1676.83 5.46111 -1.7446 0
M  V30 17946 H 1675.23 5.43906 -2.53548 0
M  V30 17947 H 1676.3 4.03405 -2.69059 0
M  V30 17948 N 1677.64 0.747635 1.38738 0
M  V30 17949 C 1678.59 0.11597 2.30508 0
M  V30 17950 C 1679.56 -0.716088 1.49871 0
M  V30 17951 O 1680.75 -0.673446 1.7852 0
M  V30 17952 C 1677.89 -0.775765 3.36268 0
M  V30 17953 C 1677 0.070275 4.31943 0
M  V30 17954 C 1676.13 -0.823908 5.24772 0
M  V30 17955 C 1675.17 0.0261249 6.12094 0
M  V30 17956 N 1674.31 -0.824688 6.9724 0
M  V30 17957 H 1679.15 0.904158 2.83952 0
M  V30 17958 H 1676.69 0.457513 1.39804 0
M  V30 17959 H 1678.64 -1.30735 3.96187 0
M  V30 17960 H 1677.27 -1.5298 2.84248 0
M  V30 17961 H 1676.33 0.719421 3.73535 0
M  V30 17962 H 1677.64 0.726987 4.93474 0
M  V30 17963 H 1676.79 -1.42287 5.89779 0
M  V30 17964 H 1675.53 -1.51437 4.63593 0
M  V30 17965 H 1674.54 0.637803 5.46088 0
M  V30 17966 H 1675.76 0.713556 6.75341 0
M  V30 17967 H 1673.71 -1.50021 6.38616 0
M  V30 17968 H 1673.62 -0.22474 7.55666 0
M  V30 17969 H 1674.89 -1.40882 7.66663 0
M  V30 17970 N 1679.12 -1.49583 0.496242 0
M  V30 17971 C 1680.4 -1.95275 -0.112751 0
M  V30 17972 C 1680.78 -1.43758 -1.54586 0
M  V30 17973 O 1680.13 -0.649285 -2.19081 0
M  V30 17974 C 1680.34 -3.48987 -0.0302774 0
M  V30 17975 C 1681.68 -4.24097 -0.206595 0
M  V30 17976 O 1682.71 -3.56043 -0.105689 0
M  V30 17977 O 1681.57 -5.44936 -0.413172 0
M  V30 17978 H 1678.66 -0.821183 -0.0979145 0
M  V30 17979 H 1681.21 -1.60248 0.558441 0
M  V30 17980 H 1679.98 -3.79104 0.969322 0
M  V30 17981 H 1679.6 -3.90618 -0.741825 0
M  V30 17982 N 1680.6 -0.229873 -1.55915 0
M  V30 17983 C 1681.55 0.693198 -2.2203 0
M  V30 17984 C 1682.54 1.1933 -1.20236 0
M  V30 17985 O 1683.75 1.15217 -1.38294 0
M  V30 17986 H 1680.12 0.241986 -0.712002 0
M  V30 17987 H 1682.09 0.112229 -2.98189 0
M  V30 17988 C 1680.84 1.88688 -2.92048 0
M  V30 17989 H 1680.17 1.51119 -3.70139 0
M  V30 17990 H 1681.61 2.51036 -3.41697 0
M  V30 17991 C 1680.06 2.74747 -1.94976 0
M  V30 17992 O 1680.59 3.73759 -1.47198 0
M  V30 17993 N 1678.8 2.40956 -1.62445 0
M  V30 17994 H 1678.35 1.60494 -2.01493 0
M  V30 17995 H 1678.31 2.98816 -0.977581 0
M  V30 17996 N 1682.08 1.5754 0.0434337 0
M  V30 17997 C 1683.01 2.02385 1.07577 0
M  V30 17998 C 1684.02 0.934273 1.33324 0
M  V30 17999 O 1685.21 1.2118 1.31064 0
M  V30 18000 C 1682.31 2.3719 2.42062 0
M  V30 18001 C 1681.48 3.68351 2.35874 0
M  V30 18002 C 1680.54 3.90506 3.52692 0
M  V30 18003 O 1679.57 4.61746 3.32836 0
M  V30 18004 N 1680.77 3.35035 4.74059 0
M  V30 18005 H 1683.54 2.91563 0.693641 0
M  V30 18006 H 1681.1 1.60234 0.231631 0
M  V30 18007 H 1683.09 2.49161 3.18906 0
M  V30 18008 H 1681.66 1.53758 2.72171 0
M  V30 18009 H 1680.88 3.66869 1.44224 0
M  V30 18010 H 1682.17 4.54419 2.28868 0
M  V30 18011 H 1681.57 2.77264 4.93094 0
M  V30 18012 H 1680.12 3.52409 5.48317 0
M  V30 18013 N 1683.56 -0.31543 1.54411 0
M  V30 18014 C 1684.49 -1.4098 1.80713 0
M  V30 18015 C 1685.5 -1.47481 0.689435 0
M  V30 18016 O 1686.69 -1.50058 0.966682 0
M  V30 18017 C 1683.79 -2.79459 1.91718 0
M  V30 18018 C 1682.96 -2.96064 3.2197 0
M  V30 18019 C 1682.02 -4.14954 3.23573 0
M  V30 18020 O 1681.05 -4.07726 3.97175 0
M  V30 18021 N 1682.25 -5.24889 2.47935 0
M  V30 18022 H 1685.01 -1.18778 2.75158 0
M  V30 18023 H 1682.58 -0.50545 1.53808 0
M  V30 18024 H 1684.57 -3.57215 1.90209 0
M  V30 18025 H 1683.14 -2.94675 1.04333 0
M  V30 18026 H 1682.36 -2.05541 3.36372 0
M  V30 18027 H 1683.65 -3.0406 4.07952 0
M  V30 18028 H 1683.04 -5.33638 1.87741 0
M  V30 18029 H 1681.6 -6.01033 2.52195 0
M  V30 18030 N 1685.03 -1.46622 -0.577906 0
M  V30 18031 C 1685.98 -1.57549 -1.68662 0
M  V30 18032 C 1686.95 -0.419536 -1.60714 0
M  V30 18033 O 1688.14 -0.636916 -1.79856 0
M  V30 18034 C 1685.28 -1.57627 -3.06998 0
M  V30 18035 C 1684.39 -2.83991 -3.25535 0
M  V30 18036 C 1683.52 -2.75541 -4.54148 0
M  V30 18037 C 1682.56 -3.96823 -4.66045 0
M  V30 18038 N 1681.7 -3.86731 -5.8599 0
M  V30 18039 H 1686.54 -2.52252 -1.58659 0
M  V30 18040 H 1684.08 -1.2514 -0.773195 0
M  V30 18041 H 1686.04 -1.55657 -3.87075 0
M  V30 18042 H 1684.67 -0.664527 -3.15886 0
M  V30 18043 H 1683.72 -2.9592 -2.3903 0
M  V30 18044 H 1685.03 -3.73864 -3.30193 0
M  V30 18045 H 1684.18 -2.71703 -5.42459 0
M  V30 18046 H 1682.92 -1.83317 -4.51936 0
M  V30 18047 H 1681.93 -4.00987 -3.76151 0
M  V30 18048 H 1683.15 -4.90149 -4.70033 0
M  V30 18049 H 1681.1 -2.97296 -5.84766 0
M  V30 18050 H 1681.02 -4.70263 -5.91937 0
M  V30 18051 H 1682.28 -3.86876 -6.76718 0
M  V30 18052 N 1686.51 0.822941 -1.34408 0
M  V30 18053 C 1687.76 1.57418 -1.26105 0
M  V30 18054 C 1688.07 1.94884 0.167225 0
M  V30 18055 O 1689.28 2.68934 0.3724 0
M  V30 18056 C 1687.74 2.84008 -2.21059 0
M  V30 18057 C 1687.34 2.53844 -3.69144 0
M  V30 18058 C 1689.09 3.62029 -2.21664 0
M  V30 18059 C 1687 3.76628 -4.55967 0
M  V30 18060 H 1685.93 0.590813 -0.468461 0
M  V30 18061 H 1688.58 0.906027 -1.59573 0
M  V30 18062 H 1686.96 3.52449 -1.80543 0
M  V30 18063 H 1688.13 1.93515 -4.18197 0
M  V30 18064 H 1686.45 1.89099 -3.70986 0
M  V30 18065 H 1689.04 4.53197 -2.83754 0
M  V30 18066 H 1689.39 3.98147 -1.21593 0
M  V30 18067 H 1689.92 3.00532 -2.60625 0
M  V30 18068 H 1686.66 3.45631 -5.56974 0
M  V30 18069 H 1686.18 4.3624 -4.11648 0
M  V30 18070 H 1687.86 4.44038 -4.70573 0
M  V30 18071 N 1687.99 1.18137 1.04314 0
M  V30 18072 C 1688.9 0.921044 2.15764 0
M  V30 18073 C 1689.92 -0.11396 1.73626 0
M  V30 18074 O 1691.09 0.0673733 2.01287 0
M  V30 18075 C 1688.16 0.447581 3.43799 0
M  V30 18076 C 1687.22 1.55025 4.00332 0
M  V30 18077 C 1686.45 1.09928 5.22256 0
M  V30 18078 O 1686.67 -0.0430152 5.70384 0
M  V30 18079 O 1685.61 1.896 5.71258 0
M  V30 18080 H 1689.43 1.85353 2.40579 0
M  V30 18081 H 1687.02 0.962985 1.14223 0
M  V30 18082 H 1688.9 0.191497 4.20965 0
M  V30 18083 H 1687.58 -0.456641 3.20463 0
M  V30 18084 H 1686.48 1.86032 3.24566 0
M  V30 18085 H 1687.82 2.4305 4.28004 0
M  V30 18086 N 1689.47 -1.23186 0.98301 0
M  V30 18087 C 1690.42 -2.24748 0.525082 0
M  V30 18088 C 1691.39 -1.60237 -0.437411 0
M  V30 18089 O 1692.57 -1.87666 -0.344376 0
M  V30 18090 C 1689.71 -3.44711 -0.163809 0
M  V30 18091 C 1688.82 -4.23769 0.839254 0
M  V30 18092 C 1687.96 -5.31053 0.1249 0
M  V30 18093 C 1687 -6.01822 1.117 0
M  V30 18094 N 1686.13 -7.00772 0.431625 0
M  V30 18095 H 1690.97 -2.63283 1.39593 0
M  V30 18096 H 1688.51 -1.29407 0.699438 0
M  V30 18097 H 1690.47 -4.13148 -0.580046 0
M  V30 18098 H 1689.1 -3.06969 -0.998507 0
M  V30 18099 H 1688.15 -3.54724 1.37386 0
M  V30 18100 H 1689.46 -4.72606 1.59515 0
M  V30 18101 H 1688.62 -6.05698 -0.348569 0
M  V30 18102 H 1687.36 -4.83165 -0.663573 0
M  V30 18103 H 1686.36 -5.25967 1.6012 0
M  V30 18104 H 1687.59 -6.51799 1.90618 0
M  V30 18105 H 1685.53 -6.55131 -0.337592 0
M  V30 18106 H 1685.45 -7.47566 1.12613 0
M  V30 18107 H 1686.72 -7.79498 -0.0193703 0
M  V30 18108 N 1690.95 -0.754982 -1.38339 0
M  V30 18109 C 1691.91 -0.136457 -2.28793 0
M  V30 18110 C 1692.91 0.646016 -1.47252 0
M  V30 18111 O 1694.1 0.472077 -1.67681 0
M  V30 18112 C 1691.23 0.815058 -3.31013 0
M  V30 18113 H 1692.42 -0.933619 -2.84997 0
M  V30 18114 H 1689.98 -0.522082 -1.47323 0
M  V30 18115 H 1690.71 1.63785 -2.79902 0
M  V30 18116 H 1690.5 0.256363 -3.91261 0
M  V30 18117 H 1691.99 1.24378 -3.98648 0
M  V30 18118 N 1692.42 1.49318 -0.504168 0
M  V30 18119 C 1693.67 2.01658 0.0410881 0
M  V30 18120 C 1693.99 1.38866 1.37752 0
M  V30 18121 O 1695.19 1.82552 2.00965 0
M  V30 18122 C 1693.65 3.59687 0.123682 0
M  V30 18123 C 1693.26 4.31454 -1.2063 0
M  V30 18124 C 1695 4.19961 0.619134 0
M  V30 18125 C 1692.91 5.81349 -1.0857 0
M  V30 18126 H 1691.84 0.753757 0.0191287 0
M  V30 18127 H 1694.49 1.71826 -0.644066 0
M  V30 18128 H 1692.87 3.86249 0.873355 0
M  V30 18129 H 1694.04 4.1659 -1.96951 0
M  V30 18130 H 1692.36 3.82939 -1.63544 0
M  V30 18131 H 1694.96 5.29736 0.726925 0
M  V30 18132 H 1695.3 3.83539 1.61874 0
M  V30 18133 H 1695.83 3.97731 -0.0740966 0
M  V30 18134 H 1692.57 6.22301 -2.05967 0
M  V30 18135 H 1692.09 5.98698 -0.363422 0
M  V30 18136 H 1693.77 6.42453 -0.765722 0
M  V30 18137 N 1693.9 0.238138 1.5579 0
M  V30 18138 C 1694.81 -0.676049 2.24648 0
M  V30 18139 C 1695.83 -1.20038 1.25964 0
M  V30 18140 O 1697 -1.2385 1.58818 0
M  V30 18141 C 1694.07 -1.86014 2.92574 0
M  V30 18142 C 1693.13 -1.37615 4.06646 0
M  V30 18143 C 1692.36 -2.5038 4.71323 0
M  V30 18144 O 1692.59 -3.68906 4.35045 0
M  V30 18145 O 1691.52 -2.20636 5.60003 0
M  V30 18146 H 1695.35 -0.119372 3.03465 0
M  V30 18147 H 1692.93 0.00699789 1.49398 0
M  V30 18148 H 1694.81 -2.55132 3.35389 0
M  V30 18149 H 1693.49 -2.4046 2.16704 0
M  V30 18150 H 1692.4 -0.652503 3.68366 0
M  V30 18151 H 1693.73 -0.877871 4.84308 0
M  V30 18152 N 1695.38 -1.57561 -0.0350783 0
M  V30 18153 C 1696.29 -2.09558 -1.05464 0
M  V30 18154 C 1697.31 -1.03288 -1.40027 0
M  V30 18155 O 1698.48 -1.34987 -1.49467 0
M  V30 18156 C 1695.55 -2.55966 -2.33842 0
M  V30 18157 C 1694.61 -3.76693 -2.05915 0
M  V30 18158 C 1693.84 -4.20878 -3.28172 0
M  V30 18159 O 1694.06 -3.64634 -4.38632 0
M  V30 18160 O 1693 -5.13367 -3.14225 0
M  V30 18161 H 1696.82 -2.9682 -0.642771 0
M  V30 18162 H 1694.41 -1.47265 -0.251668 0
M  V30 18163 H 1696.29 -2.86173 -3.09327 0
M  V30 18164 H 1694.97 -1.71818 -2.74336 0
M  V30 18165 H 1693.87 -3.51514 -1.28018 0
M  V30 18166 H 1695.21 -4.61807 -1.70281 0
M  V30 18167 N 1696.86 0.307236 -1.54576 0
M  V30 18168 C 1697.82 1.36178 -1.84359 0
M  V30 18169 C 1698.82 1.43971 -0.716163 0
M  V30 18170 O 1700.01 1.43715 -0.98446 0
M  V30 18171 C 1697.14 2.74733 -2.01828 0
M  V30 18172 H 1698.34 1.11017 -2.78595 0
M  V30 18173 H 1695.89 0.543582 -1.46543 0
M  V30 18174 H 1696.62 3.05126 -1.09858 0
M  V30 18175 H 1696.41 2.70468 -2.83883 0
M  V30 18176 H 1697.9 3.50992 -2.26261 0
M  V30 18177 N 1698.34 1.46926 0.570122 0
M  V30 18178 C 1699.61 1.43365 1.33063 0
M  V30 18179 C 1699.99 0.123738 2.10737 0
M  V30 18180 O 1699.34 -0.894766 2.10253 0
M  V30 18181 C 1699.55 2.67122 2.24604 0
M  V30 18182 C 1700.9 3.13798 2.86035 0
M  V30 18183 O 1701.92 2.67759 2.34912 0
M  V30 18184 O 1700.78 3.93801 3.78923 0
M  V30 18185 H 1697.88 0.570726 0.598499 0
M  V30 18186 H 1700.42 1.5911 0.590095 0
M  V30 18187 H 1699.19 3.54005 1.66722 0
M  V30 18188 H 1698.82 2.53899 3.05976 0
M  V30 18189 N 1699.82 -0.815801 1.34842 0
M  V30 18190 C 1700.76 -1.94853 1.27024 0
M  V30 18191 C 1701.76 -1.68575 0.166936 0
M  V30 18192 O 1702.96 -1.76905 0.332352 0
M  V30 18193 H 1699.34 -0.640033 0.394794 0
M  V30 18194 H 1701.31 -1.98569 2.2274 0
M  V30 18195 C 1700.06 -3.31474 1.04977 0
M  V30 18196 H 1699.38 -3.52246 1.8911 0
M  V30 18197 H 1700.82 -4.11162 1.03545 0
M  V30 18198 C 1699.28 -3.35995 -0.246708 0
M  V30 18199 O 1699.81 -3.81898 -1.24566 0
M  V30 18200 N 1698.02 -2.89226 -0.282292 0
M  V30 18201 H 1697.56 -2.52063 0.531211 0
M  V30 18202 H 1697.52 -2.92633 -1.1495 0
M  V30 18203 N 1701.29 -1.18689 -1.03686 0
M  V30 18204 C 1702.54 -0.984601 -1.76952 0
M  V30 18205 C 1702.87 0.485417 -1.88345 0
M  V30 18206 O 1702.12 1.37665 -1.39093 0
M  V30 18207 C 1702.42 -1.58911 -3.20128 0
M  V30 18208 C 1702.09 -3.0859 -3.2876 0
M  V30 18209 C 1700.75 -3.49442 -3.30823 0
M  V30 18210 C 1703.1 -4.04603 -3.28551 0
M  V30 18211 C 1700.43 -4.84875 -3.30323 0
M  V30 18212 C 1702.78 -5.39956 -3.29591 0
M  V30 18213 C 1701.45 -5.8025 -3.29948 0
M  V30 18214 H 1700.72 -0.360291 -0.647512 0
M  V30 18215 H 1703.36 -1.47811 -1.21754 0
M  V30 18216 H 1701.67 -1.0177 -3.78352 0
M  V30 18217 H 1703.37 -1.40797 -3.75469 0
M  V30 18218 H 1699.96 -2.76034 -3.27877 0
M  V30 18219 H 1704.14 -3.7409 -3.26145 0
M  V30 18220 H 1699.4 -5.15386 -3.28919 0
M  V30 18221 H 1703.57 -6.14117 -3.28379 0
M  V30 18222 H 1701.2 -6.85169 -3.29315 0
M  V30 18223 N 1702.77 1.22662 -0.989529 0
M  V30 18224 C 1704.01 1.9305 -0.671653 0
M  V30 18225 C 1704.38 1.75377 0.781465 0
M  V30 18226 O 1705.58 2.39996 1.2106 0
M  V30 18227 C 1703.85 3.41245 -1.0624 0
M  V30 18228 S 1705.41 4.30242 -0.862376 0
M  V30 18229 H 1702.22 0.667204 -0.245682 0
M  V30 18230 H 1704.83 1.48537 -1.2711 0
M  V30 18231 H 1703.53 3.51619 -2.11641 0
M  V30 18232 H 1703.06 3.90764 -0.454611 0
M  V30 18233 H 1705.08 4.95575 0.248897 0
M  V30 18234 N 1704.25 0.762308 1.37937 0
M  V30 18235 C 1705.5 0.319104 1.9916 0
M  V30 18236 C 1705.81 -1.10787 1.61201 0
M  V30 18237 O 1707.02 -1.65198 2.15457 0
M  V30 18238 C 1705.47 0.519582 3.5613 0
M  V30 18239 C 1705.08 1.9562 4.03034 0
M  V30 18240 C 1706.83 0.139528 4.24271 0
M  V30 18241 C 1704.73 2.10478 5.52678 0
M  V30 18242 H 1703.66 0.115564 0.745091 0
M  V30 18243 H 1706.31 0.940092 1.5759 0
M  V30 18244 H 1704.7 -0.170724 3.95632 0
M  V30 18245 H 1705.87 2.68069 3.74801 0
M  V30 18246 H 1704.18 2.29197 3.47646 0
M  V30 18247 H 1706.78 0.22918 5.34209 0
M  V30 18248 H 1707.12 -0.908999 4.06255 0
M  V30 18249 H 1707.66 0.782019 3.90038 0
M  V30 18250 H 1704.4 3.13616 5.75609 0
M  V30 18251 H 1703.92 1.42501 5.82626 0
M  V30 18252 H 1705.6 1.89887 6.18508 0
M  V30 18253 N 1705.73 -1.49049 0.51208 0
M  V30 18254 C 1706.66 -2.32163 -0.249529 0
M  V30 18255 C 1707.64 -1.40957 -0.952114 0
M  V30 18256 O 1708.82 -1.69858 -0.94137 0
M  V30 18257 C 1705.95 -3.21737 -1.30776 0
M  V30 18258 C 1704.91 -4.21825 -0.724392 0
M  V30 18259 C 1704.23 -5.00411 -1.88396 0
M  V30 18260 C 1705.53 -5.21483 0.291975 0
M  V30 18261 H 1707.23 -2.96086 0.444253 0
M  V30 18262 H 1704.77 -1.42385 0.215093 0
M  V30 18263 H 1706.73 -3.78699 -1.84837 0
M  V30 18264 H 1705.45 -2.55779 -2.03088 0
M  V30 18265 H 1704.11 -3.66024 -0.205441 0
M  V30 18266 H 1703.76 -4.30891 -2.59502 0
M  V30 18267 H 1703.46 -5.68141 -1.49964 0
M  V30 18268 H 1704.98 -5.6022 -2.42869 0
M  V30 18269 H 1706.4 -5.73074 -0.160899 0
M  V30 18270 H 1704.79 -5.97166 0.592717 0
M  V30 18271 H 1705.86 -4.69714 1.20404 0
M  V30 18272 N 1707.21 -0.246397 -1.55662 0
M  V30 18273 C 1708.14 0.686113 -2.1869 0
M  V30 18274 C 1709.15 1.13915 -1.16306 0
M  V30 18275 O 1710.34 1.06601 -1.43173 0
M  V30 18276 C 1707.44 1.94426 -2.77582 0
M  V30 18277 C 1706.61 1.64275 -4.0538 0
M  V30 18278 C 1705.67 2.75044 -4.48595 0
M  V30 18279 O 1704.7 2.42451 -5.14982 0
M  V30 18280 N 1705.9 4.04528 -4.16338 0
M  V30 18281 H 1708.66 0.146832 -2.9934 0
M  V30 18282 H 1706.23 -0.0663398 -1.61764 0
M  V30 18283 H 1708.22 2.67768 -3.0345 0
M  V30 18284 H 1706.79 2.39334 -2.01091 0
M  V30 18285 H 1706.01 0.744531 -3.87105 0
M  V30 18286 H 1707.3 1.41594 -4.88701 0
M  V30 18287 H 1706.69 4.33841 -3.6304 0
M  V30 18288 H 1705.25 4.74337 -4.47043 0
M  V30 18289 N 1708.68 1.57577 0.026722 0
M  V30 18290 C 1709.93 1.8856 0.716115 0
M  V30 18291 C 1710.25 0.845223 1.76395 0
M  V30 18292 O 1711.45 1.04435 2.5061 0
M  V30 18293 C 1709.91 3.34631 1.32476 0
M  V30 18294 C 1709.52 4.46904 0.313149 0
M  V30 18295 C 1711.26 3.74759 1.9939 0
M  V30 18296 C 1709.17 5.84038 0.930274 0
M  V30 18297 H 1708.1 0.703531 0.271221 0
M  V30 18298 H 1710.75 1.83476 -0.0294388 0
M  V30 18299 H 1709.13 3.34466 2.1201 0
M  V30 18300 H 1710.3 4.58542 -0.455647 0
M  V30 18301 H 1708.62 4.15624 -0.254028 0
M  V30 18302 H 1711.22 4.74534 2.46418 0
M  V30 18303 H 1711.56 3.06875 2.81307 0
M  V30 18304 H 1712.09 3.77108 1.26628 0
M  V30 18305 H 1708.83 6.55327 0.150466 0
M  V30 18306 H 1708.35 5.76116 1.66886 0
M  V30 18307 H 1710.03 6.30842 1.43692 0
M  V30 18308 N 1710.16 -0.299034 1.54737 0
M  V30 18309 C 1711.09 -1.39055 1.82199 0
M  V30 18310 C 1712.11 -1.46741 0.705038 0
M  V30 18311 O 1713.3 -1.49025 0.982543 0
M  V30 18312 C 1710.4 -2.7741 1.94671 0
M  V30 18313 C 1709.57 -2.92633 3.25092 0
M  V30 18314 C 1708.63 -4.11499 3.27956 0
M  V30 18315 O 1707.65 -4.03491 4.01477 0
M  V30 18316 N 1708.86 -5.2223 2.53488 0
M  V30 18317 H 1711.62 -1.15852 2.76402 0
M  V30 18318 H 1709.18 -0.489108 1.54335 0
M  V30 18319 H 1711.17 -3.55178 1.93987 0
M  V30 18320 H 1709.74 -2.93552 1.07453 0
M  V30 18321 H 1708.96 -2.01962 3.38534 0
M  V30 18322 H 1710.25 -2.99716 4.11154 0
M  V30 18323 H 1709.65 -5.31617 1.93391 0
M  V30 18324 H 1708.21 -5.98325 2.58555 0
M  V30 18325 N 1711.64 -1.47227 -0.562322 0
M  V30 18326 C 1712.92 -1.44069 -1.32301 0
M  V30 18327 C 1713.3 -0.134912 -2.10668 0
M  V30 18328 O 1712.64 0.883603 -2.10724 0
M  V30 18329 C 1712.85 -2.68309 -2.23184 0
M  V30 18330 C 1714.2 -3.1531 -2.84367 0
M  V30 18331 O 1715.23 -2.69001 -2.33489 0
M  V30 18332 O 1714.09 -3.95805 -3.7683 0
M  V30 18333 H 1711.18 -0.573892 -0.595464 0
M  V30 18334 H 1713.73 -1.59421 -0.581648 0
M  V30 18335 H 1712.5 -3.54884 -1.64842 0
M  V30 18336 H 1712.12 -2.55518 -3.04625 0
M  V30 18337 N 1713.12 0.808639 -1.35273 0
M  V30 18338 C 1714.36 1.56794 -1.28621 0
M  V30 18339 C 1714.7 1.93697 0.139686 0
M  V30 18340 O 1713.97 1.61185 1.08856 0
M  V30 18341 C 1714.25 2.85794 -2.19075 0
M  V30 18342 C 1714.11 2.5538 -3.70271 0
M  V30 18343 C 1715.43 3.87481 -2.08678 0
M  V30 18344 H 1712.55 0.568873 -0.468564 0
M  V30 18345 H 1715.19 0.930499 -1.65655 0
M  V30 18346 H 1713.34 3.40191 -1.87622 0
M  V30 18347 H 1715.01 2.07182 -4.12157 0
M  V30 18348 H 1713.25 1.88605 -3.90654 0
M  V30 18349 H 1713.92 3.47432 -4.28947 0
M  V30 18350 H 1716.4 3.42478 -2.36323 0
M  V30 18351 H 1715.28 4.75523 -2.7417 0
M  V30 18352 H 1715.54 4.29004 -1.06809 0
M  V30 18353 N 1714.6 1.19237 1.03055 0
M  V30 18354 C 1715.51 0.943876 2.14775 0
M  V30 18355 C 1716.52 -0.0955384 1.73738 0
M  V30 18356 O 1717.7 0.0887187 2.01204 0
M  V30 18357 C 1714.76 0.48402 3.43305 0
M  V30 18358 C 1713.82 1.59262 3.98665 0
M  V30 18359 C 1713.06 1.15461 5.21061 0
M  V30 18360 O 1713.28 0.0174841 5.70397 0
M  V30 18361 O 1712.21 1.95648 5.69215 0
M  V30 18362 H 1716.04 1.87894 2.38599 0
M  V30 18363 H 1713.63 0.975046 1.13195 0
M  V30 18364 H 1715.51 0.236135 4.20738 0
M  V30 18365 H 1714.18 -0.422626 3.20929 0
M  V30 18366 H 1713.09 1.89464 3.22574 0
M  V30 18367 H 1714.42 2.47576 4.25402 0
M  V30 18368 N 1716.07 -1.22136 0.99602 0
M  V30 18369 C 1717.02 -2.24178 0.54889 0
M  V30 18370 C 1717.99 -1.60692 -0.420391 0
M  V30 18371 O 1719.18 -1.88021 -0.324452 0
M  V30 18372 C 1716.32 -3.44865 -0.127239 0
M  V30 18373 C 1715.43 -4.22855 0.884153 0
M  V30 18374 C 1714.56 -5.30891 0.181219 0
M  V30 18375 C 1713.6 -6.00603 1.18077 0
M  V30 18376 N 1712.74 -7.00275 0.505927 0
M  V30 18377 H 1717.58 -2.61788 1.42377 0
M  V30 18378 H 1715.12 -1.28658 0.713124 0
M  V30 18379 H 1717.08 -4.1374 -0.536194 0
M  V30 18380 H 1715.71 -3.0801 -0.965892 0
M  V30 18381 H 1714.76 -3.53247 1.41141 0
M  V30 18382 H 1716.07 -4.70888 1.64518 0
M  V30 18383 H 1715.22 -6.06033 -0.284307 0
M  V30 18384 H 1713.96 -4.83841 -0.612289 0
M  V30 18385 H 1712.97 -5.2424 1.65689 0
M  V30 18386 H 1714.19 -6.4974 1.9752 0
M  V30 18387 H 1712.14 -6.55452 -0.268088 0
M  V30 18388 H 1712.06 -7.46329 1.20535 0
M  V30 18389 H 1713.32 -7.79474 0.0633069 0
M  V30 18390 N 1717.55 -0.769612 -1.37531 0
M  V30 18391 C 1718.8 -0.332966 -1.99744 0
M  V30 18392 C 1719.13 1.0899 -1.61094 0
M  V30 18393 O 1718.38 1.7639 -0.847656 0
M  V30 18394 C 1718.68 -0.421385 -3.54907 0
M  V30 18395 C 1718.35 -1.8022 -4.13318 0
M  V30 18396 C 1717.01 -2.18005 -4.28984 0
M  V30 18397 C 1719.36 -2.70724 -4.45374 0
M  V30 18398 C 1716.69 -3.45736 -4.74008 0
M  V30 18399 C 1719.04 -3.97862 -4.91822 0
M  V30 18400 C 1717.71 -4.35695 -5.05694 0
M  V30 18401 H 1716.98 -0.121841 -0.730914 0
M  V30 18402 H 1719.62 -0.98322 -1.64332 0
M  V30 18403 H 1717.93 0.312411 -3.90552 0
M  V30 18404 H 1719.62 -0.0648705 -4.00948 0
M  V30 18405 H 1716.21 -1.49852 -4.0155 0
M  V30 18406 H 1720.4 -2.42792 -4.32857 0
M  V30 18407 H 1715.65 -3.74946 -4.82935 0
M  V30 18408 H 1719.83 -4.68121 -5.15593 0
M  V30 18409 H 1717.46 -5.34729 -5.40341 0
M  V30 18410 N 1719.03 1.48775 -0.519977 0
M  V30 18411 C 1720.31 1.95429 0.0816701 0
M  V30 18412 C 1720.69 1.46199 1.52279 0
M  V30 18413 O 1720.04 0.684057 2.1802 0
M  V30 18414 C 1720.25 3.48991 -0.0252472 0
M  V30 18415 C 1721.59 4.24372 0.139099 0
M  V30 18416 O 1722.62 3.56166 0.0490322 0
M  V30 18417 O 1721.48 5.45524 0.326426 0
M  V30 18418 H 1718.57 0.822637 0.0848378 0
M  V30 18419 H 1721.12 1.5934 -0.583865 0
M  V30 18420 H 1719.89 3.77514 -1.02951 0
M  V30 18421 H 1719.51 3.91749 0.679588 0
M  V30 18422 N 1720.51 0.254649 1.55529 0
M  V30 18423 C 1721.44 -0.674506 2.1905 0
M  V30 18424 C 1722.45 -1.13297 1.16909 0
M  V30 18425 O 1723.64 -1.0584 1.43736 0
M  V30 18426 C 1720.74 -1.92951 2.78609 0
M  V30 18427 C 1719.92 -1.62123 4.06245 0
M  V30 18428 C 1718.97 -2.72661 4.50047 0
M  V30 18429 O 1718 -2.39717 5.1626 0
M  V30 18430 N 1719.2 -4.02315 4.18477 0
M  V30 18431 H 1721.97 -0.130956 2.99414 0
M  V30 18432 H 1719.53 0.0749176 1.61727 0
M  V30 18433 H 1721.52 -2.66155 3.04866 0
M  V30 18434 H 1720.09 -2.38265 2.02358 0
M  V30 18435 H 1719.31 -0.723991 3.87495 0
M  V30 18436 H 1720.6 -1.39 4.89445 0
M  V30 18437 H 1720 -4.3191 3.65336 0
M  V30 18438 H 1718.55 -4.7196 4.49552 0
M  V30 18439 N 1721.99 -1.57589 -0.0183649 0
M  V30 18440 C 1723.22 -1.93743 -0.71745 0
M  V30 18441 C 1723.62 -0.853727 -1.68844 0
M  V30 18442 O 1722.97 0.177648 -1.82839 0
M  V30 18443 C 1723.03 -3.25769 -1.52036 0
M  V30 18444 C 1722.69 -4.51404 -0.71298 0
M  V30 18445 C 1723.69 -5.19899 -0.00859461 0
M  V30 18446 C 1721.38 -4.97887 -0.664364 0
M  V30 18447 C 1723.37 -6.33164 0.733592 0
M  V30 18448 C 1721.06 -6.11046 0.0815603 0
M  V30 18449 C 1722.05 -6.7854 0.779288 0
M  V30 18450 O 1721.74 -7.89532 1.51308 0
M  V30 18451 H 1721.47 -0.643849 -0.205996 0
M  V30 18452 H 1724.03 -2.05387 0.023306 0
M  V30 18453 H 1722.26 -3.10481 -2.30518 0
M  V30 18454 H 1723.95 -3.47169 -2.10305 0
M  V30 18455 H 1724.71 -4.84986 -0.0371173 0
M  V30 18456 H 1720.59 -4.4519 -1.19696 0
M  V30 18457 H 1724.14 -6.8578 1.27873 0
M  V30 18458 H 1720.03 -6.45403 0.111968 0
M  V30 18459 H 1720.8 -8.05949 1.42787 0
M  V30 18460 N 1723.46 0.290824 -1.54893 0
M  V30 18461 C 1724.4 1.38087 -1.82933 0
M  V30 18462 C 1725.41 1.46365 -0.712811 0
M  V30 18463 O 1726.6 1.48501 -0.990432 0
M  V30 18464 C 1723.7 2.76374 -1.9614 0
M  V30 18465 C 1722.87 2.90905 -3.26639 0
M  V30 18466 C 1721.93 4.09754 -3.30134 0
M  V30 18467 O 1720.96 4.01356 -4.03611 0
M  V30 18468 N 1722.16 5.20878 -2.56254 0
M  V30 18469 H 1724.92 1.14385 -2.77013 0
M  V30 18470 H 1722.48 0.480916 -1.54592 0
M  V30 18471 H 1724.48 3.54144 -1.95868 0
M  V30 18472 H 1723.05 2.92978 -1.09008 0
M  V30 18473 H 1722.27 2.00164 -3.396 0
M  V30 18474 H 1723.55 2.97531 -4.12738 0
M  V30 18475 H 1722.95 5.30584 -1.96207 0
M  V30 18476 H 1721.51 5.96945 -2.61725 0
M  V30 18477 N 1724.94 1.47523 0.554506 0
M  V30 18478 C 1725.89 1.60213 1.66134 0
M  V30 18479 C 1726.86 0.445051 1.60027 0
M  V30 18480 O 1728.04 0.665449 1.7882 0
M  V30 18481 C 1725.18 1.62491 3.04452 0
M  V30 18482 C 1724.3 2.89134 3.20976 0
M  V30 18483 C 1723.43 2.82731 4.49707 0
M  V30 18484 C 1722.47 4.04187 4.59673 0
M  V30 18485 N 1721.61 3.96004 5.79763 0
M  V30 18486 H 1726.45 2.54744 1.54626 0
M  V30 18487 H 1723.99 1.26355 0.753189 0
M  V30 18488 H 1725.94 1.61795 3.84549 0
M  V30 18489 H 1724.57 0.714698 3.14789 0
M  V30 18490 H 1723.63 2.99685 2.34292 0
M  V30 18491 H 1724.94 3.79069 3.24203 0
M  V30 18492 H 1724.09 2.80299 5.38068 0
M  V30 18493 H 1722.83 1.90483 4.48963 0
M  V30 18494 H 1721.84 4.06921 3.69724 0
M  V30 18495 H 1723.06 4.97565 4.62175 0
M  V30 18496 H 1721.01 3.06561 5.79962 0
M  V30 18497 H 1720.92 4.7962 5.8438 0
M  V30 18498 H 1722.19 3.97593 6.70478 0
M  V30 18499 N 1726.42 -0.801453 1.357 0
M  V30 18500 C 1727.67 -1.55571 1.29004 0
M  V30 18501 C 1727.99 -1.9454 -0.133836 0
M  V30 18502 O 1727.26 -1.64004 -1.07143 0
M  V30 18503 H 1725.84 -0.576922 0.47452 0
M  V30 18504 H 1728.5 -0.95568 1.69861 0
M  V30 18505 H 1727.6 -2.46879 1.90937 0
M  V30 18506 N 1727.9 -1.19782 -1.02421 0
M  V30 18507 C 1729.14 -1.0048 -1.76158 0
M  V30 18508 C 1729.48 0.46281 -1.88605 0
M  V30 18509 O 1728.75 1.34366 -1.40628 0
M  V30 18510 C 1729.04 -1.67999 -3.1851 0
M  V30 18511 C 1728.89 -3.22155 -3.13905 0
M  V30 18512 C 1730.21 -1.40681 -4.17009 0
M  V30 18513 H 1727.33 -0.366436 -0.639448 0
M  V30 18514 H 1729.97 -1.47688 -1.19534 0
M  V30 18515 H 1728.12 -1.27862 -3.66856 0
M  V30 18516 H 1729.79 -3.71536 -2.7342 0
M  V30 18517 H 1728.03 -3.53456 -2.51498 0
M  V30 18518 H 1728.7 -3.64548 -4.14498 0
M  V30 18519 H 1731.18 -1.75488 -3.77284 0
M  V30 18520 H 1730.06 -1.90467 -5.14795 0
M  V30 18521 H 1730.32 -0.332889 -4.40845 0
M  V30 18522 N 1729.38 1.21606 -1.00248 0
M  V30 18523 C 1730.65 1.86191 -0.599348 0
M  V30 18524 C 1731.03 1.89847 0.923104 0
M  V30 18525 O 1730.38 1.39595 1.80902 0
M  V30 18526 C 1730.59 3.26576 -1.23082 0
M  V30 18527 C 1731.94 4.02989 -1.33736 0
M  V30 18528 O 1732.96 3.35877 -1.18595 0
M  V30 18529 O 1731.82 5.23142 -1.58065 0
M  V30 18530 H 1728.92 0.801204 -0.204943 0
M  V30 18531 H 1731.46 1.29309 -1.09897 0
M  V30 18532 H 1730.24 3.18601 -2.27176 0
M  V30 18533 H 1729.86 3.91074 -0.717394 0
M  V30 18534 N 1730.86 0.776895 1.37121 0
M  V30 18535 C 1731.79 0.180738 2.32799 0
M  V30 18536 C 1732.77 -0.677284 1.56035 0
M  V30 18537 O 1733.95 -0.613687 1.84249 0
M  V30 18538 C 1731.08 -0.695148 3.40272 0
M  V30 18539 C 1730.04 0.0619772 4.27955 0
M  V30 18540 C 1729.36 -0.933688 5.26485 0
M  V30 18541 C 1730.66 1.24396 5.0727 0
M  V30 18542 H 1732.36 0.980039 2.82906 0
M  V30 18543 H 1729.9 0.472722 1.3602 0
M  V30 18544 H 1731.85 -1.12205 4.06187 0
M  V30 18545 H 1730.58 -1.52702 2.88703 0
M  V30 18546 H 1729.24 0.469717 3.63578 0
M  V30 18547 H 1728.89 -1.76025 4.71194 0
M  V30 18548 H 1728.59 -0.431608 5.86013 0
M  V30 18549 H 1730.11 -1.35942 5.95275 0
M  V30 18550 H 1731.52 0.89345 5.66295 0
M  V30 18551 H 1729.92 1.67848 5.76149 0
M  V30 18552 H 1730.99 2.04553 4.39643 0
M  V30 18553 N 1732.33 -1.48497 0.527859 0
M  V30 18554 C 1733.58 -2.01698 -0.00900086 0
M  V30 18555 C 1733.9 -1.4104 -1.35525 0
M  V30 18556 O 1735.1 -1.85726 -1.98035 0
M  V30 18557 C 1733.56 -3.59839 -0.0664428 0
M  V30 18558 C 1733.17 -4.2948 1.27479 0
M  V30 18559 C 1734.91 -4.20893 -0.552244 0
M  V30 18560 C 1732.82 -5.79548 1.17805 0
M  V30 18561 H 1731.75 -0.753966 -0.00713463 0
M  V30 18562 H 1734.4 -1.70779 0.67132 0
M  V30 18563 H 1732.78 -3.8759 -0.811795 0
M  V30 18564 H 1733.95 -4.13403 2.03554 0
M  V30 18565 H 1732.27 -3.80289 1.69616 0
M  V30 18566 H 1734.87 -5.30825 -0.642556 0
M  V30 18567 H 1735.21 -3.86066 -1.55752 0
M  V30 18568 H 1735.74 -3.97563 0.137363 0
M  V30 18569 H 1732.48 -6.18945 2.15841 0
M  V30 18570 H 1732 -5.98044 0.458624 0
M  V30 18571 H 1733.68 -6.41153 0.867834 0
M  V30 18572 N 1733.81 -0.262893 -1.55392 0
M  V30 18573 C 1734.74 0.66288 -2.19405 0
M  V30 18574 C 1735.76 1.12675 -1.17508 0
M  V30 18575 O 1736.95 1.05077 -1.44295 0
M  V30 18576 C 1734.05 1.91471 -2.79628 0
M  V30 18577 C 1733.22 1.59966 -4.07099 0
M  V30 18578 C 1732.28 2.7027 -4.51487 0
M  V30 18579 O 1731.3 2.36976 -5.17524 0
M  V30 18580 N 1732.51 4.0009 -4.20605 0
M  V30 18581 H 1735.27 0.115075 -2.99479 0
M  V30 18582 H 1732.83 -0.0834933 -1.61685 0
M  V30 18583 H 1734.82 2.64535 -3.06273 0
M  V30 18584 H 1733.39 2.37188 -2.03619 0
M  V30 18585 H 1732.61 0.703431 -3.87873 0
M  V30 18586 H 1733.9 1.36402 -4.90175 0
M  V30 18587 H 1733.3 4.29966 -3.67621 0
M  V30 18588 H 1731.86 4.69569 -4.52049 0
M  V30 18589 N 1735.29 1.57597 0.0100073 0
M  V30 18590 C 1736.24 2.07788 1.00463 0
M  V30 18591 C 1737.21 0.971101 1.34755 0
M  V30 18592 O 1738.39 1.2429 1.44764 0
M  V30 18593 C 1735.53 2.57769 2.29454 0
M  V30 18594 C 1734.64 3.8231 2.01153 0
M  V30 18595 C 1733.78 4.2083 3.24154 0
M  V30 18596 C 1732.82 5.38236 2.91494 0
M  V30 18597 N 1731.96 5.72096 4.07001 0
M  V30 18598 H 1736.8 2.92504 0.569675 0
M  V30 18599 H 1734.33 1.44607 0.269645 0
M  V30 18600 H 1736.29 2.84821 3.04849 0
M  V30 18601 H 1734.92 1.75942 2.70637 0
M  V30 18602 H 1733.97 3.62227 1.16171 0
M  V30 18603 H 1735.28 4.67811 1.73074 0
M  V30 18604 H 1734.44 4.49111 4.07902 0
M  V30 18605 H 1733.18 3.34019 3.55363 0
M  V30 18606 H 1732.18 5.09688 2.06151 0
M  V30 18607 H 1733.41 6.26716 2.61543 0
M  V30 18608 H 1731.35 4.88243 4.38126 0
M  V30 18609 H 1731.27 6.52148 3.82411 0
M  V30 18610 H 1732.54 6.04964 4.91567 0
M  V30 18611 N 1736.77 -0.282606 1.55045 0
M  V30 18612 C 1737.7 -1.35347 1.90272 0
M  V30 18613 C 1738.68 -1.52001 0.763532 0
M  V30 18614 O 1739.86 -1.65204 1.02085 0
M  V30 18615 C 1736.99 -2.71464 2.16621 0
M  V30 18616 C 1735.95 -2.69554 3.32453 0
M  V30 18617 C 1735.27 -4.09132 3.4426 0
M  V30 18618 C 1736.57 -2.29669 4.69094 0
M  V30 18619 H 1738.27 -1.06113 2.79965 0
M  V30 18620 H 1735.81 -0.509018 1.34703 0
M  V30 18621 H 1737.77 -3.46482 2.39851 0
M  V30 18622 H 1736.49 -3.02261 1.23717 0
M  V30 18623 H 1735.15 -1.96993 3.09175 0
M  V30 18624 H 1734.8 -4.37136 2.4884 0
M  V30 18625 H 1734.5 -4.08751 4.22133 0
M  V30 18626 H 1736.02 -4.85903 3.69771 0
M  V30 18627 H 1737.44 -2.94407 4.91932 0
M  V30 18628 H 1735.83 -2.40467 5.49814 0
M  V30 18629 H 1736.9 -1.24796 4.68566 0
M  V30 18630 N 1738.25 -1.47815 -0.546675 0
M  V30 18631 C 1739.66 -1.33566 -0.873628 0
M  V30 18632 C 1739.86 -0.334067 -1.98711 0
M  V30 18633 O 1738.92 0.250675 -2.51253 0
M  V30 18634 C 1740.23 -2.73171 -1.25691 0
M  V30 18635 C 1741.78 -2.81535 -1.36774 0
M  V30 18636 C 1742.25 -4.21804 -1.78454 0
M  V30 18637 N 1743.74 -4.24396 -1.85586 0
M  V30 18638 C 1744.48 -5.29854 -2.19186 0
M  V30 18639 N 1743.98 -6.45606 -2.51326 0
M  V30 18640 N 1745.77 -5.17237 -2.2005 0
M  V30 18641 H 1737.92 -2.11564 0.188285 0
M  V30 18642 H 1740.18 -0.947754 0.0215773 0
M  V30 18643 H 1739.89 -3.47946 -0.512485 0
M  V30 18644 H 1739.76 -3.05622 -2.21077 0
M  V30 18645 H 1742.15 -2.07025 -2.10297 0
M  V30 18646 H 1742.23 -2.52724 -0.395504 0
M  V30 18647 H 1741.87 -4.96823 -1.05498 0
M  V30 18648 H 1741.8 -4.48046 -2.76699 0
M  V30 18649 H 1744.3 -3.40895 -1.63092 0
M  V30 18650 H 1744.61 -7.21825 -2.76022 0
M  V30 18651 H 1742.95 -6.48909 -2.48883 0
M  V30 18652 H 1746.14 -4.2583 -1.94387 0
M  V30 18653 H 1746.32 -5.99529 -2.45905 0
M  V30 18654 N 1739.72 0.794246 -1.36123 0
M  V30 18655 C 1740.95 1.58297 -1.33228 0
M  V30 18656 C 1741.37 1.88597 0.0875426 0
M  V30 18657 O 1740.72 1.49754 1.04307 0
M  V30 18658 C 1740.77 2.90687 -2.14904 0
M  V30 18659 O 1740.5 2.61695 -3.51351 0
M  V30 18660 C 1742 3.85009 -2.19734 0
M  V30 18661 H 1739.22 0.491139 -0.457191 0
M  V30 18662 H 1741.76 0.986129 -1.79153 0
M  V30 18663 H 1739.92 3.46852 -1.72546 0
M  V30 18664 H 1740.33 3.46313 -3.93913 0
M  V30 18665 H 1741.8 4.74976 -2.8125 0
M  V30 18666 H 1742.28 4.22504 -1.19946 0
M  V30 18667 H 1742.89 3.34777 -2.62307 0
M  V30 18668 N 1741.2 1.20323 1.01785 0
M  V30 18669 C 1742.45 1.01413 1.75623 0
M  V30 18670 C 1742.78 -0.452801 1.88847 0
M  V30 18671 O 1742.06 -1.33618 1.41338 0
M  V30 18672 C 1742.34 1.69686 3.17614 0
M  V30 18673 C 1742.19 3.23815 3.12192 0
M  V30 18674 C 1743.51 1.42891 4.16257 0
M  V30 18675 H 1740.63 0.369822 0.637495 0
M  V30 18676 H 1743.27 1.4832 1.18749 0
M  V30 18677 H 1741.42 1.29806 3.66173 0
M  V30 18678 H 1743.09 3.72981 2.71446 0
M  V30 18679 H 1741.34 3.54785 2.4962 0
M  V30 18680 H 1742.01 3.66741 4.12559 0
M  V30 18681 H 1744.48 1.77486 3.76348 0
M  V30 18682 H 1743.36 1.93195 5.13777 0
M  V30 18683 H 1743.62 0.356263 4.40662 0
M  V30 18684 N 1742.68 -1.21073 1.00892 0
M  V30 18685 C 1743.63 -2.21426 0.543574 0
M  V30 18686 C 1744.61 -1.55927 -0.396938 0
M  V30 18687 O 1745.81 -1.75613 -0.221152 0
M  V30 18688 C 1742.93 -3.43074 -0.124494 0
M  V30 18689 C 1742.02 -4.15753 0.837269 0
M  V30 18690 N 1742.41 -4.64936 1.99168 0
M  V30 18691 C 1740.71 -4.41142 0.656473 0
M  V30 18692 C 1741.41 -5.20527 2.59666 0
M  V30 18693 N 1740.39 -5.10133 1.87792 0
M  V30 18694 H 1744.19 -2.5711 1.42378 0
M  V30 18695 H 1741.7 -1.36923 0.873254 0
M  V30 18696 H 1743.7 -4.14181 -0.475363 0
M  V30 18697 H 1742.36 -3.08897 -1.00064 0
M  V30 18698 H 1743.37 -4.60392 2.37191 0
M  V30 18699 H 1740.05 -4.17144 -0.172261 0
M  V30 18700 H 1741.44 -5.69011 3.57318 0
M  V30 18701 N 1744.16 -0.784156 -1.36707 0
M  V30 18702 C 1745.38 -0.364744 -2.04168 0
M  V30 18703 C 1745.81 1.00905 -1.58745 0
M  V30 18704 O 1745.17 1.64903 -0.753447 0
M  V30 18705 C 1745.21 -0.43091 -3.58016 0
M  V30 18706 O 1744.32 0.564103 -4.08524 0
M  V30 18707 H 1743.66 -0.15576 -0.645473 0
M  V30 18708 H 1746.19 -1.0638 -1.74769 0
M  V30 18709 H 1746.2 -0.292629 -4.06949 0
M  V30 18710 H 1744.87 -1.43308 -3.9043 0
M  V30 18711 H 1743.45 0.387917 -3.70877 0
M  V30 18712 N 1745.64 1.48215 -0.535727 0
M  V30 18713 C 1746.57 2.26582 0.271278 0
M  V30 18714 C 1747.55 1.32699 0.939673 0
M  V30 18715 O 1748.73 1.62049 0.96293 0
M  V30 18716 C 1745.86 3.09103 1.38467 0
M  V30 18717 C 1744.9 4.18404 0.827081 0
M  V30 18718 S 1745.74 5.34604 -0.309565 0
M  V30 18719 C 1746.89 6.20687 0.806162 0
M  V30 18720 H 1747.13 2.94681 -0.393775 0
M  V30 18721 H 1744.66 1.51013 -0.321622 0
M  V30 18722 H 1746.62 3.57223 2.02242 0
M  V30 18723 H 1745.28 2.40407 2.02147 0
M  V30 18724 H 1744.47 4.7579 1.66251 0
M  V30 18725 H 1744.07 3.73053 0.265911 0
M  V30 18726 H 1746.37 6.55735 1.70345 0
M  V30 18727 H 1747.31 7.07585 0.27014 0
M  V30 18728 H 1747.72 5.53893 1.08916 0
M  V30 18729 N 1747.11 0.27113 1.5525 0
M  V30 18730 C 1748.08 -0.604946 2.21072 0
M  V30 18731 C 1749.08 -1.08438 1.18735 0
M  V30 18732 O 1750.27 -0.985192 1.43665 0
M  V30 18733 C 1747.4 -1.83416 2.87353 0
M  V30 18734 H 1748.59 -0.0302981 2.99885 0
M  V30 18735 H 1746.15 0.0217204 1.56285 0
M  V30 18736 H 1746.88 -2.44942 2.12542 0
M  V30 18737 H 1746.67 -1.49834 3.62343 0
M  V30 18738 H 1748.16 -2.45724 3.37653 0
M  V30 18739 N 1748.59 -1.576 -0.00164943 0
M  V30 18740 C 1749.52 -2.05167 -1.02173 0
M  V30 18741 C 1750.54 -0.969293 -1.308 0
M  V30 18742 O 1751.73 -1.24612 -1.27805 0
M  V30 18743 C 1748.83 -2.43525 -2.35688 0
M  V30 18744 C 1748 -3.74475 -2.26025 0
M  V30 18745 C 1747.06 -3.99719 -3.42215 0
M  V30 18746 O 1746.08 -4.70408 -3.20476 0
M  V30 18747 N 1747.29 -3.47486 -4.65009 0
M  V30 18748 H 1750.05 -2.93299 -0.616095 0
M  V30 18749 H 1747.61 -1.60792 -0.189066 0
M  V30 18750 H 1749.6 -2.57528 -3.12188 0
M  V30 18751 H 1748.17 -1.6092 -2.67999 0
M  V30 18752 H 1747.39 -3.70564 -1.34447 0
M  V30 18753 H 1748.68 -4.60328 -2.16739 0
M  V30 18754 H 1748.08 -2.9024 -4.85569 0
M  V30 18755 H 1746.64 -3.66822 -5.38781 0
M  V30 18756 N 1750.07 0.274379 -1.55193 0
M  V30 18757 C 1751.32 1.00766 -1.75995 0
M  V30 18758 C 1751.65 1.8599 -0.558679 0
M  V30 18759 O 1750.92 1.8937 0.443784 0
M  V30 18760 C 1751.21 1.89137 -3.0643 0
M  V30 18761 C 1751.06 1.06914 -4.36909 0
M  V30 18762 C 1752.38 2.87869 -3.32896 0
M  V30 18763 H 1749.5 0.364915 -0.640317 0
M  V30 18764 H 1752.14 0.280156 -1.87923 0
M  V30 18765 H 1750.29 2.51166 -2.96391 0
M  V30 18766 H 1751.96 0.469666 -4.58903 0
M  V30 18767 H 1750.21 0.372566 -4.32197 0
M  V30 18768 H 1750.88 1.72063 -5.24498 0
M  V30 18769 H 1753.35 2.35974 -3.42718 0
M  V30 18770 H 1752.23 3.46845 -4.25429 0
M  V30 18771 H 1752.49 3.62921 -2.52469 0
M  V30 18772 N 1751.55 1.48103 0.538828 0
M  V30 18773 C 1752.83 1.46155 1.29992 0
M  V30 18774 C 1753.21 0.16841 2.10427 0
M  V30 18775 O 1752.55 -0.849967 2.12103 0
M  V30 18776 C 1752.76 2.71826 2.18888 0
M  V30 18777 C 1754.11 3.19794 2.79315 0
M  V30 18778 O 1755.14 2.72681 2.2918 0
M  V30 18779 O 1753.99 4.0175 3.70485 0
M  V30 18780 H 1751.09 0.583293 0.586258 0
M  V30 18781 H 1753.63 1.60326 0.556212 0
M  V30 18782 H 1752.41 3.57462 1.59176 0
M  V30 18783 H 1752.03 2.60332 3.00521 0
M  V30 18784 N 1753.03 -0.787016 1.36542 0
M  V30 18785 C 1754.44 -1.36234 1.2766 0
M  V30 18786 C 1754.79 -1.96026 -0.0825391 0
M  V30 18787 O 1753.91 -1.92731 -0.984059 0
M  V30 18788 C 1754.51 -2.47684 2.31167 0
M  V30 18789 C 1753.07 -3.01026 2.25966 0
M  V30 18790 C 1752.21 -1.74122 2.15816 0
M  V30 18791 H 1755.17 -0.58847 1.47386 0
M  V30 18792 H 1755.19 -3.26765 1.94949 0
M  V30 18793 H 1754.7 -2.04136 3.30076 0
M  V30 18794 H 1752.8 -3.48988 1.30531 0
M  V30 18795 H 1752.91 -3.57677 3.18754 0
M  V30 18796 H 1751.28 -1.9645 1.6211 0
M  V30 18797 H 1752.06 -1.32699 3.16616 0
M  V30 18798 N 1754.5 -1.20861 -1.01145 0
M  V30 18799 C 1755.45 -0.959005 -2.1191 0
M  V30 18800 C 1756.45 0.0914738 -1.69153 0
M  V30 18801 O 1757.65 -0.0593443 -1.79902 0
M  V30 18802 H 1754.03 -0.292825 -0.692645 0
M  V30 18803 H 1756 -1.89937 -2.30145 0
M  V30 18804 C 1754.75 -0.533258 -3.43586 0
M  V30 18805 H 1754.07 -1.33319 -3.76917 0
M  V30 18806 H 1755.51 -0.397868 -4.22129 0
M  V30 18807 C 1753.97 0.755011 -3.28331 0
M  V30 18808 O 1754.5 1.81217 -3.58502 0
M  V30 18809 N 1752.71 0.719026 -2.81564 0
M  V30 18810 H 1752.25 -0.141544 -2.57211 0
M  V30 18811 H 1752.21 1.58132 -2.71738 0
M  V30 18812 N 1755.98 1.20536 -1.01532 0
M  V30 18813 C 1756.91 2.2553 -0.604866 0
M  V30 18814 C 1757.89 1.65814 0.379452 0
M  V30 18815 O 1759.08 1.92381 0.265162 0
M  V30 18816 C 1756.21 3.4725 0.0589292 0
M  V30 18817 C 1755.16 4.19551 -0.846241 0
M  V30 18818 C 1754.49 5.34678 -0.0482901 0
M  V30 18819 C 1755.79 4.75829 -2.1537 0
M  V30 18820 H 1757.48 2.60117 -1.48254 0
M  V30 18821 H 1755.03 1.25035 -0.714297 0
M  V30 18822 H 1756.98 4.1988 0.357627 0
M  V30 18823 H 1755.71 3.11822 0.97131 0
M  V30 18824 H 1754.36 3.48785 -1.12892 0
M  V30 18825 H 1754.01 4.95494 0.8657 0
M  V30 18826 H 1753.71 5.83982 -0.651081 0
M  V30 18827 H 1755.24 6.10112 0.243983 0
M  V30 18828 H 1756.65 5.40284 -1.91745 0
M  V30 18829 H 1755.05 5.35564 -2.70723 0
M  V30 18830 H 1756.12 3.94641 -2.81756 0
M  V30 18831 N 1757.46 0.791395 1.36289 0
M  V30 18832 C 1758.71 0.363981 1.98795 0
M  V30 18833 C 1759.03 -1.0685 1.6312 0
M  V30 18834 O 1758.3 -1.73682 0.906161 0
M  V30 18835 H 1756.88 0.131594 0.735318 0
M  V30 18836 H 1759.54 1.01387 1.66453 0
M  V30 18837 H 1758.64 0.457407 3.0873 0
M  V30 18838 N 1758.94 -1.47929 0.54358 0
M  V30 18839 C 1760.19 -2.02795 0.014488 0
M  V30 18840 C 1760.52 -1.41848 -1.32638 0
M  V30 18841 O 1759.79 -0.569099 -1.85988 0
M  V30 18842 C 1760.08 -3.5998 -0.093097 0
M  V30 18843 C 1759.93 -4.31384 1.2739 0
M  V30 18844 C 1761.25 -4.32521 -0.813251 0
M  V30 18845 H 1758.37 -0.736969 0.00673905 0
M  V30 18846 H 1761.01 -1.76507 0.703238 0
M  V30 18847 H 1759.16 -3.82508 -0.679685 0
M  V30 18848 H 1760.83 -4.20235 1.90264 0
M  V30 18849 H 1759.07 -3.9227 1.85221 0
M  V30 18850 H 1759.75 -5.39856 1.15148 0
M  V30 18851 H 1762.22 -4.14903 -0.315334 0
M  V30 18852 H 1761.1 -5.42161 -0.857456 0
M  V30 18853 H 1761.36 -4.00768 -1.86649 0
M  V30 18854 N 1760.42 -0.27936 -1.55104 0
M  V30 18855 C 1761.37 0.620882 -2.19383 0
M  V30 18856 C 1762.35 1.11522 -1.15981 0
M  V30 18857 O 1763.54 1.05959 -1.4178 0
M  V30 18858 C 1760.67 1.80257 -2.92168 0
M  V30 18859 C 1759.76 1.32522 -4.02863 0
M  V30 18860 N 1760.15 0.564305 -5.02642 0
M  V30 18861 C 1758.45 1.60781 -4.16011 0
M  V30 18862 C 1759.15 0.312802 -5.80858 0
M  V30 18863 N 1758.12 0.886439 -5.36324 0
M  V30 18864 H 1761.93 0.0317396 -2.93883 0
M  V30 18865 H 1759.44 -0.083113 -1.62187 0
M  V30 18866 H 1761.44 2.45884 -3.3667 0
M  V30 18867 H 1760.1 2.39562 -2.1918 0
M  V30 18868 H 1761.11 0.211243 -5.17469 0
M  V30 18869 H 1757.79 2.20991 -3.54216 0
M  V30 18870 H 1759.18 -0.296885 -6.71244 0
M  V30 18871 N 1761.9 1.57599 -0.0067085 0
M  V30 18872 C 1762.83 2.11878 0.981331 0
M  V30 18873 C 1763.81 1.02949 1.35408 0
M  V30 18874 O 1764.99 1.30667 1.43665 0
M  V30 18875 C 1762.12 2.62757 2.27104 0
M  V30 18876 C 1761.08 3.76272 2.0397 0
M  V30 18877 C 1760.4 4.13491 3.39012 0
M  V30 18878 C 1761.7 5.03274 1.39688 0
M  V30 18879 H 1763.4 2.94683 0.529366 0
M  V30 18880 H 1760.94 1.41757 0.253187 0
M  V30 18881 H 1762.89 2.99359 2.96585 0
M  V30 18882 H 1761.62 1.77082 2.74426 0
M  V30 18883 H 1760.28 3.40074 1.36913 0
M  V30 18884 H 1759.93 3.24831 3.8405 0
M  V30 18885 H 1759.63 4.89972 3.24347 0
M  V30 18886 H 1761.15 4.52657 4.09797 0
M  V30 18887 H 1762.56 5.37604 1.99136 0
M  V30 18888 H 1760.96 5.84604 1.3549 0
M  V30 18889 H 1762.03 4.8351 0.366928 0
M  V30 18890 N 1763.37 -0.266145 1.55336 0
M  V30 18891 C 1764.6 -1.01915 1.80633 0
M  V30 18892 C 1765.02 -1.78897 0.581172 0
M  V30 18893 O 1764.38 -1.75118 -0.469399 0
M  V30 18894 C 1764.43 -1.948 3.03456 0
M  V30 18895 O 1763.53 -3.03678 2.79022 0
M  V30 18896 H 1762.87 -0.29102 0.596828 0
M  V30 18897 H 1765.4 -0.292973 2.02492 0
M  V30 18898 H 1765.41 -2.36626 3.32373 0
M  V30 18899 H 1764.09 -1.38182 3.92273 0
M  V30 18900 H 1762.67 -2.66118 2.61219 0
M  V30 18901 N 1764.85 -1.48386 -0.530967 0
M  V30 18902 C 1766.26 -1.49904 -1.11291 0
M  V30 18903 C 1766.61 -0.268276 -1.94357 0
M  V30 18904 O 1765.74 0.624676 -2.07188 0
M  V30 18905 C 1766.33 -2.71622 -2.02501 0
M  V30 18906 C 1764.89 -2.76015 -2.55916 0
M  V30 18907 C 1764.04 -2.43403 -1.32855 0
M  V30 18908 H 1766.99 -1.55517 -0.316269 0
M  V30 18909 H 1767.01 -2.50084 -2.86772 0
M  V30 18910 H 1766.52 -3.61182 -1.42017 0
M  V30 18911 H 1764.62 -1.9066 -3.20124 0
M  V30 18912 H 1764.74 -3.77416 -2.95116 0
M  V30 18913 H 1763.1 -1.94537 -1.644 0
M  V30 18914 H 1763.88 -3.35202 -0.741242 0
M  V30 18915 N 1766.33 0.779763 -1.36958 0
M  V30 18916 C 1767.26 1.90687 -1.34762 0
M  V30 18917 C 1768.24 1.68704 -0.217508 0
M  V30 18918 O 1769.43 1.89678 -0.416639 0
M  V30 18919 C 1766.56 3.27854 -1.14582 0
M  V30 18920 C 1765.51 3.64383 -2.2452 0
M  V30 18921 C 1764.84 5.00004 -1.89473 0
M  V30 18922 C 1766.14 3.71963 -3.66662 0
M  V30 18923 H 1767.83 1.92781 -2.29076 0
M  V30 18924 H 1765.38 0.926102 -1.10269 0
M  V30 18925 H 1767.33 4.06332 -1.11678 0
M  V30 18926 H 1766.05 3.26172 -0.167218 0
M  V30 18927 H 1764.71 2.88207 -2.26566 0
M  V30 18928 H 1764.36 4.94853 -0.901617 0
M  V30 18929 H 1764.06 5.25414 -2.63085 0
M  V30 18930 H 1765.58 5.80892 -1.88141 0
M  V30 18931 H 1767 4.40611 -3.6679 0
M  V30 18932 H 1765.39 4.08864 -4.39261 0
M  V30 18933 H 1766.46 2.72824 -4.00868 0
M  V30 18934 N 1767.81 1.21396 1.00503 0
M  V30 18935 C 1769.22 0.971304 1.26641 0
M  V30 18936 C 1769.42 -0.342336 1.98571 0
M  V30 18937 O 1768.48 -1.068 2.28801 0
M  V30 18938 C 1769.79 2.16186 2.09008 0
M  V30 18939 C 1771.34 2.20411 2.22234 0
M  V30 18940 C 1771.82 3.38984 3.07983 0
M  V30 18941 N 1773.31 3.3907 3.15572 0
M  V30 18942 C 1774.04 4.27467 3.82177 0
M  V30 18943 N 1773.54 5.26062 4.50811 0
M  V30 18944 N 1775.33 4.15276 3.78817 0
M  V30 18945 H 1767.48 2.05875 0.522436 0
M  V30 18946 H 1769.74 0.901496 0.293272 0
M  V30 18947 H 1769.45 3.11383 1.63504 0
M  V30 18948 H 1769.32 2.15243 3.09758 0
M  V30 18949 H 1771.71 1.25769 2.66957 0
M  V30 18950 H 1771.79 2.25397 1.20954 0
M  V30 18951 H 1771.44 4.33919 2.63964 0
M  V30 18952 H 1771.37 3.31236 4.09378 0
M  V30 18953 H 1773.86 2.67718 2.66713 0
M  V30 18954 H 1774.17 5.89815 4.99338 0
M  V30 18955 H 1772.52 5.29987 4.49599 0
M  V30 18956 H 1775.71 3.37511 3.24351 0
M  V30 18957 H 1775.88 4.84375 4.30448 0
M  V30 18958 N 1769.29 -1.19996 1.0217 0
M  V30 18959 C 1770.56 -1.85214 0.628894 0
M  V30 18960 C 1770.94 -1.91292 -0.892784 0
M  V30 18961 O 1770.29 -1.42455 -1.78658 0
M  V30 18962 C 1770.5 -3.24576 1.28262 0
M  V30 18963 C 1771.85 -4.0081 1.4013 0
M  V30 18964 O 1772.87 -3.33948 1.23923 0
M  V30 18965 O 1771.73 -5.20561 1.66368 0
M  V30 18966 H 1768.83 -0.797842 0.217664 0
M  V30 18967 H 1771.37 -1.27544 1.1194 0
M  V30 18968 H 1770.14 -3.14947 2.32216 0
M  V30 18969 H 1769.77 -3.89884 0.77952 0
M  V30 18970 N 1770.76 -0.798611 -1.35867 0
M  V30 18971 C 1772 -0.380789 -2.00822 0
M  V30 18972 C 1772.37 1.03061 -1.61995 0
M  V30 18973 O 1773.57 1.55001 -2.19609 0
M  V30 18974 C 1771.84 -0.549604 -3.53149 0
M  V30 18975 S 1773.4 -0.221022 -4.38243 0
M  V30 18976 H 1770.22 -0.145008 -0.696056 0
M  V30 18977 H 1772.82 -1.03912 -1.65598 0
M  V30 18978 H 1771.52 -1.57695 -3.78894 0
M  V30 18979 H 1771.05 0.124329 -3.93203 0
M  V30 18980 H 1773.07 0.974167 -4.86543 0
M  V30 18981 N 1772.24 1.47639 -0.551417 0
M  V30 18982 C 1773.49 2.01687 -0.0230887 0
M  V30 18983 C 1773.8 1.43178 1.33265 0
M  V30 18984 O 1775.01 1.88853 1.95056 0
M  V30 18985 C 1773.47 3.59899 0.00918719 0
M  V30 18986 C 1773.07 4.27398 -1.34295 0
M  V30 18987 C 1774.82 4.21718 0.485213 0
M  V30 18988 C 1772.72 5.77601 -1.2701 0
M  V30 18989 H 1771.65 0.753984 -0.00486122 0
M  V30 18990 H 1774.31 1.6969 -0.698405 0
M  V30 18991 H 1772.69 3.88832 0.75003 0
M  V30 18992 H 1773.86 4.10113 -2.10105 0
M  V30 18993 H 1772.18 3.77542 -1.75644 0
M  V30 18994 H 1774.77 5.3178 0.558025 0
M  V30 18995 H 1775.12 3.88495 1.4959 0
M  V30 18996 H 1775.65 3.97294 -0.200594 0
M  V30 18997 H 1772.39 6.15433 -2.2566 0
M  V30 18998 H 1771.91 5.97239 -0.553709 0
M  V30 18999 H 1773.59 6.39692 -0.969726 0
M  V30 19000 N 1773.72 0.287581 1.54954 0
M  V30 19001 C 1774.68 -0.581465 2.21702 0
M  V30 19002 C 1775.68 -1.07172 1.19878 0
M  V30 19003 O 1776.87 -0.969899 1.44702 0
M  V30 19004 C 1774.01 -1.80358 2.89282 0
M  V30 19005 H 1775.2 0.00151035 2.999 0
M  V30 19006 H 1772.75 0.0382953 1.56253 0
M  V30 19007 H 1773.49 -2.42674 2.15128 0
M  V30 19008 H 1773.27 -1.45983 3.63911 0
M  V30 19009 H 1774.76 -2.42129 3.4024 0
M  V30 19010 N 1775.2 -1.57593 0.0150662 0
M  V30 19011 C 1776.61 -1.5591 -0.341189 0
M  V30 19012 C 1776.81 -1.01927 -1.73819 0
M  V30 19013 O 1775.87 -0.659752 -2.43728 0
M  V30 19014 C 1777.18 -3.00016 -0.202639 0
M  V30 19015 C 1778.73 -3.11777 -0.276457 0
M  V30 19016 C 1779.21 -4.57696 -0.166859 0
M  V30 19017 N 1780.7 -4.62657 -0.224287 0
M  V30 19018 C 1781.43 -5.73168 -0.163053 0
M  V30 19019 N 1780.93 -6.92781 -0.0515442 0
M  V30 19020 N 1782.72 -5.61685 -0.216018 0
M  V30 19021 H 1774.87 -1.91018 0.92876 0
M  V30 19022 H 1777.14 -0.878048 0.3574 0
M  V30 19023 H 1776.84 -3.43409 0.759136 0
M  V30 19024 H 1776.72 -3.64285 -0.978599 0
M  V30 19025 H 1779.1 -2.68305 -1.22868 0
M  V30 19026 H 1779.18 -2.50257 0.529637 0
M  V30 19027 H 1778.83 -5.01846 0.781888 0
M  V30 19028 H 1778.76 -5.17179 -0.991635 0
M  V30 19029 H 1781.25 -3.76617 -0.311188 0
M  V30 19030 H 1781.56 -7.72799 -0.0111287 0
M  V30 19031 H 1779.91 -6.94998 -0.0169584 0
M  V30 19032 H 1783.1 -4.67128 -0.301435 0
M  V30 19033 H 1783.27 -6.4779 -0.164834 0
M  V30 19034 N 1776.68 0.257904 -1.55475 0
M  V30 19035 C 1777.92 0.988933 -1.77054 0
M  V30 19036 C 1778.26 1.85387 -0.578375 0
M  V30 19037 O 1777.53 1.8983 0.423673 0
M  V30 19038 C 1777.81 1.85876 -3.08419 0
M  V30 19039 C 1777.67 1.02274 -4.38018 0
M  V30 19040 C 1778.99 2.84322 -3.3593 0
M  V30 19041 H 1776.1 0.358103 -0.644152 0
M  V30 19042 H 1778.75 0.260209 -1.8821 0
M  V30 19043 H 1776.9 2.48008 -2.99039 0
M  V30 19044 H 1778.57 0.420967 -4.59375 0
M  V30 19045 H 1776.81 0.326705 -4.32568 0
M  V30 19046 H 1777.48 1.6649 -5.26294 0
M  V30 19047 H 1779.96 2.32325 -3.45202 0
M  V30 19048 H 1778.83 3.42313 -4.29084 0
M  V30 19049 H 1779.1 3.60223 -2.56304 0
M  V30 19050 N 1778.15 1.48666 0.52309 0
M  V30 19051 C 1779.1 1.60099 1.62334 0
M  V30 19052 C 1780.09 0.457736 1.54252 0
M  V30 19053 O 1781.28 0.709544 1.62156 0
M  V30 19054 C 1778.41 1.65029 3.01032 0
M  V30 19055 C 1777.5 2.84858 3.14192 0
M  V30 19056 N 1777.89 4.09198 2.97305 0
M  V30 19057 C 1776.18 2.82334 3.45259 0
M  V30 19058 C 1776.89 4.89631 3.14064 0
M  V30 19059 N 1775.86 4.22577 3.4195 0
M  V30 19060 H 1779.66 2.53975 1.47898 0
M  V30 19061 H 1777.18 1.45133 0.728714 0
M  V30 19062 H 1779.17 1.71315 3.80075 0
M  V30 19063 H 1777.83 0.722745 3.16554 0
M  V30 19064 H 1778.85 4.39527 2.73928 0
M  V30 19065 H 1775.52 1.98865 3.67095 0
M  V30 19066 H 1776.91 5.98335 3.05688 0
M  V30 19067 N 1779.63 -0.772489 1.37369 0
M  V30 19068 C 1780.56 -1.89487 1.28948 0
M  V30 19069 C 1781.58 -1.61499 0.205434 0
M  V30 19070 O 1782.77 -1.7243 0.461519 0
M  V30 19071 C 1779.87 -3.24698 0.970798 0
M  V30 19072 C 1779.04 -3.80337 2.16015 0
M  V30 19073 C 1778.1 -4.94022 1.81187 0
M  V30 19074 O 1777.12 -5.09647 2.53473 0
M  V30 19075 N 1778.33 -5.75562 0.755549 0
M  V30 19076 H 1781.09 -1.97228 2.25658 0
M  V30 19077 H 1778.65 -0.951562 1.30984 0
M  V30 19078 H 1780.64 -3.98268 0.71866 0
M  V30 19079 H 1779.21 -3.12464 0.0922825 0
M  V30 19080 H 1778.43 -2.98554 2.57409 0
M  V30 19081 H 1779.72 -4.14242 2.95434 0
M  V30 19082 H 1779.12 -5.65486 0.155691 0
M  V30 19083 H 1777.68 -6.49362 0.563268 0
M  V30 19084 N 1781.11 -1.21927 -0.998575 0
M  V30 19085 C 1782.06 -0.984283 -2.08759 0
M  V30 19086 C 1783.03 0.0920029 -1.65845 0
M  V30 19087 O 1784.21 -0.0564334 -1.90717 0
M  V30 19088 C 1781.35 -0.562006 -3.40493 0
M  V30 19089 C 1780.47 -1.70844 -3.96783 0
M  V30 19090 C 1779.6 -1.2347 -5.16651 0
M  V30 19091 C 1778.64 -2.35305 -5.65065 0
M  V30 19092 N 1777.78 -1.89018 -6.76178 0
M  V30 19093 H 1782.62 -1.91653 -2.28195 0
M  V30 19094 H 1780.15 -0.955028 -1.11882 0
M  V30 19095 H 1782.11 -0.298383 -4.16132 0
M  V30 19096 H 1780.74 0.33324 -3.21075 0
M  V30 19097 H 1779.79 -2.08653 -3.18069 0
M  V30 19098 H 1781.11 -2.54987 -4.28699 0
M  V30 19099 H 1780.26 -0.928121 -5.99559 0
M  V30 19100 H 1779 -0.363397 -4.86344 0
M  V30 19101 H 1778 -2.66758 -4.8075 0
M  V30 19102 H 1779.23 -3.22941 -5.97399 0
M  V30 19103 H 1777.17 -1.04242 -6.47665 0
M  V30 19104 H 1777.09 -2.66731 -7.07383 0
M  V30 19105 H 1778.36 -1.61413 -7.62605 0
M  V30 19106 N 1782.59 1.19452 -1.02805 0
M  V30 19107 C 1783.52 2.24875 -0.628752 0
M  V30 19108 C 1784.5 1.66207 0.361844 0
M  V30 19109 O 1785.68 1.92652 0.244743 0
M  V30 19110 C 1782.81 3.47293 0.0220954 0
M  V30 19111 C 1781.77 4.1863 -0.890693 0
M  V30 19112 C 1781.09 5.34597 -0.104997 0
M  V30 19113 C 1782.39 4.73518 -2.20405 0
M  V30 19114 H 1784.09 2.5853 -1.51005 0
M  V30 19115 H 1781.63 1.24271 -0.727518 0
M  V30 19116 H 1783.59 4.20235 0.313073 0
M  V30 19117 H 1782.31 3.12835 0.938182 0
M  V30 19118 H 1780.97 3.47568 -1.16585 0
M  V30 19119 H 1780.62 4.96385 0.813098 0
M  V30 19120 H 1780.32 5.83258 -0.712983 0
M  V30 19121 H 1781.84 6.10337 0.179259 0
M  V30 19122 H 1783.26 5.3822 -1.97465 0
M  V30 19123 H 1781.65 5.32663 -2.76388 0
M  V30 19124 H 1782.72 3.9163 -2.85926 0
M  V30 19125 N 1784.07 0.805805 1.35442 0
M  V30 19126 C 1785.01 0.213632 2.29809 0
M  V30 19127 C 1785.98 -0.651878 1.52774 0
M  V30 19128 O 1787.17 -0.597124 1.81216 0
M  V30 19129 C 1784.31 -0.632444 3.39255 0
M  V30 19130 C 1783.42 0.253414 4.31256 0
M  V30 19131 C 1782.56 -0.600593 5.27794 0
M  V30 19132 C 1781.6 0.285712 6.11433 0
M  V30 19133 N 1780.73 -0.528222 7.0011 0
M  V30 19134 H 1785.57 1.02378 2.79862 0
M  V30 19135 H 1783.11 0.516397 1.37738 0
M  V30 19136 H 1785.07 -1.13814 4.01376 0
M  V30 19137 H 1783.7 -1.40786 2.90481 0
M  V30 19138 H 1782.75 0.877202 3.70148 0
M  V30 19139 H 1784.06 0.935631 4.89946 0
M  V30 19140 H 1783.22 -1.17145 5.95283 0
M  V30 19141 H 1781.95 -1.31638 4.69598 0
M  V30 19142 H 1780.96 0.868843 5.42891 0
M  V30 19143 H 1782.18 0.999349 6.71707 0
M  V30 19144 H 1780.13 -1.228 6.44404 0
M  V30 19145 H 1780.05 0.0959658 7.55939 0
M  V30 19146 H 1781.32 -1.08238 7.71949 0
M  V30 19147 N 1785.54 -1.47344 0.559239 0
M  V30 19148 C 1786.49 -2.31735 -0.200368 0
M  V30 19149 C 1787.49 -1.43051 -0.907351 0
M  V30 19150 O 1788.69 -1.59804 -0.828406 0
M  V30 19151 H 1785.07 -0.747351 -0.0834871 0
M  V30 19152 H 1787.04 -2.93645 0.530556 0
M  V30 19153 C 1785.79 -3.25747 -1.2159 0
M  V30 19154 H 1785.11 -3.93952 -0.681314 0
M  V30 19155 H 1786.55 -3.87624 -1.71825 0
M  V30 19156 C 1785.01 -2.49414 -2.26482 0
M  V30 19157 O 1785.54 -2.24006 -3.33443 0
M  V30 19158 N 1783.75 -2.10387 -2.00464 0
M  V30 19159 H 1783.29 -2.3125 -1.13495 0
M  V30 19160 H 1783.25 -1.5963 -2.70861 0
M  V30 19161 N 1787.02 -0.295795 -1.54799 0
M  V30 19162 C 1787.95 0.575863 -2.26288 0
M  V30 19163 C 1788.93 1.14217 -1.26049 0
M  V30 19164 O 1790.12 1.17248 -1.54812 0
M  V30 19165 C 1787.25 1.7503 -2.9997 0
M  V30 19166 C 1786.2 1.31459 -4.07311 0
M  V30 19167 C 1785.53 2.57377 -4.6868 0
M  V30 19168 C 1786.83 0.449629 -5.20361 0
M  V30 19169 H 1788.52 -0.0203797 -2.99393 0
M  V30 19170 H 1786.07 -0.0112418 -1.43996 0
M  V30 19171 H 1788.02 2.36615 -3.487 0
M  V30 19172 H 1786.75 2.3727 -2.24434 0
M  V30 19173 H 1785.4 0.721829 -3.59423 0
M  V30 19174 H 1785.05 3.1792 -3.89789 0
M  V30 19175 H 1784.75 2.28927 -5.41171 0
M  V30 19176 H 1786.28 3.19774 -5.2017 0
M  V30 19177 H 1787.69 0.971014 -5.65017 0
M  V30 19178 H 1786.09 0.259121 -5.9954 0
M  V30 19179 H 1787.16 -0.526564 -4.82032 0
M  V30 19180 N 1788.5 1.57583 -0.0234236 0
M  V30 19181 C 1789.75 1.91186 0.655152 0
M  V30 19182 C 1790.07 0.89988 1.72995 0
M  V30 19183 O 1789.34 -0.0594278 1.9581 0
M  V30 19184 H 1787.92 0.705686 0.244982 0
M  V30 19185 H 1790.58 1.94775 -0.0698824 0
M  V30 19186 H 1789.68 2.91636 1.11152 0
M  V30 19187 N 1789.98 -0.249655 1.5561 0
M  V30 19188 C 1791.2 -0.999931 1.81703 0
M  V30 19189 C 1791.63 -1.7827 0.600113 0
M  V30 19190 O 1790.99 -1.75606 -0.450799 0
M  V30 19191 C 1791.04 -1.9157 3.05505 0
M  V30 19192 O 1790.14 -3.00702 2.82227 0
M  V30 19193 H 1789.48 -0.284673 0.599881 0
M  V30 19194 H 1792.01 -0.27148 2.02791 0
M  V30 19195 H 1792.02 -2.33088 3.34864 0
M  V30 19196 H 1790.7 -1.34014 3.93717 0
M  V30 19197 H 1789.27 -2.63332 2.64027 0
M  V30 19198 N 1791.46 -1.48941 -0.515198 0
M  V30 19199 C 1792.71 -1.5696 -1.26674 0
M  V30 19200 C 1793.02 -0.255062 -1.9393 0
M  V30 19201 O 1794.23 -0.213645 -2.70658 0
M  V30 19202 C 1792.68 -2.76877 -2.29928 0
M  V30 19203 C 1792.29 -4.15033 -1.68676 0
M  V30 19204 C 1794.03 -2.94218 -3.06 0
M  V30 19205 C 1791.94 -5.26191 -2.69957 0
M  V30 19206 H 1790.87 -0.584377 -0.476465 0
M  V30 19207 H 1793.52 -1.75303 -0.542322 0
M  V30 19208 H 1791.9 -2.51999 -3.05471 0
M  V30 19209 H 1793.08 -4.49991 -0.992215 0
M  V30 19210 H 1791.39 -4.02932 -1.05045 0
M  V30 19211 H 1793.99 -3.74433 -3.81712 0
M  V30 19212 H 1794.33 -2.04235 -3.62759 0
M  V30 19213 H 1794.87 -3.19068 -2.37572 0
M  V30 19214 H 1791.6 -6.18189 -2.17998 0
M  V30 19215 H 1791.12 -4.95705 -3.37694 0
M  V30 19216 H 1792.8 -5.54929 -3.32659 0
M  V30 19217 N 1792.94 0.765193 -1.37777 0
M  V30 19218 C 1793.88 1.90005 -1.34168 0
M  V30 19219 C 1794.88 1.6784 -0.229387 0
M  V30 19220 O 1796.08 1.7555 -0.39778 0
M  V30 19221 H 1792.46 0.624939 -0.418276 0
M  V30 19222 H 1794.43 1.90165 -2.29956 0
M  V30 19223 C 1793.18 3.27349 -1.17208 0
M  V30 19224 H 1792.5 3.44985 -2.02053 0
M  V30 19225 H 1793.94 4.07036 -1.18734 0
M  V30 19226 C 1792.4 3.3668 0.121835 0
M  V30 19227 O 1792.93 3.86258 1.10306 0
M  V30 19228 N 1791.14 2.90074 0.174753 0
M  V30 19229 H 1790.68 2.49918 -0.624397 0
M  V30 19230 H 1790.64 2.96697 1.0401 0
M  V30 19231 N 1794.41 1.22455 0.992094 0
M  V30 19232 C 1795.35 0.953144 2.08441 0
M  V30 19233 C 1796.36 -0.0685432 1.62656 0
M  V30 19234 O 1797.55 0.165561 1.77731 0
M  V30 19235 C 1794.65 0.412046 3.36386 0
M  V30 19236 C 1793.82 1.49114 4.11198 0
M  V30 19237 C 1792.88 0.956984 5.17425 0
M  V30 19238 O 1791.91 1.64337 5.44961 0
M  V30 19239 N 1793.11 -0.221205 5.80078 0
M  V30 19240 H 1795.87 1.89353 2.32305 0
M  V30 19241 H 1793.43 1.13155 1.15791 0
M  V30 19242 H 1795.43 0.0400033 4.0468 0
M  V30 19243 H 1794 -0.433473 3.0958 0
M  V30 19244 H 1793.22 2.03647 3.37523 0
M  V30 19245 H 1794.5 2.21716 4.57951 0
M  V30 19246 H 1793.9 -0.795642 5.60077 0
M  V30 19247 H 1792.46 -0.534625 6.49604 0
M  V30 19248 N 1795.89 -1.18905 1.03437 0
M  V30 19249 C 1796.85 -2.20529 0.624461 0
M  V30 19250 C 1797.85 -1.57688 -0.314824 0
M  V30 19251 O 1799.04 -1.73906 -0.101082 0
M  V30 19252 C 1796.18 -3.40793 -0.0854166 0
M  V30 19253 H 1797.37 -2.58309 1.5237 0
M  V30 19254 H 1794.92 -1.32679 0.826189 0
M  V30 19255 H 1795.66 -3.08538 -0.998747 0
M  V30 19256 H 1795.44 -3.87642 0.589596 0
M  V30 19257 H 1796.93 -4.16055 -0.358938 0
M  V30 19258 N 1797.37 -0.812977 -1.35013 0
M  V30 19259 C 1798.3 -0.173259 -2.27541 0
M  V30 19260 C 1799.28 0.664507 -1.48402 0
M  V30 19261 O 1800.46 0.630404 -1.77646 0
M  V30 19262 C 1797.59 0.758971 -3.30087 0
M  V30 19263 C 1796.64 1.06631e-05 -4.265 0
M  V30 19264 S 1797.47 -1.34039 -5.18453 0
M  V30 19265 C 1798.63 -0.412779 -6.24537 0
M  V30 19266 H 1798.86 -0.957746 -2.81451 0
M  V30 19267 H 1796.39 -0.608361 -1.4191 0
M  V30 19268 H 1798.35 1.29131 -3.89661 0
M  V30 19269 H 1797.01 1.5169 -2.75044 0
M  V30 19270 H 1796.2 0.7083 -4.98998 0
M  V30 19271 H 1795.81 -0.462563 -3.71128 0
M  V30 19272 H 1798.1 0.39951 -6.76321 0
M  V30 19273 H 1799.04 -1.10714 -6.99391 0
M  V30 19274 H 1799.45 -0.00563089 -5.645 0
M  V30 19275 N 1798.85 1.47045 -0.567045 0
M  V30 19276 C 1800.09 2.02746 -0.046749 0
M  V30 19277 C 1800.43 1.4394 1.30364 0
M  V30 19278 O 1799.7 0.598616 1.85059 0
M  V30 19279 C 1799.98 3.60082 0.0358156 0
M  V30 19280 C 1799.84 4.29302 -1.34237 0
M  V30 19281 C 1801.16 4.3376 0.744338 0
M  V30 19282 H 1798.28 0.736769 -0.0184627 0
M  V30 19283 H 1800.92 1.75365 -0.73123 0
M  V30 19284 H 1799.07 3.83541 0.618745 0
M  V30 19285 H 1800.74 4.17155 -1.96926 0
M  V30 19286 H 1798.98 3.89273 -1.91439 0
M  V30 19287 H 1799.65 5.37956 -1.23722 0
M  V30 19288 H 1802.13 4.15353 0.249287 0
M  V30 19289 H 1801.01 5.43457 0.771095 0
M  V30 19290 H 1801.27 4.03686 1.80249 0
M  V30 19291 N 1800.33 0.304 1.5464 0
M  V30 19292 C 1801.55 -0.306916 2.04611 0
M  V30 19293 C 1801.97 -1.4729 1.18114 0
M  V30 19294 O 1801.33 -1.81317 0.20743 0
M  V30 19295 C 1801.38 -0.760263 3.53415 0
M  V30 19296 O 1801.1 0.359321 4.36624 0
M  V30 19297 C 1802.6 -1.43602 4.19396 0
M  V30 19298 H 1799.82 -0.066247 0.667722 0
M  V30 19299 H 1802.36 0.444504 1.99611 0
M  V30 19300 H 1800.52 -1.4617 3.58766 0
M  V30 19301 H 1800.93 0.00582275 5.245 0
M  V30 19302 H 1802.41 -1.70436 5.25029 0
M  V30 19303 H 1802.88 -2.37705 3.69314 0
M  V30 19304 H 1803.49 -0.777683 4.18129 0
M  V30 19305 N 1801.8 -1.57568 0.0317802 0
M  V30 19306 C 1803.22 -1.56264 -0.324633 0
M  V30 19307 C 1803.42 -1.03765 -1.72728 0
M  V30 19308 O 1802.48 -0.685566 -2.43015 0
M  V30 19309 C 1803.79 -3.00214 -0.170806 0
M  V30 19310 C 1805.34 -3.12052 -0.243373 0
M  V30 19311 C 1805.81 -4.57847 -0.118304 0
M  V30 19312 N 1807.3 -4.62869 -0.175203 0
M  V30 19313 C 1808.04 -5.73309 -0.102252 0
M  V30 19314 N 1807.53 -6.92797 0.0219373 0
M  V30 19315 N 1809.33 -5.61882 -0.156432 0
M  V30 19316 H 1801.48 -1.90022 0.948968 0
M  V30 19317 H 1803.74 -0.874208 0.366693 0
M  V30 19318 H 1803.45 -3.42585 0.795517 0
M  V30 19319 H 1803.32 -3.65302 -0.939907 0
M  V30 19320 H 1805.71 -2.69593 -1.20016 0
M  V30 19321 H 1805.79 -2.49681 0.55615 0
M  V30 19322 H 1805.43 -5.00988 0.835072 0
M  V30 19323 H 1805.36 -5.18202 -0.936726 0
M  V30 19324 H 1807.85 -3.76925 -0.271225 0
M  V30 19325 H 1808.17 -7.72768 0.0708376 0
M  V30 19326 H 1806.51 -6.94977 0.0567564 0
M  V30 19327 H 1809.7 -4.67422 -0.251873 0
M  V30 19328 H 1809.88 -6.47929 -0.0961177 0
M  V30 19329 N 1803.28 0.241399 -1.5574 0
M  V30 19330 C 1804.52 0.975956 -1.79595 0
M  V30 19331 C 1804.89 1.82312 -0.60218 0
M  V30 19332 O 1806.09 2.58988 -0.719614 0
M  V30 19333 C 1804.36 1.80917 -3.08227 0
M  V30 19334 S 1805.92 2.60208 -3.53323 0
M  V30 19335 H 1802.74 0.328184 -0.630727 0
M  V30 19336 H 1805.34 0.243307 -1.9398 0
M  V30 19337 H 1804.04 1.1766 -3.93172 0
M  V30 19338 H 1803.57 2.58447 -2.96595 0
M  V30 19339 H 1805.59 3.83317 -3.15091 0
M  V30 19340 N 1804.76 1.49212 0.507292 0
M  V30 19341 C 1805.67 1.68141 1.63603 0
M  V30 19342 C 1806.69 0.563959 1.64607 0
M  V30 19343 O 1807.86 0.837885 1.83143 0
M  V30 19344 C 1804.93 1.73793 2.99995 0
M  V30 19345 C 1803.99 2.9733 3.09667 0
M  V30 19346 C 1803.22 3.02703 4.39553 0
M  V30 19347 O 1803.44 2.15844 5.27985 0
M  V30 19348 O 1802.38 3.95105 4.54066 0
M  V30 19349 H 1806.2 2.63749 1.50565 0
M  V30 19350 H 1803.79 1.32879 0.682893 0
M  V30 19351 H 1805.67 1.79901 3.81069 0
M  V30 19352 H 1804.35 0.813622 3.13308 0
M  V30 19353 H 1803.25 2.96743 2.27804 0
M  V30 19354 H 1804.59 3.8922 3.01278 0
M  V30 19355 N 1806.24 -0.757876 1.38181 0
M  V30 19356 C 1807.65 -1.33496 1.30521 0
M  V30 19357 C 1808 -1.96157 -0.0409405 0
M  V30 19358 O 1807.13 -1.94775 -0.942957 0
M  V30 19359 C 1807.72 -2.42725 2.36369 0
M  V30 19360 C 1806.28 -2.96165 2.323 0
M  V30 19361 C 1805.43 -1.69505 2.19461 0
M  V30 19362 H 1808.38 -0.557075 1.48601 0
M  V30 19363 H 1808.4 -3.22556 2.01836 0
M  V30 19364 H 1807.91 -1.97089 3.34331 0
M  V30 19365 H 1806.01 -3.4614 1.37904 0
M  V30 19366 H 1806.12 -3.50836 3.26269 0
M  V30 19367 H 1804.49 -1.92967 1.66241 0
M  V30 19368 H 1805.27 -1.25954 3.1936 0
M  V30 19369 N 1807.72 -1.22979 -0.985586 0
M  V30 19370 C 1808.96 -1.06033 -1.72872 0
M  V30 19371 C 1809.3 0.402572 -1.89982 0
M  V30 19372 O 1808.57 1.29824 -1.44831 0
M  V30 19373 C 1808.85 -1.78047 -3.13004 0
M  V30 19374 C 1808.71 -3.31979 -3.03497 0
M  V30 19375 C 1810.03 -1.53877 -4.12323 0
M  V30 19376 H 1807.14 -0.386594 -0.627466 0
M  V30 19377 H 1809.79 -1.51416 -1.14775 0
M  V30 19378 H 1807.94 -1.39469 -3.62603 0
M  V30 19379 H 1809.61 -3.80047 -2.61462 0
M  V30 19380 H 1807.85 -3.61279 -2.40125 0
M  V30 19381 H 1808.52 -3.7755 -4.02691 0
M  V30 19382 H 1811 -1.87402 -3.7151 0
M  V30 19383 H 1809.87 -2.06749 -5.08474 0
M  V30 19384 H 1810.14 -0.472972 -4.39563 0
M  V30 19385 N 1809.19 1.18355 -1.04066 0
M  V30 19386 C 1810.44 1.88614 -0.745148 0
M  V30 19387 C 1810.77 1.80147 0.725294 0
M  V30 19388 O 1810.05 1.20177 1.5293 0
M  V30 19389 C 1810.33 3.39095 -1.2119 0
M  V30 19390 C 1810.18 3.56372 -2.74444 0
M  V30 19391 C 1811.5 4.32732 -0.801953 0
M  V30 19392 H 1808.62 0.684905 -0.272166 0
M  V30 19393 H 1811.26 1.39248 -1.29267 0
M  V30 19394 H 1809.41 3.81269 -0.746091 0
M  V30 19395 H 1811.09 3.2329 -3.29061 0
M  V30 19396 H 1809.33 2.99028 -3.14269 0
M  V30 19397 H 1810 4.61956 -3.0216 0
M  V30 19398 H 1812.48 3.98337 -1.20278 0
M  V30 19399 H 1811.35 5.36583 -1.15628 0
M  V30 19400 H 1811.61 4.41115 0.294907 0
M  V30 19401 N 1810.67 0.820125 1.3458 0
M  V30 19402 C 1811.91 0.41269 2.0019 0
M  V30 19403 C 1812.28 -1.0047 1.63614 0
M  V30 19404 O 1813.48 -1.51487 2.22047 0
M  V30 19405 C 1811.75 0.605717 3.5223 0
M  V30 19406 S 1813.31 0.290715 4.37836 0
M  V30 19407 H 1810.13 0.156064 0.693661 0
M  V30 19408 H 1812.73 1.06533 1.63924 0
M  V30 19409 H 1811.43 1.63702 3.76337 0
M  V30 19410 H 1810.96 -0.0617582 3.93352 0
M  V30 19411 H 1812.98 -0.896639 4.88032 0
M  V30 19412 N 1812.15 -1.46743 0.574835 0
M  V30 19413 C 1813.38 -2.06505 0.0627081 0
M  V30 19414 C 1813.79 -1.42535 -1.2442 0
M  V30 19415 O 1813.13 -0.522043 -1.76126 0
M  V30 19416 C 1813.19 -3.59021 -0.185574 0
M  V30 19417 C 1812.86 -4.45136 1.03455 0
M  V30 19418 C 1813.85 -4.82163 1.94461 0
M  V30 19419 C 1811.54 -4.8639 1.25418 0
M  V30 19420 C 1813.53 -5.59262 3.05786 0
M  V30 19421 C 1811.22 -5.63251 2.37049 0
M  V30 19422 C 1812.22 -5.99599 3.27062 0
M  V30 19423 O 1811.91 -6.74908 4.36755 0
M  V30 19424 H 1811.64 -0.674082 0.0508932 0
M  V30 19425 H 1814.19 -1.89476 0.792968 0
M  V30 19426 H 1812.42 -3.74327 -0.970354 0
M  V30 19427 H 1814.11 -4.00739 -0.645242 0
M  V30 19428 H 1814.88 -4.50876 1.78705 0
M  V30 19429 H 1810.76 -4.57553 0.56266 0
M  V30 19430 H 1814.3 -5.87552 3.7607 0
M  V30 19431 H 1810.2 -5.93951 2.5277 0
M  V30 19432 H 1810.97 -6.93323 4.35024 0
M  V30 19433 N 1813.63 -0.312197 -1.54477 0
M  V30 19434 C 1814.56 0.551829 -2.26886 0
M  V30 19435 C 1815.54 1.12874 -1.27254 0
M  V30 19436 O 1816.72 1.15599 -1.56046 0
M  V30 19437 C 1813.85 1.71839 -3.01809 0
M  V30 19438 C 1812.81 1.27131 -4.08683 0
M  V30 19439 C 1812.13 2.52392 -4.71384 0
M  V30 19440 C 1813.43 0.394413 -5.20809 0
M  V30 19441 H 1815.13 -0.0521331 -2.99355 0
M  V30 19442 H 1812.67 -0.0265138 -1.43976 0
M  V30 19443 H 1814.63 2.32903 -3.5119 0
M  V30 19444 H 1813.35 2.34876 -2.26938 0
M  V30 19445 H 1812.01 0.683666 -3.60169 0
M  V30 19446 H 1811.66 3.13768 -3.93139 0
M  V30 19447 H 1811.36 2.23174 -5.43569 0
M  V30 19448 H 1812.88 3.14239 -5.23533 0
M  V30 19449 H 1814.3 0.911031 -5.66015 0
M  V30 19450 H 1812.69 0.195517 -5.99781 0
M  V30 19451 H 1813.76 -0.577661 -4.81447 0
M  V30 19452 N 1815.11 1.57549 -0.040136 0
M  V30 19453 C 1816.34 1.96272 0.645049 0
M  V30 19454 C 1816.74 0.915804 1.65559 0
M  V30 19455 O 1816.09 -0.109666 1.83372 0
M  V30 19456 C 1816.15 3.31187 1.3984 0
M  V30 19457 C 1815.81 4.53739 0.544953 0
M  V30 19458 C 1816.81 5.19573 -0.184369 0
M  V30 19459 C 1814.5 5.0001 0.479119 0
M  V30 19460 C 1816.49 6.30006 -0.968081 0
M  V30 19461 C 1814.18 6.10322 -0.30829 0
M  V30 19462 C 1815.17 6.7518 -1.03059 0
M  V30 19463 O 1814.86 7.83373 -1.80507 0
M  V30 19464 H 1814.59 0.651051 0.181958 0
M  V30 19465 H 1817.15 2.05159 -0.0995179 0
M  V30 19466 H 1815.38 3.18823 2.18835 0
M  V30 19467 H 1817.07 3.54735 1.97276 0
M  V30 19468 H 1817.83 4.84789 -0.142908 0
M  V30 19469 H 1813.71 4.49325 1.0309 0
M  V30 19470 H 1817.26 6.80562 -1.53237 0
M  V30 19471 H 1813.15 6.44543 -0.351428 0
M  V30 19472 H 1813.92 8.00094 -1.72601 0
M  V30 19473 N 1816.58 -0.233136 1.55866 0
M  V30 19474 C 1817.83 -0.957324 1.77988 0
M  V30 19475 C 1818.15 -1.85325 0.606593 0
M  V30 19476 O 1817.42 -1.92237 -0.377047 0
M  V30 19477 H 1816 -0.356474 0.656457 0
M  V30 19478 H 1818.67 -0.247774 1.93319 0
M  V30 19479 H 1817.76 -1.57096 2.6968 0
M  V30 19480 N 1818.06 -1.49479 -0.499372 0
M  V30 19481 C 1819.01 -1.66268 -1.60073 0
M  V30 19482 C 1819.98 -0.504137 -1.58265 0
M  V30 19483 O 1821.17 -0.731358 -1.76227 0
M  V30 19484 C 1818.31 -1.73678 -2.98211 0
M  V30 19485 C 1817.42 -3.00848 -3.10023 0
M  V30 19486 C 1816.55 -2.99227 -4.38904 0
M  V30 19487 C 1815.59 -4.20969 -4.44355 0
M  V30 19488 N 1814.73 -4.17249 -5.64666 0
M  V30 19489 H 1819.57 -2.60308 -1.45065 0
M  V30 19490 H 1817.11 -1.29063 -0.705774 0
M  V30 19491 H 1819.06 -1.75956 -3.7828 0
M  V30 19492 H 1817.69 -0.831037 -3.11919 0
M  V30 19493 H 1816.75 -3.08175 -2.23008 0
M  V30 19494 H 1818.06 -3.90841 -3.09911 0
M  V30 19495 H 1817.21 -3.00076 -5.27294 0
M  V30 19496 H 1815.95 -2.07015 -4.41584 0
M  V30 19497 H 1814.96 -4.20362 -3.54366 0
M  V30 19498 H 1816.18 -5.14376 -4.4339 0
M  V30 19499 H 1814.13 -3.27875 -5.68185 0
M  V30 19500 H 1814.04 -5.00979 -5.66177 0
M  V30 19501 H 1815.31 -4.22203 -6.55259 0
M  V30 19502 N 1819.54 0.750537 -1.38581 0
M  V30 19503 C 1820.96 1.05401 -1.19845 0
M  V30 19504 C 1821.16 2.0144 -0.0492317 0
M  V30 19505 O 1820.21 2.45169 0.604037 0
M  V30 19506 C 1821.53 1.63117 -2.52613 0
M  V30 19507 C 1823.07 1.75274 -2.59322 0
M  V30 19508 C 1823.55 2.36401 -3.92273 0
M  V30 19509 N 1825.04 2.43829 -3.9383 0
M  V30 19510 C 1825.78 2.92028 -4.93465 0
M  V30 19511 N 1825.27 3.4024 -6.03497 0
M  V30 19512 N 1827.06 2.91096 -4.80853 0
M  V30 19513 H 1819.22 0.113286 -2.12098 0
M  V30 19514 H 1821.48 0.112886 -0.941255 0
M  V30 19515 H 1821.18 1.00017 -3.37179 0
M  V30 19516 H 1821.06 2.62138 -2.71226 0
M  V30 19517 H 1823.45 2.375 -1.7515 0
M  V30 19518 H 1823.53 0.74949 -2.44574 0
M  V30 19519 H 1823.17 1.74807 -4.7687 0
M  V30 19520 H 1823.1 3.37373 -4.04335 0
M  V30 19521 H 1825.59 2.09734 -3.14357 0
M  V30 19522 H 1825.9 3.75482 -6.7545 0
M  V30 19523 H 1824.25 3.38289 -6.07113 0
M  V30 19524 H 1827.44 2.52744 -3.94003 0
M  V30 19525 H 1827.61 3.28346 -5.58653 0
M  V30 19526 N 1821.02 1.235 0.979051 0
M  V30 19527 C 1822.27 1.0658 1.71713 0
M  V30 19528 C 1822.59 -0.397927 1.90897 0
M  V30 19529 O 1821.86 -1.28511 1.47857 0
M  V30 19530 H 1820.44 0.391397 0.636253 0
M  V30 19531 H 1823.1 1.55239 1.17843 0
M  V30 19532 H 1822.2 1.5548 2.70615 0
M  V30 19533 N 1822.5 -1.17802 1.04693 0
M  V30 19534 C 1823.75 -1.87567 0.752534 0
M  V30 19535 C 1824.07 -1.81129 -0.722303 0
M  V30 19536 O 1823.34 -1.23385 -1.52161 0
M  V30 19537 H 1821.92 -0.69439 0.275376 0
M  V30 19538 H 1824.58 -1.42932 1.32501 0
M  V30 19539 H 1823.67 -2.9344 1.06299 0
M  V30 19540 N 1823.98 -0.827251 -1.34143 0
M  V30 19541 C 1825.22 -0.41656 -1.9776 0
M  V30 19542 C 1825.54 1.02488 -1.65895 0
M  V30 19543 O 1824.81 1.71219 -0.951891 0
M  V30 19544 H 1823.39 -0.151044 -0.73157 0
M  V30 19545 H 1826.06 -1.05765 -1.63706 0
M  V30 19546 H 1825.15 -0.539101 -3.07409 0
M  V30 19547 N 1825.45 1.46436 -0.582609 0
M  V30 19548 C 1826.4 2.30308 0.150697 0
M  V30 19549 C 1827.37 1.40611 0.884185 0
M  V30 19550 O 1828.56 1.6956 0.874874 0
M  V30 19551 C 1825.7 3.25074 1.15847 0
M  V30 19552 C 1824.81 4.2987 0.428442 0
M  V30 19553 C 1823.94 5.11765 1.42373 0
M  V30 19554 C 1822.98 6.0831 0.680103 0
M  V30 19555 N 1822.12 6.83073 1.62345 0
M  V30 19556 H 1826.96 2.92487 -0.570583 0
M  V30 19557 H 1824.5 1.44148 -0.293195 0
M  V30 19558 H 1826.45 3.78462 1.75563 0
M  V30 19559 H 1825.08 2.64704 1.84747 0
M  V30 19560 H 1824.14 3.7934 -0.283744 0
M  V30 19561 H 1825.45 4.98566 -0.15291 0
M  V30 19562 H 1824.6 5.69429 2.09369 0
M  V30 19563 H 1823.34 4.4303 2.03902 0
M  V30 19564 H 1822.35 5.498 -0.00363067 0
M  V30 19565 H 1823.57 6.79064 0.0702152 0
M  V30 19566 H 1821.52 6.17048 2.22684 0
M  V30 19567 H 1821.43 7.48029 1.0949 0
M  V30 19568 H 1822.7 7.45295 2.28376 0
M  V30 19569 N 1826.93 0.320385 1.54309 0
M  V30 19570 C 1828.16 -0.28794 2.05391 0
M  V30 19571 C 1828.58 -1.45249 1.19517 0
M  V30 19572 O 1827.94 -1.80154 0.203556 0
M  V30 19573 C 1827.99 -0.703261 3.53676 0
M  V30 19574 O 1827.09 -1.80598 3.70753 0
M  V30 19575 H 1826.43 -0.052589 0.661914 0
M  V30 19576 H 1828.96 0.46787 1.99179 0
M  V30 19577 H 1828.97 -0.986793 3.95887 0
M  V30 19578 H 1827.65 0.148514 4.15635 0
M  V30 19579 H 1826.22 -1.5215 3.40448 0
M  V30 19580 N 1828.41 -1.57525 0.0484906 0
M  V30 19581 C 1829.34 -2.14405 -0.924811 0
M  V30 19582 C 1830.32 -1.06503 -1.32631 0
M  V30 19583 O 1831.51 -1.3443 -1.4015 0
M  V30 19584 C 1828.64 -2.68686 -2.20057 0
M  V30 19585 C 1827.59 -3.81547 -1.93922 0
M  V30 19586 C 1826.92 -4.22334 -3.27929 0
M  V30 19587 C 1828.22 -5.06801 -1.26295 0
M  V30 19588 H 1829.91 -2.95983 -0.45105 0
M  V30 19589 H 1827.46 -1.42378 -0.215514 0
M  V30 19590 H 1829.41 -3.07117 -2.88543 0
M  V30 19591 H 1828.13 -1.84296 -2.69634 0
M  V30 19592 H 1826.79 -3.43585 -1.27848 0
M  V30 19593 H 1826.44 -3.34899 -3.75302 0
M  V30 19594 H 1826.14 -4.984 -3.11242 0
M  V30 19595 H 1827.66 -4.63363 -3.97652 0
M  V30 19596 H 1829.08 -5.42695 -1.84812 0
M  V30 19597 H 1827.47 -5.87991 -1.19943 0
M  V30 19598 H 1828.54 -4.84313 -0.238605 0
M  V30 19599 N 1829.89 0.224867 -1.55988 0
M  V30 19600 C 1831.12 0.966727 -1.82926 0
M  V30 19601 C 1831.53 1.78078 -0.627177 0
M  V30 19602 O 1830.89 1.77966 0.404277 0
M  V30 19603 C 1830.94 1.88696 -3.08344 0
M  V30 19604 O 1830.66 1.10581 -4.23914 0
M  V30 19605 C 1832.16 2.74299 -3.48246 0
M  V30 19606 H 1829.38 0.283479 -0.608178 0
M  V30 19607 H 1831.92 0.241097 -2.03074 0
M  V30 19608 H 1830.08 2.56658 -2.90182 0
M  V30 19609 H 1830.49 1.73019 -4.95141 0
M  V30 19610 H 1831.97 3.34577 -4.39047 0
M  V30 19611 H 1832.44 3.46526 -2.69845 0
M  V30 19612 H 1833.05 2.11755 -3.68836 0
M  V30 19613 N 1831.37 1.49742 0.491438 0
M  V30 19614 C 1832.59 1.63703 1.27343 0
M  V30 19615 C 1833.02 0.312079 1.85493 0
M  V30 19616 O 1832.37 -0.721545 1.66323 0
M  V30 19617 C 1832.42 2.71549 2.37262 0
M  V30 19618 O 1831.53 2.31387 3.41371 0
M  V30 19619 H 1830.87 0.547605 0.375533 0
M  V30 19620 H 1833.4 1.95991 0.587243 0
M  V30 19621 H 1833.41 2.94009 2.82883 0
M  V30 19622 H 1832.08 3.6772 1.94306 0
M  V30 19623 H 1830.66 2.19295 3.01603 0
M  V30 19624 N 1832.84 -0.743177 1.38977 0
M  V30 19625 C 1834.09 -1.49798 1.35069 0
M  V30 19626 C 1834.41 -1.95527 -0.0533172 0
M  V30 19627 O 1835.61 -2.70648 -0.21497 0
M  V30 19628 C 1834.07 -2.70637 2.37242 0
M  V30 19629 C 1833.68 -2.3189 3.83316 0
M  V30 19630 C 1835.42 -3.4849 2.42395 0
M  V30 19631 C 1833.33 -3.49403 4.77149 0
M  V30 19632 H 1832.26 -0.562495 0.50211 0
M  V30 19633 H 1834.91 -0.81145 1.64584 0
M  V30 19634 H 1833.29 -3.41323 2.00785 0
M  V30 19635 H 1834.46 -1.68803 4.28768 0
M  V30 19636 H 1832.78 -1.67148 3.8138 0
M  V30 19637 H 1835.38 -4.35882 3.09694 0
M  V30 19638 H 1835.72 -3.9038 1.446 0
M  V30 19639 H 1836.25 -2.84825 2.77704 0
M  V30 19640 H 1832.99 -3.1257 5.76177 0
M  V30 19641 H 1832.51 -4.11498 4.36382 0
M  V30 19642 H 1834.19 -4.15847 4.95661 0
M  V30 19643 N 1834.32 -1.24018 -0.972487 0
M  V30 19644 C 1835.29 -1.02941 -2.04782 0
M  V30 19645 C 1836.29 0.0115861 -1.60796 0
M  V30 19646 O 1837.48 -0.228922 -1.72689 0
M  V30 19647 C 1834.61 -0.559246 -3.36282 0
M  V30 19648 H 1835.8 -1.98379 -2.24913 0
M  V30 19649 H 1833.35 -1.06173 -1.14704 0
M  V30 19650 H 1834.09 0.398545 -3.21842 0
M  V30 19651 H 1833.87 -1.31054 -3.6955 0
M  V30 19652 H 1835.36 -0.432669 -4.15353 0
M  V30 19653 N 1835.8 1.17245 -1.05316 0
M  V30 19654 C 1836.73 2.23491 -0.67631 0
M  V30 19655 C 1837.71 1.66937 0.326507 0
M  V30 19656 O 1838.9 1.93127 0.203823 0
M  V30 19657 C 1836.03 3.47262 -0.0515755 0
M  V30 19658 C 1834.98 4.16646 -0.97929 0
M  V30 19659 C 1834.31 5.34254 -0.218369 0
M  V30 19660 C 1835.61 4.68736 -2.30399 0
M  V30 19661 H 1837.3 2.55269 -1.56455 0
M  V30 19662 H 1834.85 1.22699 -0.753714 0
M  V30 19663 H 1836.8 4.20805 0.223865 0
M  V30 19664 H 1835.52 3.14755 0.871614 0
M  V30 19665 H 1834.18 3.45017 -1.23931 0
M  V30 19666 H 1833.83 4.97998 0.707624 0
M  V30 19667 H 1833.53 5.81615 -0.83654 0
M  V30 19668 H 1835.05 6.1058 0.0497574 0
M  V30 19669 H 1836.47 5.3391 -2.08837 0
M  V30 19670 H 1834.87 5.2668 -2.87625 0
M  V30 19671 H 1835.94 3.85477 -2.94169 0
M  V30 19672 N 1837.28 0.834353 1.33702 0
M  V30 19673 C 1838.24 0.269618 2.27609 0
M  V30 19674 C 1839.24 -0.559065 1.50768 0
M  V30 19675 O 1840.43 -0.373511 1.70149 0
M  V30 19676 C 1837.56 -0.620682 3.35202 0
M  V30 19677 H 1838.76 1.09819 2.79069 0
M  V30 19678 H 1836.31 0.607087 1.44028 0
M  V30 19679 H 1837.04 -1.47187 2.88975 0
M  V30 19680 H 1836.83 -0.0278102 3.9209 0
M  V30 19681 H 1838.32 -1.00924 4.05221 0
M  V30 19682 N 1838.76 -1.46125 0.590367 0
M  V30 19683 C 1839.98 -2.06726 0.0847301 0
M  V30 19684 C 1840.4 -1.43788 -1.22354 0
M  V30 19685 O 1839.76 -0.545876 -1.74145 0
M  V30 19686 C 1839.81 -3.61412 -0.079655 0
M  V30 19687 O 1839.53 -4.21998 1.17684 0
M  V30 19688 C 1841.03 -4.38961 -0.618754 0
M  V30 19689 H 1838.25 -0.668226 0.0609525 0
M  V30 19690 H 1840.79 -1.87636 0.813212 0
M  V30 19691 H 1838.95 -3.79904 -0.758389 0
M  V30 19692 H 1839.36 -5.14966 0.995528 0
M  V30 19693 H 1840.84 -5.47759 -0.682926 0
M  V30 19694 H 1841.31 -4.07537 -1.63739 0
M  V30 19695 H 1841.92 -4.25292 0.0253632 0
M  V30 19696 N 1840.23 -0.328564 -1.54137 0
M  V30 19697 C 1841.18 0.535112 -2.24511 0
M  V30 19698 C 1842.15 1.10765 -1.23776 0
M  V30 19699 O 1843.34 1.14706 -1.52471 0
M  V30 19700 C 1840.48 1.68765 -3.01019 0
M  V30 19701 C 1839.59 1.14387 -4.16581 0
M  V30 19702 C 1838.72 2.26249 -4.80609 0
M  V30 19703 C 1837.76 1.69146 -5.88265 0
M  V30 19704 N 1836.9 2.74691 -6.46134 0
M  V30 19705 H 1841.74 -0.0715726 -2.97914 0
M  V30 19706 H 1839.28 -0.0470933 -1.47025 0
M  V30 19707 H 1841.24 2.36594 -3.43626 0
M  V30 19708 H 1839.87 2.26555 -2.29941 0
M  V30 19709 H 1838.92 0.356974 -3.78721 0
M  V30 19710 H 1840.23 0.686063 -4.94059 0
M  V30 19711 H 1839.38 3.01973 -5.2621 0
M  V30 19712 H 1838.12 2.75368 -4.02522 0
M  V30 19713 H 1837.13 0.919217 -5.42061 0
M  V30 19714 H 1838.35 1.20897 -6.68252 0
M  V30 19715 H 1836.3 3.23091 -5.70918 0
M  V30 19716 H 1836.22 2.33488 -7.19041 0
M  V30 19717 H 1837.48 3.50228 -6.96391 0
M  V30 19718 N 1841.71 1.57497 -0.0568439 0
M  V30 19719 C 1842.96 1.9209 0.615157 0
M  V30 19720 C 1843.27 0.937538 1.71667 0
M  V30 19721 O 1844.48 1.17573 2.44722 0
M  V30 19722 C 1842.94 3.41183 1.14552 0
M  V30 19723 C 1842.54 4.47936 0.0758146 0
M  V30 19724 C 1844.29 3.84801 1.79244 0
M  V30 19725 C 1842.2 5.88148 0.619381 0
M  V30 19726 H 1841.13 0.716918 0.233547 0
M  V30 19727 H 1843.78 1.83062 -0.126654 0
M  V30 19728 H 1842.16 3.45234 1.93983 0
M  V30 19729 H 1843.33 4.55482 -0.69807 0
M  V30 19730 H 1841.65 4.13694 -0.473984 0
M  V30 19731 H 1844.24 4.86929 2.20918 0
M  V30 19732 H 1844.59 3.21355 2.64645 0
M  V30 19733 H 1845.12 3.8329 1.0646 0
M  V30 19734 H 1841.86 6.55204 -0.19712 0
M  V30 19735 H 1841.38 5.84152 1.36112 0
M  V30 19736 H 1843.06 6.37572 1.1005 0
M  V30 19737 N 1843.19 -0.216591 1.56105 0
M  V30 19738 C 1844.43 -0.947261 1.81125 0
M  V30 19739 C 1844.79 -1.81331 0.631108 0
M  V30 19740 O 1846 -2.57811 0.760726 0
M  V30 19741 C 1844.27 -1.75991 3.11066 0
M  V30 19742 S 1845.83 -2.54554 3.57418 0
M  V30 19743 H 1842.64 -0.318109 0.635868 0
M  V30 19744 H 1845.25 -0.212416 1.94343 0
M  V30 19745 H 1843.95 -1.1139 3.94994 0
M  V30 19746 H 1843.48 -2.53696 3.00669 0
M  V30 19747 H 1845.5 -3.78256 3.21149 0
M  V30 19748 N 1844.67 -1.5 -0.48349 0
M  V30 19749 C 1845.62 -1.67957 -1.58301 0
M  V30 19750 C 1846.59 -0.520895 -1.57721 0
M  V30 19751 O 1847.77 -0.750008 -1.75441 0
M  V30 19752 C 1844.91 -1.76832 -2.96352 0
M  V30 19753 C 1844.02 -3.04119 -3.06815 0
M  V30 19754 C 1843.16 -3.03865 -4.35706 0
M  V30 19755 C 1842.2 -4.25658 -4.39865 0
M  V30 19756 N 1841.33 -4.23214 -5.60209 0
M  V30 19757 H 1846.17 -2.61832 -1.42296 0
M  V30 19758 H 1843.71 -1.29804 -0.692045 0
M  V30 19759 H 1845.67 -1.79958 -3.76392 0
M  V30 19760 H 1844.3 -0.864074 -3.1102 0
M  V30 19761 H 1843.35 -3.10523 -2.19727 0
M  V30 19762 H 1844.66 -3.94106 -3.05748 0
M  V30 19763 H 1843.82 -3.05652 -5.24082 0
M  V30 19764 H 1842.56 -2.11687 -4.39363 0
M  V30 19765 H 1841.56 -4.24097 -3.49888 0
M  V30 19766 H 1842.79 -5.19049 -4.37909 0
M  V30 19767 H 1840.73 -3.33883 -5.64675 0
M  V30 19768 H 1840.65 -5.06956 -5.60832 0
M  V30 19769 H 1841.92 -4.29129 -6.50744 0
M  V30 19770 N 1846.15 0.735796 -1.39369 0
M  V30 19771 C 1847.1 1.8409 -1.34517 0
M  V30 19772 C 1848.08 1.59302 -0.226184 0
M  V30 19773 O 1849.27 1.70819 -0.46365 0
M  V30 19774 C 1846.4 3.22008 -1.19019 0
M  V30 19775 C 1845.49 3.52628 -2.35615 0
M  V30 19776 N 1845.88 3.54189 -3.61087 0
M  V30 19777 C 1844.18 3.82986 -2.28555 0
M  V30 19778 C 1844.88 3.82581 -4.38185 0
M  V30 19779 N 1843.85 4.00315 -3.67762 0
M  V30 19780 H 1847.66 1.83601 -2.29495 0
M  V30 19781 H 1845.17 0.934 -1.32854 0
M  V30 19782 H 1847.17 4.01117 -1.13626 0
M  V30 19783 H 1845.83 3.23737 -0.249907 0
M  V30 19784 H 1846.84 3.3552 -3.94521 0
M  V30 19785 H 1843.51 3.92325 -1.42784 0
M  V30 19786 H 1844.9 3.90263 -5.46941 0
M  V30 19787 N 1847.63 1.24532 0.965897 0
M  V30 19788 C 1848.86 1.11157 1.74148 0
M  V30 19789 C 1849.26 -0.338542 1.86147 0
M  V30 19790 O 1848.61 -1.2453 1.35048 0
M  V30 19791 C 1848.67 1.67951 3.17856 0
M  V30 19792 C 1848.33 3.16851 3.29324 0
M  V30 19793 C 1849.33 4.13979 3.14512 0
M  V30 19794 C 1847.01 3.56845 3.53507 0
M  V30 19795 C 1849.01 5.49082 3.2371 0
M  V30 19796 C 1846.7 4.92089 3.62342 0
M  V30 19797 C 1847.69 5.88016 3.47456 0
M  V30 19798 O 1847.38 7.20801 3.55952 0
M  V30 19799 H 1847.11 0.388973 0.55288 0
M  V30 19800 H 1849.67 1.65155 1.22119 0
M  V30 19801 H 1847.9 1.08389 3.71199 0
M  V30 19802 H 1849.59 1.49839 3.77231 0
M  V30 19803 H 1850.35 3.84422 2.95711 0
M  V30 19804 H 1846.23 2.82683 3.64159 0
M  V30 19805 H 1849.78 6.23937 3.12008 0
M  V30 19806 H 1845.67 5.21316 3.80657 0
M  V30 19807 H 1846.44 7.28746 3.72655 0
M  V30 19808 N 1849.1 -1.16685 1.05936 0
M  V30 19809 C 1850.35 -1.86758 0.772386 0
M  V30 19810 C 1850.67 -1.81885 -0.703051 0
M  V30 19811 O 1849.94 -1.24992 -1.50844 0
M  V30 19812 H 1848.52 -0.69143 0.282725 0
M  V30 19813 H 1851.18 -1.41518 1.3401 0
M  V30 19814 H 1850.28 -2.92296 1.09405 0
M  V30 19815 N 1850.58 -0.841432 -1.33258 0
M  V30 19816 C 1851.83 -0.439027 -1.97991 0
M  V30 19817 C 1852.16 0.999767 -1.66488 0
M  V30 19818 O 1851.44 1.69938 -0.94612 0
M  V30 19819 C 1851.72 -0.663137 -3.53941 0
M  V30 19820 C 1851.57 -2.14939 -3.95122 0
M  V30 19821 C 1852.89 -0.11094 -4.3996 0
M  V30 19822 H 1850.01 -0.160987 -0.719203 0
M  V30 19823 H 1852.65 -1.05742 -1.57856 0
M  V30 19824 H 1850.8 -0.136765 -3.88259 0
M  V30 19825 H 1852.47 -2.74082 -3.71048 0
M  V30 19826 H 1850.72 -2.63293 -3.4476 0
M  V30 19827 H 1851.39 -2.25694 -5.03752 0
M  V30 19828 H 1853.86 -0.560898 -4.12302 0
M  V30 19829 H 1852.74 -0.297416 -5.48094 0
M  V30 19830 H 1853 0.985446 -4.30977 0
M  V30 19831 N 1852.06 1.4581 -0.598108 0
M  V30 19832 C 1852.97 2.34249 0.12834 0
M  V30 19833 C 1853.99 1.50677 0.870202 0
M  V30 19834 O 1855.16 1.83505 0.829924 0
M  V30 19835 C 1852.23 3.28135 1.1193 0
M  V30 19836 C 1851.29 4.27611 0.380432 0
M  V30 19837 C 1850.52 5.17012 1.32419 0
M  V30 19838 O 1850.74 5.09648 2.56154 0
M  V30 19839 O 1849.68 5.962 0.826397 0
M  V30 19840 H 1853.5 2.9775 -0.598199 0
M  V30 19841 H 1851.09 1.45037 -0.358416 0
M  V30 19842 H 1852.97 3.86014 1.6903 0
M  V30 19843 H 1851.65 2.6721 1.82703 0
M  V30 19844 H 1850.55 3.73375 -0.23279 0
M  V30 19845 H 1851.89 4.91365 -0.286627 0
M  V30 19846 N 1853.54 0.336733 1.53961 0
M  V30 19847 C 1854.95 -0.148599 1.86108 0
M  V30 19848 C 1855.3 -1.50551 1.25812 0
M  V30 19849 O 1854.42 -2.08782 0.569109 0
M  V30 19850 C 1855.02 -0.276413 3.37671 0
M  V30 19851 C 1853.58 -0.705973 3.6972 0
M  V30 19852 C 1852.73 0.164407 2.76812 0
M  V30 19853 H 1855.68 0.556568 1.4862 0
M  V30 19854 H 1855.7 -1.10509 3.64099 0
M  V30 19855 H 1855.21 0.711315 3.81526 0
M  V30 19856 H 1853.31 -1.70297 3.31406 0
M  V30 19857 H 1853.42 -0.500591 4.76478 0
M  V30 19858 H 1851.79 -0.362166 2.52112 0
M  V30 19859 H 1852.57 1.14914 3.23496 0
M  V30 19860 N 1855.02 -1.57465 0.0651956 0
M  V30 19861 C 1855.93 -2.15841 -0.919235 0
M  V30 19862 C 1856.94 -1.11984 -1.33175 0
M  V30 19863 O 1858.12 -1.44219 -1.4058 0
M  V30 19864 C 1855.18 -2.7032 -2.1709 0
M  V30 19865 C 1854.24 -3.89026 -1.81542 0
M  V30 19866 C 1853.48 -4.40897 -3.00742 0
M  V30 19867 O 1853.7 -3.91792 -4.14555 0
M  V30 19868 O 1852.63 -5.32312 -2.80941 0
M  V30 19869 H 1856.46 -3.00307 -0.452704 0
M  V30 19870 H 1854.04 -1.48567 -0.157504 0
M  V30 19871 H 1855.93 -3.05266 -2.90501 0
M  V30 19872 H 1854.6 -1.88917 -2.62854 0
M  V30 19873 H 1853.51 -3.58944 -1.05404 0
M  V30 19874 H 1854.84 -4.71701 -1.40567 0
M  V30 19875 N 1856.49 0.20831 -1.56217 0
M  V30 19876 C 1857.44 1.2582 -1.93489 0
M  V30 19877 C 1858.41 1.45907 -0.793748 0
M  V30 19878 O 1859.6 1.59258 -1.05078 0
M  V30 19879 C 1856.74 2.60077 -2.26835 0
M  V30 19880 C 1855.85 2.47678 -3.53948 0
M  V30 19881 C 1854.98 3.74549 -3.76678 0
M  V30 19882 C 1854.02 3.56928 -4.97261 0
M  V30 19883 N 1853.16 4.75779 -5.16313 0
M  V30 19884 H 1858 0.933346 -2.83006 0
M  V30 19885 H 1855.54 0.449531 -1.40063 0
M  V30 19886 H 1857.49 3.38277 -2.44181 0
M  V30 19887 H 1856.12 2.90632 -1.40474 0
M  V30 19888 H 1855.18 1.60844 -3.44722 0
M  V30 19889 H 1856.49 2.30585 -4.42303 0
M  V30 19890 H 1855.64 4.61191 -3.94193 0
M  V30 19891 H 1854.38 3.94582 -2.86629 0
M  V30 19892 H 1853.39 2.6867 -4.79683 0
M  V30 19893 H 1854.61 3.38353 -5.88808 0
M  V30 19894 H 1852.56 4.96101 -4.29209 0
M  V30 19895 H 1852.47 4.61462 -5.98823 0
M  V30 19896 H 1853.74 5.6381 -5.38274 0
M  V30 19897 N 1857.97 1.50255 0.475528 0
M  V30 19898 C 1858.92 1.69315 1.59484 0
M  V30 19899 C 1859.91 0.558996 1.59911 0
M  V30 19900 O 1861.12 0.73937 1.64114 0
M  V30 19901 H 1857.49 0.534338 0.529138 0
M  V30 19902 H 1859.47 2.63217 1.40568 0
M  V30 19903 C 1858.21 1.80042 2.97456 0
M  V30 19904 H 1857.54 2.667 2.97844 0
M  V30 19905 H 1858.98 1.97405 3.75243 0
M  V30 19906 C 1857.44 0.551002 3.32364 0
M  V30 19907 O 1857.97 -0.311853 4.00488 0
M  V30 19908 N 1856.17 0.406343 2.87745 0
M  V30 19909 H 1855.72 1.10953 2.32481 0
M  V30 19910 H 1855.68 -0.428483 3.11467 0
M  V30 19911 N 1859.45 -0.728395 1.39758 0
M  V30 19912 C 1860.7 -1.48357 1.3665 0
M  V30 19913 C 1861.01 -1.95573 -0.0325759 0
M  V30 19914 O 1862.22 -2.7086 -0.186252 0
M  V30 19915 C 1860.67 -2.68105 2.40099 0
M  V30 19916 C 1860.28 -2.27812 3.85754 0
M  V30 19917 C 1862.03 -3.45899 2.46077 0
M  V30 19918 C 1859.93 -3.44322 4.80828 0
M  V30 19919 H 1858.86 -0.557138 0.508048 0
M  V30 19920 H 1861.51 -0.793948 1.65435 0
M  V30 19921 H 1859.9 -3.39174 2.04394 0
M  V30 19922 H 1861.07 -1.64246 4.30534 0
M  V30 19923 H 1859.38 -1.63094 3.83131 0
M  V30 19924 H 1861.98 -4.32573 3.143 0
M  V30 19925 H 1862.32 -3.88824 1.48732 0
M  V30 19926 H 1862.86 -2.81864 2.80709 0
M  V30 19927 H 1859.6 -3.06441 5.7946 0
M  V30 19928 H 1859.12 -4.06847 4.40722 0
M  V30 19929 H 1860.8 -4.10567 5.00044 0
M  V30 19930 N 1860.93 -1.25042 -0.959279 0
M  V30 19931 C 1862.16 -1.12079 -1.73557 0
M  V30 19932 C 1862.57 0.328665 -1.86323 0
M  V30 19933 O 1861.91 1.23812 -1.35706 0
M  V30 19934 C 1861.97 -1.69634 -3.16961 0
M  V30 19935 C 1861.63 -3.18593 -3.27639 0
M  V30 19936 C 1862.63 -4.15641 -3.12312 0
M  V30 19937 C 1860.32 -3.58715 -3.51609 0
M  V30 19938 C 1862.31 -5.50791 -3.20793 0
M  V30 19939 C 1860 -4.94003 -3.59728 0
M  V30 19940 C 1861 -5.89851 -3.44333 0
M  V30 19941 O 1860.68 -7.22678 -3.52124 0
M  V30 19942 H 1860.42 -0.3919 -0.550809 0
M  V30 19943 H 1862.97 -1.658 -1.21242 0
M  V30 19944 H 1861.2 -1.10356 -3.70619 0
M  V30 19945 H 1862.89 -1.51838 -3.76431 0
M  V30 19946 H 1863.65 -3.85985 -2.93668 0
M  V30 19947 H 1859.53 -2.8461 -3.62654 0
M  V30 19948 H 1863.08 -6.25582 -3.08695 0
M  V30 19949 H 1858.97 -5.23327 -3.77887 0
M  V30 19950 H 1859.74 -7.30712 -3.68785 0
M  V30 19951 N 1862.41 1.16121 -1.06553 0
M  V30 19952 C 1863.63 1.90611 -0.804673 0
M  V30 19953 C 1864.05 1.77576 0.641255 0
M  V30 19954 O 1863.41 1.12218 1.43921 0
M  V30 19955 C 1863.46 3.41231 -1.19348 0
M  V30 19956 O 1863.18 3.53879 -2.58266 0
M  V30 19957 C 1864.68 4.32764 -0.960738 0
M  V30 19958 H 1861.9 0.604358 -0.291534 0
M  V30 19959 H 1864.44 1.47174 -1.41986 0
M  V30 19960 H 1862.6 3.82361 -0.622772 0
M  V30 19961 H 1863.01 4.47298 -2.73907 0
M  V30 19962 H 1864.49 5.36898 -1.28238 0
M  V30 19963 H 1864.96 4.39078 0.103389 0
M  V30 19964 H 1865.57 3.97365 -1.51595 0
M  V30 19965 N 1863.88 0.848487 1.3281 0
M  V30 19966 C 1864.83 0.286636 2.29013 0
M  V30 19967 C 1865.8 -0.602944 1.5477 0
M  V30 19968 O 1866.99 -0.539169 1.83024 0
M  V30 19969 C 1864.13 -0.524193 3.41096 0
M  V30 19970 C 1863.24 0.390486 4.30232 0
M  V30 19971 C 1862.37 -0.432376 5.29437 0
M  V30 19972 C 1861.41 0.48009 6.10214 0
M  V30 19973 N 1860.55 -0.30522 7.01436 0
M  V30 19974 H 1865.39 1.1123 2.76463 0
M  V30 19975 H 1862.93 0.559956 1.36025 0
M  V30 19976 H 1864.89 -1.00987 4.04793 0
M  V30 19977 H 1863.52 -1.31474 2.94813 0
M  V30 19978 H 1862.57 0.994518 3.6717 0
M  V30 19979 H 1863.88 1.09103 4.86722 0
M  V30 19980 H 1863.03 -0.981471 5.98709 0
M  V30 19981 H 1861.77 -1.16631 4.73549 0
M  V30 19982 H 1860.78 1.04112 5.39853 0
M  V30 19983 H 1862 1.21254 6.68187 0
M  V30 19984 H 1859.95 -1.02236 6.47984 0
M  V30 19985 H 1859.87 0.336414 7.55251 0
M  V30 19986 H 1861.13 -0.836242 7.75001 0
M  V30 19987 N 1865.36 -1.4549 0.605832 0
M  V30 19988 C 1866.77 -1.85775 0.18559 0
M  V30 19989 C 1867.12 -1.50638 -1.25708 0
M  V30 19990 O 1866.25 -0.932227 -1.95291 0
M  V30 19991 C 1866.84 -3.37189 0.330043 0
M  V30 19992 C 1865.4 -3.76383 -0.0354934 0
M  V30 19993 C 1864.55 -2.69446 0.655297 0
M  V30 19994 H 1867.5 -1.36316 0.812624 0
M  V30 19995 H 1867.52 -3.77968 -0.438236 0
M  V30 19996 H 1867.03 -3.62731 1.38014 0
M  V30 19997 H 1865.14 -3.56458 -1.08483 0
M  V30 19998 H 1865.25 -4.77769 0.356935 0
M  V30 19999 H 1863.61 -2.5453 0.0931235 0
M  V30 20000 H 1864.4 -2.97825 1.70749 0
M  V30 20001 N 1866.84 -0.344893 -1.5378 0
M  V30 20002 C 1868.09 0.25158 -2.01233 0
M  V30 20003 C 1868.42 1.50094 -1.23229 0
M  V30 20004 O 1867.69 1.91845 -0.320282 0
M  V30 20005 C 1867.98 0.564366 -3.5565 0
M  V30 20006 C 1867.83 -0.697186 -4.44364 0
M  V30 20007 C 1869.15 1.37343 -4.18121 0
M  V30 20008 H 1866.27 0.0899643 -0.731488 0
M  V30 20009 H 1868.91 -0.465697 -1.84204 0
M  V30 20010 H 1867.06 1.17543 -3.70292 0
M  V30 20011 H 1868.73 -1.33512 -4.41557 0
M  V30 20012 H 1866.98 -1.3218 -4.13172 0
M  V30 20013 H 1867.65 -0.433571 -5.50295 0
M  V30 20014 H 1870.12 0.85671 -4.07185 0
M  V30 20015 H 1869 1.56103 -5.26235 0
M  V30 20016 H 1869.26 2.37593 -3.7283 0
M  V30 20017 N 1868.32 1.57428 -0.0735454 0
M  V30 20018 C 1869.28 2.11699 0.878419 0
M  V30 20019 C 1870.28 1.0414 1.22521 0
M  V30 20020 O 1871.47 1.30121 1.1582 0
M  V30 20021 C 1868.6 2.61979 2.18129 0
M  V30 20022 H 1869.8 2.97118 0.40755 0
M  V30 20023 H 1867.35 1.55315 0.175183 0
M  V30 20024 H 1868.08 1.80018 2.69748 0
M  V30 20025 H 1867.87 3.40599 1.94254 0
M  V30 20026 H 1869.36 3.04035 2.86273 0
M  V30 20027 N 1869.8 -0.200022 1.56326 0
M  V30 20028 C 1871.02 -0.941617 1.84793 0
M  V30 20029 C 1871.45 -1.76271 0.656525 0
M  V30 20030 O 1870.8 -1.76951 -0.394703 0
M  V30 20031 C 1870.85 -1.81754 3.11445 0
M  V30 20032 O 1869.96 -2.91571 2.91651 0
M  V30 20033 H 1869.3 -0.265444 0.608634 0
M  V30 20034 H 1871.83 -0.206826 2.03552 0
M  V30 20035 H 1871.84 -2.22316 3.4211 0
M  V30 20036 H 1870.51 -1.2142 3.97781 0
M  V30 20037 H 1869.09 -2.54799 2.72271 0
M  V30 20038 N 1871.27 -1.50505 -0.467553 0
M  V30 20039 C 1872.55 -1.52191 -1.22871 0
M  V30 20040 C 1872.93 -0.268616 -2.09384 0
M  V30 20041 O 1872.28 0.747802 -2.15917 0
M  V30 20042 C 1872.49 -2.8196 -2.05669 0
M  V30 20043 C 1873.84 -3.32757 -2.63739 0
M  V30 20044 O 1874.86 -2.83305 -2.15909 0
M  V30 20045 O 1873.72 -4.18969 -3.50895 0
M  V30 20046 H 1870.81 -0.610599 -0.557761 0
M  V30 20047 H 1873.36 -1.62797 -0.479085 0
M  V30 20048 H 1872.13 -3.64649 -1.41939 0
M  V30 20049 H 1871.76 -2.74374 -2.87758 0
M  V30 20050 N 1872.75 0.720973 -1.40142 0
M  V30 20051 C 1873.98 1.50793 -1.41226 0
M  V30 20052 C 1874.39 1.89198 -0.00879422 0
M  V30 20053 O 1873.73 1.55606 0.976337 0
M  V30 20054 C 1873.8 2.81639 -2.23427 0
M  V30 20055 C 1873.46 2.65588 -3.71903 0
M  V30 20056 C 1874.46 2.33204 -4.64663 0
M  V30 20057 C 1872.14 2.82021 -4.15655 0
M  V30 20058 C 1874.14 2.17454 -5.9916 0
M  V30 20059 C 1871.82 2.65889 -5.50224 0
M  V30 20060 C 1872.82 2.33653 -6.41791 0
M  V30 20061 O 1872.51 2.17637 -7.73879 0
M  V30 20062 H 1872.24 0.472113 -0.483824 0
M  V30 20063 H 1874.79 0.89739 -1.84759 0
M  V30 20064 H 1873.02 3.45006 -1.74665 0
M  V30 20065 H 1874.71 3.43329 -2.16518 0
M  V30 20066 H 1875.48 2.20146 -4.32158 0
M  V30 20067 H 1871.36 3.06101 -3.44707 0
M  V30 20068 H 1874.9 1.92215 -6.70596 0
M  V30 20069 H 1870.8 2.78529 -5.82316 0
M  V30 20070 H 1871.57 2.32599 -7.84755 0
M  V30 20071 N 1874.23 1.25549 0.952634 0
M  V30 20072 C 1875.48 1.11588 1.70058 0
M  V30 20073 C 1875.83 -0.339332 1.89384 0
M  V30 20074 O 1875.12 -1.24644 1.45515 0
M  V30 20075 C 1875.32 1.80586 3.08421 0
M  V30 20076 C 1875.15 3.32667 3.02593 0
M  V30 20077 C 1873.92 4.01927 3.0624 0
M  V30 20078 C 1876.12 4.29036 2.83607 0
M  V30 20079 N 1874.1 5.40768 2.90591 0
M  V30 20080 C 1875.47 5.54976 2.76409 0
M  V30 20081 C 1877.52 4.19426 2.68302 0
M  V30 20082 C 1876.23 6.72404 2.55471 0
M  V30 20083 C 1878.25 5.36549 2.48735 0
M  V30 20084 C 1877.61 6.6143 2.4226 0
M  V30 20085 H 1873.71 0.463049 0.630166 0
M  V30 20086 H 1876.3 1.58678 1.12825 0
M  V30 20087 H 1874.47 1.35989 3.63815 0
M  V30 20088 H 1876.2 1.59349 3.72008 0
M  V30 20089 H 1872.96 3.53201 3.15509 0
M  V30 20090 H 1873.38 6.13639 2.85965 0
M  V30 20091 H 1878.02 3.23622 2.72081 0
M  V30 20092 H 1875.74 7.68316 2.50433 0
M  V30 20093 H 1879.33 5.30976 2.37815 0
M  V30 20094 H 1878.21 7.50531 2.27317 0
M  V30 20095 N 1875.71 -1.15554 1.07168 0
M  V30 20096 C 1876.99 -1.8238 0.706884 0
M  V30 20097 C 1877.37 -1.94906 -0.810848 0
M  V30 20098 O 1876.71 -1.49905 -1.72455 0
M  V30 20099 C 1876.92 -3.18844 1.41913 0
M  V30 20100 C 1878.27 -3.94506 1.57004 0
M  V30 20101 O 1879.3 -3.28392 1.37976 0
M  V30 20102 O 1878.15 -5.13036 1.88297 0
M  V30 20103 H 1875.25 -0.787892 0.251307 0
M  V30 20104 H 1877.79 -1.22681 1.17249 0
M  V30 20105 H 1876.57 -3.04814 2.45365 0
M  V30 20106 H 1876.19 -3.86227 0.944182 0
M  V30 20107 N 1877.19 -0.855519 -1.32358 0
M  V30 20108 C 1878.44 -0.458415 -1.96832 0
M  V30 20109 C 1878.76 0.98946 -1.68032 0
M  V30 20110 O 1878.03 1.69161 -0.987995 0
M  V30 20111 H 1876.61 -0.166527 -0.728202 0
M  V30 20112 H 1879.27 -1.09214 -1.61426 0
M  V30 20113 H 1878.36 -0.604185 -3.06196 0
M  V30 20114 N 1878.67 1.45167 -0.61354 0
M  V30 20115 C 1879.9 2.06266 -0.117437 0
M  V30 20116 C 1880.3 1.45784 1.20597 0
M  V30 20117 O 1879.65 0.568556 1.7468 0
M  V30 20118 C 1879.71 3.59387 0.0903205 0
M  V30 20119 C 1879.37 4.42237 -1.1522 0
M  V30 20120 C 1880.37 4.76837 -2.07177 0
M  V30 20121 C 1878.05 4.82894 -1.3827 0
M  V30 20122 C 1880.05 5.50958 -3.20506 0
M  V30 20123 C 1877.74 5.56768 -2.51899 0
M  V30 20124 C 1878.73 5.90717 -3.42845 0
M  V30 20125 O 1878.42 6.63091 -4.54495 0
M  V30 20126 H 1878.15 0.672495 -0.0687474 0
M  V30 20127 H 1880.71 1.87307 -0.842926 0
M  V30 20128 H 1878.94 3.76769 0.870766 0
M  V30 20129 H 1880.63 4.02308 0.538766 0
M  V30 20130 H 1881.39 4.4598 -1.90597 0
M  V30 20131 H 1877.27 4.55901 -0.683774 0
M  V30 20132 H 1880.82 5.77375 -3.91515 0
M  V30 20133 H 1876.71 5.8704 -2.68429 0
M  V30 20134 H 1877.48 6.81545 -4.53253 0
M  V30 20135 N 1880.14 0.353044 1.53595 0
M  V30 20136 C 1881.37 -0.244309 2.05956 0
M  V30 20137 C 1881.79 -1.42681 1.22571 0
M  V30 20138 O 1881.15 -1.79681 0.241723 0
M  V30 20139 C 1881.2 -0.628083 3.55088 0
M  V30 20140 O 1880.3 -1.72693 3.74501 0
M  V30 20141 H 1879.64 -0.038537 0.662881 0
M  V30 20142 H 1882.17 0.510013 1.98141 0
M  V30 20143 H 1882.18 -0.902597 3.97891 0
M  V30 20144 H 1880.86 0.236643 4.15226 0
M  V30 20145 H 1879.44 -1.44895 3.43599 0
M  V30 20146 N 1881.62 -1.57387 0.0818932 0
M  V30 20147 C 1882.87 -1.93486 -0.583744 0
M  V30 20148 C 1883.19 -0.963466 -1.69536 0
M  V30 20149 O 1882.46 -0.0132866 -1.95895 0
M  V30 20150 H 1881.04 -0.714292 -0.218622 0
M  V30 20151 H 1883.7 -1.94381 0.142124 0
M  V30 20152 H 1882.8 -2.9556 -1.00252 0
M  V30 20153 N 1883.1 0.191729 -1.56429 0
M  V30 20154 C 1884.03 1.26174 -1.91345 0
M  V30 20155 C 1885.04 1.41536 -0.804451 0
M  V30 20156 O 1886.23 1.41902 -1.08287 0
M  V30 20157 C 1883.33 2.63341 -2.13319 0
M  V30 20158 C 1882.51 2.69543 -3.44479 0
M  V30 20159 C 1881.57 3.87929 -3.55524 0
M  V30 20160 O 1880.59 3.74875 -4.28319 0
M  V30 20161 N 1881.79 5.03527 -2.88861 0
M  V30 20162 H 1884.56 0.965364 -2.83727 0
M  V30 20163 H 1882.12 0.381628 -1.57338 0
M  V30 20164 H 1884.11 3.40971 -2.17993 0
M  V30 20165 H 1882.68 2.85452 -1.2742 0
M  V30 20166 H 1881.9 1.78161 -3.51642 0
M  V30 20167 H 1883.19 2.7068 -4.30824 0
M  V30 20168 H 1882.59 5.17032 -2.29553 0
M  V30 20169 H 1881.14 5.79092 -2.99159 0
M  V30 20170 N 1884.58 1.50751 0.459565 0
M  V30 20171 C 1885.51 1.73389 1.56392 0
M  V30 20172 C 1886.49 0.583101 1.59793 0
M  V30 20173 O 1887.67 0.823474 1.75876 0
M  V30 20174 C 1884.8 1.83861 2.94639 0
M  V30 20175 C 1883.76 2.9914 3.06103 0
M  V30 20176 C 1883.08 2.94768 4.46112 0
M  V30 20177 C 1884.38 4.39471 2.82246 0
M  V30 20178 H 1886.08 2.65856 1.37699 0
M  V30 20179 H 1883.62 1.27933 0.661001 0
M  V30 20180 H 1885.58 1.98283 3.71836 0
M  V30 20181 H 1884.3 0.880254 3.14514 0
M  V30 20182 H 1882.96 2.84388 2.31342 0
M  V30 20183 H 1882.61 1.96755 4.62922 0
M  V30 20184 H 1882.31 3.72166 4.54716 0
M  V30 20185 H 1883.83 3.11254 5.25313 0
M  V30 20186 H 1885.25 4.54689 3.49186 0
M  V30 20187 H 1883.64 5.18406 3.02283 0
M  V30 20188 H 1884.71 4.51043 1.78012 0
M  V30 20189 N 1886.06 -0.713531 1.40522 0
M  V30 20190 C 1887.3 -1.47561 1.39117 0
M  V30 20191 C 1887.63 -1.94199 -0.00592038 0
M  V30 20192 O 1886.91 -1.68301 -0.974941 0
M  V30 20193 C 1887.19 -2.70023 2.38242 0
M  V30 20194 C 1887.05 -2.29266 3.86984 0
M  V30 20195 C 1888.36 -3.72185 2.34875 0
M  V30 20196 H 1885.48 -0.535243 0.50664 0
M  V30 20197 H 1888.13 -0.814172 1.71672 0
M  V30 20198 H 1886.28 -3.26458 2.10611 0
M  V30 20199 H 1887.95 -1.78297 4.2545 0
M  V30 20200 H 1886.19 -1.61246 4.02719 0
M  V30 20201 H 1886.86 -3.17057 4.51862 0
M  V30 20202 H 1889.34 -3.25384 2.59354 0
M  V30 20203 H 1888.21 -4.55507 3.06276 0
M  V30 20204 H 1888.47 -4.20627 1.36108 0
M  V30 20205 N 1887.53 -1.26053 -0.945962 0
M  V30 20206 C 1888.77 -1.1253 -1.70635 0
M  V30 20207 C 1889.14 0.326708 -1.892 0
M  V30 20208 O 1890.34 0.583957 -2.6238 0
M  V30 20209 C 1888.61 -1.86811 -3.04691 0
M  V30 20210 S 1890.17 -1.89284 -3.95875 0
M  V30 20211 H 1886.99 -0.402052 -0.586409 0
M  V30 20212 H 1889.59 -1.59703 -1.12762 0
M  V30 20213 H 1888.29 -2.91531 -2.88856 0
M  V30 20214 H 1887.82 -1.40059 -3.67623 0
M  V30 20215 H 1889.84 -0.976107 -4.86504 0
M  V30 20216 N 1889.01 1.14984 -1.07779 0
M  V30 20217 C 1890.26 1.85219 -0.798561 0
M  V30 20218 C 1890.57 1.83476 0.677935 0
M  V30 20219 O 1891.78 2.49436 1.0721 0
M  V30 20220 C 1890.24 3.32454 -1.37849 0
M  V30 20221 C 1889.84 3.42631 -2.88631 0
M  V30 20222 C 1891.59 4.07843 -1.17747 0
M  V30 20223 C 1889.49 4.8404 -3.39794 0
M  V30 20224 H 1888.42 0.693872 -0.295054 0
M  V30 20225 H 1891.08 1.29668 -1.2984 0
M  V30 20226 H 1889.46 3.87703 -0.806374 0
M  V30 20227 H 1890.63 2.97466 -3.51925 0
M  V30 20228 H 1888.95 2.80691 -3.07573 0
M  V30 20229 H 1891.54 5.1221 -1.53444 0
M  V30 20230 H 1891.89 4.16136 -0.116815 0
M  V30 20231 H 1892.42 3.58876 -1.71618 0
M  V30 20232 H 1889.16 4.80932 -4.45404 0
M  V30 20233 H 1888.68 5.29769 -2.81256 0
M  V30 20234 H 1890.36 5.5291 -3.36005 0
M  V30 20235 N 1890.49 0.862526 1.31902 0
M  V30 20236 C 1891.74 0.465956 1.96244 0
M  V30 20237 C 1892.05 -0.985243 1.68974 0
M  V30 20238 O 1893.26 -1.48761 2.27118 0
M  V30 20239 C 1891.71 0.782319 3.51294 0
M  V30 20240 C 1891.32 2.24978 3.87413 0
M  V30 20241 C 1893.07 0.453857 4.22067 0
M  V30 20242 C 1890.97 2.50894 5.35543 0
M  V30 20243 H 1889.9 0.170515 0.734466 0
M  V30 20244 H 1892.55 1.0544 1.50182 0
M  V30 20245 H 1890.94 0.123217 3.95808 0
M  V30 20246 H 1892.11 2.95132 3.53884 0
M  V30 20247 H 1890.42 2.54354 3.29687 0
M  V30 20248 H 1893.02 0.624812 5.31037 0
M  V30 20249 H 1893.36 -0.605145 4.11878 0
M  V30 20250 H 1893.9 1.06918 3.83162 0
M  V30 20251 H 1890.64 3.55449 5.5076 0
M  V30 20252 H 1890.16 1.85326 5.70451 0
M  V30 20253 H 1891.84 2.35244 6.02718 0
M  V30 20254 N 1891.97 -1.4484 0.62123 0
M  V30 20255 C 1893.25 -1.95528 0.0531511 0
M  V30 20256 C 1893.63 -1.56342 -1.41846 0
M  V30 20257 O 1892.97 -0.832621 -2.1279 0
M  V30 20258 C 1893.18 -3.47988 0.2656 0
M  V30 20259 C 1894.53 -4.24322 0.153573 0
M  V30 20260 O 1895.56 -3.55658 0.19644 0
M  V30 20261 O 1894.41 -5.46477 0.05015 0
M  V30 20262 H 1891.51 -0.826527 -0.0279665 0
M  V30 20263 H 1894.05 -1.54939 0.692243 0
M  V30 20264 H 1892.83 -3.69525 1.28713 0
M  V30 20265 H 1892.45 -3.955 -0.408105 0
M  V30 20266 N 1893.45 -0.361184 -1.53405 0
M  V30 20267 C 1894.72 0.286047 -1.93497 0
M  V30 20268 C 1895.1 1.66764 -1.29434 0
M  V30 20269 O 1894.45 2.23989 -0.451785 0
M  V30 20270 C 1894.66 0.340663 -3.47333 0
M  V30 20271 C 1896.01 0.58311 -4.20577 0
M  V30 20272 O 1897.03 0.422054 -3.53691 0
M  V30 20273 O 1895.89 0.896383 -5.39099 0
M  V30 20274 H 1892.99 0.17059 -0.809215 0
M  V30 20275 H 1895.53 -0.413648 -1.64581 0
M  V30 20276 H 1894.3 -0.628175 -3.86225 0
M  V30 20277 H 1893.93 1.08643 -3.82469 0
M  V30 20278 N 1894.92 1.57341 -0.0902386 0
M  V30 20279 C 1896.17 1.93352 0.574273 0
M  V30 20280 C 1896.49 0.97374 1.6964 0
M  V30 20281 O 1897.69 1.22737 2.42173 0
M  V30 20282 C 1896.15 3.43536 1.07289 0
M  V30 20283 C 1895.76 4.47996 -0.0192163 0
M  V30 20284 C 1897.5 3.88516 1.71042 0
M  V30 20285 C 1895.41 5.89329 0.494487 0
M  V30 20286 H 1894.34 0.721711 0.218287 0
M  V30 20287 H 1896.99 1.82753 -0.165456 0
M  V30 20288 H 1895.37 3.49271 1.86616 0
M  V30 20289 H 1896.54 4.53899 -0.794527 0
M  V30 20290 H 1894.86 4.12595 -0.561628 0
M  V30 20291 H 1897.46 4.91505 2.1054 0
M  V30 20292 H 1897.8 3.26896 2.57769 0
M  V30 20293 H 1898.33 3.85462 0.983058 0
M  V30 20294 H 1895.07 6.54638 -0.336054 0
M  V30 20295 H 1894.59 5.86908 1.23691 0
M  V30 20296 H 1896.27 6.39763 0.965014 0
M  V30 20297 N 1896.4 -0.183431 1.56529 0
M  V30 20298 C 1897.65 -0.900214 1.80944 0
M  V30 20299 C 1897.97 -1.83302 0.665246 0
M  V30 20300 O 1897.24 -1.9334 -0.315697 0
M  V30 20301 H 1895.82 -0.335409 0.667465 0
M  V30 20302 H 1898.48 -0.186146 1.94009 0
M  V30 20303 H 1897.58 -1.48437 2.74541 0
M  V30 20304 N 1897.88 -1.50992 -0.451564 0
M  V30 20305 C 1898.81 -1.67453 -1.56499 0
M  V30 20306 C 1899.83 -0.555481 -1.5303 0
M  V30 20307 O 1901.01 -0.829335 -1.58064 0
M  V30 20308 C 1898.11 -1.66093 -2.95409 0
M  V30 20309 C 1897.29 -2.94351 -3.23537 0
M  V30 20310 C 1896.35 -2.8537 -4.42098 0
M  V30 20311 O 1895.37 -3.59323 -4.41447 0
M  V30 20312 N 1896.57 -2.0025 -5.44867 0
M  V30 20313 H 1899.34 -2.63499 -1.42788 0
M  V30 20314 H 1896.9 -1.48701 -0.640293 0
M  V30 20315 H 1898.89 -1.57672 -3.72722 0
M  V30 20316 H 1897.46 -0.777014 -3.02789 0
M  V30 20317 H 1896.68 -3.16751 -2.34654 0
M  V30 20318 H 1897.97 -3.79281 -3.39151 0
M  V30 20319 H 1897.37 -1.39517 -5.48226 0
M  V30 20320 H 1895.93 -1.97719 -6.21088 0
M  V30 20321 N 1899.36 0.706069 -1.40899 0
M  V30 20322 C 1900.31 1.84143 -1.42106 0
M  V30 20323 C 1901.3 1.66716 -0.300367 0
M  V30 20324 O 1902.51 1.73705 -0.471879 0
M  V30 20325 H 1898.88 0.606636 -0.444406 0
M  V30 20326 H 1900.85 1.80241 -2.37815 0
M  V30 20327 C 1899.6 3.22084 -1.30986 0
M  V30 20328 H 1898.92 3.36105 -2.16503 0
M  V30 20329 H 1900.36 4.01634 -1.35891 0
M  V30 20330 C 1898.82 3.36893 -0.0210718 0
M  V30 20331 O 1899.35 3.90589 0.938242 0
M  V30 20332 N 1897.56 2.90554 0.0515652 0
M  V30 20333 H 1897.11 2.47045 -0.729833 0
M  V30 20334 H 1897.06 3.00842 0.91332 0
M  V30 20335 N 1900.84 1.26553 0.939264 0
M  V30 20336 C 1902.06 1.14993 1.72001 0
M  V30 20337 C 1902.48 -0.29462 1.86487 0
M  V30 20338 O 1901.84 -1.20158 1.37362 0
M  V30 20339 C 1901.89 1.81598 3.12577 0
M  V30 20340 O 1901.61 3.20408 2.98781 0
M  V30 20341 C 1903.11 1.76017 4.06858 0
M  V30 20342 H 1900.33 0.400347 0.538482 0
M  V30 20343 H 1902.87 1.67209 1.17735 0
M  V30 20344 H 1901.03 1.33316 3.63739 0
M  V30 20345 H 1901.44 3.53397 3.8757 0
M  V30 20346 H 1902.92 2.27255 5.0305 0
M  V30 20347 H 1903.39 0.727075 4.3314 0
M  V30 20348 H 1904 2.2386 3.61617 0
M  V30 20349 N 1902.31 -1.14411 1.08387 0
M  V30 20350 C 1903.54 -1.89307 0.834895 0
M  V30 20351 C 1903.96 -1.78574 -0.612923 0
M  V30 20352 O 1903.31 -1.14494 -1.42118 0
M  V30 20353 C 1903.37 -3.39289 1.24761 0
M  V30 20354 O 1903.09 -3.49725 2.63863 0
M  V30 20355 C 1904.59 -4.31181 1.02947 0
M  V30 20356 H 1901.81 -0.599644 0.301112 0
M  V30 20357 H 1904.35 -1.44897 1.44309 0
M  V30 20358 H 1902.51 -3.81322 0.683524 0
M  V30 20359 H 1902.92 -4.42884 2.80988 0
M  V30 20360 H 1904.39 -5.34789 1.36763 0
M  V30 20361 H 1904.87 -4.39187 -0.0335224 0
M  V30 20362 H 1905.48 -3.94903 1.57898 0
M  V30 20363 N 1903.79 -0.869509 -1.31443 0
M  V30 20364 C 1905.07 -0.400903 -1.91447 0
M  V30 20365 C 1905.45 1.117 -1.79127 0
M  V30 20366 O 1904.8 1.94536 -1.19866 0
M  V30 20367 C 1905.01 -0.881767 -3.37677 0
M  V30 20368 C 1906.36 -0.90763 -4.14786 0
M  V30 20369 O 1907.38 -0.82739 -3.46457 0
M  V30 20370 O 1906.24 -1.02365 -5.36827 0
M  V30 20371 H 1903.33 -0.119842 -0.818271 0
M  V30 20372 H 1905.88 -0.957391 -1.40115 0
M  V30 20373 H 1904.65 -1.92533 -3.40657 0
M  V30 20374 H 1904.27 -0.303565 -3.96439 0
M  V30 20375 N 1905.27 1.44508 -0.628902 0
M  V30 20376 C 1906.18 2.34468 0.0786233 0
M  V30 20377 C 1907.2 1.52489 0.838046 0
M  V30 20378 O 1908.37 1.85224 0.790813 0
M  V30 20379 C 1905.44 3.30435 1.04945 0
M  V30 20380 C 1904.5 4.28322 0.289643 0
M  V30 20381 C 1903.73 5.19704 1.21422 0
M  V30 20382 O 1903.95 5.14967 2.45286 0
M  V30 20383 O 1902.89 5.97819 0.699748 0
M  V30 20384 H 1906.71 2.96414 -0.661222 0
M  V30 20385 H 1904.3 1.44244 -0.3891 0
M  V30 20386 H 1906.18 3.89513 1.60804 0
M  V30 20387 H 1904.86 2.71025 1.76994 0
M  V30 20388 H 1903.76 3.72797 -0.311936 0
M  V30 20389 H 1905.1 4.90646 -0.390789 0
M  V30 20390 N 1906.75 0.369315 1.53212 0
M  V30 20391 C 1908.03 -0.275781 1.93646 0
M  V30 20392 C 1908.41 -1.66075 1.30316 0
M  V30 20393 O 1907.75 -2.23746 0.463658 0
M  V30 20394 C 1907.96 -0.322239 3.47509 0
M  V30 20395 C 1909.31 -0.560798 4.2088 0
M  V30 20396 O 1910.34 -0.403291 3.5391 0
M  V30 20397 O 1909.2 -0.86778 5.39566 0
M  V30 20398 H 1906.29 -0.166296 0.810108 0
M  V30 20399 H 1908.84 0.42237 1.6436 0
M  V30 20400 H 1907.61 0.648648 3.85886 0
M  V30 20401 H 1907.23 -1.06613 3.8304 0
M  V30 20402 N 1908.23 -1.57291 0.0985816 0
M  V30 20403 C 1909.47 -1.95568 -0.558993 0
M  V30 20404 C 1909.83 -0.979923 -1.65576 0
M  V30 20405 O 1909.12 -0.00649322 -1.91599 0
M  V30 20406 C 1909.32 -3.38184 -1.15613 0
M  V30 20407 C 1909.14 -4.49543 -0.11874 0
M  V30 20408 C 1907.91 -5.04373 0.305987 0
M  V30 20409 C 1910.11 -5.10119 0.65443 0
M  V30 20410 N 1908.09 -5.99291 1.33128 0
M  V30 20411 C 1909.47 -6.00788 1.53146 0
M  V30 20412 C 1911.52 -4.92847 0.707565 0
M  V30 20413 C 1910.22 -6.76037 2.45695 0
M  V30 20414 C 1912.25 -5.6876 1.62068 0
M  V30 20415 C 1911.61 -6.59099 2.48533 0
M  V30 20416 H 1907.71 -0.762218 -0.17478 0
M  V30 20417 H 1910.29 -1.93848 0.181959 0
M  V30 20418 H 1908.47 -3.40591 -1.86688 0
M  V30 20419 H 1910.2 -3.63632 -1.77635 0
M  V30 20420 H 1906.95 -4.73528 -0.0824372 0
M  V30 20421 H 1907.38 -6.51453 1.84223 0
M  V30 20422 H 1912.02 -4.22766 0.0532402 0
M  V30 20423 H 1909.74 -7.45377 3.12151 0
M  V30 20424 H 1913.32 -5.57408 1.66697 0
M  V30 20425 H 1912.2 -7.16812 3.18041 0
M  V30 20426 N 1909.71 0.175127 -1.56624 0
M  V30 20427 C 1910.93 0.912099 -1.86267 0
M  V30 20428 C 1911.36 1.75204 -0.684485 0
M  V30 20429 O 1910.71 1.77557 0.366501 0
M  V30 20430 C 1910.76 1.76776 -3.14297 0
M  V30 20431 O 1909.87 2.86894 -2.96253 0
M  V30 20432 H 1909.21 0.255728 -0.61278 0
M  V30 20433 H 1911.74 0.174416 -2.03855 0
M  V30 20434 H 1911.75 2.16845 -3.45604 0
M  V30 20435 H 1910.42 1.15077 -3.99663 0
M  V30 20436 H 1909 2.50435 -2.76291 0
M  V30 20437 N 1911.18 1.5123 0.44355 0
M  V30 20438 C 1912.46 1.54127 1.20434 0
M  V30 20439 C 1912.84 0.301893 2.0893 0
M  V30 20440 O 1912.19 -0.713356 2.17079 0
M  V30 20441 C 1912.4 2.85196 2.01157 0
M  V30 20442 C 1913.75 3.3691 2.58411 0
M  V30 20443 O 1914.77 2.86704 2.11374 0
M  V30 20444 O 1913.63 4.24498 3.44185 0
M  V30 20445 H 1910.72 0.619396 0.547976 0
M  V30 20446 H 1913.27 1.63539 0.453125 0
M  V30 20447 H 1912.04 3.66861 1.3612 0
M  V30 20448 H 1911.66 2.78917 2.83357 0
M  V30 20449 N 1912.66 -0.698586 1.41271 0
M  V30 20450 C 1913.91 -1.45861 1.40466 0
M  V30 20451 C 1914.24 -1.94496 0.0127551 0
M  V30 20452 O 1913.49 -1.69692 -0.974843 0
M  V30 20453 C 1913.79 -2.688 2.35545 0
M  V30 20454 C 1913.46 -2.38839 3.82449 0
M  V30 20455 C 1912.12 -2.30378 4.22468 0
M  V30 20456 C 1914.47 -2.14065 4.75211 0
M  V30 20457 C 1911.8 -1.95236 5.53263 0
M  V30 20458 C 1914.15 -1.80432 6.06323 0
M  V30 20459 C 1912.81 -1.70465 6.45367 0
M  V30 20460 H 1912.08 -0.533744 0.514002 0
M  V30 20461 H 1914.73 -0.798723 1.74048 0
M  V30 20462 H 1913.04 -3.39708 1.95207 0
M  V30 20463 H 1914.73 -3.26933 2.32197 0
M  V30 20464 H 1911.32 -2.46317 3.50751 0
M  V30 20465 H 1915.51 -2.19548 4.45098 0
M  V30 20466 H 1910.76 -1.86069 5.82399 0
M  V30 20467 H 1914.94 -1.60281 6.77704 0
M  V30 20468 H 1912.56 -1.43002 7.46629 0
M  V30 20469 N 1914.14 -1.27049 -0.93254 0
M  V30 20470 C 1915.38 -1.14333 -1.69432 0
M  V30 20471 C 1915.74 0.306622 -1.89536 0
M  V30 20472 O 1916.94 0.556096 -2.62985 0
M  V30 20473 C 1915.22 -1.90032 -3.02692 0
M  V30 20474 S 1916.77 -1.93472 -3.93845 0
M  V30 20475 H 1913.59 -0.408249 -0.582111 0
M  V30 20476 H 1916.19 -1.6089 -1.11061 0
M  V30 20477 H 1914.9 -2.94579 -2.85748 0
M  V30 20478 H 1914.43 -1.4395 -3.66117 0
M  V30 20479 H 1916.44 -1.02765 -4.85442 0
M  V30 20480 N 1915.62 1.13835 -1.08993 0
M  V30 20481 C 1916.55 2.18781 -0.683177 0
M  V30 20482 C 1917.56 1.60499 0.272748 0
M  V30 20483 O 1918.75 1.78401 0.059482 0
M  V30 20484 C 1915.85 3.38897 0.0146723 0
M  V30 20485 C 1915.02 4.26697 -0.961666 0
M  V30 20486 C 1914.08 5.25355 -0.298041 0
M  V30 20487 O 1913.11 5.61312 -0.944303 0
M  V30 20488 N 1914.31 5.7268 0.949645 0
M  V30 20489 H 1917.08 2.54293 -1.58605 0
M  V30 20490 H 1914.64 1.29114 -0.976792 0
M  V30 20491 H 1916.63 4.01965 0.469724 0
M  V30 20492 H 1915.2 3.01661 0.819722 0
M  V30 20493 H 1914.42 3.60473 -1.5954 0
M  V30 20494 H 1915.71 4.82218 -1.62305 0
M  V30 20495 H 1915.11 5.45606 1.49433 0
M  V30 20496 H 1913.66 6.37707 1.34809 0
M  V30 20497 N 1917.1 0.876467 1.3098 0
M  V30 20498 C 1918.03 0.352925 2.30817 0
M  V30 20499 C 1919.01 -0.559675 1.60629 0
M  V30 20500 O 1920.19 -0.475326 1.88293 0
M  V30 20501 C 1917.32 -0.440827 3.44491 0
M  V30 20502 C 1916.28 0.379253 4.26316 0
M  V30 20503 C 1915.6 -0.540582 5.3196 0
M  V30 20504 C 1916.9 1.61682 4.96645 0
M  V30 20505 H 1918.6 1.18719 2.74857 0
M  V30 20506 H 1916.14 0.572316 1.32138 0
M  V30 20507 H 1918.09 -0.817661 4.13391 0
M  V30 20508 H 1916.82 -1.30866 2.99235 0
M  V30 20509 H 1915.48 0.738117 3.59092 0
M  V30 20510 H 1915.13 -1.40588 4.82953 0
M  V30 20511 H 1914.83 0.00427133 5.876 0
M  V30 20512 H 1916.35 -0.914118 6.03719 0
M  V30 20513 H 1917.76 1.31105 5.58108 0
M  V30 20514 H 1916.16 2.10123 5.62111 0
M  V30 20515 H 1917.23 2.36602 4.23258 0
M  V30 20516 N 1918.57 -1.44173 0.636557 0
M  V30 20517 C 1919.82 -2.02292 0.143429 0
M  V30 20518 C 1920.15 -1.49996 -1.23348 0
M  V30 20519 O 1919.43 -0.686228 -1.81992 0
M  V30 20520 C 1919.71 -3.59843 0.136025 0
M  V30 20521 C 1919.56 -4.22409 1.54566 0
M  V30 20522 C 1920.88 -4.36817 -0.536538 0
M  V30 20523 H 1918 -0.735049 0.0535939 0
M  V30 20524 H 1920.64 -1.71677 0.814066 0
M  V30 20525 H 1918.79 -3.86056 -0.435048 0
M  V30 20526 H 1920.47 -4.07284 2.16604 0
M  V30 20527 H 1918.71 -3.79696 2.09793 0
M  V30 20528 H 1919.38 -5.31441 1.49247 0
M  V30 20529 H 1921.86 -4.16069 -0.0508327 0
M  V30 20530 H 1920.73 -5.46517 -0.510926 0
M  V30 20531 H 1920.99 -4.11827 -1.60783 0
M  V30 20532 N 1920.05 -0.377435 -1.53014 0
M  V30 20533 C 1921.28 0.211512 -2.06319 0
M  V30 20534 C 1921.7 1.40713 -1.24825 0
M  V30 20535 O 1921.06 1.79274 -0.270279 0
M  V30 20536 C 1921.11 0.571512 -3.56042 0
M  V30 20537 O 1920.21 1.66713 -3.77201 0
M  V30 20538 H 1919.55 0.0279862 -0.66341 0
M  V30 20539 H 1922.08 -0.541471 -1.97305 0
M  V30 20540 H 1922.09 0.839182 -3.99277 0
M  V30 20541 H 1920.77 -0.302672 -4.14797 0
M  V30 20542 H 1919.34 1.3941 -3.4586 0
M  V30 20543 N 1921.53 1.57237 -0.106922 0
M  V30 20544 C 1922.78 1.9439 0.552888 0
M  V30 20545 C 1923.1 0.990316 1.67981 0
M  V30 20546 O 1922.37 0.0444502 1.9585 0
M  V30 20547 H 1920.95 0.71768 0.20723 0
M  V30 20548 H 1923.61 1.9413 -0.17303 0
M  V30 20549 H 1922.71 2.97118 0.955369 0
M  V30 20550 N 1923.01 -0.166818 1.56715 0
M  V30 20551 C 1924.25 -0.889157 1.84047 0
M  V30 20552 C 1924.61 -1.79232 0.688478 0
M  V30 20553 O 1925.81 -2.5526 0.842361 0
M  V30 20554 C 1924.08 -1.66005 3.16508 0
M  V30 20555 S 1925.64 -2.43054 3.65336 0
M  V30 20556 H 1922.46 -0.297718 0.645666 0
M  V30 20557 H 1925.06 -0.150479 1.9492 0
M  V30 20558 H 1923.77 -0.987677 3.98338 0
M  V30 20559 H 1923.3 -2.44002 3.08588 0
M  V30 20560 H 1925.31 -3.67847 3.33021 0
M  V30 20561 N 1924.49 -1.51463 -0.435524 0
M  V30 20562 C 1925.9 -1.56678 -1.01533 0
M  V30 20563 C 1926.25 -0.391337 -1.92258 0
M  V30 20564 O 1925.37 0.491647 -2.10741 0
M  V30 20565 C 1925.97 -2.83951 -1.84817 0
M  V30 20566 C 1924.53 -2.91731 -2.37844 0
M  V30 20567 C 1923.67 -2.51359 -1.17106 0
M  V30 20568 H 1926.63 -1.57213 -0.216726 0
M  V30 20569 H 1926.65 -2.67815 -2.70287 0
M  V30 20570 H 1926.16 -3.69483 -1.1876 0
M  V30 20571 H 1924.26 -2.10633 -3.07351 0
M  V30 20572 H 1924.37 -3.95421 -2.70517 0
M  V30 20573 H 1922.74 -2.04599 -1.51695 0
M  V30 20574 H 1923.52 -3.39238 -0.526566 0
M  V30 20575 N 1925.96 0.691085 -1.4164 0
M  V30 20576 C 1926.9 1.81547 -1.3826 0
M  V30 20577 C 1927.88 1.60679 -0.249192 0
M  V30 20578 O 1929.06 1.83369 -0.436821 0
M  V30 20579 C 1926.19 3.18298 -1.15777 0
M  V30 20580 C 1925.23 3.57948 -2.31896 0
M  V30 20581 S 1926.07 3.6224 -3.94388 0
M  V30 20582 C 1927.22 5.0171 -3.74217 0
M  V30 20583 H 1927.45 1.84138 -2.33411 0
M  V30 20584 H 1924.99 0.860221 -1.28217 0
M  V30 20585 H 1926.95 3.9724 -1.03492 0
M  V30 20586 H 1925.61 3.13312 -0.222389 0
M  V30 20587 H 1924.8 4.57304 -2.1187 0
M  V30 20588 H 1924.4 2.86325 -2.40612 0
M  V30 20589 H 1926.69 5.89336 -3.342 0
M  V30 20590 H 1927.64 5.26778 -4.73192 0
M  V30 20591 H 1928.04 4.73459 -3.07403 0
M  V30 20592 N 1927.44 1.27542 0.925789 0
M  V30 20593 C 1928.86 1.04988 1.20207 0
M  V30 20594 C 1929.06 -0.215359 2.00346 0
M  V30 20595 O 1928.11 -0.920331 2.3513 0
M  V30 20596 C 1929.43 2.2904 1.94836 0
M  V30 20597 C 1930.98 2.34098 2.07767 0
M  V30 20598 C 1931.45 3.57884 2.85802 0
M  V30 20599 N 1932.94 3.58453 2.93369 0
M  V30 20600 C 1933.68 4.50907 3.54218 0
M  V30 20601 N 1933.17 5.53667 4.16443 0
M  V30 20602 N 1934.97 4.38527 3.5164 0
M  V30 20603 H 1927.12 2.0878 0.390449 0
M  V30 20604 H 1929.38 0.918323 0.235346 0
M  V30 20605 H 1929.09 3.21151 1.4337 0
M  V30 20606 H 1928.96 2.34507 2.95442 0
M  V30 20607 H 1931.35 1.42492 2.58418 0
M  V30 20608 H 1931.43 2.32633 1.06375 0
M  V30 20609 H 1931.07 4.49828 2.35834 0
M  V30 20610 H 1931 3.56601 3.87484 0
M  V30 20611 H 1933.49 2.84138 2.49147 0
M  V30 20612 H 1933.81 6.20377 4.60817 0
M  V30 20613 H 1932.15 5.57507 4.14983 0
M  V30 20614 H 1935.34 3.57455 3.0223 0
M  V30 20615 H 1935.51 5.10769 3.98772 0
M  V30 20616 N 1928.92 -1.13255 1.09595 0
M  V30 20617 C 1929.85 -2.20827 0.758791 0
M  V30 20618 C 1930.83 -1.68034 -0.264325 0
M  V30 20619 O 1932.02 -1.93751 -0.132005 0
M  V30 20620 C 1929.15 -3.46831 0.180424 0
M  V30 20621 C 1928.1 -4.12724 1.13325 0
M  V30 20622 C 1927.43 -5.33075 0.416504 0
M  V30 20623 C 1928.73 -4.59862 2.47637 0
M  V30 20624 H 1930.42 -2.49287 1.65821 0
M  V30 20625 H 1927.97 -1.19818 0.798734 0
M  V30 20626 H 1929.92 -4.21346 -0.0675313 0
M  V30 20627 H 1928.64 -3.17773 -0.754194 0
M  V30 20628 H 1927.3 -3.40179 1.36651 0
M  V30 20629 H 1926.95 -5.00281 -0.522308 0
M  V30 20630 H 1926.65 -5.78109 1.05183 0
M  V30 20631 H 1928.17 -6.10344 0.17689 0
M  V30 20632 H 1929.59 -5.25791 2.28509 0
M  V30 20633 H 1927.99 -5.15642 3.06974 0
M  V30 20634 H 1929.06 -3.74294 3.08273 0
M  V30 20635 N 1930.4 -0.883401 -1.30514 0
M  V30 20636 C 1931.35 -0.33846 -2.30124 0
M  V30 20637 C 1932.34 0.553686 -1.60096 0
M  V30 20638 O 1933.55 0.438295 -1.74582 0
M  V30 20639 H 1929.92 -0.0907927 -0.746499 0
M  V30 20640 H 1931.89 -1.19227 -2.73546 0
M  V30 20641 C 1930.64 0.43339 -3.44988 0
M  V30 20642 H 1929.96 -0.243847 -3.99056 0
M  V30 20643 H 1931.4 0.779808 -4.16767 0
M  V30 20644 C 1929.86 1.62986 -2.94851 0
M  V30 20645 O 1930.39 2.72922 -2.94748 0
M  V30 20646 N 1928.6 1.4665 -2.50883 0
M  V30 20647 H 1928.15 0.572135 -2.51166 0
M  V30 20648 H 1928.1 2.2684 -2.17694 0
M  V30 20649 N 1931.88 1.43833 -0.644194 0
M  V30 20650 C 1932.81 2.2797 0.102458 0
M  V30 20651 C 1933.79 1.39303 0.838652 0
M  V30 20652 O 1934.97 1.68745 0.840073 0
M  V30 20653 C 1932.1 3.18522 1.15157 0
M  V30 20654 C 1931.14 4.23386 0.51444 0
M  V30 20655 S 1931.98 5.30835 -0.705268 0
M  V30 20656 C 1933.13 6.24957 0.343531 0
M  V30 20657 H 1933.37 2.90948 -0.611277 0
M  V30 20658 H 1930.9 1.48211 -0.432753 0
M  V30 20659 H 1932.86 3.71241 1.75187 0
M  V30 20660 H 1931.52 2.54739 1.83757 0
M  V30 20661 H 1930.71 4.86812 1.305 0
M  V30 20662 H 1930.31 3.73998 -0.0115435 0
M  V30 20663 H 1932.61 6.66565 1.21235 0
M  V30 20664 H 1933.55 7.07639 -0.255473 0
M  V30 20665 H 1933.96 5.60446 0.675291 0
M  V30 20666 N 1933.35 0.385544 1.52811 0
M  V30 20667 C 1934.32 -0.439294 2.24951 0
M  V30 20668 C 1935.32 -0.993315 1.26451 0
M  V30 20669 O 1936.51 -0.875911 1.50577 0
M  V30 20670 C 1933.64 -1.61595 3.00166 0
M  V30 20671 H 1934.83 0.192232 2.99283 0
M  V30 20672 H 1932.39 0.137589 1.55693 0
M  V30 20673 H 1933.12 -2.28501 2.30125 0
M  V30 20674 H 1932.91 -1.22544 3.72459 0
M  V30 20675 H 1934.4 -2.20001 3.5495 0
M  V30 20676 N 1934.83 -1.57178 0.115259 0
M  V30 20677 C 1936.06 -1.99842 -0.554802 0
M  V30 20678 C 1936.48 -0.994368 -1.59668 0
M  V30 20679 O 1935.84 0.0344531 -1.81267 0
M  V30 20680 C 1935.89 -3.41399 -1.16099 0
M  V30 20681 O 1934.99 -3.43868 -2.27659 0
M  V30 20682 H 1934.33 -0.649301 -0.138937 0
M  V30 20683 H 1936.86 -2.03594 0.202629 0
M  V30 20684 H 1936.87 -3.79527 -1.49743 0
M  V30 20685 H 1935.55 -4.13993 -0.397827 0
M  V30 20686 H 1934.13 -3.17555 -1.95482 0
M  V30 20687 N 1936.31 0.158505 -1.56801 0
M  V30 20688 C 1937.24 1.19799 -2.00426 0
M  V30 20689 C 1938.22 1.45453 -0.881905 0
M  V30 20690 O 1939.41 1.56569 -1.1489 0
M  V30 20691 C 1936.54 2.53392 -2.37508 0
M  V30 20692 C 1935.49 2.42283 -3.52822 0
M  V30 20693 C 1934.82 3.80482 -3.75683 0
M  V30 20694 C 1936.12 1.91666 -4.85862 0
M  V30 20695 H 1937.81 0.835303 -2.87512 0
M  V30 20696 H 1935.36 0.400366 -1.38322 0
M  V30 20697 H 1937.31 3.26326 -2.66625 0
M  V30 20698 H 1936.03 2.91474 -1.47345 0
M  V30 20699 H 1934.69 1.71801 -3.23852 0
M  V30 20700 H 1934.34 4.15979 -2.8279 0
M  V30 20701 H 1934.04 3.73913 -4.5328 0
M  V30 20702 H 1935.57 4.54982 -4.07214 0
M  V30 20703 H 1936.98 2.54384 -5.13772 0
M  V30 20704 H 1935.38 1.96016 -5.67184 0
M  V30 20705 H 1936.45 0.871666 -4.77001 0
M  V30 20706 N 1937.79 1.51692 0.427485 0
M  V30 20707 C 1938.7 1.76576 1.5446 0
M  V30 20708 C 1939.72 0.650421 1.61386 0
M  V30 20709 O 1940.89 0.933787 1.78444 0
M  V30 20710 C 1937.96 1.89451 2.90361 0
M  V30 20711 C 1937.02 3.13326 2.93471 0
M  V30 20712 C 1936.25 3.25577 4.22889 0
M  V30 20713 O 1936.47 2.43528 5.15801 0
M  V30 20714 O 1935.41 4.18618 4.32484 0
M  V30 20715 H 1939.23 2.7136 1.36373 0
M  V30 20716 H 1936.82 1.36312 0.611496 0
M  V30 20717 H 1938.7 1.99848 3.70997 0
M  V30 20718 H 1937.38 0.978556 3.08555 0
M  V30 20719 H 1936.28 3.08401 2.11754 0
M  V30 20720 H 1937.62 4.04643 2.80223 0
M  V30 20721 N 1939.27 -0.683564 1.42004 0
M  V30 20722 C 1940.18 -1.82689 1.4718 0
M  V30 20723 C 1941.19 -1.70208 0.361298 0
M  V30 20724 O 1942.37 -1.91912 0.610867 0
M  V30 20725 C 1939.43 -3.18767 1.3634 0
M  V30 20726 C 1938.5 -3.43269 2.57808 0
M  V30 20727 C 1937.73 -4.72855 2.47476 0
M  V30 20728 O 1937.95 -5.50164 1.50584 0
M  V30 20729 O 1936.89 -4.98407 3.37452 0
M  V30 20730 H 1940.71 -1.81279 2.43663 0
M  V30 20731 H 1938.3 -0.838182 1.23672 0
M  V30 20732 H 1940.18 -3.99986 1.32624 0
M  V30 20733 H 1938.85 -3.20834 0.429781 0
M  V30 20734 H 1937.76 -2.61933 2.67099 0
M  V30 20735 H 1939.09 -3.46025 3.50039 0
M  V30 20736 N 1940.75 -1.28031 -0.919012 0
M  V30 20737 C 1941.69 -1.11505 -2.02077 0
M  V30 20738 C 1942.66 -0.0136546 -1.66094 0
M  V30 20739 O 1943.85 -0.177608 -1.89972 0
M  V30 20740 C 1940.99 -0.777409 -3.3623 0
M  V30 20741 C 1940.1 -1.95732 -3.85114 0
M  V30 20742 C 1939.24 -1.56077 -5.07753 0
M  V30 20743 C 1938.27 -2.70764 -5.48956 0
M  V30 20744 N 1937.41 -2.31638 -6.62788 0
M  V30 20745 H 1942.25 -2.05778 -2.15545 0
M  V30 20746 H 1939.79 -1.02425 -1.05582 0
M  V30 20747 H 1941.75 -0.562424 -4.13392 0
M  V30 20748 H 1940.38 0.128373 -3.22545 0
M  V30 20749 H 1939.43 -2.28459 -3.04156 0
M  V30 20750 H 1940.74 -2.81735 -4.11615 0
M  V30 20751 H 1939.89 -1.30754 -5.92443 0
M  V30 20752 H 1938.63 -0.671958 -4.83049 0
M  V30 20753 H 1937.64 -2.96792 -4.62812 0
M  V30 20754 H 1938.86 -3.6028 -5.75652 0
M  V30 20755 H 1936.81 -1.4522 -6.39724 0
M  V30 20756 H 1936.73 -3.11178 -6.88988 0
M  V30 20757 H 1937.99 -2.09585 -7.50796 0
M  V30 20758 N 1942.22 1.12672 -1.10194 0
M  V30 20759 C 1943.47 1.83763 -0.841168 0
M  V30 20760 C 1943.79 1.84369 0.635061 0
M  V30 20761 O 1943.06 1.30504 1.46101 0
M  V30 20762 H 1941.64 0.680461 -0.308192 0
M  V30 20763 H 1944.3 1.36447 -1.3917 0
M  V30 20764 H 1943.4 2.88034 -1.20178 0
M  V30 20765 N 1943.7 0.89031 1.30043 0
M  V30 20766 C 1945.12 0.585066 1.4849 0
M  V30 20767 C 1945.32 -0.87585 1.81469 0
M  V30 20768 O 1944.37 -1.6567 1.90551 0
M  V30 20769 C 1945.69 1.50281 2.60454 0
M  V30 20770 C 1947.23 1.50701 2.74332 0
M  V30 20771 C 1947.71 2.41081 3.89415 0
M  V30 20772 N 1949.2 2.39074 3.96734 0
M  V30 20773 C 1949.94 3.05715 4.85104 0
M  V30 20774 N 1949.43 3.81601 5.78232 0
M  V30 20775 N 1951.22 2.9492 4.78517 0
M  V30 20776 H 1943.38 1.83532 1.0691 0
M  V30 20777 H 1945.64 0.785901 0.530155 0
M  V30 20778 H 1945.34 2.54327 2.42921 0
M  V30 20779 H 1945.22 1.21634 3.5705 0
M  V30 20780 H 1947.61 0.474032 2.91268 0
M  V30 20781 H 1947.69 1.83381 1.7834 0
M  V30 20782 H 1947.33 3.44466 3.73236 0
M  V30 20783 H 1947.26 2.05714 4.84757 0
M  V30 20784 H 1949.75 1.83932 3.30117 0
M  V30 20785 H 1950.06 4.29528 6.42437 0
M  V30 20786 H 1948.41 3.85708 5.78147 0
M  V30 20787 H 1951.6 2.35158 4.04745 0
M  V30 20788 H 1951.77 3.47132 5.47178 0
M  V30 20789 N 1945.18 -1.43489 0.651812 0
M  V30 20790 C 1946.13 -2.27913 -0.0629433 0
M  V30 20791 C 1947.11 -1.39823 -0.796141 0
M  V30 20792 O 1948.31 -1.63465 -0.678839 0
M  V30 20793 C 1945.43 -3.27496 -1.02963 0
M  V30 20794 C 1944.52 -4.23073 -0.294979 0
M  V30 20795 N 1944.91 -5.01103 0.687723 0
M  V30 20796 C 1943.21 -4.4276 -0.536618 0
M  V30 20797 C 1943.91 -5.70744 1.12366 0
M  V30 20798 N 1942.89 -5.41665 0.458199 0
M  V30 20799 H 1946.69 -2.85658 0.691154 0
M  V30 20800 H 1944.2 -1.55176 0.478978 0
M  V30 20801 H 1946.2 -3.86755 -1.55647 0
M  V30 20802 H 1944.86 -2.71313 -1.7838 0
M  V30 20803 H 1945.87 -5.06802 1.06639 0
M  V30 20804 H 1942.55 -3.97649 -1.27207 0
M  V30 20805 H 1943.94 -6.43383 1.93669 0
M  V30 20806 N 1946.66 -0.393643 -1.52605 0
M  V30 20807 C 1947.9 0.187154 -2.01633 0
M  V30 20808 C 1948.23 1.46451 -1.27993 0
M  V30 20809 O 1947.49 1.92169 -0.370063 0
M  V30 20810 C 1947.79 0.497148 -3.53925 0
M  V30 20811 C 1947.45 -0.689176 -4.45602 0
M  V30 20812 C 1946.11 -1.01462 -4.70382 0
M  V30 20813 C 1948.47 -1.48262 -4.99668 0
M  V30 20814 C 1945.79 -2.13497 -5.46476 0
M  V30 20815 C 1948.15 -2.59361 -5.76987 0
M  V30 20816 C 1946.81 -2.92409 -6.00044 0
M  V30 20817 H 1946.08 0.0684846 -0.737828 0
M  V30 20818 H 1948.73 -0.531882 -1.83965 0
M  V30 20819 H 1947.03 1.29756 -3.6969 0
M  V30 20820 H 1948.73 0.959239 -3.89358 0
M  V30 20821 H 1945.32 -0.425524 -4.26482 0
M  V30 20822 H 1949.5 -1.24443 -4.80445 0
M  V30 20823 H 1944.76 -2.39467 -5.62553 0
M  V30 20824 H 1948.93 -3.21241 -6.17881 0
M  V30 20825 H 1946.56 -3.79341 -6.5879 0
M  V30 20826 N 1948.14 1.57115 -0.123593 0
M  V30 20827 C 1949.36 2.00133 0.544196 0
M  V30 20828 C 1949.79 1.00282 1.59139 0
M  V30 20829 O 1949.14 -0.0248396 1.81283 0
M  V30 20830 C 1949.19 3.4201 1.14287 0
M  V30 20831 O 1948.3 3.45071 2.25832 0
M  V30 20832 H 1947.64 0.650029 0.135492 0
M  V30 20833 H 1950.17 2.03484 -0.213423 0
M  V30 20834 H 1950.18 3.80316 1.47728 0
M  V30 20835 H 1948.85 4.14198 0.375866 0
M  V30 20836 H 1947.43 3.18587 1.93795 0
M  V30 20837 N 1949.61 -0.150187 1.56883 0
M  V30 20838 C 1950.84 -0.88235 1.87695 0
M  V30 20839 C 1951.26 -1.74093 0.712272 0
M  V30 20840 O 1950.62 -1.78118 -0.338207 0
M  V30 20841 C 1950.67 -1.71754 3.1707 0
M  V30 20842 O 1949.77 -2.82145 3.00779 0
M  V30 20843 H 1949.11 -0.245947 0.616771 0
M  V30 20844 H 1951.64 -0.141963 2.04107 0
M  V30 20845 H 1951.65 -2.1132 3.4901 0
M  V30 20846 H 1950.33 -1.08704 4.01443 0
M  V30 20847 H 1948.91 -2.46008 2.8024 0
M  V30 20848 N 1951.09 -1.51916 -0.419434 0
M  V30 20849 C 1952.5 -1.57746 -0.998651 0
M  V30 20850 C 1952.85 -0.411706 -1.91832 0
M  V30 20851 O 1951.98 0.469268 -2.11251 0
M  V30 20852 C 1952.57 -2.85895 -1.81795 0
M  V30 20853 C 1951.13 -2.94238 -2.34736 0
M  V30 20854 C 1950.28 -2.52587 -1.14434 0
M  V30 20855 H 1953.23 -1.57434 -0.200039 0
M  V30 20856 H 1953.25 -2.70667 -2.67431 0
M  V30 20857 H 1952.76 -3.70722 -1.14834 0
M  V30 20858 H 1950.87 -2.13881 -3.05099 0
M  V30 20859 H 1950.98 -3.98268 -2.66308 0
M  V30 20860 H 1949.34 -2.06196 -1.49516 0
M  V30 20861 H 1950.13 -3.39777 -0.490555 0
M  V30 20862 N 1952.57 0.676023 -1.42365 0
M  V30 20863 C 1953.82 1.43608 -1.42769 0
M  V30 20864 C 1954.15 1.94451 -0.0436961 0
M  V30 20865 O 1953.4 1.71221 0.947723 0
M  V30 20866 C 1953.7 2.65018 -2.39792 0
M  V30 20867 C 1953.37 2.32724 -3.862 0
M  V30 20868 C 1952.03 2.23628 -4.2608 0
M  V30 20869 C 1954.38 2.06477 -4.78557 0
M  V30 20870 C 1951.71 1.86409 -5.56299 0
M  V30 20871 C 1954.06 1.70763 -6.09116 0
M  V30 20872 C 1952.72 1.60176 -6.47997 0
M  V30 20873 H 1951.99 0.525499 -0.522428 0
M  V30 20874 H 1954.64 0.770932 -1.75297 0
M  V30 20875 H 1952.95 3.36559 -2.00587 0
M  V30 20876 H 1954.64 3.23198 -2.37369 0
M  V30 20877 H 1951.23 2.40705 -3.54625 0
M  V30 20878 H 1955.42 2.12439 -4.48535 0
M  V30 20879 H 1950.67 1.7678 -5.85285 0
M  V30 20880 H 1954.85 1.49479 -6.80168 0
M  V30 20881 H 1952.47 1.31106 -7.48809 0
M  V30 20882 N 1954.05 1.28517 0.912209 0
M  V30 20883 C 1955.3 1.15138 1.65609 0
M  V30 20884 C 1955.61 -0.299022 1.93301 0
M  V30 20885 O 1956.82 -0.55395 2.65789 0
M  V30 20886 C 1955.27 2.01287 2.98348 0
M  V30 20887 C 1954.88 3.51076 2.78297 0
M  V30 20888 C 1956.62 1.96599 3.7623 0
M  V30 20889 C 1954.53 4.29371 4.06687 0
M  V30 20890 H 1953.46 0.42731 0.621226 0
M  V30 20891 H 1956.11 1.5306 1.01217 0
M  V30 20892 H 1954.49 1.56222 3.63883 0
M  V30 20893 H 1955.67 4.04109 2.21434 0
M  V30 20894 H 1953.98 3.57306 2.13826 0
M  V30 20895 H 1956.58 2.52362 4.71399 0
M  V30 20896 H 1956.92 0.943087 4.05477 0
M  V30 20897 H 1957.46 2.39641 3.17517 0
M  V30 20898 H 1954.2 5.32248 3.82612 0
M  V30 20899 H 1953.72 3.81112 4.63156 0
M  V30 20900 H 1955.39 4.39372 4.74933 0
M  V30 20901 N 1955.53 -1.12086 1.1079 0
M  V30 20902 C 1956.78 -1.83036 0.847387 0
M  V30 20903 C 1957.09 -1.85209 -0.629051 0
M  V30 20904 O 1958.29 -2.52191 -1.00559 0
M  V30 20905 C 1956.75 -3.28682 1.46615 0
M  V30 20906 C 1956.36 -3.34858 2.97614 0
M  V30 20907 C 1958.1 -4.04578 1.28519 0
M  V30 20908 C 1956.01 -4.7486 3.52508 0
M  V30 20909 H 1954.94 -0.685806 0.313347 0
M  V30 20910 H 1957.59 -1.2618 1.33233 0
M  V30 20911 H 1955.97 -3.85429 0.908883 0
M  V30 20912 H 1957.15 -2.8803 3.59688 0
M  V30 20913 H 1955.46 -2.72438 3.14907 0
M  V30 20914 H 1958.06 -5.07962 1.6697 0
M  V30 20915 H 1958.4 -4.1568 0.227105 0
M  V30 20916 H 1958.93 -3.542 1.81073 0
M  V30 20917 H 1955.67 -4.68954 4.57999 0
M  V30 20918 H 1955.19 -5.22125 2.95203 0
M  V30 20919 H 1956.87 -5.43807 3.50546 0
M  V30 20920 N 1957 -0.897194 -1.29569 0
M  V30 20921 C 1957.97 -0.377906 -2.26063 0
M  V30 20922 C 1958.97 0.486495 -1.53264 0
M  V30 20923 O 1960.16 0.291905 -1.71737 0
M  V30 20924 C 1957.29 0.460046 -3.37782 0
M  V30 20925 H 1958.48 -1.23009 -2.73512 0
M  V30 20926 H 1956.04 -0.675114 -1.40968 0
M  V30 20927 H 1956.77 1.33232 -2.95668 0
M  V30 20928 H 1956.56 -0.159293 -3.91776 0
M  V30 20929 H 1958.05 0.814753 -4.09575 0
M  V30 20930 N 1958.48 1.43142 -0.659413 0
M  V30 20931 C 1959.71 2.06087 -0.183265 0
M  V30 20932 C 1960.13 1.49462 1.15354 0
M  V30 20933 O 1959.48 0.628341 1.71342 0
M  V30 20934 C 1959.53 3.61381 -0.0928701 0
M  V30 20935 O 1959.25 4.15902 -1.37684 0
M  V30 20936 C 1960.76 4.41413 0.408616 0
M  V30 20937 H 1957.98 0.664557 -0.092765 0
M  V30 20938 H 1960.52 1.83542 -0.901809 0
M  V30 20939 H 1958.67 3.8309 0.576268 0
M  V30 20940 H 1959.09 5.09629 -1.24009 0
M  V30 20941 H 1960.56 5.50394 0.420806 0
M  V30 20942 H 1961.04 4.14885 1.44108 0
M  V30 20943 H 1961.65 4.24687 -0.228247 0
M  V30 20944 N 1959.96 0.40173 1.52394 0
M  V30 20945 C 1961.19 -0.178662 2.06629 0
M  V30 20946 C 1961.61 -1.3871 1.27048 0
M  V30 20947 O 1960.97 -1.78821 0.298765 0
M  V30 20948 C 1961.02 -0.514797 3.56906 0
M  V30 20949 O 1960.12 -1.60691 3.79805 0
M  V30 20950 H 1959.46 -0.0174284 0.663771 0
M  V30 20951 H 1961.99 0.572792 1.96419 0
M  V30 20952 H 1962 -0.775554 4.00561 0
M  V30 20953 H 1960.68 0.368624 4.14263 0
M  V30 20954 H 1959.25 -1.3389 3.48034 0
M  V30 20955 N 1961.44 -1.57047 0.131923 0
M  V30 20956 C 1962.39 -2.17261 -0.830686 0
M  V30 20957 C 1963.38 -1.12538 -1.26616 0
M  V30 20958 O 1964.59 -1.30818 -1.23639 0
M  V30 20959 H 1960.96 -0.695476 -0.286037 0
M  V30 20960 H 1962.93 -2.96903 -0.29848 0
M  V30 20961 C 1961.68 -2.79677 -2.06582 0
M  V30 20962 H 1961 -3.59965 -1.73969 0
M  V30 20963 H 1962.44 -3.2533 -2.71912 0
M  V30 20964 C 1960.9 -1.77413 -2.86402 0
M  V30 20965 O 1961.43 -1.23537 -3.82232 0
M  V30 20966 N 1959.64 -1.47059 -2.50643 0
M  V30 20967 H 1959.19 -1.91062 -1.7278 0
M  V30 20968 H 1959.14 -0.788806 -3.04344 0
M  V30 20969 N 1962.92 0.141865 -1.5696 0
M  V30 20970 C 1964.16 0.850019 -1.84787 0
M  V30 20971 C 1964.52 1.78556 -0.716613 0
M  V30 20972 O 1963.81 1.89467 0.285076 0
M  V30 20973 C 1964 1.65717 -3.16658 0
M  V30 20974 C 1963.83 0.801282 -4.42504 0
M  V30 20975 C 1962.6 0.464915 -5.03157 0
M  V30 20976 C 1964.8 0.129271 -5.14138 0
M  V30 20977 N 1962.78 -0.404035 -6.12569 0
M  V30 20978 C 1964.15 -0.599606 -6.17094 0
M  V30 20979 C 1966.21 0.0504761 -4.97874 0
M  V30 20980 C 1964.91 -1.39985 -7.05547 0
M  V30 20981 C 1966.94 -0.736517 -5.86796 0
M  V30 20982 C 1966.3 -1.45366 -6.89237 0
M  V30 20983 H 1962.4 0.288707 -0.726755 0
M  V30 20984 H 1964.98 0.115075 -1.9436 0
M  V30 20985 H 1963.15 2.36332 -3.08224 0
M  V30 20986 H 1964.89 2.30889 -3.32374 0
M  V30 20987 H 1961.64 0.801892 -4.66762 0
M  V30 20988 H 1962.07 -0.829685 -6.71897 0
M  V30 20989 H 1966.71 0.590566 -4.18655 0
M  V30 20990 H 1964.43 -1.95118 -7.84191 0
M  V30 20991 H 1968.01 -0.799543 -5.7628 0
M  V30 20992 H 1966.89 -2.05285 -7.56854 0
M  V30 20993 N 1964.39 1.52136 0.411372 0
M  V30 20994 C 1965.62 1.70223 1.18486 0
M  V30 20995 C 1966.04 0.409966 1.83578 0
M  V30 20996 O 1965.4 -0.632366 1.69914 0
M  V30 20997 C 1965.45 2.83744 2.22535 0
M  V30 20998 O 1964.55 2.49157 3.28625 0
M  V30 20999 H 1963.9 0.566741 0.345978 0
M  V30 21000 H 1966.43 1.98829 0.482526 0
M  V30 21001 H 1966.44 3.08591 2.669 0
M  V30 21002 H 1965.11 3.77503 1.74541 0
M  V30 21003 H 1963.69 2.34974 2.89554 0
M  V30 21004 N 1965.87 -0.668464 1.42721 0
M  V30 21005 C 1966.82 -1.80311 1.46938 0
M  V30 21006 C 1967.82 -1.65861 0.344463 0
M  V30 21007 O 1969.02 -1.72392 0.517768 0
M  V30 21008 H 1965.4 -0.59464 0.460333 0
M  V30 21009 H 1967.37 -1.73872 2.4251 0
M  V30 21010 C 1966.12 -3.18498 1.3948 0
M  V30 21011 H 1965.44 -3.30246 2.25338 0
M  V30 21012 H 1966.88 -3.9789 1.46492 0
M  V30 21013 C 1965.34 -3.36719 0.110386 0
M  V30 21014 O 1965.87 -3.92939 -0.834354 0
M  V30 21015 N 1964.07 -2.90589 0.0254882 0
M  V30 21016 H 1963.62 -2.45023 0.795077 0
M  V30 21017 H 1963.58 -3.03158 -0.833236 0
M  V30 21018 N 1967.35 -1.28999 -0.905381 0
M  V30 21019 C 1968.76 -1.15033 -1.47052 0
M  V30 21020 C 1969.11 0.256623 -1.94514 0
M  V30 21021 O 1968.24 1.15164 -1.83211 0
M  V30 21022 C 1968.83 -2.08213 -2.67269 0
M  V30 21023 C 1967.39 -1.98286 -3.19937 0
M  V30 21024 C 1966.54 -1.99468 -1.92634 0
M  V30 21025 H 1969.49 -1.41566 -0.717271 0
M  V30 21026 H 1969.51 -1.65102 -3.42814 0
M  V30 21027 H 1969.02 -3.10604 -2.32695 0
M  V30 21028 H 1967.12 -0.98963 -3.59217 0
M  V30 21029 H 1967.24 -2.85666 -3.84619 0
M  V30 21030 H 1965.6 -1.43988 -2.10094 0
M  V30 21031 H 1966.38 -3.03554 -1.60344 0
M  V30 21032 N 1968.83 1.11497 -1.11383 0
M  V30 21033 C 1970.05 1.87567 -0.885056 0
M  V30 21034 C 1970.48 1.79581 0.559675 0
M  V30 21035 O 1969.84 1.15779 1.39517 0
M  V30 21036 C 1969.89 3.34354 -1.35053 0
M  V30 21037 O 1968.99 4.09085 -0.521865 0
M  V30 21038 H 1968.33 0.582433 -0.318853 0
M  V30 21039 H 1970.86 1.4094 -1.48314 0
M  V30 21040 H 1970.87 3.85201 -1.34478 0
M  V30 21041 H 1969.55 3.39484 -2.40257 0
M  V30 21042 H 1968.12 3.68144 -0.593669 0
M  V30 21043 N 1970.31 0.904053 1.29092 0
M  V30 21044 C 1971.72 0.580096 1.77459 0
M  V30 21045 C 1972.07 -0.904375 1.74113 0
M  V30 21046 O 1971.19 -1.70724 1.32975 0
M  V30 21047 C 1971.79 1.04624 3.22241 0
M  V30 21048 C 1970.35 0.773375 3.68369 0
M  V30 21049 C 1969.5 1.21848 2.49095 0
M  V30 21050 H 1972.45 1.08633 1.15692 0
M  V30 21051 H 1972.47 0.383425 3.78563 0
M  V30 21052 H 1971.98 2.12669 3.24644 0
M  V30 21053 H 1970.08 -0.294271 3.71436 0
M  V30 21054 H 1970.19 1.37431 4.58966 0
M  V30 21055 H 1968.56 0.63739 2.46596 0
M  V30 21056 H 1969.34 2.30706 2.54223 0
M  V30 21057 N 1971.79 -1.4279 0.666995 0
M  V30 21058 C 1972.73 -2.30794 -0.0161644 0
M  V30 21059 C 1973.7 -1.45527 -0.800701 0
M  V30 21060 O 1974.89 -1.74372 -0.774527 0
M  V30 21061 C 1972.03 -3.31276 -0.966974 0
M  V30 21062 C 1971.14 -4.31637 -0.177086 0
M  V30 21063 C 1970.28 -5.19195 -1.12294 0
M  V30 21064 C 1969.31 -6.1124 -0.324284 0
M  V30 21065 N 1968.45 -6.91376 -1.22244 0
M  V30 21066 H 1973.29 -2.88662 0.74014 0
M  V30 21067 H 1970.83 -1.42194 0.376738 0
M  V30 21068 H 1972.79 -3.88054 -1.53198 0
M  V30 21069 H 1971.42 -2.75025 -1.69 0
M  V30 21070 H 1970.47 -3.77041 0.504428 0
M  V30 21071 H 1971.78 -4.96826 0.443328 0
M  V30 21072 H 1970.93 -5.80667 -1.75813 0
M  V30 21073 H 1969.67 -4.54164 -1.77725 0
M  V30 21074 H 1968.68 -5.48843 0.324174 0
M  V30 21075 H 1969.9 -6.78318 0.325818 0
M  V30 21076 H 1967.85 -6.28981 -1.86329 0
M  V30 21077 H 1967.77 -7.5314 -0.656918 0
M  V30 21078 H 1969.03 -7.57342 -1.84535 0
M  V30 21079 N 1973.26 -0.409806 -1.52179 0
M  V30 21080 C 1974.49 0.165235 -2.06239 0
M  V30 21081 C 1974.91 1.38804 -1.2798 0
M  V30 21082 O 1974.26 1.79458 -0.331843 0
M  V30 21083 C 1974.31 0.514997 -3.57813 0
M  V30 21084 O 1974.04 -0.659248 -4.33111 0
M  V30 21085 C 1975.54 1.1437 -4.28293 0
M  V30 21086 H 1972.76 0.0200917 -0.670699 0
M  V30 21087 H 1975.3 -0.580955 -1.96074 0
M  V30 21088 H 1973.46 1.21108 -3.67983 0
M  V30 21089 H 1973.87 -0.367126 -5.23214 0
M  V30 21090 H 1975.34 1.33863 -5.35523 0
M  V30 21091 H 1975.82 2.11699 -3.84812 0
M  V30 21092 H 1976.43 0.487795 -4.22493 0
M  V30 21093 N 1974.74 1.56975 -0.14025 0
M  V30 21094 C 1975.99 1.96196 0.513302 0
M  V30 21095 C 1976.32 1.02482 1.64958 0
M  V30 21096 O 1975.6 0.0659332 1.94388 0
M  V30 21097 C 1975.88 3.45178 1.02589 0
M  V30 21098 C 1975.73 4.49669 -0.108432 0
M  V30 21099 C 1977.05 3.96499 1.90989 0
M  V30 21100 H 1974.17 0.713374 0.185114 0
M  V30 21101 H 1976.81 1.88721 -0.220112 0
M  V30 21102 H 1974.96 3.51679 1.65088 0
M  V30 21103 H 1976.63 4.55252 -0.744538 0
M  V30 21104 H 1974.88 4.26937 -0.768558 0
M  V30 21105 H 1975.55 5.51228 0.291822 0
M  V30 21106 H 1978.02 3.92434 1.38329 0
M  V30 21107 H 1976.9 5.01219 2.23765 0
M  V30 21108 H 1977.16 3.38452 2.84433 0
M  V30 21109 N 1976.22 -0.133539 1.57033 0
M  V30 21110 C 1977.45 -0.857187 1.87978 0
M  V30 21111 C 1977.86 -1.74634 0.72799 0
M  V30 21112 O 1977.2 -1.81051 -0.310857 0
M  V30 21113 C 1977.26 -1.75448 3.13781 0
M  V30 21114 C 1976.93 -1.04112 4.44983 0
M  V30 21115 C 1977.92 -0.388703 5.18445 0
M  V30 21116 C 1975.61 -1.02662 4.91697 0
M  V30 21117 C 1977.6 0.268682 6.36833 0
M  V30 21118 C 1975.29 -0.365432 6.10006 0
M  V30 21119 C 1976.29 0.28108 6.82421 0
M  V30 21120 O 1975.98 0.931754 7.98482 0
M  V30 21121 H 1975.71 -0.252521 0.627064 0
M  V30 21122 H 1978.26 -0.126928 2.05007 0
M  V30 21123 H 1976.49 -2.52602 2.92796 0
M  V30 21124 H 1978.18 -2.35126 3.30863 0
M  V30 21125 H 1978.95 -0.391622 4.83416 0
M  V30 21126 H 1974.83 -1.51926 4.35246 0
M  V30 21127 H 1978.37 0.773893 6.93294 0
M  V30 21128 H 1974.27 -0.360226 6.44494 0
M  V30 21129 H 1975.03 0.834769 8.14232 0
M  V30 21130 N 1977.7 -1.52352 -0.403298 0
M  V30 21131 C 1978.94 -1.66944 -1.15141 0
M  V30 21132 C 1979.28 -0.401064 -1.90013 0
M  V30 21133 O 1978.55 0.60071 -1.84991 0
M  V30 21134 C 1978.83 -2.89526 -2.14118 0
M  V30 21135 C 1978.69 -4.26428 -1.43104 0
M  V30 21136 C 1980.01 -3.07636 -3.14719 0
M  V30 21137 H 1977.13 -0.607531 -0.417223 0
M  V30 21138 H 1979.77 -1.84919 -0.436447 0
M  V30 21139 H 1977.92 -2.74332 -2.7509 0
M  V30 21140 H 1979.59 -4.53362 -0.852075 0
M  V30 21141 H 1977.83 -4.27563 -0.732965 0
M  V30 21142 H 1978.5 -5.08258 -2.15355 0
M  V30 21143 H 1980.98 -3.21767 -2.63828 0
M  V30 21144 H 1979.86 -3.94909 -3.81232 0
M  V30 21145 H 1980.12 -2.2121 -3.82777 0
M  V30 21146 N 1979.18 0.660885 -1.43074 0
M  V30 21147 C 1980.12 1.77404 -1.47637 0
M  V30 21148 C 1981.09 1.62852 -0.326854 0
M  V30 21149 O 1982.28 1.83206 -0.532921 0
M  V30 21150 C 1979.42 3.15517 -1.39796 0
M  V30 21151 C 1978.53 3.41257 -2.64892 0
M  V30 21152 C 1977.67 4.69176 -2.49093 0
M  V30 21153 C 1976.7 4.87995 -3.69496 0
M  V30 21154 N 1975.84 6.07166 -3.52554 0
M  V30 21155 H 1980.68 1.72838 -2.42757 0
M  V30 21156 H 1978.22 0.843558 -1.20509 0
M  V30 21157 H 1980.18 3.9535 -1.33245 0
M  V30 21158 H 1978.81 3.19172 -0.482623 0
M  V30 21159 H 1977.86 2.55577 -2.81753 0
M  V30 21160 H 1979.17 3.51052 -3.5435 0
M  V30 21161 H 1978.32 5.57122 -2.40207 0
M  V30 21162 H 1977.06 4.61688 -1.57147 0
M  V30 21163 H 1976.07 3.98487 -3.78799 0
M  V30 21164 H 1977.29 4.97318 -4.62441 0
M  V30 21165 H 1975.24 6.00825 -2.63336 0
M  V30 21166 H 1975.16 6.17884 -4.35609 0
M  V30 21167 H 1976.42 6.97754 -3.47506 0
M  V30 21168 N 1980.65 1.29477 0.898527 0
M  V30 21169 C 1981.56 1.16595 2.03575 0
M  V30 21170 C 1982.58 0.0889285 1.73773 0
M  V30 21171 O 1983.76 0.301228 1.99135 0
M  V30 21172 C 1980.82 0.844745 3.36251 0
M  V30 21173 C 1979.88 2.00573 3.79564 0
M  V30 21174 C 1979.12 1.69975 5.05909 0
M  V30 21175 O 1979.34 0.621246 5.67007 0
M  V30 21176 O 1978.27 2.54809 5.45303 0
M  V30 21177 H 1982.1 2.12098 2.17367 0
M  V30 21178 H 1979.68 1.0894 1.02237 0
M  V30 21179 H 1981.57 0.680229 4.15874 0
M  V30 21180 H 1980.24 -0.080494 3.236 0
M  V30 21181 H 1979.15 2.22549 3.00704 0
M  V30 21182 H 1980.48 2.91221 3.96801 0
M  V30 21183 N 1982.13 -1.10905 1.11972 0
M  V30 21184 C 1983.1 -2.1529 0.786324 0
M  V30 21185 C 1984.1 -1.59589 -0.196987 0
M  V30 21186 O 1985.29 -1.74177 0.0281964 0
M  V30 21187 C 1982.42 -3.40488 0.167611 0
M  V30 21188 H 1983.61 -2.46295 1.71111 0
M  V30 21189 H 1981.16 -1.26185 0.922332 0
M  V30 21190 H 1981.9 -3.15096 -0.76713 0
M  V30 21191 H 1981.68 -3.822 0.875514 0
M  V30 21192 H 1983.17 -4.17571 -0.0493303 0
M  V30 21193 N 1983.61 -0.910886 -1.2861 0
M  V30 21194 C 1984.86 -0.53847 -1.94379 0
M  V30 21195 C 1985.17 0.92185 -1.72515 0
M  V30 21196 O 1986.38 1.40229 -2.32482 0
M  V30 21197 C 1984.83 -0.91216 -3.48149 0
M  V30 21198 C 1984.44 -2.39201 -3.78796 0
M  V30 21199 C 1986.19 -0.610192 -4.20092 0
M  V30 21200 C 1984.09 -2.70598 -5.25862 0
M  V30 21201 H 1983.02 -0.197657 -0.727632 0
M  V30 21202 H 1985.67 -1.10941 -1.46165 0
M  V30 21203 H 1984.06 -0.270034 -3.95078 0
M  V30 21204 H 1985.23 -3.08063 -3.42686 0
M  V30 21205 H 1983.55 -2.66414 -3.20019 0
M  V30 21206 H 1986.14 -0.821472 -5.28352 0
M  V30 21207 H 1986.49 0.451862 -4.1384 0
M  V30 21208 H 1987.02 -1.21066 -3.7893 0
M  V30 21209 H 1983.76 -3.75645 -5.37188 0
M  V30 21210 H 1983.28 -2.0637 -5.6318 0
M  V30 21211 H 1984.96 -2.57451 -5.93572 0
M  V30 21212 N 1985.09 1.42434 -0.674558 0
M  V30 21213 C 1986.37 1.95196 -0.125683 0
M  V30 21214 C 1986.75 1.61499 1.35946 0
M  V30 21215 O 1986.09 0.911023 2.09553 0
M  V30 21216 C 1986.3 3.46762 -0.39457 0
M  V30 21217 C 1987.65 4.2346 -0.310951 0
M  V30 21218 O 1988.68 3.54684 -0.328304 0
M  V30 21219 O 1987.53 5.45914 -0.252937 0
M  V30 21220 H 1984.63 0.826995 -0.00272875 0
M  V30 21221 H 1987.17 1.52263 -0.749271 0
M  V30 21222 H 1985.95 3.64493 -1.42339 0
M  V30 21223 H 1985.57 3.96742 0.261037 0
M  V30 21224 N 1986.57 0.417871 1.51959 0
M  V30 21225 C 1987.98 0.0691743 1.5945 0
M  V30 21226 C 1988.18 -1.41946 1.43016 0
M  V30 21227 O 1987.24 -2.18728 1.26152 0
M  V30 21228 C 1988.55 0.571902 2.95211 0
M  V30 21229 C 1990.1 0.530639 3.08469 0
M  V30 21230 C 1990.57 1.01002 4.46724 0
M  V30 21231 N 1992.07 0.967199 4.5299 0
M  V30 21232 C 1992.8 1.30921 5.58254 0
M  V30 21233 N 1992.3 1.72311 6.7103 0
M  V30 21234 N 1994.09 1.22862 5.48508 0
M  V30 21235 H 1986.24 1.38668 1.60888 0
M  V30 21236 H 1988.5 0.570206 0.757344 0
M  V30 21237 H 1988.21 1.6127 3.12546 0
M  V30 21238 H 1988.08 -0.0137455 3.77197 0
M  V30 21239 H 1990.47 -0.50113 2.90814 0
M  V30 21240 H 1990.55 1.15245 2.28369 0
M  V30 21241 H 1990.2 2.04016 4.65124 0
M  V30 21242 H 1990.13 0.364935 5.25334 0
M  V30 21243 H 1992.62 0.663 3.72039 0
M  V30 21244 H 1992.93 1.96696 7.47349 0
M  V30 21245 H 1991.27 1.76222 6.72288 0
M  V30 21246 H 1994.47 0.904063 4.59287 0
M  V30 21247 H 1994.64 1.49846 6.30437 0
M  V30 21248 N 1988.04 -1.56898 0.148573 0
M  V30 21249 C 1989.46 -1.58241 -0.207826 0
M  V30 21250 C 1989.66 -1.16291 -1.64556 0
M  V30 21251 O 1988.72 -0.863939 -2.3726 0
M  V30 21252 C 1990.03 -3.00654 0.0523559 0
M  V30 21253 C 1991.58 -3.12998 -0.0112297 0
M  V30 21254 C 1992.05 -4.57463 0.221641 0
M  V30 21255 N 1993.54 -4.62893 0.168624 0
M  V30 21256 C 1994.28 -5.72488 0.323296 0
M  V30 21257 N 1993.77 -6.90725 0.535776 0
M  V30 21258 N 1995.57 -5.61495 0.26079 0
M  V30 21259 H 1987.72 -1.82459 1.08731 0
M  V30 21260 H 1989.98 -0.8446 0.430529 0
M  V30 21261 H 1989.69 -3.3574 1.04745 0
M  V30 21262 H 1989.56 -3.71268 -0.666346 0
M  V30 21263 H 1991.95 -2.77752 -0.996873 0
M  V30 21264 H 1992.03 -2.44868 0.739826 0
M  V30 21265 H 1991.67 -4.93413 1.20439 0
M  V30 21266 H 1991.6 -5.23722 -0.549756 0
M  V30 21267 H 1994.09 -3.77899 0.00911581 0
M  V30 21268 H 1994.41 -7.70113 0.643862 0
M  V30 21269 H 1992.75 -6.92641 0.572117 0
M  V30 21270 H 1995.94 -4.68002 0.095543 0
M  V30 21271 H 1996.12 -6.46857 0.384765 0
M  V30 21272 N 1989.52 0.125209 -1.57102 0
M  V30 21273 C 1990.45 1.15521 -2.02922 0
M  V30 21274 C 1991.43 1.43549 -0.912559 0
M  V30 21275 O 1992.62 1.54097 -1.18185 0
M  V30 21276 C 1989.75 2.48297 -2.42829 0
M  V30 21277 C 1988.7 2.34744 -3.57881 0
M  V30 21278 C 1988.03 3.72427 -3.83669 0
M  V30 21279 C 1989.33 1.81317 -4.89818 0
M  V30 21280 H 1991.02 0.774129 -2.89219 0
M  V30 21281 H 1988.57 0.370935 -1.3914 0
M  V30 21282 H 1990.52 3.20597 -2.73487 0
M  V30 21283 H 1989.25 2.88283 -1.53495 0
M  V30 21284 H 1987.9 1.64893 -3.27423 0
M  V30 21285 H 1987.55 4.09887 -2.9155 0
M  V30 21286 H 1987.25 3.64215 -4.61109 0
M  V30 21287 H 1988.78 4.46242 -4.16773 0
M  V30 21288 H 1990.19 2.43429 -5.19052 0
M  V30 21289 H 1988.59 1.83941 -5.71214 0
M  V30 21290 H 1989.66 0.770291 -4.78743 0
M  V30 21291 N 1991 1.52564 0.395213 0
M  V30 21292 C 1991.95 1.73281 1.48181 0
M  V30 21293 C 1992.93 0.586818 1.49817 0
M  V30 21294 O 1994.13 0.844419 1.55559 0
M  V30 21295 C 1991.26 1.89948 2.85963 0
M  V30 21296 C 1990.34 3.10461 2.8892 0
M  V30 21297 N 1990.73 4.32923 2.61556 0
M  V30 21298 C 1989.03 3.10579 3.20088 0
M  V30 21299 C 1989.73 5.14487 2.71438 0
M  V30 21300 N 1988.71 4.50037 3.04906 0
M  V30 21301 H 1992.51 2.65596 1.25841 0
M  V30 21302 H 1990.02 1.50787 0.603091 0
M  V30 21303 H 1992.02 2.0291 3.64188 0
M  V30 21304 H 1990.68 0.988426 3.0929 0
M  V30 21305 H 1991.69 4.61161 2.35692 0
M  V30 21306 H 1988.37 2.29261 3.48921 0
M  V30 21307 H 1989.76 6.22089 2.53879 0
M  V30 21308 N 1992.48 -0.653289 1.43422 0
M  V30 21309 C 1993.73 -1.41319 1.45036 0
M  V30 21310 C 1994.05 -1.94357 0.074626 0
M  V30 21311 O 1993.31 -1.72707 -0.920363 0
M  V30 21312 C 1993.61 -2.6117 2.43978 0
M  V30 21313 C 1993.27 -2.2655 3.89854 0
M  V30 21314 C 1991.94 -2.16821 4.29584 0
M  V30 21315 C 1994.29 -1.98838 4.81781 0
M  V30 21316 C 1991.62 -1.77535 5.59194 0
M  V30 21317 C 1993.97 -1.61051 6.11756 0
M  V30 21318 C 1992.63 -1.49847 6.50463 0
M  V30 21319 H 1991.9 -0.517121 0.530723 0
M  V30 21320 H 1994.55 -0.742946 1.76501 0
M  V30 21321 H 1992.85 -3.33326 2.05916 0
M  V30 21322 H 1994.55 -3.19381 2.42481 0
M  V30 21323 H 1991.14 -2.35033 3.58409 0
M  V30 21324 H 1995.32 -2.05276 4.51858 0
M  V30 21325 H 1990.58 -1.67447 5.88023 0
M  V30 21326 H 1994.75 -1.38639 6.8246 0
M  V30 21327 H 1992.38 -1.19176 7.508 0
M  V30 21328 N 1993.96 -1.29952 -0.891648 0
M  V30 21329 C 1994.9 -1.15767 -1.99667 0
M  V30 21330 C 1995.87 -0.0488826 -1.66028 0
M  V30 21331 O 1997.06 -0.217864 -1.89552 0
M  V30 21332 C 1994.2 -0.848553 -3.34505 0
M  V30 21333 C 1993.31 -2.03857 -3.80876 0
M  V30 21334 C 1992.45 -1.66812 -5.04328 0
M  V30 21335 C 1991.49 -2.82348 -5.4309 0
M  V30 21336 N 1990.62 -2.45645 -6.57726 0
M  V30 21337 H 1995.46 -2.10304 -2.11131 0
M  V30 21338 H 1993 -1.04641 -1.03386 0
M  V30 21339 H 1994.96 -0.649983 -4.12106 0
M  V30 21340 H 1993.59 0.059928 -3.22744 0
M  V30 21341 H 1992.64 -2.34859 -2.99241 0
M  V30 21342 H 1993.95 -2.90402 -4.05547 0
M  V30 21343 H 1993.11 -1.43291 -5.89536 0
M  V30 21344 H 1991.84 -0.774269 -4.81515 0
M  V30 21345 H 1990.85 -3.06542 -4.56412 0
M  V30 21346 H 1992.07 -3.72409 -5.6788 0
M  V30 21347 H 1990.02 -1.58757 -6.365 0
M  V30 21348 H 1989.94 -3.25722 -6.82232 0
M  V30 21349 H 1991.21 -2.25463 -7.46181 0
M  V30 21350 N 1995.44 1.1031 -1.12559 0
M  V30 21351 C 1996.68 1.82567 -0.883005 0
M  V30 21352 C 1997.01 1.85031 0.589667 0
M  V30 21353 O 1996.29 1.3119 1.43595 0
M  V30 21354 C 1996.57 3.29171 -1.46009 0
M  V30 21355 C 1996.43 3.35032 -3.00122 0
M  V30 21356 C 1997.74 4.25591 -1.12073 0
M  V30 21357 H 1994.86 0.662829 -0.322221 0
M  V30 21358 H 1997.51 1.29276 -1.3924 0
M  V30 21359 H 1995.66 3.74684 -1.02685 0
M  V30 21360 H 1997.33 2.9799 -3.52135 0
M  V30 21361 H 1995.57 2.74892 -3.35584 0
M  V30 21362 H 1996.24 4.3827 -3.35595 0
M  V30 21363 H 1998.72 3.88318 -1.49494 0
M  V30 21364 H 1997.59 5.26528 -1.55112 0
M  V30 21365 H 1997.85 4.42088 -0.0331138 0
M  V30 21366 N 1996.91 0.917694 1.28125 0
M  V30 21367 C 1997.82 0.414339 2.30912 0
M  V30 21368 C 1998.84 -0.49998 1.66662 0
M  V30 21369 O 2000.02 -0.385213 1.97682 0
M  V30 21370 C 1997.08 -0.333886 3.45089 0
M  V30 21371 C 1996.14 0.614131 4.24885 0
M  V30 21372 C 1995.37 -0.0984806 5.33609 0
M  V30 21373 O 1995.6 -1.31956 5.54927 0
M  V30 21374 O 1994.53 0.568228 5.99212 0
M  V30 21375 H 1998.36 1.26755 2.75984 0
M  V30 21376 H 1995.94 0.682661 1.32891 0
M  V30 21377 H 1997.82 -0.756311 4.14557 0
M  V30 21378 H 1996.5 -1.16286 3.02091 0
M  V30 21379 H 1995.41 1.08603 3.57989 0
M  V30 21380 H 1996.74 1.41003 4.71571 0
M  V30 21381 N 1998.39 -1.42074 0.682102 0
M  V30 21382 C 1999.64 -2.01733 0.207714 0
M  V30 21383 C 1999.97 -1.53844 -1.18514 0
M  V30 21384 O 1999.25 -0.74378 -1.79717 0
M  V30 21385 C 1999.53 -3.59228 0.250438 0
M  V30 21386 C 1999.38 -4.17278 1.67927 0
M  V30 21387 C 2000.7 -4.38303 -0.397296 0
M  V30 21388 H 1997.82 -0.732972 0.0769518 0
M  V30 21389 H 2000.46 -1.69 0.868272 0
M  V30 21390 H 1998.61 -3.87245 -0.312007 0
M  V30 21391 H 2000.28 -4.00187 2.29452 0
M  V30 21392 H 1998.53 -3.7283 2.21767 0
M  V30 21393 H 1999.2 -5.26423 1.66079 0
M  V30 21394 H 2001.67 -4.1602 0.0815622 0
M  V30 21395 H 2000.55 -5.47866 -0.336797 0
M  V30 21396 H 2000.81 -4.16733 -1.476 0
M  V30 21397 N 1999.87 -0.425924 -1.51735 0
M  V30 21398 C 2000.82 0.391248 -2.2746 0
M  V30 21399 C 2001.79 1.02669 -1.30569 0
M  V30 21400 O 2002.97 1.04777 -1.59457 0
M  V30 21401 C 2000.11 1.4928 -3.11142 0
M  V30 21402 C 1999.22 0.876622 -4.23012 0
M  V30 21403 C 1998.36 1.95227 -4.94024 0
M  V30 21404 C 1997.4 1.31392 -5.97832 0
M  V30 21405 N 1996.54 2.33043 -6.62296 0
M  V30 21406 H 2001.38 -0.26089 -2.96856 0
M  V30 21407 H 1998.91 -0.1405 -1.46427 0
M  V30 21408 H 2000.87 2.14262 -3.57977 0
M  V30 21409 H 1999.5 2.11473 -2.43884 0
M  V30 21410 H 1998.55 0.115399 -3.80225 0
M  V30 21411 H 1999.86 0.370471 -4.97422 0
M  V30 21412 H 1999.02 2.67897 -5.44349 0
M  V30 21413 H 1997.76 2.49212 -4.19219 0
M  V30 21414 H 1996.76 0.572626 -5.4681 0
M  V30 21415 H 1997.99 0.781544 -6.74588 0
M  V30 21416 H 1995.93 2.86129 -5.9031 0
M  V30 21417 H 1995.85 1.87287 -7.32434 0
M  V30 21418 H 1997.12 3.05231 -7.17255 0
M  V30 21419 N 2001.35 1.56817 -0.156891 0
M  V30 21420 C 2002.76 1.83151 0.362283 0
M  V30 21421 C 2003.11 1.07606 1.64059 0
M  V30 21422 O 2002.23 0.324479 2.13953 0
M  V30 21423 C 2002.83 3.32228 0.664072 0
M  V30 21424 C 2001.39 3.59109 1.12773 0
M  V30 21425 C 2000.54 2.76861 0.155995 0
M  V30 21426 H 2003.49 1.54048 -0.381419 0
M  V30 21427 H 2003.51 3.48921 1.5177 0
M  V30 21428 H 2003.02 3.87184 -0.266475 0
M  V30 21429 H 2001.12 3.0955 2.07388 0
M  V30 21430 H 2001.23 4.67523 1.04687 0
M  V30 21431 H 1999.6 2.46251 0.650561 0
M  V30 21432 H 2000.38 3.34592 -0.768318 0
M  V30 21433 N 2002.83 -0.116876 1.57166 0
M  V30 21434 C 2003.79 -1.12735 1.99558 0
M  V30 21435 C 2004.79 -1.34188 0.886016 0
M  V30 21436 O 2005.98 -1.30669 1.15201 0
M  V30 21437 C 2003.11 -2.48135 2.33756 0
M  V30 21438 H 2004.3 -0.762948 2.90033 0
M  V30 21439 H 2001.86 -0.36124 1.52068 0
M  V30 21440 H 2002.59 -2.89492 1.46167 0
M  V30 21441 H 2002.38 -2.33918 3.14682 0
M  V30 21442 H 2003.87 -3.20855 2.67286 0
M  V30 21443 N 2004.3 -1.52772 -0.387116 0
M  V30 21444 C 2005.53 -1.72086 -1.15763 0
M  V30 21445 C 2005.95 -0.43912 -1.82903 0
M  V30 21446 O 2005.31 0.605254 -1.70899 0
M  V30 21447 C 2005.36 -2.87248 -2.17992 0
M  V30 21448 O 2004.46 -2.54353 -3.2462 0
M  V30 21449 H 2003.8 -0.572174 -0.336918 0
M  V30 21450 H 2006.33 -1.99571 -0.450833 0
M  V30 21451 H 2006.34 -3.12798 -2.61957 0
M  V30 21452 H 2005.02 -3.80232 -1.68513 0
M  V30 21453 H 2003.6 -2.39551 -2.8578 0
M  V30 21454 N 2005.78 0.645673 -1.43767 0
M  V30 21455 C 2007.03 1.40547 -1.45783 0
M  V30 21456 C 2007.36 1.94314 -0.0849322 0
M  V30 21457 O 2006.61 1.73193 0.911191 0
M  V30 21458 C 2006.91 2.59872 -2.45359 0
M  V30 21459 C 2006.58 2.2448 -3.91049 0
M  V30 21460 C 2005.24 2.1454 -4.30728 0
M  V30 21461 C 2007.59 1.9628 -4.82829 0
M  V30 21462 C 2004.92 1.74567 -5.60128 0
M  V30 21463 C 2007.27 1.57804 -6.12602 0
M  V30 21464 C 2005.93 1.46395 -6.51249 0
M  V30 21465 H 2005.2 0.5143 -0.533458 0
M  V30 21466 H 2007.85 0.733575 -1.76892 0
M  V30 21467 H 2006.16 3.32229 -2.07681 0
M  V30 21468 H 2007.85 3.1809 -2.44171 0
M  V30 21469 H 2004.44 2.33129 -3.59651 0
M  V30 21470 H 2008.63 2.02877 -4.5294 0
M  V30 21471 H 2003.88 1.64326 -5.88903 0
M  V30 21472 H 2008.06 1.35018 -6.83186 0
M  V30 21473 H 2005.68 1.15193 -7.51422 0
M  V30 21474 N 2007.26 1.30423 0.884744 0
M  V30 21475 C 2008.51 1.19259 1.63657 0
M  V30 21476 C 2008.83 -0.252645 1.92852 0
M  V30 21477 O 2008.09 -1.19718 1.5481 0
M  V30 21478 C 2008.39 1.96681 2.98415 0
M  V30 21479 C 2008.05 3.46298 2.8877 0
M  V30 21480 C 2006.72 3.87098 2.85847 0
M  V30 21481 C 2009.07 4.41573 2.7688 0
M  V30 21482 C 2006.4 5.21464 2.68873 0
M  V30 21483 C 2008.75 5.76047 2.61444 0
M  V30 21484 C 2007.41 6.16085 2.56896 0
M  V30 21485 H 2006.68 0.436399 0.598863 0
M  V30 21486 H 2009.33 1.61527 1.02865 0
M  V30 21487 H 2007.63 1.47049 3.63158 0
M  V30 21488 H 2009.33 1.85436 3.55548 0
M  V30 21489 H 2005.92 3.13877 2.91855 0
M  V30 21490 H 2010.11 4.10994 2.78205 0
M  V30 21491 H 2005.36 5.51577 2.63766 0
M  V30 21492 H 2009.54 6.49509 2.51218 0
M  V30 21493 H 2007.16 7.20147 2.43501 0
M  V30 21494 N 2008.74 -1.09711 1.13142 0
M  V30 21495 C 2009.68 -2.16265 0.806118 0
M  V30 21496 C 2010.65 -1.64493 -0.230476 0
M  V30 21497 O 2011.84 -1.9052 -0.103375 0
M  V30 21498 C 2008.98 -3.44002 0.275075 0
M  V30 21499 C 2008.09 -4.09688 1.37038 0
M  V30 21500 C 2007.23 -5.25172 0.797983 0
M  V30 21501 C 2006.27 -5.82775 1.87189 0
M  V30 21502 N 2005.4 -6.89625 1.31766 0
M  V30 21503 H 2010.24 -2.43434 1.71883 0
M  V30 21504 H 2007.78 -1.19482 0.858044 0
M  V30 21505 H 2009.74 -4.17169 -0.0509244 0
M  V30 21506 H 2008.37 -3.1716 -0.600779 0
M  V30 21507 H 2007.42 -3.34415 1.81302 0
M  V30 21508 H 2008.73 -4.48535 2.18215 0
M  V30 21509 H 2007.89 -6.05223 0.423093 0
M  V30 21510 H 2006.63 -4.87679 -0.0448997 0
M  V30 21511 H 2005.63 -5.01388 2.25588 0
M  V30 21512 H 2006.86 -6.2233 2.71812 0
M  V30 21513 H 2004.8 -6.54117 0.496729 0
M  V30 21514 H 2004.72 -7.27224 2.06594 0
M  V30 21515 H 2005.99 -7.73438 0.970242 0
M  V30 21516 N 2010.22 -0.924476 -1.27637 0
M  V30 21517 C 2011.16 -0.411501 -2.28931 0
M  V30 21518 C 2012.16 0.502472 -1.61776 0
M  V30 21519 O 2013.36 0.382531 -1.75888 0
M  V30 21520 H 2009.74 -0.114496 -0.743233 0
M  V30 21521 H 2011.71 -1.27869 -2.69615 0
M  V30 21522 C 2010.46 0.323415 -3.46193 0
M  V30 21523 H 2009.78 -0.37068 -3.98078 0
M  V30 21524 H 2011.22 0.646821 -4.19037 0
M  V30 21525 C 2009.68 1.53523 -2.99887 0
M  V30 21526 O 2010.21 2.63407 -3.03281 0
M  V30 21527 N 2008.42 1.38594 -2.55421 0
M  V30 21528 H 2007.96 0.491939 -2.52859 0
M  V30 21529 H 2007.92 2.198 -2.24801 0
M  V30 21530 N 2011.69 1.41711 -0.689627 0
M  V30 21531 C 2013.11 1.84377 -0.293587 0
M  V30 21532 C 2013.46 1.57711 1.16712 0
M  V30 21533 O 2012.58 1.0445 1.89523 0
M  V30 21534 C 2013.18 3.34691 -0.526073 0
M  V30 21535 C 2011.74 3.7595 -0.184009 0
M  V30 21536 C 2010.88 2.65167 -0.811277 0
M  V30 21537 H 2013.83 1.31347 -0.890718 0
M  V30 21538 H 2013.85 3.7988 0.217124 0
M  V30 21539 H 2013.37 3.54068 -1.58927 0
M  V30 21540 H 2011.47 3.62176 0.875158 0
M  V30 21541 H 2011.58 4.74875 -0.63488 0
M  V30 21542 H 2009.94 2.53554 -0.241363 0
M  V30 21543 H 2010.73 2.87363 -1.87822 0
M  V30 21544 N 2013.17 0.433965 1.51507 0
M  V30 21545 C 2014.12 -0.397051 2.24516 0
M  V30 21546 C 2015.11 -0.992896 1.26611 0
M  V30 21547 O 2016.3 -0.911595 1.5172 0
M  V30 21548 C 2013.43 -1.49953 3.08819 0
M  V30 21549 C 2012.51 -0.913247 4.1415 0
M  V30 21550 N 2012.9 -0.0558268 5.05769 0
M  V30 21551 C 2011.2 -1.18118 4.30074 0
M  V30 21552 C 2011.9 0.27308 5.81059 0
M  V30 21553 N 2010.88 -0.342445 5.4252 0
M  V30 21554 H 2014.68 0.264043 2.92712 0
M  V30 21555 H 2012.2 0.245838 1.60528 0
M  V30 21556 H 2014.19 -2.1077 3.59696 0
M  V30 21557 H 2012.85 -2.163 2.42166 0
M  V30 21558 H 2013.86 0.310359 5.16969 0
M  V30 21559 H 2010.54 -1.84239 3.74649 0
M  V30 21560 H 2011.93 0.970595 6.64853 0
M  V30 21561 N 2014.65 -1.56732 0.165206 0
M  V30 21562 C 2015.6 -2.18974 -0.784415 0
M  V30 21563 C 2016.59 -1.15199 -1.242 0
M  V30 21564 O 2017.8 -1.33411 -1.20837 0
M  V30 21565 H 2014.17 -0.701387 -0.27122 0
M  V30 21566 H 2016.14 -2.9747 -0.235435 0
M  V30 21567 C 2014.89 -2.83996 -2.00603 0
M  V30 21568 H 2014.22 -3.63574 -1.66295 0
M  V30 21569 H 2015.66 -3.31025 -2.6495 0
M  V30 21570 C 2014.12 -1.83448 -2.82574 0
M  V30 21571 O 2014.65 -1.31617 -3.79526 0
M  V30 21572 N 2012.85 -1.52342 -2.47468 0
M  V30 21573 H 2012.4 -1.94684 -1.68689 0
M  V30 21574 H 2012.36 -0.853184 -3.02602 0
M  V30 21575 N 2016.13 0.10854 -1.57226 0
M  V30 21576 C 2017.41 0.845372 -1.76388 0
M  V30 21577 C 2017.79 1.97577 -0.743397 0
M  V30 21578 O 2017.13 2.27333 0.230685 0
M  V30 21579 C 2017.34 1.3524 -3.21732 0
M  V30 21580 C 2018.69 1.80056 -3.84532 0
M  V30 21581 O 2019.72 1.44895 -3.25398 0
M  V30 21582 O 2018.57 2.45026 -4.88492 0
M  V30 21583 H 2015.67 0.402224 -0.722596 0
M  V30 21584 H 2018.21 0.0914662 -1.69453 0
M  V30 21585 H 2016.99 0.541866 -3.8753 0
M  V30 21586 H 2016.61 2.16871 -3.33246 0
M  V30 21587 N 2017.61 1.52975 0.379009 0
M  V30 21588 C 2018.54 1.73226 1.48553 0
M  V30 21589 C 2019.52 0.58029 1.51893 0
M  V30 21590 O 2020.7 0.81129 1.70148 0
M  V30 21591 C 2017.83 1.79892 2.86978 0
M  V30 21592 C 2016.87 3.01741 3.01421 0
M  V30 21593 S 2017.71 4.61527 2.71576 0
M  V30 21594 C 2018.86 4.71022 4.12176 0
M  V30 21595 H 2019.1 2.66808 1.31151 0
M  V30 21596 H 2016.63 1.43393 0.572513 0
M  V30 21597 H 2018.59 1.84418 3.66743 0
M  V30 21598 H 2017.25 0.873851 3.017 0
M  V30 21599 H 2016.44 3.02975 4.02768 0
M  V30 21600 H 2016.04 2.95258 2.29562 0
M  V30 21601 H 2018.34 4.50251 5.06241 0
M  V30 21602 H 2019.28 5.73052 4.15953 0
M  V30 21603 H 2019.69 3.99772 3.98551 0
M  V30 21604 N 2019.08 -0.63804 1.44107 0
M  V30 21605 C 2020.01 -1.76164 1.5326 0
M  V30 21606 C 2021 -1.6566 0.386107 0
M  V30 21607 O 2022.18 -1.84525 0.605326 0
M  V30 21608 C 2019.31 -3.14665 1.4698 0
M  V30 21609 C 2018.26 -3.39949 2.60035 0
M  V30 21610 C 2017.59 -4.78409 2.38808 0
M  V30 21611 C 2018.89 -3.33193 4.02219 0
M  V30 21612 H 2020.58 -1.6876 2.47306 0
M  V30 21613 H 2018.13 -0.810483 1.19026 0
M  V30 21614 H 2020.08 -3.93037 1.51986 0
M  V30 21615 H 2018.81 -3.22835 0.494471 0
M  V30 21616 H 2017.47 -2.63955 2.54408 0
M  V30 21617 H 2017.11 -4.83274 1.39483 0
M  V30 21618 H 2016.81 -4.96285 3.14602 0
M  V30 21619 H 2018.34 -5.5902 2.4562 0
M  V30 21620 H 2019.75 -4.0148 4.09252 0
M  V30 21621 H 2018.15 -3.62605 4.78161 0
M  V30 21622 H 2019.22 -2.31116 4.26279 0
M  V30 21623 N 2020.56 -1.3089 -0.877815 0
M  V30 21624 C 2021.51 -1.17796 -2.00566 0
M  V30 21625 C 2022.5 -0.0881167 -1.69171 0
M  V30 21626 O 2023.71 -0.249467 -1.78263 0
M  V30 21627 H 2020.09 -0.364508 -0.657752 0
M  V30 21628 H 2022.06 -2.13234 -2.08743 0
M  V30 21629 C 2020.81 -0.894005 -3.3601 0
M  V30 21630 H 2020.13 -1.72472 -3.60684 0
M  V30 21631 H 2021.57 -0.842526 -4.15545 0
M  V30 21632 C 2020.03 0.403175 -3.34479 0
M  V30 21633 O 2020.56 1.42245 -3.75672 0
M  V30 21634 N 2018.76 0.416903 -2.87594 0
M  V30 21635 H 2018.31 -0.413049 -2.54267 0
M  V30 21636 H 2018.27 1.28475 -2.86952 0
M  V30 21637 N 2022.04 1.0911 -1.13723 0
M  V30 21638 C 2023.29 1.81621 -0.902319 0
M  V30 21639 C 2023.62 1.85646 0.570009 0
M  V30 21640 O 2022.89 1.32706 1.42195 0
M  V30 21641 C 2023.18 3.27604 -1.49492 0
M  V30 21642 C 2023.03 3.3183 -3.03659 0
M  V30 21643 C 2024.35 4.24378 -1.16581 0
M  V30 21644 H 2021.47 0.659374 -0.329233 0
M  V30 21645 H 2024.11 1.27792 -1.40603 0
M  V30 21646 H 2022.26 3.73574 -1.06653 0
M  V30 21647 H 2023.93 2.94239 -3.55276 0
M  V30 21648 H 2022.18 2.71317 -3.38481 0
M  V30 21649 H 2022.85 4.34686 -3.40224 0
M  V30 21650 H 2025.32 3.8671 -1.53604 0
M  V30 21651 H 2024.2 5.24853 -1.60688 0
M  V30 21652 H 2024.46 4.42028 -0.0800013 0
M  V30 21653 N 2023.52 0.931232 1.27145 0
M  V30 21654 C 2024.47 0.423636 2.2871 0
M  V30 21655 C 2025.46 -0.493886 1.62041 0
M  V30 21656 O 2026.67 -0.373198 1.76089 0
M  V30 21657 H 2023.04 0.118436 0.742615 0
M  V30 21658 H 2025.01 1.29297 2.68933 0
M  V30 21659 C 2023.76 -0.305051 3.46359 0
M  V30 21660 H 2023.08 0.391786 3.97876 0
M  V30 21661 H 2024.52 -0.62459 4.19374 0
M  V30 21662 C 2022.98 -1.5193 3.00697 0
M  V30 21663 O 2023.51 -2.61795 3.04674 0
M  V30 21664 N 2021.72 -1.37237 2.56153 0
M  V30 21665 H 2021.27 -0.478522 2.53116 0
M  V30 21666 H 2021.22 -2.18605 2.25963 0
M  V30 21667 N 2025 -1.41343 0.697132 0
M  V30 21668 C 2025.93 -2.33452 0.0471857 0
M  V30 21669 C 2026.91 -1.51902 -0.765488 0
M  V30 21670 O 2028.09 -1.80434 -0.718146 0
M  V30 21671 C 2025.22 -3.35735 -0.888781 0
M  V30 21672 C 2024.18 -4.27608 -0.183088 0
M  V30 21673 C 2023.5 -5.20277 -1.23352 0
M  V30 21674 C 2024.8 -5.13559 0.951558 0
M  V30 21675 H 2026.5 -2.88052 0.816496 0
M  V30 21676 H 2024.04 -1.38502 0.394089 0
M  V30 21677 H 2026 -3.99098 -1.35272 0
M  V30 21678 H 2024.72 -2.79489 -1.68977 0
M  V30 21679 H 2023.38 -3.65671 0.260833 0
M  V30 21680 H 2023.03 -4.60346 -2.02708 0
M  V30 21681 H 2022.73 -5.82581 -0.766336 0
M  V30 21682 H 2024.25 -5.86517 -1.69793 0
M  V30 21683 H 2025.67 -5.70481 0.567835 0
M  V30 21684 H 2024.06 -5.84812 1.34593 0
M  V30 21685 H 2025.13 -4.50631 1.79053 0
M  V30 21686 N 2026.48 -0.441993 -1.51275 0
M  V30 21687 C 2027.44 0.355502 -2.26426 0
M  V30 21688 C 2028.44 0.945699 -1.30051 0
M  V30 21689 O 2029.63 0.819422 -1.53724 0
M  V30 21690 C 2026.76 1.50344 -3.05957 0
M  V30 21691 H 2027.95 -0.303177 -2.98364 0
M  V30 21692 H 2025.51 -0.195279 -1.55075 0
M  V30 21693 H 2026.24 2.19803 -2.38447 0
M  V30 21694 H 2026.03 1.08636 -3.7675 0
M  V30 21695 H 2027.52 2.06676 -3.6287 0
M  V30 21696 N 2027.95 1.56642 -0.173515 0
M  V30 21697 C 2028.9 2.1807 0.755917 0
M  V30 21698 C 2029.87 1.12136 1.22534 0
M  V30 21699 O 2031.06 1.40296 1.29312 0
M  V30 21700 C 2028.2 2.82726 1.97888 0
M  V30 21701 C 2027.31 4.03127 1.55282 0
M  V30 21702 C 2026.44 4.55703 2.72962 0
M  V30 21703 C 2025.48 5.68509 2.26857 0
M  V30 21704 N 2024.62 6.15585 3.37638 0
M  V30 21705 H 2029.46 2.97147 0.225305 0
M  V30 21706 H 2027 1.46763 0.0994783 0
M  V30 21707 H 2028.95 3.18371 2.69621 0
M  V30 21708 H 2027.58 2.0625 2.48316 0
M  V30 21709 H 2026.64 3.73288 0.732154 0
M  V30 21710 H 2027.95 4.84777 1.17441 0
M  V30 21711 H 2027.1 4.93541 3.52849 0
M  V30 21712 H 2025.84 3.73115 3.14065 0
M  V30 21713 H 2024.85 5.3022 1.45418 0
M  V30 21714 H 2026.07 6.529 1.8681 0
M  V30 21715 H 2024.02 5.35925 3.78312 0
M  V30 21716 H 2023.93 6.9223 3.03897 0
M  V30 21717 H 2025.2 6.58074 4.17803 0
M  V30 21718 N 2029.43 -0.1002 1.57281 0
M  V30 21719 C 2030.66 -0.818307 1.9003 0
M  V30 21720 C 2031.07 -1.72531 0.766704 0
M  V30 21721 O 2030.43 -1.80616 -0.261577 0
M  V30 21722 C 2030.48 -1.63596 3.22364 0
M  V30 21723 O 2030.2 -0.765449 4.31361 0
M  V30 21724 C 2031.7 -2.45758 3.68942 0
M  V30 21725 H 2028.92 -0.234253 0.628782 0
M  V30 21726 H 2031.47 -0.0789616 2.04347 0
M  V30 21727 H 2029.62 -2.32787 3.09659 0
M  V30 21728 H 2030.04 -1.33126 5.07324 0
M  V30 21729 H 2031.51 -2.9863 4.64246 0
M  V30 21730 H 2031.99 -3.23987 2.96528 0
M  V30 21731 H 2032.59 -1.81776 3.84497 0
M  V30 21732 N 2030.91 -1.53174 -0.370891 0
M  V30 21733 C 2031.86 -1.79899 -1.47442 0
M  V30 21734 C 2032.85 -0.667827 -1.55681 0
M  V30 21735 O 2034.06 -0.850668 -1.58631 0
M  V30 21736 H 2030.43 -0.56952 -0.491071 0
M  V30 21737 H 2032.4 -2.72275 -1.22102 0
M  V30 21738 C 2031.15 -2.00106 -2.84347 0
M  V30 21739 H 2030.48 -2.86585 -2.78764 0
M  V30 21740 H 2031.92 -2.22786 -3.60752 0
M  V30 21741 C 2030.37 -0.778651 -3.27778 0
M  V30 21742 O 2030.9 0.0352246 -4.01685 0
M  V30 21743 N 2029.11 -0.603599 -2.84262 0
M  V30 21744 H 2028.66 -1.26705 -2.24285 0
M  V30 21745 H 2028.62 0.212903 -3.13678 0
M  V30 21746 N 2032.39 0.630389 -1.44443 0
M  V30 21747 C 2033.66 1.38877 -1.3774 0
M  V30 21748 C 2034.04 2.11068 -0.0364918 0
M  V30 21749 O 2033.39 2.06373 0.98094 0
M  V30 21750 C 2033.6 2.35458 -2.57606 0
M  V30 21751 C 2034.95 2.98766 -3.01702 0
M  V30 21752 O 2035.97 2.45783 -2.57816 0
M  V30 21753 O 2034.83 3.94883 -3.77796 0
M  V30 21754 H 2031.93 0.621587 -0.54549 0
M  V30 21755 H 2034.47 0.655382 -1.56534 0
M  V30 21756 H 2033.25 1.81218 -3.46808 0
M  V30 21757 H 2032.87 3.16213 -2.41029 0
M  V30 21758 N 2033.87 1.31354 0.870861 0
M  V30 21759 C 2034.83 1.18889 1.95954 0
M  V30 21760 C 2035.83 0.116227 1.60379 0
M  V30 21761 O 2037.02 0.365426 1.70324 0
M  V30 21762 C 2034.15 0.824704 3.30774 0
M  V30 21763 H 2035.34 2.15624 2.08438 0
M  V30 21764 H 2032.9 1.14952 1.05904 0
M  V30 21765 H 2033.63 -0.141533 3.23991 0
M  V30 21766 H 2033.42 1.60006 3.57967 0
M  V30 21767 H 2034.91 0.761361 4.10601 0
M  V30 21768 N 2035.34 -1.08505 1.143 0
M  V30 21769 C 2036.59 -1.80248 0.90519 0
M  V30 21770 C 2036.91 -1.87116 -0.56981 0
M  V30 21771 O 2038.11 -2.55262 -0.924844 0
M  V30 21772 C 2036.57 -3.23851 1.56998 0
M  V30 21773 C 2036.18 -3.2522 3.08117 0
M  V30 21774 C 2037.92 -4.00284 1.41325 0
M  V30 21775 C 2035.83 -4.63405 3.67437 0
M  V30 21776 H 2034.76 -0.67549 0.335007 0
M  V30 21777 H 2037.41 -1.21877 1.3718 0
M  V30 21778 H 2035.79 -3.82342 1.03104 0
M  V30 21779 H 2036.96 -2.76441 3.68669 0
M  V30 21780 H 2035.28 -2.62281 3.23415 0
M  V30 21781 H 2037.88 -5.02393 1.83046 0
M  V30 21782 H 2038.22 -4.14747 0.359236 0
M  V30 21783 H 2038.75 -3.4826 1.9225 0
M  V30 21784 H 2035.49 -4.54145 4.72686 0
M  V30 21785 H 2035.01 -5.1247 3.11665 0
M  V30 21786 H 2036.69 -5.3238 3.6767 0
M  V30 21787 N 2036.82 -0.937962 -1.26649 0
M  V30 21788 C 2037.77 -0.443717 -2.26495 0
M  V30 21789 C 2038.74 0.494894 -1.58556 0
M  V30 21790 O 2039.92 0.411807 -1.86303 0
M  V30 21791 C 2037.06 0.287974 -3.43896 0
M  V30 21792 C 2036.18 -0.685936 -4.2652 0
M  V30 21793 C 2035.31 0.0666303 -5.31158 0
M  V30 21794 C 2034.35 -0.899313 -6.05457 0
M  V30 21795 N 2033.49 -0.17871 -7.01873 0
M  V30 21796 H 2038.33 -1.3001 -2.68144 0
M  V30 21797 H 2035.86 -0.652331 -1.31845 0
M  V30 21798 H 2037.82 0.728613 -4.10788 0
M  V30 21799 H 2036.45 1.10852 -3.03169 0
M  V30 21800 H 2035.5 -1.24509 -3.59446 0
M  V30 21801 H 2036.82 -1.42373 -4.7805 0
M  V30 21802 H 2035.97 0.566702 -6.04047 0
M  V30 21803 H 2034.71 0.837326 -4.80458 0
M  V30 21804 H 2033.71 -1.41054 -5.31398 0
M  V30 21805 H 2034.94 -1.66996 -6.58247 0
M  V30 21806 H 2032.89 0.573553 -6.53488 0
M  V30 21807 H 2032.8 -0.855891 -7.51139 0
M  V30 21808 H 2034.07 0.300374 -7.78921 0
M  V30 21809 N 2038.3 1.40971 -0.704618 0
M  V30 21810 C 2039.58 1.94885 -0.167059 0
M  V30 21811 C 2039.96 1.64346 1.3249 0
M  V30 21812 O 2039.3 0.955268 2.07574 0
M  V30 21813 C 2039.51 3.45847 -0.468035 0
M  V30 21814 C 2040.86 4.22705 -0.400704 0
M  V30 21815 O 2041.89 3.53908 -0.403464 0
M  V30 21816 O 2040.75 5.45255 -0.368676 0
M  V30 21817 H 2037.84 0.826752 -0.0202699 0
M  V30 21818 H 2040.39 1.50639 -0.7814 0
M  V30 21819 H 2039.16 3.61392 -1.50038 0
M  V30 21820 H 2038.78 3.97207 0.176823 0
M  V30 21821 N 2039.78 0.45001 1.51039 0
M  V30 21822 C 2040.71 -0.40053 2.24658 0
M  V30 21823 C 2041.69 -1.01409 1.27102 0
M  V30 21824 O 2042.87 -1.05411 1.56272 0
M  V30 21825 C 2040 -1.55933 3.0067 0
M  V30 21826 C 2039.05 -1.06522 4.12983 0
M  V30 21827 S 2039.88 0.00304687 5.355 0
M  V30 21828 C 2041.04 -1.16012 6.15054 0
M  V30 21829 H 2041.27 0.224453 2.96452 0
M  V30 21830 H 2038.8 0.234654 1.52606 0
M  V30 21831 H 2040.76 -2.22358 3.45061 0
M  V30 21832 H 2039.42 -2.15576 2.28442 0
M  V30 21833 H 2038.61 -1.93213 4.65494 0
M  V30 21834 H 2038.22 -0.479013 3.7092 0
M  V30 21835 H 2040.51 -2.076 6.4491 0
M  V30 21836 H 2041.45 -0.674722 7.04878 0
M  V30 21837 H 2041.86 -1.40442 5.46751 0
M  V30 21838 N 2041.26 -1.56548 0.18182 0
M  V30 21839 C 2042.48 -2.02015 -0.469543 0
M  V30 21840 C 2042.91 -1.06119 -1.55307 0
M  V30 21841 O 2042.26 -0.0424595 -1.8125 0
M  V30 21842 C 2042.31 -3.46016 -1.01515 0
M  V30 21843 O 2041.42 -3.53215 -2.12869 0
M  V30 21844 H 2040.76 -0.65461 -0.111273 0
M  V30 21845 H 2043.29 -2.02552 0.288798 0
M  V30 21846 H 2043.3 -3.85537 -1.33511 0
M  V30 21847 H 2041.97 -4.15308 -0.22188 0
M  V30 21848 H 2040.55 -3.2556 -1.81838 0
M  V30 21849 N 2042.73 0.0918577 -1.57332 0
M  V30 21850 C 2043.97 0.800334 -1.8808 0
M  V30 21851 C 2044.34 1.75743 -0.773207 0
M  V30 21852 O 2045.54 2.5095 -0.96319 0
M  V30 21853 C 2043.81 1.50715 -3.24067 0
M  V30 21854 S 2045.37 2.25346 -3.76516 0
M  V30 21855 H 2042.19 0.266573 -0.659136 0
M  V30 21856 H 2044.79 0.0573092 -1.95416 0
M  V30 21857 H 2043.49 0.7965 -4.02597 0
M  V30 21858 H 2043.02 2.29001 -3.19878 0
M  V30 21859 H 2045.04 3.51539 -3.50192 0
M  V30 21860 N 2044.21 1.53368 0.362763 0
M  V30 21861 C 2045.46 1.69938 1.10674 0
M  V30 21862 C 2045.79 0.451301 1.88883 0
M  V30 21863 O 2045.07 -0.551452 1.86519 0
M  V30 21864 C 2045.35 2.95101 2.06367 0
M  V30 21865 C 2045.2 4.30073 1.31748 0
M  V30 21866 C 2046.52 3.15872 3.06452 0
M  V30 21867 H 2043.64 0.61838 0.400968 0
M  V30 21868 H 2046.28 1.86011 0.387265 0
M  V30 21869 H 2044.43 2.81529 2.6772 0
M  V30 21870 H 2046.1 4.55462 0.731574 0
M  V30 21871 H 2044.35 4.29356 0.619347 0
M  V30 21872 H 2045.02 5.13789 2.01803 0
M  V30 21873 H 2047.49 3.28649 2.55204 0
M  V30 21874 H 2046.37 4.04878 3.70628 0
M  V30 21875 H 2046.63 2.31281 3.76778 0
M  V30 21876 N 2045.69 -0.62272 1.44776 0
M  V30 21877 C 2046.97 -1.38145 1.38475 0
M  V30 21878 C 2047.35 -2.11046 0.0476847 0
M  V30 21879 O 2046.7 -2.0689 -0.969982 0
M  V30 21880 C 2046.91 -2.34088 2.58851 0
M  V30 21881 C 2048.25 -2.97162 3.03282 0
M  V30 21882 O 2049.28 -2.44412 2.59116 0
M  V30 21883 O 2048.14 -3.92874 3.79885 0
M  V30 21884 H 2045.23 -0.618685 0.548779 0
M  V30 21885 H 2047.78 -0.647072 1.56879 0
M  V30 21886 H 2046.55 -1.79376 3.47764 0
M  V30 21887 H 2046.17 -3.1493 2.42703 0
M  V30 21888 N 2047.17 -1.31814 -0.863883 0
M  V30 21889 C 2048.1 -1.22574 -1.98741 0
M  V30 21890 C 2049.08 -0.111585 -1.69734 0
M  V30 21891 O 2050.26 -0.29721 -1.91912 0
M  V30 21892 C 2047.39 -0.938559 -3.34378 0
M  V30 21893 C 2046.35 -2.01295 -3.7771 0
M  V30 21894 C 2045.67 -1.57834 -5.10874 0
M  V30 21895 C 2046.97 -3.42684 -3.94164 0
M  V30 21896 H 2048.67 -2.16572 -2.06729 0
M  V30 21897 H 2046.21 -1.04262 -0.993246 0
M  V30 21898 H 2048.17 -0.860501 -4.12521 0
M  V30 21899 H 2046.89 0.0370783 -3.26579 0
M  V30 21900 H 2045.55 -2.081 -3.01811 0
M  V30 21901 H 2045.2 -0.5904 -4.99523 0
M  V30 21902 H 2044.9 -2.29713 -5.40838 0
M  V30 21903 H 2046.42 -1.51448 -5.9152 0
M  V30 21904 H 2047.84 -3.38519 -4.62685 0
M  V30 21905 H 2046.23 -4.12833 -4.35533 0
M  V30 21906 H 2047.3 -3.83023 -2.97358 0
M  V30 21907 N 2048.65 1.07897 -1.14873 0
M  V30 21908 C 2049.9 1.79765 -0.914736 0
M  V30 21909 C 2050.21 1.87416 0.559879 0
M  V30 21910 O 2051.41 2.55749 0.911294 0
M  V30 21911 C 2049.87 3.23014 -1.58713 0
M  V30 21912 C 2049.48 3.23581 -3.09837 0
M  V30 21913 C 2051.22 3.99529 -1.43446 0
M  V30 21914 C 2049.13 4.6145 -3.69889 0
M  V30 21915 H 2048.06 0.673704 -0.338585 0
M  V30 21916 H 2050.71 1.21148 -1.37824 0
M  V30 21917 H 2049.09 3.8179 -1.05131 0
M  V30 21918 H 2050.27 2.74482 -3.7013 0
M  V30 21919 H 2048.58 2.60562 -3.24802 0
M  V30 21920 H 2051.18 5.01415 -1.85708 0
M  V30 21921 H 2051.52 4.14551 -0.381226 0
M  V30 21922 H 2052.05 3.47235 -1.94094 0
M  V30 21923 H 2048.79 4.51632 -4.75088 0
M  V30 21924 H 2048.31 5.10809 -3.14378 0
M  V30 21925 H 2049.99 5.30422 -3.70488 0
M  V30 21926 N 2050.12 0.944665 1.2615 0
M  V30 21927 C 2051.06 0.401268 2.24644 0
M  V30 21928 C 2052.04 -0.511856 1.54333 0
M  V30 21929 O 2053.22 -0.44851 1.83086 0
M  V30 21930 C 2050.35 -0.423081 3.36047 0
M  V30 21931 C 2049.39 0.429013 4.24337 0
M  V30 21932 S 2050.23 1.85512 5.0234 0
M  V30 21933 C 2051.38 1.03892 6.17217 0
M  V30 21934 H 2051.61 1.236 2.70389 0
M  V30 21935 H 2049.15 0.748025 1.3507 0
M  V30 21936 H 2051.11 -0.892789 4.00674 0
M  V30 21937 H 2049.77 -1.23253 2.88907 0
M  V30 21938 H 2048.96 -0.202757 5.03592 0
M  V30 21939 H 2048.56 0.833541 3.64593 0
M  V30 21940 H 2050.85 0.282839 6.76909 0
M  V30 21941 H 2051.8 1.80505 6.84707 0
M  V30 21942 H 2052.2 0.573442 5.6158 0
M  V30 21943 N 2051.6 -1.40596 0.712085 0
M  V30 21944 C 2052.88 -1.94794 0.177392 0
M  V30 21945 C 2053.26 -1.65047 -1.31616 0
M  V30 21946 O 2052.61 -0.966262 -2.07064 0
M  V30 21947 C 2052.82 -3.45594 0.486369 0
M  V30 21948 C 2054.17 -4.22487 0.423115 0
M  V30 21949 O 2055.19 -3.53689 0.422227 0
M  V30 21950 O 2054.05 -5.45052 0.397587 0
M  V30 21951 H 2051.14 -0.826632 0.0246541 0
M  V30 21952 H 2053.69 -1.50223 0.789377 0
M  V30 21953 H 2052.46 -3.60591 1.51953 0
M  V30 21954 H 2052.08 -3.97295 -0.155756 0
M  V30 21955 N 2053.08 -0.458013 -1.50798 0
M  V30 21956 C 2054.33 0.101266 -2.01846 0
M  V30 21957 C 2054.65 1.41388 -1.34293 0
M  V30 21958 O 2053.92 1.89826 -0.484035 0
M  V30 21959 H 2052.5 0.0404137 -0.745906 0
M  V30 21960 H 2055.16 -0.605448 -1.85257 0
M  V30 21961 H 2054.26 0.262253 -3.10996 0
M  V30 21962 N 2054.56 1.56449 -0.190119 0
M  V30 21963 C 2055.51 2.1547 0.74544 0
M  V30 21964 C 2056.49 1.09408 1.17978 0
M  V30 21965 O 2057.69 1.35483 1.13901 0
M  V30 21966 C 2054.81 2.81371 1.96685 0
M  V30 21967 C 2053.9 3.94617 1.55364 0
M  V30 21968 N 2054.29 4.98588 0.851095 0
M  V30 21969 C 2052.59 4.06126 1.8433 0
M  V30 21970 C 2053.29 5.78116 0.644775 0
M  V30 21971 N 2052.27 5.3037 1.19198 0
M  V30 21972 H 2056.07 2.93219 0.199907 0
M  V30 21973 H 2053.58 1.62397 0.00985994 0
M  V30 21974 H 2055.58 3.22044 2.64752 0
M  V30 21975 H 2054.24 2.05108 2.51716 0
M  V30 21976 H 2055.25 5.15411 0.507098 0
M  V30 21977 H 2051.93 3.40986 2.40905 0
M  V30 21978 H 2053.32 6.71843 0.0878244 0
M  V30 21979 N 2056.04 -0.0835127 1.57379 0
M  V30 21980 C 2056.99 -1.11925 2.03901 0
M  V30 21981 C 2057.98 -1.40782 0.942168 0
M  V30 21982 O 2059.19 -1.40327 1.12732 0
M  V30 21983 H 2055.56 -0.378223 0.649963 0
M  V30 21984 H 2057.53 -0.70065 2.90058 0
M  V30 21985 C 2056.28 -2.42798 2.48887 0
M  V30 21986 H 2055.6 -2.21441 3.32873 0
M  V30 21987 H 2057.04 -3.13744 2.85203 0
M  V30 21988 C 2055.5 -3.07924 1.36692 0
M  V30 21989 O 2056.03 -3.9551 0.702482 0
M  V30 21990 N 2054.24 -2.68359 1.11498 0
M  V30 21991 H 2053.79 -1.97225 1.6571 0
M  V30 21992 H 2053.74 -3.12259 0.366326 0
M  V30 21993 N 2057.52 -1.53558 -0.354624 0
M  V30 21994 C 2058.76 -1.69489 -1.09346 0
M  V30 21995 C 2059.08 -0.458936 -1.9014 0
M  V30 21996 O 2060.28 -0.498981 -2.66875 0
M  V30 21997 C 2058.74 -2.99663 -1.99324 0
M  V30 21998 C 2058.35 -4.30558 -1.2379 0
M  V30 21999 C 2060.09 -3.2496 -2.73132 0
M  V30 22000 C 2058 -5.51814 -2.12733 0
M  V30 22001 H 2056.93 -0.631535 -0.411922 0
M  V30 22002 H 2059.58 -1.80059 -0.353687 0
M  V30 22003 H 2057.96 -2.82922 -2.77076 0
M  V30 22004 H 2059.14 -4.57966 -0.51025 0
M  V30 22005 H 2057.45 -4.11789 -0.617973 0
M  V30 22006 H 2060.05 -4.12739 -3.39927 0
M  V30 22007 H 2060.39 -2.41491 -3.39099 0
M  V30 22008 H 2060.92 -3.42426 -2.02458 0
M  V30 22009 H 2057.66 -6.37793 -1.51327 0
M  V30 22010 H 2057.18 -5.28669 -2.83317 0
M  V30 22011 H 2058.86 -5.87028 -2.72041 0
M  V30 22012 N 2058.99 0.615033 -1.45104 0
M  V30 22013 C 2060.22 1.40596 -1.52471 0
M  V30 22014 C 2060.64 1.87454 -0.155745 0
M  V30 22015 O 2060 1.59701 0.858209 0
M  V30 22016 C 2060.05 2.59156 -2.5074 0
M  V30 22017 O 2059.15 3.59538 -2.02006 0
M  V30 22018 H 2058.49 0.420045 -0.514255 0
M  V30 22019 H 2061.02 0.749208 -1.90389 0
M  V30 22020 H 2061.03 3.06496 -2.69303 0
M  V30 22021 H 2059.71 2.24399 -3.50169 0
M  V30 22022 H 2058.29 3.18897 -1.93284 0
M  V30 22023 N 2060.47 1.3227 0.85688 0
M  V30 22024 C 2061.4 1.23626 1.98088 0
M  V30 22025 C 2062.38 0.120585 1.69672 0
M  V30 22026 O 2063.57 0.307383 1.91752 0
M  V30 22027 C 2060.7 0.956279 3.33875 0
M  V30 22028 C 2059.65 2.03295 3.76637 0
M  V30 22029 C 2058.98 1.60541 5.1003 0
M  V30 22030 C 2060.28 3.4477 3.92341 0
M  V30 22031 H 2061.97 2.17665 2.05578 0
M  V30 22032 H 2059.52 1.04788 0.987703 0
M  V30 22033 H 2061.47 0.882366 4.12059 0
M  V30 22034 H 2060.19 -0.0197585 3.26594 0
M  V30 22035 H 2058.85 2.09698 3.00703 0
M  V30 22036 H 2058.5 0.616883 4.99203 0
M  V30 22037 H 2058.2 2.32578 5.39612 0
M  V30 22038 H 2059.73 1.54582 5.90709 0
M  V30 22039 H 2061.14 3.40968 4.60884 0
M  V30 22040 H 2059.54 4.15137 4.33338 0
M  V30 22041 H 2060.61 3.84594 2.95322 0
M  V30 22042 N 2061.95 -1.07287 1.15444 0
M  V30 22043 C 2062.88 -2.13891 0.795354 0
M  V30 22044 C 2063.86 -1.60987 -0.228497 0
M  V30 22045 O 2065.04 -1.88149 -0.114901 0
M  V30 22046 C 2062.17 -3.38206 0.182831 0
M  V30 22047 C 2061.22 -4.09889 1.17868 0
M  V30 22048 S 2062.05 -4.61217 2.72101 0
M  V30 22049 C 2063.21 -5.88806 2.1227 0
M  V30 22050 H 2063.44 -2.4402 1.69827 0
M  V30 22051 H 2060.97 -1.1957 0.976855 0
M  V30 22052 H 2062.93 -4.10172 -0.164129 0
M  V30 22053 H 2061.59 -3.06253 -0.697695 0
M  V30 22054 H 2060.78 -4.99138 0.698339 0
M  V30 22055 H 2060.39 -3.43891 1.47021 0
M  V30 22056 H 2062.68 -6.61021 1.48516 0
M  V30 22057 H 2063.62 -6.41555 2.99689 0
M  V30 22058 H 2064.03 -5.42358 1.56549 0
M  V30 22059 N 2063.43 -0.951342 -1.25647 0
M  V30 22060 C 2064.7 -0.521845 -1.8851 0
M  V30 22061 C 2065.08 1.00082 -1.85868 0
M  V30 22062 O 2064.43 1.86519 -1.31995 0
M  V30 22063 C 2064.64 -1.09473 -3.31386 0
M  V30 22064 C 2065.99 -1.16958 -4.08174 0
M  V30 22065 O 2067.01 -1.04605 -3.40494 0
M  V30 22066 O 2065.87 -1.36298 -5.29231 0
M  V30 22067 H 2062.97 -0.171638 -0.808993 0
M  V30 22068 H 2065.51 -1.04456 -1.33742 0
M  V30 22069 H 2064.29 -2.13807 -3.27723 0
M  V30 22070 H 2063.91 -0.555071 -3.93706 0
M  V30 22071 N 2064.91 1.40216 -0.719531 0
M  V30 22072 C 2065.84 2.33348 -0.08432 0
M  V30 22073 C 2066.82 1.53101 0.741225 0
M  V30 22074 O 2068 1.81553 0.68935 0
M  V30 22075 C 2065.13 3.37106 0.835256 0
M  V30 22076 C 2064.09 4.27845 0.115036 0
M  V30 22077 C 2063.41 5.22174 1.15059 0
M  V30 22078 C 2064.71 5.1198 -1.03314 0
M  V30 22079 H 2066.41 2.86716 -0.862219 0
M  V30 22080 H 2063.95 1.37858 -0.416073 0
M  V30 22081 H 2065.9 4.012 1.28905 0
M  V30 22082 H 2064.63 2.82142 1.6451 0
M  V30 22083 H 2063.29 3.6521 -0.318975 0
M  V30 22084 H 2062.94 4.63513 1.95359 0
M  V30 22085 H 2062.64 5.83727 0.673556 0
M  V30 22086 H 2064.16 5.89144 1.60441 0
M  V30 22087 H 2065.57 5.69505 -0.658522 0
M  V30 22088 H 2063.97 5.82596 -1.4388 0
M  V30 22089 H 2065.04 4.47725 -1.86199 0
M  V30 22090 N 2066.38 0.466004 1.50553 0
M  V30 22091 C 2067.31 -0.320802 2.31286 0
M  V30 22092 C 2068.29 -0.995008 1.37962 0
M  V30 22093 O 2069.48 -0.993158 1.66883 0
M  V30 22094 C 2066.61 -1.40607 3.17564 0
M  V30 22095 C 2065.56 -0.853763 4.19398 0
M  V30 22096 C 2064.89 -2.03694 4.94381 0
M  V30 22097 C 2066.19 0.131478 5.22134 0
M  V30 22098 H 2067.88 0.352995 2.97312 0
M  V30 22099 H 2065.43 0.171207 1.42979 0
M  V30 22100 H 2067.38 -1.96395 3.72836 0
M  V30 22101 H 2066.11 -2.10857 2.49413 0
M  V30 22102 H 2064.77 -0.317899 3.65219 0
M  V30 22103 H 2064.41 -2.7263 4.22708 0
M  V30 22104 H 2064.11 -1.67364 5.63261 0
M  V30 22105 H 2065.64 -2.59982 5.52487 0
M  V30 22106 H 2067.05 -0.337046 5.72308 0
M  V30 22107 H 2065.45 0.408804 5.98706 0
M  V30 22108 H 2066.52 1.05903 4.73194 0
M  V30 22109 N 2067.86 -1.56346 0.198413 0
M  V30 22110 C 2069.09 -2.02502 -0.44809 0
M  V30 22111 C 2069.51 -1.07761 -1.54173 0
M  V30 22112 O 2068.87 -0.0616812 -1.81195 0
M  V30 22113 C 2068.92 -3.47073 -0.978394 0
M  V30 22114 O 2068.02 -3.55452 -2.09111 0
M  V30 22115 H 2067.36 -0.655753 -0.104324 0
M  V30 22116 H 2069.89 -2.02234 0.310265 0
M  V30 22117 H 2069.9 -3.86931 -1.29415 0
M  V30 22118 H 2068.58 -4.1552 -0.177819 0
M  V30 22119 H 2067.15 -3.27471 -1.78375 0
M  V30 22120 N 2069.34 0.0751653 -1.57421 0
M  V30 22121 C 2070.57 0.791793 -1.91691 0
M  V30 22122 C 2070.99 1.70496 -0.794522 0
M  V30 22123 O 2070.35 1.79528 0.25284 0
M  V30 22124 C 2070.4 1.5643 -3.24903 0
M  V30 22125 O 2069.5 2.67473 -3.13898 0
M  V30 22126 H 2068.84 0.21624 -0.627803 0
M  V30 22127 H 2071.37 0.0444189 -2.04552 0
M  V30 22128 H 2071.38 1.94427 -3.58695 0
M  V30 22129 H 2070.06 0.894266 -4.06172 0
M  V30 22130 H 2068.63 2.32357 -2.91658 0
M  V30 22131 N 2070.82 1.53744 0.346476 0
M  V30 22132 C 2071.75 1.84512 1.43099 0
M  V30 22133 C 2072.73 0.700026 1.55028 0
M  V30 22134 O 2073.91 0.951666 1.69284 0
M  V30 22135 C 2071.04 2.0521 2.80189 0
M  V30 22136 C 2070 3.21022 2.8307 0
M  V30 22137 C 2069.32 3.27048 4.23018 0
M  V30 22138 C 2070.62 4.59196 2.4887 0
M  V30 22139 H 2072.32 2.75338 1.17599 0
M  V30 22140 H 2069.86 1.32483 0.564283 0
M  V30 22141 H 2071.82 2.25318 3.56103 0
M  V30 22142 H 2070.54 1.11113 3.07118 0
M  V30 22143 H 2069.2 3.00765 2.09609 0
M  V30 22144 H 2068.85 2.30551 4.47052 0
M  V30 22145 H 2068.55 4.0487 4.25857 0
M  V30 22146 H 2070.07 3.49363 5.00777 0
M  V30 22147 H 2071.49 4.79338 3.14496 0
M  V30 22148 H 2069.88 5.39401 2.62996 0
M  V30 22149 H 2070.95 4.63005 1.44064 0
M  V30 22150 N 2072.3 -0.607329 1.45428 0
M  V30 22151 C 2073.54 -1.36835 1.49679 0
M  V30 22152 C 2073.88 -1.93708 0.138148 0
M  V30 22153 O 2073.15 -1.75069 -0.847414 0
M  V30 22154 C 2073.43 -2.51607 2.57616 0
M  V30 22155 C 2073.29 -1.99929 4.02925 0
M  V30 22156 C 2074.61 -3.53738 2.61835 0
M  V30 22157 H 2071.72 -0.496187 0.544947 0
M  V30 22158 H 2074.37 -0.684587 1.77238 0
M  V30 22159 H 2072.52 -3.09936 2.34247 0
M  V30 22160 H 2074.19 -1.46247 4.37504 0
M  V30 22161 H 2072.43 -1.30929 4.1357 0
M  V30 22162 H 2073.1 -2.82666 4.74135 0
M  V30 22163 H 2075.58 -3.0525 2.82775 0
M  V30 22164 H 2074.45 -4.31533 3.39221 0
M  V30 22165 H 2074.72 -4.09372 1.66935 0
M  V30 22166 N 2073.77 -1.32722 -0.849853 0
M  V30 22167 C 2074.71 -1.16395 -1.96284 0
M  V30 22168 C 2075.69 -0.062185 -1.62481 0
M  V30 22169 O 2076.87 -0.222389 -1.87184 0
M  V30 22170 C 2074 -0.782885 -3.29528 0
M  V30 22171 C 2073.04 -1.89059 -3.82308 0
M  V30 22172 S 2073.88 -3.49971 -4.05315 0
M  V30 22173 C 2075.03 -3.13846 -5.41527 0
M  V30 22174 H 2075.26 -2.10613 -2.09832 0
M  V30 22175 H 2072.8 -1.17438 -1.00238 0
M  V30 22176 H 2074.76 -0.56979 -4.06526 0
M  V30 22177 H 2073.42 0.140502 -3.13786 0
M  V30 22178 H 2072.61 -1.57706 -4.78691 0
M  V30 22179 H 2072.21 -2.05978 -3.12169 0
M  V30 22180 H 2074.5 -2.63989 -6.23952 0
M  V30 22181 H 2075.45 -4.09269 -5.77845 0
M  V30 22182 H 2075.85 -2.50737 -5.05758 0
M  V30 22183 N 2075.25 1.06673 -1.16011 0
M  V30 22184 C 2076.48 1.83106 -0.963322 0
M  V30 22185 C 2076.9 1.82372 0.488451 0
M  V30 22186 O 2076.25 1.24012 1.33893 0
M  V30 22187 C 2076.3 3.29888 -1.47838 0
M  V30 22188 O 2076.02 3.30717 -2.87328 0
M  V30 22189 C 2077.53 4.23065 -1.32405 0
M  V30 22190 H 2074.75 0.577476 -0.341705 0
M  V30 22191 H 2077.29 1.34611 -1.53948 0
M  V30 22192 H 2075.44 3.75708 -0.944585 0
M  V30 22193 H 2075.86 4.22475 -3.1083 0
M  V30 22194 H 2077.33 5.24098 -1.73279 0
M  V30 22195 H 2077.81 4.38375 -0.269104 0
M  V30 22196 H 2078.42 3.83088 -1.84726 0
M  V30 22197 N 2076.73 0.957992 1.25141 0
M  V30 22198 C 2077.98 0.615503 1.93234 0
M  V30 22199 C 2078.31 -0.845811 1.74813 0
M  V30 22200 O 2077.58 -1.60729 1.09528 0
M  V30 22201 C 2077.87 0.979109 3.46533 0
M  V30 22202 C 2077.72 2.4964 3.74165 0
M  V30 22203 C 2079.04 0.506601 4.37175 0
M  V30 22204 H 2076.16 0.225085 0.701787 0
M  V30 22205 H 2078.8 1.19525 1.47695 0
M  V30 22206 H 2076.95 0.485773 3.85451 0
M  V30 22207 H 2078.62 3.06376 3.44865 0
M  V30 22208 H 2076.87 2.93263 3.19655 0
M  V30 22209 H 2077.54 2.70132 4.81386 0
M  V30 22210 H 2080.01 0.929831 4.05578 0
M  V30 22211 H 2078.89 0.789676 5.4319 0
M  V30 22212 H 2079.15 -0.59342 4.38099 0
M  V30 22213 N 2078.21 -1.39832 0.726957 0
M  V30 22214 C 2079.12 -2.34453 0.0830837 0
M  V30 22215 C 2080.13 -1.579 -0.731009 0
M  V30 22216 O 2081.31 -1.90232 -0.661338 0
M  V30 22217 C 2078.38 -3.3688 -0.819324 0
M  V30 22218 C 2077.44 -4.293 0.00610659 0
M  V30 22219 C 2076.67 -5.26834 -0.853324 0
M  V30 22220 O 2076.89 -5.30641 -2.09228 0
M  V30 22221 O 2075.83 -6.01219 -0.286261 0
M  V30 22222 H 2079.65 -2.91155 0.863845 0
M  V30 22223 H 2077.24 -1.41221 0.487543 0
M  V30 22224 H 2079.12 -3.99665 -1.33589 0
M  V30 22225 H 2077.79 -2.82574 -1.57904 0
M  V30 22226 H 2076.7 -3.69763 0.568007 0
M  V30 22227 H 2078.03 -4.86789 0.727856 0
M  V30 22228 N 2079.69 -0.473982 -1.50304 0
M  V30 22229 C 2080.94 0.0817089 -2.01534 0
M  V30 22230 C 2081.25 1.40522 -1.36062 0
M  V30 22231 O 2082.45 2.04602 -1.78466 0
M  V30 22232 C 2080.91 0.196125 -3.59365 0
M  V30 22233 C 2080.52 -1.11913 -4.33797 0
M  V30 22234 C 2082.26 0.70362 -4.18628 0
M  V30 22235 C 2080.17 -0.968348 -5.83418 0
M  V30 22236 H 2079.1 0.0343111 -0.753219 0
M  V30 22237 H 2081.75 -0.609316 -1.73088 0
M  V30 22238 H 2080.13 0.950997 -3.84411 0
M  V30 22239 H 2081.31 -1.88518 -4.20473 0
M  V30 22240 H 2079.62 -1.55796 -3.86156 0
M  V30 22241 H 2082.22 0.833506 -5.28164 0
M  V30 22242 H 2082.56 1.69569 -3.802 0
M  V30 22243 H 2083.09 0.00605141 -3.978 0
M  V30 22244 H 2079.83 -1.93387 -6.26324 0
M  V30 22245 H 2079.35 -0.242725 -5.99309 0
M  V30 22246 H 2081.03 -0.636128 -6.43865 0
M  V30 22247 N 2081.16 1.56239 -0.206702 0
M  V30 22248 C 2082.58 1.58903 0.148953 0
M  V30 22249 C 2082.78 1.22319 1.60126 0
M  V30 22250 O 2081.84 0.951402 2.3389 0
M  V30 22251 C 2083.15 3.00253 -0.163906 0
M  V30 22252 C 2084.7 3.12824 -0.104945 0
M  V30 22253 C 2085.17 4.56326 -0.391273 0
M  V30 22254 N 2086.66 4.61948 -0.340308 0
M  V30 22255 C 2087.4 5.70894 -0.535549 0
M  V30 22256 N 2086.89 6.88261 -0.791765 0
M  V30 22257 N 2088.69 5.6014 -0.469005 0
M  V30 22258 H 2080.84 1.78298 -1.15428 0
M  V30 22259 H 2083.1 0.828039 -0.46158 0
M  V30 22260 H 2082.81 3.31621 -1.17133 0
M  V30 22261 H 2082.68 3.73485 0.528093 0
M  V30 22262 H 2085.07 2.81261 0.893101 0
M  V30 22263 H 2085.15 2.41953 -0.830197 0
M  V30 22264 H 2084.79 4.88603 -1.38669 0
M  V30 22265 H 2084.72 5.25402 0.355001 0
M  V30 22266 H 2087.21 3.77605 -0.149364 0
M  V30 22267 H 2087.53 7.67193 -0.929241 0
M  V30 22268 H 2085.87 6.90041 -0.828792 0
M  V30 22269 H 2089.06 4.67325 -0.269173 0
M  V30 22270 H 2089.24 6.44983 -0.624576 0
M  V30 22271 N 2082.64 -0.0668159 1.57458 0
M  V30 22272 C 2083.59 -1.07888 2.04031 0
M  V30 22273 C 2084.56 -1.38168 0.921889 0
M  V30 22274 O 2085.74 -1.49151 1.1899 0
M  V30 22275 C 2082.88 -2.38598 2.49329 0
M  V30 22276 C 2082 -2.14805 3.7481 0
M  V30 22277 C 2081.13 -3.39114 4.0887 0
M  V30 22278 C 2080.17 -3.10708 5.27377 0
M  V30 22279 N 2079.31 -4.27361 5.57052 0
M  V30 22280 H 2084.15 -0.674755 2.9026 0
M  V30 22281 H 2081.69 -0.321602 1.43541 0
M  V30 22282 H 2083.64 -3.14919 2.73646 0
M  V30 22283 H 2082.27 -2.76804 1.6607 0
M  V30 22284 H 2081.33 -1.29154 3.57804 0
M  V30 22285 H 2082.64 -1.89826 4.61267 0
M  V30 22286 H 2081.79 -4.23827 4.34114 0
M  V30 22287 H 2080.53 -3.67174 3.2099 0
M  V30 22288 H 2079.54 -2.24392 5.01925 0
M  V30 22289 H 2080.76 -2.83966 6.16879 0
M  V30 22290 H 2078.71 -4.55443 4.72131 0
M  V30 22291 H 2078.62 -4.05673 6.37938 0
M  V30 22292 H 2079.89 -5.13057 5.8685 0
M  V30 22293 N 2084.12 -1.53926 -0.338317 0
M  V30 22294 C 2085.05 -1.78601 -1.43647 0
M  V30 22295 C 2086.07 -0.667465 -1.48488 0
M  V30 22296 O 2087.26 -0.944299 -1.51477 0
M  V30 22297 C 2084.36 -1.87548 -2.82274 0
M  V30 22298 C 2083.53 -3.17539 -3.00811 0
M  V30 22299 C 2082.59 -3.17377 -4.19712 0
M  V30 22300 O 2081.61 -3.91078 -4.13578 0
M  V30 22301 N 2082.82 -2.40116 -5.28512 0
M  V30 22302 H 2085.58 -2.73365 -1.22849 0
M  V30 22303 H 2083.14 -1.5304 -0.528227 0
M  V30 22304 H 2085.13 -1.84885 -3.6 0
M  V30 22305 H 2083.7 -0.999475 -2.96191 0
M  V30 22306 H 2082.92 -3.33284 -2.10512 0
M  V30 22307 H 2084.21 -4.03394 -3.10082 0
M  V30 22308 H 2083.61 -1.79799 -5.36366 0
M  V30 22309 H 2082.17 -2.43245 -6.04711 0
M  V30 22310 N 2085.6 0.599608 -1.45748 0
M  V30 22311 C 2086.55 1.73095 -1.55374 0
M  V30 22312 C 2087.54 1.64028 -0.423205 0
M  V30 22313 O 2088.75 1.69726 -0.599429 0
M  V30 22314 H 2085.12 0.572 -0.48818 0
M  V30 22315 H 2087.09 1.62104 -2.50529 0
M  V30 22316 C 2085.84 3.1148 -1.54517 0
M  V30 22317 H 2085.17 3.19119 -2.40838 0
M  V30 22318 H 2086.61 3.90447 -1.65309 0
M  V30 22319 C 2085.06 3.35809 -0.270913 0
M  V30 22320 O 2085.59 3.96473 0.645927 0
M  V30 22321 N 2083.8 2.90136 -0.164103 0
M  V30 22322 H 2083.35 2.40951 -0.911075 0
M  V30 22323 H 2083.31 3.06788 0.687647 0
M  V30 22324 N 2087.08 1.33171 0.842803 0
M  V30 22325 C 2088.01 1.17435 1.95664 0
M  V30 22326 C 2088.99 0.0708009 1.62446 0
M  V30 22327 O 2090.17 0.232312 1.87063 0
M  V30 22328 C 2087.3 0.80035 3.29108 0
M  V30 22329 C 2086.35 1.91083 3.813 0
M  V30 22330 S 2087.18 3.52116 4.03453 0
M  V30 22331 C 2088.33 3.16714 5.39855 0
M  V30 22332 H 2088.57 2.11722 2.08713 0
M  V30 22333 H 2086.1 1.17968 0.996135 0
M  V30 22334 H 2088.06 0.591341 4.06218 0
M  V30 22335 H 2086.72 -0.123859 3.13856 0
M  V30 22336 H 2085.91 1.60242 4.77848 0
M  V30 22337 H 2085.51 2.0763 3.11072 0
M  V30 22338 H 2087.81 2.67294 6.22543 0
M  V30 22339 H 2088.75 4.12328 5.75666 0
M  V30 22340 H 2089.16 2.53416 5.04421 0
M  V30 22341 N 2088.56 -1.06056 1.16576 0
M  V30 22342 C 2089.78 -1.83131 0.973539 0
M  V30 22343 C 2090.21 -1.82047 -0.473358 0
M  V30 22344 O 2089.56 -1.22303 -1.33834 0
M  V30 22345 C 2089.61 -3.2753 1.50852 0
M  V30 22346 O 2088.72 -4.06129 0.716451 0
M  V30 22347 H 2088.06 -0.566557 0.346279 0
M  V30 22348 H 2090.59 -1.33704 1.54869 0
M  V30 22349 H 2090.6 -3.78346 1.52704 0
M  V30 22350 H 2089.27 -3.27634 2.56181 0
M  V30 22351 H 2087.85 -3.64892 0.768639 0
M  V30 22352 N 2090.03 -0.964615 -1.24631 0
M  V30 22353 C 2090.94 -0.499755 -2.29215 0
M  V30 22354 C 2091.96 0.43778 -1.68403 0
M  V30 22355 O 2093.14 0.311579 -1.98975 0
M  V30 22356 C 2090.2 0.205579 -3.4609 0
M  V30 22357 C 2089.26 -0.771401 -4.22313 0
M  V30 22358 C 2088.49 -0.0996328 -5.33607 0
M  V30 22359 O 2088.72 1.11269 -5.59442 0
M  V30 22360 O 2087.65 -0.79023 -5.9669 0
M  V30 22361 H 2091.48 -1.3691 -2.71089 0
M  V30 22362 H 2089.06 -0.731512 -1.30266 0
M  V30 22363 H 2090.94 0.601929 -4.17079 0
M  V30 22364 H 2089.62 1.04994 -3.06199 0
M  V30 22365 H 2088.53 -1.21815 -3.53712 0
M  V30 22366 H 2089.86 -1.58408 -4.66012 0
M  V30 22367 N 2091.51 1.39445 -0.734362 0
M  V30 22368 C 2092.76 2.00526 -0.282025 0
M  V30 22369 C 2093.09 1.58268 1.13055 0
M  V30 22370 O 2092.34 0.802491 1.7849 0
M  V30 22371 C 2092.64 3.55865 -0.330927 0
M  V30 22372 C 2092.31 4.1777 -1.69643 0
M  V30 22373 C 2090.97 4.34393 -2.07017 0
M  V30 22374 C 2093.32 4.52119 -2.59302 0
M  V30 22375 C 2090.65 4.82653 -3.3356 0
M  V30 22376 C 2093 5.01788 -3.85217 0
M  V30 22377 C 2091.66 5.16618 -4.22684 0
M  V30 22378 H 2090.93 0.733778 -0.1032 0
M  V30 22379 H 2093.58 1.66781 -0.94108 0
M  V30 22380 H 2091.89 3.89631 0.411703 0
M  V30 22381 H 2093.58 4.00983 0.0371893 0
M  V30 22382 H 2090.17 4.05233 -1.39584 0
M  V30 22383 H 2094.36 4.38896 -2.31698 0
M  V30 22384 H 2089.61 4.9232 -3.62534 0
M  V30 22385 H 2093.79 5.27339 -4.54848 0
M  V30 22386 H 2091.41 5.53775 -5.20805 0
M  V30 22387 N 2092.99 0.481946 1.5005 0
M  V30 22388 C 2093.92 -0.352787 2.25457 0
M  V30 22389 C 2094.9 -0.986902 1.29225 0
M  V30 22390 O 2096.08 -1.02072 1.58472 0
M  V30 22391 C 2093.21 -1.4952 3.0391 0
M  V30 22392 C 2092.26 -0.977381 4.1515 0
M  V30 22393 S 2093.09 0.116634 5.35373 0
M  V30 22394 C 2094.25 -1.0294 6.17377 0
M  V30 22395 H 2094.48 0.287284 2.95909 0
M  V30 22396 H 2092.01 0.266971 1.52074 0
M  V30 22397 H 2093.97 -2.14989 3.497 0
M  V30 22398 H 2092.63 -2.10682 2.32963 0
M  V30 22399 H 2091.82 -1.83296 4.69488 0
M  V30 22400 H 2091.43 -0.400227 3.71852 0
M  V30 22401 H 2093.72 -1.93874 6.49168 0
M  V30 22402 H 2094.66 -0.525055 7.06151 0
M  V30 22403 H 2095.07 -1.28813 5.49607 0
M  V30 22404 N 2094.47 -1.56127 0.214985 0
M  V30 22405 C 2095.38 -2.2362 -0.709323 0
M  V30 22406 C 2096.39 -1.24168 -1.21895 0
M  V30 22407 O 2097.57 -1.56962 -1.26194 0
M  V30 22408 C 2094.63 -2.89781 -1.90337 0
M  V30 22409 C 2093.7 -4.04558 -1.43636 0
M  V30 22410 C 2092.93 -4.67555 -2.57349 0
M  V30 22411 O 2093.15 -4.29521 -3.75324 0
M  V30 22412 O 2092.09 -5.56666 -2.28925 0
M  V30 22413 H 2095.91 -3.03255 -0.164408 0
M  V30 22414 H 2093.5 -1.49392 -0.0151812 0
M  V30 22415 H 2095.38 -3.31565 -2.60082 0
M  V30 22416 H 2094.05 -2.1311 -2.43651 0
M  V30 22417 H 2092.96 -3.67356 -0.707115 0
M  V30 22418 H 2094.29 -4.82951 -0.94967 0
M  V30 22419 N 2095.95 0.0584645 -1.57492 0
M  V30 22420 C 2096.88 1.0681 -2.07639 0
M  V30 22421 C 2097.86 1.3955 -0.972622 0
M  V30 22422 O 2099.04 1.48946 -1.24615 0
M  V30 22423 C 2096.17 2.37774 -2.53142 0
M  V30 22424 C 2095.13 2.19354 -3.67516 0
M  V30 22425 C 2094.45 3.5582 -3.9912 0
M  V30 22426 C 2095.75 1.60379 -4.97067 0
M  V30 22427 H 2097.45 0.650765 -2.92242 0
M  V30 22428 H 2094.99 0.311587 -1.40589 0
M  V30 22429 H 2096.94 3.08709 -2.86839 0
M  V30 22430 H 2095.67 2.81513 -1.65583 0
M  V30 22431 H 2094.33 1.50858 -3.34122 0
M  V30 22432 H 2093.98 3.97153 -3.08672 0
M  V30 22433 H 2093.68 3.4433 -4.76142 0
M  V30 22434 H 2095.2 4.28164 -4.35325 0
M  V30 22435 H 2096.61 2.21195 -5.2891 0
M  V30 22436 H 2095.01 1.59548 -5.78502 0
M  V30 22437 H 2096.08 0.566547 -4.81579 0
M  V30 22438 N 2097.42 1.54103 0.330149 0
M  V30 22439 C 2098.67 1.73185 1.0667 0
M  V30 22440 C 2099.02 0.496012 1.85896 0
M  V30 22441 O 2098.32 -0.511524 1.84646 0
M  V30 22442 C 2098.51 2.94358 2.02702 0
M  V30 22443 C 2098.34 4.29608 1.32916 0
M  V30 22444 C 2097.11 4.93876 1.06841 0
M  V30 22445 C 2099.31 5.08825 0.748462 0
M  V30 22446 N 2097.29 6.1297 0.337775 0
M  V30 22447 C 2098.66 6.19821 0.149089 0
M  V30 22448 C 2100.72 4.93631 0.650627 0
M  V30 22449 C 2099.42 7.17281 -0.538618 0
M  V30 22450 C 2101.45 5.91395 -0.0233663 0
M  V30 22451 C 2100.81 7.01739 -0.611712 0
M  V30 22452 H 2096.91 0.686626 0.374258 0
M  V30 22453 H 2099.49 1.91553 0.348664 0
M  V30 22454 H 2097.66 2.77468 2.71783 0
M  V30 22455 H 2099.39 3.02098 2.69293 0
M  V30 22456 H 2096.15 4.53682 1.35903 0
M  V30 22457 H 2096.57 6.76999 -0.0132085 0
M  V30 22458 H 2101.21 4.08475 1.09122 0
M  V30 22459 H 2098.93 8.02 -0.991066 0
M  V30 22460 H 2102.52 5.81716 -0.0986164 0
M  V30 22461 H 2101.4 7.76089 -1.12497 0
M  V30 22462 N 2098.9 -0.59187 1.46064 0
M  V30 22463 C 2100.13 -1.38153 1.54688 0
M  V30 22464 C 2100.55 -1.87183 0.185547 0
M  V30 22465 O 2099.91 -1.61046 -0.832694 0
M  V30 22466 C 2099.96 -2.55134 2.54831 0
M  V30 22467 O 2099.06 -3.56279 2.077 0
M  V30 22468 H 2098.4 -0.41181 0.520873 0
M  V30 22469 H 2100.93 -0.718824 1.91557 0
M  V30 22470 H 2100.94 -3.02173 2.74145 0
M  V30 22471 H 2099.62 -2.188 3.53694 0
M  V30 22472 H 2098.2 -3.15782 1.98333 0
M  V30 22473 N 2100.38 -1.33616 -0.835729 0
M  V30 22474 C 2101.31 -1.19968 -1.95296 0
M  V30 22475 C 2102.33 -0.129874 -1.62281 0
M  V30 22476 O 2103.51 -0.380581 -1.74396 0
M  V30 22477 C 2100.61 -0.818275 -3.28873 0
M  V30 22478 C 2099.79 -1.98038 -3.9 0
M  V30 22479 C 2098.85 -1.57944 -5.01936 0
M  V30 22480 O 2097.87 -2.29423 -5.20916 0
M  V30 22481 N 2099.07 -0.486237 -5.7846 0
M  V30 22482 H 2101.84 -2.16212 -2.0754 0
M  V30 22483 H 2099.4 -1.26403 -1.01163 0
M  V30 22484 H 2101.39 -0.532092 -4.01187 0
M  V30 22485 H 2099.96 0.053577 -3.12554 0
M  V30 22486 H 2099.18 -2.43201 -3.10237 0
M  V30 22487 H 2100.47 -2.75789 -4.27572 0
M  V30 22488 H 2099.87 0.108268 -5.65596 0
M  V30 22489 H 2098.43 -0.259739 -6.51282 0
M  V30 22490 N 2101.86 1.05436 -1.17136 0
M  V30 22491 C 2103.11 1.78041 -0.956331 0
M  V30 22492 C 2103.43 1.88035 0.516524 0
M  V30 22493 O 2102.7 1.39532 1.37505 0
M  V30 22494 H 2101.28 0.659483 -0.350843 0
M  V30 22495 H 2103.94 1.2732 -1.47566 0
M  V30 22496 H 2103.04 2.79808 -1.38253 0
M  V30 22497 N 2103.34 0.971211 1.24118 0
M  V30 22498 C 2104.59 0.630598 1.91589 0
M  V30 22499 C 2104.9 -0.838491 1.76716 0
M  V30 22500 O 2106.1 -1.28978 2.38908 0
M  V30 22501 C 2104.56 1.07723 3.434 0
M  V30 22502 C 2104.17 2.57002 3.66953 0
M  V30 22503 C 2105.91 0.809928 4.16702 0
M  V30 22504 C 2103.82 2.95379 5.12352 0
M  V30 22505 H 2102.75 0.232148 0.717373 0
M  V30 22506 H 2105.4 1.17789 1.40706 0
M  V30 22507 H 2103.78 0.458223 3.9334 0
M  V30 22508 H 2104.96 3.24062 3.27598 0
M  V30 22509 H 2103.27 2.8138 3.06944 0
M  V30 22510 H 2105.87 1.07262 5.23831 0
M  V30 22511 H 2106.21 -0.253899 4.15525 0
M  V30 22512 H 2106.74 1.39007 3.72722 0
M  V30 22513 H 2103.48 4.00847 5.18654 0
M  V30 22514 H 2103 2.33005 5.52692 0
M  V30 22515 H 2104.68 2.85478 5.80613 0
M  V30 22516 N 2104.81 -1.39054 0.741747 0
M  V30 22517 C 2106.04 -2.05193 0.301789 0
M  V30 22518 C 2106.46 -1.55567 -1.05739 0
M  V30 22519 O 2105.82 -0.702382 -1.67141 0
M  V30 22520 C 2105.87 -3.59172 0.320615 0
M  V30 22521 O 2104.97 -4.06596 -0.68946 0
M  V30 22522 H 2104.32 -0.649957 0.135837 0
M  V30 22523 H 2106.85 -1.77958 1.00956 0
M  V30 22524 H 2106.86 -4.07657 0.167351 0
M  V30 22525 H 2105.53 -3.94652 1.31234 0
M  V30 22526 H 2104.11 -3.69509 -0.50178 0
M  V30 22527 N 2106.29 -0.489897 -1.49792 0
M  V30 22528 C 2107.57 0.121028 -1.95225 0
M  V30 22529 C 2107.95 1.55194 -1.43101 0
M  V30 22530 O 2107.3 2.19354 -0.639992 0
M  V30 22531 C 2107.51 0.045071 -3.48971 0
M  V30 22532 C 2108.86 0.224571 -4.24006 0
M  V30 22533 O 2109.88 0.120781 -3.55995 0
M  V30 22534 O 2108.74 0.436269 -5.44756 0
M  V30 22535 H 2105.83 0.101395 -0.820761 0
M  V30 22536 H 2108.38 -0.551643 -1.60484 0
M  V30 22537 H 2107.15 -0.953242 -3.79512 0
M  V30 22538 H 2106.77 0.758377 -3.903 0
M  V30 22539 N 2107.77 1.56011 -0.223262 0
M  V30 22540 C 2109.05 1.90185 0.457074 0
M  V30 22541 C 2109.43 1.14083 1.77618 0
M  V30 22542 O 2108.78 0.250703 2.27121 0
M  V30 22543 C 2108.99 3.42925 0.648347 0
M  V30 22544 C 2110.33 4.13721 0.955 0
M  V30 22545 O 2111.36 3.48533 0.735072 0
M  V30 22546 O 2110.22 5.28985 1.37248 0
M  V30 22547 H 2107.31 0.790827 0.241912 0
M  V30 22548 H 2109.86 1.67609 -0.265573 0
M  V30 22549 H 2108.63 3.90282 -0.282045 0
M  V30 22550 H 2108.25 3.71286 1.42242 0
M  V30 22551 N 2109.25 -0.0501116 1.5752 0
M  V30 22552 C 2110.53 -0.779325 1.79404 0
M  V30 22553 C 2110.91 -1.94682 0.816214 0
M  V30 22554 O 2110.25 -2.28032 -0.146153 0
M  V30 22555 C 2110.46 -1.23206 3.26529 0
M  V30 22556 C 2111.81 -1.65661 3.9095 0
M  V30 22557 O 2112.84 -1.32718 3.30552 0
M  V30 22558 O 2111.69 -2.26728 4.97249 0
M  V30 22559 H 2108.79 -0.375128 0.737026 0
M  V30 22560 H 2111.33 -0.0285117 1.69676 0
M  V30 22561 H 2110.11 -0.397664 3.89274 0
M  V30 22562 H 2109.73 -2.04353 3.41065 0
M  V30 22563 N 2110.73 -1.54276 -0.321972 0
M  V30 22564 C 2111.67 -1.84499 -1.41644 0
M  V30 22565 C 2112.67 -0.717018 -1.53477 0
M  V30 22566 O 2113.87 -0.900704 -1.55844 0
M  V30 22567 H 2110.25 -0.584855 -0.472704 0
M  V30 22568 H 2112.22 -2.76022 -1.13378 0
M  V30 22569 C 2110.97 -2.09051 -2.77836 0
M  V30 22570 H 2110.29 -2.95308 -2.69505 0
M  V30 22571 H 2111.73 -2.3415 -3.53482 0
M  V30 22572 C 2110.19 -0.882537 -3.25135 0
M  V30 22573 O 2110.72 -0.0925862 -4.01593 0
M  V30 22574 N 2108.93 -0.693729 -2.82198 0
M  V30 22575 H 2108.47 -1.33776 -2.2014 0
M  V30 22576 H 2108.43 0.113 -3.14197 0
M  V30 22577 N 2112.2 0.584116 -1.46376 0
M  V30 22578 C 2113.48 1.34425 -1.42089 0
M  V30 22579 C 2113.86 2.10846 -0.103623 0
M  V30 22580 O 2113.21 2.09389 0.914788 0
M  V30 22581 C 2113.42 2.27143 -2.64966 0
M  V30 22582 C 2114.77 2.89016 -3.11054 0
M  V30 22583 O 2115.79 2.37457 -2.65505 0
M  V30 22584 O 2114.65 3.82664 -3.90167 0
M  V30 22585 H 2111.74 0.603918 -0.564989 0
M  V30 22586 H 2114.29 0.605251 -1.5854 0
M  V30 22587 H 2113.06 1.70093 -3.52398 0
M  V30 22588 H 2112.69 3.08385 -2.50967 0
M  V30 22589 N 2113.68 1.34058 0.828631 0
M  V30 22590 C 2114.91 1.29306 1.62156 0
M  V30 22591 C 2115.33 -0.131256 1.87641 0
M  V30 22592 O 2114.69 -1.09118 1.44786 0
M  V30 22593 C 2114.74 2.08394 2.94286 0
M  V30 22594 O 2113.84 1.44955 3.86085 0
M  V30 22595 H 2113.18 0.444364 0.493393 0
M  V30 22596 H 2115.71 1.76775 1.03014 0
M  V30 22597 H 2115.72 2.19539 3.43899 0
M  V30 22598 H 2114.4 3.11953 2.7506 0
M  V30 22599 H 2112.98 1.42518 3.44591 0
M  V30 22600 N 2115.16 -1.04814 1.17694 0
M  V30 22601 C 2116.12 -2.10819 0.899339 0
M  V30 22602 C 2117.12 -1.60409 -0.112116 0
M  V30 22603 O 2118.31 -1.73783 0.120484 0
M  V30 22604 C 2115.45 -3.39121 0.34786 0
M  V30 22605 H 2116.64 -2.36878 1.83926 0
M  V30 22606 H 2114.19 -1.21119 0.987923 0
M  V30 22607 H 2114.93 -3.1872 -0.599026 0
M  V30 22608 H 2114.71 -3.77022 1.07688 0
M  V30 22609 H 2116.2 -4.17245 0.172084 0
M  V30 22610 N 2116.64 -0.977779 -1.23601 0
M  V30 22611 C 2117.89 -0.646167 -1.9223 0
M  V30 22612 C 2118.22 0.817893 -1.76137 0
M  V30 22613 O 2117.49 1.58966 -1.12071 0
M  V30 22614 C 2117.78 -1.03412 -3.44932 0
M  V30 22615 C 2117.63 -2.55561 -3.70147 0
M  V30 22616 C 2118.95 -0.576087 -4.36313 0
M  V30 22617 H 2116.07 -0.236222 -0.698118 0
M  V30 22618 H 2118.71 -1.21859 -1.45775 0
M  V30 22619 H 2116.86 -0.547033 -3.84629 0
M  V30 22620 H 2118.53 -3.11824 -3.39947 0
M  V30 22621 H 2116.77 -2.98312 -3.14949 0
M  V30 22622 H 2117.45 -2.77756 -4.77028 0
M  V30 22623 H 2119.92 -0.994237 -4.04047 0
M  V30 22624 H 2118.8 -0.875993 -5.41865 0
M  V30 22625 H 2119.06 0.523647 -4.38988 0
M  V30 22626 N 2118.12 1.38658 -0.749111 0
M  V30 22627 C 2119.08 2.28849 -0.126757 0
M  V30 22628 C 2120.08 1.46977 0.652253 0
M  V30 22629 O 2121.27 1.6748 0.479181 0
M  V30 22630 C 2118.4 3.30665 0.829083 0
M  V30 22631 H 2119.6 2.85391 -0.921529 0
M  V30 22632 H 2117.15 1.47543 -0.515832 0
M  V30 22633 H 2117.88 2.79205 1.6497 0
M  V30 22634 H 2117.67 3.91149 0.272946 0
M  V30 22635 H 2119.16 3.98117 1.26067 0
M  V30 22636 N 2119.6 0.497834 1.49531 0
M  V30 22637 C 2120.51 -0.286926 2.32839 0
M  V30 22638 C 2121.52 -0.970397 1.44427 0
M  V30 22639 O 2122.7 -0.952478 1.77454 0
M  V30 22640 C 2119.76 -1.33928 3.19788 0
M  V30 22641 C 2118.82 -0.669588 4.24046 0
M  V30 22642 C 2118.06 -1.67181 5.0684 0
M  V30 22643 O 2118.28 -2.90132 4.91101 0
M  V30 22644 O 2117.21 -1.22887 5.89222 0
M  V30 22645 H 2121.04 0.394869 3.01122 0
M  V30 22646 H 2118.62 0.259218 1.47134 0
M  V30 22647 H 2120.51 -1.94822 3.73661 0
M  V30 22648 H 2119.18 -2.00407 2.54202 0
M  V30 22649 H 2118.09 -0.0209922 3.74094 0
M  V30 22650 H 2119.42 -0.0473067 4.92177 0
M  V30 22651 N 2121.07 -1.5589 0.231532 0
M  V30 22652 C 2122.32 -1.98561 -0.397452 0
M  V30 22653 C 2122.65 -1.11939 -1.5906 0
M  V30 22654 O 2121.9 -0.166615 -1.94989 0
M  V30 22655 C 2122.2 -3.46766 -0.865354 0
M  V30 22656 C 2121.87 -4.50371 0.218353 0
M  V30 22657 C 2120.53 -4.78425 0.516031 0
M  V30 22658 C 2122.88 -5.12455 0.950761 0
M  V30 22659 C 2120.21 -5.65842 1.55046 0
M  V30 22660 C 2122.56 -6.00993 1.9746 0
M  V30 22661 C 2121.23 -6.27386 2.27909 0
M  V30 22662 H 2120.5 -0.726587 -0.145438 0
M  V30 22663 H 2123.14 -1.88527 0.336141 0
M  V30 22664 H 2121.45 -3.54054 -1.67788 0
M  V30 22665 H 2123.15 -3.7716 -1.36204 0
M  V30 22666 H 2119.74 -4.28593 -0.023809 0
M  V30 22667 H 2123.92 -4.90842 0.734029 0
M  V30 22668 H 2119.18 -5.84552 1.79188 0
M  V30 22669 H 2123.35 -6.48147 2.54712 0
M  V30 22670 H 2120.98 -6.9492 3.08205 0
M  V30 22671 N 2122.55 0.0417572 -1.57545 0
M  V30 22672 C 2123.8 0.7351 -1.88686 0
M  V30 22673 C 2124.13 1.76032 -0.827216 0
M  V30 22674 O 2123.38 1.94931 0.173363 0
M  V30 22675 C 2123.68 1.45244 -3.26556 0
M  V30 22676 C 2123.35 0.56439 -4.47354 0
M  V30 22677 C 2122.01 0.319756 -4.80136 0
M  V30 22678 C 2124.36 -0.0495197 -5.21176 0
M  V30 22679 C 2121.69 -0.547773 -5.84137 0
M  V30 22680 C 2124.04 -0.904676 -6.26098 0
M  V30 22681 C 2122.7 -1.15889 -6.57363 0
M  V30 22682 H 2121.97 0.268992 -0.690452 0
M  V30 22683 H 2124.62 -0.00478987 -1.91499 0
M  V30 22684 H 2122.93 2.26532 -3.19673 0
M  V30 22685 H 2124.62 1.99422 -3.47896 0
M  V30 22686 H 2121.21 0.765207 -4.21714 0
M  V30 22687 H 2125.4 0.126537 -4.96139 0
M  V30 22688 H 2120.65 -0.753169 -6.06743 0
M  V30 22689 H 2124.83 -1.38695 -6.82449 0
M  V30 22690 H 2122.45 -1.83286 -7.37774 0
M  V30 22691 N 2124.03 1.54445 0.313786 0
M  V30 22692 C 2124.96 1.80863 1.40787 0
M  V30 22693 C 2125.97 0.691004 1.47408 0
M  V30 22694 O 2127.16 0.968278 1.49955 0
M  V30 22695 C 2124.26 1.92015 2.79255 0
M  V30 22696 C 2123.44 3.22285 2.95722 0
M  V30 22697 C 2122.5 3.24014 4.1461 0
M  V30 22698 O 2121.52 3.97608 4.07304 0
M  V30 22699 N 2122.72 2.48493 5.24625 0
M  V30 22700 H 2125.49 2.75284 1.18485 0
M  V30 22701 H 2123.05 1.53861 0.503813 0
M  V30 22702 H 2125.04 1.90589 3.57013 0
M  V30 22703 H 2123.61 1.04647 2.94564 0
M  V30 22704 H 2122.83 3.36591 2.05183 0
M  V30 22705 H 2124.12 4.08276 3.03625 0
M  V30 22706 H 2123.52 1.88309 5.33438 0
M  V30 22707 H 2122.07 2.52834 6.00765 0
M  V30 22708 N 2125.51 -0.576345 1.46683 0
M  V30 22709 C 2126.73 -1.36505 1.56145 0
M  V30 22710 C 2127.16 -1.86975 0.20539 0
M  V30 22711 O 2126.52 -1.6192 -0.815566 0
M  V30 22712 C 2126.56 -2.52417 2.57523 0
M  V30 22713 O 2125.67 -3.54056 2.11467 0
M  V30 22714 H 2125.01 -0.406262 0.525211 0
M  V30 22715 H 2127.54 -0.698466 1.92309 0
M  V30 22716 H 2127.55 -2.99248 2.77335 0
M  V30 22717 H 2126.22 -2.15036 3.55995 0
M  V30 22718 H 2124.8 -3.13661 2.01671 0
M  V30 22719 N 2126.99 -1.34495 -0.82151 0
M  V30 22720 C 2128.23 -1.26931 -1.57781 0
M  V30 22721 C 2128.56 0.160345 -1.93838 0
M  V30 22722 O 2127.82 1.12196 -1.60345 0
M  V30 22723 C 2128.11 -2.10695 -2.88691 0
M  V30 22724 C 2127.78 -3.59682 -2.71919 0
M  V30 22725 C 2126.44 -4.00295 -2.67053 0
M  V30 22726 C 2128.79 -4.5428 -2.55497 0
M  V30 22727 C 2126.12 -5.33698 -2.43687 0
M  V30 22728 C 2128.47 -5.87864 -2.33663 0
M  V30 22729 C 2127.14 -6.2764 -2.27209 0
M  V30 22730 H 2126.41 -0.464474 -0.57736 0
M  V30 22731 H 2129.06 -1.66251 -0.950411 0
M  V30 22732 H 2127.36 -1.64208 -3.55729 0
M  V30 22733 H 2129.06 -2.02188 -3.46296 0
M  V30 22734 H 2125.65 -3.27444 -2.76547 0
M  V30 22735 H 2129.83 -4.23799 -2.58279 0
M  V30 22736 H 2125.09 -5.63534 -2.37149 0
M  V30 22737 H 2129.26 -6.60756 -2.19943 0
M  V30 22738 H 2126.89 -7.30944 -2.08865 0
M  V30 22739 N 2128.46 1.04188 -1.18248 0
M  V30 22740 C 2129.88 1.58822 -0.981458 0
M  V30 22741 C 2130.23 1.90507 0.469187 0
M  V30 22742 O 2129.35 1.6942 1.34632 0
M  V30 22743 C 2129.95 2.88565 -1.77526 0
M  V30 22744 C 2128.51 3.3982 -1.61862 0
M  V30 22745 C 2127.65 2.13421 -1.77051 0
M  V30 22746 H 2130.6 0.868749 -1.3281 0
M  V30 22747 H 2130.62 3.58905 -1.26362 0
M  V30 22748 H 2130.14 2.65472 -2.83101 0
M  V30 22749 H 2128.24 3.67928 -0.588186 0
M  V30 22750 H 2128.35 4.13728 -2.4159 0
M  V30 22751 H 2126.71 2.24667 -1.19986 0
M  V30 22752 H 2127.5 1.92785 -2.84058 0
M  V30 22753 N 2129.94 0.98432 1.23081 0
M  V30 22754 C 2131.17 0.673202 1.9617 0
M  V30 22755 C 2131.59 -0.753958 1.72328 0
M  V30 22756 O 2130.95 -1.51414 0.997167 0
M  V30 22757 C 2131 0.974266 3.47189 0
M  V30 22758 O 2130.1 0.0683695 4.12343 0
M  V30 22759 H 2129.44 0.252801 0.613993 0
M  V30 22760 H 2131.97 1.31898 1.5641 0
M  V30 22761 H 2131.98 0.912577 3.97663 0
M  V30 22762 H 2130.66 2.01426 3.63868 0
M  V30 22763 H 2129.24 0.184805 3.72442 0
M  V30 22764 N 2131.42 -1.38259 0.756453 0
M  V30 22765 C 2132.67 -1.99657 0.313271 0
M  V30 22766 C 2132.99 -1.60347 -1.10967 0
M  V30 22767 O 2132.26 -0.861667 -1.75932 0
M  V30 22768 H 2130.84 -0.738428 0.112838 0
M  V30 22769 H 2133.5 -1.68979 0.971184 0
M  V30 22770 H 2132.6 -3.09794 0.378689 0
M  V30 22771 N 2132.9 -0.505757 -1.49264 0
M  V30 22772 C 2133.81 0.274574 -2.32988 0
M  V30 22773 C 2134.82 0.962724 -1.4494 0
M  V30 22774 O 2136 0.943054 -1.77956 0
M  V30 22775 C 2133.07 1.32231 -3.20493 0
M  V30 22776 C 2132.13 0.64709 -4.24395 0
M  V30 22777 C 2131.36 1.6449 -5.07719 0
M  V30 22778 O 2131.58 2.87523 -4.92632 0
M  V30 22779 O 2130.52 1.19761 -5.89865 0
M  V30 22780 H 2134.34 -0.410833 -3.00908 0
M  V30 22781 H 2131.93 -0.267017 -1.46994 0
M  V30 22782 H 2133.81 1.92838 -3.74689 0
M  V30 22783 H 2132.48 1.99056 -2.55262 0
M  V30 22784 H 2131.39 0.00115278 -3.741 0
M  V30 22785 H 2132.72 0.0212046 -4.92195 0
M  V30 22786 N 2134.38 1.55765 -0.239796 0
M  V30 22787 C 2135.79 1.84814 0.264689 0
M  V30 22788 C 2136.14 1.16151 1.58124 0
M  V30 22789 O 2135.26 0.437435 2.11933 0
M  V30 22790 C 2135.86 3.35281 0.487032 0
M  V30 22791 C 2134.42 3.64582 0.935793 0
M  V30 22792 C 2133.56 2.77299 0.00901728 0
M  V30 22793 H 2136.52 1.5181 -0.46254 0
M  V30 22794 H 2136.54 3.56476 1.33061 0
M  V30 22795 H 2136.05 3.85227 -0.471338 0
M  V30 22796 H 2134.15 3.20108 1.90688 0
M  V30 22797 H 2134.26 4.72415 0.797573 0
M  V30 22798 H 2132.63 2.49354 0.519113 0
M  V30 22799 H 2133.41 3.30049 -0.944598 0
M  V30 22800 N 2135.85 -0.0334016 1.57565 0
M  V30 22801 C 2137.08 -0.740692 1.93723 0
M  V30 22802 C 2137.5 -1.6833 0.839447 0
M  V30 22803 O 2136.86 -1.80136 -0.205152 0
M  V30 22804 C 2136.91 -1.47761 3.28936 0
M  V30 22805 O 2136.01 -2.59056 3.2088 0
M  V30 22806 H 2135.36 -0.199518 0.633315 0
M  V30 22807 H 2137.89 0.00982998 2.04598 0
M  V30 22808 H 2137.9 -1.84849 3.63724 0
M  V30 22809 H 2136.57 -0.786263 4.084 0
M  V30 22810 H 2135.15 -2.24543 2.97716 0
M  V30 22811 N 2137.33 -1.54609 -0.305591 0
M  V30 22812 C 2138.28 -1.85991 -1.39679 0
M  V30 22813 C 2139.27 -0.733256 -1.52708 0
M  V30 22814 O 2140.48 -0.917183 -1.5488 0
M  V30 22815 H 2136.86 -0.589836 -0.466474 0
M  V30 22816 H 2138.83 -2.77209 -1.10444 0
M  V30 22817 C 2137.58 -2.11986 -2.75604 0
M  V30 22818 H 2136.9 -2.9815 -2.66358 0
M  V30 22819 H 2138.34 -2.37886 -3.50979 0
M  V30 22820 C 2136.8 -0.916972 -3.24181 0
M  V30 22821 O 2137.33 -0.135175 -4.01472 0
M  V30 22822 N 2135.53 -0.723621 -2.81446 0
M  V30 22823 H 2135.08 -1.36103 -2.18709 0
M  V30 22824 H 2135.04 0.0796694 -3.14299 0
M  V30 22825 N 2138.81 0.568558 -1.46987 0
M  V30 22826 C 2140.06 1.32596 -1.5424 0
M  V30 22827 C 2140.41 1.91386 -0.197273 0
M  V30 22828 O 2139.7 1.74294 0.795739 0
M  V30 22829 C 2139.9 2.46501 -2.5879 0
M  V30 22830 C 2139.73 1.98871 -4.03337 0
M  V30 22831 C 2138.5 1.83234 -4.70907 0
M  V30 22832 C 2140.7 1.53991 -4.90705 0
M  V30 22833 N 2138.68 1.29824 -6.00016 0
M  V30 22834 C 2140.05 1.12269 -6.09751 0
M  V30 22835 C 2142.1 1.41938 -4.7724 0
M  V30 22836 C 2140.81 0.596928 -7.16819 0
M  V30 22837 C 2142.83 0.907644 -5.84394 0
M  V30 22838 C 2142.19 0.500286 -7.02621 0
M  V30 22839 H 2138.29 0.477653 -0.61917 0
M  V30 22840 H 2140.88 0.645779 -1.83678 0
M  V30 22841 H 2139.05 3.12064 -2.31238 0
M  V30 22842 H 2140.78 3.13481 -2.55953 0
M  V30 22843 H 2137.54 2.05608 -4.26641 0
M  V30 22844 H 2137.96 1.0524 -6.6877 0
M  V30 22845 H 2142.6 1.72047 -3.86212 0
M  V30 22846 H 2140.32 0.283446 -8.07603 0
M  V30 22847 H 2143.91 0.8181 -5.76019 0
M  V30 22848 H 2142.79 0.110434 -7.84122 0
M  V30 22849 N 2140.29 1.34929 0.814366 0
M  V30 22850 C 2141.24 1.27211 1.92577 0
M  V30 22851 C 2142.21 0.145599 1.65461 0
M  V30 22852 O 2143.39 0.328007 1.87959 0
M  V30 22853 C 2140.53 1.04214 3.28989 0
M  V30 22854 C 2139.64 2.25716 3.68343 0
M  V30 22855 C 2138.78 1.95932 4.93745 0
M  V30 22856 C 2137.82 3.13531 5.25704 0
M  V30 22857 N 2136.95 2.83574 6.42285 0
M  V30 22858 H 2141.79 2.22255 1.98511 0
M  V30 22859 H 2139.33 1.10491 0.97109 0
M  V30 22860 H 2141.29 0.889147 4.07615 0
M  V30 22861 H 2139.92 0.128343 3.22545 0
M  V30 22862 H 2138.97 2.51906 2.85039 0
M  V30 22863 H 2140.28 3.13553 3.87925 0
M  V30 22864 H 2139.44 1.77419 5.80179 0
M  V30 22865 H 2138.18 1.05369 4.76181 0
M  V30 22866 H 2137.18 3.32631 4.37763 0
M  V30 22867 H 2138.41 4.04885 5.45202 0
M  V30 22868 H 2136.35 1.95596 6.26161 0
M  V30 22869 H 2136.27 3.64944 6.62081 0
M  V30 22870 H 2137.54 2.68584 7.31767 0
M  V30 22871 N 2141.77 -1.0356 1.18799 0
M  V30 22872 C 2142.7 -2.13602 0.943213 0
M  V30 22873 C 2143.68 -1.69669 -0.120965 0
M  V30 22874 O 2144.86 -1.94173 0.0326748 0
M  V30 22875 C 2141.99 -3.44054 0.473716 0
M  V30 22876 C 2140.95 -4.01635 1.47896 0
M  V30 22877 C 2140.27 -5.27628 0.866789 0
M  V30 22878 C 2141.57 -4.3722 2.8572 0
M  V30 22879 H 2143.27 -2.34336 1.86351 0
M  V30 22880 H 2140.81 -1.12617 0.897406 0
M  V30 22881 H 2142.77 -4.20402 0.289804 0
M  V30 22882 H 2141.49 -3.23021 -0.482167 0
M  V30 22883 H 2140.15 -3.27374 1.6499 0
M  V30 22884 H 2139.8 -5.02908 -0.0964386 0
M  V30 22885 H 2139.5 -5.67115 1.53799 0
M  V30 22886 H 2141.02 -6.06649 0.693523 0
M  V30 22887 H 2142.43 -5.04533 2.72248 0
M  V30 22888 H 2140.83 -4.87771 3.49571 0
M  V30 22889 H 2141.9 -3.46821 3.38885 0
M  V30 22890 N 2143.25 -0.990834 -1.22557 0
M  V30 22891 C 2144.47 -0.683595 -1.9581 0
M  V30 22892 C 2144.9 0.744808 -1.72726 0
M  V30 22893 O 2144.25 1.50883 -1.00518 0
M  V30 22894 C 2144.3 -0.992665 -3.46668 0
M  V30 22895 O 2143.41 -0.0902361 -4.12301 0
M  V30 22896 H 2142.75 -0.256053 -0.612644 0
M  V30 22897 H 2145.28 -1.32725 -1.55709 0
M  V30 22898 H 2145.29 -0.933654 -3.97174 0
M  V30 22899 H 2143.96 -2.03353 -3.62795 0
M  V30 22900 H 2142.54 -0.204554 -3.72339 0
M  V30 22901 N 2144.72 1.37856 -0.763775 0
M  V30 22902 C 2145.95 2.04686 -0.334395 0
M  V30 22903 C 2146.37 1.57229 1.0325 0
M  V30 22904 O 2145.73 0.728884 1.66003 0
M  V30 22905 C 2145.78 3.58616 -0.377715 0
M  V30 22906 O 2144.88 4.07641 0.624687 0
M  V30 22907 H 2144.22 0.647714 -0.146161 0
M  V30 22908 H 2146.75 1.76329 -1.03774 0
M  V30 22909 H 2146.76 4.07339 -0.232185 0
M  V30 22910 H 2145.44 3.92514 -1.37496 0
M  V30 22911 H 2144.02 3.7026 0.442931 0
M  V30 22912 N 2146.2 0.513665 1.48994 0
M  V30 22913 C 2147.45 -0.0263341 2.02483 0
M  V30 22914 C 2147.78 -1.35817 1.39226 0
M  V30 22915 O 2147.03 -1.88621 0.5216 0
M  V30 22916 C 2147.33 -0.214329 3.56757 0
M  V30 22917 C 2147 1.0411 4.38716 0
M  V30 22918 C 2145.66 1.3852 4.60832 0
M  V30 22919 C 2148.01 1.87499 4.86306 0
M  V30 22920 C 2145.34 2.56248 5.27782 0
M  V30 22921 C 2147.69 3.04392 5.54553 0
M  V30 22922 C 2146.35 3.39167 5.7491 0
M  V30 22923 H 2145.62 -0.00963634 0.740937 0
M  V30 22924 H 2148.27 0.676388 1.79157 0
M  V30 22925 H 2146.58 -0.999685 3.78832 0
M  V30 22926 H 2148.27 -0.646802 3.95749 0
M  V30 22927 H 2144.86 0.763083 4.21752 0
M  V30 22928 H 2149.05 1.62228 4.69037 0
M  V30 22929 H 2144.3 2.83413 5.41744 0
M  V30 22930 H 2148.48 3.69325 5.904 0
M  V30 22931 H 2146.1 4.30492 6.26562 0
M  V30 22932 N 2147.68 -1.55636 0.248053 0
M  V30 22933 C 2148.93 -1.98972 -0.37637 0
M  V30 22934 C 2149.25 -1.1362 -1.57863 0
M  V30 22935 O 2148.51 -0.187287 -1.94802 0
M  V30 22936 C 2148.81 -3.47664 -0.828526 0
M  V30 22937 C 2148.47 -4.50114 0.266108 0
M  V30 22938 C 2147.14 -4.77851 0.566745 0
M  V30 22939 C 2149.49 -5.11418 1.00506 0
M  V30 22940 C 2146.82 -5.64166 1.61039 0
M  V30 22941 C 2149.17 -5.98865 2.03823 0
M  V30 22942 C 2147.83 -6.24934 2.3455 0
M  V30 22943 H 2147.1 -0.728089 -0.137723 0
M  V30 22944 H 2149.75 -1.8816 0.356118 0
M  V30 22945 H 2148.05 -3.55814 -1.64024 0
M  V30 22946 H 2149.75 -3.78583 -1.32196 0
M  V30 22947 H 2146.34 -4.28595 0.0216504 0
M  V30 22948 H 2150.53 -4.90036 0.786048 0
M  V30 22949 H 2145.78 -5.82619 1.85378 0
M  V30 22950 H 2149.96 -6.45409 2.61573 0
M  V30 22951 H 2147.58 -6.91612 3.15558 0
M  V30 22952 N 2149.16 0.0250451 -1.5758 0
M  V30 22953 C 2150.09 1.05207 -2.03627 0
M  V30 22954 C 2151.1 1.32224 -0.949769 0
M  V30 22955 O 2152.29 1.29641 -1.22701 0
M  V30 22956 C 2149.39 2.39277 -2.39999 0
M  V30 22957 C 2148.56 2.31559 -3.71078 0
M  V30 22958 C 2147.62 3.48111 -3.94595 0
M  V30 22959 O 2146.65 3.27424 -4.65599 0
M  V30 22960 N 2147.85 4.70117 -3.40545 0
M  V30 22961 H 2150.62 0.659567 -2.92352 0
M  V30 22962 H 2148.18 0.212915 -1.60494 0
M  V30 22963 H 2150.17 3.15976 -2.52866 0
M  V30 22964 H 2148.74 2.70358 -1.56924 0
M  V30 22965 H 2147.96 1.39933 -3.68527 0
M  V30 22966 H 2149.25 2.23549 -4.57059 0
M  V30 22967 H 2148.65 4.89824 -2.83 0
M  V30 22968 H 2147.2 5.44167 -3.58784 0
M  V30 22969 N 2150.64 1.54769 0.297388 0
M  V30 22970 C 2151.86 1.78543 1.05533 0
M  V30 22971 C 2152.29 0.54501 1.80031 0
M  V30 22972 O 2151.64 -0.504585 1.74137 0
M  V30 22973 C 2151.69 2.99469 2.00874 0
M  V30 22974 O 2150.8 2.72847 3.09238 0
M  V30 22975 H 2150.14 0.590843 0.302985 0
M  V30 22976 H 2152.67 2.0186 0.333711 0
M  V30 22977 H 2152.68 3.27538 2.43275 0
M  V30 22978 H 2151.35 3.8941 1.46058 0
M  V30 22979 H 2149.93 2.55805 2.71327 0
M  V30 22980 N 2152.11 -0.560755 1.47286 0
M  V30 22981 C 2153.36 -1.32004 1.53957 0
M  V30 22982 C 2153.69 -1.9317 0.199705 0
M  V30 22983 O 2152.97 -1.77676 -0.791288 0
M  V30 22984 C 2153.25 -2.43284 2.6549 0
M  V30 22985 C 2153.1 -1.87009 4.09081 0
M  V30 22986 C 2154.42 -3.45228 2.72957 0
M  V30 22987 H 2151.54 -0.478599 0.560457 0
M  V30 22988 H 2154.18 -0.627854 1.79327 0
M  V30 22989 H 2152.33 -3.02327 2.43989 0
M  V30 22990 H 2154.01 -1.32254 4.41935 0
M  V30 22991 H 2152.25 -1.17705 4.17526 0
M  V30 22992 H 2152.92 -2.67438 4.82888 0
M  V30 22993 H 2155.4 -2.96099 2.92344 0
M  V30 22994 H 2154.27 -4.20522 3.52778 0
M  V30 22995 H 2154.53 -4.03854 1.79874 0
M  V30 22996 N 2153.59 -1.35359 -0.807199 0
M  V30 22997 C 2154.82 -1.31711 -1.59561 0
M  V30 22998 C 2155.23 0.105535 -1.88505 0
M  V30 22999 O 2154.59 1.05731 -1.48752 0
M  V30 23000 C 2154.64 -2.1212 -2.92724 0
M  V30 23001 O 2154.36 -3.48838 -2.65036 0
M  V30 23002 C 2155.86 -2.1605 -3.87088 0
M  V30 23003 H 2153.08 -0.452483 -0.495479 0
M  V30 23004 H 2155.63 -1.78204 -1.00318 0
M  V30 23005 H 2153.78 -1.69228 -3.48483 0
M  V30 23006 H 2154.2 -3.90591 -3.50056 0
M  V30 23007 H 2155.67 -2.76704 -4.77639 0
M  V30 23008 H 2156.15 -1.15909 -4.23629 0
M  V30 23009 H 2156.75 -2.591 -3.37264 0
M  V30 23010 N 2155.07 1.02928 -1.19346 0
M  V30 23011 C 2156.02 2.1331 -0.927441 0
M  V30 23012 C 2157.01 1.68998 0.116575 0
M  V30 23013 O 2158.22 1.7997 -0.0326311 0
M  V30 23014 H 2154.59 0.696916 -0.282511 0
M  V30 23015 H 2156.56 2.32939 -1.865 0
M  V30 23016 C 2155.31 3.4434 -0.482194 0
M  V30 23017 H 2154.64 3.78854 -1.27709 0
M  V30 23018 H 2156.08 4.22673 -0.335159 0
M  V30 23019 C 2154.53 3.27174 0.803669 0
M  V30 23020 O 2155.06 3.55772 1.86519 0
M  V30 23021 N 2153.27 2.80466 0.760745 0
M  V30 23022 H 2152.82 2.57393 -0.103346 0
M  V30 23023 H 2152.78 2.69361 1.62149 0
M  V30 23024 N 2156.55 0.997319 1.2203 0
M  V30 23025 C 2157.5 0.522421 2.21934 0
M  V30 23026 C 2158.48 -0.411799 1.55541 0
M  V30 23027 O 2159.67 -0.237899 1.75394 0
M  V30 23028 C 2156.8 -0.157225 3.4294 0
M  V30 23029 C 2155.89 0.797559 4.16533 0
M  V30 23030 N 2156.28 1.94723 4.66816 0
M  V30 23031 C 2154.58 0.614349 4.41749 0
M  V30 23032 C 2155.28 2.54687 5.22981 0
M  V30 23033 N 2154.25 1.82915 5.11901 0
M  V30 23034 H 2158.06 1.39918 2.58457 0
M  V30 23035 H 2155.57 0.860149 1.37751 0
M  V30 23036 H 2157.57 -0.514864 4.13709 0
M  V30 23037 H 2156.23 -1.03007 3.07928 0
M  V30 23038 H 2157.24 2.32787 4.62634 0
M  V30 23039 H 2153.92 -0.212058 4.16961 0
M  V30 23040 H 2155.31 3.51873 5.72394 0
M  V30 23041 N 2158.03 -1.37449 0.771075 0
M  V30 23042 C 2158.97 -2.30278 0.155078 0
M  V30 23043 C 2159.94 -1.51065 -0.690547 0
M  V30 23044 O 2161.13 -1.79637 -0.643049 0
M  V30 23045 C 2158.27 -3.37536 -0.718578 0
M  V30 23046 C 2157.38 -4.31761 0.143579 0
M  V30 23047 C 2156.52 -5.26094 -0.734719 0
M  V30 23048 C 2155.56 -6.11962 0.130013 0
M  V30 23049 N 2154.69 -6.98539 -0.706225 0
M  V30 23050 H 2159.53 -2.82377 0.952224 0
M  V30 23051 H 2157.07 -1.39008 0.481177 0
M  V30 23052 H 2159.03 -3.98349 -1.23991 0
M  V30 23053 H 2157.66 -2.86804 -1.48133 0
M  V30 23054 H 2156.71 -3.7226 0.782718 0
M  V30 23055 H 2158.02 -4.92169 0.81064 0
M  V30 23056 H 2157.18 -5.92109 -1.32257 0
M  V30 23057 H 2155.91 -4.66096 -1.43546 0
M  V30 23058 H 2154.92 -5.44927 0.730399 0
M  V30 23059 H 2156.14 -6.74032 0.82808 0
M  V30 23060 H 2154.09 -6.4107 -1.3916 0
M  V30 23061 H 2154.01 -7.55938 -0.0964474 0
M  V30 23062 H 2155.28 -7.68944 -1.27849 0
M  V30 23063 N 2159.5 -0.52156 -1.4872 0
M  V30 23064 C 2160.75 0.00752906 -2.03399 0
M  V30 23065 C 2161.11 1.32786 -1.39233 0
M  V30 23066 O 2160.4 1.84239 -0.525988 0
M  V30 23067 C 2160.59 0.195406 -3.56865 0
M  V30 23068 C 2160.42 -1.10516 -4.35909 0
M  V30 23069 C 2159.19 -1.66269 -4.77161 0
M  V30 23070 C 2161.39 -2.01366 -4.7324 0
M  V30 23071 N 2159.37 -2.90702 -5.40708 0
M  V30 23072 C 2160.74 -3.10376 -5.36719 0
M  V30 23073 C 2162.8 -2.01795 -4.55174 0
M  V30 23074 C 2161.5 -4.19867 -5.84041 0
M  V30 23075 C 2163.53 -3.10275 -5.03471 0
M  V30 23076 C 2162.89 -4.18003 -5.66968 0
M  V30 23077 H 2158.99 -0.0385357 -0.78105 0
M  V30 23078 H 2161.57 -0.700975 -1.81644 0
M  V30 23079 H 2159.74 0.872986 -3.78462 0
M  V30 23080 H 2161.47 0.723345 -3.98183 0
M  V30 23081 H 2158.23 -1.20516 -4.5801 0
M  V30 23082 H 2158.65 -3.54031 -5.77053 0
M  V30 23083 H 2163.3 -1.19806 -4.05471 0
M  V30 23084 H 2161.01 -5.02641 -6.32754 0
M  V30 23085 H 2164.6 -3.11652 -4.91289 0
M  V30 23086 H 2163.48 -5.00561 -6.03662 0
M  V30 23087 N 2160.98 1.55502 -0.256304 0
M  V30 23088 C 2162.23 1.99463 0.366354 0
M  V30 23089 C 2162.56 1.14436 1.56902 0
M  V30 23090 O 2161.84 0.209944 1.93364 0
M  V30 23091 C 2162.12 3.51836 0.767016 0
M  V30 23092 C 2161.97 4.47626 -0.441687 0
M  V30 23093 C 2163.29 4.09574 1.61051 0
M  V30 23094 H 2160.41 0.72514 0.131688 0
M  V30 23095 H 2163.05 1.86568 -0.359494 0
M  V30 23096 H 2161.2 3.62956 1.38546 0
M  V30 23097 H 2162.87 4.48475 -1.08018 0
M  V30 23098 H 2161.12 4.2006 -1.08313 0
M  V30 23099 H 2161.79 5.51874 -0.117869 0
M  V30 23100 H 2164.26 4.01614 1.08838 0
M  V30 23101 H 2163.14 5.16436 1.85969 0
M  V30 23102 H 2163.4 3.58619 2.58544 0
M  V30 23103 N 2162.46 -0.0166879 1.57591 0
M  V30 23104 C 2163.42 -0.998156 2.06324 0
M  V30 23105 C 2164.42 -1.28282 0.969561 0
M  V30 23106 O 2165.61 -1.23078 1.23278 0
M  V30 23107 C 2162.75 -2.32767 2.49063 0
M  V30 23108 H 2163.94 -0.576954 2.94298 0
M  V30 23109 H 2161.49 -0.263799 1.54058 0
M  V30 23110 H 2162.23 -2.7961 1.64282 0
M  V30 23111 H 2162.01 -2.13431 3.28922 0
M  V30 23112 H 2163.5 -3.03207 2.87151 0
M  V30 23113 N 2163.94 -1.54924 -0.289176 0
M  V30 23114 C 2165.18 -1.75025 -1.0244 0
M  V30 23115 C 2165.52 -0.540906 -1.86515 0
M  V30 23116 O 2164.79 0.461833 -1.88937 0
M  V30 23117 C 2165.08 -3.04611 -1.92052 0
M  V30 23118 C 2164.93 -4.35869 -1.11079 0
M  V30 23119 C 2166.25 -3.30134 -2.91032 0
M  V30 23120 H 2163.37 -0.636806 -0.371008 0
M  V30 23121 H 2166.01 -1.87647 -0.298076 0
M  V30 23122 H 2164.16 -2.93981 -2.53983 0
M  V30 23123 H 2165.83 -4.58434 -0.513434 0
M  V30 23124 H 2164.07 -4.31822 -0.41379 0
M  V30 23125 H 2164.74 -5.22832 -1.7706 0
M  V30 23126 H 2167.22 -3.40451 -2.39233 0
M  V30 23127 H 2166.1 -4.221 -3.50889 0
M  V30 23128 H 2166.36 -2.48995 -3.65314 0
M  V30 23129 N 2165.42 0.552936 -1.47582 0
M  V30 23130 C 2166.66 1.30733 -1.54121 0
M  V30 23131 C 2166.99 1.93899 -0.206934 0
M  V30 23132 O 2166.26 1.80154 0.769505 0
M  V30 23133 H 2164.84 0.485489 -0.567723 0
M  V30 23134 H 2167.5 0.645327 -1.83906 0
M  V30 23135 H 2166.59 2.09863 -2.31006 0
M  V30 23136 N 2166.89 1.35785 0.800009 0
M  V30 23137 C 2167.86 1.29109 1.89377 0
M  V30 23138 C 2168.86 0.201077 1.59538 0
M  V30 23139 O 2170.05 0.455197 1.68148 0
M  V30 23140 C 2167.18 0.99888 3.25937 0
M  V30 23141 H 2168.37 2.2637 1.96715 0
M  V30 23142 H 2165.93 1.20404 0.996618 0
M  V30 23143 H 2166.66 0.0304071 3.24286 0
M  V30 23144 H 2166.45 1.78756 3.48982 0
M  V30 23145 H 2167.94 0.977941 4.05988 0
M  V30 23146 N 2168.37 -1.02294 1.19891 0
M  V30 23147 C 2169.34 -2.08864 0.943854 0
M  V30 23148 C 2170.34 -1.6061 -0.0780656 0
M  V30 23149 O 2171.53 -1.73488 0.157319 0
M  V30 23150 C 2168.66 -3.38306 0.419714 0
M  V30 23151 H 2169.85 -2.32924 1.88909 0
M  V30 23152 H 2167.4 -1.18996 1.01339 0
M  V30 23153 H 2168.14 -3.19918 -0.531286 0
M  V30 23154 H 2167.92 -3.74653 1.15661 0
M  V30 23155 H 2169.41 -4.16786 0.26055 0
M  V30 23156 N 2169.85 -1.00378 -1.21499 0
M  V30 23157 C 2171.1 -0.686796 -1.90817 0
M  V30 23158 C 2171.43 0.780348 -1.77832 0
M  V30 23159 O 2170.7 1.56554 -1.15418 0
M  V30 23160 C 2170.99 -1.10705 -3.42661 0
M  V30 23161 C 2170.84 -2.63355 -3.64642 0
M  V30 23162 C 2172.16 -0.668506 -4.34993 0
M  V30 23163 H 2169.28 -0.250976 -0.69295 0
M  V30 23164 H 2171.92 -1.24924 -1.43157 0
M  V30 23165 H 2170.07 -0.628496 -3.83383 0
M  V30 23166 H 2171.74 -3.18964 -3.33256 0
M  V30 23167 H 2169.99 -3.04925 -3.0855 0
M  V30 23168 H 2170.66 -2.87812 -4.71029 0
M  V30 23169 H 2173.13 -1.07972 -4.01847 0
M  V30 23170 H 2172.01 -0.990733 -5.39885 0
M  V30 23171 H 2172.27 0.430413 -4.4 0
M  V30 23172 N 2171.33 1.37038 -0.778354 0
M  V30 23173 C 2172.58 1.99134 -0.344995 0
M  V30 23174 C 2172.9 1.62093 1.08402 0
M  V30 23175 O 2172.17 0.889547 1.74539 0
M  V30 23176 H 2170.75 0.73654 -0.124572 0
M  V30 23177 H 2173.41 1.67413 -0.997945 0
M  V30 23178 H 2172.51 3.09152 -0.427927 0
M  V30 23179 N 2172.81 0.529439 1.48441 0
M  V30 23180 C 2174.06 -0.00685445 2.01699 0
M  V30 23181 C 2174.37 -1.35375 1.41184 0
M  V30 23182 O 2175.58 -1.97838 1.85937 0
M  V30 23183 C 2174.03 -0.0626135 3.59846 0
M  V30 23184 C 2173.64 1.27936 4.29344 0
M  V30 23185 C 2175.38 -0.547764 4.20951 0
M  V30 23186 C 2173.29 1.18421 5.79422 0
M  V30 23187 H 2172.22 -0.00633228 0.753973 0
M  V30 23188 H 2174.87 0.673137 1.70708 0
M  V30 23189 H 2173.25 -0.80767 3.87676 0
M  V30 23190 H 2174.43 2.03994 4.13187 0
M  V30 23191 H 2172.74 1.7002 3.80108 0
M  V30 23192 H 2175.34 -0.636907 5.30893 0
M  V30 23193 H 2175.68 -1.55341 3.86232 0
M  V30 23194 H 2176.22 0.141593 3.97548 0
M  V30 23195 H 2172.95 2.16499 6.18715 0
M  V30 23196 H 2172.47 0.464988 5.97995 0
M  V30 23197 H 2174.15 0.874656 6.41061 0
M  V30 23198 N 2174.29 -1.55364 0.264547 0
M  V30 23199 C 2175.22 -2.25081 -0.621337 0
M  V30 23200 C 2176.2 -1.23722 -1.16734 0
M  V30 23201 O 2177.38 -1.52418 -1.20343 0
M  V30 23202 C 2174.51 -2.96382 -1.81038 0
M  V30 23203 C 2173.47 -4.0458 -1.39638 0
M  V30 23204 C 2172.79 -4.63399 -2.66768 0
M  V30 23205 C 2174.09 -5.1935 -0.554378 0
M  V30 23206 H 2175.79 -2.99373 -0.0399448 0
M  V30 23207 H 2173.33 -1.43989 -0.0177721 0
M  V30 23208 H 2175.28 -3.43862 -2.43592 0
M  V30 23209 H 2174.01 -2.19608 -2.41744 0
M  V30 23210 H 2172.67 -3.57896 -0.794097 0
M  V30 23211 H 2172.32 -3.83305 -3.25709 0
M  V30 23212 H 2172.02 -5.36449 -2.39784 0
M  V30 23213 H 2173.54 -5.13622 -3.30189 0
M  V30 23214 H 2174.95 -5.62946 -1.08465 0
M  V30 23215 H 2173.35 -5.98897 -0.379861 0
M  V30 23216 H 2174.42 -4.82996 0.42934 0
M  V30 23217 N 2175.76 0.00833021 -1.57598 0
M  V30 23218 C 2177.01 0.693539 -1.89827 0
M  V30 23219 C 2177.33 1.74773 -0.864844 0
M  V30 23220 O 2176.6 1.9565 0.0988666 0
M  V30 23221 H 2175.18 0.25915 -0.700607 0
M  V30 23222 H 2177.84 -0.0306259 -1.94876 0
M  V30 23223 H 2176.94 1.17005 -2.89337 0
M  V30 23224 N 2177.24 1.55075 0.280956 0
M  V30 23225 C 2178.49 1.75566 1.01511 0
M  V30 23226 C 2178.82 0.55079 1.86226 0
M  V30 23227 O 2178.1 -0.451807 1.8918 0
M  V30 23228 C 2178.38 3.05625 1.90434 0
M  V30 23229 C 2178.23 4.36452 1.08766 0
M  V30 23230 C 2179.55 3.31672 2.89277 0
M  V30 23231 H 2176.67 0.638765 0.367626 0
M  V30 23232 H 2179.31 1.87803 0.28812 0
M  V30 23233 H 2177.46 2.95324 2.5242 0
M  V30 23234 H 2179.13 4.587 0.489115 0
M  V30 23235 H 2177.38 4.32035 0.390884 0
M  V30 23236 H 2178.05 5.23764 1.74285 0
M  V30 23237 H 2180.52 3.41715 2.37424 0
M  V30 23238 H 2179.4 4.23955 3.48645 0
M  V30 23239 H 2179.66 2.50928 3.63988 0
M  V30 23240 N 2178.72 -0.545102 1.47873 0
M  V30 23241 C 2179.65 -1.6606 1.64153 0
M  V30 23242 C 2180.63 -1.62869 0.490679 0
M  V30 23243 O 2181.82 -1.80302 0.721451 0
M  V30 23244 C 2178.95 -3.04681 1.66694 0
M  V30 23245 C 2177.9 -3.22724 2.81128 0
M  V30 23246 C 2177.23 -4.62253 2.68749 0
M  V30 23247 C 2178.53 -3.06939 4.22594 0
M  V30 23248 H 2180.22 -1.52691 2.57538 0
M  V30 23249 H 2177.77 -0.733146 1.23939 0
M  V30 23250 H 2179.72 -3.82576 1.76674 0
M  V30 23251 H 2178.44 -3.19037 0.698781 0
M  V30 23252 H 2177.1 -2.47241 2.7068 0
M  V30 23253 H 2176.75 -4.73425 1.69935 0
M  V30 23254 H 2176.45 -4.75273 3.45527 0
M  V30 23255 H 2177.97 -5.42268 2.80674 0
M  V30 23256 H 2179.39 -3.7464 4.33956 0
M  V30 23257 H 2177.78 -3.31461 5.00253 0
M  V30 23258 H 2178.85 -2.03538 4.40114 0
M  V30 23259 N 2180.2 -1.36208 -0.792797 0
M  V30 23260 C 2181.44 -1.30442 -1.55282 0
M  V30 23261 C 2181.78 0.117071 -1.93847 0
M  V30 23262 O 2181.05 1.06968 -1.62444 0
M  V30 23263 C 2181.33 -2.22396 -2.83218 0
M  V30 23264 C 2181.19 -3.73227 -2.51042 0
M  V30 23265 C 2182.51 -2.13185 -3.85019 0
M  V30 23266 H 2179.63 -0.475171 -0.563366 0
M  V30 23267 H 2182.27 -1.6673 -0.911103 0
M  V30 23268 H 2180.42 -1.9158 -3.37979 0
M  V30 23269 H 2182.09 -4.14547 -2.02358 0
M  V30 23270 H 2180.33 -3.92829 -1.84033 0
M  V30 23271 H 2181 -4.32972 -3.42402 0
M  V30 23272 H 2183.48 -2.40303 -3.39696 0
M  V30 23273 H 2182.36 -2.797 -4.72291 0
M  V30 23274 H 2182.62 -1.11808 -4.27728 0
M  V30 23275 N 2181.68 1.01656 -1.20431 0
M  V30 23276 C 2182.92 1.74909 -1.01249 0
M  V30 23277 C 2183.24 1.89583 0.456441 0
M  V30 23278 O 2182.51 1.43836 1.32997 0
M  V30 23279 H 2181.09 0.647988 -0.371646 0
M  V30 23280 H 2183.76 1.22561 -1.51542 0
M  V30 23281 H 2182.85 2.75268 -1.47085 0
M  V30 23282 N 2183.15 1.01021 1.20965 0
M  V30 23283 C 2184.4 0.6945 1.89792 0
M  V30 23284 C 2184.72 -0.77766 1.78822 0
M  V30 23285 O 2183.99 -1.55883 1.18648 0
M  V30 23286 H 2182.57 0.253892 0.702529 0
M  V30 23287 H 2185.23 1.28043 1.46938 0
M  V30 23288 H 2184.33 0.972254 2.9657 0
M  V30 23289 N 2184.63 -1.36623 0.78561 0
M  V30 23290 C 2185.88 -2.00083 0.365844 0
M  V30 23291 C 2186.23 -1.61235 -1.04981 0
M  V30 23292 O 2185.53 -0.855142 -1.71458 0
M  V30 23293 C 2185.72 -3.54391 0.462776 0
M  V30 23294 C 2185.55 -4.08226 1.8863 0
M  V30 23295 C 2184.32 -4.38547 2.51007 0
M  V30 23296 C 2186.52 -4.28252 2.84788 0
M  V30 23297 N 2184.5 -4.78181 3.84988 0
M  V30 23298 C 2185.87 -4.70649 4.03595 0
M  V30 23299 C 2187.92 -4.10414 2.81895 0
M  V30 23300 C 2186.63 -4.97076 5.19912 0
M  V30 23301 C 2188.65 -4.37985 3.97396 0
M  V30 23302 C 2188.02 -4.80635 5.14946 0
M  V30 23303 H 2184.11 -0.760715 0.181207 0
M  V30 23304 H 2186.7 -1.65696 1.0224 0
M  V30 23305 H 2184.87 -3.88055 -0.163668 0
M  V30 23306 H 2186.6 -4.04695 0.0196222 0
M  V30 23307 H 2183.36 -4.28117 2.02517 0
M  V30 23308 H 2183.78 -5.02288 4.53911 0
M  V30 23309 H 2188.42 -3.766 1.92177 0
M  V30 23310 H 2186.14 -5.29773 6.10219 0
M  V30 23311 H 2189.73 -4.25757 3.96513 0
M  V30 23312 H 2188.61 -5.01556 6.02836 0
M  V30 23313 N 2186.11 -0.537304 -1.48158 0
M  V30 23314 C 2187.36 -0.00588246 -2.02499 0
M  V30 23315 C 2187.68 1.33585 -1.41369 0
M  V30 23316 O 2186.94 1.87767 -0.551542 0
M  V30 23317 C 2187.24 0.157545 -3.57053 0
M  V30 23318 C 2186.9 -1.11076 -4.37005 0
M  V30 23319 C 2185.57 -1.45834 -4.58569 0
M  V30 23320 C 2187.92 -1.95212 -4.83261 0
M  V30 23321 C 2185.25 -2.64612 -5.23639 0
M  V30 23322 C 2187.6 -3.13176 -5.4964 0
M  V30 23323 C 2186.26 -3.4827 -5.69442 0
M  V30 23324 H 2185.53 -0.00215255 -0.740997 0
M  V30 23325 H 2188.18 -0.704805 -1.78058 0
M  V30 23326 H 2186.48 0.93929 -3.80374 0
M  V30 23327 H 2188.18 0.583759 -3.96728 0
M  V30 23328 H 2184.77 -0.830084 -4.20485 0
M  V30 23329 H 2188.96 -1.6967 -4.66397 0
M  V30 23330 H 2184.21 -2.91996 -5.37167 0
M  V30 23331 H 2188.39 -3.78671 -5.8445 0
M  V30 23332 H 2186.01 -4.40406 -6.19634 0
M  V30 23333 N 2187.59 1.55221 -0.272782 0
M  V30 23334 C 2188.83 1.99841 0.345178 0
M  V30 23335 C 2189.17 1.16093 1.55679 0
M  V30 23336 O 2188.44 0.230441 1.9313 0
M  V30 23337 C 2188.73 3.5263 0.729656 0
M  V30 23338 C 2188.58 4.47133 -0.489138 0
M  V30 23339 C 2189.9 4.11259 1.56698 0
M  V30 23340 H 2187.02 0.726495 0.123989 0
M  V30 23341 H 2189.66 1.86176 -0.379262 0
M  V30 23342 H 2187.81 3.64405 1.34689 0
M  V30 23343 H 2189.48 4.47304 -1.12769 0
M  V30 23344 H 2187.72 4.18888 -1.12762 0
M  V30 23345 H 2188.39 5.51718 -0.176396 0
M  V30 23346 H 2190.87 4.02745 1.04572 0
M  V30 23347 H 2189.75 5.1838 1.80481 0
M  V30 23348 H 2190.01 3.61341 2.54726 0
M  V30 23349 N 2189.07 2.77022e-05 1.576 0
M  V30 23350 C 2190.3 -0.69479 1.94567 0
M  V30 23351 C 2190.7 -1.67836 0.873374 0
M  V30 23352 O 2190.05 -1.83034 -0.156298 0
M  V30 23353 C 2190.11 -1.48224 3.27521 0
M  V30 23354 C 2189.77 -0.660251 4.52205 0
M  V30 23355 C 2190.77 0.0520805 5.19874 0
M  V30 23356 C 2188.46 -0.606213 4.98628 0
M  V30 23357 C 2190.45 0.807435 6.32265 0
M  V30 23358 C 2188.14 0.152866 6.10909 0
M  V30 23359 C 2189.13 0.858424 6.77584 0
M  V30 23360 O 2188.82 1.60512 7.87713 0
M  V30 23361 H 2188.55 -0.198468 0.646209 0
M  V30 23362 H 2191.11 0.0472739 2.05346 0
M  V30 23363 H 2189.34 -2.26878 3.1315 0
M  V30 23364 H 2191.03 -2.0624 3.496 0
M  V30 23365 H 2191.79 0.0194852 4.84996 0
M  V30 23366 H 2187.67 -1.14492 4.46556 0
M  V30 23367 H 2191.22 1.35868 6.84241 0
M  V30 23368 H 2187.11 0.187282 6.45228 0
M  V30 23369 H 2187.88 1.52183 8.04228 0
M  V30 23370 N 2190.54 -1.55222 -0.272728 0
M  V30 23371 C 2191.49 -1.88121 -1.33713 0
M  V30 23372 C 2192.46 -0.732736 -1.49064 0
M  V30 23373 O 2193.65 -0.98403 -1.63467 0
M  V30 23374 C 2190.79 -2.15886 -2.69234 0
M  V30 23375 C 2189.9 -3.43404 -2.62102 0
M  V30 23376 C 2189.03 -3.60868 -3.89804 0
M  V30 23377 C 2188.07 -4.82077 -3.77184 0
M  V30 23378 N 2187.21 -4.96198 -4.96722 0
M  V30 23379 H 2192.05 -2.78905 -1.04957 0
M  V30 23380 H 2189.59 -1.38084 -0.507063 0
M  V30 23381 H 2191.55 -2.29984 -3.48085 0
M  V30 23382 H 2190.18 -1.28337 -2.96192 0
M  V30 23383 H 2189.23 -3.37776 -1.74961 0
M  V30 23384 H 2190.54 -4.3239 -2.48677 0
M  V30 23385 H 2189.69 -3.74785 -4.77096 0
M  V30 23386 H 2188.43 -2.70068 -4.06097 0
M  V30 23387 H 2187.44 -4.68164 -2.88276 0
M  V30 23388 H 2188.66 -5.74313 -3.62411 0
M  V30 23389 H 2186.61 -4.08328 -5.13424 0
M  V30 23390 H 2186.53 -5.7923 -4.85828 0
M  V30 23391 H 2187.79 -5.145 -5.85585 0
M  V30 23392 N 2192.02 0.537252 -1.4816 0
M  V30 23393 C 2192.97 1.63854 -1.58543 0
M  V30 23394 C 2193.96 1.54681 -0.442996 0
M  V30 23395 O 2195.15 1.62825 -0.694039 0
M  V30 23396 C 2192.28 3.02593 -1.62149 0
M  V30 23397 C 2191.36 3.16896 -2.81847 0
M  V30 23398 N 2191.75 3.01197 -4.06343 0
M  V30 23399 C 2190.05 3.47937 -2.79027 0
M  V30 23400 C 2190.75 3.18722 -4.86612 0
M  V30 23401 N 2189.73 3.45967 -4.19294 0
M  V30 23402 H 2193.53 1.50315 -2.52552 0
M  V30 23403 H 2191.05 0.74253 -1.44431 0
M  V30 23404 H 2193.04 3.81692 -1.6768 0
M  V30 23405 H 2191.7 3.17229 -0.692506 0
M  V30 23406 H 2192.71 2.78109 -4.36893 0
M  V30 23407 H 2189.39 3.68976 -1.95353 0
M  V30 23408 H 2190.78 3.11383 -5.95391 0
M  V30 23409 N 2193.5 1.36626 0.785562 0
M  V30 23410 C 2194.75 1.3107 1.5436 0
M  V30 23411 C 2195.08 -0.108896 1.94195 0
M  V30 23412 O 2194.33 -1.07905 1.63264 0
M  V30 23413 C 2194.63 2.18275 2.83003 0
M  V30 23414 C 2194.3 3.66765 2.62287 0
M  V30 23415 C 2192.96 4.07235 2.56346 0
M  V30 23416 C 2195.31 4.60895 2.43363 0
M  V30 23417 C 2192.64 5.39971 2.29451 0
M  V30 23418 C 2194.99 5.93853 2.17994 0
M  V30 23419 C 2193.65 6.33444 2.10489 0
M  V30 23420 H 2192.92 0.479619 0.564842 0
M  V30 23421 H 2195.57 1.68713 0.905999 0
M  V30 23422 H 2193.88 1.73582 3.5125 0
M  V30 23423 H 2195.57 2.11298 3.40814 0
M  V30 23424 H 2192.16 3.34661 2.67769 0
M  V30 23425 H 2196.35 4.30498 2.46952 0
M  V30 23426 H 2191.6 5.69623 2.22125 0
M  V30 23427 H 2195.78 6.66355 2.02347 0
M  V30 23428 H 2193.4 7.36225 1.89412 0
M  V30 23429 N 2194.98 -1.01016 1.20969 0
M  V30 23430 C 2196.2 -1.78837 1.05034 0
M  V30 23431 C 2196.63 -1.8389 -0.39572 0
M  V30 23432 O 2195.99 -1.2787 -1.28527 0
M  V30 23433 C 2196.03 -3.20837 1.64608 0
M  V30 23434 O 2195.14 -4.02725 0.888059 0
M  V30 23435 H 2194.48 -0.55136 0.369997 0
M  V30 23436 H 2197.01 -1.27015 1.60401 0
M  V30 23437 H 2197.02 -3.71529 1.68613 0
M  V30 23438 H 2195.69 -3.16474 2.69846 0
M  V30 23439 H 2194.27 -3.61304 0.922711 0
M  V30 23440 N 2196.46 -1.01661 -1.20428 0
M  V30 23441 C 2197.87 -0.731467 -1.41851 0
M  V30 23442 C 2198.07 0.688865 -1.89359 0
M  V30 23443 O 2197.13 1.45662 -2.06249 0
M  V30 23444 C 2198.44 -1.75718 -2.44016 0
M  V30 23445 C 2199.99 -1.77532 -2.57782 0
M  V30 23446 C 2200.46 -2.7903 -3.63189 0
M  V30 23447 N 2201.96 -2.7777 -3.70673 0
M  V30 23448 C 2202.69 -3.52962 -4.51891 0
M  V30 23449 N 2202.19 -4.3783 -5.36914 0
M  V30 23450 N 2203.98 -3.41559 -4.46424 0
M  V30 23451 H 2196.13 -1.93355 -0.879059 0
M  V30 23452 H 2198.39 -0.835244 -0.448411 0
M  V30 23453 H 2198.1 -2.77473 -2.16105 0
M  V30 23454 H 2197.97 -1.56933 -3.43004 0
M  V30 23455 H 2200.36 -0.764619 -2.85022 0
M  V30 23456 H 2200.44 -2.0039 -1.58989 0
M  V30 23457 H 2200.09 -3.80264 -3.36693 0
M  V30 23458 H 2200.02 -2.53433 -4.61605 0
M  V30 23459 H 2202.51 -2.16206 -3.09941 0
M  V30 23460 H 2202.82 -4.91973 -5.95972 0
M  V30 23461 H 2201.16 -4.41908 -5.36416 0
M  V30 23462 H 2204.36 -2.74679 -3.79037 0
M  V30 23463 H 2204.53 -4.00413 -5.09484 0
M  V30 23464 N 2197.93 1.36205 -0.792844 0
M  V30 23465 C 2198.88 2.30003 -0.191693 0
M  V30 23466 C 2199.85 1.52145 0.666426 0
M  V30 23467 O 2201.04 1.80638 0.614388 0
M  V30 23468 C 2198.18 3.38636 0.664788 0
M  V30 23469 C 2197.29 4.31478 -0.212251 0
M  V30 23470 C 2196.42 5.27197 0.650929 0
M  V30 23471 C 2195.46 6.11678 -0.227354 0
M  V30 23472 N 2194.6 6.99574 0.595004 0
M  V30 23473 H 2199.44 2.80826 -0.997027 0
M  V30 23474 H 2196.98 1.38224 -0.503231 0
M  V30 23475 H 2198.94 4.00271 1.17638 0
M  V30 23476 H 2197.57 2.89124 1.43552 0
M  V30 23477 H 2196.62 3.70968 -0.841842 0
M  V30 23478 H 2197.93 4.90817 -0.888837 0
M  V30 23479 H 2197.08 5.94138 1.2282 0
M  V30 23480 H 2195.82 4.68321 1.36113 0
M  V30 23481 H 2194.83 5.43696 -0.817 0
M  V30 23482 H 2196.05 6.7263 -0.935208 0
M  V30 23483 H 2194 6.43203 1.28943 0
M  V30 23484 H 2193.92 7.55996 -0.0238281 0
M  V30 23485 H 2195.18 7.70881 1.15599 0
M  V30 23486 N 2199.41 0.545154 1.47871 0
M  V30 23487 C 2200.32 -0.212705 2.33634 0
M  V30 23488 C 2201.34 -0.923957 1.47442 0
M  V30 23489 O 2202.51 -0.89554 1.80394 0
M  V30 23490 C 2199.58 -1.23687 3.23886 0
M  V30 23491 C 2198.64 -0.534342 4.25962 0
M  V30 23492 C 2197.87 -1.50971 5.11902 0
M  V30 23493 O 2198.1 -2.74361 5.00082 0
M  V30 23494 O 2197.03 -1.0408 5.92833 0
M  V30 23495 H 2200.86 0.490469 2.99713 0
M  V30 23496 H 2198.44 0.305896 1.46235 0
M  V30 23497 H 2200.32 -1.82836 3.7967 0
M  V30 23498 H 2199 -1.92218 2.6045 0
M  V30 23499 H 2197.91 0.0980336 3.73972 0
M  V30 23500 H 2199.24 0.1093 4.92079 0
M  V30 23501 N 2200.89 -1.55074 0.28101 0
M  V30 23502 C 2201.8 -2.26427 -0.61384 0
M  V30 23503 C 2202.82 -1.29226 -1.16519 0
M  V30 23504 O 2203.99 -1.62173 -1.19423 0
M  V30 23505 C 2201.06 -2.97593 -1.77875 0
M  V30 23506 C 2200.12 -4.10286 -1.26348 0
M  V30 23507 C 2199.35 -4.78049 -2.37287 0
M  V30 23508 O 2199.57 -4.45053 -3.56769 0
M  V30 23509 O 2198.51 -5.65874 -2.05109 0
M  V30 23510 H 2202.33 -3.03679 -0.0356398 0
M  V30 23511 H 2199.92 -1.49322 0.0481948 0
M  V30 23512 H 2201.8 -3.42297 -2.45785 0
M  V30 23513 H 2200.48 -2.23253 -2.34393 0
M  V30 23514 H 2199.38 -3.70025 -0.55067 0
M  V30 23515 H 2200.72 -4.86545 -0.743979 0
M  V30 23516 N 2202.37 -0.00838561 -1.57598 0
M  V30 23517 C 2203.28 0.99645 -2.12387 0
M  V30 23518 C 2204.3 1.37125 -1.0711 0
M  V30 23519 O 2205.47 1.45688 -1.39058 0
M  V30 23520 C 2202.54 2.26694 -2.62318 0
M  V30 23521 C 2201.6 1.95449 -3.82228 0
M  V30 23522 C 2200.83 3.16441 -4.29768 0
M  V30 23523 O 2201.05 4.2841 -3.76592 0
M  V30 23524 O 2199.99 2.99949 -5.21837 0
M  V30 23525 H 2203.81 0.560673 -2.9848 0
M  V30 23526 H 2201.4 0.210961 -1.47903 0
M  V30 23527 H 2203.28 3.01317 -2.94594 0
M  V30 23528 H 2201.96 2.69494 -1.79318 0
M  V30 23529 H 2200.86 1.18275 -3.54911 0
M  V30 23530 H 2202.2 1.57481 -4.66327 0
M  V30 23531 N 2203.85 1.55365 0.264492 0
M  V30 23532 C 2205.26 1.66992 0.834906 0
M  V30 23533 C 2205.61 0.602585 1.86717 0
M  V30 23534 O 2204.73 -0.254387 2.149 0
M  V30 23535 C 2205.33 3.02732 1.52114 0
M  V30 23536 C 2203.89 3.16358 2.03948 0
M  V30 23537 C 2203.04 2.62817 0.884452 0
M  V30 23538 H 2205.99 1.58648 0.040659 0
M  V30 23539 H 2206.01 2.96196 2.38848 0
M  V30 23540 H 2205.52 3.80393 0.769601 0
M  V30 23541 H 2203.62 2.43487 2.82037 0
M  V30 23542 H 2203.73 4.23036 2.24894 0
M  V30 23543 H 2202.1 2.20191 1.28016 0
M  V30 23544 H 2202.88 3.42988 0.14628 0
M  V30 23545 N 2205.33 -0.529387 1.48443 0
M  V30 23546 C 2206.57 -1.28166 1.55744 0
M  V30 23547 C 2206.89 -1.94164 0.236545 0
M  V30 23548 O 2208.09 -2.7085 0.187809 0
M  V30 23549 C 2206.55 -2.3256 2.74671 0
M  V30 23550 C 2206.16 -1.72628 4.13405 0
M  V30 23551 C 2207.9 -3.08793 2.91285 0
M  V30 23552 C 2205.81 -2.74965 5.23591 0
M  V30 23553 H 2204.74 -0.48202 0.579804 0
M  V30 23554 H 2207.39 -0.559025 1.74777 0
M  V30 23555 H 2205.77 -3.07862 2.49073 0
M  V30 23556 H 2206.95 -1.03511 4.49024 0
M  V30 23557 H 2205.26 -1.08885 4.01912 0
M  V30 23558 H 2207.86 -3.85267 3.70774 0
M  V30 23559 H 2208.2 -3.64691 2.00764 0
M  V30 23560 H 2208.73 -2.40606 3.16786 0
M  V30 23561 H 2205.47 -2.23887 6.1608 0
M  V30 23562 H 2204.99 -3.42409 4.9246 0
M  V30 23563 H 2206.67 -3.37939 5.5173 0
M  V30 23564 N 2206.8 -1.37041 -0.778305 0
M  V30 23565 C 2208.21 -1.28525 -1.35419 0
M  V30 23566 C 2208.57 0.0700557 -1.96075 0
M  V30 23567 O 2207.69 0.971767 -1.93354 0
M  V30 23568 C 2208.29 -2.32739 -2.46207 0
M  V30 23569 C 2206.84 -2.27878 -2.99581 0
M  V30 23570 C 2205.99 -2.16921 -1.72744 0
M  V30 23571 H 2208.94 -1.47758 -0.579074 0
M  V30 23572 H 2208.96 -1.97026 -3.25517 0
M  V30 23573 H 2208.48 -3.31369 -2.0203 0
M  V30 23574 H 2206.58 -1.32751 -3.48149 0
M  V30 23575 H 2206.69 -3.21025 -3.5564 0
M  V30 23576 H 2205.05 -1.63358 -1.95413 0
M  V30 23577 H 2205.84 -3.17455 -1.30681 0
M  V30 23578 N 2208.28 1.00373 -1.21503 0
M  V30 23579 C 2209.24 2.07336 -0.976963 0
M  V30 23580 C 2210.24 1.60714 0.052504 0
M  V30 23581 O 2211.43 1.73216 -0.1849 0
M  V30 23582 C 2208.57 3.37596 -0.473483 0
M  V30 23583 H 2209.76 2.29889 -1.92591 0
M  V30 23584 H 2207.31 1.17369 -1.03219 0
M  V30 23585 H 2208.05 3.20723 0.480323 0
M  V30 23586 H 2207.83 3.72766 -1.21607 0
M  V30 23587 H 2209.32 4.16319 -0.326824 0
M  V30 23588 N 2209.76 1.02298 1.19887 0
M  V30 23589 C 2210.67 0.608548 2.2657 0
M  V30 23590 C 2211.69 -0.356934 1.703 0
M  V30 23591 O 2212.86 -0.216291 2.00235 0
M  V30 23592 C 2209.93 -0.0402204 3.46677 0
M  V30 23593 C 2208.99 0.972013 4.18151 0
M  V30 23594 C 2208.22 0.35411 5.32524 0
M  V30 23595 O 2208.44 -0.844505 5.64114 0
M  V30 23596 O 2207.38 1.07402 5.9224 0
M  V30 23597 H 2211.2 1.49688 2.64248 0
M  V30 23598 H 2208.79 0.792831 1.26628 0
M  V30 23599 H 2210.67 -0.40225 4.19476 0
M  V30 23600 H 2209.35 -0.902652 3.1086 0
M  V30 23601 H 2208.25 1.38552 3.47497 0
M  V30 23602 H 2209.59 1.80462 4.57924 0
M  V30 23603 N 2211.24 -1.35782 0.800057 0
M  V30 23604 C 2212.49 -1.9856 0.376632 0
M  V30 23605 C 2212.81 -1.63797 -1.0581 0
M  V30 23606 O 2212.08 -0.917202 -1.73102 0
M  V30 23607 H 2210.66 -0.734465 0.136274 0
M  V30 23608 H 2213.32 -1.65804 1.02445 0
M  V30 23609 H 2212.41 -3.08432 0.477056 0
M  V30 23610 N 2212.72 -0.552988 -1.4758 0
M  V30 23611 C 2213.96 -0.0274004 -2.02781 0
M  V30 23612 C 2214.29 1.31732 -1.4269 0
M  V30 23613 O 2213.57 1.85622 -0.58093 0
M  V30 23614 C 2213.85 0.0701738 -3.60032 0
M  V30 23615 C 2213.71 -1.30134 -4.30564 0
M  V30 23616 C 2215.02 0.785694 -4.3303 0
M  V30 23617 H 2212.14 -0.0114315 -0.736911 0
M  V30 23618 H 2214.79 -0.714463 -1.76055 0
M  V30 23619 H 2212.94 0.655315 -3.82933 0
M  V30 23620 H 2214.61 -1.92936 -4.19015 0
M  V30 23621 H 2212.85 -1.87715 -3.91082 0
M  V30 23622 H 2213.52 -1.18583 -5.39112 0
M  V30 23623 H 2216 0.288909 -4.15096 0
M  V30 23624 H 2214.87 0.822917 -5.42696 0
M  V30 23625 H 2215.13 1.84093 -4.01948 0
M  V30 23626 N 2214.19 1.54923 -0.28923 0
M  V30 23627 C 2215.42 2.04013 0.325953 0
M  V30 23628 C 2215.83 1.16653 1.48959 0
M  V30 23629 O 2215.17 0.182232 1.82794 0
M  V30 23630 C 2215.24 3.49159 0.85605 0
M  V30 23631 C 2214.9 4.56642 -0.180778 0
M  V30 23632 C 2215.9 5.1009 -1.00519 0
M  V30 23633 C 2213.58 5.01285 -0.319086 0
M  V30 23634 C 2215.58 6.06712 -1.95396 0
M  V30 23635 C 2213.26 5.9773 -1.27132 0
M  V30 23636 C 2214.26 6.50325 -2.08724 0
M  V30 23637 O 2213.95 7.44882 -3.02335 0
M  V30 23638 H 2213.68 0.671656 0.0765158 0
M  V30 23639 H 2216.24 2.00991 -0.423289 0
M  V30 23640 H 2214.47 3.49466 1.65561 0
M  V30 23641 H 2216.15 3.81509 1.38584 0
M  V30 23642 H 2216.92 4.76403 -0.909143 0
M  V30 23643 H 2212.8 4.59983 0.306027 0
M  V30 23644 H 2216.34 6.47689 -2.59122 0
M  V30 23645 H 2212.24 6.30835 -1.36812 0
M  V30 23646 H 2213.01 7.62645 -2.97178 0
M  V30 23647 N 2215.67 0.0167433 1.57591 0
M  V30 23648 C 2216.62 -0.9781 2.05954 0
M  V30 23649 C 2217.61 -1.29305 0.957555 0
M  V30 23650 O 2218.8 -1.28123 1.22121 0
M  V30 23651 C 2215.93 -2.26464 2.5801 0
M  V30 23652 C 2215.01 -1.9786 3.75116 0
M  V30 23653 N 2215.4 -1.39477 4.86189 0
M  V30 23654 C 2213.7 -2.27917 3.83367 0
M  V30 23655 C 2214.4 -1.27725 5.67504 0
M  V30 23656 N 2213.38 -1.76857 5.14026 0
M  V30 23657 H 2217.18 -0.521471 2.89237 0
M  V30 23658 H 2214.69 -0.188568 1.61302 0
M  V30 23659 H 2216.69 -2.98594 2.90942 0
M  V30 23660 H 2215.35 -2.72764 1.76153 0
M  V30 23661 H 2216.36 -1.07139 5.06697 0
M  V30 23662 H 2213.04 -2.76976 3.12394 0
M  V30 23663 H 2214.43 -0.826861 6.66793 0
M  V30 23664 N 2217.15 -1.55503 -0.256249 0
M  V30 23665 C 2218.4 -1.76547 -0.983641 0
M  V30 23666 C 2218.72 -0.579015 -1.86205 0
M  V30 23667 O 2217.99 0.405543 -1.91656 0
M  V30 23668 H 2216.57 -0.651093 -0.36618 0
M  V30 23669 H 2219.23 -1.92929 -0.276445 0
M  V30 23670 H 2218.33 -2.67318 -1.61082 0
M  V30 23671 N 2218.63 0.521507 -1.48721 0
M  V30 23672 C 2219.87 1.27876 -1.57403 0
M  V30 23673 C 2220.21 1.92573 -0.25085 0
M  V30 23674 O 2219.48 1.79712 0.743902 0
M  V30 23675 C 2219.77 2.36159 -2.71847 0
M  V30 23676 C 2219.62 1.76098 -4.13896 0
M  V30 23677 C 2220.94 3.3787 -2.82014 0
M  V30 23678 H 2218.06 0.463571 -0.572949 0
M  V30 23679 H 2220.7 0.580088 -1.80928 0
M  V30 23680 H 2218.85 2.95752 -2.51919 0
M  V30 23681 H 2220.52 1.20491 -4.45286 0
M  V30 23682 H 2218.76 1.06594 -4.205 0
M  V30 23683 H 2219.43 2.54541 -4.89809 0
M  V30 23684 H 2221.91 2.88244 -3.00091 0
M  V30 23685 H 2220.79 4.11021 -3.63803 0
M  V30 23686 H 2221.05 3.98943 -1.90518 0
M  V30 23687 N 2220.11 1.37452 0.771027 0
M  V30 23688 C 2221.33 1.35895 1.56013 0
M  V30 23689 C 2221.75 -0.0555192 1.88718 0
M  V30 23690 O 2221.11 -1.0175 1.51503 0
M  V30 23691 C 2221.16 2.19806 2.86997 0
M  V30 23692 O 2220.88 3.55742 2.55694 0
M  V30 23693 C 2222.38 2.26237 3.81224 0
M  V30 23694 H 2219.6 0.465461 0.483308 0
M  V30 23695 H 2222.14 1.80801 0.955579 0
M  V30 23696 H 2220.3 1.78408 3.43874 0
M  V30 23697 H 2220.71 3.99735 3.39577 0
M  V30 23698 H 2222.19 2.89271 4.70134 0
M  V30 23699 H 2222.66 1.271 4.20407 0
M  V30 23700 H 2223.27 2.67951 3.30276 0
M  V30 23701 N 2221.58 -0.997276 1.22033 0
M  V30 23702 C 2222.53 -2.08655 0.986504 0
M  V30 23703 C 2223.5 -1.65855 -0.090238 0
M  V30 23704 O 2224.69 -1.9071 0.0584629 0
M  V30 23705 C 2221.83 -3.40433 0.565629 0
M  V30 23706 C 2220.94 -3.966 1.71266 0
M  V30 23707 C 2220.07 -5.1652 1.2402 0
M  V30 23708 C 2219.11 -5.64814 2.35906 0
M  V30 23709 N 2218.25 -6.75976 1.89738 0
M  V30 23710 H 2223.09 -2.27991 1.91896 0
M  V30 23711 H 2220.63 -1.1178 0.956219 0
M  V30 23712 H 2222.59 -4.161 0.302812 0
M  V30 23713 H 2221.22 -3.21111 -0.329823 0
M  V30 23714 H 2220.27 -3.17847 2.08992 0
M  V30 23715 H 2221.58 -4.28428 2.55443 0
M  V30 23716 H 2220.73 -5.9946 0.934501 0
M  V30 23717 H 2219.47 -4.86305 0.368573 0
M  V30 23718 H 2218.48 -4.80465 2.67269 0
M  V30 23719 H 2219.7 -5.97055 3.23577 0
M  V30 23720 H 2217.65 -6.47553 1.04931 0
M  V30 23721 H 2217.57 -7.07099 2.67483 0
M  V30 23722 H 2218.83 -7.62433 1.62224 0
M  V30 23723 N 2223.06 -1.02932 -1.19343 0
M  V30 23724 C 2224.47 -0.755663 -1.70724 0
M  V30 23725 C 2224.82 0.724644 -1.82328 0
M  V30 23726 O 2223.95 1.56482 -1.49474 0
M  V30 23727 C 2224.54 -1.36508 -3.10082 0
M  V30 23728 C 2223.1 -1.14 -3.58721 0
M  V30 23729 C 2222.25 -1.46287 -2.35575 0
M  V30 23730 H 2225.2 -1.19719 -1.04178 0
M  V30 23731 H 2225.22 -0.762283 -3.72786 0
M  V30 23732 H 2224.73 -2.44246 -3.01605 0
M  V30 23733 H 2222.84 -0.0808556 -3.72512 0
M  V30 23734 H 2222.95 -1.82902 -4.42813 0
M  V30 23735 H 2221.31 -0.882212 -2.38933 0
M  V30 23736 H 2222.1 -2.55109 -2.29727 0
M  V30 23737 N 2224.54 1.35356 -0.807246 0
M  V30 23738 C 2225.49 2.29786 -0.216077 0
M  V30 23739 C 2226.46 1.52843 0.650252 0
M  V30 23740 O 2227.64 1.81279 0.595195 0
M  V30 23741 C 2224.78 3.39322 0.628834 0
M  V30 23742 C 2223.9 4.31229 -0.258003 0
M  V30 23743 C 2223.03 5.27857 0.594976 0
M  V30 23744 C 2222.07 6.11402 -0.292218 0
M  V30 23745 N 2221.21 7.00166 0.520772 0
M  V30 23746 H 2226.05 2.79753 -1.02676 0
M  V30 23747 H 2223.58 1.37683 -0.517863 0
M  V30 23748 H 2225.54 4.01496 1.13386 0
M  V30 23749 H 2224.17 2.9063 1.40477 0
M  V30 23750 H 2223.22 3.70054 -0.881141 0
M  V30 23751 H 2224.54 4.89846 -0.940845 0
M  V30 23752 H 2223.69 5.95407 1.16511 0
M  V30 23753 H 2222.43 4.69738 1.31138 0
M  V30 23754 H 2221.43 5.42799 -0.87462 0
M  V30 23755 H 2222.66 6.716 -1.0065 0
M  V30 23756 H 2220.6 6.44534 1.22114 0
M  V30 23757 H 2220.52 7.55928 -0.10401 0
M  V30 23758 H 2221.79 7.72063 1.07416 0
M  V30 23759 N 2226.02 0.560807 1.47284 0
M  V30 23760 C 2226.95 -0.222398 2.28118 0
M  V30 23761 C 2227.96 -0.876032 1.37221 0
M  V30 23762 O 2229.15 -0.749279 1.62013 0
M  V30 23763 C 2226.25 -1.33279 3.11592 0
M  V30 23764 C 2225.43 -0.775265 4.30475 0
M  V30 23765 C 2224.48 -1.7706 4.95516 0
M  V30 23766 O 2223.51 -1.31529 5.53795 0
M  V30 23767 N 2224.71 -3.10409 4.90537 0
M  V30 23768 H 2227.48 0.47101 2.95976 0
M  V30 23769 H 2225.04 0.397118 1.56954 0
M  V30 23770 H 2227.03 -1.99746 3.51971 0
M  V30 23771 H 2225.6 -1.92938 2.45954 0
M  V30 23772 H 2224.82 0.0662805 3.94144 0
M  V30 23773 H 2226.11 -0.382182 5.07363 0
M  V30 23774 H 2225.51 -3.50042 4.44395 0
M  V30 23775 H 2224.06 -3.72425 5.34923 0
M  V30 23776 N 2227.5 -1.54768 0.297442 0
M  V30 23777 C 2228.74 -2.00365 -0.313341 0
M  V30 23778 C 2229.08 -1.18555 -1.53812 0
M  V30 23779 O 2228.35 -0.261137 -1.92739 0
M  V30 23780 C 2228.63 -3.53746 -0.673463 0
M  V30 23781 C 2228.49 -4.46298 0.560211 0
M  V30 23782 C 2229.81 -4.137 -1.50136 0
M  V30 23783 H 2226.92 -0.728376 -0.112415 0
M  V30 23784 H 2229.57 -1.85549 0.408833 0
M  V30 23785 H 2227.72 -3.66502 -1.28874 0
M  V30 23786 H 2229.39 -4.45453 1.19871 0
M  V30 23787 H 2227.63 -4.17041 1.19412 0
M  V30 23788 H 2228.3 -5.51368 0.264147 0
M  V30 23789 H 2230.78 -4.04358 -0.981517 0
M  V30 23790 H 2229.65 -5.21186 -1.72212 0
M  V30 23791 H 2229.92 -3.65347 -2.48945 0
M  V30 23792 N 2228.97 -0.0251005 -1.5758 0
M  V30 23793 C 2230.22 0.653733 -1.90812 0
M  V30 23794 C 2230.54 1.73521 -0.902761 0
M  V30 23795 O 2231.74 2.47041 -1.12618 0
M  V30 23796 C 2230.2 1.21403 -3.38806 0
M  V30 23797 C 2229.81 0.166047 -4.47692 0
M  V30 23798 C 2231.55 1.86961 -3.81111 0
M  V30 23799 C 2229.46 0.737752 -5.8678 0
M  V30 23800 H 2228.39 0.247944 -0.712067 0
M  V30 23801 H 2231.04 -0.0897459 -1.8328 0
M  V30 23802 H 2229.42 2.00899 -3.41256 0
M  V30 23803 H 2230.59 -0.606159 -4.56796 0
M  V30 23804 H 2228.91 -0.390539 -4.14565 0
M  V30 23805 H 2231.51 2.30683 -4.82379 0
M  V30 23806 H 2231.85 2.71066 -3.15958 0
M  V30 23807 H 2232.38 1.14161 -3.81067 0
M  V30 23808 H 2229.12 -0.0650729 -6.55468 0
M  V30 23809 H 2228.64 1.47854 -5.81291 0
M  V30 23810 H 2230.32 1.22873 -6.35225 0
M  V30 23811 N 2230.45 1.55637 0.247999 0
M  V30 23812 C 2231.4 1.90224 1.30703 0
M  V30 23813 C 2232.37 0.756358 1.4788 0
M  V30 23814 O 2233.55 1.00991 1.61881 0
M  V30 23815 C 2230.69 2.20142 2.65766 0
M  V30 23816 C 2229.81 3.4753 2.56606 0
M  V30 23817 C 2228.94 3.67024 3.84014 0
M  V30 23818 C 2227.98 4.88017 3.69467 0
M  V30 23819 N 2227.12 5.04037 4.88765 0
M  V30 23820 H 2231.96 2.80539 1.00507 0
M  V30 23821 H 2229.5 1.38874 0.485031 0
M  V30 23822 H 2231.45 2.35493 3.44382 0
M  V30 23823 H 2230.08 1.33032 2.94113 0
M  V30 23824 H 2229.14 3.40517 1.69565 0
M  V30 23825 H 2230.45 4.36292 2.41767 0
M  V30 23826 H 2229.6 3.82328 4.71074 0
M  V30 23827 H 2228.34 2.76494 4.01749 0
M  V30 23828 H 2227.35 4.72691 2.80791 0
M  V30 23829 H 2228.57 5.80006 3.53228 0
M  V30 23830 H 2226.52 4.16444 5.06863 0
M  V30 23831 H 2226.43 5.86885 4.76552 0
M  V30 23832 H 2227.7 5.23751 5.77326 0
M  V30 23833 N 2231.93 -0.513613 1.48996 0
M  V30 23834 C 2232.86 -1.62541 1.67639 0
M  V30 23835 C 2233.84 -1.61792 0.525116 0
M  V30 23836 O 2235.03 -1.78731 0.759534 0
M  V30 23837 C 2232.16 -3.01076 1.7312 0
M  V30 23838 C 2231.11 -3.16688 2.87911 0
M  V30 23839 C 2230.44 -4.56448 2.78494 0
M  V30 23840 C 2231.74 -2.97906 4.2901 0
M  V30 23841 H 2233.43 -1.47194 2.60719 0
M  V30 23842 H 2230.98 -0.706692 1.25467 0
M  V30 23843 H 2232.93 -3.78742 1.84749 0
M  V30 23844 H 2231.65 -3.17483 0.766297 0
M  V30 23845 H 2230.31 -2.41444 2.75863 0
M  V30 23846 H 2229.96 -4.69714 1.79938 0
M  V30 23847 H 2229.66 -4.67837 3.55531 0
M  V30 23848 H 2231.19 -5.36192 2.92113 0
M  V30 23849 H 2232.6 -3.65351 4.41805 0
M  V30 23850 H 2231 -3.20776 5.07172 0
M  V30 23851 H 2232.07 -1.94157 4.44332 0
M  V30 23852 N 2233.41 -1.37859 -0.763727 0
M  V30 23853 C 2234.69 -1.24037 -1.51242 0
M  V30 23854 C 2235.07 0.162612 -2.10473 0
M  V30 23855 O 2234.41 1.17109 -1.96208 0
M  V30 23856 C 2234.62 -2.34266 -2.5869 0
M  V30 23857 C 2235.97 -2.72199 -3.25873 0
M  V30 23858 O 2237 -2.33502 -2.68989 0
M  V30 23859 O 2235.86 -3.38894 -4.28734 0
M  V30 23860 H 2232.95 -0.484474 -0.670234 0
M  V30 23861 H 2235.5 -1.4966 -0.800005 0
M  V30 23862 H 2234.27 -3.28184 -2.13099 0
M  V30 23863 H 2233.89 -2.10152 -3.37523 0
M  V30 23864 N 2234.89 0.990791 -1.22561 0
M  V30 23865 C 2235.85 2.06288 -0.998899 0
M  V30 23866 C 2236.85 1.60761 0.0354551 0
M  V30 23867 O 2238.04 1.7301 -0.203261 0
M  V30 23868 C 2235.17 3.37075 -0.509263 0
M  V30 23869 H 2236.37 2.27833 -1.95018 0
M  V30 23870 H 2233.92 1.16267 -1.04459 0
M  V30 23871 H 2234.65 3.21215 0.446279 0
M  V30 23872 H 2234.44 3.71455 -1.25554 0
M  V30 23873 H 2235.93 4.15949 -0.370961 0
M  V30 23874 N 2236.37 1.03564 1.18795 0
M  V30 23875 C 2237.64 0.650466 1.84468 0
M  V30 23876 C 2238.02 -0.870399 1.92321 0
M  V30 23877 O 2237.37 -1.76983 1.44531 0
M  V30 23878 C 2237.58 1.32042 3.23057 0
M  V30 23879 C 2238.93 1.44799 3.99147 0
M  V30 23880 O 2239.95 1.27812 3.32479 0
M  V30 23881 O 2238.81 1.72432 5.18584 0
M  V30 23882 H 2235.91 0.22696 0.795247 0
M  V30 23883 H 2238.45 1.13421 1.26229 0
M  V30 23884 H 2237.22 2.35876 3.12215 0
M  V30 23885 H 2236.85 0.824968 3.88947 0
M  V30 23886 N 2237.84 -1.34926 0.814413 0
M  V30 23887 C 2239.25 -1.80985 0.458396 0
M  V30 23888 C 2239.61 -1.67579 -1.02039 0
M  V30 23889 O 2238.73 -1.21089 -1.7935 0
M  V30 23890 C 2239.33 -3.28595 0.82527 0
M  V30 23891 C 2237.88 -3.72766 0.521743 0
M  V30 23892 C 2237.03 -2.56786 1.04672 0
M  V30 23893 H 2239.98 -1.22794 1.00536 0
M  V30 23894 H 2240 -3.80292 0.125777 0
M  V30 23895 H 2239.52 -3.38321 1.90159 0
M  V30 23896 H 2237.62 -3.68585 -0.545524 0
M  V30 23897 H 2237.73 -4.6723 1.05985 0
M  V30 23898 H 2236.09 -2.50351 0.468666 0
M  V30 23899 H 2236.88 -2.69286 2.12932 0
M  V30 23900 N 2239.32 -0.56861 -1.46985 0
M  V30 23901 C 2240.57 -0.0489066 -2.02741 0
M  V30 23902 C 2240.9 1.30211 -1.44079 0
M  V30 23903 O 2240.18 1.84995 -0.600585 0
M  V30 23904 C 2240.46 0.0319837 -3.60086 0
M  V30 23905 C 2240.31 -1.34693 -4.29159 0
M  V30 23906 C 2241.63 0.739722 -4.33839 0
M  V30 23907 H 2238.75 -0.0192468 -0.736749 0
M  V30 23908 H 2241.39 -0.733096 -1.75287 0
M  V30 23909 H 2239.54 0.614663 -3.83607 0
M  V30 23910 H 2241.21 -1.97369 -4.16945 0
M  V30 23911 H 2239.46 -1.91853 -3.89069 0
M  V30 23912 H 2240.13 -1.24294 -5.37824 0
M  V30 23913 H 2242.6 0.244866 -4.15379 0
M  V30 23914 H 2241.48 0.765311 -5.43539 0
M  V30 23915 H 2241.74 1.79819 -4.03878 0
M  V30 23916 N 2240.8 1.54608 -0.305646 0
M  V30 23917 C 2241.71 2.27375 0.57774 0
M  V30 23918 C 2242.73 1.31063 1.14448 0
M  V30 23919 O 2243.9 1.64052 1.16828 0
M  V30 23920 C 2240.97 3.00385 1.73118 0
M  V30 23921 C 2240.03 4.12244 1.19805 0
M  V30 23922 C 2239.26 4.81763 2.29651 0
M  V30 23923 O 2239.48 4.50673 3.49643 0
M  V30 23924 O 2238.42 5.69066 1.96081 0
M  V30 23925 H 2242.24 3.03697 -0.0126774 0
M  V30 23926 H 2239.83 1.49227 -0.0719446 0
M  V30 23927 H 2241.71 3.46164 2.40309 0
M  V30 23928 H 2240.39 2.26953 2.30811 0
M  V30 23929 H 2239.29 3.70854 0.491733 0
M  V30 23930 H 2240.63 4.87667 0.66648 0
M  V30 23931 N 2242.28 0.033457 1.57564 0
M  V30 23932 C 2243.5 -0.657861 1.9669 0
M  V30 23933 C 2243.93 -1.64618 0.910086 0
M  V30 23934 O 2243.29 -1.80844 -0.128566 0
M  V30 23935 C 2243.33 -1.33677 3.34907 0
M  V30 23936 O 2242.44 -2.45213 3.31578 0
M  V30 23937 H 2241.78 -0.172478 0.641208 0
M  V30 23938 H 2244.31 0.096598 2.04372 0
M  V30 23939 H 2244.32 -1.69256 3.71236 0
M  V30 23940 H 2242.99 -0.612339 4.11368 0
M  V30 23941 H 2241.57 -2.11714 3.06972 0
M  V30 23942 N 2243.76 -1.55766 -0.239741 0
M  V30 23943 C 2244.69 -1.87375 -1.31998 0
M  V30 23944 C 2245.7 -0.760547 -1.43943 0
M  V30 23945 O 2246.89 -1.03872 -1.45165 0
M  V30 23946 C 2243.99 -2.0512 -2.69776 0
M  V30 23947 C 2243.16 -3.36027 -2.80008 0
M  V30 23948 C 2242.22 -3.43427 -3.98678 0
M  V30 23949 O 2241.25 -4.16589 -3.87869 0
M  V30 23950 N 2242.45 -2.73241 -5.12171 0
M  V30 23951 H 2245.21 -2.80624 -1.05216 0
M  V30 23952 H 2242.78 -1.5609 -0.42983 0
M  V30 23953 H 2244.77 -2.07405 -3.47513 0
M  V30 23954 H 2243.34 -1.18582 -2.89235 0
M  V30 23955 H 2242.56 -3.45997 -1.8889 0
M  V30 23956 H 2243.85 -4.22297 -2.838 0
M  V30 23957 H 2243.24 -2.13546 -5.23846 0
M  V30 23958 H 2241.8 -2.8121 -5.88017 0
M  V30 23959 N 2245.23 0.505704 -1.49266 0
M  V30 23960 C 2246.46 1.28899 -1.6248 0
M  V30 23961 C 2246.88 1.85782 -0.294365 0
M  V30 23962 O 2246.24 1.65627 0.737383 0
M  V30 23963 C 2246.29 2.39843 -2.69273 0
M  V30 23964 O 2245.39 3.43563 -2.28119 0
M  V30 23965 H 2244.73 0.380741 -0.543996 0
M  V30 23966 H 2247.26 0.605918 -1.95422 0
M  V30 23967 H 2247.27 2.85676 -2.91296 0
M  V30 23968 H 2245.95 1.97806 -3.65849 0
M  V30 23969 H 2244.53 3.03682 -2.16407 0
M  V30 23970 N 2246.71 1.38262 0.756405 0
M  V30 23971 C 2247.94 1.37542 1.54563 0
M  V30 23972 C 2248.36 -0.0354999 1.88767 0
M  V30 23973 O 2247.71 -1.00137 1.52574 0
M  V30 23974 C 2247.76 2.22838 2.8465 0
M  V30 23975 O 2247.48 3.58434 2.51906 0
M  V30 23976 C 2248.99 2.30268 3.78803 0
M  V30 23977 H 2246.21 0.470561 0.478344 0
M  V30 23978 H 2248.75 1.81804 0.936349 0
M  V30 23979 H 2246.9 1.82046 3.41962 0
M  V30 23980 H 2247.32 4.03314 3.35318 0
M  V30 23981 H 2248.79 2.94241 4.6704 0
M  V30 23982 H 2249.27 1.31552 4.19035 0
M  V30 23983 H 2249.88 2.71439 3.27416 0
M  V30 23984 N 2248.19 -0.984277 1.23084 0
M  V30 23985 C 2249.12 -2.09409 1.03296 0
M  V30 23986 C 2250.1 -1.7003 -0.0488931 0
M  V30 23987 O 2251.29 -1.93859 0.115001 0
M  V30 23988 C 2248.42 -3.41735 0.619215 0
M  V30 23989 C 2247.37 -3.95001 1.64798 0
M  V30 23990 C 2246.7 -5.23476 1.08979 0
M  V30 23991 C 2248 -4.24708 3.04007 0
M  V30 23992 H 2249.69 -2.26222 1.96123 0
M  V30 23993 H 2247.24 -1.0871 0.944363 0
M  V30 23994 H 2249.19 -4.18795 0.467851 0
M  V30 23995 H 2247.91 -3.24776 -0.344729 0
M  V30 23996 H 2246.57 -3.20082 1.78726 0
M  V30 23997 H 2246.22 -5.02864 0.116948 0
M  V30 23998 H 2245.92 -5.60082 1.77714 0
M  V30 23999 H 2247.44 -6.03161 0.950199 0
M  V30 24000 H 2248.86 -4.92532 2.93402 0
M  V30 24001 H 2247.26 -4.72506 3.69944 0
M  V30 24002 H 2248.33 -3.32135 3.5329 0
M  V30 24003 N 2249.67 -1.04192 -1.18244 0
M  V30 24004 C 2250.58 -0.644516 -2.25573 0
M  V30 24005 C 2251.59 0.329796 -1.70846 0
M  V30 24006 O 2252.77 0.184408 -2.00554 0
M  V30 24007 C 2249.84 -0.0149379 -3.46697 0
M  V30 24008 C 2248.9 -1.03841 -4.16552 0
M  V30 24009 C 2248.13 -0.438785 -5.31893 0
M  V30 24010 O 2248.35 0.754653 -5.65386 0
M  V30 24011 O 2247.29 -1.1681 -5.90457 0
M  V30 24012 H 2251.11 -1.53873 -2.61833 0
M  V30 24013 H 2248.7 -0.812876 -1.2535 0
M  V30 24014 H 2250.58 0.335464 -4.20063 0
M  V30 24015 H 2249.25 0.853083 -3.12257 0
M  V30 24016 H 2248.16 -1.44063 -3.45249 0
M  V30 24017 H 2249.49 -1.87724 -4.54995 0
M  V30 24018 N 2251.15 1.34492 -0.821557 0
M  V30 24019 C 2252.4 1.97584 -0.40539 0
M  V30 24020 C 2252.71 1.65865 1.03674 0
M  V30 24021 O 2253.91 2.22436 1.55675 0
M  V30 24022 C 2252.37 3.53534 -0.673924 0
M  V30 24023 C 2251.98 3.94148 -2.12958 0
M  V30 24024 C 2253.72 4.23263 -0.323854 0
M  V30 24025 C 2251.63 5.43005 -2.34308 0
M  V30 24026 H 2250.56 0.739362 -0.147849 0
M  V30 24027 H 2253.21 1.53353 -1.00772 0
M  V30 24028 H 2251.59 3.96 -0.00144515 0
M  V30 24029 H 2252.77 3.62792 -2.84111 0
M  V30 24030 H 2251.08 3.37352 -2.44095 0
M  V30 24031 H 2253.68 5.32707 -0.461219 0
M  V30 24032 H 2254.02 4.09823 0.731514 0
M  V30 24033 H 2254.55 3.86269 -0.950854 0
M  V30 24034 H 2251.29 5.61429 -3.38345 0
M  V30 24035 H 2250.81 5.7588 -1.67697 0
M  V30 24036 H 2252.49 6.09667 -2.16599 0
M  V30 24037 N 2252.62 0.576397 1.46681 0
M  V30 24038 C 2253.59 -0.150199 2.28707 0
M  V30 24039 C 2254.59 -0.82477 1.38037 0
M  V30 24040 O 2255.78 -0.677691 1.60477 0
M  V30 24041 C 2252.91 -1.22187 3.1825 0
M  V30 24042 H 2254.1 0.570573 2.94422 0
M  V30 24043 H 2251.66 0.334105 1.52687 0
M  V30 24044 H 2252.39 -1.97442 2.57269 0
M  V30 24045 H 2252.18 -0.742744 3.85001 0
M  V30 24046 H 2253.67 -1.73166 3.80004 0
M  V30 24047 N 2254.1 -1.54444 0.313841 0
M  V30 24048 C 2255.35 -1.99993 -0.291064 0
M  V30 24049 C 2255.67 -1.20369 -1.53416 0
M  V30 24050 O 2254.94 -0.302961 -1.93543 0
M  V30 24051 H 2253.52 -0.738776 -0.110539 0
M  V30 24052 H 2256.18 -1.90139 0.428139 0
M  V30 24053 H 2255.28 -3.0714 -0.554214 0
M  V30 24054 N 2255.58 -0.0418125 -1.57545 0
M  V30 24055 C 2256.51 0.933891 -2.14011 0
M  V30 24056 C 2257.49 1.33082 -1.0594 0
M  V30 24057 O 2258.68 1.40719 -1.33835 0
M  V30 24058 C 2255.81 2.21194 -2.67751 0
M  V30 24059 C 2254.76 1.95538 -3.80722 0
M  V30 24060 C 2254.09 3.29717 -4.20941 0
M  V30 24061 C 2255.39 1.28443 -5.06261 0
M  V30 24062 H 2257.08 0.463593 -2.95789 0
M  V30 24063 H 2254.63 0.221548 -1.42286 0
M  V30 24064 H 2256.58 2.89843 -3.05891 0
M  V30 24065 H 2255.3 2.70413 -1.83151 0
M  V30 24066 H 2253.96 1.29304 -3.4304 0
M  V30 24067 H 2253.61 3.76719 -3.33305 0
M  V30 24068 H 2253.31 3.13352 -4.97076 0
M  V30 24069 H 2254.83 3.99612 -4.61673 0
M  V30 24070 H 2256.25 1.87111 -5.41906 0
M  V30 24071 H 2254.65 1.22434 -5.87477 0
M  V30 24072 H 2255.72 0.259134 -4.84207 0
M  V30 24073 N 2257.06 1.55891 0.231477 0
M  V30 24074 C 2258.3 1.78707 0.958738 0
M  V30 24075 C 2258.64 0.609757 1.84379 0
M  V30 24076 O 2257.91 -0.391392 1.90521 0
M  V30 24077 C 2258.2 3.11529 1.80614 0
M  V30 24078 C 2258.05 4.39691 0.948251 0
M  V30 24079 C 2259.37 3.40708 2.78579 0
M  V30 24080 H 2256.49 0.650137 0.347118 0
M  V30 24081 H 2259.13 1.88624 0.228226 0
M  V30 24082 H 2257.28 3.03205 2.42897 0
M  V30 24083 H 2258.95 4.60024 0.342936 0
M  V30 24084 H 2257.19 4.3306 0.253237 0
M  V30 24085 H 2257.86 5.29044 1.57533 0
M  V30 24086 H 2260.34 3.49095 2.26433 0
M  V30 24087 H 2259.22 4.34832 3.34981 0
M  V30 24088 H 2259.48 2.62381 3.55821 0
M  V30 24089 N 2258.54 -0.497781 1.49532 0
M  V30 24090 C 2259.95 -0.829242 1.36366 0
M  V30 24091 C 2260.15 -1.97506 0.399218 0
M  V30 24092 O 2259.21 -2.51941 -0.167933 0
M  V30 24093 C 2260.52 -1.16642 2.77155 0
M  V30 24094 C 2262.07 -1.27444 2.85879 0
M  V30 24095 C 2262.54 -1.64489 4.27443 0
M  V30 24096 N 2264.04 -1.71532 4.30268 0
M  V30 24097 C 2264.77 -2.01647 5.36774 0
M  V30 24098 N 2264.27 -2.29964 6.5352 0
M  V30 24099 N 2266.06 -2.02925 5.24193 0
M  V30 24100 H 2258.21 0.257741 2.1083 0
M  V30 24101 H 2260.47 0.0527257 0.946533 0
M  V30 24102 H 2260.18 -0.397811 3.49443 0
M  V30 24103 H 2260.05 -2.10909 3.12725 0
M  V30 24104 H 2262.44 -2.03376 2.13827 0
M  V30 24105 H 2262.52 -0.3122 2.53888 0
M  V30 24106 H 2262.17 -0.891063 5.00022 0
M  V30 24107 H 2262.1 -2.61819 4.56901 0
M  V30 24108 H 2264.59 -1.51796 3.46073 0
M  V30 24109 H 2264.9 -2.5214 7.3051 0
M  V30 24110 H 2263.24 -2.27414 6.56741 0
M  V30 24111 H 2266.44 -1.80281 4.31991 0
M  V30 24112 H 2266.61 -2.26061 6.0729 0
M  V30 24113 N 2260.01 -1.38661 -0.749062 0
M  V30 24114 C 2260.96 -1.36254 -1.86289 0
M  V30 24115 C 2261.93 -0.224376 -1.64578 0
M  V30 24116 O 2263.12 -0.417312 -1.8618 0
M  V30 24117 C 2260.26 -1.19791 -3.23642 0
M  V30 24118 C 2259.37 -2.43033 -3.57154 0
M  V30 24119 C 2258.5 -2.19266 -4.83834 0
M  V30 24120 C 2257.54 -3.38256 -5.10146 0
M  V30 24121 N 2256.68 -3.13895 -6.28024 0
M  V30 24122 H 2261.52 -2.31473 -1.87681 0
M  V30 24123 H 2259.06 -1.14998 -0.917267 0
M  V30 24124 H 2261.02 -1.08261 -4.02909 0
M  V30 24125 H 2259.65 -0.282087 -3.21565 0
M  V30 24126 H 2258.7 -2.65219 -2.72696 0
M  V30 24127 H 2260.01 -3.31704 -3.72524 0
M  V30 24128 H 2259.16 -2.04898 -5.71053 0
M  V30 24129 H 2257.9 -1.27968 -4.70612 0
M  V30 24130 H 2256.91 -3.53138 -4.21395 0
M  V30 24131 H 2258.13 -4.30436 -5.25263 0
M  V30 24132 H 2256.08 -2.25249 -6.16116 0
M  V30 24133 H 2256 -3.96117 -6.43915 0
M  V30 24134 H 2257.26 -3.03192 -7.18119 0
M  V30 24135 N 2261.49 0.977736 -1.23605 0
M  V30 24136 C 2262.44 2.09185 -1.01708 0
M  V30 24137 C 2263.44 1.69341 0.0447917 0
M  V30 24138 O 2264.64 1.7967 -0.108933 0
M  V30 24139 H 2261.02 0.684307 -0.311815 0
M  V30 24140 H 2262.99 2.24819 -1.96211 0
M  V30 24141 C 2261.74 3.41985 -0.627806 0
M  V30 24142 H 2261.06 3.73097 -1.43662 0
M  V30 24143 H 2262.5 4.20871 -0.514127 0
M  V30 24144 C 2260.96 3.30288 0.66418 0
M  V30 24145 O 2261.49 3.63363 1.71261 0
M  V30 24146 N 2259.69 2.8344 0.641106 0
M  V30 24147 H 2259.24 2.56723 -0.212422 0
M  V30 24148 H 2259.2 2.75996 1.50578 0
M  V30 24149 N 2262.97 1.04818 1.1769 0
M  V30 24150 C 2263.9 0.66683 2.23776 0
M  V30 24151 C 2264.88 -0.333581 1.66797 0
M  V30 24152 O 2266.07 -0.212008 1.93039 0
M  V30 24153 C 2263.2 0.0368544 3.4728 0
M  V30 24154 C 2262.15 0.961619 4.17057 0
M  V30 24155 C 2261.48 0.19572 5.34342 0
M  V30 24156 C 2262.78 2.2841 4.69709 0
M  V30 24157 H 2264.47 1.55371 2.5593 0
M  V30 24158 H 2262.02 0.748506 1.23018 0
M  V30 24159 H 2263.97 -0.241701 4.20706 0
M  V30 24160 H 2262.69 -0.884949 3.14382 0
M  V30 24161 H 2261.35 1.22468 3.45539 0
M  V30 24162 H 2261 -0.728729 4.97693 0
M  V30 24163 H 2260.7 0.811878 5.81964 0
M  V30 24164 H 2262.23 -0.0756399 6.10553 0
M  V30 24165 H 2263.64 2.06572 5.34791 0
M  V30 24166 H 2262.04 2.8539 5.27895 0
M  V30 24167 H 2263.11 2.92532 3.86721 0
M  V30 24168 N 2264.45 -1.34055 0.828678 0
M  V30 24169 C 2265.7 -1.98401 0.420115 0
M  V30 24170 C 2266.03 -1.65527 -1.01561 0
M  V30 24171 O 2265.3 -0.929861 -1.70833 0
M  V30 24172 C 2265.59 -3.54558 0.629333 0
M  V30 24173 C 2265.44 -3.97155 2.11159 0
M  V30 24174 C 2266.76 -4.40046 0.0689529 0
M  V30 24175 H 2263.88 -0.720706 0.154117 0
M  V30 24176 H 2266.52 -1.58858 1.04231 0
M  V30 24177 H 2264.67 -3.88372 0.09971 0
M  V30 24178 H 2266.34 -3.73647 2.70529 0
M  V30 24179 H 2264.58 -3.47257 2.59991 0
M  V30 24180 H 2265.26 -5.05883 2.20877 0
M  V30 24181 H 2267.73 -4.12819 0.52153 0
M  V30 24182 H 2266.61 -5.48352 0.245102 0
M  V30 24183 H 2266.87 -4.30017 -1.02653 0
M  V30 24184 N 2265.93 -0.584167 -1.46374 0
M  V30 24185 C 2266.86 0.186078 -2.28443 0
M  V30 24186 C 2267.87 0.854091 -1.38597 0
M  V30 24187 O 2269.06 0.723409 -1.63184 0
M  V30 24188 C 2266.16 1.28305 -3.13673 0
M  V30 24189 C 2265.33 0.706682 -4.31654 0
M  V30 24190 C 2264.39 1.69155 -4.9827 0
M  V30 24191 O 2263.42 1.22702 -5.55817 0
M  V30 24192 N 2264.62 3.02566 -4.95413 0
M  V30 24193 H 2267.39 -0.518037 -2.95189 0
M  V30 24194 H 2264.95 -0.422038 -1.56302 0
M  V30 24195 H 2266.94 1.94121 -3.55104 0
M  V30 24196 H 2265.51 1.89001 -2.48993 0
M  V30 24197 H 2264.73 -0.128977 -3.93989 0
M  V30 24198 H 2266.02 0.301417 -5.07906 0
M  V30 24199 H 2265.42 3.42928 -4.49908 0
M  V30 24200 H 2263.97 3.63868 -5.40781 0
M  V30 24201 N 2267.41 1.54275 -0.322027 0
M  V30 24202 C 2268.65 2.00541 0.281009 0
M  V30 24203 C 2268.98 1.21022 1.52263 0
M  V30 24204 O 2268.24 0.280016 1.93686 0
M  V30 24205 C 2268.53 3.51221 0.661707 0
M  V30 24206 C 2268.2 4.48332 -0.48056 0
M  V30 24207 C 2266.86 4.74603 -0.794088 0
M  V30 24208 C 2269.21 5.0604 -1.24792 0
M  V30 24209 C 2266.54 5.5584 -1.87773 0
M  V30 24210 C 2268.89 5.88458 -2.32164 0
M  V30 24211 C 2267.56 6.13031 -2.641 0
M  V30 24212 H 2266.83 0.733831 0.102828 0
M  V30 24213 H 2269.48 1.86246 -0.445486 0
M  V30 24214 H 2267.78 3.63234 1.4686 0
M  V30 24215 H 2269.48 3.84459 1.13982 0
M  V30 24216 H 2266.07 4.28003 -0.226114 0
M  V30 24217 H 2270.25 4.85727 -1.01896 0
M  V30 24218 H 2265.51 5.73111 -2.12964 0
M  V30 24219 H 2269.68 6.32194 -2.92068 0
M  V30 24220 H 2267.31 6.75769 -3.48196 0
M  V30 24221 N 2268.88 0.0501669 1.5752 0
M  V30 24222 C 2270.13 -0.622608 1.92271 0
M  V30 24223 C 2270.45 -1.71442 0.929113 0
M  V30 24224 O 2269.72 -1.95883 -0.0261842 0
M  V30 24225 H 2268.3 -0.232968 0.709743 0
M  V30 24226 H 2270.96 0.102932 1.94628 0
M  V30 24227 H 2270.06 -1.06186 2.93481 0
M  V30 24228 N 2270.36 -1.56011 -0.223207 0
M  V30 24229 C 2271.61 -1.79213 -0.949248 0
M  V30 24230 C 2271.94 -0.619527 -1.84053 0
M  V30 24231 O 2271.22 0.381283 -1.90726 0
M  V30 24232 C 2271.5 -3.12483 -1.7896 0
M  V30 24233 C 2271.35 -4.40188 -0.92492 0
M  V30 24234 C 2272.67 -3.4218 -2.76768 0
M  V30 24235 H 2269.79 -0.651969 -0.343665 0
M  V30 24236 H 2272.43 -1.88743 -0.21822 0
M  V30 24237 H 2270.58 -3.04489 -2.41285 0
M  V30 24238 H 2272.25 -4.60199 -0.318535 0
M  V30 24239 H 2270.5 -4.33188 -0.230268 0
M  V30 24240 H 2271.17 -5.29872 -1.54726 0
M  V30 24241 H 2273.64 -3.50291 -2.24578 0
M  V30 24242 H 2272.52 -4.36603 -3.3267 0
M  V30 24243 H 2272.78 -2.64265 -3.54424 0
M  V30 24244 N 2271.84 0.489844 -1.49794 0
M  V30 24245 C 2273.09 1.24079 -1.59527 0
M  V30 24246 C 2273.41 1.92847 -0.288987 0
M  V30 24247 O 2272.68 1.83256 0.692403 0
M  V30 24248 H 2271.26 0.460973 -0.587804 0
M  V30 24249 H 2273.92 0.566746 -1.86478 0
M  V30 24250 H 2273.02 1.99876 -2.397 0
M  V30 24251 N 2273.32 1.39056 0.741698 0
M  V30 24252 C 2274.23 1.395 1.88619 0
M  V30 24253 C 2275.24 0.290608 1.71556 0
M  V30 24254 O 2276.42 0.530988 1.94274 0
M  V30 24255 C 2273.48 1.23042 3.24132 0
M  V30 24256 C 2272.55 2.43393 3.53636 0
M  V30 24257 C 2271.78 2.27711 4.82683 0
M  V30 24258 O 2272 1.27706 5.5592 0
M  V30 24259 O 2270.94 3.16554 5.11935 0
M  V30 24260 H 2274.76 2.35959 1.91199 0
M  V30 24261 H 2272.35 1.20101 0.888604 0
M  V30 24262 H 2274.23 1.15971 4.05128 0
M  V30 24263 H 2272.9 0.296747 3.22337 0
M  V30 24264 H 2271.81 2.5604 2.72753 0
M  V30 24265 H 2273.14 3.35431 3.60204 0
M  V30 24266 N 2274.8 -0.971167 1.24121 0
M  V30 24267 C 2275.74 -2.06515 1.03054 0
M  V30 24268 C 2276.71 -1.66009 -0.0550374 0
M  V30 24269 O 2277.9 -1.90543 0.0989023 0
M  V30 24270 C 2275.04 -3.39157 0.637712 0
M  V30 24271 C 2274.15 -3.92878 1.7964 0
M  V30 24272 C 2273.29 -5.13773 1.34948 0
M  V30 24273 C 2272.32 -5.59683 2.47833 0
M  V30 24274 N 2271.46 -6.718 2.04034 0
M  V30 24275 H 2276.3 -2.23869 1.96689 0
M  V30 24276 H 2273.84 -1.09727 0.979714 0
M  V30 24277 H 2275.8 -4.15364 0.391004 0
M  V30 24278 H 2274.43 -3.21738 -0.261636 0
M  V30 24279 H 2273.48 -3.13342 2.15687 0
M  V30 24280 H 2274.79 -4.22913 2.64473 0
M  V30 24281 H 2273.94 -5.97343 1.06144 0
M  V30 24282 H 2272.68 -4.85414 0.471642 0
M  V30 24283 H 2271.69 -4.74688 2.77401 0
M  V30 24284 H 2272.91 -5.90057 3.36169 0
M  V30 24285 H 2270.86 -6.45182 1.18643 0
M  V30 24286 H 2270.78 -7.01266 2.82422 0
M  V30 24287 H 2272.04 -7.5882 1.7836 0
M  V30 24288 N 2276.27 -1.05441 -1.17133 0
M  V30 24289 C 2277.22 -0.65155 -2.23288 0
M  V30 24290 C 2278.22 0.328382 -1.66187 0
M  V30 24291 O 2279.42 0.194174 -1.7895 0
M  V30 24292 H 2275.8 -0.192536 -0.726935 0
M  V30 24293 H 2277.77 -1.55694 -2.54562 0
M  V30 24294 C 2276.52 -0.0449047 -3.47671 0
M  V30 24295 H 2275.84 -0.790029 -3.91917 0
M  V30 24296 H 2277.28 0.199566 -4.2353 0
M  V30 24297 C 2275.74 1.20912 -3.14455 0
M  V30 24298 O 2276.27 2.29819 -3.29463 0
M  V30 24299 N 2274.48 1.10774 -2.68659 0
M  V30 24300 H 2274.02 0.221481 -2.56646 0
M  V30 24301 H 2273.98 1.94766 -2.46807 0
M  V30 24302 N 2277.75 1.33613 -0.835776 0
M  V30 24303 C 2279 1.97491 -0.429144 0
M  V30 24304 C 2279.32 1.66544 1.0143 0
M  V30 24305 O 2278.59 0.962774 1.70609 0
M  V30 24306 H 2277.17 0.730594 -0.155699 0
M  V30 24307 H 2279.83 1.6303 -1.06805 0
M  V30 24308 H 2278.93 3.07059 -0.558664 0
M  V30 24309 N 2279.23 0.591922 1.46062 0
M  V30 24310 C 2280.47 0.0838373 2.04228 0
M  V30 24311 C 2280.83 -1.25584 1.45233 0
M  V30 24312 O 2282.04 -1.85371 1.94656 0
M  V30 24313 C 2280.31 0.028691 3.57388 0
M  V30 24314 S 2281.87 -0.42048 4.36781 0
M  V30 24315 H 2278.68 0.0419444 0.709762 0
M  V30 24316 H 2281.29 0.786497 1.78982 0
M  V30 24317 H 2279.99 1.0075 3.97841 0
M  V30 24318 H 2279.52 -0.696452 3.87186 0
M  V30 24319 H 2281.54 -1.67333 4.67134 0
M  V30 24320 N 2280.71 -1.54102 0.330204 0
M  V30 24321 C 2281.95 -2.00984 -0.27077 0
M  V30 24322 C 2282.29 -1.21791 -1.51263 0
M  V30 24323 O 2281.56 -0.301961 -1.92142 0
M  V30 24324 C 2281.85 -3.55095 -0.598277 0
M  V30 24325 C 2281.7 -4.45009 0.654752 0
M  V30 24326 C 2283.02 -4.16791 -1.41327 0
M  V30 24327 H 2280.14 -0.730597 -0.0969403 0
M  V30 24328 H 2282.78 -1.8464 0.448098 0
M  V30 24329 H 2280.93 -3.69153 -1.21071 0
M  V30 24330 H 2282.6 -4.42811 1.29292 0
M  V30 24331 H 2280.84 -4.14414 1.28232 0
M  V30 24332 H 2281.51 -5.50683 0.381041 0
M  V30 24333 H 2283.99 -4.06349 -0.895525 0
M  V30 24334 H 2282.87 -5.24721 -1.61118 0
M  V30 24335 H 2283.13 -3.70546 -2.4114 0
M  V30 24336 N 2282.19 -0.0585199 -1.57491 0
M  V30 24337 C 2283.6 0.298063 -1.56792 0
M  V30 24338 C 2283.8 1.70942 -1.06682 0
M  V30 24339 O 2282.86 2.41816 -0.726714 0
M  V30 24340 C 2284.17 0.119826 -3.00461 0
M  V30 24341 C 2285.72 0.190373 -3.12421 0
M  V30 24342 C 2286.19 0.0405762 -4.57982 0
M  V30 24343 N 2287.69 0.0966144 -4.63099 0
M  V30 24344 C 2288.42 0.00492864 -5.734 0
M  V30 24345 N 2287.92 -0.139524 -6.92659 0
M  V30 24346 N 2289.71 0.0610403 -5.62067 0
M  V30 24347 H 2281.86 -0.981084 -1.88384 0
M  V30 24348 H 2284.12 -0.381478 -0.867858 0
M  V30 24349 H 2283.83 -0.85355 -3.41185 0
M  V30 24350 H 2283.7 0.877769 -3.66845 0
M  V30 24351 H 2286.09 1.15423 -2.71591 0
M  V30 24352 H 2286.17 -0.598449 -2.48701 0
M  V30 24353 H 2285.82 -0.919985 -4.99498 0
M  V30 24354 H 2285.75 0.848636 -5.19717 0
M  V30 24355 H 2288.24 0.20721 -3.77331 0
M  V30 24356 H 2288.55 -0.20199 -7.72536 0
M  V30 24357 H 2286.89 -0.174708 -6.9478 0
M  V30 24358 H 2290.09 0.1725 -4.67782 0
M  V30 24359 H 2290.26 -0.0138701 -6.47999 0
M  V30 24360 N 2283.66 1.56128 0.21493 0
M  V30 24361 C 2284.91 1.80621 0.935293 0
M  V30 24362 C 2285.27 0.632539 1.81705 0
M  V30 24363 O 2284.56 -0.373149 1.87931 0
M  V30 24364 C 2284.75 3.08583 1.80308 0
M  V30 24365 C 2284.58 4.38284 1.00683 0
M  V30 24366 C 2283.35 5.0044 0.699123 0
M  V30 24367 C 2285.55 5.12975 0.368967 0
M  V30 24368 N 2283.53 6.13787 -0.117842 0
M  V30 24369 C 2284.9 6.19219 -0.311089 0
M  V30 24370 C 2286.96 4.97097 0.282671 0
M  V30 24371 C 2285.66 7.11309 -1.0692 0
M  V30 24372 C 2287.69 5.89593 -0.461985 0
M  V30 24373 C 2287.05 6.95268 -1.13056 0
M  V30 24374 H 2283.15 0.712496 0.322295 0
M  V30 24375 H 2285.73 1.93611 0.205615 0
M  V30 24376 H 2283.9 2.96864 2.50453 0
M  V30 24377 H 2285.63 3.21241 2.46142 0
M  V30 24378 H 2282.39 4.62513 1.01876 0
M  V30 24379 H 2282.81 6.75036 -0.515353 0
M  V30 24380 H 2287.46 4.15445 0.785219 0
M  V30 24381 H 2285.17 7.92439 -1.58324 0
M  V30 24382 H 2288.76 5.79382 -0.529848 0
M  V30 24383 H 2287.64 7.65606 -1.69755 0
M  V30 24384 N 2285.14 -0.481893 1.50052 0
M  V30 24385 C 2286.39 -1.23658 1.60738 0
M  V30 24386 C 2286.72 -1.9184 0.30182 0
M  V30 24387 O 2286 -1.81621 -0.695993 0
M  V30 24388 C 2286.28 -2.28869 2.78013 0
M  V30 24389 C 2286.13 -1.65062 4.18419 0
M  V30 24390 C 2287.45 -3.30274 2.90873 0
M  V30 24391 H 2284.57 -0.448218 0.585038 0
M  V30 24392 H 2287.21 -0.531914 1.82403 0
M  V30 24393 H 2285.36 -2.88969 2.59672 0
M  V30 24394 H 2287.03 -1.08642 4.48324 0
M  V30 24395 H 2285.28 -0.954074 4.23178 0
M  V30 24396 H 2285.95 -2.41465 4.96385 0
M  V30 24397 H 2288.42 -2.80186 3.07628 0
M  V30 24398 H 2287.3 -4.01231 3.74573 0
M  V30 24399 H 2287.56 -3.93751 2.01028 0
M  V30 24400 N 2286.62 -1.39448 -0.734313 0
M  V30 24401 C 2287.55 -1.32612 -1.85713 0
M  V30 24402 C 2288.53 -0.199665 -1.61369 0
M  V30 24403 O 2289.72 -0.380228 -1.84625 0
M  V30 24404 C 2286.84 -1.05934 -3.21707 0
M  V30 24405 C 2285.89 -2.20779 -3.64909 0
M  V30 24406 S 2286.72 -3.83063 -3.74197 0
M  V30 24407 C 2287.88 -3.58612 -5.1298 0
M  V30 24408 H 2288.11 -2.27638 -1.91228 0
M  V30 24409 H 2285.64 -1.25511 -0.899241 0
M  V30 24410 H 2287.6 -0.912273 -4.00235 0
M  V30 24411 H 2286.26 -0.125938 -3.13847 0
M  V30 24412 H 2285.46 -1.97708 -4.63603 0
M  V30 24413 H 2285.06 -2.31693 -2.93589 0
M  V30 24414 H 2287.35 -3.1592 -5.99334 0
M  V30 24415 H 2288.29 -4.56769 -5.4108 0
M  V30 24416 H 2288.7 -2.92698 -4.82688 0
M  V30 24417 N 2288.1 0.964571 -1.24635 0
M  V30 24418 C 2289.05 2.08094 -1.03921 0
M  V30 24419 C 2290.04 1.69379 0.0268283 0
M  V30 24420 O 2291.25 1.79544 -0.127984 0
M  V30 24421 H 2287.62 0.680961 -0.319055 0
M  V30 24422 H 2289.59 2.22725 -1.98585 0
M  V30 24423 C 2288.34 3.413 -0.664043 0
M  V30 24424 H 2287.66 3.71552 -1.47611 0
M  V30 24425 H 2289.1 4.20302 -0.558737 0
M  V30 24426 C 2287.56 3.30974 0.629111 0
M  V30 24427 O 2288.09 3.65159 1.67398 0
M  V30 24428 N 2286.3 2.84104 0.611007 0
M  V30 24429 H 2285.85 2.56483 -0.239639 0
M  V30 24430 H 2285.8 2.77577 1.47642 0
M  V30 24431 N 2289.58 1.0606 1.16572 0
M  V30 24432 C 2290.54 0.67343 2.19083 0
M  V30 24433 C 2291.54 -0.27962 1.5835 0
M  V30 24434 O 2292.73 -0.0623182 1.74088 0
M  V30 24435 C 2289.86 -0.00948241 3.40899 0
M  V30 24436 H 2291.05 1.58086 2.54851 0
M  V30 24437 H 2288.61 0.855539 1.30806 0
M  V30 24438 H 2289.34 -0.929772 3.10686 0
M  V30 24439 H 2289.13 0.675798 3.86232 0
M  V30 24440 H 2290.62 -0.266171 4.16751 0
M  V30 24441 N 2291.06 -1.33168 0.84285 0
M  V30 24442 C 2291.99 -2.31641 0.294069 0
M  V30 24443 C 2292.97 -1.59153 -0.600373 0
M  V30 24444 O 2294.15 -1.87022 -0.523091 0
M  V30 24445 C 2291.28 -3.43257 -0.528355 0
M  V30 24446 C 2290.24 -4.27143 0.270635 0
M  V30 24447 C 2289.56 -5.30412 -0.675788 0
M  V30 24448 C 2290.86 -5.00599 1.4899 0
M  V30 24449 H 2292.56 -2.77789 1.11686 0
M  V30 24450 H 2290.1 -1.33552 0.538502 0
M  V30 24451 H 2292.05 -4.11176 -0.922602 0
M  V30 24452 H 2290.78 -2.95808 -1.38439 0
M  V30 24453 H 2289.44 -3.60855 0.646491 0
M  V30 24454 H 2289.09 -4.79219 -1.52834 0
M  V30 24455 H 2288.79 -5.8742 -0.145271 0
M  V30 24456 H 2290.31 -6.01197 -1.06746 0
M  V30 24457 H 2291.72 -5.61264 1.16859 0
M  V30 24458 H 2290.12 -5.67276 1.95749 0
M  V30 24459 H 2291.19 -4.29143 2.25753 0
M  V30 24460 N 2292.53 -0.599659 -1.45746 0
M  V30 24461 C 2293.78 -0.0915827 -2.01892 0
M  V30 24462 C 2294.1 1.27944 -1.47158 0
M  V30 24463 O 2293.37 1.84348 -0.662762 0
M  V30 24464 H 2291.95 -0.0308655 -0.746362 0
M  V30 24465 H 2294.61 -0.779268 -1.78643 0
M  V30 24466 H 2293.71 -0.0353635 -3.1208 0
M  V30 24467 N 2294.01 1.53925 -0.338371 0
M  V30 24468 C 2295.26 2.01125 0.260108 0
M  V30 24469 C 2295.59 1.22592 1.50615 0
M  V30 24470 O 2294.87 0.312147 1.91979 0
M  V30 24471 C 2295.15 3.55408 0.579437 0
M  V30 24472 C 2295 4.44656 -0.678342 0
M  V30 24473 C 2296.32 4.17535 1.39114 0
M  V30 24474 H 2293.44 0.731101 0.0930644 0
M  V30 24475 H 2296.08 1.844 -0.457884 0
M  V30 24476 H 2294.23 3.6979 1.19112 0
M  V30 24477 H 2295.9 4.42119 -1.31639 0
M  V30 24478 H 2294.15 4.13728 -1.30427 0
M  V30 24479 H 2294.82 5.50473 -0.41024 0
M  V30 24480 H 2297.29 4.06818 0.873963 0
M  V30 24481 H 2296.17 5.25568 1.58333 0
M  V30 24482 H 2296.43 3.71819 2.39171 0
M  V30 24483 N 2295.49 0.0668712 1.57458 0
M  V30 24484 C 2296.44 -0.902085 2.12441 0
M  V30 24485 C 2297.41 -1.29858 1.03567 0
M  V30 24486 O 2298.59 -1.3853 1.31203 0
M  V30 24487 C 2295.73 -2.16609 2.68653 0
M  V30 24488 C 2294.84 -1.82267 3.91667 0
M  V30 24489 C 2293.98 -3.03242 4.36139 0
M  V30 24490 C 2293.02 -2.64895 5.51813 0
M  V30 24491 N 2292.16 -3.78613 5.91267 0
M  V30 24492 H 2297 -0.42633 2.94935 0
M  V30 24493 H 2294.53 -0.198793 1.45751 0
M  V30 24494 H 2296.49 -2.90594 2.99351 0
M  V30 24495 H 2295.12 -2.61734 1.88932 0
M  V30 24496 H 2294.17 -0.983654 3.67462 0
M  V30 24497 H 2295.48 -1.50051 4.75695 0
M  V30 24498 H 2294.64 -3.85511 4.68472 0
M  V30 24499 H 2293.38 -3.38649 3.50954 0
M  V30 24500 H 2292.38 -1.81046 5.19136 0
M  V30 24501 H 2293.61 -2.30664 6.38726 0
M  V30 24502 H 2291.55 -4.13791 5.09032 0
M  V30 24503 H 2291.47 -3.50148 6.70024 0
M  V30 24504 H 2292.74 -4.61475 6.2822 0
M  V30 24505 N 2296.97 -1.56239 -0.206647 0
M  V30 24506 C 2298.24 -1.70757 -0.954021 0
M  V30 24507 C 2298.62 -0.618388 -2.01839 0
M  V30 24508 O 2297.97 0.372394 -2.25445 0
M  V30 24509 C 2298.18 -3.12645 -1.55094 0
M  V30 24510 C 2299.53 -3.7252 -2.0375 0
M  V30 24511 O 2300.55 -3.15701 -1.64959 0
M  V30 24512 O 2299.41 -4.72213 -2.75094 0
M  V30 24513 H 2296.51 -0.696029 -0.446624 0
M  V30 24514 H 2299.05 -1.6855 -0.197254 0
M  V30 24515 H 2297.83 -3.83383 -0.783145 0
M  V30 24516 H 2297.45 -3.19032 -2.37285 0
M  V30 24517 N 2298.45 0.473929 -1.50305 0
M  V30 24518 C 2299.72 1.23515 -1.51669 0
M  V30 24519 C 2300.1 2.09496 -0.259738 0
M  V30 24520 O 2299.45 2.15598 0.756948 0
M  V30 24521 C 2299.66 2.06863 -2.81085 0
M  V30 24522 C 2301.01 2.65147 -3.31636 0
M  V30 24523 O 2302.03 2.17108 -2.82387 0
M  V30 24524 O 2300.89 3.52668 -4.17478 0
M  V30 24525 H 2297.99 0.560344 -0.60823 0
M  V30 24526 H 2300.53 0.485982 -1.62592 0
M  V30 24527 H 2299.3 1.43484 -3.64044 0
M  V30 24528 H 2298.93 2.88919 -2.73151 0
M  V30 24529 N 2299.92 1.39835 0.726907 0
M  V30 24530 C 2301.17 1.38706 1.48769 0
M  V30 24531 C 2301.52 -0.0146049 1.92394 0
M  V30 24532 O 2300.82 -0.982768 1.64476 0
M  V30 24533 C 2301.01 2.30082 2.73491 0
M  V30 24534 C 2300.84 3.78994 2.42062 0
M  V30 24535 C 2299.61 4.47874 2.33959 0
M  V30 24536 C 2301.81 4.70771 2.07072 0
M  V30 24537 N 2299.79 5.82078 1.95085 0
M  V30 24538 C 2301.16 5.93686 1.78708 0
M  V30 24539 C 2303.22 4.58715 1.9361 0
M  V30 24540 C 2301.92 7.05891 1.38238 0
M  V30 24541 C 2303.95 5.70851 1.54543 0
M  V30 24542 C 2303.31 6.92844 1.2707 0
M  V30 24543 H 2299.41 0.562827 0.542909 0
M  V30 24544 H 2301.99 1.75453 0.844049 0
M  V30 24545 H 2300.16 1.9548 3.35622 0
M  V30 24546 H 2301.89 2.19889 3.39751 0
M  V30 24547 H 2298.65 4.01414 2.51324 0
M  V30 24548 H 2299.07 6.53121 1.78219 0
M  V30 24549 H 2303.71 3.64926 2.13516 0
M  V30 24550 H 2301.43 7.99574 1.17074 0
M  V30 24551 H 2305.02 5.63513 1.44722 0
M  V30 24552 H 2303.9 7.78141 0.972932 0
M  V30 24553 N 2301.4 -0.957948 1.25144 0
M  V30 24554 C 2302.33 -2.07171 1.07715 0
M  V30 24555 C 2303.31 -1.70095 -0.0128163 0
M  V30 24556 O 2304.5 -1.93572 0.156095 0
M  V30 24557 C 2301.63 -3.40345 0.691562 0
M  V30 24558 C 2300.58 -3.91416 1.73139 0
M  V30 24559 C 2299.91 -5.21047 1.20059 0
M  V30 24560 C 2301.21 -4.18164 3.12947 0
M  V30 24561 H 2302.9 -2.22011 2.00877 0
M  V30 24562 H 2300.45 -1.06682 0.96721 0
M  V30 24563 H 2302.4 -4.17708 0.556578 0
M  V30 24564 H 2301.12 -3.25434 -0.275761 0
M  V30 24565 H 2299.78 -3.16219 1.85476 0
M  V30 24566 H 2299.43 -5.02503 0.223587 0
M  V30 24567 H 2299.13 -5.56186 1.89554 0
M  V30 24568 H 2300.66 -6.0101 1.07792 0
M  V30 24569 H 2302.07 -4.86198 3.03783 0
M  V30 24570 H 2300.47 -4.64552 3.79883 0
M  V30 24571 H 2301.54 -3.24567 3.60256 0
M  V30 24572 N 2302.88 -1.06677 -1.16008 0
M  V30 24573 C 2303.81 -0.702346 -2.22687 0
M  V30 24574 C 2304.79 0.307003 -1.67307 0
M  V30 24575 O 2305.98 0.181271 -1.93352 0
M  V30 24576 C 2303.11 -0.092099 -3.47178 0
M  V30 24577 C 2302.06 -1.02785 -4.15475 0
M  V30 24578 C 2301.39 -0.280704 -5.33963 0
M  V30 24579 C 2302.69 -2.35854 -4.66015 0
M  V30 24580 H 2304.38 -1.59423 -2.53426 0
M  V30 24581 H 2301.93 -0.767982 -1.21811 0
M  V30 24582 H 2303.88 0.17474 -4.21038 0
M  V30 24583 H 2302.6 0.834821 -3.1575 0
M  V30 24584 H 2301.26 -1.2795 -3.43547 0
M  V30 24585 H 2300.91 0.649458 -4.9879 0
M  V30 24586 H 2300.61 -0.90436 -5.80599 0
M  V30 24587 H 2302.13 -0.0215033 -6.10596 0
M  V30 24588 H 2303.55 -2.15054 -5.31436 0
M  V30 24589 H 2301.94 -2.93752 -5.23288 0
M  V30 24590 H 2303.01 -2.98648 -3.82018 0
M  V30 24591 N 2304.36 1.32719 -0.8499 0
M  V30 24592 C 2305.6 1.97707 -0.451625 0
M  V30 24593 C 2305.94 1.67121 0.989145 0
M  V30 24594 O 2305.21 0.956921 1.69332 0
M  V30 24595 C 2305.49 3.53512 -0.68566 0
M  V30 24596 C 2305.35 3.93745 -2.1745 0
M  V30 24597 C 2306.67 4.39881 -0.138952 0
M  V30 24598 H 2303.79 0.718163 -0.165563 0
M  V30 24599 H 2306.43 1.5718 -1.06745 0
M  V30 24600 H 2304.58 3.88164 -0.161484 0
M  V30 24601 H 2306.25 3.69295 -2.76439 0
M  V30 24602 H 2304.49 3.43076 -2.65483 0
M  V30 24603 H 2305.16 5.02305 -2.28897 0
M  V30 24604 H 2307.64 4.11937 -0.58714 0
M  V30 24605 H 2306.52 5.47893 -0.332309 0
M  V30 24606 H 2306.78 4.31596 0.957984 0
M  V30 24607 N 2305.84 0.60738 1.45426 0
M  V30 24608 C 2307.25 0.187567 1.85755 0
M  V30 24609 C 2307.6 -1.25548 1.50772 0
M  V30 24610 O 2306.72 -1.95191 0.934304 0
M  V30 24611 C 2307.32 0.333632 3.37153 0
M  V30 24612 C 2305.88 -0.031488 3.76387 0
M  V30 24613 C 2305.02 0.658164 2.69376 0
M  V30 24614 H 2307.98 0.814074 1.3623 0
M  V30 24615 H 2308 -0.434213 3.78014 0
M  V30 24616 H 2307.51 1.38399 3.62584 0
M  V30 24617 H 2305.61 -1.08104 3.56573 0
M  V30 24618 H 2305.72 0.362019 4.7773 0
M  V30 24619 H 2304.09 0.095832 2.5452 0
M  V30 24620 H 2304.87 1.71066 2.97643 0
M  V30 24621 N 2307.31 -1.53743 0.34653 0
M  V30 24622 C 2308.54 -2.05851 -0.253038 0
M  V30 24623 C 2308.96 -1.21965 -1.432 0
M  V30 24624 O 2308.32 -0.234104 -1.79782 0
M  V30 24625 C 2308.37 -3.54819 -0.64313 0
M  V30 24626 O 2307.47 -3.73765 -1.74279 0
M  V30 24627 H 2306.82 -0.662711 -0.0413466 0
M  V30 24628 H 2309.35 -1.98356 0.501609 0
M  V30 24629 H 2309.36 -3.97505 -0.919456 0
M  V30 24630 H 2308.03 -4.15323 0.219039 0
M  V30 24631 H 2306.61 -3.42981 -1.4635 0
M  V30 24632 N 2308.79 -0.0752207 -1.5742 0
M  V30 24633 C 2309.74 0.900988 -2.09443 0
M  V30 24634 C 2310.73 1.25662 -1.00489 0
M  V30 24635 O 2311.92 1.23502 -1.26792 0
M  V30 24636 C 2309.05 2.16732 -2.66237 0
M  V30 24637 C 2308.13 1.83801 -3.82201 0
M  V30 24638 N 2308.52 1.21337 -4.91031 0
M  V30 24639 C 2306.82 2.13531 -3.91561 0
M  V30 24640 C 2307.52 1.06575 -5.71854 0
M  V30 24641 N 2306.5 1.57658 -5.20236 0
M  V30 24642 H 2310.3 0.413763 -2.90973 0
M  V30 24643 H 2307.82 0.128572 -1.6189 0
M  V30 24644 H 2309.81 2.8759 -3.01824 0
M  V30 24645 H 2308.47 2.66039 -1.86155 0
M  V30 24646 H 2309.48 0.88259 -5.10324 0
M  V30 24647 H 2306.16 2.65191 -3.22459 0
M  V30 24648 H 2307.55 0.578816 -6.69402 0
M  V30 24649 N 2310.27 1.56347 0.198358 0
M  V30 24650 C 2311.23 1.93433 1.22949 0
M  V30 24651 C 2312.23 0.815116 1.38609 0
M  V30 24652 O 2313.42 1.08258 1.36477 0
M  V30 24653 C 2310.56 2.20551 2.59942 0
M  V30 24654 H 2311.75 2.85678 0.912576 0
M  V30 24655 H 2309.3 1.49986 0.439744 0
M  V30 24656 H 2310.04 1.30932 2.96694 0
M  V30 24657 H 2309.82 3.02107 2.49948 0
M  V30 24658 H 2311.31 2.50259 3.34306 0
M  V30 24659 N 2311.75 -0.465951 1.50554 0
M  V30 24660 C 2312.98 -1.239 1.65325 0
M  V30 24661 C 2313.39 -1.86155 0.338084 0
M  V30 24662 O 2312.73 -1.70229 -0.690488 0
M  V30 24663 C 2312.79 -2.38435 2.69052 0
M  V30 24664 C 2312.46 -1.96777 4.12465 0
M  V30 24665 C 2313.45 -1.48736 4.9817 0
M  V30 24666 C 2311.14 -2.05341 4.58411 0
M  V30 24667 C 2313.13 -1.09809 6.2787 0
M  V30 24668 C 2310.82 -1.66025 5.88115 0
M  V30 24669 C 2311.82 -1.18338 6.7267 0
M  V30 24670 O 2311.5 -0.795684 7.99953 0
M  V30 24671 H 2311.24 -0.38066 0.558636 0
M  V30 24672 H 2313.79 -0.561987 1.97562 0
M  V30 24673 H 2312.02 -3.09324 2.32068 0
M  V30 24674 H 2313.71 -3.00385 2.7299 0
M  V30 24675 H 2314.48 -1.41538 4.63888 0
M  V30 24676 H 2310.35 -2.41407 3.92739 0
M  V30 24677 H 2313.9 -0.725171 6.93821 0
M  V30 24678 H 2309.8 -1.72884 6.21917 0
M  V30 24679 H 2310.56 -0.924079 8.13267 0
M  V30 24680 N 2313.23 -1.40218 -0.719481 0
M  V30 24681 C 2314.17 -1.40175 -1.83357 0
M  V30 24682 C 2315.14 -0.259235 -1.64065 0
M  V30 24683 O 2316.33 -0.456709 -1.85253 0
M  V30 24684 C 2313.47 -1.26629 -3.21028 0
M  V30 24685 C 2312.58 -2.50554 -3.51918 0
M  V30 24686 C 2311.72 -2.2948 -4.79075 0
M  V30 24687 C 2310.76 -3.49001 -5.02857 0
M  V30 24688 N 2309.89 -3.27146 -6.21224 0
M  V30 24689 H 2314.73 -2.35402 -1.82729 0
M  V30 24690 H 2312.27 -1.16918 -0.892668 0
M  V30 24691 H 2314.23 -1.16783 -4.00522 0
M  V30 24692 H 2312.86 -0.350232 -3.20894 0
M  V30 24693 H 2311.91 -2.70944 -2.67009 0
M  V30 24694 H 2313.22 -3.39531 -3.65404 0
M  V30 24695 H 2312.38 -2.16965 -5.66578 0
M  V30 24696 H 2311.11 -1.37922 -4.67792 0
M  V30 24697 H 2310.12 -3.61997 -4.13809 0
M  V30 24698 H 2311.34 -4.41481 -5.16015 0
M  V30 24699 H 2309.29 -2.38267 -6.112 0
M  V30 24700 H 2309.21 -4.09687 -6.35368 0
M  V30 24701 H 2310.48 -3.18356 -7.11526 0
M  V30 24702 N 2314.7 0.951297 -1.25651 0
M  V30 24703 C 2315.95 1.69631 -1.10597 0
M  V30 24704 C 2316.28 1.91279 0.352482 0
M  V30 24705 O 2315.53 1.48382 1.27598 0
M  V30 24706 C 2315.83 3.08228 -1.80915 0
M  V30 24707 C 2315.5 3.06369 -3.30831 0
M  V30 24708 C 2314.16 3.05569 -3.71727 0
M  V30 24709 C 2316.51 2.99444 -4.26594 0
M  V30 24710 C 2313.84 2.95597 -5.06793 0
M  V30 24711 C 2316.19 2.91014 -5.61688 0
M  V30 24712 C 2314.86 2.88552 -6.01909 0
M  V30 24713 H 2314.13 0.620723 -0.404702 0
M  V30 24714 H 2316.77 1.11117 -1.55966 0
M  V30 24715 H 2315.08 3.70306 -1.27986 0
M  V30 24716 H 2316.78 3.64701 -1.66716 0
M  V30 24717 H 2313.37 3.07766 -2.98292 0
M  V30 24718 H 2317.55 2.99178 -3.95987 0
M  V30 24719 H 2312.81 2.92062 -5.37131 0
M  V30 24720 H 2316.98 2.84618 -6.35583 0
M  V30 24721 H 2314.61 2.80581 -7.06526 0
M  V30 24722 N 2316.18 1.07291 1.1544 0
M  V30 24723 C 2317.09 0.704096 2.23785 0
M  V30 24724 C 2318.11 -0.284383 1.7166 0
M  V30 24725 O 2319.28 -0.13117 2.00972 0
M  V30 24726 C 2316.35 0.106853 3.46535 0
M  V30 24727 C 2315.41 1.14849 4.13652 0
M  V30 24728 C 2314.64 0.579653 5.30543 0
M  V30 24729 O 2314.87 -0.604485 5.67188 0
M  V30 24730 O 2313.8 1.32424 5.87152 0
M  V30 24731 H 2317.63 1.60761 2.57662 0
M  V30 24732 H 2315.21 0.845825 1.23151 0
M  V30 24733 H 2317.09 -0.223974 4.20804 0
M  V30 24734 H 2315.77 -0.769994 3.14409 0
M  V30 24735 H 2314.68 1.53166 3.41308 0
M  V30 24736 H 2316.01 1.99722 4.49858 0
M  V30 24737 N 2317.66 -1.32267 0.856927 0
M  V30 24738 C 2318.61 -2.28826 0.301212 0
M  V30 24739 C 2319.58 -1.55151 -0.593077 0
M  V30 24740 O 2320.76 -1.83363 -0.527504 0
M  V30 24741 C 2317.9 -3.41422 -0.502463 0
M  V30 24742 C 2317.02 -4.29974 0.417873 0
M  V30 24743 C 2316.15 -5.29702 -0.398655 0
M  V30 24744 C 2315.19 -6.09896 0.518935 0
M  V30 24745 N 2314.33 -7.01616 -0.260551 0
M  V30 24746 H 2319.17 -2.75749 1.12988 0
M  V30 24747 H 2316.7 -1.35666 0.568606 0
M  V30 24748 H 2318.66 -4.05428 -0.98407 0
M  V30 24749 H 2317.29 -2.95644 -1.29594 0
M  V30 24750 H 2316.34 -3.66529 1.01788 0
M  V30 24751 H 2317.66 -4.86017 1.122 0
M  V30 24752 H 2316.81 -5.99321 -0.943329 0
M  V30 24753 H 2315.55 -4.74282 -1.13614 0
M  V30 24754 H 2314.55 -5.39179 1.07547 0
M  V30 24755 H 2315.78 -6.67402 1.25506 0
M  V30 24756 H 2313.72 -6.48622 -0.981084 0
M  V30 24757 H 2313.64 -7.55022 0.384496 0
M  V30 24758 H 2314.91 -7.75518 -0.786878 0
M  V30 24759 N 2319.14 -0.615084 -1.45102 0
M  V30 24760 C 2320.42 -0.044862 -1.95549 0
M  V30 24761 C 2320.8 1.42508 -1.55739 0
M  V30 24762 O 2320.14 2.13141 -0.823593 0
M  V30 24763 C 2320.35 -0.250846 -3.48097 0
M  V30 24764 C 2321.7 -0.135584 -4.24383 0
M  V30 24765 O 2322.73 -0.181361 -3.55738 0
M  V30 24766 O 2321.58 -0.0269839 -5.46493 0
M  V30 24767 H 2318.68 0.03147 -0.826401 0
M  V30 24768 H 2321.22 -0.685669 -1.55231 0
M  V30 24769 H 2320 -1.27145 -3.70067 0
M  V30 24770 H 2319.62 0.424867 -3.95323 0
M  V30 24771 N 2320.62 1.53557 -0.354678 0
M  V30 24772 C 2321.85 2.05211 0.239131 0
M  V30 24773 C 2322.26 1.22866 1.43877 0
M  V30 24774 O 2321.6 0.259597 1.81856 0
M  V30 24775 C 2321.66 3.52476 0.70719 0
M  V30 24776 C 2321.32 4.55465 -0.374293 0
M  V30 24777 C 2322.32 5.05368 -1.22063 0
M  V30 24778 C 2320.01 4.99481 -0.531411 0
M  V30 24779 C 2322 5.97878 -2.20953 0
M  V30 24780 C 2319.69 5.918 -1.52369 0
M  V30 24781 C 2320.69 6.40888 -2.36119 0
M  V30 24782 O 2320.37 7.31388 -3.33656 0
M  V30 24783 H 2320.11 0.674297 0.0479598 0
M  V30 24784 H 2322.66 1.99015 -0.508156 0
M  V30 24785 H 2320.89 3.56173 1.5059 0
M  V30 24786 H 2322.58 3.87044 1.22278 0
M  V30 24787 H 2323.34 4.72118 -1.11038 0
M  V30 24788 H 2319.22 4.60867 0.110657 0
M  V30 24789 H 2322.77 6.36116 -2.86359 0
M  V30 24790 H 2318.66 6.24465 -1.63445 0
M  V30 24791 H 2319.43 7.49354 -3.29257 0
M  V30 24792 N 2322.1 0.083568 1.57378 0
M  V30 24793 C 2323.01 -0.893982 2.16899 0
M  V30 24794 C 2324.02 -1.31859 1.13531 0
M  V30 24795 O 2325.2 -1.38887 1.4585 0
M  V30 24796 C 2322.26 -2.13921 2.72835 0
M  V30 24797 C 2321.32 -1.7699 3.91118 0
M  V30 24798 C 2320.56 -2.95576 4.44377 0
M  V30 24799 O 2320.78 -4.09954 3.96603 0
M  V30 24800 O 2319.71 -2.7471 5.35554 0
M  V30 24801 H 2323.54 -0.417626 3.00815 0
M  V30 24802 H 2321.12 -0.140155 1.48741 0
M  V30 24803 H 2323.01 -2.86919 3.08635 0
M  V30 24804 H 2321.68 -2.60631 1.91972 0
M  V30 24805 H 2320.59 -1.01208 3.6015 0
M  V30 24806 H 2321.92 -1.35052 4.73309 0
M  V30 24807 N 2323.57 -1.5645 -0.190064 0
M  V30 24808 C 2324.51 -1.90014 -1.26372 0
M  V30 24809 C 2325.48 -0.760791 -1.43704 0
M  V30 24810 O 2326.67 -1.01229 -1.59013 0
M  V30 24811 C 2323.8 -2.13473 -2.62958 0
M  V30 24812 C 2322.84 -3.36174 -2.62468 0
M  V30 24813 S 2323.67 -4.91141 -2.13403 0
M  V30 24814 C 2324.83 -5.17673 -3.51803 0
M  V30 24815 H 2325.06 -2.80784 -0.977131 0
M  V30 24816 H 2322.6 -1.49294 -0.393788 0
M  V30 24817 H 2324.55 -2.2767 -3.41579 0
M  V30 24818 H 2323.22 -1.23444 -2.88826 0
M  V30 24819 H 2322.41 -3.4973 -3.62912 0
M  V30 24820 H 2322.01 -3.20996 -1.91932 0
M  V30 24821 H 2324.3 -5.08502 -4.47697 0
M  V30 24822 H 2325.25 -6.19405 -3.43138 0
M  V30 24823 H 2325.65 -4.45294 -3.46948 0
M  V30 24824 N 2325.05 0.45796 -1.50799 0
M  V30 24825 C 2325.98 1.5735 -1.65276 0
M  V30 24826 C 2326.96 1.54702 -0.500606 0
M  V30 24827 O 2328.15 1.74133 -0.721811 0
M  V30 24828 C 2325.27 2.95935 -1.64742 0
M  V30 24829 C 2324.32 3.16688 -2.85676 0
M  V30 24830 S 2325.15 2.95183 -4.46796 0
M  V30 24831 C 2326.31 4.36087 -4.48975 0
M  V30 24832 H 2326.54 1.44833 -2.59636 0
M  V30 24833 H 2324.07 0.646226 -1.40226 0
M  V30 24834 H 2326.03 3.75827 -1.65118 0
M  V30 24835 H 2324.69 3.05832 -0.715953 0
M  V30 24836 H 2323.89 4.17962 -2.81644 0
M  V30 24837 H 2323.49 2.4459 -2.82935 0
M  V30 24838 H 2325.78 5.28946 -4.23346 0
M  V30 24839 H 2326.72 4.45159 -5.50672 0
M  V30 24840 H 2327.13 4.18779 -3.78529 0
M  V30 24841 N 2326.53 1.40598 0.712035 0
M  V30 24842 C 2327.44 1.43469 1.85617 0
M  V30 24843 C 2328.46 0.326932 1.70901 0
M  V30 24844 O 2329.63 0.572077 1.93104 0
M  V30 24845 C 2326.7 1.2989 3.21449 0
M  V30 24846 C 2325.76 2.50839 3.48394 0
M  V30 24847 C 2324.99 2.37899 4.77745 0
M  V30 24848 O 2325.21 1.39469 5.53086 0
M  V30 24849 O 2324.15 3.27342 5.05105 0
M  V30 24850 H 2327.97 2.39961 1.86151 0
M  V30 24851 H 2325.56 1.21959 0.862929 0
M  V30 24852 H 2327.44 1.24538 4.02577 0
M  V30 24853 H 2326.12 0.365053 3.21635 0
M  V30 24854 H 2325.02 2.61768 2.67261 0
M  V30 24855 H 2326.36 3.42996 3.53007 0
M  V30 24856 N 2328.01 -0.94462 1.26153 0
M  V30 24857 C 2329.25 -1.69042 1.11495 0
M  V30 24858 C 2329.58 -1.91464 -0.342333 0
M  V30 24859 O 2328.84 -1.49056 -1.2681 0
M  V30 24860 C 2329.14 -3.07265 1.82547 0
M  V30 24861 C 2328.8 -3.0461 3.32451 0
M  V30 24862 C 2327.46 -3.03593 3.73342 0
M  V30 24863 C 2329.82 -2.97178 4.28176 0
M  V30 24864 C 2327.14 -2.92906 5.08353 0
M  V30 24865 C 2329.5 -2.88031 5.63223 0
M  V30 24866 C 2328.16 -2.85356 6.03431 0
M  V30 24867 H 2327.43 -0.618568 0.407988 0
M  V30 24868 H 2330.08 -1.10288 1.56553 0
M  V30 24869 H 2328.38 -3.69623 1.29948 0
M  V30 24870 H 2330.08 -3.63812 1.68648 0
M  V30 24871 H 2326.67 -3.06179 2.9992 0
M  V30 24872 H 2330.85 -2.97074 3.97568 0
M  V30 24873 H 2326.11 -2.89209 5.38672 0
M  V30 24874 H 2330.28 -2.81243 6.37083 0
M  V30 24875 H 2327.91 -2.7683 7.08004 0
M  V30 24876 N 2329.49 -1.07901 -1.1487 0
M  V30 24877 C 2330.72 -0.825664 -1.89384 0
M  V30 24878 C 2331.12 0.625375 -1.78566 0
M  V30 24879 O 2330.47 1.44111 -1.1392 0
M  V30 24880 C 2330.53 -1.16197 -3.40204 0
M  V30 24881 C 2330.19 -2.61474 -3.74807 0
M  V30 24882 C 2331.19 -3.59723 -3.7536 0
M  V30 24883 C 2328.87 -2.97196 -4.04945 0
M  V30 24884 C 2330.87 -4.91727 -4.05566 0
M  V30 24885 C 2328.56 -4.29395 -4.34814 0
M  V30 24886 C 2329.55 -5.2647 -4.35107 0
M  V30 24887 O 2329.24 -6.56294 -4.64256 0
M  V30 24888 H 2328.97 -0.297761 -0.606889 0
M  V30 24889 H 2331.53 -1.44034 -1.46436 0
M  V30 24890 H 2329.76 -0.490282 -3.83579 0
M  V30 24891 H 2331.45 -0.890263 -3.96017 0
M  V30 24892 H 2332.21 -3.33468 -3.5217 0
M  V30 24893 H 2328.09 -2.2228 -4.03872 0
M  V30 24894 H 2331.64 -5.67491 -4.05709 0
M  V30 24895 H 2327.53 -4.554 -4.57472 0
M  V30 24896 H 2328.3 -6.61531 -4.81995 0
M  V30 24897 N 2330.96 1.31811 -0.863929 0
M  V30 24898 C 2332.21 1.96925 -0.47187 0
M  V30 24899 C 2332.54 1.68323 0.974549 0
M  V30 24900 O 2331.79 0.968963 1.70028 0
M  V30 24901 C 2332.09 3.5109 -0.668609 0
M  V30 24902 C 2331.76 3.99699 -2.0869 0
M  V30 24903 C 2330.42 4.12684 -2.47478 0
M  V30 24904 C 2332.77 4.25346 -3.01215 0
M  V30 24905 C 2330.1 4.48663 -3.78045 0
M  V30 24906 C 2332.45 4.62787 -4.3129 0
M  V30 24907 C 2331.12 4.73978 -4.70001 0
M  V30 24908 H 2330.39 0.720601 -0.17267 0
M  V30 24909 H 2333.03 1.57052 -1.09576 0
M  V30 24910 H 2331.34 3.91781 0.0384563 0
M  V30 24911 H 2333.04 3.99512 -0.345172 0
M  V30 24912 H 2329.63 3.90084 -1.77573 0
M  V30 24913 H 2333.81 4.14814 -2.72476 0
M  V30 24914 H 2329.07 4.55524 -4.07808 0
M  V30 24915 H 2333.24 4.81585 -5.0304 0
M  V30 24916 H 2330.87 5.01614 -5.71216 0
M  V30 24917 N 2332.44 0.62277 1.44773 0
M  V30 24918 C 2333.39 -0.0994274 2.32387 0
M  V30 24919 C 2334.38 -0.8443 1.4686 0
M  V30 24920 O 2335.59 -0.758146 1.63255 0
M  V30 24921 H 2331.96 -0.0509159 0.750274 0
M  V30 24922 H 2333.94 0.657721 2.91061 0
M  V30 24923 C 2332.68 -1.07313 3.30725 0
M  V30 24924 H 2332.01 -0.509393 3.96542 0
M  V30 24925 H 2333.45 -1.5481 3.94728 0
M  V30 24926 C 2331.91 -2.15425 2.59025 0
M  V30 24927 O 2332.44 -3.23388 2.38291 0
M  V30 24928 N 2330.64 -1.91127 2.18904 0
M  V30 24929 H 2330.19 -1.03333 2.35966 0
M  V30 24930 H 2330.15 -2.63665 1.71255 0
M  V30 24931 N 2333.92 -1.53367 0.362817 0
M  V30 24932 C 2335.34 -1.59596 0.0116462 0
M  V30 24933 C 2335.54 -1.37806 -1.4701 0
M  V30 24934 O 2334.59 -1.18185 -2.23133 0
M  V30 24935 C 2335.9 -2.97081 0.465104 0
M  V30 24936 C 2337.45 -3.10182 0.419088 0
M  V30 24937 C 2337.93 -4.50075 0.848314 0
M  V30 24938 N 2339.42 -4.56182 0.803263 0
M  V30 24939 C 2340.15 -5.62611 1.1071 0
M  V30 24940 N 2339.65 -6.76805 1.48008 0
M  V30 24941 N 2341.44 -5.52581 1.03008 0
M  V30 24942 H 2333.59 -1.65783 1.32777 0
M  V30 24943 H 2335.86 -0.777408 0.542532 0
M  V30 24944 H 2335.56 -3.18157 1.49897 0
M  V30 24945 H 2335.44 -3.76903 -0.14972 0
M  V30 24946 H 2337.82 -2.88818 -0.605646 0
M  V30 24947 H 2337.9 -2.32375 1.06937 0
M  V30 24948 H 2337.55 -4.72176 1.87115 0
M  V30 24949 H 2337.48 -5.26308 0.175311 0
M  V30 24950 H 2339.97 -3.74187 0.528446 0
M  V30 24951 H 2340.28 -7.53954 1.69626 0
M  V30 24952 H 2338.63 -6.78204 1.51871 0
M  V30 24953 H 2341.82 -4.62247 0.737898 0
M  V30 24954 H 2341.99 -6.35429 1.27021 0
M  V30 24955 N 2335.4 -0.091913 -1.57332 0
M  V30 24956 C 2336.65 0.571412 -1.93854 0
M  V30 24957 C 2336.97 1.68919 -0.974242 0
M  V30 24958 O 2336.24 1.95883 -0.0257598 0
M  V30 24959 H 2334.82 0.214069 -0.71567 0
M  V30 24960 H 2337.48 -0.154498 -1.94287 0
M  V30 24961 H 2336.58 0.983677 -2.96193 0
M  V30 24962 N 2336.88 1.56548 0.181765 0
M  V30 24963 C 2338.12 1.81039 0.898288 0
M  V30 24964 C 2338.45 0.667196 1.83231 0
M  V30 24965 O 2337.72 -0.31364 1.93373 0
M  V30 24966 H 2336.3 0.667822 0.334698 0
M  V30 24967 H 2338.96 1.94029 0.184081 0
M  V30 24968 H 2338.05 2.74699 1.48145 0
M  V30 24969 N 2338.35 -0.449957 1.5104 0
M  V30 24970 C 2339.58 -1.22317 1.66871 0
M  V30 24971 C 2340 -1.85321 0.360759 0
M  V30 24972 O 2339.35 -1.70167 -0.659501 0
M  V30 24973 C 2339.41 -2.31648 2.77528 0
M  V30 24974 O 2339.13 -1.71223 4.03255 0
M  V30 24975 C 2340.63 -3.22155 3.04518 0
M  V30 24976 H 2337.85 -0.369145 0.560333 0
M  V30 24977 H 2340.39 -0.534684 1.97386 0
M  V30 24978 H 2338.55 -2.96234 2.49648 0
M  V30 24979 H 2338.96 -2.43381 4.64614 0
M  V30 24980 H 2340.43 -3.95031 3.85557 0
M  V30 24981 H 2340.91 -3.82176 2.16422 0
M  V30 24982 H 2341.52 -2.63282 3.3401 0
M  V30 24983 N 2339.83 -1.40974 -0.704569 0
M  V30 24984 C 2341.06 -1.42977 -1.49135 0
M  V30 24985 C 2341.47 -0.0308739 -1.89175 0
M  V30 24986 O 2340.81 0.95811 -1.56735 0
M  V30 24987 C 2340.88 -2.26699 -2.79012 0
M  V30 24988 C 2340.54 -3.74977 -2.6123 0
M  V30 24989 C 2341.54 -4.67353 -2.27765 0
M  V30 24990 C 2339.22 -4.18918 -2.77151 0
M  V30 24991 C 2341.22 -6.01657 -2.10447 0
M  V30 24992 C 2338.9 -5.53289 -2.5945 0
M  V30 24993 C 2339.9 -6.44474 -2.26147 0
M  V30 24994 O 2339.59 -7.76367 -2.08591 0
M  V30 24995 H 2339.32 -0.489301 -0.466434 0
M  V30 24996 H 2341.87 -1.85794 -0.875767 0
M  V30 24997 H 2340.1 -1.78679 -3.42944 0
M  V30 24998 H 2341.79 -2.2051 -3.40778 0
M  V30 24999 H 2342.56 -4.34698 -2.15088 0
M  V30 25000 H 2338.44 -3.48256 -3.02058 0
M  V30 25001 H 2341.98 -6.72794 -1.84375 0
M  V30 25002 H 2337.88 -5.85527 -2.71715 0
M  V30 25003 H 2338.65 -7.87416 -2.23425 0
M  V30 25004 N 2341.31 0.937917 -1.26653 0
M  V30 25005 C 2342.54 1.71629 -1.15009 0
M  V30 25006 C 2342.95 1.86854 0.296993 0
M  V30 25007 O 2342.29 1.37788 1.21491 0
M  V30 25008 C 2342.35 3.14036 -1.7499 0
M  V30 25009 C 2342.02 3.22184 -3.24108 0
M  V30 25010 C 2343.01 3.05212 -4.20882 0
M  V30 25011 C 2340.7 3.4547 -3.64631 0
M  V30 25012 C 2342.69 3.11398 -5.56156 0
M  V30 25013 C 2340.38 3.51291 -5.00038 0
M  V30 25014 C 2341.38 3.34272 -5.9561 0
M  V30 25015 O 2341.07 3.39808 -7.28551 0
M  V30 25016 H 2340.8 0.544078 -0.401192 0
M  V30 25017 H 2343.35 1.1841 -1.67834 0
M  V30 25018 H 2341.58 3.68693 -1.1663 0
M  V30 25019 H 2343.27 3.73799 -1.58205 0
M  V30 25020 H 2344.04 2.87074 -3.90914 0
M  V30 25021 H 2339.92 3.57772 -2.90724 0
M  V30 25022 H 2343.46 2.98032 -6.30732 0
M  V30 25023 H 2339.36 3.6895 -5.29666 0
M  V30 25024 H 2340.13 3.5633 -7.36866 0
M  V30 25025 N 2342.79 1.08509 1.14296 0
M  V30 25026 C 2344.01 0.837035 1.89759 0
M  V30 25027 C 2344.44 -0.605196 1.78098 0
M  V30 25028 O 2343.8 -1.42418 1.1219 0
M  V30 25029 C 2343.84 1.26501 3.37683 0
M  V30 25030 O 2342.95 0.417587 4.1028 0
M  V30 25031 H 2342.29 0.303927 0.590359 0
M  V30 25032 H 2344.82 1.44679 1.44669 0
M  V30 25033 H 2344.83 1.24632 3.88498 0
M  V30 25034 H 2343.5 2.3154 3.45488 0
M  V30 25035 H 2342.08 0.499786 3.69536 0
M  V30 25036 N 2344.27 -1.31351 0.870907 0
M  V30 25037 C 2345.52 -1.95943 0.478443 0
M  V30 25038 C 2345.83 -1.69598 -0.974463 0
M  V30 25039 O 2347.03 -2.2806 -1.47312 0
M  V30 25040 C 2345.49 -3.50789 0.804671 0
M  V30 25041 C 2345.1 -3.85973 2.2744 0
M  V30 25042 C 2346.84 -4.21769 0.480722 0
M  V30 25043 C 2344.75 -5.33934 2.54299 0
M  V30 25044 H 2343.68 -0.733366 0.175188 0
M  V30 25045 H 2346.33 -1.49508 1.06394 0
M  V30 25046 H 2344.71 -3.95722 0.148417 0
M  V30 25047 H 2345.89 -3.51997 2.9738 0
M  V30 25048 H 2344.2 -3.2806 2.56448 0
M  V30 25049 H 2346.8 -5.30628 0.658612 0
M  V30 25050 H 2347.14 -4.12255 -0.578907 0
M  V30 25051 H 2347.67 -3.82474 1.09356 0
M  V30 25052 H 2344.41 -5.48485 3.58949 0
M  V30 25053 H 2343.93 -5.69259 1.88955 0
M  V30 25054 H 2345.61 -6.01208 2.39077 0
M  V30 25055 N 2345.74 -0.630439 -1.44441 0
M  V30 25056 C 2346.97 -0.13998 -2.06927 0
M  V30 25057 C 2347.39 1.1761 -1.46797 0
M  V30 25058 O 2346.75 1.72134 -0.569174 0
M  V30 25059 C 2346.8 -0.0380215 -3.6058 0
M  V30 25060 O 2345.9 1.00613 -3.99939 0
M  V30 25061 H 2345.25 -0.0844599 -0.658607 0
M  V30 25062 H 2347.78 -0.866923 -1.85326 0
M  V30 25063 H 2347.79 0.152784 -4.07714 0
M  V30 25064 H 2346.46 -0.99888 -4.03727 0
M  V30 25065 H 2345.04 0.789946 -3.64437 0
M  V30 25066 N 2347.22 1.53172 -0.370945 0
M  V30 25067 C 2348.19 2.24521 0.460739 0
M  V30 25068 C 2349.19 1.25498 1.00534 0
M  V30 25069 O 2350.38 1.49734 0.89024 0
M  V30 25070 C 2347.51 2.98611 1.64452 0
M  V30 25071 H 2348.7 2.99453 -0.163665 0
M  V30 25072 H 2346.25 1.55817 -0.122726 0
M  V30 25073 H 2346.99 2.27934 2.30687 0
M  V30 25074 H 2346.77 3.71272 1.26092 0
M  V30 25075 H 2348.26 3.52834 2.23378 0
M  V30 25076 N 2348.7 0.100255 1.57281 0
M  V30 25077 C 2349.95 -0.561123 1.94154 0
M  V30 25078 C 2350.27 -1.684 0.983186 0
M  V30 25079 O 2349.54 -1.95867 0.0361476 0
M  V30 25080 H 2348.12 -0.210271 0.716795 0
M  V30 25081 H 2350.78 0.164799 1.94202 0
M  V30 25082 H 2349.88 -0.967956 2.9671 0
M  V30 25083 N 2350.18 -1.56643 -0.17346 0
M  V30 25084 C 2351.13 -1.9716 -1.23413 0
M  V30 25085 C 2352.12 -0.860039 -1.45944 0
M  V30 25086 O 2353.33 -1.04514 -1.46549 0
M  V30 25087 H 2349.7 -0.627247 -0.414807 0
M  V30 25088 H 2351.67 -2.85572 -0.865531 0
M  V30 25089 C 2350.42 -2.34581 -2.56646 0
M  V30 25090 H 2349.75 -3.19651 -2.40131 0
M  V30 25091 H 2351.19 -2.66776 -3.29555 0
M  V30 25092 C 2349.64 -1.18842 -3.15243 0
M  V30 25093 O 2350.17 -0.474939 -3.98882 0
M  V30 25094 N 2348.38 -0.959545 -2.74301 0
M  V30 25095 H 2347.93 -1.54149 -2.06387 0
M  V30 25096 H 2347.89 -0.186987 -3.13843 0
M  V30 25097 N 2351.66 0.44194 -1.51277 0
M  V30 25098 C 2352.9 1.19352 -1.6396 0
M  V30 25099 C 2353.24 1.90973 -0.352577 0
M  V30 25100 O 2352.51 1.83402 0.647595 0
M  V30 25101 C 2352.79 2.21417 -2.83983 0
M  V30 25102 C 2352.65 1.5391 -4.22648 0
M  V30 25103 C 2353.97 3.22446 -2.99527 0
M  V30 25104 H 2351.09 0.432549 -0.596716 0
M  V30 25105 H 2353.73 0.483366 -1.83749 0
M  V30 25106 H 2351.88 2.81982 -2.67242 0
M  V30 25107 H 2353.55 0.967177 -4.51047 0
M  V30 25108 H 2351.79 0.84154 -4.25559 0
M  V30 25109 H 2352.46 2.2822 -5.02613 0
M  V30 25110 H 2354.94 2.71931 -3.14949 0
M  V30 25111 H 2353.82 3.91159 -3.85079 0
M  V30 25112 H 2354.08 3.88283 -2.11397 0
M  V30 25113 N 2353.14 1.41345 0.697083 0
M  V30 25114 C 2354.38 1.4083 1.45928 0
M  V30 25115 C 2354.71 0.0167439 1.94193 0
M  V30 25116 O 2353.99 -0.955233 1.69427 0
M  V30 25117 C 2354.27 2.41377 2.67224 0
M  V30 25118 C 2354.13 3.89634 2.24735 0
M  V30 25119 C 2355.44 2.39202 3.69419 0
M  V30 25120 H 2352.56 0.512852 0.529294 0
M  V30 25121 H 2355.21 1.7261 0.794082 0
M  V30 25122 H 2353.36 2.14407 3.23978 0
M  V30 25123 H 2355.03 4.27502 1.7332 0
M  V30 25124 H 2353.27 4.04573 1.56535 0
M  V30 25125 H 2353.94 4.55531 3.11762 0
M  V30 25126 H 2356.42 2.63133 3.22335 0
M  V30 25127 H 2355.29 3.11571 4.51901 0
M  V30 25128 H 2355.55 1.41008 4.1901 0
M  V30 25129 N 2354.61 -0.931187 1.27148 0
M  V30 25130 C 2355.86 -1.673 1.12667 0
M  V30 25131 C 2356.18 -1.92836 -0.327685 0
M  V30 25132 O 2357.38 -2.64937 -0.593345 0
M  V30 25133 C 2355.84 -3.01303 1.96836 0
M  V30 25134 C 2355.45 -2.83478 3.46906 0
M  V30 25135 C 2357.19 -3.79107 1.90992 0
M  V30 25136 C 2355.1 -4.13016 4.23287 0
M  V30 25137 H 2354.03 -0.627501 0.418041 0
M  V30 25138 H 2356.68 -1.03478 1.5154 0
M  V30 25139 H 2355.06 -3.66162 1.50803 0
M  V30 25140 H 2356.23 -2.27408 4.00777 0
M  V30 25141 H 2354.55 -2.19107 3.54092 0
M  V30 25142 H 2357.15 -4.75094 2.45337 0
M  V30 25143 H 2357.49 -4.06832 0.88279 0
M  V30 25144 H 2358.02 -3.2104 2.34901 0
M  V30 25145 H 2354.76 -3.90471 5.2651 0
M  V30 25146 H 2354.28 -4.68763 3.74194 0
M  V30 25147 H 2355.96 -4.81403 4.32273 0
M  V30 25148 N 2356.09 -1.09114 -1.13719 0
M  V30 25149 C 2357.02 -0.685505 -2.18709 0
M  V30 25150 C 2358.04 0.27104 -1.60528 0
M  V30 25151 O 2359.23 0.0575835 -1.78407 0
M  V30 25152 C 2356.33 0.0110659 -3.38898 0
M  V30 25153 C 2355.5 -0.966206 -4.26595 0
M  V30 25154 C 2354.56 -0.303632 -5.25323 0
M  V30 25155 O 2353.58 -0.950276 -5.61212 0
M  V30 25156 N 2354.79 0.94355 -5.7278 0
M  V30 25157 H 2357.55 -1.58875 -2.54124 0
M  V30 25158 H 2355.11 -0.978165 -1.2901 0
M  V30 25159 H 2357.1 0.465446 -4.02015 0
M  V30 25160 H 2355.67 0.816511 -3.01748 0
M  V30 25161 H 2354.89 -1.59923 -3.60303 0
M  V30 25162 H 2356.18 -1.62819 -4.82045 0
M  V30 25163 H 2355.58 1.48853 -5.45765 0
M  V30 25164 H 2354.14 1.3413 -6.3785 0
M  V30 25165 N 2357.57 1.30887 -0.877861 0
M  V30 25166 C 2358.79 2.01116 -0.506665 0
M  V30 25167 C 2359.22 1.65414 0.895535 0
M  V30 25168 O 2358.58 0.86695 1.59228 0
M  V30 25169 C 2358.63 3.54125 -0.680285 0
M  V30 25170 O 2357.73 4.11469 0.276961 0
M  V30 25171 H 2357.07 0.632996 -0.200529 0
M  V30 25172 H 2359.6 1.669 -1.18345 0
M  V30 25173 H 2359.61 4.03906 -0.576571 0
M  V30 25174 H 2358.29 3.79449 -1.70267 0
M  V30 25175 H 2356.86 3.72682 0.12754 0
M  V30 25176 N 2359.05 0.638091 1.44105 0
M  V30 25177 C 2359.98 -0.0493876 2.33448 0
M  V30 25178 C 2360.96 -0.827646 1.48607 0
M  V30 25179 O 2362.14 -0.792141 1.7731 0
M  V30 25180 C 2359.27 -1.02685 3.31773 0
M  V30 25181 C 2358.23 -0.359748 4.26485 0
M  V30 25182 C 2357.55 -1.4476 5.14732 0
M  V30 25183 C 2358.85 0.738387 5.17054 0
M  V30 25184 H 2360.55 0.696688 2.91181 0
M  V30 25185 H 2358.09 0.336481 1.40014 0
M  V30 25186 H 2360.05 -1.51659 3.93164 0
M  V30 25187 H 2358.77 -1.8039 2.72263 0
M  V30 25188 H 2357.43 0.109404 3.66437 0
M  V30 25189 H 2357.08 -2.2157 4.5157 0
M  V30 25190 H 2356.78 -1.00658 5.78914 0
M  V30 25191 H 2358.3 -1.93901 5.78995 0
M  V30 25192 H 2359.72 0.331454 5.72341 0
M  V30 25193 H 2358.11 1.10296 5.89877 0
M  V30 25194 H 2359.18 1.60266 4.57649 0
M  V30 25195 N 2360.53 -1.52973 0.379063 0
M  V30 25196 C 2361.8 -1.93818 -0.263445 0
M  V30 25197 C 2362.18 -1.31371 -1.65242 0
M  V30 25198 O 2361.53 -0.477895 -2.23447 0
M  V30 25199 C 2361.74 -3.47707 -0.300105 0
M  V30 25200 C 2363.09 -4.21229 -0.533987 0
M  V30 25201 O 2364.11 -3.54159 -0.380748 0
M  V30 25202 O 2362.97 -5.40108 -0.833407 0
M  V30 25203 H 2360.07 -0.81115 -0.161134 0
M  V30 25204 H 2362.61 -1.64087 0.432827 0
M  V30 25205 H 2361.38 -3.85465 0.673206 0
M  V30 25206 H 2361.01 -3.83711 -1.04172 0
M  V30 25207 N 2362 -0.108595 -1.57225 0
M  V30 25208 C 2363.25 0.552727 -1.95122 0
M  V30 25209 C 2363.58 1.66989 -0.991375 0
M  V30 25210 O 2362.86 1.94482 -0.0267553 0
M  V30 25211 C 2363.14 1.09522 -3.43041 0
M  V30 25212 C 2362.99 -0.0178123 -4.49796 0
M  V30 25213 C 2364.31 1.98938 -3.9257 0
M  V30 25214 H 2361.43 0.199449 -0.709499 0
M  V30 25215 H 2364.07 -0.182044 -1.89126 0
M  V30 25216 H 2362.22 1.7214 -3.48282 0
M  V30 25217 H 2363.9 -0.652664 -4.5666 0
M  V30 25218 H 2362.14 -0.682385 -4.28399 0
M  V30 25219 H 2362.81 0.402822 -5.50528 0
M  V30 25220 H 2365.29 1.46207 -3.89567 0
M  V30 25221 H 2364.16 2.33818 -4.96609 0
M  V30 25222 H 2364.42 2.91195 -3.32653 0
M  V30 25223 N 2363.48 1.56732 0.16515 0
M  V30 25224 C 2364.73 1.81982 0.879036 0
M  V30 25225 C 2365.05 0.686593 1.82513 0
M  V30 25226 O 2364.32 -0.293112 1.93695 0
M  V30 25227 H 2362.9 0.671334 0.327596 0
M  V30 25228 H 2365.56 1.94213 0.163492 0
M  V30 25229 H 2364.66 2.76255 1.45223 0
M  V30 25230 N 2364.96 -0.433911 1.51509 0
M  V30 25231 C 2366.21 -1.18306 1.64347 0
M  V30 25232 C 2366.53 -1.91114 0.361349 0
M  V30 25233 O 2365.79 -1.84423 -0.65472 0
M  V30 25234 C 2366.09 -2.222 2.79932 0
M  V30 25235 C 2365.76 -1.6638 4.19081 0
M  V30 25236 C 2364.42 -1.50879 4.56934 0
M  V30 25237 C 2366.77 -1.25372 5.05897 0
M  V30 25238 C 2364.1 -0.928506 5.79306 0
M  V30 25239 C 2366.45 -0.687712 6.28851 0
M  V30 25240 C 2365.11 -0.519638 6.65474 0
M  V30 25241 H 2364.38 -0.432912 0.601388 0
M  V30 25242 H 2367.03 -0.473644 1.8555 0
M  V30 25243 H 2365.34 -2.99193 2.52964 0
M  V30 25244 H 2367.03 -2.79992 2.87064 0
M  V30 25245 H 2363.62 -1.79421 3.89238 0
M  V30 25246 H 2367.81 -1.36166 4.77255 0
M  V30 25247 H 2363.06 -0.786079 6.06326 0
M  V30 25248 H 2367.24 -0.361459 6.95461 0
M  V30 25249 H 2364.86 -0.0678643 7.6017 0
M  V30 25250 N 2366.44 -1.41713 -0.689577 0
M  V30 25251 C 2367.37 -1.39969 -1.81497 0
M  V30 25252 C 2368.38 -0.300946 -1.59994 0
M  V30 25253 O 2369.57 -0.563069 -1.69386 0
M  V30 25254 C 2366.67 -1.16184 -3.18362 0
M  V30 25255 C 2365.85 -2.38213 -3.66842 0
M  V30 25256 C 2364.9 -2.10195 -4.82395 0
M  V30 25257 O 2363.93 -2.83281 -4.93701 0
M  V30 25258 N 2365.13 -1.0959 -5.70062 0
M  V30 25259 H 2367.9 -2.36968 -1.83484 0
M  V30 25260 H 2365.46 -1.36402 -0.872125 0
M  V30 25261 H 2367.45 -0.953825 -3.93299 0
M  V30 25262 H 2366.02 -0.277614 -3.11365 0
M  V30 25263 H 2365.24 -2.74678 -2.82746 0
M  V30 25264 H 2366.53 -3.19505 -3.95973 0
M  V30 25265 H 2365.93 -0.491118 -5.63564 0
M  V30 25266 H 2364.48 -0.94777 -6.44873 0
M  V30 25267 N 2367.92 0.924431 -1.2764 0
M  V30 25268 C 2369.19 1.65099 -1.04889 0
M  V30 25269 C 2369.57 2.06975 0.41529 0
M  V30 25270 O 2368.92 1.80651 1.3992 0
M  V30 25271 C 2369.13 2.85058 -2.01353 0
M  V30 25272 C 2370.48 3.56325 -2.30906 0
M  V30 25273 O 2371.5 2.9519 -1.99353 0
M  V30 25274 O 2370.36 4.6648 -2.84708 0
M  V30 25275 H 2367.46 0.723777 -0.400096 0
M  V30 25276 H 2370 0.974679 -1.38918 0
M  V30 25277 H 2368.77 2.51128 -3.00084 0
M  V30 25278 H 2368.4 3.60407 -1.67907 0
M  V30 25279 N 2369.39 1.09715 1.13139 0
M  V30 25280 C 2370.64 0.836257 1.84755 0
M  V30 25281 C 2370.97 -0.636566 1.83471 0
M  V30 25282 O 2370.25 -1.46887 1.27493 0
M  V30 25283 C 2370.53 1.37584 3.3278 0
M  V30 25284 C 2370.38 2.91499 3.42562 0
M  V30 25285 C 2371.7 1.01206 4.28305 0
M  V30 25286 H 2368.82 0.305248 0.670815 0
M  V30 25287 H 2371.46 1.35905 1.32777 0
M  V30 25288 H 2369.61 0.931164 3.77176 0
M  V30 25289 H 2371.29 3.44438 3.06856 0
M  V30 25290 H 2369.53 3.2848 2.83343 0
M  V30 25291 H 2370.2 3.24332 4.46668 0
M  V30 25292 H 2372.68 1.39563 3.91997 0
M  V30 25293 H 2371.55 1.41662 5.30305 0
M  V30 25294 H 2371.81 -0.0794056 4.42029 0
M  V30 25295 N 2370.87 -1.30419 0.88479 0
M  V30 25296 C 2372.12 -1.9644 0.503885 0
M  V30 25297 C 2372.45 -1.69685 -0.944488 0
M  V30 25298 O 2371.73 -1.00148 -1.66735 0
M  V30 25299 C 2372.01 -3.5157 0.779147 0
M  V30 25300 C 2371.86 -3.87842 2.27813 0
M  V30 25301 C 2373.18 -4.39358 0.255529 0
M  V30 25302 H 2370.3 -0.713521 0.184545 0
M  V30 25303 H 2372.94 -1.54295 1.10875 0
M  V30 25304 H 2371.09 -3.876 0.264342 0
M  V30 25305 H 2372.76 -3.61836 2.86133 0
M  V30 25306 H 2371.01 -3.35917 2.74485 0
M  V30 25307 H 2371.68 -4.9606 2.42134 0
M  V30 25308 H 2374.15 -4.10235 0.696151 0
M  V30 25309 H 2373.03 -5.46819 0.477457 0
M  V30 25310 H 2373.29 -4.33984 -0.843217 0
M  V30 25311 N 2372.35 -0.645724 -1.43764 0
M  V30 25312 C 2373.28 0.0370066 -2.33471 0
M  V30 25313 C 2374.26 0.819753 -1.49044 0
M  V30 25314 O 2375.45 0.782727 -1.77727 0
M  V30 25315 C 2372.58 1.00924 -3.32313 0
M  V30 25316 C 2371.53 0.337126 -4.2667 0
M  V30 25317 C 2370.86 1.42028 -5.15492 0
M  V30 25318 C 2372.16 -0.765797 -5.16655 0
M  V30 25319 H 2373.85 -0.71212 -2.90808 0
M  V30 25320 H 2371.4 -0.343901 -1.39833 0
M  V30 25321 H 2373.35 1.49571 -3.93962 0
M  V30 25322 H 2372.07 1.78943 -2.73216 0
M  V30 25323 H 2370.73 -0.128836 -3.66374 0
M  V30 25324 H 2370.38 2.19172 -4.52739 0
M  V30 25325 H 2370.08 0.975864 -5.7944 0
M  V30 25326 H 2371.6 1.90827 -5.80015 0
M  V30 25327 H 2373.02 -0.361802 -5.72157 0
M  V30 25328 H 2371.42 -1.13423 -5.89284 0
M  V30 25329 H 2372.49 -1.62691 -4.56793 0
M  V30 25330 N 2373.83 1.5277 -0.38717 0
M  V30 25331 C 2374.76 2.22809 0.493084 0
M  V30 25332 C 2375.74 1.228 1.06578 0
M  V30 25333 O 2376.92 1.51779 1.11783 0
M  V30 25334 C 2374.05 2.93965 1.68232 0
M  V30 25335 C 2373.1 4.08225 1.23508 0
M  V30 25336 S 2373.93 5.35055 0.218386 0
M  V30 25337 C 2375.09 6.09731 1.41346 0
M  V30 25338 H 2375.32 2.97126 -0.101678 0
M  V30 25339 H 2372.85 1.53446 -0.17135 0
M  V30 25340 H 2374.81 3.35571 2.36437 0
M  V30 25341 H 2373.47 2.19332 2.24838 0
M  V30 25342 H 2372.66 4.57106 2.12296 0
M  V30 25343 H 2372.27 3.68622 0.631979 0
M  V30 25344 H 2374.56 6.35774 2.3409 0
M  V30 25345 H 2375.5 7.01485 0.965613 0
M  V30 25346 H 2375.91 5.40476 1.6293 0
M  V30 25347 N 2375.31 0.116931 1.57166 0
M  V30 25348 C 2376.25 -0.834042 2.15203 0
M  V30 25349 C 2377.22 -1.26497 1.07646 0
M  V30 25350 O 2378.41 -1.34286 1.35543 0
M  V30 25351 C 2375.55 -2.07952 2.75409 0
M  V30 25352 C 2374.66 -1.69714 3.97267 0
M  V30 25353 C 2373.8 -2.89213 4.45566 0
M  V30 25354 C 2372.84 -2.47205 5.59961 0
M  V30 25355 N 2371.97 -3.59611 6.03013 0
M  V30 25356 H 2376.81 -0.332283 2.96142 0
M  V30 25357 H 2374.35 -0.152323 1.46309 0
M  V30 25358 H 2376.31 -2.80923 3.08444 0
M  V30 25359 H 2374.94 -2.5559 1.97163 0
M  V30 25360 H 2373.99 -0.866251 3.70406 0
M  V30 25361 H 2375.3 -1.34841 4.80228 0
M  V30 25362 H 2374.46 -3.70412 4.805 0
M  V30 25363 H 2373.19 -3.27312 3.6155 0
M  V30 25364 H 2372.2 -1.64439 5.24633 0
M  V30 25365 H 2373.42 -2.10226 6.45741 0
M  V30 25366 H 2371.37 -3.97387 5.21938 0
M  V30 25367 H 2371.29 -3.28655 6.80825 0
M  V30 25368 H 2372.56 -4.41255 6.42584 0
M  V30 25369 N 2376.78 -1.56818 -0.156836 0
M  V30 25370 C 2378.03 -1.83077 -0.872383 0
M  V30 25371 C 2378.36 -0.697033 -1.8126 0
M  V30 25372 O 2377.64 0.300046 -1.92172 0
M  V30 25373 C 2377.92 -3.19792 -1.65545 0
M  V30 25374 C 2377.77 -4.43715 -0.737389 0
M  V30 25375 C 2379.09 -3.53611 -2.62006 0
M  V30 25376 H 2376.21 -0.665958 -0.315704 0
M  V30 25377 H 2378.85 -1.89498 -0.137971 0
M  V30 25378 H 2377 -3.14449 -2.28154 0
M  V30 25379 H 2378.68 -4.61136 -0.123062 0
M  V30 25380 H 2376.92 -4.33775 -0.0463305 0
M  V30 25381 H 2377.59 -5.35957 -1.32113 0
M  V30 25382 H 2380.07 -3.59501 -2.09519 0
M  V30 25383 H 2378.94 -4.50319 -3.13853 0
M  V30 25384 H 2379.2 -2.79059 -3.42897 0
M  V30 25385 N 2378.26 0.425871 -1.51737 0
M  V30 25386 C 2379.67 1.00533 -1.57321 0
M  V30 25387 C 2380.02 1.92005 -0.403571 0
M  V30 25388 O 2379.15 2.1105 0.478219 0
M  V30 25389 C 2379.74 1.83005 -2.85122 0
M  V30 25390 C 2378.3 2.35982 -2.9324 0
M  V30 25391 C 2377.45 1.15503 -2.521 0
M  V30 25392 H 2380.4 0.206711 -1.57348 0
M  V30 25393 H 2380.42 2.68576 -2.69531 0
M  V30 25394 H 2379.93 1.16405 -3.70232 0
M  V30 25395 H 2378.04 3.06003 -2.12586 0
M  V30 25396 H 2378.15 2.67994 -3.97135 0
M  V30 25397 H 2376.51 1.50389 -2.05561 0
M  V30 25398 H 2377.3 0.504955 -3.39566 0
M  V30 25399 N 2379.74 1.42077 0.682052 0
M  V30 25400 C 2380.97 1.45542 1.47055 0
M  V30 25401 C 2381.38 0.064611 1.88689 0
M  V30 25402 O 2380.74 -0.919087 1.57668 0
M  V30 25403 C 2380.79 2.37613 2.72437 0
M  V30 25404 O 2380.51 3.71283 2.32552 0
M  V30 25405 C 2382.01 2.50024 3.66064 0
M  V30 25406 H 2379.23 0.495255 0.452728 0
M  V30 25407 H 2381.78 1.86512 0.838662 0
M  V30 25408 H 2379.93 1.99916 3.31832 0
M  V30 25409 H 2380.35 4.20521 3.13468 0
M  V30 25410 H 2381.82 3.18584 4.50786 0
M  V30 25411 H 2382.3 1.53579 4.11473 0
M  V30 25412 H 2382.9 2.88413 3.12567 0
M  V30 25413 N 2381.22 -0.917649 1.28129 0
M  V30 25414 C 2382.47 -1.66095 1.14435 0
M  V30 25415 C 2382.78 -1.93172 -0.307213 0
M  V30 25416 O 2383.99 -2.65552 -0.565212 0
M  V30 25417 C 2382.44 -2.99199 2.0002 0
M  V30 25418 C 2382.05 -2.79783 3.49893 0
M  V30 25419 C 2383.8 -3.7706 1.95002 0
M  V30 25420 C 2381.7 -4.08503 4.27643 0
M  V30 25421 H 2380.63 -0.623032 0.424673 0
M  V30 25422 H 2383.28 -1.01865 1.52629 0
M  V30 25423 H 2381.67 -3.64542 1.54678 0
M  V30 25424 H 2382.84 -2.23145 4.03166 0
M  V30 25425 H 2381.15 -2.15339 3.56396 0
M  V30 25426 H 2383.75 -4.72465 2.50362 0
M  V30 25427 H 2384.09 -4.05873 0.92589 0
M  V30 25428 H 2384.63 -3.1853 2.38293 0
M  V30 25429 H 2381.37 -3.84865 5.30621 0
M  V30 25430 H 2380.89 -4.64768 3.79145 0
M  V30 25431 H 2382.57 -4.76791 4.37355 0
M  V30 25432 N 2382.7 -1.10314 -1.12555 0
M  V30 25433 C 2384.11 -0.862707 -1.65573 0
M  V30 25434 C 2384.46 0.607223 -1.86567 0
M  V30 25435 O 2383.58 1.46659 -1.59123 0
M  V30 25436 C 2384.18 -1.55952 -3.00773 0
M  V30 25437 C 2382.74 -1.36583 -3.50745 0
M  V30 25438 C 2381.89 -1.60972 -2.25795 0
M  V30 25439 H 2384.84 -1.26102 -0.96353 0
M  V30 25440 H 2384.86 -0.997818 -3.67184 0
M  V30 25441 H 2384.37 -2.62933 -2.85461 0
M  V30 25442 H 2382.47 -0.317596 -3.71244 0
M  V30 25443 H 2382.58 -2.10693 -4.30285 0
M  V30 25444 H 2380.95 -1.03238 -2.32839 0
M  V30 25445 H 2381.73 -2.69202 -2.13038 0
M  V30 25446 N 2384.18 1.29948 -0.891694 0
M  V30 25447 C 2385.12 2.27947 -0.361776 0
M  V30 25448 C 2386.09 1.56669 0.551733 0
M  V30 25449 O 2387.28 1.84697 0.478703 0
M  V30 25450 C 2384.42 3.42635 0.411764 0
M  V30 25451 C 2383.53 4.28715 -0.531726 0
M  V30 25452 C 2382.67 5.30573 0.258074 0
M  V30 25453 C 2381.7 6.08306 -0.680455 0
M  V30 25454 N 2380.84 7.02061 0.0744379 0
M  V30 25455 H 2385.68 2.72657 -1.20259 0
M  V30 25456 H 2383.22 1.34111 -0.604376 0
M  V30 25457 H 2385.18 4.07895 0.876232 0
M  V30 25458 H 2383.81 2.98976 1.2171 0
M  V30 25459 H 2382.86 3.63701 -1.1147 0
M  V30 25460 H 2384.17 4.82871 -1.25046 0
M  V30 25461 H 2383.32 6.01612 0.784098 0
M  V30 25462 H 2382.06 4.77127 1.00999 0
M  V30 25463 H 2381.07 5.36138 -1.21805 0
M  V30 25464 H 2382.29 6.63839 -1.43157 0
M  V30 25465 H 2380.24 6.50995 0.808769 0
M  V30 25466 H 2380.16 7.53737 -0.584542 0
M  V30 25467 H 2381.42 7.77332 0.580986 0
M  V30 25468 N 2385.65 0.653339 1.4342 0
M  V30 25469 C 2386.9 0.16678 2.01812 0
M  V30 25470 C 2387.23 -1.21929 1.51538 0
M  V30 25471 O 2386.48 -1.82791 0.699007 0
M  V30 25472 C 2386.78 0.126686 3.57175 0
M  V30 25473 C 2386.45 1.45451 4.26796 0
M  V30 25474 C 2385.11 1.81813 4.45531 0
M  V30 25475 C 2387.46 2.32997 4.66221 0
M  V30 25476 C 2384.79 3.05386 5.00955 0
M  V30 25477 C 2387.14 3.55862 5.23015 0
M  V30 25478 C 2385.81 3.9242 5.39966 0
M  V30 25479 H 2385.08 0.0610292 0.738483 0
M  V30 25480 H 2387.72 0.84407 1.71894 0
M  V30 25481 H 2386.03 -0.634055 3.86635 0
M  V30 25482 H 2387.73 -0.266653 4.00112 0
M  V30 25483 H 2384.32 1.1616 4.12559 0
M  V30 25484 H 2388.5 2.06195 4.51439 0
M  V30 25485 H 2383.76 3.33759 5.12265 0
M  V30 25486 H 2387.93 4.23917 5.5251 0
M  V30 25487 H 2385.56 4.88252 5.82678 0
M  V30 25488 N 2387.13 -1.52563 0.395266 0
M  V30 25489 C 2388.55 -1.59535 0.0454962 0
M  V30 25490 C 2388.75 -1.40893 -1.44054 0
M  V30 25491 O 2387.8 -1.22891 -2.20576 0
M  V30 25492 C 2389.12 -2.96028 0.528015 0
M  V30 25493 C 2390.66 -3.09223 0.484788 0
M  V30 25494 C 2391.14 -4.48174 0.943591 0
M  V30 25495 N 2392.63 -4.54375 0.899845 0
M  V30 25496 C 2393.37 -5.60136 1.22619 0
M  V30 25497 N 2392.86 -6.73514 1.62331 0
M  V30 25498 N 2394.65 -5.50272 1.14706 0
M  V30 25499 H 2386.81 -1.62929 1.36264 0
M  V30 25500 H 2389.07 -0.765725 0.5589 0
M  V30 25501 H 2388.77 -3.14905 1.56612 0
M  V30 25502 H 2388.65 -3.77136 -0.0697393 0
M  V30 25503 H 2391.04 -2.90038 -0.544247 0
M  V30 25504 H 2391.12 -2.30054 1.11842 0
M  V30 25505 H 2390.76 -4.68101 1.97088 0
M  V30 25506 H 2390.69 -5.25818 0.286909 0
M  V30 25507 H 2393.18 -3.72982 0.607697 0
M  V30 25508 H 2393.49 -7.50186 1.8558 0
M  V30 25509 H 2391.84 -6.7483 1.66223 0
M  V30 25510 H 2395.03 -4.60578 0.835782 0
M  V30 25511 H 2395.2 -6.32592 1.40471 0
M  V30 25512 N 2388.61 -0.125265 -1.57101 0
M  V30 25513 C 2389.89 0.575109 -1.86954 0
M  V30 25514 C 2390.27 1.84405 -1.02752 0
M  V30 25515 O 2389.61 2.28244 -0.108184 0
M  V30 25516 C 2389.82 0.861524 -3.38199 0
M  V30 25517 C 2391.17 1.21185 -4.06939 0
M  V30 25518 O 2392.2 0.951585 -3.43254 0
M  V30 25519 O 2391.06 1.70059 -5.19367 0
M  V30 25520 H 2388.15 0.290892 -0.774152 0
M  V30 25521 H 2390.7 -0.16024 -1.68942 0
M  V30 25522 H 2389.47 -0.0374335 -3.91282 0
M  V30 25523 H 2389.09 1.65181 -3.61664 0
M  V30 25524 N 2390.09 1.56899 0.148518 0
M  V30 25525 C 2391.34 1.82456 0.859808 0
M  V30 25526 C 2391.65 0.706261 1.82404 0
M  V30 25527 O 2392.86 0.847394 2.57937 0
M  V30 25528 C 2391.31 3.23383 1.57961 0
M  V30 25529 C 2390.92 4.43144 0.657862 0
M  V30 25530 C 2392.66 3.58215 2.27778 0
M  V30 25531 C 2390.57 5.75093 1.3792 0
M  V30 25532 H 2389.5 0.680446 0.324822 0
M  V30 25533 H 2392.15 1.83154 0.112556 0
M  V30 25534 H 2390.53 3.17067 2.37244 0
M  V30 25535 H 2391.71 4.60692 -0.0996307 0
M  V30 25536 H 2390.02 4.16344 0.0681911 0
M  V30 25537 H 2392.62 4.54053 2.82382 0
M  V30 25538 H 2392.96 2.84198 3.04199 0
M  V30 25539 H 2393.5 3.66184 1.55415 0
M  V30 25540 H 2390.23 6.52201 0.656867 0
M  V30 25541 H 2389.75 5.61482 2.10944 0
M  V30 25542 H 2391.43 6.17839 1.92053 0
M  V30 25543 N 2391.57 -0.417818 1.51961 0
M  V30 25544 C 2392.79 -1.1875 1.69428 0
M  V30 25545 C 2393.21 -1.84514 0.399988 0
M  V30 25546 O 2392.57 -1.71528 -0.623258 0
M  V30 25547 C 2392.62 -2.25709 2.82379 0
M  V30 25548 O 2392.34 -1.62631 4.06796 0
M  V30 25549 C 2393.84 -3.15623 3.11283 0
M  V30 25550 H 2391.06 -0.357176 0.568037 0
M  V30 25551 H 2393.6 -0.492695 1.98476 0
M  V30 25552 H 2391.76 -2.90872 2.55875 0
M  V30 25553 H 2392.17 -2.33471 4.69672 0
M  V30 25554 H 2393.65 -3.86764 3.9385 0
M  V30 25555 H 2394.12 -3.77499 2.24479 0
M  V30 25556 H 2394.73 -2.56138 3.39519 0
M  V30 25557 N 2393.04 -1.42436 -0.674508 0
M  V30 25558 C 2393.98 -1.41886 -1.80003 0
M  V30 25559 C 2394.99 -0.317898 -1.59666 0
M  V30 25560 O 2396.18 -0.581003 -1.6878 0
M  V30 25561 C 2393.28 -1.19554 -3.17112 0
M  V30 25562 C 2392.45 -2.4209 -3.64295 0
M  V30 25563 C 2391.51 -2.15299 -4.80138 0
M  V30 25564 O 2390.54 -2.88502 -4.90668 0
M  V30 25565 N 2391.74 -1.1563 -5.68867 0
M  V30 25566 H 2394.5 -2.38901 -1.8096 0
M  V30 25567 H 2392.06 -1.3732 -0.857608 0
M  V30 25568 H 2394.06 -0.995486 -3.92265 0
M  V30 25569 H 2392.63 -0.310623 -3.11053 0
M  V30 25570 H 2391.85 -2.77662 -2.79817 0
M  V30 25571 H 2393.13 -3.23686 -3.92562 0
M  V30 25572 H 2392.53 -0.550864 -5.63012 0
M  V30 25573 H 2391.09 -1.01611 -6.43831 0
M  V30 25574 N 2394.52 0.910841 -1.28614 0
M  V30 25575 C 2395.47 2.00024 -1.09427 0
M  V30 25576 C 2396.46 1.60891 -0.0170361 0
M  V30 25577 O 2397.65 1.75399 -0.237503 0
M  V30 25578 C 2394.78 3.34755 -0.761199 0
M  V30 25579 C 2393.86 3.80281 -1.87742 0
M  V30 25580 N 2394.25 3.98151 -3.11945 0
M  V30 25581 C 2392.55 4.09463 -1.76793 0
M  V30 25582 C 2393.25 4.36331 -3.84695 0
M  V30 25583 N 2392.23 4.44753 -3.12563 0
M  V30 25584 H 2396.03 2.11895 -2.03661 0
M  V30 25585 H 2393.54 1.09889 -1.19575 0
M  V30 25586 H 2395.54 4.1249 -0.604815 0
M  V30 25587 H 2394.2 3.24237 0.173346 0
M  V30 25588 H 2395.21 3.8399 -3.47523 0
M  V30 25589 H 2391.89 4.07565 -0.905356 0
M  V30 25590 H 2393.28 4.58095 -4.91526 0
M  V30 25591 N 2396 1.10909 1.11969 0
M  V30 25592 C 2397.25 0.85454 1.83586 0
M  V30 25593 C 2397.58 -0.619867 1.84358 0
M  V30 25594 O 2396.83 -1.47329 1.28812 0
M  V30 25595 C 2397.13 1.35431 3.30746 0
M  V30 25596 C 2396.8 2.84099 3.50141 0
M  V30 25597 C 2395.46 3.24696 3.55142 0
M  V30 25598 C 2397.81 3.79878 3.5685 0
M  V30 25599 C 2395.14 4.59813 3.64402 0
M  V30 25600 C 2397.49 5.14804 3.67641 0
M  V30 25601 C 2396.15 5.54968 3.709 0
M  V30 25602 H 2395.42 0.312698 0.671789 0
M  V30 25603 H 2398.07 1.38654 1.32088 0
M  V30 25604 H 2396.38 0.742429 3.84701 0
M  V30 25605 H 2398.07 1.13377 3.84638 0
M  V30 25606 H 2394.66 2.51691 3.46914 0
M  V30 25607 H 2398.85 3.49617 3.52252 0
M  V30 25608 H 2394.1 4.90346 3.652 0
M  V30 25609 H 2398.28 5.8886 3.71776 0
M  V30 25610 H 2395.9 6.59659 3.77828 0
M  V30 25611 N 2397.48 -1.29474 0.898573 0
M  V30 25612 C 2398.73 -1.94884 0.519898 0
M  V30 25613 C 2399.04 -1.71627 -0.93827 0
M  V30 25614 O 2400.25 -2.31134 -1.42441 0
M  V30 25615 C 2398.7 -3.49003 0.878898 0
M  V30 25616 C 2398.31 -3.81062 2.35576 0
M  V30 25617 C 2400.05 -4.20655 0.570078 0
M  V30 25618 C 2397.96 -5.2842 2.65568 0
M  V30 25619 H 2396.89 -0.729485 0.190704 0
M  V30 25620 H 2399.54 -1.47217 1.09541 0
M  V30 25621 H 2397.92 -3.95318 0.232322 0
M  V30 25622 H 2399.1 -3.4561 3.04779 0
M  V30 25623 H 2397.41 -3.22547 2.63349 0
M  V30 25624 H 2400.01 -5.29112 0.771018 0
M  V30 25625 H 2400.35 -4.1339 -0.491331 0
M  V30 25626 H 2400.89 -3.80068 1.17444 0
M  V30 25627 H 2397.63 -5.40748 3.70502 0
M  V30 25628 H 2397.15 -5.65123 2.00987 0
M  V30 25629 H 2398.82 -5.96002 2.51775 0
M  V30 25630 N 2398.96 -0.660936 -1.43071 0
M  V30 25631 C 2399.9 0.0259478 -2.30785 0
M  V30 25632 C 2400.87 0.806862 -1.45186 0
M  V30 25633 O 2402.06 0.781912 -1.74042 0
M  V30 25634 C 2399.2 0.981009 -3.30863 0
M  V30 25635 C 2398.31 0.195382 -4.31558 0
M  V30 25636 C 2397.45 1.14494 -5.18714 0
M  V30 25637 C 2396.49 0.350192 -6.11097 0
M  V30 25638 N 2395.62 1.25174 -6.90852 0
M  V30 25639 H 2400.46 -0.727897 -2.88973 0
M  V30 25640 H 2398 -0.370707 -1.42352 0
M  V30 25641 H 2399.96 1.54842 -3.87401 0
M  V30 25642 H 2398.59 1.70164 -2.74307 0
M  V30 25643 H 2397.64 -0.48844 -3.77251 0
M  V30 25644 H 2398.95 -0.422263 -4.97009 0
M  V30 25645 H 2398.11 1.78273 -5.79917 0
M  V30 25646 H 2396.84 1.79648 -4.53407 0
M  V30 25647 H 2395.85 -0.300905 -5.48976 0
M  V30 25648 H 2397.07 -0.29706 -6.7845 0
M  V30 25649 H 2395.02 1.88994 -6.28186 0
M  V30 25650 H 2394.94 0.688839 -7.52855 0
M  V30 25651 H 2396.21 1.87744 -7.56553 0
M  V30 25652 N 2400.43 1.52351 -0.403352 0
M  V30 25653 C 2401.38 2.26854 0.424972 0
M  V30 25654 C 2402.35 1.29031 1.04596 0
M  V30 25655 O 2403.54 1.57884 1.07132 0
M  V30 25656 C 2400.68 3.08892 1.53882 0
M  V30 25657 C 2399.79 4.21664 0.939322 0
M  V30 25658 C 2398.92 4.91072 2.02539 0
M  V30 25659 C 2397.96 5.95815 1.40252 0
M  V30 25660 N 2397.1 6.58763 2.42849 0
M  V30 25661 H 2401.94 2.9721 -0.216793 0
M  V30 25662 H 2399.48 1.4662 -0.118747 0
M  V30 25663 H 2401.44 3.54757 2.19552 0
M  V30 25664 H 2400.07 2.40717 2.1507 0
M  V30 25665 H 2399.12 3.80012 0.171831 0
M  V30 25666 H 2400.43 4.96818 0.444273 0
M  V30 25667 H 2399.58 5.40312 2.75948 0
M  V30 25668 H 2398.32 4.15473 2.55408 0
M  V30 25669 H 2397.33 5.459 0.653737 0
M  V30 25670 H 2398.55 6.73353 0.881601 0
M  V30 25671 H 2396.5 5.85998 2.94861 0
M  V30 25672 H 2396.42 7.29573 1.98139 0
M  V30 25673 H 2397.68 7.12644 3.15845 0
M  V30 25674 N 2401.91 0.133594 1.57033 0
M  V30 25675 C 2403.16 -0.519814 1.95301 0
M  V30 25676 C 2403.48 -1.66276 1.01869 0
M  V30 25677 O 2402.75 -1.95746 0.0776857 0
M  V30 25678 H 2401.33 -0.195019 0.721094 0
M  V30 25679 H 2403.99 0.205955 1.93809 0
M  V30 25680 H 2403.09 -0.904801 2.98697 0
M  V30 25681 N 2403.39 -1.56975 -0.140195 0
M  V30 25682 C 2404.67 -1.74649 -0.880739 0
M  V30 25683 C 2405.05 -0.703439 -1.99035 0
M  V30 25684 O 2404.4 0.27644 -2.26822 0
M  V30 25685 C 2404.61 -3.18942 -1.41694 0
M  V30 25686 C 2405.95 -3.80826 -1.87767 0
M  V30 25687 O 2406.98 -3.22413 -1.51421 0
M  V30 25688 O 2405.84 -4.83456 -2.54819 0
M  V30 25689 H 2402.93 -0.714345 -0.416701 0
M  V30 25690 H 2405.48 -1.69235 -0.125588 0
M  V30 25691 H 2404.25 -3.8636 -0.619834 0
M  V30 25692 H 2403.87 -3.28809 -2.23541 0
M  V30 25693 N 2404.87 0.409753 -1.5218 0
M  V30 25694 C 2406.11 1.15848 -1.66455 0
M  V30 25695 C 2406.45 1.90182 -0.393005 0
M  V30 25696 O 2405.72 1.84735 0.608547 0
M  V30 25697 C 2406.01 2.15344 -2.88616 0
M  V30 25698 C 2405.86 1.44911 -4.25818 0
M  V30 25699 C 2407.18 3.1602 -3.06299 0
M  V30 25700 H 2404.3 0.419794 -0.605757 0
M  V30 25701 H 2406.94 0.444282 -1.84733 0
M  V30 25702 H 2405.09 2.7625 -2.73163 0
M  V30 25703 H 2406.76 0.871285 -4.52997 0
M  V30 25704 H 2405 0.751084 -4.27248 0
M  V30 25705 H 2405.67 2.17507 -5.07341 0
M  V30 25706 H 2408.15 2.6519 -3.20646 0
M  V30 25707 H 2407.03 3.82903 -3.93289 0
M  V30 25708 H 2407.29 3.83711 -2.19586 0
M  V30 25709 N 2406.35 1.42792 0.666944 0
M  V30 25710 C 2407.76 1.3888 1.24777 0
M  V30 25711 C 2408.11 0.0859771 1.96012 0
M  V30 25712 O 2407.23 -0.815046 2.00464 0
M  V30 25713 C 2407.83 2.51568 2.26934 0
M  V30 25714 C 2406.39 2.50963 2.80525 0
M  V30 25715 C 2405.53 2.29962 1.54961 0
M  V30 25716 H 2408.49 1.51892 0.459826 0
M  V30 25717 H 2408.51 2.2227 3.08831 0
M  V30 25718 H 2408.02 3.46375 1.75059 0
M  V30 25719 H 2406.12 1.59997 3.36499 0
M  V30 25720 H 2406.23 3.4827 3.29005 0
M  V30 25721 H 2404.6 1.7837 1.81814 0
M  V30 25722 H 2405.38 3.26835 1.05041 0
M  V30 25723 N 2407.82 -0.904008 1.29095 0
M  V30 25724 C 2409.24 -1.18408 1.07013 0
M  V30 25725 C 2409.44 -2.00683 -0.181323 0
M  V30 25726 O 2408.5 -2.36658 -0.88029 0
M  V30 25727 C 2409.81 -1.9092 2.32314 0
M  V30 25728 C 2411.36 -2.03764 2.37591 0
M  V30 25729 C 2411.83 -2.79686 3.62684 0
M  V30 25730 N 2413.32 -2.87243 3.63381 0
M  V30 25731 C 2414.06 -3.46514 4.56854 0
M  V30 25732 N 2413.55 -4.06986 5.60655 0
M  V30 25733 N 2415.35 -3.44146 4.44432 0
M  V30 25734 H 2407.5 -0.354957 2.09413 0
M  V30 25735 H 2409.76 -0.219725 0.922185 0
M  V30 25736 H 2409.47 -1.37899 3.23538 0
M  V30 25737 H 2409.34 -2.9142 2.39488 0
M  V30 25738 H 2411.73 -2.55963 1.46858 0
M  V30 25739 H 2411.81 -1.02411 2.34405 0
M  V30 25740 H 2411.45 -2.28165 4.53766 0
M  V30 25741 H 2411.38 -3.81375 3.63126 0
M  V30 25742 H 2413.87 -2.44288 2.88325 0
M  V30 25743 H 2414.19 -4.50221 6.28109 0
M  V30 25744 H 2412.53 -4.05461 5.6447 0
M  V30 25745 H 2415.72 -2.9612 3.62534 0
M  V30 25746 H 2415.9 -3.90045 5.17464 0
M  V30 25747 N 2409.3 -1.11501 -1.11379 0
M  V30 25748 C 2410.27 -0.777191 -2.15621 0
M  V30 25749 C 2411.27 0.203751 -1.59504 0
M  V30 25750 O 2412.46 -0.0208126 -1.74188 0
M  V30 25751 C 2409.59 -0.153176 -3.40556 0
M  V30 25752 H 2410.78 -1.70065 -2.47018 0
M  V30 25753 H 2408.33 -0.916974 -1.26575 0
M  V30 25754 H 2409.07 0.780481 -3.14768 0
M  V30 25755 H 2408.85 -0.859305 -3.82568 0
M  V30 25756 H 2410.34 0.067031 -4.17546 0
M  V30 25757 N 2410.78 1.28995 -0.905426 0
M  V30 25758 C 2411.71 2.29974 -0.404253 0
M  V30 25759 C 2412.69 1.61836 0.523755 0
M  V30 25760 O 2413.88 1.89305 0.433265 0
M  V30 25761 C 2411.01 3.45387 0.363981 0
M  V30 25762 C 2409.96 4.25366 -0.474123 0
M  V30 25763 C 2409.29 5.33033 0.421952 0
M  V30 25764 C 2410.59 4.9292 -1.72704 0
M  V30 25765 H 2412.28 2.72144 -1.24812 0
M  V30 25766 H 2409.83 1.30831 -0.601608 0
M  V30 25767 H 2411.78 4.1511 0.725374 0
M  V30 25768 H 2410.5 3.02076 1.24168 0
M  V30 25769 H 2409.16 3.57359 -0.817923 0
M  V30 25770 H 2408.81 4.85965 1.29796 0
M  V30 25771 H 2408.51 5.87445 -0.13516 0
M  V30 25772 H 2410.04 6.05605 0.77941 0
M  V30 25773 H 2411.45 5.55049 -1.43505 0
M  V30 25774 H 2409.85 5.57291 -2.22592 0
M  V30 25775 H 2410.92 4.17883 -2.45971 0
M  V30 25776 N 2412.26 0.668514 1.42719 0
M  V30 25777 C 2413.21 -0.0254448 2.32586 0
M  V30 25778 C 2414.2 -0.79715 1.49472 0
M  V30 25779 O 2415.41 -0.705823 1.65584 0
M  V30 25780 H 2411.78 -0.0270207 0.751514 0
M  V30 25781 H 2413.75 0.749987 2.88821 0
M  V30 25782 C 2412.5 -0.967368 3.33972 0
M  V30 25783 H 2411.83 -0.382978 3.97961 0
M  V30 25784 H 2413.27 -1.42174 3.99453 0
M  V30 25785 C 2411.72 -2.07075 2.65747 0
M  V30 25786 O 2412.25 -3.15644 2.48459 0
M  V30 25787 N 2410.46 -1.84066 2.24873 0
M  V30 25788 H 2410.01 -0.957738 2.39134 0
M  V30 25789 H 2409.97 -2.58083 1.79557 0
M  V30 25790 N 2413.74 -1.52135 0.411426 0
M  V30 25791 C 2415.15 -1.59478 0.0624145 0
M  V30 25792 C 2415.35 -1.42413 -1.42551 0
M  V30 25793 O 2414.41 -1.25224 -2.19261 0
M  V30 25794 C 2415.72 -2.95451 0.559383 0
M  V30 25795 C 2417.27 -3.08691 0.517558 0
M  V30 25796 C 2417.75 -4.47148 0.991073 0
M  V30 25797 N 2419.24 -4.53395 0.947987 0
M  V30 25798 C 2419.97 -5.58804 1.28553 0
M  V30 25799 N 2419.47 -6.71754 1.69465 0
M  V30 25800 N 2421.26 -5.49024 1.20536 0
M  V30 25801 H 2413.41 -1.61475 1.37985 0
M  V30 25802 H 2415.67 -0.759754 0.56699 0
M  V30 25803 H 2415.38 -3.13227 1.59944 0
M  V30 25804 H 2415.25 -3.77188 -0.0297351 0
M  V30 25805 H 2417.64 -2.90599 -0.513454 0
M  V30 25806 H 2417.72 -2.28855 1.14276 0
M  V30 25807 H 2417.37 -4.65984 2.02042 0
M  V30 25808 H 2417.3 -5.25484 0.342663 0
M  V30 25809 H 2419.79 -3.72316 0.647223 0
M  V30 25810 H 2420.1 -7.48176 1.93527 0
M  V30 25811 H 2418.45 -6.73029 1.73371 0
M  V30 25812 H 2421.64 -4.59666 0.884585 0
M  V30 25813 H 2421.81 -6.31066 1.47172 0
M  V30 25814 N 2415.22 -0.14192 -1.5696 0
M  V30 25815 C 2416.15 0.795898 -2.19517 0
M  V30 25816 C 2417.13 1.26075 -1.14189 0
M  V30 25817 O 2418.31 1.31923 -1.42513 0
M  V30 25818 C 2415.44 2.03718 -2.81276 0
M  V30 25819 C 2414.4 1.70929 -3.92387 0
M  V30 25820 C 2413.72 3.02279 -4.41057 0
M  V30 25821 C 2415.02 0.959864 -5.13404 0
M  V30 25822 H 2416.72 0.274543 -2.98139 0
M  V30 25823 H 2414.26 0.130611 -1.43406 0
M  V30 25824 H 2416.21 2.69802 -3.23705 0
M  V30 25825 H 2414.94 2.58218 -1.99978 0
M  V30 25826 H 2413.6 1.07226 -3.50568 0
M  V30 25827 H 2413.25 3.54759 -3.56588 0
M  V30 25828 H 2412.95 2.81105 -5.15998 0
M  V30 25829 H 2414.47 3.69443 -4.86153 0
M  V30 25830 H 2415.88 1.52269 -5.52709 0
M  V30 25831 H 2414.28 0.848253 -5.94075 0
M  V30 25832 H 2415.35 -0.0493287 -4.84875 0
M  V30 25833 N 2416.69 1.57047 0.131868 0
M  V30 25834 C 2417.66 1.98473 1.14634 0
M  V30 25835 C 2418.66 0.873171 1.35027 0
M  V30 25836 O 2419.85 1.13949 1.31762 0
M  V30 25837 C 2416.98 2.31378 2.50354 0
M  V30 25838 H 2418.17 2.89292 0.790589 0
M  V30 25839 H 2415.72 1.51717 0.375734 0
M  V30 25840 H 2416.46 1.43398 2.90873 0
M  V30 25841 H 2416.24 3.12436 2.3691 0
M  V30 25842 H 2417.73 2.64213 3.23391 0
M  V30 25843 N 2418.17 -0.401677 1.52395 0
M  V30 25844 C 2419.4 -1.16946 1.70678 0
M  V30 25845 C 2419.81 -1.8408 0.419535 0
M  V30 25846 O 2419.17 -1.72179 -0.60503 0
M  V30 25847 C 2419.22 -2.22701 2.84757 0
M  V30 25848 O 2418.94 -1.58307 4.08498 0
M  V30 25849 C 2420.44 -3.12304 3.14613 0
M  V30 25850 H 2417.66 -0.351132 0.571793 0
M  V30 25851 H 2420.21 -0.471617 1.98988 0
M  V30 25852 H 2418.36 -2.88142 2.58946 0
M  V30 25853 H 2418.78 -2.28477 4.72121 0
M  V30 25854 H 2420.25 -3.82565 3.9793 0
M  V30 25855 H 2420.73 -3.75097 2.28471 0
M  V30 25856 H 2421.33 -2.52523 3.42217 0
M  V30 25857 N 2419.65 -1.43144 -0.659362 0
M  V30 25858 C 2420.58 -1.50628 -1.78419 0
M  V30 25859 C 2421.56 -0.361472 -1.66215 0
M  V30 25860 O 2422.75 -0.577866 -1.85403 0
M  V30 25861 C 2419.88 -1.42293 -3.16812 0
M  V30 25862 C 2418.83 -2.5496 -3.43772 0
M  V30 25863 C 2418.16 -2.31679 -4.81901 0
M  V30 25864 C 2419.46 -3.97228 -3.39127 0
M  V30 25865 H 2421.15 -2.44774 -1.72413 0
M  V30 25866 H 2418.7 -1.1781 -0.828063 0
M  V30 25867 H 2420.65 -1.46134 -3.9525 0
M  V30 25868 H 2419.37 -0.446492 -3.23534 0
M  V30 25869 H 2418.03 -2.50462 -2.67702 0
M  V30 25870 H 2417.68 -1.32293 -4.85291 0
M  V30 25871 H 2417.38 -3.072 -5.00901 0
M  V30 25872 H 2418.9 -2.37294 -5.62604 0
M  V30 25873 H 2420.32 -4.03247 -4.07511 0
M  V30 25874 H 2418.71 -4.72725 -3.69663 0
M  V30 25875 H 2419.78 -4.22801 -2.37418 0
M  V30 25876 N 2421.13 0.897149 -1.29572 0
M  V30 25877 C 2422.37 1.65032 -1.17866 0
M  V30 25878 C 2422.71 1.92332 0.268695 0
M  V30 25879 O 2421.98 1.53557 1.19375 0
M  V30 25880 C 2422.26 2.99783 -1.99505 0
M  V30 25881 C 2422.12 2.79532 -3.52395 0
M  V30 25882 C 2423.44 4.00549 -1.82342 0
M  V30 25883 H 2420.56 0.598887 -0.429538 0
M  V30 25884 H 2423.2 1.03902 -1.59073 0
M  V30 25885 H 2421.35 3.51959 -1.64491 0
M  V30 25886 H 2423.02 2.34237 -3.97405 0
M  V30 25887 H 2421.26 2.14266 -3.7719 0
M  V30 25888 H 2421.93 3.75295 -4.04794 0
M  V30 25889 H 2424.41 3.57491 -2.1293 0
M  V30 25890 H 2423.29 4.92767 -2.4181 0
M  V30 25891 H 2423.55 4.35178 -0.779285 0
M  V30 25892 N 2422.61 1.1209 1.10786 0
M  V30 25893 C 2423.83 0.896684 1.8646 0
M  V30 25894 C 2424.25 -0.55388 1.80493 0
M  V30 25895 O 2423.61 -1.38276 1.19105 0
M  V30 25896 C 2423.66 1.35849 3.35004 0
M  V30 25897 O 2423.38 2.75219 3.40861 0
M  V30 25898 C 2424.88 1.17067 4.27563 0
M  V30 25899 H 2422.1 0.320664 0.58942 0
M  V30 25900 H 2424.64 1.48995 1.40074 0
M  V30 25901 H 2422.8 0.808525 3.78869 0
M  V30 25902 H 2423.21 2.95397 4.33406 0
M  V30 25903 H 2424.69 1.54272 5.30004 0
M  V30 25904 H 2425.16 0.110891 4.3906 0
M  V30 25905 H 2425.77 1.70796 3.89498 0
M  V30 25906 N 2424.08 -1.28513 0.912254 0
M  V30 25907 C 2425.31 -1.99165 0.560451 0
M  V30 25908 C 2425.73 -1.68183 -0.857897 0
M  V30 25909 O 2425.08 -0.933761 -1.56803 0
M  V30 25910 C 2425.13 -3.53459 0.758204 0
M  V30 25911 O 2424.86 -3.83349 2.12074 0
M  V30 25912 C 2426.36 -4.41372 0.413032 0
M  V30 25913 H 2423.58 -0.636022 0.213816 0
M  V30 25914 H 2426.12 -1.63746 1.22505 0
M  V30 25915 H 2424.28 -3.87145 0.140624 0
M  V30 25916 H 2424.69 -4.77989 2.15931 0
M  V30 25917 H 2426.16 -5.48706 0.602176 0
M  V30 25918 H 2426.64 -4.34354 -0.650654 0
M  V30 25919 H 2427.25 -4.1318 1.00809 0
M  V30 25920 N 2425.56 -0.676073 -1.42362 0
M  V30 25921 C 2426.81 -0.19916 -2.0182 0
M  V30 25922 C 2427.14 1.19165 -1.53341 0
M  V30 25923 O 2426.42 1.80031 -0.736155 0
M  V30 25924 C 2426.7 -0.235207 -3.59331 0
M  V30 25925 C 2426.55 -1.66156 -4.17986 0
M  V30 25926 C 2427.87 0.415873 -4.38131 0
M  V30 25927 H 2424.99 -0.073844 -0.733291 0
M  V30 25928 H 2427.63 -0.8611 -1.69367 0
M  V30 25929 H 2425.78 0.328419 -3.87109 0
M  V30 25930 H 2427.45 -2.27754 -4.01156 0
M  V30 25931 H 2425.7 -2.20184 -3.73766 0
M  V30 25932 H 2426.37 -1.63846 -5.27123 0
M  V30 25933 H 2428.84 -0.063926 -4.16051 0
M  V30 25934 H 2427.72 0.360019 -5.47718 0
M  V30 25935 H 2427.98 1.49365 -4.16104 0
M  V30 25936 N 2427.04 1.51915 -0.419488 0
M  V30 25937 C 2427.99 2.2886 0.415461 0
M  V30 25938 C 2428.98 1.33972 1.03672 0
M  V30 25939 O 2430.19 1.51389 0.973731 0
M  V30 25940 H 2426.56 0.736318 0.152773 0
M  V30 25941 H 2428.53 2.97312 -0.254584 0
M  V30 25942 C 2427.28 3.12998 1.51419 0
M  V30 25943 H 2426.61 3.85888 1.04549 0
M  V30 25944 H 2428.05 3.69924 2.07202 0
M  V30 25945 C 2426.51 2.27221 2.48741 0
M  V30 25946 O 2427.04 1.91956 3.52868 0
M  V30 25947 N 2425.24 1.90789 2.19198 0
M  V30 25948 H 2424.79 2.19667 1.34552 0
M  V30 25949 H 2424.75 1.33692 2.84559 0
M  V30 25950 N 2428.52 0.150242 1.56882 0
M  V30 25951 C 2429.77 -0.49907 1.95841 0
M  V30 25952 C 2430.09 -1.65186 1.03626 0
M  V30 25953 O 2429.36 -1.95652 0.0984428 0
M  V30 25954 H 2427.94 -0.18736 0.723122 0
M  V30 25955 H 2430.6 0.2265 1.93579 0
M  V30 25956 H 2429.7 -0.873069 2.9964 0
M  V30 25957 N 2430 -1.57115 -0.123538 0
M  V30 25958 C 2431.22 -1.88794 -0.846427 0
M  V30 25959 C 2431.64 -0.741007 -1.73651 0
M  V30 25960 O 2431 0.288361 -1.80207 0
M  V30 25961 C 2431.05 -3.199 -1.68364 0
M  V30 25962 O 2430.77 -4.30177 -0.829401 0
M  V30 25963 C 2432.27 -3.65253 -2.51208 0
M  V30 25964 H 2429.49 -0.625235 -0.243562 0
M  V30 25965 H 2432.03 -2.04208 -0.109288 0
M  V30 25966 H 2430.19 -3.06169 -2.37358 0
M  V30 25967 H 2430.6 -5.05292 -1.40642 0
M  V30 25968 H 2432.08 -4.59761 -3.05489 0
M  V30 25969 H 2432.55 -2.91686 -3.28354 0
M  V30 25970 H 2433.16 -3.81756 -1.87464 0
M  V30 25971 N 2431.47 0.393589 -1.52606 0
M  V30 25972 C 2432.89 0.971733 -1.59418 0
M  V30 25973 C 2433.24 1.91105 -0.444207 0
M  V30 25974 O 2432.36 2.12017 0.433344 0
M  V30 25975 C 2432.96 1.76916 -2.8894 0
M  V30 25976 C 2431.52 2.29708 -2.98179 0
M  V30 25977 C 2430.66 1.1013 -2.54493 0
M  V30 25978 H 2433.61 0.173289 -1.57751 0
M  V30 25979 H 2433.63 2.62799 -2.75167 0
M  V30 25980 H 2433.15 1.08525 -3.72618 0
M  V30 25981 H 2431.25 3.01425 -2.19029 0
M  V30 25982 H 2431.36 2.59509 -4.0273 0
M  V30 25983 H 2429.72 1.45995 -2.08704 0
M  V30 25984 H 2430.51 0.432814 -3.40561 0
M  V30 25985 N 2432.95 1.43492 0.651762 0
M  V30 25986 C 2433.89 1.43214 1.77665 0
M  V30 25987 C 2434.86 0.293408 1.59931 0
M  V30 25988 O 2436.05 0.487223 1.82094 0
M  V30 25989 C 2433.17 1.24511 3.14984 0
M  V30 25990 C 2432.22 2.41679 3.51417 0
M  V30 25991 S 2433.05 4.04228 3.51226 0
M  V30 25992 C 2434.21 3.8791 4.91199 0
M  V30 25993 H 2434.44 2.384 1.77631 0
M  V30 25994 H 2431.98 1.3054 0.824535 0
M  V30 25995 H 2433.93 1.14407 3.94235 0
M  V30 25996 H 2432.59 0.308706 3.12579 0
M  V30 25997 H 2431.79 2.24401 4.51287 0
M  V30 25998 H 2431.39 2.48416 2.79581 0
M  V30 25999 H 2433.68 3.50325 5.79895 0
M  V30 26000 H 2434.62 4.87539 5.13529 0
M  V30 26001 H 2435.03 3.20342 4.64802 0
M  V30 26002 N 2434.43 -0.890264 1.30046 0
M  V30 26003 C 2435.36 -2.0117 1.18545 0
M  V30 26004 C 2436.34 -1.69924 0.0773655 0
M  V30 26005 O 2437.53 -1.92472 0.258484 0
M  V30 26006 C 2434.66 -3.36201 0.871 0
M  V30 26007 C 2433.61 -3.81688 1.93644 0
M  V30 26008 C 2432.94 -5.1395 1.47509 0
M  V30 26009 C 2434.24 -4.00988 3.34673 0
M  V30 26010 H 2435.93 -2.1105 2.12363 0
M  V30 26011 H 2433.48 -1.01405 1.0224 0
M  V30 26012 H 2435.43 -4.14171 0.777214 0
M  V30 26013 H 2434.15 -3.26438 -0.102868 0
M  V30 26014 H 2432.81 -3.05943 2.01977 0
M  V30 26015 H 2432.46 -5.00611 0.489639 0
M  V30 26016 H 2432.16 -5.45356 2.1877 0
M  V30 26017 H 2433.68 -5.94451 1.39499 0
M  V30 26018 H 2435.1 -4.69412 3.29128 0
M  V30 26019 H 2433.5 -4.43762 4.03974 0
M  V30 26020 H 2434.57 -3.05014 3.76954 0
M  V30 26021 N 2435.91 -1.12676 -1.1019 0
M  V30 26022 C 2437.16 -0.878332 -1.81572 0
M  V30 26023 C 2437.47 0.597525 -1.8625 0
M  V30 26024 O 2438.68 0.962636 -2.53861 0
M  V30 26025 C 2437.13 -1.52173 -3.26146 0
M  V30 26026 C 2436.74 -3.03255 -3.29758 0
M  V30 26027 C 2438.48 -1.35367 -4.02338 0
M  V30 26028 C 2436.39 -3.60517 -4.68809 0
M  V30 26029 H 2435.32 -0.324942 -0.680388 0
M  V30 26030 H 2437.97 -1.35355 -1.239 0
M  V30 26031 H 2436.35 -0.974172 -3.83831 0
M  V30 26032 H 2437.53 -3.64525 -2.81884 0
M  V30 26033 H 2435.84 -3.19486 -2.67053 0
M  V30 26034 H 2438.44 -1.75568 -5.05054 0
M  V30 26035 H 2438.78 -0.297627 -4.15235 0
M  V30 26036 H 2439.32 -1.87059 -3.51075 0
M  V30 26037 H 2436.06 -4.65892 -4.61112 0
M  V30 26038 H 2435.58 -3.04023 -5.1704 0
M  V30 26039 H 2437.25 -3.59726 -5.37779 0
M  V30 26040 N 2437.39 1.28028 -0.919057 0
M  V30 26041 C 2438.61 1.99402 -0.570392 0
M  V30 26042 C 2439.04 1.68179 0.842456 0
M  V30 26043 O 2438.39 0.917169 1.5639 0
M  V30 26044 C 2438.44 3.51781 -0.792603 0
M  V30 26045 O 2437.55 4.12142 0.145915 0
M  V30 26046 H 2436.89 0.626296 -0.220566 0
M  V30 26047 H 2439.42 1.63051 -1.23595 0
M  V30 26048 H 2439.43 4.01867 -0.704779 0
M  V30 26049 H 2438.1 3.7384 -1.82253 0
M  V30 26050 H 2436.68 3.72899 0.00890974 0
M  V30 26051 N 2438.86 0.683613 1.42002 0
M  V30 26052 C 2439.77 0.0109488 2.34597 0
M  V30 26053 C 2440.79 -0.779218 1.55577 0
M  V30 26054 O 2441.97 -0.719522 1.88109 0
M  V30 26055 C 2439.03 -0.922529 3.34201 0
M  V30 26056 C 2438.09 -0.125908 4.29115 0
M  V30 26057 C 2437.33 -1.01493 5.23961 0
M  V30 26058 O 2437.55 -2.25447 5.23956 0
M  V30 26059 O 2436.48 -0.471004 6.00054 0
M  V30 26060 H 2440.31 0.773904 2.93674 0
M  V30 26061 H 2437.89 0.443886 1.42653 0
M  V30 26062 H 2439.78 -1.45816 3.95368 0
M  V30 26063 H 2438.45 -1.66518 2.77585 0
M  V30 26064 H 2437.36 0.454034 3.71335 0
M  V30 26065 H 2438.69 0.577822 4.88797 0
M  V30 26066 N 2440.34 -1.5169 0.427538 0
M  V30 26067 C 2441.59 -2.01601 -0.141912 0
M  V30 26068 C 2441.91 -1.31417 -1.44065 0
M  V30 26069 O 2441.18 -0.445692 -1.90763 0
M  V30 26070 H 2439.76 -0.74494 -0.0554337 0
M  V30 26071 H 2442.42 -1.8644 0.568001 0
M  V30 26072 H 2441.52 -3.10405 -0.324858 0
M  V30 26073 N 2441.82 -0.15856 -1.568 0
M  V30 26074 C 2443.23 0.360334 -1.8319 0
M  V30 26075 C 2443.58 1.63944 -1.07781 0
M  V30 26076 O 2442.71 2.13919 -0.326756 0
M  V30 26077 C 2443.3 0.660537 -3.32299 0
M  V30 26078 C 2441.86 1.12391 -3.59229 0
M  V30 26079 C 2441.01 0.153048 -2.76877 0
M  V30 26080 H 2443.96 -0.383058 -1.54008 0
M  V30 26081 H 2443.98 1.51399 -3.49083 0
M  V30 26082 H 2443.49 -0.270595 -3.87156 0
M  V30 26083 H 2441.59 2.07059 -3.0977 0
M  V30 26084 H 2441.71 1.04189 -4.67634 0
M  V30 26085 H 2440.07 0.64794 -2.46321 0
M  V30 26086 H 2440.85 -0.771879 -3.3451 0
M  V30 26087 N 2443.3 1.57178 0.115204 0
M  V30 26088 C 2444.23 2.03653 1.14227 0
M  V30 26089 C 2445.21 0.921681 1.42965 0
M  V30 26090 O 2446.4 1.19164 1.53341 0
M  V30 26091 C 2443.53 2.44405 2.46746 0
M  V30 26092 C 2442.48 3.59369 2.32461 0
M  V30 26093 C 2441.81 3.86033 3.69977 0
M  V30 26094 C 2443.11 4.90962 1.78194 0
M  V30 26095 H 2444.8 2.89706 0.755698 0
M  V30 26096 H 2442.35 1.39374 0.362068 0
M  V30 26097 H 2444.3 2.75523 3.1885 0
M  V30 26098 H 2443.02 1.55327 2.873 0
M  V30 26099 H 2441.68 3.28466 1.62805 0
M  V30 26100 H 2441.33 2.94154 4.08023 0
M  V30 26101 H 2441.03 4.63419 3.61271 0
M  V30 26102 H 2442.55 4.19606 4.4358 0
M  V30 26103 H 2443.97 5.20592 2.40119 0
M  V30 26104 H 2442.36 5.72374 1.803 0
M  V30 26105 H 2443.43 4.79223 0.739792 0
M  V30 26106 N 2444.78 -0.38549 1.52813 0
M  V30 26107 C 2445.72 -1.4711 1.77841 0
M  V30 26108 C 2446.69 -1.54023 0.621784 0
M  V30 26109 O 2447.88 -1.70224 0.861876 0
M  V30 26110 C 2445.02 -2.84298 1.95623 0
M  V30 26111 C 2444.13 -2.86509 3.23321 0
M  V30 26112 C 2443.27 -4.15146 3.31401 0
M  V30 26113 C 2442.31 -4.11423 4.53208 0
M  V30 26114 N 2441.44 -5.31672 4.58551 0
M  V30 26115 H 2446.28 -1.25069 2.70484 0
M  V30 26116 H 2443.82 -0.606668 1.34007 0
M  V30 26117 H 2445.78 -3.63969 2.03918 0
M  V30 26118 H 2444.41 -3.04782 1.06337 0
M  V30 26119 H 2443.46 -1.99189 3.2408 0
M  V30 26120 H 2444.77 -2.79626 4.1305 0
M  V30 26121 H 2443.93 -5.03222 3.38898 0
M  V30 26122 H 2442.67 -4.24756 2.39652 0
M  V30 26123 H 2441.67 -3.21734 4.45833 0
M  V30 26124 H 2442.9 -4.03432 5.46278 0
M  V30 26125 H 2440.84 -5.41905 3.69695 0
M  V30 26126 H 2440.76 -5.26879 5.42157 0
M  V30 26127 H 2442.03 -6.21636 4.70307 0
M  V30 26128 N 2446.26 -1.43835 -0.644143 0
M  V30 26129 C 2447.19 -1.44154 -1.76903 0
M  V30 26130 C 2448.17 -0.301886 -1.59773 0
M  V30 26131 O 2449.35 -0.496873 -1.81834 0
M  V30 26132 C 2446.48 -1.26179 -3.14319 0
M  V30 26133 C 2445.52 -2.43539 -3.5013 0
M  V30 26134 S 2446.36 -4.06085 -3.49078 0
M  V30 26135 C 2447.51 -3.9051 -4.89135 0
M  V30 26136 H 2447.75 -2.39339 -1.76364 0
M  V30 26137 H 2445.28 -1.30976 -0.817601 0
M  V30 26138 H 2447.24 -1.16496 -3.93623 0
M  V30 26139 H 2445.9 -0.325279 -3.12411 0
M  V30 26140 H 2445.09 -2.26791 -4.50091 0
M  V30 26141 H 2444.69 -2.49895 -2.7826 0
M  V30 26142 H 2446.98 -3.53395 -5.78029 0
M  V30 26143 H 2447.93 -4.90255 -5.10936 0
M  V30 26144 H 2448.34 -3.22803 -4.63097 0
M  V30 26145 N 2447.73 0.883355 -1.30517 0
M  V30 26146 C 2448.64 2.02201 -1.18963 0
M  V30 26147 C 2449.66 1.73657 -0.109202 0
M  V30 26148 O 2450.84 1.98769 -0.324448 0
M  V30 26149 C 2447.9 3.35243 -0.883929 0
M  V30 26150 C 2446.96 3.77198 -2.04989 0
M  V30 26151 C 2446.19 5.03891 -1.75868 0
M  V30 26152 O 2446.42 5.66243 -0.687376 0
M  V30 26153 O 2445.35 5.42293 -2.61156 0
M  V30 26154 H 2449.18 2.14876 -2.1462 0
M  V30 26155 H 2446.76 1.00959 -1.10126 0
M  V30 26156 H 2448.64 4.15051 -0.728717 0
M  V30 26157 H 2447.32 3.23672 0.0427229 0
M  V30 26158 H 2446.23 2.98086 -2.26043 0
M  V30 26159 H 2447.56 3.93376 -2.95832 0
M  V30 26160 N 2449.21 1.13259 1.09591 0
M  V30 26161 C 2450.12 0.82173 2.19738 0
M  V30 26162 C 2451.14 -0.19299 1.72926 0
M  V30 26163 O 2452.31 -0.0244541 2.01385 0
M  V30 26164 C 2449.38 0.290394 3.45482 0
M  V30 26165 C 2448.44 1.36614 4.06983 0
M  V30 26166 C 2447.67 0.860067 5.26724 0
M  V30 26167 O 2447.9 -0.302981 5.69595 0
M  V30 26168 O 2446.83 1.63362 5.79307 0
M  V30 26169 H 2450.66 1.74193 2.48778 0
M  V30 26170 H 2448.24 0.909915 1.18494 0
M  V30 26171 H 2450.12 -0.00059995 4.214 0
M  V30 26172 H 2448.8 -0.60225 3.18048 0
M  V30 26173 H 2447.7 1.71043 3.32709 0
M  V30 26174 H 2449.04 2.23287 4.38639 0
M  V30 26175 N 2450.69 -1.27539 0.925834 0
M  V30 26176 C 2451.64 -2.26908 0.422085 0
M  V30 26177 C 2452.61 -1.58077 -0.510001 0
M  V30 26178 O 2453.79 -1.85902 -0.429566 0
M  V30 26179 C 2450.93 -3.43606 -0.320776 0
M  V30 26180 C 2450.04 -4.27155 0.645205 0
M  V30 26181 C 2449.18 -5.3107 -0.117312 0
M  V30 26182 C 2448.22 -6.06288 0.841498 0
M  V30 26183 N 2447.36 -7.02011 0.111727 0
M  V30 26184 H 2452.2 -2.69373 1.27446 0
M  V30 26185 H 2449.73 -1.32461 0.63972 0
M  V30 26186 H 2451.69 -4.10074 -0.767778 0
M  V30 26187 H 2450.32 -3.02098 -1.1374 0
M  V30 26188 H 2449.37 -3.60618 1.21073 0
M  V30 26189 H 2450.68 -4.79386 1.37805 0
M  V30 26190 H 2449.84 -6.03479 -0.624316 0
M  V30 26191 H 2448.58 -4.79637 -0.883135 0
M  V30 26192 H 2447.58 -5.3272 1.35977 0
M  V30 26193 H 2448.81 -6.59811 1.60707 0
M  V30 26194 H 2446.75 -6.52911 -0.635884 0
M  V30 26195 H 2446.67 -7.51922 0.784176 0
M  V30 26196 H 2447.94 -7.78599 -0.374686 0
M  V30 26197 N 2452.17 -0.691135 -1.41637 0
M  V30 26198 C 2453.13 -0.0320188 -2.29178 0
M  V30 26199 C 2454.13 0.71247 -1.44154 0
M  V30 26200 O 2455.32 0.548024 -1.65355 0
M  V30 26201 C 2452.45 0.965104 -3.26953 0
M  V30 26202 H 2453.65 -0.802732 -2.88957 0
M  V30 26203 H 2451.2 -0.454382 -1.4955 0
M  V30 26204 H 2451.93 1.76374 -2.72145 0
M  V30 26205 H 2451.72 0.434454 -3.89686 0
M  V30 26206 H 2453.21 1.42421 -3.92563 0
M  V30 26207 N 2453.65 1.51461 -0.435577 0
M  V30 26208 C 2454.87 2.0649 0.130206 0
M  V30 26209 C 2455.29 1.30318 1.36612 0
M  V30 26210 O 2454.65 0.362255 1.78869 0
M  V30 26211 C 2454.7 3.58635 0.45419 0
M  V30 26212 O 2454.42 4.3193 -0.732666 0
M  V30 26213 C 2455.92 4.30172 1.07084 0
M  V30 26214 H 2453.14 0.670944 0.0087049 0
M  V30 26215 H 2455.68 1.9506 -0.614151 0
M  V30 26216 H 2453.84 3.69986 1.14845 0
M  V30 26217 H 2454.25 5.22515 -0.455879 0
M  V30 26218 H 2455.73 5.37718 1.24754 0
M  V30 26219 H 2456.2 3.8835 2.05137 0
M  V30 26220 H 2456.81 4.2326 0.416015 0
M  V30 26221 N 2455.12 0.166873 1.56714 0
M  V30 26222 C 2456.35 -0.484905 2.00829 0
M  V30 26223 C 2456.76 -1.57646 1.04615 0
M  V30 26224 O 2456.11 -1.8366 0.0383524 0
M  V30 26225 C 2456.17 -1.12717 3.41372 0
M  V30 26226 C 2455.83 -0.177806 4.56654 0
M  V30 26227 C 2456.83 0.602161 5.16401 0
M  V30 26228 C 2454.51 -0.0749256 5.02244 0
M  V30 26229 C 2456.51 1.47225 6.20164 0
M  V30 26230 C 2454.19 0.798756 6.05857 0
M  V30 26231 C 2455.19 1.57093 6.64688 0
M  V30 26232 O 2454.88 2.43002 7.66293 0
M  V30 26233 H 2454.61 -0.128941 0.663589 0
M  V30 26234 H 2457.17 0.264401 2.03691 0
M  V30 26235 H 2455.4 -1.92451 3.35409 0
M  V30 26236 H 2457.09 -1.6807 3.69469 0
M  V30 26237 H 2457.85 0.532825 4.82064 0
M  V30 26238 H 2453.73 -0.665732 4.56168 0
M  V30 26239 H 2457.27 2.07543 6.66012 0
M  V30 26240 H 2453.17 0.869311 6.3962 0
M  V30 26241 H 2453.94 2.36469 7.83597 0
M  V30 26242 N 2456.6 -1.57237 -0.106866 0
M  V30 26243 C 2457.85 -1.8576 -0.813697 0
M  V30 26244 C 2458.18 -0.754346 -1.7895 0
M  V30 26245 O 2457.46 0.238757 -1.93029 0
M  V30 26246 C 2457.74 -3.24897 -1.55288 0
M  V30 26247 C 2457.59 -4.45836 -0.595851 0
M  V30 26248 C 2458.91 -3.61768 -2.50624 0
M  V30 26249 H 2456.03 -0.675665 -0.294357 0
M  V30 26250 H 2458.67 -1.89841 -0.0776138 0
M  V30 26251 H 2456.82 -3.21548 -2.18035 0
M  V30 26252 H 2458.49 -4.61294 0.0237073 0
M  V30 26253 H 2456.74 -4.33703 0.0916953 0
M  V30 26254 H 2457.41 -5.39889 -1.14995 0
M  V30 26255 H 2459.88 -3.65985 -1.97976 0
M  V30 26256 H 2458.76 -4.60076 -2.99368 0
M  V30 26257 H 2459.02 -2.89827 -3.33845 0
M  V30 26258 N 2458.08 0.377381 -1.53015 0
M  V30 26259 C 2459.03 1.46149 -1.74999 0
M  V30 26260 C 2460.01 1.49122 -0.604263 0
M  V30 26261 O 2461.21 1.54563 -0.862516 0
M  V30 26262 C 2458.34 2.83726 -1.93272 0
M  V30 26263 C 2457.42 2.85277 -3.13812 0
M  V30 26264 N 2457.81 2.56486 -4.35946 0
M  V30 26265 C 2456.11 3.16442 -3.14294 0
M  V30 26266 C 2456.81 2.65415 -5.17619 0
M  V30 26267 N 2455.79 2.99634 -4.53564 0
M  V30 26268 H 2459.59 1.22733 -2.67046 0
M  V30 26269 H 2457.1 0.585453 -1.5148 0
M  V30 26270 H 2459.1 3.61795 -2.07146 0
M  V30 26271 H 2457.76 3.08115 -1.02445 0
M  V30 26272 H 2458.77 2.30294 -4.6388 0
M  V30 26273 H 2455.45 3.46221 -2.33318 0
M  V30 26274 H 2456.84 2.46601 -6.2501 0
M  V30 26275 N 2459.56 1.44175 0.636506 0
M  V30 26276 C 2460.51 1.50627 1.74872 0
M  V30 26277 C 2461.48 0.354448 1.62274 0
M  V30 26278 O 2462.66 0.56394 1.82275 0
M  V30 26279 C 2459.8 1.45131 3.13099 0
M  V30 26280 C 2458.91 2.70646 3.36712 0
M  V30 26281 C 2458.05 2.57021 4.6488 0
M  V30 26282 C 2457.09 3.77725 4.81654 0
M  V30 26283 N 2456.22 3.62809 6.01094 0
M  V30 26284 H 2461.06 2.45655 1.68693 0
M  V30 26285 H 2458.6 1.21924 0.822983 0
M  V30 26286 H 2460.56 1.39936 3.93031 0
M  V30 26287 H 2459.19 0.536727 3.18307 0
M  V30 26288 H 2458.24 2.8605 2.50758 0
M  V30 26289 H 2459.55 3.60258 3.44987 0
M  V30 26290 H 2458.71 2.49629 5.52965 0
M  V30 26291 H 2457.45 1.64961 4.58955 0
M  V30 26292 H 2456.45 3.85508 3.92 0
M  V30 26293 H 2457.68 4.70815 4.89397 0
M  V30 26294 H 2455.62 2.73496 5.96268 0
M  V30 26295 H 2455.54 4.46034 6.10402 0
M  V30 26296 H 2456.81 3.59299 6.91755 0
M  V30 26297 N 2461.04 -0.876421 1.30983 0
M  V30 26298 C 2461.98 -1.98302 1.18089 0
M  V30 26299 C 2462.95 -1.6596 0.0682555 0
M  V30 26300 O 2464.14 -1.89285 0.23997 0
M  V30 26301 C 2461.28 -3.33492 0.887534 0
M  V30 26302 C 2460.39 -3.78471 2.08288 0
M  V30 26303 C 2459.53 -5.02347 1.72687 0
M  V30 26304 C 2458.57 -5.39757 2.88666 0
M  V30 26305 N 2457.7 -6.54814 2.53304 0
M  V30 26306 H 2462.54 -2.08663 2.12753 0
M  V30 26307 H 2460.08 -1.02157 1.05841 0
M  V30 26308 H 2462.04 -4.11319 0.698034 0
M  V30 26309 H 2460.67 -3.22792 -0.0222583 0
M  V30 26310 H 2459.72 -2.9648 2.38335 0
M  V30 26311 H 2461.03 -4.0213 2.95115 0
M  V30 26312 H 2460.19 -5.87823 1.50161 0
M  V30 26313 H 2458.92 -4.80578 0.830411 0
M  V30 26314 H 2457.93 -4.52804 3.11848 0
M  V30 26315 H 2459.15 -5.63495 3.79012 0
M  V30 26316 H 2457.1 -6.34604 1.66174 0
M  V30 26317 H 2457.02 -6.78385 3.33662 0
M  V30 26318 H 2458.29 -7.43499 2.34156 0
M  V30 26319 N 2462.51 -1.13839 -1.08989 0
M  V30 26320 C 2463.46 -0.815385 -2.1784 0
M  V30 26321 C 2464.46 0.204204 -1.68165 0
M  V30 26322 O 2465.66 0.0608988 -1.79897 0
M  V30 26323 H 2462.04 -0.245928 -0.71065 0
M  V30 26324 H 2464.01 -1.74148 -2.42312 0
M  V30 26325 C 2462.76 -0.302675 -3.4638 0
M  V30 26326 H 2462.08 -1.07857 -3.84977 0
M  V30 26327 H 2463.52 -0.115148 -4.23844 0
M  V30 26328 C 2461.98 0.972535 -3.22558 0
M  V30 26329 O 2462.51 2.04748 -3.45603 0
M  V30 26330 N 2460.72 0.905407 -2.76135 0
M  V30 26331 H 2460.26 0.0304968 -2.57582 0
M  V30 26332 H 2460.22 1.75922 -2.60574 0
M  V30 26333 N 2463.99 1.27046 -0.932584 0
M  V30 26334 C 2465.27 1.89264 -0.493803 0
M  V30 26335 C 2465.65 1.84362 1.0283 0
M  V30 26336 O 2465 1.29212 1.88458 0
M  V30 26337 C 2465.21 3.32975 -1.04542 0
M  V30 26338 C 2466.56 4.09865 -1.10886 0
M  V30 26339 O 2467.58 3.42009 -0.995387 0
M  V30 26340 O 2466.44 5.31196 -1.28427 0
M  V30 26341 H 2463.53 0.811452 -0.15961 0
M  V30 26342 H 2466.08 1.35278 -1.02459 0
M  V30 26343 H 2464.85 3.30861 -2.08919 0
M  V30 26344 H 2464.47 3.94487 -0.496564 0
M  V30 26345 N 2465.47 0.698636 1.41269 0
M  V30 26346 C 2466.72 0.230445 2.00782 0
M  V30 26347 C 2467.04 -1.17503 1.55622 0
M  V30 26348 O 2466.31 -1.79345 0.788181 0
M  V30 26349 H 2464.89 0.0822075 0.742463 0
M  V30 26350 H 2467.55 0.90048 1.72851 0
M  V30 26351 H 2466.65 0.250265 3.11095 0
M  V30 26352 N 2466.95 -1.51228 0.443603 0
M  V30 26353 C 2468.18 -2.06556 -0.119253 0
M  V30 26354 C 2468.59 -1.3104 -1.35919 0
M  V30 26355 O 2467.95 -0.371736 -1.78674 0
M  V30 26356 C 2468 -3.58871 -0.435165 0
M  V30 26357 O 2467.72 -4.31535 0.755562 0
M  V30 26358 C 2469.22 -4.30734 -1.04801 0
M  V30 26359 H 2466.44 -0.67098 -0.0051466 0
M  V30 26360 H 2468.99 -1.94732 0.624487 0
M  V30 26361 H 2467.14 -3.7059 -1.12881 0
M  V30 26362 H 2467.55 -5.22266 0.483582 0
M  V30 26363 H 2469.03 -5.38372 -1.21901 0
M  V30 26364 H 2469.51 -3.89432 -2.03074 0
M  V30 26365 H 2470.11 -4.23475 -0.393562 0
M  V30 26366 N 2468.43 -0.175182 -1.56623 0
M  V30 26367 C 2469.65 0.474936 -2.01375 0
M  V30 26368 C 2470.07 1.56547 -1.0554 0
M  V30 26369 O 2469.43 1.82411 -0.0568989 0
M  V30 26370 C 2469.48 1.04969 -3.45925 0
M  V30 26371 O 2469.2 0.00268904 -4.381 0
M  V30 26372 C 2470.7 1.77766 -4.06096 0
M  V30 26373 H 2467.92 0.121194 -0.659964 0
M  V30 26374 H 2470.46 -0.278046 -2.02601 0
M  V30 26375 H 2468.62 1.75315 -3.45461 0
M  V30 26376 H 2469.03 0.427589 -5.22754 0
M  V30 26377 H 2470.51 2.13236 -5.09151 0
M  V30 26378 H 2470.98 2.67408 -3.4841 0
M  V30 26379 H 2471.59 1.12052 -4.10274 0
M  V30 26380 N 2469.91 1.57292 0.0985263 0
M  V30 26381 C 2471.15 1.86189 0.803834 0
M  V30 26382 C 2471.48 0.763826 1.78548 0
M  V30 26383 O 2470.76 -0.228516 1.93153 0
M  V30 26384 C 2471.04 3.25716 1.53562 0
M  V30 26385 C 2470.9 4.46146 0.572199 0
M  V30 26386 C 2472.21 3.63092 2.48702 0
M  V30 26387 H 2469.33 0.677216 0.290769 0
M  V30 26388 H 2471.98 1.8988 0.067545 0
M  V30 26389 H 2470.13 3.227 2.16326 0
M  V30 26390 H 2471.8 4.61275 -0.0481705 0
M  V30 26391 H 2470.04 4.33648 -0.114694 0
M  V30 26392 H 2470.71 5.40491 1.1213 0
M  V30 26393 H 2473.19 3.67029 1.96032 0
M  V30 26394 H 2472.06 4.61658 2.96923 0
M  V30 26395 H 2472.32 2.91593 3.32304 0
M  V30 26396 N 2471.38 -0.369261 1.53213 0
M  V30 26397 C 2472.66 -1.12773 1.59817 0
M  V30 26398 C 2473.04 -2.07209 0.403438 0
M  V30 26399 O 2472.39 -2.203 -0.606629 0
M  V30 26400 C 2472.6 -1.87008 2.94668 0
M  V30 26401 C 2473.95 -2.41671 3.49113 0
M  V30 26402 O 2474.97 -1.97139 2.96673 0
M  V30 26403 O 2473.83 -3.23071 4.4078 0
M  V30 26404 H 2470.92 -0.517114 0.645386 0
M  V30 26405 H 2473.47 -0.372821 1.65554 0
M  V30 26406 H 2472.24 -1.18065 3.73064 0
M  V30 26407 H 2471.86 -2.69416 2.92405 0
M  V30 26408 N 2472.86 -1.4451 -0.628851 0
M  V30 26409 C 2473.79 -1.54379 -1.75184 0
M  V30 26410 C 2474.77 -0.396647 -1.65411 0
M  V30 26411 O 2475.96 -0.617063 -1.84136 0
M  V30 26412 C 2473.09 -1.48981 -3.13723 0
M  V30 26413 C 2472.04 -2.62195 -3.38287 0
M  V30 26414 C 2471.37 -2.41849 -4.76879 0
M  V30 26415 C 2472.67 -4.04332 -3.30625 0
M  V30 26416 H 2474.36 -2.48376 -1.67182 0
M  V30 26417 H 2471.91 -1.1954 -0.802888 0
M  V30 26418 H 2473.86 -1.54485 -3.92062 0
M  V30 26419 H 2472.58 -0.515017 -3.22514 0
M  V30 26420 H 2471.24 -2.56084 -2.62329 0
M  V30 26421 H 2470.89 -1.42557 -4.82376 0
M  V30 26422 H 2470.59 -3.17756 -4.94272 0
M  V30 26423 H 2472.12 -2.49174 -5.57445 0
M  V30 26424 H 2473.53 -4.118 -3.98866 0
M  V30 26425 H 2471.93 -4.8046 -3.59553 0
M  V30 26426 H 2473 -4.27742 -2.28397 0
M  V30 26427 N 2474.34 0.869463 -1.31446 0
M  V30 26428 C 2475.57 1.65532 -1.24125 0
M  V30 26429 C 2475.98 1.87807 0.193354 0
M  V30 26430 O 2475.34 1.43658 1.12555 0
M  V30 26431 C 2475.39 3.023 -1.98234 0
M  V30 26432 O 2475.11 2.8102 -3.36094 0
M  V30 26433 C 2476.61 3.96745 -1.97758 0
M  V30 26434 H 2473.83 0.516048 -0.428878 0
M  V30 26435 H 2476.38 1.08522 -1.7333 0
M  V30 26436 H 2474.53 3.55998 -1.52788 0
M  V30 26437 H 2474.95 3.67895 -3.73836 0
M  V30 26438 H 2476.42 4.90026 -2.54122 0
M  V30 26439 H 2476.9 4.28575 -0.960212 0
M  V30 26440 H 2477.5 3.48984 -2.43085 0
M  V30 26441 N 2475.82 1.14415 1.08383 0
M  V30 26442 C 2477.06 0.913865 1.81042 0
M  V30 26443 C 2477.4 -0.558177 1.86005 0
M  V30 26444 O 2476.67 -1.41347 1.33609 0
M  V30 26445 C 2476.95 1.51575 3.26645 0
M  V30 26446 C 2476.81 3.05766 3.2989 0
M  V30 26447 C 2478.13 1.19281 4.23627 0
M  V30 26448 H 2475.25 0.333425 0.657265 0
M  V30 26449 H 2477.89 1.41414 1.26894 0
M  V30 26450 H 2476.04 1.0903 3.72887 0
M  V30 26451 H 2477.71 3.57143 2.91971 0
M  V30 26452 H 2475.95 3.40202 2.69157 0
M  V30 26453 H 2476.62 3.42985 4.3251 0
M  V30 26454 H 2479.1 1.56063 3.85725 0
M  V30 26455 H 2477.98 1.64027 5.23819 0
M  V30 26456 H 2478.24 0.108145 4.41968 0
M  V30 26457 N 2477.3 -1.26549 0.939309 0
M  V30 26458 C 2478.57 -1.89 0.503833 0
M  V30 26459 C 2478.95 -1.84904 -1.01851 0
M  V30 26460 O 2478.3 -1.3021 -1.8777 0
M  V30 26461 C 2478.51 -3.32415 1.06306 0
M  V30 26462 C 2479.86 -4.09271 1.13058 0
M  V30 26463 O 2480.88 -3.41477 1.01351 0
M  V30 26464 O 2479.74 -5.30507 1.31242 0
M  V30 26465 H 2476.84 -0.810594 0.163911 0
M  V30 26466 H 2479.38 -1.34733 1.03175 0
M  V30 26467 H 2478.15 -3.29748 2.1067 0
M  V30 26468 H 2477.78 -3.94218 0.517477 0
M  V30 26469 N 2478.77 -0.706118 -1.40896 0
M  V30 26470 C 2479.71 -0.00819805 -2.29199 0
M  V30 26471 C 2480.72 0.733556 -1.45337 0
M  V30 26472 O 2481.91 0.582507 -1.68728 0
M  V30 26473 C 2479.01 1.0126 -3.23419 0
M  V30 26474 C 2478.18 0.338311 -4.3609 0
M  V30 26475 C 2477.24 1.26317 -5.10813 0
M  V30 26476 O 2476.27 0.751552 -5.64217 0
M  V30 26477 N 2477.47 2.59491 -5.19273 0
M  V30 26478 H 2480.23 -0.766348 -2.89736 0
M  V30 26479 H 2477.79 -0.552987 -1.52163 0
M  V30 26480 H 2479.79 1.63328 -3.70278 0
M  V30 26481 H 2478.36 1.67219 -2.64115 0
M  V30 26482 H 2477.58 -0.462421 -3.91478 0
M  V30 26483 H 2478.86 -0.130121 -5.08634 0
M  V30 26484 H 2478.26 3.03564 -4.77352 0
M  V30 26485 H 2476.82 3.16727 -5.69673 0
M  V30 26486 N 2480.25 1.50991 -0.451617 0
M  V30 26487 C 2481.21 2.26648 0.341077 0
M  V30 26488 C 2482.21 1.3065 0.937399 0
M  V30 26489 O 2483.4 1.54243 0.809617 0
M  V30 26490 C 2480.54 3.06908 1.48392 0
M  V30 26491 H 2481.73 2.98165 -0.322169 0
M  V30 26492 H 2479.28 1.54948 -0.205149 0
M  V30 26493 H 2480.02 2.39842 2.1828 0
M  V30 26494 H 2479.8 3.77434 1.06235 0
M  V30 26495 H 2481.29 3.64179 2.04361 0
M  V30 26496 N 2481.73 0.183486 1.56528 0
M  V30 26497 C 2482.98 -0.452431 1.98304 0
M  V30 26498 C 2483.33 -1.60035 1.06802 0
M  V30 26499 O 2482.62 -1.91284 0.110082 0
M  V30 26500 C 2482.82 -0.971577 3.43941 0
M  V30 26501 C 2482.65 0.124504 4.49528 0
M  V30 26502 C 2481.42 0.578256 5.0198 0
M  V30 26503 C 2483.61 0.929296 5.05835 0
M  V30 26504 N 2481.6 1.65337 5.91216 0
M  V30 26505 C 2482.97 1.85407 5.91629 0
M  V30 26506 C 2485.02 0.973015 4.883 0
M  V30 26507 C 2483.73 2.81889 6.61763 0
M  V30 26508 C 2485.75 1.92584 5.59165 0
M  V30 26509 C 2485.11 2.83807 6.44696 0
M  V30 26510 H 2481.21 -0.133311 0.770553 0
M  V30 26511 H 2483.8 0.286507 1.9258 0
M  V30 26512 H 2481.97 -1.67999 3.50187 0
M  V30 26513 H 2483.7 -1.57713 3.72704 0
M  V30 26514 H 2480.45 0.173722 4.73281 0
M  V30 26515 H 2480.88 2.19178 6.40539 0
M  V30 26516 H 2485.52 0.281754 4.2186 0
M  V30 26517 H 2483.24 3.51997 7.27409 0
M  V30 26518 H 2486.82 1.96593 5.47579 0
M  V30 26519 H 2485.7 3.56334 6.98567 0
M  V30 26520 N 2483.21 -1.57342 -0.0901833 0
M  V30 26521 C 2484.62 -1.53285 -0.44452 0
M  V30 26522 C 2484.82 -0.900945 -1.80237 0
M  V30 26523 O 2483.88 -0.495556 -2.47589 0
M  V30 26524 C 2485.19 -2.97994 -0.402491 0
M  V30 26525 C 2486.74 -3.09235 -0.483996 0
M  V30 26526 C 2487.22 -4.55561 -0.472064 0
M  V30 26527 N 2488.71 -4.60127 -0.532676 0
M  V30 26528 C 2489.44 -5.70801 -0.545362 0
M  V30 26529 N 2488.94 -6.90891 -0.51396 0
M  V30 26530 N 2490.73 -5.58989 -0.590542 0
M  V30 26531 H 2482.88 -1.96792 0.799156 0
M  V30 26532 H 2485.14 -0.899951 0.29798 0
M  V30 26533 H 2484.85 -3.47711 0.528167 0
M  V30 26534 H 2484.72 -3.56938 -1.21963 0
M  V30 26535 H 2487.11 -2.59503 -1.40507 0
M  V30 26536 H 2487.19 -2.53235 0.361373 0
M  V30 26537 H 2486.84 -5.05946 0.445089 0
M  V30 26538 H 2486.77 -5.09404 -1.33471 0
M  V30 26539 H 2489.26 -3.73699 -0.56194 0
M  V30 26540 H 2489.57 -7.71001 -0.527059 0
M  V30 26541 H 2487.92 -6.93334 -0.480932 0
M  V30 26542 H 2491.11 -4.64074 -0.612638 0
M  V30 26543 H 2491.28 -6.45244 -0.59696 0
M  V30 26544 N 2484.69 0.36113 -1.53407 0
M  V30 26545 C 2485.93 1.10112 -1.69469 0
M  V30 26546 C 2486.26 1.89704 -0.451385 0
M  V30 26547 O 2485.53 1.88464 0.534602 0
M  V30 26548 H 2484.11 0.409498 -0.624757 0
M  V30 26549 H 2486.77 0.406666 -1.9061 0
M  V30 26550 H 2485.86 1.78843 -2.55777 0
M  V30 26551 N 2486.16 1.44842 0.621179 0
M  V30 26552 C 2487.11 1.52473 1.73265 0
M  V30 26553 C 2488.08 0.37164 1.61889 0
M  V30 26554 O 2489.27 0.583242 1.81667 0
M  V30 26555 C 2486.41 1.48443 3.11542 0
M  V30 26556 C 2485.52 2.74202 3.33822 0
M  V30 26557 C 2484.65 2.61937 4.62128 0
M  V30 26558 C 2483.69 3.82812 4.7762 0
M  V30 26559 N 2482.83 3.69164 5.97212 0
M  V30 26560 H 2487.67 2.47431 1.66078 0
M  V30 26561 H 2485.21 1.2279 0.810005 0
M  V30 26562 H 2487.17 1.44097 3.91525 0
M  V30 26563 H 2485.8 0.570458 3.17719 0
M  V30 26564 H 2484.85 2.88694 2.4771 0
M  V30 26565 H 2486.16 3.63896 3.41146 0
M  V30 26566 H 2485.31 2.5548 5.50286 0
M  V30 26567 H 2484.05 1.69819 4.57179 0
M  V30 26568 H 2483.06 3.89644 3.87889 0
M  V30 26569 H 2484.28 4.75979 4.84376 0
M  V30 26570 H 2482.23 2.79805 5.93334 0
M  V30 26571 H 2482.15 4.52483 6.05636 0
M  V30 26572 H 2483.41 3.66615 6.87905 0
M  V30 26573 N 2487.64 -0.862479 1.31905 0
M  V30 26574 C 2488.89 -1.6129 1.21778 0
M  V30 26575 C 2489.21 -1.93728 -0.222378 0
M  V30 26576 O 2488.48 -1.58949 -1.14508 0
M  V30 26577 H 2487.06 -0.597954 0.447728 0
M  V30 26578 H 2489.72 -1.03212 1.65328 0
M  V30 26579 H 2488.82 -2.55326 1.79485 0
M  V30 26580 N 2489.12 -1.14988 -1.07775 0
M  V30 26581 C 2490.03 -0.856584 -2.18403 0
M  V30 26582 C 2491.05 0.165454 -1.73212 0
M  V30 26583 O 2492.22 -0.00758759 -2.01399 0
M  V30 26584 C 2489.29 -0.34532 -3.44976 0
M  V30 26585 C 2488.35 -1.43072 -4.04758 0
M  V30 26586 C 2487.58 -0.943756 -5.25289 0
M  V30 26587 O 2487.8 0.212325 -5.70005 0
M  V30 26588 O 2486.74 -1.72557 -5.76635 0
M  V30 26589 H 2490.56 -1.78129 -2.45975 0
M  V30 26590 H 2488.15 -0.928651 -1.17032 0
M  V30 26591 H 2490.03 -0.0664412 -4.21348 0
M  V30 26592 H 2488.71 0.551575 -3.18966 0
M  V30 26593 H 2487.61 -1.76314 -3.29946 0
M  V30 26594 H 2488.95 -2.30237 -4.35031 0
M  V30 26595 N 2490.6 1.26049 -0.946007 0
M  V30 26596 C 2491.85 1.93144 -0.594975 0
M  V30 26597 C 2492.17 1.74541 0.869499 0
M  V30 26598 O 2491.44 1.1039 1.61836 0
M  V30 26599 H 2490.02 0.714769 -0.217057 0
M  V30 26600 H 2492.68 1.53391 -1.20238 0
M  V30 26601 H 2491.78 3.0122 -0.816888 0
M  V30 26602 N 2492.08 0.71358 1.4052 0
M  V30 26603 C 2493.01 0.0744274 2.33381 0
M  V30 26604 C 2493.99 -0.747709 1.52785 0
M  V30 26605 O 2495.17 -0.69704 1.81259 0
M  V30 26606 C 2492.3 -0.849539 3.36749 0
M  V30 26607 C 2491.26 -0.133172 4.27793 0
M  V30 26608 C 2490.58 -1.17272 5.21681 0
M  V30 26609 C 2491.88 1.01143 5.12413 0
M  V30 26610 H 2493.58 0.850057 2.87079 0
M  V30 26611 H 2491.12 0.410226 1.38033 0
M  V30 26612 H 2493.08 -1.30605 4.0065 0
M  V30 26613 H 2491.8 -1.65704 2.81442 0
M  V30 26614 H 2490.46 0.303491 3.65342 0
M  V30 26615 H 2490.11 -1.97322 4.6268 0
M  V30 26616 H 2489.81 -0.698294 5.83436 0
M  V30 26617 H 2491.33 -1.62937 5.88459 0
M  V30 26618 H 2492.74 0.634374 5.69779 0
M  V30 26619 H 2491.14 1.41409 5.83201 0
M  V30 26620 H 2492.21 1.843 4.48511 0
M  V30 26621 N 2493.55 -1.50749 0.459618 0
M  V30 26622 C 2494.97 -1.867 0.00174828 0
M  V30 26623 C 2495.32 -1.37527 -1.39931 0
M  V30 26624 O 2494.44 -0.735385 -2.03522 0
M  V30 26625 C 2495.04 -3.388 -0.00360343 0
M  V30 26626 C 2493.6 -3.74204 -0.40596 0
M  V30 26627 C 2492.74 -2.74589 0.386778 0
M  V30 26628 H 2495.69 -1.43656 0.674438 0
M  V30 26629 H 2495.71 -3.71815 -0.808306 0
M  V30 26630 H 2495.23 -3.74559 1.01623 0
M  V30 26631 H 2493.33 -3.44043 -1.43057 0
M  V30 26632 H 2493.44 -4.78961 -0.115278 0
M  V30 26633 H 2491.8 -2.5421 -0.157974 0
M  V30 26634 H 2492.59 -3.13192 1.40591 0
M  V30 26635 N 2495.03 -0.191784 -1.56429 0
M  V30 26636 C 2496.28 0.446971 -1.97095 0
M  V30 26637 C 2496.6 1.62381 -1.0797 0
M  V30 26638 O 2495.87 1.95323 -0.150282 0
M  V30 26639 H 2494.45 0.168122 -0.727835 0
M  V30 26640 H 2497.11 -0.277744 -1.92911 0
M  V30 26641 H 2496.21 0.793318 -3.01849 0
M  V30 26642 N 2496.51 1.57387 0.0818378 0
M  V30 26643 C 2497.44 1.98268 1.12982 0
M  V30 26644 C 2498.42 0.857978 1.38121 0
M  V30 26645 O 2499.61 1.11942 1.51661 0
M  V30 26646 C 2496.73 2.3108 2.47628 0
M  V30 26647 C 2495.78 3.53456 2.38686 0
M  V30 26648 S 2496.61 5.04675 1.79062 0
M  V30 26649 C 2497.77 5.40678 3.15306 0
M  V30 26650 H 2498 2.86848 0.781384 0
M  V30 26651 H 2495.53 1.51652 0.290007 0
M  V30 26652 H 2497.49 2.5066 3.25084 0
M  V30 26653 H 2496.15 1.43048 2.79636 0
M  V30 26654 H 2495.35 3.73899 3.37958 0
M  V30 26655 H 2494.95 3.33455 1.69363 0
M  V30 26656 H 2497.24 5.38135 4.11604 0
M  V30 26657 H 2498.18 6.41571 2.99653 0
M  V30 26658 H 2498.59 4.68137 3.15449 0
M  V30 26659 N 2497.99 -0.35299 1.53596 0
M  V30 26660 C 2499.23 -1.10283 1.72096 0
M  V30 26661 C 2499.59 -1.86177 0.46925 0
M  V30 26662 O 2500.79 -2.635 0.53113 0
M  V30 26663 C 2499.06 -2.02656 2.9439 0
M  V30 26664 S 2500.62 -2.8499 3.33656 0
M  V30 26665 H 2497.44 -0.372778 0.60544 0
M  V30 26666 H 2500.04 -0.382447 1.91723 0
M  V30 26667 H 2498.75 -1.45685 3.83672 0
M  V30 26668 H 2498.28 -2.79147 2.77201 0
M  V30 26669 H 2500.29 -4.05025 2.86652 0
M  V30 26670 N 2499.47 -1.45169 -0.613489 0
M  V30 26671 C 2500.72 -1.48583 -1.36994 0
M  V30 26672 C 2501.04 -0.126579 -1.94589 0
M  V30 26673 O 2500.31 0.843341 -1.76818 0
M  V30 26674 H 2498.89 -0.547163 -0.508549 0
M  V30 26675 H 2501.55 -1.81081 -0.720821 0
M  V30 26676 H 2500.64 -2.22131 -2.19236 0
M  V30 26677 N 2500.95 0.855472 -1.32361 0
M  V30 26678 C 2502.19 1.60642 -1.22632 0
M  V30 26679 C 2502.51 1.93843 0.212102 0
M  V30 26680 O 2501.78 1.59554 1.13663 0
M  V30 26681 H 2500.36 0.595571 -0.450893 0
M  V30 26682 H 2503.03 1.02334 -1.65873 0
M  V30 26683 H 2502.12 2.54371 -1.80836 0
M  V30 26684 N 2502.42 1.15558 1.07164 0
M  V30 26685 C 2503.39 0.856682 2.12588 0
M  V30 26686 C 2504.39 -0.144411 1.6015 0
M  V30 26687 O 2505.58 0.0854469 1.7399 0
M  V30 26688 C 2502.71 0.279465 3.39753 0
M  V30 26689 H 2503.9 1.79116 2.40536 0
M  V30 26690 H 2501.45 0.96332 1.23085 0
M  V30 26691 H 2502.19 -0.663119 3.17448 0
M  V30 26692 H 2501.97 1.0007 3.79115 0
M  V30 26693 H 2503.46 0.0879847 4.17507 0
M  V30 26694 N 2503.9 -1.25546 0.952678 0
M  V30 26695 C 2504.83 -2.28315 0.489327 0
M  V30 26696 C 2505.81 -1.63668 -0.46333 0
M  V30 26697 O 2507 -1.90783 -0.362707 0
M  V30 26698 C 2504.13 -3.465 -0.235542 0
M  V30 26699 C 2503.08 -4.23313 0.631668 0
M  V30 26700 C 2502.41 -5.34231 -0.223829 0
M  V30 26701 C 2503.71 -4.86171 1.9088 0
M  V30 26702 H 2505.4 -2.67324 1.34827 0
M  V30 26703 H 2502.95 -1.28508 0.64975 0
M  V30 26704 H 2504.9 -4.17516 -0.570809 0
M  V30 26705 H 2503.62 -3.06476 -1.12871 0
M  V30 26706 H 2502.28 -3.54077 0.949991 0
M  V30 26707 H 2501.93 -4.90448 -1.1167 0
M  V30 26708 H 2501.63 -5.86538 0.353094 0
M  V30 26709 H 2503.16 -6.08081 -0.554107 0
M  V30 26710 H 2504.57 -5.4934 1.64006 0
M  V30 26711 H 2502.97 -5.48645 2.43122 0
M  V30 26712 H 2504.04 -4.08466 2.61311 0
M  V30 26713 N 2505.38 -0.721022 -1.40139 0
M  V30 26714 C 2506.63 -0.263267 -2.01084 0
M  V30 26715 C 2506.96 1.14226 -1.57054 0
M  V30 26716 O 2506.23 1.77597 -0.793058 0
M  V30 26717 C 2506.52 -0.349407 -3.58401 0
M  V30 26718 C 2506.37 -1.7937 -4.12488 0
M  V30 26719 C 2507.69 0.276274 -4.39232 0
M  V30 26720 H 2504.81 -0.0971357 -0.730571 0
M  V30 26721 H 2507.45 -0.914547 -1.66541 0
M  V30 26722 H 2505.6 0.205097 -3.87958 0
M  V30 26723 H 2507.27 -2.40401 -3.93707 0
M  V30 26724 H 2505.51 -2.31964 -3.66572 0
M  V30 26725 H 2506.19 -1.80533 -5.21643 0
M  V30 26726 H 2508.66 -0.196257 -4.15637 0
M  V30 26727 H 2507.54 0.185584 -5.48586 0
M  V30 26728 H 2507.8 1.36052 -4.20645 0
M  V30 26729 N 2506.86 1.50503 -0.467606 0
M  V30 26730 C 2508.08 2.0721 0.0886579 0
M  V30 26731 C 2508.51 1.32959 1.33055 0
M  V30 26732 O 2507.87 0.376228 1.77353 0
M  V30 26733 C 2507.91 3.58807 0.359139 0
M  V30 26734 O 2507.02 3.86432 1.44027 0
M  V30 26735 H 2506.36 0.663901 -0.0114466 0
M  V30 26736 H 2508.89 1.93743 -0.657647 0
M  V30 26737 H 2508.9 4.03554 0.600671 0
M  V30 26738 H 2507.57 4.12269 -0.548383 0
M  V30 26739 H 2506.15 3.53526 1.18632 0
M  V30 26740 N 2508.34 0.200077 1.56325 0
M  V30 26741 C 2509.56 -0.445935 2.02549 0
M  V30 26742 C 2509.99 -1.54058 1.07925 0
M  V30 26743 O 2509.34 -1.81188 0.0636093 0
M  V30 26744 C 2509.39 -0.9747 3.47177 0
M  V30 26745 O 2508.5 -2.08732 3.55675 0
M  V30 26746 H 2507.84 -0.103626 0.655864 0
M  V30 26747 H 2510.37 0.312417 2.02201 0
M  V30 26748 H 2510.38 -1.29003 3.87069 0
M  V30 26749 H 2509.05 -0.173397 4.15538 0
M  V30 26750 H 2507.63 -1.78026 3.2766 0
M  V30 26751 N 2509.81 -1.57429 -0.0734901 0
M  V30 26752 C 2510.76 -2.04609 -1.10625 0
M  V30 26753 C 2511.76 -0.951113 -1.40179 0
M  V30 26754 O 2512.96 -1.13623 -1.39606 0
M  V30 26755 H 2509.34 -0.652358 -0.374076 0
M  V30 26756 H 2511.31 -2.90498 -0.682167 0
M  V30 26757 C 2510.06 -2.50428 -2.41208 0
M  V30 26758 H 2509.38 -3.34276 -2.19317 0
M  V30 26759 H 2510.82 -2.87195 -3.11922 0
M  V30 26760 C 2509.28 -1.3865 -3.07047 0
M  V30 26761 O 2509.81 -0.727652 -3.95055 0
M  V30 26762 N 2508.01 -1.13205 -2.67643 0
M  V30 26763 H 2507.56 -1.66963 -1.96166 0
M  V30 26764 H 2507.52 -0.386202 -3.12019 0
M  V30 26765 N 2511.29 0.344839 -1.53781 0
M  V30 26766 C 2512.22 1.44403 -1.7799 0
M  V30 26767 C 2513.24 1.4877 -0.661165 0
M  V30 26768 O 2514.43 1.51876 -0.937869 0
M  V30 26769 C 2511.53 2.83067 -1.8635 0
M  V30 26770 C 2510.7 3.02155 -3.16261 0
M  V30 26771 C 2509.76 4.21053 -3.15595 0
M  V30 26772 O 2508.78 4.15232 -3.89322 0
M  V30 26773 N 2509.99 5.29525 -2.37873 0
M  V30 26774 H 2512.75 1.24007 -2.72841 0
M  V30 26775 H 2510.31 0.53471 -1.52815 0
M  V30 26776 H 2512.3 3.6078 -1.83357 0
M  V30 26777 H 2510.87 2.96612 -0.98691 0
M  V30 26778 H 2510.09 2.11923 -3.32389 0
M  V30 26779 H 2511.38 3.1179 -4.02075 0
M  V30 26780 H 2510.78 5.37124 -1.77523 0
M  V30 26781 H 2509.34 6.05737 -2.40679 0
M  V30 26782 N 2512.77 1.45492 0.605781 0
M  V30 26783 C 2513.99 1.53363 1.39623 0
M  V30 26784 C 2514.42 0.167678 1.87351 0
M  V30 26785 O 2513.78 -0.848023 1.60244 0
M  V30 26786 C 2513.83 2.52385 2.57554 0
M  V30 26787 O 2512.93 2.04291 3.58244 0
M  V30 26788 H 2512.27 0.516919 0.416762 0
M  V30 26789 H 2514.8 1.90862 0.73707 0
M  V30 26790 H 2514.81 2.71249 3.04775 0
M  V30 26791 H 2513.49 3.5159 2.22165 0
M  V30 26792 H 2512.06 1.95311 3.1766 0
M  V30 26793 N 2514.25 -0.848441 1.32813 0
M  V30 26794 C 2515.5 -1.59796 1.23078 0
M  V30 26795 C 2515.81 -1.94529 -0.204385 0
M  V30 26796 O 2517.02 -2.68174 -0.423654 0
M  V30 26797 C 2515.47 -2.88175 2.15599 0
M  V30 26798 C 2515.08 -2.60843 3.64232 0
M  V30 26799 C 2516.82 -3.66193 2.14715 0
M  V30 26800 C 2514.73 -3.85261 4.48696 0
M  V30 26801 H 2513.66 -0.599645 0.457101 0
M  V30 26802 H 2516.31 -0.936314 1.57814 0
M  V30 26803 H 2514.69 -3.5583 1.73784 0
M  V30 26804 H 2515.87 -2.0146 4.14428 0
M  V30 26805 H 2514.18 -1.96144 3.6731 0
M  V30 26806 H 2516.78 -4.58529 2.75054 0
M  V30 26807 H 2517.12 -4.00395 1.13973 0
M  V30 26808 H 2517.66 -3.05451 2.54842 0
M  V30 26809 H 2514.4 -3.56197 5.50276 0
M  V30 26810 H 2513.92 -4.44017 4.03248 0
M  V30 26811 H 2515.59 -4.52938 4.62014 0
M  V30 26812 N 2515.73 -1.16125 -1.06549 0
M  V30 26813 C 2516.66 -0.823208 -2.13906 0
M  V30 26814 C 2517.67 0.168401 -1.61927 0
M  V30 26815 O 2518.86 -0.0559933 -1.78412 0
M  V30 26816 C 2515.96 -0.204483 -3.38283 0
M  V30 26817 C 2515.13 -1.23555 -4.19587 0
M  V30 26818 C 2514.19 -0.637103 -5.22329 0
M  V30 26819 O 2513.22 -1.30526 -5.54032 0
M  V30 26820 N 2514.42 0.577373 -5.77622 0
M  V30 26821 H 2517.19 -1.74715 -2.43505 0
M  V30 26822 H 2514.75 -1.05823 -1.22528 0
M  V30 26823 H 2516.74 0.208838 -4.04161 0
M  V30 26824 H 2515.31 0.622958 -3.0633 0
M  V30 26825 H 2514.53 -1.82514 -3.49403 0
M  V30 26826 H 2515.82 -1.93145 -4.70715 0
M  V30 26827 H 2515.21 1.13843 -5.54127 0
M  V30 26828 H 2513.77 0.932939 -6.45089 0
M  V30 26829 N 2517.2 1.25039 -0.959323 0
M  V30 26830 C 2518.15 2.27709 -0.474477 0
M  V30 26831 C 2519.15 1.631 0.457668 0
M  V30 26832 O 2520.35 1.76876 0.333881 0
M  V30 26833 H 2516.73 0.739792 -0.134949 0
M  V30 26834 H 2518.7 2.65986 -1.35256 0
M  V30 26835 C 2517.45 3.46953 0.227823 0
M  V30 26836 H 2516.77 3.96904 -0.480317 0
M  V30 26837 H 2518.21 4.20662 0.531017 0
M  V30 26838 C 2516.67 3.04007 1.45194 0
M  V30 26839 O 2517.2 3.1043 2.54943 0
M  V30 26840 N 2515.41 2.59146 1.31497 0
M  V30 26841 H 2514.95 2.5412 0.422021 0
M  V30 26842 H 2514.91 2.30777 2.13517 0
M  V30 26843 N 2518.68 0.728444 1.39755 0
M  V30 26844 C 2519.65 0.09277 2.29012 0
M  V30 26845 C 2520.65 -0.674 1.45993 0
M  V30 26846 O 2521.84 -0.50399 1.6675 0
M  V30 26847 C 2518.97 -0.878079 3.29397 0
M  V30 26848 H 2520.16 0.879061 2.86727 0
M  V30 26849 H 2517.71 0.493873 1.48292 0
M  V30 26850 H 2518.45 -1.69096 2.76725 0
M  V30 26851 H 2518.23 -0.330983 3.90701 0
M  V30 26852 H 2519.72 -1.31963 3.96201 0
M  V30 26853 N 2520.16 -1.50253 0.475581 0
M  V30 26854 C 2521.41 -2.01543 -0.0795642 0
M  V30 26855 C 2521.72 -1.36212 -1.40377 0
M  V30 26856 O 2522.93 -1.78684 -2.04412 0
M  V30 26857 C 2521.38 -3.59386 -0.1923 0
M  V30 26858 C 2520.99 -4.33677 1.12374 0
M  V30 26859 C 2522.74 -4.18703 -0.699165 0
M  V30 26860 C 2520.64 -5.83315 0.974556 0
M  V30 26861 H 2519.57 -0.753255 -0.0335096 0
M  V30 26862 H 2522.22 -1.73023 0.611158 0
M  V30 26863 H 2520.61 -3.84512 -0.946906 0
M  V30 26864 H 2521.78 -4.20272 1.88965 0
M  V30 26865 H 2520.1 -3.8599 1.56206 0
M  V30 26866 H 2522.69 -5.28252 -0.827885 0
M  V30 26867 H 2523.04 -3.8038 -1.69164 0
M  V30 26868 H 2523.57 -3.978 -0.00181815 0
M  V30 26869 H 2520.31 -6.26118 1.94053 0
M  V30 26870 H 2519.83 -5.99283 0.249103 0
M  V30 26871 H 2521.51 -6.43797 0.64298 0
M  V30 26872 N 2521.64 -0.208365 -1.56217 0
M  V30 26873 C 2522.57 0.702077 -2.22695 0
M  V30 26874 C 2523.55 1.21118 -1.19434 0
M  V30 26875 O 2524.73 1.2576 -1.4798 0
M  V30 26876 C 2521.86 1.91605 -2.89663 0
M  V30 26877 C 2520.82 1.54133 -3.99283 0
M  V30 26878 C 2520.14 2.833 -4.53481 0
M  V30 26879 C 2521.44 0.741248 -5.17013 0
M  V30 26880 H 2523.14 0.147846 -2.99035 0
M  V30 26881 H 2520.68 0.0696698 -1.43831 0
M  V30 26882 H 2522.64 2.5583 -3.34857 0
M  V30 26883 H 2521.36 2.49504 -2.1075 0
M  V30 26884 H 2520.02 0.922606 -3.54801 0
M  V30 26885 H 2519.67 3.39316 -3.71314 0
M  V30 26886 H 2519.37 2.58967 -5.27456 0
M  V30 26887 H 2520.89 3.48491 -5.01385 0
M  V30 26888 H 2522.31 1.2869 -5.5867 0
M  V30 26889 H 2520.7 0.595522 -5.97138 0
M  V30 26890 H 2521.77 -0.254936 -4.84229 0
M  V30 26891 N 2523.12 1.57465 0.0651402 0
M  V30 26892 C 2524.36 1.87204 0.761522 0
M  V30 26893 C 2524.69 0.801274 1.77777 0
M  V30 26894 O 2523.96 -0.169336 1.95167 0
M  V30 26895 H 2522.54 0.690809 0.284239 0
M  V30 26896 H 2525.2 1.9486 0.0396485 0
M  V30 26897 H 2524.29 2.84931 1.2736 0
M  V30 26898 N 2524.59 -0.336679 1.53962 0
M  V30 26899 C 2525.84 -1.0736 1.70753 0
M  V30 26900 C 2526.16 -1.89591 0.481094 0
M  V30 26901 O 2527.36 -2.66275 0.530093 0
M  V30 26902 C 2525.82 -1.95813 3.01969 0
M  V30 26903 C 2525.43 -1.18756 4.31973 0
M  V30 26904 C 2527.17 -2.69321 3.28126 0
M  V30 26905 C 2525.08 -2.06279 5.54259 0
M  V30 26906 H 2524.01 -0.404523 0.636299 0
M  V30 26907 H 2526.66 -0.332649 1.8046 0
M  V30 26908 H 2525.04 -2.73755 2.86136 0
M  V30 26909 H 2526.21 -0.456768 4.58531 0
M  V30 26910 H 2524.53 -0.569873 4.12482 0
M  V30 26911 H 2527.13 -3.35087 4.16678 0
M  V30 26912 H 2527.47 -3.36257 2.45432 0
M  V30 26913 H 2528 -1.98448 3.44765 0
M  V30 26914 H 2524.74 -1.43873 6.39516 0
M  V30 26915 H 2524.26 -2.77128 5.3194 0
M  V30 26916 H 2525.94 -2.65172 5.90163 0
M  V30 26917 N 2526.07 -1.45812 -0.598057 0
M  V30 26918 C 2527.02 -1.51632 -1.7027 0
M  V30 26919 C 2528.01 -0.378656 -1.56381 0
M  V30 26920 O 2529.2 -0.626116 -1.65556 0
M  V30 26921 C 2526.33 -1.49498 -3.09039 0
M  V30 26922 C 2525.41 -2.68502 -3.2828 0
M  V30 26923 N 2525.8 -3.93541 -3.17741 0
M  V30 26924 C 2524.1 -2.64401 -3.59177 0
M  V30 26925 C 2524.8 -4.73016 -3.38571 0
M  V30 26926 N 2523.78 -4.0463 -3.63009 0
M  V30 26927 H 2527.58 -2.46121 -1.60629 0
M  V30 26928 H 2525.1 -1.41237 -0.801617 0
M  V30 26929 H 2527.09 -1.51754 -3.88299 0
M  V30 26930 H 2525.75 -0.560739 -3.19822 0
M  V30 26931 H 2526.76 -4.2502 -2.95937 0
M  V30 26932 H 2523.44 -1.79929 -3.76738 0
M  V30 26933 H 2524.83 -5.82006 -3.35736 0
M  V30 26934 N 2527.55 0.841385 -1.33261 0
M  V30 26935 C 2528.8 1.59884 -1.2476 0
M  V30 26936 C 2529.13 1.93299 0.186879 0
M  V30 26937 O 2528.4 1.58482 1.12755 0
M  V30 26938 C 2528.69 2.91051 -2.12041 0
M  V30 26939 C 2528.54 2.64334 -3.63934 0
M  V30 26940 C 2529.86 3.92455 -1.99166 0
M  V30 26941 H 2526.98 0.58013 -0.454553 0
M  V30 26942 H 2529.62 0.970619 -1.63337 0
M  V30 26943 H 2527.77 3.44666 -1.79271 0
M  V30 26944 H 2529.44 2.17171 -4.06982 0
M  V30 26945 H 2527.69 1.98075 -3.85939 0
M  V30 26946 H 2528.36 3.57788 -4.20347 0
M  V30 26947 H 2530.83 3.48139 -2.27901 0
M  V30 26948 H 2529.71 4.82068 -2.62492 0
M  V30 26949 H 2529.97 4.31481 -0.963158 0
M  V30 26950 N 2529.03 1.16688 1.05932 0
M  V30 26951 C 2529.99 0.879181 2.11667 0
M  V30 26952 C 2530.99 -0.127417 1.60294 0
M  V30 26953 O 2532.18 0.103896 1.7389 0
M  V30 26954 C 2529.31 0.315485 3.39437 0
M  V30 26955 H 2530.51 1.81657 2.38623 0
M  V30 26956 H 2528.06 0.976321 1.22056 0
M  V30 26957 H 2528.8 -0.629412 3.18133 0
M  V30 26958 H 2528.58 1.04085 3.78033 0
M  V30 26959 H 2530.07 0.132262 4.1739 0
M  V30 26960 N 2530.51 -1.24529 0.96594 0
M  V30 26961 C 2531.76 -1.92173 0.625627 0
M  V30 26962 C 2532.08 -1.75903 -0.841621 0
M  V30 26963 O 2531.35 -1.12951 -1.60059 0
M  V30 26964 H 2529.93 -0.711226 0.228401 0
M  V30 26965 H 2532.59 -1.51459 1.22663 0
M  V30 26966 H 2531.68 -2.99882 0.864706 0
M  V30 26967 N 2531.99 -0.735845 -1.39367 0
M  V30 26968 C 2533.23 -0.283597 -2.001 0
M  V30 26969 C 2533.55 1.13335 -1.58682 0
M  V30 26970 O 2532.82 1.77192 -0.835454 0
M  V30 26971 H 2531.4 -0.101864 -0.740022 0
M  V30 26972 H 2534.07 -0.945992 -1.70402 0
M  V30 26973 H 2533.16 -0.332658 -3.10322 0
M  V30 26974 N 2533.46 1.49999 -0.483543 0
M  V30 26975 C 2534.41 2.30416 0.31802 0
M  V30 26976 C 2535.41 1.38249 0.978963 0
M  V30 26977 O 2536.61 1.55382 0.908645 0
M  V30 26978 H 2532.99 0.742135 0.121406 0
M  V30 26979 H 2534.96 2.95965 -0.380455 0
M  V30 26980 C 2533.71 3.19138 1.38008 0
M  V30 26981 H 2533.03 3.89975 0.880883 0
M  V30 26982 H 2534.47 3.78379 1.91326 0
M  V30 26983 C 2532.93 2.37567 2.3888 0
M  V30 26984 O 2533.46 2.0675 3.44409 0
M  V30 26985 N 2531.66 1.99914 2.10909 0
M  V30 26986 H 2531.21 2.25176 1.25114 0
M  V30 26987 H 2531.17 1.45641 2.78632 0
M  V30 26988 N 2534.94 0.216646 1.56104 0
M  V30 26989 C 2536.17 -0.424426 2.03011 0
M  V30 26990 C 2536.59 -1.52905 1.09553 0
M  V30 26991 O 2535.95 -1.81111 0.0828232 0
M  V30 26992 C 2536 -0.937822 3.48191 0
M  V30 26993 O 2535.1 -2.04948 3.57869 0
M  V30 26994 H 2534.44 -0.096664 0.656926 0
M  V30 26995 H 2536.97 0.333845 2.01858 0
M  V30 26996 H 2536.98 -1.2489 3.88415 0
M  V30 26997 H 2535.66 -0.129313 4.15699 0
M  V30 26998 H 2534.23 -1.74541 3.2953 0
M  V30 26999 N 2536.42 -1.57498 -0.0567885 0
M  V30 27000 C 2537.67 -1.87159 -0.751968 0
M  V30 27001 C 2537.98 -0.811406 -1.77976 0
M  V30 27002 O 2539.19 -0.996338 -2.52558 0
M  V30 27003 C 2537.64 -3.32042 -1.38838 0
M  V30 27004 C 2537.25 -4.46225 -0.398377 0
M  V30 27005 C 2539 -3.70885 -2.06505 0
M  V30 27006 C 2536.9 -5.82156 -1.04156 0
M  V30 27007 H 2535.83 -0.698227 -0.284597 0
M  V30 27008 H 2538.48 -1.83499 -0.00558046 0
M  V30 27009 H 2536.87 -3.3036 -2.18354 0
M  V30 27010 H 2538.04 -4.59328 0.368058 0
M  V30 27011 H 2536.35 -4.16034 0.174665 0
M  V30 27012 H 2538.95 -4.69745 -2.55429 0
M  V30 27013 H 2539.29 -3.0145 -2.87112 0
M  V30 27014 H 2539.83 -3.74623 -1.33801 0
M  V30 27015 H 2536.57 -6.54921 -0.275498 0
M  V30 27016 H 2536.09 -5.72826 -1.7785 0
M  V30 27017 H 2537.77 -6.27985 -1.55704 0
M  V30 27018 N 2537.9 0.328509 -1.54138 0
M  V30 27019 C 2538.83 1.40936 -1.8617 0
M  V30 27020 C 2539.81 1.542 -0.718071 0
M  V30 27021 O 2540.99 1.68161 -0.971358 0
M  V30 27022 C 2538.12 2.77775 -2.08466 0
M  V30 27023 C 2537.08 2.79304 -3.24304 0
M  V30 27024 C 2536.4 4.19172 -3.31962 0
M  V30 27025 C 2537.7 2.43494 -4.62069 0
M  V30 27026 H 2539.4 1.14378 -2.76691 0
M  V30 27027 H 2536.94 0.548783 -1.33133 0
M  V30 27028 H 2538.9 3.5345 -2.29459 0
M  V30 27029 H 2537.62 3.058 -1.14689 0
M  V30 27030 H 2536.28 2.06085 -3.03191 0
M  V30 27031 H 2535.93 4.4433 -2.35753 0
M  V30 27032 H 2535.63 4.21103 -4.09813 0
M  V30 27033 H 2537.15 4.96666 -3.55183 0
M  V30 27034 H 2538.57 3.08881 -4.82976 0
M  V30 27035 H 2536.96 2.56683 -5.42433 0
M  V30 27036 H 2538.03 1.38651 -4.64655 0
M  V30 27037 N 2539.38 1.46127 0.590316 0
M  V30 27038 C 2540.62 1.51266 1.35079 0
M  V30 27039 C 2540.95 0.160745 1.93534 0
M  V30 27040 O 2540.23 -0.826925 1.76046 0
M  V30 27041 C 2540.51 2.60535 2.48584 0
M  V30 27042 C 2540.37 4.05231 1.95213 0
M  V30 27043 C 2541.68 2.65946 3.50658 0
M  V30 27044 H 2538.8 0.550701 0.489794 0
M  V30 27045 H 2541.45 1.78025 0.663856 0
M  V30 27046 H 2539.6 2.37848 3.07181 0
M  V30 27047 H 2541.27 4.39181 1.41131 0
M  V30 27048 H 2539.51 4.1507 1.26093 0
M  V30 27049 H 2540.18 4.77402 2.77113 0
M  V30 27050 H 2542.66 2.86319 3.01929 0
M  V30 27051 H 2541.53 3.44234 4.27545 0
M  V30 27052 H 2541.79 1.71701 4.07396 0
M  V30 27053 N 2540.85 -0.834306 1.33705 0
M  V30 27054 C 2541.82 -1.92601 1.24247 0
M  V30 27055 C 2542.82 -1.59998 0.160411 0
M  V30 27056 O 2544.01 -1.69252 0.412257 0
M  V30 27057 C 2541.14 -3.28374 0.915608 0
M  V30 27058 H 2542.33 -2.02412 2.2129 0
M  V30 27059 H 2539.88 -1.02694 1.17829 0
M  V30 27060 H 2540.62 -3.24258 -0.0521316 0
M  V30 27061 H 2540.4 -3.53419 1.69817 0
M  V30 27062 H 2541.89 -4.08345 0.874303 0
M  V30 27063 N 2542.33 -1.17248 -1.05312 0
M  V30 27064 C 2543.28 -0.888096 -2.13029 0
M  V30 27065 C 2544.25 0.167508 -1.65253 0
M  V30 27066 O 2545.43 0.0305639 -1.90776 0
M  V30 27067 C 2542.57 -0.406207 -3.42701 0
M  V30 27068 C 2541.69 -1.52579 -4.04158 0
M  V30 27069 C 2540.82 -0.9979 -5.21743 0
M  V30 27070 C 2539.86 -2.09301 -5.75204 0
M  V30 27071 N 2539 -1.57998 -6.84091 0
M  V30 27072 H 2543.84 -1.81052 -2.36694 0
M  V30 27073 H 2541.37 -0.903034 -1.16119 0
M  V30 27074 H 2543.33 -0.108378 -4.17059 0
M  V30 27075 H 2541.96 0.479257 -3.19222 0
M  V30 27076 H 2541.01 -1.93937 -3.2725 0
M  V30 27077 H 2542.33 -2.3518 -4.39877 0
M  V30 27078 H 2541.48 -0.653845 -6.03166 0
M  V30 27079 H 2540.22 -0.141318 -4.87495 0
M  V30 27080 H 2539.22 -2.44566 -4.9241 0
M  V30 27081 H 2540.45 -2.95373 -6.11499 0
M  V30 27082 H 2538.4 -0.746094 -6.51743 0
M  V30 27083 H 2538.31 -2.34207 -7.18807 0
M  V30 27084 H 2539.58 -1.26482 -7.6917 0
M  V30 27085 N 2543.81 1.24015 -0.972531 0
M  V30 27086 C 2544.74 2.27508 -0.525588 0
M  V30 27087 C 2545.72 1.64385 0.437233 0
M  V30 27088 O 2546.91 1.91336 0.332309 0
M  V30 27089 C 2544.04 3.46831 0.180387 0
M  V30 27090 C 2542.99 4.22255 -0.698933 0
M  V30 27091 C 2542.32 5.3452 0.138809 0
M  V30 27092 C 2543.62 4.83073 -1.9859 0
M  V30 27093 H 2545.31 2.65145 -1.39063 0
M  V30 27094 H 2542.86 1.27458 -0.670113 0
M  V30 27095 H 2544.81 4.18371 0.504313 0
M  V30 27096 H 2543.53 3.08233 1.07981 0
M  V30 27097 H 2542.19 3.52521 -1.0062 0
M  V30 27098 H 2541.84 4.92162 1.03853 0
M  V30 27099 H 2541.54 5.85902 -0.446362 0
M  V30 27100 H 2543.06 6.08885 0.457297 0
M  V30 27101 H 2544.48 5.46662 -1.72725 0
M  V30 27102 H 2542.88 5.44708 -2.5182 0
M  V30 27103 H 2543.95 4.04257 -2.67776 0
M  V30 27104 N 2545.29 0.743226 1.38974 0
M  V30 27105 C 2546.53 0.295224 2.0064 0
M  V30 27106 C 2546.87 -1.11713 1.58852 0
M  V30 27107 O 2546.14 -1.76313 0.821212 0
M  V30 27108 C 2546.43 0.406381 3.578 0
M  V30 27109 C 2546.28 1.8591 4.09582 0
M  V30 27110 C 2547.6 -0.206361 4.39616 0
M  V30 27111 H 2544.72 0.108746 0.728933 0
M  V30 27112 H 2547.36 0.940926 1.65065 0
M  V30 27113 H 2545.51 -0.143351 3.88235 0
M  V30 27114 H 2547.18 2.46634 3.89833 0
M  V30 27115 H 2545.42 2.37767 3.62835 0
M  V30 27116 H 2546.09 1.88809 5.18705 0
M  V30 27117 H 2548.57 0.262356 4.15272 0
M  V30 27118 H 2547.45 -0.0982854 5.48812 0
M  V30 27119 H 2547.71 -1.29342 4.22756 0
M  V30 27120 N 2546.77 -1.4974 0.491491 0
M  V30 27121 C 2547.99 -2.06831 -0.0534788 0
M  V30 27122 C 2548.41 -1.35298 -1.31681 0
M  V30 27123 O 2547.77 -0.428391 -1.77401 0
M  V30 27124 C 2547.82 -3.60074 -0.320772 0
M  V30 27125 O 2547.54 -4.28913 0.892469 0
M  V30 27126 C 2549.04 -4.3385 -0.910443 0
M  V30 27127 H 2546.26 -0.670804 0.0162027 0
M  V30 27128 H 2548.8 -1.92646 0.686124 0
M  V30 27129 H 2546.96 -3.73993 -1.01034 0
M  V30 27130 H 2547.37 -5.20463 0.649493 0
M  V30 27131 H 2548.85 -5.41977 -1.04711 0
M  V30 27132 H 2549.32 -3.95696 -1.90582 0
M  V30 27133 H 2549.93 -4.24513 -0.258638 0
M  V30 27134 N 2548.24 -0.224922 -1.55987 0
M  V30 27135 C 2549.18 0.716186 -2.17723 0
M  V30 27136 C 2550.19 1.15507 -1.14725 0
M  V30 27137 O 2551.38 1.08564 -1.4169 0
M  V30 27138 C 2548.48 1.98233 -2.74876 0
M  V30 27139 C 2547.65 1.69846 -4.03077 0
M  V30 27140 C 2546.71 2.812 -4.44762 0
M  V30 27141 O 2545.74 2.49525 -5.11591 0
M  V30 27142 N 2546.94 4.10227 -4.10723 0
M  V30 27143 H 2549.7 0.188071 -2.99109 0
M  V30 27144 H 2547.26 -0.0440408 -1.6184 0
M  V30 27145 H 2549.26 2.71925 -2.99732 0
M  V30 27146 H 2547.83 2.42083 -1.97774 0
M  V30 27147 H 2547.05 0.797807 -3.86042 0
M  V30 27148 H 2548.33 1.48315 -4.86703 0
M  V30 27149 H 2547.73 4.38803 -3.57027 0
M  V30 27150 H 2546.29 4.80453 -4.40464 0
M  V30 27151 N 2549.72 1.57526 0.0484352 0
M  V30 27152 C 2550.63 2.08656 1.07237 0
M  V30 27153 C 2551.65 1.02097 1.40898 0
M  V30 27154 O 2552.82 1.33715 1.50606 0
M  V30 27155 C 2549.89 2.53975 2.36004 0
M  V30 27156 C 2548.95 3.74933 2.09101 0
M  V30 27157 C 2548.18 4.18081 3.31729 0
M  V30 27158 O 2548.41 3.60903 4.41708 0
M  V30 27159 O 2547.34 5.10685 3.18567 0
M  V30 27160 H 2551.17 2.96264 0.667913 0
M  V30 27161 H 2548.75 1.47046 0.264144 0
M  V30 27162 H 2550.63 2.8354 3.11742 0
M  V30 27163 H 2549.31 1.69486 2.75783 0
M  V30 27164 H 2548.22 3.50416 1.30993 0
M  V30 27165 H 2549.55 4.60346 1.7419 0
M  V30 27166 N 2551.2 -0.32033 1.5431 0
M  V30 27167 C 2552.13 -1.41831 1.78771 0
M  V30 27168 C 2553.11 -1.49567 0.637856 0
M  V30 27169 O 2554.3 -1.66927 0.875657 0
M  V30 27170 C 2551.42 -2.79901 1.90717 0
M  V30 27171 C 2550.47 -2.89682 3.13028 0
M  V30 27172 S 2551.3 -2.53758 4.71558 0
M  V30 27173 C 2552.46 -3.93893 4.86414 0
M  V30 27174 H 2552.69 -1.20869 2.71621 0
M  V30 27175 H 2550.22 -0.517351 1.45475 0
M  V30 27176 H 2552.18 -3.59435 1.98285 0
M  V30 27177 H 2550.84 -2.98144 0.988396 0
M  V30 27178 H 2550.04 -3.90908 3.18131 0
M  V30 27179 H 2549.64 -2.18123 3.03807 0
M  V30 27180 H 2551.93 -4.88683 4.6925 0
M  V30 27181 H 2552.87 -3.93772 5.88515 0
M  V30 27182 H 2553.28 -3.82998 4.14696 0
M  V30 27183 N 2552.68 -1.46438 -0.582558 0
M  V30 27184 C 2553.93 -1.51756 -1.34076 0
M  V30 27185 C 2554.25 -0.169333 -1.93761 0
M  V30 27186 O 2553.51 0.835031 -1.76991 0
M  V30 27187 C 2553.81 -2.56426 -2.48959 0
M  V30 27188 C 2553.47 -4.00439 -2.07266 0
M  V30 27189 C 2552.14 -4.39648 -1.9561 0
M  V30 27190 C 2554.49 -4.90906 -1.75103 0
M  V30 27191 C 2551.82 -5.67188 -1.5005 0
M  V30 27192 C 2554.17 -6.18883 -1.31021 0
M  V30 27193 C 2552.83 -6.56998 -1.17942 0
M  V30 27194 H 2552.1 -0.555313 -0.49062 0
M  V30 27195 H 2554.75 -1.79914 -0.655975 0
M  V30 27196 H 2553.05 -2.21928 -3.22885 0
M  V30 27197 H 2554.75 -2.5777 -3.07174 0
M  V30 27198 H 2551.34 -3.69446 -2.17272 0
M  V30 27199 H 2555.52 -4.61332 -1.82993 0
M  V30 27200 H 2550.78 -5.95491 -1.38567 0
M  V30 27201 H 2554.95 -6.8841 -1.05188 0
M  V30 27202 H 2552.58 -7.55719 -0.824146 0
M  V30 27203 N 2554.16 0.827204 -1.34146 0
M  V30 27204 C 2555.09 1.94528 -1.21209 0
M  V30 27205 C 2556.1 1.62195 -0.140204 0
M  V30 27206 O 2557.29 1.7415 -0.391678 0
M  V30 27207 C 2554.39 3.28345 -0.839199 0
M  V30 27208 C 2553.56 3.88731 -2.00517 0
M  V30 27209 C 2552.62 5.00921 -1.61137 0
M  V30 27210 O 2551.65 5.19445 -2.32735 0
M  V30 27211 N 2552.85 5.78139 -0.52306 0
M  V30 27212 H 2555.62 2.06159 -2.17529 0
M  V30 27213 H 2553.18 1.00356 -1.27044 0
M  V30 27214 H 2555.17 4.0084 -0.557627 0
M  V30 27215 H 2553.74 3.12582 0.0336744 0
M  V30 27216 H 2552.96 3.08682 -2.45172 0
M  V30 27217 H 2554.25 4.25807 -2.78506 0
M  V30 27218 H 2553.64 5.65654 0.0722524 0
M  V30 27219 H 2552.2 6.51104 -0.301203 0
M  V30 27220 N 2555.63 1.17805 1.04688 0
M  V30 27221 C 2556.58 0.895673 2.14664 0
M  V30 27222 C 2557.58 -0.14165 1.68807 0
M  V30 27223 O 2558.78 0.00591078 1.79999 0
M  V30 27224 H 2555.16 0.272134 0.701033 0
M  V30 27225 H 2557.13 1.83021 2.35682 0
M  V30 27226 C 2555.88 0.431023 3.45018 0
M  V30 27227 H 2555.2 1.2207 3.80708 0
M  V30 27228 H 2556.64 0.272376 4.23124 0
M  V30 27229 C 2555.1 -0.85215 3.25945 0
M  V30 27230 O 2555.63 -1.9178 3.52964 0
M  V30 27231 N 2553.84 -0.802297 2.79305 0
M  V30 27232 H 2553.38 0.0651241 2.57518 0
M  V30 27233 H 2553.34 -1.66129 2.66924 0
M  V30 27234 N 2557.11 -1.23497 0.979094 0
M  V30 27235 C 2558.36 -1.91184 0.642784 0
M  V30 27236 C 2558.67 -1.77247 -0.827222 0
M  V30 27237 O 2559.88 -2.39724 -1.27454 0
M  V30 27238 C 2558.34 -3.42707 1.09907 0
M  V30 27239 C 2557.94 -3.65309 2.59333 0
M  V30 27240 C 2559.69 -4.16178 0.836444 0
M  V30 27241 C 2557.6 -5.10461 2.98636 0
M  V30 27242 H 2556.53 -0.71588 0.236711 0
M  V30 27243 H 2559.18 -1.39953 1.18682 0
M  V30 27244 H 2557.56 -3.9304 0.483259 0
M  V30 27245 H 2558.73 -3.25528 3.26142 0
M  V30 27246 H 2557.05 -3.05146 2.83328 0
M  V30 27247 H 2559.64 -5.23137 1.10595 0
M  V30 27248 H 2559.99 -4.15678 -0.227436 0
M  V30 27249 H 2560.52 -3.7183 1.41377 0
M  V30 27250 H 2557.26 -5.16091 4.04142 0
M  V30 27251 H 2556.78 -5.51197 2.3652 0
M  V30 27252 H 2558.46 -5.78783 2.89169 0
M  V30 27253 N 2558.59 -0.750586 -1.38578 0
M  V30 27254 C 2559.87 -0.231043 -1.94231 0
M  V30 27255 C 2560.25 1.27015 -1.68613 0
M  V30 27256 O 2559.6 2.04321 -1.023 0
M  V30 27257 C 2559.81 -0.581489 -3.44122 0
M  V30 27258 C 2561.15 -0.539463 -4.21159 0
M  V30 27259 O 2562.18 -0.519603 -3.5239 0
M  V30 27260 O 2561.04 -0.547745 -5.43748 0
M  V30 27261 H 2558.13 -0.0474408 -0.825638 0
M  V30 27262 H 2560.68 -0.830504 -1.47989 0
M  V30 27263 H 2559.45 -1.61839 -3.56264 0
M  V30 27264 H 2559.07 0.0461348 -3.97573 0
M  V30 27265 N 2560.07 1.49477 -0.499425 0
M  V30 27266 C 2561.02 2.29097 0.279841 0
M  V30 27267 C 2561.99 1.35422 0.961781 0
M  V30 27268 O 2563.17 1.64377 0.968748 0
M  V30 27269 C 2560.31 3.18053 1.33926 0
M  V30 27270 C 2559.42 4.26784 0.669258 0
M  V30 27271 C 2558.56 5.02958 1.70899 0
M  V30 27272 C 2557.6 6.03529 1.02077 0
M  V30 27273 N 2556.74 6.72874 2.00462 0
M  V30 27274 H 2561.58 2.9523 -0.405369 0
M  V30 27275 H 2559.11 1.45568 -0.211752 0
M  V30 27276 H 2561.07 3.68002 1.96547 0
M  V30 27277 H 2559.7 2.53908 1.99326 0
M  V30 27278 H 2558.75 3.80335 -0.0701903 0
M  V30 27279 H 2560.06 4.98637 0.127416 0
M  V30 27280 H 2559.22 5.56768 2.41028 0
M  V30 27281 H 2557.96 4.30875 2.28468 0
M  V30 27282 H 2556.96 5.48952 0.305242 0
M  V30 27283 H 2558.19 6.77597 0.451589 0
M  V30 27284 H 2556.13 6.03563 2.56997 0
M  V30 27285 H 2556.05 7.40697 1.5134 0
M  V30 27286 H 2557.32 7.31288 2.69885 0
M  V30 27287 N 2561.55 0.233191 1.55865 0
M  V30 27288 C 2562.49 -0.672112 2.20797 0
M  V30 27289 C 2563.46 -1.18164 1.16733 0
M  V30 27290 O 2564.65 -1.23861 1.45131 0
M  V30 27291 C 2561.79 -1.8695 2.90075 0
M  V30 27292 C 2560.9 -1.39779 4.08762 0
M  V30 27293 C 2560.04 -2.55366 4.65792 0
M  V30 27294 C 2559.08 -2.04988 5.76755 0
M  V30 27295 N 2558.21 -3.1389 6.28027 0
M  V30 27296 H 2563.05 -0.111697 2.97791 0
M  V30 27297 H 2560.59 -0.0433749 1.47036 0
M  V30 27298 H 2562.55 -2.5727 3.28433 0
M  V30 27299 H 2561.18 -2.40261 2.15579 0
M  V30 27300 H 2560.23 -0.589107 3.75811 0
M  V30 27301 H 2561.54 -0.988474 4.88908 0
M  V30 27302 H 2560.7 -3.33749 5.06652 0
M  V30 27303 H 2559.44 -2.99591 3.84833 0
M  V30 27304 H 2558.44 -1.2507 5.35386 0
M  V30 27305 H 2559.67 -1.61748 6.59556 0
M  V30 27306 H 2557.61 -3.57576 5.49978 0
M  V30 27307 H 2557.53 -2.77247 7.03328 0
M  V30 27308 H 2558.8 -3.92374 6.73545 0
M  V30 27309 N 2563.03 -1.57549 -0.0400806 0
M  V30 27310 C 2564.27 -1.87946 -0.732075 0
M  V30 27311 C 2564.59 -0.830237 -1.77106 0
M  V30 27312 O 2565.79 -1.02307 -2.51487 0
M  V30 27313 C 2564.25 -3.33496 -1.35309 0
M  V30 27314 C 2563.86 -4.46623 -0.351027 0
M  V30 27315 C 2565.6 -3.73055 -2.0256 0
M  V30 27316 C 2563.51 -5.83228 -0.979756 0
M  V30 27317 H 2562.44 -0.701206 -0.277176 0
M  V30 27318 H 2565.09 -1.83495 0.0138824 0
M  V30 27319 H 2563.47 -3.32657 -2.14838 0
M  V30 27320 H 2564.65 -4.58912 0.416755 0
M  V30 27321 H 2562.96 -4.15825 0.218782 0
M  V30 27322 H 2565.56 -4.72427 -2.50433 0
M  V30 27323 H 2565.9 -3.04479 -2.83899 0
M  V30 27324 H 2566.43 -3.76021 -1.2982 0
M  V30 27325 H 2563.17 -6.55176 -0.20602 0
M  V30 27326 H 2562.69 -5.7468 -1.71764 0
M  V30 27327 H 2564.37 -6.29601 -1.49035 0
M  V30 27328 N 2564.5 0.312142 -1.54478 0
M  V30 27329 C 2565.41 1.40737 -1.87697 0
M  V30 27330 C 2566.43 1.56035 -0.770002 0
M  V30 27331 O 2567.61 1.70913 -1.0654 0
M  V30 27332 C 2564.67 2.75283 -2.1076 0
M  V30 27333 C 2563.73 2.69065 -3.34519 0
M  V30 27334 C 2562.96 3.97194 -3.56472 0
M  V30 27335 O 2563.19 4.96016 -2.81646 0
M  V30 27336 O 2562.12 3.99762 -4.49971 0
M  V30 27337 H 2565.95 1.15569 -2.80851 0
M  V30 27338 H 2563.53 0.507203 -1.40527 0
M  V30 27339 H 2565.41 3.54909 -2.27194 0
M  V30 27340 H 2564.09 3.00318 -1.20793 0
M  V30 27341 H 2563 1.8795 -3.23459 0
M  V30 27342 H 2564.33 2.48984 -4.24579 0
M  V30 27343 N 2565.98 1.46745 0.574784 0
M  V30 27344 C 2567.21 1.5629 1.36338 0
M  V30 27345 C 2567.63 0.20738 1.86953 0
M  V30 27346 O 2566.99 -0.813842 1.62007 0
M  V30 27347 C 2567.04 2.57791 2.52143 0
M  V30 27348 O 2566.14 2.11844 3.5383 0
M  V30 27349 H 2565.48 0.525643 0.405703 0
M  V30 27350 H 2568.01 1.92383 0.696419 0
M  V30 27351 H 2568.02 2.77653 2.98953 0
M  V30 27352 H 2566.7 3.56224 2.14657 0
M  V30 27353 H 2565.27 2.02005 3.13446 0
M  V30 27354 N 2567.46 -0.820078 1.34583 0
M  V30 27355 C 2568.39 -1.93882 1.22239 0
M  V30 27356 C 2569.4 -1.62119 0.148804 0
M  V30 27357 O 2570.59 -1.7394 0.400908 0
M  V30 27358 C 2567.69 -3.27896 0.8566 0
M  V30 27359 C 2566.87 -3.87662 2.02576 0
M  V30 27360 C 2565.93 -5.00059 1.63791 0
M  V30 27361 O 2564.95 -5.18203 2.35486 0
M  V30 27362 N 2566.15 -5.77853 0.553713 0
M  V30 27363 H 2568.92 -2.05002 2.18619 0
M  V30 27364 H 2566.48 -0.996808 1.27575 0
M  V30 27365 H 2568.47 -4.00539 0.578876 0
M  V30 27366 H 2567.04 -3.12595 -0.0170969 0
M  V30 27367 H 2566.26 -3.07377 2.46805 0
M  V30 27368 H 2567.55 -4.24325 2.8076 0
M  V30 27369 H 2566.95 -5.65684 -0.0422534 0
M  V30 27370 H 2565.5 -6.50935 0.335729 0
M  V30 27371 N 2568.94 -1.18359 -1.04062 0
M  V30 27372 C 2570.35 -0.933281 -1.29468 0
M  V30 27373 C 2570.55 0.401134 -1.97467 0
M  V30 27374 O 2569.61 1.13546 -2.2553 0
M  V30 27375 C 2570.92 -2.09886 -2.15333 0
M  V30 27376 C 2572.47 -2.13716 -2.2868 0
M  V30 27377 C 2572.95 -3.29692 -3.17911 0
M  V30 27378 N 2574.44 -3.29553 -3.25499 0
M  V30 27379 C 2575.17 -4.15933 -3.94699 0
M  V30 27380 N 2574.67 -5.12447 -4.6623 0
M  V30 27381 N 2576.46 -4.03847 -3.90978 0
M  V30 27382 H 2568.61 -2.04233 -0.583323 0
M  V30 27383 H 2570.87 -0.892393 -0.319905 0
M  V30 27384 H 2570.58 -3.06392 -1.72676 0
M  V30 27385 H 2570.45 -2.05953 -3.16012 0
M  V30 27386 H 2572.84 -1.17788 -2.70573 0
M  V30 27387 H 2572.92 -2.21707 -1.27592 0
M  V30 27388 H 2572.57 -4.25891 -2.76729 0
M  V30 27389 H 2572.5 -3.18937 -4.19031 0
M  V30 27390 H 2574.99 -2.59682 -2.74543 0
M  V30 27391 H 2575.3 -5.74731 -5.16628 0
M  V30 27392 H 2573.65 -5.16406 -4.65134 0
M  V30 27393 H 2576.84 -3.27733 -3.34228 0
M  V30 27394 H 2577.01 -4.71383 -4.44637 0
M  V30 27395 N 2570.42 1.22976 -0.98563 0
M  V30 27396 C 2571.66 1.9084 -0.652914 0
M  V30 27397 C 2571.98 1.77683 0.817811 0
M  V30 27398 O 2573.18 2.40397 1.26181 0
M  V30 27399 C 2571.64 3.4212 -1.11723 0
M  V30 27400 C 2571.25 3.63928 -2.61267 0
M  V30 27401 C 2572.99 4.15728 -0.858503 0
M  V30 27402 C 2570.9 5.0887 -3.01339 0
M  V30 27403 H 2569.83 0.714614 -0.240504 0
M  V30 27404 H 2572.48 1.39322 -1.19423 0
M  V30 27405 H 2570.86 3.92778 -0.504096 0
M  V30 27406 H 2572.04 3.23794 -3.27863 0
M  V30 27407 H 2570.35 3.03639 -2.84943 0
M  V30 27408 H 2572.95 5.22544 -1.13368 0
M  V30 27409 H 2573.29 4.15793 0.205388 0
M  V30 27410 H 2573.82 3.71075 -1.43347 0
M  V30 27411 H 2570.56 5.1394 -4.06873 0
M  V30 27412 H 2570.08 5.49935 -2.3944 0
M  V30 27413 H 2571.76 5.77242 -2.92235 0
M  V30 27414 N 2571.89 0.757924 1.38178 0
M  V30 27415 C 2572.83 0.0814494 2.28055 0
M  V30 27416 C 2573.8 -0.723754 1.45604 0
M  V30 27417 O 2574.99 -0.701461 1.74962 0
M  V30 27418 C 2572.12 -0.891336 3.26761 0
M  V30 27419 C 2571.16 -0.171834 4.26154 0
M  V30 27420 S 2571.99 1.13044 5.23432 0
M  V30 27421 C 2573.15 0.160837 6.25693 0
M  V30 27422 H 2573.38 0.84358 2.85081 0
M  V30 27423 H 2570.92 0.550697 1.44245 0
M  V30 27424 H 2572.87 -1.44724 3.84142 0
M  V30 27425 H 2571.54 -1.62647 2.68709 0
M  V30 27426 H 2570.73 -0.908756 4.95739 0
M  V30 27427 H 2570.33 0.312671 3.72691 0
M  V30 27428 H 2572.62 -0.671654 6.74162 0
M  V30 27429 H 2573.57 0.824476 7.03284 0
M  V30 27430 H 2573.97 -0.221793 5.64064 0
M  V30 27431 N 2573.37 -1.4921 0.507345 0
M  V30 27432 C 2574.32 -2.29242 -0.267687 0
M  V30 27433 C 2575.29 -1.3593 -0.954585 0
M  V30 27434 O 2576.47 -1.64889 -0.960017 0
M  V30 27435 C 2573.61 -3.18759 -1.32238 0
M  V30 27436 C 2572.73 -4.27133 -0.646615 0
M  V30 27437 C 2571.86 -5.03858 -1.68229 0
M  V30 27438 C 2570.9 -6.04061 -0.988744 0
M  V30 27439 N 2570.04 -6.73927 -1.96891 0
M  V30 27440 H 2574.88 -2.95011 0.42102 0
M  V30 27441 H 2572.42 -1.45454 0.219469 0
M  V30 27442 H 2574.37 -3.69039 -1.94592 0
M  V30 27443 H 2573 -2.54961 -1.97976 0
M  V30 27444 H 2572.06 -3.80293 0.0903594 0
M  V30 27445 H 2573.37 -4.98698 -0.10097 0
M  V30 27446 H 2572.52 -5.58038 -2.38072 0
M  V30 27447 H 2571.26 -4.32081 -2.2618 0
M  V30 27448 H 2570.27 -5.49106 -0.276125 0
M  V30 27449 H 2571.49 -6.77827 -0.415648 0
M  V30 27450 H 2569.44 -6.04918 -2.53792 0
M  V30 27451 H 2569.35 -7.41489 -1.4741 0
M  V30 27452 H 2570.62 -7.32709 -2.66003 0
M  V30 27453 N 2574.85 -0.241454 -1.55739 0
M  V30 27454 C 2576.1 0.385371 -1.99105 0
M  V30 27455 C 2576.43 1.57986 -1.12933 0
M  V30 27456 O 2575.7 1.93555 -0.191483 0
M  V30 27457 C 2575.99 0.800554 -3.51089 0
M  V30 27458 C 2575.84 -0.398953 -4.48027 0
M  V30 27459 C 2577.16 1.64952 -4.08018 0
M  V30 27460 H 2574.28 0.138601 -0.72385 0
M  V30 27461 H 2576.92 -0.341675 -1.86903 0
M  V30 27462 H 2575.07 1.42003 -3.61618 0
M  V30 27463 H 2576.74 -1.03734 -4.49485 0
M  V30 27464 H 2574.99 -1.043 -4.21075 0
M  V30 27465 H 2575.66 -0.0652026 -5.51961 0
M  V30 27466 H 2578.13 1.12665 -4.00557 0
M  V30 27467 H 2577.01 1.90889 -5.14638 0
M  V30 27468 H 2577.27 2.61955 -3.56135 0
M  V30 27469 N 2576.33 1.57568 0.0317248 0
M  V30 27470 C 2577.24 2.09782 1.05018 0
M  V30 27471 C 2578.25 1.03586 1.39807 0
M  V30 27472 O 2579.43 1.35305 1.4918 0
M  V30 27473 C 2576.5 2.56463 2.33297 0
M  V30 27474 C 2575.56 3.7713 2.05113 0
M  V30 27475 C 2574.79 4.21576 3.27276 0
M  V30 27476 O 2575.01 3.65567 4.37855 0
M  V30 27477 O 2573.95 5.14035 3.13132 0
M  V30 27478 H 2577.77 2.96956 0.636453 0
M  V30 27479 H 2575.36 1.47318 0.248533 0
M  V30 27480 H 2577.24 2.86831 3.08717 0
M  V30 27481 H 2575.91 1.72401 2.7397 0
M  V30 27482 H 2574.82 3.51786 1.27269 0
M  V30 27483 H 2576.15 4.62168 1.69297 0
M  V30 27484 N 2577.81 -0.303946 1.54641 0
M  V30 27485 C 2579.05 -1.03952 1.73782 0
M  V30 27486 C 2579.38 -1.87364 0.522019 0
M  V30 27487 O 2578.64 -1.89308 -0.496065 0
M  V30 27488 C 2578.94 -1.97676 2.97756 0
M  V30 27489 C 2578.6 -1.30264 4.31674 0
M  V30 27490 C 2577.26 -1.11611 4.68077 0
M  V30 27491 C 2579.62 -0.82046 5.14702 0
M  V30 27492 C 2576.94 -0.434201 5.85091 0
M  V30 27493 C 2579.3 -0.152284 6.32417 0
M  V30 27494 C 2577.96 0.046224 6.67484 0
M  V30 27495 H 2577.23 -0.380387 0.635914 0
M  V30 27496 H 2579.88 -0.314685 1.88897 0
M  V30 27497 H 2578.18 -2.76678 2.77411 0
M  V30 27498 H 2579.88 -2.54656 3.0976 0
M  V30 27499 H 2576.47 -1.45788 4.03043 0
M  V30 27500 H 2580.65 -0.952289 4.87078 0
M  V30 27501 H 2575.91 -0.269387 6.10806 0
M  V30 27502 H 2580.08 0.229248 6.96023 0
M  V30 27503 H 2577.71 0.576627 7.5801 0
M  V30 27504 N 2579.28 -1.47047 -0.566994 0
M  V30 27505 C 2580.51 -1.56768 -1.35024 0
M  V30 27506 C 2580.93 -0.214349 -1.87579 0
M  V30 27507 O 2580.28 0.79089 -1.64472 0
M  V30 27508 C 2580.34 -2.58511 -2.52694 0
M  V30 27509 O 2580.06 -3.88589 -2.02313 0
M  V30 27510 C 2581.56 -2.78322 -3.45038 0
M  V30 27511 H 2578.78 -0.529665 -0.411941 0
M  V30 27512 H 2581.32 -1.92587 -0.687798 0
M  V30 27513 H 2579.48 -2.25653 -3.14896 0
M  V30 27514 H 2579.89 -4.44101 -2.7906 0
M  V30 27515 H 2581.36 -3.53398 -4.24044 0
M  V30 27516 H 2581.84 -1.85791 -3.97968 0
M  V30 27517 H 2582.45 -3.12339 -2.8866 0
M  V30 27518 N 2580.76 0.812929 -1.35016 0
M  V30 27519 C 2581.69 1.93231 -1.23265 0
M  V30 27520 C 2582.71 1.62037 -0.157399 0
M  V30 27521 O 2583.9 1.73725 -0.410127 0
M  V30 27522 C 2581 3.27437 -0.873977 0
M  V30 27523 C 2580.17 3.86582 -2.04629 0
M  V30 27524 C 2579.23 4.99183 -1.66441 0
M  V30 27525 O 2578.25 5.16947 -2.38231 0
M  V30 27526 N 2579.46 5.77551 -0.58435 0
M  V30 27527 H 2582.22 2.0384 -2.19703 0
M  V30 27528 H 2579.78 0.990028 -1.28102 0
M  V30 27529 H 2581.77 4.00226 -0.60011 0
M  V30 27530 H 2580.34 3.126 0.000518972 0
M  V30 27531 H 2579.56 3.06064 -2.48432 0
M  V30 27532 H 2580.85 4.2283 -2.83006 0
M  V30 27533 H 2580.25 5.65699 0.0122532 0
M  V30 27534 H 2578.81 6.50748 -0.370244 0
M  V30 27535 N 2582.24 1.18909 1.03433 0
M  V30 27536 C 2583.48 0.999422 1.783 0
M  V30 27537 C 2583.84 -0.462186 1.86354 0
M  V30 27538 O 2585.05 -0.771497 2.5749 0
M  V30 27539 C 2583.32 1.64371 3.17359 0
M  V30 27540 S 2584.88 1.60267 4.08485 0
M  V30 27541 H 2581.69 0.358753 0.613854 0
M  V30 27542 H 2584.3 1.51163 1.23976 0
M  V30 27543 H 2583 2.6996 3.09111 0
M  V30 27544 H 2582.53 1.13206 3.7676 0
M  V30 27545 H 2584.55 0.623019 4.92273 0
M  V30 27546 N 2583.72 -1.22452 0.992137 0
M  V30 27547 C 2584.94 -1.95738 0.685679 0
M  V30 27548 C 2585.37 -1.72805 -0.74297 0
M  V30 27549 O 2584.73 -1.00679 -1.50776 0
M  V30 27550 C 2584.77 -3.46562 0.996354 0
M  V30 27551 O 2583.88 -4.12291 0.0946236 0
M  V30 27552 H 2583.22 -0.612371 0.256705 0
M  V30 27553 H 2585.75 -1.55567 1.32891 0
M  V30 27554 H 2585.76 -3.97074 0.93788 0
M  V30 27555 H 2584.43 -3.62579 2.03739 0
M  V30 27556 H 2583.01 -3.72317 0.208516 0
M  V30 27557 N 2585.2 -0.765242 -1.37774 0
M  V30 27558 C 2586.13 -0.0935425 -2.28008 0
M  V30 27559 C 2587.11 0.716022 -1.45986 0
M  V30 27560 O 2588.29 0.692172 -1.75332 0
M  V30 27561 C 2585.42 0.873995 -3.27229 0
M  V30 27562 C 2584.46 0.149232 -4.26239 0
M  V30 27563 S 2585.3 -1.15818 -5.22825 0
M  V30 27564 C 2586.45 -0.194016 -6.25599 0
M  V30 27565 H 2586.69 -0.858687 -2.84629 0
M  V30 27566 H 2584.22 -0.558338 -1.43951 0
M  V30 27567 H 2586.18 1.42685 -3.84904 0
M  V30 27568 H 2584.84 1.6122 -2.69568 0
M  V30 27569 H 2584.03 0.882453 -4.96214 0
M  V30 27570 H 2583.63 -0.332432 -3.7252 0
M  V30 27571 H 2585.93 0.635893 -6.74509 0
M  V30 27572 H 2586.87 -0.861761 -7.02837 0
M  V30 27573 H 2587.28 0.191876 -5.64174 0
M  V30 27574 N 2586.67 1.48939 -0.515251 0
M  V30 27575 C 2587.62 2.31038 0.269074 0
M  V30 27576 C 2588.62 1.40294 0.949419 0
M  V30 27577 O 2589.82 1.57275 0.875482 0
M  V30 27578 H 2586.2 0.744543 0.105637 0
M  V30 27579 H 2588.17 2.95091 -0.443148 0
M  V30 27580 C 2586.92 3.21994 1.31207 0
M  V30 27581 H 2586.24 3.91756 0.797966 0
M  V30 27582 H 2587.68 3.82352 1.83257 0
M  V30 27583 C 2586.14 2.4258 2.33787 0
M  V30 27584 O 2586.67 2.14009 3.39946 0
M  V30 27585 N 2584.88 2.04343 2.06621 0
M  V30 27586 H 2584.42 2.27779 1.2031 0
M  V30 27587 H 2584.38 1.51519 2.7548 0
M  V30 27588 N 2588.15 0.249709 1.55609 0
M  V30 27589 C 2589.4 -0.374806 1.99306 0
M  V30 27590 C 2589.73 -1.57385 1.13769 0
M  V30 27591 O 2589.01 -1.93451 0.201745 0
M  V30 27592 C 2589.29 -0.781924 3.51508 0
M  V30 27593 C 2589.14 0.422707 4.47809 0
M  V30 27594 C 2590.46 -1.62786 4.08887 0
M  V30 27595 H 2587.58 -0.13476 0.724575 0
M  V30 27596 H 2590.22 0.351582 1.86719 0
M  V30 27597 H 2588.37 -1.40083 3.62366 0
M  V30 27598 H 2590.05 1.06116 4.48929 0
M  V30 27599 H 2588.29 1.06532 4.20516 0
M  V30 27600 H 2588.96 0.0944736 5.51919 0
M  V30 27601 H 2591.44 -1.10539 4.01149 0
M  V30 27602 H 2590.31 -1.88157 5.15643 0
M  V30 27603 H 2590.57 -2.60062 3.57519 0
M  V30 27604 N 2589.63 -1.57583 -0.0233682 0
M  V30 27605 C 2590.88 -1.89812 -0.714086 0
M  V30 27606 C 2591.21 -0.848143 -1.747 0
M  V30 27607 O 2590.49 0.1361 -1.94023 0
M  V30 27608 C 2590.77 -3.32671 -1.37847 0
M  V30 27609 C 2590.62 -4.48368 -0.358685 0
M  V30 27610 C 2591.94 -3.74544 -2.31095 0
M  V30 27611 H 2589.06 -0.690318 -0.258127 0
M  V30 27612 H 2591.7 -1.89986 0.0231261 0
M  V30 27613 H 2589.85 -3.32654 -2.00683 0
M  V30 27614 H 2591.52 -4.6052 0.268196 0
M  V30 27615 H 2589.77 -4.32607 0.321463 0
M  V30 27616 H 2590.44 -5.45226 -0.862147 0
M  V30 27617 H 2592.91 -3.75964 -1.78297 0
M  V30 27618 H 2591.79 -4.75298 -2.74559 0
M  V30 27619 H 2592.05 -3.07116 -3.18013 0
M  V30 27620 N 2591.11 0.29574 -1.548 0
M  V30 27621 C 2592.33 1.05343 -1.78655 0
M  V30 27622 C 2592.76 1.79973 -0.546926 0
M  V30 27623 O 2592.12 1.7419 0.502732 0
M  V30 27624 C 2592.17 2.00555 -2.99683 0
M  V30 27625 O 2591.27 3.08948 -2.73176 0
M  V30 27626 H 2590.61 0.302356 -0.591166 0
M  V30 27627 H 2593.14 0.331562 -2.01896 0
M  V30 27628 H 2593.15 2.42926 -3.27797 0
M  V30 27629 H 2591.83 1.45643 -3.89565 0
M  V30 27630 H 2590.4 2.71055 -2.56093 0
M  V30 27631 N 2592.59 1.47346 0.559187 0
M  V30 27632 C 2593.53 1.59684 1.66642 0
M  V30 27633 C 2594.5 0.439968 1.60167 0
M  V30 27634 O 2595.69 0.659768 1.7903 0
M  V30 27635 C 2592.83 1.61523 3.04966 0
M  V30 27636 C 2591.94 2.88114 3.21892 0
M  V30 27637 C 2591.08 2.81302 4.50603 0
M  V30 27638 C 2590.12 4.02725 4.60954 0
M  V30 27639 N 2589.25 3.94161 5.81017 0
M  V30 27640 H 2594.09 2.54252 1.55434 0
M  V30 27641 H 2591.63 1.26115 0.757196 0
M  V30 27642 H 2593.59 1.60573 3.85061 0
M  V30 27643 H 2592.22 0.7047 3.15014 0
M  V30 27644 H 2591.27 2.9894 2.35242 0
M  V30 27645 H 2592.58 3.78038 3.25405 0
M  V30 27646 H 2591.74 2.78589 5.38955 0
M  V30 27647 H 2590.48 1.89057 4.49565 0
M  V30 27648 H 2589.48 4.05745 3.71014 0
M  V30 27649 H 2590.71 4.96095 4.63753 0
M  V30 27650 H 2588.65 3.04718 5.80933 0
M  V30 27651 H 2588.57 4.77763 5.859 0
M  V30 27652 H 2589.84 3.95462 6.71737 0
M  V30 27653 N 2594.07 -0.805758 1.35445 0
M  V30 27654 C 2595.29 -1.59421 1.31881 0
M  V30 27655 C 2595.71 -1.88516 -0.103529 0
M  V30 27656 O 2595.07 -1.48865 -1.05572 0
M  V30 27657 C 2595.12 -2.92498 2.12431 0
M  V30 27658 O 2594.84 -2.64664 3.4912 0
M  V30 27659 C 2596.34 -3.86858 2.16462 0
M  V30 27660 H 2593.56 -0.494998 0.45301 0
M  V30 27661 H 2596.1 -1.00128 1.7831 0
M  V30 27662 H 2594.26 -3.48303 1.69599 0
M  V30 27663 H 2594.67 -3.4964 3.90963 0
M  V30 27664 H 2596.15 -4.77344 2.77213 0
M  V30 27665 H 2596.62 -4.23506 1.1636 0
M  V30 27666 H 2597.23 -3.36988 2.59459 0
M  V30 27667 N 2595.54 -1.19456 -1.02801 0
M  V30 27668 C 2596.47 -0.956795 -2.12997 0
M  V30 27669 C 2597.45 0.110159 -1.69743 0
M  V30 27670 O 2598.64 -0.0450379 -1.94148 0
M  V30 27671 C 2595.77 -0.495614 -3.43745 0
M  V30 27672 C 2594.72 -1.5045 -4.00685 0
M  V30 27673 C 2594.05 -0.900368 -5.27065 0
M  V30 27674 C 2595.35 -2.88498 -4.35392 0
M  V30 27675 H 2597.04 -1.8784 -2.33145 0
M  V30 27676 H 2594.59 -0.904559 -1.12043 0
M  V30 27677 H 2596.54 -0.316567 -4.20209 0
M  V30 27678 H 2595.27 0.461589 -3.23322 0
M  V30 27679 H 2593.93 -1.67071 -3.26317 0
M  V30 27680 H 2593.57 0.0644145 -5.02959 0
M  V30 27681 H 2593.27 -1.57407 -5.66124 0
M  V30 27682 H 2594.8 -0.732136 -6.06195 0
M  V30 27683 H 2596.21 -2.75455 -5.0279 0
M  V30 27684 H 2594.61 -3.52669 -4.85535 0
M  V30 27685 H 2595.68 -3.41087 -3.44656 0
M  V30 27686 N 2597.02 1.21924 -0.998617 0
M  V30 27687 C 2598.27 1.90823 -0.677697 0
M  V30 27688 C 2598.6 1.77695 0.790874 0
M  V30 27689 O 2597.85 1.14352 1.58815 0
M  V30 27690 C 2598.15 3.42039 -1.03654 0
M  V30 27691 C 2597.82 3.7536 -2.49832 0
M  V30 27692 C 2596.48 3.84165 -2.89777 0
M  V30 27693 C 2598.83 3.91067 -3.44552 0
M  V30 27694 C 2596.16 4.06119 -4.23419 0
M  V30 27695 C 2598.51 4.14527 -4.7786 0
M  V30 27696 C 2597.17 4.21557 -5.17538 0
M  V30 27697 H 2596.44 0.698272 -0.247987 0
M  V30 27698 H 2599.09 1.44569 -1.25587 0
M  V30 27699 H 2597.4 3.89987 -0.376525 0
M  V30 27700 H 2599.09 3.93612 -0.766182 0
M  V30 27701 H 2595.68 3.69093 -2.17872 0
M  V30 27702 H 2599.87 3.83637 -3.1486 0
M  V30 27703 H 2595.12 4.09791 -4.53741 0
M  V30 27704 H 2599.3 4.25623 -5.51197 0
M  V30 27705 H 2596.92 4.38322 -6.2111 0
M  V30 27706 N 2598.5 0.772537 1.37367 0
M  V30 27707 C 2599.92 0.452258 1.53058 0
M  V30 27708 C 2600.12 -1.032 1.73067 0
M  V30 27709 O 2599.17 -1.81781 1.75248 0
M  V30 27710 C 2600.48 1.26802 2.72657 0
M  V30 27711 C 2602.03 1.26 2.86519 0
M  V30 27712 C 2602.51 2.05912 4.09102 0
M  V30 27713 N 2604 2.0327 4.16216 0
M  V30 27714 C 2604.73 2.61884 5.10102 0
M  V30 27715 N 2604.23 3.29289 6.09542 0
M  V30 27716 N 2606.02 2.5171 5.02592 0
M  V30 27717 H 2598.17 1.73423 1.22631 0
M  V30 27718 H 2600.44 0.73625 0.597194 0
M  V30 27719 H 2600.14 2.31987 2.64339 0
M  V30 27720 H 2600.02 0.897736 3.66361 0
M  V30 27721 H 2602.4 0.216133 2.94307 0
M  V30 27722 H 2602.48 1.66992 1.93771 0
M  V30 27723 H 2602.13 3.1032 4.02074 0
M  V30 27724 H 2602.06 1.62301 5.00965 0
M  V30 27725 H 2604.55 1.54198 3.45009 0
M  V30 27726 H 2604.86 3.71386 6.77711 0
M  V30 27727 H 2603.21 3.33388 6.09818 0
M  V30 27728 H 2606.4 1.98665 4.23851 0
M  V30 27729 H 2606.57 2.97684 5.75577 0
M  V30 27730 N 2599.98 -1.48664 0.523142 0
M  V30 27731 C 2600.92 -2.29513 -0.243358 0
M  V30 27732 C 2601.89 -1.36934 -0.940115 0
M  V30 27733 O 2603.08 -1.65898 -0.942474 0
M  V30 27734 C 2600.22 -3.20143 -1.28849 0
M  V30 27735 C 2599.33 -4.27795 -0.601275 0
M  V30 27736 C 2598.47 -5.05614 -1.62875 0
M  V30 27737 C 2597.51 -6.05076 -0.92462 0
M  V30 27738 N 2596.64 -6.75978 -1.89732 0
M  V30 27739 H 2601.48 -2.94548 0.452286 0
M  V30 27740 H 2599.02 -1.45213 0.234884 0
M  V30 27741 H 2600.98 -3.71082 -1.90667 0
M  V30 27742 H 2599.61 -2.57047 -1.95261 0
M  V30 27743 H 2598.66 -3.80175 0.130689 0
M  V30 27744 H 2599.97 -4.98777 -0.0480708 0
M  V30 27745 H 2599.13 -5.60532 -2.32139 0
M  V30 27746 H 2597.87 -4.34456 -2.21584 0
M  V30 27747 H 2596.87 -5.49368 -0.21787 0
M  V30 27748 H 2598.1 -6.7823 -0.343732 0
M  V30 27749 H 2596.04 -6.07576 -2.47362 0
M  V30 27750 H 2595.96 -7.43011 -1.39537 0
M  V30 27751 H 2597.23 -7.35489 -2.58216 0
M  V30 27752 N 2601.46 -0.257958 -1.55475 0
M  V30 27753 C 2602.68 0.370453 -2.04065 0
M  V30 27754 C 2603.11 1.49946 -1.13568 0
M  V30 27755 O 2602.46 1.80827 -0.130812 0
M  V30 27756 C 2602.51 0.845176 -3.50555 0
M  V30 27757 O 2601.62 1.95388 -3.63177 0
M  V30 27758 H 2600.96 0.0792128 -0.659258 0
M  V30 27759 H 2603.49 -0.387247 -2.00902 0
M  V30 27760 H 2603.5 1.14548 -3.9159 0
M  V30 27761 H 2602.17 0.0190528 -4.15896 0
M  V30 27762 H 2600.75 1.65742 -3.34042 0
M  V30 27763 N 2602.93 1.57593 0.0150108 0
M  V30 27764 C 2604.35 1.7811 0.559801 0
M  V30 27765 C 2604.7 0.890786 1.74813 0
M  V30 27766 O 2603.82 0.0892863 2.16216 0
M  V30 27767 C 2604.42 3.23008 1.02232 0
M  V30 27768 C 2602.98 3.44673 1.51252 0
M  V30 27769 C 2602.12 2.7351 0.456907 0
M  V30 27770 H 2605.07 1.57288 -0.211197 0
M  V30 27771 H 2605.09 3.30295 1.88906 0
M  V30 27772 H 2604.61 3.87781 0.157234 0
M  V30 27773 H 2602.71 2.85094 2.399 0
M  V30 27774 H 2602.82 4.53323 1.55034 0
M  V30 27775 H 2601.18 2.37691 0.915154 0
M  V30 27776 H 2601.97 3.40974 -0.398956 0
M  V30 27777 N 2604.41 -0.287527 1.54955 0
M  V30 27778 C 2605.66 -1.01874 1.74082 0
M  V30 27779 C 2605.97 -1.87965 0.541168 0
M  V30 27780 O 2607.18 -2.64454 0.614538 0
M  V30 27781 C 2605.64 -1.86107 3.08046 0
M  V30 27782 C 2605.24 -1.04953 4.35533 0
M  V30 27783 C 2606.99 -2.58746 3.36528 0
M  V30 27784 C 2604.9 -1.88541 5.60541 0
M  V30 27785 H 2603.83 -0.384075 0.648847 0
M  V30 27786 H 2606.48 -0.275069 1.81427 0
M  V30 27787 H 2604.86 -2.64513 2.94701 0
M  V30 27788 H 2606.03 -0.310659 4.59752 0
M  V30 27789 H 2604.35 -0.438357 4.14086 0
M  V30 27790 H 2606.94 -3.21661 4.27128 0
M  V30 27791 H 2607.29 -3.28279 2.56005 0
M  V30 27792 H 2607.82 -1.87379 3.50904 0
M  V30 27793 H 2604.56 -1.23455 6.43769 0
M  V30 27794 H 2604.08 -2.60065 5.40487 0
M  V30 27795 H 2605.76 -2.46262 5.98301 0
M  V30 27796 N 2605.89 -1.47641 -0.551365 0
M  V30 27797 C 2606.84 -1.56972 -1.65359 0
M  V30 27798 C 2607.82 -0.428216 -1.55097 0
M  V30 27799 O 2609.02 -0.67847 -1.6348 0
M  V30 27800 C 2606.15 -1.59254 -3.04127 0
M  V30 27801 C 2605.23 -2.7881 -3.19571 0
M  V30 27802 N 2605.62 -4.0345 -3.0506 0
M  V30 27803 C 2603.92 -2.75694 -3.50584 0
M  V30 27804 C 2604.62 -4.83548 -3.23351 0
M  V30 27805 N 2603.6 -4.15974 -3.49952 0
M  V30 27806 H 2607.4 -2.51107 -1.52718 0
M  V30 27807 H 2604.91 -1.43716 -0.756278 0
M  V30 27808 H 2606.91 -1.6403 -3.83275 0
M  V30 27809 H 2605.57 -0.662204 -3.17876 0
M  V30 27810 H 2606.58 -4.3422 -2.82265 0
M  V30 27811 H 2603.26 -1.91823 -3.70823 0
M  V30 27812 H 2604.65 -5.92392 -3.1705 0
M  V30 27813 N 2607.37 0.798563 -1.3587 0
M  V30 27814 C 2608.32 1.90031 -1.25985 0
M  V30 27815 C 2609.3 1.60168 -0.153331 0
M  V30 27816 O 2610.49 1.72755 -0.3853 0
M  V30 27817 C 2607.62 3.27099 -1.04217 0
M  V30 27818 C 2606.71 3.63002 -2.19295 0
M  V30 27819 N 2607.1 3.70281 -3.44566 0
M  V30 27820 C 2605.4 3.93007 -2.10859 0
M  V30 27821 C 2606.1 4.02158 -4.2029 0
M  V30 27822 N 2605.08 4.16663 -3.49131 0
M  V30 27823 H 2608.88 1.93872 -2.20887 0
M  V30 27824 H 2606.39 0.993591 -1.28458 0
M  V30 27825 H 2608.39 4.0588 -0.952226 0
M  V30 27826 H 2607.05 3.2454 -0.102071 0
M  V30 27827 H 2608.06 3.53156 -3.78816 0
M  V30 27828 H 2604.74 3.98426 -1.24751 0
M  V30 27829 H 2606.13 4.1479 -5.28582 0
M  V30 27830 N 2608.85 1.19999 1.02166 0
M  V30 27831 C 2609.8 0.911958 2.08967 0
M  V30 27832 C 2610.78 -0.126182 1.60404 0
M  V30 27833 O 2611.97 0.0805016 1.76817 0
M  V30 27834 C 2609.1 0.460337 3.402 0
M  V30 27835 C 2608.19 1.53162 3.95477 0
M  V30 27836 N 2608.58 2.75282 4.24327 0
M  V30 27837 C 2606.88 1.3966 4.23569 0
M  V30 27838 C 2607.58 3.44347 4.68828 0
M  V30 27839 N 2606.55 2.71752 4.70799 0
M  V30 27840 H 2610.36 1.84001 2.29175 0
M  V30 27841 H 2607.87 1.09324 1.20092 0
M  V30 27842 H 2609.87 0.23541 4.16235 0
M  V30 27843 H 2608.53 -0.461143 3.21409 0
M  V30 27844 H 2609.54 3.1198 4.13387 0
M  V30 27845 H 2606.21 0.53914 4.14004 0
M  V30 27846 H 2607.6 4.48819 5.00011 0
M  V30 27847 N 2610.32 -1.21392 1.00507 0
M  V30 27848 C 2611.57 -1.89777 0.683193 0
M  V30 27849 C 2611.89 -1.78961 -0.789439 0
M  V30 27850 O 2613.09 -2.42374 -1.2234 0
M  V30 27851 C 2611.55 -3.40299 1.17152 0
M  V30 27852 C 2611.16 -3.59726 2.67023 0
M  V30 27853 C 2612.9 -4.1431 0.924534 0
M  V30 27854 C 2610.81 -5.04012 3.09396 0
M  V30 27855 H 2609.74 -0.710698 0.251842 0
M  V30 27856 H 2612.39 -1.37404 1.21624 0
M  V30 27857 H 2610.77 -3.91927 0.56652 0
M  V30 27858 H 2611.94 -3.18537 3.32973 0
M  V30 27859 H 2610.26 -2.99067 2.89737 0
M  V30 27860 H 2612.86 -5.20674 1.21667 0
M  V30 27861 H 2613.2 -4.16067 -0.139213 0
M  V30 27862 H 2613.73 -3.68747 1.49233 0
M  V30 27863 H 2610.47 -5.07402 4.14998 0
M  V30 27864 H 2609.99 -5.46056 2.48158 0
M  V30 27865 H 2611.67 -5.72519 3.01381 0
M  V30 27866 N 2611.8 -0.779811 -1.36955 0
M  V30 27867 C 2613.08 -0.27219 -1.93697 0
M  V30 27868 C 2613.46 1.2341 -1.7127 0
M  V30 27869 O 2612.81 2.02105 -1.06611 0
M  V30 27870 C 2613.02 -0.654351 -3.42811 0
M  V30 27871 C 2614.37 -0.628676 -4.1992 0
M  V30 27872 O 2615.39 -0.594234 -3.51208 0
M  V30 27873 O 2614.25 -0.662959 -5.42464 0
M  V30 27874 H 2611.34 -0.0649431 -0.824446 0
M  V30 27875 H 2613.89 -0.861708 -1.46194 0
M  V30 27876 H 2612.66 -1.69359 -3.52751 0
M  V30 27877 H 2612.28 -0.0382068 -3.97582 0
M  V30 27878 N 2613.28 1.48384 -0.531019 0
M  V30 27879 C 2614.23 2.29639 0.231183 0
M  V30 27880 C 2615.2 1.37431 0.932839 0
M  V30 27881 O 2616.38 1.66395 0.933663 0
M  V30 27882 C 2613.52 3.20822 1.2715 0
M  V30 27883 C 2612.64 4.28108 0.57858 0
M  V30 27884 C 2611.77 5.0647 1.60192 0
M  V30 27885 C 2610.81 6.05558 0.892518 0
M  V30 27886 N 2609.95 6.76975 1.86145 0
M  V30 27887 H 2614.79 2.94304 -0.4679 0
M  V30 27888 H 2612.32 1.45086 -0.242581 0
M  V30 27889 H 2614.28 3.72088 1.88696 0
M  V30 27890 H 2612.91 2.58079 1.93895 0
M  V30 27891 H 2611.96 3.80101 -0.150849 0
M  V30 27892 H 2613.28 4.98795 0.0216188 0
M  V30 27893 H 2612.43 5.61755 2.29164 0
M  V30 27894 H 2611.17 4.35625 2.19277 0
M  V30 27895 H 2610.17 5.49476 0.188732 0
M  V30 27896 H 2611.4 6.78402 0.307759 0
M  V30 27897 H 2609.34 6.08879 2.44136 0
M  V30 27898 H 2609.26 7.43741 1.35595 0
M  V30 27899 H 2610.53 7.36848 2.54312 0
M  V30 27900 N 2614.76 0.2662 1.55336 0
M  V30 27901 C 2615.99 -0.35672 2.03802 0
M  V30 27902 C 2616.4 -1.50127 1.14487 0
M  V30 27903 O 2615.76 -1.81769 0.163153 0
M  V30 27904 C 2615.81 -0.846219 3.51456 0
M  V30 27905 O 2615.53 0.25274 4.3737 0
M  V30 27906 C 2617.03 -1.53787 4.1577 0
M  V30 27907 H 2614.25 -0.0825101 0.665908 0
M  V30 27908 H 2616.8 0.395695 2.00635 0
M  V30 27909 H 2614.95 -1.54875 3.55095 0
M  V30 27910 H 2615.36 -0.122081 5.24358 0
M  V30 27911 H 2616.84 -1.83188 5.20717 0
M  V30 27912 H 2617.32 -2.4664 3.63408 0
M  V30 27913 H 2617.92 -0.879415 4.16109 0
M  V30 27914 N 2616.24 -1.57599 -0.0066531 0
M  V30 27915 C 2617.17 -2.03433 -1.03394 0
M  V30 27916 C 2618.15 -0.9229 -1.33871 0
M  V30 27917 O 2619.33 -1.19051 -1.46148 0
M  V30 27918 C 2616.46 -2.42632 -2.36321 0
M  V30 27919 C 2615.5 -3.64441 -2.21551 0
M  V30 27920 S 2616.34 -5.12644 -1.5478 0
M  V30 27921 C 2617.49 -5.55106 -2.89151 0
M  V30 27922 H 2617.73 -2.90249 -0.643636 0
M  V30 27923 H 2615.26 -1.52863 -0.217322 0
M  V30 27924 H 2617.22 -2.65885 -3.12755 0
M  V30 27925 H 2615.88 -1.56227 -2.72492 0
M  V30 27926 H 2615.07 -3.89598 -3.19733 0
M  V30 27927 H 2614.67 -3.41156 -1.53261 0
M  V30 27928 H 2616.97 -5.5716 -3.8546 0
M  V30 27929 H 2617.91 -6.55137 -2.68701 0
M  V30 27930 H 2618.32 -4.82655 -2.92754 0
M  V30 27931 N 2617.72 0.279305 -1.55105 0
M  V30 27932 C 2618.96 1.00949 -1.7462 0
M  V30 27933 C 2619.28 1.87675 -0.551129 0
M  V30 27934 O 2620.48 2.64124 -0.628554 0
M  V30 27935 C 2618.94 1.84471 -3.09028 0
M  V30 27936 C 2618.55 1.02642 -4.36083 0
M  V30 27937 C 2620.29 2.56957 -3.37895 0
M  V30 27938 C 2618.2 1.85566 -5.61533 0
M  V30 27939 H 2617.13 0.380629 -0.650875 0
M  V30 27940 H 2619.78 0.265444 -1.8157 0
M  V30 27941 H 2618.16 2.62947 -2.961 0
M  V30 27942 H 2619.34 0.286273 -4.5991 0
M  V30 27943 H 2617.65 0.416391 -4.14313 0
M  V30 27944 H 2620.25 3.19391 -4.28828 0
M  V30 27945 H 2620.59 3.26916 -2.57743 0
M  V30 27946 H 2621.12 1.85516 -3.51893 0
M  V30 27947 H 2617.86 1.20039 -6.44415 0
M  V30 27948 H 2617.38 2.57195 -5.41859 0
M  V30 27949 H 2619.06 2.43086 -5.99598 0
M  V30 27950 N 2619.19 1.47931 0.543528 0
M  V30 27951 C 2620.14 1.61869 1.67037 0
M  V30 27952 C 2621.14 0.485519 1.62293 0
M  V30 27953 O 2622.34 0.663789 1.67314 0
M  V30 27954 H 2618.72 0.509662 0.552945 0
M  V30 27955 H 2620.69 2.56535 1.52421 0
M  V30 27956 C 2619.44 1.66296 3.05354 0
M  V30 27957 H 2618.76 2.52846 3.09692 0
M  V30 27958 H 2620.2 1.80095 3.83851 0
M  V30 27959 C 2618.66 0.39892 3.3453 0
M  V30 27960 O 2619.19 -0.494092 3.9865 0
M  V30 27961 N 2617.39 0.274751 2.89298 0
M  V30 27962 H 2616.94 1.0024 2.37297 0
M  V30 27963 H 2616.9 -0.570021 3.09189 0
M  V30 27964 N 2620.67 -0.791347 1.36292 0
M  V30 27965 C 2621.92 -1.54914 1.30414 0
M  V30 27966 C 2622.25 -1.94147 -0.117127 0
M  V30 27967 O 2621.5 -1.62805 -1.08596 0
M  V30 27968 C 2621.8 -2.83926 2.17073 0
M  V30 27969 C 2621.47 -2.6384 3.65649 0
M  V30 27970 C 2620.13 -2.5807 4.06145 0
M  V30 27971 C 2622.48 -2.45314 4.59859 0
M  V30 27972 C 2619.81 -2.31738 5.38994 0
M  V30 27973 C 2622.16 -2.2051 5.92923 0
M  V30 27974 C 2620.82 -2.13172 6.32546 0
M  V30 27975 H 2620.09 -0.56687 0.47722 0
M  V30 27976 H 2622.74 -0.913143 1.68327 0
M  V30 27977 H 2621.05 -3.51983 1.72091 0
M  V30 27978 H 2622.74 -3.41706 2.09852 0
M  V30 27979 H 2619.33 -2.69185 3.33523 0
M  V30 27980 H 2623.52 -2.48775 4.29447 0
M  V30 27981 H 2618.77 -2.24538 5.68676 0
M  V30 27982 H 2622.95 -2.0517 6.65491 0
M  V30 27983 H 2620.57 -1.92531 7.35415 0
M  V30 27984 N 2622.15 -1.2054 -1.01528 0
M  V30 27985 C 2623.56 -1.01659 -1.56596 0
M  V30 27986 C 2623.91 0.426634 -1.91505 0
M  V30 27987 O 2623.04 1.30824 -1.72377 0
M  V30 27988 C 2623.63 -1.8391 -2.84539 0
M  V30 27989 C 2622.19 -1.69392 -3.3613 0
M  V30 27990 C 2621.34 -1.81761 -2.09424 0
M  V30 27991 H 2624.29 -1.34712 -0.83895 0
M  V30 27992 H 2624.31 -1.34325 -3.56001 0
M  V30 27993 H 2623.82 -2.88944 -2.591 0
M  V30 27994 H 2621.92 -0.669997 -3.66527 0
M  V30 27995 H 2622.04 -2.50746 -4.08244 0
M  V30 27996 H 2620.4 -1.24961 -2.21939 0
M  V30 27997 H 2621.18 -2.88282 -1.86409 0
M  V30 27998 N 2623.63 1.20858 -1.01149 0
M  V30 27999 C 2624.59 2.21681 -0.582263 0
M  V30 28000 C 2625.59 1.57058 0.344859 0
M  V30 28001 O 2626.78 1.73682 0.134251 0
M  V30 28002 C 2623.91 3.40568 0.150437 0
M  V30 28003 H 2625.11 2.6117 -1.47413 0
M  V30 28004 H 2622.66 1.34232 -0.800719 0
M  V30 28005 H 2623.39 3.06576 1.05745 0
M  V30 28006 H 2623.18 3.88696 -0.515512 0
M  V30 28007 H 2624.67 4.15294 0.438271 0
M  V30 28008 N 2625.11 0.787064 1.3654 0
M  V30 28009 C 2626.07 0.189818 2.28413 0
M  V30 28010 C 2627.07 -0.611473 1.4872 0
M  V30 28011 O 2628.26 -0.432813 1.68738 0
M  V30 28012 C 2625.39 -0.73758 3.32825 0
M  V30 28013 H 2626.58 0.999881 2.82741 0
M  V30 28014 H 2624.14 0.556324 1.46064 0
M  V30 28015 H 2624.87 -1.57207 2.83648 0
M  V30 28016 H 2624.66 -0.164975 3.91753 0
M  V30 28017 H 2626.15 -1.1504 4.01442 0
M  V30 28018 N 2626.58 -1.48101 0.53888 0
M  V30 28019 C 2627.52 -2.26639 -0.266455 0
M  V30 28020 C 2628.49 -1.32898 -0.936847 0
M  V30 28021 O 2629.68 -1.62254 -0.959478 0
M  V30 28022 C 2626.81 -3.09397 -1.37809 0
M  V30 28023 C 2625.85 -4.18579 -0.818174 0
M  V30 28024 S 2626.68 -5.34537 0.320942 0
M  V30 28025 C 2627.84 -6.20857 -0.79295 0
M  V30 28026 H 2628.07 -2.94596 0.400046 0
M  V30 28027 H 2625.61 -1.50944 0.324835 0
M  V30 28028 H 2627.56 -3.57653 -2.01482 0
M  V30 28029 H 2626.23 -2.40837 -2.01635 0
M  V30 28030 H 2625.42 -4.76143 -1.65238 0
M  V30 28031 H 2625.02 -3.73109 -0.257971 0
M  V30 28032 H 2627.31 -6.56096 -1.68949 0
M  V30 28033 H 2628.26 -7.0764 -0.25508 0
M  V30 28034 H 2628.66 -5.54124 -1.07736 0
M  V30 28035 N 2628.06 -0.274434 -1.55192 0
M  V30 28036 C 2629.47 0.223456 -1.85358 0
M  V30 28037 C 2629.82 1.55498 -1.19645 0
M  V30 28038 O 2628.95 2.10906 -0.484535 0
M  V30 28039 C 2629.54 0.412226 -3.36283 0
M  V30 28040 C 2628.1 0.854349 -3.66576 0
M  V30 28041 C 2627.25 -0.0527543 -2.7725 0
M  V30 28042 H 2630.2 -0.496242 -1.50742 0
M  V30 28043 H 2630.22 1.25088 -3.59351 0
M  V30 28044 H 2629.73 -0.557032 -3.84082 0
M  V30 28045 H 2627.83 1.8351 -3.24276 0
M  V30 28046 H 2627.95 0.692143 -4.74074 0
M  V30 28047 H 2626.31 0.46344 -2.50448 0
M  V30 28048 H 2627.09 -1.01788 -3.27863 0
M  V30 28049 N 2629.54 1.576 -0.00170483 0
M  V30 28050 C 2630.79 1.90642 0.682786 0
M  V30 28051 C 2631.11 0.875446 1.73684 0
M  V30 28052 O 2630.37 -0.119541 1.95335 0
M  V30 28053 C 2630.67 3.30438 1.36183 0
M  V30 28054 C 2630.33 4.4874 0.440808 0
M  V30 28055 C 2629 4.80836 0.187227 0
M  V30 28056 C 2631.35 5.20842 -0.193226 0
M  V30 28057 C 2628.68 5.82405 -0.708652 0
M  V30 28058 C 2631.03 6.23365 -1.07699 0
M  V30 28059 C 2629.69 6.53917 -1.33973 0
M  V30 28060 H 2628.96 0.697608 0.249849 0
M  V30 28061 H 2631.61 1.91413 -0.0575979 0
M  V30 28062 H 2629.91 3.25798 2.1763 0
M  V30 28063 H 2631.61 3.53263 1.89753 0
M  V30 28064 H 2628.2 4.23664 0.64862 0
M  V30 28065 H 2632.39 4.96299 -0.0103317 0
M  V30 28066 H 2627.64 6.04435 -0.920204 0
M  V30 28067 H 2631.82 6.78365 -1.57463 0
M  V30 28068 H 2629.44 7.32439 -2.03562 0
M  V30 28069 N 2631.02 -0.271076 1.55251 0
M  V30 28070 C 2632.24 -1.02488 1.80308 0
M  V30 28071 C 2632.67 -1.7908 0.575489 0
M  V30 28072 O 2632.03 -1.74968 -0.474956 0
M  V30 28073 C 2632.07 -1.95762 3.02836 0
M  V30 28074 O 2631.18 -3.04563 2.78056 0
M  V30 28075 H 2630.52 -0.292913 0.595901 0
M  V30 28076 H 2633.05 -0.299401 2.02398 0
M  V30 28077 H 2633.06 -2.3768 3.3162 0
M  V30 28078 H 2631.73 -1.39427 3.91833 0
M  V30 28079 H 2630.31 -2.66946 2.60373 0
M  V30 28080 N 2632.5 -1.48217 -0.535675 0
M  V30 28081 C 2633.44 -1.62315 -1.6408 0
M  V30 28082 C 2634.41 -0.465394 -1.59447 0
M  V30 28083 O 2635.6 -0.688167 -1.77958 0
M  V30 28084 C 2632.74 -1.66355 -3.02358 0
M  V30 28085 C 2631.85 -2.93198 -3.17268 0
M  V30 28086 C 2630.99 -2.88435 -4.4607 0
M  V30 28087 C 2630.03 -4.10008 -4.54489 0
M  V30 28088 N 2629.16 -4.03355 -5.74673 0
M  V30 28089 H 2634 -2.56693 -1.5137 0
M  V30 28090 H 2631.54 -1.27303 -0.737037 0
M  V30 28091 H 2633.5 -1.66679 -3.82458 0
M  V30 28092 H 2632.13 -0.754727 -3.13853 0
M  V30 28093 H 2631.18 -3.02645 -2.30457 0
M  V30 28094 H 2632.49 -3.83167 -3.1935 0
M  V30 28095 H 2631.65 -2.87128 -5.34455 0
M  V30 28096 H 2630.38 -1.96185 -4.465 0
M  V30 28097 H 2629.39 -4.11596 -3.64512 0
M  V30 28098 H 2630.61 -5.0341 -4.55801 0
M  V30 28099 H 2628.56 -3.13922 -5.76011 0
M  V30 28100 H 2628.48 -4.87023 -5.78225 0
M  V30 28101 H 2629.75 -4.06099 -6.6536 0
M  V30 28102 N 2633.97 0.784108 -1.3671 0
M  V30 28103 C 2634.94 1.87857 -1.3131 0
M  V30 28104 C 2635.94 1.59292 -0.219682 0
M  V30 28105 O 2637.13 1.67605 -0.47479 0
M  V30 28106 C 2634.26 3.24749 -1.03685 0
M  V30 28107 H 2635.45 1.9406 -2.2865 0
M  V30 28108 H 2633.01 0.982499 -1.21559 0
M  V30 28109 H 2633.74 3.24228 -0.0682506 0
M  V30 28110 H 2633.53 3.46872 -1.82817 0
M  V30 28111 H 2635.02 4.04819 -1.02526 0
M  V30 28112 N 2635.45 1.21076 1.00888 0
M  V30 28113 C 2636.36 0.982462 2.13037 0
M  V30 28114 C 2637.38 -0.0641856 1.73882 0
M  V30 28115 O 2638.55 0.124996 2.01012 0
M  V30 28116 C 2635.62 0.545864 3.42376 0
M  V30 28117 C 2634.68 1.66427 3.95728 0
M  V30 28118 C 2633.91 1.24841 5.18893 0
M  V30 28119 O 2634.14 0.120365 5.70273 0
M  V30 28120 O 2633.07 2.05883 5.65593 0
M  V30 28121 H 2636.9 1.92167 2.35171 0
M  V30 28122 H 2634.48 0.995305 1.11418 0
M  V30 28123 H 2636.36 0.311986 4.20244 0
M  V30 28124 H 2635.04 -0.364671 3.21639 0
M  V30 28125 H 2633.95 1.95251 3.19105 0
M  V30 28126 H 2635.28 2.55209 4.20867 0
M  V30 28127 N 2636.93 -1.2032 1.01789 0
M  V30 28128 C 2638.18 -1.89042 0.703283 0
M  V30 28129 C 2638.49 -1.79789 -0.770414 0
M  V30 28130 O 2639.7 -2.43658 -1.19763 0
M  V30 28131 C 2638.15 -3.39037 1.20755 0
M  V30 28132 C 2637.76 -3.56873 2.70824 0
M  V30 28133 C 2639.51 -4.13306 0.968425 0
M  V30 28134 C 2637.41 -5.00702 3.14724 0
M  V30 28135 H 2636.34 -0.707987 0.259366 0
M  V30 28136 H 2638.99 -1.36106 1.23074 0
M  V30 28137 H 2637.38 -3.91304 0.608057 0
M  V30 28138 H 2638.55 -3.14987 3.36333 0
M  V30 28139 H 2636.87 -2.95978 2.92893 0
M  V30 28140 H 2639.46 -5.19354 1.27183 0
M  V30 28141 H 2639.81 -4.16191 -0.0950759 0
M  V30 28142 H 2640.34 -3.67144 1.53135 0
M  V30 28143 H 2637.08 -5.02972 4.20356 0
M  V30 28144 H 2636.6 -5.43393 2.53936 0
M  V30 28145 H 2638.28 -5.69291 3.07436 0
M  V30 28146 N 2638.41 -0.794293 -1.3612 0
M  V30 28147 C 2639.69 -0.292719 -1.93397 0
M  V30 28148 C 2640.07 1.21586 -1.72569 0
M  V30 28149 O 2639.41 2.00963 -1.08748 0
M  V30 28150 C 2639.62 -0.690674 -3.42097 0
M  V30 28151 C 2640.97 -0.673179 -4.1923 0
M  V30 28152 O 2642 -0.631451 -3.50558 0
M  V30 28153 O 2640.85 -0.720457 -5.4173 0
M  V30 28154 H 2637.95 -0.0736838 -0.823711 0
M  V30 28155 H 2640.49 -0.877165 -1.45272 0
M  V30 28156 H 2639.27 -1.73091 -3.50935 0
M  V30 28157 H 2638.89 -0.0803735 -3.97519 0
M  V30 28158 N 2639.89 1.47813 -0.546727 0
M  V30 28159 C 2641.3 1.86372 -0.110597 0
M  V30 28160 C 2641.65 1.45451 1.31675 0
M  V30 28161 O 2640.77 0.852793 1.98888 0
M  V30 28162 C 2641.37 3.38244 -0.193933 0
M  V30 28163 C 2639.93 3.75935 0.187098 0
M  V30 28164 C 2639.07 2.71867 -0.546214 0
M  V30 28165 H 2642.03 1.39479 -0.757047 0
M  V30 28166 H 2642.05 3.75896 0.590152 0
M  V30 28167 H 2641.56 3.67997 -1.23288 0
M  V30 28168 H 2639.66 3.51798 1.22755 0
M  V30 28169 H 2639.77 4.78819 -0.164167 0
M  V30 28170 H 2638.14 2.54698 0.00949427 0
M  V30 28171 H 2638.92 3.04462 -1.58612 0
M  V30 28172 N 2641.36 0.28266 1.55044 0
M  V30 28173 C 2642.3 -0.643071 2.18952 0
M  V30 28174 C 2643.28 -1.14662 1.15289 0
M  V30 28175 O 2644.46 -1.2182 1.43848 0
M  V30 28176 C 2641.59 -1.87784 2.81878 0
M  V30 28177 C 2640.63 -1.50912 3.98908 0
M  V30 28178 S 2641.47 -0.58079 5.32341 0
M  V30 28179 C 2642.62 -1.82376 5.9874 0
M  V30 28180 H 2642.85 -0.100086 2.97131 0
M  V30 28181 H 2640.39 0.0668786 1.54255 0
M  V30 28182 H 2642.35 -2.58653 3.18762 0
M  V30 28183 H 2641.01 -2.39197 2.03577 0
M  V30 28184 H 2640.2 -2.42811 4.41655 0
M  V30 28185 H 2639.8 -0.880546 3.63486 0
M  V30 28186 H 2642.09 -2.76673 6.18432 0
M  V30 28187 H 2643.04 -1.43918 6.9332 0
M  V30 28188 H 2643.44 -1.99213 5.2818 0
M  V30 28189 N 2642.84 -1.57597 0.0100627 0
M  V30 28190 C 2643.81 -2.07988 -0.962993 0
M  V30 28191 C 2644.81 -0.991195 -1.26617 0
M  V30 28192 O 2646 -1.25349 -1.20968 0
M  V30 28193 C 2643.13 -2.52978 -2.28506 0
M  V30 28194 H 2644.32 -2.95235 -0.526919 0
M  V30 28195 H 2641.87 -1.54483 -0.237612 0
M  V30 28196 H 2642.61 -1.69004 -2.76782 0
M  V30 28197 H 2642.39 -3.32497 -2.07818 0
M  V30 28198 H 2643.88 -2.92256 -2.98289 0
M  V30 28199 N 2644.32 0.262839 -1.55393 0
M  V30 28200 C 2645.25 1.35098 -1.83912 0
M  V30 28201 C 2646.23 1.47096 -0.692927 0
M  V30 28202 O 2647.42 1.63562 -0.937008 0
M  V30 28203 C 2644.54 2.7263 -2.00974 0
M  V30 28204 C 2643.59 2.77864 -3.23564 0
M  V30 28205 S 2644.42 2.36082 -4.80651 0
M  V30 28206 C 2645.58 3.75569 -5.00698 0
M  V30 28207 H 2645.81 1.10705 -2.7592 0
M  V30 28208 H 2643.34 0.463003 -1.47294 0
M  V30 28209 H 2645.3 3.51828 -2.11488 0
M  V30 28210 H 2643.96 2.9427 -1.09837 0
M  V30 28211 H 2643.16 3.78831 -3.3242 0
M  V30 28212 H 2642.76 2.06697 -3.11693 0
M  V30 28213 H 2645.05 4.7093 -4.87064 0
M  V30 28214 H 2645.99 3.71658 -6.02724 0
M  V30 28215 H 2646.4 3.67343 -4.28625 0
M  V30 28216 N 2645.8 1.48499 0.527807 0
M  V30 28217 C 2646.73 1.57756 1.64889 0
M  V30 28218 C 2647.71 0.427895 1.56869 0
M  V30 28219 O 2648.89 0.639796 1.7731 0
M  V30 28220 C 2646.02 1.50758 3.03298 0
M  V30 28221 C 2645.07 2.70592 3.2967 0
M  V30 28222 S 2645.9 4.3254 3.15704 0
M  V30 28223 C 2647.06 4.28144 4.56556 0
M  V30 28224 H 2647.29 2.52597 1.56787 0
M  V30 28225 H 2644.82 1.37059 0.710935 0
M  V30 28226 H 2646.78 1.47407 3.83121 0
M  V30 28227 H 2645.44 0.572508 3.08838 0
M  V30 28228 H 2644.63 2.6184 4.30646 0
M  V30 28229 H 2644.24 2.71217 2.57522 0
M  V30 28230 H 2646.53 3.98211 5.48119 0
M  V30 28231 H 2647.47 5.29306 4.70362 0
M  V30 28232 H 2647.88 3.58582 4.35981 0
M  V30 28233 N 2647.28 -0.776847 1.37123 0
M  V30 28234 C 2648.21 -1.90399 1.35168 0
M  V30 28235 C 2649.19 -1.68657 0.221099 0
M  V30 28236 O 2650.37 -1.89589 0.420675 0
M  V30 28237 C 2647.5 -3.27609 1.1528 0
M  V30 28238 C 2646.46 -3.63904 2.25295 0
M  V30 28239 C 2645.78 -4.996 1.90536 0
M  V30 28240 C 2647.08 -3.71181 3.67453 0
M  V30 28241 H 2648.78 -1.92293 2.29486 0
M  V30 28242 H 2646.32 -0.923753 1.10466 0
M  V30 28243 H 2648.28 -4.06094 1.12543 0
M  V30 28244 H 2647 -3.26135 0.17416 0
M  V30 28245 H 2645.66 -2.87724 2.27179 0
M  V30 28246 H 2645.31 -4.9466 0.912147 0
M  V30 28247 H 2645.01 -5.24853 2.64202 0
M  V30 28248 H 2646.53 -5.8049 1.89377 0
M  V30 28249 H 2647.95 -4.39829 3.67727 0
M  V30 28250 H 2646.34 -4.07929 4.4013 0
M  V30 28251 H 2647.41 -2.7197 4.01448 0
M  V30 28252 N 2648.76 -1.2161 -1.00244 0
M  V30 28253 C 2649.98 -1.0617 -1.78165 0
M  V30 28254 C 2650.41 0.384002 -1.84139 0
M  V30 28255 O 2649.76 1.2771 -1.28685 0
M  V30 28256 C 2649.81 -1.66648 -3.19783 0
M  V30 28257 O 2648.92 -0.913684 -4.02151 0
M  V30 28258 H 2648.26 -0.3735 -0.548993 0
M  V30 28259 H 2650.79 -1.61206 -1.25991 0
M  V30 28260 H 2650.8 -1.70975 -3.70448 0
M  V30 28261 H 2649.47 -2.71856 -3.14749 0
M  V30 28262 H 2648.05 -0.945698 -3.60709 0
M  V30 28263 N 2650.23 1.19778 -1.02425 0
M  V30 28264 C 2651.18 2.22836 -0.601062 0
M  V30 28265 C 2652.15 1.61629 0.382772 0
M  V30 28266 O 2653.34 1.88727 0.280481 0
M  V30 28267 C 2650.48 3.45068 0.0467148 0
M  V30 28268 C 2649.59 4.20677 -0.982604 0
M  V30 28269 C 2648.72 5.30323 -0.305075 0
M  V30 28270 C 2647.76 5.97684 -1.32062 0
M  V30 28271 N 2646.9 6.98903 -0.669228 0
M  V30 28272 H 2651.74 2.58393 -1.48448 0
M  V30 28273 H 2649.28 1.26959 -0.742958 0
M  V30 28274 H 2651.23 4.14879 0.439484 0
M  V30 28275 H 2649.86 3.10181 0.893742 0
M  V30 28276 H 2648.92 3.49857 -1.49347 0
M  V30 28277 H 2650.23 4.6692 -1.75464 0
M  V30 28278 H 2649.38 6.06532 0.142786 0
M  V30 28279 H 2648.12 4.85138 0.499197 0
M  V30 28280 H 2647.13 5.2023 -1.7788 0
M  V30 28281 H 2648.35 6.44953 -2.12631 0
M  V30 28282 H 2646.3 6.55899 0.115037 0
M  V30 28283 H 2646.21 7.43313 -1.37921 0
M  V30 28284 H 2647.48 7.79114 -0.245213 0
M  V30 28285 N 2651.71 0.801501 1.35697 0
M  V30 28286 C 2652.94 0.391236 2.02862 0
M  V30 28287 C 2653.35 -1.00096 1.60553 0
M  V30 28288 O 2652.69 -1.65546 0.796244 0
M  V30 28289 C 2652.75 0.389362 3.57385 0
M  V30 28290 C 2652.42 1.7312 4.2294 0
M  V30 28291 C 2653.42 2.68867 4.44979 0
M  V30 28292 C 2651.1 2.01381 4.60164 0
M  V30 28293 C 2653.09 3.91062 5.03338 0
M  V30 28294 C 2650.78 3.23841 5.18238 0
M  V30 28295 C 2651.78 4.18499 5.39766 0
M  V30 28296 O 2651.47 5.38798 5.96617 0
M  V30 28297 H 2651.2 0.157743 0.657338 0
M  V30 28298 H 2653.75 1.08499 1.74405 0
M  V30 28299 H 2651.98 -0.360964 3.85012 0
M  V30 28300 H 2653.67 0.00210785 4.059 0
M  V30 28301 H 2654.44 2.48323 4.16606 0
M  V30 28302 H 2650.32 1.28516 4.42724 0
M  V30 28303 H 2653.86 4.64958 5.20057 0
M  V30 28304 H 2649.76 3.44257 5.46038 0
M  V30 28305 H 2650.53 5.40026 6.15073 0
M  V30 28306 N 2653.19 -1.47521 0.554558 0
M  V30 28307 C 2654.41 -2.07375 0.0323025 0
M  V30 28308 C 2654.84 -1.4049 -1.25077 0
M  V30 28309 O 2654.2 -0.47899 -1.74858 0
M  V30 28310 C 2654.25 -3.60291 -0.149334 0
M  V30 28311 O 2653.35 -3.94172 -1.21252 0
M  V30 28312 H 2652.69 -0.662105 0.0501345 0
M  V30 28313 H 2655.22 -1.89579 0.769485 0
M  V30 28314 H 2655.23 -4.0637 -0.364365 0
M  V30 28315 H 2653.91 -4.0837 0.787815 0
M  V30 28316 H 2652.48 -3.59842 -0.978187 0
M  V30 28317 N 2654.67 -0.290879 -1.54892 0
M  V30 28318 C 2655.6 0.583044 -2.26104 0
M  V30 28319 C 2656.58 1.14617 -1.25686 0
M  V30 28320 O 2657.76 1.17739 -1.54439 0
M  V30 28321 C 2654.89 1.75982 -2.99412 0
M  V30 28322 C 2653.85 1.32751 -4.06892 0
M  V30 28323 C 2653.17 2.58864 -4.67861 0
M  V30 28324 C 2654.47 0.466148 -5.20216 0
M  V30 28325 H 2656.17 -0.0108741 -2.99398 0
M  V30 28326 H 2653.71 -0.00666999 -1.43998 0
M  V30 28327 H 2655.67 2.3772 -3.47947 0
M  V30 28328 H 2654.39 2.37981 -2.23679 0
M  V30 28329 H 2653.05 0.733236 -3.59192 0
M  V30 28330 H 2652.7 3.19156 -3.88778 0
M  V30 28331 H 2652.4 2.30644 -5.40442 0
M  V30 28332 H 2653.92 3.21424 -5.19152 0
M  V30 28333 H 2655.34 0.988948 -5.64706 0
M  V30 28334 H 2653.73 0.278155 -5.99455 0
M  V30 28335 H 2654.8 -0.511257 -4.82197 0
M  V30 28336 N 2656.15 1.57589 -0.0184203 0
M  V30 28337 C 2657.56 1.79257 0.521895 0
M  V30 28338 C 2657.91 0.927666 1.72884 0
M  V30 28339 O 2657.03 0.135129 2.15978 0
M  V30 28340 C 2657.63 3.25104 0.953575 0
M  V30 28341 C 2656.19 3.47804 1.43907 0
M  V30 28342 C 2655.33 2.74418 0.398789 0
M  V30 28343 H 2658.28 1.56805 -0.244512 0
M  V30 28344 H 2658.31 3.34228 1.81857 0
M  V30 28345 H 2657.82 3.88028 0.0749441 0
M  V30 28346 H 2655.92 2.90119 2.33799 0
M  V30 28347 H 2656.03 4.56509 1.45383 0
M  V30 28348 H 2654.4 2.39579 0.86453 0
M  V30 28349 H 2655.18 3.40051 -0.471192 0
M  V30 28350 N 2657.62 -0.254594 1.5553 0
M  V30 28351 C 2658.87 -0.981581 1.76204 0
M  V30 28352 C 2659.19 -1.86775 0.580916 0
M  V30 28353 O 2660.39 -2.63091 0.670494 0
M  V30 28354 C 2658.85 -1.79531 3.11924 0
M  V30 28355 C 2658.46 -0.956914 4.37661 0
M  V30 28356 C 2660.2 -2.51549 3.4194 0
M  V30 28357 C 2658.11 -1.76609 5.64414 0
M  V30 28358 H 2657.04 -0.370226 0.656848 0
M  V30 28359 H 2659.69 -0.236524 1.81969 0
M  V30 28360 H 2658.07 -2.58203 3.00245 0
M  V30 28361 H 2659.24 -0.213069 4.60307 0
M  V30 28362 H 2657.56 -0.350424 4.14923 0
M  V30 28363 H 2660.16 -3.12529 4.33855 0
M  V30 28364 H 2660.5 -3.22775 2.62911 0
M  V30 28365 H 2661.03 -1.79894 3.548 0
M  V30 28366 H 2657.77 -1.09772 6.46243 0
M  V30 28367 H 2657.29 -2.48542 5.45882 0
M  V30 28368 H 2658.97 -2.33516 6.0339 0
M  V30 28369 N 2659.1 -1.48777 -0.519925 0
M  V30 28370 C 2660.35 -1.57539 -1.27708 0
M  V30 28371 C 2660.68 -0.2529 -1.92546 0
M  V30 28372 O 2659.96 0.741989 -1.79791 0
M  V30 28373 C 2660.24 -2.72098 -2.3587 0
M  V30 28374 C 2660.09 -4.14083 -1.75657 0
M  V30 28375 C 2661.41 -2.82373 -3.3757 0
M  V30 28376 H 2658.53 -0.573442 -0.462961 0
M  V30 28377 H 2661.17 -1.8099 -0.578162 0
M  V30 28378 H 2659.32 -2.52233 -2.95484 0
M  V30 28379 H 2660.99 -4.45414 -1.20017 0
M  V30 28380 H 2659.24 -4.20613 -1.06146 0
M  V30 28381 H 2659.91 -4.90079 -2.5402 0
M  V30 28382 H 2662.38 -3.00398 -2.87924 0
M  V30 28383 H 2661.26 -3.6424 -4.10634 0
M  V30 28384 H 2661.52 -1.90943 -3.9874 0
M  V30 28385 N 2660.58 0.769564 -1.37534 0
M  V30 28386 C 2661.49 1.91391 -1.35671 0
M  V30 28387 C 2662.51 1.72107 -0.255985 0
M  V30 28388 O 2663.68 1.95305 -0.491739 0
M  V30 28389 C 2660.75 3.26545 -1.16487 0
M  V30 28390 C 2659.81 3.58468 -2.36219 0
M  V30 28391 C 2659.04 4.87173 -2.1794 0
M  V30 28392 O 2659.26 5.5838 -1.1648 0
M  V30 28393 O 2658.2 5.18208 -3.06176 0
M  V30 28394 H 2662.02 1.95914 -2.32059 0
M  V30 28395 H 2659.61 0.912621 -1.18286 0
M  V30 28396 H 2661.49 4.07382 -1.07785 0
M  V30 28397 H 2660.17 3.22869 -0.231744 0
M  V30 28398 H 2659.07 2.77856 -2.50493 0
M  V30 28399 H 2660.41 3.66889 -3.28106 0
M  V30 28400 N 2662.06 1.22139 0.995977 0
M  V30 28401 C 2662.97 1.005 2.11983 0
M  V30 28402 C 2663.98 -0.0457395 1.7394 0
M  V30 28403 O 2665.16 0.146309 2.00868 0
M  V30 28404 C 2662.23 0.582146 3.41778 0
M  V30 28405 C 2661.29 1.70615 3.9394 0
M  V30 28406 C 2660.52 1.30337 5.1754 0
M  V30 28407 O 2660.74 0.180843 5.70113 0
M  V30 28408 O 2659.68 2.1187 5.63378 0
M  V30 28409 H 2663.5 1.94651 2.3312 0
M  V30 28410 H 2661.09 1.00707 1.10356 0
M  V30 28411 H 2662.97 0.356541 4.19889 0
M  V30 28412 H 2661.64 -0.330536 3.22008 0
M  V30 28413 H 2660.55 1.98625 3.17016 0
M  V30 28414 H 2661.88 2.59658 4.18137 0
M  V30 28415 N 2663.54 -1.19233 1.03059 0
M  V30 28416 C 2664.95 -1.70643 0.757479 0
M  V30 28417 C 2665.3 -1.82405 -0.722703 0
M  V30 28418 O 2664.42 -1.4964 -1.56322 0
M  V30 28419 C 2665.02 -3.09937 1.36838 0
M  V30 28420 C 2663.58 -3.586 1.14382 0
M  V30 28421 C 2662.72 -2.35419 1.46537 0
M  V30 28422 H 2665.68 -1.0405 1.1983 0
M  V30 28423 H 2665.7 -3.72705 0.76625 0
M  V30 28424 H 2665.21 -3.01344 2.44567 0
M  V30 28425 H 2663.31 -3.72503 0.0848197 0
M  V30 28426 H 2663.42 -4.42618 1.83373 0
M  V30 28427 H 2661.79 -2.38839 0.884754 0
M  V30 28428 H 2662.57 -2.29455 2.55353 0
M  V30 28429 N 2665.01 -0.808686 -1.3527 0
M  V30 28430 C 2665.92 -0.222121 -2.33546 0
M  V30 28431 C 2666.94 0.635982 -1.61961 0
M  V30 28432 O 2668.12 0.547239 -1.93823 0
M  V30 28433 C 2665.18 0.61789 -3.4115 0
M  V30 28434 C 2664.24 -0.26095 -4.28506 0
M  V30 28435 C 2663.48 0.539063 -5.30971 0
M  V30 28436 O 2663.7 1.77358 -5.42126 0
M  V30 28437 O 2662.63 -0.0711584 -6.01858 0
M  V30 28438 H 2666.46 -1.03517 -2.85514 0
M  V30 28439 H 2664.04 -0.570519 -1.38078 0
M  V30 28440 H 2665.93 1.09627 -4.0689 0
M  V30 28441 H 2664.6 1.4085 -2.9145 0
M  V30 28442 H 2663.51 -0.786516 -3.65739 0
M  V30 28443 H 2664.84 -1.01556 -4.81609 0
M  V30 28444 N 2666.49 1.47225 -0.562374 0
M  V30 28445 C 2667.77 1.95583 0.0256641 0
M  V30 28446 C 2668.15 1.50501 1.4803 0
M  V30 28447 O 2667.5 0.746219 2.15972 0
M  V30 28448 C 2667.71 3.48775 -0.12519 0
M  V30 28449 C 2669.06 4.24596 0.0174982 0
M  V30 28450 O 2670.08 3.56161 -0.0529967 0
M  V30 28451 O 2668.94 5.46235 0.170049 0
M  V30 28452 H 2666.03 0.824729 0.061242 0
M  V30 28453 H 2668.58 1.57602 -0.629261 0
M  V30 28454 H 2667.35 3.7441 -1.13721 0
M  V30 28455 H 2666.97 3.93535 0.567109 0
M  V30 28456 N 2667.97 0.299089 1.54736 0
M  V30 28457 C 2669.2 -0.312956 2.04216 0
M  V30 28458 C 2669.61 -1.48213 1.17599 0
M  V30 28459 O 2668.95 -1.82674 0.193867 0
M  V30 28460 C 2669.01 -0.8338 3.49697 0
M  V30 28461 C 2668.68 0.20985 4.56518 0
M  V30 28462 C 2669.67 1.03765 5.0944 0
M  V30 28463 C 2667.36 0.350998 5.01072 0
M  V30 28464 C 2669.35 1.99255 6.05455 0
M  V30 28465 C 2667.04 1.30935 5.96908 0
M  V30 28466 C 2668.04 2.12861 6.48983 0
M  V30 28467 O 2667.73 3.07072 7.42942 0
M  V30 28468 H 2667.46 -0.0722376 0.672129 0
M  V30 28469 H 2670.01 0.436079 2.00717 0
M  V30 28470 H 2668.24 -1.63333 3.50513 0
M  V30 28471 H 2669.93 -1.36152 3.82384 0
M  V30 28472 H 2670.7 0.939459 4.75814 0
M  V30 28473 H 2666.58 -0.276732 4.60169 0
M  V30 28474 H 2670.12 2.63241 6.46026 0
M  V30 28475 H 2666.02 1.40826 6.29951 0
M  V30 28476 H 2666.79 3.02028 7.60737 0
M  V30 28477 N 2669.45 -1.57577 0.0267774 0
M  V30 28478 C 2670.4 -2.10076 -0.955858 0
M  V30 28479 C 2671.37 -1.00229 -1.32452 0
M  V30 28480 O 2672.55 -1.27635 -1.41824 0
M  V30 28481 C 2669.69 -2.63054 -2.23376 0
M  V30 28482 C 2668.8 -3.86901 -1.92176 0
M  V30 28483 C 2667.94 -4.28281 -3.14244 0
M  V30 28484 C 2666.98 -5.44893 -2.78852 0
M  V30 28485 N 2666.11 -5.8144 -3.93538 0
M  V30 28486 H 2670.95 -2.93754 -0.501251 0
M  V30 28487 H 2668.49 -1.45197 -0.235821 0
M  V30 28488 H 2670.45 -2.91858 -2.98118 0
M  V30 28489 H 2669.08 -1.8221 -2.66457 0
M  V30 28490 H 2668.13 -3.6484 -1.07685 0
M  V30 28491 H 2669.44 -4.71723 -1.62108 0
M  V30 28492 H 2668.6 -4.58509 -3.97309 0
M  V30 28493 H 2667.34 -3.42222 -3.4747 0
M  V30 28494 H 2666.34 -5.1436 -1.94199 0
M  V30 28495 H 2667.57 -6.32649 -2.46844 0
M  V30 28496 H 2665.51 -4.98336 -4.26611 0
M  V30 28497 H 2665.43 -6.60896 -3.67087 0
M  V30 28498 H 2666.7 -6.16273 -4.77314 0
M  V30 28499 N 2670.93 0.246342 -1.55663 0
M  V30 28500 C 2671.84 1.32649 -1.93498 0
M  V30 28501 C 2672.85 1.52629 -0.835489 0
M  V30 28502 O 2674.03 1.6624 -1.13693 0
M  V30 28503 C 2671.09 2.66097 -2.22246 0
M  V30 28504 C 2670.15 2.54635 -3.45629 0
M  V30 28505 C 2669.39 3.81718 -3.72998 0
M  V30 28506 O 2669.61 4.83624 -3.0243 0
M  V30 28507 O 2668.54 3.80317 -4.66522 0
M  V30 28508 H 2672.37 1.03554 -2.855 0
M  V30 28509 H 2669.96 0.447144 -1.42552 0
M  V30 28510 H 2671.84 3.44954 -2.42043 0
M  V30 28511 H 2670.51 2.94924 -1.33422 0
M  V30 28512 H 2669.42 1.74062 -3.31139 0
M  V30 28513 H 2670.75 2.30752 -4.34758 0
M  V30 28514 N 2672.4 1.4905 0.512027 0
M  V30 28515 C 2673.37 1.64402 1.59702 0
M  V30 28516 C 2674.37 0.516344 1.52284 0
M  V30 28517 O 2675.56 0.782554 1.55633 0
M  V30 28518 C 2672.69 1.63107 2.99347 0
M  V30 28519 H 2673.88 2.61164 1.47423 0
M  V30 28520 H 2671.44 1.37916 0.735445 0
M  V30 28521 H 2672.17 0.678891 3.17114 0
M  V30 28522 H 2671.96 2.44992 3.0614 0
M  V30 28523 H 2673.45 1.77079 3.78197 0
M  V30 28524 N 2673.88 -0.762259 1.3794 0
M  V30 28525 C 2675.11 -1.55657 1.37061 0
M  V30 28526 C 2675.53 -1.88058 -0.0395792 0
M  V30 28527 O 2674.89 -1.49935 -1.01927 0
M  V30 28528 C 2674.94 -2.83772 2.22499 0
M  V30 28529 O 2674.04 -3.78556 1.63613 0
M  V30 28530 H 2673.38 -0.471132 0.4679 0
M  V30 28531 H 2675.91 -0.942693 1.81589 0
M  V30 28532 H 2675.92 -3.32782 2.36051 0
M  V30 28533 H 2674.6 -2.59518 3.24997 0
M  V30 28534 H 2673.18 -3.3723 1.59156 0
M  V30 28535 N 2675.36 -1.22666 -0.989486 0
M  V30 28536 C 2676.61 -1.05484 -1.73208 0
M  V30 28537 C 2676.94 0.408602 -1.89853 0
M  V30 28538 O 2676.21 1.30283 -1.44418 0
M  V30 28539 C 2676.5 -1.77052 -3.13567 0
M  V30 28540 C 2676.35 -3.31013 -3.04549 0
M  V30 28541 C 2677.67 -1.52567 -4.12809 0
M  V30 28542 H 2674.79 -0.3846 -0.62869 0
M  V30 28543 H 2677.43 -1.51051 -1.15255 0
M  V30 28544 H 2675.58 -1.38317 -3.63044 0
M  V30 28545 H 2677.25 -3.79215 -2.62667 0
M  V30 28546 H 2675.5 -3.60514 -2.41271 0
M  V30 28547 H 2676.17 -3.7627 -4.03887 0
M  V30 28548 H 2678.64 -1.86222 -3.72103 0
M  V30 28549 H 2677.52 -2.05133 -5.09128 0
M  V30 28550 H 2677.78 -0.459014 -4.39711 0
M  V30 28551 N 2676.84 1.18685 -1.0369 0
M  V30 28552 C 2678.09 1.88571 -0.738063 0
M  V30 28553 C 2678.41 1.80121 0.733941 0
M  V30 28554 O 2677.67 1.19347 1.55096 0
M  V30 28555 C 2677.97 3.38568 -1.14483 0
M  V30 28556 C 2677.63 3.67221 -2.61647 0
M  V30 28557 C 2676.3 3.74751 -3.01852 0
M  V30 28558 C 2678.65 3.79907 -3.56819 0
M  V30 28559 C 2675.98 3.92443 -4.36125 0
M  V30 28560 C 2678.33 3.99114 -4.90806 0
M  V30 28561 C 2676.99 4.04879 -5.30688 0
M  V30 28562 H 2676.26 0.690029 -0.270076 0
M  V30 28563 H 2678.91 1.405 -1.30123 0
M  V30 28564 H 2677.21 3.88591 -0.500406 0
M  V30 28565 H 2678.91 3.90976 -0.891019 0
M  V30 28566 H 2675.5 3.61975 -2.29504 0
M  V30 28567 H 2679.69 3.73426 -3.26905 0
M  V30 28568 H 2674.94 3.95148 -4.66549 0
M  V30 28569 H 2679.12 4.07872 -5.64458 0
M  V30 28570 H 2676.74 4.1834 -6.34741 0
M  V30 28571 N 2678.32 0.815849 1.34839 0
M  V30 28572 C 2679.55 0.41273 2.02435 0
M  V30 28573 C 2679.96 -0.983878 1.61606 0
M  V30 28574 O 2679.3 -1.64693 0.813758 0
M  V30 28575 C 2679.36 0.427245 3.56952 0
M  V30 28576 C 2679.02 1.77596 4.2108 0
M  V30 28577 C 2680.02 2.73571 4.42103 0
M  V30 28578 C 2677.71 2.06251 4.58002 0
M  V30 28579 C 2679.7 3.96379 4.99162 0
M  V30 28580 C 2677.39 3.29319 5.14774 0
M  V30 28581 C 2678.39 4.24201 5.35297 0
M  V30 28582 O 2678.07 5.45096 5.90869 0
M  V30 28583 H 2677.81 0.164706 0.655628 0
M  V30 28584 H 2680.36 1.10343 1.73244 0
M  V30 28585 H 2678.59 -0.320108 3.85373 0
M  V30 28586 H 2680.28 0.0451588 4.05875 0
M  V30 28587 H 2681.04 2.52728 4.13949 0
M  V30 28588 H 2676.92 1.33204 4.41336 0
M  V30 28589 H 2680.47 4.70448 5.15096 0
M  V30 28590 H 2676.36 3.5003 5.42356 0
M  V30 28591 H 2677.13 5.46519 6.0931 0
M  V30 28592 N 2679.8 -1.46924 0.570174 0
M  V30 28593 C 2680.73 -2.28255 -0.207868 0
M  V30 28594 C 2681.74 -1.37776 -0.867277 0
M  V30 28595 O 2682.93 -1.62486 -0.738948 0
M  V30 28596 C 2680.03 -3.12435 -1.31292 0
M  V30 28597 C 2679.2 -4.3096 -0.747839 0
M  V30 28598 C 2678.26 -4.96633 -1.73901 0
M  V30 28599 O 2677.29 -5.54621 -1.28001 0
M  V30 28600 N 2678.49 -4.92503 -3.0728 0
M  V30 28601 H 2681.25 -2.9567 0.489846 0
M  V30 28602 H 2678.82 -1.56698 0.407104 0
M  V30 28603 H 2680.81 -3.53236 -1.97501 0
M  V30 28604 H 2679.38 -2.47178 -1.91368 0
M  V30 28605 H 2678.6 -3.94094 0.0913759 0
M  V30 28606 H 2679.89 -5.07596 -0.349869 0
M  V30 28607 H 2679.28 -4.46615 -3.47206 0
M  V30 28608 H 2677.84 -5.37284 -3.69011 0
M  V30 28609 N 2681.27 -0.307291 -1.54575 0
M  V30 28610 C 2682.22 0.581683 -2.25209 0
M  V30 28611 C 2683.22 1.1319 -1.26033 0
M  V30 28612 O 2684.42 1.08181 -1.43864 0
M  V30 28613 H 2680.8 0.206201 -0.723177 0
M  V30 28614 H 2682.77 -0.0365187 -2.98378 0
M  V30 28615 C 2681.52 1.73899 -3.01089 0
M  V30 28616 H 2680.84 1.32484 -3.77211 0
M  V30 28617 H 2682.28 2.33695 -3.53784 0
M  V30 28618 C 2680.74 2.64689 -2.08426 0
M  V30 28619 O 2681.27 3.65958 -1.65642 0
M  V30 28620 N 2679.47 2.32561 -1.74252 0
M  V30 28621 H 2679.02 1.50253 -2.09241 0
M  V30 28622 H 2678.98 2.93572 -1.12529 0
M  V30 28623 N 2682.75 1.57561 -0.0351337 0
M  V30 28624 C 2683.7 2.1058 0.944703 0
M  V30 28625 C 2684.67 1.0093 1.31918 0
M  V30 28626 O 2685.85 1.28385 1.41145 0
M  V30 28627 C 2682.99 2.64235 2.21978 0
M  V30 28628 C 2682.11 3.87915 1.90121 0
M  V30 28629 C 2681.24 4.29941 3.11968 0
M  V30 28630 C 2680.28 5.46364 2.75959 0
M  V30 28631 N 2679.42 5.83519 3.90449 0
M  V30 28632 H 2684.26 2.94016 0.485665 0
M  V30 28633 H 2681.79 1.4532 0.228118 0
M  V30 28634 H 2683.75 2.93435 2.96566 0
M  V30 28635 H 2682.38 1.83621 2.65487 0
M  V30 28636 H 2681.43 3.65406 1.05749 0
M  V30 28637 H 2682.75 4.72576 1.59605 0
M  V30 28638 H 2681.9 4.6061 3.94871 0
M  V30 28639 H 2680.64 3.44059 3.45651 0
M  V30 28640 H 2679.64 5.15383 1.91469 0
M  V30 28641 H 2680.87 6.33949 2.43486 0
M  V30 28642 H 2678.82 5.00591 4.23963 0
M  V30 28643 H 2678.73 6.62833 3.63576 0
M  V30 28644 H 2680 6.18795 4.74039 0
M  V30 28645 N 2684.23 -0.238084 1.55791 0
M  V30 28646 C 2685.48 -0.962837 1.77235 0
M  V30 28647 C 2685.79 -1.86148 0.600694 0
M  V30 28648 O 2687 -2.62365 0.698361 0
M  V30 28649 C 2685.45 -1.76213 3.13811 0
M  V30 28650 C 2685.06 -0.910441 4.38651 0
M  V30 28651 C 2686.81 -2.47908 3.44589 0
M  V30 28652 C 2684.71 -1.70613 5.66255 0
M  V30 28653 H 2683.64 -0.363238 0.660737 0
M  V30 28654 H 2686.29 -0.21721 1.8221 0
M  V30 28655 H 2684.68 -2.55004 3.02967 0
M  V30 28656 H 2685.85 -0.164235 4.60507 0
M  V30 28657 H 2684.16 -0.306397 4.15271 0
M  V30 28658 H 2686.76 -3.07909 4.37145 0
M  V30 28659 H 2687.1 -3.19968 2.6632 0
M  V30 28660 H 2687.64 -1.76121 3.56688 0
M  V30 28661 H 2684.38 -1.02911 6.47371 0
M  V30 28662 H 2683.9 -2.42738 5.48487 0
M  V30 28663 H 2685.58 -2.27103 6.05833 0
M  V30 28664 N 2685.71 -1.4932 -0.504115 0
M  V30 28665 C 2686.95 -1.58884 -1.2603 0
M  V30 28666 C 2687.29 -0.273307 -1.92267 0
M  V30 28667 O 2686.56 0.722878 -1.80568 0
M  V30 28668 C 2686.84 -2.74584 -2.32971 0
M  V30 28669 C 2686.7 -4.15923 -1.71255 0
M  V30 28670 C 2688.02 -2.85938 -3.34556 0
M  V30 28671 H 2685.14 -0.57832 -0.456853 0
M  V30 28672 H 2687.78 -1.81593 -0.558933 0
M  V30 28673 H 2685.93 -2.55353 -2.92792 0
M  V30 28674 H 2687.6 -4.46662 -1.15286 0
M  V30 28675 H 2685.84 -4.21715 -1.01679 0
M  V30 28676 H 2686.51 -4.92746 -2.48808 0
M  V30 28677 H 2688.99 -3.03435 -2.84722 0
M  V30 28678 H 2687.87 -3.68575 -4.06748 0
M  V30 28679 H 2688.13 -1.95161 -3.96692 0
M  V30 28680 N 2687.19 0.754933 -1.38342 0
M  V30 28681 C 2688.43 1.51103 -1.3421 0
M  V30 28682 C 2688.75 1.94882 0.0677291 0
M  V30 28683 O 2688.02 1.67546 1.01515 0
M  V30 28684 H 2686.6 0.560484 -0.493828 0
M  V30 28685 H 2689.27 0.897476 -1.73007 0
M  V30 28686 H 2688.36 2.40256 -1.99207 0
M  V30 28687 N 2688.66 1.23189 0.982967 0
M  V30 28688 C 2689.61 1.01079 2.07489 0
M  V30 28689 C 2690.58 -0.0708758 1.65949 0
M  V30 28690 O 2691.77 0.0807157 1.90629 0
M  V30 28691 C 2688.91 0.60532 3.3975 0
M  V30 28692 C 2688.02 1.75883 3.94575 0
M  V30 28693 C 2687.15 1.30039 5.15037 0
M  V30 28694 C 2686.19 2.42481 5.62022 0
M  V30 28695 N 2685.33 1.97614 6.73716 0
M  V30 28696 H 2690.17 1.94544 2.25736 0
M  V30 28697 H 2687.71 0.969199 1.10657 0
M  V30 28698 H 2689.66 0.351352 4.15718 0
M  V30 28699 H 2688.29 -0.292325 3.21474 0
M  V30 28700 H 2687.35 2.12687 3.15386 0
M  V30 28701 H 2688.66 2.60426 4.25417 0
M  V30 28702 H 2687.81 1.0044 5.98328 0
M  V30 28703 H 2686.55 0.425301 4.85842 0
M  V30 28704 H 2685.56 2.72858 4.77314 0
M  V30 28705 H 2686.78 3.30523 5.93238 0
M  V30 28706 H 2684.73 1.12481 6.46285 0
M  V30 28707 H 2684.64 2.75717 7.03929 0
M  V30 28708 H 2685.91 1.71111 7.60487 0
M  V30 28709 N 2690.14 -1.18133 1.04318 0
M  V30 28710 C 2691.37 -1.92112 0.768151 0
M  V30 28711 C 2691.78 -1.7632 -0.675026 0
M  V30 28712 O 2691.14 -1.09452 -1.46036 0
M  V30 28713 C 2691.19 -3.43446 1.12814 0
M  V30 28714 O 2690.91 -3.58743 2.51466 0
M  V30 28715 C 2692.41 -4.34519 0.877976 0
M  V30 28716 H 2689.63 -0.609812 0.279948 0
M  V30 28717 H 2692.18 -1.49857 1.39151 0
M  V30 28718 H 2690.33 -3.8348 0.549691 0
M  V30 28719 H 2690.75 -4.52443 2.65321 0
M  V30 28720 H 2692.22 -5.39247 1.17969 0
M  V30 28721 H 2692.7 -4.38801 -0.187162 0
M  V30 28722 H 2693.3 -4.00186 1.43984 0
M  V30 28723 N 2691.62 -0.822988 -1.34405 0
M  V30 28724 C 2692.55 -0.202415 -2.28304 0
M  V30 28725 C 2693.57 0.607743 -1.51031 0
M  V30 28726 O 2694.75 0.437414 -1.73058 0
M  V30 28727 C 2691.85 0.734853 -3.30837 0
M  V30 28728 C 2691.03 -0.0324946 -4.37388 0
M  V30 28729 C 2690.09 0.825711 -5.19681 0
M  V30 28730 O 2689.11 0.270671 -5.68556 0
M  V30 28731 N 2690.31 2.14549 -5.39397 0
M  V30 28732 H 2693.08 -1.00914 -2.82199 0
M  V30 28733 H 2690.64 -0.679956 -1.46929 0
M  V30 28734 H 2692.63 1.31359 -3.82788 0
M  V30 28735 H 2691.2 1.44233 -2.77337 0
M  V30 28736 H 2690.42 -0.792537 -3.86151 0
M  V30 28737 H 2691.71 -0.560722 -5.05701 0
M  V30 28738 H 2691.11 2.62016 -5.01362 0
M  V30 28739 H 2689.67 2.67307 -5.94466 0
M  V30 28740 N 2693.1 1.4662 -0.577957 0
M  V30 28741 C 2694.03 2.33044 0.145876 0
M  V30 28742 C 2695.01 1.45058 0.888387 0
M  V30 28743 O 2696.19 1.73883 0.864782 0
M  V30 28744 C 2693.32 3.27243 1.16316 0
M  V30 28745 C 2692.28 4.24633 0.535793 0
M  V30 28746 C 2691.6 5.08306 1.6592 0
M  V30 28747 C 2692.9 5.19665 -0.523953 0
M  V30 28748 H 2694.6 2.93813 -0.575688 0
M  V30 28749 H 2692.14 1.41285 -0.278297 0
M  V30 28750 H 2694.1 3.86556 1.67786 0
M  V30 28751 H 2692.82 2.64571 1.91494 0
M  V30 28752 H 2691.48 3.66576 0.0422115 0
M  V30 28753 H 2691.13 4.42022 2.40053 0
M  V30 28754 H 2690.83 5.74257 1.2451 0
M  V30 28755 H 2692.35 5.70482 2.17676 0
M  V30 28756 H 2693.77 5.73222 -0.0945067 0
M  V30 28757 H 2692.16 5.93933 -0.858105 0
M  V30 28758 H 2693.23 4.63885 -1.41205 0
M  V30 28759 N 2694.58 0.315484 1.5441 0
M  V30 28760 C 2695.82 -0.289936 2.00717 0
M  V30 28761 C 2696.16 -1.52418 1.20342 0
M  V30 28762 O 2695.43 -1.92421 0.283613 0
M  V30 28763 C 2695.71 -0.632134 3.54508 0
M  V30 28764 C 2695.57 0.612258 4.45614 0
M  V30 28765 C 2696.89 -1.45297 4.15424 0
M  V30 28766 H 2694 -0.103907 0.729638 0
M  V30 28767 H 2696.65 0.430459 1.8506 0
M  V30 28768 H 2694.8 -1.24588 3.67981 0
M  V30 28769 H 2696.47 1.25061 4.44024 0
M  V30 28770 H 2694.71 1.24271 4.15619 0
M  V30 28771 H 2695.38 0.328476 5.51022 0
M  V30 28772 H 2697.86 -0.934259 4.05476 0
M  V30 28773 H 2696.73 -1.66117 5.2316 0
M  V30 28774 H 2697 -2.44665 3.68228 0
M  V30 28775 N 2696.05 -1.5754 0.0434891 0
M  V30 28776 C 2697.33 -1.83714 -0.671447 0
M  V30 28777 C 2697.71 -0.930348 -1.89493 0
M  V30 28778 O 2697.06 0.0105237 -2.28498 0
M  V30 28779 C 2697.27 -3.33268 -1.03604 0
M  V30 28780 C 2698.62 -4.00095 -1.4216 0
M  V30 28781 O 2699.64 -3.37848 -1.1286 0
M  V30 28782 O 2698.5 -5.09832 -1.96808 0
M  V30 28783 H 2695.59 -0.757996 -0.330713 0
M  V30 28784 H 2698.14 -1.69546 0.0722671 0
M  V30 28785 H 2696.91 -3.90948 -0.165869 0
M  V30 28786 H 2696.54 -3.52595 -1.83745 0
M  V30 28787 N 2697.53 0.229818 -1.55915 0
M  V30 28788 C 2698.81 0.979265 -1.69321 0
M  V30 28789 C 2699.19 2.02735 -0.588357 0
M  V30 28790 O 2698.54 2.24867 0.405821 0
M  V30 28791 C 2698.75 1.59718 -3.10308 0
M  V30 28792 C 2700.1 2.09258 -3.69454 0
M  V30 28793 O 2701.12 1.69628 -3.13217 0
M  V30 28794 O 2699.98 2.82074 -4.68077 0
M  V30 28795 H 2697.07 0.456907 -0.689322 0
M  V30 28796 H 2699.62 0.222253 -1.68238 0
M  V30 28797 H 2698.39 0.839972 -3.82178 0
M  V30 28798 H 2698.01 2.41995 -3.15474 0
M  V30 28799 N 2699.01 1.49585 0.49619 0
M  V30 28800 C 2700.26 1.59314 1.25001 0
M  V30 28801 C 2700.59 0.282014 1.92445 0
M  V30 28802 O 2699.84 -0.73042 1.81558 0
M  V30 28803 C 2700.14 2.70505 2.33585 0
M  V30 28804 C 2699.81 4.11842 1.83567 0
M  V30 28805 C 2698.47 4.50304 1.69645 0
M  V30 28806 C 2700.82 5.0028 1.46184 0
M  V30 28807 C 2698.15 5.74971 1.16726 0
M  V30 28808 C 2700.5 6.25469 0.947155 0
M  V30 28809 C 2699.16 6.62756 0.794369 0
M  V30 28810 H 2698.43 0.582973 0.457409 0
M  V30 28811 H 2701.08 1.83433 0.549964 0
M  V30 28812 H 2699.39 2.40376 3.09397 0
M  V30 28813 H 2701.08 2.75241 2.91622 0
M  V30 28814 H 2697.67 3.81486 1.95363 0
M  V30 28815 H 2701.86 4.71216 1.55785 0
M  V30 28816 H 2697.11 6.02557 1.03612 0
M  V30 28817 H 2701.29 6.93372 0.648724 0
M  V30 28818 H 2698.91 7.59239 0.382138 0
M  V30 28819 N 2700.49 -0.747586 1.3874 0
M  V30 28820 C 2701.42 -1.87489 1.39176 0
M  V30 28821 C 2702.4 -1.6815 0.256823 0
M  V30 28822 O 2703.58 -1.88654 0.460795 0
M  V30 28823 C 2700.71 -3.2509 1.22203 0
M  V30 28824 C 2699.67 -3.59043 2.32964 0
M  V30 28825 C 2698.99 -4.95446 2.01091 0
M  V30 28826 C 2700.29 -3.63304 3.75244 0
M  V30 28827 H 2701.99 -1.87382 2.33513 0
M  V30 28828 H 2699.53 -0.900114 1.12401 0
M  V30 28829 H 2701.49 -4.03615 1.21131 0
M  V30 28830 H 2700.21 -3.25693 0.243298 0
M  V30 28831 H 2698.87 -2.82841 2.33231 0
M  V30 28832 H 2698.52 -4.92614 1.01687 0
M  V30 28833 H 2698.22 -5.19131 2.75276 0
M  V30 28834 H 2699.74 -5.76342 2.01648 0
M  V30 28835 H 2701.16 -4.3193 3.76974 0
M  V30 28836 H 2699.55 -3.98501 4.48684 0
M  V30 28837 H 2700.62 -2.63393 4.07127 0
M  V30 28838 N 2701.97 -1.23709 -0.97642 0
M  V30 28839 C 2703.24 -0.979729 -1.69295 0
M  V30 28840 C 2703.62 0.500519 -2.05081 0
M  V30 28841 O 2702.97 1.4727 -1.7471 0
M  V30 28842 C 2703.18 -1.89394 -2.9314 0
M  V30 28843 C 2704.53 -2.15974 -3.65569 0
M  V30 28844 O 2705.55 -1.86976 -3.0318 0
M  V30 28845 O 2704.41 -2.65175 -4.77854 0
M  V30 28846 H 2701.51 -0.369825 -0.739702 0
M  V30 28847 H 2704.05 -1.34769 -1.03129 0
M  V30 28848 H 2702.82 -2.89443 -2.63322 0
M  V30 28849 H 2702.45 -1.5286 -3.67042 0
M  V30 28850 N 2703.44 1.17579 -1.04943 0
M  V30 28851 C 2704.37 2.23705 -0.669211 0
M  V30 28852 C 2705.36 1.66832 0.331806 0
M  V30 28853 O 2706.54 1.93062 0.209954 0
M  V30 28854 C 2703.67 3.47276 -0.04055 0
M  V30 28855 C 2702.62 4.16955 -0.966057 0
M  V30 28856 C 2701.95 5.34321 -0.201406 0
M  V30 28857 C 2703.25 4.69465 -2.2891 0
M  V30 28858 H 2704.94 2.55765 -1.55643 0
M  V30 28859 H 2702.49 1.22938 -0.749815 0
M  V30 28860 H 2704.44 4.20732 0.237224 0
M  V30 28861 H 2703.17 3.14476 0.881603 0
M  V30 28862 H 2701.83 3.45408 -1.22835 0
M  V30 28863 H 2701.47 4.9777 0.723432 0
M  V30 28864 H 2701.17 5.81877 -0.81807 0
M  V30 28865 H 2702.7 6.10561 0.0691426 0
M  V30 28866 H 2704.11 5.3457 -2.07141 0
M  V30 28867 H 2702.51 5.27591 -2.85951 0
M  V30 28868 H 2703.58 3.86409 -2.92944 0
M  V30 28869 N 2704.92 0.830104 1.33967 0
M  V30 28870 C 2706.2 0.343892 1.92553 0
M  V30 28871 C 2706.58 -1.16968 1.75732 0
M  V30 28872 O 2705.93 -1.98009 1.14038 0
M  V30 28873 C 2706.14 0.781133 3.40146 0
M  V30 28874 C 2707.49 0.784093 4.17297 0
M  V30 28875 O 2708.51 0.724173 3.48761 0
M  V30 28876 O 2707.37 0.863834 5.3963 0
M  V30 28877 H 2704.46 0.0954972 0.821468 0
M  V30 28878 H 2707.01 0.915373 1.42895 0
M  V30 28879 H 2705.78 1.82335 3.46222 0
M  V30 28880 H 2705.4 0.18574 3.97166 0
M  V30 28881 N 2706.4 -1.46311 0.585725 0
M  V30 28882 C 2707.33 -2.27372 -0.194217 0
M  V30 28883 C 2708.31 -1.35811 -0.894092 0
M  V30 28884 O 2709.5 -1.65224 -0.907373 0
M  V30 28885 C 2706.62 -3.13625 -1.27896 0
M  V30 28886 C 2705.67 -4.2097 -0.684592 0
M  V30 28887 S 2706.5 -5.33246 0.490839 0
M  V30 28888 C 2707.66 -6.23065 -0.595028 0
M  V30 28889 H 2707.89 -2.93174 0.493567 0
M  V30 28890 H 2705.42 -1.49834 0.372692 0
M  V30 28891 H 2707.38 -3.63882 -1.90001 0
M  V30 28892 H 2706.04 -2.4713 -1.9387 0
M  V30 28893 H 2705.24 -4.81159 -1.50007 0
M  V30 28894 H 2704.84 -3.73741 -0.139138 0
M  V30 28895 H 2707.13 -6.61139 -1.4799 0
M  V30 28896 H 2708.07 -7.08094 -0.0298201 0
M  V30 28897 H 2708.48 -5.57271 -0.900529 0
M  V30 28898 N 2707.88 -0.323668 -1.54241 0
M  V30 28899 C 2708.84 0.529563 -2.22998 0
M  V30 28900 C 2709.84 1.04345 -1.22347 0
M  V30 28901 O 2711.03 0.935863 -1.46926 0
M  V30 28902 C 2708.16 1.73557 -2.93412 0
M  V30 28903 H 2709.36 -0.0715045 -2.99815 0
M  V30 28904 H 2706.91 -0.0747533 -1.56121 0
M  V30 28905 H 2707.65 2.37587 -2.20733 0
M  V30 28906 H 2707.43 1.37449 -3.67219 0
M  V30 28907 H 2708.92 2.34122 -3.45799 0
M  V30 28908 N 2709.36 1.57515 -0.0518432 0
M  V30 28909 C 2710.61 1.91894 0.621252 0
M  V30 28910 C 2710.92 0.932083 1.71964 0
M  V30 28911 O 2712.13 1.16795 2.45094 0
M  V30 28912 C 2710.58 3.40818 1.15635 0
M  V30 28913 C 2710.19 4.4791 0.0900359 0
M  V30 28914 C 2711.93 3.8423 1.80465 0
M  V30 28915 C 2709.84 5.87948 0.638051 0
M  V30 28916 H 2708.77 0.716173 0.235822 0
M  V30 28917 H 2711.42 1.83102 -0.120841 0
M  V30 28918 H 2709.8 3.44617 1.95078 0
M  V30 28919 H 2710.98 4.55701 -0.683605 0
M  V30 28920 H 2709.29 4.13842 -0.460847 0
M  V30 28921 H 2711.89 4.86225 2.22463 0
M  V30 28922 H 2712.23 3.20513 2.65664 0
M  V30 28923 H 2712.77 3.8295 1.07676 0
M  V30 28924 H 2709.5 6.55263 -0.176317 0
M  V30 28925 H 2709.02 5.83717 1.37966 0
M  V30 28926 H 2710.7 6.37219 1.12074 0
M  V30 28927 N 2710.84 -0.221546 1.56035 0
M  V30 28928 C 2712.06 -0.962832 1.83132 0
M  V30 28929 C 2712.48 -1.77945 0.630966 0
M  V30 28930 O 2711.84 -1.78052 -0.400488 0
M  V30 28931 C 2711.89 -1.88039 3.08745 0
M  V30 28932 O 2711.61 -1.09679 4.24149 0
M  V30 28933 C 2713.11 -2.73557 3.48829 0
M  V30 28934 H 2710.33 -0.282183 0.60878 0
M  V30 28935 H 2712.87 -0.236774 2.03125 0
M  V30 28936 H 2711.03 -2.5604 2.90727 0
M  V30 28937 H 2711.44 -1.71965 4.95508 0
M  V30 28938 H 2712.92 -3.33642 4.39758 0
M  V30 28939 H 2713.39 -3.45951 2.70582 0
M  V30 28940 H 2714 -2.1097 3.69286 0
M  V30 28941 N 2712.31 -1.49846 -0.48825 0
M  V30 28942 C 2713.56 -1.59659 -1.23909 0
M  V30 28943 C 2713.88 -0.291039 -1.92816 0
M  V30 28944 O 2713.15 0.690453 -1.83329 0
M  V30 28945 H 2711.73 -0.588294 -0.460347 0
M  V30 28946 H 2714.39 -1.86538 -0.564761 0
M  V30 28947 H 2713.49 -2.39912 -1.99621 0
M  V30 28948 N 2713.79 0.740218 -1.39135 0
M  V30 28949 C 2714.75 1.83585 -1.3722 0
M  V30 28950 C 2715.75 1.58513 -0.270249 0
M  V30 28951 O 2716.94 1.66009 -0.527872 0
M  V30 28952 C 2714.08 3.21286 -1.13964 0
M  V30 28953 H 2715.27 1.86687 -2.34708 0
M  V30 28954 H 2712.82 0.943328 -1.24623 0
M  V30 28955 H 2713.56 3.23847 -0.171367 0
M  V30 28956 H 2713.34 3.40881 -1.9376 0
M  V30 28957 H 2714.83 4.01352 -1.15353 0
M  V30 28958 N 2715.27 1.24225 0.969846 0
M  V30 28959 C 2716.68 1.07401 1.52715 0
M  V30 28960 C 2717.03 -0.355265 1.92957 0
M  V30 28961 O 2716.16 -1.24337 1.77114 0
M  V30 28962 C 2716.75 1.94344 2.77517 0
M  V30 28963 C 2715.31 1.8175 3.29612 0
M  V30 28964 C 2714.46 1.89408 2.02533 0
M  V30 28965 H 2717.41 1.37733 0.788374 0
M  V30 28966 H 2717.43 1.47445 3.50771 0
M  V30 28967 H 2716.94 2.98361 2.48198 0
M  V30 28968 H 2715.04 0.805569 3.63787 0
M  V30 28969 H 2715.16 2.65725 3.98656 0
M  V30 28970 H 2713.52 1.33112 2.17148 0
M  V30 28971 H 2714.3 2.95002 1.75581 0
M  V30 28972 N 2716.75 -1.1702 1.05565 0
M  V30 28973 C 2718 -1.87002 0.766452 0
M  V30 28974 C 2718.32 -1.81661 -0.708822 0
M  V30 28975 O 2717.59 -1.24513 -1.5124 0
M  V30 28976 H 2716.17 -0.692324 0.280528 0
M  V30 28977 H 2718.83 -1.41943 1.3356 0
M  V30 28978 H 2717.92 -2.92642 1.08477 0
M  V30 28979 N 2718.23 -0.837197 -1.33524 0
M  V30 28980 C 2719.47 -0.428421 -1.97098 0
M  V30 28981 C 2719.79 1.01731 -1.67063 0
M  V30 28982 O 2720.99 1.53068 -2.24237 0
M  V30 28983 C 2719.45 -0.715137 -3.52723 0
M  V30 28984 C 2719.06 -2.17543 -3.91636 0
M  V30 28985 C 2720.8 -0.373229 -4.22856 0
M  V30 28986 C 2718.71 -2.40629 -5.40233 0
M  V30 28987 H 2717.64 -0.156468 -0.737587 0
M  V30 28988 H 2720.29 -1.02555 -1.52167 0
M  V30 28989 H 2718.67 -0.04766 -3.95971 0
M  V30 28990 H 2719.85 -2.88325 -3.59451 0
M  V30 28991 H 2718.16 -2.48016 -3.34481 0
M  V30 28992 H 2720.76 -0.523357 -5.32133 0
M  V30 28993 H 2721.1 0.683636 -4.10648 0
M  V30 28994 H 2721.63 -0.995869 -3.85133 0
M  V30 28995 H 2718.37 -3.44874 -5.57443 0
M  V30 28996 H 2717.89 -1.74406 -5.73884 0
M  V30 28997 H 2719.57 -2.23699 -6.07098 0
M  V30 28998 N 2719.7 1.45999 -0.593476 0
M  V30 28999 C 2720.98 1.95594 -0.0158277 0
M  V30 29000 C 2721.36 1.53607 1.44804 0
M  V30 29001 O 2720.71 0.791862 2.1434 0
M  V30 29002 C 2720.92 3.48431 -0.199143 0
M  V30 29003 C 2722.27 4.24538 -0.072569 0
M  V30 29004 O 2723.29 3.55968 -0.128532 0
M  V30 29005 O 2722.15 5.46473 0.0541465 0
M  V30 29006 H 2719.24 0.825843 0.0437345 0
M  V30 29007 H 2721.79 1.56232 -0.662549 0
M  V30 29008 H 2720.56 3.71914 -1.21637 0
M  V30 29009 H 2720.18 3.94649 0.483507 0
M  V30 29010 N 2721.18 0.331843 1.54067 0
M  V30 29011 C 2722.15 -0.517729 2.23276 0
M  V30 29012 C 2723.15 -1.03695 1.22898 0
M  V30 29013 O 2724.34 -0.928058 1.4742 0
M  V30 29014 C 2721.47 -1.71998 2.94329 0
M  V30 29015 H 2722.66 0.0874034 2.99773 0
M  V30 29016 H 2720.21 0.0830317 1.56079 0
M  V30 29017 H 2720.95 -2.36413 2.2199 0
M  V30 29018 H 2720.73 -1.355 3.67943 0
M  V30 29019 H 2722.22 -2.32285 3.47035 0
M  V30 29020 N 2722.66 -1.57485 0.0601958 0
M  V30 29021 C 2723.91 -1.92221 -0.611067 0
M  V30 29022 C 2724.22 -0.941189 -1.71467 0
M  V30 29023 O 2725.43 -1.18093 -2.44471 0
M  V30 29024 C 2723.88 -3.41426 -1.13826 0
M  V30 29025 C 2723.49 -4.47951 -0.0662809 0
M  V30 29026 C 2725.24 -3.85182 -1.78425 0
M  V30 29027 C 2723.14 -5.88278 -0.606862 0
M  V30 29028 H 2722.07 -0.717414 -0.232021 0
M  V30 29029 H 2724.72 -1.83035 0.13055 0
M  V30 29030 H 2723.11 -3.45646 -1.93247 0
M  V30 29031 H 2724.28 -4.55332 0.707762 0
M  V30 29032 H 2722.6 -4.13592 0.482788 0
M  V30 29033 H 2725.19 -4.87398 -2.19881 0
M  V30 29034 H 2725.54 -3.21917 -2.6396 0
M  V30 29035 H 2726.07 -3.83516 -1.05644 0
M  V30 29036 H 2722.81 -6.5516 0.211065 0
M  V30 29037 H 2722.33 -5.8444 -1.34869 0
M  V30 29038 H 2724.01 -6.37805 -1.08693 0
M  V30 29039 N 2724.14 0.213268 -1.5615 0
M  V30 29040 C 2725.09 1.28391 -1.93955 0
M  V30 29041 C 2726.08 1.48086 -0.822618 0
M  V30 29042 O 2727.29 1.49162 -1.00751 0
M  V30 29043 H 2723.66 0.430635 -0.616488 0
M  V30 29044 H 2725.63 0.937927 -2.83276 0
M  V30 29045 C 2724.38 2.62533 -2.27973 0
M  V30 29046 H 2723.7 2.48188 -3.13437 0
M  V30 29047 H 2725.14 3.36238 -2.58303 0
M  V30 29048 C 2723.6 3.18165 -1.10781 0
M  V30 29049 O 2724.13 3.99962 -0.373272 0
M  V30 29050 N 2722.34 2.76654 -0.889426 0
M  V30 29051 H 2721.89 2.10244 -1.48847 0
M  V30 29052 H 2721.84 3.14218 -0.107055 0
M  V30 29053 N 2725.62 1.50103 0.480296 0
M  V30 29054 C 2726.55 1.62922 1.59786 0
M  V30 29055 C 2727.53 0.477585 1.55428 0
M  V30 29056 O 2728.71 0.695882 1.75185 0
M  V30 29057 C 2725.84 1.60331 2.98348 0
M  V30 29058 C 2724.88 2.80943 3.20894 0
M  V30 29059 S 2725.72 4.42365 3.01784 0
M  V30 29060 C 2726.87 4.42452 4.42704 0
M  V30 29061 H 2727.11 2.57457 1.48672 0
M  V30 29062 H 2724.64 1.39251 0.666971 0
M  V30 29063 H 2726.6 1.59521 3.78237 0
M  V30 29064 H 2725.26 0.670473 3.06861 0
M  V30 29065 H 2724.45 2.75408 4.22097 0
M  V30 29066 H 2724.05 2.79272 2.48763 0
M  V30 29067 H 2726.35 4.15447 5.35173 0
M  V30 29068 H 2727.29 5.44003 4.53284 0
M  V30 29069 H 2727.7 3.72271 4.24352 0
M  V30 29070 N 2727.09 -0.732829 1.39526 0
M  V30 29071 C 2728.37 -1.48441 1.27376 0
M  V30 29072 C 2728.75 -2.10783 -0.115688 0
M  V30 29073 O 2728.1 -1.98768 -1.12709 0
M  V30 29074 C 2728.31 -2.53407 2.3997 0
M  V30 29075 C 2729.66 -3.19729 2.7939 0
M  V30 29076 O 2730.68 -2.63721 2.39436 0
M  V30 29077 O 2729.54 -4.21079 3.4836 0
M  V30 29078 H 2726.63 -0.659276 0.499283 0
M  V30 29079 H 2729.18 -0.766469 1.51405 0
M  V30 29080 H 2727.95 -2.05736 3.32849 0
M  V30 29081 H 2727.58 -3.32758 2.17618 0
M  V30 29082 N 2728.57 -1.24737 -0.963244 0
M  V30 29083 C 2729.8 -1.11785 -1.74697 0
M  V30 29084 C 2730.22 0.325226 -1.85267 0
M  V30 29085 O 2729.58 1.23551 -1.32683 0
M  V30 29086 C 2729.63 -1.76737 -3.14319 0
M  V30 29087 O 2728.73 -1.04116 -3.99041 0
M  V30 29088 H 2728.07 -0.390777 -0.536833 0
M  V30 29089 H 2730.6 -1.65133 -1.20798 0
M  V30 29090 H 2730.61 -1.82674 -3.64821 0
M  V30 29091 H 2729.29 -2.81732 -3.05941 0
M  V30 29092 H 2727.87 -1.05998 -3.57518 0
M  V30 29093 N 2730.05 1.16459 -1.06184 0
M  V30 29094 C 2731.28 1.91407 -0.798633 0
M  V30 29095 C 2731.7 1.76843 0.640956 0
M  V30 29096 O 2731.06 1.09298 1.4465 0
M  V30 29097 C 2731.11 3.40163 -1.19671 0
M  V30 29098 O 2730.21 4.11038 -0.33484 0
M  V30 29099 H 2729.55 0.596363 -0.291972 0
M  V30 29100 H 2732.08 1.47555 -1.41735 0
M  V30 29101 H 2732.09 3.90931 -1.16779 0
M  V30 29102 H 2730.77 3.50083 -2.24532 0
M  V30 29103 H 2729.34 3.70468 -0.425233 0
M  V30 29104 N 2731.53 0.844266 1.33079 0
M  V30 29105 C 2732.94 0.498597 1.79919 0
M  V30 29106 C 2733.29 -0.982804 1.6981 0
M  V30 29107 O 2732.42 -1.76608 1.25054 0
M  V30 29108 C 2733.01 0.898261 3.26675 0
M  V30 29109 C 2731.57 0.604648 3.71512 0
M  V30 29110 C 2730.72 1.10366 2.54391 0
M  V30 29111 H 2733.67 1.03246 1.20524 0
M  V30 29112 H 2733.69 0.210457 3.79918 0
M  V30 29113 H 2733.2 1.97649 3.34001 0
M  V30 29114 H 2731.3 -0.463285 3.69709 0
M  V30 29115 H 2731.41 1.16366 4.64753 0
M  V30 29116 H 2729.78 0.524317 2.49245 0
M  V30 29117 H 2730.56 2.18878 2.64476 0
M  V30 29118 N 2733.01 -1.45682 0.60121 0
M  V30 29119 C 2734.25 -2.01883 0.0937311 0
M  V30 29120 C 2734.58 -1.47294 -1.27787 0
M  V30 29121 O 2733.85 -0.664724 -1.84278 0
M  V30 29122 H 2732.43 -0.746329 0.0316598 0
M  V30 29123 H 2735.09 -1.7856 0.781169 0
M  V30 29124 H 2734.18 -3.12076 0.0386845 0
M  V30 29125 N 2734.48 -0.340009 -1.53889 0
M  V30 29126 C 2735.73 0.257586 -2.00855 0
M  V30 29127 C 2736.06 1.5084 -1.22791 0
M  V30 29128 O 2735.31 1.93346 -0.302601 0
M  V30 29129 C 2735.61 0.620673 -3.51969 0
M  V30 29130 C 2735.28 -0.53285 -4.4774 0
M  V30 29131 C 2733.94 -0.849423 -4.73644 0
M  V30 29132 C 2736.29 -1.30689 -5.04549 0
M  V30 29133 C 2733.62 -1.94247 -5.53611 0
M  V30 29134 C 2735.97 -2.39015 -5.85708 0
M  V30 29135 C 2734.64 -2.71236 -6.09908 0
M  V30 29136 H 2733.91 0.0942573 -0.734981 0
M  V30 29137 H 2736.55 -0.467192 -1.85714 0
M  V30 29138 H 2734.86 1.42611 -3.64924 0
M  V30 29139 H 2736.56 1.09488 -3.85763 0
M  V30 29140 H 2733.15 -0.276048 -4.2771 0
M  V30 29141 H 2737.33 -1.07557 -4.84505 0
M  V30 29142 H 2732.59 -2.19638 -5.70587 0
M  V30 29143 H 2736.76 -2.99426 -6.28742 0
M  V30 29144 H 2734.39 -3.56059 -6.71659 0
M  V30 29145 N 2735.96 1.57451 -0.0685468 0
M  V30 29146 C 2737.37 1.80827 0.464602 0
M  V30 29147 C 2737.73 0.982198 1.69845 0
M  V30 29148 O 2736.85 0.203772 2.15438 0
M  V30 29149 C 2737.45 3.27973 0.849663 0
M  V30 29150 C 2736 3.52206 1.32769 0
M  V30 29151 C 2735.15 2.75547 0.311283 0
M  V30 29152 H 2738.1 1.55948 -0.294275 0
M  V30 29153 H 2738.12 3.39844 1.71132 0
M  V30 29154 H 2737.64 3.8807 -0.0485419 0
M  V30 29155 H 2735.74 2.9741 2.24451 0
M  V30 29156 H 2735.85 4.60903 1.30786 0
M  V30 29157 H 2734.21 2.42208 0.787873 0
M  V30 29158 H 2735 3.3838 -0.579138 0
M  V30 29159 N 2737.44 -0.204984 1.56261 0
M  V30 29160 C 2738.67 -0.941986 1.83875 0
M  V30 29161 C 2739.08 -1.77771 0.647626 0
M  V30 29162 O 2738.42 -1.79445 -0.393067 0
M  V30 29163 C 2738.48 -1.89569 3.05457 0
M  V30 29164 C 2738.15 -1.24289 4.39774 0
M  V30 29165 C 2739.15 -0.624633 5.16134 0
M  V30 29166 C 2736.83 -1.2497 4.86506 0
M  V30 29167 C 2738.82 -0.0218996 6.37396 0
M  V30 29168 C 2736.51 -0.643125 6.07706 0
M  V30 29169 C 2737.51 -0.0302963 6.82993 0
M  V30 29170 O 2737.2 0.566795 8.01899 0
M  V30 29171 H 2736.93 -0.280843 0.614901 0
M  V30 29172 H 2739.48 -0.220249 2.04216 0
M  V30 29173 H 2737.71 -2.65686 2.80976 0
M  V30 29174 H 2739.4 -2.49964 3.19801 0
M  V30 29175 H 2740.17 -0.611581 4.81129 0
M  V30 29176 H 2736.05 -1.71609 4.27868 0
M  V30 29177 H 2739.59 0.457048 6.96101 0
M  V30 29178 H 2735.49 -0.653646 6.42182 0
M  V30 29179 H 2736.26 0.462731 8.17191 0
M  V30 29180 N 2738.92 -1.50356 -0.472329 0
M  V30 29181 C 2740.17 -1.61522 -1.22632 0
M  V30 29182 C 2740.5 -0.314029 -1.91644 0
M  V30 29183 O 2739.77 0.684414 -1.8206 0
M  V30 29184 C 2740.06 -2.79464 -2.27094 0
M  V30 29185 C 2739.91 -4.19462 -1.62394 0
M  V30 29186 C 2741.23 -2.9297 -3.28415 0
M  V30 29187 H 2738.35 -0.587881 -0.444483 0
M  V30 29188 H 2740.99 -1.82738 -0.520289 0
M  V30 29189 H 2739.14 -2.61506 -2.87309 0
M  V30 29190 H 2740.81 -4.49007 -1.05786 0
M  V30 29191 H 2739.05 -4.23777 -0.927109 0
M  V30 29192 H 2739.73 -4.97913 -2.383 0
M  V30 29193 H 2742.2 -3.09406 -2.78221 0
M  V30 29194 H 2741.08 -3.7712 -3.98838 0
M  V30 29195 H 2741.34 -2.03532 -3.92463 0
M  V30 29196 N 2740.4 0.725419 -1.39912 0
M  V30 29197 C 2741.33 1.85001 -1.35305 0
M  V30 29198 C 2742.34 1.60708 -0.260131 0
M  V30 29199 O 2743.53 1.70765 -0.519779 0
M  V30 29200 C 2740.63 3.21216 -1.08045 0
M  V30 29201 C 2739.8 3.72786 -2.288 0
M  V30 29202 C 2738.86 4.87588 -1.9785 0
M  V30 29203 O 2737.89 5.0075 -2.70625 0
M  V30 29204 N 2739.09 5.72666 -0.950468 0
M  V30 29205 H 2741.86 1.89455 -2.32222 0
M  V30 29206 H 2739.42 0.906556 -1.34139 0
M  V30 29207 H 2741.41 3.95599 -0.853424 0
M  V30 29208 H 2739.98 3.11971 -0.198284 0
M  V30 29209 H 2739.2 2.89645 -2.67394 0
M  V30 29210 H 2740.49 4.03976 -3.09324 0
M  V30 29211 H 2739.89 5.64631 -0.347535 0
M  V30 29212 H 2738.44 6.47076 -0.783346 0
M  V30 29213 N 2741.88 1.25246 0.956615 0
M  V30 29214 C 2742.79 1.07193 2.08679 0
M  V30 29215 C 2743.8 0.00962132 1.73997 0
M  V30 29216 O 2744.98 0.210139 2.00301 0
M  V30 29217 C 2742.04 0.690586 3.39753 0
M  V30 29218 C 2741.1 1.83061 3.88313 0
M  V30 29219 C 2740.34 1.46737 5.13132 0
M  V30 29220 O 2740.56 0.362129 5.69249 0
M  V30 29221 O 2739.49 2.29687 5.56352 0
M  V30 29222 H 2743.32 2.01969 2.26809 0
M  V30 29223 H 2740.9 1.04167 1.07097 0
M  V30 29224 H 2742.79 0.489945 4.18542 0
M  V30 29225 H 2741.46 -0.227924 3.22897 0
M  V30 29226 H 2740.37 2.0861 3.10536 0
M  V30 29227 H 2741.7 2.7283 4.09664 0
M  V30 29228 N 2743.35 -1.15894 1.068 0
M  V30 29229 C 2744.3 -2.20452 0.683352 0
M  V30 29230 C 2745.27 -1.62939 -0.322521 0
M  V30 29231 O 2746.46 -1.89638 -0.210242 0
M  V30 29232 C 2743.6 -3.45004 0.0813872 0
M  V30 29233 C 2742.71 -4.1674 1.13806 0
M  V30 29234 C 2741.84 -5.28826 0.501691 0
M  V30 29235 C 2740.88 -5.92371 1.54154 0
M  V30 29236 N 2740.02 -6.95938 0.92816 0
M  V30 29237 H 2744.86 -2.52706 1.57936 0
M  V30 29238 H 2742.4 -1.24114 0.789566 0
M  V30 29239 H 2744.35 -4.16224 -0.285201 0
M  V30 29240 H 2742.98 -3.13284 -0.778005 0
M  V30 29241 H 2742.04 -3.44073 1.62229 0
M  V30 29242 H 2743.35 -4.60086 1.92672 0
M  V30 29243 H 2742.5 -6.06644 0.0824228 0
M  V30 29244 H 2741.24 -4.86657 -0.318797 0
M  V30 29245 H 2740.25 -5.13269 1.97065 0
M  V30 29246 H 2741.47 -6.36617 2.36422 0
M  V30 29247 H 2739.42 -6.55874 0.128475 0
M  V30 29248 H 2739.33 -7.37682 1.65414 0
M  V30 29249 H 2740.6 -7.77667 0.534208 0
M  V30 29250 N 2744.83 -0.851312 -1.32629 0
M  V30 29251 C 2745.76 -0.308812 -2.31449 0
M  V30 29252 C 2746.74 0.590227 -1.59532 0
M  V30 29253 O 2747.93 0.511172 -1.87352 0
M  V30 29254 C 2745.06 0.506488 -3.43587 0
M  V30 29255 C 2744.01 -0.297828 -4.26963 0
M  V30 29256 C 2743.34 0.642001 -5.30832 0
M  V30 29257 C 2744.64 -1.52174 -4.9964 0
M  V30 29258 H 2746.33 -1.13452 -2.77072 0
M  V30 29259 H 2743.88 -0.546995 -1.33206 0
M  V30 29260 H 2745.83 0.896402 -4.11756 0
M  V30 29261 H 2744.55 1.36553 -2.96683 0
M  V30 29262 H 2743.21 -0.669455 -3.60436 0
M  V30 29263 H 2742.86 1.49779 -4.80182 0
M  V30 29264 H 2742.56 0.107865 -5.87501 0
M  V30 29265 H 2744.09 1.02916 -6.01864 0
M  V30 29266 H 2745.5 -1.20431 -5.60508 0
M  V30 29267 H 2743.9 -1.99357 -5.66018 0
M  V30 29268 H 2744.97 -2.28481 -4.27697 0
M  V30 29269 N 2746.31 1.45361 -0.608928 0
M  V30 29270 C 2747.54 2.06602 -0.111049 0
M  V30 29271 C 2747.95 1.45334 1.20513 0
M  V30 29272 O 2747.31 0.568008 1.73436 0
M  V30 29273 C 2747.36 3.61484 0.0336244 0
M  V30 29274 O 2747.08 4.20465 -1.23048 0
M  V30 29275 C 2748.58 4.39713 0.562805 0
M  V30 29276 H 2745.8 0.667395 -0.0694571 0
M  V30 29277 H 2748.35 1.86585 -0.83704 0
M  V30 29278 H 2746.5 3.80839 0.709949 0
M  V30 29279 H 2746.92 5.13656 -1.06103 0
M  V30 29280 H 2748.39 5.48584 0.613117 0
M  V30 29281 H 2748.87 4.09589 1.58535 0
M  V30 29282 H 2749.47 4.25226 -0.0795201 0
M  V30 29283 N 2747.79 0.348166 1.53706 0
M  V30 29284 C 2748.73 -0.506478 2.25174 0
M  V30 29285 C 2749.7 -1.09179 1.25176 0
M  V30 29286 O 2750.89 -1.12755 1.53919 0
M  V30 29287 C 2748.03 -1.64918 3.03144 0
M  V30 29288 C 2747.14 -1.09073 4.18004 0
M  V30 29289 C 2746.28 -2.20111 4.83451 0
M  V30 29290 C 2745.32 -1.61641 5.90372 0
M  V30 29291 N 2744.45 -2.6644 6.4958 0
M  V30 29292 H 2749.29 0.109505 2.97799 0
M  V30 29293 H 2746.83 0.0658124 1.46953 0
M  V30 29294 H 2748.79 -2.32199 3.46612 0
M  V30 29295 H 2747.42 -2.23608 2.32807 0
M  V30 29296 H 2746.47 -0.308717 3.79145 0
M  V30 29297 H 2747.78 -0.623091 4.94893 0
M  V30 29298 H 2746.94 -2.95248 5.30013 0
M  V30 29299 H 2745.68 -2.7022 4.05996 0
M  V30 29300 H 2744.68 -0.850114 5.43188 0
M  V30 29301 H 2745.91 -1.12378 6.69737 0
M  V30 29302 H 2743.85 -3.15795 5.74987 0
M  V30 29303 H 2743.77 -2.24312 7.21956 0
M  V30 29304 H 2745.04 -3.41332 7.00795 0
M  V30 29305 N 2749.27 -1.57412 0.0768958 0
M  V30 29306 C 2750.68 -1.57129 -0.279745 0
M  V30 29307 C 2750.88 -1.08669 -1.69686 0
M  V30 29308 O 2749.94 -0.754886 -2.40952 0
M  V30 29309 C 2751.25 -3.00581 -0.0847526 0
M  V30 29310 C 2752.8 -3.12621 -0.153899 0
M  V30 29311 C 2753.27 -4.57998 0.0128751 0
M  V30 29312 N 2754.76 -4.6318 -0.0425621 0
M  V30 29313 C 2755.5 -5.73366 0.06199 0
M  V30 29314 N 2755 -6.92449 0.220351 0
M  V30 29315 N 2756.79 -5.621 0.00455952 0
M  V30 29316 H 2748.94 -1.87226 1.003 0
M  V30 29317 H 2751.2 -0.863347 0.391581 0
M  V30 29318 H 2750.91 -3.40166 0.89331 0
M  V30 29319 H 2750.78 -3.67844 -0.834896 0
M  V30 29320 H 2753.17 -2.72919 -1.12245 0
M  V30 29321 H 2753.25 -2.47986 0.627433 0
M  V30 29322 H 2752.89 -4.98391 0.978216 0
M  V30 29323 H 2752.82 -5.20672 -0.787924 0
M  V30 29324 H 2755.32 -3.77548 -0.16316 0
M  V30 29325 H 2755.63 -7.72248 0.292135 0
M  V30 29326 H 2753.97 -6.94529 0.25578 0
M  V30 29327 H 2757.16 -4.67952 -0.117897 0
M  V30 29328 H 2757.34 -6.47938 0.0894935 0
M  V30 29329 N 2750.74 0.196695 -1.56368 0
M  V30 29330 C 2752.02 0.943129 -1.71361 0
M  V30 29331 C 2752.4 2.01442 -0.631228 0
M  V30 29332 O 2751.75 2.25678 0.358032 0
M  V30 29333 C 2751.96 1.531 -3.13626 0
M  V30 29334 C 2753.31 2.01374 -3.7381 0
M  V30 29335 O 2754.33 1.62946 -3.16744 0
M  V30 29336 O 2753.19 2.72082 -4.73955 0
M  V30 29337 H 2750.28 0.442183 -0.698859 0
M  V30 29338 H 2752.83 0.186517 -1.68672 0
M  V30 29339 H 2751.6 0.758717 -3.83874 0
M  V30 29340 H 2751.23 2.35249 -3.20536 0
M  V30 29341 N 2752.22 1.50604 0.464349 0
M  V30 29342 C 2753.15 1.72892 1.56941 0
M  V30 29343 C 2754.13 0.578025 1.59978 0
M  V30 29344 O 2755.32 0.817886 1.76137 0
M  V30 29345 C 2752.45 1.82925 2.95222 0
M  V30 29346 C 2751.4 2.98167 3.07051 0
M  V30 29347 C 2750.73 2.9335 4.47045 0
M  V30 29348 C 2752.03 4.38572 2.8364 0
M  V30 29349 H 2753.72 2.65417 1.38542 0
M  V30 29350 H 2751.27 1.27722 0.665059 0
M  V30 29351 H 2753.22 1.97101 3.72464 0
M  V30 29352 H 2751.95 0.870264 3.14792 0
M  V30 29353 H 2750.6 2.83652 2.32243 0
M  V30 29354 H 2750.25 1.95284 4.63544 0
M  V30 29355 H 2749.95 3.7072 4.55895 0
M  V30 29356 H 2751.48 3.09584 5.26298 0
M  V30 29357 H 2752.89 4.53578 3.50628 0
M  V30 29358 H 2751.29 5.17444 3.03928 0
M  V30 29359 H 2752.36 4.50475 1.79443 0
M  V30 29360 N 2753.7 -0.717989 1.40295 0
M  V30 29361 C 2754.95 -1.47337 1.37748 0
M  V30 29362 C 2755.26 -1.95592 -0.018041 0
M  V30 29363 O 2756.47 -2.70991 -0.166118 0
M  V30 29364 C 2754.92 -2.66314 2.42085 0
M  V30 29365 C 2754.53 -2.24939 3.87436 0
M  V30 29366 C 2756.28 -3.44061 2.48641 0
M  V30 29367 C 2754.18 -3.4074 4.83374 0
M  V30 29368 H 2753.11 -0.553347 0.512175 0
M  V30 29369 H 2755.76 -0.781632 1.6602 0
M  V30 29370 H 2754.15 -3.37646 2.06909 0
M  V30 29371 H 2755.32 -1.61042 4.31743 0
M  V30 29372 H 2753.64 -1.60242 3.84333 0
M  V30 29373 H 2756.23 -4.30225 3.17506 0
M  V30 29374 H 2756.58 -3.87708 1.51618 0
M  V30 29375 H 2757.11 -2.7977 2.82796 0
M  V30 29376 H 2753.85 -3.02126 5.81722 0
M  V30 29377 H 2753.37 -4.0356 4.43733 0
M  V30 29378 H 2755.05 -4.06839 5.03081 0
M  V30 29379 N 2755.18 -1.25752 -0.94996 0
M  V30 29380 C 2756.42 -1.1195 -1.6982 0
M  V30 29381 C 2756.78 0.335301 -1.89456 0
M  V30 29382 O 2756.07 1.24334 -1.4578 0
M  V30 29383 C 2756.27 -1.81242 -3.08036 0
M  V30 29384 C 2756.1 -3.33311 -3.01884 0
M  V30 29385 C 2754.87 -4.02578 -3.05384 0
M  V30 29386 C 2757.06 -4.29638 -2.82693 0
M  V30 29387 N 2755.05 -5.41386 -2.89439 0
M  V30 29388 C 2756.42 -5.55563 -2.75228 0
M  V30 29389 C 2758.47 -4.19996 -2.67409 0
M  V30 29390 C 2757.17 -6.72946 -2.54039 0
M  V30 29391 C 2759.2 -5.37077 -2.47592 0
M  V30 29392 C 2758.56 -6.61944 -2.40851 0
M  V30 29393 H 2754.66 -0.464389 -0.62918 0
M  V30 29394 H 2757.25 -1.58917 -1.12487 0
M  V30 29395 H 2755.42 -1.36763 -3.63525 0
M  V30 29396 H 2757.15 -1.60141 -3.71668 0
M  V30 29397 H 2753.9 -3.53872 -3.14756 0
M  V30 29398 H 2754.33 -6.14246 -2.84658 0
M  V30 29399 H 2758.97 -3.24201 -2.71392 0
M  V30 29400 H 2756.69 -7.68847 -2.48797 0
M  V30 29401 H 2760.27 -5.31481 -2.36684 0
M  V30 29402 H 2759.15 -7.51013 -2.25719 0
M  V30 29403 N 2756.66 1.15326 -1.07413 0
M  V30 29404 C 2757.59 2.22235 -0.716511 0
M  V30 29405 C 2758.57 1.67499 0.296344 0
M  V30 29406 O 2759.75 1.93464 0.168955 0
M  V30 29407 C 2756.88 3.47112 -0.114203 0
M  V30 29408 C 2755.84 4.14812 -1.05428 0
M  V30 29409 C 2755.16 5.33773 -0.314698 0
M  V30 29410 C 2756.46 4.64504 -2.38816 0
M  V30 29411 H 2758.16 2.52406 -1.61033 0
M  V30 29412 H 2755.7 1.2132 -0.775723 0
M  V30 29413 H 2757.66 4.2114 0.147927 0
M  V30 29414 H 2756.38 3.16276 0.814699 0
M  V30 29415 H 2755.04 3.42725 -1.30134 0
M  V30 29416 H 2754.69 4.99193 0.617685 0
M  V30 29417 H 2754.39 5.80011 -0.941311 0
M  V30 29418 H 2755.91 6.1057 -0.060382 0
M  V30 29419 H 2757.32 5.30056 -2.18433 0
M  V30 29420 H 2755.72 5.21407 -2.97078 0
M  V30 29421 H 2756.79 3.80109 -3.01074 0
M  V30 29422 N 2758.13 0.858334 1.32176 0
M  V30 29423 C 2759.41 0.384658 1.9178 0
M  V30 29424 C 2759.79 -1.13214 1.78173 0
M  V30 29425 O 2759.14 -1.95545 1.18213 0
M  V30 29426 C 2759.35 0.853107 3.38413 0
M  V30 29427 C 2760.7 0.872432 4.1554 0
M  V30 29428 O 2761.72 0.797987 3.47146 0
M  V30 29429 O 2760.58 0.978103 5.37676 0
M  V30 29430 H 2757.67 0.1129 0.819257 0
M  V30 29431 H 2760.22 0.945477 1.40921 0
M  V30 29432 H 2758.99 1.89638 3.42277 0
M  V30 29433 H 2758.62 0.269943 3.96683 0
M  V30 29434 N 2759.61 -1.45036 0.616628 0
M  V30 29435 C 2760.52 -2.34393 -0.0984989 0
M  V30 29436 C 2761.54 -1.51773 -0.850944 0
M  V30 29437 O 2762.71 -1.84547 -0.806488 0
M  V30 29438 C 2759.78 -3.29534 -1.07742 0
M  V30 29439 C 2758.84 -4.28061 -0.325946 0
M  V30 29440 C 2758.07 -5.18656 -1.25824 0
M  V30 29441 O 2758.3 -5.12869 -2.49643 0
M  V30 29442 O 2757.23 -5.97204 -0.750407 0
M  V30 29443 H 2761.06 -2.96964 0.636068 0
M  V30 29444 H 2758.64 -1.44569 0.376857 0
M  V30 29445 H 2760.52 -3.88135 -1.641 0
M  V30 29446 H 2759.2 -2.69515 -1.79286 0
M  V30 29447 H 2758.11 -3.73048 0.280319 0
M  V30 29448 H 2759.44 -4.9096 0.349177 0
M  V30 29449 N 2761.09 -0.356312 -1.53519 0
M  V30 29450 C 2762.04 0.50974 -2.26946 0
M  V30 29451 C 2763.03 1.09123 -1.29571 0
M  V30 29452 O 2764.24 1.0355 -1.47233 0
M  V30 29453 H 2760.61 0.183089 -0.729371 0
M  V30 29454 H 2762.58 -0.131427 -2.9811 0
M  V30 29455 C 2761.33 1.64232 -3.06469 0
M  V30 29456 H 2760.66 1.20416 -3.81235 0
M  V30 29457 H 2762.1 2.22321 -3.61039 0
M  V30 29458 C 2760.56 2.57924 -2.16742 0
M  V30 29459 O 2761.09 3.60503 -1.77201 0
M  V30 29460 N 2759.29 2.269 -1.81562 0
M  V30 29461 H 2758.84 1.4352 -2.13915 0
M  V30 29462 H 2758.8 2.89844 -1.21812 0
M  V30 29463 N 2762.57 1.57369 -0.0852427 0
M  V30 29464 C 2763.82 1.9361 0.579624 0
M  V30 29465 C 2764.14 0.967072 1.6933 0
M  V30 29466 O 2763.41 0.0174559 1.95892 0
M  V30 29467 H 2761.99 0.714756 0.217101 0
M  V30 29468 H 2764.65 1.9435 -0.14626 0
M  V30 29469 H 2763.75 2.95773 0.996224 0
M  V30 29470 N 2764.05 -0.188399 1.5647 0
M  V30 29471 C 2764.98 -1.23602 1.98103 0
M  V30 29472 C 2765.96 -1.47109 0.853986 0
M  V30 29473 O 2767.14 -1.58733 1.11881 0
M  V30 29474 C 2764.27 -2.57878 2.32629 0
M  V30 29475 C 2763.23 -2.48972 3.48134 0
M  V30 29476 C 2762.55 -3.87582 3.68354 0
M  V30 29477 C 2763.85 -2.00903 4.82115 0
M  V30 29478 H 2765.55 -0.890018 2.85865 0
M  V30 29479 H 2763.09 -0.42669 1.37533 0
M  V30 29480 H 2765.05 -3.31355 2.60349 0
M  V30 29481 H 2763.77 -2.94233 1.41756 0
M  V30 29482 H 2762.43 -1.7795 3.20514 0
M  V30 29483 H 2762.08 -4.213 2.748 0
M  V30 29484 H 2761.78 -3.82496 4.46062 0
M  V30 29485 H 2763.3 -4.62671 3.98457 0
M  V30 29486 H 2764.71 -2.64142 5.08824 0
M  V30 29487 H 2763.11 -2.06804 5.6334 0
M  V30 29488 H 2764.18 -0.962536 4.75251 0
M  V30 29489 N 2765.53 -1.50848 -0.456355 0
M  V30 29490 C 2766.46 -1.73722 -1.56022 0
M  V30 29491 C 2767.44 -0.586501 -1.59669 0
M  V30 29492 O 2768.62 -0.827216 -1.75701 0
M  V30 29493 C 2765.75 -1.84488 -2.94247 0
M  V30 29494 C 2764.71 -2.99791 -3.05466 0
M  V30 29495 C 2764.03 -2.95717 -4.45483 0
M  V30 29496 C 2765.33 -4.4007 -2.8131 0
M  V30 29497 H 2767.03 -2.66148 -1.37133 0
M  V30 29498 H 2764.57 -1.28073 -0.658277 0
M  V30 29499 H 2766.52 -1.99074 -3.71413 0
M  V30 29500 H 2765.25 -0.886946 -3.14326 0
M  V30 29501 H 2763.91 -2.8488 -2.30736 0
M  V30 29502 H 2763.56 -1.9774 -4.62502 0
M  V30 29503 H 2763.26 -3.73133 -4.53923 0
M  V30 29504 H 2764.78 -3.12371 -5.24649 0
M  V30 29505 H 2766.19 -4.55431 -3.48218 0
M  V30 29506 H 2764.59 -5.19048 -3.01179 0
M  V30 29507 H 2765.66 -4.51421 -1.77052 0
M  V30 29508 N 2767 0.710538 -1.40674 0
M  V30 29509 C 2767.93 1.83734 -1.44098 0
M  V30 29510 C 2768.91 1.6741 -0.301315 0
M  V30 29511 O 2770.1 1.87366 -0.510651 0
M  V30 29512 C 2767.23 3.21736 -1.30779 0
M  V30 29513 C 2766.18 3.5274 -2.42401 0
M  V30 29514 C 2765.51 4.8994 -2.14156 0
M  V30 29515 C 2766.81 3.53227 -3.84744 0
M  V30 29516 H 2768.5 1.81125 -2.38399 0
M  V30 29517 H 2766.05 0.869996 -1.14748 0
M  V30 29518 H 2768 4.00262 -1.3179 0
M  V30 29519 H 2766.73 3.24933 -0.329565 0
M  V30 29520 H 2765.39 2.76558 -2.40648 0
M  V30 29521 H 2765.03 4.89745 -1.14712 0
M  V30 29522 H 2764.73 5.1165 -2.88943 0
M  V30 29523 H 2766.26 5.70793 -2.16858 0
M  V30 29524 H 2767.67 4.21783 -3.88293 0
M  V30 29525 H 2766.07 3.86465 -4.59091 0
M  V30 29526 H 2767.14 2.52506 -4.13967 0
M  V30 29527 N 2768.48 1.26254 0.943277 0
M  V30 29528 C 2769.73 1.11454 1.6859 0
M  V30 29529 C 2770.05 -0.343089 1.91958 0
M  V30 29530 O 2769.32 -1.24223 1.51477 0
M  V30 29531 H 2767.9 0.409459 0.624782 0
M  V30 29532 H 2770.56 1.5855 1.13348 0
M  V30 29533 H 2769.66 1.63167 2.66051 0
M  V30 29534 N 2769.96 -1.14755 1.08024 0
M  V30 29535 C 2771.21 -1.85977 0.808738 0
M  V30 29536 C 2771.54 -1.82505 -0.663732 0
M  V30 29537 O 2770.81 -1.25299 -1.48763 0
M  V30 29538 C 2771.1 -3.34786 1.32629 0
M  V30 29539 C 2770.95 -3.46851 2.86381 0
M  V30 29540 C 2772.27 -4.2976 0.948366 0
M  V30 29541 H 2769.39 -0.675272 0.295256 0
M  V30 29542 H 2772.03 -1.3478 1.33919 0
M  V30 29543 H 2770.18 -3.78517 0.875069 0
M  V30 29544 H 2771.85 -3.11935 3.39844 0
M  V30 29545 H 2770.09 -2.88189 3.24237 0
M  V30 29546 H 2770.77 -4.51434 3.17666 0
M  V30 29547 H 2773.24 -3.94025 1.33729 0
M  V30 29548 H 2772.12 -5.32349 1.33774 0
M  V30 29549 H 2772.38 -4.41862 -0.145016 0
M  V30 29550 N 2771.44 -0.865331 -1.31719 0
M  V30 29551 C 2772.39 -0.289345 -2.26157 0
M  V30 29552 C 2773.37 0.57095 -1.50429 0
M  V30 29553 O 2774.56 0.418586 -1.71979 0
M  V30 29554 C 2771.69 0.512177 -3.39458 0
M  V30 29555 C 2770.78 -0.361102 -4.2256 0
M  V30 29556 N 2771.17 -1.4524 -4.84499 0
M  V30 29557 C 2769.47 -0.152719 -4.45738 0
M  V30 29558 C 2770.17 -1.99053 -5.46583 0
M  V30 29559 N 2769.14 -1.28818 -5.28116 0
M  V30 29560 H 2772.95 -1.12348 -2.71579 0
M  V30 29561 H 2770.46 -0.712591 -1.45931 0
M  V30 29562 H 2772.46 0.941308 -4.06134 0
M  V30 29563 H 2771.12 1.34398 -2.95579 0
M  V30 29564 H 2772.13 -1.83532 -4.84289 0
M  V30 29565 H 2768.81 0.643511 -4.12511 0
M  V30 29566 H 2770.2 -2.90588 -6.05812 0
M  V30 29567 N 2772.92 1.44707 -0.624311 0
M  V30 29568 C 2774.33 1.85524 -0.209233 0
M  V30 29569 C 2774.68 1.52227 1.2378 0
M  V30 29570 O 2773.8 0.95702 1.94088 0
M  V30 29571 C 2774.4 3.36741 -0.372956 0
M  V30 29572 C 2772.96 3.76398 -0.0124401 0
M  V30 29573 C 2772.1 2.6859 -0.689557 0
M  V30 29574 H 2775.05 1.3527 -0.829917 0
M  V30 29575 H 2775.08 3.78495 0.390068 0
M  V30 29576 H 2774.59 3.60944 -1.42622 0
M  V30 29577 H 2772.69 3.5781 1.03935 0
M  V30 29578 H 2772.8 4.77275 -0.417747 0
M  V30 29579 H 2771.17 2.5439 -0.125529 0
M  V30 29580 H 2771.95 2.95626 -1.74528 0
M  V30 29581 N 2774.39 0.364449 1.53328 0
M  V30 29582 C 2775.81 0.0133446 1.59594 0
M  V30 29583 C 2776.01 -1.46863 1.37962 0
M  V30 29584 O 2775.07 -2.23008 1.18422 0
M  V30 29585 C 2776.38 0.468265 2.97032 0
M  V30 29586 C 2777.93 0.422388 3.10137 0
M  V30 29587 C 2778.4 0.853103 4.49985 0
M  V30 29588 N 2779.89 0.808117 4.56096 0
M  V30 29589 C 2780.63 1.11309 5.62493 0
M  V30 29590 N 2780.12 1.48728 6.76647 0
M  V30 29591 N 2781.92 1.03596 5.52471 0
M  V30 29592 H 2774.07 1.32954 1.65641 0
M  V30 29593 H 2776.33 0.543359 0.77683 0
M  V30 29594 H 2776.04 1.50236 3.17997 0
M  V30 29595 H 2775.91 -0.145709 3.76918 0
M  V30 29596 H 2778.3 -0.602572 2.88882 0
M  V30 29597 H 2778.38 1.07184 2.32261 0
M  V30 29598 H 2778.02 1.87617 4.71977 0
M  V30 29599 H 2777.95 0.180911 5.26289 0
M  V30 29600 H 2780.44 0.532427 3.7413 0
M  V30 29601 H 2780.76 1.70428 7.53773 0
M  V30 29602 H 2779.1 1.52593 6.78042 0
M  V30 29603 H 2782.29 0.742817 4.62169 0
M  V30 29604 H 2782.47 1.27697 6.35293 0
M  V30 29605 N 2775.87 -1.57322 0.0935872 0
M  V30 29606 C 2776.8 -2.16966 -0.863024 0
M  V30 29607 C 2777.78 -1.10258 -1.29527 0
M  V30 29608 O 2778.97 -1.38389 -1.36243 0
M  V30 29609 C 2776.1 -2.74878 -2.12272 0
M  V30 29610 C 2775.05 -3.86945 -1.82915 0
M  V30 29611 C 2774.38 -4.31553 -3.15699 0
M  V30 29612 C 2775.68 -5.1021 -1.11728 0
M  V30 29613 H 2777.37 -2.97153 -0.366093 0
M  V30 29614 H 2774.92 -1.42937 -0.174647 0
M  V30 29615 H 2776.87 -3.15255 -2.79629 0
M  V30 29616 H 2775.59 -1.91943 -2.64245 0
M  V30 29617 H 2774.25 -3.47105 -1.17955 0
M  V30 29618 H 2773.9 -3.4551 -3.65557 0
M  V30 29619 H 2773.6 -5.07109 -2.9684 0
M  V30 29620 H 2775.13 -4.74562 -3.84217 0
M  V30 29621 H 2776.54 -5.47765 -1.69193 0
M  V30 29622 H 2774.94 -5.91185 -1.03053 0
M  V30 29623 H 2776.01 -4.84797 -0.0997966 0
M  V30 29624 N 2777.35 0.180099 -1.56568 0
M  V30 29625 C 2778.31 1.20683 -1.94854 0
M  V30 29626 C 2779.31 1.37648 -0.831237 0
M  V30 29627 O 2780.5 1.35204 -1.09843 0
M  V30 29628 C 2777.63 2.57351 -2.2357 0
M  V30 29629 H 2778.83 0.879174 -2.86724 0
M  V30 29630 H 2776.38 0.42221 -1.50489 0
M  V30 29631 H 2777.12 2.95146 -1.34386 0
M  V30 29632 H 2776.9 2.46405 -3.05003 0
M  V30 29633 H 2778.39 3.31362 -2.54143 0
M  V30 29634 N 2778.83 1.51088 0.448349 0
M  V30 29635 C 2779.76 1.67786 1.56143 0
M  V30 29636 C 2780.77 0.558737 1.52912 0
M  V30 29637 O 2781.96 0.832698 1.57887 0
M  V30 29638 C 2779.06 1.66721 2.95055 0
M  V30 29639 C 2778.23 2.95039 3.2291 0
M  V30 29640 C 2777.29 2.8631 4.41489 0
M  V30 29641 O 2776.32 3.60261 4.40682 0
M  V30 29642 N 2777.52 2.0141 5.4444 0
M  V30 29643 H 2780.29 2.63802 1.42227 0
M  V30 29644 H 2777.85 1.48836 0.637127 0
M  V30 29645 H 2779.84 1.58464 3.72386 0
M  V30 29646 H 2778.41 0.783456 3.02623 0
M  V30 29647 H 2777.63 3.17249 2.3398 0
M  V30 29648 H 2778.92 3.80002 3.38343 0
M  V30 29649 H 2778.32 1.40683 5.47928 0
M  V30 29650 H 2776.87 1.9904 6.20666 0
M  V30 29651 N 2780.31 -0.703068 1.41049 0
M  V30 29652 C 2781.72 -1.01273 1.23353 0
M  V30 29653 C 2781.92 -2.01157 0.117575 0
M  V30 29654 O 2780.98 -2.47078 -0.520475 0
M  V30 29655 C 2782.29 -1.54449 2.58004 0
M  V30 29656 C 2783.84 -1.66371 2.65122 0
M  V30 29657 C 2784.31 -2.22951 4.00071 0
M  V30 29658 N 2785.81 -2.30321 4.01879 0
M  V30 29659 C 2786.54 -2.75111 5.03092 0
M  V30 29660 N 2786.04 -3.1956 6.14698 0
M  V30 29661 N 2787.83 -2.74607 4.90456 0
M  V30 29662 H 2779.98 -0.0412313 2.1236 0
M  V30 29663 H 2782.24 -0.0808734 0.944544 0
M  V30 29664 H 2781.95 -0.88515 3.40379 0
M  V30 29665 H 2781.82 -2.52781 2.79967 0
M  V30 29666 H 2784.21 -2.31419 1.8311 0
M  V30 29667 H 2784.29 -0.666046 2.46977 0
M  V30 29668 H 2783.94 -1.58521 4.82528 0
M  V30 29669 H 2783.87 -3.23455 4.15553 0
M  V30 29670 H 2786.36 -1.98943 3.21294 0
M  V30 29671 H 2786.67 -3.5234 6.87805 0
M  V30 29672 H 2785.01 -3.17488 6.18245 0
M  V30 29673 H 2788.21 -2.39225 4.02354 0
M  V30 29674 H 2788.38 -3.09196 5.69475 0
M  V30 29675 N 2781.78 -1.26752 -0.936569 0
M  V30 29676 C 2783.03 -1.11956 -1.67776 0
M  V30 29677 C 2783.35 0.335856 -1.92695 0
M  V30 29678 O 2784.55 0.604571 -2.64683 0
M  V30 29679 C 2783.01 -1.95557 -3.02135 0
M  V30 29680 C 2782.62 -3.45702 -2.84946 0
M  V30 29681 C 2784.36 -1.89383 -3.79913 0
M  V30 29682 C 2782.27 -4.21532 -4.14807 0
M  V30 29683 H 2781.2 -0.415377 -0.629268 0
M  V30 29684 H 2783.85 -1.511 -1.0412 0
M  V30 29685 H 2782.23 -1.4925 -3.66798 0
M  V30 29686 H 2783.4 -3.99809 -2.29105 0
M  V30 29687 H 2781.72 -3.5316 -2.20606 0
M  V30 29688 H 2784.32 -2.4332 -4.76129 0
M  V30 29689 H 2784.66 -0.865536 -4.07203 0
M  V30 29690 H 2785.19 -2.33538 -3.22032 0
M  V30 29691 H 2781.93 -5.2485 -3.927 0
M  V30 29692 H 2781.45 -3.72204 -4.70345 0
M  V30 29693 H 2783.13 -4.30229 -4.83231 0
M  V30 29694 N 2783.26 1.1418 -1.08631 0
M  V30 29695 C 2784.19 2.21462 -0.740042 0
M  V30 29696 C 2785.17 1.67804 0.278562 0
M  V30 29697 O 2786.36 1.93632 0.148427 0
M  V30 29698 C 2783.49 3.46972 -0.151013 0
M  V30 29699 C 2782.44 4.1367 -1.09822 0
M  V30 29700 C 2781.77 5.33409 -0.371294 0
M  V30 29701 C 2783.07 4.61945 -2.4373 0
M  V30 29702 H 2784.76 2.50683 -1.63701 0
M  V30 29703 H 2782.31 1.2049 -0.788547 0
M  V30 29704 H 2784.26 4.21273 0.103251 0
M  V30 29705 H 2782.99 3.17122 0.781108 0
M  V30 29706 H 2781.64 3.41326 -1.33762 0
M  V30 29707 H 2781.29 4.9982 0.564704 0
M  V30 29708 H 2780.99 5.7898 -1.00278 0
M  V30 29709 H 2782.52 6.10472 -0.125138 0
M  V30 29710 H 2783.93 5.2771 -2.24043 0
M  V30 29711 H 2782.33 5.18226 -3.02591 0
M  V30 29712 H 2783.4 3.76894 -3.05089 0
M  V30 29713 N 2784.74 0.872304 1.31258 0
M  V30 29714 C 2785.99 0.4844 1.96621 0
M  V30 29715 C 2786.32 -0.963811 1.68941 0
M  V30 29716 O 2785.57 -1.69408 0.97977 0
M  V30 29717 C 2785.87 0.690951 3.50657 0
M  V30 29718 C 2785.54 2.11231 3.98362 0
M  V30 29719 C 2784.2 2.50101 4.111 0
M  V30 29720 C 2786.55 3.03917 4.23419 0
M  V30 29721 C 2783.88 3.80894 4.46247 0
M  V30 29722 C 2786.23 4.34228 4.60031 0
M  V30 29723 C 2784.89 4.73009 4.70976 0
M  V30 29724 H 2784.16 0.177254 0.719487 0
M  V30 29725 H 2786.81 1.10574 1.56351 0
M  V30 29726 H 2785.12 -0.0135093 3.91798 0
M  V30 29727 H 2786.81 0.370604 3.99284 0
M  V30 29728 H 2783.4 1.80053 3.88946 0
M  V30 29729 H 2787.59 2.75112 4.13071 0
M  V30 29730 H 2782.84 4.107 4.52918 0
M  V30 29731 H 2787.02 5.06096 4.78372 0
M  V30 29732 H 2784.64 5.74398 4.97966 0
M  V30 29733 N 2786.22 -1.44374 0.631976 0
M  V30 29734 C 2787.17 -2.32446 -0.0846284 0
M  V30 29735 C 2788.16 -1.47395 -0.834931 0
M  V30 29736 O 2789.37 -1.63734 -0.747735 0
M  V30 29737 H 2785.74 -0.750583 -0.0461376 0
M  V30 29738 H 2787.71 -2.90636 0.676241 0
M  V30 29739 C 2786.46 -3.31402 -1.05205 0
M  V30 29740 H 2785.78 -3.96858 -0.484133 0
M  V30 29741 H 2787.22 -3.95705 -1.52293 0
M  V30 29742 C 2785.68 -2.60391 -2.13771 0
M  V30 29743 O 2786.21 -2.40346 -3.21865 0
M  V30 29744 N 2784.42 -2.20116 -1.89729 0
M  V30 29745 H 2783.97 -2.36619 -1.01829 0
M  V30 29746 H 2783.92 -1.72931 -2.62569 0
M  V30 29747 N 2787.7 -0.372575 -1.53133 0
M  V30 29748 C 2788.92 0.215478 -2.05775 0
M  V30 29749 C 2789.34 1.41884 -1.24557 0
M  V30 29750 O 2788.7 1.80214 -0.287983 0
M  V30 29751 C 2788.75 0.602098 -3.56451 0
M  V30 29752 O 2788.47 -0.553435 -4.3459 0
M  V30 29753 C 2789.97 1.2478 -4.25376 0
M  V30 29754 H 2787.19 0.0364411 -0.67001 0
M  V30 29755 H 2789.73 -0.532968 -1.97433 0
M  V30 29756 H 2787.89 1.30045 -3.6492 0
M  V30 29757 H 2788.3 -0.239428 -5.23953 0
M  V30 29758 H 2789.78 1.46882 -5.32099 0
M  V30 29759 H 2790.25 2.2102 -3.79535 0
M  V30 29760 H 2790.86 0.590678 -4.21178 0
M  V30 29761 N 2789.17 1.5727 -0.101929 0
M  V30 29762 C 2790.42 1.94886 0.560993 0
M  V30 29763 C 2790.75 0.984287 1.67408 0
M  V30 29764 O 2790.03 0.0185108 1.94491 0
M  V30 29765 C 2790.31 3.42573 1.10976 0
M  V30 29766 C 2790.16 4.498 0.00125511 0
M  V30 29767 C 2791.48 3.91724 2.00601 0
M  V30 29768 H 2788.6 0.708647 0.202455 0
M  V30 29769 H 2791.24 1.89201 -0.174026 0
M  V30 29770 H 2789.39 3.47549 1.73614 0
M  V30 29771 H 2791.07 4.56932 -0.6333 0
M  V30 29772 H 2789.31 4.28685 -0.664218 0
M  V30 29773 H 2789.98 5.50353 0.426156 0
M  V30 29774 H 2792.46 3.88944 1.47857 0
M  V30 29775 H 2791.33 4.95613 2.35921 0
M  V30 29776 H 2791.59 3.31416 2.92602 0
M  V30 29777 N 2790.65 -0.171793 1.56661 0
M  V30 29778 C 2791.59 -1.24146 1.91476 0
M  V30 29779 C 2792.56 -1.42806 0.77751 0
M  V30 29780 O 2793.75 -1.5782 1.03078 0
M  V30 29781 C 2790.87 -2.60449 2.16527 0
M  V30 29782 C 2789.92 -2.58527 3.39214 0
M  V30 29783 S 2790.75 -2.07657 4.93598 0
M  V30 29784 C 2791.91 -3.45738 5.21743 0
M  V30 29785 H 2792.14 -0.944296 2.81905 0
M  V30 29786 H 2789.68 -0.376338 1.49743 0
M  V30 29787 H 2791.63 -3.38899 2.31641 0
M  V30 29788 H 2790.29 -2.87365 1.26807 0
M  V30 29789 H 2789.49 -3.58806 3.53941 0
M  V30 29790 H 2789.09 -1.88173 3.23214 0
M  V30 29791 H 2791.38 -4.41732 5.13692 0
M  V30 29792 H 2792.32 -3.35885 6.23367 0
M  V30 29793 H 2792.73 -3.41728 4.49313 0
M  V30 29794 N 2792.13 -1.51324 -0.44033 0
M  V30 29795 C 2793.06 -1.67101 -1.55411 0
M  V30 29796 C 2794.04 -0.518626 -1.54107 0
M  V30 29797 O 2795.23 -0.742084 -1.73278 0
M  V30 29798 C 2792.35 -1.68185 -2.93993 0
M  V30 29799 C 2791.4 -2.89352 -3.13333 0
M  V30 29800 S 2792.23 -4.50211 -2.89949 0
M  V30 29801 C 2793.39 -4.54034 -4.30818 0
M  V30 29802 H 2793.62 -2.61308 -1.41793 0
M  V30 29803 H 2791.15 -1.4097 -0.629817 0
M  V30 29804 H 2793.11 -1.69493 -3.73875 0
M  V30 29805 H 2791.77 -0.751596 -3.04975 0
M  V30 29806 H 2790.97 -2.86503 -4.14647 0
M  V30 29807 H 2790.57 -2.8577 -2.41271 0
M  V30 29808 H 2792.86 -4.29491 -5.2397 0
M  V30 29809 H 2793.8 -5.55829 -4.38702 0
M  V30 29810 H 2794.21 -3.83391 -4.14333 0
M  V30 29811 N 2793.61 0.695578 -1.41419 0
M  V30 29812 C 2794.52 1.8393 -1.45626 0
M  V30 29813 C 2795.53 1.70508 -0.346855 0
M  V30 29814 O 2796.71 1.92423 -0.594574 0
M  V30 29815 C 2793.78 3.19911 -1.33633 0
M  V30 29816 C 2792.84 3.45442 -2.54888 0
M  V30 29817 C 2792.07 4.74936 -2.43458 0
M  V30 29818 O 2792.29 5.51421 -1.45914 0
M  V30 29819 O 2791.23 5.0125 -3.33215 0
M  V30 29820 H 2795.05 1.83338 -2.42118 0
M  V30 29821 H 2792.64 0.848637 -1.22957 0
M  V30 29822 H 2794.52 4.01096 -1.29228 0
M  V30 29823 H 2793.19 3.21187 -0.402564 0
M  V30 29824 H 2792.1 2.64188 -2.64869 0
M  V30 29825 H 2793.43 3.48981 -3.47093 0
M  V30 29826 N 2795.09 1.27247 0.929833 0
M  V30 29827 C 2796.04 1.0962 2.05149 0
M  V30 29828 C 2797.03 0.0198915 1.69388 0
M  V30 29829 O 2798.24 0.177448 1.79123 0
M  V30 29830 H 2794.61 0.337713 0.671903 0
M  V30 29831 H 2796.58 2.04651 2.17164 0
M  V30 29832 C 2795.33 0.757911 3.39339 0
M  V30 29833 H 2794.65 1.57802 3.6734 0
M  V30 29834 H 2796.09 0.674432 4.18602 0
M  V30 29835 C 2794.55 -0.537599 3.32583 0
M  V30 29836 O 2795.08 -1.57264 3.69636 0
M  V30 29837 N 2793.29 -0.532427 2.85681 0
M  V30 29838 H 2792.84 0.310278 2.55725 0
M  V30 29839 H 2792.79 -1.39931 2.81543 0
M  V30 29840 N 2796.57 -1.13603 1.09235 0
M  V30 29841 C 2797.81 -1.86485 0.836818 0
M  V30 29842 C 2798.17 -1.81503 -0.626159 0
M  V30 29843 O 2799.37 -2.49605 -0.997536 0
M  V30 29844 C 2797.64 -3.30725 1.35482 0
M  V30 29845 S 2799.2 -4.21124 1.23287 0
M  V30 29846 H 2796.02 -0.643339 0.302714 0
M  V30 29847 H 2798.62 -1.36934 1.39533 0
M  V30 29848 H 2797.32 -3.31905 2.41387 0
M  V30 29849 H 2796.86 -3.85338 0.792354 0
M  V30 29850 H 2798.87 -4.95864 0.182555 0
M  V30 29851 N 2798.04 -0.879253 -1.30793 0
M  V30 29852 C 2799.27 -0.508805 -2.01062 0
M  V30 29853 C 2799.69 0.893774 -1.65509 0
M  V30 29854 O 2799.05 1.59136 -0.868644 0
M  V30 29855 C 2799.1 -0.684053 -3.54052 0
M  V30 29856 O 2798.2 0.272582 -4.11498 0
M  V30 29857 H 2797.54 -0.201202 -0.632782 0
M  V30 29858 H 2800.07 -1.18522 -1.66774 0
M  V30 29859 H 2800.08 -0.580869 -4.03844 0
M  V30 29860 H 2798.76 -1.70671 -3.79268 0
M  V30 29861 H 2797.34 0.123574 -3.72695 0
M  V30 29862 N 2799.52 1.44037 -0.639624 0
M  V30 29863 C 2800.8 1.95444 -0.0780463 0
M  V30 29864 C 2801.18 1.58136 1.39844 0
M  V30 29865 O 2800.53 0.859652 2.11713 0
M  V30 29866 C 2800.74 3.47621 -0.309893 0
M  V30 29867 C 2802.08 4.24092 -0.207596 0
M  V30 29868 O 2803.11 3.55379 -0.241715 0
M  V30 29869 O 2801.97 5.46369 -0.119737 0
M  V30 29870 H 2799.06 0.826816 0.0174388 0
M  V30 29871 H 2801.61 1.54045 -0.711918 0
M  V30 29872 H 2800.38 3.67856 -1.33408 0
M  V30 29873 H 2800 3.95988 0.357707 0
M  V30 29874 N 2801 0.380691 1.52933 0
M  V30 29875 C 2801.93 -0.450227 2.29118 0
M  V30 29876 C 2802.91 -1.07094 1.32155 0
M  V30 29877 O 2804.1 -1.08534 1.6104 0
M  V30 29878 C 2801.23 -1.58226 3.09163 0
M  V30 29879 C 2800.18 -1.08802 4.1394 0
M  V30 29880 C 2799.51 -2.31146 4.82157 0
M  V30 29881 C 2800.81 -0.162055 5.22049 0
M  V30 29882 H 2802.5 0.185413 2.98825 0
M  V30 29883 H 2800.05 0.0906139 1.43715 0
M  V30 29884 H 2802 -2.1703 3.61215 0
M  V30 29885 H 2800.72 -2.24535 2.37174 0
M  V30 29886 H 2799.38 -0.52257 3.62856 0
M  V30 29887 H 2799.03 -2.95946 4.06724 0
M  V30 29888 H 2798.73 -1.98742 5.5297 0
M  V30 29889 H 2800.25 -2.90609 5.37009 0
M  V30 29890 H 2801.67 -0.658026 5.69511 0
M  V30 29891 H 2800.06 0.0718177 6.00057 0
M  V30 29892 H 2801.13 0.791522 4.78396 0
M  V30 29893 N 2802.48 -1.57214 0.110268 0
M  V30 29894 C 2803.75 -1.86397 -0.592923 0
M  V30 29895 C 2804.13 -1.00988 -1.85377 0
M  V30 29896 O 2803.48 -0.0863994 -2.28337 0
M  V30 29897 C 2803.69 -3.37362 -0.893756 0
M  V30 29898 C 2805.04 -4.05764 -1.25062 0
M  V30 29899 O 2806.06 -3.4233 -0.984296 0
M  V30 29900 O 2804.92 -5.17721 -1.75008 0
M  V30 29901 H 2802.02 -0.771341 -0.298266 0
M  V30 29902 H 2804.56 -1.69087 0.144112 0
M  V30 29903 H 2803.34 -3.913 9.48118e-05 0
M  V30 29904 H 2802.96 -3.60071 -1.68625 0
M  V30 29905 N 2803.96 0.163482 -1.5675 0
M  V30 29906 C 2805.2 0.880136 -1.82706 0
M  V30 29907 C 2805.53 1.81554 -0.689342 0
M  V30 29908 O 2804.81 1.92043 0.30819 0
M  V30 29909 C 2805.09 1.66899 -3.19087 0
M  V30 29910 C 2804.95 0.756191 -4.43398 0
M  V30 29911 C 2806.26 2.63503 -3.52497 0
M  V30 29912 H 2803.38 0.318524 -0.664614 0
M  V30 29913 H 2806.03 0.146003 -1.89438 0
M  V30 29914 H 2804.18 2.29485 -3.13479 0
M  V30 29915 H 2805.85 0.142609 -4.6108 0
M  V30 29916 H 2804.09 0.0647181 -4.33752 0
M  V30 29917 H 2804.76 1.34383 -5.35392 0
M  V30 29918 H 2807.24 2.11041 -3.5861 0
M  V30 29919 H 2806.11 3.15759 -4.48985 0
M  V30 29920 H 2806.37 3.44077 -2.77603 0
M  V30 29921 N 2805.43 1.51555 0.432299 0
M  V30 29922 C 2806.68 1.64717 1.18306 0
M  V30 29923 C 2807.01 0.364729 1.90744 0
M  V30 29924 O 2806.29 -0.635904 1.83811 0
M  V30 29925 C 2806.57 2.85387 2.19605 0
M  V30 29926 C 2806.42 4.2362 1.51216 0
M  V30 29927 C 2807.74 3.01574 3.20532 0
M  V30 29928 H 2804.86 0.599459 0.42874 0
M  V30 29929 H 2807.5 1.84053 0.471656 0
M  V30 29930 H 2805.65 2.69032 2.80275 0
M  V30 29931 H 2807.33 4.51654 0.938437 0
M  V30 29932 H 2805.57 4.26086 0.814426 0
M  V30 29933 H 2806.24 5.04056 2.25015 0
M  V30 29934 H 2808.72 3.16674 2.6992 0
M  V30 29935 H 2807.59 3.87562 3.88699 0
M  V30 29936 H 2807.85 2.13865 3.86929 0
M  V30 29937 N 2806.91 -0.688069 1.41786 0
M  V30 29938 C 2808.16 -1.44813 1.41546 0
M  V30 29939 C 2808.49 -1.94481 0.0272088 0
M  V30 29940 O 2807.74 -1.70412 -0.962205 0
M  V30 29941 C 2808.04 -2.67042 2.37536 0
M  V30 29942 C 2807.71 -2.3599 3.84213 0
M  V30 29943 C 2806.37 -2.27232 4.24169 0
M  V30 29944 C 2808.72 -2.10527 4.76789 0
M  V30 29945 C 2806.05 -1.91119 5.54699 0
M  V30 29946 C 2808.4 -1.75921 6.07647 0
M  V30 29947 C 2807.06 -1.65664 6.46616 0
M  V30 29948 H 2806.33 -0.52991 0.517954 0
M  V30 29949 H 2808.98 -0.785766 1.74637 0
M  V30 29950 H 2807.29 -3.38248 1.97726 0
M  V30 29951 H 2808.98 -3.25199 2.34621 0
M  V30 29952 H 2805.57 -2.43703 3.52571 0
M  V30 29953 H 2809.76 -2.16234 4.46718 0
M  V30 29954 H 2805.01 -1.81736 5.83765 0
M  V30 29955 H 2809.19 -1.5524 6.78877 0
M  V30 29956 H 2806.81 -1.37449 7.47671 0
M  V30 29957 N 2808.39 -1.27739 -0.923072 0
M  V30 29958 C 2809.62 -1.17174 -1.70523 0
M  V30 29959 C 2810.03 0.270848 -1.86847 0
M  V30 29960 O 2809.39 1.18399 -1.38881 0
M  V30 29961 C 2809.44 -1.85564 -3.10239 0
M  V30 29962 O 2809.16 -3.24187 -2.94677 0
M  V30 29963 C 2810.66 -1.81183 -4.04583 0
M  V30 29964 H 2807.88 -0.407172 -0.53334 0
M  V30 29965 H 2810.43 -1.68694 -1.15596 0
M  V30 29966 H 2808.58 -1.37937 -3.62011 0
M  V30 29967 H 2809 -3.58304 -3.83039 0
M  V30 29968 H 2810.47 -2.33642 -5.00115 0
M  V30 29969 H 2810.95 -0.782175 -4.32179 0
M  V30 29970 H 2811.55 -2.28447 -3.58737 0
M  V30 29971 N 2809.87 1.13022 -1.09836 0
M  V30 29972 C 2811.1 1.88228 -0.858935 0
M  V30 29973 C 2811.51 1.7934 0.590133 0
M  V30 29974 O 2810.87 1.16294 1.40648 0
M  V30 29975 C 2810.92 3.37673 -1.29072 0
M  V30 29976 O 2810.64 3.46337 -2.68296 0
M  V30 29977 C 2812.14 4.29835 -1.08429 0
M  V30 29978 H 2809.36 0.595761 -0.308724 0
M  V30 29979 H 2811.91 1.43047 -1.46143 0
M  V30 29980 H 2810.06 3.80421 -0.732028 0
M  V30 29981 H 2810.47 4.39269 -2.86605 0
M  V30 29982 H 2811.95 5.33004 -1.43563 0
M  V30 29983 H 2812.43 4.39194 -0.0224087 0
M  V30 29984 H 2813.03 3.9286 -1.62914 0
M  V30 29985 N 2811.35 0.886177 1.30325 0
M  V30 29986 C 2812.59 0.511946 1.97885 0
M  V30 29987 C 2812.95 -0.921915 1.68418 0
M  V30 29988 O 2814.15 -1.40233 2.29321 0
M  V30 29989 C 2812.42 0.780506 3.48773 0
M  V30 29990 S 2813.98 0.508558 4.35843 0
M  V30 29991 H 2810.8 0.19044 0.685021 0
M  V30 29992 H 2813.4 1.1457 1.58411 0
M  V30 29993 H 2812.11 1.82255 3.67711 0
M  V30 29994 H 2811.64 0.134353 3.93171 0
M  V30 29995 H 2813.65 -0.652304 4.91894 0
M  V30 29996 N 2812.82 -1.43695 0.647253 0
M  V30 29997 C 2814.24 -1.85168 0.238722 0
M  V30 29998 C 2814.59 -1.54177 -1.21342 0
M  V30 29999 O 2813.71 -0.987777 -1.92541 0
M  V30 30000 C 2814.31 -3.36105 0.426481 0
M  V30 30001 C 2812.87 -3.76331 0.0723202 0
M  V30 30002 C 2812.01 -2.67459 0.7322 0
M  V30 30003 H 2814.96 -1.33933 0.851333 0
M  V30 30004 H 2814.98 -3.79068 -0.329803 0
M  V30 30005 H 2814.5 -3.5863 1.48346 0
M  V30 30006 H 2812.6 -3.59419 -0.982292 0
M  V30 30007 H 2812.71 -4.7655 0.493625 0
M  V30 30008 H 2811.07 -2.54159 0.165984 0
M  V30 30009 H 2811.86 -2.92812 1.79209 0
M  V30 30010 N 2814.3 -0.388796 -1.52729 0
M  V30 30011 C 2815.25 0.446599 -2.26438 0
M  V30 30012 C 2816.22 1.05822 -1.28027 0
M  V30 30013 O 2817.4 1.08634 -1.56854 0
M  V30 30014 C 2814.54 1.56823 -3.0741 0
M  V30 30015 C 2813.66 0.979515 -4.20749 0
M  V30 30016 C 2812.79 2.07216 -4.89117 0
M  V30 30017 C 2811.83 1.45931 -5.9445 0
M  V30 30018 N 2810.97 2.49124 -6.56416 0
M  V30 30019 H 2815.81 -0.188422 -2.97404 0
M  V30 30020 H 2813.35 -0.104751 -1.46727 0
M  V30 30021 H 2815.3 2.22927 -3.52646 0
M  V30 30022 H 2813.93 2.17357 -2.38654 0
M  V30 30023 H 2812.99 0.208085 -3.7983 0
M  V30 30024 H 2814.3 0.49166 -4.96371 0
M  V30 30025 H 2813.45 2.81091 -5.37655 0
M  V30 30026 H 2812.19 2.59361 -4.13017 0
M  V30 30027 H 2811.2 0.705798 -5.45251 0
M  V30 30028 H 2812.42 0.945814 -6.72481 0
M  V30 30029 H 2810.37 3.00439 -5.83157 0
M  V30 30030 H 2810.28 2.05092 -7.27649 0
M  V30 30031 H 2811.55 3.22631 -7.09598 0
M  V30 30032 N 2815.78 1.57153 -0.118604 0
M  V30 30033 C 2817.06 1.86709 0.583029 0
M  V30 30034 C 2817.44 1.0197 1.84839 0
M  V30 30035 O 2816.79 0.0985074 2.28288 0
M  V30 30036 C 2817 3.37831 0.875853 0
M  V30 30037 C 2818.34 4.06422 1.22909 0
M  V30 30038 O 2819.37 3.42848 0.966127 0
M  V30 30039 O 2818.23 5.18641 1.72259 0
M  V30 30040 H 2815.32 0.772912 0.294171 0
M  V30 30041 H 2817.87 1.69008 -0.153077 0
M  V30 30042 H 2816.64 3.91294 -0.0208464 0
M  V30 30043 H 2816.26 3.60961 1.66713 0
M  V30 30044 N 2817.26 -0.155167 1.56834 0
M  V30 30045 C 2818.17 -1.21142 2.00902 0
M  V30 30046 C 2819.18 -1.47498 0.923055 0
M  V30 30047 O 2820.36 -1.59329 1.23192 0
M  V30 30048 C 2817.43 -2.52686 2.37382 0
M  V30 30049 C 2816.49 -2.3405 3.59887 0
M  V30 30050 C 2815.72 -3.59322 3.94618 0
M  V30 30051 O 2815.94 -4.65169 3.30112 0
M  V30 30052 O 2814.88 -3.52471 4.87902 0
M  V30 30053 H 2818.7 -0.86732 2.91052 0
M  V30 30054 H 2816.29 -0.363272 1.44916 0
M  V30 30055 H 2818.17 -3.30255 2.61743 0
M  V30 30056 H 2816.84 -2.86643 1.5039 0
M  V30 30057 H 2815.75 -1.54459 3.40724 0
M  V30 30058 H 2817.08 -2.05012 4.47472 0
M  V30 30059 N 2818.74 -1.51782 -0.424256 0
M  V30 30060 C 2819.67 -1.76992 -1.52302 0
M  V30 30061 C 2820.65 -0.620237 -1.58389 0
M  V30 30062 O 2821.83 -0.864298 -1.73907 0
M  V30 30063 C 2818.96 -1.90688 -2.90268 0
M  V30 30064 C 2817.92 -3.06203 -2.99038 0
M  V30 30065 C 2817.24 -3.051 -4.39111 0
M  V30 30066 C 2818.54 -4.45938 -2.71912 0
M  V30 30067 H 2820.24 -2.68997 -1.31457 0
M  V30 30068 H 2817.78 -1.29441 -0.630962 0
M  V30 30069 H 2819.74 -2.06907 -3.67107 0
M  V30 30070 H 2818.46 -0.95342 -3.12374 0
M  V30 30071 H 2817.12 -2.8971 -2.24641 0
M  V30 30072 H 2816.77 -2.07506 -4.58203 0
M  V30 30073 H 2816.47 -3.82677 -4.45906 0
M  V30 30074 H 2817.99 -3.23429 -5.17905 0
M  V30 30075 H 2819.4 -4.62715 -3.38479 0
M  V30 30076 H 2817.8 -5.2532 -2.90102 0
M  V30 30077 H 2818.87 -4.55075 -1.67437 0
M  V30 30078 N 2820.21 0.68054 -1.42149 0
M  V30 30079 C 2821.63 0.992973 -1.24949 0
M  V30 30080 C 2821.83 2.00944 -0.149562 0
M  V30 30081 O 2820.89 2.47874 0.481101 0
M  V30 30082 C 2822.2 1.50325 -2.60428 0
M  V30 30083 C 2823.75 1.62132 -2.67735 0
M  V30 30084 C 2824.22 2.16558 -4.03568 0
M  V30 30085 N 2825.71 2.23898 -4.05492 0
M  V30 30086 C 2826.45 2.67072 -5.07405 0
M  V30 30087 N 2825.94 3.0974 -6.19704 0
M  V30 30088 N 2827.74 2.6677 -4.94763 0
M  V30 30089 H 2819.89 0.00744146 -2.12399 0
M  V30 30090 H 2822.15 0.0658363 -0.945711 0
M  V30 30091 H 2821.86 0.830887 -3.41744 0
M  V30 30092 H 2821.73 2.48295 -2.83953 0
M  V30 30093 H 2824.12 2.28476 -1.86769 0
M  V30 30094 H 2824.2 0.62667 -2.48005 0
M  V30 30095 H 2823.84 1.50824 -4.84989 0
M  V30 30096 H 2823.77 3.16803 -4.20646 0
M  V30 30097 H 2826.26 1.93807 -3.24419 0
M  V30 30098 H 2826.58 3.41353 -6.93324 0
M  V30 30099 H 2824.92 3.07612 -6.23218 0
M  V30 30100 H 2828.11 2.32794 -4.06109 0
M  V30 30101 H 2828.29 3.00097 -5.74322 0
M  V30 30102 N 2821.69 1.28226 0.916285 0
M  V30 30103 C 2823.1 1.13782 1.48022 0
M  V30 30104 C 2823.45 -0.273105 1.9429 0
M  V30 30105 O 2822.58 -1.16713 1.82228 0
M  V30 30106 C 2823.17 2.05939 2.69025 0
M  V30 30107 C 2821.73 1.95567 3.21606 0
M  V30 30108 C 2820.88 1.97828 1.94318 0
M  V30 30109 H 2823.83 1.40953 0.729248 0
M  V30 30110 H 2823.85 1.6219 3.44201 0
M  V30 30111 H 2823.36 3.0862 2.3532 0
M  V30 30112 H 2821.47 0.959139 3.60043 0
M  V30 30113 H 2821.58 2.82394 3.87027 0
M  V30 30114 H 2819.94 1.42202 2.11307 0
M  V30 30115 H 2820.73 3.02183 1.62911 0
M  V30 30116 N 2823.17 -1.12438 1.10433 0
M  V30 30117 C 2824.1 -2.20257 0.775181 0
M  V30 30118 C 2825.08 -1.68226 -0.25183 0
M  V30 30119 O 2826.27 -1.93844 -0.117603 0
M  V30 30120 C 2823.4 -3.46687 0.206194 0
M  V30 30121 C 2822.35 -4.11871 1.16389 0
M  V30 30122 C 2821.68 -5.32751 0.456108 0
M  V30 30123 C 2822.98 -4.58009 2.51048 0
M  V30 30124 H 2824.67 -2.48047 1.67669 0
M  V30 30125 H 2822.22 -1.19221 0.807616 0
M  V30 30126 H 2824.17 -4.21384 -0.036217 0
M  V30 30127 H 2822.89 -3.18324 -0.730558 0
M  V30 30128 H 2821.55 -3.39154 1.39175 0
M  V30 30129 H 2821.2 -5.00655 -0.485115 0
M  V30 30130 H 2820.9 -5.77312 1.09476 0
M  V30 30131 H 2822.42 -6.10195 0.222243 0
M  V30 30132 H 2823.84 -5.24079 2.3241 0
M  V30 30133 H 2822.24 -5.13347 3.10798 0
M  V30 30134 H 2823.31 -3.71992 3.11046 0
M  V30 30135 N 2824.65 -0.893076 -1.29853 0
M  V30 30136 C 2825.56 -0.370198 -2.31661 0
M  V30 30137 C 2826.58 0.531694 -1.65677 0
M  V30 30138 O 2827.75 0.422868 -1.96911 0
M  V30 30139 C 2824.82 0.39968 -3.44389 0
M  V30 30140 C 2823.88 -0.532936 -4.25979 0
M  V30 30141 C 2823.11 0.200294 -5.33324 0
M  V30 30142 O 2823.33 1.42522 -5.52308 0
M  V30 30143 O 2822.27 -0.453774 -6.00187 0
M  V30 30144 H 2826.09 -1.21465 -2.78352 0
M  V30 30145 H 2823.68 -0.657176 -1.3417 0
M  V30 30146 H 2825.56 0.835285 -4.13039 0
M  V30 30147 H 2824.24 1.2203 -2.99817 0
M  V30 30148 H 2823.14 -1.01752 -3.59996 0
M  V30 30149 H 2824.48 -1.31978 -4.74176 0
M  V30 30150 N 2826.13 1.4335 -0.654865 0
M  V30 30151 C 2827.07 2.30772 0.0357308 0
M  V30 30152 C 2828.04 1.44843 0.81301 0
M  V30 30153 O 2829.23 1.73709 0.789283 0
M  V30 30154 C 2826.37 3.30444 0.995025 0
M  V30 30155 C 2825.48 4.31471 0.213675 0
M  V30 30156 C 2824.62 5.18224 1.16692 0
M  V30 30157 C 2823.66 6.10943 0.376094 0
M  V30 30158 N 2822.79 6.90315 1.28101 0
M  V30 30159 H 2827.63 2.89279 -0.71564 0
M  V30 30160 H 2825.17 1.42508 -0.36467 0
M  V30 30161 H 2827.13 3.86741 1.56483 0
M  V30 30162 H 2825.76 2.73583 1.71325 0
M  V30 30163 H 2824.81 3.77455 -0.472444 0
M  V30 30164 H 2826.12 4.97184 -0.401191 0
M  V30 30165 H 2825.28 5.79156 1.8073 0
M  V30 30166 H 2824.02 4.52641 1.81569 0
M  V30 30167 H 2823.02 5.49099 -0.27763 0
M  V30 30168 H 2824.25 6.7857 -0.268298 0
M  V30 30169 H 2822.19 6.27379 1.91655 0
M  V30 30170 H 2822.11 7.52556 0.720747 0
M  V30 30171 H 2823.38 7.5575 1.90949 0
M  V30 30172 N 2827.61 0.39689 1.52521 0
M  V30 30173 C 2828.85 -0.183133 2.01971 0
M  V30 30174 C 2829.18 -1.45825 1.28253 0
M  V30 30175 O 2828.46 -1.90647 0.385212 0
M  V30 30176 C 2828.74 -0.443328 3.57361 0
M  V30 30177 C 2828.6 0.847608 4.41742 0
M  V30 30178 C 2829.91 -1.23072 4.22541 0
M  V30 30179 H 2827.03 -0.0650847 0.734121 0
M  V30 30180 H 2829.68 0.52795 1.82518 0
M  V30 30181 H 2827.83 -1.04907 3.74068 0
M  V30 30182 H 2829.5 1.48422 4.36771 0
M  V30 30183 H 2827.74 1.46128 4.08447 0
M  V30 30184 H 2828.41 0.620099 5.48506 0
M  V30 30185 H 2830.89 -0.718012 4.09858 0
M  V30 30186 H 2829.76 -1.38152 5.3123 0
M  V30 30187 H 2830.02 -2.24802 3.80679 0
M  V30 30188 N 2829.08 -1.57088 0.126936 0
M  V30 30189 C 2830.01 -2.18748 -0.816808 0
M  V30 30190 C 2830.99 -1.12981 -1.27159 0
M  V30 30191 O 2832.18 -1.41248 -1.33277 0
M  V30 30192 C 2829.31 -2.79319 -2.06393 0
M  V30 30193 C 2828.26 -3.90738 -1.74666 0
M  V30 30194 C 2827.59 -4.38153 -3.06474 0
M  V30 30195 C 2828.89 -5.12465 -1.00881 0
M  V30 30196 H 2830.58 -2.97863 -0.30298 0
M  V30 30197 H 2828.13 -1.43275 -0.144289 0
M  V30 30198 H 2830.08 -3.21115 -2.72879 0
M  V30 30199 H 2828.81 -1.97505 -2.60114 0
M  V30 30200 H 2827.47 -3.49529 -1.10566 0
M  V30 30201 H 2827.11 -3.53187 -3.58145 0
M  V30 30202 H 2826.81 -5.13292 -2.86016 0
M  V30 30203 H 2828.34 -4.82605 -3.74065 0
M  V30 30204 H 2829.75 -5.51231 -1.57536 0
M  V30 30205 H 2828.15 -5.93238 -0.904902 0
M  V30 30206 H 2829.22 -4.849 0.00305858 0
M  V30 30207 N 2830.56 0.146848 -1.56914 0
M  V30 30208 C 2831.47 1.20075 -2.01542 0
M  V30 30209 C 2832.49 1.47007 -0.930864 0
M  V30 30210 O 2833.66 1.58673 -1.24035 0
M  V30 30211 C 2830.73 2.51424 -2.38719 0
M  V30 30212 C 2829.79 2.32138 -3.61124 0
M  V30 30213 C 2829.02 3.57224 -3.96518 0
M  V30 30214 O 2829.25 4.63412 -3.32574 0
M  V30 30215 O 2828.18 3.49878 -4.89764 0
M  V30 30216 H 2832.01 0.851872 -2.91508 0
M  V30 30217 H 2829.59 0.355582 -1.45107 0
M  V30 30218 H 2831.47 3.28863 -2.63491 0
M  V30 30219 H 2830.15 2.85842 -1.51908 0
M  V30 30220 H 2829.05 1.5265 -3.41539 0
M  V30 30221 H 2830.39 2.02636 -4.48553 0
M  V30 30222 N 2832.04 1.52005 0.4162 0
M  V30 30223 C 2833.26 1.69846 1.19026 0
M  V30 30224 C 2833.69 0.404136 1.83707 0
M  V30 30225 O 2833.05 -0.637757 1.69713 0
M  V30 30226 C 2833.1 2.83036 2.23434 0
M  V30 30227 O 2832.2 2.48112 3.29415 0
M  V30 30228 H 2831.54 0.56564 0.347775 0
M  V30 30229 H 2834.07 1.98674 0.488836 0
M  V30 30230 H 2834.08 3.07742 2.67879 0
M  V30 30231 H 2832.76 3.76947 1.75738 0
M  V30 30232 H 2831.33 2.34053 2.90299 0
M  V30 30233 N 2833.52 -0.672992 1.42508 0
M  V30 30234 C 2834.46 -1.78649 1.46127 0
M  V30 30235 C 2835.43 -1.63124 0.313036 0
M  V30 30236 O 2836.62 -1.83652 0.51737 0
M  V30 30237 C 2833.76 -3.16691 1.37116 0
M  V30 30238 C 2832.87 -3.4349 2.61989 0
M  V30 30239 C 2832.01 -4.71271 2.45107 0
M  V30 30240 C 2831.05 -4.9111 3.65345 0
M  V30 30241 N 2830.18 -6.10133 3.47394 0
M  V30 30242 H 2835.02 -1.7489 2.41283 0
M  V30 30243 H 2832.56 -0.853745 1.1979 0
M  V30 30244 H 2834.52 -3.96465 1.29888 0
M  V30 30245 H 2833.15 -3.19569 0.455546 0
M  V30 30246 H 2832.2 -2.57956 2.79576 0
M  V30 30247 H 2833.51 -3.54043 3.51361 0
M  V30 30248 H 2832.67 -5.59139 2.35475 0
M  V30 30249 H 2831.41 -4.63004 1.53227 0
M  V30 30250 H 2830.41 -4.01684 3.75407 0
M  V30 30251 H 2831.64 -5.01221 4.58208 0
M  V30 30252 H 2829.58 -6.03036 2.58233 0
M  V30 30253 H 2829.5 -6.21555 4.30355 0
M  V30 30254 H 2830.77 -7.00675 3.41578 0
M  V30 30255 N 2835 -1.2871 -0.909472 0
M  V30 30256 C 2836.22 -1.18976 -1.6927 0
M  V30 30257 C 2836.64 0.251015 -1.87124 0
M  V30 30258 O 2836 1.16919 -1.40129 0
M  V30 30259 C 2836.05 -1.88844 -3.08253 0
M  V30 30260 O 2835.77 -3.27294 -2.91222 0
M  V30 30261 C 2837.27 -1.85464 -4.02639 0
M  V30 30262 H 2834.49 -0.412806 -0.528992 0
M  V30 30263 H 2837.03 -1.69911 -1.138 0
M  V30 30264 H 2835.19 -1.41769 -3.60528 0
M  V30 30265 H 2835.6 -3.62346 -3.79217 0
M  V30 30266 H 2837.08 -2.38933 -4.97609 0
M  V30 30267 H 2837.55 -0.827969 -4.31325 0
M  V30 30268 H 2838.16 -2.32239 -3.56294 0
M  V30 30269 N 2836.47 1.1185 -1.11028 0
M  V30 30270 C 2837.89 1.355 -0.843318 0
M  V30 30271 C 2838.09 1.94291 0.534145 0
M  V30 30272 O 2837.15 2.17309 1.28581 0
M  V30 30273 C 2838.46 2.29073 -1.94797 0
M  V30 30274 C 2840.01 2.42649 -1.97713 0
M  V30 30275 C 2840.48 3.39541 -3.0737 0
M  V30 30276 N 2841.97 3.47101 -3.06716 0
M  V30 30277 C 2842.71 4.22001 -3.88204 0
M  V30 30278 N 2842.2 4.99913 -4.79644 0
M  V30 30279 N 2844 4.17469 -3.76398 0
M  V30 30280 H 2836.15 0.720503 -1.99806 0
M  V30 30281 H 2838.41 0.379696 -0.86864 0
M  V30 30282 H 2838.12 1.9306 -2.93974 0
M  V30 30283 H 2837.99 3.29253 -1.84045 0
M  V30 30284 H 2840.38 2.77939 -0.991653 0
M  V30 30285 H 2840.46 1.42336 -2.12542 0
M  V30 30286 H 2840.1 3.04978 -4.06141 0
M  V30 30287 H 2840.03 4.39698 -2.89781 0
M  V30 30288 H 2842.52 2.91524 -2.40462 0
M  V30 30289 H 2842.84 5.5442 -5.38366 0
M  V30 30290 H 2841.18 4.99089 -4.83669 0
M  V30 30291 H 2844.37 3.55687 -3.04309 0
M  V30 30292 H 2844.55 4.75586 -4.40139 0
M  V30 30293 N 2837.95 0.89995 1.29378 0
M  V30 30294 C 2838.91 0.382716 2.25982 0
M  V30 30295 C 2839.91 -0.483232 1.53367 0
M  V30 30296 O 2841.1 -0.288249 1.71799 0
M  V30 30297 C 2838.24 -0.452855 3.37879 0
M  V30 30298 H 2839.43 1.23591 2.7325 0
M  V30 30299 H 2836.98 0.678113 1.40824 0
M  V30 30300 H 2837.72 -1.32602 2.95951 0
M  V30 30301 H 2837.5 0.167631 3.91742 0
M  V30 30302 H 2838.99 -0.806035 4.09747 0
M  V30 30303 N 2839.43 -1.43001 0.662458 0
M  V30 30304 C 2840.68 -2.00923 0.176908 0
M  V30 30305 C 2840.99 -1.52929 -1.21952 0
M  V30 30306 O 2842.2 -2.03185 -1.80078 0
M  V30 30307 C 2840.65 -3.5892 0.265442 0
M  V30 30308 C 2840.26 -4.15905 1.66514 0
M  V30 30309 C 2842.01 -4.24191 -0.162029 0
M  V30 30310 C 2839.91 -5.66226 1.7071 0
M  V30 30311 H 2838.84 -0.751415 0.062376 0
M  V30 30312 H 2841.49 -1.63866 0.825842 0
M  V30 30313 H 2839.88 -3.93422 -0.451166 0
M  V30 30314 H 2841.05 -3.92886 2.40784 0
M  V30 30315 H 2839.37 -3.6304 2.03939 0
M  V30 30316 H 2841.96 -5.34488 -0.150651 0
M  V30 30317 H 2842.31 -3.98776 -1.19512 0
M  V30 30318 H 2842.84 -3.94605 0.503144 0
M  V30 30319 H 2839.58 -5.96421 2.7196 0
M  V30 30320 H 2839.1 -5.91273 1.00779 0
M  V30 30321 H 2840.78 -6.30428 1.45498 0
M  V30 30322 N 2840.91 -0.404973 -1.52308 0
M  V30 30323 C 2842.19 0.23051 -1.94237 0
M  V30 30324 C 2842.57 1.62988 -1.34157 0
M  V30 30325 O 2841.91 2.22603 -0.515752 0
M  V30 30326 C 2842.12 0.241045 -3.48167 0
M  V30 30327 C 2843.47 0.462414 -4.22075 0
M  V30 30328 O 2844.5 0.320581 -3.54754 0
M  V30 30329 O 2843.35 0.741613 -5.41445 0
M  V30 30330 H 2840.45 0.147343 -0.813768 0
M  V30 30331 H 2842.99 -0.460615 -1.63329 0
M  V30 30332 H 2841.77 -0.738535 -3.84267 0
M  V30 30333 H 2841.39 0.976443 -3.85424 0
M  V30 30334 N 2842.39 1.57018 -0.135265 0
M  V30 30335 C 2843.35 2.14983 0.794669 0
M  V30 30336 C 2844.35 1.08868 1.1834 0
M  V30 30337 O 2845.54 1.34565 1.10625 0
M  V30 30338 C 2842.67 2.70336 2.0768 0
M  V30 30339 H 2843.86 2.98488 0.290644 0
M  V30 30340 H 2841.42 1.55883 0.114101 0
M  V30 30341 H 2842.15 1.90464 2.62476 0
M  V30 30342 H 2841.94 3.4796 1.80739 0
M  V30 30343 H 2843.43 3.15035 2.74122 0
M  V30 30344 N 2843.86 -0.138524 1.5699 0
M  V30 30345 C 2845.1 -0.855816 1.85621 0
M  V30 30346 C 2845.47 -1.77961 0.720694 0
M  V30 30347 O 2846.67 -2.53699 0.888266 0
M  V30 30348 C 2844.94 -1.60269 3.1945 0
M  V30 30349 S 2846.5 -2.36425 3.6966 0
M  V30 30350 H 2843.32 -0.286024 0.650931 0
M  V30 30351 H 2845.92 -0.115297 1.9516 0
M  V30 30352 H 2844.62 -0.915667 4.00055 0
M  V30 30353 H 2844.15 -2.38396 3.12939 0
M  V30 30354 H 2846.17 -3.61781 3.39602 0
M  V30 30355 N 2845.34 -1.52224 -0.408133 0
M  V30 30356 C 2846.75 -1.58484 -0.986901 0
M  V30 30357 C 2847.1 -0.425951 -1.9152 0
M  V30 30358 O 2846.23 0.453556 -2.11594 0
M  V30 30359 C 2846.82 -2.87238 -1.79665 0
M  V30 30360 C 2845.38 -2.95974 -2.32543 0
M  V30 30361 C 2844.53 -2.5343 -1.12554 0
M  V30 30362 H 2847.48 -1.57579 -0.188334 0
M  V30 30363 H 2847.5 -2.72647 -2.65413 0
M  V30 30364 H 2847.01 -3.71565 -1.12076 0
M  V30 30365 H 2845.12 -2.16143 -3.03501 0
M  V30 30366 H 2845.23 -4.00236 -2.63341 0
M  V30 30367 H 2843.59 -2.07302 -1.4798 0
M  V30 30368 H 2844.38 -3.40132 -0.465291 0
M  V30 30369 N 2846.82 0.665425 -1.42863 0
M  V30 30370 C 2847.75 1.79056 -1.4987 0
M  V30 30371 C 2848.73 1.66367 -0.354423 0
M  V30 30372 O 2849.92 1.85646 -0.570002 0
M  V30 30373 C 2847.05 3.17413 -1.40949 0
M  V30 30374 C 2846 3.4485 -2.53501 0
M  V30 30375 C 2845.33 4.82879 -2.29634 0
M  V30 30376 C 2846.63 3.40808 -3.95787 0
M  V30 30377 H 2848.32 1.73449 -2.44041 0
M  V30 30378 H 2845.87 0.83305 -1.17458 0
M  V30 30379 H 2847.82 3.95866 -1.44457 0
M  V30 30380 H 2846.54 3.2372 -0.432773 0
M  V30 30381 H 2845.2 2.68761 -2.49325 0
M  V30 30382 H 2844.85 4.85848 -1.30235 0
M  V30 30383 H 2844.55 5.02199 -3.05074 0
M  V30 30384 H 2846.07 5.63605 -2.34907 0
M  V30 30385 H 2847.49 4.09217 -4.01515 0
M  V30 30386 H 2845.89 3.71664 -4.71154 0
M  V30 30387 H 2846.96 2.39209 -4.21791 0
M  V30 30388 N 2848.3 1.29191 0.902633 0
M  V30 30389 C 2849.58 1.07677 1.63295 0
M  V30 30390 C 2849.96 -0.3801 2.0765 0
M  V30 30391 O 2849.3 -1.36834 1.83 0
M  V30 30392 C 2849.51 2.06163 2.81599 0
M  V30 30393 C 2850.86 2.3692 3.52355 0
M  V30 30394 O 2851.89 2.04334 2.91763 0
M  V30 30395 O 2850.74 2.92584 4.61581 0
M  V30 30396 H 2847.84 0.412323 0.716881 0
M  V30 30397 H 2850.38 1.40552 0.950959 0
M  V30 30398 H 2849.16 3.04303 2.45998 0
M  V30 30399 H 2848.78 1.74 3.57505 0
M  V30 30400 N 2849.78 -1.1126 1.1162 0
M  V30 30401 C 2851.01 -1.86567 0.887483 0
M  V30 30402 C 2851.41 -1.80525 -0.566328 0
M  V30 30403 O 2850.76 -1.18597 -1.40287 0
M  V30 30404 C 2850.82 -3.36199 1.27319 0
M  V30 30405 C 2850.48 -3.66008 2.73655 0
M  V30 30406 C 2851.48 -3.63331 3.71869 0
M  V30 30407 C 2849.17 -3.94954 3.10349 0
M  V30 30408 C 2851.16 -3.89179 5.04795 0
M  V30 30409 C 2848.85 -4.20461 4.43459 0
M  V30 30410 C 2849.84 -4.17562 5.40491 0
M  V30 30411 O 2849.53 -4.42427 6.71203 0
M  V30 30412 H 2849.26 -0.596771 0.317554 0
M  V30 30413 H 2851.82 -1.41621 1.4877 0
M  V30 30414 H 2850.05 -3.8176 0.616129 0
M  V30 30415 H 2851.74 -3.92875 1.01998 0
M  V30 30416 H 2852.5 -3.41016 3.44867 0
M  V30 30417 H 2848.38 -3.96346 2.35438 0
M  V30 30418 H 2851.93 -3.86832 5.80523 0
M  V30 30419 H 2847.82 -4.42252 4.70195 0
M  V30 30420 H 2848.59 -4.59985 6.7702 0
M  V30 30421 N 2851.25 -0.906798 -1.28899 0
M  V30 30422 C 2852.48 -0.552004 -1.994 0
M  V30 30423 C 2852.9 0.865019 -1.67818 0
M  V30 30424 O 2852.25 1.57197 -0.927105 0
M  V30 30425 C 2852.31 -0.743214 -3.53778 0
M  V30 30426 O 2852.03 -2.10447 -3.84244 0
M  V30 30427 C 2853.53 -0.394318 -4.41543 0
M  V30 30428 H 2850.75 -0.211118 -0.636923 0
M  V30 30429 H 2853.29 -1.21809 -1.64264 0
M  V30 30430 H 2851.45 -0.124211 -3.87201 0
M  V30 30431 H 2851.86 -2.13903 -4.78901 0
M  V30 30432 H 2853.33 -0.578911 -5.48956 0
M  V30 30433 H 2853.81 0.669061 -4.34074 0
M  V30 30434 H 2854.42 -0.990564 -4.13604 0
M  V30 30435 N 2852.73 1.42648 -0.670032 0
M  V30 30436 C 2853.98 2.00826 -0.187561 0
M  V30 30437 C 2854.29 1.53573 1.21139 0
M  V30 30438 O 2855.5 2.04138 1.78997 0
M  V30 30439 C 2853.96 3.58774 -0.284473 0
M  V30 30440 C 2853.56 4.15016 -1.68717 0
M  V30 30441 C 2855.31 4.24271 0.139531 0
M  V30 30442 C 2853.22 5.65313 -1.73711 0
M  V30 30443 H 2852.15 0.751074 -0.06636 0
M  V30 30444 H 2854.8 1.63426 -0.83452 0
M  V30 30445 H 2853.18 3.93655 0.430295 0
M  V30 30446 H 2854.35 3.91604 -2.42864 0
M  V30 30447 H 2852.67 3.61953 -2.05861 0
M  V30 30448 H 2855.26 5.3456 0.122304 0
M  V30 30449 H 2855.61 3.99405 1.17396 0
M  V30 30450 H 2856.14 3.94333 -0.524064 0
M  V30 30451 H 2852.88 5.9497 -2.75119 0
M  V30 30452 H 2852.4 5.9073 -1.03913 0
M  V30 30453 H 2854.08 6.29647 -1.4884 0
M  V30 30454 N 2854.21 0.413044 1.52091 0
M  V30 30455 C 2855.14 -0.401527 2.30022 0
M  V30 30456 C 2856.12 -1.04267 1.34397 0
M  V30 30457 O 2857.31 -1.05094 1.63306 0
M  V30 30458 C 2854.44 -1.51632 3.1245 0
M  V30 30459 C 2853.39 -0.999977 4.16154 0
M  V30 30460 C 2852.72 -2.20867 4.86952 0
M  V30 30461 C 2854.02 -0.0512839 5.22275 0
M  V30 30462 H 2855.71 0.248757 2.98365 0
M  V30 30463 H 2853.26 0.121077 1.4349 0
M  V30 30464 H 2855.21 -2.09319 3.65737 0
M  V30 30465 H 2853.93 -2.19454 2.41883 0
M  V30 30466 H 2852.59 -0.445485 3.63883 0
M  V30 30467 H 2852.24 -2.87252 4.1291 0
M  V30 30468 H 2851.94 -1.86968 5.57061 0
M  V30 30469 H 2853.47 -2.79153 5.43053 0
M  V30 30470 H 2854.88 -0.537076 5.70779 0
M  V30 30471 H 2853.28 0.199082 5.9977 0
M  V30 30472 H 2854.35 0.892819 4.7661 0
M  V30 30473 N 2855.69 -1.56945 0.143591 0
M  V30 30474 C 2856.93 -1.97905 -0.511163 0
M  V30 30475 C 2857.29 -1.02643 -1.6226 0
M  V30 30476 O 2858.49 -1.32635 -2.33798 0
M  V30 30477 C 2856.77 -3.42906 -1.00747 0
M  V30 30478 S 2858.32 -4.0589 -1.6673 0
M  V30 30479 H 2855.14 -0.691497 -0.165387 0
M  V30 30480 H 2857.74 -1.94089 0.234498 0
M  V30 30481 H 2856.45 -4.0997 -0.187745 0
M  V30 30482 H 2855.98 -3.50428 -1.78783 0
M  V30 30483 H 2857.99 -3.98662 -2.95437 0
M  V30 30484 N 2857.17 0.130197 -1.57061 0
M  V30 30485 C 2858.58 0.483386 -1.52104 0
M  V30 30486 C 2858.78 1.82471 -0.854784 0
M  V30 30487 O 2857.84 2.4877 -0.432386 0
M  V30 30488 C 2859.15 0.478198 -2.96873 0
M  V30 30489 C 2860.7 0.562538 -3.07903 0
M  V30 30490 C 2861.18 0.587849 -4.54212 0
M  V30 30491 N 2862.67 0.649603 -4.58622 0
M  V30 30492 C 2863.4 0.690451 -5.69228 0
M  V30 30493 N 2862.9 0.689622 -6.89359 0
M  V30 30494 N 2864.69 0.73261 -5.57305 0
M  V30 30495 H 2856.84 -0.748814 -1.98763 0
M  V30 30496 H 2859.1 -0.274981 -0.907243 0
M  V30 30497 H 2858.81 -0.439506 -3.48943 0
M  V30 30498 H 2858.68 1.31007 -3.53719 0
M  V30 30499 H 2861.07 1.47066 -2.55843 0
M  V30 30500 H 2861.15 -0.296809 -2.54072 0
M  V30 30501 H 2860.8 -0.316185 -5.06915 0
M  V30 30502 H 2860.73 1.46392 -5.05843 0
M  V30 30503 H 2863.22 0.656862 -3.72147 0
M  V30 30504 H 2863.53 0.723104 -7.6941 0
M  V30 30505 H 2861.88 0.657226 -6.91885 0
M  V30 30506 H 2865.07 0.730544 -4.62364 0
M  V30 30507 H 2865.24 0.760977 -6.43516 0
M  V30 30508 N 2858.65 1.52438 0.400055 0
M  V30 30509 C 2859.58 1.71163 1.50926 0
M  V30 30510 C 2860.56 0.559302 1.52678 0
M  V30 30511 O 2861.74 0.787765 1.7125 0
M  V30 30512 C 2858.87 1.7592 2.8943 0
M  V30 30513 C 2857.91 2.97558 3.05551 0
M  V30 30514 S 2858.75 4.5774 2.7791 0
M  V30 30515 C 2859.9 4.65297 4.18628 0
M  V30 30516 H 2860.14 2.64976 1.34815 0
M  V30 30517 H 2857.67 1.42591 0.592219 0
M  V30 30518 H 2859.63 1.79346 3.69249 0
M  V30 30519 H 2858.29 0.83219 3.02875 0
M  V30 30520 H 2857.48 2.97396 4.06905 0
M  V30 30521 H 2857.08 2.92066 2.33609 0
M  V30 30522 H 2859.37 4.43232 5.12398 0
M  V30 30523 H 2860.32 5.67265 4.23811 0
M  V30 30524 H 2860.73 3.94241 4.04022 0
M  V30 30525 N 2860.12 -0.657839 1.43214 0
M  V30 30526 C 2861.35 -1.44354 1.47803 0
M  V30 30527 C 2861.76 -1.88971 0.0930538 0
M  V30 30528 O 2861.1 -1.59801 -0.906061 0
M  V30 30529 C 2861.17 -2.71408 2.35749 0
M  V30 30530 C 2860.83 -2.4876 3.83363 0
M  V30 30531 C 2861.83 -2.12276 4.74589 0
M  V30 30532 C 2859.51 -2.63228 4.27804 0
M  V30 30533 C 2861.51 -1.90552 6.08251 0
M  V30 30534 C 2859.19 -2.41118 5.6152 0
M  V30 30535 C 2860.19 -2.04836 6.51561 0
M  V30 30536 O 2859.88 -1.82953 7.82805 0
M  V30 30537 H 2859.61 -0.450095 0.504371 0
M  V30 30538 H 2862.17 -0.814208 1.88573 0
M  V30 30539 H 2860.4 -3.36884 1.89858 0
M  V30 30540 H 2862.08 -3.33344 2.31595 0
M  V30 30541 H 2862.85 -2.0068 4.41535 0
M  V30 30542 H 2858.73 -2.90445 3.57999 0
M  V30 30543 H 2862.27 -1.62156 6.78492 0
M  V30 30544 H 2858.17 -2.52317 5.94144 0
M  V30 30545 H 2858.94 -1.97415 7.94336 0
M  V30 30546 N 2861.6 -1.29668 -0.895769 0
M  V30 30547 C 2862.85 -1.19051 -1.64919 0
M  V30 30548 C 2863.2 0.254644 -1.90707 0
M  V30 30549 O 2862.5 1.18039 -1.50922 0
M  V30 30550 C 2862.69 -1.94144 -3.00071 0
M  V30 30551 C 2862.52 -3.45815 -2.87476 0
M  V30 30552 C 2861.29 -4.15168 -2.88034 0
M  V30 30553 C 2863.49 -4.41242 -2.64216 0
M  V30 30554 N 2861.47 -5.53174 -2.66217 0
M  V30 30555 C 2862.84 -5.66736 -2.51417 0
M  V30 30556 C 2864.89 -4.3096 -2.49355 0
M  V30 30557 C 2863.6 -6.83115 -2.25269 0
M  V30 30558 C 2865.62 -5.47095 -2.2459 0
M  V30 30559 C 2864.99 -6.71564 -2.12559 0
M  V30 30560 H 2861.08 -0.490657 -0.608917 0
M  V30 30561 H 2863.67 -1.63545 -1.05646 0
M  V30 30562 H 2861.84 -1.52058 -3.57398 0
M  V30 30563 H 2863.57 -1.7576 -3.64541 0
M  V30 30564 H 2860.33 -3.66903 -2.99464 0
M  V30 30565 H 2860.75 -6.25767 -2.5835 0
M  V30 30566 H 2865.39 -3.3542 -2.57397 0
M  V30 30567 H 2863.11 -7.78707 -2.15964 0
M  V30 30568 H 2866.7 -5.41041 -2.13929 0
M  V30 30569 H 2865.58 -7.59911 -1.93663 0
M  V30 30570 N 2863.08 1.10667 -1.12208 0
M  V30 30571 C 2864.33 1.82216 -0.874176 0
M  V30 30572 C 2864.65 1.85485 0.601703 0
M  V30 30573 O 2863.92 1.33118 1.43723 0
M  V30 30574 H 2862.5 0.674791 -0.320416 0
M  V30 30575 H 2865.16 1.33915 -1.41608 0
M  V30 30576 H 2864.26 2.85819 -1.25354 0
M  V30 30577 N 2864.56 0.913621 1.28416 0
M  V30 30578 C 2865.97 0.593268 1.77023 0
M  V30 30579 C 2866.32 -0.89141 1.74781 0
M  V30 30580 O 2865.44 -1.69731 1.3424 0
M  V30 30581 C 2866.04 1.07016 3.21454 0
M  V30 30582 C 2864.6 0.800729 3.67784 0
M  V30 30583 C 2863.75 1.23696 2.48183 0
M  V30 30584 H 2866.7 1.0949 1.14881 0
M  V30 30585 H 2866.72 0.411547 3.78268 0
M  V30 30586 H 2866.23 2.15075 3.23054 0
M  V30 30587 H 2864.33 -0.266659 3.71645 0
M  V30 30588 H 2864.44 1.40838 4.57932 0
M  V30 30589 H 2862.81 0.655699 2.46115 0
M  V30 30590 H 2863.59 2.32589 2.52502 0
M  V30 30591 N 2866.04 -1.4229 0.677588 0
M  V30 30592 C 2867 -2.29198 0.0101488 0
M  V30 30593 C 2868 -1.43468 -0.726193 0
M  V30 30594 O 2869.19 -1.64825 -0.563778 0
M  V30 30595 C 2866.32 -3.26018 -0.996259 0
M  V30 30596 H 2867.51 -2.8971 0.775122 0
M  V30 30597 H 2865.07 -1.49976 0.440091 0
M  V30 30598 H 2865.8 -2.70449 -1.78963 0
M  V30 30599 H 2865.59 -3.89253 -0.471618 0
M  V30 30600 H 2867.08 -3.91187 -1.4616 0
M  V30 30601 N 2867.51 -0.421104 -1.5187 0
M  V30 30602 C 2868.76 0.152171 -2.01125 0
M  V30 30603 C 2869.08 1.45196 -1.31062 0
M  V30 30604 O 2870.28 2.10721 -1.71198 0
M  V30 30605 C 2868.74 0.321737 -3.58459 0
M  V30 30606 C 2868.35 -0.966667 -4.37447 0
M  V30 30607 C 2870.09 0.849656 -4.1591 0
M  V30 30608 C 2868 -0.763632 -5.86449 0
M  V30 30609 H 2866.93 0.0606433 -0.751557 0
M  V30 30610 H 2869.58 -0.548384 -1.75114 0
M  V30 30611 H 2867.96 1.08491 -3.80849 0
M  V30 30612 H 2869.13 -1.73691 -4.26811 0
M  V30 30613 H 2867.45 -1.4219 -3.91371 0
M  V30 30614 H 2870.05 1.01779 -5.24924 0
M  V30 30615 H 2870.39 1.82767 -3.74035 0
M  V30 30616 H 2870.92 0.145227 -3.97535 0
M  V30 30617 H 2867.66 -1.71355 -6.32707 0
M  V30 30618 H 2867.18 -0.0328943 -5.99791 0
M  V30 30619 H 2868.86 -0.410467 -6.45697 0
M  V30 30620 N 2868.99 1.56866 -0.151912 0
M  V30 30621 C 2870.22 2.01082 0.508009 0
M  V30 30622 C 2870.64 1.03136 1.57304 0
M  V30 30623 O 2870 0.00786277 1.81298 0
M  V30 30624 C 2870.05 3.44016 1.081 0
M  V30 30625 O 2869.15 3.49088 2.19571 0
M  V30 30626 H 2868.49 0.652367 0.123745 0
M  V30 30627 H 2871.02 2.03066 -0.250091 0
M  V30 30628 H 2871.03 3.82919 1.40844 0
M  V30 30629 H 2869.71 4.14809 0.301095 0
M  V30 30630 H 2868.29 3.22031 1.88017 0
M  V30 30631 N 2870.47 -0.121866 1.57128 0
M  V30 30632 C 2871.7 -0.843193 1.8861 0
M  V30 30633 C 2872.11 -1.74088 0.740948 0
M  V30 30634 O 2871.45 -1.81277 -0.297394 0
M  V30 30635 C 2871.51 -1.73111 3.15076 0
M  V30 30636 C 2871.18 -1.00802 4.45744 0
M  V30 30637 C 2872.17 -0.350163 5.18719 0
M  V30 30638 C 2869.86 -0.990053 4.92446 0
M  V30 30639 C 2871.85 0.316001 6.36616 0
M  V30 30640 C 2869.54 -0.320089 6.10261 0
M  V30 30641 C 2870.54 0.331786 6.82194 0
M  V30 30642 O 2870.23 0.991068 7.97768 0
M  V30 30643 H 2869.96 -0.247854 0.628923 0
M  V30 30644 H 2872.51 -0.111689 2.05096 0
M  V30 30645 H 2870.74 -2.50419 2.94665 0
M  V30 30646 H 2872.43 -2.32661 3.32601 0
M  V30 30647 H 2873.2 -0.355685 4.83694 0
M  V30 30648 H 2869.08 -1.48687 4.36364 0
M  V30 30649 H 2872.62 0.825394 6.927 0
M  V30 30650 H 2868.52 -0.31232 6.44744 0
M  V30 30651 H 2869.29 0.895256 8.13589 0
M  V30 30652 N 2871.95 -1.52648 -0.391965 0
M  V30 30653 C 2873.2 -1.67547 -1.13729 0
M  V30 30654 C 2873.52 -0.413915 -1.90045 0
M  V30 30655 O 2872.78 0.603613 -1.86159 0
M  V30 30656 C 2873.08 -2.85953 -2.14396 0
M  V30 30657 C 2872.74 -4.2351 -1.54759 0
M  V30 30658 C 2871.41 -4.60921 -1.38221 0
M  V30 30659 C 2873.76 -5.09162 -1.11373 0
M  V30 30660 C 2871.09 -5.81646 -0.768398 0
M  V30 30661 C 2873.44 -6.30508 -0.514032 0
M  V30 30662 C 2872.1 -6.66654 -0.335923 0
M  V30 30663 H 2871.37 -0.613098 -0.416163 0
M  V30 30664 H 2874.02 -1.86786 -0.422294 0
M  V30 30665 H 2872.32 -2.61119 -2.92103 0
M  V30 30666 H 2874.02 -2.94676 -2.71969 0
M  V30 30667 H 2870.61 -3.94038 -1.68619 0
M  V30 30668 H 2874.79 -4.80829 -1.22953 0
M  V30 30669 H 2870.05 -6.08263 -0.618574 0
M  V30 30670 H 2874.22 -6.96194 -0.169534 0
M  V30 30671 H 2871.85 -7.60068 0.141794 0
M  V30 30672 N 2873.43 0.650235 -1.43561 0
M  V30 30673 C 2874.38 1.75625 -1.45395 0
M  V30 30674 C 2875.36 1.57644 -0.322033 0
M  V30 30675 O 2876.55 1.67706 -0.566025 0
M  V30 30676 C 2873.68 3.14228 -1.3826 0
M  V30 30677 C 2872.77 3.37746 -2.56493 0
M  V30 30678 N 2873.16 3.31722 -3.8183 0
M  V30 30679 C 2871.46 3.68476 -2.5128 0
M  V30 30680 C 2872.16 3.55404 -4.60503 0
M  V30 30681 N 2871.13 3.7736 -3.9128 0
M  V30 30682 H 2874.94 1.69398 -2.4017 0
M  V30 30683 H 2872.45 0.852013 -1.38255 0
M  V30 30684 H 2874.45 3.93518 -1.37657 0
M  V30 30685 H 2873.11 3.21635 -0.445076 0
M  V30 30686 H 2874.12 3.11067 -4.14075 0
M  V30 30687 H 2870.79 3.8298 -1.6623 0
M  V30 30688 H 2872.18 3.565 -5.69524 0
M  V30 30689 N 2874.9 1.30141 0.88888 0
M  V30 30690 C 2875.83 1.18759 2.01044 0
M  V30 30691 C 2876.82 0.0791737 1.69916 0
M  V30 30692 O 2878 0.260532 1.92444 0
M  V30 30693 C 2875.13 0.874577 3.36108 0
M  V30 30694 C 2874.08 1.9405 3.81482 0
M  V30 30695 C 2873.41 1.48056 5.13793 0
M  V30 30696 C 2874.71 3.351 4.00631 0
M  V30 30697 H 2876.4 2.12587 2.10824 0
M  V30 30698 H 2873.95 1.02348 1.01296 0
M  V30 30699 H 2875.9 0.781621 4.14088 0
M  V30 30700 H 2874.63 -0.0993945 3.26449 0
M  V30 30701 H 2873.29 2.02302 3.05727 0
M  V30 30702 H 2872.93 0.494966 5.00559 0
M  V30 30703 H 2872.63 2.1935 5.45123 0
M  V30 30704 H 2874.16 1.40132 5.94303 0
M  V30 30705 H 2875.57 3.29628 4.69061 0
M  V30 30706 H 2873.97 4.04446 4.43332 0
M  V30 30707 H 2875.04 3.77278 3.04613 0
M  V30 30708 N 2876.38 -1.1007 1.12794 0
M  V30 30709 C 2877.33 -2.18608 0.794561 0
M  V30 30710 C 2878.32 -1.67962 -0.220241 0
M  V30 30711 O 2879.53 -1.79831 -0.0780622 0
M  V30 30712 H 2875.91 -0.712964 0.239135 0
M  V30 30713 H 2877.88 -2.43963 1.71828 0
M  V30 30714 C 2876.63 -3.46653 0.269609 0
M  V30 30715 H 2875.95 -3.85988 1.04178 0
M  V30 30716 H 2877.39 -4.23934 0.0746987 0
M  V30 30717 C 2875.85 -3.21615 -1.00327 0
M  V30 30718 O 2876.38 -3.43633 -2.08036 0
M  V30 30719 N 2874.58 -2.75259 -0.931715 0
M  V30 30720 H 2874.13 -2.57541 -0.0550745 0
M  V30 30721 H 2874.09 -2.58884 -1.784 0
M  V30 30722 N 2877.86 -0.920419 -1.2793 0
M  V30 30723 C 2879.27 -0.602647 -1.76706 0
M  V30 30724 C 2879.62 0.882129 -1.75251 0
M  V30 30725 O 2878.75 1.69016 -1.35138 0
M  V30 30726 C 2879.34 -1.08719 -3.20882 0
M  V30 30727 C 2877.9 -0.820222 -3.67354 0
M  V30 30728 C 2877.05 -1.2501 -2.47523 0
M  V30 30729 H 2880 -1.10097 -1.14299 0
M  V30 30730 H 2880.02 -0.431602 -3.78044 0
M  V30 30731 H 2879.53 -2.16786 -3.21909 0
M  V30 30732 H 2877.63 0.246946 -3.71781 0
M  V30 30733 H 2877.75 -1.43265 -4.57178 0
M  V30 30734 H 2876.11 -0.668742 -2.45764 0
M  V30 30735 H 2876.89 -2.33925 -2.51265 0
M  V30 30736 N 2879.34 1.41929 -0.685124 0
M  V30 30737 C 2880.59 2.00993 -0.211275 0
M  V30 30738 C 2880.91 1.54494 1.18982 0
M  V30 30739 O 2880.18 0.771032 1.80089 0
M  V30 30740 H 2878.76 0.743213 -0.075119 0
M  V30 30741 H 2881.42 1.73702 -0.883946 0
M  V30 30742 H 2880.52 3.1132 -0.220568 0
M  V30 30743 N 2880.82 0.429152 1.51644 0
M  V30 30744 C 2882.06 -0.140043 2.02015 0
M  V30 30745 C 2882.39 -1.43424 1.31376 0
M  V30 30746 O 2881.65 -1.91253 0.414813 0
M  V30 30747 C 2881.95 -0.414409 3.54989 0
M  V30 30748 C 2881.61 0.792989 4.43872 0
M  V30 30749 C 2880.27 1.12413 4.67886 0
M  V30 30750 C 2882.63 1.59884 4.96071 0
M  V30 30751 C 2879.95 2.26193 5.41344 0
M  V30 30752 C 2882.31 2.72757 5.70777 0
M  V30 30753 C 2880.97 3.06334 5.93056 0
M  V30 30754 H 2880.24 -0.0512455 0.739226 0
M  V30 30755 H 2882.89 0.574673 1.82674 0
M  V30 30756 H 2881.19 -1.21093 3.72617 0
M  V30 30757 H 2882.89 -0.868104 3.91491 0
M  V30 30758 H 2879.48 0.524946 4.25373 0
M  V30 30759 H 2883.66 1.35622 4.7741 0
M  V30 30760 H 2878.92 2.52531 5.5681 0
M  V30 30761 H 2883.09 3.35574 6.10215 0
M  V30 30762 H 2880.72 3.94613 6.49757 0
M  V30 30763 N 2882.29 -1.56783 0.160229 0
M  V30 30764 C 2883.24 -2.14008 -0.786423 0
M  V30 30765 C 2884.23 -1.07136 -1.20044 0
M  V30 30766 O 2885.42 -1.33285 -1.16466 0
M  V30 30767 C 2882.55 -2.77566 -2.02019 0
M  V30 30768 C 2881.64 -3.9158 -1.62867 0
M  V30 30769 N 2882.03 -4.96873 -0.946088 0
M  V30 30770 C 2880.32 -4.02534 -1.92047 0
M  V30 30771 C 2881.03 -5.7678 -0.754983 0
M  V30 30772 N 2880 -5.27999 -1.29298 0
M  V30 30773 H 2883.8 -2.92784 -0.255828 0
M  V30 30774 H 2881.32 -1.62349 -0.0408493 0
M  V30 30775 H 2883.31 -3.16933 -2.70849 0
M  V30 30776 H 2881.97 -2.00267 -2.55584 0
M  V30 30777 H 2882.99 -5.1435 -0.605365 0
M  V30 30778 H 2879.66 -3.36326 -2.47368 0
M  V30 30779 H 2881.05 -6.71553 -0.21602 0
M  V30 30780 N 2883.77 0.113531 -1.57191 0
M  V30 30781 C 2885 0.834389 -1.89329 0
M  V30 30782 C 2885.42 1.73175 -0.752049 0
M  V30 30783 O 2884.77 1.80387 0.276881 0
M  V30 30784 C 2884.82 1.66324 -3.20965 0
M  V30 30785 O 2884.55 0.801993 -4.30697 0
M  V30 30786 C 2886.05 2.48877 -3.66845 0
M  V30 30787 H 2883.27 0.239576 -0.626773 0
M  V30 30788 H 2885.81 0.0962836 -2.04273 0
M  V30 30789 H 2883.97 2.35404 -3.07675 0
M  V30 30790 H 2884.38 1.37422 -5.06177 0
M  V30 30791 H 2885.85 3.02555 -4.61697 0
M  V30 30792 H 2886.33 3.2649 -2.93771 0
M  V30 30793 H 2886.94 1.85029 -3.82942 0
M  V30 30794 N 2885.25 1.52854 0.383864 0
M  V30 30795 C 2886.5 1.67816 1.12616 0
M  V30 30796 C 2886.82 0.423174 1.90353 0
M  V30 30797 O 2886.09 -0.562521 1.8765 0
M  V30 30798 H 2884.67 0.618609 0.418727 0
M  V30 30799 H 2887.33 1.89985 0.434917 0
M  V30 30800 H 2886.43 2.53094 1.8262 0
M  V30 30801 N 2886.73 -0.642612 1.43904 0
M  V30 30802 C 2887.98 -1.40445 1.46298 0
M  V30 30803 C 2888.31 -1.93987 0.0908702 0
M  V30 30804 O 2887.58 -1.7295 -0.889853 0
M  V30 30805 C 2887.87 -2.57814 2.51404 0
M  V30 30806 C 2887.72 -2.09695 3.97929 0
M  V30 30807 C 2889.04 -3.60017 2.53131 0
M  V30 30808 H 2886.16 -0.509329 0.532685 0
M  V30 30809 H 2888.8 -0.727604 1.75516 0
M  V30 30810 H 2886.95 -3.15556 2.26619 0
M  V30 30811 H 2888.62 -1.56872 4.33807 0
M  V30 30812 H 2886.86 -1.40975 4.10254 0
M  V30 30813 H 2887.54 -2.94144 4.67101 0
M  V30 30814 H 2890.01 -3.12054 2.75248 0
M  V30 30815 H 2888.89 -4.39677 3.28597 0
M  V30 30816 H 2889.15 -4.13321 1.56902 0
M  V30 30817 N 2888.21 -1.30611 -0.881966 0
M  V30 30818 C 2889.17 -1.17223 -1.96955 0
M  V30 30819 C 2890.17 -0.102626 -1.60472 0
M  V30 30820 O 2891.36 -0.350973 -1.70628 0
M  V30 30821 C 2888.49 -0.796631 -3.31461 0
M  V30 30822 H 2889.69 -2.13849 -2.10258 0
M  V30 30823 H 2887.24 -1.1405 -1.06875 0
M  V30 30824 H 2887.97 0.168996 -3.23859 0
M  V30 30825 H 2887.76 -1.56965 -3.59311 0
M  V30 30826 H 2889.25 -0.726522 -4.11232 0
M  V30 30827 N 2889.69 1.0947 -1.13376 0
M  V30 30828 C 2890.93 1.81009 -0.889876 0
M  V30 30829 C 2891.25 1.86627 0.585653 0
M  V30 30830 O 2892.45 2.54469 0.946452 0
M  V30 30831 C 2890.91 3.25171 -1.54246 0
M  V30 30832 C 2890.52 3.2782 -3.05349 0
M  V30 30833 C 2892.26 4.01468 -1.37926 0
M  V30 30834 C 2890.17 4.66504 -3.63495 0
M  V30 30835 H 2889.1 0.678306 -0.329268 0
M  V30 30836 H 2891.75 1.23036 -1.36141 0
M  V30 30837 H 2890.13 3.83202 -0.998592 0
M  V30 30838 H 2891.31 2.79557 -3.66312 0
M  V30 30839 H 2889.62 2.65014 -3.2118 0
M  V30 30840 H 2892.22 5.03926 -1.7878 0
M  V30 30841 H 2892.56 4.15037 -0.32406 0
M  V30 30842 H 2893.09 3.49877 -1.8929 0
M  V30 30843 H 2889.83 4.58137 -4.68819 0
M  V30 30844 H 2889.35 5.15093 -3.07309 0
M  V30 30845 H 2891.03 5.35478 -3.63143 0
M  V30 30846 N 2891.16 0.92719 1.2744 0
M  V30 30847 C 2892.41 0.566237 1.94006 0
M  V30 30848 C 2892.73 -0.895314 1.73231 0
M  V30 30849 O 2892 -1.63457 1.07976 0
M  V30 30850 H 2890.58 0.206422 0.717913 0
M  V30 30851 H 2893.24 1.17947 1.55159 0
M  V30 30852 H 2892.34 0.772082 3.02399 0
M  V30 30853 N 2892.64 -1.41564 0.692641 0
M  V30 30854 C 2893.89 -2.00502 0.219487 0
M  V30 30855 C 2894.2 -1.55481 -1.1868 0
M  V30 30856 O 2895.41 -2.06959 -1.75727 0
M  V30 30857 C 2893.87 -3.58276 0.341514 0
M  V30 30858 C 2893.47 -4.1228 1.75299 0
M  V30 30859 C 2895.22 -4.24439 -0.0720153 0
M  V30 30860 C 2893.12 -5.62478 1.82682 0
M  V30 30861 H 2892.05 -0.749923 0.0783006 0
M  V30 30862 H 2894.71 -1.62078 0.860414 0
M  V30 30863 H 2893.09 -3.9429 -0.367614 0
M  V30 30864 H 2894.26 -3.87691 2.49064 0
M  V30 30865 H 2892.58 -3.58632 2.11593 0
M  V30 30866 H 2895.17 -5.34687 -0.0372445 0
M  V30 30867 H 2895.52 -4.01222 -1.11026 0
M  V30 30868 H 2896.05 -3.93449 0.586733 0
M  V30 30869 H 2892.79 -5.90518 2.8455 0
M  V30 30870 H 2892.31 -5.89002 1.13298 0
M  V30 30871 H 2893.99 -6.272 1.58838 0
M  V30 30872 N 2894.12 -0.437188 -1.51415 0
M  V30 30873 C 2895.4 0.189258 -1.94682 0
M  V30 30874 C 2895.78 1.60106 -1.37584 0
M  V30 30875 O 2895.12 2.21459 -0.562854 0
M  V30 30876 C 2895.33 0.167139 -3.486 0
M  V30 30877 C 2896.68 0.372782 -4.2296 0
M  V30 30878 O 2897.71 0.24526 -3.55355 0
M  V30 30879 O 2896.57 0.626598 -5.42896 0
M  V30 30880 H 2893.66 0.130049 -0.816711 0
M  V30 30881 H 2896.21 -0.495156 -1.62315 0
M  V30 30882 H 2894.98 -0.819878 -3.82614 0
M  V30 30883 H 2894.6 0.894469 -3.87408 0
M  V30 30884 N 2895.6 1.56696 -0.168541 0
M  V30 30885 C 2897.01 1.83415 0.348662 0
M  V30 30886 C 2897.36 1.08823 1.63255 0
M  V30 30887 O 2896.48 0.34037 2.13706 0
M  V30 30888 C 2897.08 3.32712 0.639365 0
M  V30 30889 C 2895.64 3.59937 1.10102 0
M  V30 30890 C 2894.79 2.76969 0.135415 0
M  V30 30891 H 2897.74 1.53761 -0.392856 0
M  V30 30892 H 2897.76 3.5004 1.49173 0
M  V30 30893 H 2897.27 3.86975 -0.295241 0
M  V30 30894 H 2895.37 3.11082 2.05082 0
M  V30 30895 H 2895.48 4.68288 1.0121 0
M  V30 30896 H 2893.85 2.46728 0.632242 0
M  V30 30897 H 2894.63 3.34012 -0.793162 0
M  V30 30898 N 2897.08 -0.105193 1.57249 0
M  V30 30899 C 2898.35 -0.841616 1.76568 0
M  V30 30900 C 2898.73 -1.97419 0.7476 0
M  V30 30901 O 2898.08 -2.27381 -0.225846 0
M  V30 30902 C 2898.29 -1.34555 3.22019 0
M  V30 30903 C 2899.64 -1.79238 3.84914 0
M  V30 30904 O 2900.66 -1.44202 3.25706 0
M  V30 30905 O 2899.52 -2.43986 4.89012 0
M  V30 30906 H 2896.62 -0.400685 0.72345 0
M  V30 30907 H 2899.16 -0.0878595 1.69472 0
M  V30 30908 H 2897.93 -0.533617 3.87644 0
M  V30 30909 H 2897.56 -2.16161 3.33707 0
M  V30 30910 N 2898.55 -1.53055 -0.375752 0
M  V30 30911 C 2899.97 -1.42601 -0.716739 0
M  V30 30912 C 2900.17 -0.556965 -1.9365 0
M  V30 30913 O 2899.23 -0.0354904 -2.52475 0
M  V30 30914 C 2900.54 -2.85648 -0.939449 0
M  V30 30915 C 2902.09 -2.95213 -1.0401 0
M  V30 30916 C 2902.56 -4.393 -1.29535 0
M  V30 30917 N 2904.05 -4.42684 -1.36327 0
M  V30 30918 C 2904.79 -5.51268 -1.57768 0
M  V30 30919 N 2904.28 -6.69916 -1.76592 0
M  V30 30920 N 2906.08 -5.38831 -1.60055 0
M  V30 30921 H 2898.23 -2.0807 0.426677 0
M  V30 30922 H 2900.49 -0.939213 0.128775 0
M  V30 30923 H 2900.2 -3.51512 -0.115127 0
M  V30 30924 H 2900.07 -3.28693 -1.85042 0
M  V30 30925 H 2902.46 -2.2951 -1.85497 0
M  V30 30926 H 2902.54 -2.55577 -0.106741 0
M  V30 30927 H 2902.18 -5.05574 -0.485522 0
M  V30 30928 H 2902.11 -4.765 -2.24176 0
M  V30 30929 H 2904.6 -3.57173 -1.23435 0
M  V30 30930 H 2904.92 -7.48442 -1.92497 0
M  V30 30931 H 2903.26 -6.7292 -1.7379 0
M  V30 30932 H 2906.45 -4.45105 -1.44909 0
M  V30 30933 H 2906.63 -6.23521 -1.76424 0
M  V30 30934 N 2900.03 0.634971 -1.44242 0
M  V30 30935 C 2900.96 1.76021 -1.46796 0
M  V30 30936 C 2901.98 1.58729 -0.361808 0
M  V30 30937 O 2903.17 1.67113 -0.627326 0
M  V30 30938 C 2900.27 3.13694 -1.28254 0
M  V30 30939 C 2899.44 3.57481 -2.52044 0
M  V30 30940 C 2898.5 4.74018 -2.28458 0
M  V30 30941 O 2897.52 4.82526 -3.01923 0
M  V30 30942 N 2898.73 5.65462 -1.31274 0
M  V30 30943 H 2901.49 1.74303 -2.438 0
M  V30 30944 H 2899.05 0.819414 -1.39632 0
M  V30 30945 H 2901.04 3.89371 -1.10328 0
M  V30 30946 H 2899.61 3.10078 -0.396284 0
M  V30 30947 H 2898.83 2.72054 -2.85273 0
M  V30 30948 H 2900.12 3.83486 -3.34389 0
M  V30 30949 H 2899.52 5.61278 -0.705916 0
M  V30 30950 H 2898.08 6.40784 -1.19328 0
M  V30 30951 N 2901.51 1.31076 0.875027 0
M  V30 30952 C 2902.76 1.2166 1.63004 0
M  V30 30953 C 2903.11 -0.224272 1.91088 0
M  V30 30954 O 2902.4 -1.15623 1.52781 0
M  V30 30955 C 2902.6 1.98894 2.96945 0
M  V30 30956 C 2902.43 3.50344 2.81938 0
M  V30 30957 C 2901.2 4.19698 2.81393 0
M  V30 30958 C 2903.4 4.45389 2.57163 0
M  V30 30959 N 2901.38 5.5734 2.57382 0
M  V30 30960 C 2902.75 5.70664 2.42368 0
M  V30 30961 C 2904.8 4.34873 2.42467 0
M  V30 30962 C 2903.51 6.86613 2.14373 0
M  V30 30963 C 2905.53 5.50599 2.15858 0
M  V30 30964 C 2904.89 6.7486 2.01848 0
M  V30 30965 H 2900.99 0.500282 0.601034 0
M  V30 30966 H 2903.58 1.65205 1.0303 0
M  V30 30967 H 2901.75 1.57724 3.54933 0
M  V30 30968 H 2903.48 1.81538 3.61699 0
M  V30 30969 H 2900.24 3.71621 2.93589 0
M  V30 30970 H 2900.66 6.29798 2.48362 0
M  V30 30971 H 2905.3 3.39472 2.52029 0
M  V30 30972 H 2903.02 7.82045 2.03548 0
M  V30 30973 H 2906.61 5.44376 2.05295 0
M  V30 30974 H 2905.49 7.62896 1.81549 0
M  V30 30975 N 2902.99 -1.08867 1.13955 0
M  V30 30976 C 2904.27 -1.77775 0.815799 0
M  V30 30977 C 2904.65 -1.9945 -0.691589 0
M  V30 30978 O 2903.99 -1.60052 -1.63082 0
M  V30 30979 C 2904.2 -3.09686 1.60921 0
M  V30 30980 C 2905.55 -3.84298 1.80556 0
M  V30 30981 O 2906.58 -3.19454 1.57568 0
M  V30 30982 O 2905.43 -5.00721 2.18955 0
M  V30 30983 H 2902.53 -0.771266 0.298458 0
M  V30 30984 H 2905.07 -1.15372 1.24448 0
M  V30 30985 H 2903.85 -2.89431 2.63336 0
M  V30 30986 H 2903.47 -3.79815 1.17584 0
M  V30 30987 N 2904.47 -0.933936 -1.26946 0
M  V30 30988 C 2905.38 -0.443711 -2.30366 0
M  V30 30989 C 2906.39 0.478716 -1.67285 0
M  V30 30990 O 2907.57 0.360008 -1.98156 0
M  V30 30991 C 2904.63 0.289913 -3.45486 0
M  V30 30992 C 2903.69 -0.668188 -4.24068 0
M  V30 30993 C 2902.93 0.03052 -5.33691 0
M  V30 30994 O 2903.15 1.24878 -5.56562 0
M  V30 30995 O 2902.08 -0.644489 -5.9844 0
M  V30 30996 H 2905.91 -1.30259 -2.74347 0
M  V30 30997 H 2903.5 -0.699529 -1.32011 0
M  V30 30998 H 2905.38 0.703457 -4.15487 0
M  V30 30999 H 2904.05 1.1243 -3.03548 0
M  V30 31000 H 2902.96 -1.13153 -3.56577 0
M  V30 31001 H 2904.29 -1.46997 -4.69737 0
M  V30 31002 N 2905.94 1.41194 -0.700139 0
M  V30 31003 C 2906.87 2.33442 -0.0521542 0
M  V30 31004 C 2907.86 1.52065 0.762254 0
M  V30 31005 O 2909.04 1.80586 0.714304 0
M  V30 31006 C 2906.17 3.35923 0.881634 0
M  V30 31007 C 2905.12 4.27646 0.173987 0
M  V30 31008 C 2904.45 5.20539 1.22244 0
M  V30 31009 C 2905.75 5.13355 -0.962487 0
M  V30 31010 H 2907.44 2.87877 -0.822625 0
M  V30 31011 H 2904.99 1.38418 -0.397036 0
M  V30 31012 H 2906.94 3.99385 1.34422 0
M  V30 31013 H 2905.67 2.79848 1.68382 0
M  V30 31014 H 2904.33 3.65615 -0.268615 0
M  V30 31015 H 2903.97 4.60776 2.01728 0
M  V30 31016 H 2903.67 5.82743 0.753935 0
M  V30 31017 H 2905.2 5.86877 1.68545 0
M  V30 31018 H 2906.61 5.70359 -0.579975 0
M  V30 31019 H 2905.01 5.84524 -1.35838 0
M  V30 31020 H 2906.08 4.50249 -1.80011 0
M  V30 31021 N 2907.42 0.445212 1.51181 0
M  V30 31022 C 2908.67 -0.118609 2.02152 0
M  V30 31023 C 2909 -1.42023 1.3289 0
M  V30 31024 O 2908.25 -1.90802 0.435075 0
M  V30 31025 C 2908.55 -0.376735 3.55409 0
M  V30 31026 C 2908.22 0.840023 4.43006 0
M  V30 31027 C 2906.88 1.17369 4.66667 0
M  V30 31028 C 2909.23 1.65136 4.94348 0
M  V30 31029 C 2906.56 2.31922 5.38915 0
M  V30 31030 C 2908.91 2.78796 5.67852 0
M  V30 31031 C 2907.58 3.12607 5.89774 0
M  V30 31032 H 2906.85 -0.0434022 0.739728 0
M  V30 31033 H 2909.49 0.594016 1.82054 0
M  V30 31034 H 2907.8 -1.17134 3.73881 0
M  V30 31035 H 2909.49 -0.826533 3.92389 0
M  V30 31036 H 2906.08 0.570033 4.24792 0
M  V30 31037 H 2910.27 1.40678 4.75945 0
M  V30 31038 H 2905.52 2.58423 5.54101 0
M  V30 31039 H 2909.7 3.42028 6.06622 0
M  V30 31040 H 2907.33 4.01483 6.45535 0
M  V30 31041 N 2908.9 -1.56605 0.176849 0
M  V30 31042 C 2909.85 -2.1823 -0.751274 0
M  V30 31043 C 2910.82 -1.12397 -1.22295 0
M  V30 31044 O 2912 -1.40571 -1.29013 0
M  V30 31045 C 2909.14 -2.83147 -1.97286 0
M  V30 31046 C 2908.26 -4.03457 -1.54424 0
M  V30 31047 C 2907.39 -4.56283 -2.71992 0
M  V30 31048 C 2906.43 -5.6899 -2.25647 0
M  V30 31049 N 2905.57 -6.16302 -3.36327 0
M  V30 31050 H 2910.41 -2.97194 -0.21898 0
M  V30 31051 H 2907.94 -1.46784 -0.0963545 0
M  V30 31052 H 2909.9 -3.18944 -2.68943 0
M  V30 31053 H 2908.53 -2.06778 -2.47877 0
M  V30 31054 H 2907.58 -3.73443 -0.724207 0
M  V30 31055 H 2908.9 -4.85026 -1.16409 0
M  V30 31056 H 2908.05 -4.94291 -3.51797 0
M  V30 31057 H 2906.79 -3.73782 -3.1327 0
M  V30 31058 H 2905.79 -5.30529 -1.44289 0
M  V30 31059 H 2907.02 -6.53296 -1.8542 0
M  V30 31060 H 2904.96 -5.36729 -3.77171 0
M  V30 31061 H 2904.88 -6.92876 -3.02423 0
M  V30 31062 H 2906.15 -6.58961 -4.16401 0
M  V30 31063 N 2910.38 0.0968524 -1.57302 0
M  V30 31064 C 2911.61 0.814261 -1.90204 0
M  V30 31065 C 2912.02 1.72368 -0.770374 0
M  V30 31066 O 2911.38 1.80671 0.257732 0
M  V30 31067 C 2911.43 1.6291 -3.22711 0
M  V30 31068 O 2911.15 0.756267 -4.31523 0
M  V30 31069 C 2912.65 2.44972 -3.69464 0
M  V30 31070 H 2909.87 0.232914 -0.629279 0
M  V30 31071 H 2912.42 0.0746122 -2.04364 0
M  V30 31072 H 2910.57 2.32128 -3.10154 0
M  V30 31073 H 2910.98 1.32046 -5.07606 0
M  V30 31074 H 2912.46 2.97641 -4.6488 0
M  V30 31075 H 2912.94 3.23355 -2.97217 0
M  V30 31076 H 2913.54 1.80957 -3.84883 0
M  V30 31077 N 2911.86 1.53252 0.36763 0
M  V30 31078 C 2912.79 1.74326 1.47261 0
M  V30 31079 C 2913.77 0.591562 1.51457 0
M  V30 31080 O 2914.95 0.823912 1.6954 0
M  V30 31081 C 2912.08 1.8202 2.85634 0
M  V30 31082 C 2911.12 3.03972 2.99171 0
M  V30 31083 S 2911.96 4.63532 2.68139 0
M  V30 31084 C 2913.11 4.74072 4.08664 0
M  V30 31085 H 2913.35 2.67776 1.29165 0
M  V30 31086 H 2910.88 1.43815 0.561841 0
M  V30 31087 H 2912.84 1.87138 3.65362 0
M  V30 31088 H 2911.5 0.896248 3.01042 0
M  V30 31089 H 2910.69 3.0596 4.00505 0
M  V30 31090 H 2910.29 2.96956 2.27362 0
M  V30 31091 H 2912.59 4.54001 5.02881 0
M  V30 31092 H 2913.53 5.76127 4.11683 0
M  V30 31093 H 2913.94 4.02723 3.95569 0
M  V30 31094 N 2913.34 -0.627313 1.44577 0
M  V30 31095 C 2914.58 -1.38279 1.4684 0
M  V30 31096 C 2914.9 -1.9531 0.106385 0
M  V30 31097 O 2916.1 -2.71499 0.00655857 0
M  V30 31098 C 2914.56 -2.50379 2.58531 0
M  V30 31099 C 2914.17 -1.99844 4.00957 0
M  V30 31100 C 2915.91 -3.27552 2.70019 0
M  V30 31101 C 2913.82 -3.09309 5.04065 0
M  V30 31102 H 2912.75 -0.519655 0.546329 0
M  V30 31103 H 2915.4 -0.674467 1.70655 0
M  V30 31104 H 2913.78 -3.23804 2.27963 0
M  V30 31105 H 2914.96 -1.33259 4.41111 0
M  V30 31106 H 2913.27 -1.35475 3.93745 0
M  V30 31107 H 2915.87 -4.09162 3.44224 0
M  V30 31108 H 2916.21 -3.77281 1.75967 0
M  V30 31109 H 2916.74 -2.61219 3.00016 0
M  V30 31110 H 2913.48 -2.64519 5.99758 0
M  V30 31111 H 2913 -3.74523 4.685 0
M  V30 31112 H 2914.68 -3.74021 5.27937 0
M  V30 31113 N 2914.81 -1.31539 -0.868063 0
M  V30 31114 C 2916.23 -1.10237 -1.15412 0
M  V30 31115 C 2916.43 0.125912 -2.01106 0
M  V30 31116 O 2915.49 0.814691 -2.38996 0
M  V30 31117 C 2916.8 -2.37491 -1.84441 0
M  V30 31118 C 2918.35 -2.43119 -1.97134 0
M  V30 31119 C 2918.82 -3.70259 -2.69578 0
M  V30 31120 N 2920.31 -3.71164 -2.77113 0
M  V30 31121 C 2921.05 -4.66236 -3.33783 0
M  V30 31122 N 2920.54 -5.71666 -3.9137 0
M  V30 31123 N 2922.34 -4.53753 -3.31759 0
M  V30 31124 H 2914.49 -2.10312 -0.297072 0
M  V30 31125 H 2916.75 -0.927893 -0.194211 0
M  V30 31126 H 2916.46 -3.27218 -1.28924 0
M  V30 31127 H 2916.33 -2.47433 -2.84704 0
M  V30 31128 H 2918.72 -1.5386 -2.51815 0
M  V30 31129 H 2918.8 -2.3714 -0.959078 0
M  V30 31130 H 2918.44 -4.59885 -2.15564 0
M  V30 31131 H 2918.37 -3.73505 -3.71216 0
M  V30 31132 H 2920.86 -2.94953 -2.36244 0
M  V30 31133 H 2921.18 -6.40286 -4.32729 0
M  V30 31134 H 2919.52 -5.75437 -3.8974 0
M  V30 31135 H 2922.71 -3.70562 -2.8601 0
M  V30 31136 H 2922.89 -5.28023 -3.75627 0
M  V30 31137 N 2916.29 1.08262 -1.1453 0
M  V30 31138 C 2917.54 1.80677 -0.914437 0
M  V30 31139 C 2917.87 1.86296 0.558919 0
M  V30 31140 O 2917.12 1.33586 1.43015 0
M  V30 31141 C 2917.42 3.26115 -1.46232 0
M  V30 31142 C 2917.09 3.40611 -2.95457 0
M  V30 31143 C 2915.75 3.44275 -3.36197 0
M  V30 31144 C 2918.1 3.44168 -3.91405 0
M  V30 31145 C 2915.43 3.49088 -4.71545 0
M  V30 31146 C 2917.78 3.50517 -5.26613 0
M  V30 31147 C 2916.44 3.52454 -5.66862 0
M  V30 31148 H 2915.71 0.661145 -0.334616 0
M  V30 31149 H 2918.36 1.27458 -1.42922 0
M  V30 31150 H 2916.67 3.82053 -0.868509 0
M  V30 31151 H 2918.36 3.80703 -1.25962 0
M  V30 31152 H 2914.95 3.38452 -2.62961 0
M  V30 31153 H 2919.14 3.40567 -3.6101 0
M  V30 31154 H 2914.39 3.48881 -5.02088 0
M  V30 31155 H 2918.57 3.52214 -6.00764 0
M  V30 31156 H 2916.19 3.55936 -6.71724 0
M  V30 31157 N 2917.77 0.940655 1.26449 0
M  V30 31158 C 2919.02 0.586782 1.93394 0
M  V30 31159 C 2919.34 -0.87689 1.74171 0
M  V30 31160 O 2918.61 -1.62302 1.09703 0
M  V30 31161 H 2917.19 0.214025 0.715683 0
M  V30 31162 H 2919.85 1.19586 1.539 0
M  V30 31163 H 2918.95 0.804112 3.01563 0
M  V30 31164 N 2919.25 -1.40821 0.707617 0
M  V30 31165 C 2920.52 -1.94849 0.171206 0
M  V30 31166 C 2920.9 -1.64628 -1.3214 0
M  V30 31167 O 2920.25 -0.959683 -2.0737 0
M  V30 31168 C 2920.46 -3.45747 0.475394 0
M  V30 31169 C 2921.81 -4.22619 0.409699 0
M  V30 31170 O 2922.83 -3.53821 0.410996 0
M  V30 31171 O 2921.69 -5.45175 0.38028 0
M  V30 31172 H 2918.79 -0.826707 0.0220295 0
M  V30 31173 H 2921.33 -1.50473 0.784604 0
M  V30 31174 H 2920.11 -3.61072 1.50807 0
M  V30 31175 H 2919.73 -3.97243 -0.168369 0
M  V30 31176 N 2920.73 -0.453223 -1.50943 0
M  V30 31177 C 2921.97 0.108047 -2.02512 0
M  V30 31178 C 2922.3 1.40965 -1.33576 0
M  V30 31179 O 2921.58 1.89086 -0.455704 0
M  V30 31180 C 2921.86 0.31039 -3.5876 0
M  V30 31181 C 2921.72 -1.01097 -4.38291 0
M  V30 31182 C 2923.03 1.07305 -4.26818 0
M  V30 31183 H 2920.15 0.0377935 -0.73603 0
M  V30 31184 H 2922.8 -0.595327 -1.80432 0
M  V30 31185 H 2920.95 0.909516 -3.77704 0
M  V30 31186 H 2922.62 -1.6453 -4.30961 0
M  V30 31187 H 2920.86 -1.61186 -4.02742 0
M  V30 31188 H 2921.53 -0.823246 -5.45827 0
M  V30 31189 H 2924.01 0.565401 -4.12241 0
M  V30 31190 H 2922.88 1.18341 -5.35991 0
M  V30 31191 H 2923.14 2.10518 -3.8876 0
M  V30 31192 N 2922.2 1.56509 -0.185151 0
M  V30 31193 C 2923.45 1.96904 0.455322 0
M  V30 31194 C 2923.77 1.0728 1.62837 0
M  V30 31195 O 2923.04 0.142001 1.95385 0
M  V30 31196 H 2921.62 0.727116 0.171206 0
M  V30 31197 H 2924.28 1.93027 -0.269564 0
M  V30 31198 H 2923.38 3.0151 0.806107 0
M  V30 31199 N 2923.68 -0.0885089 1.57351 0
M  V30 31200 C 2924.61 -1.10753 2.05562 0
M  V30 31201 C 2925.59 -1.4138 0.945814 0
M  V30 31202 O 2926.78 -1.51296 1.2175 0
M  V30 31203 C 2923.91 -2.42562 2.48558 0
M  V30 31204 C 2922.86 -2.26328 3.63263 0
M  V30 31205 C 2922.19 -3.63371 3.92257 0
M  V30 31206 C 2923.49 -1.69836 4.93916 0
M  V30 31207 H 2925.18 -0.706417 2.90947 0
M  V30 31208 H 2922.73 -0.33836 1.39968 0
M  V30 31209 H 2924.68 -3.14127 2.80895 0
M  V30 31210 H 2923.4 -2.84622 1.60181 0
M  V30 31211 H 2922.06 -1.57207 3.31182 0
M  V30 31212 H 2921.71 -4.02971 3.01037 0
M  V30 31213 H 2921.41 -3.53353 4.69484 0
M  V30 31214 H 2922.94 -4.36394 4.27075 0
M  V30 31215 H 2924.35 -2.31248 5.24592 0
M  V30 31216 H 2922.75 -1.70559 5.75352 0
M  V30 31217 H 2923.82 -0.658346 4.8041 0
M  V30 31218 N 2925.16 -1.53445 -0.359498 0
M  V30 31219 C 2926.44 -1.60532 -1.11753 0
M  V30 31220 C 2926.82 -0.416624 -2.06948 0
M  V30 31221 O 2926.16 0.592589 -2.20682 0
M  V30 31222 C 2926.37 -2.95853 -1.85128 0
M  V30 31223 C 2927.72 -3.50645 -2.39444 0
M  V30 31224 O 2928.75 -2.97922 -1.95246 0
M  V30 31225 O 2927.61 -4.42829 -3.20258 0
M  V30 31226 H 2924.7 -0.648665 -0.512994 0
M  V30 31227 H 2927.25 -1.65788 -0.362272 0
M  V30 31228 H 2926.02 -3.73808 -1.15687 0
M  V30 31229 H 2925.64 -2.94115 -2.67548 0
M  V30 31230 N 2926.64 0.619637 -1.44908 0
M  V30 31231 C 2927.57 1.74198 -1.55491 0
M  V30 31232 C 2928.55 1.65155 -0.407172 0
M  V30 31233 O 2929.73 1.83739 -0.628775 0
M  V30 31234 C 2926.86 3.12768 -1.50976 0
M  V30 31235 C 2925.82 3.3661 -2.64343 0
M  V30 31236 C 2925.14 4.75329 -2.44881 0
M  V30 31237 C 2926.44 3.28044 -4.06429 0
M  V30 31238 H 2928.14 1.65597 -2.49435 0
M  V30 31239 H 2925.68 0.79526 -1.20048 0
M  V30 31240 H 2927.64 3.9107 -1.56978 0
M  V30 31241 H 2926.36 3.22179 -0.535543 0
M  V30 31242 H 2925.02 2.60693 -2.57749 0
M  V30 31243 H 2924.67 4.81458 -1.45625 0
M  V30 31244 H 2924.37 4.92239 -3.20897 0
M  V30 31245 H 2925.89 5.55847 -2.52719 0
M  V30 31246 H 2927.31 3.96236 -4.14331 0
M  V30 31247 H 2925.7 3.56486 -4.8274 0
M  V30 31248 H 2926.77 2.25669 -4.29187 0
M  V30 31249 N 2928.12 1.31997 0.861075 0
M  V30 31250 C 2929.39 1.12817 1.59786 0
M  V30 31251 C 2929.77 -0.313846 2.08754 0
M  V30 31252 O 2929.12 -1.30942 1.8726 0
M  V30 31253 C 2929.33 2.15017 2.74898 0
M  V30 31254 C 2930.68 2.4801 3.44639 0
M  V30 31255 O 2931.7 2.13513 2.85115 0
M  V30 31256 O 2930.56 3.07121 4.52039 0
M  V30 31257 H 2927.66 0.434921 0.703401 0
M  V30 31258 H 2930.2 1.43506 0.905763 0
M  V30 31259 H 2928.97 3.11976 2.36193 0
M  V30 31260 H 2928.6 1.85285 3.51788 0
M  V30 31261 N 2929.59 -1.07653 1.15103 0
M  V30 31262 C 2930.84 -1.8019 0.924006 0
M  V30 31263 C 2931.17 -1.8659 -0.549032 0
M  V30 31264 O 2930.42 -1.34343 -1.42304 0
M  V30 31265 C 2930.72 -3.25335 1.4796 0
M  V30 31266 C 2930.39 -3.39039 2.97259 0
M  V30 31267 C 2929.05 -3.42487 3.38018 0
M  V30 31268 C 2931.4 -3.42087 3.93225 0
M  V30 31269 C 2928.73 -3.46582 4.7339 0
M  V30 31270 C 2931.08 -3.47719 5.28464 0
M  V30 31271 C 2929.75 -3.49443 5.68723 0
M  V30 31272 H 2929.02 -0.659361 0.338118 0
M  V30 31273 H 2931.66 -1.26698 1.43596 0
M  V30 31274 H 2929.97 -3.81587 0.888758 0
M  V30 31275 H 2931.67 -3.80029 1.27979 0
M  V30 31276 H 2928.26 -3.37052 2.64752 0
M  V30 31277 H 2932.44 -3.38647 3.62811 0
M  V30 31278 H 2927.7 -3.46213 5.03931 0
M  V30 31279 H 2931.87 -3.49023 6.02624 0
M  V30 31280 H 2929.5 -3.52369 6.73603 0
M  V30 31281 N 2931.07 -0.947348 -1.25949 0
M  V30 31282 C 2932.3 -0.614668 -1.98082 0
M  V30 31283 C 2932.72 0.804785 -1.70014 0
M  V30 31284 O 2932.08 1.54308 -0.951777 0
M  V30 31285 C 2932.13 -0.870767 -3.49929 0
M  V30 31286 O 2931.23 0.0540726 -4.12365 0
M  V30 31287 H 2930.57 -0.234462 -0.621228 0
M  V30 31288 H 2933.1 -1.27196 -1.60257 0
M  V30 31289 H 2933.11 -0.794121 -4.00197 0
M  V30 31290 H 2931.79 -1.90535 -3.69688 0
M  V30 31291 H 2930.37 -0.0741572 -3.72826 0
M  V30 31292 N 2932.55 1.40444 -0.715075 0
M  V30 31293 C 2933.51 2.2909 -0.0709129 0
M  V30 31294 C 2934.51 1.45343 0.6879 0
M  V30 31295 O 2935.7 1.66262 0.519879 0
M  V30 31296 C 2932.84 3.28544 0.909471 0
M  V30 31297 H 2934.03 2.87553 -0.851661 0
M  V30 31298 H 2931.58 1.48757 -0.4797 0
M  V30 31299 H 2932.32 2.75099 1.71729 0
M  V30 31300 H 2932.1 3.90367 0.368249 0
M  V30 31301 H 2933.59 3.94924 1.35737 0
M  V30 31302 N 2934.03 0.461222 1.507 0
M  V30 31303 C 2935.28 -0.0971615 2.02267 0
M  V30 31304 C 2935.6 -1.40605 1.34389 0
M  V30 31305 O 2934.86 -1.9033 0.455287 0
M  V30 31306 C 2935.16 -0.339017 3.55788 0
M  V30 31307 C 2934.82 0.886963 4.4209 0
M  V30 31308 C 2933.49 1.22312 4.65396 0
M  V30 31309 C 2935.84 1.7037 4.92568 0
M  V30 31310 C 2933.17 2.37625 5.36424 0
M  V30 31311 C 2935.52 2.84803 5.64863 0
M  V30 31312 C 2934.18 3.18845 5.86425 0
M  V30 31313 H 2933.45 -0.0355539 0.740147 0
M  V30 31314 H 2936.1 0.613292 1.81414 0
M  V30 31315 H 2934.4 -1.13162 3.75102 0
M  V30 31316 H 2936.1 -0.784868 3.93244 0
M  V30 31317 H 2932.69 0.615056 4.24164 0
M  V30 31318 H 2936.87 1.45718 4.74426 0
M  V30 31319 H 2932.13 2.64285 5.51329 0
M  V30 31320 H 2936.3 3.48442 6.0296 0
M  V30 31321 H 2933.93 4.08307 6.41241 0
M  V30 31322 N 2935.51 -1.56408 0.193449 0
M  V30 31323 C 2936.78 -1.89278 -0.493284 0
M  V30 31324 C 2937.16 -1.10673 -1.79763 0
M  V30 31325 O 2936.51 -0.207314 -2.27558 0
M  V30 31326 C 2936.72 -3.41625 -0.713672 0
M  V30 31327 C 2938.07 -4.11823 -1.03378 0
M  V30 31328 O 2939.09 -3.47067 -0.80145 0
M  V30 31329 O 2937.95 -5.2627 -1.47318 0
M  V30 31330 H 2935.05 -0.786067 -0.25696 0
M  V30 31331 H 2937.59 -1.68085 0.233539 0
M  V30 31332 H 2936.36 -3.90749 0.207514 0
M  V30 31333 H 2935.99 -3.68504 -1.49301 0
M  V30 31334 N 2936.98 0.0801629 -1.57396 0
M  V30 31335 C 2937.95 1.08047 -2.02135 0
M  V30 31336 C 2938.95 1.32083 -0.917093 0
M  V30 31337 O 2940.14 1.27945 -1.18219 0
M  V30 31338 C 2937.27 2.42612 -2.39484 0
M  V30 31339 H 2938.46 0.695049 -2.91735 0
M  V30 31340 H 2936.02 0.32565 -1.5287 0
M  V30 31341 H 2936.75 2.86002 -1.52884 0
M  V30 31342 H 2936.54 2.26509 -3.20056 0
M  V30 31343 H 2938.03 3.14529 -2.74702 0
M  V30 31344 N 2938.46 1.53634 0.351355 0
M  V30 31345 C 2939.69 1.74741 1.11715 0
M  V30 31346 C 2940.11 0.481688 1.81828 0
M  V30 31347 O 2939.47 -0.565202 1.72265 0
M  V30 31348 C 2939.52 2.92258 2.11229 0
M  V30 31349 O 2938.62 2.6186 3.18595 0
M  V30 31350 H 2937.96 0.579881 0.323472 0
M  V30 31351 H 2940.49 2.00569 0.404132 0
M  V30 31352 H 2940.5 3.18826 2.54585 0
M  V30 31353 H 2939.18 3.84061 1.59593 0
M  V30 31354 H 2937.76 2.46155 2.80111 0
M  V30 31355 N 2939.94 -0.611943 1.45234 0
M  V30 31356 C 2940.87 -1.73371 1.56413 0
M  V30 31357 C 2941.85 -1.64937 0.415925 0
M  V30 31358 O 2943.04 -1.83403 0.63851 0
M  V30 31359 C 2940.17 -3.11963 1.52632 0
M  V30 31360 C 2939.12 -3.35204 2.66125 0
M  V30 31361 C 2938.45 -4.74024 2.47398 0
M  V30 31362 C 2939.75 -3.25884 4.08163 0
M  V30 31363 H 2941.44 -1.64272 2.5031 0
M  V30 31364 H 2938.99 -0.788882 1.20468 0
M  V30 31365 H 2940.94 -3.90232 1.5905 0
M  V30 31366 H 2939.66 -3.21891 0.552621 0
M  V30 31367 H 2938.32 -2.59323 2.59128 0
M  V30 31368 H 2937.97 -4.80679 1.48177 0
M  V30 31369 H 2937.67 -4.9053 3.23503 0
M  V30 31370 H 2939.19 -5.54499 2.55663 0
M  V30 31371 H 2940.61 -3.94033 4.16427 0
M  V30 31372 H 2939.01 -3.53921 4.84623 0
M  V30 31373 H 2940.08 -2.23389 4.30378 0
M  V30 31374 N 2941.42 -1.32452 -0.854063 0
M  V30 31375 C 2942.64 -1.26188 -1.64594 0
M  V30 31376 C 2943.07 0.167041 -1.87357 0
M  V30 31377 O 2942.43 1.11862 -1.42677 0
M  V30 31378 C 2942.47 -2.0274 -2.9821 0
M  V30 31379 O 2941.58 -1.37561 -3.88781 0
M  V30 31380 H 2940.92 -0.434868 -0.501783 0
M  V30 31381 H 2943.45 -1.74777 -1.06369 0
M  V30 31382 H 2943.46 -2.12936 -3.48026 0
M  V30 31383 H 2942.13 -3.06647 -2.80964 0
M  V30 31384 H 2940.71 -1.35916 -3.47248 0
M  V30 31385 N 2942.9 1.07041 -1.15672 0
M  V30 31386 C 2944.31 1.61168 -0.942437 0
M  V30 31387 C 2944.66 1.89307 0.515504 0
M  V30 31388 O 2943.78 1.66087 1.38723 0
M  V30 31389 C 2944.38 2.92809 -1.70436 0
M  V30 31390 C 2942.94 3.43666 -1.53527 0
M  V30 31391 C 2942.09 2.17675 -1.71794 0
M  V30 31392 H 2945.04 0.900877 -1.30652 0
M  V30 31393 H 2945.06 3.6188 -1.17572 0
M  V30 31394 H 2944.57 2.72297 -2.76543 0
M  V30 31395 H 2942.67 3.69253 -0.498289 0
M  V30 31396 H 2942.78 4.19496 -2.31429 0
M  V30 31397 H 2941.15 2.27527 -1.14472 0
M  V30 31398 H 2941.93 1.99654 -2.79272 0
M  V30 31399 N 2944.38 0.954014 1.25445 0
M  V30 31400 C 2945.62 0.608463 1.93142 0
M  V30 31401 C 2945.95 -0.85442 1.74728 0
M  V30 31402 O 2945.21 -1.62834 1.08552 0
M  V30 31403 C 2945.5 0.912557 3.45553 0
M  V30 31404 C 2945.17 2.36137 3.84122 0
M  V30 31405 C 2943.83 2.75739 3.94362 0
M  V30 31406 C 2946.18 3.3023 4.03234 0
M  V30 31407 C 2943.51 4.08503 4.2112 0
M  V30 31408 C 2945.86 4.62605 4.31485 0
M  V30 31409 C 2944.53 5.02004 4.39941 0
M  V30 31410 H 2943.8 0.222652 0.706758 0
M  V30 31411 H 2946.45 1.20293 1.49003 0
M  V30 31412 H 2944.75 0.235687 3.9109 0
M  V30 31413 H 2946.45 0.623783 3.96119 0
M  V30 31414 H 2943.04 2.04424 3.76708 0
M  V30 31415 H 2947.22 3.00824 3.94738 0
M  V30 31416 H 2942.48 4.38673 4.25883 0
M  V30 31417 H 2946.65 5.35494 4.45218 0
M  V30 31418 H 2944.28 6.04904 4.60429 0
M  V30 31419 N 2945.85 -1.40063 0.722513 0
M  V30 31420 C 2946.79 -2.28188 0.0233844 0
M  V30 31421 C 2947.76 -1.43715 -0.760575 0
M  V30 31422 O 2948.95 -1.7312 -0.74576 0
M  V30 31423 C 2946.08 -3.24387 -0.974206 0
M  V30 31424 C 2945.12 -4.25578 -0.280232 0
M  V30 31425 S 2945.95 -5.2614 0.996861 0
M  V30 31426 C 2947.11 -6.259 0.00154925 0
M  V30 31427 H 2947.34 -2.87135 0.770756 0
M  V30 31428 H 2944.88 -1.456 0.513809 0
M  V30 31429 H 2946.83 -3.80335 -1.54453 0
M  V30 31430 H 2945.5 -2.64483 -1.69433 0
M  V30 31431 H 2944.69 -4.93266 -1.03462 0
M  V30 31432 H 2944.29 -3.73366 0.217723 0
M  V30 31433 H 2946.58 -6.72235 -0.843007 0
M  V30 31434 H 2947.53 -7.05154 0.645227 0
M  V30 31435 H 2947.93 -5.63317 -0.365272 0
M  V30 31436 N 2947.33 -0.469207 -1.50453 0
M  V30 31437 C 2948.58 0.0881071 -2.01507 0
M  V30 31438 C 2948.89 1.40953 -1.35615 0
M  V30 31439 O 2950.1 2.05168 -1.77816 0
M  V30 31440 C 2948.56 0.207533 -3.59301 0
M  V30 31441 C 2948.16 -1.10535 -4.3415 0
M  V30 31442 C 2949.91 0.716908 -4.18403 0
M  V30 31443 C 2947.81 -0.94982 -5.83723 0
M  V30 31444 H 2946.74 0.0367024 -0.753106 0
M  V30 31445 H 2949.4 -0.603818 -1.73281 0
M  V30 31446 H 2947.78 0.963197 -3.84107 0
M  V30 31447 H 2948.95 -1.87182 -4.21069 0
M  V30 31448 H 2947.27 -1.54569 -3.86649 0
M  V30 31449 H 2949.86 0.85027 -5.27896 0
M  V30 31450 H 2950.21 1.70775 -3.7966 0
M  V30 31451 H 2950.74 0.0186812 -3.97796 0
M  V30 31452 H 2947.48 -1.91398 -6.26935 0
M  V30 31453 H 2947 -0.223697 -5.99383 0
M  V30 31454 H 2948.68 -0.615683 -6.44064 0
M  V30 31455 N 2948.81 1.56303 -0.201741 0
M  V30 31456 C 2950.23 1.58855 0.153997 0
M  V30 31457 C 2950.43 1.2181 1.60514 0
M  V30 31458 O 2949.48 0.943971 2.34191 0
M  V30 31459 C 2950.79 3.00303 -0.154372 0
M  V30 31460 C 2952.34 3.12856 -0.0950128 0
M  V30 31461 C 2952.82 4.56448 -0.376783 0
M  V30 31462 N 2954.31 4.62054 -0.32564 0
M  V30 31463 C 2955.04 5.71061 -0.51742 0
M  V30 31464 N 2954.54 6.88509 -0.76991 0
M  V30 31465 N 2956.33 5.60286 -0.451219 0
M  V30 31466 H 2948.48 1.78664 -1.14861 0
M  V30 31467 H 2950.75 0.8295 -0.458948 0
M  V30 31468 H 2950.45 3.31992 -1.1608 0
M  V30 31469 H 2950.33 3.73315 0.539948 0
M  V30 31470 H 2952.71 2.80976 0.902026 0
M  V30 31471 H 2952.79 2.42216 -0.822511 0
M  V30 31472 H 2952.44 4.89041 -1.37117 0
M  V30 31473 H 2952.37 5.25287 0.37168 0
M  V30 31474 H 2954.86 3.7765 -0.137375 0
M  V30 31475 H 2955.17 7.67484 -0.904879 0
M  V30 31476 H 2953.52 6.903 -0.80688 0
M  V30 31477 H 2956.71 4.67409 -0.254335 0
M  V30 31478 H 2956.88 6.45178 -0.604095 0
M  V30 31479 N 2950.29 -0.0718147 1.57436 0
M  V30 31480 C 2951.2 -1.10323 2.07041 0
M  V30 31481 C 2952.21 -1.42398 0.999943 0
M  V30 31482 O 2953.39 -1.52575 1.31464 0
M  V30 31483 C 2950.45 -2.39748 2.50443 0
M  V30 31484 C 2949.52 -2.14644 3.71788 0
M  V30 31485 C 2948.75 -3.37899 4.1311 0
M  V30 31486 O 2948.97 -4.47016 3.54306 0
M  V30 31487 O 2947.91 -3.26113 5.05899 0
M  V30 31488 H 2951.73 -0.71182 2.9524 0
M  V30 31489 H 2949.32 -0.285945 1.46638 0
M  V30 31490 H 2951.2 -3.15917 2.78881 0
M  V30 31491 H 2949.87 -2.78269 1.65373 0
M  V30 31492 H 2948.78 -1.36181 3.48433 0
M  V30 31493 H 2950.11 -1.81004 4.5771 0
M  V30 31494 N 2951.77 -1.53818 -0.343203 0
M  V30 31495 C 2952.73 -1.81133 -1.40441 0
M  V30 31496 C 2953.73 -0.682392 -1.45602 0
M  V30 31497 O 2954.92 -0.950675 -1.45972 0
M  V30 31498 C 2952.05 -1.95366 -2.79365 0
M  V30 31499 H 2953.24 -2.7593 -1.17484 0
M  V30 31500 H 2950.8 -1.45236 -0.57761 0
M  V30 31501 H 2951.53 -1.02712 -3.07605 0
M  V30 31502 H 2951.32 -2.77498 -2.77015 0
M  V30 31503 H 2952.81 -2.18014 -3.56174 0
M  V30 31504 N 2953.24 0.604233 -1.45557 0
M  V30 31505 C 2954.49 1.36045 -1.49453 0
M  V30 31506 C 2954.81 1.94504 -0.138967 0
M  V30 31507 O 2954.08 1.77351 0.832065 0
M  V30 31508 H 2952.66 0.505055 -0.55039 0
M  V30 31509 H 2955.32 0.709276 -1.81536 0
M  V30 31510 H 2954.42 2.17817 -2.23522 0
M  V30 31511 N 2954.72 1.32903 0.847027 0
M  V30 31512 C 2956.14 1.1206 1.13643 0
M  V30 31513 C 2956.34 -0.0939016 2.01281 0
M  V30 31514 O 2955.39 -0.776566 2.40262 0
M  V30 31515 C 2956.71 2.40395 1.8064 0
M  V30 31516 C 2958.25 2.46225 1.93242 0
M  V30 31517 C 2958.73 3.74501 2.63654 0
M  V30 31518 N 2960.22 3.75526 2.71173 0
M  V30 31519 C 2960.96 4.71487 3.26324 0
M  V30 31520 N 2960.45 5.7782 3.82225 0
M  V30 31521 N 2962.24 4.58974 3.24499 0
M  V30 31522 H 2954.4 2.10758 0.263575 0
M  V30 31523 H 2956.66 0.930866 0.179424 0
M  V30 31524 H 2956.36 3.29227 1.23702 0
M  V30 31525 H 2956.24 2.51931 2.80732 0
M  V30 31526 H 2958.63 1.57847 2.49336 0
M  V30 31527 H 2958.71 2.38636 0.92123 0
M  V30 31528 H 2958.35 4.63256 2.08221 0
M  V30 31529 H 2958.28 3.79364 3.65227 0
M  V30 31530 H 2960.77 2.98674 2.31522 0
M  V30 31531 H 2961.08 6.47089 4.22487 0
M  V30 31532 H 2959.43 5.81564 3.80536 0
M  V30 31533 H 2962.62 3.75065 2.80078 0
M  V30 31534 H 2962.79 5.33932 3.67179 0
M  V30 31535 N 2956.2 -1.06426 1.16238 0
M  V30 31536 C 2957.45 -1.78586 0.937554 0
M  V30 31537 C 2957.76 -1.88114 -0.535967 0
M  V30 31538 O 2958.97 -2.56889 -0.878651 0
M  V30 31539 C 2957.42 -3.20967 1.62813 0
M  V30 31540 C 2957.03 -3.19609 3.13933 0
M  V30 31541 C 2958.78 -3.9767 1.48522 0
M  V30 31542 C 2956.68 -4.56702 3.75735 0
M  V30 31543 H 2955.61 -0.669337 0.347137 0
M  V30 31544 H 2958.26 -1.19383 1.39356 0
M  V30 31545 H 2956.65 -3.8042 1.09984 0
M  V30 31546 H 2957.82 -2.69747 3.73595 0
M  V30 31547 H 2956.13 -2.56405 3.28094 0
M  V30 31548 H 2958.73 -4.99009 1.92078 0
M  V30 31549 H 2959.07 -4.14032 0.433986 0
M  V30 31550 H 2959.61 -3.44736 1.985 0
M  V30 31551 H 2956.35 -4.45546 4.80801 0
M  V30 31552 H 2955.87 -5.06765 3.20858 0
M  V30 31553 H 2957.55 -5.25661 3.77213 0
M  V30 31554 N 2957.68 -0.960653 -1.24937 0
M  V30 31555 C 2958.61 -0.429843 -2.24115 0
M  V30 31556 C 2959.59 0.492161 -1.54973 0
M  V30 31557 O 2960.77 0.425158 -1.83643 0
M  V30 31558 C 2957.9 0.380253 -3.36559 0
M  V30 31559 C 2956.95 -0.483015 -4.23756 0
M  V30 31560 S 2957.78 -1.91894 -4.99937 0
M  V30 31561 C 2958.94 -1.11743 -6.15844 0
M  V30 31562 H 2959.17 -1.27034 -2.68793 0
M  V30 31563 H 2956.7 -0.765165 -1.34107 0
M  V30 31564 H 2958.66 0.841693 -4.01778 0
M  V30 31565 H 2957.32 1.19564 -2.90454 0
M  V30 31566 H 2956.51 0.13861 -5.03809 0
M  V30 31567 H 2956.12 -0.879903 -3.63502 0
M  V30 31568 H 2958.41 -0.369017 -6.76494 0
M  V30 31569 H 2959.35 -1.8921 -6.82353 0
M  V30 31570 H 2959.76 -0.64491 -5.60804 0
M  V30 31571 N 2959.16 1.39677 -0.729931 0
M  V30 31572 C 2960.38 2.05441 -0.284382 0
M  V30 31573 C 2960.81 1.54665 1.07054 0
M  V30 31574 O 2960.16 0.688187 1.67731 0
M  V30 31575 C 2960.21 3.59431 -0.290152 0
M  V30 31576 O 2959.32 4.05997 0.723906 0
M  V30 31577 H 2958.66 0.651085 -0.130322 0
M  V30 31578 H 2961.19 1.78808 -0.994434 0
M  V30 31579 H 2961.2 4.07784 -0.132784 0
M  V30 31580 H 2959.87 3.95751 -1.27884 0
M  V30 31581 H 2958.45 3.6907 0.533089 0
M  V30 31582 N 2960.63 0.47718 1.50202 0
M  V30 31583 C 2961.54 -0.318987 2.32421 0
M  V30 31584 C 2962.56 -0.990208 1.43076 0
M  V30 31585 O 2963.74 -0.976842 1.76124 0
M  V30 31586 C 2960.8 -1.38323 3.17911 0
M  V30 31587 C 2959.86 -0.727962 4.23083 0
M  V30 31588 C 2959.1 -1.74149 5.04488 0
M  V30 31589 O 2959.32 -2.96872 4.87056 0
M  V30 31590 O 2958.25 -1.30996 5.87472 0
M  V30 31591 H 2962.08 0.353334 3.01638 0
M  V30 31592 H 2959.66 0.238917 1.47477 0
M  V30 31593 H 2961.55 -1.99953 3.7094 0
M  V30 31594 H 2960.22 -2.03891 2.51417 0
M  V30 31595 H 2959.13 -0.0725442 3.7403 0
M  V30 31596 H 2960.46 -0.115129 4.92065 0
M  V30 31597 N 2962.11 -1.56194 0.210027 0
M  V30 31598 C 2963.04 -2.2277 -0.699707 0
M  V30 31599 C 2964.02 -1.19562 -1.20991 0
M  V30 31600 O 2965.21 -1.48114 -1.25602 0
M  V30 31601 C 2962.34 -2.89867 -1.91297 0
M  V30 31602 C 2961.29 -3.99447 -1.53708 0
M  V30 31603 C 2960.62 -4.53782 -2.82818 0
M  V30 31604 C 2961.92 -5.17092 -0.735746 0
M  V30 31605 H 2963.61 -2.9905 -0.144663 0
M  V30 31606 H 2961.16 -1.43839 -0.0681392 0
M  V30 31607 H 2963.11 -3.35129 -2.55474 0
M  V30 31608 H 2961.84 -2.11015 -2.49279 0
M  V30 31609 H 2960.49 -3.54899 -0.918829 0
M  V30 31610 H 2960.14 -3.71675 -3.3892 0
M  V30 31611 H 2959.84 -5.27731 -2.58406 0
M  V30 31612 H 2961.37 -5.01755 -3.47957 0
M  V30 31613 H 2962.78 -5.58806 -1.28095 0
M  V30 31614 H 2961.18 -5.97201 -0.589167 0
M  V30 31615 H 2962.25 -4.84202 0.260089 0
M  V30 31616 N 2963.59 0.0634645 -1.57472 0
M  V30 31617 C 2964.82 0.777526 -1.92274 0
M  V30 31618 C 2965.24 1.69901 -0.807171 0
M  V30 31619 O 2964.6 1.79711 0.239491 0
M  V30 31620 C 2964.65 1.54011 -3.26057 0
M  V30 31621 O 2963.75 2.65133 -3.15877 0
M  V30 31622 H 2963.09 0.211568 -0.629393 0
M  V30 31623 H 2965.62 0.0292164 -2.04579 0
M  V30 31624 H 2965.63 1.91756 -3.6013 0
M  V30 31625 H 2964.31 0.864057 -4.06825 0
M  V30 31626 H 2962.88 2.30184 -2.93377 0
M  V30 31627 N 2965.07 1.53998 0.33504 0
M  V30 31628 C 2966.32 1.71314 1.0722 0
M  V30 31629 C 2966.64 0.483519 1.8891 0
M  V30 31630 O 2965.91 -0.502537 1.89345 0
M  V30 31631 H 2964.49 0.631617 0.398834 0
M  V30 31632 H 2967.15 1.91273 0.374254 0
M  V30 31633 H 2966.25 2.58775 1.74475 0
M  V30 31634 N 2966.55 -0.596505 1.45875 0
M  V30 31635 C 2967.77 -1.38155 1.54015 0
M  V30 31636 C 2968.19 -1.87973 0.176513 0
M  V30 31637 O 2967.55 -1.62846 -0.823866 0
M  V30 31638 C 2967.6 -2.57851 2.53368 0
M  V30 31639 O 2967.32 -2.10101 3.84434 0
M  V30 31640 C 2968.82 -3.50576 2.71314 0
M  V30 31641 H 2966.04 -0.422529 0.521258 0
M  V30 31642 H 2968.58 -0.72646 1.91162 0
M  V30 31643 H 2966.74 -3.19378 2.19263 0
M  V30 31644 H 2967.15 -2.87951 4.38389 0
M  V30 31645 H 2968.63 -4.31078 3.44783 0
M  V30 31646 H 2969.1 -4.0163 1.77735 0
M  V30 31647 H 2969.71 -2.94894 3.0646 0
M  V30 31648 N 2968.02 -1.3335 -0.839967 0
M  V30 31649 C 2969.44 -1.22218 -1.41137 0
M  V30 31650 C 2969.79 0.159364 -1.95552 0
M  V30 31651 O 2968.91 1.0589 -1.88723 0
M  V30 31652 C 2969.51 -2.21274 -2.56561 0
M  V30 31653 C 2968.07 -2.13985 -3.09657 0
M  V30 31654 C 2967.21 -2.08821 -1.82453 0
M  V30 31655 H 2970.16 -1.44965 -0.645828 0
M  V30 31656 H 2970.18 -1.81982 -3.3416 0
M  V30 31657 H 2969.7 -3.21815 -2.16926 0
M  V30 31658 H 2967.8 -1.16742 -3.53839 0
M  V30 31659 H 2967.91 -3.04479 -3.69905 0
M  V30 31660 H 2966.27 -1.5428 -2.02657 0
M  V30 31661 H 2967.06 -3.11168 -1.45016 0
M  V30 31662 N 2969.5 1.05808 -1.16801 0
M  V30 31663 C 2970.73 1.82923 -0.977435 0
M  V30 31664 C 2971.15 1.82147 0.469482 0
M  V30 31665 O 2970.51 1.22588 1.33574 0
M  V30 31666 C 2970.56 3.27208 -1.51549 0
M  V30 31667 O 2969.66 4.05976 -0.725093 0
M  V30 31668 H 2969 0.565819 -0.347484 0
M  V30 31669 H 2971.53 1.33374 -1.55154 0
M  V30 31670 H 2971.54 3.7802 -1.53508 0
M  V30 31671 H 2970.22 3.27088 -2.56877 0
M  V30 31672 H 2968.8 3.64728 -0.776404 0
M  V30 31673 N 2970.98 0.967265 1.24426 0
M  V30 31674 C 2971.93 0.468145 2.23142 0
M  V30 31675 C 2972.91 -0.449606 1.54491 0
M  V30 31676 O 2974.11 -0.280599 1.74762 0
M  V30 31677 C 2971.24 -0.240806 3.42454 0
M  V30 31678 C 2970.32 0.695748 4.18354 0
M  V30 31679 N 2970.71 1.83281 4.71425 0
M  V30 31680 C 2969.01 0.506443 4.43115 0
M  V30 31681 C 2969.71 2.41858 5.29037 0
M  V30 31682 N 2968.69 1.70378 5.1621 0
M  V30 31683 H 2972.49 1.33574 2.61792 0
M  V30 31684 H 2970 0.826302 1.39807 0
M  V30 31685 H 2972 -0.615596 4.1233 0
M  V30 31686 H 2970.66 -1.10485 3.05325 0
M  V30 31687 H 2971.67 2.21436 4.68174 0
M  V30 31688 H 2968.35 -0.313674 4.1632 0
M  V30 31689 H 2969.74 3.3781 5.80805 0
M  V30 31690 N 2972.46 -1.39288 0.737328 0
M  V30 31691 C 2973.71 -2.00466 0.286292 0
M  V30 31692 C 2974.03 -1.58509 -1.12718 0
M  V30 31693 O 2973.29 -0.806288 -1.78318 0
M  V30 31694 C 2973.59 -3.55793 0.3385 0
M  V30 31695 C 2973.25 -4.17408 1.70532 0
M  V30 31696 C 2971.92 -4.33951 2.07941 0
M  V30 31697 C 2974.27 -4.51566 2.60264 0
M  V30 31698 C 2971.6 -4.81942 3.34587 0
M  V30 31699 C 2973.95 -5.00967 3.86284 0
M  V30 31700 C 2972.61 -5.15717 4.23783 0
M  V30 31701 H 2971.88 -0.733557 0.104762 0
M  V30 31702 H 2974.53 -1.6658 0.944627 0
M  V30 31703 H 2972.83 -3.89718 -0.40341 0
M  V30 31704 H 2974.53 -4.0099 -0.028655 0
M  V30 31705 H 2971.12 -4.04935 1.40447 0
M  V30 31706 H 2975.31 -4.38402 2.32631 0
M  V30 31707 H 2970.56 -4.91548 3.63581 0
M  V30 31708 H 2974.74 -5.2637 4.55969 0
M  V30 31709 H 2972.36 -5.52665 5.21982 0
M  V30 31710 N 2973.94 -0.485139 -1.49947 0
M  V30 31711 C 2975.19 0.064842 -2.01996 0
M  V30 31712 C 2975.51 1.38942 -1.36821 0
M  V30 31713 O 2974.78 1.88922 -0.518196 0
M  V30 31714 H 2973.36 0.0269531 -0.746514 0
M  V30 31715 H 2976.02 -0.638765 -1.84135 0
M  V30 31716 H 2975.11 0.206116 -3.11419 0
M  V30 31717 N 2975.42 1.56081 -0.218307 0
M  V30 31718 C 2976.64 2.02608 0.419222 0
M  V30 31719 C 2977.06 1.09817 1.53577 0
M  V30 31720 O 2976.42 0.107181 1.82185 0
M  V30 31721 C 2976.47 3.48688 0.953894 0
M  V30 31722 O 2976.19 4.37941 -0.118127 0
M  V30 31723 C 2977.69 4.10844 1.66499 0
M  V30 31724 H 2974.91 0.663056 0.102948 0
M  V30 31725 H 2977.45 2.01757 -0.333811 0
M  V30 31726 H 2975.61 3.50165 1.65721 0
M  V30 31727 H 2976.02 5.23735 0.283267 0
M  V30 31728 H 2977.5 5.14837 1.99114 0
M  V30 31729 H 2977.97 3.55652 2.57698 0
M  V30 31730 H 2978.58 4.13208 1.00696 0
M  V30 31731 N 2976.89 -0.0551124 1.57504 0
M  V30 31732 C 2977.86 -1.04817 2.03828 0
M  V30 31733 C 2978.86 -1.30608 0.937991 0
M  V30 31734 O 2980.05 -1.26048 1.2024 0
M  V30 31735 C 2977.18 -2.38771 2.43313 0
M  V30 31736 H 2978.37 -0.648548 2.92803 0
M  V30 31737 H 2975.92 -0.301288 1.53369 0
M  V30 31738 H 2976.66 -2.83533 1.57415 0
M  V30 31739 H 2976.44 -2.21389 3.23619 0
M  V30 31740 H 2977.93 -3.10119 2.79671 0
M  V30 31741 N 2978.37 -1.54173 -0.326869 0
M  V30 31742 C 2979.3 -1.8632 -1.40738 0
M  V30 31743 C 2980.28 -0.719711 -1.54124 0
M  V30 31744 O 2981.47 -0.973147 -1.68058 0
M  V30 31745 C 2978.6 -2.08762 -2.77553 0
M  V30 31746 C 2977.55 -3.24601 -2.78959 0
M  V30 31747 C 2976.88 -3.32408 -4.18819 0
M  V30 31748 C 2978.18 -4.62328 -2.43002 0
M  V30 31749 H 2979.87 -2.76813 -1.14083 0
M  V30 31750 H 2977.42 -1.33191 -0.547366 0
M  V30 31751 H 2979.37 -2.29835 -3.53205 0
M  V30 31752 H 2978.09 -1.15015 -3.05678 0
M  V30 31753 H 2976.75 -3.0341 -2.05762 0
M  V30 31754 H 2976.4 -2.36226 -4.44079 0
M  V30 31755 H 2976.1 -4.1026 -4.20666 0
M  V30 31756 H 2977.63 -3.55712 -4.96288 0
M  V30 31757 H 2979.04 -4.83304 -3.08367 0
M  V30 31758 H 2977.44 -5.42706 -2.56106 0
M  V30 31759 H 2978.51 -4.64802 -1.38157 0
M  V30 31760 N 2979.85 0.58876 -1.4619 0
M  V30 31761 C 2981.1 1.34337 -1.50454 0
M  V30 31762 C 2981.41 1.9496 -0.15813 0
M  V30 31763 O 2982.62 2.71386 -0.0785395 0
M  V30 31764 C 2981.07 2.43436 -2.65079 0
M  V30 31765 C 2980.68 1.89143 -4.06114 0
M  V30 31766 C 2982.43 3.20278 -2.78608 0
M  V30 31767 C 2980.33 2.95836 -5.12089 0
M  V30 31768 H 2979.26 0.504987 -0.559914 0
M  V30 31769 H 2981.91 0.628984 -1.72383 0
M  V30 31770 H 2980.3 3.17646 -2.36468 0
M  V30 31771 H 2981.47 1.21517 -4.44489 0
M  V30 31772 H 2979.78 1.24988 -3.97199 0
M  V30 31773 H 2982.38 3.99892 -3.54951 0
M  V30 31774 H 2982.72 3.72483 -1.85909 0
M  V30 31775 H 2983.26 2.53173 -3.06836 0
M  V30 31776 H 2980 2.48525 -6.06561 0
M  V30 31777 H 2979.52 3.6197 -4.78265 0
M  V30 31778 H 2981.2 3.59893 -5.37667 0
M  V30 31779 N 2981.33 1.33794 0.832883 0
M  V30 31780 C 2982.28 1.24535 1.96453 0
M  V30 31781 C 2983.27 0.145485 1.68774 0
M  V30 31782 O 2984.48 0.309828 1.77313 0
M  V30 31783 H 2980.85 0.386623 0.645001 0
M  V30 31784 H 2982.82 2.20196 2.01385 0
M  V30 31785 C 2981.57 1.00754 3.32782 0
M  V30 31786 H 2980.89 1.84615 3.54623 0
M  V30 31787 H 2982.33 0.983082 4.12446 0
M  V30 31788 C 2980.79 -0.289416 3.35655 0
M  V30 31789 O 2981.32 -1.29412 3.80283 0
M  V30 31790 N 2979.53 -0.319049 2.88843 0
M  V30 31791 H 2979.08 0.499113 2.52718 0
M  V30 31792 H 2979.03 -1.18662 2.91147 0
M  V30 31793 N 2982.81 -1.05187 1.1736 0
M  V30 31794 C 2984.03 -1.81864 0.986561 0
M  V30 31795 C 2984.45 -1.82979 -0.465187 0
M  V30 31796 O 2983.81 -1.25707 -1.32303 0
M  V30 31797 C 2983.86 -3.27979 1.52027 0
M  V30 31798 O 2983.58 -3.27032 2.91517 0
M  V30 31799 C 2985.08 -4.21344 1.37782 0
M  V30 31800 H 2982.3 -0.573078 0.349031 0
M  V30 31801 H 2984.84 -1.3264 1.5565 0
M  V30 31802 H 2983 -3.74474 0.992353 0
M  V30 31803 H 2983.41 -4.18482 3.16185 0
M  V30 31804 H 2984.89 -5.21849 1.79939 0
M  V30 31805 H 2985.36 -4.37997 0.324907 0
M  V30 31806 H 2985.97 -3.80704 1.8959 0
M  V30 31807 N 2984.28 -0.97385 -1.23911 0
M  V30 31808 C 2985.53 -0.634674 -1.91454 0
M  V30 31809 C 2985.85 0.834728 -1.76894 0
M  V30 31810 O 2987.05 1.28469 -2.39182 0
M  V30 31811 C 2985.51 -1.08453 -3.4317 0
M  V30 31812 C 2985.12 -2.57782 -3.66405 0
M  V30 31813 C 2986.86 -0.818795 -4.16529 0
M  V30 31814 C 2984.77 -2.96469 -5.11723 0
M  V30 31815 H 2983.7 -0.233674 -0.716877 0
M  V30 31816 H 2986.35 -1.18088 -1.40455 0
M  V30 31817 H 2984.73 -0.466594 -3.93242 0
M  V30 31818 H 2985.9 -3.24759 -3.26907 0
M  V30 31819 H 2984.22 -2.82032 -3.06344 0
M  V30 31820 H 2986.82 -1.08377 -5.23602 0
M  V30 31821 H 2987.16 0.245055 -4.15578 0
M  V30 31822 H 2987.69 -1.398 -3.72426 0
M  V30 31823 H 2984.43 -4.0195 -5.17799 0
M  V30 31824 H 2983.95 -2.34181 -5.52195 0
M  V30 31825 H 2985.63 -2.86713 -5.80004 0
M  V30 31826 N 2985.76 1.38895 -0.744705 0
M  V30 31827 C 2987.01 1.99549 -0.293751 0
M  V30 31828 C 2987.32 1.59779 1.12828 0
M  V30 31829 O 2988.53 2.13339 1.67925 0
M  V30 31830 C 2986.99 3.56762 -0.474251 0
M  V30 31831 C 2986.59 4.05489 -1.90479 0
M  V30 31832 C 2988.34 4.24414 -0.0855621 0
M  V30 31833 C 2986.24 5.5531 -2.03433 0
M  V30 31834 H 2985.17 0.746501 -0.10608 0
M  V30 31835 H 2987.83 1.58772 -0.919976 0
M  V30 31836 H 2986.21 3.95383 0.221022 0
M  V30 31837 H 2987.38 3.7818 -2.63281 0
M  V30 31838 H 2985.7 3.50532 -2.24758 0
M  V30 31839 H 2988.29 5.34457 -0.161227 0
M  V30 31840 H 2988.64 4.05066 0.960589 0
M  V30 31841 H 2989.17 3.91001 -0.732354 0
M  V30 31842 H 2985.91 5.7955 -3.06271 0
M  V30 31843 H 2985.43 5.84391 -1.3508 0
M  V30 31844 H 2987.11 6.20872 -1.82007 0
M  V30 31845 N 2987.24 0.493084 1.49688 0
M  V30 31846 C 2988.47 -0.0512033 2.06537 0
M  V30 31847 C 2988.88 -1.32087 1.35461 0
M  V30 31848 O 2988.22 -1.78736 0.424177 0
M  V30 31849 C 2988.28 -0.383168 3.57452 0
M  V30 31850 C 2987.95 0.787634 4.50161 0
M  V30 31851 C 2988.94 1.67591 4.92148 0
M  V30 31852 C 2986.63 0.984195 4.92564 0
M  V30 31853 C 2988.62 2.74497 5.75265 0
M  V30 31854 C 2986.31 2.05644 5.75459 0
M  V30 31855 C 2987.31 2.93518 6.16714 0
M  V30 31856 O 2987 3.98893 6.97954 0
M  V30 31857 H 2986.73 0.0136635 0.675862 0
M  V30 31858 H 2989.28 0.687332 1.93559 0
M  V30 31859 H 2987.51 -1.17519 3.6841 0
M  V30 31860 H 2989.2 -0.86513 3.96573 0
M  V30 31861 H 2989.97 1.53584 4.6004 0
M  V30 31862 H 2985.85 0.309622 4.59959 0
M  V30 31863 H 2989.39 3.43115 6.07386 0
M  V30 31864 H 2985.29 2.1965 6.06979 0
M  V30 31865 H 2986.06 3.96149 7.16246 0
M  V30 31866 N 2988.72 -1.55963 0.226582 0
M  V30 31867 C 2989.94 -2.03277 -0.411491 0
M  V30 31868 C 2990.37 -1.10524 -1.52204 0
M  V30 31869 O 2989.73 -0.0943536 -1.81054 0
M  V30 31870 C 2989.77 -3.48782 -0.915632 0
M  V30 31871 O 2988.88 -3.59166 -2.02665 0
M  V30 31872 H 2988.22 -0.657528 -0.0924791 0
M  V30 31873 H 2990.75 -2.01641 0.346691 0
M  V30 31874 H 2990.76 -3.89203 -1.22415 0
M  V30 31875 H 2989.43 -4.15773 -0.102842 0
M  V30 31876 H 2988.01 -3.30635 -1.72439 0
M  V30 31877 N 2990.2 0.0467589 -1.57531 0
M  V30 31878 C 2991.14 1.05281 -2.05389 0
M  V30 31879 C 2992.11 1.36983 -0.93941 0
M  V30 31880 O 2993.3 1.47624 -1.2088 0
M  V30 31881 C 2990.44 2.35404 -2.52347 0
M  V30 31882 C 2989.55 2.10015 -3.77515 0
M  V30 31883 C 2988.69 3.3388 -4.13156 0
M  V30 31884 C 2987.73 3.03967 -5.31291 0
M  V30 31885 N 2986.86 4.20233 -5.62449 0
M  V30 31886 H 2991.7 0.637737 -2.91096 0
M  V30 31887 H 2989.24 0.303297 -1.43939 0
M  V30 31888 H 2991.2 3.11409 -2.77634 0
M  V30 31889 H 2989.83 2.74667 -1.69582 0
M  V30 31890 H 2988.88 1.24587 -3.59419 0
M  V30 31891 H 2990.19 1.83937 -4.63647 0
M  V30 31892 H 2989.35 4.18265 -4.39476 0
M  V30 31893 H 2988.08 3.63056 -3.2564 0
M  V30 31894 H 2987.09 2.17982 -5.04741 0
M  V30 31895 H 2988.31 2.76087 -6.20445 0
M  V30 31896 H 2986.26 4.49393 -4.77893 0
M  V30 31897 H 2986.18 3.97517 -6.43053 0
M  V30 31898 H 2987.45 5.05542 -5.93336 0
M  V30 31899 N 2991.67 1.54344 0.318688 0
M  V30 31900 C 2992.62 1.80451 1.39361 0
M  V30 31901 C 2993.61 0.660754 1.46707 0
M  V30 31902 O 2994.8 0.920896 1.51157 0
M  V30 31903 C 2991.93 2.03964 2.76141 0
M  V30 31904 C 2991.02 3.24474 2.73089 0
M  V30 31905 N 2991.41 4.4542 2.39655 0
M  V30 31906 C 2989.7 3.26145 3.04212 0
M  V30 31907 C 2990.41 5.27375 2.4546 0
M  V30 31908 N 2989.38 4.64673 2.82099 0
M  V30 31909 H 2993.18 2.71537 1.12448 0
M  V30 31910 H 2990.7 1.53605 0.527194 0
M  V30 31911 H 2992.69 2.20808 3.53623 0
M  V30 31912 H 2991.35 1.14134 3.0398 0
M  V30 31913 H 2992.37 4.72334 2.12416 0
M  V30 31914 H 2989.04 2.46365 3.37061 0
M  V30 31915 H 2990.43 6.33969 2.2256 0
M  V30 31916 N 2993.15 -0.580999 1.465 0
M  V30 31917 C 2994.08 -1.70014 1.60055 0
M  V30 31918 C 2995.06 -1.64017 0.450816 0
M  V30 31919 O 2996.25 -1.82007 0.677269 0
M  V30 31920 C 2993.38 -3.08655 1.59215 0
M  V30 31921 C 2992.33 -3.29483 2.73175 0
M  V30 31922 C 2991.66 -4.68669 2.57397 0
M  V30 31923 C 2992.96 -3.17153 4.14984 0
M  V30 31924 H 2994.65 -1.58926 2.53738 0
M  V30 31925 H 2992.2 -0.763152 1.22115 0
M  V30 31926 H 2994.15 -3.86771 1.67292 0
M  V30 31927 H 2992.88 -3.20646 0.620775 0
M  V30 31928 H 2991.53 -2.53768 2.6457 0
M  V30 31929 H 2991.18 -4.77428 1.58339 0
M  V30 31930 H 2990.88 -4.83558 3.33835 0
M  V30 31931 H 2992.41 -5.48951 2.67367 0
M  V30 31932 H 2993.82 -3.85111 4.24691 0
M  V30 31933 H 2992.22 -3.43562 4.92022 0
M  V30 31934 H 2993.29 -2.1421 4.3502 0
M  V30 31935 N 2994.63 -1.34234 -0.825776 0
M  V30 31936 C 2995.56 -1.28216 -1.95149 0
M  V30 31937 C 2996.54 -0.160152 -1.69344 0
M  V30 31938 O 2997.73 -0.352053 -1.90982 0
M  V30 31939 C 2994.86 -1.03394 -3.31552 0
M  V30 31940 C 2993.81 -2.1203 -3.71789 0
M  V30 31941 C 2993.14 -1.72401 -5.06144 0
M  V30 31942 C 2994.44 -3.53833 -3.84187 0
M  V30 31943 H 2996.13 -2.22404 -2.00441 0
M  V30 31944 H 2993.68 -1.07064 -0.962977 0
M  V30 31945 H 2995.63 -0.978297 -4.09887 0
M  V30 31946 H 2994.35 -0.0564716 -3.26551 0
M  V30 31947 H 2993.01 -2.16659 -2.95727 0
M  V30 31948 H 2992.66 -0.733225 -4.97627 0
M  V30 31949 H 2992.36 -2.45109 -5.34037 0
M  V30 31950 H 2993.88 -1.68327 -5.8694 0
M  V30 31951 H 2995.3 -3.51632 -4.528 0
M  V30 31952 H 2993.7 -4.25137 -4.23531 0
M  V30 31953 H 2994.77 -3.91382 -2.86266 0
M  V30 31954 N 2996.11 1.04563 -1.17917 0
M  V30 31955 C 2997.34 1.81075 -0.994747 0
M  V30 31956 C 2997.75 1.8352 0.460113 0
M  V30 31957 O 2997.09 1.26574 1.33134 0
M  V30 31958 C 2997.15 3.28204 -1.46704 0
M  V30 31959 C 2996.82 3.4943 -2.94529 0
M  V30 31960 C 2997.81 3.41031 -3.9242 0
M  V30 31961 C 2995.5 3.76188 -3.32848 0
M  V30 31962 C 2997.49 3.59086 -5.26627 0
M  V30 31963 C 2995.18 3.93891 -4.67218 0
M  V30 31964 C 2996.18 3.8534 -5.63917 0
M  V30 31965 O 2995.86 4.02541 -6.95856 0
M  V30 31966 H 2995.6 0.577242 -0.351807 0
M  V30 31967 H 2998.15 1.32707 -1.56774 0
M  V30 31968 H 2996.38 3.77518 -0.837658 0
M  V30 31969 H 2998.07 3.8626 -1.24731 0
M  V30 31970 H 2998.84 3.20329 -3.64162 0
M  V30 31971 H 2994.71 3.81945 -2.58146 0
M  V30 31972 H 2998.26 3.52328 -6.02089 0
M  V30 31973 H 2994.16 4.14086 -4.95179 0
M  V30 31974 H 2994.92 4.19731 -7.02687 0
M  V30 31975 N 2997.59 0.980408 1.23393 0
M  V30 31976 C 2998.53 0.513058 2.26871 0
M  V30 31977 C 2999.53 -0.429919 1.63854 0
M  V30 31978 O 3000.73 -0.303811 1.77418 0
M  V30 31979 H 2997.11 0.147486 0.737395 0
M  V30 31980 H 2999.08 1.39751 2.63652 0
M  V30 31981 C 2997.83 -0.168901 3.4729 0
M  V30 31982 H 2997.15 0.547615 3.96032 0
M  V30 31983 H 2998.59 -0.459541 4.21502 0
M  V30 31984 C 2997.05 -1.40014 3.06427 0
M  V30 31985 O 2997.58 -2.49638 3.14713 0
M  V30 31986 N 2995.79 -1.2708 2.61341 0
M  V30 31987 H 2995.33 -0.378828 2.54799 0
M  V30 31988 H 2995.29 -2.09569 2.34368 0
M  V30 31989 N 2999.06 -1.38498 0.75206 0
M  V30 31990 C 3000.3 -2.01998 0.312444 0
M  V30 31991 C 3000.67 -1.58406 -1.08497 0
M  V30 31992 O 3001.87 -2.14225 -1.62361 0
M  V30 31993 C 3000.14 -3.5481 0.429486 0
M  V30 31994 S 3001.7 -4.38741 0.0722258 0
M  V30 31995 H 2998.52 -0.700574 0.121312 0
M  V30 31996 H 3001.12 -1.69028 0.982341 0
M  V30 31997 H 2999.82 -3.84025 1.4475 0
M  V30 31998 H 2999.35 -3.92555 -0.257647 0
M  V30 31999 H 3001.37 -4.82959 -1.13866 0
M  V30 32000 N 3000.54 -0.501015 -1.49424 0
M  V30 32001 C 3001.78 0.0418645 -2.04357 0
M  V30 32002 C 3002.15 1.34275 -1.37238 0
M  V30 32003 O 3003.35 1.96987 -1.82892 0
M  V30 32004 C 3001.62 0.191057 -3.56889 0
M  V30 32005 S 3003.18 0.688183 -4.3337 0
M  V30 32006 H 3000 0.00176547 -0.710998 0
M  V30 32007 H 3002.6 -0.674985 -1.83478 0
M  V30 32008 H 3001.3 -0.761035 -4.03282 0
M  V30 32009 H 3000.83 0.933147 -3.82173 0
M  V30 32010 H 3002.85 1.95732 -4.55964 0
M  V30 32011 N 3002.02 1.5584 -0.234849 0
M  V30 32012 C 3003.25 2.02747 0.397132 0
M  V30 32013 C 3003.66 1.1137 1.52949 0
M  V30 32014 O 3003 0.118165 1.8332 0
M  V30 32015 C 3003.06 3.4595 0.977688 0
M  V30 32016 C 3002.73 4.56995 -0.0208997 0
M  V30 32017 C 3003.73 5.13295 -0.826105 0
M  V30 32018 C 3001.41 5.02095 -0.143504 0
M  V30 32019 C 3003.4 6.13177 -1.74049 0
M  V30 32020 C 3001.09 6.01812 -1.06141 0
M  V30 32021 C 3002.09 6.5723 -1.85843 0
M  V30 32022 O 3001.78 7.55004 -2.76088 0
M  V30 32023 H 3001.51 0.668567 0.0999685 0
M  V30 32024 H 3004.06 2.02349 -0.352709 0
M  V30 32025 H 3002.29 3.43459 1.77687 0
M  V30 32026 H 3003.98 3.76427 1.51847 0
M  V30 32027 H 3004.75 4.79292 -0.741906 0
M  V30 32028 H 3000.63 4.58631 0.466776 0
M  V30 32029 H 3004.17 6.56359 -2.36302 0
M  V30 32030 H 3000.07 6.35235 -1.14657 0
M  V30 32031 H 3000.84 7.72576 -2.70313 0
M  V30 32032 N 3003.5 -0.038404 1.57553 0
M  V30 32033 C 3004.45 -1.04956 2.02406 0
M  V30 32034 C 3005.43 -1.32576 0.911729 0
M  V30 32035 O 3006.63 -1.32317 1.17564 0
M  V30 32036 C 3003.75 -2.35352 2.49928 0
M  V30 32037 C 3002.84 -2.10863 3.67964 0
M  V30 32038 N 3003.23 -1.56402 4.81011 0
M  V30 32039 C 3001.53 -2.4119 3.75158 0
M  V30 32040 C 3002.23 -1.47502 5.62688 0
M  V30 32041 N 3001.21 -1.94733 5.07523 0
M  V30 32042 H 3005.01 -0.622348 2.87235 0
M  V30 32043 H 3002.52 -0.244888 1.60543 0
M  V30 32044 H 3004.52 -3.0859 2.80317 0
M  V30 32045 H 3003.18 -2.7876 1.66501 0
M  V30 32046 H 3004.19 -1.24801 5.02638 0
M  V30 32047 H 3000.87 -2.87737 3.02512 0
M  V30 32048 H 3002.26 -1.05965 6.63492 0
M  V30 32049 N 3004.98 -1.54511 -0.310498 0
M  V30 32050 C 3006.22 -1.73597 -1.04843 0
M  V30 32051 C 3006.56 -0.515151 -1.87243 0
M  V30 32052 O 3005.83 0.487827 -1.88283 0
M  V30 32053 C 3006.11 -3.01936 -1.96232 0
M  V30 32054 C 3005.97 -4.34297 -1.17075 0
M  V30 32055 C 3007.29 -3.26092 -2.95554 0
M  V30 32056 H 3004.41 -0.631633 -0.379749 0
M  V30 32057 H 3007.05 -1.87219 -0.323907 0
M  V30 32058 H 3005.2 -2.90453 -2.5801 0
M  V30 32059 H 3006.87 -4.57683 -0.576562 0
M  V30 32060 H 3005.11 -4.31211 -0.473261 0
M  V30 32061 H 3005.78 -5.20343 -1.84248 0
M  V30 32062 H 3008.26 -3.37122 -2.43902 0
M  V30 32063 H 3007.14 -4.17224 -3.56672 0
M  V30 32064 H 3007.4 -2.43936 -3.6871 0
M  V30 32065 N 3006.46 0.573222 -1.46806 0
M  V30 32066 C 3007.7 1.34202 -1.54172 0
M  V30 32067 C 3008.06 1.9103 -0.192709 0
M  V30 32068 O 3009.26 2.68429 -0.141159 0
M  V30 32069 C 3007.53 2.43424 -2.61686 0
M  V30 32070 S 3009.09 3.30604 -2.88525 0
M  V30 32071 H 3005.91 0.457091 -0.5446 0
M  V30 32072 H 3008.51 0.657968 -1.84095 0
M  V30 32073 H 3007.21 2.00082 -3.58323 0
M  V30 32074 H 3006.75 3.16589 -2.33527 0
M  V30 32075 H 3008.76 4.425 -2.24518 0
M  V30 32076 N 3007.93 1.3467 0.818645 0
M  V30 32077 C 3009.18 1.27015 1.57199 0
M  V30 32078 C 3009.5 -0.158565 1.94354 0
M  V30 32079 O 3008.77 -1.0922 1.62628 0
M  V30 32080 H 3007.35 0.467145 0.58291 0
M  V30 32081 H 3010.01 1.68632 0.977204 0
M  V30 32082 H 3009.11 1.87782 2.49287 0
M  V30 32083 N 3009.41 -1.03936 1.1847 0
M  V30 32084 C 3010.64 -1.81345 1.00641 0
M  V30 32085 C 3011.06 -1.82871 -0.440445 0
M  V30 32086 O 3010.42 -1.24697 -1.31607 0
M  V30 32087 C 3010.47 -3.24756 1.56735 0
M  V30 32088 O 3009.57 -4.04771 0.789588 0
M  V30 32089 H 3008.91 -0.560219 0.356442 0
M  V30 32090 H 3011.44 -1.30888 1.57256 0
M  V30 32091 H 3011.45 -3.7553 1.59503 0
M  V30 32092 H 3010.13 -3.2296 2.62049 0
M  V30 32093 H 3008.7 -3.63446 0.834331 0
M  V30 32094 N 3010.89 -0.986938 -1.22871 0
M  V30 32095 C 3011.82 -0.477284 -2.23153 0
M  V30 32096 C 3012.8 0.459178 -1.55982 0
M  V30 32097 O 3013.98 0.386109 -1.84503 0
M  V30 32098 C 3011.11 0.308778 -3.3729 0
M  V30 32099 C 3010.16 -0.572792 -4.22636 0
M  V30 32100 S 3010.99 -2.02455 -4.95754 0
M  V30 32101 C 3012.15 -1.24781 -6.13336 0
M  V30 32102 H 3012.38 -1.32707 -2.66038 0
M  V30 32103 H 3009.91 -0.793439 -1.32453 0
M  V30 32104 H 3011.87 0.756281 -4.03473 0
M  V30 32105 H 3010.53 1.13376 -2.92924 0
M  V30 32106 H 3009.72 0.0317138 -5.0399 0
M  V30 32107 H 3009.33 -0.956809 -3.61554 0
M  V30 32108 H 3011.62 -0.512429 -6.75559 0
M  V30 32109 H 3012.56 -2.03641 -6.78186 0
M  V30 32110 H 3012.97 -0.76372 -5.5931 0
M  V30 32111 N 3012.37 1.38098 -0.759394 0
M  V30 32112 C 3013.78 1.82685 -0.385111 0
M  V30 32113 C 3014.13 1.63332 1.08707 0
M  V30 32114 O 3013.25 1.13766 1.84082 0
M  V30 32115 C 3013.85 3.31653 -0.692219 0
M  V30 32116 C 3012.41 3.74566 -0.371143 0
M  V30 32117 C 3011.56 2.60794 -0.942421 0
M  V30 32118 H 3014.51 1.26744 -0.95507 0
M  V30 32119 H 3014.53 3.8049 0.0275333 0
M  V30 32120 H 3014.04 3.45707 -1.76375 0
M  V30 32121 H 3012.14 3.66088 0.693573 0
M  V30 32122 H 3012.25 4.71121 -0.870755 0
M  V30 32123 H 3010.62 2.52036 -0.367427 0
M  V30 32124 H 3011.4 2.77646 -2.0191 0
M  V30 32125 N 3013.85 0.508932 1.49156 0
M  V30 32126 C 3015.07 -0.0314817 2.07376 0
M  V30 32127 C 3015.5 -1.29338 1.36577 0
M  V30 32128 O 3014.85 -1.76248 0.424994 0
M  V30 32129 C 3014.9 -0.260054 3.59661 0
M  V30 32130 O 3014.01 -1.33315 3.90257 0
M  V30 32131 H 3013.35 0.0297506 0.663333 0
M  V30 32132 H 3015.88 0.710825 1.91855 0
M  V30 32133 H 3015.89 -0.489154 4.05057 0
M  V30 32134 H 3014.56 0.661866 4.106 0
M  V30 32135 H 3013.14 -1.08838 3.56663 0
M  V30 32136 N 3015.32 -1.55714 0.243111 0
M  V30 32137 C 3016.57 -1.98458 -0.381929 0
M  V30 32138 C 3016.89 -1.1325 -1.58743 0
M  V30 32139 O 3016.16 -0.214419 -1.94723 0
M  V30 32140 H 3014.74 -0.732969 -0.144101 0
M  V30 32141 H 3017.4 -1.91893 0.341019 0
M  V30 32142 H 3016.5 -3.04294 -0.693648 0
M  V30 32143 N 3016.8 0.030048 -1.57571 0
M  V30 32144 C 3018.03 0.736567 -1.9388 0
M  V30 32145 C 3018.45 1.68151 -0.843028 0
M  V30 32146 O 3017.81 1.80179 0.201318 0
M  V30 32147 C 3017.86 1.47061 -3.2925 0
M  V30 32148 O 3016.96 2.58373 -3.2143 0
M  V30 32149 H 3016.3 0.19817 -0.633739 0
M  V30 32150 H 3018.83 -0.0141845 -2.04595 0
M  V30 32151 H 3018.84 1.84074 -3.64116 0
M  V30 32152 H 3017.52 0.777569 -4.08567 0
M  V30 32153 H 3016.1 2.23909 -2.98193 0
M  V30 32154 N 3018.28 1.54674 0.3023 0
M  V30 32155 C 3019.69 1.64906 0.87538 0
M  V30 32156 C 3020.04 0.556873 1.88131 0
M  V30 32157 O 3019.17 -0.306716 2.14215 0
M  V30 32158 C 3019.76 2.98933 1.59451 0
M  V30 32159 C 3018.32 3.1129 2.11602 0
M  V30 32160 C 3017.47 2.60582 0.948278 0
M  V30 32161 H 3020.42 1.58502 0.0793341 0
M  V30 32162 H 3020.44 2.90283 2.46 0
M  V30 32163 H 3019.95 3.78403 0.862133 0
M  V30 32164 H 3018.05 2.36537 2.87891 0
M  V30 32165 H 3018.17 4.17426 2.35144 0
M  V30 32166 H 3016.53 2.17003 1.33348 0
M  V30 32167 H 3017.31 3.4253 0.229876 0
M  V30 32168 N 3019.76 -0.565428 1.47108 0
M  V30 32169 C 3021 -1.33383 1.54882 0
M  V30 32170 C 3021.36 -1.90926 0.202837 0
M  V30 32171 O 3022.56 -2.6835 0.155392 0
M  V30 32172 C 3020.83 -2.42032 2.62974 0
M  V30 32173 S 3022.39 -3.29069 2.90274 0
M  V30 32174 H 3019.21 -0.454196 0.547016 0
M  V30 32175 H 3021.81 -0.648196 1.84442 0
M  V30 32176 H 3020.52 -1.98179 3.59379 0
M  V30 32177 H 3020.05 -3.15347 2.35202 0
M  V30 32178 H 3022.06 -4.41303 2.26862 0
M  V30 32179 N 3021.24 -1.35102 -0.811492 0
M  V30 32180 C 3022.46 -1.31204 -1.59979 0
M  V30 32181 C 3022.88 0.111519 -1.8847 0
M  V30 32182 O 3022.24 1.06203 -1.48416 0
M  V30 32183 C 3022.29 -2.1119 -2.93396 0
M  V30 32184 O 3022.01 -3.47994 -2.66142 0
M  V30 32185 C 3023.51 -2.1482 -3.87772 0
M  V30 32186 H 3020.73 -0.450908 -0.496913 0
M  V30 32187 H 3023.27 -1.77884 -1.00883 0
M  V30 32188 H 3021.43 -1.68121 -3.49019 0
M  V30 32189 H 3021.84 -3.89478 -3.51294 0
M  V30 32190 H 3023.32 -2.75187 -4.78515 0
M  V30 32191 H 3023.79 -1.14563 -4.23995 0
M  V30 32192 H 3024.4 -2.58028 -3.38085 0
M  V30 32193 N 3022.71 1.03306 -1.19019 0
M  V30 32194 C 3023.68 2.09656 -0.926113 0
M  V30 32195 C 3024.68 1.60538 0.0916795 0
M  V30 32196 O 3025.87 1.73615 -0.142605 0
M  V30 32197 C 3023 3.3865 -0.391017 0
M  V30 32198 H 3024.19 2.34517 -1.86927 0
M  V30 32199 H 3021.75 1.19851 -1.00327 0
M  V30 32200 H 3022.48 3.19457 0.55839 0
M  V30 32201 H 3022.27 3.7562 -1.1248 0
M  V30 32202 H 3023.76 4.16992 -0.225205 0
M  V30 32203 N 3024.19 0.99344 1.22346 0
M  V30 32204 C 3025.12 0.564128 2.26583 0
M  V30 32205 C 3026.1 -0.409269 1.65103 0
M  V30 32206 O 3027.29 -0.299785 1.91872 0
M  V30 32207 C 3024.42 -0.121493 3.47087 0
M  V30 32208 C 3023.37 0.770503 4.21007 0
M  V30 32209 C 3022.7 -0.0480646 5.34678 0
M  V30 32210 C 3024 2.06761 4.79632 0
M  V30 32211 H 3025.69 1.43543 2.62747 0
M  V30 32212 H 3023.24 0.69165 1.26302 0
M  V30 32213 H 3025.19 -0.43323 4.19167 0
M  V30 32214 H 3023.92 -1.02734 3.10021 0
M  V30 32215 H 3022.57 1.06589 3.50763 0
M  V30 32216 H 3022.22 -0.954846 4.93854 0
M  V30 32217 H 3021.92 0.545744 5.8506 0
M  V30 32218 H 3023.45 -0.353884 6.09574 0
M  V30 32219 H 3024.86 1.81979 5.43651 0
M  V30 32220 H 3023.26 2.61029 5.40355 0
M  V30 32221 H 3024.33 2.74599 3.99654 0
M  V30 32222 N 3025.67 -1.37693 0.766707 0
M  V30 32223 C 3026.6 -2.32927 0.163473 0
M  V30 32224 C 3027.58 -1.55528 -0.688834 0
M  V30 32225 O 3028.77 -1.83788 -0.627331 0
M  V30 32226 C 3025.9 -3.39747 -0.720356 0
M  V30 32227 C 3024.85 -4.27989 0.0302471 0
M  V30 32228 C 3024.18 -5.25778 -0.972696 0
M  V30 32229 C 3025.48 -5.08178 1.20632 0
M  V30 32230 H 3027.17 -2.83624 0.959038 0
M  V30 32231 H 3024.72 -1.36366 0.462625 0
M  V30 32232 H 3026.67 -4.05344 -1.15214 0
M  V30 32233 H 3025.39 -2.87563 -1.54839 0
M  V30 32234 H 3024.05 -3.63917 0.442749 0
M  V30 32235 H 3023.7 -4.69876 -1.79514 0
M  V30 32236 H 3023.4 -5.85677 -0.475043 0
M  V30 32237 H 3024.92 -5.94251 -1.40352 0
M  V30 32238 H 3026.34 -5.66942 0.85144 0
M  V30 32239 H 3024.74 -5.77377 1.63572 0
M  V30 32240 H 3025.81 -4.41147 2.01288 0
M  V30 32241 N 3027.15 -0.516835 -1.48884 0
M  V30 32242 C 3028.1 0.266616 -2.31067 0
M  V30 32243 C 3029.09 0.947925 -1.40395 0
M  V30 32244 O 3030.3 0.873808 -1.57368 0
M  V30 32245 H 3026.67 0.104844 -0.744655 0
M  V30 32246 H 3028.64 -0.446288 -2.95044 0
M  V30 32247 C 3027.39 1.30864 -3.22133 0
M  V30 32248 H 3026.71 0.793796 -3.9184 0
M  V30 32249 H 3028.15 1.8285 -3.82547 0
M  V30 32250 C 3026.61 2.33529 -2.42829 0
M  V30 32251 O 3027.14 3.39718 -2.1437 0
M  V30 32252 N 3025.35 2.06403 -2.04563 0
M  V30 32253 H 3024.9 1.20067 -2.27907 0
M  V30 32254 H 3024.85 2.75319 -1.51812 0
M  V30 32255 N 3028.63 1.55583 -0.251365 0
M  V30 32256 C 3029.85 2.03906 0.3791 0
M  V30 32257 C 3030.28 1.12931 1.50426 0
M  V30 32258 O 3029.63 0.123146 1.80881 0
M  V30 32259 C 3029.68 3.50194 0.860028 0
M  V30 32260 O 3028.79 3.62345 1.96926 0
M  V30 32261 H 3028.13 0.658916 0.0820067 0
M  V30 32262 H 3030.66 2.01064 -0.378727 0
M  V30 32263 H 3030.67 3.91101 1.16207 0
M  V30 32264 H 3029.34 4.15884 0.0366828 0
M  V30 32265 H 3027.92 3.33336 1.67157 0
M  V30 32266 N 3030.1 -0.0216912 1.57585 0
M  V30 32267 C 3031.35 -0.710091 1.88787 0
M  V30 32268 C 3031.67 -1.76125 0.85085 0
M  V30 32269 O 3032.87 -2.50276 1.05235 0
M  V30 32270 C 3031.33 -1.31407 3.35052 0
M  V30 32271 C 3030.94 -0.29888 4.47002 0
M  V30 32272 C 3032.68 -1.98192 3.75393 0
M  V30 32273 C 3030.59 -0.911624 5.84332 0
M  V30 32274 H 3029.52 -0.268973 0.704393 0
M  V30 32275 H 3032.17 0.0352961 1.83466 0
M  V30 32276 H 3030.55 -2.10941 3.35141 0
M  V30 32277 H 3031.72 0.470284 4.58394 0
M  V30 32278 H 3030.04 0.267295 4.15541 0
M  V30 32279 H 3032.64 -2.44902 4.75318 0
M  V30 32280 H 3032.98 -2.80326 3.07771 0
M  V30 32281 H 3033.51 -1.25423 3.7751 0
M  V30 32282 H 3030.25 -0.129544 6.55372 0
M  V30 32283 H 3029.77 -1.65045 5.76646 0
M  V30 32284 H 3031.45 -1.41677 6.31298 0
M  V30 32285 N 3031.58 -1.54832 -0.294093 0
M  V30 32286 C 3032.83 -1.73649 -1.02611 0
M  V30 32287 C 3033.15 -0.533195 -1.88192 0
M  V30 32288 O 3034.35 -0.603322 -2.64712 0
M  V30 32289 C 3032.81 -3.07254 -1.87411 0
M  V30 32290 C 3032.42 -4.35084 -1.06799 0
M  V30 32291 C 3034.16 -3.35428 -2.6017 0
M  V30 32292 C 3032.07 -5.59737 -1.90916 0
M  V30 32293 H 3031 -0.647213 -0.386822 0
M  V30 32294 H 3033.65 -1.81308 -0.282757 0
M  V30 32295 H 3032.03 -2.93577 -2.6576 0
M  V30 32296 H 3033.2 -4.59616 -0.330145 0
M  V30 32297 H 3031.52 -4.13897 -0.455906 0
M  V30 32298 H 3034.12 -4.25761 -3.23469 0
M  V30 32299 H 3034.46 -2.54612 -3.29361 0
M  V30 32300 H 3034.99 -3.50107 -1.88865 0
M  V30 32301 H 3031.73 -6.4324 -1.26183 0
M  V30 32302 H 3031.25 -5.3938 -2.62354 0
M  V30 32303 H 3032.93 -5.97252 -2.48796 0
M  V30 32304 N 3033.06 0.557619 -1.47405 0
M  V30 32305 C 3034.01 1.68574 -1.60268 0
M  V30 32306 C 3035 1.62749 -0.47001 0
M  V30 32307 O 3036.21 1.67939 -0.647794 0
M  V30 32308 H 3032.58 0.557784 -0.504362 0
M  V30 32309 H 3034.56 1.54862 -2.55069 0
M  V30 32310 C 3033.3 3.06927 -1.63374 0
M  V30 32311 H 3032.63 3.1209 -2.49879 0
M  V30 32312 H 3034.07 3.85552 -1.76424 0
M  V30 32313 C 3032.53 3.34895 -0.36698 0
M  V30 32314 O 3033.06 3.9816 0.53211 0
M  V30 32315 N 3031.26 2.89547 -0.247133 0
M  V30 32316 H 3030.81 2.38242 -0.979711 0
M  V30 32317 H 3030.77 3.08631 0.599498 0
M  V30 32318 N 3034.54 1.35531 0.804316 0
M  V30 32319 C 3035.49 1.28674 1.93767 0
M  V30 32320 C 3036.48 0.181252 1.68428 0
M  V30 32321 O 3037.69 0.347369 1.76616 0
M  V30 32322 H 3034.06 0.400217 0.636655 0
M  V30 32323 H 3036.03 2.24419 1.96669 0
M  V30 32324 C 3034.78 1.0779 3.3057 0
M  V30 32325 H 3034.11 1.92096 3.50627 0
M  V30 32326 H 3035.55 1.07035 4.10268 0
M  V30 32327 C 3034 -0.218154 3.36193 0
M  V30 32328 O 3034.53 -1.21317 3.82943 0
M  V30 32329 N 3032.74 -0.25771 2.89455 0
M  V30 32330 H 3032.29 0.552606 2.51603 0
M  V30 32331 H 3032.25 -1.12459 2.93599 0
M  V30 32332 N 3036.02 -1.02674 1.19565 0
M  V30 32333 C 3037.27 -1.75512 0.993895 0
M  V30 32334 C 3037.58 -1.89724 -0.475849 0
M  V30 32335 O 3038.79 -2.59554 -0.796479 0
M  V30 32336 C 3037.24 -3.15625 1.72942 0
M  V30 32337 C 3036.85 -3.0946 3.23942 0
M  V30 32338 C 3038.59 -3.92744 1.61099 0
M  V30 32339 C 3036.5 -4.44517 3.90075 0
M  V30 32340 H 3035.43 -0.657954 0.368255 0
M  V30 32341 H 3038.08 -1.14889 1.43083 0
M  V30 32342 H 3036.46 -3.76729 1.22031 0
M  V30 32343 H 3037.64 -2.57724 3.81988 0
M  V30 32344 H 3035.95 -2.45837 3.36085 0
M  V30 32345 H 3038.55 -4.92646 2.07856 0
M  V30 32346 H 3038.89 -4.12441 0.565487 0
M  V30 32347 H 3039.43 -3.38246 2.09367 0
M  V30 32348 H 3036.16 -4.30024 4.94732 0
M  V30 32349 H 3035.68 -4.963 3.36818 0
M  V30 32350 H 3037.36 -5.13394 3.93745 0
M  V30 32351 N 3037.5 -0.999914 -1.21817 0
M  V30 32352 C 3038.44 -0.549086 -2.26026 0
M  V30 32353 C 3039.44 0.403797 -1.64517 0
M  V30 32354 O 3040.64 0.275547 -1.77878 0
M  V30 32355 H 3037.02 -0.159198 -0.734956 0
M  V30 32356 H 3038.99 -1.43928 -2.61395 0
M  V30 32357 C 3037.74 0.113629 -3.47514 0
M  V30 32358 H 3037.06 -0.610551 -3.95111 0
M  V30 32359 H 3038.5 0.392426 -4.2218 0
M  V30 32360 C 3036.96 1.35121 -3.08616 0
M  V30 32361 O 3037.49 2.44599 -3.18644 0
M  V30 32362 N 3035.7 1.22906 -2.6333 0
M  V30 32363 H 3035.24 0.338243 -2.5537 0
M  V30 32364 H 3035.2 2.05814 -2.37672 0
M  V30 32365 N 3038.97 1.37284 -0.773999 0
M  V30 32366 C 3039.9 2.32837 -0.175823 0
M  V30 32367 C 3040.88 1.55892 0.680576 0
M  V30 32368 O 3042.07 1.84119 0.617575 0
M  V30 32369 C 3039.2 3.40124 0.702328 0
M  V30 32370 C 3038.15 4.27967 -0.052944 0
M  V30 32371 C 3037.48 5.26287 0.944799 0
M  V30 32372 C 3038.78 5.07531 -1.23325 0
M  V30 32373 H 3040.47 2.83112 -0.974066 0
M  V30 32374 H 3038.02 1.36119 -0.46985 0
M  V30 32375 H 3039.97 4.05949 1.13062 0
M  V30 32376 H 3038.7 2.8838 1.53311 0
M  V30 32377 H 3037.36 3.63677 -0.462042 0
M  V30 32378 H 3037 4.70822 1.7702 0
M  V30 32379 H 3036.7 5.8592 0.443976 0
M  V30 32380 H 3038.23 5.94986 1.37199 0
M  V30 32381 H 3039.64 5.66483 -0.881495 0
M  V30 32382 H 3038.04 5.76502 -1.66631 0
M  V30 32383 H 3039.11 4.40074 -2.03625 0
M  V30 32384 N 3040.45 0.524724 1.48608 0
M  V30 32385 C 3041.68 -0.00738237 2.06599 0
M  V30 32386 C 3042.09 -1.29184 1.38232 0
M  V30 32387 O 3041.43 -1.77796 0.461994 0
M  V30 32388 C 3041.49 -0.307261 3.58185 0
M  V30 32389 C 3041.16 0.882943 4.48389 0
M  V30 32390 C 3042.16 1.77993 4.88482 0
M  V30 32391 C 3039.84 1.08845 4.90365 0
M  V30 32392 C 3041.83 2.86637 5.69313 0
M  V30 32393 C 3039.52 2.17804 5.70968 0
M  V30 32394 C 3040.52 3.06533 6.10349 0
M  V30 32395 O 3040.21 4.13608 6.89336 0
M  V30 32396 H 3039.94 0.0279965 0.67542 0
M  V30 32397 H 3042.49 0.728234 1.92057 0
M  V30 32398 H 3040.72 -1.09678 3.7082 0
M  V30 32399 H 3042.41 -0.780816 3.98319 0
M  V30 32400 H 3043.18 1.63307 4.56679 0
M  V30 32401 H 3039.06 0.407116 4.59199 0
M  V30 32402 H 3042.6 3.55921 5.99972 0
M  V30 32403 H 3038.5 2.32476 6.02184 0
M  V30 32404 H 3039.27 4.11253 7.07682 0
M  V30 32405 N 3041.93 -1.55447 0.259613 0
M  V30 32406 C 3043.16 -2.03353 -0.364827 0
M  V30 32407 C 3043.57 -1.13789 -1.51158 0
M  V30 32408 O 3042.91 -0.147315 -1.83108 0
M  V30 32409 C 3042.97 -3.47462 -0.922526 0
M  V30 32410 C 3042.64 -4.56904 0.093601 0
M  V30 32411 C 3043.63 -5.11916 0.907661 0
M  V30 32412 C 3041.32 -5.01803 0.223365 0
M  V30 32413 C 3043.31 -6.1033 1.83782 0
M  V30 32414 C 3041 -6.00047 1.15702 0
M  V30 32415 C 3042 -6.5419 1.96276 0
M  V30 32416 O 3041.69 -7.50516 2.88065 0
M  V30 32417 H 3041.42 -0.670073 -0.0893195 0
M  V30 32418 H 3043.97 -2.01762 0.384856 0
M  V30 32419 H 3042.2 -3.46243 -1.722 0
M  V30 32420 H 3043.89 -3.78795 -1.4584 0
M  V30 32421 H 3044.66 -4.78051 0.818063 0
M  V30 32422 H 3040.54 -4.59315 -0.393753 0
M  V30 32423 H 3044.08 -6.52516 2.46714 0
M  V30 32424 H 3039.98 -6.33331 1.24749 0
M  V30 32425 H 3040.74 -7.68177 2.8257 0
M  V30 32426 N 3043.41 0.0133338 -1.57594 0
M  V30 32427 C 3044.65 0.701985 -1.90263 0
M  V30 32428 C 3044.99 1.74157 -0.85925 0
M  V30 32429 O 3044.26 1.94106 0.123743 0
M  V30 32430 C 3044.54 1.35726 -3.33542 0
M  V30 32431 C 3044.4 0.330129 -4.48587 0
M  V30 32432 C 3045.72 2.28705 -3.76008 0
M  V30 32433 H 3042.84 0.253727 -0.691948 0
M  V30 32434 H 3045.48 -0.0352228 -1.89967 0
M  V30 32435 H 3043.63 1.98561 -3.33925 0
M  V30 32436 H 3045.3 -0.297514 -4.6034 0
M  V30 32437 H 3043.54 -0.349002 -4.32394 0
M  V30 32438 H 3044.21 0.827412 -5.45764 0
M  V30 32439 H 3046.69 1.759 -3.77092 0
M  V30 32440 H 3045.57 2.71527 -4.77037 0
M  V30 32441 H 3045.83 3.16051 -3.09135 0
M  V30 32442 N 3044.89 1.54985 0.285878 0
M  V30 32443 C 3046.13 1.74984 1.01917 0
M  V30 32444 C 3046.46 0.543849 1.86742 0
M  V30 32445 O 3045.72 -0.473938 1.89874 0
M  V30 32446 C 3046.01 3.00043 1.94188 0
M  V30 32447 C 3045.68 4.33164 1.25217 0
M  V30 32448 C 3044.34 4.69348 1.06141 0
M  V30 32449 C 3046.69 5.15624 0.760336 0
M  V30 32450 C 3044.02 5.85558 0.365888 0
M  V30 32451 C 3046.37 6.32551 0.0784675 0
M  V30 32452 C 3045.04 6.67385 -0.124119 0
M  V30 32453 H 3044.31 0.64031 0.372939 0
M  V30 32454 H 3046.96 1.89251 0.292618 0
M  V30 32455 H 3045.26 2.80621 2.73421 0
M  V30 32456 H 3046.96 3.12711 2.51023 0
M  V30 32457 H 3043.55 4.04717 1.41074 0
M  V30 32458 H 3047.73 4.88156 0.89538 0
M  V30 32459 H 3042.99 6.11079 0.198085 0
M  V30 32460 H 3047.16 6.95708 -0.310462 0
M  V30 32461 H 3044.79 7.57285 -0.665051 0
M  V30 32462 N 3046.36 -0.549794 1.47699 0
M  V30 32463 C 3047.59 -1.33666 1.58582 0
M  V30 32464 C 3048.01 -1.86574 0.239082 0
M  V30 32465 O 3047.37 -1.63365 -0.786227 0
M  V30 32466 C 3047.42 -2.47731 2.62034 0
M  V30 32467 O 3046.52 -3.50184 2.17819 0
M  V30 32468 H 3045.87 -0.396723 0.532454 0
M  V30 32469 H 3048.4 -0.663666 1.93537 0
M  V30 32470 H 3048.41 -2.94197 2.82687 0
M  V30 32471 H 3047.08 -2.0858 3.59816 0
M  V30 32472 H 3045.66 -3.09972 2.07296 0
M  V30 32473 N 3047.84 -1.35955 -0.797117 0
M  V30 32474 C 3048.79 -1.29653 -1.90942 0
M  V30 32475 C 3049.76 -0.166657 -1.65262 0
M  V30 32476 O 3050.94 -0.351916 -1.87526 0
M  V30 32477 C 3048.08 -1.08395 -3.27635 0
M  V30 32478 C 3047.2 -2.30388 -3.65438 0
M  V30 32479 C 3046.33 -2.02204 -4.9121 0
M  V30 32480 C 3045.37 -3.202 -5.21669 0
M  V30 32481 N 3044.51 -2.9173 -6.38622 0
M  V30 32482 H 3049.35 -2.24765 -1.95664 0
M  V30 32483 H 3046.89 -1.11719 -0.95694 0
M  V30 32484 H 3048.84 -0.940983 -4.0645 0
M  V30 32485 H 3047.47 -0.169407 -3.22355 0
M  V30 32486 H 3046.53 -2.55516 -2.81808 0
M  V30 32487 H 3047.84 -3.18467 -3.83901 0
M  V30 32488 H 3046.99 -1.84793 -5.77872 0
M  V30 32489 H 3045.73 -1.11424 -4.74801 0
M  V30 32490 H 3044.74 -3.38178 -4.33492 0
M  V30 32491 H 3045.96 -4.11795 -5.40001 0
M  V30 32492 H 3043.91 -2.03554 -6.2362 0
M  V30 32493 H 3043.82 -3.73346 -6.5738 0
M  V30 32494 H 3045.09 -2.77881 -7.28287 0
M  V30 32495 N 3049.32 1.02038 -1.20108 0
M  V30 32496 C 3050.57 1.74983 -1.00319 0
M  V30 32497 C 3050.88 1.89973 0.46578 0
M  V30 32498 O 3052.09 2.59973 0.782703 0
M  V30 32499 C 3050.54 3.14703 -1.74614 0
M  V30 32500 C 3050.15 3.07738 -3.25579 0
M  V30 32501 C 3051.9 3.91884 -1.63179 0
M  V30 32502 C 3049.8 4.42442 -3.92427 0
M  V30 32503 H 3048.73 0.655992 -0.371739 0
M  V30 32504 H 3051.38 1.14129 -1.4369 0
M  V30 32505 H 3049.77 3.76076 -1.24027 0
M  V30 32506 H 3050.94 2.55695 -3.83349 0
M  V30 32507 H 3049.26 2.44051 -3.37384 0
M  V30 32508 H 3051.85 4.91536 -2.10466 0
M  V30 32509 H 3052.2 4.12136 -0.587352 0
M  V30 32510 H 3052.73 3.37131 -2.11158 0
M  V30 32511 H 3049.47 4.27394 -4.97006 0
M  V30 32512 H 3048.99 4.94507 -3.39445 0
M  V30 32513 H 3050.67 5.11299 -3.96462 0
M  V30 32514 N 3050.8 1.00636 1.21285 0
M  V30 32515 C 3052.05 0.689834 1.90388 0
M  V30 32516 C 3052.37 -0.779543 1.78195 0
M  V30 32517 O 3051.63 -1.58083 1.15361 0
M  V30 32518 C 3051.93 1.0583 3.41372 0
M  V30 32519 C 3051.59 2.52217 3.73761 0
M  V30 32520 C 3050.26 2.92217 3.82312 0
M  V30 32521 C 3052.61 3.47035 3.88865 0
M  V30 32522 C 3049.94 4.25997 4.03415 0
M  V30 32523 C 3052.29 4.8049 4.11476 0
M  V30 32524 C 3050.95 5.20212 4.18253 0
M  V30 32525 H 3050.22 0.252428 0.696679 0
M  V30 32526 H 3052.87 1.26505 1.43766 0
M  V30 32527 H 3051.17 0.401349 3.89739 0
M  V30 32528 H 3052.87 0.791229 3.93116 0
M  V30 32529 H 3049.46 2.20218 3.67698 0
M  V30 32530 H 3053.64 3.17296 3.81624 0
M  V30 32531 H 3048.9 4.56341 4.06894 0
M  V30 32532 H 3053.07 5.53895 4.22105 0
M  V30 32533 H 3050.7 6.23888 4.34358 0
M  V30 32534 N 3052.28 -1.36872 0.781268 0
M  V30 32535 C 3053.52 -1.9906 0.349233 0
M  V30 32536 C 3053.85 -1.62323 -1.08057 0
M  V30 32537 O 3053.12 -0.89326 -1.74349 0
M  V30 32538 H 3051.7 -0.736273 0.126139 0
M  V30 32539 H 3054.36 -1.672 1.00151 0
M  V30 32540 H 3053.45 -3.09061 0.434506 0
M  V30 32541 N 3053.75 -0.532597 -1.48328 0
M  V30 32542 C 3054.7 0.228739 -2.29664 0
M  V30 32543 C 3055.67 0.931376 -1.3753 0
M  V30 32544 O 3056.86 0.931892 -1.66494 0
M  V30 32545 C 3054 1.26808 -3.20957 0
M  V30 32546 C 3053.11 0.574024 -4.28169 0
M  V30 32547 C 3052.24 1.59653 -5.0664 0
M  V30 32548 C 3051.28 0.886073 -6.05653 0
M  V30 32549 N 3050.42 1.85424 -6.77172 0
M  V30 32550 H 3055.26 -0.471032 -2.94254 0
M  V30 32551 H 3052.8 -0.244125 -1.4506 0
M  V30 32552 H 3054.76 1.883 -3.72289 0
M  V30 32553 H 3053.39 1.9362 -2.58285 0
M  V30 32554 H 3052.44 -0.154894 -3.80085 0
M  V30 32555 H 3053.75 0.0163108 -4.98797 0
M  V30 32556 H 3052.9 2.28566 -5.61999 0
M  V30 32557 H 3051.64 2.18813 -4.35858 0
M  V30 32558 H 3050.65 0.182885 -5.49496 0
M  V30 32559 H 3051.87 0.300539 -6.78435 0
M  V30 32560 H 3049.82 2.43488 -6.09138 0
M  V30 32561 H 3049.74 1.34803 -7.43884 0
M  V30 32562 H 3051 2.53528 -7.37119 0
M  V30 32563 N 3055.23 1.55307 -0.267853 0
M  V30 32564 C 3056.46 2.04296 0.357451 0
M  V30 32565 C 3056.88 1.14521 1.4922 0
M  V30 32566 O 3056.24 0.142324 1.80741 0
M  V30 32567 C 3056.29 3.51087 0.822837 0
M  V30 32568 O 3055.39 3.64413 1.93071 0
M  V30 32569 H 3054.73 0.659749 0.0750134 0
M  V30 32570 H 3057.26 2.00651 -0.400031 0
M  V30 32571 H 3057.27 3.92311 1.12052 0
M  V30 32572 H 3055.95 4.15899 -0.0074293 0
M  V30 32573 H 3054.53 3.3509 1.63612 0
M  V30 32574 N 3056.71 -0.00497598 1.57599 0
M  V30 32575 C 3058.12 -0.548449 1.78463 0
M  V30 32576 C 3058.47 -1.74242 0.901899 0
M  V30 32577 O 3057.6 -2.16154 0.103052 0
M  V30 32578 C 3058.19 -1.00173 3.23652 0
M  V30 32579 C 3056.75 -1.49055 3.45629 0
M  V30 32580 C 3055.9 -0.439482 2.73795 0
M  V30 32581 H 3058.85 0.221208 1.57151 0
M  V30 32582 H 3058.87 -1.86799 3.31491 0
M  V30 32583 H 3058.38 -0.132539 3.87874 0
M  V30 32584 H 3056.48 -2.3808 2.86616 0
M  V30 32585 H 3056.6 -1.52144 4.54301 0
M  V30 32586 H 3054.96 -0.900001 2.38269 0
M  V30 32587 H 3055.74 0.420659 3.40713 0
M  V30 32588 N 3058.19 -1.55135 -0.277654 0
M  V30 32589 C 3059.43 -1.75782 -1.01137 0
M  V30 32590 C 3059.77 -0.554752 -1.86108 0
M  V30 32591 O 3059.04 0.44778 -1.89275 0
M  V30 32592 C 3059.33 -3.0603 -1.89783 0
M  V30 32593 C 3059.18 -4.36682 -1.07836 0
M  V30 32594 C 3060.5 -3.32287 -2.88571 0
M  V30 32595 H 3057.62 -0.639546 -0.366265 0
M  V30 32596 H 3060.26 -1.87864 -0.284122 0
M  V30 32597 H 3058.41 -2.95861 -2.51791 0
M  V30 32598 H 3060.08 -4.58803 -0.479351 0
M  V30 32599 H 3058.32 -4.32118 -0.381688 0
M  V30 32600 H 3058.99 -5.24134 -1.7317 0
M  V30 32601 H 3061.47 -3.42219 -2.36696 0
M  V30 32602 H 3060.35 -4.24696 -3.47742 0
M  V30 32603 H 3060.61 -2.51702 -3.63453 0
M  V30 32604 N 3059.67 0.541953 -1.47989 0
M  V30 32605 C 3060.91 1.2984 -1.55395 0
M  V30 32606 C 3061.24 1.93221 -0.222702 0
M  V30 32607 O 3060.5 1.79226 0.785905 0
M  V30 32608 C 3060.8 2.41793 -2.63194 0
M  V30 32609 C 3060.46 1.96144 -4.06003 0
M  V30 32610 C 3059.12 1.83412 -4.44875 0
M  V30 32611 C 3061.48 1.61498 -4.95548 0
M  V30 32612 C 3058.8 1.34351 -5.7111 0
M  V30 32613 C 3061.16 1.13904 -6.22261 0
M  V30 32614 C 3059.82 0.997795 -6.6 0
M  V30 32615 H 3059.09 0.47512 -0.568632 0
M  V30 32616 H 3061.74 0.606111 -1.81655 0
M  V30 32617 H 3060.04 3.16642 -2.30748 0
M  V30 32618 H 3061.74 2.99948 -2.66143 0
M  V30 32619 H 3058.33 2.07001 -3.75298 0
M  V30 32620 H 3062.51 1.70201 -4.66203 0
M  V30 32621 H 3057.77 1.22092 -5.99085 0
M  V30 32622 H 3061.94 0.861634 -6.91049 0
M  V30 32623 H 3059.57 0.615428 -7.57705 0
M  V30 32624 N 3061.15 1.36376 0.789896 0
M  V30 32625 C 3062.39 1.30579 1.54775 0
M  V30 32626 C 3062.72 -0.115061 1.94159 0
M  V30 32627 O 3061.98 -1.08423 1.6292 0
M  V30 32628 C 3062.27 2.17375 2.83695 0
M  V30 32629 C 3061.94 3.6593 2.6345 0
M  V30 32630 C 3060.6 4.06419 2.57637 0
M  V30 32631 C 3062.95 4.6012 2.44825 0
M  V30 32632 C 3060.28 5.3924 2.31165 0
M  V30 32633 C 3062.63 5.93158 2.19879 0
M  V30 32634 C 3061.3 6.32772 2.12499 0
M  V30 32635 H 3060.57 0.477823 0.566362 0
M  V30 32636 H 3063.22 1.68424 0.911351 0
M  V30 32637 H 3061.52 1.72466 3.51799 0
M  V30 32638 H 3063.22 2.10215 3.41483 0
M  V30 32639 H 3059.81 3.33809 2.6883 0
M  V30 32640 H 3063.99 4.29712 2.48317 0
M  V30 32641 H 3059.25 5.68915 2.23932 0
M  V30 32642 H 3063.42 6.65709 2.04462 0
M  V30 32643 H 3061.05 7.3562 1.91748 0
M  V30 32644 N 3062.62 -1.014 1.20647 0
M  V30 32645 C 3063.86 -1.76578 1.02954 0
M  V30 32646 C 3064.23 -1.87112 -0.43049 0
M  V30 32647 O 3065.43 -2.58763 -0.727682 0
M  V30 32648 C 3063.7 -3.14524 1.69734 0
M  V30 32649 S 3065.26 -4.05706 1.67177 0
M  V30 32650 H 3062.08 -0.607677 0.369121 0
M  V30 32651 H 3064.68 -1.21392 1.53245 0
M  V30 32652 H 3063.38 -3.04485 2.75168 0
M  V30 32653 H 3062.91 -3.74784 1.19584 0
M  V30 32654 H 3064.93 -4.91145 0.706484 0
M  V30 32655 N 3064.1 -1.01278 -1.2075 0
M  V30 32656 C 3065.03 -0.537956 -2.22797 0
M  V30 32657 C 3066.05 0.377611 -1.5836 0
M  V30 32658 O 3067.24 0.176567 -1.77625 0
M  V30 32659 C 3064.34 0.237305 -3.38068 0
M  V30 32660 C 3063.51 -0.679237 -4.32094 0
M  V30 32661 C 3062.57 0.0477751 -5.26178 0
M  V30 32662 O 3061.59 -0.573465 -5.66304 0
M  V30 32663 N 3062.8 1.32386 -5.65203 0
M  V30 32664 H 3065.56 -1.41554 -2.64164 0
M  V30 32665 H 3063.12 -0.88985 -1.35253 0
M  V30 32666 H 3065.11 0.73281 -3.9801 0
M  V30 32667 H 3063.68 1.01615 -2.95623 0
M  V30 32668 H 3062.9 -1.35511 -3.70176 0
M  V30 32669 H 3064.19 -1.30272 -4.9184 0
M  V30 32670 H 3063.59 1.84958 -5.34609 0
M  V30 32671 H 3062.15 1.76417 -6.27471 0
M  V30 32672 N 3065.58 1.36456 -0.788516 0
M  V30 32673 C 3066.54 2.28392 -0.192249 0
M  V30 32674 C 3067.54 1.48785 0.60989 0
M  V30 32675 O 3068.73 1.68784 0.431017 0
M  V30 32676 C 3065.86 3.32903 0.734038 0
M  V30 32677 H 3067.06 2.82634 -1.00289 0
M  V30 32678 H 3064.61 1.46005 -0.557878 0
M  V30 32679 H 3065.35 2.83815 1.56905 0
M  V30 32680 H 3065.13 3.9177 0.160806 0
M  V30 32681 H 3066.62 4.01564 1.14612 0
M  V30 32682 N 3067.06 0.540456 1.48043 0
M  V30 32683 C 3067.99 -0.205138 2.32597 0
M  V30 32684 C 3068.97 -0.925015 1.4275 0
M  V30 32685 O 3070.15 -0.908754 1.71625 0
M  V30 32686 C 3067.28 -1.24606 3.24177 0
M  V30 32687 C 3066.24 -0.643686 4.23132 0
M  V30 32688 C 3065.56 -1.78803 5.03918 0
M  V30 32689 C 3066.86 0.391531 5.2083 0
M  V30 32690 H 3068.56 0.500727 2.95183 0
M  V30 32691 H 3066.1 0.24225 1.41948 0
M  V30 32692 H 3068.06 -1.7757 3.82161 0
M  V30 32693 H 3066.78 -1.98165 2.59612 0
M  V30 32694 H 3065.44 -0.135489 3.6635 0
M  V30 32695 H 3065.09 -2.51225 4.3577 0
M  V30 32696 H 3064.79 -1.39084 5.70902 0
M  V30 32697 H 3066.31 -2.32124 5.64757 0
M  V30 32698 H 3067.73 -0.0514056 5.73277 0
M  V30 32699 H 3066.12 0.706674 5.95925 0
M  V30 32700 H 3067.19 1.29354 4.67328 0
M  V30 32701 N 3068.54 -1.55163 0.276085 0
M  V30 32702 C 3069.95 -1.59409 -0.0780299 0
M  V30 32703 C 3070.15 -1.29329 -1.54519 0
M  V30 32704 O 3069.21 -1.05463 -2.29421 0
M  V30 32705 C 3070.52 -2.99225 0.297475 0
M  V30 32706 C 3072.07 -3.12046 0.244172 0
M  V30 32707 C 3072.54 -4.5413 0.594131 0
M  V30 32708 N 3074.03 -4.59974 0.545721 0
M  V30 32709 C 3074.77 -5.67942 0.789292 0
M  V30 32710 N 3074.27 -6.84051 1.09753 0
M  V30 32711 N 3076.06 -5.57495 0.718024 0
M  V30 32712 H 3068.21 -1.7298 1.23254 0
M  V30 32713 H 3070.47 -0.806658 0.498002 0
M  V30 32714 H 3070.18 -3.26075 1.31787 0
M  V30 32715 H 3070.05 -3.75466 -0.36122 0
M  V30 32716 H 3072.44 -2.8496 -0.766941 0
M  V30 32717 H 3072.52 -2.38015 0.937138 0
M  V30 32718 H 3072.16 -4.81942 1.60294 0
M  V30 32719 H 3072.09 -5.26462 -0.120636 0
M  V30 32720 H 3074.59 -3.76565 0.3174 0
M  V30 32721 H 3074.9 -7.62293 1.27002 0
M  V30 32722 H 3073.24 -6.85664 1.13531 0
M  V30 32723 H 3076.43 -4.65663 0.477052 0
M  V30 32724 H 3076.61 -6.41561 0.91123 0
M  V30 32725 N 3070.01 -0.00338196 -1.576 0
M  V30 32726 C 3071.26 0.679967 -1.89893 0
M  V30 32727 C 3071.58 1.74749 -0.878762 0
M  V30 32728 O 3072.78 2.4857 -1.09203 0
M  V30 32729 C 3071.24 1.2606 -3.37101 0
M  V30 32730 C 3070.85 0.227728 -4.47421 0
M  V30 32731 C 3072.59 1.92195 -3.78499 0
M  V30 32732 C 3070.5 0.818547 -5.85708 0
M  V30 32733 H 3069.43 0.257733 -0.708583 0
M  V30 32734 H 3072.08 -0.0644795 -1.83387 0
M  V30 32735 H 3070.46 2.05583 -3.38455 0
M  V30 32736 H 3071.63 -0.543151 -4.57588 0
M  V30 32737 H 3069.95 -0.33337 -4.15063 0
M  V30 32738 H 3072.55 2.37309 -4.79154 0
M  V30 32739 H 3072.89 2.75394 -3.12192 0
M  V30 32740 H 3073.42 1.19401 -3.79458 0
M  V30 32741 H 3070.16 0.0252635 -6.55495 0
M  V30 32742 H 3069.68 1.55851 -5.79198 0
M  V30 32743 H 3071.36 1.31616 -6.33472 0
M  V30 32744 N 3071.49 1.5528 0.269423 0
M  V30 32745 C 3072.42 1.91415 1.33726 0
M  V30 32746 C 3073.4 0.776417 1.51347 0
M  V30 32747 O 3074.59 1.03485 1.6433 0
M  V30 32748 C 3071.72 2.18919 2.69614 0
M  V30 32749 C 3070.67 3.34731 2.6672 0
M  V30 32750 C 3070 3.47723 4.06193 0
M  V30 32751 C 3071.3 4.71029 2.25675 0
M  V30 32752 H 3072.99 2.80856 1.03731 0
M  V30 32753 H 3070.54 1.35131 0.497555 0
M  V30 32754 H 3072.49 2.42786 3.44432 0
M  V30 32755 H 3071.21 1.26281 3.01199 0
M  V30 32756 H 3069.87 3.10838 1.94359 0
M  V30 32757 H 3069.52 2.52545 4.35006 0
M  V30 32758 H 3069.22 4.25591 4.0515 0
M  V30 32759 H 3070.75 3.73886 4.82744 0
M  V30 32760 H 3072.16 4.94416 2.90217 0
M  V30 32761 H 3070.56 5.51837 2.35787 0
M  V30 32762 H 3071.63 4.69609 1.20811 0
M  V30 32763 N 3072.97 -0.534097 1.48274 0
M  V30 32764 C 3074.21 -1.30067 1.57676 0
M  V30 32765 C 3074.57 -1.90452 0.24329 0
M  V30 32766 O 3075.77 -2.6796 0.212278 0
M  V30 32767 C 3074.05 -2.364 2.68048 0
M  V30 32768 S 3075.6 -3.22838 2.97189 0
M  V30 32769 H 3072.42 -0.442491 0.556527 0
M  V30 32770 H 3075.02 -0.608927 1.85775 0
M  V30 32771 H 3073.73 -1.90511 3.63502 0
M  V30 32772 H 3073.26 -3.10287 2.41838 0
M  V30 32773 H 3075.27 -4.36392 2.36171 0
M  V30 32774 N 3074.45 -1.36793 -0.782652 0
M  V30 32775 C 3075.68 -1.34373 -1.56932 0
M  V30 32776 C 3076.09 0.0754496 -1.8905 0
M  V30 32777 O 3075.43 1.04465 -1.51105 0
M  V30 32778 C 3075.49 -2.10666 -2.91307 0
M  V30 32779 C 3075.15 -3.5971 -2.81883 0
M  V30 32780 C 3076.15 -4.5382 -2.5366 0
M  V30 32781 C 3073.84 -4.02687 -3.00247 0
M  V30 32782 C 3075.83 -5.88884 -2.43914 0
M  V30 32783 C 3073.52 -5.3784 -2.90122 0
M  V30 32784 C 3074.52 -6.30752 -2.61995 0
M  V30 32785 O 3074.2 -7.63422 -2.51876 0
M  V30 32786 H 3073.94 -0.462324 -0.493186 0
M  V30 32787 H 3076.49 -1.80581 -0.978759 0
M  V30 32788 H 3074.72 -1.59131 -3.5244 0
M  V30 32789 H 3076.41 -2.01018 -3.52628 0
M  V30 32790 H 3077.17 -4.21928 -2.39169 0
M  V30 32791 H 3073.05 -3.30737 -3.21145 0
M  V30 32792 H 3076.6 -6.61373 -2.2188 0
M  V30 32793 H 3072.49 -5.69338 -3.04179 0
M  V30 32794 H 3073.26 -7.73621 -2.67307 0
M  V30 32795 N 3075.93 1.00759 -1.21184 0
M  V30 32796 C 3077.17 1.74151 -1.02546 0
M  V30 32797 C 3077.5 1.89917 0.442339 0
M  V30 32798 O 3076.77 1.4482 1.31924 0
M  V30 32799 H 3075.35 0.645208 -0.376452 0
M  V30 32800 H 3078.01 1.21431 -1.52448 0
M  V30 32801 H 3077.1 2.74167 -1.49127 0
M  V30 32802 N 3077.4 1.01917 1.20211 0
M  V30 32803 C 3078.68 0.624983 1.85346 0
M  V30 32804 C 3079.06 -0.89682 1.91103 0
M  V30 32805 O 3078.41 -1.78958 1.42078 0
M  V30 32806 C 3078.62 1.27577 3.24846 0
M  V30 32807 C 3079.97 1.39284 4.01105 0
M  V30 32808 O 3080.99 1.23218 3.34209 0
M  V30 32809 O 3079.85 1.65269 5.20911 0
M  V30 32810 H 3076.94 0.215979 0.798299 0
M  V30 32811 H 3079.49 1.11671 1.2778 0
M  V30 32812 H 3078.26 2.3155 3.15436 0
M  V30 32813 H 3077.89 0.771289 3.90047 0
M  V30 32814 N 3078.88 -1.36036 0.795742 0
M  V30 32815 C 3080.16 -1.93366 0.294777 0
M  V30 32816 C 3080.54 -1.72698 -1.21402 0
M  V30 32817 O 3079.89 -1.08962 -2.00847 0
M  V30 32818 C 3080.1 -3.42024 0.694314 0
M  V30 32819 C 3081.45 -4.19158 0.67764 0
M  V30 32820 O 3082.47 -3.50491 0.635181 0
M  V30 32821 O 3081.33 -5.41653 0.726222 0
M  V30 32822 H 3078.42 -0.823632 0.0745603 0
M  V30 32823 H 3080.97 -1.45178 0.878711 0
M  V30 32824 H 3079.74 -3.5075 1.73464 0
M  V30 32825 H 3079.36 -3.9751 0.0846037 0
M  V30 32826 N 3080.36 -0.5483 -1.47755 0
M  V30 32827 C 3081.61 -0.0209621 -2.02789 0
M  V30 32828 C 3081.94 1.32184 -1.42271 0
M  V30 32829 O 3081.21 1.85805 -0.575034 0
M  V30 32830 C 3081.5 0.0816042 -3.60008 0
M  V30 32831 C 3081.35 -1.28766 -4.30975 0
M  V30 32832 C 3082.67 0.799439 -4.32778 0
M  V30 32833 H 3079.79 -0.00909179 -0.736944 0
M  V30 32834 H 3082.43 -0.70887 -1.76281 0
M  V30 32835 H 3080.58 0.66747 -3.82723 0
M  V30 32836 H 3082.25 -1.91605 -4.19625 0
M  V30 32837 H 3080.5 -1.86473 -3.91676 0
M  V30 32838 H 3081.17 -1.16871 -5.39486 0
M  V30 32839 H 3083.64 0.302087 -4.15002 0
M  V30 32840 H 3082.52 0.840143 -5.42432 0
M  V30 32841 H 3082.78 1.85368 -4.01361 0
M  V30 32842 N 3081.84 1.55014 -0.28431 0
M  V30 32843 C 3082.77 2.25854 0.592624 0
M  V30 32844 C 3083.75 1.25199 1.15149 0
M  V30 32845 O 3084.93 1.53938 1.18392 0
M  V30 32846 C 3082.06 2.98664 1.77249 0
M  V30 32847 C 3081.02 4.06326 1.34475 0
M  V30 32848 C 3080.34 4.66759 2.60845 0
M  V30 32849 C 3081.64 5.20013 0.488196 0
M  V30 32850 H 3083.34 2.994 0.00181779 0
M  V30 32851 H 3080.88 1.44 -0.000565714 0
M  V30 32852 H 3082.84 3.46936 2.39193 0
M  V30 32853 H 3081.56 2.22668 2.38927 0
M  V30 32854 H 3080.22 3.58878 0.748456 0
M  V30 32855 H 3079.87 3.87422 3.20801 0
M  V30 32856 H 3079.57 5.39459 2.32933 0
M  V30 32857 H 3081.09 5.17785 3.23621 0
M  V30 32858 H 3082.51 5.64282 1.01288 0
M  V30 32859 H 3080.9 5.99332 0.303564 0
M  V30 32860 H 3081.97 4.8241 -0.490812 0
M  V30 32861 N 3083.32 0.0117398 1.57596 0
M  V30 32862 C 3084.57 -0.669887 1.90251 0
M  V30 32863 C 3084.88 -1.7428 0.888017 0
M  V30 32864 O 3086.08 -2.47987 1.1052 0
M  V30 32865 C 3084.54 -1.24271 3.37764 0
M  V30 32866 C 3084.15 -0.203997 4.47535 0
M  V30 32867 C 3085.89 -1.90185 3.79513 0
M  V30 32868 C 3083.8 -0.787474 5.86134 0
M  V30 32869 H 3082.73 -0.253972 0.70994 0
M  V30 32870 H 3085.38 0.074204 1.8335 0
M  V30 32871 H 3083.76 -2.03785 3.3954 0
M  V30 32872 H 3084.94 0.56741 4.57293 0
M  V30 32873 H 3083.25 0.355378 4.14881 0
M  V30 32874 H 3085.85 -2.34765 4.80406 0
M  V30 32875 H 3086.19 -2.73734 3.13648 0
M  V30 32876 H 3086.72 -1.17387 3.80086 0
M  V30 32877 H 3083.46 0.0094994 6.55499 0
M  V30 32878 H 3082.98 -1.52777 5.80017 0
M  V30 32879 H 3084.66 -1.28254 6.34161 0
M  V30 32880 N 3084.79 -1.55421 -0.261185 0
M  V30 32881 C 3086.04 -1.76844 -0.992667 0
M  V30 32882 C 3086.37 -0.57446 -1.85509 0
M  V30 32883 O 3085.65 0.427679 -1.8974 0
M  V30 32884 C 3085.93 -3.08026 -1.86527 0
M  V30 32885 C 3085.78 -4.37801 -1.03199 0
M  V30 32886 C 3087.1 -3.35329 -2.8503 0
M  V30 32887 H 3084.22 -0.643394 -0.359461 0
M  V30 32888 H 3086.86 -1.88154 -0.264181 0
M  V30 32889 H 3085.01 -2.98515 -2.48639 0
M  V30 32890 H 3086.69 -4.59285 -0.430662 0
M  V30 32891 H 3084.93 -4.32498 -0.335835 0
M  V30 32892 H 3085.6 -5.25941 -1.67601 0
M  V30 32893 H 3088.08 -3.4471 -2.33053 0
M  V30 32894 H 3086.95 -4.2836 -3.43218 0
M  V30 32895 H 3087.21 -2.55543 -3.60763 0
M  V30 32896 N 3086.27 0.526227 -1.48555 0
M  V30 32897 C 3087.52 1.28185 -1.56764 0
M  V30 32898 C 3087.85 1.92974 -0.243184 0
M  V30 32899 O 3087.1 1.8005 0.766851 0
M  V30 32900 C 3087.4 2.38988 -2.65743 0
M  V30 32901 C 3087.07 1.91827 -4.0806 0
M  V30 32902 C 3085.73 1.78683 -4.46795 0
M  V30 32903 C 3088.08 1.56233 -4.97233 0
M  V30 32904 C 3085.41 1.28286 -5.72503 0
M  V30 32905 C 3087.76 1.07298 -6.23434 0
M  V30 32906 C 3086.43 0.927737 -6.61021 0
M  V30 32907 H 3085.7 0.469062 -0.573639 0
M  V30 32908 H 3088.34 0.586809 -1.82288 0
M  V30 32909 H 3086.65 3.14177 -2.34094 0
M  V30 32910 H 3088.34 2.97109 -2.69309 0
M  V30 32911 H 3084.93 2.03009 -3.77472 0
M  V30 32912 H 3089.12 1.65247 -4.67982 0
M  V30 32913 H 3084.37 1.15731 -6.00347 0
M  V30 32914 H 3088.55 0.78829 -6.91924 0
M  V30 32915 H 3086.18 0.535028 -7.58315 0
M  V30 32916 N 3087.75 1.37206 0.775387 0
M  V30 32917 C 3088.98 1.3557 1.56957 0
M  V30 32918 C 3089.4 -0.0575224 1.88012 0
M  V30 32919 O 3088.76 -1.03353 1.48956 0
M  V30 32920 C 3088.81 2.19781 2.85882 0
M  V30 32921 O 3087.91 1.59994 3.801 0
M  V30 32922 H 3087.25 0.463383 0.475575 0
M  V30 32923 H 3089.78 1.80681 0.959978 0
M  V30 32924 H 3089.79 2.32865 3.3502 0
M  V30 32925 H 3088.47 3.22506 2.62607 0
M  V30 32926 H 3087.04 1.5593 3.38733 0
M  V30 32927 N 3089.23 -1.00115 1.21716 0
M  V30 32928 C 3090.64 -1.2633 0.975343 0
M  V30 32929 C 3090.84 -1.98679 -0.335994 0
M  V30 32930 O 3089.9 -2.29141 -1.06069 0
M  V30 32931 C 3091.21 -2.08316 2.16852 0
M  V30 32932 C 3092.76 -2.2153 2.21119 0
M  V30 32933 C 3093.24 -3.069 3.39966 0
M  V30 32934 N 3094.73 -3.14488 3.40076 0
M  V30 32935 C 3095.46 -3.8081 4.28685 0
M  V30 32936 N 3094.96 -4.4913 5.27498 0
M  V30 32937 N 3096.75 -3.77489 4.16483 0
M  V30 32938 H 3088.9 -0.51586 2.0604 0
M  V30 32939 H 3091.17 -0.290392 0.902428 0
M  V30 32940 H 3090.87 -1.62509 3.11903 0
M  V30 32941 H 3090.75 -3.09069 2.16231 0
M  V30 32942 H 3093.13 -2.66554 1.26621 0
M  V30 32943 H 3093.21 -1.20234 2.25782 0
M  V30 32944 H 3092.86 -2.62577 4.34759 0
M  V30 32945 H 3092.79 -4.08318 3.32542 0
M  V30 32946 H 3095.28 -2.65857 2.68568 0
M  V30 32947 H 3095.59 -4.97453 5.91406 0
M  V30 32948 H 3093.94 -4.47904 5.3142 0
M  V30 32949 H 3097.13 -3.23272 3.38545 0
M  V30 32950 H 3097.3 -4.28899 4.85746 0
M  V30 32951 N 3090.71 -1.02553 -1.19669 0
M  V30 32952 C 3091.98 -0.634804 -1.85012 0
M  V30 32953 C 3092.36 0.886673 -1.91576 0
M  V30 32954 O 3091.71 1.78202 -1.43025 0
M  V30 32955 C 3091.92 -1.29298 -3.24165 0
M  V30 32956 C 3093.27 -1.41409 -4.00361 0
M  V30 32957 O 3094.29 -1.24989 -3.33551 0
M  V30 32958 O 3093.15 -1.68029 -5.20027 0
M  V30 32959 H 3090.25 -0.22021 -0.797143 0
M  V30 32960 H 3092.79 -1.12347 -1.27186 0
M  V30 32961 H 3091.57 -2.3322 -3.14204 0
M  V30 32962 H 3091.19 -0.791963 -3.89633 0
M  V30 32963 N 3092.19 1.35612 -0.802945 0
M  V30 32964 C 3093.43 1.99166 -0.382176 0
M  V30 32965 C 3093.76 1.63558 1.04701 0
M  V30 32966 O 3093.04 0.89709 1.72576 0
M  V30 32967 C 3093.32 3.55694 -0.561556 0
M  V30 32968 C 3093.18 4.01112 -2.03541 0
M  V30 32969 C 3094.49 4.40097 0.0150361 0
M  V30 32970 H 3091.61 0.723516 -0.140335 0
M  V30 32971 H 3094.26 1.60818 -1.0118 0
M  V30 32972 H 3092.41 3.88492 -0.0255766 0
M  V30 32973 H 3094.08 3.78741 -2.63349 0
M  V30 32974 H 3092.32 3.52155 -2.53317 0
M  V30 32975 H 3092.99 5.10006 -2.11182 0
M  V30 32976 H 3095.47 4.13739 -0.442655 0
M  V30 32977 H 3094.34 5.4872 -0.140412 0
M  V30 32978 H 3094.6 4.2798 1.1084 0
M  V30 32979 N 3093.66 0.556128 1.47462 0
M  V30 32980 C 3094.6 -0.22964 2.28047 0
M  V30 32981 C 3095.61 -0.880384 1.36942 0
M  V30 32982 O 3096.8 -0.754419 1.61774 0
M  V30 32983 C 3093.9 -1.34268 3.11168 0
M  V30 32984 C 3093.07 -0.788928 4.30226 0
M  V30 32985 C 3092.13 -1.78632 4.94951 0
M  V30 32986 O 3091.16 -1.33287 5.53374 0
M  V30 32987 N 3092.36 -3.11965 4.89549 0
M  V30 32988 H 3095.12 0.461611 2.96124 0
M  V30 32989 H 3092.68 0.392133 1.57079 0
M  V30 32990 H 3094.68 -2.00863 3.51335 0
M  V30 32991 H 3093.25 -1.93718 2.45341 0
M  V30 32992 H 3092.47 0.0537664 3.94163 0
M  V30 32993 H 3093.75 -0.398289 5.07239 0
M  V30 32994 H 3093.15 -3.51451 4.43281 0
M  V30 32995 H 3091.71 -3.74121 5.33738 0
M  V30 32996 N 3095.14 -1.54861 0.292527 0
M  V30 32997 C 3096.39 -1.99146 -0.319959 0
M  V30 32998 C 3096.7 -1.18451 -1.55656 0
M  V30 32999 O 3097.91 -1.52962 -2.24309 0
M  V30 33000 C 3096.37 -3.54509 -0.620603 0
M  V30 33001 C 3095.97 -4.44002 0.597176 0
M  V30 33002 C 3097.72 -4.0734 -1.19475 0
M  V30 33003 C 3095.62 -5.90783 0.270153 0
M  V30 33004 H 3094.55 -0.743845 -0.123328 0
M  V30 33005 H 3097.21 -1.79089 0.399907 0
M  V30 33006 H 3095.59 -3.70433 -1.39984 0
M  V30 33007 H 3096.76 -4.3985 1.37362 0
M  V30 33008 H 3095.08 -4.01898 1.08937 0
M  V30 33009 H 3097.67 -5.14565 -1.45353 0
M  V30 33010 H 3098.02 -3.57427 -2.13429 0
M  V30 33011 H 3098.55 -3.94925 -0.477415 0
M  V30 33012 H 3095.29 -6.44828 1.17803 0
M  V30 33013 H 3094.81 -5.97962 -0.469187 0
M  V30 33014 H 3096.49 -6.46867 -0.131357 0
M  V30 33015 N 3096.62 -0.0200973 -1.57587 0
M  V30 33016 C 3097.9 0.698645 -1.82697 0
M  V30 33017 C 3098.28 1.90854 -0.902115 0
M  V30 33018 O 3097.62 2.28457 0.0444432 0
M  V30 33019 C 3097.83 1.0854 -3.31693 0
M  V30 33020 C 3099.18 1.48083 -3.9794 0
M  V30 33021 O 3100.21 1.17863 -3.36135 0
M  V30 33022 O 3099.07 2.04355 -5.06854 0
M  V30 33023 H 3096.16 0.341929 -0.753003 0
M  V30 33024 H 3098.71 -0.0470899 -1.69635 0
M  V30 33025 H 3097.48 0.223887 -3.90659 0
M  V30 33026 H 3097.1 1.88959 -3.49829 0
M  V30 33027 N 3098.1 1.55557 0.252939 0
M  V30 33028 C 3099.05 1.90625 1.33285 0
M  V30 33029 C 3100.04 0.784665 1.50131 0
M  V30 33030 O 3101.25 0.969223 1.51678 0
M  V30 33031 H 3097.62 0.605329 0.446185 0
M  V30 33032 H 3099.59 2.80798 1.00972 0
M  V30 33033 C 3098.34 2.21218 2.6825 0
M  V30 33034 H 3097.66 3.07019 2.56085 0
M  V30 33035 H 3099.1 2.49662 3.42702 0
M  V30 33036 C 3097.56 1.02648 3.20882 0
M  V30 33037 O 3098.09 0.271363 4.00782 0
M  V30 33038 N 3096.3 0.818731 2.78828 0
M  V30 33039 H 3095.85 1.43448 2.13964 0
M  V30 33040 H 3095.8 0.0270541 3.14388 0
M  V30 33041 N 3099.58 -0.518341 1.48832 0
M  V30 33042 C 3100.51 -1.63072 1.67122 0
M  V30 33043 C 3101.49 -1.61958 0.519976 0
M  V30 33044 O 3102.67 -1.78971 0.753855 0
M  V30 33045 C 3099.8 -3.01624 1.72163 0
M  V30 33046 C 3098.76 -3.17601 2.86904 0
M  V30 33047 C 3098.08 -4.5733 2.77043 0
M  V30 33048 C 3099.38 -2.99266 4.28062 0
M  V30 33049 H 3101.08 -1.48021 2.6025 0
M  V30 33050 H 3098.62 -0.710672 1.25242 0
M  V30 33051 H 3100.57 -3.79327 1.83545 0
M  V30 33052 H 3099.3 -3.17725 0.756213 0
M  V30 33053 H 3097.96 -2.42318 2.75095 0
M  V30 33054 H 3097.61 -4.70283 1.78446 0
M  V30 33055 H 3097.31 -4.68963 3.54044 0
M  V30 33056 H 3098.83 -5.37117 2.9041 0
M  V30 33057 H 3100.24 -3.66752 4.40643 0
M  V30 33058 H 3098.64 -3.22384 5.06151 0
M  V30 33059 H 3099.71 -1.95567 4.43714 0
M  V30 33060 N 3101.05 -1.37615 -0.7681 0
M  V30 33061 C 3102.33 -1.23557 -1.51635 0
M  V30 33062 C 3102.71 0.169294 -2.1042 0
M  V30 33063 O 3102.06 1.17731 -1.95836 0
M  V30 33064 C 3102.27 -2.33443 -2.59432 0
M  V30 33065 C 3103.62 -2.71163 -3.26735 0
M  V30 33066 O 3104.64 -2.32647 -2.69729 0
M  V30 33067 O 3103.5 -3.37531 -4.29808 0
M  V30 33068 H 3100.59 -0.482344 -0.671769 0
M  V30 33069 H 3103.14 -1.49405 -0.804752 0
M  V30 33070 H 3101.91 -3.27505 -2.1414 0
M  V30 33071 H 3101.53 -2.09079 -3.38189 0
M  V30 33072 N 3102.53 0.994677 -1.22245 0
M  V30 33073 C 3103.46 2.10277 -1.01517 0
M  V30 33074 C 3104.44 1.69982 0.0633067 0
M  V30 33075 O 3105.63 1.9395 -0.0985609 0
M  V30 33076 C 3102.76 3.42248 -0.59022 0
M  V30 33077 C 3101.71 3.96384 -1.61443 0
M  V30 33078 C 3101.04 5.24382 -1.04537 0
M  V30 33079 C 3102.34 4.2727 -3.00395 0
M  V30 33080 H 3104.03 2.27876 -1.94198 0
M  V30 33081 H 3101.58 1.09506 -0.935113 0
M  V30 33082 H 3103.53 4.19176 -0.432328 0
M  V30 33083 H 3102.25 3.24472 0.372251 0
M  V30 33084 H 3100.91 3.21586 -1.76006 0
M  V30 33085 H 3100.56 5.02945 -0.0743109 0
M  V30 33086 H 3100.26 5.61568 -1.72959 0
M  V30 33087 H 3101.79 6.03945 -0.899028 0
M  V30 33088 H 3103.2 4.95002 -2.89216 0
M  V30 33089 H 3101.6 4.75625 -3.65925 0
M  V30 33090 H 3102.67 3.35119 -3.50462 0
M  V30 33091 N 3104.01 1.03186 1.19123 0
M  V30 33092 C 3105.26 0.725297 1.88208 0
M  V30 33093 C 3105.57 -0.749379 1.80676 0
M  V30 33094 O 3106.78 -1.16911 2.45039 0
M  V30 33095 C 3105.23 1.24703 3.37605 0
M  V30 33096 C 3104.84 2.7497 3.53688 0
M  V30 33097 C 3106.59 1.01659 4.12148 0
M  V30 33098 C 3104.49 3.20546 4.96995 0
M  V30 33099 H 3103.42 0.267611 0.704912 0
M  V30 33100 H 3106.07 1.24655 1.34661 0
M  V30 33101 H 3104.46 0.653683 3.90568 0
M  V30 33102 H 3105.63 3.39986 3.1104 0
M  V30 33103 H 3103.94 2.96327 2.92539 0
M  V30 33104 H 3106.54 1.33235 5.17834 0
M  V30 33105 H 3106.88 -0.046498 4.16274 0
M  V30 33106 H 3107.42 1.5741 3.65331 0
M  V30 33107 H 3104.16 4.26198 4.98032 0
M  V30 33108 H 3103.68 2.6026 5.40393 0
M  V30 33109 H 3105.36 3.14059 5.65664 0
M  V30 33110 N 3105.49 -1.35184 0.810125 0
M  V30 33111 C 3106.74 -1.98274 0.391378 0
M  V30 33112 C 3107.06 -1.64578 -1.04589 0
M  V30 33113 O 3106.33 -0.930041 -1.72415 0
M  V30 33114 H 3104.91 -0.733432 0.141728 0
M  V30 33115 H 3107.57 -1.65038 1.03675 0
M  V30 33116 H 3106.67 -3.08069 0.499964 0
M  V30 33117 N 3106.97 -0.56394 -1.47165 0
M  V30 33118 C 3107.9 0.217543 -2.28165 0
M  V30 33119 C 3108.91 0.87311 -1.37407 0
M  V30 33120 O 3110.1 0.745829 -1.62172 0
M  V30 33121 C 3107.2 1.32616 -3.11875 0
M  V30 33122 C 3106.37 0.766101 -4.30639 0
M  V30 33123 C 3105.43 1.76005 -4.95892 0
M  V30 33124 O 3104.46 1.3035 -5.54073 0
M  V30 33125 N 3105.66 3.09365 -4.91196 0
M  V30 33126 H 3108.43 -0.477308 -2.95875 0
M  V30 33127 H 3105.99 -0.400458 -1.56869 0
M  V30 33128 H 3107.98 1.98997 -3.52395 0
M  V30 33129 H 3106.55 1.92414 -2.46365 0
M  V30 33130 H 3105.77 -0.0746691 -3.94129 0
M  V30 33131 H 3107.06 0.371383 -5.07443 0
M  V30 33132 H 3106.45 3.49096 -4.45139 0
M  V30 33133 H 3105.01 3.71286 -5.35715 0
M  V30 33134 N 3108.44 1.54704 -0.300735 0
M  V30 33135 C 3109.39 2.2351 0.575481 0
M  V30 33136 C 3110.36 1.2176 1.12977 0
M  V30 33137 O 3111.55 1.50379 1.17434 0
M  V30 33138 C 3108.69 2.97929 1.74162 0
M  V30 33139 C 3107.8 4.14452 1.21875 0
M  V30 33140 C 3106.93 4.76454 2.34873 0
M  V30 33141 C 3105.97 5.85122 1.79718 0
M  V30 33142 N 3105.11 6.4108 2.86289 0
M  V30 33143 H 3109.95 2.97995 -0.0178781 0
M  V30 33144 H 3107.49 1.47086 -0.0205924 0
M  V30 33145 H 3109.45 3.39307 2.42748 0
M  V30 33146 H 3108.08 2.25821 2.30661 0
M  V30 33147 H 3107.13 3.78017 0.42516 0
M  V30 33148 H 3108.44 4.92743 0.774979 0
M  V30 33149 H 3107.59 5.20683 3.11406 0
M  V30 33150 H 3106.33 3.97494 2.82577 0
M  V30 33151 H 3105.34 5.40317 1.01674 0
M  V30 33152 H 3106.56 6.65965 1.32919 0
M  V30 33153 H 3104.51 5.65004 3.33327 0
M  V30 33154 H 3104.43 7.14716 2.46407 0
M  V30 33155 H 3105.69 6.89967 3.6272 0
M  V30 33156 N 3109.92 0.0284543 1.57574 0
M  V30 33157 C 3111.17 -0.649671 1.90951 0
M  V30 33158 C 3111.48 -1.73329 0.906452 0
M  V30 33159 O 3112.69 -2.46801 1.13144 0
M  V30 33160 C 3111.15 -1.20681 3.39063 0
M  V30 33161 C 3110.75 -0.156519 4.47727 0
M  V30 33162 C 3112.5 -1.86149 3.81509 0
M  V30 33163 C 3110.41 -0.725262 5.86936 0
M  V30 33164 H 3109.34 -0.246428 0.712593 0
M  V30 33165 H 3111.99 0.0936465 1.83261 0
M  V30 33166 H 3110.37 -2.00172 3.41683 0
M  V30 33167 H 3111.54 0.61588 4.56666 0
M  V30 33168 H 3109.86 0.399361 4.1448 0
M  V30 33169 H 3112.45 -2.29656 4.82869 0
M  V30 33170 H 3112.8 -2.70392 3.16534 0
M  V30 33171 H 3113.33 -1.13349 3.81309 0
M  V30 33172 H 3110.07 0.0790233 6.55452 0
M  V30 33173 H 3109.59 -1.46616 5.81604 0
M  V30 33174 H 3111.27 -1.21521 6.35485 0
M  V30 33175 N 3111.4 -1.55689 -0.244686 0
M  V30 33176 C 3112.65 -1.77887 -0.973855 0
M  V30 33177 C 3112.98 -0.594104 -1.84889 0
M  V30 33178 O 3112.25 0.407531 -1.90183 0
M  V30 33179 C 3112.54 -3.09987 -1.83249 0
M  V30 33180 C 3112.39 -4.38871 -0.985494 0
M  V30 33181 C 3113.71 -3.38334 -2.81458 0
M  V30 33182 H 3110.83 -0.647171 -0.352617 0
M  V30 33183 H 3113.47 -1.88424 -0.24421 0
M  V30 33184 H 3111.62 -3.01135 -2.45459 0
M  V30 33185 H 3113.29 -4.59716 -0.381924 0
M  V30 33186 H 3111.54 -4.3283 -0.289944 0
M  V30 33187 H 3112.21 -5.27689 -1.62013 0
M  V30 33188 H 3114.68 -3.47163 -2.29384 0
M  V30 33189 H 3113.56 -4.31977 -3.38655 0
M  V30 33190 H 3113.82 -2.59355 -3.58033 0
M  V30 33191 N 3112.88 0.510441 -1.49105 0
M  V30 33192 C 3114.16 1.27177 -1.48612 0
M  V30 33193 C 3114.54 2.10067 -0.208574 0
M  V30 33194 O 3113.88 2.13688 0.809297 0
M  V30 33195 C 3114.09 2.13656 -2.75957 0
M  V30 33196 C 3115.44 2.73155 -3.25071 0
M  V30 33197 O 3116.47 2.23929 -2.77009 0
M  V30 33198 O 3115.32 3.62744 -4.08753 0
M  V30 33199 H 3112.42 0.57501 -0.594384 0
M  V30 33200 H 3114.96 0.525487 -1.61359 0
M  V30 33201 H 3113.74 1.52319 -3.60437 0
M  V30 33202 H 3113.36 2.95494 -2.66025 0
M  V30 33203 N 3114.36 1.38021 0.760791 0
M  V30 33204 C 3115.27 1.36887 1.90523 0
M  V30 33205 C 3116.28 0.266938 1.7194 0
M  V30 33206 O 3117.46 0.504164 1.94988 0
M  V30 33207 C 3114.52 1.18564 3.25797 0
M  V30 33208 C 3113.58 2.38496 3.56956 0
M  V30 33209 C 3112.82 2.21038 4.85776 0
M  V30 33210 O 3113.04 1.20033 5.57627 0
M  V30 33211 O 3111.97 3.09469 5.16248 0
M  V30 33212 H 3115.8 2.33302 1.94433 0
M  V30 33213 H 3113.39 1.18865 0.90507 0
M  V30 33214 H 3115.27 1.10377 4.06688 0
M  V30 33215 H 3113.94 0.252298 3.22715 0
M  V30 33216 H 3112.85 2.52257 2.76256 0
M  V30 33217 H 3114.18 3.30436 3.64792 0
M  V30 33218 N 3115.83 -0.98818 1.22771 0
M  V30 33219 C 3117.08 -1.72839 1.05512 0
M  V30 33220 C 3117.41 -1.90149 -0.409111 0
M  V30 33221 O 3116.66 -1.44529 -1.31947 0
M  V30 33222 C 3116.96 -3.13463 1.71684 0
M  V30 33223 C 3116.63 -3.16055 3.2159 0
M  V30 33224 C 3115.29 -3.1647 3.62492 0
M  V30 33225 C 3117.64 -3.11976 4.17517 0
M  V30 33226 C 3114.97 -3.10512 4.97794 0
M  V30 33227 C 3117.32 -3.07561 5.52801 0
M  V30 33228 C 3115.99 -3.06293 5.93077 0
M  V30 33229 H 3115.26 -0.632464 0.386096 0
M  V30 33230 H 3117.9 -1.15698 1.52598 0
M  V30 33231 H 3116.21 -3.73943 1.16936 0
M  V30 33232 H 3117.91 -3.69489 1.55816 0
M  V30 33233 H 3114.5 -3.16485 2.89024 0
M  V30 33234 H 3118.68 -3.10802 3.86931 0
M  V30 33235 H 3113.94 -3.07879 5.28224 0
M  V30 33236 H 3118.11 -3.03361 6.26853 0
M  V30 33237 H 3115.74 -3.01432 6.97885 0
M  V30 33238 N 3117.31 -1.03816 -1.18575 0
M  V30 33239 C 3118.26 -0.627027 -2.22119 0
M  V30 33240 C 3119.23 0.363884 -1.62065 0
M  V30 33241 O 3120.41 0.258436 -1.89042 0
M  V30 33242 C 3117.55 0.00644067 -3.45099 0
M  V30 33243 C 3116.67 -1.03163 -4.19501 0
M  V30 33244 C 3115.8 -0.366946 -5.29931 0
M  V30 33245 C 3114.84 -1.39029 -5.96102 0
M  V30 33246 N 3113.98 -0.750748 -6.98075 0
M  V30 33247 H 3118.82 -1.51454 -2.56643 0
M  V30 33248 H 3116.36 -0.757724 -1.26083 0
M  V30 33249 H 3118.31 0.391035 -4.15363 0
M  V30 33250 H 3116.94 0.857482 -3.11203 0
M  V30 33251 H 3116 -1.5342 -3.4809 0
M  V30 33252 H 3117.31 -1.80901 -4.6484 0
M  V30 33253 H 3116.46 0.0719913 -6.06657 0
M  V30 33254 H 3115.2 0.442545 -4.85688 0
M  V30 33255 H 3114.21 -1.83939 -5.18118 0
M  V30 33256 H 3115.43 -2.20144 -6.42428 0
M  V30 33257 H 3113.38 0.0384828 -6.55989 0
M  V30 33258 H 3113.29 -1.46587 -7.41652 0
M  V30 33259 H 3114.56 -0.336123 -7.78775 0
M  V30 33260 N 3118.79 1.34753 -0.817283 0
M  V30 33261 C 3119.74 2.29619 -0.233148 0
M  V30 33262 C 3120.71 1.53322 0.638875 0
M  V30 33263 O 3121.89 1.81716 0.581707 0
M  V30 33264 C 3119.03 3.3978 0.6036 0
M  V30 33265 C 3118.15 4.31025 -0.290042 0
M  V30 33266 C 3117.28 5.28285 0.555732 0
M  V30 33267 C 3116.32 6.11168 -0.337647 0
M  V30 33268 N 3115.46 7.00534 0.468724 0
M  V30 33269 H 3120.3 2.78982 -1.04752 0
M  V30 33270 H 3117.83 1.37294 -0.52808 0
M  V30 33271 H 3119.79 4.02328 1.104 0
M  V30 33272 H 3118.42 2.91666 1.38313 0
M  V30 33273 H 3117.47 3.69389 -0.908617 0
M  V30 33274 H 3118.79 4.89134 -0.977222 0
M  V30 33275 H 3117.94 5.96257 1.12083 0
M  V30 33276 H 3116.68 4.707 1.27644 0
M  V30 33277 H 3115.68 5.42134 -0.914934 0
M  V30 33278 H 3116.91 6.70833 -1.05638 0
M  V30 33279 H 3114.85 6.45424 1.17321 0
M  V30 33280 H 3114.77 7.5583 -0.160184 0
M  V30 33281 H 3116.04 7.7284 1.01676 0
M  V30 33282 N 3120.27 0.571737 1.46864 0
M  V30 33283 C 3121.2 -0.155754 2.3298 0
M  V30 33284 C 3122.18 -0.894528 1.4468 0
M  V30 33285 O 3123.37 -0.872145 1.73514 0
M  V30 33286 C 3120.5 -1.17702 3.26747 0
M  V30 33287 C 3119.45 -0.553789 4.24402 0
M  V30 33288 C 3118.78 -1.68074 5.07598 0
M  V30 33289 C 3120.08 0.501919 5.19883 0
M  V30 33290 H 3121.77 0.563228 2.94055 0
M  V30 33291 H 3119.32 0.272305 1.41402 0
M  V30 33292 H 3121.27 -1.69423 3.85841 0
M  V30 33293 H 3119.99 -1.92614 2.63757 0
M  V30 33294 H 3118.65 -0.0577506 3.66555 0
M  V30 33295 H 3118.3 -2.41925 4.41 0
M  V30 33296 H 3118 -1.26943 5.73724 0
M  V30 33297 H 3119.52 -2.20093 5.69554 0
M  V30 33298 H 3120.94 0.0702065 5.73257 0
M  V30 33299 H 3119.33 0.832919 5.94292 0
M  V30 33300 H 3120.4 1.39237 4.64479 0
M  V30 33301 N 3121.75 -1.54542 0.308935 0
M  V30 33302 C 3123 -1.999 -0.297412 0
M  V30 33303 C 3123.32 -1.19881 -1.53797 0
M  V30 33304 O 3122.59 -0.296814 -1.93638 0
M  V30 33305 H 3121.17 -0.738421 -0.112884 0
M  V30 33306 H 3123.83 -1.90274 0.422101 0
M  V30 33307 H 3122.92 -3.06962 -0.563962 0
M  V30 33308 N 3123.23 -0.0368104 -1.57557 0
M  V30 33309 C 3124.16 0.977443 -2.06207 0
M  V30 33310 C 3125.14 1.31275 -0.959467 0
M  V30 33311 O 3126.32 1.42809 -1.23036 0
M  V30 33312 C 3123.45 2.2954 -2.49057 0
M  V30 33313 C 3122.49 2.11416 -3.70413 0
M  V30 33314 S 3123.33 1.40584 -5.16717 0
M  V30 33315 C 3124.48 2.73732 -5.62869 0
M  V30 33316 H 3124.72 0.563349 -2.91914 0
M  V30 33317 H 3122.25 0.175084 -1.53404 0
M  V30 33318 H 3124.21 3.05303 -2.74409 0
M  V30 33319 H 3122.87 2.6808 -1.63682 0
M  V30 33320 H 3122.06 3.08868 -3.98267 0
M  V30 33321 H 3121.66 1.43794 -3.45252 0
M  V30 33322 H 3123.95 3.69948 -5.67578 0
M  V30 33323 H 3124.9 2.50533 -6.62298 0
M  V30 33324 H 3125.31 2.79332 -4.90544 0
M  V30 33325 N 3124.7 1.55817 0.236426 0
M  V30 33326 C 3125.93 1.82204 0.980263 0
M  V30 33327 C 3126.35 0.613957 1.78539 0
M  V30 33328 O 3125.7 -0.41746 1.77661 0
M  V30 33329 C 3125.75 3.06937 1.90977 0
M  V30 33330 O 3125.48 4.23083 1.13721 0
M  V30 33331 C 3126.98 3.46202 2.76873 0
M  V30 33332 H 3124.2 0.60606 0.28798 0
M  V30 33333 H 3126.74 2.02889 0.256146 0
M  V30 33334 H 3124.9 2.88271 2.58802 0
M  V30 33335 H 3125.31 4.93845 1.76685 0
M  V30 33336 H 3126.78 4.36554 3.37823 0
M  V30 33337 H 3127.26 2.67268 3.48517 0
M  V30 33338 H 3127.87 3.67256 2.14484 0
M  V30 33339 N 3126.18 -0.502526 1.49373 0
M  V30 33340 C 3127.14 -1.58651 1.65416 0
M  V30 33341 C 3128.14 -1.51953 0.52603 0
M  V30 33342 O 3129.33 -1.55132 0.792448 0
M  V30 33343 C 3126.47 -2.98303 1.6501 0
M  V30 33344 H 3127.66 -1.45757 2.62097 0
M  V30 33345 H 3125.21 -0.726648 1.38382 0
M  V30 33346 H 3125.95 -3.16676 0.69907 0
M  V30 33347 H 3125.73 -3.04573 2.46936 0
M  V30 33348 H 3127.22 -3.77062 1.79483 0
M  V30 33349 N 3127.66 -1.38422 -0.75346 0
M  V30 33350 C 3128.89 -1.37871 -1.5427 0
M  V30 33351 C 3129.3 0.0314823 -1.88774 0
M  V30 33352 O 3128.66 0.998121 -1.52787 0
M  V30 33353 C 3128.71 -2.23443 -2.84175 0
M  V30 33354 O 3128.43 -3.58969 -2.51143 0
M  V30 33355 C 3129.93 -2.31074 -3.78312 0
M  V30 33356 H 3127.15 -0.471578 -0.477342 0
M  V30 33357 H 3129.7 -1.82003 -0.932477 0
M  V30 33358 H 3127.85 -1.82773 -3.41574 0
M  V30 33359 H 3128.27 -4.04027 -3.34459 0
M  V30 33360 H 3129.74 -2.95234 -4.66413 0
M  V30 33361 H 3130.22 -1.32443 -4.18755 0
M  V30 33362 H 3130.82 -2.72135 -3.26837 0
M  V30 33363 N 3129.14 0.981655 -1.23294 0
M  V30 33364 C 3130.36 1.76337 -1.09179 0
M  V30 33365 C 3130.79 1.84764 0.352693 0
M  V30 33366 O 3130.15 1.30834 1.25507 0
M  V30 33367 C 3130.19 3.16908 -1.72051 0
M  V30 33368 O 3129.3 4.00542 -0.98181 0
M  V30 33369 H 3128.64 0.542575 -0.382764 0
M  V30 33370 H 3131.17 1.23237 -1.63322 0
M  V30 33371 H 3131.18 3.67492 -1.77238 0
M  V30 33372 H 3129.85 3.1009 -2.77159 0
M  V30 33373 H 3128.43 3.59052 -1.00679 0
M  V30 33374 N 3130.62 1.04444 1.18022 0
M  V30 33375 C 3131.58 0.643174 2.19991 0
M  V30 33376 C 3132.58 -0.301416 1.5795 0
M  V30 33377 O 3133.77 -0.0863035 1.73986 0
M  V30 33378 C 3130.9 -0.0564609 3.40853 0
M  V30 33379 H 3132.09 1.54559 2.57005 0
M  V30 33380 H 3129.65 0.837432 1.31973 0
M  V30 33381 H 3130.38 -0.972499 3.09375 0
M  V30 33382 H 3130.17 0.622507 3.87127 0
M  V30 33383 H 3131.66 -0.323579 4.16344 0
M  V30 33384 N 3132.09 -1.34317 0.824418 0
M  V30 33385 C 3133.37 -1.92697 0.335726 0
M  V30 33386 C 3133.75 -1.75234 -1.17712 0
M  V30 33387 O 3133.1 -1.13198 -1.98491 0
M  V30 33388 C 3133.31 -3.40474 0.766706 0
M  V30 33389 C 3134.66 -4.17626 0.766397 0
M  V30 33390 O 3135.68 -3.49065 0.709382 0
M  V30 33391 O 3134.54 -5.39991 0.840951 0
M  V30 33392 H 3131.63 -0.821865 0.092014 0
M  V30 33393 H 3134.18 -1.43282 0.909308 0
M  V30 33394 H 3132.95 -3.46992 1.80865 0
M  V30 33395 H 3132.57 -3.97241 0.168902 0
M  V30 33396 N 3133.57 -0.579517 -1.46558 0
M  V30 33397 C 3134.52 0.155558 -2.30275 0
M  V30 33398 C 3135.49 0.887151 -1.40424 0
M  V30 33399 O 3136.67 0.878451 -1.69375 0
M  V30 33400 C 3133.81 1.16533 -3.24829 0
M  V30 33401 C 3132.93 0.437514 -4.29779 0
M  V30 33402 C 3132.06 1.43453 -5.11463 0
M  V30 33403 C 3131.1 0.692941 -6.08165 0
M  V30 33404 N 3130.24 1.63787 -6.82729 0
M  V30 33405 H 3135.08 -0.564408 -2.92606 0
M  V30 33406 H 3132.61 -0.290151 -1.4421 0
M  V30 33407 H 3134.57 1.76361 -3.78091 0
M  V30 33408 H 3133.2 1.85305 -2.64314 0
M  V30 33409 H 3132.25 -0.275737 -3.79399 0
M  V30 33410 H 3133.57 -0.142386 -4.98597 0
M  V30 33411 H 3132.72 2.1057 -5.68986 0
M  V30 33412 H 3131.46 2.04836 -4.42598 0
M  V30 33413 H 3130.46 0.00797429 -5.49799 0
M  V30 33414 H 3131.69 0.0845485 -6.79047 0
M  V30 33415 H 3129.64 2.23986 -6.16576 0
M  V30 33416 H 3129.55 1.11069 -7.47797 0
M  V30 33417 H 3130.82 2.29949 -7.44811 0
M  V30 33418 N 3135.05 1.54376 -0.317127 0
M  V30 33419 C 3136 2.25575 0.567331 0
M  V30 33420 C 3136.99 1.26752 1.12385 0
M  V30 33421 O 3138.2 1.4455 1.07263 0
M  V30 33422 H 3134.57 0.724475 0.201592 0
M  V30 33423 H 3136.54 2.98348 -0.0555169 0
M  V30 33424 C 3135.29 3.0219 1.71978 0
M  V30 33425 H 3134.62 3.78047 1.3008 0
M  V30 33426 H 3136.06 3.55264 2.31437 0
M  V30 33427 C 3134.52 2.10107 2.63356 0
M  V30 33428 O 3135.05 1.67969 3.64896 0
M  V30 33429 N 3133.25 1.75729 2.31447 0
M  V30 33430 H 3132.8 2.10193 1.48918 0
M  V30 33431 H 3132.76 1.14396 2.9285 0
M  V30 33432 N 3136.53 0.0451655 1.57535 0
M  V30 33433 C 3137.77 -0.630887 1.92737 0
M  V30 33434 C 3138.11 -1.70848 0.923295 0
M  V30 33435 O 3137.38 -1.94431 -0.051617 0
M  V30 33436 C 3137.67 -1.23253 3.3835 0
M  V30 33437 C 3137.52 -0.163411 4.49503 0
M  V30 33438 C 3138.84 -2.14592 3.84237 0
M  V30 33439 H 3135.96 -0.227871 0.700888 0
M  V30 33440 H 3138.6 0.105704 1.89706 0
M  V30 33441 H 3136.75 -1.86031 3.41064 0
M  V30 33442 H 3138.42 0.468161 4.58918 0
M  V30 33443 H 3136.66 0.509242 4.30801 0
M  V30 33444 H 3137.33 -0.624286 5.48458 0
M  V30 33445 H 3139.81 -1.61783 3.83361 0
M  V30 33446 H 3138.69 -2.53635 4.86786 0
M  V30 33447 H 3138.95 -3.0436 3.20652 0
M  V30 33448 N 3138.01 -1.5594 -0.228159 0
M  V30 33449 C 3139.42 -1.68895 -0.795704 0
M  V30 33450 C 3139.77 -0.645999 -1.8526 0
M  V30 33451 O 3138.89 0.204162 -2.15435 0
M  V30 33452 C 3139.49 -3.062 -1.45007 0
M  V30 33453 C 3138.05 -3.21032 -1.96509 0
M  V30 33454 C 3137.19 -2.6481 -0.822872 0
M  V30 33455 H 3140.15 -1.587 -0.00362061 0
M  V30 33456 H 3140.17 -3.01689 -2.3187 0
M  V30 33457 H 3139.68 -3.82085 -0.68061 0
M  V30 33458 H 3137.78 -2.50003 -2.76277 0
M  V30 33459 H 3137.89 -4.28169 -2.1496 0
M  V30 33460 H 3136.26 -2.23118 -1.22842 0
M  V30 33461 H 3137.04 -3.43236 -0.066189 0
M  V30 33462 N 3139.48 0.494597 -1.49638 0
M  V30 33463 C 3140.42 1.61228 -1.62905 0
M  V30 33464 C 3141.43 1.54557 -0.511452 0
M  V30 33465 O 3142.62 1.60373 -0.783753 0
M  V30 33466 C 3139.72 3.00042 -1.57569 0
M  V30 33467 C 3138.89 3.3183 -2.8497 0
M  V30 33468 C 3137.95 4.50085 -2.72599 0
M  V30 33469 O 3136.98 4.51552 -3.4654 0
M  V30 33470 N 3138.18 5.50376 -1.84573 0
M  V30 33471 H 3140.94 1.50272 -2.59304 0
M  V30 33472 H 3138.5 0.682594 -1.46807 0
M  V30 33473 H 3140.5 3.77082 -1.46938 0
M  V30 33474 H 3139.07 3.04889 -0.690027 0
M  V30 33475 H 3138.29 2.43625 -3.09904 0
M  V30 33476 H 3139.57 3.49868 -3.69418 0
M  V30 33477 H 3138.97 5.51995 -1.23768 0
M  V30 33478 H 3137.53 6.26493 -1.7986 0
M  V30 33479 N 3140.96 1.3882 0.746109 0
M  V30 33480 C 3141.89 1.39375 1.87341 0
M  V30 33481 C 3142.87 0.258613 1.68123 0
M  V30 33482 O 3144.06 0.462802 1.88605 0
M  V30 33483 C 3141.19 1.22549 3.2496 0
M  V30 33484 C 3140.14 2.33346 3.58795 0
M  V30 33485 C 3139.47 2.01618 4.95232 0
M  V30 33486 C 3140.77 3.7563 3.62904 0
M  V30 33487 H 3142.46 2.33712 1.87134 0
M  V30 33488 H 3140.01 1.12497 0.898917 0
M  V30 33489 H 3141.96 1.21561 4.03486 0
M  V30 33490 H 3140.69 0.246764 3.25666 0
M  V30 33491 H 3139.34 2.33532 2.82592 0
M  V30 33492 H 3138.99 1.02211 4.92506 0
M  V30 33493 H 3138.69 2.75828 5.18838 0
M  V30 33494 H 3140.22 2.02261 5.76127 0
M  V30 33495 H 3141.63 3.77433 4.31529 0
M  V30 33496 H 3140.03 4.49107 3.98023 0
M  V30 33497 H 3141.1 4.07407 2.6296 0
M  V30 33498 N 3142.44 -0.975103 1.23812 0
M  V30 33499 C 3143.39 -2.06841 1.02398 0
M  V30 33500 C 3144.36 -1.6599 -0.0603078 0
M  V30 33501 O 3145.54 -1.90574 0.0928522 0
M  V30 33502 C 3142.68 -3.39357 0.626941 0
M  V30 33503 C 3141.8 -3.93447 1.78392 0
M  V30 33504 C 3140.93 -5.14199 1.33316 0
M  V30 33505 C 3139.97 -5.60467 2.46055 0
M  V30 33506 N 3139.11 -6.72444 2.019 0
M  V30 33507 H 3143.95 -2.24493 1.95977 0
M  V30 33508 H 3141.48 -1.10038 0.976225 0
M  V30 33509 H 3143.44 -4.15486 0.377815 0
M  V30 33510 H 3142.07 -3.21653 -0.27185 0
M  V30 33511 H 3141.12 -3.14026 2.14691 0
M  V30 33512 H 3142.44 -4.2375 2.63129 0
M  V30 33513 H 3141.59 -5.97677 1.04247 0
M  V30 33514 H 3140.33 -4.85561 0.456228 0
M  V30 33515 H 3139.33 -4.75567 2.75892 0
M  V30 33516 H 3140.56 -5.91121 3.34294 0
M  V30 33517 H 3138.5 -6.45555 1.16594 0
M  V30 33518 H 3138.42 -7.02159 2.80194 0
M  V30 33519 H 3139.69 -7.59383 1.7595 0
M  V30 33520 N 3143.92 -1.05068 -1.17467 0
M  V30 33521 C 3145.33 -0.786333 -1.69333 0
M  V30 33522 C 3145.68 0.691639 -1.83605 0
M  V30 33523 O 3144.81 1.5376 -1.52272 0
M  V30 33524 C 3145.4 -1.42079 -3.07569 0
M  V30 33525 C 3143.96 -1.20452 -3.56607 0
M  V30 33526 C 3143.11 -1.50512 -2.32898 0
M  V30 33527 H 3146.06 -1.21579 -1.02001 0
M  V30 33528 H 3146.08 -0.829399 -3.71351 0
M  V30 33529 H 3145.59 -2.49647 -2.9715 0
M  V30 33530 H 3143.69 -0.148033 -3.72306 0
M  V30 33531 H 3143.8 -1.9086 -4.39442 0
M  V30 33532 H 3142.17 -0.925165 -2.37303 0
M  V30 33533 H 3142.95 -2.59211 -2.25088 0
M  V30 33534 N 3145.4 1.33878 -0.831529 0
M  V30 33535 C 3146.64 1.98311 -0.424336 0
M  V30 33536 C 3146.98 1.65742 1.01208 0
M  V30 33537 O 3146.25 0.933494 1.70634 0
M  V30 33538 C 3146.53 3.54423 -0.636877 0
M  V30 33539 C 3146.39 3.96705 -2.12004 0
M  V30 33540 C 3147.71 4.4003 -0.0783185 0
M  V30 33541 H 3144.82 0.720376 -0.15565 0
M  V30 33542 H 3147.47 1.58636 -1.04569 0
M  V30 33543 H 3145.62 3.8835 -0.107976 0
M  V30 33544 H 3147.29 3.7307 -2.71324 0
M  V30 33545 H 3145.53 3.46703 -2.60729 0
M  V30 33546 H 3146.2 5.05412 -2.21953 0
M  V30 33547 H 3148.68 4.12707 -0.530315 0
M  V30 33548 H 3147.55 5.48299 -0.256772 0
M  V30 33549 H 3147.82 4.30235 1.01737 0
M  V30 33550 N 3146.87 0.587281 1.46249 0
M  V30 33551 C 3148.1 0.0784881 2.07251 0
M  V30 33552 C 3148.52 -1.21916 1.43241 0
M  V30 33553 O 3147.88 -1.73748 0.517822 0
M  V30 33554 C 3147.93 -0.0690403 3.60534 0
M  V30 33555 O 3147.03 -1.12441 3.96775 0
M  V30 33556 H 3146.38 0.0648707 0.660824 0
M  V30 33557 H 3148.91 0.811524 1.87818 0
M  V30 33558 H 3148.92 -0.273754 4.07081 0
M  V30 33559 H 3147.59 0.878586 4.06514 0
M  V30 33560 H 3146.17 -0.897788 3.61931 0
M  V30 33561 N 3148.35 -1.54206 0.325309 0
M  V30 33562 C 3149.26 -2.28092 -0.548738 0
M  V30 33563 C 3150.28 -1.3251 -1.1277 0
M  V30 33564 O 3151.45 -1.65527 -1.14729 0
M  V30 33565 C 3148.52 -3.02565 -1.69279 0
M  V30 33566 C 3147.58 -4.13736 -1.14545 0
M  V30 33567 C 3146.81 -4.84649 -2.23498 0
M  V30 33568 O 3147.04 -4.55089 -3.43876 0
M  V30 33569 O 3145.97 -5.71517 -1.88818 0
M  V30 33570 H 3149.8 -3.03657 0.0513508 0
M  V30 33571 H 3147.38 -1.49123 0.0909421 0
M  V30 33572 H 3149.26 -3.49196 -2.35881 0
M  V30 33573 H 3147.94 -2.29874 -2.27902 0
M  V30 33574 H 3146.85 -3.7145 -0.444466 0
M  V30 33575 H 3148.18 -4.88476 -0.604324 0
M  V30 33576 N 3149.83 -0.0535194 -1.57509 0
M  V30 33577 C 3150.76 0.917961 -2.14699 0
M  V30 33578 C 3151.74 1.32291 -1.06926 0
M  V30 33579 O 3152.93 1.3972 -1.34877 0
M  V30 33580 C 3150.06 2.19198 -2.69387 0
M  V30 33581 C 3149.01 1.92703 -3.82164 0
M  V30 33582 C 3148.34 3.26579 -4.23379 0
M  V30 33583 C 3149.64 1.24677 -5.07201 0
M  V30 33584 H 3151.33 0.441598 -2.96125 0
M  V30 33585 H 3148.88 0.210968 -1.42446 0
M  V30 33586 H 3150.83 2.87561 -3.08036 0
M  V30 33587 H 3149.55 2.69044 -1.85156 0
M  V30 33588 H 3148.21 1.26751 -3.43991 0
M  V30 33589 H 3147.86 3.74231 -3.36095 0
M  V30 33590 H 3147.56 3.09649 -4.99391 0
M  V30 33591 H 3149.09 3.9617 -4.6463 0
M  V30 33592 H 3150.5 1.83078 -5.43282 0
M  V30 33593 H 3148.9 1.18065 -5.88371 0
M  V30 33594 H 3149.97 0.223142 -4.84386 0
M  V30 33595 N 3151.31 1.56059 0.219886 0
M  V30 33596 C 3152.54 1.83234 0.960882 0
M  V30 33597 C 3152.95 0.632859 1.77877 0
M  V30 33598 O 3152.31 -0.398593 1.78094 0
M  V30 33599 C 3152.36 3.08945 1.8771 0
M  V30 33600 O 3152.08 4.24265 1.09227 0
M  V30 33601 C 3153.58 3.4912 2.73186 0
M  V30 33602 H 3150.8 0.60908 0.281535 0
M  V30 33603 H 3153.35 2.0315 0.234613 0
M  V30 33604 H 3151.5 2.91 2.5573 0
M  V30 33605 H 3151.92 4.95691 1.71438 0
M  V30 33606 H 3153.39 4.40113 3.33174 0
M  V30 33607 H 3153.87 2.7095 3.45663 0
M  V30 33608 H 3154.47 3.6951 2.10576 0
M  V30 33609 N 3152.79 -0.486655 1.49898 0
M  V30 33610 C 3154.03 -1.23984 1.60107 0
M  V30 33611 C 3154.36 -1.92261 0.294262 0
M  V30 33612 O 3153.62 -1.8202 -0.718844 0
M  V30 33613 C 3153.92 -2.31858 2.71986 0
M  V30 33614 C 3153.58 -1.8094 4.13003 0
M  V30 33615 C 3152.24 -1.66774 4.51376 0
M  V30 33616 C 3154.6 -1.42995 5.012 0
M  V30 33617 C 3151.92 -1.13062 5.75703 0
M  V30 33618 C 3154.28 -0.90731 6.2606 0
M  V30 33619 C 3152.94 -0.752152 6.63249 0
M  V30 33620 H 3152.21 -0.453688 0.585874 0
M  V30 33621 H 3154.86 -0.538273 1.83779 0
M  V30 33622 H 3153.16 -3.0786 2.42341 0
M  V30 33623 H 3154.86 -2.89864 2.77092 0
M  V30 33624 H 3151.45 -1.9293 3.82722 0
M  V30 33625 H 3155.63 -1.52781 4.72199 0
M  V30 33626 H 3150.89 -0.997736 6.03204 0
M  V30 33627 H 3155.06 -0.604562 6.93771 0
M  V30 33628 H 3152.69 -0.333786 7.59467 0
M  V30 33629 N 3154.27 -1.39214 -0.738737 0
M  V30 33630 C 3155.2 -1.40367 -1.866 0
M  V30 33631 C 3156.18 -0.267525 -1.67983 0
M  V30 33632 O 3157.36 -0.472798 -1.88357 0
M  V30 33633 C 3154.49 -1.2427 -3.24306 0
M  V30 33634 C 3153.45 -2.35245 -3.57552 0
M  V30 33635 C 3152.77 -2.04241 -4.94155 0
M  V30 33636 C 3154.07 -3.77549 -3.60907 0
M  V30 33637 H 3155.77 -2.34701 -1.85892 0
M  V30 33638 H 3153.31 -1.12972 -0.892939 0
M  V30 33639 H 3155.26 -1.23699 -4.02836 0
M  V30 33640 H 3153.99 -0.264032 -3.25531 0
M  V30 33641 H 3152.65 -2.35027 -2.8135 0
M  V30 33642 H 3152.3 -1.04821 -4.91957 0
M  V30 33643 H 3152 -2.78576 -5.17368 0
M  V30 33644 H 3153.52 -2.05313 -5.75047 0
M  V30 33645 H 3154.93 -3.79717 -4.29521 0
M  V30 33646 H 3153.33 -4.51212 -3.95636 0
M  V30 33647 H 3154.4 -4.08795 -2.60796 0
M  V30 33648 N 3155.74 0.968523 -1.24328 0
M  V30 33649 C 3156.69 2.06295 -1.03493 0
M  V30 33650 C 3157.66 1.6602 0.0515041 0
M  V30 33651 O 3158.85 1.90522 -0.102957 0
M  V30 33652 C 3155.99 3.3902 -0.644929 0
M  V30 33653 C 3155.1 3.92495 -1.80476 0
M  V30 33654 C 3154.23 5.13484 -1.36041 0
M  V30 33655 C 3153.27 5.59154 -2.49024 0
M  V30 33656 N 3152.41 6.71364 -2.05463 0
M  V30 33657 H 3157.25 2.2345 -1.97165 0
M  V30 33658 H 3154.79 1.09518 -0.982047 0
M  V30 33659 H 3156.74 4.1528 -0.399844 0
M  V30 33660 H 3155.37 3.21793 0.254788 0
M  V30 33661 H 3154.43 3.12883 -2.16353 0
M  V30 33662 H 3155.74 4.22349 -2.65373 0
M  V30 33663 H 3154.89 5.97115 -1.07416 0
M  V30 33664 H 3153.63 4.85313 -0.481972 0
M  V30 33665 H 3152.64 4.74097 -2.7841 0
M  V30 33666 H 3153.86 5.8934 -3.37424 0
M  V30 33667 H 3151.81 6.44928 -1.20016 0
M  V30 33668 H 3151.72 7.00663 -2.83914 0
M  V30 33669 H 3152.99 7.58439 -1.79975 0
M  V30 33670 N 3157.22 1.0569 1.16908 0
M  V30 33671 C 3158.64 0.779191 1.39287 0
M  V30 33672 C 3158.84 -0.624197 1.91588 0
M  V30 33673 O 3157.89 -1.38578 2.11074 0
M  V30 33674 C 3159.21 1.83899 2.37911 0
M  V30 33675 C 3160.75 1.86179 2.51608 0
M  V30 33676 C 3161.23 2.91196 3.53509 0
M  V30 33677 N 3162.72 2.90191 3.61031 0
M  V30 33678 C 3163.46 3.68096 4.39651 0
M  V30 33679 N 3162.95 4.55802 5.21744 0
M  V30 33680 N 3164.74 3.56514 4.34573 0
M  V30 33681 H 3156.9 1.96228 0.812925 0
M  V30 33682 H 3159.16 0.849982 0.419803 0
M  V30 33683 H 3158.86 2.84648 2.06563 0
M  V30 33684 H 3158.74 1.68485 3.3748 0
M  V30 33685 H 3161.13 0.860919 2.82263 0
M  V30 33686 H 3161.21 2.05671 1.52096 0
M  V30 33687 H 3160.85 3.91472 3.23592 0
M  V30 33688 H 3160.78 2.68955 4.52737 0
M  V30 33689 H 3163.27 2.26602 3.02424 0
M  V30 33690 H 3163.58 5.11918 5.7893 0
M  V30 33691 H 3161.93 4.5986 5.21108 0
M  V30 33692 H 3165.12 2.87386 3.69496 0
M  V30 33693 H 3165.29 4.17475 4.956 0
M  V30 33694 N 3158.7 -1.33435 0.838617 0
M  V30 33695 C 3159.92 -2.02532 0.446736 0
M  V30 33696 C 3160.35 -1.62682 -0.944246 0
M  V30 33697 O 3159.71 -0.819298 -1.61732 0
M  V30 33698 C 3159.76 -3.55988 0.574857 0
M  V30 33699 O 3158.86 -4.10465 -0.398991 0
M  V30 33700 H 3158.2 -0.63867 0.181649 0
M  V30 33701 H 3160.73 -1.7034 1.13338 0
M  V30 33702 H 3160.74 -4.05439 0.45641 0
M  V30 33703 H 3159.42 -3.84337 1.58928 0
M  V30 33704 H 3157.99 -3.72139 -0.238122 0
M  V30 33705 N 3160.18 -0.595029 -1.45935 0
M  V30 33706 C 3161.42 -0.0853409 -2.0232 0
M  V30 33707 C 3161.75 1.27935 -1.46502 0
M  V30 33708 O 3161.01 1.85458 -0.624799 0
M  V30 33709 C 3161.31 0.0173119 -3.57396 0
M  V30 33710 C 3160.97 -1.28139 -4.32309 0
M  V30 33711 C 3159.63 -1.63716 -4.52494 0
M  V30 33712 C 3161.99 -2.14026 -4.75229 0
M  V30 33713 C 3159.31 -2.84956 -5.12852 0
M  V30 33714 C 3161.67 -3.34503 -5.36927 0
M  V30 33715 C 3160.33 -3.70348 -5.55337 0
M  V30 33716 H 3159.6 -0.0312284 -0.740342 0
M  V30 33717 H 3162.25 -0.774134 -1.75155 0
M  V30 33718 H 3160.55 0.789303 -3.83767 0
M  V30 33719 H 3162.25 0.427629 -3.98713 0
M  V30 33720 H 3158.84 -0.994447 -4.16904 0
M  V30 33721 H 3163.02 -1.87841 -4.59379 0
M  V30 33722 H 3158.28 -3.1285 -5.25295 0
M  V30 33723 H 3162.45 -4.01314 -5.6914 0
M  V30 33724 H 3160.08 -4.64382 -6.01875 0
M  V30 33725 N 3161.66 1.54031 -0.333483 0
M  V30 33726 C 3162.6 2.26164 0.543374 0
M  V30 33727 C 3163.6 1.27936 1.11034 0
M  V30 33728 O 3164.8 1.45679 1.05724 0
M  V30 33729 H 3161.18 0.726573 0.193897 0
M  V30 33730 H 3163.15 2.98273 -0.0871576 0
M  V30 33731 C 3161.9 3.03997 1.68764 0
M  V30 33732 H 3161.22 3.79405 1.26063 0
M  V30 33733 H 3162.66 3.57699 2.27656 0
M  V30 33734 C 3161.12 2.12889 2.61113 0
M  V30 33735 O 3161.65 1.7183 3.63094 0
M  V30 33736 N 3159.86 1.78174 2.2957 0
M  V30 33737 H 3159.4 2.11761 1.4668 0
M  V30 33738 H 3159.36 1.17495 2.9162 0
M  V30 33739 N 3163.13 0.0618717 1.57479 0
M  V30 33740 C 3164.06 -0.906562 2.15183 0
M  V30 33741 C 3165.04 -1.31722 1.07626 0
M  V30 33742 O 3166.23 -1.39003 1.35616 0
M  V30 33743 C 3163.36 -2.17767 2.70546 0
M  V30 33744 C 3162.31 -1.90673 3.83181 0
M  V30 33745 C 3161.64 -3.2433 4.25105 0
M  V30 33746 C 3162.94 -1.21985 5.07855 0
M  V30 33747 H 3164.63 -0.425888 2.96355 0
M  V30 33748 H 3162.18 -0.20341 1.42556 0
M  V30 33749 H 3164.13 -2.85924 3.09557 0
M  V30 33750 H 3162.86 -2.68059 1.8658 0
M  V30 33751 H 3161.52 -1.24925 3.44658 0
M  V30 33752 H 3161.16 -3.72443 3.38075 0
M  V30 33753 H 3160.86 -3.06996 5.01026 0
M  V30 33754 H 3162.39 -3.93701 4.66725 0
M  V30 33755 H 3163.8 -1.80195 5.44245 0
M  V30 33756 H 3162.2 -1.14943 5.88989 0
M  V30 33757 H 3163.27 -0.197451 4.84498 0
M  V30 33758 N 3164.61 -1.56173 -0.211607 0
M  V30 33759 C 3165.86 -1.79913 -0.935903 0
M  V30 33760 C 3166.19 -0.633188 -1.83588 0
M  V30 33761 O 3165.47 0.367099 -1.91004 0
M  V30 33762 C 3165.75 -3.13804 -1.76633 0
M  V30 33763 C 3165.6 -4.40863 -0.892181 0
M  V30 33764 C 3166.92 -3.44228 -2.74218 0
M  V30 33765 H 3164.04 -0.654505 -0.33881 0
M  V30 33766 H 3166.68 -1.889 -0.204187 0
M  V30 33767 H 3164.83 -3.06274 -2.39016 0
M  V30 33768 H 3166.5 -4.60423 -0.284326 0
M  V30 33769 H 3164.75 -4.33348 -0.198069 0
M  V30 33770 H 3165.42 -5.31007 -1.50783 0
M  V30 33771 H 3167.89 -3.5195 -2.21969 0
M  V30 33772 H 3166.77 -4.39063 -3.29416 0
M  V30 33773 H 3167.03 -2.66891 -3.52451 0
M  V30 33774 N 3166.09 0.478699 -1.50154 0
M  V30 33775 C 3167 1.60361 -1.71235 0
M  V30 33776 C 3168.02 1.635 -0.595298 0
M  V30 33777 O 3169.19 1.81509 -0.872715 0
M  V30 33778 C 3166.26 2.9662 -1.79492 0
M  V30 33779 C 3165.32 3.03931 -3.0319 0
M  V30 33780 C 3164.55 4.33691 -3.11044 0
M  V30 33781 O 3164.77 5.23765 -2.25889 0
M  V30 33782 O 3163.71 4.46436 -4.03706 0
M  V30 33783 H 3167.53 1.455 -2.66577 0
M  V30 33784 H 3165.12 0.657387 -1.3416 0
M  V30 33785 H 3167 3.77563 -1.87147 0
M  V30 33786 H 3165.68 3.11697 -0.873319 0
M  V30 33787 H 3164.58 2.22094 -3.0104 0
M  V30 33788 H 3165.92 2.93789 -3.94904 0
M  V30 33789 N 3167.57 1.39603 0.731343 0
M  V30 33790 C 3168.85 1.27533 1.48306 0
M  V30 33791 C 3169.23 -0.113445 2.10795 0
M  V30 33792 O 3168.57 -1.12498 1.98888 0
M  V30 33793 C 3168.78 2.4024 2.53152 0
M  V30 33794 C 3170.13 2.7973 3.19431 0
M  V30 33795 O 3171.16 2.39716 2.63466 0
M  V30 33796 O 3170.01 3.48808 4.20708 0
M  V30 33797 H 3167.11 0.499985 0.658744 0
M  V30 33798 H 3169.65 1.51486 0.764857 0
M  V30 33799 H 3168.43 3.33068 2.05382 0
M  V30 33800 H 3168.05 2.17972 3.32527 0
M  V30 33801 N 3169.05 -0.961916 1.2484 0
M  V30 33802 C 3170.46 -1.23163 1.01504 0
M  V30 33803 C 3170.66 -1.99647 -0.272616 0
M  V30 33804 O 3169.72 -2.32399 -0.987256 0
M  V30 33805 C 3171.03 -2.01312 2.2337 0
M  V30 33806 C 3172.58 -2.14383 2.28055 0
M  V30 33807 C 3173.05 -2.95929 3.49557 0
M  V30 33808 N 3174.55 -3.03509 3.49909 0
M  V30 33809 C 3175.28 -3.66979 4.40583 0
M  V30 33810 N 3174.78 -4.3212 5.4152 0
M  V30 33811 N 3176.57 -3.64048 4.28282 0
M  V30 33812 H 3168.72 -0.450049 2.07577 0
M  V30 33813 H 3170.98 -0.261535 0.91121 0
M  V30 33814 H 3170.69 -1.52504 3.16915 0
M  V30 33815 H 3170.56 -3.02034 2.25954 0
M  V30 33816 H 3172.95 -2.62391 1.35037 0
M  V30 33817 H 3173.03 -1.1299 2.29493 0
M  V30 33818 H 3172.68 -2.48612 4.42893 0
M  V30 33819 H 3172.61 -3.97532 3.45364 0
M  V30 33820 H 3175.1 -2.57178 2.7689 0
M  V30 33821 H 3175.41 -4.78386 6.06932 0
M  V30 33822 H 3173.75 -4.30771 5.454 0
M  V30 33823 H 3176.95 -3.12338 3.48658 0
M  V30 33824 H 3177.12 -4.13228 4.99146 0
M  V30 33825 N 3170.52 -1.06308 -1.16346 0
M  V30 33826 C 3171.77 -0.774942 -1.86219 0
M  V30 33827 C 3172.09 0.701213 -1.82599 0
M  V30 33828 O 3173.29 1.10373 -2.48053 0
M  V30 33829 C 3171.75 -1.3361 -3.3418 0
M  V30 33830 C 3171.36 -2.84251 -3.46274 0
M  V30 33831 C 3173.1 -1.12551 -4.09307 0
M  V30 33832 C 3171.01 -3.33611 -4.88322 0
M  V30 33833 H 3169.94 -0.286206 -0.697569 0
M  V30 33834 H 3172.59 -1.28181 -1.31308 0
M  V30 33835 H 3170.97 -0.757005 -3.88697 0
M  V30 33836 H 3172.14 -3.48113 -3.01917 0
M  V30 33837 H 3170.46 -3.03979 -2.8458 0
M  V30 33838 H 3173.06 -1.46918 -5.1412 0
M  V30 33839 H 3173.4 -0.063886 -4.16251 0
M  V30 33840 H 3173.93 -1.6704 -3.6103 0
M  V30 33841 H 3170.67 -4.39252 -4.86557 0
M  V30 33842 H 3170.19 -2.74497 -5.33303 0
M  V30 33843 H 3171.87 -3.28947 -5.57138 0
M  V30 33844 N 3172 1.32989 -0.845682 0
M  V30 33845 C 3173.42 1.50389 -0.534356 0
M  V30 33846 C 3173.62 1.78394 0.936908 0
M  V30 33847 O 3172.67 1.84821 1.72039 0
M  V30 33848 C 3173.99 2.65402 -1.41359 0
M  V30 33849 C 3175.54 2.79287 -1.41308 0
M  V30 33850 C 3176.01 3.97369 -2.27731 0
M  V30 33851 N 3177.5 4.04616 -2.25478 0
M  V30 33852 C 3178.24 4.95196 -2.89082 0
M  V30 33853 N 3177.73 5.90845 -3.61765 0
M  V30 33854 N 3179.53 4.88247 -2.78517 0
M  V30 33855 H 3171.68 1.13075 -1.798 0
M  V30 33856 H 3173.94 0.556511 -0.767463 0
M  V30 33857 H 3173.65 2.51409 -2.4594 0
M  V30 33858 H 3173.52 3.60971 -1.09452 0
M  V30 33859 H 3175.91 2.92708 -0.37495 0
M  V30 33860 H 3175.99 1.84458 -1.77225 0
M  V30 33861 H 3175.63 3.84707 -3.31606 0
M  V30 33862 H 3175.56 4.91456 -1.89151 0
M  V30 33863 H 3178.05 3.36167 -1.72628 0
M  V30 33864 H 3178.37 6.56639 -4.07486 0
M  V30 33865 H 3176.71 5.90899 -3.65873 0
M  V30 33866 H 3179.9 4.12489 -2.21292 0
M  V30 33867 H 3180.07 5.58639 -3.2837 0
M  V30 33868 N 3173.48 0.60276 1.45618 0
M  V30 33869 C 3174.89 0.181669 1.85814 0
M  V30 33870 C 3175.24 -1.26026 1.50372 0
M  V30 33871 O 3174.37 -1.95487 0.928102 0
M  V30 33872 C 3174.96 0.322926 3.37258 0
M  V30 33873 C 3173.52 -0.0434378 3.76375 0
M  V30 33874 C 3172.67 0.649609 2.69584 0
M  V30 33875 H 3175.62 0.809745 1.36487 0
M  V30 33876 H 3175.64 -0.446213 3.77875 0
M  V30 33877 H 3175.15 1.37248 3.63022 0
M  V30 33878 H 3173.25 -1.09235 3.56228 0
M  V30 33879 H 3173.37 0.346849 4.77843 0
M  V30 33880 H 3171.73 0.0877507 2.54549 0
M  V30 33881 H 3172.51 1.7012 2.98185 0
M  V30 33882 N 3174.96 -1.53852 0.341647 0
M  V30 33883 C 3175.92 -2.23601 -0.503502 0
M  V30 33884 C 3176.92 -1.23556 -1.0291 0
M  V30 33885 O 3178.11 -1.48008 -0.918652 0
M  V30 33886 C 3175.24 -2.95418 -1.70121 0
M  V30 33887 H 3176.44 -2.99711 0.106489 0
M  V30 33888 H 3173.99 -1.56023 0.0929682 0
M  V30 33889 H 3174.72 -2.23491 -2.34995 0
M  V30 33890 H 3174.51 -3.68798 -1.33154 0
M  V30 33891 H 3176 -3.48507 -2.3007 0
M  V30 33892 N 3176.44 -0.0702223 -1.57443 0
M  V30 33893 C 3177.69 0.598815 -1.92606 0
M  V30 33894 C 3178 1.70864 -0.952088 0
M  V30 33895 O 3179.2 2.43714 -1.19648 0
M  V30 33896 C 3177.66 1.11649 -3.42144 0
M  V30 33897 C 3177.27 0.0377567 -4.47984 0
M  V30 33898 C 3179.01 1.75969 -3.8631 0
M  V30 33899 C 3176.92 0.569391 -5.88653 0
M  V30 33900 H 3175.85 0.227448 -0.718877 0
M  V30 33901 H 3178.5 -0.142202 -1.82948 0
M  V30 33902 H 3176.88 1.91043 -3.4687 0
M  V30 33903 H 3178.06 -0.736741 -4.54872 0
M  V30 33904 H 3176.37 -0.509113 -4.13276 0
M  V30 33905 H 3178.97 2.16773 -4.88788 0
M  V30 33906 H 3179.31 2.61905 -3.23591 0
M  V30 33907 H 3179.84 1.032 -3.84181 0
M  V30 33908 H 3176.58 -0.252777 -6.55012 0
M  V30 33909 H 3176.1 1.31145 -5.85287 0
M  V30 33910 H 3177.78 1.04629 -6.38484 0
M  V30 33911 N 3177.91 1.56283 0.203321 0
M  V30 33912 C 3179.14 1.84594 0.945515 0
M  V30 33913 C 3179.56 0.652803 1.76409 0
M  V30 33914 O 3178.92 -0.398437 1.76868 0
M  V30 33915 C 3178.97 3.1106 1.82411 0
M  V30 33916 O 3178.07 2.91035 2.92186 0
M  V30 33917 H 3177.42 0.608072 0.266728 0
M  V30 33918 H 3179.95 2.03508 0.211122 0
M  V30 33919 H 3179.96 3.4164 2.23038 0
M  V30 33920 H 3178.63 3.97524 1.2226 0
M  V30 33921 H 3177.21 2.71733 2.55373 0
M  V30 33922 N 3179.39 -0.470729 1.50406 0
M  V30 33923 C 3180.3 -1.59451 1.72083 0
M  V30 33924 C 3181.32 -1.63182 0.60396 0
M  V30 33925 O 3182.5 -1.81044 0.882328 0
M  V30 33926 C 3179.56 -2.95664 1.81062 0
M  V30 33927 C 3178.62 -3.02319 3.04798 0
M  V30 33928 C 3177.85 -4.32035 3.13339 0
M  V30 33929 O 3178.08 -5.2256 2.28664 0
M  V30 33930 O 3177.01 -4.44289 4.06068 0
M  V30 33931 H 3180.84 -1.44084 2.67345 0
M  V30 33932 H 3178.42 -0.650263 1.34506 0
M  V30 33933 H 3180.3 -3.76565 1.89147 0
M  V30 33934 H 3178.98 -3.11229 0.889837 0
M  V30 33935 H 3177.89 -2.20494 3.02214 0
M  V30 33936 H 3179.22 -2.91691 3.96456 0
M  V30 33937 N 3180.87 -1.39989 -0.72393 0
M  V30 33938 C 3181.82 -1.39592 -1.83801 0
M  V30 33939 C 3182.79 -0.254025 -1.64146 0
M  V30 33940 O 3183.97 -0.450825 -1.85397 0
M  V30 33941 C 3181.11 -1.25609 -3.21428 0
M  V30 33942 C 3180.23 -2.49436 -3.52712 0
M  V30 33943 C 3179.36 -2.27958 -4.79801 0
M  V30 33944 C 3178.4 -3.47403 -5.03962 0
M  V30 33945 N 3177.54 -3.25172 -6.2226 0
M  V30 33946 H 3182.38 -2.34821 -1.83475 0
M  V30 33947 H 3179.91 -1.16634 -0.896375 0
M  V30 33948 H 3181.87 -1.15511 -4.0089 0
M  V30 33949 H 3180.5 -0.340043 -3.21004 0
M  V30 33950 H 3179.55 -2.70094 -2.67868 0
M  V30 33951 H 3180.87 -3.38369 -3.6648 0
M  V30 33952 H 3180.02 -2.15165 -5.67264 0
M  V30 33953 H 3178.76 -1.36436 -4.68227 0
M  V30 33954 H 3177.76 -3.60681 -4.14957 0
M  V30 33955 H 3178.99 -4.3984 -5.17414 0
M  V30 33956 H 3176.94 -2.36325 -6.11953 0
M  V30 33957 H 3176.85 -4.07667 -6.36666 0
M  V30 33958 H 3178.12 -3.16096 -7.12533 0
M  V30 33959 N 3182.35 0.955282 -1.25348 0
M  V30 33960 C 3183.58 1.73449 -1.12796 0
M  V30 33961 C 3183.99 1.86097 0.318311 0
M  V30 33962 O 3183.35 1.35823 1.21895 0
M  V30 33963 C 3183.4 3.14861 -1.77609 0
M  V30 33964 O 3183.12 3.02832 -3.16582 0
M  V30 33965 C 3184.62 4.09063 -1.70828 0
M  V30 33966 H 3181.84 0.54353 -0.393467 0
M  V30 33967 H 3184.39 1.19852 -1.65698 0
M  V30 33968 H 3182.54 3.65404 -1.28679 0
M  V30 33969 H 3182.96 3.92033 -3.4844 0
M  V30 33970 H 3184.43 5.05899 -2.20839 0
M  V30 33971 H 3184.91 4.3403 -0.671934 0
M  V30 33972 H 3185.51 3.64435 -2.19243 0
M  V30 33973 N 3183.83 1.06924 1.1578 0
M  V30 33974 C 3185.08 0.784807 1.85805 0
M  V30 33975 C 3185.39 -0.691519 1.82968 0
M  V30 33976 O 3186.6 -1.09056 2.48634 0
M  V30 33977 C 3185.05 1.35381 3.33467 0
M  V30 33978 C 3184.66 2.86083 3.44761 0
M  V30 33979 C 3186.4 1.1472 4.08705 0
M  V30 33980 C 3184.31 3.36196 4.86545 0
M  V30 33981 H 3183.24 0.289902 0.696041 0
M  V30 33982 H 3185.89 1.28876 1.30627 0
M  V30 33983 H 3184.27 0.777608 3.8829 0
M  V30 33984 H 3185.45 3.49709 3.00067 0
M  V30 33985 H 3183.76 3.05484 2.82964 0
M  V30 33986 H 3186.36 1.49642 5.13334 0
M  V30 33987 H 3186.7 0.0859599 4.16211 0
M  V30 33988 H 3187.24 1.68953 3.60139 0
M  V30 33989 H 3183.97 4.41826 4.84221 0
M  V30 33990 H 3183.49 2.77321 5.31839 0
M  V30 33991 H 3185.17 3.31897 5.55386 0
M  V30 33992 N 3185.31 -1.32538 0.852723 0
M  V30 33993 C 3186.55 -1.98011 0.465105 0
M  V30 33994 C 3186.91 -1.66267 -0.96815 0
M  V30 33995 O 3186.2 -0.93953 -1.66983 0
M  V30 33996 C 3186.39 -3.51645 0.638819 0
M  V30 33997 C 3186.22 -3.98318 2.08741 0
M  V30 33998 C 3184.99 -4.25493 2.72551 0
M  V30 33999 C 3187.19 -4.13527 3.05777 0
M  V30 34000 N 3185.17 -4.584 4.08341 0
M  V30 34001 C 3186.54 -4.49951 4.2655 0
M  V30 34002 C 3188.6 -3.95855 3.01998 0
M  V30 34003 C 3187.3 -4.70547 5.44038 0
M  V30 34004 C 3189.33 -4.17636 4.1873 0
M  V30 34005 C 3188.69 -4.54374 5.3826 0
M  V30 34006 H 3184.79 -0.750739 0.218894 0
M  V30 34007 H 3187.37 -1.60395 1.1037 0
M  V30 34008 H 3185.54 -3.88388 0.0299312 0
M  V30 34009 H 3187.28 -4.04095 0.221286 0
M  V30 34010 H 3184.03 -4.17492 2.23601 0
M  V30 34011 H 3184.45 -4.79042 4.7838 0
M  V30 34012 H 3189.1 -3.66555 2.10707 0
M  V30 34013 H 3186.81 -4.98703 6.35863 0
M  V30 34014 H 3190.4 -4.05467 4.17239 0
M  V30 34015 H 3189.28 -4.70889 6.27083 0
M  V30 34016 N 3186.78 -0.610474 -1.45296 0
M  V30 34017 C 3188.01 -0.11145 -2.071 0
M  V30 34018 C 3188.43 1.19622 -1.45163 0
M  V30 34019 O 3187.79 1.72902 -0.545398 0
M  V30 34020 C 3187.84 0.0116738 -3.60598 0
M  V30 34021 O 3186.94 1.06115 -3.98514 0
M  V30 34022 H 3186.28 -0.0753756 -0.659708 0
M  V30 34023 H 3188.81 -0.841301 -1.86503 0
M  V30 34024 H 3188.82 0.208957 -4.07465 0
M  V30 34025 H 3187.5 -0.943147 -4.05065 0
M  V30 34026 H 3186.08 0.840094 -3.63314 0
M  V30 34027 N 3188.26 1.53669 -0.349801 0
M  V30 34028 C 3189.19 2.28165 0.496298 0
M  V30 34029 C 3190.17 1.2997 1.09735 0
M  V30 34030 O 3191.36 1.58821 1.11757 0
M  V30 34031 C 3188.49 3.05913 1.64422 0
M  V30 34032 C 3187.44 4.11664 1.1712 0
M  V30 34033 C 3186.77 4.77402 2.40813 0
M  V30 34034 C 3188.07 5.21616 0.267202 0
M  V30 34035 H 3189.76 2.99138 -0.12517 0
M  V30 34036 H 3187.31 1.43868 -0.0616405 0
M  V30 34037 H 3189.26 3.56769 2.24263 0
M  V30 34038 H 3187.98 2.32602 2.29268 0
M  V30 34039 H 3186.64 3.6173 0.59557 0
M  V30 34040 H 3186.29 4.00679 3.04081 0
M  V30 34041 H 3185.99 5.48853 2.09843 0
M  V30 34042 H 3187.52 5.31045 3.01369 0
M  V30 34043 H 3188.93 5.6807 0.772634 0
M  V30 34044 H 3187.33 6.0008 0.0490936 0
M  V30 34045 H 3188.4 4.79894 -0.694977 0
M  V30 34046 N 3189.74 0.0785709 1.57404 0
M  V30 34047 C 3190.67 -0.922427 2.08726 0
M  V30 34048 C 3191.65 -1.28685 0.993934 0
M  V30 34049 O 3192.83 -1.39497 1.26779 0
M  V30 34050 C 3189.96 -2.22856 2.55055 0
M  V30 34051 C 3189.01 -2.01521 3.75888 0
M  V30 34052 S 3189.84 -1.26834 5.20263 0
M  V30 34053 C 3191 -2.58713 5.69929 0
M  V30 34054 H 3191.23 -0.485755 2.93305 0
M  V30 34055 H 3188.76 -0.13435 1.53814 0
M  V30 34056 H 3190.72 -2.97921 2.82407 0
M  V30 34057 H 3189.38 -2.63646 1.70732 0
M  V30 34058 H 3188.57 -2.982 4.06316 0
M  V30 34059 H 3188.18 -1.3459 3.48943 0
M  V30 34060 H 3190.47 -3.5477 5.77187 0
M  V30 34061 H 3191.41 -2.32885 6.68708 0
M  V30 34062 H 3191.82 -2.66228 4.97778 0
M  V30 34063 N 3191.22 -1.56389 -0.19503 0
M  V30 34064 C 3192.18 -1.93694 -1.22537 0
M  V30 34065 C 3193.18 -0.818064 -1.38435 0
M  V30 34066 O 3194.37 -1.08548 -1.36246 0
M  V30 34067 C 3191.5 -2.21104 -2.59472 0
M  V30 34068 H 3192.7 -2.85872 -0.906494 0
M  V30 34069 H 3190.25 -1.5008 -0.436551 0
M  V30 34070 H 3190.98 -1.31564 -2.96414 0
M  V30 34071 H 3190.77 -3.02638 -2.49304 0
M  V30 34072 H 3192.26 -2.5097 -3.33772 0
M  V30 34073 N 3192.7 0.462746 -1.50653 0
M  V30 34074 C 3193.94 1.21308 -1.63266 0
M  V30 34075 C 3194.3 1.89502 -0.332681 0
M  V30 34076 O 3193.59 1.79505 0.669962 0
M  V30 34077 C 3193.78 2.27502 -2.75641 0
M  V30 34078 C 3193.61 1.69727 -4.16441 0
M  V30 34079 C 3192.38 1.49332 -4.8273 0
M  V30 34080 C 3194.58 1.18757 -5.00401 0
M  V30 34081 N 3192.56 0.868884 -6.0772 0
M  V30 34082 C 3193.93 0.686862 -6.16184 0
M  V30 34083 C 3195.99 1.0769 -4.86114 0
M  V30 34084 C 3194.69 0.0864004 -7.19248 0
M  V30 34085 C 3196.72 0.490369 -5.89364 0
M  V30 34086 C 3196.08 8.46631e-05 -7.044 0
M  V30 34087 H 3192.18 0.432479 -0.651526 0
M  V30 34088 H 3194.76 0.513717 -1.87801 0
M  V30 34089 H 3192.93 2.94855 -2.52814 0
M  V30 34090 H 3194.67 2.94514 -2.77567 0
M  V30 34091 H 3191.42 1.74793 -4.40164 0
M  V30 34092 H 3191.84 0.574838 -6.74555 0
M  V30 34093 H 3196.49 1.44187 -3.97454 0
M  V30 34094 H 3194.2 -0.290756 -8.07577 0
M  V30 34095 H 3197.79 0.406997 -5.80375 0
M  V30 34096 H 3196.67 -0.446658 -7.82927 0
M  V30 34097 N 3194.17 1.40371 0.716495 0
M  V30 34098 C 3195.11 1.3648 1.84135 0
M  V30 34099 C 3196.12 0.270358 1.60539 0
M  V30 34100 O 3197.31 0.530641 1.7043 0
M  V30 34101 C 3194.41 1.10088 3.20521 0
M  V30 34102 C 3193.58 2.31169 3.71322 0
M  V30 34103 C 3192.64 2.00951 4.86318 0
M  V30 34104 O 3191.67 2.73808 4.99017 0
M  V30 34105 N 3192.87 0.986913 5.72049 0
M  V30 34106 H 3195.63 2.33423 1.87972 0
M  V30 34107 H 3193.19 1.34713 0.897996 0
M  V30 34108 H 3195.19 0.878596 3.95048 0
M  V30 34109 H 3193.76 0.218144 3.11838 0
M  V30 34110 H 3192.98 2.69232 2.87937 0
M  V30 34111 H 3194.26 3.1189 4.01998 0
M  V30 34112 H 3193.66 0.38348 5.64399 0
M  V30 34113 H 3192.22 0.824532 6.46564 0
M  V30 34114 N 3195.65 -0.948621 1.25853 0
M  V30 34115 C 3197.07 -1.22079 1.02805 0
M  V30 34116 C 3197.27 -1.99925 -0.251426 0
M  V30 34117 O 3196.32 -2.33434 -0.962551 0
M  V30 34118 C 3197.64 -1.98932 2.25492 0
M  V30 34119 C 3199.19 -2.11952 2.30316 0
M  V30 34120 C 3199.66 -2.92204 3.52676 0
M  V30 34121 N 3201.15 -2.99781 3.53109 0
M  V30 34122 C 3201.89 -3.62286 4.44451 0
M  V30 34123 N 3201.38 -4.26352 5.46073 0
M  V30 34124 N 3203.18 -3.59485 4.32119 0
M  V30 34125 H 3195.33 -0.428007 2.08043 0
M  V30 34126 H 3197.59 -0.251856 0.913933 0
M  V30 34127 H 3197.3 -1.49134 3.18515 0
M  V30 34128 H 3197.17 -2.9962 2.29145 0
M  V30 34129 H 3199.56 -2.60944 1.37812 0
M  V30 34130 H 3199.64 -1.10549 2.30678 0
M  V30 34131 H 3199.28 -2.43901 4.45505 0
M  V30 34132 H 3199.21 -3.93846 3.49561 0
M  V30 34133 H 3201.7 -2.54227 2.79602 0
M  V30 34134 H 3202.02 -4.71921 6.11972 0
M  V30 34135 H 3200.36 -4.24962 5.49939 0
M  V30 34136 H 3203.55 -3.08623 3.51951 0
M  V30 34137 H 3203.72 -4.07911 5.035 0
M  V30 34138 N 3197.13 -1.07536 -1.15212 0
M  V30 34139 C 3198.36 -0.820917 -1.90462 0
M  V30 34140 C 3198.78 0.620274 -1.77579 0
M  V30 34141 O 3198.14 1.43364 -1.10979 0
M  V30 34142 C 3198.19 -1.23633 -3.38744 0
M  V30 34143 O 3197.29 -0.382788 -4.1062 0
M  V30 34144 H 3196.63 -0.298911 -0.592915 0
M  V30 34145 H 3199.16 -1.43447 -1.45891 0
M  V30 34146 H 3199.17 -1.21333 -3.89541 0
M  V30 34147 H 3197.85 -2.28602 -3.47439 0
M  V30 34148 H 3196.42 -0.468439 -3.69946 0
M  V30 34149 N 3198.61 1.32084 -0.85974 0
M  V30 34150 C 3199.56 2.30697 -0.296938 0
M  V30 34151 C 3200.55 1.59072 0.582445 0
M  V30 34152 O 3201.76 1.73764 0.469683 0
M  V30 34153 H 3198.13 0.748014 -0.0773263 0
M  V30 34154 H 3200.1 2.7565 -1.14278 0
M  V30 34155 C 3198.85 3.44151 0.495485 0
M  V30 34156 H 3198.17 3.9943 -0.171899 0
M  V30 34157 H 3199.61 4.15294 0.854781 0
M  V30 34158 C 3198.07 2.91866 1.68272 0
M  V30 34159 O 3198.6 2.89782 2.78189 0
M  V30 34160 N 3196.81 2.482 1.51147 0
M  V30 34161 H 3196.36 2.50094 0.617301 0
M  V30 34162 H 3196.31 2.13571 2.30726 0
M  V30 34163 N 3200.09 0.618171 1.4497 0
M  V30 34164 C 3201.05 -0.0846336 2.29044 0
M  V30 34165 C 3202.05 -0.784896 1.40342 0
M  V30 34166 O 3203.24 -0.631451 1.62353 0
M  V30 34167 C 3200.37 -1.13022 3.21619 0
M  V30 34168 H 3201.56 0.654664 2.92667 0
M  V30 34169 H 3199.12 0.377699 1.51668 0
M  V30 34170 H 3199.85 -1.89993 2.62818 0
M  V30 34171 H 3199.64 -0.632172 3.8697 0
M  V30 34172 H 3201.13 -1.62211 3.84808 0
M  V30 34173 N 3201.56 -1.53481 0.357946 0
M  V30 34174 C 3202.47 -2.29205 -0.500233 0
M  V30 34175 C 3203.49 -1.34872 -1.09934 0
M  V30 34176 O 3204.67 -1.67923 -1.11192 0
M  V30 34177 C 3201.73 -3.06088 -1.62823 0
M  V30 34178 C 3200.79 -4.16073 -1.05744 0
M  V30 34179 C 3200.03 -4.8928 -2.13167 0
M  V30 34180 O 3200.25 -4.6228 -3.34145 0
M  V30 34181 O 3199.18 -5.75393 -1.76653 0
M  V30 34182 H 3203.01 -3.03479 0.115749 0
M  V30 34183 H 3200.59 -1.48897 0.122553 0
M  V30 34184 H 3202.48 -3.54121 -2.28421 0
M  V30 34185 H 3201.15 -2.34657 -2.22975 0
M  V30 34186 H 3200.06 -3.72309 -0.365576 0
M  V30 34187 H 3201.39 -4.89648 -0.500575 0
M  V30 34188 N 3203.04 -0.0869173 -1.5736 0
M  V30 34189 C 3204.29 0.578707 -1.94055 0
M  V30 34190 C 3204.62 1.68697 -0.968077 0
M  V30 34191 O 3203.87 1.95695 0.013748 0
M  V30 34192 C 3204.17 1.18117 -3.37318 0
M  V30 34193 C 3203.84 0.197527 -4.50467 0
M  V30 34194 C 3202.5 -0.0730366 -4.81145 0
M  V30 34195 C 3204.85 -0.474565 -5.19035 0
M  V30 34196 C 3202.18 -1.02252 -5.77721 0
M  V30 34197 C 3204.53 -1.41247 -6.1663 0
M  V30 34198 C 3203.2 -1.69135 -6.45716 0
M  V30 34199 H 3202.47 0.211764 -0.710097 0
M  V30 34200 H 3205.11 -0.161012 -1.90822 0
M  V30 34201 H 3203.42 1.99696 -3.37089 0
M  V30 34202 H 3205.11 1.70374 -3.63006 0
M  V30 34203 H 3201.7 0.418594 -4.26551 0
M  V30 34204 H 3205.89 -0.278668 -4.95517 0
M  V30 34205 H 3201.14 -1.24568 -5.98576 0
M  V30 34206 H 3205.32 -1.93912 -6.68858 0
M  V30 34207 H 3202.95 -2.42867 -7.20361 0
M  V30 34208 N 3204.52 1.5649 0.186734 0
M  V30 34209 C 3205.43 1.98421 1.25165 0
M  V30 34210 C 3206.45 0.89315 1.49328 0
M  V30 34211 O 3207.62 1.19957 1.61779 0
M  V30 34212 C 3204.69 2.32243 2.57418 0
M  V30 34213 C 3203.75 3.55099 2.41254 0
M  V30 34214 C 3202.98 3.87299 3.67199 0
M  V30 34215 O 3203.2 3.20673 4.71726 0
M  V30 34216 O 3202.14 4.80701 3.62229 0
M  V30 34217 H 3205.96 2.89245 0.925784 0
M  V30 34218 H 3203.55 1.44155 0.392395 0
M  V30 34219 H 3205.43 2.55036 3.35462 0
M  V30 34220 H 3204.11 1.44585 2.89615 0
M  V30 34221 H 3203.01 3.37543 1.61293 0
M  V30 34222 H 3204.35 4.4325 2.13986 0
M  V30 34223 N 3206 -0.45475 1.50897 0
M  V30 34224 C 3206.93 -1.56852 1.67123 0
M  V30 34225 C 3207.94 -1.53147 0.55225 0
M  V30 34226 O 3209.13 -1.58239 0.825997 0
M  V30 34227 C 3206.23 -2.95759 1.65469 0
M  V30 34228 C 3205.41 -3.24158 2.93668 0
M  V30 34229 C 3204.46 -4.42699 2.84436 0
M  V30 34230 O 3203.49 -4.42205 3.5839 0
M  V30 34231 N 3204.69 -5.45288 1.991 0
M  V30 34232 H 3207.46 -1.43344 2.63197 0
M  V30 34233 H 3205.02 -0.643431 1.48565 0
M  V30 34234 H 3207.01 -3.73054 1.56884 0
M  V30 34235 H 3205.58 -3.02952 0.770621 0
M  V30 34236 H 3204.8 -2.35322 3.16255 0
M  V30 34237 H 3206.09 -3.39951 3.78564 0
M  V30 34238 H 3205.49 -5.48519 1.38359 0
M  V30 34239 H 3204.04 -6.21504 1.96407 0
M  V30 34240 N 3207.48 -1.40749 -0.709041 0
M  V30 34241 C 3208.42 -1.41717 -1.84443 0
M  V30 34242 C 3209.42 -0.296847 -1.66779 0
M  V30 34243 O 3210.62 -0.468212 -1.73804 0
M  V30 34244 H 3207 -0.443124 -0.607573 0
M  V30 34245 H 3208.97 -2.37434 -1.80743 0
M  V30 34246 C 3207.72 -1.30306 -3.22359 0
M  V30 34247 H 3207.04 -2.15793 -3.36561 0
M  V30 34248 H 3208.48 -1.35043 -4.0192 0
M  V30 34249 C 3206.94 -0.0139608 -3.36897 0
M  V30 34250 O 3207.47 0.946484 -3.9039 0
M  V30 34251 N 3205.68 0.057698 -2.90543 0
M  V30 34252 H 3205.22 -0.724617 -2.47198 0
M  V30 34253 H 3205.18 0.919668 -3.00648 0
M  V30 34254 N 3208.96 0.941933 -1.26354 0
M  V30 34255 C 3209.89 2.05782 -1.10344 0
M  V30 34256 C 3210.87 1.70098 -0.00884555 0
M  V30 34257 O 3212.05 1.93357 -0.180733 0
M  V30 34258 C 3209.18 3.39437 -0.734848 0
M  V30 34259 C 3208.14 3.8918 -1.7811 0
M  V30 34260 C 3207.46 5.19476 -1.26684 0
M  V30 34261 C 3208.76 4.14145 -3.18247 0
M  V30 34262 H 3210.46 2.19435 -2.03688 0
M  V30 34263 H 3208 1.05442 -0.980717 0
M  V30 34264 H 3209.95 4.16966 -0.609726 0
M  V30 34265 H 3208.68 3.25759 0.234297 0
M  V30 34266 H 3207.34 3.13831 -1.89488 0
M  V30 34267 H 3206.99 5.02177 -0.28756 0
M  V30 34268 H 3206.69 5.53727 -1.96622 0
M  V30 34269 H 3208.21 5.99589 -1.15437 0
M  V30 34270 H 3209.62 4.8229 -3.0995 0
M  V30 34271 H 3208.02 4.59677 -3.85768 0
M  V30 34272 H 3209.09 3.19953 -3.6436 0
M  V30 34273 N 3210.43 1.08146 1.1464 0
M  V30 34274 C 3211.34 0.720707 2.23255 0
M  V30 34275 C 3212.36 -0.271618 1.71867 0
M  V30 34276 O 3213.54 -0.116231 2.01064 0
M  V30 34277 C 3210.6 0.132603 3.46446 0
M  V30 34278 C 3209.66 1.1792 4.12787 0
M  V30 34279 C 3208.89 0.619065 5.30097 0
M  V30 34280 O 3209.12 -0.562318 5.67621 0
M  V30 34281 O 3208.05 1.36784 5.86152 0
M  V30 34282 H 3211.88 1.62672 2.5646 0
M  V30 34283 H 3209.46 0.854953 1.22519 0
M  V30 34284 H 3211.34 -0.192696 4.20959 0
M  V30 34285 H 3210.02 -0.746607 3.14972 0
M  V30 34286 H 3208.93 1.55699 3.4016 0
M  V30 34287 H 3210.26 2.03059 4.48361 0
M  V30 34288 N 3211.91 -1.31626 0.866732 0
M  V30 34289 C 3212.86 -2.30536 0.309168 0
M  V30 34290 C 3213.85 -1.59379 -0.574 0
M  V30 34291 O 3215.06 -1.74011 -0.460461 0
M  V30 34292 H 3211.43 -0.747593 0.0812921 0
M  V30 34293 H 3213.41 -2.7504 1.15739 0
M  V30 34294 C 3212.15 -3.44409 -0.477227 0
M  V30 34295 H 3211.48 -3.99333 0.19308 0
M  V30 34296 H 3212.92 -4.15742 -0.832745 0
M  V30 34297 C 3211.38 -2.92755 -1.66722 0
M  V30 34298 O 3211.91 -2.91253 -2.76649 0
M  V30 34299 N 3210.11 -2.48998 -1.49828 0
M  V30 34300 H 3209.66 -2.50418 -0.604029 0
M  V30 34301 H 3209.62 -2.14792 -2.2959 0
M  V30 34302 N 3213.39 -0.62585 -1.4464 0
M  V30 34303 C 3214.35 0.0724857 -2.29085 0
M  V30 34304 C 3215.35 0.777443 -1.40757 0
M  V30 34305 O 3216.54 0.622832 -1.62685 0
M  V30 34306 C 3213.67 1.11314 -3.22214 0
M  V30 34307 H 3214.87 -0.670175 -2.92316 0
M  V30 34308 H 3212.42 -0.385737 -1.51465 0
M  V30 34309 H 3213.16 1.88596 -2.63822 0
M  V30 34310 H 3212.94 0.611641 -3.873 0
M  V30 34311 H 3214.43 1.60168 -3.85663 0
M  V30 34312 N 3214.87 1.53289 -0.36608 0
M  V30 34313 C 3215.8 2.23342 0.514877 0
M  V30 34314 C 3216.81 1.2477 1.04576 0
M  V30 34315 O 3218 1.5099 0.952058 0
M  V30 34316 C 3215.1 2.91791 1.72369 0
M  V30 34317 C 3214.27 4.16873 1.32422 0
M  V30 34318 C 3213.33 4.68528 2.39516 0
M  V30 34319 O 3212.36 5.32194 2.01885 0
M  V30 34320 N 3213.56 4.46385 3.71108 0
M  V30 34321 H 3216.33 2.99579 -0.0851799 0
M  V30 34322 H 3213.89 1.60766 -0.191283 0
M  V30 34323 H 3215.88 3.23256 2.43491 0
M  V30 34324 H 3214.45 2.19004 2.23061 0
M  V30 34325 H 3213.67 3.91705 0.442832 0
M  V30 34326 H 3214.96 4.9819 1.03363 0
M  V30 34327 H 3214.36 3.95515 4.04456 0
M  V30 34328 H 3212.91 4.82398 4.38332 0
M  V30 34329 N 3216.35 0.0952613 1.57312 0
M  V30 34330 C 3217.59 -0.56312 1.9545 0
M  V30 34331 C 3217.95 -1.65782 0.976426 0
M  V30 34332 O 3217.24 -1.916 0.00244901 0
M  V30 34333 C 3217.43 -1.16326 3.37939 0
M  V30 34334 C 3217.26 -0.128229 4.49517 0
M  V30 34335 C 3216.03 0.29534 5.04436 0
M  V30 34336 C 3218.23 0.643661 5.10256 0
M  V30 34337 N 3216.21 1.31863 5.99571 0
M  V30 34338 C 3217.58 1.51877 6.0111 0
M  V30 34339 C 3219.64 0.697161 4.92995 0
M  V30 34340 C 3218.34 2.44268 6.76554 0
M  V30 34341 C 3220.37 1.60867 5.69101 0
M  V30 34342 C 3219.73 2.47141 6.59622 0
M  V30 34343 H 3215.83 -0.176388 0.761847 0
M  V30 34344 H 3218.41 0.177867 1.93886 0
M  V30 34345 H 3216.58 -1.87407 3.40196 0
M  V30 34346 H 3218.32 -1.78402 3.63256 0
M  V30 34347 H 3215.07 -0.092432 4.7351 0
M  V30 34348 H 3215.49 1.82848 6.5184 0
M  V30 34349 H 3220.14 0.0443165 4.22777 0
M  V30 34350 H 3217.85 3.10577 7.46035 0
M  V30 34351 H 3221.44 1.6552 5.57758 0
M  V30 34352 H 3220.32 3.16527 7.17482 0
M  V30 34353 N 3217.82 -1.56587 -0.178432 0
M  V30 34354 C 3219.07 -1.81589 -0.896203 0
M  V30 34355 C 3219.4 -0.6712 -1.82552 0
M  V30 34356 O 3218.65 0.342012 -1.92688 0
M  V30 34357 C 3218.95 -3.12707 -1.73057 0
M  V30 34358 C 3218.62 -4.40761 -0.950799 0
M  V30 34359 C 3217.28 -4.75545 -0.735563 0
M  V30 34360 C 3219.63 -5.19637 -0.403327 0
M  V30 34361 C 3216.96 -5.86687 0.0383593 0
M  V30 34362 C 3219.31 -6.31589 0.35747 0
M  V30 34363 C 3217.98 -6.64944 0.583571 0
M  V30 34364 H 3217.25 -0.66448 -0.327944 0
M  V30 34365 H 3219.89 -1.90817 -0.161552 0
M  V30 34366 H 3218.2 -2.9879 -2.5344 0
M  V30 34367 H 3219.9 -3.29261 -2.28885 0
M  V30 34368 H 3216.49 -4.13474 -1.12859 0
M  V30 34369 H 3220.67 -4.93165 -0.556972 0
M  V30 34370 H 3215.93 -6.10992 0.223345 0
M  V30 34371 H 3220.1 -6.91916 0.788982 0
M  V30 34372 H 3217.73 -7.50905 1.18515 0
M  V30 34373 N 3219.3 0.446741 -1.51136 0
M  V30 34374 C 3220.26 1.52403 -1.7119 0
M  V30 34375 C 3221.26 1.49895 -0.582064 0
M  V30 34376 O 3222.45 1.52084 -0.849478 0
M  V30 34377 C 3219.59 2.91973 -1.75968 0
M  V30 34378 H 3220.78 1.35929 -2.67326 0
M  V30 34379 H 3218.33 0.674788 -1.40983 0
M  V30 34380 H 3219.07 3.13863 -0.81612 0
M  V30 34381 H 3218.85 2.95199 -2.5807 0
M  V30 34382 H 3220.34 3.70141 -1.93354 0
M  V30 34383 N 3220.78 1.41123 0.701567 0
M  V30 34384 C 3222.03 1.40158 1.46157 0
M  V30 34385 C 3222.35 0.00864972 1.94498 0
M  V30 34386 O 3221.61 -0.978422 1.69486 0
M  V30 34387 C 3221.91 2.34977 2.69296 0
M  V30 34388 C 3221.57 3.81944 2.39645 0
M  V30 34389 C 3220.24 4.21981 2.31269 0
M  V30 34390 C 3222.59 4.74758 2.15067 0
M  V30 34391 C 3219.92 5.5285 1.96403 0
M  V30 34392 C 3222.27 6.0594 1.81711 0
M  V30 34393 C 3220.93 6.45005 1.71826 0
M  V30 34394 H 3220.2 0.512874 0.534828 0
M  V30 34395 H 3222.85 1.73879 0.802394 0
M  V30 34396 H 3221.15 1.9449 3.40119 0
M  V30 34397 H 3222.85 2.31507 3.27423 0
M  V30 34398 H 3219.44 3.5023 2.47057 0
M  V30 34399 H 3223.63 4.44634 2.20487 0
M  V30 34400 H 3218.88 5.82005 1.87298 0
M  V30 34401 H 3223.06 6.77364 1.61711 0
M  V30 34402 H 3220.68 7.46325 1.44578 0
M  V30 34403 N 3222.26 -0.935219 1.26852 0
M  V30 34404 C 3223.19 -2.03507 1.03248 0
M  V30 34405 C 3224.17 -1.62539 -0.0447037 0
M  V30 34406 O 3225.35 -1.8824 0.0989236 0
M  V30 34407 C 3222.48 -3.3396 0.564685 0
M  V30 34408 C 3221.53 -3.93903 1.63531 0
M  V30 34409 S 3222.36 -4.27433 3.22585 0
M  V30 34410 C 3223.51 -5.60977 2.77589 0
M  V30 34411 H 3223.75 -2.23217 1.96371 0
M  V30 34412 H 3221.28 -1.07737 1.10599 0
M  V30 34413 H 3223.24 -4.09392 0.30146 0
M  V30 34414 H 3221.9 -3.12184 -0.346364 0
M  V30 34415 H 3221.09 -4.88018 1.25914 0
M  V30 34416 H 3220.69 -3.25027 1.85022 0
M  V30 34417 H 3222.99 -6.39948 2.22423 0
M  V30 34418 H 3223.93 -6.03486 3.70419 0
M  V30 34419 H 3224.34 -5.21139 2.16966 0
M  V30 34420 N 3223.74 -1.08752 -1.14065 0
M  V30 34421 C 3224.69 -0.690233 -2.17301 0
M  V30 34422 C 3225.67 0.291921 -1.5823 0
M  V30 34423 O 3226.86 0.10338 -1.76698 0
M  V30 34424 C 3223.99 -0.104896 -3.4314 0
M  V30 34425 C 3223.08 -1.11305 -4.09233 0
M  V30 34426 N 3223.47 -2.29773 -4.50597 0
M  V30 34427 C 3221.77 -0.949611 -4.35773 0
M  V30 34428 C 3222.47 -2.93848 -5.02024 0
M  V30 34429 N 3221.44 -2.2144 -4.96453 0
M  V30 34430 H 3225.25 -1.59231 -2.47028 0
M  V30 34431 H 3222.76 -0.962745 -1.30786 0
M  V30 34432 H 3224.76 0.197704 -4.16431 0
M  V30 34433 H 3223.42 0.792116 -3.1489 0
M  V30 34434 H 3224.43 -2.67407 -4.43524 0
M  V30 34435 H 3221.1 -0.106701 -4.17364 0
M  V30 34436 H 3222.49 -3.9452 -5.43878 0
M  V30 34437 N 3225.21 1.31165 -0.873701 0
M  V30 34438 C 3226.46 1.96181 -0.485531 0
M  V30 34439 C 3226.78 1.69381 0.96618 0
M  V30 34440 O 3226.05 1.01124 1.67782 0
M  V30 34441 H 3224.63 0.725834 -0.17656 0
M  V30 34442 H 3227.3 1.59904 -1.11431 0
M  V30 34443 H 3226.39 3.05333 -0.646379 0
M  V30 34444 N 3226.69 0.633512 1.44307 0
M  V30 34445 C 3227.92 0.145888 2.06084 0
M  V30 34446 C 3228.33 -1.18574 1.47434 0
M  V30 34447 O 3227.67 -1.73879 0.592605 0
M  V30 34448 C 3227.74 -0.0407216 3.59477 0
M  V30 34449 C 3227.4 1.21311 4.40605 0
M  V30 34450 C 3228.4 2.13737 4.73933 0
M  V30 34451 C 3226.08 1.4492 4.8094 0
M  V30 34452 C 3228.08 3.28078 5.46483 0
M  V30 34453 C 3225.76 2.59557 5.53239 0
M  V30 34454 C 3226.76 3.50963 5.8593 0
M  V30 34455 O 3226.45 4.63602 6.56756 0
M  V30 34456 H 3226.18 0.0780203 0.671483 0
M  V30 34457 H 3228.73 0.868691 1.86126 0
M  V30 34458 H 3226.96 -0.818695 3.77934 0
M  V30 34459 H 3228.65 -0.483202 4.03014 0
M  V30 34460 H 3229.42 1.96733 4.43307 0
M  V30 34461 H 3225.3 0.746617 4.54914 0
M  V30 34462 H 3228.84 3.99445 5.71917 0
M  V30 34463 H 3224.74 2.76504 5.8328 0
M  V30 34464 H 3225.51 4.62614 6.75226 0
M  V30 34465 N 3228.17 -1.53093 0.374204 0
M  V30 34466 C 3229.08 -2.29722 -0.475894 0
M  V30 34467 C 3230.1 -1.36031 -1.08497 0
M  V30 34468 O 3231.27 -1.69093 -1.09405 0
M  V30 34469 C 3228.34 -3.07797 -1.59567 0
M  V30 34470 C 3227.4 -4.17171 -1.01325 0
M  V30 34471 C 3226.63 -4.91514 -2.07966 0
M  V30 34472 O 3226.85 -4.65798 -3.29223 0
M  V30 34473 O 3225.79 -5.77235 -1.7054 0
M  V30 34474 H 3229.61 -3.0334 0.147931 0
M  V30 34475 H 3227.2 -1.48758 0.138338 0
M  V30 34476 H 3229.08 -3.56524 -2.24652 0
M  V30 34477 H 3227.76 -2.37008 -2.20474 0
M  V30 34478 H 3226.66 -3.72676 -0.326067 0
M  V30 34479 H 3228 -4.90151 -0.448613 0
M  V30 34480 N 3229.65 -0.103603 -1.57259 0
M  V30 34481 C 3230.9 0.558092 -1.94658 0
M  V30 34482 C 3231.22 1.6766 -0.985915 0
M  V30 34483 O 3230.48 1.95699 -0.0070089 0
M  V30 34484 C 3230.78 1.14532 -3.38551 0
M  V30 34485 C 3230.44 0.149738 -4.50651 0
M  V30 34486 C 3229.11 -0.124064 -4.8104 0
M  V30 34487 C 3231.46 -0.529589 -5.18502 0
M  V30 34488 C 3228.79 -1.08374 -5.76604 0
M  V30 34489 C 3231.14 -1.47779 -6.15097 0
M  V30 34490 C 3229.8 -1.75974 -6.43886 0
M  V30 34491 H 3229.07 0.20422 -0.712303 0
M  V30 34492 H 3231.72 -0.181242 -1.9064 0
M  V30 34493 H 3230.02 1.96109 -3.39188 0
M  V30 34494 H 3231.72 1.66514 -3.64793 0
M  V30 34495 H 3228.31 0.373329 -4.26971 0
M  V30 34496 H 3232.49 -0.331208 -4.95194 0
M  V30 34497 H 3227.75 -1.3091 -5.97221 0
M  V30 34498 H 3231.92 -2.00995 -6.66764 0
M  V30 34499 H 3229.55 -2.50494 -7.17744 0
M  V30 34500 N 3231.13 1.56679 0.170126 0
M  V30 34501 C 3232.36 1.85928 0.900793 0
M  V30 34502 C 3232.76 0.687064 1.76284 0
M  V30 34503 O 3232.11 -0.352997 1.80277 0
M  V30 34504 C 3232.17 3.09604 1.82718 0
M  V30 34505 C 3231.83 4.42434 1.14462 0
M  V30 34506 C 3232.83 5.17397 0.509507 0
M  V30 34507 C 3230.52 4.89169 1.14102 0
M  V30 34508 C 3232.51 6.37287 -0.120088 0
M  V30 34509 C 3230.2 6.08988 0.507596 0
M  V30 34510 C 3231.19 6.82891 -0.121851 0
M  V30 34511 O 3230.88 8.00438 -0.745281 0
M  V30 34512 H 3230.61 0.621004 0.267076 0
M  V30 34513 H 3233.17 2.04656 0.174704 0
M  V30 34514 H 3231.4 2.86825 2.59362 0
M  V30 34515 H 3233.09 3.2529 2.42779 0
M  V30 34516 H 3233.85 4.82371 0.504256 0
M  V30 34517 H 3229.73 4.31585 1.62035 0
M  V30 34518 H 3233.28 6.9491 -0.611994 0
M  V30 34519 H 3229.17 6.43479 0.510435 0
M  V30 34520 H 3229.94 8.15957 -0.644649 0
M  V30 34521 N 3232.6 -0.43872 1.5137 0
M  V30 34522 C 3233.54 -1.55071 1.68777 0
M  V30 34523 C 3234.55 -1.52553 0.568462 0
M  V30 34524 O 3235.74 -1.57354 0.842734 0
M  V30 34525 C 3232.84 -2.93987 1.68597 0
M  V30 34526 C 3232.01 -3.21025 2.97089 0
M  V30 34527 C 3231.07 -4.39657 2.89115 0
M  V30 34528 O 3230.1 -4.38379 3.6306 0
M  V30 34529 N 3231.3 -5.43146 2.04872 0
M  V30 34530 H 3234.06 -1.40544 2.64702 0
M  V30 34531 H 3231.62 -0.627637 1.49239 0
M  V30 34532 H 3233.62 -3.71369 1.60832 0
M  V30 34533 H 3232.19 -3.02118 0.80271 0
M  V30 34534 H 3231.41 -2.31955 3.18733 0
M  V30 34535 H 3232.69 -3.35916 3.82149 0
M  V30 34536 H 3232.09 -5.47021 1.44169 0
M  V30 34537 H 3230.65 -6.19386 2.02988 0
M  V30 34538 N 3234.08 -1.41493 -0.694073 0
M  V30 34539 C 3235.03 -1.43459 -1.80798 0
M  V30 34540 C 3236 -0.288785 -1.6357 0
M  V30 34541 O 3237.18 -0.49005 -1.84399 0
M  V30 34542 C 3234.32 -1.32399 -3.18692 0
M  V30 34543 C 3233.44 -2.56861 -3.47342 0
M  V30 34544 C 3232.57 -2.38084 -4.74857 0
M  V30 34545 C 3231.61 -3.58014 -4.9648 0
M  V30 34546 N 3230.75 -3.38298 -6.15223 0
M  V30 34547 H 3235.59 -2.3866 -1.78453 0
M  V30 34548 H 3233.13 -1.18509 -0.871434 0
M  V30 34549 H 3235.08 -1.23989 -3.9835 0
M  V30 34550 H 3233.71 -0.408056 -3.2021 0
M  V30 34551 H 3232.77 -2.75716 -2.62078 0
M  V30 34552 H 3234.08 -3.46067 -3.5922 0
M  V30 34553 H 3233.23 -2.27149 -5.62573 0
M  V30 34554 H 3231.97 -1.46337 -4.65228 0
M  V30 34555 H 3230.98 -3.69402 -4.07213 0
M  V30 34556 H 3232.2 -4.50717 -5.07968 0
M  V30 34557 H 3230.15 -2.49252 -6.06803 0
M  V30 34558 H 3230.06 -4.2108 -6.27875 0
M  V30 34559 H 3231.33 -3.31138 -7.05668 0
M  V30 34560 N 3235.56 0.928479 -1.27346 0
M  V30 34561 C 3236.81 1.67608 -1.13638 0
M  V30 34562 C 3237.14 1.91884 0.317923 0
M  V30 34563 O 3236.39 1.50659 1.24901 0
M  V30 34564 C 3236.69 3.04915 -1.86445 0
M  V30 34565 C 3236.36 3.00352 -3.36303 0
M  V30 34566 C 3235.02 2.98815 -3.77178 0
M  V30 34567 C 3237.37 2.91701 -4.31926 0
M  V30 34568 C 3234.7 2.86408 -5.12042 0
M  V30 34569 C 3237.05 2.80836 -5.66846 0
M  V30 34570 C 3235.71 2.77648 -6.07015 0
M  V30 34571 H 3234.98 0.613323 -0.415832 0
M  V30 34572 H 3237.63 1.08285 -1.57945 0
M  V30 34573 H 3235.94 3.67938 -1.34644 0
M  V30 34574 H 3237.63 3.61634 -1.73267 0
M  V30 34575 H 3234.22 3.02335 -3.03795 0
M  V30 34576 H 3238.41 2.91987 -4.01319 0
M  V30 34577 H 3233.66 2.82326 -5.42312 0
M  V30 34578 H 3237.84 2.73107 -6.40613 0
M  V30 34579 H 3235.46 2.67791 -7.11472 0
M  V30 34580 N 3237.04 1.09355 1.13486 0
M  V30 34581 C 3238.27 0.849714 1.88317 0
M  V30 34582 C 3238.68 -0.602585 1.79348 0
M  V30 34583 O 3238.02 -1.42648 1.15746 0
M  V30 34584 C 3238.08 1.2052 3.38696 0
M  V30 34585 C 3237.75 2.66226 3.71447 0
M  V30 34586 C 3238.74 3.64474 3.70749 0
M  V30 34587 C 3236.43 3.02328 4.01127 0
M  V30 34588 C 3238.42 4.96852 3.99271 0
M  V30 34589 C 3236.11 4.34897 4.2931 0
M  V30 34590 C 3237.11 5.31969 4.28367 0
M  V30 34591 O 3236.79 6.62153 4.5586 0
M  V30 34592 H 3236.53 0.305466 0.603048 0
M  V30 34593 H 3239.08 1.45887 1.4459 0
M  V30 34594 H 3237.31 0.539089 3.82924 0
M  V30 34595 H 3239 0.940621 3.94851 0
M  V30 34596 H 3239.77 3.37926 3.47895 0
M  V30 34597 H 3235.64 2.27405 4.01009 0
M  V30 34598 H 3239.19 5.72611 3.9845 0
M  V30 34599 H 3235.09 4.61189 4.51636 0
M  V30 34600 H 3235.85 6.67615 4.73532 0
M  V30 34601 N 3238.52 -1.307 0.880644 0
M  V30 34602 C 3239.75 -2.00181 0.510975 0
M  V30 34603 C 3240.16 -1.66212 -0.903884 0
M  V30 34604 O 3239.5 -0.893117 -1.60528 0
M  V30 34605 C 3239.56 -3.54443 0.600837 0
M  V30 34606 C 3239.22 -4.11917 1.97923 0
M  V30 34607 C 3240.22 -4.28233 2.94809 0
M  V30 34608 C 3237.91 -4.47397 2.28344 0
M  V30 34609 C 3239.9 -4.79235 4.20253 0
M  V30 34610 C 3237.59 -4.98099 3.54035 0
M  V30 34611 C 3238.59 -5.1397 4.49805 0
M  V30 34612 O 3238.27 -5.63579 5.73266 0
M  V30 34613 H 3238.01 -0.646814 0.196488 0
M  V30 34614 H 3240.56 -1.67656 1.18661 0
M  V30 34615 H 3238.79 -3.86475 -0.131764 0
M  V30 34616 H 3240.48 -4.05172 0.243067 0
M  V30 34617 H 3241.24 -4.01129 2.72617 0
M  V30 34618 H 3237.12 -4.34314 1.54571 0
M  V30 34619 H 3240.67 -4.91538 4.95012 0
M  V30 34620 H 3236.56 -5.24638 3.76066 0
M  V30 34621 H 3237.33 -5.81929 5.75587 0
M  V30 34622 N 3240 -0.641156 -1.43969 0
M  V30 34623 C 3241.24 -0.149664 -2.01946 0
M  V30 34624 C 3241.57 1.23209 -1.50498 0
M  V30 34625 O 3240.83 1.83377 -0.683485 0
M  V30 34626 C 3241.12 -0.0963996 -3.5727 0
M  V30 34627 C 3240.79 -1.41828 -4.28014 0
M  V30 34628 C 3239.45 -1.78029 -4.47056 0
M  V30 34629 C 3241.8 -2.29036 -4.68179 0
M  V30 34630 C 3239.13 -3.01128 -5.03526 0
M  V30 34631 C 3241.48 -3.51415 -5.26013 0
M  V30 34632 C 3240.15 -3.87828 -5.43273 0
M  V30 34633 H 3239.42 -0.054766 -0.738973 0
M  V30 34634 H 3242.07 -0.829467 -1.72604 0
M  V30 34635 H 3240.37 0.666811 -3.86084 0
M  V30 34636 H 3242.07 0.300565 -3.99872 0
M  V30 34637 H 3238.66 -1.12658 -4.13529 0
M  V30 34638 H 3242.84 -2.02361 -4.53171 0
M  V30 34639 H 3238.1 -3.29404 -5.15076 0
M  V30 34640 H 3242.27 -4.19217 -5.56084 0
M  V30 34641 H 3239.9 -4.83295 -5.86797 0
M  V30 34642 N 3241.47 1.52892 -0.382318 0
M  V30 34643 C 3242.72 2.01787 0.202397 0
M  V30 34644 C 3243.05 1.26855 1.47042 0
M  V30 34645 O 3242.33 0.367003 1.91006 0
M  V30 34646 C 3242.61 3.56921 0.477408 0
M  V30 34647 C 3242.46 4.4253 -0.805417 0
M  V30 34648 C 3243.78 4.21348 1.27099 0
M  V30 34649 H 3240.9 0.733466 0.0720869 0
M  V30 34650 H 3243.54 1.83013 -0.51051 0
M  V30 34651 H 3241.69 3.7305 1.08472 0
M  V30 34652 H 3243.37 4.38167 -1.44248 0
M  V30 34653 H 3241.61 4.09823 -1.42223 0
M  V30 34654 H 3242.28 5.49073 -0.567731 0
M  V30 34655 H 3244.76 4.09154 0.757089 0
M  V30 34656 H 3243.63 5.29887 1.43215 0
M  V30 34657 H 3243.89 3.78517 2.28424 0
M  V30 34658 N 3242.95 0.111941 1.57202 0
M  V30 34659 C 3243.88 -0.871204 2.11997 0
M  V30 34660 C 3244.9 -1.23474 1.06104 0
M  V30 34661 O 3246.09 -1.18491 1.33499 0
M  V30 34662 C 3243.19 -2.17524 2.59878 0
M  V30 34663 C 3242.36 -1.98448 3.89791 0
M  V30 34664 C 3241.42 -3.12516 4.23344 0
M  V30 34665 O 3240.44 -2.85739 4.92282 0
M  V30 34666 N 3241.65 -4.38756 3.80097 0
M  V30 34667 H 3244.41 -0.403105 2.96977 0
M  V30 34668 H 3241.97 -0.0726874 1.61737 0
M  V30 34669 H 3243.96 -2.92815 2.79359 0
M  V30 34670 H 3242.53 -2.55704 1.79817 0
M  V30 34671 H 3241.75 -1.0739 3.7929 0
M  V30 34672 H 3243.04 -1.82999 4.74751 0
M  V30 34673 H 3242.44 -4.63388 3.24481 0
M  V30 34674 H 3241 -5.10942 4.047 0
M  V30 34675 N 3244.43 -1.56767 -0.161814 0
M  V30 34676 C 3245.65 -1.87035 -0.896241 0
M  V30 34677 C 3246.08 -0.699345 -1.74616 0
M  V30 34678 O 3245.44 0.351404 -1.77862 0
M  V30 34679 C 3245.49 -3.15787 -1.741 0
M  V30 34680 O 3244.59 -2.98679 -2.84367 0
M  V30 34681 H 3243.93 -0.61493 -0.250513 0
M  V30 34682 H 3246.46 -2.03996 -0.157091 0
M  V30 34683 H 3246.47 -3.47434 -2.13901 0
M  V30 34684 H 3245.15 -4.00626 -1.11677 0
M  V30 34685 H 3243.72 -2.78408 -2.48079 0
M  V30 34686 N 3245.91 0.430686 -1.51601 0
M  V30 34687 C 3247.15 1.18896 -1.66262 0
M  V30 34688 C 3247.51 1.88324 -0.37391 0
M  V30 34689 O 3248.71 2.65862 -0.396366 0
M  V30 34690 C 3246.98 2.17373 -2.83697 0
M  V30 34691 S 3248.54 3.01598 -3.18723 0
M  V30 34692 H 3245.36 0.403102 -0.585688 0
M  V30 34693 H 3247.96 0.479504 -1.89528 0
M  V30 34694 H 3246.67 1.65018 -3.75762 0
M  V30 34695 H 3246.2 2.9289 -2.62639 0
M  V30 34696 H 3248.21 4.19086 -2.65672 0
M  V30 34697 N 3247.39 1.4186 0.686559 0
M  V30 34698 C 3248.32 1.47196 1.81261 0
M  V30 34699 C 3249.3 0.329686 1.66874 0
M  V30 34700 O 3250.48 0.54238 1.86472 0
M  V30 34701 C 3247.61 1.36221 3.1947 0
M  V30 34702 C 3246.57 2.48353 3.48575 0
M  V30 34703 C 3245.89 2.22441 4.86235 0
M  V30 34704 C 3247.19 3.90684 3.46646 0
M  V30 34705 H 3248.89 2.41439 1.77053 0
M  V30 34706 H 3246.43 1.16208 0.850395 0
M  V30 34707 H 3248.38 1.38565 3.97967 0
M  V30 34708 H 3247.11 0.384668 3.24327 0
M  V30 34709 H 3245.77 2.45307 2.72433 0
M  V30 34710 H 3245.42 1.23008 4.87727 0
M  V30 34711 H 3245.12 2.97585 5.06672 0
M  V30 34712 H 3246.64 2.26514 5.6703 0
M  V30 34713 H 3248.05 3.95396 4.15132 0
M  V30 34714 H 3246.45 4.65585 3.78617 0
M  V30 34715 H 3247.52 4.18193 2.45444 0
M  V30 34716 N 3248.86 -0.921712 1.27837 0
M  V30 34717 C 3249.77 -2.05643 1.12907 0
M  V30 34718 C 3250.79 -1.73905 0.0576009 0
M  V30 34719 O 3251.97 -1.99645 0.265296 0
M  V30 34720 C 3249.03 -3.37719 0.784017 0
M  V30 34721 C 3248.09 -3.83117 1.937 0
M  V30 34722 C 3247.32 -5.0889 1.60831 0
M  V30 34723 O 3247.55 -5.68034 0.518973 0
M  V30 34724 O 3246.48 -5.49806 2.44942 0
M  V30 34725 H 3250.31 -2.21153 2.08147 0
M  V30 34726 H 3247.89 -1.04183 1.0708 0
M  V30 34727 H 3249.77 -4.17032 0.60518 0
M  V30 34728 H 3248.45 -3.23402 -0.138792 0
M  V30 34729 H 3247.36 -3.04665 2.17094 0
M  V30 34730 H 3248.69 -4.01985 2.84023 0
M  V30 34731 N 3250.34 -1.09956 -1.12905 0
M  V30 34732 C 3251.29 -0.743886 -2.18483 0
M  V30 34733 C 3252.26 0.277465 -1.63766 0
M  V30 34734 O 3253.44 0.157866 -1.90146 0
M  V30 34735 C 3250.58 -0.176498 -3.44648 0
M  V30 34736 C 3249.7 -1.25255 -4.13443 0
M  V30 34737 C 3248.83 -0.647335 -5.27241 0
M  V30 34738 C 3247.87 -1.70431 -5.87894 0
M  V30 34739 N 3247.01 -1.11973 -6.93114 0
M  V30 34740 H 3251.85 -1.64845 -2.48254 0
M  V30 34741 H 3249.38 -0.823493 -1.21889 0
M  V30 34742 H 3251.34 0.170311 -4.16852 0
M  V30 34743 H 3249.97 0.691314 -3.1531 0
M  V30 34744 H 3249.02 -1.71656 -3.39468 0
M  V30 34745 H 3250.34 -2.05287 -4.54597 0
M  V30 34746 H 3249.49 -0.249686 -6.06186 0
M  V30 34747 H 3248.23 0.184471 -4.87351 0
M  V30 34748 H 3247.23 -2.11144 -5.0764 0
M  V30 34749 H 3248.46 -2.53888 -6.29855 0
M  V30 34750 H 3246.41 -0.309297 -6.5527 0
M  V30 34751 H 3246.32 -1.85694 -7.3284 0
M  V30 34752 H 3247.59 -0.748462 -7.75898 0
M  V30 34753 N 3251.82 1.30231 -0.887563 0
M  V30 34754 C 3252.73 2.31816 -0.360374 0
M  V30 34755 C 3253.75 1.65451 0.538712 0
M  V30 34756 O 3254.92 1.9673 0.431211 0
M  V30 34757 C 3251.99 3.44216 0.414276 0
M  V30 34758 C 3251.05 4.26201 -0.514874 0
M  V30 34759 C 3250.28 5.33234 0.222901 0
M  V30 34760 O 3250.5 5.51699 1.44862 0
M  V30 34761 O 3249.44 6.00374 -0.428327 0
M  V30 34762 H 3253.26 2.78865 -1.20284 0
M  V30 34763 H 3250.85 1.34447 -0.651483 0
M  V30 34764 H 3252.73 4.12681 0.852787 0
M  V30 34765 H 3251.41 2.99297 1.233 0
M  V30 34766 H 3250.31 3.60424 -1.00225 0
M  V30 34767 H 3251.65 4.74731 -1.29967 0
M  V30 34768 N 3253.3 0.648782 1.43627 0
M  V30 34769 C 3254.23 -0.0951797 2.28001 0
M  V30 34770 C 3255.21 -0.834201 1.3957 0
M  V30 34771 O 3256.39 -0.834681 1.69013 0
M  V30 34772 C 3253.52 -1.14139 3.18889 0
M  V30 34773 C 3252.57 -0.500921 4.23548 0
M  V30 34774 S 3253.4 0.722212 5.30608 0
M  V30 34775 C 3254.56 -0.323577 6.25063 0
M  V30 34776 H 3254.79 0.620563 2.90751 0
M  V30 34777 H 3252.32 0.437483 1.48072 0
M  V30 34778 H 3254.28 -1.74001 3.71798 0
M  V30 34779 H 3252.94 -1.82943 2.55325 0
M  V30 34780 H 3252.13 -1.28946 4.87226 0
M  V30 34781 H 3251.74 0.0234834 3.73993 0
M  V30 34782 H 3254.03 -1.19106 6.66948 0
M  V30 34783 H 3254.97 0.278063 7.07554 0
M  V30 34784 H 3255.38 -0.657395 5.60659 0
M  V30 34785 N 3254.78 -1.52688 0.390421 0
M  V30 34786 C 3256.03 -2.00778 -0.192661 0
M  V30 34787 C 3256.34 -1.2811 -1.47808 0
M  V30 34788 O 3257.54 -1.66918 -2.14128 0
M  V30 34789 C 3256 -3.57738 -0.393892 0
M  V30 34790 C 3255.61 -4.39305 0.878336 0
M  V30 34791 C 3257.35 -4.14114 -0.93328 0
M  V30 34792 C 3255.26 -5.87869 0.645322 0
M  V30 34793 H 3254.19 -0.750183 -0.075773 0
M  V30 34794 H 3256.84 -1.76184 0.512992 0
M  V30 34795 H 3255.22 -3.78586 -1.16142 0
M  V30 34796 H 3256.4 -4.30224 1.65057 0
M  V30 34797 H 3254.71 -3.94156 1.34276 0
M  V30 34798 H 3257.31 -5.22767 -1.12334 0
M  V30 34799 H 3257.65 -3.70276 -1.90266 0
M  V30 34800 H 3258.18 -3.97162 -0.225291 0
M  V30 34801 H 3254.92 -6.36031 1.58573 0
M  V30 34802 H 3254.44 -5.99736 -0.0879555 0
M  V30 34803 H 3256.12 -6.46393 0.280292 0
M  V30 34804 N 3256.25 -0.120276 -1.5714 0
M  V30 34805 C 3257.16 0.843116 -2.18926 0
M  V30 34806 C 3258.18 1.29173 -1.16577 0
M  V30 34807 O 3259.36 1.35445 -1.49052 0
M  V30 34808 C 3256.42 2.07495 -2.77753 0
M  V30 34809 C 3255.48 1.67813 -3.95142 0
M  V30 34810 C 3254.72 2.85124 -4.51154 0
M  V30 34811 O 3254.94 4.00586 -4.06063 0
M  V30 34812 O 3253.87 2.62135 -5.4182 0
M  V30 34813 H 3257.7 0.347304 -3.01708 0
M  V30 34814 H 3255.28 0.105401 -1.49028 0
M  V30 34815 H 3257.17 2.79637 -3.15248 0
M  V30 34816 H 3255.84 2.5608 -1.98002 0
M  V30 34817 H 3254.75 0.927743 -3.62414 0
M  V30 34818 H 3256.08 1.23969 -4.76332 0
M  V30 34819 N 3257.73 1.56851 0.153498 0
M  V30 34820 C 3258.96 1.86873 0.881023 0
M  V30 34821 C 3259.37 0.705723 1.75545 0
M  V30 34822 O 3258.71 -0.333856 1.80641 0
M  V30 34823 C 3258.78 3.11524 1.79424 0
M  V30 34824 C 3258.44 4.43623 1.09763 0
M  V30 34825 C 3259.44 5.17909 0.454602 0
M  V30 34826 C 3257.12 4.90351 1.08907 0
M  V30 34827 C 3259.12 6.37124 -0.187674 0
M  V30 34828 C 3256.8 6.09492 0.442976 0
M  V30 34829 C 3257.8 6.82724 -0.194274 0
M  V30 34830 O 3257.49 7.99602 -0.830136 0
M  V30 34831 H 3257.22 0.623802 0.260475 0
M  V30 34832 H 3259.77 2.04829 0.152988 0
M  V30 34833 H 3258 2.8956 2.56305 0
M  V30 34834 H 3259.69 3.27846 2.39315 0
M  V30 34835 H 3260.46 4.82879 0.453066 0
M  V30 34836 H 3256.34 4.33279 1.57449 0
M  V30 34837 H 3259.88 6.94222 -0.685664 0
M  V30 34838 H 3255.78 6.43984 0.442157 0
M  V30 34839 H 3256.55 8.15228 -0.731156 0
M  V30 34840 N 3259.21 -0.42264 1.51827 0
M  V30 34841 C 3260.63 -0.76025 1.40329 0
M  V30 34842 C 3260.83 -1.95271 0.497153 0
M  V30 34843 O 3259.88 -2.52465 -0.0421639 0
M  V30 34844 C 3261.2 -1.02684 2.82624 0
M  V30 34845 C 3262.74 -1.13038 2.91876 0
M  V30 34846 C 3263.22 -1.42982 4.35109 0
M  V30 34847 N 3264.71 -1.49876 4.38282 0
M  V30 34848 C 3265.44 -1.74645 5.46156 0
M  V30 34849 N 3264.94 -1.97109 6.64169 0
M  V30 34850 N 3266.73 -1.76549 5.33654 0
M  V30 34851 H 3258.88 0.362492 2.09284 0
M  V30 34852 H 3261.15 0.0998326 0.942729 0
M  V30 34853 H 3260.85 -0.223164 3.50991 0
M  V30 34854 H 3260.73 -1.95062 3.22848 0
M  V30 34855 H 3263.11 -1.92467 2.23697 0
M  V30 34856 H 3263.2 -0.185282 2.55128 0
M  V30 34857 H 3262.84 -0.64076 5.03842 0
M  V30 34858 H 3262.77 -2.38723 4.69382 0
M  V30 34859 H 3265.26 -1.3436 3.53208 0
M  V30 34860 H 3265.57 -2.15421 7.42168 0
M  V30 34861 H 3263.92 -1.94401 6.67258 0
M  V30 34862 H 3267.11 -1.58528 4.40439 0
M  V30 34863 H 3267.28 -1.95514 6.17801 0
M  V30 34864 N 3260.69 -1.42222 -0.679027 0
M  V30 34865 C 3261.62 -1.48155 -1.80478 0
M  V30 34866 C 3262.6 -0.338532 -1.66697 0
M  V30 34867 O 3263.78 -0.552261 -1.86182 0
M  V30 34868 C 3260.91 -1.37914 -3.18743 0
M  V30 34869 C 3259.87 -2.50198 -3.47253 0
M  V30 34870 C 3259.19 -2.25016 -4.85048 0
M  V30 34871 C 3260.49 -3.92517 -3.44569 0
M  V30 34872 H 3262.19 -2.42374 -1.7577 0
M  V30 34873 H 3259.73 -1.16657 -0.84422 0
M  V30 34874 H 3261.69 -1.40673 -3.97227 0
M  V30 34875 H 3260.41 -0.401863 -3.24118 0
M  V30 34876 H 3259.07 -2.46749 -2.71128 0
M  V30 34877 H 3258.72 -1.25593 -4.87068 0
M  V30 34878 H 3258.42 -3.00268 -5.05087 0
M  V30 34879 H 3259.94 -2.29518 -5.65821 0
M  V30 34880 H 3261.36 -3.97592 -4.13029 0
M  V30 34881 H 3259.75 -4.67586 -3.76143 0
M  V30 34882 H 3260.82 -4.19489 -2.43223 0
M  V30 34883 N 3262.17 0.91492 -1.28324 0
M  V30 34884 C 3263.11 2.0172 -1.1215 0
M  V30 34885 C 3264.08 1.66089 -0.0189571 0
M  V30 34886 O 3265.27 1.89914 -0.183672 0
M  V30 34887 C 3262.41 3.3598 -0.788139 0
M  V30 34888 C 3261.52 3.84487 -1.9696 0
M  V30 34889 C 3260.66 5.07252 -1.57697 0
M  V30 34890 C 3259.7 5.48089 -2.72516 0
M  V30 34891 N 3258.83 6.62045 -2.33753 0
M  V30 34892 H 3263.67 2.14887 -2.06465 0
M  V30 34893 H 3261.21 1.05255 -1.02761 0
M  V30 34894 H 3263.17 4.1321 -0.575618 0
M  V30 34895 H 3261.8 3.22584 0.118076 0
M  V30 34896 H 3260.85 3.03425 -2.29429 0
M  V30 34897 H 3262.16 4.10714 -2.83047 0
M  V30 34898 H 3261.32 5.92022 -1.32645 0
M  V30 34899 H 3260.05 4.82832 -0.687376 0
M  V30 34900 H 3259.06 4.61862 -2.98268 0
M  V30 34901 H 3260.28 5.74499 -3.62116 0
M  V30 34902 H 3258.23 6.39257 -1.47261 0
M  V30 34903 H 3258.15 6.87991 -3.13376 0
M  V30 34904 H 3259.42 7.50123 -2.11981 0
M  V30 34905 N 3263.64 1.10553 1.1232 0
M  V30 34906 C 3264.87 0.871126 1.88218 0
M  V30 34907 C 3265.29 -0.572974 1.79161 0
M  V30 34908 O 3264.65 -1.40372 1.14741 0
M  V30 34909 C 3264.7 1.32571 3.35347 0
M  V30 34910 O 3263.8 0.491522 4.0946 0
M  V30 34911 H 3263.15 0.314526 0.584781 0
M  V30 34912 H 3265.68 1.47265 1.42036 0
M  V30 34913 H 3265.69 1.31619 3.86187 0
M  V30 34914 H 3264.36 2.37734 3.41256 0
M  V30 34915 H 3262.94 0.566359 3.68574 0
M  V30 34916 N 3265.12 -1.29758 0.894457 0
M  V30 34917 C 3266.35 -1.99628 0.532178 0
M  V30 34918 C 3266.76 -1.67162 -0.886205 0
M  V30 34919 O 3266.1 -0.910093 -1.59571 0
M  V30 34920 C 3266.17 -3.53786 0.638397 0
M  V30 34921 C 3265.83 -4.09795 2.0228 0
M  V30 34922 C 3266.83 -4.25082 2.99334 0
M  V30 34923 C 3264.51 -4.4495 2.33076 0
M  V30 34924 C 3266.51 -4.74751 4.25312 0
M  V30 34925 C 3264.19 -4.94316 3.59298 0
M  V30 34926 C 3265.19 -5.0917 4.55231 0
M  V30 34927 O 3264.88 -5.57467 5.79212 0
M  V30 34928 H 3264.61 -0.644694 0.203337 0
M  V30 34929 H 3267.16 -1.66388 1.20433 0
M  V30 34930 H 3265.39 -3.86593 -0.0907658 0
M  V30 34931 H 3267.08 -4.04891 0.286028 0
M  V30 34932 H 3267.85 -3.98215 2.76856 0
M  V30 34933 H 3263.73 -4.3265 1.59169 0
M  V30 34934 H 3267.27 -4.8626 5.00197 0
M  V30 34935 H 3263.17 -5.20619 3.81609 0
M  V30 34936 H 3263.94 -5.75792 5.81727 0
M  V30 34937 N 3266.6 -0.65639 -1.4328 0
M  V30 34938 C 3267.88 -0.10085 -1.9534 0
M  V30 34939 C 3268.26 1.37989 -1.59757 0
M  V30 34940 O 3267.61 2.10695 -0.884301 0
M  V30 34941 C 3267.82 -0.350441 -3.47236 0
M  V30 34942 C 3269.16 -0.257075 -4.23821 0
M  V30 34943 O 3270.19 -0.283173 -3.55073 0
M  V30 34944 O 3269.05 -0.183493 -5.46192 0
M  V30 34945 H 3266.14 0.00778834 -0.826963 0
M  V30 34946 H 3268.69 -0.729847 -1.53204 0
M  V30 34947 H 3267.46 -1.37692 -3.66274 0
M  V30 34948 H 3267.08 0.311469 -3.96378 0
M  V30 34949 N 3268.08 1.52478 -0.398513 0
M  V30 34950 C 3269.33 2.02659 0.173414 0
M  V30 34951 C 3269.68 1.27938 1.437 0
M  V30 34952 O 3268.97 0.373954 1.87915 0
M  V30 34953 C 3269.17 3.54082 0.485847 0
M  V30 34954 C 3269 4.43471 -0.74591 0
M  V30 34955 C 3267.77 4.89133 -1.26794 0
M  V30 34956 C 3269.96 4.88088 -1.62093 0
M  V30 34957 N 3267.95 5.62619 -2.45629 0
M  V30 34958 C 3269.32 5.60247 -2.65562 0
M  V30 34959 C 3271.37 4.70117 -1.63994 0
M  V30 34960 C 3270.08 6.16343 -3.70828 0
M  V30 34961 C 3272.1 5.27102 -2.68174 0
M  V30 34962 C 3271.46 5.99175 -3.70363 0
M  V30 34963 H 3267.56 0.781591 0.0253022 0
M  V30 34964 H 3270.15 1.86756 -0.550474 0
M  V30 34965 H 3268.32 3.7008 1.17879 0
M  V30 34966 H 3270.05 3.90956 1.04573 0
M  V30 34967 H 3266.8 4.66314 -0.827554 0
M  V30 34968 H 3267.23 6.04009 -3.05782 0
M  V30 34969 H 3271.87 4.13892 -0.863325 0
M  V30 34970 H 3269.59 6.71646 -4.49353 0
M  V30 34971 H 3273.17 5.15073 -2.70539 0
M  V30 34972 H 3272.05 6.42481 -4.49653 0
M  V30 34973 N 3269.56 0.128608 1.57074 0
M  V30 34974 C 3270.8 -0.521536 1.966 0
M  V30 34975 C 3271.16 -1.63674 1.01137 0
M  V30 34976 O 3270.45 -1.91552 0.0430896 0
M  V30 34977 C 3270.65 -1.09132 3.40331 0
M  V30 34978 C 3270.47 -0.0328506 4.49688 0
M  V30 34979 C 3269.24 0.402272 5.03696 0
M  V30 34980 C 3271.44 0.751749 5.08776 0
M  V30 34981 N 3269.42 1.44551 5.96639 0
M  V30 34982 C 3270.8 1.64594 5.97753 0
M  V30 34983 C 3272.85 0.801575 4.91405 0
M  V30 34984 C 3271.55 2.58563 6.71221 0
M  V30 34985 C 3273.58 1.72902 5.65561 0
M  V30 34986 C 3272.94 2.61077 6.54231 0
M  V30 34987 H 3269.04 -0.160189 0.765417 0
M  V30 34988 H 3271.62 0.218953 1.93465 0
M  V30 34989 H 3269.8 -1.80149 3.44094 0
M  V30 34990 H 3271.53 -1.70657 3.66958 0
M  V30 34991 H 3268.28 0.00802721 4.73599 0
M  V30 34992 H 3268.71 1.96633 6.47815 0
M  V30 34993 H 3273.35 0.133984 4.22588 0
M  V30 34994 H 3271.07 3.26332 7.39279 0
M  V30 34995 H 3274.65 1.77314 5.54122 0
M  V30 34996 H 3273.53 3.31675 7.10606 0
M  V30 34997 N 3271.04 -1.5693 -0.145178 0
M  V30 34998 C 3272.45 -1.51636 -0.497878 0
M  V30 34999 C 3272.65 -0.837334 -1.83278 0
M  V30 35000 O 3271.71 -0.408628 -2.49172 0
M  V30 35001 C 3273.02 -2.96403 -0.506505 0
M  V30 35002 C 3274.57 -3.07353 -0.591893 0
M  V30 35003 C 3275.04 -4.5363 -0.631164 0
M  V30 35004 N 3276.53 -4.57982 -0.693337 0
M  V30 35005 C 3277.27 -5.68543 -0.744736 0
M  V30 35006 N 3276.77 -6.8867 -0.755371 0
M  V30 35007 N 3278.56 -5.56581 -0.785756 0
M  V30 35008 H 3270.71 -1.99468 0.729814 0
M  V30 35009 H 3272.97 -0.909826 0.266311 0
M  V30 35010 H 3272.68 -3.49347 0.406189 0
M  V30 35011 H 3272.55 -3.52453 -1.34377 0
M  V30 35012 H 3274.94 -2.54428 -1.49501 0
M  V30 35013 H 3275.02 -2.54344 0.272551 0
M  V30 35014 H 3274.66 -5.07193 0.267799 0
M  V30 35015 H 3274.59 -5.04423 -1.51212 0
M  V30 35016 H 3277.09 -3.71504 -0.692343 0
M  V30 35017 H 3277.4 -7.68685 -0.796489 0
M  V30 35018 H 3275.74 -6.91227 -0.723217 0
M  V30 35019 H 3278.93 -4.61646 -0.774631 0
M  V30 35020 H 3279.11 -6.42761 -0.822348 0
M  V30 35021 N 3272.51 0.414582 -1.52049 0
M  V30 35022 C 3273.45 1.52552 -1.69715 0
M  V30 35023 C 3274.42 1.53205 -0.544708 0
M  V30 35024 O 3275.61 1.71994 -0.771388 0
M  V30 35025 C 3272.74 2.91096 -1.7315 0
M  V30 35026 C 3271.78 3.08376 -2.94629 0
M  V30 35027 S 3272.61 2.82266 -4.55067 0
M  V30 35028 C 3273.77 4.23049 -4.61281 0
M  V30 35029 H 3274 1.37338 -2.63677 0
M  V30 35030 H 3271.54 0.605799 -1.42019 0
M  V30 35031 H 3273.49 3.70944 -1.75815 0
M  V30 35032 H 3272.16 3.03656 -0.803252 0
M  V30 35033 H 3271.35 4.09725 -2.93499 0
M  V30 35034 H 3270.95 2.36386 -2.89824 0
M  V30 35035 H 3273.24 5.16604 -4.38322 0
M  V30 35036 H 3274.19 4.29204 -5.63196 0
M  V30 35037 H 3274.59 4.07766 -3.90368 0
M  V30 35038 N 3273.99 1.4258 0.671475 0
M  V30 35039 C 3275.41 1.25579 0.984997 0
M  V30 35040 C 3275.61 0.162354 2.00845 0
M  V30 35041 O 3274.66 -0.465308 2.48176 0
M  V30 35042 C 3275.98 2.6138 1.48664 0
M  V30 35043 C 3277.52 2.68762 1.60424 0
M  V30 35044 C 3278 4.04938 2.13984 0
M  V30 35045 N 3279.49 4.06909 2.21312 0
M  V30 35046 C 3280.23 5.09096 2.63836 0
M  V30 35047 N 3279.72 6.21663 3.05788 0
M  V30 35048 N 3281.51 4.96452 2.63614 0
M  V30 35049 H 3273.67 2.12399 -0.00608295 0
M  V30 35050 H 3275.93 0.946111 0.0598133 0
M  V30 35051 H 3275.63 3.42266 0.80911 0
M  V30 35052 H 3275.51 2.85528 2.46482 0
M  V30 35053 H 3277.9 1.8822 2.27283 0
M  V30 35054 H 3277.98 2.48399 0.610866 0
M  V30 35055 H 3277.62 4.8594 1.47733 0
M  V30 35056 H 3277.55 4.22655 3.14118 0
M  V30 35057 H 3280.04 3.25646 1.91737 0
M  V30 35058 H 3280.35 6.95483 3.36932 0
M  V30 35059 H 3278.7 6.25164 3.03637 0
M  V30 35060 H 3281.89 4.07583 2.30204 0
M  V30 35061 H 3282.06 5.76221 2.96434 0
M  V30 35062 N 3275.47 -0.908102 1.28807 0
M  V30 35063 C 3276.72 -1.65779 1.1629 0
M  V30 35064 C 3277.04 -1.92366 -0.287356 0
M  V30 35065 O 3276.3 -1.52627 -1.22488 0
M  V30 35066 C 3276.6 -3.0191 1.91272 0
M  V30 35067 C 3276.26 -2.94964 3.41039 0
M  V30 35068 C 3274.93 -2.92776 3.81884 0
M  V30 35069 C 3277.28 -2.84792 4.36512 0
M  V30 35070 C 3274.61 -2.78226 5.16534 0
M  V30 35071 C 3276.96 -2.71782 5.71242 0
M  V30 35072 C 3275.62 -2.67956 6.11356 0
M  V30 35073 H 3274.89 -0.60663 0.425537 0
M  V30 35074 H 3277.54 -1.05759 1.59647 0
M  V30 35075 H 3275.84 -3.65749 1.40481 0
M  V30 35076 H 3277.54 -3.58832 1.78999 0
M  V30 35077 H 3274.13 -2.97464 3.08566 0
M  V30 35078 H 3278.32 -2.85566 4.05914 0
M  V30 35079 H 3273.57 -2.73663 5.46735 0
M  V30 35080 H 3277.75 -2.62881 6.44877 0
M  V30 35081 H 3275.37 -2.56439 7.15642 0
M  V30 35082 N 3276.95 -1.11147 -1.11732 0
M  V30 35083 C 3278.18 -0.879566 -1.86942 0
M  V30 35084 C 3278.59 0.573976 -1.80284 0
M  V30 35085 O 3277.93 1.40789 -1.18001 0
M  V30 35086 C 3277.99 -1.25893 -3.36736 0
M  V30 35087 C 3277.65 -2.72101 -3.67165 0
M  V30 35088 C 3278.65 -3.70326 -3.64904 0
M  V30 35089 C 3276.34 -3.08672 -3.96266 0
M  V30 35090 C 3278.33 -5.03141 -3.91316 0
M  V30 35091 C 3276.02 -4.41672 -4.22337 0
M  V30 35092 C 3277.02 -5.38716 -4.1985 0
M  V30 35093 O 3276.7 -6.69322 -4.45268 0
M  V30 35094 H 3276.44 -0.315021 -0.598112 0
M  V30 35095 H 3278.99 -1.48169 -1.42251 0
M  V30 35096 H 3277.22 -0.599941 -3.82018 0
M  V30 35097 H 3278.91 -1.00332 -3.93304 0
M  V30 35098 H 3279.67 -3.43418 -3.42475 0
M  V30 35099 H 3275.55 -2.33756 -3.9734 0
M  V30 35100 H 3279.1 -5.78878 -3.8929 0
M  V30 35101 H 3274.99 -4.68316 -4.44242 0
M  V30 35102 H 3275.76 -6.75064 -4.62851 0
M  V30 35103 N 3278.43 1.29282 -0.901326 0
M  V30 35104 C 3279.7 1.90412 -0.447503 0
M  V30 35105 C 3280.08 1.81799 1.07295 0
M  V30 35106 O 3279.43 1.24578 1.91553 0
M  V30 35107 C 3279.64 3.35425 -0.963908 0
M  V30 35108 C 3280.99 4.12447 -1.00858 0
M  V30 35109 O 3282.01 3.44335 -0.91169 0
M  V30 35110 O 3280.87 5.34169 -1.15435 0
M  V30 35111 H 3277.97 0.815102 -0.139775 0
M  V30 35112 H 3280.51 1.37737 -0.991298 0
M  V30 35113 H 3279.28 3.35857 -2.00788 0
M  V30 35114 H 3278.91 3.95581 -0.400218 0
M  V30 35115 N 3279.9 0.663979 1.4293 0
M  V30 35116 C 3280.84 -0.0598475 2.29122 0
M  V30 35117 C 3281.85 -0.776379 1.43095 0
M  V30 35118 O 3283.04 -0.63234 1.66924 0
M  V30 35119 C 3280.14 -1.10816 3.2027 0
M  V30 35120 C 3279.31 -0.467623 4.34893 0
M  V30 35121 C 3278.37 -1.41426 5.06838 0
M  V30 35122 O 3277.4 -0.918719 5.61737 0
M  V30 35123 N 3278.6 -2.74792 5.11341 0
M  V30 35124 H 3281.36 0.679996 2.91884 0
M  V30 35125 H 3278.92 0.50757 1.53738 0
M  V30 35126 H 3280.92 -1.74248 3.65267 0
M  V30 35127 H 3279.49 -1.74986 2.59034 0
M  V30 35128 H 3278.71 0.345999 3.92679 0
M  V30 35129 H 3279.99 -0.0209343 5.08796 0
M  V30 35130 H 3279.39 -3.17602 4.6813 0
M  V30 35131 H 3277.95 -3.33499 5.60019 0
M  V30 35132 N 3281.38 -1.52265 0.406593 0
M  V30 35133 C 3282.62 -2.03695 -0.169576 0
M  V30 35134 C 3282.99 -1.28573 -1.42594 0
M  V30 35135 O 3284.19 -1.70216 -2.08038 0
M  V30 35136 C 3282.46 -3.54996 -0.413861 0
M  V30 35137 S 3284.02 -4.28218 -0.95784 0
M  V30 35138 H 3280.83 -0.709496 -0.0462237 0
M  V30 35139 H 3283.44 -1.8734 0.558928 0
M  V30 35140 H 3282.14 -4.07252 0.507356 0
M  V30 35141 H 3281.67 -3.75589 -1.17031 0
M  V30 35142 H 3283.69 -4.42832 -2.23863 0
M  V30 35143 N 3282.86 -0.136936 -1.57004 0
M  V30 35144 C 3284.11 0.516677 -1.95798 0
M  V30 35145 C 3284.44 1.65531 -1.02126 0
M  V30 35146 O 3283.69 1.9564 -0.0485179 0
M  V30 35147 C 3283.99 1.07325 -3.40905 0
M  V30 35148 C 3283.66 0.0541148 -4.50868 0
M  V30 35149 C 3282.32 -0.226072 -4.80669 0
M  V30 35150 C 3284.67 -0.639451 -5.17262 0
M  V30 35151 C 3282 -1.2058 -5.74175 0
M  V30 35152 C 3284.35 -1.60793 -6.11824 0
M  V30 35153 C 3283.01 -1.89592 -6.40009 0
M  V30 35154 H 3282.28 0.189065 -0.716474 0
M  V30 35155 H 3284.93 -0.221639 -1.90213 0
M  V30 35156 H 3283.24 1.8887 -3.43271 0
M  V30 35157 H 3284.93 1.58739 -3.68243 0
M  V30 35158 H 3281.52 0.282678 -4.27667 0
M  V30 35159 H 3285.71 -0.436172 -4.9438 0
M  V30 35160 H 3280.96 -1.43548 -5.9431 0
M  V30 35161 H 3285.14 -2.15093 -6.6235 0
M  V30 35162 H 3282.76 -2.65662 -7.12269 0
M  V30 35163 N 3284.34 1.57005 0.136853 0
M  V30 35164 C 3285.59 1.8309 0.846225 0
M  V30 35165 C 3285.9 0.719797 1.81874 0
M  V30 35166 O 3287.11 0.86654 2.573 0
M  V30 35167 C 3285.56 3.24548 1.55553 0
M  V30 35168 C 3285.17 4.4362 0.624911 0
M  V30 35169 C 3286.91 3.59897 2.25109 0
M  V30 35170 C 3284.82 5.76102 1.33643 0
M  V30 35171 H 3283.75 0.682841 0.319756 0
M  V30 35172 H 3286.4 1.83233 0.0989419 0
M  V30 35173 H 3284.78 3.18821 2.34881 0
M  V30 35174 H 3285.96 4.60606 -0.133864 0
M  V30 35175 H 3284.27 4.16383 0.0372484 0
M  V30 35176 H 3286.87 4.56139 2.79 0
M  V30 35177 H 3287.21 2.86451 3.02079 0
M  V30 35178 H 3287.75 3.67329 1.52689 0
M  V30 35179 H 3284.49 6.52671 0.608381 0
M  V30 35180 H 3284.01 5.63035 2.06766 0
M  V30 35181 H 3285.68 6.19249 1.87456 0
M  V30 35182 N 3285.82 -0.406513 1.52267 0
M  V30 35183 C 3287.06 -1.16236 1.68132 0
M  V30 35184 C 3287.42 -1.87705 0.403824 0
M  V30 35185 O 3288.62 -2.65197 0.438612 0
M  V30 35186 C 3286.89 -2.12832 2.87119 0
M  V30 35187 S 3288.45 -2.96489 3.2348 0
M  V30 35188 H 3285.27 -0.393733 0.592027 0
M  V30 35189 H 3287.87 -0.449291 1.90267 0
M  V30 35190 H 3286.58 -1.59019 3.7834 0
M  V30 35191 H 3286.11 -2.88674 2.67265 0
M  V30 35192 H 3288.12 -4.14806 2.72306 0
M  V30 35193 N 3287.29 -1.42934 -0.663904 0
M  V30 35194 C 3288.57 -1.34464 -1.42052 0
M  V30 35195 C 3288.95 0.012743 -2.11096 0
M  V30 35196 O 3288.3 1.0288 -2.04029 0
M  V30 35197 C 3288.51 -2.52044 -2.41401 0
M  V30 35198 C 3289.86 -2.94652 -3.05721 0
M  V30 35199 O 3290.88 -2.52014 -2.51729 0
M  V30 35200 O 3289.74 -3.68484 -4.03587 0
M  V30 35201 H 3286.83 -0.530845 -0.634139 0
M  V30 35202 H 3289.38 -1.54963 -0.69171 0
M  V30 35203 H 3288.15 -3.42487 -1.89257 0
M  V30 35204 H 3287.78 -2.33589 -3.21748 0
M  V30 35205 N 3288.77 0.901258 -1.29287 0
M  V30 35206 C 3289.7 2.02168 -1.16835 0
M  V30 35207 C 3290.68 1.69983 -0.0629564 0
M  V30 35208 O 3291.87 1.92684 -0.242157 0
M  V30 35209 C 3289 3.36927 -0.842465 0
M  V30 35210 C 3287.95 3.83316 -1.90401 0
M  V30 35211 C 3287.28 5.15183 -1.43147 0
M  V30 35212 C 3288.58 4.03811 -3.31261 0
M  V30 35213 H 3290.27 2.12843 -2.10566 0
M  V30 35214 H 3287.82 1.02268 -1.01377 0
M  V30 35215 H 3289.77 4.14815 -0.742072 0
M  V30 35216 H 3288.5 3.26339 0.13054 0
M  V30 35217 H 3287.15 3.07644 -1.99376 0
M  V30 35218 H 3286.8 5.01008 -0.447179 0
M  V30 35219 H 3286.5 5.47191 -2.14139 0
M  V30 35220 H 3288.03 5.95613 -1.34454 0
M  V30 35221 H 3289.44 4.72185 -3.25137 0
M  V30 35222 H 3287.84 4.47171 -4.00197 0
M  V30 35223 H 3288.91 3.08199 -3.74355 0
M  V30 35224 N 3290.25 1.11738 1.11141 0
M  V30 35225 C 3291.48 0.89104 1.87284 0
M  V30 35226 C 3291.9 -0.553939 1.79759 0
M  V30 35227 O 3291.26 -1.39147 1.16223 0
M  V30 35228 C 3291.31 1.3612 3.33922 0
M  V30 35229 O 3290.41 0.534923 4.08916 0
M  V30 35230 H 3289.75 0.320711 0.581412 0
M  V30 35231 H 3292.28 1.48763 1.40466 0
M  V30 35232 H 3292.29 1.35707 3.84769 0
M  V30 35233 H 3290.97 2.4134 3.38715 0
M  V30 35234 H 3289.54 0.605419 3.67953 0
M  V30 35235 O 3291.77 -1.23535 1.04025 0
M  V30 35236 H 3292.46 -1.80177 0.711042 0
M  V30 END ATOM
M  V30 BEGIN BOND
M  V30 END BOND
M  V30 END CTAB
M  END
$$$$
