drugbank_target|P12998 8-amino-7-oxononanoate synthase (DB03160)
 OpenBabel12092120003D

  0  0  0     0  0            999 V3000
M  V30 BEGIN CTAB
M  V30 COUNTS 5830 5887 0 0 0
M  V30 BEGIN ATOM
M  V30 1 H -0.908 1.98254 -0.117106 0
M  V30 2 N 0 1.576 0 0
M  V30 3 C 0.933 2.03868 1.02534 0
M  V30 4 C 1.911 0.928543 1.3348 0
M  V30 5 O 3.095 1.19667 1.45644 0
M  V30 6 C 0.222 2.43627 2.35294 0
M  V30 7 C -0.732 3.65373 2.2001 0
M  V30 8 S 0.101 5.13292 1.52614 0
M  V30 9 C 1.257 5.56322 2.86805 0
M  V30 10 H 1.49 2.90518 0.631377 0
M  V30 11 H -0.977 1.52953 0.210867 0
M  V30 12 H 0.981 2.67203 3.11629 0
M  V30 13 H -0.358 1.57376 2.7183 0
M  V30 14 H -1.165 3.90944 3.18086 0
M  V30 15 H -1.563 3.418 1.51819 0
M  V30 16 H 0.729 5.58782 3.83104 0
M  V30 17 H 1.672 6.56266 2.65933 0
M  V30 18 H 2.08 4.83886 2.90714 0
M  V30 19 N 1.4781 -0.272755 1.55222 0
M  V30 20 C 2.7031 -1.02683 1.80197 0
M  V30 21 C 3.1281 -1.79142 0.573551 0
M  V30 22 O 2.4861 -1.74917 -0.476849 0
M  V30 23 C 2.5341 -1.9609 3.02624 0
M  V30 24 O 1.6381 -3.04863 2.77727 0
M  V30 25 H 0.9791 -0.293557 0.595584 0
M  V30 26 H 3.5091 -0.30159 2.02365 0
M  V30 27 H 3.5191 -2.38039 3.31363 0
M  V30 28 H 2.1941 -1.39851 3.91682 0
M  V30 29 H 0.7711 -2.67228 2.60084 0
M  V30 30 N 2.9562 -1.48159 -0.537278 0
M  V30 31 C 4.2022 -1.57015 -1.29297 0
M  V30 32 C 4.5572 -0.237791 -1.90925 0
M  V30 33 O 3.8502 0.758621 -1.75942 0
M  V30 34 C 4.0442 -2.63956 -2.40961 0
M  V30 35 C 3.8732 -4.07461 -1.90278 0
M  V30 36 C 2.6432 -4.74685 -1.73213 0
M  V30 37 C 4.8412 -4.93858 -1.43556 0
M  V30 38 N 2.8232 -6.02633 -1.17078 0
M  V30 39 C 4.1942 -6.11993 -0.993204 0
M  V30 40 C 6.2492 -4.80141 -1.31792 0
M  V30 41 C 4.9522 -7.17923 -0.444872 0
M  V30 42 C 6.9782 -5.86186 -0.783585 0
M  V30 43 C 6.3402 -7.03524 -0.351261 0
M  V30 44 H 2.4392 -0.629154 -0.464423 0
M  V30 45 H 5.0232 -1.85006 -0.606705 0
M  V30 46 H 3.1942 -2.378 -3.07093 0
M  V30 47 H 4.9262 -2.62539 -3.07986 0
M  V30 48 H 1.6812 -4.30902 -1.9652 0
M  V30 49 H 2.1052 -6.7085 -0.910421 0
M  V30 50 H 6.7472 -3.89772 -1.63823 0
M  V30 51 H 4.4652 -8.08022 -0.11222 0
M  V30 52 H 8.0512 -5.77624 -0.695835 0
M  V30 53 H 6.9312 -7.8418 0.055777 0
M  V30 54 N 4.4343 0.785586 -1.36625 0
M  V30 55 C 5.3663 1.90711 -1.2713 0
M  V30 56 C 6.3793 1.61688 -0.189986 0
M  V30 57 O 7.5683 1.72864 -0.445014 0
M  V30 58 C 4.6683 3.25611 -0.939713 0
M  V30 59 C 3.8413 3.82385 -2.12369 0
M  V30 60 C 2.9003 4.95732 -1.76456 0
M  V30 61 O 1.9263 5.12047 -2.48589 0
M  V30 62 N 3.1283 5.76258 -0.700492 0
M  V30 63 H 5.8933 1.99376 -2.23762 0
M  V30 64 H 3.4543 0.964041 -1.30069 0
M  V30 65 H 5.4463 3.98937 -0.680554 0
M  V30 66 H 4.0163 3.12538 -0.0624074 0
M  V30 67 H 3.2363 3.01001 -2.54543 0
M  V30 68 H 4.5243 4.17047 -2.9146 0
M  V30 69 H 3.9223 5.65609 -0.101624 0
M  V30 70 H 2.4793 6.4987 -0.501165 0
M  V30 71 N 5.9124 1.20967 1.01018 0
M  V30 72 C 6.8224 0.980157 2.13143 0
M  V30 73 C 7.8384 -0.0660665 1.73875 0
M  V30 74 O 9.0144 0.122821 2.01025 0
M  V30 75 C 6.0794 0.54216 3.42435 0
M  V30 76 C 5.1404 1.65999 3.95908 0
M  V30 77 C 4.3734 1.2428 5.19028 0
M  V30 78 O 4.5964 0.114196 5.70286 0
M  V30 79 O 3.5304 2.05271 5.65816 0
M  V30 80 H 7.3564 1.91913 2.35379 0
M  V30 81 H 4.9414 0.994099 1.11526 0
M  V30 82 H 6.8234 0.30744 4.20277 0
M  V30 83 H 5.4984 -0.36815 3.216 0
M  V30 84 H 4.4054 1.94906 3.19316 0
M  V30 85 H 5.7384 2.54753 4.21143 0
M  V30 86 N 7.3905 -1.2043 1.01659 0
M  V30 87 C 8.3375 -2.23215 0.586822 0
M  V30 88 C 9.3075 -1.61382 -0.393085 0
M  V30 89 O 10.4925 -1.88544 -0.292525 0
M  V30 90 C 7.6325 -3.45032 -0.0687464 0
M  V30 91 C 6.7455 -4.21296 0.955724 0
M  V30 92 C 5.8805 -5.30507 0.271208 0
M  V30 93 C 4.9195 -5.98515 1.28244 0
M  V30 94 N 4.0565 -6.99316 0.62459 0
M  V30 95 H 8.8965 -2.59336 1.46796 0
M  V30 96 H 6.4335 -1.27431 0.734836 0
M  V30 97 H 8.3915 -4.1459 -0.465965 0
M  V30 98 H 7.0215 -3.09604 -0.913529 0
M  V30 99 H 6.0735 -3.50803 1.4711 0
M  V30 100 H 7.3855 -4.6803 1.72479 0
M  V30 101 H 6.5395 -6.06428 -0.18151 0
M  V30 102 H 5.2785 -4.8481 -0.530163 0
M  V30 103 H 4.2835 -5.21355 1.74554 0
M  V30 104 H 5.5085 -6.46298 2.08509 0
M  V30 105 H 3.4545 -6.55812 -0.156914 0
M  V30 106 H 3.3715 -7.44178 1.33172 0
M  V30 107 H 4.6395 -7.79255 0.195462 0
M  V30 108 N 8.8686 -0.792821 -1.36206 0
M  V30 109 C 10.1176 -0.363353 -1.984 0
M  V30 110 C 10.4306 1.07172 -1.63626 0
M  V30 111 O 11.6366 1.60362 -2.19081 0
M  V30 112 C 10.0926 -0.59872 -3.54885 0
M  V30 113 C 9.7006 -2.04543 -3.9858 0
M  V30 114 C 11.4446 -0.233926 -4.23855 0
M  V30 115 C 9.3516 -2.22727 -5.47856 0
M  V30 116 H 8.2816 -0.13212 -0.742334 0
M  V30 117 H 10.9326 -0.974935 -1.55458 0
M  V30 118 H 9.3146 0.0826222 -3.95914 0
M  V30 119 H 10.4886 -2.76345 -3.68741 0
M  V30 120 H 8.8036 -2.36879 -3.42458 0
M  V30 121 H 11.4006 -0.348027 -5.33566 0
M  V30 122 H 11.7436 0.818351 -4.08177 0
M  V30 123 H 12.2766 -0.868639 -3.882 0
M  V30 124 H 9.0156 -3.2635 -5.68486 0
M  V30 125 H 8.5356 -1.55434 -5.7931 0
M  V30 126 H 10.2146 -2.03607 -6.14128 0
M  V30 127 N 10.3467 1.47872 -0.545128 0
M  V30 128 C 11.2947 2.31533 0.222512 0
M  V30 129 C 12.2887 1.42177 0.920985 0
M  V30 130 O 13.4947 1.59005 0.843645 0
M  V30 131 H 9.8697 0.746519 0.0906278 0
M  V30 132 H 11.8407 2.94139 -0.50246 0
M  V30 133 C 10.5897 3.2457 1.24699 0
M  V30 134 H 9.9127 3.93283 0.718944 0
M  V30 135 H 11.3527 3.85963 1.75523 0
M  V30 136 C 9.8117 2.47237 2.28856 0
M  V30 137 O 10.3417 2.20808 3.35569 0
M  V30 138 N 8.5477 2.08461 2.02466 0
M  V30 139 H 8.0947 2.30155 1.157 0
M  V30 140 H 8.0527 1.57033 2.72375 0
M  V30 141 N 11.8248 0.280983 1.55075 0
M  V30 142 C 12.7878 -0.590896 2.21452 0
M  V30 143 C 13.7878 -1.07682 1.19421 0
M  V30 144 O 14.9778 -0.97605 1.44288 0
M  V30 145 C 12.1098 -1.81587 2.88511 0
M  V30 146 H 13.3028 -0.0112554 2.99898 0
M  V30 147 H 10.8558 0.0316438 1.56268 0
M  V30 148 H 11.5908 -2.43587 2.14093 0
M  V30 149 H 11.3758 -1.4753 3.63287 0
M  V30 150 H 12.8658 -2.43575 3.39206 0
M  V30 151 N 13.3029 -1.57598 0.00835791 0
M  V30 152 C 14.2659 -2.07884 -0.965242 0
M  V30 153 C 15.2659 -0.989825 -1.26725 0
M  V30 154 O 16.4559 -1.25218 -1.21104 0
M  V30 155 C 13.5879 -2.52731 -2.28779 0
M  V30 156 H 14.7809 -2.95178 -0.530112 0
M  V30 157 H 12.3339 -1.54458 -0.239283 0
M  V30 158 H 13.0689 -1.68705 -2.76964 0
M  V30 159 H 12.8539 -3.32272 -2.08177 0
M  V30 160 H 14.3439 -2.91933 -2.98605 0
M  V30 161 N 14.781 0.264519 -1.55364 0
M  V30 162 C 15.711 1.33121 -1.91836 0
M  V30 163 C 16.692 1.51101 -0.781192 0
M  V30 164 O 17.877 1.64003 -1.04003 0
M  V30 165 C 15.007 2.68921 -2.19769 0
M  V30 166 C 13.961 2.65661 -3.35571 0
M  V30 167 C 13.287 4.05093 -3.49004 0
M  V30 168 C 14.587 2.24187 -4.71739 0
M  V30 169 H 16.281 1.02844 -2.81182 0
M  V30 170 H 13.827 0.493286 -1.35287 0
M  V30 171 H 15.78 3.43663 -2.43872 0
M  V30 172 H 14.504 3.00799 -1.27231 0
M  V30 173 H 13.163 1.93377 -3.1145 0
M  V30 174 H 12.811 4.34206 -2.53917 0
M  V30 175 H 12.511 4.03804 -4.26868 0
M  V30 176 H 14.035 4.81561 -3.75408 0
M  V30 177 H 15.449 2.88654 -4.9533 0
M  V30 178 H 13.846 2.34044 -5.52579 0
M  V30 179 H 14.916 1.19327 -4.69988 0
M  V30 180 N 16.2591 1.48442 0.529413 0
M  V30 181 C 17.5361 1.46978 1.29062 0
M  V30 182 C 17.9161 0.181769 2.10316 0
M  V30 183 O 17.2641 -0.836481 2.12639 0
M  V30 184 C 17.4741 2.7321 2.17157 0
M  V30 185 C 18.8221 3.21562 2.77278 0
M  V30 186 O 19.8461 2.74131 2.27444 0
M  V30 187 O 18.7051 4.04094 3.67927 0
M  V30 188 H 15.7991 0.587003 0.582543 0
M  V30 189 H 18.3451 1.60676 0.546021 0
M  V30 190 H 17.1171 3.58465 1.56903 0
M  V30 191 H 16.7401 2.62235 2.98862 0
M  V30 192 N 17.7372 -0.778329 1.37039 0
M  V30 193 C 18.7002 -1.87301 1.32102 0
M  V30 194 C 19.7002 -1.59198 0.226405 0
M  V30 195 O 20.8902 -1.67403 0.481861 0
M  V30 196 C 18.0222 -3.24309 1.05055 0
M  V30 197 H 19.2152 -1.93093 2.29467 0
M  V30 198 H 16.7682 -0.977358 1.21973 0
M  V30 199 H 17.5032 -3.24196 0.0819373 0
M  V30 200 H 17.2882 -3.46098 1.84279 0
M  V30 201 H 18.7782 -4.04382 1.04234 0
M  V30 202 N 19.2153 -1.21501 -1.00376 0
M  V30 203 C 20.6313 -0.972629 -1.26539 0
M  V30 204 C 20.8313 0.340257 -1.98606 0
M  V30 205 O 19.8873 1.06561 -2.28913 0
M  V30 206 C 21.2003 -2.16404 -2.08781 0
M  V30 207 C 22.7483 -2.20643 -2.22004 0
M  V30 208 C 23.2233 -3.39306 -3.07629 0
M  V30 209 N 24.7143 -3.39401 -3.15217 0
M  V30 210 C 25.4493 -4.27867 -3.81729 0
M  V30 211 N 24.9453 -5.26533 -4.5026 0
M  V30 212 N 26.7383 -4.15672 -3.78382 0
M  V30 213 H 18.8893 -2.05929 -0.520281 0
M  V30 214 H 21.1523 -0.901803 -0.292328 0
M  V30 215 H 20.8583 -3.11554 -1.63178 0
M  V30 216 H 20.7323 -2.15567 -3.09533 0
M  V30 217 H 23.1193 -1.26048 -2.66825 0
M  V30 218 H 23.2003 -2.25523 -1.20718 0
M  V30 219 H 22.8443 -4.34195 -2.63509 0
M  V30 220 H 22.7743 -3.31665 -4.09031 0
M  V30 221 H 25.2653 -2.67997 -2.66432 0
M  V30 222 H 25.5783 -5.90337 -4.98721 0
M  V30 223 H 23.9233 -5.30457 -4.49044 0
M  V30 224 H 27.1143 -3.3785 -3.23998 0
M  V30 225 H 27.2873 -4.84825 -4.2994 0
M  V30 226 N 20.6934 1.19889 -1.02296 0
M  V30 227 C 22.1094 1.41462 -0.738954 0
M  V30 228 C 22.3094 1.89721 0.678846 0
M  V30 229 O 21.3654 2.07016 1.4457 0
M  V30 230 C 22.6784 2.43083 -1.77005 0
M  V30 231 C 24.2264 2.5684 -1.78892 0
M  V30 232 C 24.7014 3.61709 -2.80945 0
M  V30 233 N 26.1924 3.69199 -2.79725 0
M  V30 234 C 26.9274 4.50019 -3.55345 0
M  V30 235 N 26.4234 5.34592 -4.40662 0
M  V30 236 N 28.2164 4.44612 -3.43914 0
M  V30 237 H 20.3674 0.868827 -1.93817 0
M  V30 238 H 22.6304 0.44399 -0.837602 0
M  V30 239 H 22.3364 2.14636 -2.78612 0
M  V30 240 H 22.2104 3.4217 -1.58744 0
M  V30 241 H 24.5974 2.84614 -0.779674 0
M  V30 242 H 24.6784 1.57927 -2.01228 0
M  V30 243 H 24.3224 3.34678 -3.82038 0
M  V30 244 H 24.2524 4.60259 -2.5587 0
M  V30 245 H 26.7434 3.08794 -2.17842 0
M  V30 246 H 27.0564 5.93363 -4.95116 0
M  V30 247 H 25.4014 5.34073 -4.44737 0
M  V30 248 H 28.5924 3.7758 -2.76679 0
M  V30 249 H 28.7654 5.0736 -4.031 0
M  V30 250 N 22.1715 0.800033 1.35784 0
M  V30 251 C 23.1345 0.211565 2.28221 0
M  V30 252 C 24.1345 -0.59728 1.49296 0
M  V30 253 O 25.3245 -0.416721 1.69142 0
M  V30 254 C 22.4565 -0.705846 3.33513 0
M  V30 255 H 23.6495 1.02677 2.81776 0
M  V30 256 H 21.2025 0.570211 1.45528 0
M  V30 257 H 21.9375 -1.54498 2.85133 0
M  V30 258 H 21.7225 -0.127655 3.91892 0
M  V30 259 H 23.2125 -1.11211 4.02519 0
M  V30 260 N 23.6496 -1.47581 0.552962 0
M  V30 261 C 24.6126 -2.28439 -0.186605 0
M  V30 262 C 25.6126 -1.36706 -0.84665 0
M  V30 263 O 26.8026 -1.59378 -0.703164 0
M  V30 264 C 23.9346 -3.16264 -1.2724 0
M  V30 265 H 25.1276 -2.95294 0.523609 0
M  V30 266 H 22.6806 -1.532 0.309745 0
M  V30 267 H 23.4156 -2.54091 -2.01514 0
M  V30 268 H 23.2006 -3.83769 -0.803968 0
M  V30 269 H 24.6906 -3.77198 -1.79196 0
M  V30 270 N 25.1277 -0.289203 -1.54924 0
M  V30 271 C 26.4047 0.376032 -1.91951 0
M  V30 272 C 26.7847 1.72622 -1.21511 0
M  V30 273 O 26.1327 2.25853 -0.346767 0
M  V30 274 C 26.3427 0.502378 -3.45365 0
M  V30 275 C 27.6907 0.778741 -4.17398 0
M  V30 276 O 28.7147 0.586647 -3.51336 0
M  V30 277 O 27.5737 1.14698 -5.34328 0
M  V30 278 H 24.6677 0.208167 -0.800372 0
M  V30 279 H 27.2137 -0.336394 -1.66332 0
M  V30 280 H 25.9857 -0.447255 -3.88736 0
M  V30 281 H 25.6087 1.26373 -3.76982 0
M  V30 282 N 26.6058 1.57591 -0.0167156 0
M  V30 283 C 27.5688 2.08393 0.954204 0
M  V30 284 C 28.5688 0.996531 1.26198 0
M  V30 285 O 29.7588 1.25858 1.20438 0
M  V30 286 C 26.8908 2.5394 2.27436 0
M  V30 287 H 28.0838 2.95455 0.514451 0
M  V30 288 H 25.6368 1.54582 0.231089 0
M  V30 289 H 26.3718 1.70171 2.76066 0
M  V30 290 H 26.1568 3.33371 2.06412 0
M  V30 291 H 27.6468 2.93512 2.97053 0
M  V30 292 N 28.0839 -0.256276 1.55502 0
M  V30 293 C 29.0139 -1.32102 1.92539 0
M  V30 294 C 29.9949 -1.50684 0.789194 0
M  V30 295 O 31.1799 -1.63449 1.04872 0
M  V30 296 C 28.3099 -2.67752 2.21192 0
M  V30 297 C 27.2639 -2.63878 3.36975 0
M  V30 298 C 26.5899 -4.03236 3.51147 0
M  V30 299 C 27.8899 -2.21682 4.72921 0
M  V30 300 H 29.5839 -1.01351 2.81724 0
M  V30 301 H 27.1299 -0.486105 1.35547 0
M  V30 302 H 29.0829 -3.42365 2.45691 0
M  V30 303 H 27.8069 -3.0012 1.28824 0
M  V30 304 H 26.4659 -1.91722 3.12471 0
M  V30 305 H 26.1139 -4.32854 2.56216 0
M  V30 306 H 25.8139 -4.01535 4.29003 0
M  V30 307 H 27.3379 -4.79563 3.77957 0
M  V30 308 H 28.7519 -2.86023 4.96854 0
M  V30 309 H 27.1489 -2.3111 5.53812 0
M  V30 310 H 28.2189 -1.16833 4.70615 0
M  V30 311 N 29.562 -1.4872 -0.521534 0
M  V30 312 C 30.978 -1.35028 -0.850855 0
M  V30 313 C 31.178 -0.367712 -1.98116 0
M  V30 314 O 30.234 0.208037 -2.51642 0
M  V30 315 C 31.547 -2.75263 -1.21041 0
M  V30 316 C 33.095 -2.83813 -1.31981 0
M  V30 317 C 33.57 -4.24769 -1.71276 0
M  V30 318 N 35.061 -4.27482 -1.78363 0
M  V30 319 C 35.796 -5.33494 -2.1017 0
M  V30 320 N 35.292 -6.49775 -2.40343 0
M  V30 321 N 37.085 -5.20894 -2.11248 0
M  V30 322 H 29.236 -2.11214 0.22413 0
M  V30 323 H 31.499 -0.947252 0.0376439 0
M  V30 324 H 31.205 -3.48765 -0.453415 0
M  V30 325 H 31.079 -3.09327 -2.15863 0
M  V30 326 H 33.466 -2.10561 -2.06756 0
M  V30 327 H 33.547 -2.53358 -0.352596 0
M  V30 328 H 33.191 -4.9854 -0.970588 0
M  V30 329 H 33.121 -4.52673 -2.69062 0
M  V30 330 H 35.612 -3.43611 -1.57288 0
M  V30 331 H 35.925 -7.26402 -2.63743 0
M  V30 332 H 34.27 -6.53035 -2.37844 0
M  V30 333 H 37.461 -4.29065 -1.87139 0
M  V30 334 H 37.634 -6.03612 -2.35704 0
M  V30 335 N 31.0401 0.771051 -1.3745 0
M  V30 336 C 32.4561 1.07171 -1.18265 0
M  V30 337 C 32.6561 2.01491 -0.019287 0
M  V30 338 O 31.7121 2.44244 0.640408 0
M  V30 339 C 33.0251 1.66854 -2.50161 0
M  V30 340 C 34.5731 1.79109 -2.56689 0
M  V30 341 C 35.0481 2.42205 -3.88717 0
M  V30 342 N 36.5391 2.49655 -3.90162 0
M  V30 343 C 37.2741 2.9933 -4.8907 0
M  V30 344 N 36.7701 3.49172 -5.98374 0
M  V30 345 N 38.5631 2.9821 -4.76474 0
M  V30 346 H 30.7141 0.144796 -2.11906 0
M  V30 347 H 32.9771 0.126863 -0.939473 0
M  V30 348 H 32.6831 1.05017 -3.35655 0
M  V30 349 H 32.5571 2.6614 -2.673 0
M  V30 350 H 34.9441 2.40077 -1.71601 0
M  V30 351 H 35.0251 0.785757 -2.43433 0
M  V30 352 H 34.6691 1.81875 -4.74219 0
M  V30 353 H 34.5991 3.43345 -3.99276 0
M  V30 354 H 37.0901 2.14383 -3.11205 0
M  V30 355 H 37.4031 3.8548 -6.69795 0
M  V30 356 H 35.7481 3.47275 -6.02018 0
M  V30 357 H 38.9391 2.58572 -3.90203 0
M  V30 358 H 39.1121 3.36613 -5.53711 0
M  V30 359 N 32.5182 1.22032 0.997298 0
M  V30 360 C 33.9342 0.979326 1.26021 0
M  V30 361 C 34.1342 -0.32972 1.98784 0
M  V30 362 O 33.1902 -1.05345 2.29475 0
M  V30 363 C 34.5032 2.17509 2.07631 0
M  V30 364 C 36.0512 2.21817 2.2083 0
M  V30 365 C 36.5262 3.40933 3.05825 0
M  V30 366 N 38.0172 3.41067 3.13412 0
M  V30 367 C 38.7522 4.29885 3.79455 0
M  V30 368 N 38.2482 5.28914 4.47462 0
M  V30 369 N 40.0412 4.17673 3.76173 0
M  V30 370 H 32.1922 2.06202 0.509352 0
M  V30 371 H 34.4552 0.90334 0.287541 0
M  V30 372 H 34.1612 3.12415 1.61524 0
M  V30 373 H 34.0352 2.17206 3.08385 0
M  V30 374 H 36.4222 1.27462 2.66153 0
M  V30 375 H 36.5032 2.2616 1.1952 0
M  V30 376 H 36.1472 4.35586 2.61203 0
M  V30 377 H 36.0772 3.33829 4.07266 0
M  V30 378 H 38.5682 2.69406 2.65007 0
M  V30 379 H 38.8812 5.92973 4.95583 0
M  V30 380 H 37.2262 5.32831 4.46224 0
M  V30 381 H 40.4172 3.39564 3.22202 0
M  V30 382 H 40.5902 4.87098 4.27363 0
M  V30 383 N 33.9963 -1.19345 1.0293 0
M  V30 384 C 35.2263 -1.92717 0.744563 0
M  V30 385 C 35.6343 -1.75751 -0.700579 0
M  V30 386 O 34.9773 -1.07703 -1.48815 0
M  V30 387 C 35.0393 -3.44828 1.01657 0
M  V30 388 C 34.7033 -3.85564 2.45335 0
M  V30 389 C 35.7003 -3.90286 3.43472 0
M  V30 390 C 33.3853 -4.1719 2.79746 0
M  V30 391 C 35.3793 -4.26065 4.74075 0
M  V30 392 C 33.0663 -4.52642 4.10559 0
M  V30 393 C 34.0643 -4.57054 5.07534 0
M  V30 394 O 33.7523 -4.91685 6.36004 0
M  V30 395 H 33.4843 -0.618977 0.271742 0
M  V30 396 H 36.0383 -1.52415 1.37691 0
M  V30 397 H 34.2683 -3.85314 0.327084 0
M  V30 398 H 35.9573 -3.99437 0.721427 0
M  V30 399 H 36.7233 -3.66002 3.18225 0
M  V30 400 H 32.6023 -4.1294 2.04943 0
M  V30 401 H 36.1463 -4.29423 5.49765 0
M  V30 402 H 32.0433 -4.76383 4.35579 0
M  V30 403 H 32.8113 -5.09631 6.40483 0
M  V30 404 N 35.4744 -0.807222 -1.35358 0
M  V30 405 C 36.8854 -0.44876 -1.81226 0
M  V30 406 C 37.2364 1.02929 -1.67033 0
M  V30 407 O 36.3614 1.79991 -1.20133 0
M  V30 408 C 36.9564 -0.807774 -3.2903 0
M  V30 409 C 35.5154 -0.501901 -3.73039 0
M  V30 410 C 34.6624 -1.03304 -2.57339 0
M  V30 411 H 37.6134 -0.998808 -1.23327 0
M  V30 412 H 37.6344 -0.10554 -3.80354 0
M  V30 413 H 37.1464 -1.88357 -3.39328 0
M  V30 414 H 35.2474 0.565128 -3.68289 0
M  V30 415 H 35.3604 -1.03497 -4.67787 0
M  V30 416 H 33.7244 -0.455339 -2.50597 0
M  V30 417 H 34.5074 -2.11496 -2.70415 0
M  V30 418 N 36.9525 1.47285 -0.560781 0
M  V30 419 C 38.1985 2.02764 -0.0381184 0
M  V30 420 C 38.5315 1.43384 1.30976 0
M  V30 421 O 37.8065 0.590733 1.85312 0
M  V30 422 C 38.0895 3.60064 0.0511427 0
M  V30 423 C 37.9425 4.2987 -1.32408 0
M  V30 424 C 39.2615 4.33439 0.762795 0
M  V30 425 H 36.3805 0.736841 -0.0153264 0
M  V30 426 H 39.0225 1.75675 -0.723759 0
M  V30 427 H 37.1725 3.83274 0.635065 0
M  V30 428 H 38.8445 4.17989 -1.95148 0
M  V30 429 H 37.0875 3.90085 -1.8978 0
M  V30 430 H 37.7585 5.38478 -1.21431 0
M  V30 431 H 40.2345 4.15243 0.266965 0
M  V30 432 H 39.1105 5.43124 0.794221 0
M  V30 433 H 39.3715 4.02915 1.81966 0
M  V30 434 N 38.4306 0.297415 1.54768 0
M  V30 435 C 39.3936 -0.567375 2.22066 0
M  V30 436 C 40.3936 -1.06409 1.20556 0
M  V30 437 O 41.5836 -0.960691 1.45315 0
M  V30 438 C 38.7156 -1.78517 2.90421 0
M  V30 439 H 39.9086 0.0205534 2.99893 0
M  V30 440 H 37.4616 0.0482163 1.56226 0
M  V30 441 H 38.1966 -2.41303 2.16664 0
M  V30 442 H 37.9816 -1.43669 3.64831 0
M  V30 443 H 39.4716 -2.39964 3.41771 0
M  V30 444 N 39.9087 -1.5758 0.0250728 0
M  V30 445 C 40.8407 -2.06869 -0.986796 0
M  V30 446 C 41.8537 -0.991332 -1.29137 0
M  V30 447 O 43.0427 -1.26761 -1.25674 0
M  V30 448 C 40.1427 -2.47486 -2.31525 0
M  V30 449 C 39.3157 -3.78253 -2.19643 0
M  V30 450 C 38.3747 -4.05464 -3.35388 0
M  V30 451 O 37.4007 -4.75774 -3.12454 0
M  V30 452 N 38.6027 -3.55321 -4.59051 0
M  V30 453 H 41.3677 -2.94302 -0.566276 0
M  V30 454 H 38.9287 -1.6109 -0.161776 0
M  V30 455 H 40.9207 -2.62785 -3.07776 0
M  V30 456 H 39.4907 -1.65441 -2.65232 0
M  V30 457 H 38.7107 -3.7279 -1.28144 0
M  V30 458 H 39.9987 -4.63936 -2.08903 0
M  V30 459 H 39.3967 -2.98431 -4.80578 0
M  V30 460 H 37.9537 -3.75905 -5.32483 0
M  V30 461 N 41.3868 0.248026 -1.55636 0
M  V30 462 C 42.6348 0.974295 -1.77065 0
M  V30 463 C 42.9558 1.85897 -0.588849 0
M  V30 464 O 42.2258 1.91868 0.395407 0
M  V30 465 H 40.8058 0.362733 -0.653019 0
M  V30 466 H 43.4678 0.266244 -1.93073 0
M  V30 467 H 42.5638 1.59667 -2.68166 0
M  V30 468 N 42.8649 1.48995 0.513639 0
M  V30 469 C 43.8279 1.64229 1.59879 0
M  V30 470 C 44.8279 0.514696 1.5234 0
M  V30 471 O 46.0179 0.78087 1.55718 0
M  V30 472 C 43.1499 1.62783 2.99524 0
M  V30 473 H 44.3429 2.61004 1.47705 0
M  V30 474 H 41.8959 1.37837 0.736936 0
M  V30 475 H 42.6309 0.675461 3.17188 0
M  V30 476 H 42.4159 2.4466 3.06404 0
M  V30 477 H 43.9059 1.76669 3.78388 0
M  V30 478 N 44.343 -0.763751 1.37857 0
M  V30 479 C 45.591 -1.51957 1.33243 0
M  V30 480 C 45.912 -1.94835 -0.0801709 0
M  V30 481 O 45.182 -1.66894 -1.02582 0
M  V30 482 H 43.762 -0.563626 0.49024 0
M  V30 483 H 46.424 -0.908504 1.7243 0
M  V30 484 H 45.52 -2.41523 1.97669 0
M  V30 485 N 45.8211 -1.22559 -0.990812 0
M  V30 486 C 47.2371 -0.985996 -1.255 0
M  V30 487 C 47.4371 0.319173 -1.98956 0
M  V30 488 O 46.4931 1.04127 -2.3003 0
M  V30 489 C 47.8061 -2.18607 -2.06474 0
M  V30 490 C 49.3541 -2.22985 -2.19651 0
M  V30 491 C 49.8291 -3.4255 -3.04012 0
M  V30 492 N 51.3201 -3.42725 -3.11599 0
M  V30 493 C 52.0551 -4.31892 -3.7717 0
M  V30 494 N 51.5511 -5.31279 -4.44651 0
M  V30 495 N 53.3441 -4.19662 -3.73952 0
M  V30 496 H 45.4951 -2.06469 -0.49841 0
M  V30 497 H 47.7581 -0.904853 -0.282747 0
M  V30 498 H 47.4641 -3.13267 -1.59865 0
M  V30 499 H 47.3381 -2.18838 -3.07229 0
M  V30 500 H 49.7251 -1.28871 -2.65474 0
M  V30 501 H 49.8061 -2.26791 -1.18319 0
M  V30 502 H 49.4501 -4.36965 -2.58889 0
M  V30 503 H 49.3801 -3.35984 -4.0549 0
M  V30 504 H 51.8711 -2.70807 -2.63575 0
M  V30 505 H 52.1841 -5.95593 -4.92431 0
M  V30 506 H 50.5291 -5.3519 -4.43392 0
M  V30 507 H 53.7201 -3.41268 -3.20396 0
M  V30 508 H 53.8931 -4.89358 -4.24774 0
M  V30 509 N 47.2992 1.18797 -1.03562 0
M  V30 510 C 48.5452 1.89192 -0.746867 0
M  V30 511 C 48.9002 1.78531 0.717245 0
M  V30 512 O 48.1932 1.17137 1.51622 0
M  V30 513 C 48.3872 3.38692 -1.14117 0
M  V30 514 C 48.2162 3.63902 -2.64207 0
M  V30 515 C 46.9862 3.81553 -3.31279 0
M  V30 516 C 49.1842 3.64903 -3.62423 0
M  V30 517 N 47.1662 3.94455 -4.70402 0
M  V30 518 C 48.5372 3.83458 -4.87196 0
M  V30 519 C 50.5922 3.47965 -3.56125 0
M  V30 520 C 49.2952 3.86829 -6.06429 0
M  V30 521 C 51.3212 3.52616 -4.7478 0
M  V30 522 C 50.6832 3.71663 -5.9837 0
M  V30 523 H 46.7822 0.711141 -0.325273 0
M  V30 524 H 49.3662 1.42727 -1.32428 0
M  V30 525 H 47.5372 3.83864 -0.591889 0
M  V30 526 H 49.2692 3.96634 -0.803966 0
M  V30 527 H 46.0242 3.80723 -2.81686 0
M  V30 528 H 46.4482 4.0474 -5.42692 0
M  V30 529 H 51.0902 3.32189 -2.61553 0
M  V30 530 H 48.8082 4.01395 -7.01362 0
M  V30 531 H 52.3942 3.40791 -4.71543 0
M  V30 532 H 51.2742 3.75145 -6.88648 0
M  V30 533 N 48.7773 0.814389 1.34928 0
M  V30 534 C 49.7073 0.244827 2.32213 0
M  V30 535 C 50.6883 -0.634024 1.57842 0
M  V30 536 O 51.8733 -0.562676 1.8587 0
M  V30 537 C 49.0033 -0.601106 3.42058 0
M  V30 538 C 47.9573 0.179896 4.27622 0
M  V30 539 C 47.2833 -0.788237 5.28858 0
M  V30 540 C 48.5833 1.38329 5.03649 0
M  V30 541 H 50.2773 1.05763 2.80097 0
M  V30 542 H 47.8233 0.510029 1.34665 0
M  V30 543 H 49.7763 -1.00968 4.09125 0
M  V30 544 H 48.5003 -1.44688 2.92802 0
M  V30 545 H 47.1593 0.569739 3.62146 0
M  V30 546 H 46.8073 -1.62973 4.75866 0
M  V30 547 H 46.5073 -0.269942 5.8698 0
M  V30 548 H 48.0313 -1.19485 5.98795 0
M  V30 549 H 49.4453 1.04918 5.63618 0
M  V30 550 H 47.8423 1.83662 5.71304 0
M  V30 551 H 48.9123 2.16592 4.33839 0
M  V30 552 N 50.2554 -1.46986 0.568584 0
M  V30 553 C 51.5014 -2.02741 0.0488709 0
M  V30 554 C 51.8344 -1.44077 -1.30214 0
M  V30 555 O 51.1094 -0.600552 -1.84996 0
M  V30 556 C 51.3924 -3.60086 -0.032047 0
M  V30 557 C 51.2454 -4.29162 1.34686 0
M  V30 558 C 52.5644 -4.33838 -0.739798 0
M  V30 559 H 49.6834 -0.736749 0.0192338 0
M  V30 560 H 52.3254 -1.75289 0.733065 0
M  V30 561 H 50.4754 -3.83606 -0.61473 0
M  V30 562 H 52.1474 -4.16948 1.97362 0
M  V30 563 H 50.3904 -3.89073 1.91846 0
M  V30 564 H 51.0614 -5.37826 1.24285 0
M  V30 565 H 53.5374 -4.15378 -0.244939 0
M  V30 566 H 52.4134 -5.43537 -0.765406 0
M  V30 567 H 52.6744 -4.03875 -1.79827 0
M  V30 568 N 51.7335 -0.305618 -1.54608 0
M  V30 569 C 52.6965 0.555591 -2.22364 0
M  V30 570 C 53.6965 1.05768 -1.21119 0
M  V30 571 O 54.8865 0.952972 -1.45822 0
M  V30 572 C 52.0185 1.76974 -2.91364 0
M  V30 573 H 53.2115 -0.0364572 -2.99878 0
M  V30 574 H 50.7645 -0.0565007 -1.56198 0
M  V30 575 H 51.4995 2.40151 -2.17941 0
M  V30 576 H 51.2845 1.41732 -3.65588 0
M  V30 577 H 52.7745 2.38148 -3.43038 0
M  V30 578 N 53.2116 1.57565 -0.0334293 0
M  V30 579 C 54.4886 1.83282 0.683163 0
M  V30 580 C 54.8686 0.91823 1.90084 0
M  V30 581 O 54.2166 -0.025113 2.28486 0
M  V30 582 C 54.4266 3.32599 1.0573 0
M  V30 583 C 55.7746 3.99179 1.44711 0
M  V30 584 O 56.7986 3.3712 1.15015 0
M  V30 585 O 55.6576 5.08565 2.0006 0
M  V30 586 H 52.7516 0.755869 0.335546 0
M  V30 587 H 55.2976 1.69589 -0.0614402 0
M  V30 588 H 54.0696 3.90834 0.190828 0
M  V30 589 H 53.6926 3.51415 1.85993 0
M  V30 590 N 54.6897 -0.239769 1.55765 0
M  V30 591 C 55.9667 -0.990056 1.68693 0
M  V30 592 C 56.3467 -2.03107 0.5754 0
M  V30 593 O 55.6947 -2.24604 -0.42017 0
M  V30 594 C 55.9047 -1.61696 3.09282 0
M  V30 595 C 57.2527 -2.11613 3.6811 0
M  V30 596 O 58.2767 -1.71624 3.12127 0
M  V30 597 O 57.1357 -2.85057 4.66267 0
M  V30 598 H 54.2297 -0.461299 0.686391 0
M  V30 599 H 56.7757 -0.232991 1.68093 0
M  V30 600 H 55.5477 -0.864357 3.81634 0
M  V30 601 H 55.1707 -2.44005 3.13923 0
M  V30 602 N 56.1678 -1.49265 -0.50573 0
M  V30 603 C 57.5838 -1.35923 -0.836486 0
M  V30 604 C 57.7838 -0.388704 -1.97715 0
M  V30 605 O 56.8398 0.181336 -2.51848 0
M  V30 606 C 58.1528 -2.76531 -1.18115 0
M  V30 607 C 59.7008 -2.85197 -1.28964 0
M  V30 608 C 60.1758 -4.26561 -1.66761 0
M  V30 609 N 61.6668 -4.2935 -1.73819 0
M  V30 610 C 62.4018 -5.35693 -2.045 0
M  V30 611 N 61.8978 -6.52287 -2.33438 0
M  V30 612 N 63.6908 -5.23105 -2.05711 0
M  V30 613 H 55.8418 -2.10965 0.246519 0
M  V30 614 H 58.1048 -0.9468 0.0476887 0
M  V30 615 H 57.8108 -3.49226 -0.416398 0
M  V30 616 H 57.6848 -3.11599 -2.1257 0
M  V30 617 H 60.0718 -2.12742 -2.04511 0
M  V30 618 H 60.1528 -2.53718 -0.325704 0
M  V30 619 H 59.7968 -4.99541 -0.917656 0
M  V30 620 H 59.7268 -4.55502 -2.64246 0
M  V30 621 H 62.2178 -3.4526 -1.53635 0
M  V30 622 H 62.5308 -7.29158 -2.56024 0
M  V30 623 H 60.8758 -6.55521 -2.30905 0
M  V30 624 H 64.0668 -4.31026 -1.82577 0
M  V30 625 H 64.2398 -6.06078 -2.29289 0
M  V30 626 N 57.6459 0.756429 -1.3826 0
M  V30 627 C 58.5779 1.87971 -1.31147 0
M  V30 628 C 59.5909 1.61248 -0.224239 0
M  V30 629 O 60.7799 1.71881 -0.481581 0
M  V30 630 C 57.8799 3.23545 -1.00857 0
M  V30 631 C 57.0529 3.77794 -2.20432 0
M  V30 632 C 56.1119 4.91877 -1.86931 0
M  V30 633 O 55.1379 5.06659 -2.59395 0
M  V30 634 N 56.3399 5.74643 -0.822568 0
M  V30 635 H 59.1049 1.94585 -2.2794 0
M  V30 636 H 56.6659 0.936234 -1.32084 0
M  V30 637 H 58.6579 3.97403 -0.765021 0
M  V30 638 H 57.2279 3.12335 -0.128687 0
M  V30 639 H 56.4479 2.95534 -2.6087 0
M  V30 640 H 57.7359 4.10771 -3.00241 0
M  V30 641 H 57.1339 5.65266 -0.221575 0
M  V30 642 H 55.6909 6.48661 -0.638899 0
M  V30 643 N 59.124 1.23083 0.984299 0
M  V30 644 C 60.354 1.08556 1.75781 0
M  V30 645 C 60.762 -0.366171 1.85623 0
M  V30 646 O 60.105 -1.26524 1.33182 0
M  V30 647 C 60.167 1.63208 3.20318 0
M  V30 648 C 59.831 3.11922 3.33997 0
M  V30 649 C 60.828 4.09259 3.2063 0
M  V30 650 C 58.513 3.51552 3.58771 0
M  V30 651 C 60.507 5.4421 3.31835 0
M  V30 652 C 58.194 4.86649 3.69616 0
M  V30 653 C 59.192 5.82787 3.56157 0
M  V30 654 O 58.88 7.15431 3.66626 0
M  V30 655 H 58.612 0.380713 0.5586 0
M  V30 656 H 61.166 1.63321 1.2456 0
M  V30 657 H 59.396 1.0286 3.72769 0
M  V30 658 H 61.085 1.44216 3.79416 0
M  V30 659 H 61.851 3.79984 3.01392 0
M  V30 660 H 57.73 2.77239 3.6832 0
M  V30 661 H 61.274 6.1923 3.21247 0
M  V30 662 H 57.171 5.15601 3.88363 0
M  V30 663 H 57.939 7.23127 3.83445 0
M  V30 664 N 60.6021 -1.18246 1.0419 0
M  V30 665 C 61.5321 -2.24127 0.654914 0
M  V30 666 C 62.5131 -1.66617 -0.342451 0
M  V30 667 O 63.6981 -1.92924 -0.222277 0
M  V30 668 C 60.8281 -3.47295 0.0183757 0
M  V30 669 C 59.7821 -4.17563 0.939414 0
M  V30 670 C 59.1081 -5.34438 0.167286 0
M  V30 671 C 60.4081 -4.70917 2.25908 0
M  V30 672 H 62.1021 -2.56753 1.54007 0
M  V30 673 H 59.6481 -1.23414 0.74195 0
M  V30 674 H 61.6011 -4.20572 -0.264082 0
M  V30 675 H 60.3251 -3.13907 -0.901664 0
M  V30 676 H 58.9841 -3.46186 1.20628 0
M  V30 677 H 58.6321 -4.97298 -0.7552 0
M  V30 678 H 58.3321 -5.82388 0.780901 0
M  V30 679 H 59.8561 -6.10504 -0.108125 0
M  V30 680 H 61.2701 -5.35882 2.03724 0
M  V30 681 H 59.6671 -5.29406 2.82577 0
M  V30 682 H 60.7371 -3.88272 2.9047 0
M  V30 683 N 62.0802 -0.821533 -1.34494 0
M  V30 684 C 63.0282 -0.230702 -2.31453 0
M  V30 685 C 64.0222 0.627793 -1.57338 0
M  V30 686 O 65.2282 0.519288 -1.72347 0
M  V30 687 H 61.6032 -0.0558577 -0.749923 0
M  V30 688 H 63.5742 -1.06332 -2.78812 0
M  V30 689 C 62.3232 0.59391 -3.4259 0
M  V30 690 H 61.6462 -0.0573588 -3.99759 0
M  V30 691 H 63.0862 0.973446 -4.12674 0
M  V30 692 C 61.5452 1.76568 -2.86924 0
M  V30 693 O 62.0752 2.8638 -2.81691 0
M  V30 694 N 60.2812 1.58198 -2.43766 0
M  V30 695 H 59.8282 0.68872 -2.48222 0
M  V30 696 H 59.7862 2.36752 -2.06871 0
M  V30 697 N 63.5583 1.46682 -0.576371 0
M  V30 698 C 64.8053 2.02412 -0.0595339 0
M  V30 699 C 65.1333 1.44859 1.29793 0
M  V30 700 O 64.3883 0.601099 1.8624 0
M  V30 701 C 64.6873 3.57345 0.062886 0
M  V30 702 C 64.3533 4.33908 -1.22616 0
M  V30 703 C 63.0153 4.54544 -1.57933 0
M  V30 704 C 65.3673 4.77919 -2.07948 0
M  V30 705 C 62.6953 5.16444 -2.78393 0
M  V30 706 C 65.0473 5.41149 -3.27629 0
M  V30 707 C 63.7113 5.60014 -3.63236 0
M  V30 708 H 62.9813 0.74068 -0.021785 0
M  V30 709 H 65.6283 1.76128 -0.751735 0
M  V30 710 H 63.9333 3.82729 0.838178 0
M  V30 711 H 65.6303 3.98136 0.478439 0
M  V30 712 H 62.2203 4.18138 -0.941202 0
M  V30 713 H 66.4043 4.61738 -1.81967 0
M  V30 714 H 61.6603 5.29242 -3.06126 0
M  V30 715 H 65.8343 5.74211 -3.94023 0
M  V30 716 H 63.4613 6.07748 -4.56669 0
M  V30 717 N 65.0364 0.313813 1.54444 0
M  V30 718 C 66.2614 -0.296681 2.05267 0
M  V30 719 C 66.6864 -1.45757 1.18897 0
M  V30 720 O 66.0444 -1.80239 0.195886 0
M  V30 721 C 66.0924 -0.71831 3.53373 0
M  V30 722 O 65.1964 -1.82175 3.69981 0
M  V30 723 H 64.5374 -0.0554061 0.661684 0
M  V30 724 H 67.0674 0.459387 1.99376 0
M  V30 725 H 67.0774 -1.00364 3.95463 0
M  V30 726 H 65.7524 0.130821 4.15694 0
M  V30 727 H 64.3294 -1.53598 3.39797 0
M  V30 728 N 66.5145 -1.57545 0.0417849 0
M  V30 729 C 67.7395 -1.97035 -0.647455 0
M  V30 730 C 68.1645 -0.918775 -1.64135 0
M  V30 731 O 67.5225 0.119006 -1.80909 0
M  V30 732 C 67.5705 -3.35609 -1.31905 0
M  V30 733 O 66.6745 -3.3287 -2.43457 0
M  V30 734 H 66.0155 -0.64211 -0.169086 0
M  V30 735 H 68.5455 -2.04318 0.107399 0
M  V30 736 H 68.5555 -3.72126 -1.67291 0
M  V30 737 H 67.2305 -4.11685 -0.590586 0
M  V30 738 H 65.8075 -3.08087 -2.10088 0
M  V30 739 N 67.9926 0.231505 -1.5589 0
M  V30 740 C 68.9406 1.30649 -1.92441 0
M  V30 741 C 69.9346 1.49037 -0.805254 0
M  V30 742 O 71.1406 1.50329 -0.990007 0
M  V30 743 H 67.5156 0.437812 -0.611412 0
M  V30 744 H 69.4866 0.970973 -2.82161 0
M  V30 745 C 68.2356 2.65179 -2.24889 0
M  V30 746 H 67.5586 2.51835 -3.10514 0
M  V30 747 H 68.9986 3.39234 -2.54355 0
M  V30 748 C 67.4576 3.19439 -1.07054 0
M  V30 749 O 67.9876 4.00371 -0.326499 0
M  V30 750 N 66.1936 2.77675 -0.85703 0
M  V30 751 H 65.7406 2.11969 -1.46379 0
M  V30 752 H 65.6986 3.14321 -0.0703223 0
M  V30 753 N 69.4707 1.49531 0.497807 0
M  V30 754 C 70.7477 1.49682 1.25915 0
M  V30 755 C 71.1277 0.226339 2.09883 0
M  V30 756 O 70.4757 -0.791189 2.14365 0
M  V30 757 C 70.6857 2.77755 2.11313 0
M  V30 758 C 72.0337 3.27371 2.70395 0
M  V30 759 O 73.0577 2.78894 2.21578 0
M  V30 760 O 71.9167 4.11808 3.59272 0
M  V30 761 H 69.0107 0.599228 0.56996 0
M  V30 762 H 71.5567 1.61798 0.511816 0
M  V30 763 H 70.3287 3.61713 1.49264 0
M  V30 764 H 69.9517 2.68515 2.93233 0
M  V30 765 N 70.9488 -0.749086 1.3866 0
M  V30 766 C 72.1788 -1.53611 1.38157 0
M  V30 767 C 72.5868 -1.89177 -0.0293595 0
M  V30 768 O 71.9298 -1.53606 -1.00752 0
M  V30 769 C 71.9918 -2.86087 2.17702 0
M  V30 770 C 71.6558 -2.73034 3.66472 0
M  V30 771 C 72.6528 -2.42526 4.59866 0
M  V30 772 C 70.3378 -2.90345 4.09884 0
M  V30 773 C 72.3318 -2.29492 5.94653 0
M  V30 774 C 70.0188 -2.7693 5.4475 0
M  V30 775 C 71.0168 -2.46547 6.36949 0
M  V30 776 O 70.7048 -2.33199 7.69333 0
M  V30 777 H 70.4368 -0.481773 0.474205 0
M  V30 778 H 72.9908 -0.934465 1.82912 0
M  V30 779 H 71.2208 -3.48458 1.67672 0
M  V30 780 H 72.9098 -3.47625 2.09551 0
M  V30 781 H 73.6758 -2.28816 4.27631 0
M  V30 782 H 69.5548 -3.1299 3.38464 0
M  V30 783 H 73.0988 -2.05698 6.66584 0
M  V30 784 H 68.9958 -2.90215 5.76581 0
M  V30 785 H 69.7638 -2.48376 7.79905 0
M  V30 786 N 72.4269 -1.23603 -0.977757 0
M  V30 787 C 73.3569 -1.04401 -2.0886 0
M  V30 788 C 74.3379 0.0399052 -1.70053 0
M  V30 789 O 75.5229 -0.125246 -1.93796 0
M  V30 790 C 72.6529 -0.637269 -3.41403 0
M  V30 791 C 71.6069 -1.66883 -3.94124 0
M  V30 792 C 70.9329 -1.11745 -5.22893 0
M  V30 793 C 72.2329 -3.06247 -4.23096 0
M  V30 794 H 73.9269 -1.97316 -2.25182 0
M  V30 795 H 71.4729 -0.950096 -1.08209 0
M  V30 796 H 73.4259 -0.48998 -4.18542 0
M  V30 797 H 72.1499 0.327557 -3.24953 0
M  V30 798 H 70.8089 -1.80416 -3.19133 0
M  V30 799 H 70.4569 -0.143527 -5.02795 0
M  V30 800 H 70.1569 -1.80672 -5.59134 0
M  V30 801 H 71.6809 -0.982067 -6.02651 0
M  V30 802 H 73.0949 -2.96001 -4.90975 0
M  V30 803 H 71.4919 -3.72436 -4.70544 0
M  V30 804 H 72.5619 -3.55041 -3.30263 0
M  V30 805 N 73.905 1.17692 -1.04816 0
M  V30 806 C 75.153 1.87488 -0.754497 0
M  V30 807 C 75.474 1.81205 0.720407 0
M  V30 808 O 74.744 1.23544 1.52032 0
M  V30 809 H 73.324 0.694101 -0.276102 0
M  V30 810 H 75.986 1.42793 -1.32651 0
M  V30 811 H 75.082 2.93328 -1.06606 0
M  V30 812 N 75.3831 0.828654 1.34056 0
M  V30 813 C 76.3131 0.269443 2.3194 0
M  V30 814 C 77.2941 -0.617247 1.58506 0
M  V30 815 O 78.4791 -0.542931 1.86456 0
M  V30 816 C 75.6091 -0.564793 3.42677 0
M  V30 817 C 74.5631 0.225241 4.27407 0
M  V30 818 C 73.8891 -0.7321 5.29664 0
M  V30 819 C 75.1891 1.43663 5.02154 0
M  V30 820 H 76.8831 1.08728 2.7896 0
M  V30 821 H 74.4291 0.524283 1.34117 0
M  V30 822 H 76.3821 -0.966233 4.10173 0
M  V30 823 H 75.1061 -1.41574 2.9432 0
M  V30 824 H 73.7651 0.608117 3.61521 0
M  V30 825 H 73.4131 -1.57916 4.77568 0
M  V30 826 H 73.1131 -0.20767 5.87233 0
M  V30 827 H 74.6371 -1.13128 6.00029 0
M  V30 828 H 76.0511 1.1089 5.62473 0
M  V30 829 H 74.4481 1.89711 5.69324 0
M  V30 830 H 75.5181 2.21181 4.31517 0
M  V30 831 N 76.8612 -1.46375 0.584142 0
M  V30 832 C 78.0862 -2.07268 0.0740405 0
M  V30 833 C 78.5112 -1.42979 -1.22223 0
M  V30 834 O 77.8692 -0.514092 -1.73859 0
M  V30 835 C 77.9172 -3.60518 -0.0767769 0
M  V30 836 O 77.0212 -3.96533 -1.13292 0
M  V30 837 H 76.3622 -0.660961 0.0634524 0
M  V30 838 H 78.8922 -1.87991 0.807492 0
M  V30 839 H 78.9022 -4.07021 -0.282489 0
M  V30 840 H 77.5772 -4.06702 0.86986 0
M  V30 841 H 76.1542 -3.61738 -0.905553 0
M  V30 842 N 78.3393 -0.321999 -1.54275 0
M  V30 843 C 79.2893 0.560185 -2.21011 0
M  V30 844 C 80.2733 1.08283 -1.19011 0
M  V30 845 O 81.4653 1.02011 -1.44647 0
M  V30 846 C 78.5943 1.72137 -2.97025 0
M  V30 847 C 77.6803 1.21369 -4.06363 0
M  V30 848 N 78.0713 0.425566 -5.04007 0
M  V30 849 C 76.3693 1.49255 -4.20284 0
M  V30 850 C 77.0703 0.152601 -5.815 0
M  V30 851 N 76.0463 0.738294 -5.38563 0
M  V30 852 H 79.8483 -0.049265 -2.93859 0
M  V30 853 H 77.3623 -0.127779 -1.61897 0
M  V30 854 H 79.3593 2.36512 -3.43319 0
M  V30 855 H 78.0193 2.33431 -2.25699 0
M  V30 856 H 79.0303 0.068551 -5.17855 0
M  V30 857 H 75.7073 2.11145 -3.60172 0
M  V30 858 H 77.0973 -0.481764 -6.70171 0
M  V30 859 N 79.8174 1.5752 -0.0501392 0
M  V30 860 C 80.7674 2.07981 0.934231 0
M  V30 861 C 81.7514 0.984745 1.27246 0
M  V30 862 O 82.9434 1.24809 1.25506 0
M  V30 863 C 80.0724 2.62751 2.20945 0
M  V30 864 C 79.1584 3.79225 1.89865 0
M  V30 865 N 79.5494 4.89036 1.29142 0
M  V30 866 C 77.8474 3.88111 2.19741 0
M  V30 867 C 78.5484 5.70084 1.15669 0
M  V30 868 N 77.5244 5.17659 1.65923 0
M  V30 869 H 81.3264 2.90277 0.460053 0
M  V30 870 H 78.8404 1.61665 0.15434 0
M  V30 871 H 80.8374 2.97205 2.9236 0
M  V30 872 H 79.4974 1.81894 2.6897 0
M  V30 873 H 80.5084 5.08854 0.963756 0
M  V30 874 H 77.1854 3.18194 2.70293 0
M  V30 875 H 78.5754 6.68395 0.685356 0
M  V30 876 N 81.2955 -0.223234 1.56011 0
M  V30 877 C 82.7065 -0.790368 1.69145 0
M  V30 878 C 83.0575 -1.85055 0.651845 0
M  V30 879 O 82.1825 -2.15498 -0.197359 0
M  V30 880 C 82.7775 -1.4404 3.06656 0
M  V30 881 C 81.3365 -1.95494 3.2165 0
M  V30 882 C 80.4835 -0.814506 2.65068 0
M  V30 883 H 83.4345 0.00139011 1.587 0
M  V30 884 H 83.4555 -2.30916 3.0242 0
M  V30 885 H 82.9675 -0.668543 3.82298 0
M  V30 886 H 81.0685 -2.75487 2.50874 0
M  V30 887 H 81.1815 -2.13607 4.28846 0
M  V30 888 H 79.5455 -1.22137 2.23505 0
M  V30 889 H 80.3285 -0.0553515 3.43255 0
M  V30 890 N 82.7736 -1.49793 -0.48987 0
M  V30 891 C 83.7056 -1.63413 -1.60713 0
M  V30 892 C 84.7186 -0.516329 -1.54395 0
M  V30 893 O 85.9076 -0.788812 -1.60125 0
M  V30 894 C 83.0076 -1.58516 -2.99543 0
M  V30 895 C 82.1806 -2.86016 -3.30928 0
M  V30 896 C 81.2396 -2.74018 -4.49222 0
M  V30 897 O 80.2656 -3.47964 -4.50455 0
M  V30 898 N 81.4676 -1.86309 -5.4979 0
M  V30 899 H 84.2326 -2.59777 -1.49452 0
M  V30 900 H 81.7936 -1.47022 -0.677955 0
M  V30 901 H 83.7856 -1.48128 -3.76617 0
M  V30 902 H 82.3556 -0.69965 -3.0467 0
M  V30 903 H 81.5756 -3.10672 -2.42645 0
M  V30 904 H 82.8636 -3.70521 -3.487 0
M  V30 905 H 82.2616 -1.2551 -5.51601 0
M  V30 906 H 80.8186 -1.81837 -6.25922 0
M  V30 907 N 84.2517 0.741722 -1.39055 0
M  V30 908 C 85.5007 1.49656 -1.35225 0
M  V30 909 C 85.8137 1.95533 0.0512708 0
M  V30 910 O 87.0197 2.7067 0.212138 0
M  V30 911 C 85.4757 2.70389 -2.37525 0
M  V30 912 C 85.0837 2.31489 -3.83558 0
M  V30 913 C 86.8277 3.48236 -2.42759 0
M  V30 914 C 84.7347 3.48903 -4.77515 0
M  V30 915 H 83.6647 0.56197 -0.502699 0
M  V30 916 H 86.3157 0.809727 -1.64668 0
M  V30 917 H 84.6977 3.41113 -2.01142 0
M  V30 918 H 85.8717 1.68354 -4.28945 0
M  V30 919 H 84.1867 1.66749 -3.81554 0
M  V30 920 H 86.7837 4.35558 -3.1015 0
M  V30 921 H 87.1267 3.90229 -1.45008 0
M  V30 922 H 87.6597 2.84535 -2.78002 0
M  V30 923 H 84.3987 3.11966 -5.76504 0
M  V30 924 H 83.9187 4.11041 -4.36813 0
M  V30 925 H 85.5977 4.15328 -4.96096 0
M  V30 926 N 85.7298 1.2412 0.971189 0
M  V30 927 C 86.9788 1.07284 1.70801 0
M  V30 928 C 87.2918 -0.388902 1.91695 0
M  V30 929 O 88.4978 -0.677379 2.62914 0
M  V30 930 C 86.9538 1.87145 3.07416 0
M  V30 931 C 86.5618 3.37707 2.94377 0
M  V30 932 C 88.3058 1.78828 3.84995 0
M  V30 933 C 86.2128 4.09925 4.26281 0
M  V30 934 H 85.1428 0.397854 0.64049 0
M  V30 935 H 87.7938 1.4817 1.0825 0
M  V30 936 H 86.1758 1.39071 3.70777 0
M  V30 937 H 87.3498 3.93335 2.4005 0
M  V30 938 H 85.6648 3.46938 2.30267 0
M  V30 939 H 88.2618 2.30089 4.82662 0
M  V30 940 H 88.6048 0.75284 4.09436 0
M  V30 941 H 89.1378 2.24563 3.28354 0
M  V30 942 H 85.8768 5.13813 4.07033 0
M  V30 943 H 85.3968 3.59083 4.80437 0
M  V30 944 H 87.0758 4.1673 4.94919 0
M  V30 945 N 87.2079 -1.17134 1.05439 0
M  V30 946 C 88.6239 -1.39454 0.776201 0
M  V30 947 C 88.8239 -1.91454 -0.628307 0
M  V30 948 O 87.8799 -2.10777 -1.39031 0
M  V30 949 C 89.1929 -2.38305 1.83388 0
M  V30 950 C 90.7409 -2.52006 1.85639 0
M  V30 951 C 91.2159 -3.54133 2.90437 0
M  V30 952 N 92.7069 -3.61653 2.89415 0
M  V30 953 C 93.4419 -4.4044 3.67152 0
M  V30 954 N 92.9379 -5.22721 4.54681 0
M  V30 955 N 94.7309 -4.35337 3.55581 0
M  V30 956 H 86.8819 -0.817134 1.96053 0
M  V30 957 H 89.1449 -0.421626 0.849079 0
M  V30 958 H 88.8509 -2.07173 2.84204 0
M  V30 959 H 88.7249 -3.37841 1.67761 0
M  V30 960 H 91.1119 -2.82447 0.85486 0
M  V30 961 H 91.1929 -1.52537 2.05344 0
M  V30 962 H 90.8369 -3.24431 3.90777 0
M  V30 963 H 90.7669 -4.53313 2.67983 0
M  V30 964 H 93.2579 -3.02909 2.25952 0
M  V30 965 H 93.5709 -5.80027 5.10674 0
M  V30 966 H 91.9159 -5.22093 4.58741 0
M  V30 967 H 95.1069 -3.70112 2.86592 0
M  V30 968 H 95.2799 -4.96494 4.1641 0
M  V30 969 N 88.686 -0.835752 -1.33615 0
M  V30 970 C 89.649 -0.272 -2.2758 0
M  V30 971 C 90.649 0.557487 -1.50827 0
M  V30 972 O 91.839 0.37173 -1.70188 0
M  V30 973 C 88.971 0.617173 -3.35267 0
M  V30 974 H 90.164 -1.10111 -2.78954 0
M  V30 975 H 87.717 -0.608594 -1.43965 0
M  V30 976 H 88.452 1.46884 -2.89129 0
M  V30 977 H 88.237 0.0237066 -3.92093 0
M  V30 978 H 89.727 1.005 -4.05326 0
M  V30 979 N 90.1641 1.46063 -0.591896 0
M  V30 980 C 91.4101 2.03203 -0.0894879 0
M  V30 981 C 91.7651 1.45407 1.25994 0
M  V30 982 O 91.0581 0.61326 1.8152 0
M  V30 983 C 91.2521 3.57391 0.0249813 0
M  V30 984 C 91.0811 4.30142 -1.3118 0
M  V30 985 C 89.8511 4.68688 -1.88838 0
M  V30 986 C 92.0491 4.63098 -2.23708 0
M  V30 987 N 90.0311 5.26228 -3.1616 0
M  V30 988 C 91.4021 5.21305 -3.3562 0
M  V30 989 C 93.4571 4.45031 -2.23274 0
M  V30 990 C 92.1601 5.63351 -4.47245 0
M  V30 991 C 94.1861 4.881 -3.33935 0
M  V30 992 C 93.5481 5.46386 -4.44569 0
M  V30 993 H 89.6471 0.778323 -0.0757431 0
M  V30 994 H 92.2311 1.78094 -0.78681 0
M  V30 995 H 90.4021 3.82195 0.69149 0
M  V30 996 H 92.1341 4.0118 0.532613 0
M  V30 997 H 88.8891 4.5174 -1.42223 0
M  V30 998 H 89.3131 5.59512 -3.8115 0
M  V30 999 H 93.9551 3.99295 -1.39008 0
M  V30 1000 H 91.6731 6.08061 -5.32247 0
M  V30 1001 H 95.2591 4.75866 -3.34728 0
M  V30 1002 H 94.1391 5.79102 -5.28782 0
M  V30 1003 N 91.6422 0.330177 1.54103 0
M  V30 1004 C 92.5742 -0.566902 2.22079 0
M  V30 1005 C 93.5872 -1.07462 1.22294 0
M  V30 1006 O 94.7762 -0.987065 1.48726 0
M  V30 1007 C 91.8762 -1.79138 2.87685 0
M  V30 1008 C 91.0492 -1.42123 4.13666 0
M  V30 1009 C 90.1082 -2.50394 4.62806 0
M  V30 1010 O 89.1342 -2.14261 5.27334 0
M  V30 1011 N 90.3362 -3.81433 4.37595 0
M  V30 1012 H 93.1012 0.0151844 2.99696 0
M  V30 1013 H 90.6622 0.153681 1.61169 0
M  V30 1014 H 92.6542 -2.50975 3.1748 0
M  V30 1015 H 91.2242 -2.28115 2.13734 0
M  V30 1016 H 90.4442 -0.534201 3.90564 0
M  V30 1017 H 91.7322 -1.14971 4.9564 0
M  V30 1018 H 91.1302 -4.13584 3.8596 0
M  V30 1019 H 89.6872 -4.4948 4.72029 0
M  V30 1020 N 93.1203 -1.57491 0.0584922 0
M  V30 1021 C 94.0523 -2.08916 -0.942694 0
M  V30 1022 C 95.0653 -1.0185 -1.27006 0
M  V30 1023 O 96.2543 -1.29398 -1.22957 0
M  V30 1024 C 93.3543 -2.52341 -2.26224 0
M  V30 1025 C 92.5273 -3.82827 -2.1157 0
M  V30 1026 C 91.5863 -4.12487 -3.26712 0
M  V30 1027 O 90.6123 -4.82295 -3.02292 0
M  V30 1028 N 91.8143 -3.64978 -4.5141 0
M  V30 1029 H 94.5793 -2.95437 -0.503722 0
M  V30 1030 H 92.1403 -1.61397 -0.12757 0
M  V30 1031 H 94.1323 -2.69254 -3.02133 0
M  V30 1032 H 92.7023 -1.7103 -2.61663 0
M  V30 1033 H 91.9223 -3.75425 -1.20208 0
M  V30 1034 H 93.2103 -4.68263 -1.99015 0
M  V30 1035 H 92.6083 -3.08558 -4.7414 0
M  V30 1036 H 91.1653 -3.87115 -5.2439 0
M  V30 1037 N 94.5984 0.214957 -1.56127 0
M  V30 1038 C 95.8464 0.936518 -1.79091 0
M  V30 1039 C 96.1674 1.84606 -0.628148 0
M  V30 1040 O 95.4374 1.92664 0.35462 0
M  V30 1041 H 94.0174 0.3488 -0.660566 0
M  V30 1042 H 96.6794 0.22523 -1.93594 0
M  V30 1043 H 95.7754 1.53943 -2.71492 0
M  V30 1044 N 96.0765 1.50051 0.48192 0
M  V30 1045 C 97.0395 1.67584 1.5636 0
M  V30 1046 C 98.0395 0.546894 1.51214 0
M  V30 1047 O 99.2295 0.813725 1.54026 0
M  V30 1048 C 96.3615 1.691 2.96003 0
M  V30 1049 H 97.5545 2.64078 1.42136 0
M  V30 1050 H 95.1075 1.39369 0.707533 0
M  V30 1051 H 95.8425 0.742589 3.15684 0
M  V30 1052 H 95.6275 2.51105 3.01146 0
M  V30 1053 H 97.1175 1.84656 3.74556 0
M  V30 1054 N 97.5546 -0.734337 1.39446 0
M  V30 1055 C 98.4646 -1.87879 1.40495 0
M  V30 1056 C 99.4806 -1.714 0.299672 0
M  V30 1057 O 100.657 -1.93991 0.541249 0
M  V30 1058 C 97.7216 -3.23477 1.24754 0
M  V30 1059 C 96.7826 -3.52344 2.45259 0
M  V30 1060 C 96.0156 -4.81473 2.30259 0
M  V30 1061 O 96.2386 -5.55237 1.30643 0
M  V30 1062 O 95.1726 -5.10254 3.19256 0
M  V30 1063 H 98.9986 -1.89949 2.36966 0
M  V30 1064 H 96.5836 -0.882243 1.20569 0
M  V30 1065 H 98.4656 -4.04509 1.18111 0
M  V30 1066 H 97.1406 -3.22176 0.313781 0
M  V30 1067 H 96.0476 -2.71396 2.57478 0
M  V30 1068 H 97.3806 -3.58426 3.37331 0
M  V30 1069 N 99.0327 -1.24633 -0.964593 0
M  V30 1070 C 99.9647 -0.999302 -2.06268 0
M  V30 1071 C 100.978 0.0323226 -1.62768 0
M  V30 1072 O 102.167 -0.205079 -1.77318 0
M  V30 1073 C 99.2667 -0.486816 -3.35385 0
M  V30 1074 C 98.4397 -1.5823 -4.07777 0
M  V30 1075 C 97.4987 -1.07191 -5.15166 0
M  V30 1076 O 96.5247 -1.76426 -5.41168 0
M  V30 1077 N 97.7267 0.0920373 -5.80427 0
M  V30 1078 H 100.492 -1.94477 -2.28033 0
M  V30 1079 H 98.0527 -1.15704 -1.13244 0
M  V30 1080 H 100.045 -0.130066 -4.04491 0
M  V30 1081 H 98.6147 0.364459 -3.10468 0
M  V30 1082 H 97.8347 -2.11109 -3.32906 0
M  V30 1083 H 99.1227 -2.31854 -4.52903 0
M  V30 1084 H 98.5207 0.670784 -5.61709 0
M  V30 1085 H 97.0777 0.389905 -6.50633 0
M  V30 1086 N 100.511 1.16574 -1.06058 0
M  V30 1087 C 101.758 1.87047 -0.775873 0
M  V30 1088 C 102.086 1.81562 0.697534 0
M  V30 1089 O 101.341 1.22445 1.52662 0
M  V30 1090 C 101.64 3.36195 -1.21275 0
M  V30 1091 C 101.306 3.6188 -2.68986 0
M  V30 1092 C 99.9678 3.68599 -3.09335 0
M  V30 1093 C 102.32 3.72648 -3.64394 0
M  V30 1094 C 99.6478 3.83584 -4.43937 0
M  V30 1095 C 102 3.89154 -4.98741 0
M  V30 1096 C 100.664 3.94114 -5.3873 0
M  V30 1097 H 99.9338 0.684452 -0.283912 0
M  V30 1098 H 102.581 1.37853 -1.32925 0
M  V30 1099 H 100.886 3.87505 -0.578528 0
M  V30 1100 H 102.583 3.89103 -0.969542 0
M  V30 1101 H 99.1728 3.57281 -2.36744 0
M  V30 1102 H 103.357 3.66769 -3.34356 0
M  V30 1103 H 98.6128 3.85677 -4.74409 0
M  V30 1104 H 102.787 3.96427 -5.72554 0
M  V30 1105 H 100.414 4.05478 -6.43033 0
M  V30 1106 N 101.989 0.842826 1.3317 0
M  V30 1107 C 103.237 0.439577 1.97262 0
M  V30 1108 C 103.558 -1.00548 1.67078 0
M  V30 1109 O 102.828 -1.70098 0.971779 0
M  V30 1110 H 101.408 0.159558 0.72976 0
M  V30 1111 H 104.07 1.07665 1.62463 0
M  V30 1112 H 103.166 0.574886 3.0676 0
M  V30 1113 N 103.467 -1.45747 0.599634 0
M  V30 1114 C 104.716 -2.01502 0.0893511 0
M  V30 1115 C 105.029 -1.4748 -1.28488 0
M  V30 1116 O 106.235 -1.95161 -1.88745 0
M  V30 1117 C 104.691 -3.59735 0.109082 0
M  V30 1118 C 104.299 -4.22754 1.48267 0
M  V30 1119 C 106.043 -4.23085 -0.346374 0
M  V30 1120 C 103.95 -5.73115 1.45921 0
M  V30 1121 H 102.88 -0.753417 0.0296347 0
M  V30 1122 H 105.531 -1.67303 0.753788 0
M  V30 1123 H 103.913 -3.91087 -0.621854 0
M  V30 1124 H 105.087 -4.02987 2.23468 0
M  V30 1125 H 103.402 -3.71567 1.87955 0
M  V30 1126 H 105.999 -5.33327 -0.38298 0
M  V30 1127 H 106.342 -3.93201 -1.36743 0
M  V30 1128 H 106.875 -3.9642 0.331038 0
M  V30 1129 H 103.614 -6.07685 2.45762 0
M  V30 1130 H 103.134 -5.95097 0.749665 0
M  V30 1131 H 104.813 -6.3616 1.17941 0
M  V30 1132 N 104.945 -0.338344 -1.53925 0
M  V30 1133 C 106.193 0.259245 -2.0043 0
M  V30 1134 C 106.514 1.51484 -1.22791 0
M  V30 1135 O 105.784 1.93037 -0.33368 0
M  V30 1136 H 104.364 0.0987845 -0.740439 0
M  V30 1137 H 107.026 -0.458302 -1.89435 0
M  V30 1138 H 106.122 0.505334 -3.07982 0
M  V30 1139 N 106.423 1.57458 -0.0668435 0
M  V30 1140 C 107.648 1.9804 0.616027 0
M  V30 1141 C 108.073 0.944771 1.62652 0
M  V30 1142 O 107.431 -0.0902094 1.81075 0
M  V30 1143 C 107.479 3.37665 1.26549 0
M  V30 1144 O 106.583 3.36701 2.38131 0
M  V30 1145 H 105.924 0.644719 0.158849 0
M  V30 1146 H 108.454 2.04121 -0.139891 0
M  V30 1147 H 108.464 3.7474 1.6135 0
M  V30 1148 H 107.139 4.12573 0.525016 0
M  V30 1149 H 105.716 3.1139 2.0516 0
M  V30 1150 N 107.901 -0.206675 1.56239 0
M  V30 1151 C 109.149 -0.927007 1.79586 0
M  V30 1152 C 109.47 -1.8427 0.637929 0
M  V30 1153 O 108.74 -1.92849 -0.344398 0
M  V30 1154 H 107.32 -0.345292 0.662407 0
M  V30 1155 H 109.982 -0.21496 1.93711 0
M  V30 1156 H 109.078 -1.52501 2.72305 0
M  V30 1157 N 109.379 -1.50304 -0.473955 0
M  V30 1158 C 110.627 -1.60832 -1.22382 0
M  V30 1159 C 110.948 -0.30939 -1.9253 0
M  V30 1160 O 110.218 0.67296 -1.83978 0
M  V30 1161 H 108.798 -0.592652 -0.454723 0
M  V30 1162 H 111.46 -1.87068 -0.546968 0
M  V30 1163 H 110.556 -2.41803 -1.97327 0
M  V30 1164 N 110.857 0.726932 -1.39834 0
M  V30 1165 C 112.082 1.52121 -1.40976 0
M  V30 1166 C 112.507 1.88098 -0.00826029 0
M  V30 1167 O 111.865 1.52479 0.980807 0
M  V30 1168 C 111.913 2.78021 -2.29644 0
M  V30 1169 O 111.017 3.74272 -1.73188 0
M  V30 1170 H 110.358 0.45908 -0.479731 0
M  V30 1171 H 112.888 0.896207 -1.83927 0
M  V30 1172 H 112.898 3.26671 -2.44438 0
M  V30 1173 H 111.573 2.51169 -3.31492 0
M  V30 1174 H 110.15 3.33073 -1.6768 0
M  V30 1175 N 112.336 1.25143 0.95797 0
M  V30 1176 C 113.584 1.09476 1.69881 0
M  V30 1177 C 113.905 -0.365502 1.91544 0
M  V30 1178 O 113.175 -1.25985 1.50015 0
M  V30 1179 H 111.755 0.402128 0.629525 0
M  V30 1180 H 114.417 1.57214 1.15194 0
M  V30 1181 H 113.513 1.60046 2.6794 0
M  V30 1182 N 113.814 -1.1601 1.06675 0
M  V30 1183 C 114.764 -2.18512 0.650888 0
M  V30 1184 C 115.748 -1.57677 -0.320441 0
M  V30 1185 O 116.94 -1.76482 -0.135266 0
M  V30 1186 C 114.069 -3.43273 0.0429255 0
M  V30 1187 C 113.155 -4.11176 1.03898 0
M  V30 1188 N 113.546 -4.54672 2.216 0
M  V30 1189 C 111.844 -4.37417 0.870779 0
M  V30 1190 C 112.545 -5.07248 2.84736 0
M  V30 1191 N 111.521 -5.0037 2.12441 0
M  V30 1192 H 115.323 -2.49863 1.54745 0
M  V30 1193 H 112.837 -1.32503 0.938975 0
M  V30 1194 H 114.834 -4.16006 -0.272857 0
M  V30 1195 H 113.494 -3.13408 -0.84884 0
M  V30 1196 H 114.505 -4.4828 2.59356 0
M  V30 1197 H 111.182 -4.17488 0.0313293 0
M  V30 1198 H 112.572 -5.50912 3.84636 0
M  V30 1199 N 115.292 -0.849877 -1.32721 0
M  V30 1200 C 116.538 -0.451591 -1.97708 0
M  V30 1201 C 116.871 0.989175 -1.6712 0
M  V30 1202 O 116.146 1.69334 -0.956891 0
M  V30 1203 C 116.429 -0.685598 -3.53513 0
M  V30 1204 C 116.282 -2.17444 -3.93749 0
M  V30 1205 C 117.601 -0.138874 -4.39881 0
M  V30 1206 H 114.72 -0.16555 -0.718166 0
M  V30 1207 H 117.362 -1.06742 -1.57182 0
M  V30 1208 H 115.512 -0.161416 -3.88165 0
M  V30 1209 H 117.184 -2.76433 -3.693 0
M  V30 1210 H 115.427 -2.65476 -3.43081 0
M  V30 1211 H 116.098 -2.28888 -5.02309 0
M  V30 1212 H 118.574 -0.587068 -4.11938 0
M  V30 1213 H 117.45 -0.332213 -5.47894 0
M  V30 1214 H 117.711 0.95806 -4.31594 0
M  V30 1215 N 116.77 1.45427 -0.607355 0
M  V30 1216 C 117.995 2.07124 -0.107006 0
M  V30 1217 C 118.42 1.44906 1.19933 0
M  V30 1218 O 117.778 0.541687 1.73019 0
M  V30 1219 C 117.826 3.60595 0.0194119 0
M  V30 1220 O 116.93 3.98285 1.0697 0
M  V30 1221 H 116.271 0.659868 -0.0739597 0
M  V30 1222 H 118.801 1.86683 -0.837297 0
M  V30 1223 H 118.811 4.07419 0.2177 0
M  V30 1224 H 117.486 4.05266 -0.934453 0
M  V30 1225 H 116.063 3.63133 0.847889 0
M  V30 1226 N 118.248 0.346503 1.53744 0
M  V30 1227 C 119.496 -0.248612 2.00565 0
M  V30 1228 C 119.817 -1.5083 1.23593 0
M  V30 1229 O 119.087 -1.92858 0.343912 0
M  V30 1230 H 117.667 -0.0948564 0.740953 0
M  V30 1231 H 120.329 0.468341 1.89189 0
M  V30 1232 H 119.425 -0.488994 3.08245 0
M  V30 1233 N 119.726 -1.57421 0.075193 0
M  V30 1234 C 120.956 -1.97659 -0.601203 0
M  V30 1235 C 121.364 -0.952427 -1.63479 0
M  V30 1236 O 120.707 0.0688241 -1.83571 0
M  V30 1237 C 120.769 -3.34218 -1.32434 0
M  V30 1238 C 120.433 -4.5484 -0.443826 0
M  V30 1239 C 121.43 -5.19034 0.299969 0
M  V30 1240 C 119.115 -5.00952 -0.367709 0
M  V30 1241 C 121.109 -6.27695 1.10807 0
M  V30 1242 C 118.796 -6.09484 0.444058 0
M  V30 1243 C 119.794 -6.72719 1.18061 0
M  V30 1244 O 119.482 -7.79161 1.97898 0
M  V30 1245 H 119.214 -0.65494 -0.167422 0
M  V30 1246 H 121.768 -2.04886 0.145157 0
M  V30 1247 H 119.998 -3.23615 -2.11685 0
M  V30 1248 H 121.687 -3.59038 -1.89331 0
M  V30 1249 H 122.453 -4.84351 0.250776 0
M  V30 1250 H 118.332 -4.51509 -0.930638 0
M  V30 1251 H 121.876 -6.76982 1.68347 0
M  V30 1252 H 117.773 -6.43601 0.494803 0
M  V30 1253 H 118.541 -7.96055 1.90367 0
M  V30 1254 N 121.204 0.198386 -1.56346 0
M  V30 1255 C 122.429 0.939682 -1.84891 0
M  V30 1256 C 122.854 1.76202 -0.658369 0
M  V30 1257 O 122.212 1.76993 0.392851 0
M  V30 1258 C 122.26 1.81428 -3.11635 0
M  V30 1259 O 121.364 2.91265 -2.91956 0
M  V30 1260 H 120.705 0.264807 -0.608912 0
M  V30 1261 H 123.235 0.204695 -2.03573 0
M  V30 1262 H 123.245 2.21958 -3.42343 0
M  V30 1263 H 121.92 1.21004 -3.97908 0
M  V30 1264 H 120.497 2.54514 -2.72538 0
M  V30 1265 N 122.682 1.50554 0.465978 0
M  V30 1266 C 123.928 1.62038 1.21949 0
M  V30 1267 C 124.261 0.322116 1.9151 0
M  V30 1268 O 123.536 -0.676723 1.82348 0
M  V30 1269 C 123.819 2.80421 2.25912 0
M  V30 1270 C 123.672 4.20144 1.60622 0
M  V30 1271 C 124.991 2.94354 3.27176 0
M  V30 1272 H 122.11 0.589752 0.441998 0
M  V30 1273 H 124.752 1.82956 0.51257 0
M  V30 1274 H 122.902 2.62717 2.86203 0
M  V30 1275 H 124.574 4.49449 1.03889 0
M  V30 1276 H 122.817 4.24165 0.909211 0
M  V30 1277 H 123.488 4.98914 2.36196 0
M  V30 1278 H 125.964 3.10578 2.76913 0
M  V30 1279 H 124.84 3.788 3.97242 0
M  V30 1280 H 125.101 2.05186 3.916 0
M  V30 1281 N 124.16 -0.719506 1.40217 0
M  V30 1282 C 125.406 -1.48152 1.38488 0
M  V30 1283 C 125.739 -1.94195 -0.0141867 0
M  V30 1284 O 125.014 -1.67884 -0.982096 0
M  V30 1285 C 125.297 -2.71035 2.37091 0
M  V30 1286 C 125.15 -2.30912 3.86005 0
M  V30 1287 C 126.469 -3.73182 2.33288 0
M  V30 1288 H 123.588 -0.537395 0.504357 0
M  V30 1289 H 126.23 -0.821472 1.71324 0
M  V30 1290 H 124.38 -3.27352 2.0922 0
M  V30 1291 H 126.052 -1.80107 4.24687 0
M  V30 1292 H 124.295 -1.62958 4.02029 0
M  V30 1293 H 124.966 -3.18978 4.50508 0
M  V30 1294 H 127.442 -3.26485 2.57966 0
M  V30 1295 H 126.318 -4.56806 3.04334 0
M  V30 1296 H 126.579 -4.21202 1.34317 0
M  V30 1297 N 125.638 -1.25649 -0.95132 0
M  V30 1298 C 126.588 -1.03004 -2.03406 0
M  V30 1299 C 127.572 0.034187 -1.60864 0
M  V30 1300 O 128.764 -0.181549 -1.76066 0
M  V30 1301 C 125.893 -0.654255 -3.37008 0
M  V30 1302 C 124.979 -1.75542 -3.86065 0
M  V30 1303 N 125.37 -2.99113 -4.07879 0
M  V30 1304 C 123.668 -1.63669 -4.14884 0
M  V30 1305 C 124.369 -3.70611 -4.48356 0
M  V30 1306 N 123.345 -2.98247 -4.54477 0
M  V30 1307 H 127.147 -1.96813 -2.1827 0
M  V30 1308 H 124.661 -1.16017 -1.13639 0
M  V30 1309 H 126.658 -0.473206 -4.14206 0
M  V30 1310 H 125.318 0.276468 -3.23521 0
M  V30 1311 H 126.329 -3.35124 -3.94857 0
M  V30 1312 H 123.006 -0.775161 -4.10241 0
M  V30 1313 H 124.396 -4.76695 -4.73509 0
M  V30 1314 N 127.117 1.15442 -1.07289 0
M  V30 1315 C 128.049 2.19773 -0.650585 0
M  V30 1316 C 129.062 1.60076 0.296572 0
M  V30 1317 O 130.251 1.78293 0.0859905 0
M  V30 1318 C 127.351 3.38838 0.0650398 0
M  V30 1319 C 126.524 4.2808 -0.898141 0
M  V30 1320 C 125.583 5.2574 -0.219926 0
M  V30 1321 O 124.609 5.62654 -0.860773 0
M  V30 1322 N 125.811 5.71205 1.03466 0
M  V30 1323 H 128.576 2.56622 -1.54808 0
M  V30 1324 H 126.137 1.30551 -0.957494 0
M  V30 1325 H 128.129 4.01222 0.529415 0
M  V30 1326 H 126.699 3.00409 0.864466 0
M  V30 1327 H 125.919 3.62804 -1.54165 0
M  V30 1328 H 127.207 4.84577 -1.5512 0
M  V30 1329 H 126.605 5.43325 1.57526 0
M  V30 1330 H 125.162 6.35633 1.44272 0
M  V30 1331 N 128.595 0.856903 1.32268 0
M  V30 1332 C 129.558 0.308171 2.27119 0
M  V30 1333 C 130.558 -0.533421 1.51695 0
M  V30 1334 O 131.748 -0.344607 1.70757 0
M  V30 1335 C 128.88 -0.563757 3.36206 0
M  V30 1336 H 130.073 1.14535 2.77167 0
M  V30 1337 H 127.626 0.631421 1.42978 0
M  V30 1338 H 128.361 -1.42266 2.91429 0
M  V30 1339 H 128.146 0.0386749 3.92081 0
M  V30 1340 H 129.636 -0.940386 4.06874 0
M  V30 1341 N 130.073 -1.45103 0.615059 0
M  V30 1342 C 131.003 -2.33339 -0.0865619 0
M  V30 1343 C 131.984 -1.4727 -0.851209 0
M  V30 1344 O 133.169 -1.76026 -0.820281 0
M  V30 1345 C 130.299 -3.30095 -1.07956 0
M  V30 1346 C 129.253 -4.25858 -0.427628 0
M  V30 1347 C 128.579 -5.12361 -1.5294 0
M  V30 1348 C 129.879 -5.18165 0.655944 0
M  V30 1349 H 131.573 -2.92254 0.650224 0
M  V30 1350 H 129.119 -1.40532 0.314138 0
M  V30 1351 H 131.072 -3.90698 -1.57901 0
M  V30 1352 H 129.796 -2.69355 -1.84703 0
M  V30 1353 H 128.455 -3.66564 0.0510292 0
M  V30 1354 H 128.103 -4.47984 -2.28734 0
M  V30 1355 H 127.803 -5.77238 -1.09865 0
M  V30 1356 H 129.327 -5.75833 -2.03098 0
M  V30 1357 H 130.741 -5.72796 0.240257 0
M  V30 1358 H 129.138 -5.91559 1.00888 0
M  V30 1359 H 130.208 -4.60144 1.52957 0
M  V30 1360 N 131.551 -0.354651 -1.53558 0
M  V30 1361 C 132.461 0.50515 -2.29097 0
M  V30 1362 C 133.477 1.10223 -1.34636 0
M  V30 1363 O 134.653 1.11553 -1.67684 0
M  V30 1364 C 131.718 1.63479 -3.05738 0
M  V30 1365 C 130.779 1.06636 -4.15845 0
M  V30 1366 C 130.012 2.14217 -4.88822 0
M  V30 1367 O 130.235 3.35137 -4.61562 0
M  V30 1368 O 129.169 1.77887 -5.75013 0
M  V30 1369 H 132.995 -0.109237 -3.03503 0
M  V30 1370 H 130.58 -0.119357 -1.48922 0
M  V30 1371 H 132.462 2.2918 -3.5363 0
M  V30 1372 H 131.137 2.23478 -2.34178 0
M  V30 1373 H 130.044 0.373565 -3.7223 0
M  V30 1374 H 131.377 0.511081 -4.89539 0
M  V30 1375 N 133.029 1.57378 -0.0835403 0
M  V30 1376 C 133.939 2.16897 0.894021 0
M  V30 1377 C 134.955 1.13528 1.31861 0
M  V30 1378 O 136.131 1.45848 1.3889 0
M  V30 1379 C 133.196 2.72831 2.13925 0
M  V30 1380 C 132.257 3.91115 1.76997 0
M  V30 1381 C 131.49 4.44371 2.95584 0
M  V30 1382 O 131.713 3.96596 4.09961 0
M  V30 1383 O 130.647 5.35549 2.74719 0
M  V30 1384 H 134.473 3.00814 0.417679 0
M  V30 1385 H 132.058 1.48741 0.140181 0
M  V30 1386 H 133.94 3.0863 2.86924 0
M  V30 1387 H 132.615 1.91967 2.60635 0
M  V30 1388 H 131.522 3.60148 1.01214 0
M  V30 1389 H 132.855 4.73307 1.3506 0
M  V30 1390 N 134.507 -0.190092 1.56449 0
M  V30 1391 C 135.417 -1.25591 1.98152 0
M  V30 1392 C 136.433 -1.49519 0.889944 0
M  V30 1393 O 137.609 -1.62036 1.19609 0
M  V30 1394 C 134.674 -2.57916 2.3169 0
M  V30 1395 C 133.735 -2.42015 3.5458 0
M  V30 1396 C 132.968 -3.6803 3.8651 0
M  V30 1397 O 133.191 -4.72413 3.1966 0
M  V30 1398 O 132.125 -3.6326 4.79923 0
M  V30 1399 H 135.951 -0.931988 2.89046 0
M  V30 1400 H 133.536 -0.395488 1.4407 0
M  V30 1401 H 135.418 -3.36008 2.54316 0
M  V30 1402 H 134.093 -2.89925 1.43963 0
M  V30 1403 H 133 -1.62017 3.37196 0
M  V30 1404 H 134.333 -2.14937 4.4279 0
M  V30 1405 N 135.985 -1.50799 -0.457987 0
M  V30 1406 C 136.915 -1.73553 -1.5621 0
M  V30 1407 C 137.896 -0.584774 -1.59732 0
M  V30 1408 O 139.081 -0.825314 -1.7579 0
M  V30 1409 C 136.211 -1.84169 -2.94447 0
M  V30 1410 C 135.165 -2.99461 -3.0579 0
M  V30 1411 C 134.491 -2.95235 -4.45803 0
M  V30 1412 C 135.791 -4.39766 -2.81786 0
M  V30 1413 H 137.485 -2.66 -1.37421 0
M  V30 1414 H 135.031 -1.28002 -0.659662 0
M  V30 1415 H 136.984 -1.98672 -3.71628 0
M  V30 1416 H 135.708 -0.883545 -3.14422 0
M  V30 1417 H 134.367 -2.8463 -2.31044 0
M  V30 1418 H 134.015 -1.97239 -4.62715 0
M  V30 1419 H 133.715 -3.72642 -4.54326 0
M  V30 1420 H 135.239 -3.11803 -5.24987 0
M  V30 1421 H 136.653 -4.55054 -3.4871 0
M  V30 1422 H 135.05 -5.18722 -3.0174 0
M  V30 1423 H 136.12 -4.51229 -1.7754 0
M  V30 1424 N 137.463 0.71206 -1.40597 0
M  V30 1425 C 138.426 1.80785 -1.40888 0
M  V30 1426 C 139.426 1.57937 -0.302103 0
M  V30 1427 O 140.616 1.64913 -0.561182 0
M  V30 1428 C 137.748 3.18927 -1.20409 0
M  V30 1429 H 138.941 1.81924 -2.38419 0
M  V30 1430 H 136.494 0.91805 -1.26497 0
M  V30 1431 H 137.229 3.23436 -0.236522 0
M  V30 1432 H 137.014 3.36911 -2.00582 0
M  V30 1433 H 138.504 3.98949 -1.23408 0
M  V30 1434 N 138.941 1.26152 0.944643 0
M  V30 1435 C 139.851 1.09176 2.07648 0
M  V30 1436 C 140.867 0.0261935 1.7398 0
M  V30 1437 O 142.043 0.229208 2.00091 0
M  V30 1438 C 139.108 0.722915 3.39079 0
M  V30 1439 C 138.169 1.86752 3.86552 0
M  V30 1440 C 137.402 1.51617 5.11711 0
M  V30 1441 O 137.625 0.416331 5.68879 0
M  V30 1442 O 136.559 2.34975 5.54139 0
M  V30 1443 H 140.385 2.0412 2.24875 0
M  V30 1444 H 137.97 1.05182 1.061 0
M  V30 1445 H 139.852 0.529787 4.18056 0
M  V30 1446 H 138.527 -0.197159 3.23099 0
M  V30 1447 H 137.434 2.11558 3.08535 0
M  V30 1448 H 138.767 2.76719 4.07047 0
M  V30 1449 N 140.419 -1.14872 1.07899 0
M  V30 1450 C 141.665 -1.86289 0.81657 0
M  V30 1451 C 142.02 -1.8107 -0.65049 0
M  V30 1452 O 141.313 -1.22684 -1.47171 0
M  V30 1453 C 141.507 -3.34223 1.26609 0
M  V30 1454 C 141.336 -3.53846 2.77531 0
M  V30 1455 C 140.106 -3.68995 3.45212 0
M  V30 1456 C 142.304 -3.51201 3.75716 0
M  V30 1457 N 140.286 -3.76725 4.84718 0
M  V30 1458 C 141.657 -3.65112 5.01092 0
M  V30 1459 C 143.712 -3.34507 3.68794 0
M  V30 1460 C 142.415 -3.64056 6.20368 0
M  V30 1461 C 144.441 -3.34752 4.8754 0
M  V30 1462 C 143.803 -3.49199 6.11751 0
M  V30 1463 H 139.902 -0.698579 0.351443 0
M  V30 1464 H 142.486 -1.37713 1.37634 0
M  V30 1465 H 140.657 -3.81402 0.73395 0
M  V30 1466 H 142.389 -3.93377 0.95062 0
M  V30 1467 H 139.144 -3.70006 2.95622 0
M  V30 1468 H 139.568 -3.8432 5.5734 0
M  V30 1469 H 144.21 -3.22253 2.73702 0
M  V30 1470 H 141.928 -3.75087 7.15776 0
M  V30 1471 H 145.514 -3.23055 4.83866 0
M  V30 1472 H 144.394 -3.49328 7.02097 0
M  V30 1473 N 141.898 -0.863906 -1.31812 0
M  V30 1474 C 142.828 -0.330843 -2.31144 0
M  V30 1475 C 143.809 0.575005 -1.60087 0
M  V30 1476 O 144.994 0.493304 -1.8783 0
M  V30 1477 C 142.124 0.47374 -3.44054 0
M  V30 1478 C 141.078 -0.338481 -4.26659 0
M  V30 1479 C 140.404 0.591412 -5.31419 0
M  V30 1480 C 141.704 -1.56926 -4.98168 0
M  V30 1481 H 143.398 -1.16086 -2.75979 0
M  V30 1482 H 140.944 -0.559657 -1.32679 0
M  V30 1483 H 142.897 0.857143 -4.12591 0
M  V30 1484 H 141.621 1.33721 -2.9797 0
M  V30 1485 H 140.28 -0.703754 -3.59782 0
M  V30 1486 H 139.928 1.45199 -4.81587 0
M  V30 1487 H 139.628 0.0519022 -5.87577 0
M  V30 1488 H 141.152 0.97179 -6.02817 0
M  V30 1489 H 142.566 -1.25764 -5.59336 0
M  V30 1490 H 140.963 -2.04739 -5.64094 0
M  V30 1491 H 142.033 -2.32544 -4.25501 0
M  V30 1492 N 143.376 1.44774 -0.622745 0
M  V30 1493 C 144.624 2.01721 -0.123655 0
M  V30 1494 C 144.945 1.49172 1.25589 0
M  V30 1495 O 144.215 0.691974 1.83272 0
M  V30 1496 H 142.795 0.745777 -0.0427225 0
M  V30 1497 H 145.457 1.77382 -0.807559 0
M  V30 1498 H 144.553 3.11984 -0.0849534 0
M  V30 1499 N 144.854 0.36279 1.53368 0
M  V30 1500 C 146.084 -0.228281 2.05335 0
M  V30 1501 C 146.492 -1.43226 1.23625 0
M  V30 1502 O 145.835 -1.81717 0.269206 0
M  V30 1503 C 145.897 -0.688549 3.52845 0
M  V30 1504 C 145.561 0.398362 4.5526 0
M  V30 1505 C 146.558 1.24732 5.04716 0
M  V30 1506 C 144.243 0.557805 4.99193 0
M  V30 1507 C 146.237 2.2411 5.96702 0
M  V30 1508 C 143.924 1.55495 5.90986 0
M  V30 1509 C 144.922 2.39503 6.39631 0
M  V30 1510 O 144.61 3.37517 7.29615 0
M  V30 1511 H 144.342 -0.044395 0.674541 0
M  V30 1512 H 146.896 0.518668 1.98744 0
M  V30 1513 H 145.126 -1.48706 3.56964 0
M  V30 1514 H 146.815 -1.20231 3.87685 0
M  V30 1515 H 147.581 1.13532 4.71525 0
M  V30 1516 H 143.46 -0.0862959 4.60919 0
M  V30 1517 H 147.004 2.89718 6.34594 0
M  V30 1518 H 142.901 1.66744 6.23592 0
M  V30 1519 H 143.669 3.33213 7.47604 0
M  V30 1520 N 146.332 -1.57332 0.0918853 0
M  V30 1521 C 147.557 -1.98995 -0.584442 0
M  V30 1522 C 147.982 -0.970528 -1.61128 0
M  V30 1523 O 147.34 0.0613904 -1.81196 0
M  V30 1524 C 147.388 -3.39636 -1.21161 0
M  V30 1525 O 146.492 -3.40447 -2.32744 0
M  V30 1526 H 145.833 -0.647165 -0.148572 0
M  V30 1527 H 148.363 -2.03873 0.172347 0
M  V30 1528 H 148.373 -3.7726 -1.55367 0
M  V30 1529 H 147.048 -4.13356 -0.459313 0
M  V30 1530 H 145.625 -3.14614 -2.0018 0
M  V30 1531 N 147.81 0.181792 -1.56548 0
M  V30 1532 C 149.226 0.53316 -1.50431 0
M  V30 1533 C 149.426 1.85184 -0.794297 0
M  V30 1534 O 148.482 2.50058 -0.350318 0
M  V30 1535 C 149.795 0.575597 -2.9514 0
M  V30 1536 C 151.343 0.663519 -3.05886 0
M  V30 1537 C 151.818 0.736946 -4.52032 0
M  V30 1538 N 153.309 0.800118 -4.56237 0
M  V30 1539 C 154.044 0.877327 -5.66649 0
M  V30 1540 N 153.54 0.916016 -6.86718 0
M  V30 1541 N 155.333 0.915542 -5.54594 0
M  V30 1542 H 147.484 -0.683025 -2.01118 0
M  V30 1543 H 149.747 -0.244988 -0.915797 0
M  V30 1544 H 149.453 -0.324482 -3.502 0
M  V30 1545 H 149.327 1.42572 -3.49218 0
M  V30 1546 H 151.714 1.55403 -2.50867 0
M  V30 1547 H 151.795 -0.21307 -2.54911 0
M  V30 1548 H 151.439 -0.149262 -5.07681 0
M  V30 1549 H 151.369 1.62953 -5.00753 0
M  V30 1550 H 153.86 0.778926 -3.69785 0
M  V30 1551 H 154.173 0.975813 -7.66614 0
M  V30 1552 H 152.518 0.884469 -6.89349 0
M  V30 1553 H 155.709 0.882245 -4.59711 0
M  V30 1554 H 155.882 0.972253 -6.40665 0
M  V30 1555 N 149.288 1.51039 0.449983 0
M  V30 1556 C 150.251 1.70863 1.5277 0
M  V30 1557 C 151.251 0.578846 1.5002 0
M  V30 1558 O 152.441 0.846213 1.52266 0
M  V30 1559 C 149.573 1.75341 2.9235 0
M  V30 1560 H 150.766 2.67034 1.36502 0
M  V30 1561 H 148.319 1.40838 0.677812 0
M  V30 1562 H 149.054 0.809383 3.14037 0
M  V30 1563 H 148.839 2.57436 2.95752 0
M  V30 1564 H 150.329 1.92559 3.70555 0
M  V30 1565 N 150.766 -0.704594 1.40972 0
M  V30 1566 C 151.696 -1.83124 1.44872 0
M  V30 1567 C 152.677 -1.67281 0.30838 0
M  V30 1568 O 153.862 -1.87149 0.518556 0
M  V30 1569 C 150.992 -3.21181 1.32136 0
M  V30 1570 C 149.946 -3.51714 2.43888 0
M  V30 1571 C 149.272 -4.89032 2.16222 0
M  V30 1572 C 150.572 -3.516 3.86232 0
M  V30 1573 H 152.266 -1.80117 2.39161 0
M  V30 1574 H 149.812 -0.865145 1.15114 0
M  V30 1575 H 151.765 -3.99702 1.33479 0
M  V30 1576 H 150.489 -3.24791 0.343279 0
M  V30 1577 H 149.148 -2.75539 2.41813 0
M  V30 1578 H 148.796 -4.89256 1.16778 0
M  V30 1579 H 148.496 -5.10426 2.911 0
M  V30 1580 H 150.02 -5.69873 2.19265 0
M  V30 1581 H 151.434 -4.2014 3.9007 0
M  V30 1582 H 149.831 -3.84523 4.60719 0
M  V30 1583 H 150.901 -2.50757 4.15029 0
M  V30 1584 N 152.244 -1.26651 -0.937939 0
M  V30 1585 C 153.174 -1.10993 -2.05433 0
M  V30 1586 C 154.155 -0.0142161 -1.70094 0
M  V30 1587 O 155.34 -0.186837 -1.93299 0
M  V30 1588 C 152.47 -0.745561 -3.39203 0
M  V30 1589 C 151.424 -1.79337 -3.88616 0
M  V30 1590 C 150.75 -1.28324 -5.19073 0
M  V30 1591 C 152.05 -3.19553 -4.13138 0
M  V30 1592 H 153.744 -2.0438 -2.1879 0
M  V30 1593 H 151.29 -0.984041 -1.05131 0
M  V30 1594 H 153.243 -0.622888 -4.16771 0
M  V30 1595 H 151.967 0.22401 -3.25831 0
M  V30 1596 H 150.626 -1.90477 -3.13231 0
M  V30 1597 H 150.274 -0.303414 -5.02084 0
M  V30 1598 H 149.974 -1.98369 -5.53103 0
M  V30 1599 H 151.498 -1.1733 -5.99221 0
M  V30 1600 H 152.912 -3.11471 -4.81309 0
M  V30 1601 H 151.309 -3.87218 -4.58457 0
M  V30 1602 H 152.379 -3.65368 -3.18801 0
M  V30 1603 N 153.722 1.14298 -1.08507 0
M  V30 1604 C 154.969 1.85359 -0.815373 0
M  V30 1605 C 155.297 1.83001 0.658865 0
M  V30 1606 O 154.552 1.25655 1.50031 0
M  V30 1607 C 154.851 3.33547 -1.28379 0
M  V30 1608 C 154.517 3.56093 -2.76602 0
M  V30 1609 C 153.179 3.61955 -3.17084 0
M  V30 1610 C 155.531 3.64834 -3.72217 0
M  V30 1611 C 152.859 3.74082 -4.51973 0
M  V30 1612 C 155.211 3.78487 -5.06883 0
M  V30 1613 C 153.875 3.82598 -5.46969 0
M  V30 1614 H 153.145 0.678276 -0.298366 0
M  V30 1615 H 155.792 1.35002 -1.35819 0
M  V30 1616 H 154.097 3.86191 -0.660593 0
M  V30 1617 H 155.794 3.86959 -1.05186 0
M  V30 1618 H 152.384 3.52179 -2.4427 0
M  V30 1619 H 156.568 3.59595 -3.42061 0
M  V30 1620 H 151.824 3.75527 -4.82483 0
M  V30 1621 H 155.998 3.84193 -5.80834 0
M  V30 1622 H 153.625 3.91747 -6.51489 0
M  V30 1623 N 155.201 0.870884 1.31352 0
M  V30 1624 C 156.45 0.478408 1.95944 0
M  V30 1625 C 156.763 -0.974493 1.69597 0
M  V30 1626 O 157.969 -1.47316 2.28058 0
M  V30 1627 C 156.425 0.804609 3.50791 0
M  V30 1628 C 156.033 2.27433 3.85977 0
M  V30 1629 C 157.777 0.480648 4.2177 0
M  V30 1630 C 155.684 2.5429 5.33939 0
M  V30 1631 H 154.614 0.175175 0.733369 0
M  V30 1632 H 157.265 1.06391 1.4951 0
M  V30 1633 H 155.647 0.148347 3.95722 0
M  V30 1634 H 156.821 2.97373 3.52002 0
M  V30 1635 H 155.136 2.56442 3.28065 0
M  V30 1636 H 157.733 0.658519 5.30629 0
M  V30 1637 H 158.076 -0.578979 4.12254 0
M  V30 1638 H 158.609 1.09349 3.82476 0
M  V30 1639 H 155.348 3.58939 5.48491 0
M  V30 1640 H 154.868 1.88945 5.69263 0
M  V30 1641 H 156.547 2.39066 6.01212 0
M  V30 1642 N 156.679 -1.44442 0.630414 0
M  V30 1643 C 157.904 -2.06927 0.139944 0
M  V30 1644 C 158.329 -1.46795 -1.17613 0
M  V30 1645 O 157.687 -0.569144 -1.72135 0
M  V30 1646 C 157.735 -3.6058 0.0379581 0
M  V30 1647 O 156.839 -3.99937 -1.0062 0
M  V30 1648 H 156.18 -0.658608 0.0844483 0
M  V30 1649 H 158.71 -1.85327 0.866891 0
M  V30 1650 H 158.72 -4.07714 -0.152856 0
M  V30 1651 H 157.395 -4.03728 0.998809 0
M  V30 1652 H 155.972 -3.64436 -0.79001 0
M  V30 1653 N 158.157 -0.370918 -1.53173 0
M  V30 1654 C 159.405 0.216673 -2.00935 0
M  V30 1655 C 159.726 1.48845 -1.25977 0
M  V30 1656 O 158.996 1.92286 -0.374551 0
M  V30 1657 H 157.576 0.0830565 -0.742368 0
M  V30 1658 H 160.238 -0.49838 -1.8842 0
M  V30 1659 H 159.334 0.439893 -3.08984 0
M  V30 1660 N 159.635 1.57281 -0.100228 0
M  V30 1661 C 160.882 1.94537 0.562268 0
M  V30 1662 C 161.21 0.982315 1.67871 0
M  V30 1663 O 160.465 0.00280936 1.957 0
M  V30 1664 C 160.764 3.38305 1.15259 0
M  V30 1665 C 160.43 4.50618 0.159409 0
M  V30 1666 C 159.092 4.81066 -0.113741 0
M  V30 1667 C 161.444 5.18615 -0.518461 0
M  V30 1668 C 158.772 5.76835 -1.07137 0
M  V30 1669 C 161.124 6.15412 -1.46459 0
M  V30 1670 C 159.788 6.44262 -1.74592 0
M  V30 1671 H 159.058 0.711863 0.205748 0
M  V30 1672 H 161.705 1.90679 -0.17715 0
M  V30 1673 H 160.01 3.38766 1.96836 0
M  V30 1674 H 161.707 3.64435 1.67297 0
M  V30 1675 H 158.297 4.2689 0.382491 0
M  V30 1676 H 162.481 4.95264 -0.320581 0
M  V30 1677 H 157.737 5.975 -1.29628 0
M  V30 1678 H 161.911 6.67194 -1.99564 0
M  V30 1679 H 159.538 7.1828 -2.48953 0
M  V30 1680 N 161.113 -0.173488 1.56642 0
M  V30 1681 C 162.076 -1.19859 1.95362 0
M  V30 1682 C 163.076 -1.37296 0.83704 0
M  V30 1683 O 164.266 -1.34739 1.10413 0
M  V30 1684 C 161.398 -2.56405 2.24654 0
M  V30 1685 H 162.591 -0.867062 2.87092 0
M  V30 1686 H 160.144 -0.415853 1.50666 0
M  V30 1687 H 160.879 -2.94576 1.35631 0
M  V30 1688 H 160.664 -2.45115 3.06041 0
M  V30 1689 H 162.154 -3.30287 2.5554 0
M  V30 1690 N 162.591 -1.51276 -0.441967 0
M  V30 1691 C 163.554 -1.7167 -1.51862 0
M  V30 1692 C 164.554 -0.586793 -1.49711 0
M  V30 1693 O 165.744 -0.854276 -1.51815 0
M  V30 1694 C 162.876 -1.76889 -2.91416 0
M  V30 1695 H 164.069 -2.67754 -1.35084 0
M  V30 1696 H 161.622 -1.41196 -0.670333 0
M  V30 1697 H 162.357 -0.826026 -3.13604 0
M  V30 1698 H 162.142 -2.59001 -2.94382 0
M  V30 1699 H 163.632 -1.94522 -3.69528 0
M  V30 1700 N 164.069 0.697108 -1.41344 0
M  V30 1701 C 165.017 1.83237 -1.43272 0
M  V30 1702 C 166.011 1.66522 -0.310947 0
M  V30 1703 O 167.217 1.73402 -0.482899 0
M  V30 1704 H 163.592 0.603802 -0.448249 0
M  V30 1705 H 165.563 1.78727 -2.38954 0
M  V30 1706 C 164.312 3.21245 -1.33029 0
M  V30 1707 H 163.635 3.34723 -2.18633 0
M  V30 1708 H 165.075 4.00763 -1.38439 0
M  V30 1709 C 163.534 3.36873 -0.0424635 0
M  V30 1710 O 164.064 3.91177 0.913421 0
M  V30 1711 N 162.27 2.90581 0.0331145 0
M  V30 1712 H 161.817 2.46577 -0.745506 0
M  V30 1713 H 161.775 3.01416 0.894199 0
M  V30 1714 N 165.547 1.27147 0.931209 0
M  V30 1715 C 166.479 1.05364 2.03546 0
M  V30 1716 C 167.492 0.0108438 1.62796 0
M  V30 1717 O 168.681 0.25202 1.76712 0
M  V30 1718 C 165.781 0.575566 3.33977 0
M  V30 1719 C 164.954 1.68985 4.03439 0
M  V30 1720 C 164.013 1.20813 5.12143 0
M  V30 1721 O 163.039 1.90712 5.363 0
M  V30 1722 N 164.241 0.0618851 5.80467 0
M  V30 1723 H 167.006 2.00454 2.22796 0
M  V30 1724 H 164.567 1.18666 1.10136 0
M  V30 1725 H 166.559 0.237264 4.04004 0
M  V30 1726 H 165.129 -0.282016 3.11325 0
M  V30 1727 H 164.349 2.19861 3.27192 0
M  V30 1728 H 165.637 2.4378 4.46597 0
M  V30 1729 H 165.035 -0.521621 5.6329 0
M  V30 1730 H 163.592 -0.217264 6.51438 0
M  V30 1731 N 167.025 -1.13721 1.09112 0
M  V30 1732 C 167.988 -2.17222 0.731241 0
M  V30 1733 C 168.988 -1.59035 -0.237566 0
M  V30 1734 O 170.178 -1.74192 -0.0161704 0
M  V30 1735 C 167.31 -3.40804 0.0808443 0
M  V30 1736 H 168.503 -2.50573 1.64783 0
M  V30 1737 H 166.056 -1.28493 0.889897 0
M  V30 1738 H 166.791 -3.1304 -0.847127 0
M  V30 1739 H 166.576 -3.84306 0.777896 0
M  V30 1740 H 168.066 -4.1731 -0.155657 0
M  V30 1741 N 168.503 -0.877838 -1.30888 0
M  V30 1742 C 169.749 -0.493426 -1.96706 0
M  V30 1743 C 170.082 0.953504 -1.6918 0
M  V30 1744 O 169.357 1.67266 -0.992594 0
M  V30 1745 C 169.64 -0.760429 -3.51979 0
M  V30 1746 C 169.493 -2.25747 -3.89048 0
M  V30 1747 C 170.812 -0.232148 -4.39487 0
M  V30 1748 H 167.931 -0.180746 -0.714493 0
M  V30 1749 H 170.573 -1.10052 -1.54882 0
M  V30 1750 H 168.723 -0.243715 -3.87735 0
M  V30 1751 H 170.395 -2.84204 -3.63354 0
M  V30 1752 H 168.638 -2.72694 -3.37373 0
M  V30 1753 H 169.309 -2.39491 -4.97341 0
M  V30 1754 H 171.785 -0.674314 -4.106 0
M  V30 1755 H 170.661 -0.448355 -5.47066 0
M  V30 1756 H 170.922 0.866297 -4.33529 0
M  V30 1757 N 169.982 1.44106 -0.638065 0
M  V30 1758 C 171.231 2.01194 -0.142744 0
M  V30 1759 C 171.544 1.50835 1.24532 0
M  V30 1760 O 172.75 2.00096 1.83504 0
M  V30 1761 C 171.206 3.59319 -0.20442 0
M  V30 1762 C 170.814 4.18674 -1.59423 0
M  V30 1763 C 172.558 4.23854 0.234079 0
M  V30 1764 C 170.465 5.69045 -1.61065 0
M  V30 1765 H 169.395 0.752367 -0.0495998 0
M  V30 1766 H 172.046 1.65246 -0.797881 0
M  V30 1767 H 170.428 3.92598 0.517946 0
M  V30 1768 H 171.602 3.96921 -2.34074 0
M  V30 1769 H 169.917 3.66453 -1.97741 0
M  V30 1770 H 172.514 5.34155 0.241443 0
M  V30 1771 H 172.857 3.96688 1.2627 0
M  V30 1772 H 173.39 3.95403 -0.436025 0
M  V30 1773 H 170.129 6.00956 -2.61787 0
M  V30 1774 H 169.649 5.929 -0.90718 0
M  V30 1775 H 171.328 6.32809 -1.34766 0
M  V30 1776 N 171.46 0.379036 1.52974 0
M  V30 1777 C 172.423 -0.448865 2.24762 0
M  V30 1778 C 173.423 -0.998689 1.26027 0
M  V30 1779 O 174.613 -0.882313 1.50203 0
M  V30 1780 C 171.745 -1.62872 2.99476 0
M  V30 1781 H 172.938 0.179491 2.99362 0
M  V30 1782 H 170.491 0.13096 1.5575 0
M  V30 1783 H 171.226 -2.29479 2.29151 0
M  V30 1784 H 171.011 -1.24128 3.71934 0
M  V30 1785 H 172.501 -2.2151 3.5401 0
M  V30 1786 N 172.938 -1.57226 0.108567 0
M  V30 1787 C 173.901 -2.13602 -0.831082 0
M  V30 1788 C 174.901 -1.06841 -1.20173 0
M  V30 1789 O 176.091 -1.32666 -1.12895 0
M  V30 1790 C 173.223 -2.66769 -2.12243 0
M  V30 1791 H 174.416 -2.97951 -0.341317 0
M  V30 1792 H 171.969 -1.55667 -0.14057 0
M  V30 1793 H 172.704 -1.85977 -2.65675 0
M  V30 1794 H 172.489 -3.44839 -1.86625 0
M  V30 1795 H 173.979 -3.10332 -2.79435 0
M  V30 1796 N 174.416 0.165178 -1.56732 0
M  V30 1797 C 175.349 1.23336 -1.91998 0
M  V30 1798 C 176.327 1.42476 -0.783531 0
M  V30 1799 O 177.511 1.57384 -1.03743 0
M  V30 1800 C 174.638 2.59533 -2.17625 0
M  V30 1801 C 173.684 2.57093 -3.40302 0
M  V30 1802 S 174.517 2.05571 -4.9447 0
M  V30 1803 C 175.673 3.43532 -5.23198 0
M  V30 1804 H 175.906 0.932387 -2.82301 0
M  V30 1805 H 173.439 0.370013 -1.49901 0
M  V30 1806 H 175.397 3.37918 -2.3307 0
M  V30 1807 H 174.058 2.86827 -1.28019 0
M  V30 1808 H 173.251 3.57308 -3.55453 0
M  V30 1809 H 172.853 1.86806 -3.24005 0
M  V30 1810 H 175.145 4.39559 -5.15552 0
M  V30 1811 H 176.088 3.33251 -6.2478 0
M  V30 1812 H 176.496 3.39828 -4.50752 0
M  V30 1813 N 175.894 1.51508 0.433938 0
M  V30 1814 C 176.827 1.67756 1.54704 0
M  V30 1815 C 177.805 0.525127 1.53887 0
M  V30 1816 O 178.989 0.749393 1.72963 0
M  V30 1817 C 176.116 1.69424 2.9328 0
M  V30 1818 C 175.162 2.90673 3.12108 0
M  V30 1819 S 175.995 4.51431 2.88046 0
M  V30 1820 C 177.151 4.55849 4.28897 0
M  V30 1821 H 177.384 2.61904 1.40689 0
M  V30 1822 H 174.917 1.41235 0.62386 0
M  V30 1823 H 176.875 1.7107 3.73156 0
M  V30 1824 H 175.536 0.764464 3.04655 0
M  V30 1825 H 174.729 2.88251 4.13434 0
M  V30 1826 H 174.331 2.86786 2.40062 0
M  V30 1827 H 176.623 4.31699 5.22152 0
M  V30 1828 H 177.566 5.57676 4.36351 0
M  V30 1829 H 177.974 3.85137 4.12711 0
M  V30 1830 N 177.372 -0.689602 1.41712 0
M  V30 1831 C 178.335 -1.78521 1.43746 0
M  V30 1832 C 179.335 -1.57436 0.327191 0
M  V30 1833 O 180.525 -1.64 0.587348 0
M  V30 1834 C 177.657 -3.16971 1.25467 0
M  V30 1835 H 178.85 -1.78108 2.41283 0
M  V30 1836 H 176.403 -0.89781 1.27942 0
M  V30 1837 H 177.138 -3.23019 0.287948 0
M  V30 1838 H 176.923 -3.33678 2.05917 0
M  V30 1839 H 178.413 -3.96935 1.2974 0
M  V30 1840 N 178.85 -1.27639 -0.924453 0
M  V30 1841 C 179.797 -1.10644 -2.0255 0
M  V30 1842 C 180.767 -0.00658438 -1.66099 0
M  V30 1843 O 181.952 -0.16952 -1.90045 0
M  V30 1844 C 179.092 -0.76309 -3.36557 0
M  V30 1845 C 178.205 -1.94091 -3.85944 0
M  V30 1846 C 177.34 -1.53914 -5.08413 0
M  V30 1847 C 176.379 -2.68425 -5.50104 0
M  V30 1848 N 175.516 -2.28815 -6.63768 0
M  V30 1849 H 180.356 -2.04858 -2.16419 0
M  V30 1850 H 177.893 -1.01974 -1.06017 0
M  V30 1851 H 179.851 -0.544822 -4.13627 0
M  V30 1852 H 178.481 0.142102 -3.22487 0
M  V30 1853 H 177.533 -2.27162 -3.05125 0
M  V30 1854 H 178.845 -2.7998 -4.12811 0
M  V30 1855 H 177.999 -1.28231 -5.92994 0
M  V30 1856 H 176.738 -0.651391 -4.8333 0
M  V30 1857 H 175.743 -2.94819 -4.64071 0
M  V30 1858 H 176.968 -3.57826 -5.7718 0
M  V30 1859 H 174.914 -1.42495 -6.40337 0
M  V30 1860 H 174.831 -3.08242 -6.90306 0
M  V30 1861 H 176.099 -2.06387 -7.51681 0
M  V30 1862 N 180.328 1.1314 -1.09713 0
M  V30 1863 C 181.238 2.22242 -0.751367 0
M  V30 1864 C 182.254 1.72224 0.247938 0
M  V30 1865 O 183.43 2.01205 0.0885463 0
M  V30 1866 C 180.495 3.46231 -0.180274 0
M  V30 1867 C 179.556 4.11125 -1.2359 0
M  V30 1868 C 178.789 5.29195 -0.691966 0
M  V30 1869 O 179.012 5.68342 0.48414 0
M  V30 1870 O 177.946 5.84214 -1.44838 0
M  V30 1871 H 181.772 2.54197 -1.66186 0
M  V30 1872 H 179.357 1.21331 -0.871735 0
M  V30 1873 H 181.239 4.21185 0.134739 0
M  V30 1874 H 179.914 3.1597 0.703185 0
M  V30 1875 H 178.821 3.37985 -1.60366 0
M  V30 1876 H 180.154 4.45524 -2.09211 0
M  V30 1877 N 181.806 0.884767 1.30421 0
M  V30 1878 C 183.083 0.423185 1.90967 0
M  V30 1879 C 183.463 -1.09605 1.80416 0
M  V30 1880 O 182.811 -1.93126 1.22125 0
M  V30 1881 C 183.021 0.921056 3.36627 0
M  V30 1882 C 184.369 0.955903 4.137 0
M  V30 1883 O 185.393 0.867706 3.4547 0
M  V30 1884 O 184.252 1.08614 5.35598 0
M  V30 1885 H 181.346 0.129369 0.816819 0
M  V30 1886 H 183.892 0.973653 1.3899 0
M  V30 1887 H 182.664 1.96489 3.3839 0
M  V30 1888 H 182.287 0.349741 3.96059 0
M  V30 1889 N 183.284 -1.43765 0.645699 0
M  V30 1890 C 184.7 -1.56509 0.312591 0
M  V30 1891 C 184.9 -1.6307 -1.18365 0
M  V30 1892 O 183.956 -1.58167 -1.96824 0
M  V30 1893 C 185.269 -2.82968 1.01733 0
M  V30 1894 C 186.817 -2.96701 0.996865 0
M  V30 1895 C 187.292 -4.25982 1.68236 0
M  V30 1896 N 188.783 -4.32829 1.64964 0
M  V30 1897 C 189.518 -5.31613 2.14885 0
M  V30 1898 N 189.014 -6.36718 2.73061 0
M  V30 1899 N 190.807 -5.23217 2.05428 0
M  V30 1900 H 182.958 -1.3775 1.61675 0
M  V30 1901 H 185.221 -0.661067 0.679481 0
M  V30 1902 H 184.927 -2.84156 2.0724 0
M  V30 1903 H 184.801 -3.72957 0.564177 0
M  V30 1904 H 187.188 -2.95058 -0.0497719 0
M  V30 1905 H 187.269 -2.08022 1.48865 0
M  V30 1906 H 186.913 -4.28386 2.72852 0
M  V30 1907 H 186.843 -5.13545 1.16529 0
M  V30 1908 H 189.334 -3.57493 1.22503 0
M  V30 1909 H 189.647 -7.08401 3.08848 0
M  V30 1910 H 187.992 -6.37362 2.77118 0
M  V30 1911 H 191.183 -4.40019 1.59689 0
M  V30 1912 H 191.356 -6.00045 2.44643 0
M  V30 1913 N 184.763 -0.387143 -1.52771 0
M  V30 1914 C 186.012 0.19697 -2.00736 0
M  V30 1915 C 186.325 1.48082 -1.27793 0
M  V30 1916 O 187.531 2.14485 -1.66458 0
M  V30 1917 C 185.987 0.401568 -3.57653 0
M  V30 1918 C 185.595 -0.868907 -4.39493 0
M  V30 1919 C 187.339 0.942164 -4.13912 0
M  V30 1920 C 185.246 -0.632705 -5.88006 0
M  V30 1921 H 184.176 0.0773827 -0.750019 0
M  V30 1922 H 186.827 -0.50921 -1.76293 0
M  V30 1923 H 185.209 1.16954 -3.78335 0
M  V30 1924 H 186.383 -1.64133 -4.30577 0
M  V30 1925 H 184.698 -1.33429 -3.94443 0
M  V30 1926 H 187.295 1.13455 -5.22525 0
M  V30 1927 H 187.638 1.9106 -3.69867 0
M  V30 1928 H 188.171 0.233814 -3.97112 0
M  V30 1929 H 184.91 -1.57208 -6.36369 0
M  V30 1930 H 184.43 0.100825 -5.99715 0
M  V30 1931 H 186.109 -0.26642 -6.46451 0
M  V30 1932 N 186.241 1.57166 -0.116904 0
M  V30 1933 C 187.204 2.14039 0.819742 0
M  V30 1934 C 188.204 1.07477 1.19605 0
M  V30 1935 O 189.394 1.33263 1.1219 0
M  V30 1936 C 186.526 2.67891 2.10826 0
M  V30 1937 H 187.719 2.98128 0.325511 0
M  V30 1938 H 185.272 1.55739 0.132312 0
M  V30 1939 H 186.007 1.87384 2.64685 0
M  V30 1940 H 185.792 3.45823 1.84793 0
M  V30 1941 H 187.282 3.11809 2.77785 0
M  V30 1942 N 187.719 -0.156864 1.56817 0
M  V30 1943 C 188.682 -1.17781 1.96622 0
M  V30 1944 C 189.682 -1.36401 0.851555 0
M  V30 1945 O 190.872 -1.33561 1.11836 0
M  V30 1946 C 188.004 -2.54008 2.27361 0
M  V30 1947 H 189.197 -0.836564 2.87996 0
M  V30 1948 H 186.75 -0.39985 1.51099 0
M  V30 1949 H 187.485 -2.9312 1.38748 0
M  V30 1950 H 187.27 -2.41856 3.08623 0
M  V30 1951 H 188.76 -3.27558 2.59029 0
M  V30 1952 N 189.197 -1.51736 -0.425897 0
M  V30 1953 C 190.474 -1.55519 -1.1863 0
M  V30 1954 C 190.854 -0.326219 -2.08564 0
M  V30 1955 O 190.202 0.688012 -2.17896 0
M  V30 1956 C 190.412 -2.87521 -1.9782 0
M  V30 1957 C 191.76 -3.39899 -2.54468 0
M  V30 1958 O 192.784 -2.89148 -2.08019 0
M  V30 1959 O 191.643 -4.2848 -3.39215 0
M  V30 1960 H 188.737 -0.625739 -0.540721 0
M  V30 1961 H 191.283 -1.64055 -0.434038 0
M  V30 1962 H 190.055 -3.68422 -1.31836 0
M  V30 1963 H 189.678 -2.822 -2.80088 0
M  V30 1964 N 190.675 0.682077 -1.42076 0
M  V30 1965 C 192.091 0.994324 -1.24841 0
M  V30 1966 C 192.291 2.0096 -0.147389 0
M  V30 1967 O 191.347 2.47822 0.483782 0
M  V30 1968 C 192.66 1.50607 -2.60265 0
M  V30 1969 C 194.208 1.62421 -2.6756 0
M  V30 1970 C 194.683 2.16994 -4.03333 0
M  V30 1971 N 196.174 2.24337 -4.0525 0
M  V30 1972 C 196.909 2.67621 -5.07116 0
M  V30 1973 N 196.405 3.1041 -6.19368 0
M  V30 1974 N 198.198 2.67305 -4.94474 0
M  V30 1975 H 190.349 0.00973908 -2.12398 0
M  V30 1976 H 192.612 0.0668593 -0.945639 0
M  V30 1977 H 192.318 0.834583 -3.41654 0
M  V30 1978 H 192.192 2.48602 -2.83684 0
M  V30 1979 H 194.579 2.28678 -1.86521 0
M  V30 1980 H 194.66 0.629352 -2.47937 0
M  V30 1981 H 194.304 1.51349 -4.84826 0
M  V30 1982 H 194.234 3.17258 -4.20304 0
M  V30 1983 H 196.725 1.94158 -3.24209 0
M  V30 1984 H 197.038 3.42103 -6.92954 0
M  V30 1985 H 195.383 3.08286 -6.22884 0
M  V30 1986 H 198.574 2.33233 -4.05857 0
M  V30 1987 H 198.747 3.00718 -5.73997 0
M  V30 1988 N 192.153 1.28127 0.917671 0
M  V30 1989 C 193.083 1.14248 2.03641 0
M  V30 1990 C 194.064 0.0412748 1.7005 0
M  V30 1991 O 195.249 0.217566 1.92977 0
M  V30 1992 C 192.379 0.799431 3.37974 0
M  V30 1993 C 191.333 1.85497 3.85713 0
M  V30 1994 C 190.659 1.36565 5.16966 0
M  V30 1995 C 191.959 3.26085 4.08002 0
M  V30 1996 H 193.653 2.07835 2.15511 0
M  V30 1997 H 191.199 1.00064 1.03553 0
M  V30 1998 H 193.152 0.689114 4.15727 0
M  V30 1999 H 191.876 -0.172145 3.26146 0
M  V30 2000 H 190.535 1.95437 3.10161 0
M  V30 2001 H 190.183 0.383253 5.01538 0
M  V30 2002 H 189.883 2.07143 5.49878 0
M  V30 2003 H 191.407 1.26848 5.97279 0
M  V30 2004 H 192.821 3.19089 4.76293 0
M  V30 2005 H 191.218 3.94462 4.52238 0
M  V30 2006 H 192.288 3.70394 3.12948 0
M  V30 2007 N 193.631 -1.12557 1.10312 0
M  V30 2008 C 194.856 -1.88405 0.867085 0
M  V30 2009 C 195.281 -1.79038 -0.576817 0
M  V30 2010 O 194.639 -1.14439 -1.40618 0
M  V30 2011 C 194.687 -3.3563 1.31851 0
M  V30 2012 O 193.791 -4.09565 0.482734 0
M  V30 2013 H 193.132 -0.585455 0.313271 0
M  V30 2014 H 195.662 -1.42352 1.4696 0
M  V30 2015 H 195.672 -3.86469 1.3079 0
M  V30 2016 H 194.347 -3.41765 2.37001 0
M  V30 2017 H 192.924 -3.68695 0.558448 0
M  V30 2018 N 195.109 -0.891671 -1.2995 0
M  V30 2019 C 196.059 -0.334811 -2.25528 0
M  V30 2020 C 197.043 0.540553 -1.51548 0
M  V30 2021 O 198.235 0.383882 -1.72787 0
M  V30 2022 C 195.364 0.44374 -3.4042 0
M  V30 2023 C 194.45 -0.44609 -4.21747 0
M  V30 2024 N 194.841 -1.54963 -4.81477 0
M  V30 2025 C 193.139 -0.242415 -4.45341 0
M  V30 2026 C 193.84 -2.10015 -5.42465 0
M  V30 2027 N 192.816 -1.39423 -5.25416 0
M  V30 2028 H 196.618 -1.17792 -2.69262 0
M  V30 2029 H 194.132 -0.741822 -1.44467 0
M  V30 2030 H 196.129 0.859362 -4.07947 0
M  V30 2031 H 194.789 1.28421 -2.98225 0
M  V30 2032 H 195.8 -1.93244 -4.80497 0
M  V30 2033 H 192.477 0.560342 -4.13723 0
M  V30 2034 H 193.867 -3.02724 -5.9984 0
M  V30 2035 N 196.587 1.43421 -0.653314 0
M  V30 2036 C 197.55 2.29182 0.0287951 0
M  V30 2037 C 198.55 1.42213 0.750465 0
M  V30 2038 O 199.74 1.63843 0.591701 0
M  V30 2039 C 196.872 3.24278 1.05151 0
M  V30 2040 H 198.065 2.90985 -0.725786 0
M  V30 2041 H 195.618 1.50702 -0.414545 0
M  V30 2042 H 196.353 2.6737 1.83532 0
M  V30 2043 H 196.138 3.88396 0.537687 0
M  V30 2044 H 197.628 3.88647 1.52786 0
M  V30 2045 N 198.065 0.39524 1.52563 0
M  V30 2046 C 199.29 -0.187456 2.06551 0
M  V30 2047 C 199.715 -1.39249 1.26457 0
M  V30 2048 O 199.073 -1.78947 0.291151 0
M  V30 2049 C 199.121 -0.529985 3.56684 0
M  V30 2050 O 198.225 -1.62307 3.79118 0
M  V30 2051 H 197.566 -0.0202537 0.663691 0
M  V30 2052 H 200.096 0.564426 1.96661 0
M  V30 2053 H 200.106 -0.792598 4.00227 0
M  V30 2054 H 198.781 0.350987 4.14416 0
M  V30 2055 H 197.358 -1.3537 3.47461 0
M  V30 2056 N 199.544 -1.57102 0.125237 0
M  V30 2057 C 200.474 -2.18659 -0.819174 0
M  V30 2058 C 201.455 -1.12843 -1.27281 0
M  V30 2059 O 202.64 -1.41104 -1.33429 0
M  V30 2060 C 199.77 -2.79096 -2.06695 0
M  V30 2061 C 198.724 -3.90548 -1.75088 0
M  V30 2062 C 198.05 -4.37821 -3.06948 0
M  V30 2063 C 199.35 -5.12356 -1.01435 0
M  V30 2064 H 201.044 -2.9783 -0.306202 0
M  V30 2065 H 198.59 -1.4326 -0.145839 0
M  V30 2066 H 200.543 -3.2082 -2.73226 0
M  V30 2067 H 199.267 -1.97223 -2.60328 0
M  V30 2068 H 197.926 -3.49409 -1.10944 0
M  V30 2069 H 197.574 -3.52799 -3.58527 0
M  V30 2070 H 197.274 -5.12982 -2.86571 0
M  V30 2071 H 198.798 -4.822 -3.74587 0
M  V30 2072 H 200.212 -5.5106 -1.58132 0
M  V30 2073 H 198.609 -5.9314 -0.911319 0
M  V30 2074 H 199.679 -4.849 -0.00218681 0
M  V30 2075 N 201.022 0.148545 -1.56898 0
M  V30 2076 C 201.952 1.18524 -2.01182 0
M  V30 2077 C 202.933 1.4489 -0.891123 0
M  V30 2078 O 204.118 1.55836 -1.15882 0
M  V30 2079 C 201.248 2.51879 -2.39112 0
M  V30 2080 C 200.202 2.40038 -3.54353 0
M  V30 2081 C 199.528 3.78089 -3.78091 0
M  V30 2082 C 200.828 1.88577 -4.87069 0
M  V30 2083 H 202.522 0.817029 -2.88036 0
M  V30 2084 H 200.068 0.391575 -1.38574 0
M  V30 2085 H 202.021 3.24627 -2.68692 0
M  V30 2086 H 200.745 2.90532 -1.49193 0
M  V30 2087 H 199.404 1.69742 -3.24936 0
M  V30 2088 H 199.052 4.14175 -2.85426 0
M  V30 2089 H 198.752 3.71028 -4.55645 0
M  V30 2090 H 200.276 4.52387 -4.10095 0
M  V30 2091 H 201.69 2.51117 -5.15377 0
M  V30 2092 H 200.087 1.9241 -5.68417 0
M  V30 2093 H 201.157 0.84136 -4.77545 0
M  V30 2094 N 202.5 1.5196 0.417844 0
M  V30 2095 C 203.41 1.77554 1.53336 0
M  V30 2096 C 204.426 0.660655 1.6097 0
M  V30 2097 O 205.602 0.945099 1.77848 0
M  V30 2098 C 202.667 1.91291 2.89152 0
M  V30 2099 C 201.728 3.15183 2.91475 0
M  V30 2100 C 200.961 3.28256 4.20813 0
M  V30 2101 O 201.184 2.46798 5.14244 0
M  V30 2102 O 200.118 4.21356 4.29817 0
M  V30 2103 H 203.944 2.7222 1.34647 0
M  V30 2104 H 201.529 1.36698 0.602828 0
M  V30 2105 H 203.411 2.02199 3.69721 0
M  V30 2106 H 202.086 0.998129 3.07927 0
M  V30 2107 H 200.993 3.09739 2.09791 0
M  V30 2108 H 202.326 4.06414 2.77648 0
M  V30 2109 N 203.978 -0.674533 1.42435 0
M  V30 2110 C 204.941 -1.76986 1.45632 0
M  V30 2111 C 205.941 -1.5708 0.343871 0
M  V30 2112 O 207.131 -1.63367 0.604709 0
M  V30 2113 C 204.263 -3.15623 1.28822 0
M  V30 2114 H 205.456 -1.75539 2.43158 0
M  V30 2115 H 203.009 -0.884189 1.28887 0
M  V30 2116 H 203.744 -3.22696 0.322193 0
M  V30 2117 H 203.529 -3.31475 2.09444 0
M  V30 2118 H 205.019 -3.95537 1.33942 0
M  V30 2119 N 205.456 -1.28612 -0.910864 0
M  V30 2120 C 206.419 -1.12803 -1.9952 0
M  V30 2121 C 207.419 -0.0668264 -1.60661 0
M  V30 2122 O 208.609 -0.312847 -1.71368 0
M  V30 2123 C 205.741 -0.72254 -3.33155 0
M  V30 2124 H 206.934 -2.09109 -2.14973 0
M  V30 2125 H 204.487 -1.11639 -1.09391 0
M  V30 2126 H 205.222 0.241152 -3.23402 0
M  V30 2127 H 205.007 -1.48916 -3.62721 0
M  V30 2128 H 206.497 -0.634666 -4.12749 0
M  V30 2129 N 206.934 1.1197 -1.10907 0
M  V30 2130 C 208.159 1.87942 -0.877064 0
M  V30 2131 C 208.584 1.79341 0.567314 0
M  V30 2132 O 207.942 1.15184 1.40009 0
M  V30 2133 C 207.99 3.34926 -1.33629 0
M  V30 2134 O 207.094 4.09303 -0.504447 0
M  V30 2135 H 206.435 0.583785 -0.316371 0
M  V30 2136 H 208.965 1.4157 -1.47712 0
M  V30 2137 H 208.975 3.8577 -1.32837 0
M  V30 2138 H 207.65 3.40504 -2.3881 0
M  V30 2139 H 206.227 3.68393 -0.577993 0
M  V30 2140 N 208.412 0.89855 1.29475 0
M  V30 2141 C 209.342 0.39201 2.30186 0
M  V30 2142 C 210.323 -0.532359 1.61555 0
M  V30 2143 O 211.508 -0.443331 1.89072 0
M  V30 2144 C 208.638 -0.382353 3.45189 0
M  V30 2145 C 207.592 0.451483 4.25612 0
M  V30 2146 C 206.918 -0.450307 5.328 0
M  V30 2147 C 208.218 1.70079 4.93832 0
M  V30 2148 H 209.912 1.23362 2.72804 0
M  V30 2149 H 207.458 0.594638 1.31149 0
M  V30 2150 H 209.411 -0.747451 4.14718 0
M  V30 2151 H 208.135 -1.25774 3.01411 0
M  V30 2152 H 206.794 0.798897 3.57789 0
M  V30 2153 H 206.442 -1.32379 4.85268 0
M  V30 2154 H 206.142 0.103902 5.87508 0
M  V30 2155 H 207.666 -0.811623 6.05182 0
M  V30 2156 H 209.08 1.40549 5.55805 0
M  V30 2157 H 207.477 2.19623 5.58467 0
M  V30 2158 H 208.547 2.43744 4.19186 0
M  V30 2159 N 209.89 -1.43072 0.660911 0
M  V30 2160 C 211.115 -2.06584 0.183805 0
M  V30 2161 C 211.54 -1.49257 -1.14472 0
M  V30 2162 O 210.898 -0.605528 -1.70889 0
M  V30 2163 C 210.946 -3.60418 0.114434 0
M  V30 2164 O 210.05 -4.01981 -0.921137 0
M  V30 2165 H 209.391 -0.656669 0.0983994 0
M  V30 2166 H 211.921 -1.83447 0.906006 0
M  V30 2167 H 211.931 -4.07946 -0.0663394 0
M  V30 2168 H 210.606 -4.01519 1.08422 0
M  V30 2169 H 209.183 -3.66029 -0.71253 0
M  V30 2170 N 211.368 -0.403325 -1.52352 0
M  V30 2171 C 212.779 0.0675782 -1.86578 0
M  V30 2172 C 213.13 1.44941 -1.32236 0
M  V30 2173 O 212.255 2.06112 -0.659307 0
M  V30 2174 C 212.85 0.129404 -3.38553 0
M  V30 2175 C 211.409 0.544629 -3.72439 0
M  V30 2176 C 210.556 -0.284551 -2.75836 0
M  V30 2177 H 213.507 -0.620631 -1.46061 0
M  V30 2178 H 213.528 0.94581 -3.68558 0
M  V30 2179 H 213.04 -0.87645 -3.78074 0
M  V30 2180 H 211.141 1.55734 -3.38493 0
M  V30 2181 H 211.254 0.293046 -4.78203 0
M  V30 2182 H 209.618 0.252258 -2.53448 0
M  V30 2183 H 210.401 -1.28865 -3.18196 0
M  V30 2184 N 212.846 1.57033 -0.133567 0
M  V30 2185 C 214.071 2.00475 0.531477 0
M  V30 2186 C 214.496 1.01291 1.58499 0
M  V30 2187 O 213.854 -0.0133279 1.81295 0
M  V30 2188 C 213.902 3.42729 1.12113 0
M  V30 2189 O 213.006 3.46498 2.23636 0
M  V30 2190 H 212.347 0.650876 0.131362 0
M  V30 2191 H 214.877 2.03344 -0.22634 0
M  V30 2192 H 214.887 3.81246 1.4531 0
M  V30 2193 H 213.562 4.14428 0.349557 0
M  V30 2194 H 212.139 3.19811 1.91769 0
M  V30 2195 N 214.325 -0.140222 1.56975 0
M  V30 2196 C 215.257 -1.19818 1.95388 0
M  V30 2197 C 216.27 -1.38816 0.850525 0
M  V30 2198 O 217.459 -1.38267 1.12891 0
M  V30 2199 C 214.559 -2.56189 2.21857 0
M  V30 2200 C 213.732 -2.58077 3.5315 0
M  V30 2201 C 212.791 -3.76037 3.6808 0
M  V30 2202 O 211.817 -3.60598 4.40406 0
M  V30 2203 N 213.019 -4.93763 3.05251 0
M  V30 2204 H 215.784 -0.871609 2.86746 0
M  V30 2205 H 213.345 -0.32972 1.58507 0
M  V30 2206 H 215.337 -3.33623 2.2908 0
M  V30 2207 H 213.907 -2.81111 1.36731 0
M  V30 2208 H 213.127 -1.6651 3.57307 0
M  V30 2209 H 214.415 -2.56377 4.39486 0
M  V30 2210 H 213.813 -5.09209 2.46419 0
M  V30 2211 H 212.37 -5.68949 3.18026 0
M  V30 2212 N 215.803 -1.52179 -0.40978 0
M  V30 2213 C 216.733 -1.78435 -1.5061 0
M  V30 2214 C 217.714 -0.635295 -1.57791 0
M  V30 2215 O 218.899 -0.880823 -1.73076 0
M  V30 2216 C 216.029 -1.93444 -2.88439 0
M  V30 2217 C 214.983 -3.09038 -2.96108 0
M  V30 2218 C 214.309 -3.09268 -4.36185 0
M  V30 2219 C 215.609 -4.48508 -2.67652 0
M  V30 2220 H 217.303 -2.70237 -1.28889 0
M  V30 2221 H 214.849 -1.30036 -0.618605 0
M  V30 2222 H 216.802 -2.10394 -3.65119 0
M  V30 2223 H 215.526 -0.983129 -3.11452 0
M  V30 2224 H 214.185 -2.91837 -2.21872 0
M  V30 2225 H 213.833 -2.11861 -4.56206 0
M  V30 2226 H 213.533 -3.86907 -4.42241 0
M  V30 2227 H 215.057 -3.28348 -5.14801 0
M  V30 2228 H 216.471 -4.65918 -3.34056 0
M  V30 2229 H 214.868 -5.28059 -2.85085 0
M  V30 2230 H 215.938 -4.56649 -1.63095 0
M  V30 2231 N 217.281 0.66697 -1.42791 0
M  V30 2232 C 218.697 0.981027 -1.25889 0
M  V30 2233 C 218.897 2.00793 -0.168695 0
M  V30 2234 O 217.953 2.48321 0.45747 0
M  V30 2235 C 219.266 1.47838 -2.61848 0
M  V30 2236 C 220.814 1.59575 -2.69267 0
M  V30 2237 C 221.289 2.12704 -4.05612 0
M  V30 2238 N 222.78 2.20026 -4.07606 0
M  V30 2239 C 223.515 2.62227 -5.09926 0
M  V30 2240 N 223.011 3.03824 -6.22626 0
M  V30 2241 N 224.804 2.62045 -4.97281 0
M  V30 2242 H 216.955 -0.0127891 -2.12396 0
M  V30 2243 H 219.218 0.0568258 -0.946295 0
M  V30 2244 H 218.924 0.798299 -3.4252 0
M  V30 2245 H 218.798 2.45579 -2.86305 0
M  V30 2246 H 221.185 2.26687 -1.88936 0
M  V30 2247 H 221.266 0.60302 -2.48591 0
M  V30 2248 H 220.91 1.46198 -4.86404 0
M  V30 2249 H 220.84 3.12782 -4.23645 0
M  V30 2250 H 223.331 1.90708 -3.2625 0
M  V30 2251 H 223.644 3.34734 -6.96544 0
M  V30 2252 H 221.989 3.01662 -6.26119 0
M  V30 2253 H 225.18 2.28916 -4.08308 0
M  V30 2254 H 225.353 2.94613 -5.77154 0
M  V30 2255 N 218.759 1.29093 0.90403 0
M  V30 2256 C 220.175 1.07011 1.1841 0
M  V30 2257 C 220.375 -0.181358 2.00682 0
M  V30 2258 O 219.431 -0.880331 2.36657 0
M  V30 2259 C 220.744 2.32311 1.90924 0
M  V30 2260 C 222.292 2.37587 2.03768 0
M  V30 2261 C 222.767 3.62679 2.79693 0
M  V30 2262 N 224.258 3.63376 2.87249 0
M  V30 2263 C 224.993 4.56848 3.46522 0
M  V30 2264 N 224.489 5.60648 4.06996 0
M  V30 2265 N 226.282 4.44426 3.44154 0
M  V30 2266 H 218.433 2.09412 0.354993 0
M  V30 2267 H 220.696 0.922181 0.219742 0
M  V30 2268 H 220.402 3.23536 1.37905 0
M  V30 2269 H 220.276 2.39483 2.91424 0
M  V30 2270 H 222.663 1.46853 2.55965 0
M  V30 2271 H 222.744 2.34403 1.02415 0
M  V30 2272 H 222.388 4.53762 2.28173 0
M  V30 2273 H 222.318 3.63119 3.81381 0
M  V30 2274 H 224.809 2.88321 2.44293 0
M  V30 2275 H 225.122 6.28101 4.50232 0
M  V30 2276 H 223.467 5.64463 4.05471 0
M  V30 2277 H 226.658 3.62529 2.96126 0
M  V30 2278 H 226.831 5.17457 3.90054 0
M  V30 2279 N 220.237 -1.11381 1.11499 0
M  V30 2280 C 221.484 -1.83132 0.864231 0
M  V30 2281 C 221.812 -1.84683 -0.610114 0
M  V30 2282 O 221.067 -1.29589 -1.46646 0
M  V30 2283 C 221.366 -3.30026 1.37177 0
M  V30 2284 C 221.032 -3.48634 2.85946 0
M  V30 2285 C 219.694 -3.53421 3.26569 0
M  V30 2286 C 222.046 -3.54837 3.81759 0
M  V30 2287 C 219.374 -3.61967 4.61733 0
M  V30 2288 C 221.726 -3.64915 5.1674 0
M  V30 2289 C 220.39 -3.67962 5.5692 0
M  V30 2290 H 219.66 -0.670127 0.316245 0
M  V30 2291 H 222.307 -1.31354 1.3935 0
M  V30 2292 H 220.612 -3.84304 0.762753 0
M  V30 2293 H 222.309 -3.84034 1.15408 0
M  V30 2294 H 218.899 -3.45579 2.53521 0
M  V30 2295 H 223.083 -3.50399 3.51474 0
M  V30 2296 H 218.339 -3.62603 4.92269 0
M  V30 2297 H 222.513 -3.68658 5.90816 0
M  V30 2298 H 220.14 -3.74336 6.61647 0
M  V30 2299 N 221.715 -0.905404 -1.28997 0
M  V30 2300 C 222.678 -0.392253 -2.25819 0
M  V30 2301 C 223.678 0.476753 -1.5357 0
M  V30 2302 O 224.868 0.280994 -1.71919 0
M  V30 2303 C 222 0.438588 -3.38067 0
M  V30 2304 H 223.193 -1.24743 -2.72725 0
M  V30 2305 H 220.746 -0.684051 -1.40536 0
M  V30 2306 H 221.481 1.31352 -2.96508 0
M  V30 2307 H 221.266 -0.184167 -3.91667 0
M  V30 2308 H 222.756 0.78873 -4.10084 0
M  V30 2309 N 223.193 1.4272 -0.668489 0
M  V30 2310 C 224.143 2.27971 0.0363806 0
M  V30 2311 C 225.127 1.40741 0.779794 0
M  V30 2312 O 226.319 1.64245 0.659745 0
M  V30 2313 C 223.448 3.28673 0.991398 0
M  V30 2314 C 222.534 4.23388 0.245658 0
M  V30 2315 N 222.925 5.00267 -0.746069 0
M  V30 2316 C 221.223 4.43355 0.484988 0
M  V30 2317 C 221.924 5.69396 -1.19009 0
M  V30 2318 N 220.9 5.41095 -0.521287 0
M  V30 2319 H 224.702 2.84833 -0.724394 0
M  V30 2320 H 222.216 1.54607 -0.497028 0
M  V30 2321 H 224.213 3.88543 1.51129 0
M  V30 2322 H 222.873 2.73373 1.75207 0
M  V30 2323 H 223.884 5.05525 -1.12537 0
M  V30 2324 H 220.561 3.99104 1.22565 0
M  V30 2325 H 221.951 6.41083 -2.01153 0
M  V30 2326 N 224.671 0.411399 1.52136 0
M  V30 2327 C 225.619 -0.427633 2.28635 0
M  V30 2328 C 226.613 -1.04383 1.33419 0
M  V30 2329 O 227.819 -0.981772 1.50868 0
M  V30 2330 H 224.194 -0.156689 0.735495 0
M  V30 2331 H 226.165 0.238761 2.97443 0
M  V30 2332 C 224.914 -1.53082 3.12188 0
M  V30 2333 H 224.237 -1.06601 3.85326 0
M  V30 2334 H 225.677 -2.09167 3.68816 0
M  V30 2335 C 224.136 -2.49946 2.25895 0
M  V30 2336 O 224.666 -3.53884 1.90076 0
M  V30 2337 N 222.872 -2.2021 1.8962 0
M  V30 2338 H 222.419 -1.35719 2.18948 0
M  V30 2339 H 222.377 -2.85266 1.32176 0
M  V30 2340 N 226.149 -1.5696 0.141893 0
M  V30 2341 C 227.426 -1.87553 -0.555281 0
M  V30 2342 C 227.806 -1.04699 -1.83306 0
M  V30 2343 O 227.154 -0.132346 -2.28116 0
M  V30 2344 C 227.364 -3.39093 -0.825664 0
M  V30 2345 C 228.712 -4.08199 -1.16869 0
M  V30 2346 O 229.736 -3.44242 -0.915185 0
M  V30 2347 O 228.595 -5.21139 -1.6455 0
M  V30 2348 H 225.689 -0.777188 -0.282679 0
M  V30 2349 H 228.235 -1.68763 0.17812 0
M  V30 2350 H 227.007 -3.91221 0.0788633 0
M  V30 2351 H 226.63 -3.63393 -1.61343 0
M  V30 2352 N 227.627 0.131896 -1.57047 0
M  V30 2353 C 228.873 0.843179 -1.84441 0
M  V30 2354 C 229.206 1.80129 -0.725749 0
M  V30 2355 O 228.481 1.92624 0.269469 0
M  V30 2356 C 228.764 1.60442 -3.22382 0
M  V30 2357 C 228.617 0.666782 -4.4483 0
M  V30 2358 C 229.936 2.56354 -3.5773 0
M  V30 2359 H 227.055 0.305081 -0.670891 0
M  V30 2360 H 229.697 0.107839 -1.89694 0
M  V30 2361 H 227.847 2.23128 -3.18035 0
M  V30 2362 H 229.519 0.0497646 -4.61273 0
M  V30 2363 H 227.762 -0.022609 -4.33794 0
M  V30 2364 H 228.433 1.23579 -5.37989 0
M  V30 2365 H 230.909 2.0378 -3.62785 0
M  V30 2366 H 229.785 3.06657 -4.5525 0
M  V30 2367 H 230.046 3.38419 -2.84473 0
M  V30 2368 N 229.106 1.52395 0.401703 0
M  V30 2369 C 230.334 1.70676 1.16949 0
M  V30 2370 C 230.749 0.419503 1.8408 0
M  V30 2371 O 230.106 -0.605061 1.72178 0
M  V30 2372 C 230.157 2.84753 2.22706 0
M  V30 2373 O 229.878 4.08495 1.58314 0
M  V30 2374 C 231.379 3.14608 3.12309 0
M  V30 2375 H 228.599 0.571787 0.351142 0
M  V30 2376 H 231.143 1.98987 0.471652 0
M  V30 2377 H 229.298 2.58941 2.88147 0
M  V30 2378 H 229.712 4.72117 2.28485 0
M  V30 2379 H 231.186 3.97923 3.82572 0
M  V30 2380 H 231.663 2.28464 3.75101 0
M  V30 2381 H 232.269 3.42212 2.52529 0
M  V30 2382 N 230.584 -0.659388 1.43143 0
M  V30 2383 C 231.534 -1.7655 1.44271 0
M  V30 2384 C 232.518 -1.57847 0.311961 0
M  V30 2385 O 233.71 -1.68064 0.555306 0
M  V30 2386 C 230.839 -3.15104 1.36251 0
M  V30 2387 C 229.925 -3.39377 2.54331 0
M  V30 2388 N 230.316 -3.34153 3.79704 0
M  V30 2389 C 228.614 -3.70072 2.48922 0
M  V30 2390 C 229.315 -3.58337 4.58225 0
M  V30 2391 N 228.291 -3.79851 3.88863 0
M  V30 2392 H 232.093 -1.70928 2.39083 0
M  V30 2393 H 229.607 -0.860823 1.37708 0
M  V30 2394 H 231.604 -3.94389 1.35141 0
M  V30 2395 H 230.264 -3.21913 0.424531 0
M  V30 2396 H 231.275 -3.13704 4.1208 0
M  V30 2397 H 227.952 -3.84034 1.63781 0
M  V30 2398 H 229.342 -3.60129 5.67236 0
M  V30 2399 N 232.062 -1.29571 -0.897171 0
M  V30 2400 C 232.992 -1.17473 -2.01798 0
M  V30 2401 C 233.973 -0.068323 -1.69963 0
M  V30 2402 O 235.158 -0.248239 -1.92607 0
M  V30 2403 C 232.288 -0.853099 -3.36659 0
M  V30 2404 C 231.242 -1.9161 -3.82713 0
M  V30 2405 C 230.568 -1.44773 -5.14728 0
M  V30 2406 C 231.868 -3.32535 -4.02763 0
M  V30 2407 H 233.562 -2.11237 -2.12177 0
M  V30 2408 H 231.108 -1.01699 -1.01948 0
M  V30 2409 H 233.061 -0.755165 -4.14578 0
M  V30 2410 H 231.785 0.120236 -3.26379 0
M  V30 2411 H 230.444 -2.00346 -3.07013 0
M  V30 2412 H 230.092 -0.462995 -5.00865 0
M  V30 2413 H 229.792 -2.15865 -5.46513 0
M  V30 2414 H 231.316 -1.36334 -5.95185 0
M  V30 2415 H 232.73 -3.26626 -4.71156 0
M  V30 2416 H 231.127 -4.01607 -4.45905 0
M  V30 2417 H 232.197 -3.75326 -3.07016 0
M  V30 2418 N 233.54 1.10788 -1.12088 0
M  V30 2419 C 234.503 2.15207 -0.788577 0
M  V30 2420 C 235.503 1.59609 0.195317 0
M  V30 2421 O 236.693 1.74174 -0.0300193 0
M  V30 2422 C 233.825 3.4047 -0.171174 0
M  V30 2423 H 235.018 2.46116 -1.71368 0
M  V30 2424 H 232.571 1.26089 -0.923652 0
M  V30 2425 H 233.306 3.15176 0.763832 0
M  V30 2426 H 233.091 3.82109 -0.879514 0
M  V30 2427 H 234.581 4.17576 0.04496 0
M  V30 2428 N 235.018 0.912232 1.28515 0
M  V30 2429 C 236.434 0.610159 1.47476 0
M  V30 2430 C 236.634 -0.844955 1.82928 0
M  V30 2431 O 235.69 -1.62416 1.93332 0
M  V30 2432 C 237.003 1.54675 2.57868 0
M  V30 2433 C 238.551 1.55331 2.71738 0
M  V30 2434 C 239.026 2.47649 3.85272 0
M  V30 2435 N 240.517 2.45767 3.92623 0
M  V30 2436 C 241.252 3.13896 4.79851 0
M  V30 2437 N 240.748 3.9135 5.71679 0
M  V30 2438 N 242.541 3.02991 4.73448 0
M  V30 2439 H 234.692 1.85318 1.03783 0
M  V30 2440 H 236.955 0.794777 0.516753 0
M  V30 2441 H 236.661 2.5841 2.38574 0
M  V30 2442 H 236.535 1.27671 3.54937 0
M  V30 2443 H 238.922 0.52335 2.90422 0
M  V30 2444 H 239.003 1.86378 1.75205 0
M  V30 2445 H 238.647 3.50745 3.67342 0
M  V30 2446 H 238.577 2.13904 4.81199 0
M  V30 2447 H 241.068 1.89503 3.26951 0
M  V30 2448 H 241.381 4.40359 6.35062 0
M  V30 2449 H 239.726 3.95455 5.71524 0
M  V30 2450 H 242.917 2.41987 4.007 0
M  V30 2451 H 243.09 3.5636 5.41213 0
M  V30 2452 N 236.496 -1.42363 0.676048 0
M  V30 2453 C 237.426 -2.33497 0.0124832 0
M  V30 2454 C 238.407 -1.50748 -0.787981 0
M  V30 2455 O 239.592 -1.79346 -0.744884 0
M  V30 2456 C 236.722 -3.34377 -0.938582 0
M  V30 2457 C 235.676 -4.27289 -0.246622 0
M  V30 2458 C 235.002 -5.18386 -1.31071 0
M  V30 2459 C 236.302 -5.14916 0.875125 0
M  V30 2460 H 237.996 -2.89233 0.773593 0
M  V30 2461 H 235.542 -1.39073 0.37346 0
M  V30 2462 H 237.495 -3.97044 -1.41188 0
M  V30 2463 H 236.219 -2.76947 -1.73113 0
M  V30 2464 H 234.878 -3.66018 0.206456 0
M  V30 2465 H 234.526 -4.57282 -2.09528 0
M  V30 2466 H 234.226 -5.81378 -0.852839 0
M  V30 2467 H 235.75 -5.83929 -1.78492 0
M  V30 2468 H 237.164 -5.71262 0.482983 0
M  V30 2469 H 235.561 -5.86747 1.25887 0
M  V30 2470 H 236.631 -4.53242 1.72335 0
M  V30 2471 N 237.974 -0.419461 -1.51915 0
M  V30 2472 C 238.904 0.391813 -2.30189 0
M  V30 2473 C 239.885 1.03699 -1.34836 0
M  V30 2474 O 241.07 1.04403 -1.63748 0
M  V30 2475 C 238.2 1.50312 -3.13087 0
M  V30 2476 C 237.154 0.9824 -4.16573 0
M  V30 2477 C 236.48 2.18809 -4.8788 0
M  V30 2478 C 237.78 0.0292356 -5.22292 0
M  V30 2479 H 239.474 -0.26135 -2.98257 0
M  V30 2480 H 237.02 -0.127134 -1.43438 0
M  V30 2481 H 238.973 2.07773 -3.66617 0
M  V30 2482 H 237.697 2.18431 -2.42807 0
M  V30 2483 H 236.356 0.430119 -3.64068 0
M  V30 2484 H 236.004 2.85507 -4.14119 0
M  V30 2485 H 235.704 1.84615 -5.57845 0
M  V30 2486 H 237.228 2.76858 -5.44226 0
M  V30 2487 H 238.642 0.512976 -5.71 0
M  V30 2488 H 237.039 -0.2244 -5.9968 0
M  V30 2489 H 238.109 -0.912931 -4.76228 0
M  V30 2490 N 239.452 1.56882 -0.150215 0
M  V30 2491 C 240.415 2.1573 0.774157 0
M  V30 2492 C 241.415 1.0999 1.17298 0
M  V30 2493 O 242.605 1.35613 1.09338 0
M  V30 2494 C 239.737 2.72302 2.05096 0
M  V30 2495 H 240.93 2.98752 0.262201 0
M  V30 2496 H 238.483 1.55985 0.099248 0
M  V30 2497 H 239.218 1.92956 2.6065 0
M  V30 2498 H 239.003 3.49665 1.77416 0
M  V30 2499 H 240.493 3.17632 2.71109 0
M  V30 2500 N 240.93 -0.123565 1.57115 0
M  V30 2501 C 242.155 -0.850398 1.89164 0
M  V30 2502 C 242.58 -1.7286 0.741688 0
M  V30 2503 O 241.938 -1.78665 -0.307958 0
M  V30 2504 C 241.986 -1.66353 3.19936 0
M  V30 2505 O 241.09 -2.77004 3.0552 0
M  V30 2506 H 240.431 -0.235454 0.620852 0
M  V30 2507 H 242.961 -0.107335 2.04318 0
M  V30 2508 H 242.971 -2.05372 3.52543 0
M  V30 2509 H 241.646 -1.01881 4.03228 0
M  V30 2510 H 240.223 -2.41221 2.84371 0
M  V30 2511 N 242.408 -1.52605 -0.393616 0
M  V30 2512 C 243.819 -1.59417 -0.971761 0
M  V30 2513 C 244.17 -0.444173 -1.91106 0
M  V30 2514 O 243.295 0.433382 -2.12016 0
M  V30 2515 C 243.89 -2.88936 -1.76921 0
M  V30 2516 C 242.449 -2.98175 -2.29714 0
M  V30 2517 C 241.596 -2.54491 -1.10135 0
M  V30 2518 H 244.547 -1.57751 -0.173317 0
M  V30 2519 H 244.568 -2.75163 -2.62804 0
M  V30 2520 H 244.08 -3.72616 -1.08532 0
M  V30 2521 H 242.181 -2.19024 -3.01429 0
M  V30 2522 H 242.294 -4.02726 -2.59517 0
M  V30 2523 H 240.658 -2.08702 -1.45999 0
M  V30 2524 H 241.441 -3.4056 -0.432874 0
M  V30 2525 N 243.887 0.651787 -1.4349 0
M  V30 2526 C 245.127 1.42345 -1.46688 0
M  V30 2527 C 245.491 1.91793 -0.0891023 0
M  V30 2528 O 246.692 2.688 0.00423594 0
M  V30 2529 C 244.963 2.57221 -2.48137 0
M  V30 2530 S 246.522 3.45725 -2.70221 0
M  V30 2531 H 243.34 0.485878 -0.51908 0
M  V30 2532 H 245.942 0.756578 -1.80267 0
M  V30 2533 H 244.646 2.1917 -3.46976 0
M  V30 2534 H 244.177 3.28757 -2.16061 0
M  V30 2535 H 246.192 4.53996 -2.00255 0
M  V30 2536 N 245.365 1.30045 0.890287 0
M  V30 2537 C 246.776 1.16738 1.45702 0
M  V30 2538 C 247.127 -0.233939 1.948 0
M  V30 2539 O 246.252 -1.13021 1.84541 0
M  V30 2540 C 246.847 2.11313 2.64825 0
M  V30 2541 C 245.406 2.02001 3.17604 0
M  V30 2542 C 244.553 2.01699 1.90296 0
M  V30 2543 H 247.504 1.42392 0.700726 0
M  V30 2544 H 247.525 1.69086 3.40867 0
M  V30 2545 H 247.037 3.13294 2.2906 0
M  V30 2546 H 245.138 1.03142 3.5804 0
M  V30 2547 H 245.251 2.90128 3.81264 0
M  V30 2548 H 243.615 1.46427 2.08402 0
M  V30 2549 H 244.398 3.05402 1.56795 0
M  V30 2550 N 246.843 -1.10192 1.12674 0
M  V30 2551 C 248.091 -1.81845 0.881861 0
M  V30 2552 C 248.412 -1.85737 -0.593867 0
M  V30 2553 O 247.682 -1.33724 -1.4316 0
M  V30 2554 H 246.262 -0.673432 0.323261 0
M  V30 2555 H 248.924 -1.33316 1.42172 0
M  V30 2556 H 248.02 -2.85288 1.2656 0
M  V30 2557 N 248.321 -0.919034 -1.28029 0
M  V30 2558 C 249.253 -0.368762 -2.26214 0
M  V30 2559 C 250.266 0.495716 -1.55069 0
M  V30 2560 O 251.455 0.30974 -1.75792 0
M  V30 2561 C 248.555 0.491049 -3.35324 0
M  V30 2562 C 247.728 -0.352133 -4.3598 0
M  V30 2563 C 246.787 0.443622 -5.24327 0
M  V30 2564 O 245.813 -0.14566 -5.69014 0
M  V30 2565 N 247.015 1.74545 -5.53637 0
M  V30 2566 H 249.78 -1.21273 -2.74068 0
M  V30 2567 H 247.341 -0.785541 -1.41566 0
M  V30 2568 H 249.333 1.03026 -3.91366 0
M  V30 2569 H 247.903 1.23574 -2.87138 0
M  V30 2570 H 247.123 -1.07269 -3.79324 0
M  V30 2571 H 248.411 -0.928883 -5.00249 0
M  V30 2572 H 247.809 2.24666 -5.19174 0
M  V30 2573 H 246.366 2.23138 -6.12416 0
M  V30 2574 N 249.799 1.42003 -0.683588 0
M  V30 2575 C 250.731 2.29183 0.0283068 0
M  V30 2576 C 251.744 1.4415 0.756611 0
M  V30 2577 O 252.933 1.67779 0.609306 0
M  V30 2578 C 250.033 3.21765 1.06398 0
M  V30 2579 C 249.206 4.35496 0.407723 0
M  V30 2580 C 248.265 5.08737 1.34437 0
M  V30 2581 O 247.291 5.62948 0.841318 0
M  V30 2582 N 248.493 5.15075 2.67728 0
M  V30 2583 H 251.258 2.9092 -0.720105 0
M  V30 2584 H 248.819 1.53025 -0.528682 0
M  V30 2585 H 250.811 3.6763 1.69204 0
M  V30 2586 H 249.381 2.61418 1.71404 0
M  V30 2587 H 248.601 3.92165 -0.400012 0
M  V30 2588 H 249.889 5.08776 -0.0490956 0
M  V30 2589 H 249.287 4.72457 3.11129 0
M  V30 2590 H 247.844 5.64556 3.2576 0
M  V30 2591 N 251.277 0.427512 1.51691 0
M  V30 2592 C 252.21 -0.433876 2.24037 0
M  V30 2593 C 253.188 -1.03287 1.25581 0
M  V30 2594 O 254.372 -1.07722 1.54688 0
M  V30 2595 C 251.499 -1.60385 2.98319 0
M  V30 2596 C 250.545 -1.12648 4.11355 0
M  V30 2597 S 251.378 -0.076543 5.35445 0
M  V30 2598 C 252.534 -1.25141 6.13262 0
M  V30 2599 H 252.767 0.180367 2.96752 0
M  V30 2600 H 250.3 0.211946 1.52938 0
M  V30 2601 H 252.258 -2.27462 3.41718 0
M  V30 2602 H 250.919 -2.18948 2.25213 0
M  V30 2603 H 250.112 -2.0011 4.62571 0
M  V30 2604 H 249.714 -0.534088 3.70167 0
M  V30 2605 H 252.006 -2.17162 6.41753 0
M  V30 2606 H 252.949 -0.779411 7.03797 0
M  V30 2607 H 253.357 -1.48553 5.44603 0
M  V30 2608 N 252.755 -1.56801 0.158532 0
M  V30 2609 C 254.001 -1.96781 -0.490405 0
M  V30 2610 C 254.334 -1.04397 -1.63753 0
M  V30 2611 O 253.609 -0.0885805 -1.94298 0
M  V30 2612 C 253.892 -3.4635 -0.985594 0
M  V30 2613 C 253.745 -4.49512 0.160824 0
M  V30 2614 C 255.064 -3.98697 -1.86355 0
M  V30 2615 H 252.183 -0.715482 -0.176788 0
M  V30 2616 H 254.825 -1.88451 0.242088 0
M  V30 2617 H 252.975 -3.53579 -1.60978 0
M  V30 2618 H 254.647 -4.54353 0.797537 0
M  V30 2619 H 252.89 -4.26013 0.818256 0
M  V30 2620 H 253.561 -5.51531 -0.227569 0
M  V30 2621 H 256.037 -3.94019 -1.33746 0
M  V30 2622 H 254.913 -5.03792 -2.17909 0
M  V30 2623 H 255.174 -3.41744 -2.8047 0
M  V30 2624 N 254.233 0.115231 -1.57178 0
M  V30 2625 C 255.479 0.82357 -1.85325 0
M  V30 2626 C 255.812 1.79349 -0.744814 0
M  V30 2627 O 255.087 1.92899 0.249024 0
M  V30 2628 C 255.37 1.57014 -3.24066 0
M  V30 2629 C 255.223 0.619565 -4.45513 0
M  V30 2630 C 256.542 2.52545 -3.60429 0
M  V30 2631 H 253.661 0.297948 -0.674089 0
M  V30 2632 H 256.303 0.0877138 -1.89797 0
M  V30 2633 H 254.453 2.19742 -3.20383 0
M  V30 2634 H 256.125 0.000837639 -4.613 0
M  V30 2635 H 254.368 -0.0686174 -4.33746 0
M  V30 2636 H 255.039 1.17866 -5.3927 0
M  V30 2637 H 257.515 1.9992 -3.64926 0
M  V30 2638 H 256.391 3.01811 -4.58477 0
M  V30 2639 H 256.652 3.35383 -2.88047 0
M  V30 2640 N 255.711 1.52812 0.385517 0
M  V30 2641 C 256.939 1.71907 1.15133 0
M  V30 2642 C 257.354 0.439004 1.83625 0
M  V30 2643 O 256.711 -0.586765 1.7281 0
M  V30 2644 C 256.762 2.87099 2.19673 0
M  V30 2645 O 256.483 4.10151 1.53973 0
M  V30 2646 C 257.984 3.17902 3.08955 0
M  V30 2647 H 255.204 0.575479 0.345057 0
M  V30 2648 H 257.748 1.99476 0.45052 0
M  V30 2649 H 255.903 2.61982 2.85384 0
M  V30 2650 H 256.317 4.74514 2.23465 0
M  V30 2651 H 257.791 4.01959 3.7833 0
M  V30 2652 H 258.268 2.3243 3.72657 0
M  V30 2653 H 258.874 3.44871 2.48885 0
M  V30 2654 N 257.189 -0.644168 1.43834 0
M  V30 2655 C 258.099 -1.78563 1.52159 0
M  V30 2656 C 259.115 -1.69147 0.408069 0
M  V30 2657 O 260.291 -1.90156 0.663524 0
M  V30 2658 C 257.356 -3.14888 1.45073 0
M  V30 2659 C 256.417 -3.36034 2.6717 0
M  V30 2660 C 255.65 -4.65855 2.60413 0
M  V30 2661 O 255.873 -5.45805 1.65689 0
M  V30 2662 O 254.807 -4.88918 3.5106 0
M  V30 2663 H 258.633 -1.74494 2.48567 0
M  V30 2664 H 256.218 -0.80378 1.25935 0
M  V30 2665 H 258.1 -3.96179 1.43597 0
M  V30 2666 H 256.775 -3.19528 0.518037 0
M  V30 2667 H 255.682 -2.54472 2.74217 0
M  V30 2668 H 257.015 -3.36247 3.59442 0
M  V30 2669 N 258.668 -1.30515 -0.883378 0
M  V30 2670 C 259.916 -1.19194 -1.63209 0
M  V30 2671 C 260.237 0.253205 -1.93349 0
M  V30 2672 O 259.507 1.17025 -1.57105 0
M  V30 2673 H 258.087 -0.438148 -0.605009 0
M  V30 2674 H 260.749 -1.63663 -1.05832 0
M  V30 2675 H 259.845 -1.75396 -2.58153 0
M  V30 2676 N 260.146 1.09593 -1.13257 0
M  V30 2677 C 261.392 1.82003 -0.89458 0
M  V30 2678 C 261.725 1.85402 0.577906 0
M  V30 2679 O 261 1.32099 1.42759 0
M  V30 2680 C 261.283 3.28237 -1.48096 0
M  V30 2681 C 261.136 3.3312 -3.02244 0
M  V30 2682 C 262.455 4.24871 -1.14774 0
M  V30 2683 H 259.574 0.66077 -0.326424 0
M  V30 2684 H 262.216 1.28389 -1.40058 0
M  V30 2685 H 260.366 3.74024 -1.05062 0
M  V30 2686 H 262.038 2.95748 -3.54021 0
M  V30 2687 H 260.281 2.72756 -3.37323 0
M  V30 2688 H 260.952 4.3613 -3.38371 0
M  V30 2689 H 263.428 3.87361 -1.51957 0
M  V30 2690 H 262.304 5.25532 -1.58452 0
M  V30 2691 H 262.565 4.42058 -0.0611849 0
M  V30 2692 N 261.624 0.925811 1.2754 0
M  V30 2693 C 262.871 0.565255 1.94451 0
M  V30 2694 C 263.199 -0.89316 1.7278 0
M  V30 2695 O 262.454 -1.65213 1.04895 0
M  V30 2696 C 262.753 0.835296 3.47502 0
M  V30 2697 C 262.419 2.27515 3.89291 0
M  V30 2698 C 261.081 2.66879 4.00411 0
M  V30 2699 C 263.433 3.21158 4.10496 0
M  V30 2700 C 260.761 3.99014 4.30122 0
M  V30 2701 C 263.113 4.52871 4.4169 0
M  V30 2702 C 261.777 4.92072 4.51023 0
M  V30 2703 H 261.047 0.206841 0.711546 0
M  V30 2704 H 263.694 1.16942 1.51647 0
M  V30 2705 H 261.999 0.148442 3.91519 0
M  V30 2706 H 263.696 0.535322 3.97411 0
M  V30 2707 H 260.286 1.95976 3.81171 0
M  V30 2708 H 264.47 2.9195 4.01346 0
M  V30 2709 H 259.726 4.2907 4.35556 0
M  V30 2710 H 263.9 5.25436 4.57045 0
M  V30 2711 H 261.527 5.9449 4.738 0
M  V30 2712 N 263.102 -1.41638 0.69111 0
M  V30 2713 C 264.327 -2.06148 0.227583 0
M  V30 2714 C 264.752 -1.51652 -1.11281 0
M  V30 2715 O 264.11 -0.64164 -1.69566 0
M  V30 2716 C 264.158 -3.60095 0.190858 0
M  V30 2717 O 263.262 -4.03845 -0.835664 0
M  V30 2718 H 262.603 -0.654434 0.112306 0
M  V30 2719 H 265.133 -1.81484 0.944714 0
M  V30 2720 H 265.143 -4.07995 0.020207 0
M  V30 2721 H 263.818 -3.99129 1.16915 0
M  V30 2722 H 262.395 -3.67458 -0.63473 0
M  V30 2723 N 264.58 -0.43555 -1.51462 0
M  V30 2724 C 265.513 0.421989 -2.24264 0
M  V30 2725 C 266.491 1.02619 -1.26127 0
M  V30 2726 O 267.675 1.069 -1.55257 0
M  V30 2727 C 264.802 1.588 -2.99166 0
M  V30 2728 C 263.848 1.10465 -4.11946 0
M  V30 2729 S 264.681 0.048146 -5.35478 0
M  V30 2730 C 265.837 1.21887 -6.13917 0
M  V30 2731 H 266.07 -0.196102 -2.96653 0
M  V30 2732 H 263.603 -0.220054 -1.52824 0
M  V30 2733 H 265.561 2.25647 -3.42919 0
M  V30 2734 H 264.222 2.1775 -2.26371 0
M  V30 2735 H 263.415 1.97654 -4.63626 0
M  V30 2736 H 263.017 0.51445 -3.70445 0
M  V30 2737 H 265.309 2.13756 -6.42895 0
M  V30 2738 H 266.252 0.742076 -7.04201 0
M  V30 2739 H 266.66 1.45663 -5.45383 0
M  V30 2740 N 266.058 1.56714 -0.166846 0
M  V30 2741 C 267.335 1.88412 0.525373 0
M  V30 2742 C 267.715 1.07602 1.81618 0
M  V30 2743 O 267.063 0.168621 2.27877 0
M  V30 2744 C 267.273 3.40363 0.771613 0
M  V30 2745 C 268.621 4.10007 1.1036 0
M  V30 2746 O 269.645 3.45655 0.860304 0
M  V30 2747 O 268.504 5.2369 1.56239 0
M  V30 2748 H 265.598 0.781587 0.270278 0
M  V30 2749 H 268.144 1.68458 -0.204946 0
M  V30 2750 H 266.916 3.91046 -0.141093 0
M  V30 2751 H 266.539 3.65914 1.55541 0
M  V30 2752 N 267.536 -0.106894 1.57237 0
M  V30 2753 C 268.784 -0.810921 1.85117 0
M  V30 2754 C 269.105 -1.7984 0.753827 0
M  V30 2755 O 268.375 -1.94649 -0.221056 0
M  V30 2756 H 266.955 -0.302466 0.683025 0
M  V30 2757 H 269.617 -0.0913324 1.94686 0
M  V30 2758 H 268.713 -1.34875 2.81452 0
M  V30 2759 N 269.014 -1.53014 -0.377408 0
M  V30 2760 C 270.291 -1.59215 -1.13622 0
M  V30 2761 C 270.671 -0.392407 -2.07421 0
M  V30 2762 O 270.019 0.618342 -2.19975 0
M  V30 2763 C 270.229 -2.93669 -1.88573 0
M  V30 2764 C 271.577 -3.47822 -2.43526 0
M  V30 2765 O 272.601 -2.9562 -1.98715 0
M  V30 2766 O 271.46 -4.39055 -3.25412 0
M  V30 2767 H 268.554 -0.642625 -0.52054 0
M  V30 2768 H 271.1 -1.65353 -0.381625 0
M  V30 2769 H 269.872 -3.7243 -1.20048 0
M  V30 2770 H 269.495 -2.90968 -2.70968 0
M  V30 2771 N 270.492 0.636531 -1.44174 0
M  V30 2772 C 271.717 1.42847 -1.50364 0
M  V30 2773 C 272.142 1.87665 -0.127867 0
M  V30 2774 O 271.5 1.58408 0.88185 0
M  V30 2775 C 271.548 2.62854 -2.4686 0
M  V30 2776 O 270.652 3.62501 -1.9664 0
M  V30 2777 H 269.993 0.427642 -0.507955 0
M  V30 2778 H 272.523 0.777422 -1.89255 0
M  V30 2779 H 272.533 3.10465 -2.64718 0
M  V30 2780 H 271.208 2.29578 -3.46795 0
M  V30 2781 H 269.785 3.21735 -1.88523 0
M  V30 2782 N 271.97 1.30982 0.876444 0
M  V30 2783 C 272.933 1.18054 1.96459 0
M  V30 2784 C 273.933 0.109399 1.60427 0
M  V30 2785 O 275.123 0.358173 1.70478 0
M  V30 2786 C 272.255 0.810616 3.31122 0
M  V30 2787 H 273.448 2.14735 2.09354 0
M  V30 2788 H 271.001 1.145 1.06392 0
M  V30 2789 H 271.736 -0.155322 3.23928 0
M  V30 2790 H 271.521 1.58481 3.58645 0
M  V30 2791 H 273.011 0.743876 4.10921 0
M  V30 2792 N 273.449 -1.08991 1.13837 0
M  V30 2793 C 274.86 -1.62746 0.914917 0
M  V30 2794 C 275.211 -1.88403 -0.547594 0
M  V30 2795 O 274.336 -1.63706 -1.41525 0
M  V30 2796 C 274.931 -2.95662 1.65437 0
M  V30 2797 C 273.49 -3.46225 1.47666 0
M  V30 2798 C 272.637 -2.20562 1.6807 0
M  V30 2799 H 275.588 -0.922946 1.29102 0
M  V30 2800 H 275.609 -3.63825 1.11407 0
M  V30 2801 H 275.121 -2.76956 2.71877 0
M  V30 2802 H 273.222 -3.70046 0.435478 0
M  V30 2803 H 273.335 -4.23368 2.24268 0
M  V30 2804 H 271.699 -2.29439 1.10589 0
M  V30 2805 H 272.482 -2.0437 2.7584 0
M  V30 2806 N 274.927 -0.932562 -1.27047 0
M  V30 2807 C 275.857 -0.452902 -2.29066 0
M  V30 2808 C 276.838 0.489338 -1.62909 0
M  V30 2809 O 278.023 0.393046 -1.90181 0
M  V30 2810 C 275.153 0.290698 -3.46081 0
M  V30 2811 C 274.107 -0.564168 -4.24265 0
M  V30 2812 C 273.433 0.308886 -5.33807 0
M  V30 2813 C 274.733 -1.83112 -4.89149 0
M  V30 2814 H 276.427 -1.30552 -2.69437 0
M  V30 2815 H 273.973 -0.629201 -1.29526 0
M  V30 2816 H 275.926 0.637233 -4.16554 0
M  V30 2817 H 274.65 1.17738 -3.0464 0
M  V30 2818 H 273.309 -0.893477 -3.55545 0
M  V30 2819 H 272.957 1.19467 -4.88607 0
M  V30 2820 H 272.657 -0.259633 -5.87026 0
M  V30 2821 H 274.181 0.650884 -6.07121 0
M  V30 2822 H 275.595 -1.55236 -5.51883 0
M  V30 2823 H 273.992 -2.34353 -5.52448 0
M  V30 2824 H 275.062 -2.54772 -4.12576 0
M  V30 2825 N 276.405 1.4127 -0.698611 0
M  V30 2826 C 277.368 2.29158 -0.044132 0
M  V30 2827 C 278.368 1.44529 0.704841 0
M  V30 2828 O 279.558 1.65643 0.539276 0
M  V30 2829 C 276.69 3.27459 0.947809 0
M  V30 2830 H 277.883 2.88529 -0.817994 0
M  V30 2831 H 275.436 1.49307 -0.46228 0
M  V30 2832 H 276.171 2.73073 1.74933 0
M  V30 2833 H 275.956 3.8991 0.41385 0
M  V30 2834 H 277.446 3.93311 1.40344 0
M  V30 2835 N 277.883 0.443576 1.51229 0
M  V30 2836 C 278.793 -0.370721 2.31652 0
M  V30 2837 C 279.809 -1.02186 1.40833 0
M  V30 2838 O 280.985 -1.01586 1.73903 0
M  V30 2839 C 278.05 -1.45376 3.14749 0
M  V30 2840 C 277.111 -0.822099 4.21355 0
M  V30 2841 C 276.344 -1.85353 5.0048 0
M  V30 2842 O 276.567 -3.07656 4.80316 0
M  V30 2843 O 275.501 -1.4406 5.84406 0
M  V30 2844 H 279.327 0.286002 3.0235 0
M  V30 2845 H 276.912 0.20598 1.47973 0
M  V30 2846 H 278.794 -2.08173 3.66391 0
M  V30 2847 H 277.469 -2.09445 2.46809 0
M  V30 2848 H 276.376 -0.155909 3.73775 0
M  V30 2849 H 277.709 -0.224797 4.91686 0
M  V30 2850 N 279.361 -1.56624 0.175154 0
M  V30 2851 C 280.61 -1.96173 -0.468921 0
M  V30 2852 C 280.923 -1.06401 -1.64128 0
M  V30 2853 O 282.129 -1.35648 -2.35185 0
M  V30 2854 C 280.585 -3.48833 -0.885633 0
M  V30 2855 C 280.193 -4.47237 0.261343 0
M  V30 2856 C 281.937 -3.97194 -1.49791 0
M  V30 2857 C 279.844 -5.9114 -0.175214 0
M  V30 2858 H 278.774 -0.732455 -0.178958 0
M  V30 2859 H 281.425 -1.81591 0.263997 0
M  V30 2860 H 279.807 -3.58848 -1.67464 0
M  V30 2861 H 280.981 -4.4894 1.03871 0
M  V30 2862 H 279.296 -4.08956 0.783827 0
M  V30 2863 H 281.893 -5.02167 -1.83665 0
M  V30 2864 H 282.236 -3.40351 -2.39722 0
M  V30 2865 H 282.769 -3.90212 -0.773267 0
M  V30 2866 H 279.508 -6.51865 0.689414 0
M  V30 2867 H 279.028 -5.92735 -0.91786 0
M  V30 2868 H 280.707 -6.44044 -0.617792 0
M  V30 2869 N 280.839 0.0985539 -1.57292 0
M  V30 2870 C 281.771 1.14595 -1.98496 0
M  V30 2871 C 282.784 1.36512 -0.887031 0
M  V30 2872 O 283.973 1.35225 -1.16518 0
M  V30 2873 C 281.073 2.50216 -2.28572 0
M  V30 2874 C 280.246 2.48624 -3.59868 0
M  V30 2875 C 279.305 3.66146 -3.7792 0
M  V30 2876 O 278.331 3.48795 -4.49812 0
M  V30 2877 N 279.533 4.85496 -3.18235 0
M  V30 2878 H 282.298 0.795277 -2.88956 0
M  V30 2879 H 279.859 0.287579 -1.59325 0
M  V30 2880 H 281.851 3.27432 -2.37845 0
M  V30 2881 H 280.421 2.77387 -1.44136 0
M  V30 2882 H 279.641 1.56978 -3.61596 0
M  V30 2883 H 280.929 2.44635 -4.46129 0
M  V30 2884 H 280.327 5.02497 -2.59833 0
M  V30 2885 H 278.884 5.60317 -3.32999 0
M  V30 2886 N 282.317 1.53212 0.369288 0
M  V30 2887 C 283.249 1.75668 1.47219 0
M  V30 2888 C 284.262 0.637387 1.49804 0
M  V30 2889 O 285.451 0.913561 1.5335 0
M  V30 2890 C 282.551 1.81818 2.85999 0
M  V30 2891 C 281.724 3.11409 3.07153 0
M  V30 2892 C 280.783 3.08849 4.26026 0
M  V30 2893 O 279.809 3.82659 4.2138 0
M  V30 2894 N 281.011 2.29409 5.33246 0
M  V30 2895 H 283.776 2.70832 1.28337 0
M  V30 2896 H 281.337 1.51944 0.55898 0
M  V30 2897 H 283.329 1.77588 3.63655 0
M  V30 2898 H 281.899 0.939544 2.98146 0
M  V30 2899 H 281.119 3.28971 2.1719 0
M  V30 2900 H 282.407 3.97059 3.18154 0
M  V30 2901 H 281.805 1.68946 5.39883 0
M  V30 2902 H 280.362 2.31001 6.09493 0
M  V30 2903 N 283.795 -0.628877 1.44509 0
M  V30 2904 C 285.041 -1.39045 1.47629 0
M  V30 2905 C 285.374 -1.93892 0.109343 0
M  V30 2906 O 284.649 -1.7379 -0.87334 0
M  V30 2907 C 284.932 -2.55408 2.53848 0
M  V30 2908 C 284.785 -2.05896 3.99909 0
M  V30 2909 C 286.104 -3.5759 2.56549 0
M  V30 2910 H 283.223 -0.504232 0.537512 0
M  V30 2911 H 285.865 -0.710854 1.76201 0
M  V30 2912 H 284.015 -3.13384 2.29615 0
M  V30 2913 H 285.687 -1.52734 4.35282 0
M  V30 2914 H 283.93 -1.37061 4.11578 0
M  V30 2915 H 284.601 -2.89681 4.69882 0
M  V30 2916 H 287.077 -3.09419 2.78207 0
M  V30 2917 H 285.953 -4.36527 3.32769 0
M  V30 2918 H 286.214 -4.11808 1.60832 0
M  V30 2919 N 285.273 -1.31445 -0.869486 0
M  V30 2920 C 286.501 -1.24122 -1.65534 0
M  V30 2921 C 286.916 0.193387 -1.87807 0
M  V30 2922 O 286.273 1.12557 -1.43656 0
M  V30 2923 C 286.324 -1.98229 -3.02304 0
M  V30 2924 O 286.045 -3.3609 -2.81026 0
M  V30 2925 C 287.546 -1.97751 -3.96749 0
M  V30 2926 H 284.766 -0.428868 -0.516055 0
M  V30 2927 H 287.31 -1.73328 -1.08525 0
M  V30 2928 H 285.465 -1.52782 -3.56001 0
M  V30 2929 H 285.879 -3.7383 -3.67902 0
M  V30 2930 H 287.353 -2.54114 -4.90031 0
M  V30 2931 H 287.83 -0.960137 -4.28577 0
M  V30 2932 H 288.436 -2.43079 -3.48988 0
M  V30 2933 N 286.751 1.08385 -1.14413 0
M  V30 2934 C 287.683 2.1519 -0.789036 0
M  V30 2935 C 288.696 1.61638 0.19417 0
M  V30 2936 O 289.885 1.78479 -0.0275711 0
M  V30 2937 C 286.985 3.38565 -0.15058 0
M  V30 2938 C 286.158 4.21501 -1.16857 0
M  V30 2939 C 285.217 5.23277 -0.553832 0
M  V30 2940 O 284.243 5.56041 -1.21686 0
M  V30 2941 N 285.445 5.76629 0.669296 0
M  V30 2942 H 288.21 2.46257 -1.70814 0
M  V30 2943 H 285.771 1.24198 -1.03858 0
M  V30 2944 H 287.763 4.03777 0.273181 0
M  V30 2945 H 286.333 3.05299 0.671667 0
M  V30 2946 H 285.553 3.52265 -1.76926 0
M  V30 2947 H 286.841 4.73731 -1.85624 0
M  V30 2948 H 286.239 5.52243 1.22654 0
M  V30 2949 H 284.796 6.43521 1.03556 0
M  V30 2950 N 288.23 0.939286 1.26551 0
M  V30 2951 C 289.162 0.404704 2.25599 0
M  V30 2952 C 290.175 -0.470983 1.55838 0
M  V30 2953 O 291.364 -0.281734 1.76263 0
M  V30 2954 C 288.464 -0.43764 3.36062 0
M  V30 2955 C 287.637 0.421449 4.35365 0
M  V30 2956 C 286.696 -0.36015 5.24966 0
M  V30 2957 O 285.722 0.236167 5.6871 0
M  V30 2958 N 286.924 -1.65715 5.56344 0
M  V30 2959 H 289.689 1.25618 2.72103 0
M  V30 2960 H 287.25 0.807963 1.40298 0
M  V30 2961 H 289.242 -0.967866 3.92956 0
M  V30 2962 H 287.812 -1.18991 2.89067 0
M  V30 2963 H 287.032 1.1329 3.7757 0
M  V30 2964 H 288.32 1.00835 4.98708 0
M  V30 2965 H 287.718 -2.16378 5.22682 0
M  V30 2966 H 286.275 -2.13366 6.15888 0
M  V30 2967 N 289.708 -1.40897 0.706093 0
M  V30 2968 C 290.658 -2.27987 0.0240746 0
M  V30 2969 C 291.642 -1.42759 -0.742204 0
M  V30 2970 O 292.834 -1.65936 -0.615966 0
M  V30 2971 C 289.963 -3.31186 -0.903907 0
M  V30 2972 C 289.049 -4.2389 -0.133318 0
M  V30 2973 N 289.44 -4.98113 0.878444 0
M  V30 2974 C 287.738 -4.44485 -0.367269 0
M  V30 2975 C 288.439 -5.6604 1.34064 0
M  V30 2976 N 287.415 -5.39522 0.664565 0
M  V30 2977 H 291.217 -2.82812 0.799658 0
M  V30 2978 H 288.731 -1.53235 0.537845 0
M  V30 2979 H 290.728 -3.92413 -1.40775 0
M  V30 2980 H 289.388 -2.77922 -1.67897 0
M  V30 2981 H 290.399 -5.02364 1.25901 0
M  V30 2982 H 287.076 -4.02213 -1.1194 0
M  V30 2983 H 288.466 -6.35524 2.1808 0
M  V30 2984 N 291.186 -0.45159 -1.50991 0
M  V30 2985 C 292.134 0.366864 -2.29689 0
M  V30 2986 C 293.128 1.00809 -1.36139 0
M  V30 2987 O 294.334 0.941427 -1.53418 0
M  V30 2988 H 290.709 0.137133 -0.739391 0
M  V30 2989 H 292.68 -0.317538 -2.96706 0
M  V30 2990 C 291.429 1.44751 -3.16137 0
M  V30 2991 H 290.752 0.963473 -3.88017 0
M  V30 2992 H 292.192 1.99315 -3.74232 0
M  V30 2993 C 290.651 2.43869 -2.32442 0
M  V30 2994 O 291.181 3.4872 -1.99392 0
M  V30 2995 N 289.387 2.15105 -1.95392 0
M  V30 2996 H 288.934 1.29866 -2.22469 0
M  V30 2997 H 288.892 2.81661 -1.39693 0
M  V30 2998 N 292.664 1.56529 -0.183458 0
M  V30 2999 C 293.912 1.96855 0.457452 0
M  V30 3000 C 294.233 1.07104 1.62953 0
M  V30 3001 O 293.503 0.139887 1.954 0
M  V30 3002 H 292.083 0.72693 0.171992 0
M  V30 3003 H 294.745 1.93056 -0.267476 0
M  V30 3004 H 293.841 3.01423 0.809368 0
M  V30 3005 N 294.142 -0.090211 1.57342 0
M  V30 3006 C 295.388 -0.788838 1.8748 0
M  V30 3007 C 295.743 -1.76105 0.7749 0
M  V30 3008 O 295.036 -1.90302 -0.222663 0
M  V30 3009 C 295.23 -1.55222 3.21933 0
M  V30 3010 C 295.059 -0.655441 4.44898 0
M  V30 3011 C 293.829 -0.299325 5.04413 0
M  V30 3012 C 296.027 0.0397458 5.14285 0
M  V30 3013 N 294.009 0.605108 6.10911 0
M  V30 3014 C 295.38 0.802061 6.1479 0
M  V30 3015 C 297.435 0.113154 4.97771 0
M  V30 3016 C 296.138 1.63093 7.00566 0
M  V30 3017 C 298.164 0.928942 5.84059 0
M  V30 3018 C 297.526 1.67936 6.84088 0
M  V30 3019 H 293.625 -0.26467 0.735849 0
M  V30 3020 H 296.209 -0.0511453 1.94633 0
M  V30 3021 H 294.38 -2.26076 3.15823 0
M  V30 3022 H 296.112 -2.19843 3.39781 0
M  V30 3023 H 292.867 -0.648079 4.69145 0
M  V30 3024 H 293.291 1.05002 6.68808 0
M  V30 3025 H 297.933 -0.452676 4.2037 0
M  V30 3026 H 295.651 2.20781 7.77355 0
M  V30 3027 H 299.237 0.988478 5.73341 0
M  V30 3028 H 298.117 2.30044 7.49699 0
M  V30 3029 N 295.62 -1.53406 -0.361157 0
M  V30 3030 C 296.55 -1.83136 -1.44857 0
M  V30 3031 C 297.531 -0.685174 -1.5569 0
M  V30 3032 O 298.716 -0.93544 -1.70186 0
M  V30 3033 C 295.846 -2.02522 -2.82138 0
M  V30 3034 C 294.8 -3.18302 -2.86126 0
M  V30 3035 C 294.126 -3.22989 -4.26125 0
M  V30 3036 C 295.426 -4.56796 -2.53248 0
M  V30 3037 H 297.12 -2.74201 -1.20226 0
M  V30 3038 H 294.666 -1.31938 -0.576922 0
M  V30 3039 H 296.619 -2.21904 -3.58241 0
M  V30 3040 H 295.343 -1.08172 -3.08166 0
M  V30 3041 H 294.002 -2.98747 -2.12475 0
M  V30 3042 H 293.65 -2.26267 -4.49235 0
M  V30 3043 H 293.35 -4.00781 -4.29708 0
M  V30 3044 H 294.874 -3.44559 -5.04094 0
M  V30 3045 H 296.288 -4.7631 -3.19064 0
M  V30 3046 H 294.685 -5.36862 -2.68141 0
M  V30 3047 H 295.755 -4.61606 -1.48484 0
M  V30 3048 N 297.098 0.621204 -1.44841 0
M  V30 3049 C 298.031 1.7459 -1.46947 0
M  V30 3050 C 299.009 1.59273 -0.327238 0
M  V30 3051 O 300.193 1.81021 -0.525706 0
M  V30 3052 C 297.32 3.12274 -1.31159 0
M  V30 3053 C 296.366 3.46216 -2.49072 0
M  V30 3054 S 297.199 3.4258 -4.11581 0
M  V30 3055 C 298.355 4.82867 -3.98233 0
M  V30 3056 H 298.588 1.72538 -2.42111 0
M  V30 3057 H 296.121 0.796683 -1.32259 0
M  V30 3058 H 298.079 3.91722 -1.22737 0
M  V30 3059 H 296.74 3.11855 -0.374885 0
M  V30 3060 H 295.933 4.4643 -2.33915 0
M  V30 3061 H 295.535 2.74253 -2.54286 0
M  V30 3062 H 297.827 5.7234 -3.62537 0
M  V30 3063 H 298.77 5.0308 -4.98313 0
M  V30 3064 H 299.178 4.57908 -3.30121 0
M  V30 3065 N 298.576 1.31904 0.862503 0
M  V30 3066 C 299.822 1.22197 1.61851 0
M  V30 3067 C 300.155 -0.217641 1.92977 0
M  V30 3068 O 299.43 -1.15264 1.56666 0
M  V30 3069 C 299.713 2.07378 2.94391 0
M  V30 3070 C 299.566 3.59678 2.70096 0
M  V30 3071 C 300.885 1.92891 3.95577 0
M  V30 3072 H 298.004 0.445255 0.587296 0
M  V30 3073 H 300.646 1.6177 0.99651 0
M  V30 3074 H 298.796 1.73758 3.47477 0
M  V30 3075 H 300.468 4.03472 2.23625 0
M  V30 3076 H 298.711 3.82735 2.04197 0
M  V30 3077 H 299.382 4.14595 3.64438 0
M  V30 3078 H 301.858 2.22327 3.51724 0
M  V30 3079 H 300.734 2.54781 4.86187 0
M  V30 3080 H 300.995 0.894315 4.3296 0
M  V30 3081 N 300.054 -1.07777 1.14986 0
M  V30 3082 C 301.331 -1.7699 0.832695 0
M  V30 3083 C 301.711 -2.001 -0.672561 0
M  V30 3084 O 301.059 -1.61598 -1.6155 0
M  V30 3085 C 301.269 -3.08139 1.63863 0
M  V30 3086 C 302.617 -3.8256 1.84208 0
M  V30 3087 O 303.641 -3.17939 1.60603 0
M  V30 3088 O 302.5 -4.98612 2.23714 0
M  V30 3089 H 299.594 -0.768389 0.305791 0
M  V30 3090 H 302.14 -1.14182 1.25541 0
M  V30 3091 H 300.912 -2.86909 2.6608 0
M  V30 3092 H 300.535 -3.78678 1.21197 0
M  V30 3093 N 301.532 -0.945985 -1.26051 0
M  V30 3094 C 302.809 -0.513816 -1.88731 0
M  V30 3095 C 303.189 1.00872 -1.8544 0
M  V30 3096 O 302.537 1.8708 -1.312 0
M  V30 3097 C 302.747 -1.08062 -3.31849 0
M  V30 3098 C 304.095 -1.1522 -4.08668 0
M  V30 3099 O 305.119 -1.03155 -3.40936 0
M  V30 3100 O 303.978 -1.34044 -5.29806 0
M  V30 3101 H 301.072 -0.168193 -0.809716 0
M  V30 3102 H 303.618 -1.03886 -1.34186 0
M  V30 3103 H 302.39 -2.1241 -3.2863 0
M  V30 3104 H 302.013 -0.538307 -3.93939 0
M  V30 3105 N 303.011 1.40521 -0.713556 0
M  V30 3106 C 303.974 2.29098 -0.0684347 0
M  V30 3107 C 304.974 1.45268 0.689472 0
M  V30 3108 O 306.164 1.66205 0.521677 0
M  V30 3109 C 303.296 3.28446 0.913024 0
M  V30 3110 H 304.489 2.87645 -0.84855 0
M  V30 3111 H 302.042 1.48809 -0.47809 0
M  V30 3112 H 302.777 2.74913 1.72027 0
M  V30 3113 H 302.562 3.90327 0.372472 0
M  V30 3114 H 304.052 3.94777 1.36165 0
M  V30 3115 N 304.489 0.459591 1.5075 0
M  V30 3116 C 305.439 -0.358926 2.25157 0
M  V30 3117 C 306.423 -0.971285 1.28276 0
M  V30 3118 O 307.615 -0.885739 1.53244 0
M  V30 3119 C 304.744 -1.44695 3.11317 0
M  V30 3120 C 303.83 -0.842894 4.15639 0
M  V30 3121 N 304.221 0.0299373 5.05791 0
M  V30 3122 C 302.519 -1.10809 4.32015 0
M  V30 3123 C 303.22 0.371563 5.80512 0
M  V30 3124 N 302.196 -0.250409 5.43023 0
M  V30 3125 H 305.998 0.313636 2.92222 0
M  V30 3126 H 303.512 0.273021 1.60089 0
M  V30 3127 H 305.509 -2.04641 3.63218 0
M  V30 3128 H 304.169 -2.12162 2.45799 0
M  V30 3129 H 305.18 0.39797 5.16369 0
M  V30 3130 H 301.857 -1.7786 3.77719 0
M  V30 3131 H 303.247 1.08319 6.63111 0
M  V30 3132 N 305.967 -1.56429 0.191757 0
M  V30 3133 C 307.215 -1.97095 -0.447006 0
M  V30 3134 C 307.536 -1.07967 -1.62383 0
M  V30 3135 O 306.806 -0.150248 -1.95323 0
M  V30 3136 H 305.386 -0.727832 -0.168135 0
M  V30 3137 H 308.048 -1.92911 0.27771 0
M  V30 3138 H 307.144 -3.01848 -0.793371 0
M  V30 3139 N 307.445 0.0818655 -1.57387 0
M  V30 3140 C 308.673 0.796108 -1.9097 0
M  V30 3141 C 309.088 1.71626 -0.786757 0
M  V30 3142 O 308.445 1.80908 0.240513 0
M  V30 3143 C 308.496 1.59829 -3.24248 0
M  V30 3144 O 308.217 0.715131 -4.32224 0
M  V30 3145 C 309.718 2.41442 -3.7178 0
M  V30 3146 H 306.938 0.22691 -0.631469 0
M  V30 3147 H 309.482 0.0551439 -2.04426 0
M  V30 3148 H 307.637 2.29163 -3.12351 0
M  V30 3149 H 308.051 1.27205 -5.08841 0
M  V30 3150 H 309.525 2.932 -4.67694 0
M  V30 3151 H 310.002 3.2051 -3.00283 0
M  V30 3152 H 310.608 1.77283 -3.86589 0
M  V30 3153 N 308.923 1.53595 0.353017 0
M  V30 3154 C 310.171 1.70049 1.09215 0
M  V30 3155 C 310.492 0.461406 1.89463 0
M  V30 3156 O 309.762 -0.524633 1.88744 0
M  V30 3157 H 308.342 0.626912 0.40619 0
M  V30 3158 H 311.004 1.90822 0.396585 0
M  V30 3159 H 310.1 2.56718 1.77488 0
M  V30 3160 N 310.401 -0.613514 1.45168 0
M  V30 3161 C 311.647 -1.37471 1.49096 0
M  V30 3162 C 311.98 -1.93765 0.129901 0
M  V30 3163 O 311.255 -1.74707 -0.854858 0
M  V30 3164 C 311.538 -2.52701 2.56542 0
M  V30 3165 C 311.391 -2.01643 4.0207 0
M  V30 3166 C 312.71 -3.54849 2.60327 0
M  V30 3167 H 309.829 -0.498502 0.54283 0
M  V30 3168 H 312.471 -0.692125 1.76945 0
M  V30 3169 H 310.621 -3.10931 2.32926 0
M  V30 3170 H 312.293 -1.48108 4.36877 0
M  V30 3171 H 310.536 -1.32688 4.13009 0
M  V30 3172 H 311.207 -2.84681 4.72928 0
M  V30 3173 H 313.683 -3.0645 2.81474 0
M  V30 3174 H 312.559 -4.32973 3.37381 0
M  V30 3175 H 312.82 -4.10079 1.6519 0
M  V30 3176 N 311.879 -1.3236 -0.855495 0
M  V30 3177 C 313.128 -1.22226 -1.60448 0
M  V30 3178 C 313.441 0.214733 -1.94418 0
M  V30 3179 O 314.647 0.437917 -2.67945 0
M  V30 3180 C 313.103 -2.14063 -2.89318 0
M  V30 3181 C 312.711 -3.62839 -2.62777 0
M  V30 3182 C 314.455 -2.12764 -3.67331 0
M  V30 3183 C 312.362 -4.4664 -3.87643 0
M  V30 3184 H 311.292 -0.453904 -0.602069 0
M  V30 3185 H 313.943 -1.57314 -0.944698 0
M  V30 3186 H 312.325 -1.71889 -3.5675 0
M  V30 3187 H 313.499 -4.1335 -2.03662 0
M  V30 3188 H 311.814 -3.66261 -1.98096 0
M  V30 3189 H 314.411 -2.72611 -4.59987 0
M  V30 3190 H 314.754 -1.11841 -4.00995 0
M  V30 3191 H 315.287 -2.53214 -3.06802 0
M  V30 3192 H 312.026 -5.48373 -3.5912 0
M  V30 3193 H 311.546 -4.0088 -4.46156 0
M  V30 3194 H 313.225 -4.59597 -4.55389 0
M  V30 3195 N 313.357 1.07166 -1.15556 0
M  V30 3196 C 314.605 1.79443 -0.929764 0
M  V30 3197 C 314.926 1.87246 0.544414 0
M  V30 3198 O 314.196 1.37473 1.39564 0
M  V30 3199 H 312.776 0.664625 -0.341003 0
M  V30 3200 H 315.438 1.29499 -1.45657 0
M  V30 3201 H 314.534 2.81832 -1.34079 0
M  V30 3202 N 314.835 0.952656 1.25548 0
M  V30 3203 C 315.745 0.47782 2.29682 0
M  V30 3204 C 316.761 -0.453859 1.67977 0
M  V30 3205 O 317.937 -0.330587 1.98668 0
M  V30 3206 C 315.002 -0.238655 3.45878 0
M  V30 3207 C 314.063 0.730994 4.23031 0
M  V30 3208 C 313.296 0.0486165 5.33678 0
M  V30 3209 O 313.519 -1.16612 5.58353 0
M  V30 3210 O 312.453 0.733152 5.97418 0
M  V30 3211 H 316.279 1.34312 2.72386 0
M  V30 3212 H 313.864 0.719026 1.30959 0
M  V30 3213 H 315.746 -0.641774 4.16484 0
M  V30 3214 H 314.421 -1.07916 3.05181 0
M  V30 3215 H 313.328 1.18428 3.5486 0
M  V30 3216 H 314.661 1.53946 4.67506 0
M  V30 3217 N 316.313 -1.40141 0.720998 0
M  V30 3218 C 317.245 -2.29177 0.0324669 0
M  V30 3219 C 318.258 -1.46105 -0.718126 0
M  V30 3220 O 319.447 -1.69335 -0.564608 0
M  V30 3221 C 316.547 -3.24473 -0.978292 0
M  V30 3222 C 315.72 -4.36423 -0.292115 0
M  V30 3223 C 314.779 -5.12122 -1.20901 0
M  V30 3224 O 313.805 -5.64981 -0.691766 0
M  V30 3225 N 315.007 -5.21992 -2.53978 0
M  V30 3226 H 317.772 -2.88909 0.796984 0
M  V30 3227 H 315.333 -1.51569 0.569068 0
M  V30 3228 H 317.325 -3.71987 -1.59398 0
M  V30 3229 H 315.895 -2.65871 -1.64413 0
M  V30 3230 H 315.115 -3.90967 0.503847 0
M  V30 3231 H 316.403 -5.08467 0.183971 0
M  V30 3232 H 315.801 -4.8054 -2.98493 0
M  V30 3233 H 314.358 -5.72995 -3.10677 0
M  V30 3234 N 317.792 -0.46758 -1.50504 0
M  V30 3235 C 319.04 0.0884469 -2.01906 0
M  V30 3236 C 319.361 1.40532 -1.35188 0
M  V30 3237 O 318.631 1.89515 -0.496079 0
M  V30 3238 H 317.211 0.0356765 -0.746148 0
M  V30 3239 H 319.873 -0.6172 -1.84869 0
M  V30 3240 H 318.969 0.2425 -3.11156 0
M  V30 3241 N 319.27 1.56325 -0.20005 0
M  V30 3242 C 320.686 1.58839 0.155716 0
M  V30 3243 C 320.886 1.21636 1.60645 0
M  V30 3244 O 319.942 0.941437 2.34293 0
M  V30 3245 C 321.255 3.0032 -0.151124 0
M  V30 3246 C 322.803 3.12866 -0.0916284 0
M  V30 3247 C 323.278 4.56488 -0.371845 0
M  V30 3248 N 324.769 4.62089 -0.320641 0
M  V30 3249 C 325.504 5.71116 -0.511243 0
M  V30 3250 N 325 6.88592 -0.762461 0
M  V30 3251 N 326.793 5.60335 -0.445157 0
M  V30 3252 H 318.944 1.78788 -1.14668 0
M  V30 3253 H 321.207 0.829996 -0.458051 0
M  V30 3254 H 320.913 3.32117 -1.15721 0
M  V30 3255 H 320.787 3.73257 0.543986 0
M  V30 3256 H 323.174 2.80878 0.905065 0
M  V30 3257 H 323.255 2.42304 -0.81989 0
M  V30 3258 H 322.899 4.89189 -1.36588 0
M  V30 3259 H 322.829 5.25246 0.377362 0
M  V30 3260 H 325.32 3.77665 -0.13329 0
M  V30 3261 H 325.633 7.67581 -0.896576 0
M  V30 3262 H 323.978 6.90387 -0.799412 0
M  V30 3263 H 327.169 4.67436 -0.249278 0
M  V30 3264 H 327.342 6.45243 -0.597116 0
M  V30 3265 N 320.748 -0.0735177 1.57428 0
M  V30 3266 C 321.996 -0.771472 1.86796 0
M  V30 3267 C 322.317 -1.78201 0.791804 0
M  V30 3268 O 321.587 -1.95074 -0.179718 0
M  V30 3269 H 320.167 -0.28791 0.689287 0
M  V30 3270 H 322.829 -0.0500161 1.94836 0
M  V30 3271 H 321.925 -1.28874 2.8425 0
M  V30 3272 N 322.226 -1.5378 -0.344866 0
M  V30 3273 C 323.451 -1.75211 -1.10977 0
M  V30 3274 C 323.876 -0.48936 -1.81623 0
M  V30 3275 O 323.234 0.557925 -1.72502 0
M  V30 3276 C 323.282 -2.93147 -2.09993 0
M  V30 3277 O 322.386 -2.63203 -3.17487 0
M  V30 3278 H 321.727 -0.581241 -0.321021 0
M  V30 3279 H 324.257 -2.00738 -0.395661 0
M  V30 3280 H 324.267 -3.19898 -2.53237 0
M  V30 3281 H 322.942 -3.84731 -1.5797 0
M  V30 3282 H 321.519 -2.47336 -2.79069 0
M  V30 3283 N 323.704 0.605807 -1.45491 0
M  V30 3284 C 324.944 1.37606 -1.51142 0
M  V30 3285 C 325.308 1.91413 -0.150075 0
M  V30 3286 O 326.509 2.68677 -0.0812828 0
M  V30 3287 C 324.78 2.49197 -2.56195 0
M  V30 3288 S 326.339 3.36953 -2.81083 0
M  V30 3289 H 323.157 0.469118 -0.534275 0
M  V30 3290 H 325.759 0.698845 -1.82583 0
M  V30 3291 H 324.463 2.0802 -3.53773 0
M  V30 3292 H 323.994 3.21717 -2.26411 0
M  V30 3293 H 326.009 4.47395 -2.14598 0
M  V30 3294 N 325.182 1.32811 0.848464 0
M  V30 3295 C 326.428 1.24917 1.60522 0
M  V30 3296 C 326.783 -0.185761 1.91501 0
M  V30 3297 O 326.076 -1.12524 1.55077 0
M  V30 3298 C 326.27 2.04831 2.92881 0
M  V30 3299 C 326.099 3.55949 2.74828 0
M  V30 3300 C 324.869 4.25277 2.72887 0
M  V30 3301 C 327.067 4.50476 2.48145 0
M  V30 3302 N 325.049 5.62408 2.46111 0
M  V30 3303 C 326.42 5.75427 2.30832 0
M  V30 3304 C 328.475 4.39665 2.33664 0
M  V30 3305 C 327.178 6.90789 2.00508 0
M  V30 3306 C 329.204 5.54833 2.04731 0
M  V30 3307 C 328.566 6.78787 1.88223 0
M  V30 3308 H 324.665 0.512279 0.590842 0
M  V30 3309 H 327.249 1.67246 0.996839 0
M  V30 3310 H 325.42 1.64837 3.51686 0
M  V30 3311 H 327.152 1.88782 3.57971 0
M  V30 3312 H 323.907 3.77456 2.86049 0
M  V30 3313 H 324.331 6.3467 2.35634 0
M  V30 3314 H 328.973 3.44477 2.45144 0
M  V30 3315 H 326.691 7.85984 1.87765 0
M  V30 3316 H 330.277 5.48398 1.94295 0
M  V30 3317 H 329.157 7.66396 1.66155 0
M  V30 3318 N 326.66 -1.06551 1.16123 0
M  V30 3319 C 327.59 -2.15935 0.88851 0
M  V30 3320 C 328.571 -1.69306 -0.164135 0
M  V30 3321 O 329.756 -1.94193 -0.0167857 0
M  V30 3322 C 326.886 -3.45149 0.385942 0
M  V30 3323 C 325.84 -4.05271 1.3762 0
M  V30 3324 C 325.166 -5.29664 0.732137 0
M  V30 3325 C 326.466 -4.44355 2.74493 0
M  V30 3326 H 328.16 -2.39006 1.80323 0
M  V30 3327 H 325.706 -1.14866 0.868435 0
M  V30 3328 H 327.659 -4.21004 0.182647 0
M  V30 3329 H 326.383 -3.21689 -0.564274 0
M  V30 3330 H 325.042 -3.3147 1.56599 0
M  V30 3331 H 324.69 -5.02499 -0.224483 0
M  V30 3332 H 324.39 -5.70848 1.39307 0
M  V30 3333 H 325.914 -6.08218 0.538802 0
M  V30 3334 H 327.328 -5.11303 2.59311 0
M  V30 3335 H 325.725 -4.96515 3.37035 0
M  V30 3336 H 326.795 -3.55339 3.29943 0
M  V30 3337 N 328.138 -0.959301 -1.25041 0
M  V30 3338 C 329.07 -0.440543 -2.24926 0
M  V30 3339 C 330.083 0.446131 -1.56568 0
M  V30 3340 O 331.272 0.253657 -1.76689 0
M  V30 3341 C 328.372 0.38412 -3.36716 0
M  V30 3342 C 327.545 -0.490658 -4.34639 0
M  V30 3343 C 326.604 0.276587 -5.25473 0
M  V30 3344 O 325.63 -0.326614 -5.68262 0
M  V30 3345 N 326.832 1.56844 -5.5891 0
M  V30 3346 H 329.597 -1.29931 -2.70071 0
M  V30 3347 H 327.158 -0.830181 -1.38995 0
M  V30 3348 H 329.15 0.905228 -3.94446 0
M  V30 3349 H 327.72 1.14377 -2.90924 0
M  V30 3350 H 326.94 -1.19282 -3.7572 0
M  V30 3351 H 328.228 -1.08756 -4.97041 0
M  V30 3352 H 327.626 2.08036 -5.26059 0
M  V30 3353 H 326.183 2.03541 -6.19205 0
M  V30 3354 N 329.616 1.39756 -0.72842 0
M  V30 3355 C 330.563 2.30647 -0.0841519 0
M  V30 3356 C 331.533 1.48869 0.7367 0
M  V30 3357 O 332.718 1.77574 0.698015 0
M  V30 3358 C 329.858 3.35165 0.822091 0
M  V30 3359 C 328.971 4.31999 -0.0106663 0
M  V30 3360 C 328.106 5.23585 0.896241 0
M  V30 3361 C 327.145 6.12072 0.0583381 0
M  V30 3362 N 326.282 6.96035 0.920818 0
M  V30 3363 H 331.122 2.85173 -0.864891 0
M  V30 3364 H 328.659 1.40422 -0.438179 0
M  V30 3365 H 330.617 3.94345 1.36189 0
M  V30 3366 H 329.247 2.8211 1.56888 0
M  V30 3367 H 328.299 3.74492 -0.66781 0
M  V30 3368 H 329.611 4.9443 -0.658825 0
M  V30 3369 H 328.765 5.87759 1.50412 0
M  V30 3370 H 327.504 4.61459 1.57819 0
M  V30 3371 H 326.509 5.46916 -0.562389 0
M  V30 3372 H 327.734 6.76261 -0.6203 0
M  V30 3373 H 325.68 6.36485 1.58818 0
M  V30 3374 H 325.597 7.55284 0.32899 0
M  V30 3375 H 326.865 7.64646 1.51447 0
M  V30 3376 N 331.094 0.475555 1.50254 0
M  V30 3377 C 332.34 -0.0780073 2.0265 0
M  V30 3378 C 332.673 -1.38968 1.35652 0
M  V30 3379 O 331.948 -1.8839 0.483691 0
M  V30 3380 C 332.231 -0.257161 3.59181 0
M  V30 3381 C 332.084 1.07585 4.36744 0
M  V30 3382 C 333.403 -1.00965 4.28362 0
M  V30 3383 H 330.522 -0.0268758 0.73651 0
M  V30 3384 H 333.164 0.622015 1.7953 0
M  V30 3385 H 331.314 -0.853412 3.79011 0
M  V30 3386 H 332.986 1.70902 4.28474 0
M  V30 3387 H 331.229 1.6714 4.00308 0
M  V30 3388 H 331.9 0.904088 5.44546 0
M  V30 3389 H 334.376 -0.504214 4.13034 0
M  V30 3390 H 333.252 -1.10381 5.37687 0
M  V30 3391 H 333.513 -2.04731 3.91839 0
M  V30 3392 N 332.573 -1.56217 0.208337 0
M  V30 3393 C 333.52 -2.19699 -0.707192 0
M  V30 3394 C 334.49 -1.14836 -1.20008 0
M  V30 3395 O 335.675 -1.4314 -1.26157 0
M  V30 3396 C 332.815 -2.87061 -1.91546 0
M  V30 3397 C 331.928 -4.06483 -1.46271 0
M  V30 3398 C 331.063 -4.61665 -2.62752 0
M  V30 3399 C 330.102 -5.73417 -2.14147 0
M  V30 3400 N 329.239 -6.22948 -3.23853 0
M  V30 3401 H 334.079 -2.97575 -0.159111 0
M  V30 3402 H 331.616 -1.46948 -0.0667874 0
M  V30 3403 H 333.574 -3.24294 -2.62468 0
M  V30 3404 H 332.204 -2.11725 -2.43664 0
M  V30 3405 H 331.256 -3.74825 -0.648886 0
M  V30 3406 H 332.568 -4.87271 -1.06622 0
M  V30 3407 H 331.722 -5.01272 -3.41776 0
M  V30 3408 H 330.461 -3.80013 -3.05682 0
M  V30 3409 H 329.466 -5.33326 -1.33581 0
M  V30 3410 H 330.691 -6.56897 -1.72232 0
M  V30 3411 H 328.637 -5.44213 -3.6629 0
M  V30 3412 H 328.554 -6.98823 -2.88414 0
M  V30 3413 H 329.822 -6.6721 -4.03052 0
M  V30 3414 N 334.051 0.0651679 -1.57465 0
M  V30 3415 C 335.462 0.616213 -1.76238 0
M  V30 3416 C 335.813 1.7756 -0.834689 0
M  V30 3417 O 334.938 2.1639 -0.0204156 0
M  V30 3418 C 335.533 1.12462 -3.1959 0
M  V30 3419 C 334.092 1.62147 -3.39684 0
M  V30 3420 C 333.239 0.543739 -2.71917 0
M  V30 3421 H 336.19 -0.161022 -1.57881 0
M  V30 3422 H 336.211 1.99324 -3.24114 0
M  V30 3423 H 335.723 0.280592 -3.87084 0
M  V30 3424 H 333.824 2.48854 -2.77313 0
M  V30 3425 H 333.937 1.69385 -4.48158 0
M  V30 3426 H 332.301 0.990352 -2.34657 0
M  V30 3427 H 333.084 -0.290216 -3.42071 0
M  V30 3428 N 335.529 1.53961 0.336706 0
M  V30 3429 C 336.439 1.85432 1.43708 0
M  V30 3430 C 337.455 0.745053 1.57242 0
M  V30 3431 O 338.631 1.03804 1.72588 0
M  V30 3432 C 335.696 2.06349 2.78605 0
M  V30 3433 C 334.757 3.30191 2.74358 0
M  V30 3434 C 333.99 3.50101 4.02822 0
M  V30 3435 O 334.213 2.7371 5.00439 0
M  V30 3436 O 333.147 4.43547 4.06878 0
M  V30 3437 H 336.973 2.78975 1.20028 0
M  V30 3438 H 334.558 1.39701 0.52952 0
M  V30 3439 H 336.44 2.21513 3.58483 0
M  V30 3440 H 335.115 1.15995 3.02203 0
M  V30 3441 H 334.022 3.20425 1.93078 0
M  V30 3442 H 335.355 4.2056 2.55715 0
M  V30 3443 N 337.007 -0.598083 1.45811 0
M  V30 3444 C 337.937 -1.71873 1.58057 0
M  V30 3445 C 338.918 -1.64533 0.431615 0
M  V30 3446 O 340.103 -1.82787 0.65595 0
M  V30 3447 C 337.233 -3.10495 1.55597 0
M  V30 3448 C 336.187 -3.32654 2.69305 0
M  V30 3449 C 335.513 -4.71646 2.51902 0
M  V30 3450 C 336.813 -3.21981 4.11248 0
M  V30 3451 H 338.507 -1.61881 2.51863 0
M  V30 3452 H 336.053 -0.777372 1.21214 0
M  V30 3453 H 338.006 -3.88699 1.6276 0
M  V30 3454 H 336.73 -3.2135 0.583255 0
M  V30 3455 H 335.389 -2.56843 2.61586 0
M  V30 3456 H 335.037 -4.79246 1.52748 0
M  V30 3457 H 334.737 -4.87426 3.2816 0
M  V30 3458 H 336.261 -5.52038 2.60933 0
M  V30 3459 H 337.675 -3.90049 4.20161 0
M  V30 3460 H 336.072 -3.49289 4.87972 0
M  V30 3461 H 337.142 -2.1928 4.32486 0
M  V30 3462 N 338.485 -1.33259 -0.841409 0
M  V30 3463 C 339.415 -1.25926 -1.96634 0
M  V30 3464 C 340.396 -0.140349 -1.6952 0
M  V30 3465 O 341.581 -0.329707 -1.91381 0
M  V30 3466 C 338.711 -0.99512 -3.32738 0
M  V30 3467 C 337.665 -2.0767 -3.74242 0
M  V30 3468 C 336.991 -1.66474 -5.08125 0
M  V30 3469 C 338.291 -3.49318 -3.88297 0
M  V30 3470 H 339.985 -2.20046 -2.03027 0
M  V30 3471 H 337.531 -1.05931 -0.975425 0
M  V30 3472 H 339.484 -0.930323 -4.11002 0
M  V30 3473 H 338.208 -0.0183004 -3.26595 0
M  V30 3474 H 336.867 -2.13187 -2.98239 0
M  V30 3475 H 336.515 -0.675012 -4.9845 0
M  V30 3476 H 336.215 -2.3885 -5.36865 0
M  V30 3477 H 337.739 -1.61455 -5.88867 0
M  V30 3478 H 339.153 -3.46316 -4.56879 0
M  V30 3479 H 337.55 -4.20158 -4.28471 0
M  V30 3480 H 338.62 -3.8801 -2.9082 0
M  V30 3481 N 339.963 1.05934 -1.16686 0
M  V30 3482 C 341.209 1.79065 -0.95203 0
M  V30 3483 C 341.542 1.87147 0.518629 0
M  V30 3484 O 340.817 1.36574 1.38484 0
M  V30 3485 C 341.1 3.23359 -1.58464 0
M  V30 3486 C 340.953 3.23336 -3.12689 0
M  V30 3487 C 342.272 4.21004 -1.28232 0
M  V30 3488 H 339.391 0.65005 -0.34728 0
M  V30 3489 H 342.033 1.23868 -1.44072 0
M  V30 3490 H 340.183 3.70493 -1.16908 0
M  V30 3491 H 341.855 2.84336 -3.6325 0
M  V30 3492 H 340.098 2.61886 -3.4583 0
M  V30 3493 H 340.769 4.25144 -3.52075 0
M  V30 3494 H 343.245 3.8233 -1.64203 0
M  V30 3495 H 342.121 5.20225 -1.75092 0
M  V30 3496 H 342.382 4.41639 -0.201791 0
M  V30 3497 N 341.441 0.965919 1.2453 0
M  V30 3498 C 342.687 0.62776 1.92839 0
M  V30 3499 C 343.02 -0.834694 1.75347 0
M  V30 3500 O 342.295 -1.60031 1.10546 0
M  V30 3501 C 342.578 1.00109 3.45905 0
M  V30 3502 C 342.431 2.52011 3.72573 0
M  V30 3503 C 343.75 0.53435 4.36844 0
M  V30 3504 H 340.869 0.229537 0.700344 0
M  V30 3505 H 343.511 1.2046 1.46933 0
M  V30 3506 H 341.661 0.510238 3.85135 0
M  V30 3507 H 343.333 3.08559 3.42912 0
M  V30 3508 H 341.576 2.95287 3.17786 0
M  V30 3509 H 342.247 2.73183 4.79661 0
M  V30 3510 H 344.723 0.955565 4.04979 0
M  V30 3511 H 343.599 0.824152 5.42678 0
M  V30 3512 H 343.86 -0.565589 4.38467 0
M  V30 3513 N 342.919 -1.39368 0.735821 0
M  V30 3514 C 344.147 -2.04795 0.294393 0
M  V30 3515 C 344.562 -1.55478 -1.07107 0
M  V30 3516 O 343.919 -0.720038 -1.67695 0
M  V30 3517 C 343.97 -3.6035 0.288071 0
M  V30 3518 O 343.691 -4.07852 1.59963 0
M  V30 3519 C 345.192 -4.42976 -0.169422 0
M  V30 3520 H 342.412 -0.658571 0.128551 0
M  V30 3521 H 344.956 -1.78399 0.999701 0
M  V30 3522 H 343.111 -3.85645 -0.368355 0
M  V30 3523 H 343.525 -5.02181 1.51375 0
M  V30 3524 H 344.999 -5.51864 -0.122687 0
M  V30 3525 H 345.476 -4.22068 -1.21472 0
M  V30 3526 H 346.082 -4.22832 0.457469 0
M  V30 3527 N 344.397 -0.483516 -1.5 0
M  V30 3528 C 345.644 0.0671597 -2.02389 0
M  V30 3529 C 345.972 1.38597 -1.36459 0
M  V30 3530 O 345.227 1.89634 -0.483458 0
M  V30 3531 C 345.526 0.286226 -3.56252 0
M  V30 3532 C 345.192 -0.952416 -4.40726 0
M  V30 3533 C 343.854 -1.29199 -4.63531 0
M  V30 3534 C 346.206 -1.77655 -4.89988 0
M  V30 3535 C 343.534 -2.45553 -5.32842 0
M  V30 3536 C 345.886 -2.93147 -5.60578 0
M  V30 3537 C 344.55 -3.27505 -5.81633 0
M  V30 3538 H 343.82 0.0245755 -0.740592 0
M  V30 3539 H 346.467 -0.640124 -1.80485 0
M  V30 3540 H 344.772 1.07587 -3.76739 0
M  V30 3541 H 346.469 0.726473 -3.94365 0
M  V30 3542 H 343.059 -0.677881 -4.23205 0
M  V30 3543 H 347.243 -1.52737 -4.72213 0
M  V30 3544 H 342.499 -2.72431 -5.47349 0
M  V30 3545 H 346.673 -3.57344 -5.97727 0
M  V30 3546 H 344.3 -4.1777 -6.35116 0
M  V30 3547 N 345.875 1.56104 -0.216619 0
M  V30 3548 C 347.123 1.97781 0.415593 0
M  V30 3549 C 347.444 1.10536 1.60645 0
M  V30 3550 O 346.714 0.181303 1.95059 0
M  V30 3551 H 345.294 0.730415 0.156534 0
M  V30 3552 H 347.956 1.92445 -0.308366 0
M  V30 3553 H 347.052 3.03072 0.74525 0
M  V30 3554 N 347.353 -0.0568162 1.57498 0
M  V30 3555 C 348.3 -1.06591 2.04712 0
M  V30 3556 C 349.27 -1.3758 0.930644 0
M  V30 3557 O 350.455 -1.48392 1.19935 0
M  V30 3558 C 347.595 -2.3701 2.50839 0
M  V30 3559 C 346.708 -2.12421 3.76167 0
M  V30 3560 C 345.843 -3.36511 4.11015 0
M  V30 3561 C 344.882 -3.07353 5.2934 0
M  V30 3562 N 344.019 -4.23816 5.59754 0
M  V30 3563 H 348.859 -0.65631 2.90683 0
M  V30 3564 H 346.396 -0.312481 1.43743 0
M  V30 3565 H 348.354 -3.13175 2.7564 0
M  V30 3566 H 346.984 -2.75744 1.67825 0
M  V30 3567 H 346.036 -1.2688 3.58616 0
M  V30 3568 H 347.348 -1.86894 4.62463 0
M  V30 3569 H 346.502 -4.21062 4.36797 0
M  V30 3570 H 345.241 -3.65128 3.23315 0
M  V30 3571 H 344.246 -2.212 5.03339 0
M  V30 3572 H 345.471 -2.80043 6.1867 0
M  V30 3573 H 343.417 -4.52436 4.75014 0
M  V30 3574 H 343.334 -4.01614 6.40501 0
M  V30 3575 H 344.602 -5.0932 5.90096 0
M  V30 3576 N 348.832 -1.54138 -0.328536 0
M  V30 3577 C 350.08 -1.71765 -1.06496 0
M  V30 3578 C 350.401 -0.49149 -1.88704 0
M  V30 3579 O 349.671 0.494539 -1.89555 0
M  V30 3580 H 348.251 -0.633295 -0.396164 0
M  V30 3581 H 350.913 -1.91429 -0.366176 0
M  V30 3582 H 350.009 -2.5951 -1.73381 0
M  V30 3583 N 350.31 0.590341 -1.46126 0
M  V30 3584 C 351.557 1.34882 -1.5104 0
M  V30 3585 C 351.885 1.93849 -0.159021 0
M  V30 3586 O 351.14 1.76544 0.844436 0
M  V30 3587 C 351.439 2.5032 -2.55097 0
M  V30 3588 C 351.105 2.09394 -3.99331 0
M  V30 3589 C 349.767 1.97947 -4.38601 0
M  V30 3590 C 352.119 1.77712 -4.89967 0
M  V30 3591 C 349.447 1.53065 -5.66381 0
M  V30 3592 C 351.799 1.34312 -6.18177 0
M  V30 3593 C 350.463 1.21436 -6.56361 0
M  V30 3594 H 349.733 0.493568 -0.552695 0
M  V30 3595 H 352.38 0.665539 -1.79563 0
M  V30 3596 H 350.685 3.24062 -2.20207 0
M  V30 3597 H 352.382 3.08541 -2.56132 0
M  V30 3598 H 348.972 2.19235 -3.68285 0
M  V30 3599 H 353.156 1.85445 -4.60352 0
M  V30 3600 H 348.412 1.41733 -5.94745 0
M  V30 3601 H 352.586 1.08849 -6.87841 0
M  V30 3602 H 350.213 0.864345 -7.5527 0
M  V30 3603 N 351.788 1.33704 0.83433 0
M  V30 3604 C 353.036 1.25169 1.58673 0
M  V30 3605 C 353.357 -0.18127 1.94156 0
M  V30 3606 O 352.627 -1.11113 1.6134 0
M  V30 3607 H 351.207 0.4603 0.58833 0
M  V30 3608 H 353.869 1.67478 0.996847 0
M  V30 3609 H 352.965 1.84856 2.51465 0
M  V30 3610 N 353.266 -1.05314 1.17247 0
M  V30 3611 C 354.512 -1.78557 0.961513 0
M  V30 3612 C 354.845 -1.87419 -0.508697 0
M  V30 3613 O 354.12 -1.37307 -1.37757 0
M  V30 3614 C 354.403 -3.22514 1.60176 0
M  V30 3615 C 354.256 -3.21673 3.14399 0
M  V30 3616 C 355.575 -4.20318 1.30463 0
M  V30 3617 H 352.694 -0.6482 0.350723 0
M  V30 3618 H 355.336 -1.23102 1.44727 0
M  V30 3619 H 353.486 -3.69867 1.18871 0
M  V30 3620 H 355.158 -2.82405 3.64753 0
M  V30 3621 H 353.401 -2.60048 3.47214 0
M  V30 3622 H 354.072 -4.23271 3.54324 0
M  V30 3623 H 356.548 -3.81454 1.66229 0
M  V30 3624 H 355.424 -5.19289 1.77848 0
M  V30 3625 H 355.685 -4.41526 0.22521 0
M  V30 3626 N 354.744 -0.972509 -1.24016 0
M  V30 3627 C 355.969 -0.654417 -1.96805 0
M  V30 3628 C 356.394 0.770398 -1.716 0
M  V30 3629 O 355.752 1.52361 -0.982647 0
M  V30 3630 C 355.8 -0.941031 -3.48105 0
M  V30 3631 O 354.904 -0.0289472 -4.1239 0
M  V30 3632 H 354.245 -0.24692 -0.616382 0
M  V30 3633 H 356.775 -1.30396 -1.57664 0
M  V30 3634 H 356.785 -0.87452 -3.98517 0
M  V30 3635 H 355.46 -1.97939 -3.65777 0
M  V30 3636 H 354.037 -0.149192 -3.72601 0
M  V30 3637 N 356.222 1.38976 -0.743202 0
M  V30 3638 C 357.47 1.99948 -0.29417 0
M  V30 3639 C 357.791 1.59279 1.12495 0
M  V30 3640 O 357.061 0.844808 1.76748 0
M  V30 3641 H 355.641 0.739473 -0.105774 0
M  V30 3642 H 358.303 1.699 -0.954986 0
M  V30 3643 H 357.399 3.10142 -0.349056 0
M  V30 3644 N 357.7 0.491464 1.49741 0
M  V30 3645 C 358.663 -0.280906 2.27472 0
M  V30 3646 C 359.663 -0.902454 1.33088 0
M  V30 3647 O 360.853 -0.768465 1.56334 0
M  V30 3648 C 357.985 -1.40209 3.10732 0
M  V30 3649 H 359.178 0.401056 2.97206 0
M  V30 3650 H 356.731 0.246131 1.5435 0
M  V30 3651 H 357.466 -2.11849 2.45541 0
M  V30 3652 H 357.251 -0.961969 3.80117 0
M  V30 3653 H 358.741 -1.9464 3.69466 0
M  V30 3654 N 359.178 -1.55987 0.224894 0
M  V30 3655 C 360.141 -2.19178 -0.670348 0
M  V30 3656 C 361.141 -1.15461 -1.11917 0
M  V30 3657 O 362.331 -1.40675 -1.02743 0
M  V30 3658 C 359.463 -2.81777 -1.9187 0
M  V30 3659 H 360.656 -2.99662 -0.119364 0
M  V30 3660 H 358.209 -1.5628 -0.0247128 0
M  V30 3661 H 358.944 -2.05172 -2.51147 0
M  V30 3662 H 358.729 -3.57732 -1.60531 0
M  V30 3663 H 360.219 -3.30205 -2.55645 0
M  V30 3664 N 360.656 0.0484629 -1.57525 0
M  V30 3665 C 361.902 0.744226 -1.88651 0
M  V30 3666 C 362.235 1.76029 -0.820212 0
M  V30 3667 O 361.51 1.93782 0.166985 0
M  V30 3668 C 361.793 1.43128 -3.30434 0
M  V30 3669 C 361.646 0.43005 -4.47739 0
M  V30 3670 C 362.965 2.37031 -3.70816 0
M  V30 3671 H 360.084 0.269089 -0.68612 0
M  V30 3672 H 362.726 0.00713532 -1.89999 0
M  V30 3673 H 360.876 2.05956 -3.29415 0
M  V30 3674 H 362.548 -0.194816 -4.60888 0
M  V30 3675 H 360.791 -0.252522 -4.33064 0
M  V30 3676 H 361.462 0.948874 -5.43783 0
M  V30 3677 H 363.938 1.84263 -3.73077 0
M  V30 3678 H 362.814 2.82094 -4.70865 0
M  V30 3679 H 363.075 3.22864 -3.02012 0
M  V30 3680 N 362.134 1.5431 0.320358 0
M  V30 3681 C 363.064 1.86912 1.3995 0
M  V30 3682 C 364.045 0.726211 1.53819 0
M  V30 3683 O 365.23 0.980233 1.67646 0
M  V30 3684 C 362.36 2.09932 2.7667 0
M  V30 3685 C 361.314 3.25776 2.77586 0
M  V30 3686 C 360.64 3.34173 4.17412 0
M  V30 3687 C 361.94 4.6335 2.41048 0
M  V30 3688 H 363.634 2.77292 1.12914 0
M  V30 3689 H 361.18 1.33421 0.541738 0
M  V30 3690 H 363.133 2.31324 3.52232 0
M  V30 3691 H 361.857 1.16304 3.0519 0
M  V30 3692 H 360.516 3.04276 2.04479 0
M  V30 3693 H 360.164 2.38098 4.43078 0
M  V30 3694 H 359.864 4.12033 4.18931 0
M  V30 3695 H 361.388 3.57803 4.94782 0
M  V30 3696 H 362.802 4.84602 3.06324 0
M  V30 3697 H 361.199 5.43782 2.53813 0
M  V30 3698 H 362.269 4.65381 1.36193 0
M  V30 3699 N 363.613 -0.582584 1.46437 0
M  V30 3700 C 364.853 -1.35184 1.53312 0
M  V30 3701 C 365.217 -1.9115 0.180508 0
M  V30 3702 O 366.418 -2.68514 0.124017 0
M  V30 3703 C 364.689 -2.45089 2.60127 0
M  V30 3704 S 366.248 -3.32439 2.86408 0
M  V30 3705 H 363.066 -0.460559 0.54167 0
M  V30 3706 H 365.668 -0.669709 1.83671 0
M  V30 3707 H 364.372 -2.02366 3.57038 0
M  V30 3708 H 363.903 -3.18074 2.315 0
M  V30 3709 H 365.918 -4.43924 2.21688 0
M  V30 3710 N 365.091 -1.34144 -0.827227 0
M  V30 3711 C 366.316 -1.29476 -1.62021 0
M  V30 3712 C 366.741 0.129292 -1.87655 0
M  V30 3713 O 366.099 1.08967 -1.449 0
M  V30 3714 C 366.147 -2.08702 -2.94068 0
M  V30 3715 O 365.251 -1.45359 -3.85933 0
M  V30 3716 H 364.592 -0.444881 -0.492927 0
M  V30 3717 H 367.122 -1.76882 -1.02829 0
M  V30 3718 H 367.132 -2.19898 -3.43669 0
M  V30 3719 H 365.807 -3.12241 -2.74734 0
M  V30 3720 H 364.384 -1.42879 -3.44442 0
M  V30 3721 N 366.569 1.04691 -1.17803 0
M  V30 3722 C 367.794 1.81984 -0.994813 0
M  V30 3723 C 368.219 1.82586 0.452112 0
M  V30 3724 O 367.577 1.23854 1.324 0
M  V30 3725 C 367.625 3.2575 -1.54659 0
M  V30 3726 O 366.729 4.05267 -0.763728 0
M  V30 3727 H 366.07 0.562483 -0.352857 0
M  V30 3728 H 368.6 1.3189 -1.56417 0
M  V30 3729 H 368.61 3.76541 -1.57102 0
M  V30 3730 H 367.285 3.24627 -2.59981 0
M  V30 3731 H 365.862 3.63972 -0.811108 0
M  V30 3732 N 368.047 0.979072 1.23499 0
M  V30 3733 C 369.275 0.665202 1.95915 0
M  V30 3734 C 369.69 -0.767571 1.72493 0
M  V30 3735 O 369.047 -1.51635 1.01554 0
M  V30 3736 C 369.098 0.944438 3.48945 0
M  V30 3737 O 368.819 2.3209 3.71572 0
M  V30 3738 C 370.32 0.646336 4.38563 0
M  V30 3739 H 367.54 0.247218 0.623798 0
M  V30 3740 H 370.084 1.31009 1.57025 0
M  V30 3741 H 368.239 0.345575 3.85856 0
M  V30 3742 H 368.653 2.40957 4.65876 0
M  V30 3743 H 370.127 0.892091 5.44744 0
M  V30 3744 H 370.604 -0.419575 4.37191 0
M  V30 3745 H 371.21 1.22562 4.07258 0
M  V30 3746 N 369.525 -1.3858 0.750561 0
M  V30 3747 C 370.771 -2.00481 0.305825 0
M  V30 3748 C 371.104 -1.5944 -1.10872 0
M  V30 3749 O 370.379 -0.83052 -1.75877 0
M  V30 3750 C 370.662 -3.5758 0.425287 0
M  V30 3751 C 370.515 -4.08594 1.88072 0
M  V30 3752 C 371.834 -4.39719 -0.183122 0
M  V30 3753 H 368.953 -0.728348 0.112598 0
M  V30 3754 H 371.595 -1.64566 0.949638 0
M  V30 3755 H 369.745 -3.88306 -0.122828 0
M  V30 3756 H 371.417 -3.88523 2.48691 0
M  V30 3757 H 369.66 -3.61574 2.39681 0
M  V30 3758 H 370.331 -5.177 1.91548 0
M  V30 3759 H 372.807 -4.15128 0.284303 0
M  V30 3760 H 371.683 -5.48856 -0.0692757 0
M  V30 3761 H 371.944 -4.23434 -1.27106 0
M  V30 3762 N 371.003 -0.499398 -1.49478 0
M  V30 3763 C 371.966 0.268838 -2.27618 0
M  V30 3764 C 372.966 0.895383 -1.33565 0
M  V30 3765 O 374.156 0.760164 -1.56739 0
M  V30 3766 C 371.288 1.38559 -3.11471 0
M  V30 3767 H 372.481 -0.416812 -2.96989 0
M  V30 3768 H 370.034 -0.254313 -1.54217 0
M  V30 3769 H 370.769 2.10544 -2.46661 0
M  V30 3770 H 370.554 0.941797 -3.80621 0
M  V30 3771 H 372.044 1.92678 -3.70493 0
M  V30 3772 N 372.481 1.55866 -0.233164 0
M  V30 3773 C 373.758 1.90471 0.444988 0
M  V30 3774 C 374.138 1.15209 1.7689 0
M  V30 3775 O 373.486 0.265119 2.26957 0
M  V30 3776 C 373.696 3.4333 0.626559 0
M  V30 3777 C 375.044 4.14319 0.92871 0
M  V30 3778 O 376.068 3.48993 0.712926 0
M  V30 3779 O 374.927 5.29846 1.33887 0
M  V30 3780 H 372.021 0.792347 0.236885 0
M  V30 3781 H 374.567 1.67437 -0.276211 0
M  V30 3782 H 373.339 3.90095 -0.306822 0
M  V30 3783 H 372.962 3.72181 1.39881 0
M  V30 3784 N 373.959 -0.0401083 1.57549 0
M  V30 3785 C 375.189 -0.744115 1.92734 0
M  V30 3786 C 375.597 -1.70005 0.830348 0
M  V30 3787 O 374.94 -1.82576 -0.20286 0
M  V30 3788 C 375.002 -1.56516 3.2364 0
M  V30 3789 C 374.666 -0.7752 4.50377 0
M  V30 3790 C 375.663 -0.0803326 5.19838 0
M  V30 3791 C 373.348 -0.733002 4.96923 0
M  V30 3792 C 375.342 0.646154 6.34116 0
M  V30 3793 C 373.029 -0.00276321 6.111 0
M  V30 3794 C 374.027 0.685585 6.7955 0
M  V30 3795 O 373.715 1.40399 7.91545 0
M  V30 3796 H 373.447 -0.214861 0.640945 0
M  V30 3797 H 376.001 -0.00503675 2.05399 0
M  V30 3798 H 374.231 -2.3478 3.07271 0
M  V30 3799 H 375.92 -2.15076 3.44234 0
M  V30 3800 H 376.686 -0.104035 4.84888 0
M  V30 3801 H 372.565 -1.25827 4.43496 0
M  V30 3802 H 376.109 1.18398 6.87479 0
M  V30 3803 H 372.006 0.0229012 6.45496 0
M  V30 3804 H 372.774 1.31653 8.07843 0
M  V30 3805 N 375.437 -1.54477 -0.31217 0
M  V30 3806 C 376.367 -1.87652 -1.38957 0
M  V30 3807 C 377.348 -0.734358 -1.53431 0
M  V30 3808 O 378.533 -0.98911 -1.67123 0
M  V30 3809 C 375.663 -2.11396 -2.75552 0
M  V30 3810 C 374.617 -3.27243 -2.75855 0
M  V30 3811 C 373.943 -3.36382 -4.15633 0
M  V30 3812 C 375.243 -4.64622 -2.38587 0
M  V30 3813 H 376.937 -2.77887 -1.11442 0
M  V30 3814 H 374.483 -1.33707 -0.534655 0
M  V30 3815 H 376.436 -2.33189 -3.51 0
M  V30 3816 H 375.16 -1.17921 -3.04569 0
M  V30 3817 H 373.819 -3.05356 -2.02863 0
M  V30 3818 H 373.467 -2.40445 -4.41809 0
M  V30 3819 H 373.167 -4.14249 -4.1674 0
M  V30 3820 H 374.691 -3.60422 -4.92877 0
M  V30 3821 H 376.105 -4.86219 -3.03749 0
M  V30 3822 H 374.502 -5.45121 -2.50925 0
M  V30 3823 H 375.572 -4.66097 -1.33723 0
M  V30 3824 N 376.915 0.57481 -1.46744 0
M  V30 3825 C 377.845 1.69337 -1.60771 0
M  V30 3826 C 378.826 1.63825 -0.457736 0
M  V30 3827 O 380.011 1.8172 -0.684947 0
M  V30 3828 C 377.141 3.0798 -1.60517 0
M  V30 3829 C 376.095 3.28327 -2.74564 0
M  V30 3830 C 375.421 4.67578 -2.59373 0
M  V30 3831 C 376.721 3.15398 -4.16319 0
M  V30 3832 H 378.415 1.57853 -2.54407 0
M  V30 3833 H 375.961 0.75799 -1.22436 0
M  V30 3834 H 377.914 3.86061 -1.68923 0
M  V30 3835 H 376.638 3.20381 -0.634305 0
M  V30 3836 H 375.297 2.52649 -2.65639 0
M  V30 3837 H 374.945 4.76755 -1.60353 0
M  V30 3838 H 374.645 4.82144 -3.35873 0
M  V30 3839 H 376.169 5.47817 -2.69682 0
M  V30 3840 H 377.583 3.83315 -4.26313 0
M  V30 3841 H 375.98 3.41482 -4.93468 0
M  V30 3842 H 377.05 2.12372 -4.3592 0
M  V30 3843 N 378.394 1.34581 0.820102 0
M  V30 3844 C 379.326 1.22236 1.93884 0
M  V30 3845 C 380.339 0.148776 1.62119 0
M  V30 3846 O 381.528 0.400877 1.7394 0
M  V30 3847 C 378.628 0.856542 3.27897 0
M  V30 3848 C 377.801 2.02569 3.87666 0
M  V30 3849 C 376.86 1.63782 5.00062 0
M  V30 3850 O 375.886 2.35477 5.18208 0
M  V30 3851 N 377.088 0.553611 5.77854 0
M  V30 3852 H 379.853 2.18615 2.05006 0
M  V30 3853 H 377.414 1.27573 0.99683 0
M  V30 3854 H 379.406 0.578806 4.0054 0
M  V30 3855 H 377.976 -0.0171518 3.12595 0
M  V30 3856 H 377.196 2.468 3.07382 0
M  V30 3857 H 378.484 2.80752 4.24329 0
M  V30 3858 H 377.882 -0.0423528 5.65684 0
M  V30 3859 H 376.439 0.335614 6.50935 0
M  V30 3860 N 379.872 -1.04064 1.18357 0
M  V30 3861 C 381.119 -1.77265 0.978947 0
M  V30 3862 C 381.447 -1.88189 -0.491428 0
M  V30 3863 O 380.702 -1.38653 -1.38108 0
M  V30 3864 C 381.001 -3.20634 1.57888 0
M  V30 3865 C 380.667 -3.29743 3.07539 0
M  V30 3866 C 379.329 -3.31937 3.48384 0
M  V30 3867 C 381.681 -3.29841 4.03552 0
M  V30 3868 C 379.009 -3.3187 4.83818 0
M  V30 3869 C 381.361 -3.31313 5.38901 0
M  V30 3870 C 380.025 -3.31799 5.79194 0
M  V30 3871 H 379.295 -0.648659 0.358222 0
M  V30 3872 H 381.942 -1.22225 1.47422 0
M  V30 3873 H 380.247 -3.78675 1.00561 0
M  V30 3874 H 381.944 -3.75917 1.39598 0
M  V30 3875 H 378.534 -3.28757 2.74986 0
M  V30 3876 H 382.718 -3.27337 3.73047 0
M  V30 3877 H 377.974 -3.30562 5.14333 0
M  V30 3878 H 382.148 -3.30338 6.13066 0
M  V30 3879 H 379.775 -3.315 6.84114 0
M  V30 3880 N 381.35 -0.985608 -1.22978 0
M  V30 3881 C 382.313 -0.535071 -2.22867 0
M  V30 3882 C 383.313 0.378123 -1.56291 0
M  V30 3883 O 384.503 0.171092 -1.73358 0
M  V30 3884 C 381.635 0.222702 -3.40172 0
M  V30 3885 H 382.828 -1.41835 -2.6424 0
M  V30 3886 H 380.381 -0.772042 -1.35901 0
M  V30 3887 H 381.116 1.12229 -3.04262 0
M  V30 3888 H 380.901 -0.43288 -3.89703 0
M  V30 3889 H 382.391 0.526335 -4.1427 0
M  V30 3890 N 382.828 1.3818 -0.7579 0
M  V30 3891 C 384.244 1.5353 -0.435972 0
M  V30 3892 C 384.444 1.71961 1.05032 0
M  V30 3893 O 383.5 1.73307 1.83633 0
M  V30 3894 C 384.813 2.73989 -1.23898 0
M  V30 3895 C 386.361 2.87841 -1.22949 0
M  V30 3896 C 386.836 4.11266 -2.01554 0
M  V30 3897 N 388.327 4.18352 -1.98837 0
M  V30 3898 C 389.062 5.12856 -2.5645 0
M  V30 3899 N 388.558 6.13005 -3.22794 0
M  V30 3900 N 390.351 5.05238 -2.46356 0
M  V30 3901 H 382.502 1.24467 -1.7211 0
M  V30 3902 H 384.765 0.604982 -0.729864 0
M  V30 3903 H 384.471 2.66789 -2.29165 0
M  V30 3904 H 384.345 3.67294 -0.858764 0
M  V30 3905 H 386.732 2.9452 -0.184854 0
M  V30 3906 H 386.813 1.95534 -1.64924 0
M  V30 3907 H 386.457 4.05349 -3.06031 0
M  V30 3908 H 386.387 5.02661 -1.5697 0
M  V30 3909 H 388.878 3.46628 -1.50524 0
M  V30 3910 H 389.191 6.81619 -3.64165 0
M  V30 3911 H 387.536 6.13325 -3.2689 0
M  V30 3912 H 390.727 4.25938 -1.9415 0
M  V30 3913 H 390.9 5.78707 -2.91552 0
M  V30 3914 N 384.306 0.507319 1.49211 0
M  V30 3915 C 385.256 -0.287112 2.26185 0
M  V30 3916 C 386.24 -0.929983 1.31302 0
M  V30 3917 O 387.432 -0.836538 1.55984 0
M  V30 3918 C 384.561 -1.34718 3.15763 0
M  V30 3919 C 383.647 -0.710235 4.18111 0
M  V30 3920 N 384.038 0.190836 5.0544 0
M  V30 3921 C 382.336 -0.97009 4.35322 0
M  V30 3922 C 383.037 0.55606 5.79036 0
M  V30 3923 N 382.013 -0.0775232 5.43545 0
M  V30 3924 H 385.815 0.406445 2.91076 0
M  V30 3925 H 383.329 0.323814 1.59139 0
M  V30 3926 H 385.326 -1.92982 3.69545 0
M  V30 3927 H 383.986 -2.04235 2.52424 0
M  V30 3928 H 384.997 0.562047 5.14841 0
M  V30 3929 H 381.674 -1.65753 3.83187 0
M  V30 3930 H 383.064 1.2936 6.5933 0
M  V30 3931 N 385.784 -1.5574 0.241426 0
M  V30 3932 C 386.714 -2.24133 -0.654722 0
M  V30 3933 C 387.695 -1.21974 -1.1856 0
M  V30 3934 O 388.88 -1.50612 -1.22595 0
M  V30 3935 C 386.01 -2.93659 -1.85423 0
M  V30 3936 C 384.964 -4.0246 -1.45636 0
M  V30 3937 C 384.29 -4.59383 -2.73626 0
M  V30 3938 C 385.59 -5.18468 -0.631506 0
M  V30 3939 H 387.284 -2.99281 -0.0844353 0
M  V30 3940 H 384.83 -1.43947 -0.0391707 0
M  V30 3941 H 386.783 -3.40203 -2.48676 0
M  V30 3942 H 385.507 -2.15991 -2.44981 0
M  V30 3943 H 384.166 -3.56676 -0.847202 0
M  V30 3944 H 383.814 -3.78422 -3.3137 0
M  V30 3945 H 383.514 -5.32826 -2.4773 0
M  V30 3946 H 385.038 -5.08658 -3.37786 0
M  V30 3947 H 386.452 -5.61272 -1.1682 0
M  V30 3948 H 384.849 -5.98266 -0.468831 0
M  V30 3949 H 385.919 -4.8358 0.357506 0
M  V30 3950 N 387.262 0.0317525 -1.57568 0
M  V30 3951 C 388.511 0.722131 -1.8833 0
M  V30 3952 C 388.824 1.76664 -0.839587 0
M  V30 3953 O 390.03 2.50942 -1.03635 0
M  V30 3954 C 388.486 1.33544 -3.34207 0
M  V30 3955 C 388.094 0.327415 -4.46802 0
M  V30 3956 C 389.838 2.00585 -3.7412 0
M  V30 3957 C 387.745 0.948915 -5.83738 0
M  V30 3958 H 386.675 0.273466 -0.702661 0
M  V30 3959 H 389.326 -0.0235811 -1.83485 0
M  V30 3960 H 387.708 2.13077 -3.33788 0
M  V30 3961 H 388.882 -0.441006 -4.58685 0
M  V30 3962 H 387.197 -0.240758 -4.15703 0
M  V30 3963 H 389.794 2.47932 -4.73744 0
M  V30 3964 H 390.137 2.82285 -3.05975 0
M  V30 3965 H 390.67 1.27831 -3.76702 0
M  V30 3966 H 387.409 0.171387 -6.55276 0
M  V30 3967 H 386.929 1.68724 -5.7558 0
M  V30 3968 H 388.608 1.45705 -6.3038 0
M  V30 3969 N 388.74 1.54641 0.303973 0
M  V30 3970 C 389.97 1.77511 1.05705 0
M  V30 3971 C 390.378 0.533228 1.81531 0
M  V30 3972 O 389.721 -0.506423 1.76582 0
M  V30 3973 C 389.783 2.92779 2.08617 0
M  V30 3974 C 389.447 4.30977 1.52013 0
M  V30 3975 C 390.444 5.11115 0.9517 0
M  V30 3976 C 388.129 4.77571 1.55665 0
M  V30 3977 C 390.123 6.35966 0.427327 0
M  V30 3978 C 387.81 6.02384 1.02841 0
M  V30 3979 C 388.808 6.81417 0.464713 0
M  V30 3980 O 388.496 8.03881 -0.0555283 0
M  V30 3981 H 388.228 0.59579 0.319391 0
M  V30 3982 H 390.782 2.02401 0.349712 0
M  V30 3983 H 389.012 2.63506 2.83022 0
M  V30 3984 H 390.701 3.03252 2.69802 0
M  V30 3985 H 391.467 4.76264 0.916407 0
M  V30 3986 H 387.346 4.16085 1.9848 0
M  V30 3987 H 390.89 6.97599 -0.0133062 0
M  V30 3988 H 386.787 6.36723 1.06084 0
M  V30 3989 H 387.555 8.18479 0.0580522 0
M  V30 3990 N 390.218 -0.567019 1.47046 0
M  V30 3991 C 391.443 -1.3551 1.57009 0
M  V30 3992 C 391.868 -1.86841 0.217259 0
M  V30 3993 O 391.226 -1.62435 -0.805268 0
M  V30 3994 C 391.274 -2.50777 2.5912 0
M  V30 3995 O 390.378 -3.52706 2.13711 0
M  V30 3996 H 389.719 -0.402919 0.52778 0
M  V30 3997 H 392.249 -0.686241 1.92748 0
M  V30 3998 H 392.259 -2.97481 2.79229 0
M  V30 3999 H 390.934 -2.12771 3.57353 0
M  V30 4000 H 389.511 -3.12374 2.03659 0
M  V30 4001 N 391.696 -1.35014 -0.812953 0
M  V30 4002 C 392.924 -1.31031 -1.6012 0
M  V30 4003 C 393.339 0.113558 -1.88458 0
M  V30 4004 O 392.696 1.06363 -1.48301 0
M  V30 4005 C 392.747 -2.10872 -2.93624 0
M  V30 4006 O 392.468 -3.47706 -2.66518 0
M  V30 4007 C 393.969 -2.14401 -3.88004 0
M  V30 4008 H 391.189 -0.45037 -0.497401 0
M  V30 4009 H 393.733 -1.77775 -1.01076 0
M  V30 4010 H 391.888 -1.67744 -3.492 0
M  V30 4011 H 392.302 -3.89097 -3.51715 0
M  V30 4012 H 393.776 -2.74669 -4.78812 0
M  V30 4013 H 394.253 -1.14105 -4.24119 0
M  V30 4014 H 394.859 -2.57662 -3.38364 0
M  V30 4015 N 393.175 1.03435 -1.18907 0
M  V30 4016 C 394.4 1.80919 -1.01406 0
M  V30 4017 C 394.825 1.83055 0.432721 0
M  V30 4018 O 394.183 1.25252 1.31079 0
M  V30 4019 C 394.231 3.24091 -1.58105 0
M  V30 4020 O 393.335 4.04434 -0.806669 0
M  V30 4021 H 392.676 0.558709 -0.358803 0
M  V30 4022 H 395.206 1.30223 -1.57807 0
M  V30 4023 H 395.216 3.74853 -1.61087 0
M  V30 4024 H 393.891 3.21851 -2.6341 0
M  V30 4025 H 392.468 3.63091 -0.849666 0
M  V30 4026 N 394.653 0.992116 1.22453 0
M  V30 4027 C 395.586 0.486701 2.22949 0
M  V30 4028 C 396.564 -0.45259 1.56174 0
M  V30 4029 O 397.748 -0.378317 1.84665 0
M  V30 4030 C 394.875 -0.294537 3.37417 0
M  V30 4031 C 393.921 0.590628 4.22391 0
M  V30 4032 S 394.754 2.04546 4.94895 0
M  V30 4033 C 395.91 1.27369 6.12803 0
M  V30 4034 H 396.143 1.33828 2.65475 0
M  V30 4035 H 393.676 0.799023 1.32117 0
M  V30 4036 H 395.634 -0.739241 4.03789 0
M  V30 4037 H 394.295 -1.12139 2.934 0
M  V30 4038 H 393.488 -0.0104375 5.03999 0
M  V30 4039 H 393.09 0.972064 3.61147 0
M  V30 4040 H 395.382 0.540943 6.75337 0
M  V30 4041 H 396.325 2.06502 6.7732 0
M  V30 4042 H 396.733 0.787324 5.58983 0
M  V30 4043 N 396.131 -1.37776 0.765217 0
M  V30 4044 C 397.542 -1.82521 0.392819 0
M  V30 4045 C 397.893 -1.63789 -1.08017 0
M  V30 4046 O 397.018 -1.14542 -1.83601 0
M  V30 4047 C 397.613 -3.31358 0.706214 0
M  V30 4048 C 396.172 -3.74406 0.386952 0
M  V30 4049 C 395.319 -2.60394 0.953422 0
M  V30 4050 H 398.27 -1.2634 0.960412 0
M  V30 4051 H 398.291 -3.80498 -0.0114706 0
M  V30 4052 H 397.803 -3.44959 1.77833 0
M  V30 4053 H 395.904 -3.66377 -0.678112 0
M  V30 4054 H 396.017 -4.70749 0.890636 0
M  V30 4055 H 394.381 -2.51878 0.378064 0
M  V30 4056 H 395.164 -2.76791 2.03081 0
M  V30 4057 N 397.609 -0.515225 -1.4894 0
M  V30 4058 C 399.02 -0.0710067 -1.86565 0
M  V30 4059 C 399.371 1.34733 -1.42623 0
M  V30 4060 O 398.496 2.00653 -0.810379 0
M  V30 4061 C 399.091 -0.122083 -3.3858 0
M  V30 4062 C 397.65 0.266863 -3.75453 0
M  V30 4063 C 396.797 -0.488376 -2.72966 0
M  V30 4064 H 399.748 -0.727266 -1.41055 0
M  V30 4065 H 399.769 0.669818 -3.74558 0
M  V30 4066 H 399.281 -1.15448 -3.70531 0
M  V30 4067 H 397.382 1.30196 -3.49113 0
M  V30 4068 H 397.495 -0.0624811 -4.79059 0
M  V30 4069 H 395.859 0.0635622 -2.54621 0
M  V30 4070 H 396.642 -1.52113 -3.07761 0
M  V30 4071 N 399.087 1.5561 -0.249682 0
M  V30 4072 C 400.05 2.20217 0.635394 0
M  V30 4073 C 401.05 1.17227 1.10066 0
M  V30 4074 O 402.24 1.42292 1.00492 0
M  V30 4075 C 399.372 2.84794 1.87363 0
M  V30 4076 H 400.565 2.99814 0.0716752 0
M  V30 4077 H 398.118 1.563 -0.000153234 0
M  V30 4078 H 398.853 2.09142 2.47851 0
M  V30 4079 H 398.638 3.60241 1.5482 0
M  V30 4080 H 400.128 3.3423 2.5036 0
M  V30 4081 N 400.565 -0.0233959 1.57583 0
M  V30 4082 C 401.497 -1.04994 2.03737 0
M  V30 4083 C 402.51 -1.32125 0.951152 0
M  V30 4084 O 403.699 -1.29512 1.22837 0
M  V30 4085 C 400.799 -2.39026 2.40249 0
M  V30 4086 C 399.972 -2.31171 3.7132 0
M  V30 4087 C 399.031 -3.47698 3.94959 0
M  V30 4088 O 398.057 -3.26937 4.65941 0
M  V30 4089 N 399.259 -4.6976 3.41037 0
M  V30 4090 H 402.024 -0.656507 2.92421 0
M  V30 4091 H 399.585 -0.211235 1.60516 0
M  V30 4092 H 401.577 -3.15712 2.53196 0
M  V30 4093 H 400.147 -2.70194 1.57207 0
M  V30 4094 H 399.367 -1.39547 3.68674 0
M  V30 4095 H 400.655 -2.23071 4.57293 0
M  V30 4096 H 400.053 -4.89528 2.83512 0
M  V30 4097 H 398.61 -5.43791 3.59353 0
M  V30 4098 N 402.043 -1.548 -0.295768 0
M  V30 4099 C 403.006 -1.85363 -1.34808 0
M  V30 4100 C 404.006 -0.726817 -1.43436 0
M  V30 4101 O 405.196 -0.995088 -1.42981 0
M  V30 4102 C 402.328 -2.03859 -2.73229 0
M  V30 4103 H 403.521 -2.7941 -1.08949 0
M  V30 4104 H 401.074 -1.46942 -0.532702 0
M  V30 4105 H 401.809 -1.12117 -3.04303 0
M  V30 4106 H 401.594 -2.8588 -2.68356 0
M  V30 4107 H 403.084 -2.28857 -3.49305 0
M  V30 4108 N 403.521 0.559213 -1.47345 0
M  V30 4109 C 404.453 1.68161 -1.55738 0
M  V30 4110 C 405.466 1.56636 -0.443744 0
M  V30 4111 O 406.655 1.6363 -0.713258 0
M  V30 4112 C 403.755 3.06611 -1.4437 0
M  V30 4113 C 402.928 3.4391 -2.70268 0
M  V30 4114 C 401.987 4.61515 -2.52765 0
M  V30 4115 O 401.013 4.66197 -3.26572 0
M  V30 4116 N 402.215 5.57883 -1.6046 0
M  V30 4117 H 404.98 1.61408 -2.52522 0
M  V30 4118 H 402.541 0.7458 -1.43699 0
M  V30 4119 H 404.533 3.83117 -1.30398 0
M  V30 4120 H 403.103 3.07602 -0.556766 0
M  V30 4121 H 402.323 2.56873 -2.99015 0
M  V30 4122 H 403.611 3.65605 -3.53851 0
M  V30 4123 H 403.009 5.56855 -0.996422 0
M  V30 4124 H 401.566 6.33723 -1.52441 0
M  V30 4125 N 404.999 1.35443 0.805782 0
M  V30 4126 C 405.962 1.28301 1.89925 0
M  V30 4127 C 406.962 0.194285 1.59622 0
M  V30 4128 O 408.152 0.448036 1.6834 0
M  V30 4129 C 405.284 0.984997 3.2636 0
M  V30 4130 H 406.477 2.2553 1.97677 0
M  V30 4131 H 404.03 1.19979 1.00173 0
M  V30 4132 H 404.765 0.016603 3.24296 0
M  V30 4133 H 404.55 1.77269 3.4974 0
M  V30 4134 H 406.04 0.960651 4.064 0
M  V30 4135 N 406.477 -1.02803 1.19454 0
M  V30 4136 C 407.407 -2.12999 0.956758 0
M  V30 4137 C 408.388 -1.69743 -0.110188 0
M  V30 4138 O 409.573 -1.94148 0.0450038 0
M  V30 4139 C 406.703 -3.43746 0.495553 0
M  V30 4140 C 405.657 -4.00688 1.50443 0
M  V30 4141 C 404.983 -5.27067 0.900275 0
M  V30 4142 C 406.283 -4.35397 2.8849 0
M  V30 4143 H 407.977 -2.33148 1.87836 0
M  V30 4144 H 405.523 -1.12045 0.904539 0
M  V30 4145 H 407.476 -4.2021 0.316493 0
M  V30 4146 H 406.2 -3.23321 -0.461646 0
M  V30 4147 H 404.859 -3.2632 1.67065 0
M  V30 4148 H 404.507 -5.02959 -0.064503 0
M  V30 4149 H 404.207 -5.66127 1.57397 0
M  V30 4150 H 405.731 -6.06196 0.73203 0
M  V30 4151 H 407.145 -5.02795 2.75446 0
M  V30 4152 H 405.542 -4.85541 3.52661 0
M  V30 4153 H 406.612 -3.44662 3.41081 0
M  V30 4154 N 407.956 -0.998596 -1.21925 0
M  V30 4155 C 409.372 -0.710303 -1.42923 0
M  V30 4156 C 409.572 0.716933 -1.88314 0
M  V30 4157 O 408.628 1.48712 -2.04062 0
M  V30 4158 C 409.941 -1.72072 -2.466 0
M  V30 4159 C 411.489 -1.73681 -2.60392 0
M  V30 4160 C 411.964 -2.73601 -3.67296 0
M  V30 4161 N 413.455 -2.7223 -3.7476 0
M  V30 4162 C 414.19 -3.46206 -4.57087 0
M  V30 4163 N 413.686 -4.29802 -5.43362 0
M  V30 4164 N 415.479 -3.34886 -4.51451 0
M  V30 4165 H 407.63 -1.92028 -0.9077 0
M  V30 4166 H 409.893 -0.828487 -0.460775 0
M  V30 4167 H 409.599 -2.74231 -2.20206 0
M  V30 4168 H 409.473 -1.51818 -3.45299 0
M  V30 4169 H 411.86 -0.722173 -2.86127 0
M  V30 4170 H 411.941 -1.98005 -1.61949 0
M  V30 4171 H 411.585 -3.75217 -3.42307 0
M  V30 4172 H 411.515 -2.46545 -4.65321 0
M  V30 4173 H 414.006 -2.11576 -3.1312 0
M  V30 4174 H 414.319 -4.83061 -6.03218 0
M  V30 4175 H 412.664 -4.33887 -5.42925 0
M  V30 4176 H 415.855 -2.69015 -3.83078 0
M  V30 4177 H 416.028 -3.92796 -5.15379 0
M  V30 4178 N 409.434 1.37368 -0.772513 0
M  V30 4179 C 410.397 2.28601 -0.165541 0
M  V30 4180 C 411.397 1.48062 0.627238 0
M  V30 4181 O 412.587 1.68268 0.450715 0
M  V30 4182 C 409.719 3.32023 0.772897 0
M  V30 4183 H 410.912 2.83787 -0.969787 0
M  V30 4184 H 408.465 1.46647 -0.540775 0
M  V30 4185 H 409.2 2.81962 1.60212 0
M  V30 4186 H 408.985 3.91555 0.206585 0
M  V30 4187 H 410.475 4.00197 1.19298 0
M  V30 4188 N 410.912 0.523116 1.48665 0
M  V30 4189 C 412.137 -0.0117284 2.07397 0
M  V30 4190 C 412.562 -1.28031 1.37803 0
M  V30 4191 O 411.92 -1.75836 0.441762 0
M  V30 4192 C 411.968 -0.225786 3.59892 0
M  V30 4193 O 411.072 -1.29592 3.91509 0
M  V30 4194 H 410.413 0.0360673 0.66302 0
M  V30 4195 H 412.943 0.729066 1.9117 0
M  V30 4196 H 412.953 -0.450552 4.05505 0
M  V30 4197 H 411.628 0.700944 4.09951 0
M  V30 4198 H 410.205 -1.05436 3.57684 0
M  V30 4199 N 412.39 -1.55475 0.257931 0
M  V30 4200 C 413.32 -2.24815 -0.630912 0
M  V30 4201 C 414.301 -1.23224 -1.17259 0
M  V30 4202 O 415.486 -1.51904 -1.20991 0
M  V30 4203 C 412.616 -2.95609 -1.82298 0
M  V30 4204 C 411.57 -4.03982 -1.41359 0
M  V30 4205 C 410.896 -4.6226 -2.68738 0
M  V30 4206 C 412.196 -5.19109 -0.57648 0
M  V30 4207 H 413.89 -2.99354 -0.0526878 0
M  V30 4208 H 411.436 -1.4398 -0.023901 0
M  V30 4209 H 413.389 -3.42822 -2.45054 0
M  V30 4210 H 412.113 -2.18577 -2.42676 0
M  V30 4211 H 410.772 -3.57555 -0.809324 0
M  V30 4212 H 410.42 -3.81915 -3.27338 0
M  V30 4213 H 410.12 -5.35424 -2.42065 0
M  V30 4214 H 411.644 -5.12212 -3.32372 0
M  V30 4215 H 413.058 -5.62479 -1.10861 0
M  V30 4216 H 411.455 -5.98729 -0.405351 0
M  V30 4217 H 412.525 -4.83174 0.408776 0
M  V30 4218 N 413.868 0.0150385 -1.57593 0
M  V30 4219 C 414.831 0.995996 -2.06428 0
M  V30 4220 C 415.831 1.2818 -0.970903 0
M  V30 4221 O 417.021 1.22949 -1.23406 0
M  V30 4222 C 414.153 2.32506 -2.49307 0
M  V30 4223 H 415.346 0.573873 -2.94358 0
M  V30 4224 H 412.899 0.262186 -1.54085 0
M  V30 4225 H 413.634 2.79438 -1.64575 0
M  V30 4226 H 413.419 2.13087 -3.29145 0
M  V30 4227 H 414.909 3.02906 -2.87468 0
M  V30 4228 N 415.346 1.54954 0.287554 0
M  V30 4229 C 416.592 1.75132 1.02257 0
M  V30 4230 C 416.925 0.542858 1.86458 0
M  V30 4231 O 416.2 -0.459856 1.88986 0
M  V30 4232 C 416.483 3.04812 1.91733 0
M  V30 4233 C 416.336 4.35985 1.10622 0
M  V30 4234 C 417.655 3.30438 2.90687 0
M  V30 4235 H 414.774 0.637194 0.370341 0
M  V30 4236 H 417.416 1.87678 0.296111 0
M  V30 4237 H 415.566 2.94247 2.53675 0
M  V30 4238 H 417.238 4.58487 0.508636 0
M  V30 4239 H 415.481 4.31865 0.409271 0
M  V30 4240 H 416.152 5.23017 1.76513 0
M  V30 4241 H 418.628 3.40701 2.38877 0
M  V30 4242 H 417.504 4.22467 3.50447 0
M  V30 4243 H 417.765 2.49377 3.65053 0
M  V30 4244 N 416.824 -0.551391 1.4764 0
M  V30 4245 C 418.073 -1.30467 1.53822 0
M  V30 4246 C 418.386 -1.94495 0.207661 0
M  V30 4247 O 419.592 -2.71099 0.147533 0
M  V30 4248 C 418.048 -2.36616 2.71184 0
M  V30 4249 C 417.656 -1.78754 4.10793 0
M  V30 4250 C 419.4 -3.13088 2.86663 0
M  V30 4251 C 417.307 -2.82717 5.19447 0
M  V30 4252 H 416.237 -0.490584 0.572576 0
M  V30 4253 H 418.888 -0.58494 1.73927 0
M  V30 4254 H 417.27 -3.11529 2.4447 0
M  V30 4255 H 418.444 -1.10173 4.47435 0
M  V30 4256 H 416.759 -1.14846 4.00249 0
M  V30 4257 H 419.356 -3.90736 3.65007 0
M  V30 4258 H 419.699 -3.67635 1.95321 0
M  V30 4259 H 420.232 -2.45288 3.13175 0
M  V30 4260 H 416.971 -2.33018 6.12685 0
M  V30 4261 H 416.491 -3.4969 4.87316 0
M  V30 4262 H 418.17 -3.46102 5.46646 0
M  V30 4263 N 418.302 -1.35869 -0.798587 0
M  V30 4264 C 419.718 -1.16082 -1.09532 0
M  V30 4265 C 419.918 0.0213124 -2.01489 0
M  V30 4266 O 418.974 0.689488 -2.42904 0
M  V30 4267 C 420.287 -2.46748 -1.7186 0
M  V30 4268 C 421.835 -2.53028 -1.84244 0
M  V30 4269 C 422.31 -3.83758 -2.49988 0
M  V30 4270 N 423.801 -3.85053 -2.57465 0
M  V30 4271 C 424.536 -4.8294 -3.09122 0
M  V30 4272 N 424.032 -5.91217 -3.61157 0
M  V30 4273 N 425.825 -4.70369 -3.0775 0
M  V30 4274 H 417.976 -2.11571 -0.187461 0
M  V30 4275 H 420.239 -0.936726 -0.145765 0
M  V30 4276 H 419.945 -3.33471 -1.11759 0
M  V30 4277 H 419.819 -2.61883 -2.71472 0
M  V30 4278 H 422.206 -1.66729 -2.43486 0
M  V30 4279 H 422.287 -2.418 -0.834643 0
M  V30 4280 H 421.931 -4.70459 -1.91393 0
M  V30 4281 H 421.861 -3.92278 -3.5132 0
M  V30 4282 H 424.352 -3.06822 -2.20609 0
M  V30 4283 H 424.665 -6.61892 -3.98896 0
M  V30 4284 H 423.01 -5.94899 -3.59333 0
M  V30 4285 H 426.201 -3.84914 -2.66381 0
M  V30 4286 H 426.374 -5.46816 -3.47701 0
M  V30 4287 N 419.78 1.02168 -1.19998 0
M  V30 4288 C 421.005 1.79833 -1.03319 0
M  V30 4289 C 421.43 1.83504 0.413281 0
M  V30 4290 O 420.788 1.26635 1.29743 0
M  V30 4291 C 420.836 3.22396 -1.61533 0
M  V30 4292 O 419.94 4.03555 -0.849519 0
M  V30 4293 H 419.281 0.554872 -0.364709 0
M  V30 4294 H 421.811 1.28542 -1.59179 0
M  V30 4295 H 421.821 3.73124 -1.65054 0
M  V30 4296 H 420.496 3.19039 -2.66809 0
M  V30 4297 H 419.073 3.62169 -0.888129 0
M  V30 4298 N 421.258 1.00505 1.21394 0
M  V30 4299 C 422.535 0.603277 1.86064 0
M  V30 4300 C 422.915 -0.919095 1.90042 0
M  V30 4301 O 422.263 -1.80607 1.39977 0
M  V30 4302 C 422.473 1.23772 3.26315 0
M  V30 4303 C 423.821 1.34586 4.02705 0
M  V30 4304 O 424.845 1.19304 3.35626 0
M  V30 4305 O 423.704 1.59169 5.22807 0
M  V30 4306 H 420.798 0.206634 0.800769 0
M  V30 4307 H 423.344 1.1017 1.29076 0
M  V30 4308 H 422.116 2.27848 3.18121 0
M  V30 4309 H 421.739 0.725648 3.90922 0
M  V30 4310 N 422.737 -1.36956 0.779787 0
M  V30 4311 C 423.647 -2.33965 0.172491 0
M  V30 4312 C 424.663 -1.60574 -0.670222 0
M  V30 4313 O 425.839 -1.92617 -0.588263 0
M  V30 4314 C 422.904 -3.39761 -0.690173 0
M  V30 4315 C 421.965 -4.28964 0.169924 0
M  V30 4316 C 421.198 -5.29707 -0.651662 0
M  V30 4317 O 421.421 -5.38238 -1.88827 0
M  V30 4318 O 420.355 -6.01873 -0.0566264 0
M  V30 4319 H 424.181 -2.87647 0.974321 0
M  V30 4320 H 421.766 -1.39258 0.541078 0
M  V30 4321 H 423.648 -4.04471 -1.1824 0
M  V30 4322 H 422.323 -2.88394 -1.47006 0
M  V30 4323 H 421.23 -3.67326 0.708696 0
M  V30 4324 H 422.563 -4.83656 0.913085 0
M  V30 4325 N 424.215 -0.530993 -1.48385 0
M  V30 4326 C 425.463 0.00273189 -2.021 0
M  V30 4327 C 425.784 1.34672 -1.41027 0
M  V30 4328 O 425.054 1.8724 -0.576012 0
M  V30 4329 H 423.634 0.00399774 -0.746989 0
M  V30 4330 H 426.296 -0.695054 -1.82085 0
M  V30 4331 H 425.392 0.11031 -3.11905 0
M  V30 4332 N 425.693 1.55336 -0.266172 0
M  V30 4333 C 426.97 1.91372 0.404486 0
M  V30 4334 C 427.35 1.18935 1.74407 0
M  V30 4335 O 426.698 0.3132 2.26343 0
M  V30 4336 C 426.908 3.44581 0.553593 0
M  V30 4337 C 428.256 4.16196 0.840618 0
M  V30 4338 O 429.28 3.50426 0.638739 0
M  V30 4339 O 428.139 5.32567 1.22618 0
M  V30 4340 H 425.233 0.797194 0.220025 0
M  V30 4341 H 427.779 1.66813 -0.311664 0
M  V30 4342 H 426.551 3.89357 -0.389498 0
M  V30 4343 H 426.174 3.75065 1.31955 0
M  V30 4344 N 427.171 -0.0066808 1.57599 0
M  V30 4345 C 428.134 -0.985035 2.06953 0
M  V30 4346 C 429.134 -1.27663 0.977687 0
M  V30 4347 O 430.324 -1.22293 1.24057 0
M  V30 4348 C 427.456 -2.3118 2.50536 0
M  V30 4349 H 428.649 -0.558255 2.94658 0
M  V30 4350 H 426.202 -0.254011 1.54222 0
M  V30 4351 H 426.937 -2.78561 1.66054 0
M  V30 4352 H 426.722 -2.11338 3.3027 0
M  V30 4353 H 428.212 -3.01377 2.8907 0
M  V30 4354 N 428.649 -1.55105 -0.279332 0
M  V30 4355 C 430.065 -1.46803 -0.626187 0
M  V30 4356 C 430.265 -0.676939 -1.89789 0
M  V30 4357 O 429.321 -0.19326 -2.51759 0
M  V30 4358 C 430.634 -2.90962 -0.759034 0
M  V30 4359 C 432.182 -3.01138 -0.853504 0
M  V30 4360 C 432.657 -4.46539 -1.01818 0
M  V30 4361 N 434.148 -4.50341 -1.08386 0
M  V30 4362 C 434.883 -5.60053 -1.22996 0
M  V30 4363 N 434.379 -6.79645 -1.34366 0
M  V30 4364 N 436.172 -5.47783 -1.26056 0
M  V30 4365 H 428.323 -2.04996 0.555921 0
M  V30 4366 H 430.586 -0.929325 0.187239 0
M  V30 4367 H 430.292 -3.51544 0.104852 0
M  V30 4368 H 430.166 -3.39619 -1.64131 0
M  V30 4369 H 432.553 -2.40658 -1.70786 0
M  V30 4370 H 432.634 -2.55745 0.0532466 0
M  V30 4371 H 432.278 -5.0762 -0.168504 0
M  V30 4372 H 432.208 -4.89583 -1.93948 0
M  V30 4373 H 434.699 -3.64191 -1.00864 0
M  V30 4374 H 435.012 -7.59012 -1.4533 0
M  V30 4375 H 433.357 -6.82469 -1.31382 0
M  V30 4376 H 436.548 -4.53294 -1.168 0
M  V30 4377 H 436.721 -6.33331 -1.37098 0
M  V30 4378 N 430.127 0.543554 -1.4793 0
M  V30 4379 C 431.543 0.870806 -1.3375 0
M  V30 4380 C 431.743 1.9864 -0.338261 0
M  V30 4381 O 430.799 2.51305 0.245371 0
M  V30 4382 C 432.112 1.25114 -2.73435 0
M  V30 4383 C 433.66 1.3618 -2.81823 0
M  V30 4384 C 434.135 1.77563 -4.22179 0
M  V30 4385 N 435.626 1.8469 -4.24787 0
M  V30 4386 C 436.361 2.18067 -5.30315 0
M  V30 4387 N 435.857 2.49963 -6.46135 0
M  V30 4388 N 437.65 2.18958 -5.17701 0
M  V30 4389 H 429.801 -0.19275 -2.11524 0
M  V30 4390 H 432.064 -0.0235777 -0.947707 0
M  V30 4391 H 431.77 0.50514 -3.48053 0
M  V30 4392 H 431.644 2.20431 -3.06088 0
M  V30 4393 H 434.031 2.09859 -2.07468 0
M  V30 4394 H 434.112 0.390169 -2.52807 0
M  V30 4395 H 433.756 1.04449 -4.97044 0
M  V30 4396 H 433.686 2.75753 -4.48629 0
M  V30 4397 H 436.177 1.62372 -3.41239 0
M  V30 4398 H 436.49 2.74497 -7.22406 0
M  V30 4399 H 434.835 2.47513 -6.49432 0
M  V30 4400 H 438.026 1.93488 -4.2624 0
M  V30 4401 H 438.199 2.44639 -6.00047 0
M  V30 4402 N 431.605 1.3629 0.791371 0
M  V30 4403 C 432.515 1.32606 1.93527 0
M  V30 4404 C 433.531 0.228541 1.72493 0
M  V30 4405 O 434.707 0.460571 1.96063 0
M  V30 4406 C 431.772 1.11271 3.28359 0
M  V30 4407 C 430.833 2.3048 3.62185 0
M  V30 4408 C 430.066 2.10154 4.90583 0
M  V30 4409 O 430.289 1.07572 5.60165 0
M  V30 4410 O 429.223 2.97884 5.23019 0
M  V30 4411 H 433.049 2.28909 1.99585 0
M  V30 4412 H 430.634 1.16818 0.931344 0
M  V30 4413 H 432.516 1.01283 4.09047 0
M  V30 4414 H 431.191 0.180292 3.23198 0
M  V30 4415 H 430.098 2.46036 2.81811 0
M  V30 4416 H 431.431 3.22221 3.72068 0
M  V30 4417 N 433.083 -1.0153 1.20538 0
M  V30 4418 C 434.03 -2.10098 0.955383 0
M  V30 4419 C 435 -1.65702 -0.114878 0
M  V30 4420 O 436.185 -1.90776 0.0301118 0
M  V30 4421 C 433.325 -3.41236 0.514969 0
M  V30 4422 C 432.438 -3.99102 1.65353 0
M  V30 4423 C 431.573 -5.18306 1.16329 0
M  V30 4424 C 430.612 -5.68258 2.27485 0
M  V30 4425 N 429.749 -6.78722 1.7967 0
M  V30 4426 H 434.589 -2.30818 1.88486 0
M  V30 4427 H 432.126 -1.13189 0.939499 0
M  V30 4428 H 434.084 -4.16504 0.240935 0
M  V30 4429 H 432.714 -3.20585 -0.377512 0
M  V30 4430 H 431.766 -3.20918 2.04245 0
M  V30 4431 H 433.078 -4.32177 2.49047 0
M  V30 4432 H 432.232 -6.00782 0.845302 0
M  V30 4433 H 430.971 -4.86799 0.296254 0
M  V30 4434 H 429.976 -4.84385 2.60099 0
M  V30 4435 H 431.201 -6.01798 3.14667 0
M  V30 4436 H 429.147 -6.49042 0.95295 0
M  V30 4437 H 429.064 -7.10996 2.56944 0
M  V30 4438 H 430.332 -7.64759 1.50875 0
M  V30 4439 N 434.561 -1.01147 -1.20859 0
M  V30 4440 C 435.491 -0.597663 -2.25722 0
M  V30 4441 C 436.472 0.384744 -1.65692 0
M  V30 4442 O 437.657 0.271303 -1.92296 0
M  V30 4443 C 434.787 0.0700149 -3.47229 0
M  V30 4444 C 433.741 -0.832843 -4.19819 0
M  V30 4445 C 433.067 -0.0312202 -5.34691 0
M  V30 4446 C 434.367 -2.1385 -4.76514 0
M  V30 4447 H 436.061 -1.47423 -2.60589 0
M  V30 4448 H 433.607 -0.710301 -1.25263 0
M  V30 4449 H 435.56 0.37103 -4.19763 0
M  V30 4450 H 434.284 0.981259 -3.11511 0
M  V30 4451 H 432.943 -1.11778 -3.49144 0
M  V30 4452 H 432.591 0.881515 -4.95215 0
M  V30 4453 H 432.291 -0.632434 -5.84187 0
M  V30 4454 H 433.815 0.26346 -6.10031 0
M  V30 4455 H 435.229 -1.9002 -5.40893 0
M  V30 4456 H 433.626 -2.69012 -5.36426 0
M  V30 4457 H 434.696 -2.80495 -3.95538 0
M  V30 4458 N 436.039 1.36541 -0.78704 0
M  V30 4459 C 437.002 2.28413 -0.189778 0
M  V30 4460 C 438.002 1.48719 0.611499 0
M  V30 4461 O 439.192 1.68737 0.432842 0
M  V30 4462 C 436.324 3.32824 0.737638 0
M  V30 4463 H 437.517 2.82743 -0.999831 0
M  V30 4464 H 435.07 1.46065 -0.556298 0
M  V30 4465 H 435.805 2.83646 1.57212 0
M  V30 4466 H 435.59 3.91752 0.165044 0
M  V30 4467 H 437.08 4.0144 1.15047 0
M  V30 4468 N 437.518 0.538854 1.48102 0
M  V30 4469 C 438.481 -0.208395 2.28251 0
M  V30 4470 C 439.481 -0.859656 1.35892 0
M  V30 4471 O 440.671 -0.71834 1.58699 0
M  V30 4472 C 437.803 -1.30252 3.15035 0
M  V30 4473 H 438.996 0.495407 2.9578 0
M  V30 4474 H 436.549 0.295112 1.53489 0
M  V30 4475 H 437.284 -2.0393 2.52157 0
M  V30 4476 H 437.069 -0.840551 3.82985 0
M  V30 4477 H 438.559 -1.82787 3.75471 0
M  V30 4478 N 438.996 -1.55193 0.274407 0
M  V30 4479 C 439.926 -2.25471 -0.607032 0
M  V30 4480 C 440.907 -1.24461 -1.15946 0
M  V30 4481 O 442.092 -1.53179 -1.19373 0
M  V30 4482 C 439.222 -2.97526 -1.79153 0
M  V30 4483 C 438.176 -4.05459 -1.37067 0
M  V30 4484 C 437.502 -4.65084 -2.6382 0
M  V30 4485 C 438.802 -5.19691 -0.521389 0
M  V30 4486 H 440.496 -2.99393 -0.0209343 0
M  V30 4487 H 438.042 -1.43997 -0.00862866 0
M  V30 4488 H 439.995 -3.45402 -2.41404 0
M  V30 4489 H 438.719 -2.21138 -2.40344 0
M  V30 4490 H 437.378 -3.58393 -0.771355 0
M  V30 4491 H 437.026 -3.85365 -3.23268 0
M  V30 4492 H 436.726 -5.37961 -2.36372 0
M  V30 4493 H 438.25 -5.15708 -3.26921 0
M  V30 4494 H 439.664 -5.63623 -1.04889 0
M  V30 4495 H 438.061 -5.99126 -0.341825 0
M  V30 4496 H 439.131 -4.82713 0.46 0
M  V30 4497 N 440.474 -0.00167713 -1.576 0
M  V30 4498 C 441.723 0.682021 -1.89819 0
M  V30 4499 C 442.036 1.74844 -0.876871 0
M  V30 4500 O 443.242 2.48688 -1.08934 0
M  V30 4501 C 441.698 1.26425 -3.36964 0
M  V30 4502 C 441.306 0.232568 -4.47396 0
M  V30 4503 C 443.05 1.92604 -3.78291 0
M  V30 4504 C 440.957 0.824882 -5.85619 0
M  V30 4505 H 439.887 0.258499 -0.708304 0
M  V30 4506 H 442.538 -0.0624957 -1.83394 0
M  V30 4507 H 440.92 2.05949 -3.38232 0
M  V30 4508 H 442.094 -0.5382 -4.57646 0
M  V30 4509 H 440.409 -0.32888 -4.15099 0
M  V30 4510 H 443.006 2.37827 -4.78897 0
M  V30 4511 H 443.349 2.75732 -3.11894 0
M  V30 4512 H 443.882 1.19812 -3.79328 0
M  V30 4513 H 440.621 0.0323542 -6.55492 0
M  V30 4514 H 440.141 1.56477 -5.79029 0
M  V30 4515 H 441.82 1.32301 -6.33329 0
M  V30 4516 N 441.952 1.55251 0.271103 0
M  V30 4517 C 443.18 1.79974 1.02064 0
M  V30 4518 C 443.595 0.574003 1.79863 0
M  V30 4519 O 442.952 -0.456962 1.76686 0
M  V30 4520 C 443.003 3.02603 1.97772 0
M  V30 4521 O 442.724 4.20443 1.23124 0
M  V30 4522 C 444.225 3.39944 2.84522 0
M  V30 4523 H 441.445 0.599489 0.301419 0
M  V30 4524 H 443.989 2.02268 0.301313 0
M  V30 4525 H 442.144 2.8243 2.65165 0
M  V30 4526 H 442.558 4.89783 1.87651 0
M  V30 4527 H 444.032 4.28915 3.47471 0
M  V30 4528 H 444.509 2.59432 3.54389 0
M  V30 4529 H 445.115 3.62383 2.22618 0
M  V30 4530 N 443.43 -0.535701 1.48216 0
M  V30 4531 C 444.846 -0.863701 1.3421 0
M  V30 4532 C 445.046 -1.98458 0.34879 0
M  V30 4533 O 444.102 -2.51432 -0.23204 0
M  V30 4534 C 445.415 -1.23662 2.74095 0
M  V30 4535 C 446.963 -1.34683 2.82541 0
M  V30 4536 C 447.438 -1.75322 4.23115 0
M  V30 4537 N 448.929 -1.82434 4.2576 0
M  V30 4538 C 449.664 -2.15252 5.31464 0
M  V30 4539 N 449.16 -2.46533 6.47452 0
M  V30 4540 N 450.953 -2.16209 5.18855 0
M  V30 4541 H 443.104 0.203965 2.11418 0
M  V30 4542 H 445.367 0.0286033 0.947568 0
M  V30 4543 H 445.073 -0.486674 3.48316 0
M  V30 4544 H 444.947 -2.18805 3.07253 0
M  V30 4545 H 447.334 -2.08756 2.08579 0
M  V30 4546 H 447.415 -0.376756 2.5301 0
M  V30 4547 H 447.059 -1.01812 4.97591 0
M  V30 4548 H 446.989 -2.7337 4.50085 0
M  V30 4549 H 449.48 -1.6056 3.42095 0
M  V30 4550 H 449.793 -2.70662 7.23852 0
M  V30 4551 H 448.138 -2.44065 6.50736 0
M  V30 4552 H 451.329 -1.91224 4.2726 0
M  V30 4553 H 451.502 -2.41453 6.01335 0
M  V30 4554 N 444.908 -1.36708 -0.784132 0
M  V30 4555 C 446.155 -1.31231 -1.54222 0
M  V30 4556 C 446.483 0.106864 -1.94206 0
M  V30 4557 O 445.738 1.07734 -1.63376 0
M  V30 4558 C 446.037 -2.18571 -2.82774 0
M  V30 4559 C 445.703 -3.67039 -2.61903 0
M  V30 4560 C 444.365 -4.07503 -2.55919 0
M  V30 4561 C 446.717 -4.61149 -2.4288 0
M  V30 4562 C 444.045 -5.40211 -2.28886 0
M  V30 4563 C 446.397 -5.94081 -2.17373 0
M  V30 4564 C 445.061 -6.33664 -2.09825 0
M  V30 4565 H 444.331 -0.48021 -0.56434 0
M  V30 4566 H 446.978 -1.68807 -0.904233 0
M  V30 4567 H 445.283 -1.73949 -3.51068 0
M  V30 4568 H 446.98 -2.11655 -3.40592 0
M  V30 4569 H 443.57 -3.34941 -2.67418 0
M  V30 4570 H 447.754 -4.30756 -2.46501 0
M  V30 4571 H 443.01 -5.69855 -2.21529 0
M  V30 4572 H 447.184 -6.66566 -2.01649 0
M  V30 4573 H 444.811 -7.36423 -1.88641 0
M  V30 4574 N 446.386 1.0089 -1.21074 0
M  V30 4575 C 447.802 1.2695 -0.967257 0
M  V30 4576 C 448.002 1.9846 0.348673 0
M  V30 4577 O 447.058 2.28459 1.0753 0
M  V30 4578 C 448.371 2.09697 -2.15517 0
M  V30 4579 C 449.919 2.22937 -2.197 0
M  V30 4580 C 450.394 3.09064 -3.37999 0
M  V30 4581 N 451.885 3.16653 -3.38061 0
M  V30 4582 C 452.62 3.8354 -4.26245 0
M  V30 4583 N 452.116 4.52488 -5.2462 0
M  V30 4584 N 453.909 3.80141 -4.14064 0
M  V30 4585 H 446.06 0.529005 -2.05707 0
M  V30 4586 H 448.323 0.296148 -0.900556 0
M  V30 4587 H 448.029 1.64497 -3.10859 0
M  V30 4588 H 447.903 3.10444 -2.14253 0
M  V30 4589 H 450.29 2.67357 -1.24916 0
M  V30 4590 H 450.371 1.21673 -2.2501 0
M  V30 4591 H 450.015 2.65347 -4.33074 0
M  V30 4592 H 449.945 4.10433 -3.29928 0
M  V30 4593 H 452.436 2.67566 -2.66865 0
M  V30 4594 H 452.749 5.01219 -5.88217 0
M  V30 4595 H 451.094 4.51288 -5.28549 0
M  V30 4596 H 454.285 3.25427 -3.36474 0
M  V30 4597 H 454.458 4.31992 -4.82998 0
M  V30 4598 N 447.864 1.01787 1.20321 0
M  V30 4599 C 448.827 0.593972 2.2137 0
M  V30 4600 C 449.827 -0.336553 1.57239 0
M  V30 4601 O 451.017 -0.125069 1.7375 0
M  V30 4602 C 448.149 -0.132433 3.40643 0
M  V30 4603 H 449.342 1.48791 2.60387 0
M  V30 4604 H 446.895 0.807803 1.33807 0
M  V30 4605 H 447.63 -1.04123 3.0713 0
M  V30 4606 H 447.415 0.53605 3.88418 0
M  V30 4607 H 448.905 -0.416314 4.1552 0
M  V30 4608 N 449.342 -1.36122 0.79427 0
M  V30 4609 C 450.59 -1.98718 0.368177 0
M  V30 4610 C 450.911 -1.63345 -1.06506 0
M  V30 4611 O 450.181 -0.909825 -1.73491 0
M  V30 4612 H 448.761 -0.735038 0.133146 0
M  V30 4613 H 451.423 -1.66239 1.01739 0
M  V30 4614 H 450.519 -3.08633 0.463923 0
M  V30 4615 N 450.82 -0.546701 -1.47814 0
M  V30 4616 C 452.066 -0.0187684 -2.02791 0
M  V30 4617 C 452.399 1.32338 -1.42128 0
M  V30 4618 O 451.674 1.85867 -0.573023 0
M  V30 4619 C 451.957 0.0854985 -3.59998 0
M  V30 4620 C 451.81 -1.283 -4.31114 0
M  V30 4621 C 453.129 0.80412 -4.32691 0
M  V30 4622 H 450.248 -0.0082946 -0.736953 0
M  V30 4623 H 452.89 -0.706962 -1.76358 0
M  V30 4624 H 451.04 0.671609 -3.82651 0
M  V30 4625 H 452.712 -1.91151 -4.19832 0
M  V30 4626 H 450.955 -1.86049 -3.91878 0
M  V30 4627 H 451.626 -1.16287 -5.39612 0
M  V30 4628 H 454.102 0.306576 -4.14969 0
M  V30 4629 H 452.978 0.846011 -5.42341 0
M  V30 4630 H 453.239 1.85802 -4.01161 0
M  V30 4631 N 452.299 1.55045 -0.282633 0
M  V30 4632 C 453.231 2.2023 0.634924 0
M  V30 4633 C 454.244 1.18931 1.11172 0
M  V30 4634 O 455.433 1.4562 1.03233 0
M  V30 4635 C 452.533 2.82041 1.87899 0
M  V30 4636 C 451.706 4.091 1.54776 0
M  V30 4637 C 450.765 4.54887 2.64507 0
M  V30 4638 O 449.791 5.20496 2.30375 0
M  V30 4639 N 450.993 4.25659 3.94709 0
M  V30 4640 H 453.758 2.99601 0.0769811 0
M  V30 4641 H 451.319 1.61565 -0.104048 0
M  V30 4642 H 453.311 3.09613 2.60619 0
M  V30 4643 H 451.881 2.06618 2.3458 0
M  V30 4644 H 451.101 3.88736 0.654049 0
M  V30 4645 H 452.389 4.9187 1.30158 0
M  V30 4646 H 451.787 3.7306 4.25256 0
M  V30 4647 H 450.344 4.57984 4.63782 0
M  V30 4648 N 453.777 0.010035 1.57597 0
M  V30 4649 C 455.054 -0.710296 1.82248 0
M  V30 4650 C 455.434 -1.91426 0.889911 0
M  V30 4651 O 454.782 -2.28424 -0.0590292 0
M  V30 4652 C 454.992 -1.10655 3.30993 0
M  V30 4653 C 456.34 -1.50621 3.96987 0
M  V30 4654 O 457.364 -1.20007 3.35375 0
M  V30 4655 O 456.223 -2.07587 5.05539 0
M  V30 4656 H 453.317 -0.34673 0.750804 0
M  V30 4657 H 455.863 0.0362578 1.69661 0
M  V30 4658 H 454.635 -0.248826 3.90508 0
M  V30 4659 H 454.258 -1.91189 3.48615 0
M  V30 4660 N 455.255 -1.55392 -0.262866 0
M  V30 4661 C 456.185 -1.91978 -1.32917 0
M  V30 4662 C 457.166 -0.7828 -1.51017 0
M  V30 4663 O 458.351 -1.04178 -1.63892 0
M  V30 4664 C 455.481 -2.20055 -2.68687 0
M  V30 4665 C 454.435 -3.35854 -2.65304 0
M  V30 4666 C 453.761 -3.49435 -4.04721 0
M  V30 4667 C 455.061 -4.71977 -2.23685 0
M  V30 4668 H 456.755 -2.81292 -1.02544 0
M  V30 4669 H 454.301 -1.3534 -0.491846 0
M  V30 4670 H 456.254 -2.44237 -3.43404 0
M  V30 4671 H 454.978 -1.27551 -3.00663 0
M  V30 4672 H 453.637 -3.11655 -1.93045 0
M  V30 4673 H 453.285 -2.54379 -4.33936 0
M  V30 4674 H 452.985 -4.27297 -4.0335 0
M  V30 4675 H 454.509 -3.7592 -4.81161 0
M  V30 4676 H 455.923 -4.95637 -2.88127 0
M  V30 4677 H 454.32 -5.52828 -2.33456 0
M  V30 4678 H 455.39 -4.70115 -1.18827 0
M  V30 4679 N 456.733 0.527833 -1.48498 0
M  V30 4680 C 458.144 1.10975 -1.50138 0
M  V30 4681 C 458.495 1.943 -0.272378 0
M  V30 4682 O 457.62 2.07319 0.620301 0
M  V30 4683 C 458.215 2.01927 -2.72049 0
M  V30 4684 C 456.774 2.55332 -2.76554 0
M  V30 4685 C 455.921 1.32341 -2.43683 0
M  V30 4686 H 458.872 0.312986 -1.55583 0
M  V30 4687 H 458.893 2.86244 -2.50689 0
M  V30 4688 H 458.405 1.41254 -3.61481 0
M  V30 4689 H 456.506 3.19721 -1.91336 0
M  V30 4690 H 456.619 2.94319 -3.78038 0
M  V30 4691 H 454.983 1.63989 -1.94884 0
M  V30 4692 H 455.766 0.734165 -3.35358 0
M  V30 4693 N 458.211 1.37122 0.776871 0
M  V30 4694 C 459.458 1.32047 1.53524 0
M  V30 4695 C 459.786 -0.0965631 1.9426 0
M  V30 4696 O 459.041 -1.06866 1.63945 0
M  V30 4697 C 459.34 2.20068 2.81611 0
M  V30 4698 C 459.006 3.68423 2.59953 0
M  V30 4699 C 457.668 4.08854 2.53755 0
M  V30 4700 C 460.02 4.62431 2.40431 0
M  V30 4701 C 457.348 5.41417 2.26018 0
M  V30 4702 C 459.7 5.95225 2.14219 0
M  V30 4703 C 458.364 6.34767 2.06462 0
M  V30 4704 H 457.634 0.483196 0.561785 0
M  V30 4705 H 460.281 1.69284 0.895268 0
M  V30 4706 H 458.586 1.75809 3.50141 0
M  V30 4707 H 460.283 2.13458 3.39465 0
M  V30 4708 H 456.873 3.36354 2.65638 0
M  V30 4709 H 461.057 4.32057 2.44213 0
M  V30 4710 H 456.313 5.71022 2.18504 0
M  V30 4711 H 460.487 6.67626 1.98112 0
M  V30 4712 H 458.114 7.37413 1.84733 0
M  V30 4713 N 459.689 -1.00246 1.21608 0
M  V30 4714 C 460.917 -1.77631 1.06089 0
M  V30 4715 C 461.332 -1.84746 -0.38916 0
M  V30 4716 O 460.689 -1.31068 -1.26994 0
M  V30 4717 C 460.74 -3.21415 1.65453 0
M  V30 4718 O 460.461 -3.14703 3.04785 0
M  V30 4719 C 461.962 -4.15289 1.55079 0
M  V30 4720 H 459.182 -0.558162 0.37242 0
M  V30 4721 H 461.726 -1.26093 1.60999 0
M  V30 4722 H 459.881 -3.70053 1.14629 0
M  V30 4723 H 460.295 -4.05056 3.33212 0
M  V30 4724 H 461.769 -5.13965 2.01355 0
M  V30 4725 H 462.246 -4.36279 0.505665 0
M  V30 4726 H 462.852 -3.72543 2.05163 0
M  V30 4727 N 461.167 -1.02423 -1.1978 0
M  V30 4728 C 462.097 -0.62157 -2.25075 0
M  V30 4729 C 463.078 0.367148 -1.6609 0
M  V30 4730 O 464.263 0.250892 -1.92573 0
M  V30 4731 C 461.393 0.0331826 -3.47284 0
M  V30 4732 C 460.347 -0.877323 -4.18912 0
M  V30 4733 C 459.673 -0.0879296 -5.34628 0
M  V30 4734 C 460.973 -2.18892 -4.74219 0
M  V30 4735 H 462.667 -1.50179 -2.59011 0
M  V30 4736 H 460.213 -0.723547 -1.24502 0
M  V30 4737 H 462.166 0.326488 -4.20133 0
M  V30 4738 H 460.89 0.948164 -3.12534 0
M  V30 4739 H 459.549 -1.15475 -3.47938 0
M  V30 4740 H 459.197 0.828941 -4.96123 0
M  V30 4741 H 458.897 -0.694359 -5.83483 0
M  V30 4742 H 460.421 0.198743 -6.10276 0
M  V30 4743 H 461.835 -1.95746 -5.38847 0
M  V30 4744 H 460.232 -2.74686 -5.33542 0
M  V30 4745 H 461.302 -2.84674 -3.92541 0
M  V30 4746 N 462.645 1.35699 -0.801477 0
M  V30 4747 C 463.608 2.28199 -0.213994 0
M  V30 4748 C 464.608 1.49359 0.595691 0
M  V30 4749 O 465.798 1.69186 0.414921 0
M  V30 4750 C 462.93 3.33587 0.702297 0
M  V30 4751 H 464.123 2.81666 -1.02976 0
M  V30 4752 H 461.676 1.45467 -0.571759 0
M  V30 4753 H 462.411 2.85297 1.54195 0
M  V30 4754 H 462.196 3.91906 0.123484 0
M  V30 4755 H 463.686 4.02638 1.10783 0
M  V30 4756 N 464.123 0.554532 1.47522 0
M  V30 4757 C 465.4 -0.0360704 1.95567 0
M  V30 4758 C 465.78 -1.48828 1.49711 0
M  V30 4759 O 465.128 -2.16366 0.734717 0
M  V30 4760 C 465.338 0.106631 3.48837 0
M  V30 4761 C 466.686 -0.0400899 4.24581 0
M  V30 4762 O 467.71 0.0340453 3.56184 0
M  V30 4763 O 466.569 -0.199111 5.46137 0
M  V30 4764 H 463.663 -0.0656294 0.824392 0
M  V30 4765 H 466.209 0.620867 1.57935 0
M  V30 4766 H 464.981 1.11727 3.7501 0
M  V30 4767 H 464.604 -0.58804 3.93227 0
M  V30 4768 N 465.601 -1.54893 0.290851 0
M  V30 4769 C 466.826 -2.04804 -0.32712 0
M  V30 4770 C 467.251 -1.16721 -1.47506 0
M  V30 4771 O 466.609 -0.169107 -1.8051 0
M  V30 4772 C 466.657 -3.52268 -0.770689 0
M  V30 4773 O 465.761 -3.67236 -1.87647 0
M  V30 4774 H 465.102 -0.660789 -0.0652227 0
M  V30 4775 H 467.632 -2.00036 0.429739 0
M  V30 4776 H 467.642 -3.9393 -1.06223 0
M  V30 4777 H 466.317 -4.15843 0.069096 0
M  V30 4778 H 464.894 -3.37479 -1.58626 0
M  V30 4779 N 467.08 -0.0183926 -1.57589 0
M  V30 4780 C 468.32 0.666846 -1.93216 0
M  V30 4781 C 468.684 1.69905 -0.894215 0
M  V30 4782 O 469.885 2.436 -1.13633 0
M  V30 4783 C 468.156 1.27684 -3.33814 0
M  V30 4784 S 469.715 1.98464 -3.91353 0
M  V30 4785 H 466.533 0.219826 -0.676164 0
M  V30 4786 H 469.135 -0.0794893 -1.95338 0
M  V30 4787 H 467.839 0.513006 -4.07181 0
M  V30 4788 H 467.37 2.06071 -3.3511 0
M  V30 4789 H 469.385 3.26189 -3.73918 0
M  V30 4790 N 468.558 1.5553 0.254621 0
M  V30 4791 C 469.783 1.81383 1.00573 0
M  V30 4792 C 470.208 0.594419 1.78461 0
M  V30 4793 O 469.566 -0.456403 1.75461 0
M  V30 4794 C 469.614 3.04892 1.92545 0
M  V30 4795 O 468.718 2.81266 3.01601 0
M  V30 4796 H 468.059 0.598969 0.286587 0
M  V30 4797 H 470.589 2.02703 0.277952 0
M  V30 4798 H 470.599 3.34119 2.34155 0
M  V30 4799 H 469.274 3.93287 1.3527 0
M  V30 4800 H 467.851 2.63185 2.64174 0
M  V30 4801 N 470.036 -0.519951 1.48776 0
M  V30 4802 C 470.999 -1.60574 1.6355 0
M  V30 4803 C 471.999 -1.52557 0.508234 0
M  V30 4804 O 473.189 -1.56047 0.774262 0
M  V30 4805 C 470.321 -3.00211 1.61512 0
M  V30 4806 H 471.514 -1.4881 2.60376 0
M  V30 4807 H 469.067 -0.742772 1.37523 0
M  V30 4808 H 469.802 -3.17471 0.662009 0
M  V30 4809 H 469.587 -3.07439 2.43359 0
M  V30 4810 H 471.077 -3.79134 1.75064 0
M  V30 4811 N 471.514 -1.37532 -0.769588 0
M  V30 4812 C 472.763 -1.32183 -1.5235 0
M  V30 4813 C 473.076 0.0906555 -1.9539 0
M  V30 4814 O 474.282 0.266628 -2.70188 0
M  V30 4815 C 472.738 -2.32029 -2.75119 0
M  V30 4816 C 472.346 -3.78816 -2.3917 0
M  V30 4817 C 474.09 -2.35694 -3.53056 0
M  V30 4818 C 471.997 -4.70388 -3.58453 0
M  V30 4819 H 470.927 -0.491275 -0.571984 0
M  V30 4820 H 473.578 -1.63004 -0.842739 0
M  V30 4821 H 471.96 -1.94229 -3.45096 0
M  V30 4822 H 473.134 -4.25466 -1.76962 0
M  V30 4823 H 471.449 -3.78117 -1.74402 0
M  V30 4824 H 474.046 -3.01312 -4.41718 0
M  V30 4825 H 474.389 -1.37117 -3.93071 0
M  V30 4826 H 474.922 -2.72212 -2.90078 0
M  V30 4827 H 471.661 -5.70102 -3.23518 0
M  V30 4828 H 471.181 -4.28442 -4.19758 0
M  V30 4829 H 472.86 -4.87628 -4.25239 0
M  V30 4830 N 472.992 0.995999 -1.22138 0
M  V30 4831 C 473.924 2.08745 -0.946485 0
M  V30 4832 C 474.937 1.62633 0.0737356 0
M  V30 4833 O 476.126 1.77782 -0.159886 0
M  V30 4834 C 473.226 3.36516 -0.401305 0
M  V30 4835 C 472.399 4.11672 -1.47801 0
M  V30 4836 C 471.458 5.17728 -0.940461 0
M  V30 4837 O 470.484 5.45482 -1.62596 0
M  V30 4838 N 471.686 5.80005 0.239723 0
M  V30 4839 H 474.451 2.32908 -1.88611 0
M  V30 4840 H 472.012 1.16152 -1.12785 0
M  V30 4841 H 474.004 4.04691 -0.0270837 0
M  V30 4842 H 472.574 3.0944 0.443354 0
M  V30 4843 H 471.794 3.38171 -2.02568 0
M  V30 4844 H 473.082 4.58657 -2.20253 0
M  V30 4845 H 472.48 5.5982 0.813518 0
M  V30 4846 H 471.037 6.4943 0.555361 0
M  V30 4847 N 474.47 1.03057 1.19235 0
M  V30 4848 C 475.881 0.757449 1.70645 0
M  V30 4849 C 476.232 -0.722735 1.82403 0
M  V30 4850 O 475.357 -1.56325 1.49638 0
M  V30 4851 C 475.952 1.36833 3.09939 0
M  V30 4852 C 474.511 1.14375 3.58602 0
M  V30 4853 C 473.658 1.46533 2.35422 0
M  V30 4854 H 476.609 1.19828 1.04052 0
M  V30 4855 H 476.63 0.766184 3.72706 0
M  V30 4856 H 476.142 2.44562 3.01349 0
M  V30 4857 H 474.243 0.0847542 3.72504 0
M  V30 4858 H 474.356 1.83366 4.42622 0
M  V30 4859 H 472.72 0.884712 2.38841 0
M  V30 4860 H 473.503 2.55349 2.2946 0
M  V30 4861 N 475.948 -1.35272 0.808662 0
M  V30 4862 C 476.878 -2.32315 0.234981 0
M  V30 4863 C 477.859 -1.57572 -0.64071 0
M  V30 4864 O 479.044 -1.8563 -0.570551 0
M  V30 4865 C 476.174 -3.41801 -0.615601 0
M  V30 4866 C 475.128 -4.27694 0.161767 0
M  V30 4867 C 474.454 -5.28519 -0.810649 0
M  V30 4868 C 475.754 -5.04231 1.36193 0
M  V30 4869 H 477.448 -2.80543 1.04575 0
M  V30 4870 H 474.994 -1.3488 0.504315 0
M  V30 4871 H 476.947 -4.08693 -1.02702 0
M  V30 4872 H 475.671 -2.92186 -1.45928 0
M  V30 4873 H 474.33 -3.62384 0.554382 0
M  V30 4874 H 473.978 -4.75171 -1.64988 0
M  V30 4875 H 473.678 -5.8686 -0.294822 0
M  V30 4876 H 475.202 -5.98283 -1.22023 0
M  V30 4877 H 476.616 -5.64058 1.02528 0
M  V30 4878 H 475.013 -5.72077 1.81239 0
M  V30 4879 H 476.083 -4.34753 2.14751 0
M  V30 4880 N 477.426 -0.562348 -1.47226 0
M  V30 4881 C 478.675 -0.038041 -2.01664 0
M  V30 4882 C 478.988 1.32199 -1.44162 0
M  V30 4883 O 480.194 1.9365 -1.90294 0
M  V30 4884 C 478.65 -0.0174958 -3.59896 0
M  V30 4885 C 478.258 -1.3746 -4.2639 0
M  V30 4886 C 480.002 0.453934 -4.22066 0
M  V30 4887 C 477.909 -1.31289 -5.76643 0
M  V30 4888 H 476.839 -0.0104511 -0.753928 0
M  V30 4889 H 479.49 -0.710966 -1.69167 0
M  V30 4890 H 477.872 0.721182 -3.89378 0
M  V30 4891 H 479.046 -2.1314 -4.08544 0
M  V30 4892 H 477.361 -1.78438 -3.7623 0
M  V30 4893 H 479.958 0.518584 -5.32179 0
M  V30 4894 H 480.301 1.46706 -3.89594 0
M  V30 4895 H 480.834 -0.230044 -3.97134 0
M  V30 4896 H 477.573 -2.30217 -6.13743 0
M  V30 4897 H 477.093 -0.597973 -5.96812 0
M  V30 4898 H 478.772 -1.01713 -6.38955 0
M  V30 4899 N 478.904 1.54736 -0.299062 0
M  V30 4900 C 480.15 2.00397 0.311244 0
M  V30 4901 C 480.483 1.18716 1.53688 0
M  V30 4902 O 479.758 0.263154 1.92712 0
M  V30 4903 C 480.041 3.53817 0.669761 0
M  V30 4904 C 479.894 4.46239 -0.564882 0
M  V30 4905 C 481.213 4.13856 1.49702 0
M  V30 4906 H 478.332 0.728493 0.111653 0
M  V30 4907 H 480.974 1.85506 -0.410774 0
M  V30 4908 H 479.124 3.66637 1.28491 0
M  V30 4909 H 480.796 4.45328 -1.20337 0
M  V30 4910 H 479.039 4.16916 -1.19849 0
M  V30 4911 H 479.71 5.5134 -0.269918 0
M  V30 4912 H 482.186 4.04461 0.977284 0
M  V30 4913 H 481.062 5.21365 1.71666 0
M  V30 4914 H 481.323 3.65608 2.48563 0
M  V30 4915 N 480.382 0.0267497 1.57577 0
M  V30 4916 C 481.63 -0.651116 1.91324 0
M  V30 4917 C 481.951 -1.72804 0.90353 0
M  V30 4918 O 481.221 -1.95822 -0.0552946 0
M  V30 4919 H 479.801 -0.243491 0.706202 0
M  V30 4920 H 482.463 0.0739935 1.94759 0
M  V30 4921 H 481.559 -1.10536 2.9187 0
M  V30 4922 N 481.861 -1.55662 -0.24637 0
M  V30 4923 C 483.138 -1.68272 -0.997198 0
M  V30 4924 C 483.518 -0.566785 -2.03349 0
M  V30 4925 O 482.866 0.429688 -2.24424 0
M  V30 4926 C 483.076 -3.08594 -1.63006 0
M  V30 4927 C 484.424 -3.6721 -2.13171 0
M  V30 4928 O 485.448 -3.11397 -1.72946 0
M  V30 4929 O 484.307 -4.65054 -2.87031 0
M  V30 4930 H 481.401 -0.684429 -0.464205 0
M  V30 4931 H 483.947 -1.67993 -0.240114 0
M  V30 4932 H 482.719 -3.81264 -0.880527 0
M  V30 4933 H 482.342 -3.12886 -2.45333 0
M  V30 4934 N 483.339 0.512053 -1.4905 0
M  V30 4935 C 484.287 1.63568 -1.65373 0
M  V30 4936 C 485.281 1.61228 -0.519806 0
M  V30 4937 O 486.487 1.65869 -0.699101 0
M  V30 4938 H 482.862 0.542019 -0.521267 0
M  V30 4939 H 484.833 1.4695 -2.59708 0
M  V30 4940 C 483.582 3.01761 -1.7273 0
M  V30 4941 H 482.905 3.04263 -2.59353 0
M  V30 4942 H 484.345 3.79948 -1.8819 0
M  V30 4943 C 482.804 3.33609 -0.46973 0
M  V30 4944 O 483.334 3.99607 0.409492 0
M  V30 4945 N 481.54 2.88651 -0.336003 0
M  V30 4946 H 481.087 2.35119 -1.05247 0
M  V30 4947 H 481.045 3.10328 0.504363 0
M  V30 4948 N 484.817 1.37938 0.762283 0
M  V30 4949 C 486.042 1.37059 1.55659 0
M  V30 4950 C 486.467 -0.0396123 1.88058 0
M  V30 4951 O 485.825 -1.01929 1.49934 0
M  V30 4952 C 485.873 2.22494 2.83776 0
M  V30 4953 O 484.977 1.63607 3.78559 0
M  V30 4954 H 484.318 0.467892 0.47114 0
M  V30 4955 H 486.848 1.81587 0.942725 0
M  V30 4956 H 486.858 2.36045 3.32786 0
M  V30 4957 H 485.533 3.24993 2.59524 0
M  V30 4958 H 484.11 1.5915 3.37233 0
M  V30 4959 N 486.295 -0.989507 1.22664 0
M  V30 4960 C 487.711 -1.25395 0.987331 0
M  V30 4961 C 487.911 -1.9899 -0.317056 0
M  V30 4962 O 486.967 -2.30141 -1.03882 0
M  V30 4963 C 488.28 -2.06242 2.18826 0
M  V30 4964 C 489.828 -2.19413 2.23219 0
M  V30 4965 C 490.303 -3.03648 3.42873 0
M  V30 4966 N 491.794 -3.11234 3.43056 0
M  V30 4967 C 492.529 -3.7671 4.32293 0
M  V30 4968 N 492.025 -4.44085 5.31752 0
M  V30 4969 N 493.818 -3.73505 4.2006 0
M  V30 4970 H 485.969 -0.496212 2.06522 0
M  V30 4971 H 488.232 -0.281784 0.905153 0
M  V30 4972 H 487.938 -1.59531 3.13437 0
M  V30 4973 H 487.812 -3.06996 2.19165 0
M  V30 4974 H 490.199 -2.65336 1.29154 0
M  V30 4975 H 490.28 -1.18078 2.26917 0
M  V30 4976 H 489.924 -2.58424 4.37241 0
M  V30 4977 H 489.854 -4.05132 3.36416 0
M  V30 4978 H 492.345 -2.63287 2.71088 0
M  V30 4979 H 492.658 -4.91797 5.96117 0
M  V30 4980 H 491.003 -4.42822 5.35662 0
M  V30 4981 H 494.194 -3.20033 3.41609 0
M  V30 4982 H 494.367 -4.24253 4.8981 0
M  V30 4983 N 487.773 -1.03688 -1.18687 0
M  V30 4984 C 488.736 -0.629115 -2.20397 0
M  V30 4985 C 489.736 0.311495 -1.57754 0
M  V30 4986 O 490.926 0.0974107 -1.73927 0
M  V30 4987 C 488.058 0.0782231 -3.4081 0
M  V30 4988 H 489.251 -1.52915 -2.57987 0
M  V30 4989 H 486.804 -0.828988 -1.32505 0
M  V30 4990 H 487.539 0.992233 -3.08748 0
M  V30 4991 H 487.324 -0.597776 -3.87517 0
M  V30 4992 H 488.814 0.350156 -4.16129 0
M  V30 4993 N 489.251 1.34841 -0.815825 0
M  V30 4994 C 490.181 2.32187 -0.247298 0
M  V30 4995 C 491.162 1.5791 0.632344 0
M  V30 4996 O 492.347 1.8593 0.560698 0
M  V30 4997 C 489.477 3.42122 0.597466 0
M  V30 4998 C 488.431 4.27602 -0.184446 0
M  V30 4999 C 487.757 5.28942 0.782609 0
M  V30 5000 C 489.057 5.03502 -1.38865 0
M  V30 5001 H 490.751 2.79985 -1.06061 0
M  V30 5002 H 488.297 1.34611 -0.511461 0
M  V30 5003 H 490.25 4.09232 1.00533 0
M  V30 5004 H 488.974 2.92956 1.44376 0
M  V30 5005 H 487.633 3.62085 -0.573592 0
M  V30 5006 H 487.281 4.7604 1.62466 0
M  V30 5007 H 486.981 5.87008 0.263695 0
M  V30 5008 H 488.505 5.98922 1.18848 0
M  V30 5009 H 489.919 5.63506 -1.05518 0
M  V30 5010 H 488.316 5.71108 -1.8427 0
M  V30 5011 H 489.386 4.33608 -2.17054 0
M  V30 5012 N 490.729 0.570148 1.46925 0
M  V30 5013 C 491.661 -0.207909 2.28255 0
M  V30 5014 C 492.674 -0.867301 1.37774 0
M  V30 5015 O 493.863 -0.738976 1.62485 0
M  V30 5016 C 490.963 -1.31298 3.12433 0
M  V30 5017 C 490.136 -0.747915 4.30958 0
M  V30 5018 C 489.195 -1.7391 4.9663 0
M  V30 5019 O 488.221 -1.2801 5.54619 0
M  V30 5020 N 489.423 -3.07288 4.92498 0
M  V30 5021 H 492.188 0.489794 2.95671 0
M  V30 5022 H 489.749 0.407076 1.56699 0
M  V30 5023 H 491.741 -1.97507 3.53232 0
M  V30 5024 H 490.311 -1.91373 2.47175 0
M  V30 5025 H 489.531 0.0913066 3.94094 0
M  V30 5026 H 490.819 -0.349958 5.07595 0
M  V30 5027 H 490.217 -3.47213 4.46609 0
M  V30 5028 H 488.774 -3.69021 5.37277 0
M  V30 5029 N 492.207 -1.54576 0.307264 0
M  V30 5030 C 493.137 -2.26708 -0.55907 0
M  V30 5031 C 494.118 -1.26893 -1.1328 0
M  V30 5032 O 495.303 -1.55677 -1.16097 0
M  V30 5033 C 492.433 -3.01259 -1.72801 0
M  V30 5034 C 491.387 -4.08275 -1.28435 0
M  V30 5035 C 490.713 -4.70575 -2.53895 0
M  V30 5036 C 492.013 -5.2068 -0.411038 0
M  V30 5037 H 493.707 -2.9937 0.042576 0
M  V30 5038 H 491.253 -1.43983 0.0219173 0
M  V30 5039 H 493.206 -3.50444 -2.34023 0
M  V30 5040 H 491.93 -2.26187 -2.356 0
M  V30 5041 H 490.589 -3.59949 -0.695161 0
M  V30 5042 H 490.237 -3.92136 -3.15021 0
M  V30 5043 H 489.937 -5.42854 -2.24908 0
M  V30 5044 H 491.461 -5.22527 -3.15908 0
M  V30 5045 H 492.875 -5.65721 -0.929097 0
M  V30 5046 H 491.272 -5.99716 -0.214664 0
M  V30 5047 H 492.342 -4.81629 0.562287 0
M  V30 5048 N 493.685 -0.035106 -1.57561 0
M  V30 5049 C 494.648 0.929819 -2.09492 0
M  V30 5050 C 495.648 1.25026 -1.01119 0
M  V30 5051 O 496.838 1.18961 -1.27255 0
M  V30 5052 C 493.97 2.24457 -2.56577 0
M  V30 5053 H 495.163 0.479935 -2.96035 0
M  V30 5054 H 492.716 0.213033 -1.54841 0
M  V30 5055 H 493.451 2.74061 -1.73382 0
M  V30 5056 H 493.236 2.02508 -3.35757 0
M  V30 5057 H 494.726 2.93607 -2.96959 0
M  V30 5058 N 495.163 1.55791 0.238111 0
M  V30 5059 C 496.073 1.94196 1.31625 0
M  V30 5060 C 497.089 0.843545 1.52185 0
M  V30 5061 O 498.265 1.1457 1.65637 0
M  V30 5062 C 495.33 2.2365 2.64918 0
M  V30 5063 C 494.391 3.46971 2.52804 0
M  V30 5064 C 493.624 3.7501 3.79741 0
M  V30 5065 O 493.847 3.04982 4.82019 0
M  V30 5066 O 492.781 4.68525 3.77846 0
M  V30 5067 H 496.607 2.86044 1.02043 0
M  V30 5068 H 494.192 1.42786 0.439603 0
M  V30 5069 H 496.074 2.43863 3.4367 0
M  V30 5070 H 494.749 1.34979 2.94215 0
M  V30 5071 H 493.656 3.32055 1.72309 0
M  V30 5072 H 494.989 4.35971 2.28451 0
M  V30 5073 N 496.642 -0.504142 1.49319 0
M  V30 5074 C 497.589 -1.60603 1.65756 0
M  V30 5075 C 498.559 -1.58425 0.499082 0
M  V30 5076 O 499.744 -1.76459 0.725728 0
M  V30 5077 C 496.884 -2.98764 1.72726 0
M  V30 5078 C 495.997 -3.10982 2.99857 0
M  V30 5079 C 495.132 -4.39857 2.97824 0
M  V30 5080 C 494.171 -4.45697 4.19548 0
M  V30 5081 N 493.308 -5.65995 4.15444 0
M  V30 5082 H 498.148 -1.45895 2.59843 0
M  V30 5083 H 495.685 -0.709891 1.28837 0
M  V30 5084 H 497.643 -3.78839 1.74747 0
M  V30 5085 H 496.273 -3.12183 0.821075 0
M  V30 5086 H 495.325 -2.23991 3.07461 0
M  V30 5087 H 496.637 -3.11157 3.89849 0
M  V30 5088 H 495.791 -5.2825 2.98391 0
M  V30 5089 H 494.53 -4.42242 2.05604 0
M  V30 5090 H 493.535 -3.55707 4.19229 0
M  V30 5091 H 494.76 -4.4503 5.12957 0
M  V30 5092 H 492.706 -5.69229 3.26059 0
M  V30 5093 H 492.623 -5.67773 4.99169 0
M  V30 5094 H 493.891 -6.56604 4.20109 0
M  V30 5095 N 498.12 -1.38341 -0.754957 0
M  V30 5096 C 499.05 -1.38176 -1.88227 0
M  V30 5097 C 500.031 -0.247873 -1.68284 0
M  V30 5098 O 501.216 -0.45075 -1.88896 0
M  V30 5099 C 498.346 -1.20471 -3.25736 0
M  V30 5100 C 497.3 -2.3105 -3.60278 0
M  V30 5101 C 496.626 -1.98452 -4.96509 0
M  V30 5102 C 497.926 -3.73305 -3.65295 0
M  V30 5103 H 499.62 -2.32512 -1.88622 0
M  V30 5104 H 497.166 -1.1192 -0.906082 0
M  V30 5105 H 499.119 -1.18982 -4.04254 0
M  V30 5106 H 497.843 -0.225965 -3.25817 0
M  V30 5107 H 496.502 -2.31723 -2.84078 0
M  V30 5108 H 496.15 -0.990641 -4.93148 0
M  V30 5109 H 495.85 -2.7251 -5.20588 0
M  V30 5110 H 497.374 -1.98578 -5.77407 0
M  V30 5111 H 498.788 -3.7467 -4.3393 0
M  V30 5112 H 497.185 -4.46557 -4.00883 0
M  V30 5113 H 498.255 -4.05719 -2.65556 0
M  V30 5114 N 499.598 0.982988 -1.23187 0
M  V30 5115 C 501.014 1.2487 -0.993967 0
M  V30 5116 C 501.214 1.99155 0.306498 0
M  V30 5117 O 500.27 2.30688 1.0266 0
M  V30 5118 C 501.583 2.05078 -2.19917 0
M  V30 5119 C 503.131 2.18227 -2.2438 0
M  V30 5120 C 503.606 3.01825 -3.44479 0
M  V30 5121 N 505.097 3.09411 -3.44702 0
M  V30 5122 C 505.832 3.74412 -4.34285 0
M  V30 5123 N 505.328 4.41259 -5.341 0
M  V30 5124 N 507.121 3.71273 -4.22035 0
M  V30 5125 H 499.272 0.485253 -2.06783 0
M  V30 5126 H 501.535 0.276979 -0.906635 0
M  V30 5127 H 501.241 1.57867 -3.14279 0
M  V30 5128 H 501.115 3.05829 -2.2079 0
M  V30 5129 H 503.502 2.64648 -1.30559 0
M  V30 5130 H 503.583 1.16873 -2.2754 0
M  V30 5131 H 503.227 2.56102 -4.38605 0
M  V30 5132 H 503.157 4.03342 -3.38559 0
M  V30 5133 H 505.648 2.61845 -2.7248 0
M  V30 5134 H 505.961 4.88629 -5.98717 0
M  V30 5135 H 504.306 4.39975 -5.38002 0
M  V30 5136 H 507.497 3.18217 -3.43301 0
M  V30 5137 H 507.67 4.21649 -4.92053 0
M  V30 5138 N 501.076 1.04316 1.18135 0
M  V30 5139 C 502.008 0.594444 2.21357 0
M  V30 5140 C 503.021 -0.337215 1.59269 0
M  V30 5141 O 504.21 -0.131337 1.78016 0
M  V30 5142 C 501.31 -0.151251 3.38562 0
M  V30 5143 C 500.483 0.788907 4.30227 0
M  V30 5144 C 499.542 0.0860572 5.2613 0
M  V30 5145 O 498.568 0.717302 5.64662 0
M  V30 5146 N 499.77 -1.17969 5.68387 0
M  V30 5147 H 502.535 1.48227 2.60478 0
M  V30 5148 H 500.096 0.92396 1.32946 0
M  V30 5149 H 502.088 -0.631352 3.99745 0
M  V30 5150 H 500.658 -0.940639 2.98112 0
M  V30 5151 H 499.878 1.44882 3.6661 0
M  V30 5152 H 501.166 1.42738 4.88368 0
M  V30 5153 H 500.564 -1.71302 5.3914 0
M  V30 5154 H 499.121 -1.60402 6.31755 0
M  V30 5155 N 502.554 -1.34406 0.822964 0
M  V30 5156 C 503.486 -2.28305 0.202375 0
M  V30 5157 C 504.499 -1.5103 -0.60777 0
M  V30 5158 O 505.688 -1.73057 -0.437444 0
M  V30 5159 C 502.788 -3.30836 -0.734911 0
M  V30 5160 C 501.961 -4.37388 0.0324177 0
M  V30 5161 C 501.02 -5.1968 -0.825803 0
M  V30 5162 O 500.046 -5.68556 -0.270771 0
M  V30 5163 N 501.248 -5.39393 -2.14558 0
M  V30 5164 H 504.013 -2.82201 1.00909 0
M  V30 5165 H 501.574 -1.4693 0.67993 0
M  V30 5166 H 503.566 -3.82786 -1.31365 0
M  V30 5167 H 502.136 -2.77334 -1.44238 0
M  V30 5168 H 501.356 -3.86152 0.792469 0
M  V30 5169 H 502.644 -5.05702 0.560633 0
M  V30 5170 H 502.042 -5.01357 -2.62025 0
M  V30 5171 H 500.599 -5.94461 -2.67318 0
M  V30 5172 N 504.032 -0.577932 -1.46621 0
M  V30 5173 C 505.28 -0.061566 -2.02006 0
M  V30 5174 C 505.601 1.30117 -1.4524 0
M  V30 5175 O 504.871 1.85313 -0.63529 0
M  V30 5176 H 503.451 -0.0197692 -0.746738 0
M  V30 5177 H 506.113 -0.752631 -1.79782 0
M  V30 5178 H 505.209 0.0110238 -3.12098 0
M  V30 5179 N 505.51 1.54411 -0.315457 0
M  V30 5180 C 506.75 2.02329 0.290236 0
M  V30 5181 C 507.114 1.19878 1.49977 0
M  V30 5182 O 508.315 1.57562 2.17779 0
M  V30 5183 C 506.586 3.51912 0.623937 0
M  V30 5184 S 508.145 4.21775 1.21044 0
M  V30 5185 H 504.963 0.705499 0.0882739 0
M  V30 5186 H 507.565 1.90328 -0.446694 0
M  V30 5187 H 506.269 4.09546 -0.264624 0
M  V30 5188 H 505.8 3.67977 1.39128 0
M  V30 5189 H 507.815 4.28757 2.49764 0
M  V30 5190 N 506.988 0.0434614 1.5754 0
M  V30 5191 C 508.234 -0.627109 1.93491 0
M  V30 5192 C 508.589 -1.68904 0.921362 0
M  V30 5193 O 507.882 -1.91504 -0.0605799 0
M  V30 5194 C 508.076 -1.2738 3.3393 0
M  V30 5195 C 507.905 -0.27603 4.48852 0
M  V30 5196 C 506.675 0.129244 5.05135 0
M  V30 5197 C 508.873 0.475462 5.12098 0
M  V30 5198 N 506.855 1.12068 6.03584 0
M  V30 5199 C 508.226 1.32021 6.05781 0
M  V30 5200 C 510.281 0.534611 4.95022 0
M  V30 5201 C 508.984 2.2188 6.84223 0
M  V30 5202 C 511.01 1.42059 5.74085 0
M  V30 5203 C 510.372 2.25309 6.67394 0
M  V30 5204 H 506.471 -0.201354 0.755633 0
M  V30 5205 H 509.055 0.113991 1.94366 0
M  V30 5206 H 507.226 -1.98496 3.33847 0
M  V30 5207 H 508.958 -1.90255 3.57191 0
M  V30 5208 H 505.713 -0.248145 4.72949 0
M  V30 5209 H 506.137 1.61306 6.57502 0
M  V30 5210 H 510.779 -0.0947817 4.22694 0
M  V30 5211 H 508.497 2.85868 7.55847 0
M  V30 5212 H 512.083 1.47083 5.62901 0
M  V30 5213 H 510.963 2.92754 7.27506 0
M  V30 5214 N 508.466 -1.55915 -0.229846 0
M  V30 5215 C 509.712 -1.78807 -0.956868 0
M  V30 5216 C 510.045 -0.611687 -1.84315 0
M  V30 5217 O 509.32 0.389398 -1.90562 0
M  V30 5218 C 509.603 -3.11718 -1.80288 0
M  V30 5219 C 509.456 -4.3979 -0.943649 0
M  V30 5220 C 510.775 -3.40999 -2.78222 0
M  V30 5221 H 507.894 -0.6505 -0.346437 0
M  V30 5222 H 510.536 -1.88648 -0.226252 0
M  V30 5223 H 508.686 -3.03459 -2.42579 0
M  V30 5224 H 510.358 -4.60059 -0.338121 0
M  V30 5225 H 508.601 -4.33086 -0.248705 0
M  V30 5226 H 509.272 -5.29208 -1.5698 0
M  V30 5227 H 511.748 -3.49332 -2.26067 0
M  V30 5228 H 510.624 -4.35183 -3.34526 0
M  V30 5229 H 510.885 -2.62754 -3.55546 0
M  V30 5230 N 509.944 0.496216 -1.49584 0
M  V30 5231 C 511.172 1.27394 -1.63029 0
M  V30 5232 C 511.587 1.86344 -0.303569 0
M  V30 5233 O 510.944 1.68057 0.711547 0
M  V30 5234 C 510.995 2.40077 -2.70269 0
M  V30 5235 O 510.716 1.83549 -3.97796 0
M  V30 5236 C 512.217 3.31372 -2.94462 0
M  V30 5237 H 509.437 0.386211 -0.54871 0
M  V30 5238 H 511.981 0.595163 -1.95648 0
M  V30 5239 H 510.136 3.03775 -2.40415 0
M  V30 5240 H 510.55 2.57561 -4.56905 0
M  V30 5241 H 512.024 4.06707 -3.73221 0
M  V30 5242 H 512.501 3.88654 -2.0456 0
M  V30 5243 H 513.107 2.73435 -3.25751 0
M  V30 5244 N 511.423 1.38739 0.74761 0
M  V30 5245 C 512.386 1.36241 1.84312 0
M  V30 5246 C 513.386 0.261811 1.58654 0
M  V30 5247 O 514.576 0.519031 1.66288 0
M  V30 5248 C 511.708 1.12253 3.21888 0
M  V30 5249 H 512.901 2.33712 1.87933 0
M  V30 5250 H 510.454 1.2412 0.949946 0
M  V30 5251 H 511.189 0.154133 3.23934 0
M  V30 5252 H 510.974 1.91943 3.41907 0
M  V30 5253 H 512.464 1.13215 4.0196 0
M  V30 5254 N 512.901 -0.976442 1.23707 0
M  V30 5255 C 514.15 -1.71254 1.06559 0
M  V30 5256 C 514.463 -1.91528 -0.397024 0
M  V30 5257 O 515.669 -2.62625 -0.688518 0
M  V30 5258 C 514.125 -3.08207 1.8584 0
M  V30 5259 C 513.733 -2.95806 3.36456 0
M  V30 5260 C 515.477 -3.85749 1.77194 0
M  V30 5261 C 513.384 -4.28015 4.08114 0
M  V30 5262 H 512.314 -0.642171 0.395136 0
M  V30 5263 H 514.965 -1.08877 1.4771 0
M  V30 5264 H 513.347 -3.71363 1.37498 0
M  V30 5265 H 514.521 -2.41716 3.92314 0
M  V30 5266 H 512.836 -2.31736 3.45959 0
M  V30 5267 H 515.433 -4.83633 2.28041 0
M  V30 5268 H 515.776 -4.09752 0.735477 0
M  V30 5269 H 516.309 -3.29303 2.23169 0
M  V30 5270 H 513.048 -4.09208 5.12083 0
M  V30 5271 H 512.568 -4.81955 3.57043 0
M  V30 5272 H 514.247 -4.96681 4.14629 0
M  V30 5273 N 514.379 -1.04941 -1.1758 0
M  V30 5274 C 515.795 -0.770282 -1.39781 0
M  V30 5275 C 515.995 0.636417 -1.91186 0
M  V30 5276 O 515.051 1.39923 -2.10185 0
M  V30 5277 C 516.364 -1.82376 -2.3908 0
M  V30 5278 C 517.912 -1.84569 -2.52791 0
M  V30 5279 C 518.387 -2.88933 -3.55361 0
M  V30 5280 N 519.878 -2.8788 -3.62877 0
M  V30 5281 C 520.613 -3.65282 -4.41992 0
M  V30 5282 N 520.109 -4.52461 -5.24643 0
M  V30 5283 N 521.902 -3.53732 -4.36841 0
M  V30 5284 H 514.053 -1.95705 -0.825438 0
M  V30 5285 H 516.316 -0.847284 -0.425222 0
M  V30 5286 H 516.022 -2.83323 -2.08376 0
M  V30 5287 H 515.896 -1.66327 -3.38549 0
M  V30 5288 H 518.283 -0.842879 -2.82807 0
M  V30 5289 H 518.364 -2.04696 -1.53406 0
M  V30 5290 H 518.008 -3.89398 -3.26085 0
M  V30 5291 H 517.938 -2.66059 -4.54445 0
M  V30 5292 H 520.429 -2.24666 -3.03864 0
M  V30 5293 H 520.742 -5.08211 -5.82187 0
M  V30 5294 H 519.087 -4.56524 -5.24033 0
M  V30 5295 H 522.278 -2.85021 -3.71323 0
M  V30 5296 H 522.451 -4.14302 -4.98255 0
M  V30 5297 N 515.857 1.33968 -0.830081 0
M  V30 5298 C 517.268 1.80439 -0.479455 0
M  V30 5299 C 517.619 1.68756 1.00079 0
M  V30 5300 O 516.744 1.23171 1.77927 0
M  V30 5301 C 517.339 3.27611 -0.863505 0
M  V30 5302 C 515.898 3.72133 -0.565145 0
M  V30 5303 C 515.045 2.55549 -1.07657 0
M  V30 5304 H 517.996 1.21614 -1.0196 0
M  V30 5305 H 518.017 3.8012 -0.170083 0
M  V30 5306 H 517.529 3.36082 -1.94089 0
M  V30 5307 H 515.63 3.69196 0.502536 0
M  V30 5308 H 515.743 4.65963 -1.11422 0
M  V30 5309 H 514.107 2.49788 -0.497807 0
M  V30 5310 H 514.89 2.66786 -2.16055 0
M  V30 5311 N 517.335 0.585699 1.46312 0
M  V30 5312 C 518.746 0.159938 1.86014 0
M  V30 5313 C 519.097 -1.27775 1.48889 0
M  V30 5314 O 518.222 -1.96559 0.90519 0
M  V30 5315 C 518.817 0.283485 3.37612 0
M  V30 5316 C 517.376 -0.0874256 3.76298 0
M  V30 5317 C 516.523 0.618055 2.70325 0
M  V30 5318 H 519.474 0.793737 1.37425 0
M  V30 5319 H 519.495 -0.490348 3.77327 0
M  V30 5320 H 519.007 1.32995 3.64601 0
M  V30 5321 H 517.108 -1.13391 3.54927 0
M  V30 5322 H 517.221 0.290975 4.78216 0
M  V30 5323 H 515.585 0.057993 2.54634 0
M  V30 5324 H 516.368 1.66623 3.00153 0
M  V30 5325 N 518.813 -1.54241 0.323641 0
M  V30 5326 C 520.041 -2.04985 -0.280871 0
M  V30 5327 C 520.456 -1.19978 -1.45777 0
M  V30 5328 O 519.813 -0.230471 -1.81039 0
M  V30 5329 C 519.864 -3.54353 -0.715258 0
M  V30 5330 O 519.585 -4.36132 0.414817 0
M  V30 5331 C 521.086 -4.21189 -1.38257 0
M  V30 5332 H 518.306 -0.66851 -0.0577502 0
M  V30 5333 H 520.85 -1.99029 0.469852 0
M  V30 5334 H 519.005 -3.60596 -1.41596 0
M  V30 5335 H 519.419 -5.2445 0.0725227 0
M  V30 5336 H 520.893 -5.27154 -1.63745 0
M  V30 5337 H 521.37 -3.72307 -2.32989 0
M  V30 5338 H 521.976 -4.19085 -0.724447 0
M  V30 5339 N 520.291 -0.0518155 -1.57515 0
M  V30 5340 C 521.537 0.622745 -1.93002 0
M  V30 5341 C 521.87 1.70456 -0.930499 0
M  V30 5342 O 521.145 1.94452 0.0434086 0
M  V30 5343 C 521.428 1.21824 -3.38867 0
M  V30 5344 C 521.281 0.144434 -4.49568 0
M  V30 5345 C 522.6 2.12968 -3.8514 0
M  V30 5346 H 519.719 0.22491 -0.701844 0
M  V30 5347 H 522.361 -0.113711 -1.89659 0
M  V30 5348 H 520.511 1.8459 -3.41846 0
M  V30 5349 H 522.183 -0.48753 -4.58717 0
M  V30 5350 H 520.426 -0.527424 -4.30582 0
M  V30 5351 H 521.097 0.601127 -5.48717 0
M  V30 5352 H 523.573 1.60163 -3.8404 0
M  V30 5353 H 522.449 2.51578 -4.87852 0
M  V30 5354 H 522.71 3.03004 -3.21934 0
M  V30 5355 N 521.769 1.56035 0.221574 0
M  V30 5356 C 523.18 1.69229 0.788567 0
M  V30 5357 C 523.531 0.653814 1.84986 0
M  V30 5358 O 522.656 -0.195065 2.15519 0
M  V30 5359 C 523.251 3.06809 1.43713 0
M  V30 5360 C 521.81 3.21858 1.95152 0
M  V30 5361 C 520.957 2.65155 0.811685 0
M  V30 5362 H 523.908 1.587 -0.00307894 0
M  V30 5363 H 523.929 3.02666 2.30594 0
M  V30 5364 H 523.441 3.82369 0.664475 0
M  V30 5365 H 521.542 2.51167 2.7522 0
M  V30 5366 H 521.655 4.29073 2.1315 0
M  V30 5367 H 520.019 2.23635 1.21899 0
M  V30 5368 H 520.802 3.43261 0.0516987 0
M  V30 5369 N 523.247 -0.488276 1.49845 0
M  V30 5370 C 524.21 -1.57069 1.66919 0
M  V30 5371 C 525.21 -1.51445 0.540479 0
M  V30 5372 O 526.4 -1.5437 0.807188 0
M  V30 5373 C 523.532 -2.96718 1.67844 0
M  V30 5374 H 524.725 -1.43254 2.63474 0
M  V30 5375 H 522.278 -0.713435 1.39068 0
M  V30 5376 H 523.013 -3.15996 0.7292 0
M  V30 5377 H 522.798 -3.02208 2.49826 0
M  V30 5378 H 524.288 -3.75335 1.83066 0
M  V30 5379 N 524.725 -1.39134 -0.740242 0
M  V30 5380 C 525.973 -1.35803 -1.49673 0
M  V30 5381 C 526.294 0.0470897 -1.94943 0
M  V30 5382 O 525.564 0.997347 -1.68611 0
M  V30 5383 H 524.144 -0.499736 -0.555224 0
M  V30 5384 H 526.806 -1.73947 -0.879107 0
M  V30 5385 H 525.902 -2.0174 -2.38133 0
M  V30 5386 N 526.204 0.969867 -1.24223 0
M  V30 5387 C 527.432 1.74756 -1.10761 0
M  V30 5388 C 527.847 1.85713 0.340041 0
M  V30 5389 O 527.204 1.34389 1.23474 0
M  V30 5390 C 527.255 3.16915 -1.73917 0
M  V30 5391 O 526.976 3.06511 -3.13021 0
M  V30 5392 C 528.477 4.11032 -1.66036 0
M  V30 5393 H 525.697 0.548092 -0.387087 0
M  V30 5394 H 528.241 1.2178 -1.64286 0
M  V30 5395 H 526.396 3.66884 -1.244 0
M  V30 5396 H 526.81 3.96079 -3.43834 0
M  V30 5397 H 528.284 5.08446 -2.14911 0
M  V30 5398 H 528.761 4.34785 -0.621159 0
M  V30 5399 H 529.367 3.66972 -2.14969 0
M  V30 5400 N 527.682 1.05563 1.17022 0
M  V30 5401 C 528.645 0.664098 2.19368 0
M  V30 5402 C 529.645 -0.286358 1.5823 0
M  V30 5403 O 530.835 -0.069728 1.7406 0
M  V30 5404 C 527.967 -0.0239932 3.40892 0
M  V30 5405 H 529.16 1.57 2.55521 0
M  V30 5406 H 526.713 0.849964 1.31169 0
M  V30 5407 H 527.448 -0.942988 3.10287 0
M  V30 5408 H 527.233 0.659351 3.86516 0
M  V30 5409 H 528.723 -0.283909 4.16634 0
M  V30 5410 N 529.16 -1.33526 0.837174 0
M  V30 5411 C 530.576 -1.50727 0.524743 0
M  V30 5412 C 530.776 -1.77792 -0.948279 0
M  V30 5413 O 529.832 -1.83719 -1.73216 0
M  V30 5414 C 531.145 -2.66299 1.39661 0
M  V30 5415 C 532.693 -2.80183 1.39521 0
M  V30 5416 C 533.168 -3.98815 2.25189 0
M  V30 5417 N 534.659 -4.06047 2.2289 0
M  V30 5418 C 535.394 -4.97032 2.85915 0
M  V30 5419 N 534.89 -5.93143 3.57985 0
M  V30 5420 N 536.683 -4.90015 2.75394 0
M  V30 5421 H 528.834 -1.1422 1.79074 0
M  V30 5422 H 531.097 -0.561399 0.763894 0
M  V30 5423 H 530.803 -2.52974 2.4433 0
M  V30 5424 H 530.677 -3.61663 1.07145 0
M  V30 5425 H 533.064 -2.92942 0.356253 0
M  V30 5426 H 533.145 -1.85586 1.76044 0
M  V30 5427 H 532.789 -3.86817 3.29143 0
M  V30 5428 H 532.719 -4.92654 1.86009 0
M  V30 5429 H 535.21 -3.37262 1.70478 0
M  V30 5430 H 535.523 -6.59227 4.03286 0
M  V30 5431 H 533.868 -5.93223 3.62093 0
M  V30 5432 H 537.059 -4.13894 2.18654 0
M  V30 5433 H 537.232 -5.60724 3.24796 0
M  V30 5434 N 530.638 -0.59345 -1.46 0
M  V30 5435 C 531.568 0.121192 -2.33185 0
M  V30 5436 C 532.549 0.872977 -1.4599 0
M  V30 5437 O 533.734 0.846321 -1.74789 0
M  V30 5438 C 530.864 1.12844 -3.28456 0
M  V30 5439 C 529.818 0.4908 -4.25177 0
M  V30 5440 C 529.144 1.60529 -5.10034 0
M  V30 5441 C 530.444 -0.578949 -5.19081 0
M  V30 5442 H 532.138 -0.606767 -2.93187 0
M  V30 5443 H 529.684 -0.293242 -1.40983 0
M  V30 5444 H 531.637 1.63684 -3.88311 0
M  V30 5445 H 530.361 1.88681 -2.66584 0
M  V30 5446 H 529.02 0.00339328 -3.666 0
M  V30 5447 H 528.668 2.35359 -4.44539 0
M  V30 5448 H 528.368 1.18422 -5.75543 0
M  V30 5449 H 529.892 2.11623 -5.72755 0
M  V30 5450 H 531.306 -0.155199 -5.7309 0
M  V30 5451 H 529.703 -0.920947 -5.92991 0
M  V30 5452 H 530.773 -1.46109 -4.62364 0
M  V30 5453 N 532.116 1.54067 -0.331816 0
M  V30 5454 C 533.532 1.59587 0.0205388 0
M  V30 5455 C 533.732 1.34813 1.49759 0
M  V30 5456 O 532.788 1.13661 2.25471 0
M  V30 5457 C 534.101 2.97959 -0.405103 0
M  V30 5458 C 535.649 3.10964 -0.356454 0
M  V30 5459 C 536.124 4.51694 -0.757384 0
M  V30 5460 N 537.615 4.57709 -0.71111 0
M  V30 5461 C 538.35 5.64729 -0.993427 0
M  V30 5462 N 537.846 6.79652 -1.3433 0
M  V30 5463 N 539.639 5.54546 -0.918442 0
M  V30 5464 H 531.79 1.68426 -1.29407 0
M  V30 5465 H 534.053 0.78819 -0.526745 0
M  V30 5466 H 533.759 3.21115 -1.43451 0
M  V30 5467 H 533.633 3.76524 0.225692 0
M  V30 5468 H 536.02 2.87538 0.663763 0
M  V30 5469 H 536.101 2.34484 -1.02229 0
M  V30 5470 H 535.745 4.75853 -1.77555 0
M  V30 5471 H 535.675 5.26555 -0.0691444 0
M  V30 5472 H 538.166 3.75176 -0.452883 0
M  V30 5473 H 538.479 7.57221 -1.54388 0
M  V30 5474 H 536.824 6.81128 -1.38164 0
M  V30 5475 H 540.015 4.63641 -0.644536 0
M  V30 5476 H 540.188 6.37861 -1.14181 0
M  V30 5477 N 533.594 0.0601682 1.57485 0
M  V30 5478 C 534.524 -0.90889 2.15085 0
M  V30 5479 C 535.505 -1.31838 1.07484 0
M  V30 5480 O 536.69 -1.3915 1.35466 0
M  V30 5481 C 533.82 -2.18059 2.7031 0
M  V30 5482 C 532.774 -1.91088 3.82974 0
M  V30 5483 C 532.1 -3.24789 4.24754 0
M  V30 5484 C 533.4 -1.22535 5.07723 0
M  V30 5485 H 535.094 -0.429093 2.96309 0
M  V30 5486 H 532.64 -0.204952 1.42534 0
M  V30 5487 H 534.593 -2.86258 3.09248 0
M  V30 5488 H 533.317 -2.6826 1.8629 0
M  V30 5489 H 531.976 -1.25297 3.44523 0
M  V30 5490 H 531.624 -3.72809 3.37672 0
M  V30 5491 H 531.324 -3.07538 5.00694 0
M  V30 5492 H 532.848 -3.94205 4.66299 0
M  V30 5493 H 534.262 -1.80783 5.4405 0
M  V30 5494 H 532.659 -1.1558 5.88864 0
M  V30 5495 H 533.729 -0.202692 4.84476 0
M  V30 5496 N 535.072 -1.5615 -0.213296 0
M  V30 5497 C 536.3 -1.83638 -0.953139 0
M  V30 5498 C 536.715 -0.640362 -1.77609 0
M  V30 5499 O 536.072 0.391071 -1.78261 0
M  V30 5500 C 536.123 -3.09735 -1.86405 0
M  V30 5501 O 535.844 -4.24723 -1.07435 0
M  V30 5502 C 537.345 -3.5027 -2.71709 0
M  V30 5503 H 534.565 -0.610263 -0.278962 0
M  V30 5504 H 537.109 -2.03247 -0.226035 0
M  V30 5505 H 535.264 -2.92077 -2.545 0
M  V30 5506 H 535.678 -4.9641 -1.69343 0
M  V30 5507 H 537.152 -4.41515 -3.31313 0
M  V30 5508 H 537.629 -2.72406 -3.44516 0
M  V30 5509 H 538.235 -3.70396 -2.09015 0
M  V30 5510 N 536.55 0.480323 -1.50102 0
M  V30 5511 C 537.48 1.58769 -1.71215 0
M  V30 5512 C 538.461 1.60583 -0.560997 0
M  V30 5513 O 539.646 1.76996 -0.799127 0
M  V30 5514 C 536.776 2.97148 -1.79778 0
M  V30 5515 C 535.73 3.10201 -2.94888 0
M  V30 5516 C 535.056 4.50137 -2.88584 0
M  V30 5517 C 536.356 2.88283 -4.35534 0
M  V30 5518 H 538.05 1.41354 -2.6393 0
M  V30 5519 H 535.596 0.678591 -1.27008 0
M  V30 5520 H 537.549 3.74536 -1.93133 0
M  V30 5521 H 536.273 3.15699 -0.836772 0
M  V30 5522 H 534.932 2.35244 -2.81169 0
M  V30 5523 H 534.58 4.65593 -1.90349 0
M  V30 5524 H 534.28 4.59808 -3.65856 0
M  V30 5525 H 535.804 5.29558 -3.03976 0
M  V30 5526 H 537.218 3.55427 -4.49827 0
M  V30 5527 H 535.615 3.09408 -5.14186 0
M  V30 5528 H 536.685 1.84219 -4.48544 0
M  V30 5529 N 538.028 1.39524 0.732853 0
M  V30 5530 C 539.256 1.40143 1.52209 0
M  V30 5531 C 539.671 -0.00348836 1.888 0
M  V30 5532 O 539.028 -0.975357 1.5425 0
M  V30 5533 C 539.079 2.27632 2.8083 0
M  V30 5534 O 538.8 3.62654 2.45792 0
M  V30 5535 C 540.301 2.36658 3.74844 0
M  V30 5536 H 537.521 0.478604 0.470297 0
M  V30 5537 H 540.065 1.83366 0.905388 0
M  V30 5538 H 538.22 1.87818 3.38826 0
M  V30 5539 H 538.634 4.08941 3.28431 0
M  V30 5540 H 540.108 3.02118 4.61984 0
M  V30 5541 H 540.585 1.38638 4.16745 0
M  V30 5542 H 541.191 2.76951 3.22766 0
M  V30 5543 N 539.506 -0.963266 1.24736 0
M  V30 5544 C 540.469 -2.04013 1.04457 0
M  V30 5545 C 541.469 -1.608 0.000335555 0
M  V30 5546 O 542.659 -1.72515 0.241719 0
M  V30 5547 C 539.791 -3.35858 0.584162 0
M  V30 5548 H 540.984 -2.23436 2.00041 0
M  V30 5549 H 538.537 -1.13914 1.07021 0
M  V30 5550 H 539.272 -3.22128 -0.374673 0
M  V30 5551 H 539.057 -3.68568 1.3379 0
M  V30 5552 H 540.547 -4.1502 0.463451 0
M  V30 5553 N 540.985 -1.06182 -1.16461 0
M  V30 5554 C 541.948 -0.675723 -2.19013 0
M  V30 5555 C 542.948 0.277963 -1.58379 0
M  V30 5556 O 544.138 0.0604962 -1.74095 0
M  V30 5557 C 541.27 0.00591459 -3.40899 0
M  V30 5558 H 542.463 -1.58353 -2.54685 0
M  V30 5559 H 540.016 -0.856908 -1.30716 0
M  V30 5560 H 540.751 0.92652 -3.10783 0
M  V30 5561 H 540.536 -0.67984 -3.86161 0
M  V30 5562 H 542.026 0.26181 -4.16778 0
M  V30 5563 N 542.463 1.3308 -0.844243 0
M  V30 5564 C 543.413 2.26589 -0.253289 0
M  V30 5565 C 544.397 1.49501 0.594836 0
M  V30 5566 O 545.589 1.71291 0.445924 0
M  V30 5567 C 542.718 3.38599 0.566176 0
M  V30 5568 C 541.804 4.23081 -0.293756 0
M  V30 5569 N 542.195 4.86751 -1.37505 0
M  V30 5570 C 540.493 4.45925 -0.0817086 0
M  V30 5571 C 541.194 5.49684 -1.90323 0
M  V30 5572 N 540.17 5.30101 -1.20391 0
M  V30 5573 H 543.972 2.73334 -1.08009 0
M  V30 5574 H 541.486 1.47048 -0.689258 0
M  V30 5575 H 543.483 4.04584 1.00587 0
M  V30 5576 H 542.143 2.93401 1.39089 0
M  V30 5577 H 543.154 4.87151 -1.75796 0
M  V30 5578 H 539.831 4.11434 0.709129 0
M  V30 5579 H 541.221 6.10363 -2.80902 0
M  V30 5580 N 543.941 0.601185 1.45683 0
M  V30 5581 C 544.851 -0.123395 2.34275 0
M  V30 5582 C 545.867 -0.86702 1.5086 0
M  V30 5583 O 547.043 -0.826049 1.8368 0
M  V30 5584 C 544.108 -1.11237 3.2837 0
M  V30 5585 C 543.169 -0.371405 4.2769 0
M  V30 5586 C 542.402 -1.31327 5.1729 0
M  V30 5587 O 542.625 -2.55078 5.10188 0
M  V30 5588 O 541.559 -0.813811 5.96373 0
M  V30 5589 H 545.385 0.604483 2.97623 0
M  V30 5590 H 542.97 0.361477 1.44961 0
M  V30 5591 H 544.852 -1.68214 3.8637 0
M  V30 5592 H 543.527 -1.82139 2.67595 0
M  V30 5593 H 542.434 0.24067 3.73325 0
M  V30 5594 H 543.767 0.296998 4.91303 0
M  V30 5595 N 545.419 -1.53889 0.339982 0
M  V30 5596 C 546.352 -2.21187 -0.561405 0
M  V30 5597 C 547.33 -1.19463 -1.10306 0
M  V30 5598 O 548.514 -1.48268 -1.164 0
M  V30 5599 C 545.641 -2.8865 -1.77198 0
M  V30 5600 C 544.687 -4.04232 -1.3601 0
M  V30 5601 S 545.52 -5.34129 -0.382909 0
M  V30 5602 C 546.676 -6.05094 -1.60039 0
M  V30 5603 H 546.909 -2.97298 0.0102092 0
M  V30 5604 H 544.442 -1.53901 0.124056 0
M  V30 5605 H 546.4 -3.28138 -2.4665 0
M  V30 5606 H 545.061 -2.12311 -2.3148 0
M  V30 5607 H 544.254 -4.50358 -2.2626 0
M  V30 5608 H 543.856 -3.66503 -0.745098 0
M  V30 5609 H 546.148 -6.2827 -2.53541 0
M  V30 5610 H 547.091 -6.98182 -1.18099 0
M  V30 5611 H 547.499 -5.35207 -1.79483 0
M  V30 5612 N 546.897 -0.0685191 -1.57451 0
M  V30 5613 C 547.829 0.929372 -2.09512 0
M  V30 5614 C 548.842 1.26354 -1.02657 0
M  V30 5615 O 550.031 1.2213 -1.30179 0
M  V30 5616 C 547.131 2.24612 -2.53777 0
M  V30 5617 C 546.304 2.09128 -3.84167 0
M  V30 5618 C 545.363 3.24079 -4.14559 0
M  V30 5619 O 544.389 2.99215 -4.8421 0
M  V30 5620 N 545.591 4.49077 -3.67845 0
M  V30 5621 H 548.356 0.484901 -2.95751 0
M  V30 5622 H 545.917 0.11729 -1.61475 0
M  V30 5623 H 547.909 3.00412 -2.71172 0
M  V30 5624 H 546.479 2.60569 -1.72692 0
M  V30 5625 H 545.699 1.17815 -3.76182 0
M  V30 5626 H 546.987 1.9603 -4.69521 0
M  V30 5627 H 546.385 4.72165 -3.11571 0
M  V30 5628 H 544.942 5.21915 -3.90446 0
M  V30 5629 N 548.375 1.56261 0.205012 0
M  V30 5630 C 549.652 1.70856 0.952233 0
M  V30 5631 C 550.032 0.620501 2.01775 0
M  V30 5632 O 549.38 -0.370035 2.25484 0
M  V30 5633 C 549.59 3.12807 1.54767 0
M  V30 5634 C 550.938 3.72733 2.0336 0
M  V30 5635 O 551.962 3.15873 1.64629 0
M  V30 5636 O 550.821 4.72501 2.746 0
M  V30 5637 H 547.915 0.696496 0.445895 0
M  V30 5638 H 550.461 1.6857 0.195489 0
M  V30 5639 H 549.233 3.83465 0.779132 0
M  V30 5640 H 548.856 3.1928 2.36951 0
M  V30 5641 N 549.853 -0.472356 1.50355 0
M  V30 5642 C 551.102 -1.2213 1.60522 0
M  V30 5643 C 551.415 -1.9312 0.310466 0
M  V30 5644 O 552.621 -2.69936 0.291029 0
M  V30 5645 C 551.077 -2.21909 2.83345 0
M  V30 5646 C 550.685 -1.56727 4.19691 0
M  V30 5647 C 552.429 -2.97453 3.02856 0
M  V30 5648 C 550.336 -2.54785 5.33703 0
M  V30 5649 H 549.266 -0.459543 0.597776 0
M  V30 5650 H 551.917 -0.491922 1.76783 0
M  V30 5651 H 550.299 -2.98133 2.60639 0
M  V30 5652 H 551.473 -0.863007 4.52646 0
M  V30 5653 H 549.788 -0.934685 4.05774 0
M  V30 5654 H 552.385 -3.70838 3.85205 0
M  V30 5655 H 552.728 -3.56764 2.14534 0
M  V30 5656 H 553.261 -2.28342 3.25737 0
M  V30 5657 H 550 -2.00214 6.24175 0
M  V30 5658 H 549.52 -3.23367 5.05167 0
M  V30 5659 H 551.199 -3.16639 5.64224 0
M  V30 5660 N 551.331 -1.39911 -0.725443 0
M  V30 5661 C 552.608 -1.28158 -1.47766 0
M  V30 5662 C 552.988 0.104545 -2.10841 0
M  V30 5663 O 552.336 1.11657 -1.99361 0
M  V30 5664 C 552.546 -2.41306 -2.52135 0
M  V30 5665 C 553.894 -2.81076 -3.18247 0
M  V30 5666 O 554.918 -2.40827 -2.62452 0
M  V30 5667 O 553.777 -3.50581 -4.19231 0
M  V30 5668 H 550.871 -0.502761 -0.656628 0
M  V30 5669 H 553.417 -1.51808 -0.758456 0
M  V30 5670 H 552.189 -3.33932 -2.03974 0
M  V30 5671 H 551.812 -2.19374 -3.31603 0
M  V30 5672 N 552.809 0.956637 -1.25245 0
M  V30 5673 C 554.225 1.22733 -1.02023 0
M  V30 5674 C 554.425 1.99761 0.264186 0
M  V30 5675 O 553.481 2.32814 0.977436 0
M  V30 5676 C 554.794 2.00367 -2.24217 0
M  V30 5677 C 556.342 2.13418 -2.28958 0
M  V30 5678 C 556.817 2.9445 -3.50803 0
M  V30 5679 N 558.308 3.02029 -3.51187 0
M  V30 5680 C 559.043 3.65116 -4.42129 0
M  V30 5681 N 558.539 4.2983 -5.43339 0
M  V30 5682 N 560.332 3.62237 -4.29815 0
M  V30 5683 H 552.483 0.441282 -2.07765 0
M  V30 5684 H 554.746 0.257686 -0.912306 0
M  V30 5685 H 554.452 1.51165 -3.17556 0
M  V30 5686 H 554.326 3.01077 -2.27228 0
M  V30 5687 H 556.713 2.61819 -1.36143 0
M  V30 5688 H 556.794 1.1202 -2.29968 0
M  V30 5689 H 556.438 2.46741 -4.43939 0
M  V30 5690 H 556.368 3.9607 -3.47039 0
M  V30 5691 H 558.859 2.56007 -2.77973 0
M  V30 5692 H 559.172 4.75819 -6.08947 0
M  V30 5693 H 557.517 4.28465 -5.47214 0
M  V30 5694 H 560.708 3.10863 -3.49974 0
M  V30 5695 H 560.881 4.11117 -5.00886 0
M  V30 5696 N 554.287 1.06798 1.15896 0
M  V30 5697 C 555.217 0.704677 2.22613 0
M  V30 5698 C 556.198 -0.305252 1.67339 0
M  V30 5699 O 557.383 -0.179247 1.93371 0
M  V30 5700 C 554.513 0.0957325 3.47168 0
M  V30 5701 C 553.467 1.0322 4.15367 0
M  V30 5702 C 552.793 0.286293 5.33933 0
M  V30 5703 C 554.093 2.36341 4.65768 0
M  V30 5704 H 555.787 1.59688 2.53259 0
M  V30 5705 H 553.333 0.769257 1.21731 0
M  V30 5706 H 555.286 -0.170333 4.21056 0
M  V30 5707 H 554.01 -0.831516 3.15838 0
M  V30 5708 H 552.669 1.28309 3.43413 0
M  V30 5709 H 552.317 -0.644237 4.98857 0
M  V30 5710 H 552.017 0.910436 5.80504 0
M  V30 5711 H 553.541 0.0278938 6.10594 0
M  V30 5712 H 554.955 2.1561 5.31211 0
M  V30 5713 H 553.352 2.94299 5.2298 0
M  V30 5714 H 554.422 2.99047 3.81705 0
M  V30 5715 N 555.766 -1.3263 0.851289 0
M  V30 5716 C 556.696 -2.31449 0.308771 0
M  V30 5717 C 557.677 -1.59531 -0.590255 0
M  V30 5718 O 558.862 -1.87351 -0.511205 0
M  V30 5719 C 555.992 -3.43586 -0.506548 0
M  V30 5720 C 554.946 -4.26963 0.297753 0
M  V30 5721 C 554.272 -5.30831 -0.642094 0
M  V30 5722 C 555.572 -4.99643 1.52166 0
M  V30 5723 H 557.266 -2.77074 1.13447 0
M  V30 5724 H 554.812 -1.33207 0.546971 0
M  V30 5725 H 556.765 -4.11754 -0.896474 0
M  V30 5726 H 555.489 -2.96681 -1.36558 0
M  V30 5727 H 554.148 -3.60437 0.669391 0
M  V30 5728 H 553.796 -4.8018 -1.49788 0
M  V30 5729 H 553.496 -5.87501 -0.107968 0
M  V30 5730 H 555.02 -6.01862 -1.02927 0
M  V30 5731 H 556.434 -5.6051 1.20421 0
M  V30 5732 H 554.831 -5.66022 1.99347 0
M  V30 5733 H 555.901 -4.27701 2.28474 0
M  V30 5734 N 557.244 -0.608902 -1.45362 0
M  V30 5735 C 558.154 0.110969 -2.34337 0
M  V30 5736 C 559.17 0.859007 -1.51318 0
M  V30 5737 O 560.346 0.816296 -1.84116 0
M  V30 5738 C 557.411 1.09494 -3.28956 0
M  V30 5739 C 556.472 0.348718 -4.27881 0
M  V30 5740 C 555.705 1.28582 -5.17979 0
M  V30 5741 O 555.928 2.52369 -5.11533 0
M  V30 5742 O 554.862 0.782172 -5.96796 0
M  V30 5743 H 558.688 -0.620258 -2.97299 0
M  V30 5744 H 556.273 -0.36916 -1.44767 0
M  V30 5745 H 558.155 1.66163 -3.87257 0
M  V30 5746 H 556.83 1.80717 -2.68557 0
M  V30 5747 H 555.737 -0.260465 -3.73192 0
M  V30 5748 H 557.07 -0.323049 -4.91139 0
M  V30 5749 N 558.722 1.53707 -0.348139 0
M  V30 5750 C 559.968 2.01286 0.247332 0
M  V30 5751 C 560.301 1.23546 1.49834 0
M  V30 5752 O 559.576 0.324331 1.91777 0
M  V30 5753 C 559.859 3.55768 0.556858 0
M  V30 5754 C 559.712 4.44216 -0.706564 0
M  V30 5755 C 561.031 4.1841 1.3646 0
M  V30 5756 H 558.15 0.731677 0.0884201 0
M  V30 5757 H 560.792 1.84106 -0.469584 0
M  V30 5758 H 558.942 3.70539 1.16761 0
M  V30 5759 H 560.614 4.41274 -1.34444 0
M  V30 5760 H 558.857 4.12892 -1.33052 0
M  V30 5761 H 559.528 5.50202 -0.445186 0
M  V30 5762 H 562.004 4.07365 0.848113 0
M  V30 5763 H 560.88 5.26563 1.54992 0
M  V30 5764 H 561.141 3.7333 2.36805 0
M  V30 5765 N 560.2 0.0768682 1.57412 0
M  V30 5766 C 561.13 -0.886026 2.16037 0
M  V30 5767 C 562.111 -1.30691 1.08876 0
M  V30 5768 O 563.296 -1.37705 1.36934 0
M  V30 5769 C 560.426 -2.1518 2.72608 0
M  V30 5770 C 559.38 -1.87015 3.8498 0
M  V30 5771 C 558.706 -3.20266 4.28175 0
M  V30 5772 C 560.006 -1.17143 5.08994 0
M  V30 5773 H 561.7 -0.397642 2.96748 0
M  V30 5774 H 559.246 -0.189823 1.42743 0
M  V30 5775 H 561.199 -2.82962 3.12266 0
M  V30 5776 H 559.923 -2.66269 1.89125 0
M  V30 5777 H 558.582 -1.21636 3.45833 0
M  V30 5778 H 558.23 -3.69207 3.41607 0
M  V30 5779 H 557.93 -3.0221 5.03927 0
M  V30 5780 H 559.454 -3.89237 4.70454 0
M  V30 5781 H 560.868 -1.75003 5.45937 0
M  V30 5782 H 559.265 -1.09328 5.90057 0
M  V30 5783 H 560.335 -0.151295 4.84664 0
M  V30 5784 N 561.678 -1.56367 -0.196722 0
M  V30 5785 C 562.628 -1.9082 -1.24787 0
M  V30 5786 C 563.612 -0.773719 -1.41076 0
M  V30 5787 O 564.804 -1.03655 -1.43474 0
M  V30 5788 C 561.933 -2.24982 -2.59303 0
M  V30 5789 C 561.019 -3.44882 -2.46814 0
M  V30 5790 N 561.41 -4.62835 -2.04003 0
M  V30 5791 C 559.708 -3.48988 -2.77711 0
M  V30 5792 C 560.409 -5.44993 -2.03366 0
M  V30 5793 N 559.385 -4.85356 -2.44807 0
M  V30 5794 H 563.187 -2.79516 -0.908175 0
M  V30 5795 H 560.701 -1.57265 -0.405166 0
M  V30 5796 H 562.698 -2.47848 -3.35227 0
M  V30 5797 H 561.358 -1.37611 -2.94098 0
M  V30 5798 H 562.369 -4.87532 -1.74738 0
M  V30 5799 H 559.046 -2.72029 -3.16712 0
M  V30 5800 H 560.436 -6.49464 -1.72181 0
M  V30 5801 N 563.156 0.464375 -1.50603 0
M  V30 5802 C 564.404 1.21356 -1.61608 0
M  V30 5803 C 564.725 1.92329 -0.321643 0
M  V30 5804 O 563.995 1.84403 0.661232 0
M  V30 5805 H 562.575 0.45094 -0.595535 0
M  V30 5806 H 565.237 0.535046 -1.87412 0
M  V30 5807 H 564.333 1.95783 -2.43054 0
M  V30 5808 N 564.634 1.40294 0.718013 0
M  V30 5809 C 565.582 1.40536 1.85344 0
M  V30 5810 C 566.576 0.286192 1.66965 0
M  V30 5811 O 567.782 0.457105 1.74099 0
M  V30 5812 H 564.157 0.439236 0.61039 0
M  V30 5813 H 566.128 2.36275 1.82255 0
M  V30 5814 C 564.877 1.28245 3.23185 0
M  V30 5815 H 564.2 2.1364 3.37932 0
M  V30 5816 H 565.64 1.32474 4.02774 0
M  V30 5817 C 564.099 -0.0075503 3.36899 0
M  V30 5818 O 564.629 -0.971391 3.89778 0
M  V30 5819 N 562.835 -0.0762479 2.905 0
M  V30 5820 H 562.382 0.708819 2.47656 0
M  V30 5821 H 562.34 -0.938846 3.00055 0
M  V30 5822 N 566.112 -0.949982 1.2575 0
M  V30 5823 C 567.36 -1.6918 1.10555 0
M  V30 5824 C 567.681 -1.91773 -0.353298 0
M  V30 5825 O 566.951 -1.50814 -1.25027 0
M  V30 5826 H 565.531 -0.626952 0.406129 0
M  V30 5827 H 568.193 -1.1419 1.57945 0
M  V30 5828 H 567.289 -2.66915 1.61749 0
M  V30 5829 O 567.629 -1.19786 -1.08322 0
M  V30 5830 H 568.32 -0.948322 -1.68898 0
M  V30 END ATOM
M  V30 BEGIN BOND
M  V30 END BOND
M  V30 END CTAB
M  END
$$$$
