drugbank_target|P78368 Casein kinase I isoform gamma-2 (DB03083; DB03693; DB04604)
 OpenBabel12092120303D

  0  0  0     0  0            999 V3000
M  V30 BEGIN CTAB
M  V30 COUNTS 6671 6750 0 0 0
M  V30 BEGIN ATOM
M  V30 1 H -0.908 1.98254 -0.117106 0
M  V30 2 N 0 1.576 0 0
M  V30 3 C 0.933 2.03868 1.02534 0
M  V30 4 C 1.911 0.928543 1.3348 0
M  V30 5 O 3.095 1.19667 1.45644 0
M  V30 6 C 0.222 2.43627 2.35294 0
M  V30 7 C -0.732 3.65373 2.2001 0
M  V30 8 S 0.101 5.13292 1.52614 0
M  V30 9 C 1.257 5.56322 2.86805 0
M  V30 10 H 1.49 2.90518 0.631377 0
M  V30 11 H -0.977 1.52953 0.210867 0
M  V30 12 H 0.981 2.67203 3.11629 0
M  V30 13 H -0.358 1.57376 2.7183 0
M  V30 14 H -1.165 3.90944 3.18086 0
M  V30 15 H -1.563 3.418 1.51819 0
M  V30 16 H 0.729 5.58782 3.83104 0
M  V30 17 H 1.672 6.56266 2.65933 0
M  V30 18 H 2.08 4.83886 2.90714 0
M  V30 19 N 1.4781 -0.272755 1.55222 0
M  V30 20 C 2.7551 -1.02562 1.66555 0
M  V30 21 C 3.1351 -2.04282 0.532189 0
M  V30 22 O 2.4831 -2.23662 -0.467717 0
M  V30 23 C 2.6931 -1.6822 3.05782 0
M  V30 24 C 4.0411 -2.19373 3.63539 0
M  V30 25 O 5.0651 -1.78206 3.08417 0
M  V30 26 O 3.9241 -2.94883 4.60115 0
M  V30 27 H 1.0181 -0.475755 0.676451 0
M  V30 28 H 3.5641 -0.268593 1.67561 0
M  V30 29 H 2.3361 -0.945112 3.79715 0
M  V30 30 H 1.9591 -2.50609 3.08676 0
M  V30 31 N 2.9562 -1.48159 -0.537278 0
M  V30 32 C 4.2032 -1.55804 -1.29349 0
M  V30 33 C 4.5312 -0.228802 -1.9315 0
M  V30 34 O 3.7862 0.780242 -1.79473 0
M  V30 35 C 4.0852 -2.63956 -2.40961 0
M  V30 36 C 3.7512 -4.0662 -1.94861 0
M  V30 37 C 2.4132 -4.45452 -1.82006 0
M  V30 38 C 4.7652 -4.96055 -1.59933 0
M  V30 39 C 2.0932 -5.71531 -1.32547 0
M  V30 40 C 4.4452 -6.22617 -1.11939 0
M  V30 41 C 3.1092 -6.60312 -0.976951 0
M  V30 42 H 2.3792 -0.570129 -0.473322 0
M  V30 43 H 5.0262 -1.81845 -0.600372 0
M  V30 44 H 3.3312 -2.31747 -3.15912 0
M  V30 45 H 5.0282 -2.67089 -2.99107 0
M  V30 46 H 1.6182 -3.75949 -2.05815 0
M  V30 47 H 5.8022 -4.66738 -1.68728 0
M  V30 48 H 1.0582 -5.99468 -1.202 0
M  V30 49 H 5.2322 -6.91318 -0.839811 0
M  V30 50 H 2.8592 -7.57895 -0.591501 0
M  V30 51 N 4.4343 0.785586 -1.36625 0
M  V30 52 C 5.7113 1.53198 -1.21613 0
M  V30 53 C 6.0913 2.10187 0.196113 0
M  V30 54 O 5.4393 1.94318 1.20219 0
M  V30 55 C 5.6493 2.62388 -2.30116 0
M  V30 56 C 6.9973 3.30167 -2.66974 0
M  V30 57 O 8.0213 2.72674 -2.29188 0
M  V30 58 O 6.8803 4.34077 -3.32023 0
M  V30 59 H 3.9743 0.677865 -0.473738 0
M  V30 60 H 6.5203 0.823739 -1.48367 0
M  V30 61 H 5.2923 2.18299 -3.24748 0
M  V30 62 H 4.9153 3.40827 -2.0475 0
M  V30 63 N 5.9124 1.20967 1.01018 0
M  V30 64 C 6.8594 0.964281 2.09691 0
M  V30 65 C 7.8294 -0.107853 1.65749 0
M  V30 66 O 9.0144 0.0381987 1.90762 0
M  V30 67 C 6.1544 0.52943 3.41015 0
M  V30 68 C 5.2674 1.67043 3.98398 0
M  V30 69 C 4.4024 1.18525 5.17808 0
M  V30 70 C 3.4414 2.29892 5.67288 0
M  V30 71 N 2.5784 1.82546 6.77954 0
M  V30 72 H 7.4184 1.89463 2.30017 0
M  V30 73 H 4.9554 0.944289 1.1279 0
M  V30 74 H 6.9134 0.258588 4.16398 0
M  V30 75 H 5.5434 -0.363919 3.20742 0
M  V30 76 H 4.5954 2.05603 3.20049 0
M  V30 77 H 5.9074 2.50877 4.31117 0
M  V30 78 H 5.0614 0.870762 6.00419 0
M  V30 79 H 3.8004 0.316887 4.86669 0
M  V30 80 H 2.8054 2.6215 4.83278 0
M  V30 81 H 4.0304 3.17216 6.00459 0
M  V30 82 H 1.9764 0.980454 6.48632 0
M  V30 83 H 1.8934 2.59956 7.09901 0
M  V30 84 H 3.1614 1.54115 7.64113 0
M  V30 85 N 7.3905 -1.2043 1.01659 0
M  V30 86 C 8.3375 -2.23215 0.586822 0
M  V30 87 C 9.3075 -1.61382 -0.393085 0
M  V30 88 O 10.4925 -1.88544 -0.292525 0
M  V30 89 C 7.6325 -3.45032 -0.0687464 0
M  V30 90 C 6.7455 -4.21296 0.955724 0
M  V30 91 C 5.8805 -5.30507 0.271208 0
M  V30 92 C 4.9195 -5.98515 1.28244 0
M  V30 93 N 4.0565 -6.99316 0.62459 0
M  V30 94 H 8.8965 -2.59336 1.46796 0
M  V30 95 H 6.4335 -1.27431 0.734836 0
M  V30 96 H 8.3915 -4.1459 -0.465965 0
M  V30 97 H 7.0215 -3.09604 -0.913529 0
M  V30 98 H 6.0735 -3.50803 1.4711 0
M  V30 99 H 7.3855 -4.6803 1.72479 0
M  V30 100 H 6.5395 -6.06428 -0.18151 0
M  V30 101 H 5.2785 -4.8481 -0.530163 0
M  V30 102 H 4.2835 -5.21355 1.74554 0
M  V30 103 H 5.5085 -6.46298 2.08509 0
M  V30 104 H 3.4545 -6.55812 -0.156914 0
M  V30 105 H 3.3715 -7.44178 1.33172 0
M  V30 106 H 4.6395 -7.79255 0.195462 0
M  V30 107 N 8.8686 -0.792821 -1.36206 0
M  V30 108 C 10.1166 -0.366062 -1.98757 0
M  V30 109 C 10.4376 1.0668 -1.63231 0
M  V30 110 O 9.7076 1.73587 -0.907978 0
M  V30 111 H 8.2876 -0.132364 -0.735179 0
M  V30 112 H 10.9496 -1.01562 -1.66347 0
M  V30 113 H 10.0456 -0.460638 -3.08682 0
M  V30 114 N 10.3467 1.47872 -0.545128 0
M  V30 115 C 11.5947 2.02093 -0.016553 0
M  V30 116 C 11.9157 1.42305 1.3332 0
M  V30 117 O 11.1857 0.593853 1.86682 0
M  V30 118 H 9.7657 0.746993 -0.00313038 0
M  V30 119 H 12.4277 1.81414 -0.712397 0
M  V30 120 H 11.5237 3.11996 0.0805422 0
M  V30 121 N 11.8248 0.280983 1.55075 0
M  V30 122 C 12.7718 -0.603937 2.22758 0
M  V30 123 C 13.7418 -1.1452 1.20309 0
M  V30 124 O 14.9268 -1.19343 1.48869 0
M  V30 125 C 12.0668 -1.77947 2.95684 0
M  V30 126 C 11.1798 -1.2715 4.12864 0
M  V30 127 C 10.3148 -2.4093 4.7342 0
M  V30 128 C 9.3538 -1.87165 5.82783 0
M  V30 129 N 8.4908 -2.94441 6.37377 0
M  V30 130 H 13.3308 -0.020124 2.97993 0
M  V30 131 H 10.8678 0.00183425 1.471 0
M  V30 132 H 12.8258 -2.47055 3.36184 0
M  V30 133 H 11.4558 -2.33522 2.22861 0
M  V30 134 H 10.5078 -0.473331 3.77444 0
M  V30 135 H 11.8198 -0.837751 4.91715 0
M  V30 136 H 10.9738 -3.18021 5.1667 0
M  V30 137 H 9.7128 -2.87623 3.93859 0
M  V30 138 H 8.7178 -1.08556 5.38976 0
M  V30 139 H 9.9428 -1.41401 6.64216 0
M  V30 140 H 7.8888 -3.40505 5.60707 0
M  V30 141 H 7.8058 -2.55501 7.11516 0
M  V30 142 H 9.0738 -3.71489 6.85285 0
M  V30 143 N 13.3029 -1.57598 0.00835791 0
M  V30 144 C 14.5509 -1.90551 -0.6734 0
M  V30 145 C 14.8719 -0.883301 -1.73847 0
M  V30 146 O 14.1419 0.0781442 -1.95744 0
M  V30 147 H 12.7219 -0.703312 -0.251717 0
M  V30 148 H 15.3839 -1.94833 0.0512592 0
M  V30 149 H 14.4799 -2.9056 -1.13935 0
M  V30 150 N 14.781 0.264519 -1.55364 0
M  V30 151 C 15.691 1.34902 -1.91934 0
M  V30 152 C 16.707 1.53595 -0.817593 0
M  V30 153 O 17.883 1.67558 -1.11742 0
M  V30 154 C 14.948 2.68676 -2.19121 0
M  V30 155 C 14.009 2.58657 -3.4263 0
M  V30 156 C 13.242 3.86051 -3.68511 0
M  V30 157 O 13.465 4.87126 -2.96757 0
M  V30 158 O 12.399 3.85744 -4.62045 0
M  V30 159 H 16.225 1.06883 -2.8427 0
M  V30 160 H 13.81 0.463775 -1.42019 0
M  V30 161 H 15.692 3.47759 -2.37995 0
M  V30 162 H 14.367 2.96463 -1.29966 0
M  V30 163 H 13.274 1.7792 -3.29082 0
M  V30 164 H 14.607 2.35818 -4.32031 0
M  V30 165 N 16.2591 1.48442 0.529413 0
M  V30 166 C 17.4871 1.60151 1.30994 0
M  V30 167 C 17.9021 0.261985 1.86973 0
M  V30 168 O 17.2591 -0.748805 1.66431 0
M  V30 169 C 17.3101 2.64854 2.46038 0
M  V30 170 O 17.0311 3.93608 1.92365 0
M  V30 171 C 18.5321 2.87007 3.37849 0
M  V30 172 H 15.7521 0.539971 0.398338 0
M  V30 173 H 18.2961 1.94273 0.638597 0
M  V30 174 H 16.4511 2.33589 3.09055 0
M  V30 175 H 16.8651 4.51055 2.67675 0
M  V30 176 H 18.3391 3.64068 4.14919 0
M  V30 177 H 18.8161 1.95852 3.93114 0
M  V30 178 H 19.4221 3.19579 2.80623 0
M  V30 179 N 17.7372 -0.778329 1.37039 0
M  V30 180 C 18.6472 -1.92253 1.34446 0
M  V30 181 C 19.6632 -1.72267 0.244991 0
M  V30 182 O 20.8392 -1.95615 0.479258 0
M  V30 183 C 17.9042 -3.27282 1.144 0
M  V30 184 C 16.9652 -3.59969 2.33925 0
M  V30 185 C 16.1982 -4.88555 2.14825 0
M  V30 186 O 16.4212 -5.59113 1.12912 0
M  V30 187 O 15.3552 -5.20153 3.02861 0
M  V30 188 H 19.1812 -1.97392 2.30803 0
M  V30 189 H 16.7662 -0.920154 1.17701 0
M  V30 190 H 18.6482 -4.08062 1.05182 0
M  V30 191 H 17.3232 -3.23011 0.211124 0
M  V30 192 H 16.2302 -2.7945 2.48714 0
M  V30 193 H 17.5632 -3.68976 3.25757 0
M  V30 194 N 19.2153 -1.21501 -1.00376 0
M  V30 195 C 20.1253 -0.991447 -2.12621 0
M  V30 196 C 21.1413 0.0568446 -1.73907 0
M  V30 197 O 22.3173 -0.13348 -2.00957 0
M  V30 198 C 19.3823 -0.560312 -3.42142 0
M  V30 199 C 18.4433 -1.68096 -3.95022 0
M  V30 200 C 17.6763 -1.2703 -5.18362 0
M  V30 201 O 17.8993 -0.144438 -5.70217 0
M  V30 202 O 16.8333 -2.08269 -5.64719 0
M  V30 203 H 20.6593 -1.93158 -2.34358 0
M  V30 204 H 18.2443 -0.999999 -1.10997 0
M  V30 205 H 20.1263 -0.329724 -4.20108 0
M  V30 206 H 18.8013 0.351089 -3.2179 0
M  V30 207 H 17.7083 -1.96597 -3.18278 0
M  V30 208 H 19.0413 -2.56983 -4.19786 0
M  V30 209 N 20.6934 1.19889 -1.02296 0
M  V30 210 C 21.9414 1.89046 -0.714558 0
M  V30 211 C 22.2624 1.79636 0.758681 0
M  V30 212 O 21.5324 1.20292 1.54618 0
M  V30 213 H 20.1124 0.699802 -0.261317 0
M  V30 214 H 22.7744 1.45574 -1.29592 0
M  V30 215 H 21.8704 2.95524 -1.0036 0
M  V30 216 N 22.1715 0.800033 1.35784 0
M  V30 217 C 23.5875 0.482977 1.52117 0
M  V30 218 C 23.7875 -0.996948 1.75109 0
M  V30 219 O 22.8435 -1.78216 1.78872 0
M  V30 220 C 24.1565 1.32264 2.70049 0
M  V30 221 C 25.7045 1.31742 2.83924 0
M  V30 222 C 26.1795 2.14106 4.04874 0
M  V30 223 N 27.6705 2.11607 4.12039 0
M  V30 224 C 28.4055 2.72099 5.04727 0
M  V30 225 N 27.9015 3.41492 6.02789 0
M  V30 226 N 29.6945 2.61776 4.97423 0
M  V30 227 H 21.8455 1.75856 1.19115 0
M  V30 228 H 24.1085 0.748122 0.582252 0
M  V30 229 H 23.8145 2.37261 2.59616 0
M  V30 230 H 23.6885 0.971303 3.6448 0
M  V30 231 H 26.0755 0.275333 2.93813 0
M  V30 232 H 26.1565 1.70859 1.9037 0
M  V30 233 H 25.8005 3.18351 3.95746 0
M  V30 234 H 25.7305 1.72353 4.97596 0
M  V30 235 H 28.2215 1.61112 3.41835 0
M  V30 236 H 28.5345 3.84953 6.70098 0
M  V30 237 H 26.8795 3.45596 6.02983 0
M  V30 238 H 30.0705 2.07157 4.19766 0
M  V30 239 H 30.2435 3.0921 5.69468 0
M  V30 240 N 23.6496 -1.47581 0.552962 0
M  V30 241 C 25.0656 -1.5818 0.212424 0
M  V30 242 C 25.2656 -1.55213 -1.28496 0
M  V30 243 O 24.3216 -1.45329 -2.06484 0
M  V30 244 C 25.6346 -2.88865 0.835318 0
M  V30 245 C 27.1826 -3.0244 0.806156 0
M  V30 246 C 27.6576 -4.35819 1.40804 0
M  V30 247 N 29.1486 -4.42444 1.37103 0
M  V30 248 C 29.8836 -5.44202 1.80641 0
M  V30 249 N 29.3796 -6.52795 2.32015 0
M  V30 250 N 31.1726 -5.35222 1.71738 0
M  V30 251 H 23.3236 -1.47753 1.52587 0
M  V30 252 H 25.5866 -0.702941 0.636064 0
M  V30 253 H 25.2926 -2.9676 1.88749 0
M  V30 254 H 25.1666 -3.7579 0.325848 0
M  V30 255 H 27.5536 -2.94144 -0.237317 0
M  V30 256 H 27.6346 -2.17068 1.35334 0
M  V30 257 H 27.2786 -4.44871 2.45056 0
M  V30 258 H 27.2086 -5.19916 0.836338 0
M  V30 259 H 29.6996 -3.6456 0.995202 0
M  V30 260 H 30.0126 -7.26609 2.63171 0
M  V30 261 H 28.3576 -6.53696 2.36023 0
M  V30 262 H 31.5486 -4.49284 1.31382 0
M  V30 263 H 31.7216 -6.14389 2.05987 0
M  V30 264 N 25.1277 -0.289203 -1.54924 0
M  V30 265 C 26.0607 0.633823 -2.19221 0
M  V30 266 C 27.0387 1.14174 -1.15772 0
M  V30 267 O 28.2227 1.21211 -1.44361 0
M  V30 268 C 25.3497 1.86592 -2.82668 0
M  V30 269 C 24.3957 1.49227 -3.99542 0
M  V30 270 S 25.2287 0.558312 -5.32582 0
M  V30 271 C 26.3847 1.79847 -5.99505 0
M  V30 272 H 26.6177 0.0875416 -2.97171 0
M  V30 273 H 24.1507 -0.0733899 -1.54225 0
M  V30 274 H 26.1087 2.57305 -3.19851 0
M  V30 275 H 24.7697 2.38335 -2.04585 0
M  V30 276 H 23.9627 2.40945 -4.42676 0
M  V30 277 H 23.5647 0.865193 -3.63855 0
M  V30 278 H 25.8567 2.7406 -6.19595 0
M  V30 279 H 26.7997 1.4099 -6.93922 0
M  V30 280 H 27.2077 1.96982 -5.29016 0
M  V30 281 N 26.6058 1.57591 -0.0167156 0
M  V30 282 C 27.8308 1.9598 0.67872 0
M  V30 283 C 28.2558 0.892546 1.65575 0
M  V30 284 O 27.6138 -0.147772 1.80697 0
M  V30 285 C 27.6618 3.33468 1.37227 0
M  V30 286 O 26.7658 3.28954 2.48722 0
M  V30 287 H 26.1068 0.639339 0.17928 0
M  V30 288 H 28.6368 2.04463 -0.0748802 0
M  V30 289 H 28.6468 3.69417 1.7319 0
M  V30 290 H 27.3218 4.10694 0.656007 0
M  V30 291 H 25.8988 3.04705 2.14963 0
M  V30 292 N 28.0839 -0.256276 1.55502 0
M  V30 293 C 29.0309 -1.31714 1.89526 0
M  V30 294 C 30.0009 -1.4828 0.748479 0
M  V30 295 O 31.1859 -1.62416 1.00128 0
M  V30 296 C 28.3259 -2.66933 2.18725 0
M  V30 297 C 27.4389 -2.58452 3.4616 0
M  V30 298 C 26.5739 -3.85961 3.64976 0
M  V30 299 C 25.6129 -3.72059 4.86044 0
M  V30 300 N 24.7499 -4.9144 5.01429 0
M  V30 301 H 29.5899 -1.01998 2.80001 0
M  V30 302 H 27.1269 -0.492413 1.38613 0
M  V30 303 H 29.0849 -3.4563 2.33657 0
M  V30 304 H 27.7149 -2.94816 1.31466 0
M  V30 305 H 26.7669 -1.71374 3.3961 0
M  V30 306 H 28.0789 -2.44085 4.34999 0
M  V30 307 H 27.2329 -4.73101 3.79816 0
M  V30 308 H 25.9719 -4.03215 2.74353 0
M  V30 309 H 24.9769 -2.83302 4.7119 0
M  V30 310 H 26.2019 -3.56309 5.78118 0
M  V30 311 H 24.1479 -5.09072 4.13741 0
M  V30 312 H 24.0649 -4.79668 5.84341 0
M  V30 313 H 25.3329 -5.80104 5.20672 0
M  V30 314 N 29.562 -1.4872 -0.521534 0
M  V30 315 C 30.525 -1.63379 -1.60748 0
M  V30 316 C 31.525 -0.50661 -1.52611 0
M  V30 317 O 32.715 -0.772601 -1.5613 0
M  V30 318 C 29.847 -1.61192 -3.00383 0
M  V30 319 H 31.04 -2.60217 -1.49087 0
M  V30 320 H 28.593 -1.37444 -0.744235 0
M  V30 321 H 29.328 -0.65863 -3.17541 0
M  V30 322 H 29.113 -2.43032 -3.07698 0
M  V30 323 H 30.603 -1.7466 -3.7932 0
M  V30 324 N 31.0401 0.771051 -1.3745 0
M  V30 325 C 32.2881 1.52661 -1.32435 0
M  V30 326 C 32.6091 1.9479 0.0905024 0
M  V30 327 O 31.8791 1.66348 1.03466 0
M  V30 328 H 30.4591 0.566218 -0.487244 0
M  V30 329 H 33.1211 0.917636 -1.71946 0
M  V30 330 H 32.2171 2.42568 -1.96385 0
M  V30 331 N 32.5182 1.22032 0.997298 0
M  V30 332 C 33.7662 1.04016 1.73278 0
M  V30 333 C 34.0872 -0.426255 1.90284 0
M  V30 334 O 33.3572 -1.30694 1.45931 0
M  V30 335 H 31.9372 0.381897 0.642 0
M  V30 336 H 34.5992 1.5347 1.20137 0
M  V30 337 H 33.6952 1.51441 2.72896 0
M  V30 338 N 33.9963 -1.19345 1.0293 0
M  V30 339 C 35.2443 -1.88665 0.724574 0
M  V30 340 C 35.5653 -1.80036 -0.749144 0
M  V30 341 O 34.8353 -1.2111 -1.53978 0
M  V30 342 H 33.4153 -0.698406 0.265025 0
M  V30 343 H 36.0773 -1.44885 1.30362 0
M  V30 344 H 35.1733 -2.94987 1.01926 0
M  V30 345 N 35.4744 -0.807222 -1.35358 0
M  V30 346 C 36.8904 -0.491038 -1.51858 0
M  V30 347 C 37.0904 0.987648 -1.75635 0
M  V30 348 O 36.1464 1.77265 -1.79815 0
M  V30 349 C 37.4594 -1.33695 -2.69344 0
M  V30 350 C 39.0074 -1.33246 -2.83222 0
M  V30 351 C 39.4824 -2.1625 -4.03733 0
M  V30 352 N 40.9734 -2.1379 -4.10911 0
M  V30 353 C 41.7084 -2.74772 -5.03277 0
M  V30 354 N 41.2044 -3.44684 -6.0097 0
M  V30 355 N 42.9974 -2.6441 -4.96028 0
M  V30 356 H 35.1484 -1.76485 -1.18181 0
M  V30 357 H 37.4114 -0.751199 -0.578276 0
M  V30 358 H 37.1174 -2.38634 -2.58354 0
M  V30 359 H 36.9914 -0.990618 -3.6396 0
M  V30 360 H 39.3784 -0.290911 -2.93663 0
M  V30 361 H 39.4594 -1.71866 -1.89461 0
M  V30 362 H 39.1034 -3.20445 -3.94052 0
M  V30 363 H 39.0334 -1.74989 -4.96675 0
M  V30 364 H 41.5244 -1.62923 -3.40976 0
M  V30 365 H 41.8374 -3.88501 -6.68047 0
M  V30 366 H 40.1824 -3.48788 -6.01142 0
M  V30 367 H 43.3734 -2.0938 -4.18662 0
M  V30 368 H 43.5464 -3.12225 -5.6782 0
M  V30 369 N 36.9525 1.47285 -0.560781 0
M  V30 370 C 38.1775 2.07359 -0.0410566 0
M  V30 371 C 38.6025 1.41017 1.24483 0
M  V30 372 O 37.9605 0.486368 1.74654 0
M  V30 373 C 38.0085 3.6035 0.134123 0
M  V30 374 O 37.1125 3.94681 1.19587 0
M  V30 375 H 36.4535 0.661887 -0.0529291 0
M  V30 376 H 38.9835 1.89252 -0.777482 0
M  V30 377 H 38.9935 4.0652 0.347207 0
M  V30 378 H 37.6685 4.08034 -0.805047 0
M  V30 379 H 36.2455 3.60251 0.962987 0
M  V30 380 N 38.4306 0.297415 1.54768 0
M  V30 381 C 39.6556 -0.318435 2.04941 0
M  V30 382 C 40.0806 -1.4701 1.17345 0
M  V30 383 O 39.4386 -1.80436 0.176758 0
M  V30 384 C 39.4866 -0.755749 3.52592 0
M  V30 385 O 38.5906 -1.86088 3.68028 0
M  V30 386 H 37.9316 -0.062421 0.661059 0
M  V30 387 H 40.4616 0.438215 1.99852 0
M  V30 388 H 40.4716 -1.04552 3.94376 0
M  V30 389 H 39.1466 0.0867233 4.1581 0
M  V30 390 H 37.7236 -1.57193 3.38149 0
M  V30 391 N 39.9087 -1.5758 0.0250728 0
M  V30 392 C 40.8587 -2.06468 -0.967201 0
M  V30 393 C 41.8427 -0.964376 -1.28797 0
M  V30 394 O 43.0347 -1.22797 -1.27475 0
M  V30 395 C 40.1637 -2.59203 -2.25097 0
M  V30 396 C 39.2497 -3.76157 -1.95874 0
M  V30 397 N 39.6407 -4.86919 -1.36905 0
M  V30 398 C 37.9387 -3.84566 -2.25887 0
M  V30 399 C 38.6397 -5.68172 -1.24724 0
M  V30 400 N 37.6157 -5.14953 -1.74138 0
M  V30 401 H 41.4177 -2.89508 -0.506176 0
M  V30 402 H 38.9317 -1.61399 -0.18004 0
M  V30 403 H 40.9287 -2.92517 -2.97052 0
M  V30 404 H 39.5887 -1.77592 -2.71829 0
M  V30 405 H 40.5997 -5.07256 -1.04459 0
M  V30 406 H 37.2767 -3.13854 -2.75321 0
M  V30 407 H 38.6667 -6.67221 -0.791605 0
M  V30 408 N 41.3868 0.248026 -1.55636 0
M  V30 409 C 42.6348 0.974295 -1.77065 0
M  V30 410 C 42.9558 1.85897 -0.588849 0
M  V30 411 O 42.2258 1.91868 0.395407 0
M  V30 412 H 40.8058 0.362733 -0.653019 0
M  V30 413 H 43.4678 0.266244 -1.93073 0
M  V30 414 H 42.5638 1.59667 -2.68166 0
M  V30 415 N 42.8649 1.48995 0.513639 0
M  V30 416 C 44.1139 1.57093 1.2651 0
M  V30 417 C 44.4269 0.257091 1.93903 0
M  V30 418 O 45.6329 0.216478 2.70636 0
M  V30 419 C 44.0889 2.77118 2.29638 0
M  V30 420 C 43.6969 4.15209 1.68241 0
M  V30 421 C 45.4409 2.94538 3.05692 0
M  V30 422 C 43.3479 5.26474 2.69406 0
M  V30 423 H 42.2779 0.584876 0.475854 0
M  V30 424 H 44.9289 1.7536 0.540487 0
M  V30 425 H 43.3109 2.52319 3.05207 0
M  V30 426 H 44.4849 4.50094 0.987505 0
M  V30 427 H 42.7999 4.03042 1.04623 0
M  V30 428 H 45.3969 3.74832 3.8132 0
M  V30 429 H 45.7399 2.04614 3.62545 0
M  V30 430 H 46.2729 3.19316 2.37238 0
M  V30 431 H 43.0119 6.18417 2.17351 0
M  V30 432 H 42.5319 4.96058 3.37175 0
M  V30 433 H 44.2109 5.55277 3.32078 0
M  V30 434 N 44.343 -0.763751 1.37857 0
M  V30 435 C 45.759 -1.06542 1.18832 0
M  V30 436 C 45.959 -2.01478 0.0299722 0
M  V30 437 O 45.015 -2.4458 -0.627447 0
M  V30 438 C 46.328 -1.65525 2.51042 0
M  V30 439 C 47.876 -1.77745 2.57635 0
M  V30 440 C 48.351 -2.4014 3.89996 0
M  V30 441 N 49.842 -2.47582 3.91481 0
M  V30 442 C 50.577 -2.96732 4.9065 0
M  V30 443 N 50.073 -3.45993 6.00217 0
M  V30 444 N 51.866 -2.95679 4.78048 0
M  V30 445 H 44.017 -0.133556 2.1198 0
M  V30 446 H 46.28 -0.121879 0.940133 0
M  V30 447 H 45.986 -1.03236 3.36207 0
M  V30 448 H 45.86 -2.64719 2.68707 0
M  V30 449 H 48.247 -2.39164 1.72872 0
M  V30 450 H 48.328 -0.772836 2.43846 0
M  V30 451 H 47.972 -1.79358 4.75177 0
M  V30 452 H 47.902 -3.41223 4.01092 0
M  V30 453 H 50.393 -2.1273 3.12337 0
M  V30 454 H 50.706 -3.81922 6.7183 0
M  V30 455 H 49.051 -3.44077 6.03851 0
M  V30 456 H 52.242 -2.56499 3.91568 0
M  V30 457 H 52.415 -3.33672 5.55488 0
M  V30 458 N 45.8211 -1.22559 -0.990812 0
M  V30 459 C 47.0461 -1.07862 -1.77145 0
M  V30 460 C 47.4711 0.366447 -1.84496 0
M  V30 461 O 46.8291 1.26478 -1.29896 0
M  V30 462 C 46.8771 -1.69686 -3.18181 0
M  V30 463 O 45.9811 -0.951946 -4.01263 0
M  V30 464 H 45.3221 -0.378712 -0.545411 0
M  V30 465 H 47.8521 -1.62399 -1.2445 0
M  V30 466 H 47.8621 -1.74496 -3.68802 0
M  V30 467 H 46.5371 -2.74841 -3.12146 0
M  V30 468 H 45.1141 -0.980011 -3.59792 0
M  V30 469 N 47.2992 1.18797 -1.03562 0
M  V30 470 C 48.5242 1.9314 -0.755764 0
M  V30 471 C 48.9492 1.7537 0.68022 0
M  V30 472 O 48.3072 1.06046 1.47051 0
M  V30 473 C 48.3552 3.42747 -1.12058 0
M  V30 474 O 47.4592 4.11683 -0.243124 0
M  V30 475 H 46.8002 0.602724 -0.278604 0
M  V30 476 H 49.3302 1.50678 -1.3841 0
M  V30 477 H 49.3402 3.93437 -1.08035 0
M  V30 478 H 48.0152 3.55002 -2.16672 0
M  V30 479 H 46.5922 3.71323 -0.342539 0
M  V30 480 N 48.7773 0.814389 1.34928 0
M  V30 481 C 50.0253 0.397636 1.9815 0
M  V30 482 C 50.3463 -1.04069 1.64908 0
M  V30 483 O 49.6163 -1.72121 0.93548 0
M  V30 484 H 48.1963 0.144043 0.732981 0
M  V30 485 H 50.8583 1.04195 1.6471 0
M  V30 486 H 49.9543 0.509688 3.0791 0
M  V30 487 N 50.2554 -1.46986 0.568584 0
M  V30 488 C 51.4834 -2.0683 0.0539956 0
M  V30 489 C 51.8984 -1.41953 -1.24478 0
M  V30 490 O 51.2554 -0.519933 -1.74937 0
M  V30 491 C 51.3064 -3.61254 -0.133362 0
M  V30 492 O 51.0274 -4.237 1.11399 0
M  V30 493 C 52.5284 -4.37992 -0.683927 0
M  V30 494 H 49.7484 -0.669058 0.0510141 0
M  V30 495 H 52.2924 -1.88824 0.785234 0
M  V30 496 H 50.4474 -3.78735 -0.81477 0
M  V30 497 H 50.8614 -5.16388 0.91888 0
M  V30 498 H 52.3354 -5.46684 -0.764263 0
M  V30 499 H 52.8124 -4.05058 -1.69778 0
M  V30 500 H 53.4184 -4.25283 -0.0378494 0
M  V30 501 N 51.7335 -0.305618 -1.54608 0
M  V30 502 C 52.9585 0.307562 -2.05107 0
M  V30 503 C 53.3835 1.46385 -1.18123 0
M  V30 504 O 52.7415 1.8034 -0.186324 0
M  V30 505 C 52.7895 0.73704 -3.52987 0
M  V30 506 O 51.8935 1.84134 -3.6901 0
M  V30 507 H 51.2345 0.0589143 -0.661381 0
M  V30 508 H 53.7645 -0.448807 -1.99617 0
M  V30 509 H 53.7745 1.02459 -3.94925 0
M  V30 510 H 52.4495 -0.108773 -4.15758 0
M  V30 511 H 51.0265 1.55398 -3.38978 0
M  V30 512 N 53.2116 1.57565 -0.0334293 0
M  V30 513 C 54.4366 1.96689 0.657895 0
M  V30 514 C 54.8616 0.910057 1.64619 0
M  V30 515 O 54.2196 -0.128598 1.80843 0
M  V30 516 C 54.2676 3.34905 1.33683 0
M  V30 517 O 53.3716 3.31574 2.45219 0
M  V30 518 H 52.7126 0.641205 0.172489 0
M  V30 519 H 55.2426 2.04372 -0.0965621 0
M  V30 520 H 55.2526 3.71234 1.69262 0
M  V30 521 H 53.9276 4.11366 0.612411 0
M  V30 522 H 52.5046 3.06968 2.11719 0
M  V30 523 N 54.6897 -0.239769 1.55765 0
M  V30 524 C 55.9377 -0.964892 1.77579 0
M  V30 525 C 56.2587 -1.85582 0.598699 0
M  V30 526 O 55.5287 -1.92075 -0.385226 0
M  V30 527 H 54.1087 -0.359265 0.654933 0
M  V30 528 H 56.7707 -0.256001 1.93211 0
M  V30 529 H 55.8667 -1.58243 2.69009 0
M  V30 530 N 56.1678 -1.49265 -0.50573 0
M  V30 531 C 57.4138 -1.58748 -1.26202 0
M  V30 532 C 57.7468 -0.271227 -1.92297 0
M  V30 533 O 57.0218 0.724831 -1.80489 0
M  V30 534 C 57.3048 -2.74332 -2.33268 0
M  V30 535 C 57.1578 -4.15737 -1.71705 0
M  V30 536 C 58.4768 -2.85576 -3.34865 0
M  V30 537 H 55.5958 -0.577826 -0.457478 0
M  V30 538 H 58.2378 -1.81532 -0.560897 0
M  V30 539 H 56.3878 -2.55036 -2.93068 0
M  V30 540 H 58.0598 -4.46537 -1.15769 0
M  V30 541 H 56.3028 -4.21605 -1.02135 0
M  V30 542 H 56.9738 -4.92477 -2.49341 0
M  V30 543 H 59.4498 -3.03127 -2.8505 0
M  V30 544 H 58.3258 -3.68135 -4.07146 0
M  V30 545 H 58.5868 -1.94732 -3.96903 0
M  V30 546 N 57.6459 0.756429 -1.3826 0
M  V30 547 C 58.5759 1.88374 -1.37976 0
M  V30 548 C 59.5569 1.68311 -0.246082 0
M  V30 549 O 60.7419 1.88944 -0.44874 0
M  V30 550 C 57.8719 3.25864 -1.20125 0
M  V30 551 C 56.8259 3.60523 -2.30666 0
M  V30 552 C 56.1519 4.9672 -1.97923 0
M  V30 553 C 57.4519 3.65692 -3.72916 0
M  V30 554 H 59.1459 1.88869 -2.32312 0
M  V30 555 H 56.6919 0.907272 -1.11824 0
M  V30 556 H 58.6449 4.0438 -1.18552 0
M  V30 557 H 57.3689 3.25841 -0.222498 0
M  V30 558 H 56.0279 2.84324 -2.3142 0
M  V30 559 H 55.6759 4.93253 -0.985393 0
M  V30 560 H 55.3759 5.20878 -2.71955 0
M  V30 561 H 56.8999 5.77618 -1.97964 0
M  V30 562 H 58.3139 4.34328 -3.74208 0
M  V30 563 H 56.7109 4.01358 -4.4613 0
M  V30 564 H 57.7809 2.65987 -4.05436 0
M  V30 565 N 59.124 1.23083 0.984299 0
M  V30 566 C 60.057 0.951786 2.07404 0
M  V30 567 C 61.035 -0.10848 1.62238 0
M  V30 568 O 62.219 0.0249467 1.88483 0
M  V30 569 C 59.346 0.433142 3.35919 0
M  V30 570 C 58.392 1.47941 4.0002 0
M  V30 571 S 59.225 3.05556 4.39768 0
M  V30 572 C 60.381 2.55351 5.71442 0
M  V30 573 H 60.614 1.87456 2.30754 0
M  V30 574 H 58.147 1.06284 1.11996 0
M  V30 575 H 60.105 0.140506 4.10259 0
M  V30 576 H 58.766 -0.468656 3.10584 0
M  V30 577 H 57.959 1.06658 4.92585 0
M  V30 578 H 57.561 1.7212 3.3204 0
M  V30 579 H 59.853 1.97128 6.48187 0
M  V30 580 H 60.796 3.46441 6.17563 0
M  V30 581 H 61.204 1.96339 5.29255 0
M  V30 582 N 60.6021 -1.18246 1.0419 0
M  V30 583 C 61.8481 -1.88536 0.747122 0
M  V30 584 C 62.1811 -1.80223 -0.723409 0
M  V30 585 O 61.4561 -1.20337 -1.52804 0
M  V30 586 C 61.7391 -3.38968 1.21544 0
M  V30 587 C 61.5921 -3.56084 2.74816 0
M  V30 588 C 62.9111 -4.32648 0.806482 0
M  V30 589 H 60.0301 -0.684619 0.272883 0
M  V30 590 H 62.6721 -1.39113 1.29413 0
M  V30 591 H 60.8221 -3.8119 0.750081 0
M  V30 592 H 62.4941 -3.22946 3.29399 0
M  V30 593 H 60.7371 -2.98699 3.14582 0
M  V30 594 H 61.4081 -4.61639 3.02644 0
M  V30 595 H 63.8841 -3.98211 1.20695 0
M  V30 596 H 62.7601 -5.36462 1.1619 0
M  V30 597 H 63.0211 -4.41146 -0.29029 0
M  V30 598 N 62.0802 -0.821533 -1.34494 0
M  V30 599 C 63.3282 -0.408139 -1.97936 0
M  V30 600 C 63.6492 1.03193 -1.65457 0
M  V30 601 O 62.9192 1.71622 -0.944595 0
M  V30 602 H 61.4992 -0.147928 -0.732206 0
M  V30 603 H 64.1612 -1.05067 -1.64155 0
M  V30 604 H 63.2572 -0.52601 -3.07635 0
M  V30 605 N 63.5583 1.46682 -0.576371 0
M  V30 606 C 64.9693 1.86112 -0.148091 0
M  V30 607 C 65.3203 1.48073 1.2872 0
M  V30 608 O 64.4453 0.892656 1.97131 0
M  V30 609 C 65.0403 3.37786 -0.261982 0
M  V30 610 C 63.5993 3.76235 0.111384 0
M  V30 611 C 62.7463 2.70713 -0.60083 0
M  V30 612 H 65.6973 1.37927 -0.78497 0
M  V30 613 H 65.7183 3.77007 0.514364 0
M  V30 614 H 65.2303 3.6544 -1.30671 0
M  V30 615 H 63.3313 3.54198 1.15649 0
M  V30 616 H 63.4443 4.78391 -0.26052 0
M  V30 617 H 61.8083 2.54666 -0.0417783 0
M  V30 618 H 62.5913 3.01208 -1.64708 0
M  V30 619 N 65.0364 0.313813 1.54444 0
M  V30 620 C 65.9844 -0.572171 2.25453 0
M  V30 621 C 66.9784 -1.12657 1.2651 0
M  V30 622 O 68.1844 -1.07573 1.44319 0
M  V30 623 H 64.5594 -0.203146 0.724041 0
M  V30 624 H 66.5304 0.0491145 2.9836 0
M  V30 625 C 65.2794 -1.72626 3.0182 0
M  V30 626 H 64.6024 -1.30891 3.77767 0
M  V30 627 H 66.0424 -2.32199 3.54767 0
M  V30 628 C 64.5014 -2.63806 2.09542 0
M  V30 629 O 65.0314 -3.65256 1.67185 0
M  V30 630 N 63.2374 -2.31824 1.75232 0
M  V30 631 H 62.7844 -1.49368 2.09873 0
M  V30 632 H 62.7424 -2.93095 1.13767 0
M  V30 633 N 66.5145 -1.57545 0.0417849 0
M  V30 634 C 67.7615 -1.92317 -0.634082 0
M  V30 635 C 68.0895 -0.919334 -1.71402 0
M  V30 636 O 67.3445 0.0698253 -1.95575 0
M  V30 637 C 67.6435 -3.33794 -1.27735 0
M  V30 638 C 67.3095 -4.49716 -0.326543 0
M  V30 639 C 65.9715 -4.81156 -0.0648814 0
M  V30 640 C 68.3235 -5.20182 0.325623 0
M  V30 641 C 65.6515 -5.80414 0.856539 0
M  V30 642 C 68.0035 -6.20424 1.23518 0
M  V30 643 C 66.6675 -6.50298 1.5056 0
M  V30 644 H 65.9375 -0.703736 -0.232027 0
M  V30 645 H 68.5845 -1.91205 0.106259 0
M  V30 646 H 66.8895 -3.31228 -2.09274 0
M  V30 647 H 68.5865 -3.57975 -1.80707 0
M  V30 648 H 65.1765 -4.25176 -0.540665 0
M  V30 649 H 69.3605 -4.96112 0.136546 0
M  V30 650 H 64.6165 -6.019 1.07363 0
M  V30 651 H 68.7905 -6.74141 1.74664 0
M  V30 652 H 66.4175 -7.27025 2.22123 0
M  V30 653 N 67.9926 0.231505 -1.5589 0
M  V30 654 C 69.4086 0.580748 -1.48659 0
M  V30 655 C 69.6086 1.87617 -0.73498 0
M  V30 656 O 68.6646 2.51046 -0.270586 0
M  V30 657 C 69.9776 0.669202 -2.93159 0
M  V30 658 C 71.5256 0.760499 -3.03621 0
M  V30 659 C 72.0006 0.880383 -4.49459 0
M  V30 660 N 73.4916 0.944861 -4.53461 0
M  V30 661 C 74.2266 1.05716 -5.63571 0
M  V30 662 N 73.7226 1.13403 -6.83456 0
M  V30 663 N 75.5156 1.09152 -5.514 0
M  V30 664 H 67.6666 -0.618695 -2.03189 0
M  V30 665 H 69.9296 -0.215728 -0.923128 0
M  V30 666 H 69.6356 -0.212904 -3.51055 0
M  V30 667 H 69.5096 1.5361 -3.44505 0
M  V30 668 H 71.8966 1.63305 -2.45796 0
M  V30 669 H 71.9776 -0.131864 -2.5546 0
M  V30 670 H 71.6216 0.0123284 -5.07899 0
M  V30 671 H 71.5516 1.78802 -4.95316 0
M  V30 672 H 74.0426 0.896176 -3.6712 0
M  V30 673 H 74.3556 1.21921 -7.63122 0
M  V30 674 H 72.7006 1.10333 -6.86186 0
M  V30 675 H 75.8916 1.02805 -4.56671 0
M  V30 676 H 76.0646 1.17558 -6.37247 0
M  V30 677 N 69.4707 1.49531 0.497807 0
M  V30 678 C 70.7167 1.59415 1.25358 0
M  V30 679 C 71.0497 0.281422 1.9215 0
M  V30 680 O 70.3247 -0.715249 1.80871 0
M  V30 681 C 70.6077 2.75566 2.3181 0
M  V30 682 C 70.4607 4.16642 1.69498 0
M  V30 683 C 71.7797 2.87347 3.33346 0
M  V30 684 H 68.8987 0.580244 0.454408 0
M  V30 685 H 71.5407 1.81827 0.551262 0
M  V30 686 H 69.6907 2.56587 2.91711 0
M  V30 687 H 71.3627 4.47145 1.13399 0
M  V30 688 H 69.6057 4.22141 0.998978 0
M  V30 689 H 70.2767 4.93792 2.46725 0
M  V30 690 H 72.7527 3.04634 2.83438 0
M  V30 691 H 71.6287 3.70289 4.05188 0
M  V30 692 H 71.8897 1.96834 3.95865 0
M  V30 693 N 70.9488 -0.749086 1.3866 0
M  V30 694 C 72.1968 -1.50535 1.34847 0
M  V30 695 C 72.5178 -1.94909 -0.0595016 0
M  V30 696 O 71.7878 -1.67973 -1.00806 0
M  V30 697 H 70.3678 -0.558395 0.49619 0
M  V30 698 H 73.0298 -0.890165 1.73384 0
M  V30 699 H 72.1258 -2.39413 2.00219 0
M  V30 700 N 72.4269 -1.23603 -0.977757 0
M  V30 701 C 73.3739 -1.01954 -2.07061 0
M  V30 702 C 74.3439 0.0638697 -1.65977 0
M  V30 703 O 75.5289 -0.0887624 -1.90593 0
M  V30 704 C 72.6689 -0.619658 -3.39491 0
M  V30 705 C 71.7819 -1.77547 -3.93829 0
M  V30 706 C 70.9169 -1.32212 -5.14484 0
M  V30 707 C 69.9559 -2.44852 -5.60994 0
M  V30 708 N 69.0929 -2.00456 -6.72876 0
M  V30 709 H 73.9329 -1.95495 -2.24913 0
M  V30 710 H 71.4699 -0.973861 -1.10247 0
M  V30 711 H 73.4279 -0.368898 -4.15566 0
M  V30 712 H 72.0579 0.278752 -3.21594 0
M  V30 713 H 71.1099 -2.14016 -3.14486 0
M  V30 714 H 72.4219 -2.62219 -4.24314 0
M  V30 715 H 71.5759 -1.02965 -5.97899 0
M  V30 716 H 70.3149 -0.445808 -4.85658 0
M  V30 717 H 69.3199 -2.74871 -4.76157 0
M  V30 718 H 70.5449 -3.33024 -5.91837 0
M  V30 719 H 68.4909 -1.15208 -6.45804 0
M  V30 720 H 68.4079 -2.78687 -7.02759 0
M  V30 721 H 69.6759 -1.7432 -7.59758 0
M  V30 722 N 73.905 1.17692 -1.04816 0
M  V30 723 C 74.852 2.21581 -0.645797 0
M  V30 724 C 75.822 1.62367 0.350159 0
M  V30 725 O 77.007 1.89254 0.242433 0
M  V30 726 C 74.147 3.45092 -0.0227568 0
M  V30 727 C 73.26 4.18613 -1.06709 0
M  V30 728 C 72.395 5.29602 -0.411767 0
M  V30 729 C 71.434 5.94904 -1.44067 0
M  V30 730 N 70.571 6.97414 -0.809781 0
M  V30 731 H 75.411 2.55353 -1.5362 0
M  V30 732 H 72.948 1.25438 -0.768364 0
M  V30 733 H 74.906 4.15679 0.35588 0
M  V30 734 H 73.536 3.11917 0.831122 0
M  V30 735 H 72.588 3.46779 -1.5636 0
M  V30 736 H 73.9 4.63293 -1.84827 0
M  V30 737 H 73.054 6.06696 0.0206623 0
M  V30 738 H 71.793 4.86045 0.401438 0
M  V30 739 H 70.798 5.16544 -1.88316 0
M  V30 740 H 72.023 6.40542 -2.25571 0
M  V30 741 H 69.969 6.55998 -0.0170186 0
M  V30 742 H 69.886 7.40386 -1.52856 0
M  V30 743 H 71.154 7.78463 -0.401999 0
M  V30 744 N 75.3831 0.828654 1.34056 0
M  V30 745 C 76.6321 0.415828 1.97367 0
M  V30 746 C 76.9451 -1.02796 1.6641 0
M  V30 747 O 78.1511 -1.54497 2.23255 0
M  V30 748 C 76.6071 0.692601 3.53173 0
M  V30 749 C 76.2151 2.15038 3.93017 0
M  V30 750 C 77.9591 0.346222 4.23086 0
M  V30 751 C 75.8661 2.37174 5.41758 0
M  V30 752 H 74.7961 0.151755 0.738571 0
M  V30 753 H 77.4471 1.01581 1.52819 0
M  V30 754 H 75.8291 0.0223764 3.95994 0
M  V30 755 H 77.0031 2.86024 3.61285 0
M  V30 756 H 75.3181 2.45875 3.36057 0
M  V30 757 H 77.9151 0.48937 5.32456 0
M  V30 758 H 78.2581 -0.709842 4.10204 0
M  V30 759 H 78.7911 0.971258 3.85761 0
M  V30 760 H 75.5301 3.41308 5.59633 0
M  V30 761 H 75.0501 1.70738 5.74986 0
M  V30 762 H 76.7291 2.19818 6.08514 0
M  V30 763 N 76.8612 -1.46375 0.584142 0
M  V30 764 C 78.1092 -2.01978 0.0701287 0
M  V30 765 C 78.4302 -1.4579 -1.295 0
M  V30 766 O 77.7002 -0.64314 -1.85042 0
M  V30 767 H 76.2802 -0.746648 0.0229345 0
M  V30 768 H 78.9422 -1.79461 0.760245 0
M  V30 769 H 78.0382 -3.121 0.0022064 0
M  V30 770 N 78.3393 -0.321999 -1.54275 0
M  V30 771 C 79.5793 0.281657 -2.0245 0
M  V30 772 C 79.9433 1.49468 -1.20513 0
M  V30 773 O 81.1443 2.17109 -1.58484 0
M  V30 774 C 79.4153 0.609014 -3.52173 0
M  V30 775 S 80.9743 1.19255 -4.22284 0
M  V30 776 H 77.7923 0.0852825 -0.705867 0
M  V30 777 H 80.3943 -0.454758 -1.90137 0
M  V30 778 H 79.0983 -0.281982 -4.0943 0
M  V30 779 H 78.6293 1.37567 -3.68563 0
M  V30 780 H 80.6443 2.47944 -4.29812 0
M  V30 781 N 79.8174 1.5752 -0.0501392 0
M  V30 782 C 81.0654 1.9227 0.622642 0
M  V30 783 C 81.3864 0.929083 1.71444 0
M  V30 784 O 80.6564 -0.0262186 1.95882 0
M  V30 785 H 79.2364 0.709739 0.232981 0
M  V30 786 H 81.8984 1.94628 -0.102898 0
M  V30 787 H 80.9944 2.93479 1.06191 0
M  V30 788 N 81.2955 -0.223234 1.56011 0
M  V30 789 C 82.2435 -1.29627 1.93131 0
M  V30 790 C 83.2375 -1.48608 0.813146 0
M  V30 791 O 84.4435 -1.49802 0.997966 0
M  V30 792 H 80.8185 -0.434563 0.613726 0
M  V30 793 H 82.7895 -0.955995 2.82672 0
M  V30 794 C 81.5385 -2.63983 2.26292 0
M  V30 795 H 80.8615 -2.50185 3.11846 0
M  V30 796 H 82.3015 -3.3788 2.56151 0
M  V30 797 C 80.7605 -3.18866 1.08747 0
M  V30 798 O 81.2905 -4.00192 0.347727 0
M  V30 799 N 79.4965 -2.77217 0.871743 0
M  V30 800 H 79.0435 -2.1119 1.47501 0
M  V30 801 H 79.0015 -3.1428 0.0869905 0
M  V30 802 N 82.7736 -1.49793 -0.48987 0
M  V30 803 C 84.0206 -1.59841 -1.24327 0
M  V30 804 C 84.3486 -0.290135 -1.92324 0
M  V30 805 O 83.6036 0.722749 -1.81865 0
M  V30 806 C 83.9026 -2.71488 -2.32441 0
M  V30 807 C 83.5686 -4.12614 -1.81826 0
M  V30 808 C 82.2306 -4.51017 -1.67742 0
M  V30 809 C 84.5826 -5.00892 -1.4407 0
M  V30 810 C 81.9106 -5.75459 -1.14297 0
M  V30 811 C 84.2626 -6.25863 -0.920742 0
M  V30 812 C 82.9266 -6.63086 -0.766383 0
M  V30 813 H 82.1966 -0.584899 -0.454944 0
M  V30 814 H 84.8436 -1.83663 -0.542215 0
M  V30 815 H 83.1486 -2.4168 -3.0838 0
M  V30 816 H 84.8456 -2.76469 -2.90458 0
M  V30 817 H 81.4356 -3.82307 -1.93751 0
M  V30 818 H 85.6196 -4.7187 -1.53794 0
M  V30 819 H 80.8756 -6.02989 -1.01068 0
M  V30 820 H 85.0496 -6.9364 -0.619448 0
M  V30 821 H 82.6766 -7.59393 -0.350083 0
M  V30 822 N 84.2517 0.741722 -1.39055 0
M  V30 823 C 85.4997 1.49818 -1.35643 0
M  V30 824 C 85.8207 1.94938 0.0491642 0
M  V30 825 O 85.0907 1.68505 0.999141 0
M  V30 826 H 83.6707 0.555755 -0.499144 0
M  V30 827 H 86.3327 0.880957 -1.73854 0
M  V30 828 H 85.4287 2.38348 -2.01486 0
M  V30 829 N 85.7298 1.2412 0.971189 0
M  V30 830 C 86.6398 1.04747 2.09917 0
M  V30 831 C 87.6558 -0.0107162 1.73997 0
M  V30 832 O 88.8318 0.186714 2.00533 0
M  V30 833 C 85.8968 0.650828 3.40537 0
M  V30 834 C 84.9578 1.7851 3.90426 0
M  V30 835 C 84.1908 1.40729 5.14812 0
M  V30 836 O 84.4138 0.29557 5.69634 0
M  V30 837 O 83.3478 2.23168 5.58999 0
M  V30 838 H 87.1738 1.99304 2.29154 0
M  V30 839 H 84.7588 1.02908 1.08307 0
M  V30 840 H 86.6408 0.440992 4.19086 0
M  V30 841 H 85.3158 -0.265649 3.22608 0
M  V30 842 H 84.2228 2.04966 3.12953 0
M  V30 843 H 85.5558 2.68023 4.12825 0
M  V30 844 N 87.2079 -1.17134 1.05439 0
M  V30 845 C 88.1379 -2.2342 0.678649 0
M  V30 846 C 89.1189 -1.66971 -0.32476 0
M  V30 847 O 90.3039 -1.93149 -0.201802 0
M  V30 848 C 87.4339 -3.47256 0.0552099 0
M  V30 849 C 86.3879 -4.16543 0.98365 0
M  V30 850 C 85.7139 -5.34231 0.223961 0
M  V30 851 C 87.0139 -4.68495 2.3089 0
M  V30 852 H 88.7079 -2.55105 1.56722 0
M  V30 853 H 86.2539 -1.2262 0.754998 0
M  V30 854 H 88.2069 -4.20828 -0.21946 0
M  V30 855 H 86.9309 -3.14846 -0.868319 0
M  V30 856 H 85.5899 -3.44887 1.24293 0
M  V30 857 H 85.2379 -4.98071 -0.702412 0
M  V30 858 H 84.9379 -5.81527 0.842627 0
M  V30 859 H 86.4619 -6.10585 -0.0433671 0
M  V30 860 H 87.8759 -5.33691 2.09396 0
M  V30 861 H 86.2729 -5.26379 2.88176 0
M  V30 862 H 87.3429 -3.85169 2.94572 0
M  V30 863 N 88.686 -0.835752 -1.33615 0
M  V30 864 C 90.102 -0.523139 -1.50783 0
M  V30 865 C 90.302 0.950171 -1.77691 0
M  V30 866 O 89.358 1.73411 -1.83534 0
M  V30 867 C 90.671 -1.39378 -2.66448 0
M  V30 868 C 92.219 -1.39223 -2.80332 0
M  V30 869 C 92.694 -2.24765 -3.99055 0
M  V30 870 N 94.185 -2.22458 -4.06284 0
M  V30 871 C 94.92 -2.85386 -4.97336 0
M  V30 872 N 94.416 -3.57354 -5.93523 0
M  V30 873 N 96.209 -2.74872 -4.90308 0
M  V30 874 H 88.36 -1.78952 -1.14411 0
M  V30 875 H 90.623 -0.763297 -0.562212 0
M  V30 876 H 90.329 -2.44061 -2.53234 0
M  V30 877 H 90.203 -1.0676 -3.61776 0
M  V30 878 H 92.59 -0.353136 -2.92979 0
M  V30 879 H 92.671 -1.75846 -1.85773 0
M  V30 880 H 92.315 -3.28732 -3.87167 0
M  V30 881 H 92.245 -1.85485 -4.92852 0
M  V30 882 H 94.736 -1.70119 -3.37443 0
M  V30 883 H 95.049 -4.02584 -6.59656 0
M  V30 884 H 93.394 -3.61461 -5.93608 0
M  V30 885 H 96.585 -2.18213 -4.14126 0
M  V30 886 H 96.758 -3.24199 -5.61069 0
M  V30 887 N 90.1641 1.46063 -0.591896 0
M  V30 888 C 91.0941 2.33172 0.123673 0
M  V30 889 C 92.0751 1.45897 0.87453 0
M  V30 890 O 93.2601 1.74698 0.848181 0
M  V30 891 C 90.3901 3.28336 1.13194 0
M  V30 892 C 89.3441 4.25124 0.495324 0
M  V30 893 C 88.6701 5.09863 1.61071 0
M  V30 894 C 89.9701 5.19143 -0.573425 0
M  V30 895 H 91.6641 2.93252 -0.603646 0
M  V30 896 H 89.2101 1.41014 -0.291741 0
M  V30 897 H 91.1631 3.88137 1.64097 0
M  V30 898 H 89.8871 2.66383 1.88965 0
M  V30 899 H 88.5461 3.66599 0.00729452 0
M  V30 900 H 88.1941 4.44288 2.35832 0
M  V30 901 H 87.8941 5.75417 1.19035 0
M  V30 902 H 89.4181 5.72529 2.12233 0
M  V30 903 H 90.8321 5.73106 -0.1491 0
M  V30 904 H 89.2291 5.93089 -0.914636 0
M  V30 905 H 90.2991 4.62519 -1.45617 0
M  V30 906 N 91.6422 0.330177 1.54103 0
M  V30 907 C 92.8902 -0.269871 2.0029 0
M  V30 908 C 93.2112 -1.52133 1.21986 0
M  V30 909 O 92.4812 -1.93212 0.323438 0
M  V30 910 H 91.0612 -0.10271 0.739905 0
M  V30 911 H 93.7232 0.448249 1.89675 0
M  V30 912 H 92.8192 -0.52166 3.07709 0
M  V30 913 N 93.1203 -1.57491 0.0584922 0
M  V30 914 C 94.0673 -2.11958 -0.913376 0
M  V30 915 C 95.0373 -1.02875 -1.30407 0
M  V30 916 O 96.2223 -1.30464 -1.39226 0
M  V30 917 C 93.3623 -2.67497 -2.18035 0
M  V30 918 C 92.4753 -3.90691 -1.84349 0
M  V30 919 C 91.6103 -4.3452 -3.05559 0
M  V30 920 C 90.6493 -5.50395 -2.67827 0
M  V30 921 N 89.7863 -5.89244 -3.81754 0
M  V30 922 H 94.6263 -2.94704 -0.442017 0
M  V30 923 H 92.1633 -1.45643 -0.206545 0
M  V30 924 H 94.1213 -2.978 -2.92183 0
M  V30 925 H 92.7513 -1.87537 -2.62735 0
M  V30 926 H 91.8033 -3.66934 -1.00319 0
M  V30 927 H 93.1153 -4.7489 -1.5258 0
M  V30 928 H 92.2693 -4.66414 -3.87998 0
M  V30 929 H 91.0083 -3.49147 -3.40511 0
M  V30 930 H 90.0133 -5.18165 -1.83806 0
M  V30 931 H 91.2383 -6.3749 -2.34059 0
M  V30 932 H 89.1843 -5.06823 -4.16493 0
M  V30 933 H 89.1013 -6.68151 -3.53708 0
M  V30 934 H 90.3693 -6.25756 -4.64811 0
M  V30 935 N 94.5984 0.214957 -1.56127 0
M  V30 936 C 95.5464 1.28601 -1.93816 0
M  V30 937 C 96.5404 1.48175 -0.821016 0
M  V30 938 O 97.7464 1.49271 -1.0059 0
M  V30 939 H 94.1214 0.431302 -0.616022 0
M  V30 940 H 96.0924 0.940991 -2.83175 0
M  V30 941 C 94.8414 2.62779 -2.27689 0
M  V30 942 H 94.1644 2.48527 -3.13168 0
M  V30 943 H 95.6044 3.36517 -2.57939 0
M  V30 944 C 94.0634 3.18285 -1.10436 0
M  V30 945 O 94.5934 4.00002 -0.368945 0
M  V30 946 N 92.7994 2.7675 -0.886433 0
M  V30 947 H 92.3464 2.10404 -1.48619 0
M  V30 948 H 92.3044 3.14229 -0.103656 0
M  V30 949 N 96.0765 1.50051 0.48192 0
M  V30 950 C 97.0065 1.71046 1.58951 0
M  V30 951 C 97.9875 0.559288 1.60642 0
M  V30 952 O 99.1725 0.797243 1.77081 0
M  V30 953 C 96.3025 1.79462 2.97339 0
M  V30 954 C 95.2565 2.94558 3.10515 0
M  V30 955 C 94.5825 2.88105 4.50444 0
M  V30 956 C 95.8825 4.35227 2.88747 0
M  V30 957 H 97.5765 2.6378 1.41635 0
M  V30 958 H 95.1225 1.26936 0.679942 0
M  V30 959 H 97.0755 1.92734 3.74742 0
M  V30 960 H 95.7995 0.833412 3.15788 0
M  V30 961 H 94.4585 2.80918 2.35543 0
M  V30 962 H 94.1065 1.89853 4.65795 0
M  V30 963 H 93.8065 3.65366 4.60197 0
M  V30 964 H 95.3305 3.03412 5.29881 0
M  V30 965 H 96.7445 4.49449 3.55905 0
M  V30 966 H 95.1415 5.13856 3.09955 0
M  V30 967 H 96.2115 4.48347 1.84696 0
M  V30 968 N 97.5546 -0.734337 1.39446 0
M  V30 969 C 98.7846 -1.52137 1.39778 0
M  V30 970 C 99.1926 -1.89198 -0.00929312 0
M  V30 971 O 98.5356 -1.54666 -0.991168 0
M  V30 972 C 98.5976 -2.83762 2.20724 0
M  V30 973 C 98.2616 -2.69131 3.69347 0
M  V30 974 C 99.2586 -2.37635 4.62413 0
M  V30 975 C 96.9436 -2.85982 4.1294 0
M  V30 976 C 98.9376 -2.23172 5.97054 0
M  V30 977 C 96.6246 -2.71137 5.47657 0
M  V30 978 C 97.6226 -2.39777 6.39528 0
M  V30 979 O 97.3106 -2.25026 7.71763 0
M  V30 980 H 97.0426 -0.476717 0.479288 0
M  V30 981 H 99.5966 -0.915012 1.83893 0
M  V30 982 H 97.8266 -3.4666 1.71359 0
M  V30 983 H 99.5156 -3.45383 2.13226 0
M  V30 984 H 100.282 -2.24267 4.30034 0
M  V30 985 H 96.1606 -3.09383 3.41765 0
M  V30 986 H 99.7046 -1.98617 6.68728 0
M  V30 987 H 95.6016 -2.84083 5.79626 0
M  V30 988 H 96.3696 -2.40091 7.82495 0
M  V30 989 N 99.0327 -1.24633 -0.964593 0
M  V30 990 C 100.261 -1.11501 -1.74285 0
M  V30 991 C 100.676 0.332165 -1.85855 0
M  V30 992 O 100.033 1.22903 -1.34911 0
M  V30 993 C 100.084 -1.75258 -3.16175 0
M  V30 994 O 99.8047 -3.14318 -3.05182 0
M  V30 995 C 101.306 -1.67776 -4.10324 0
M  V30 996 H 98.5257 -0.389407 -0.546446 0
M  V30 997 H 101.07 -1.64801 -1.21083 0
M  V30 998 H 99.2247 -1.25954 -3.66353 0
M  V30 999 H 99.6387 -3.4551 -3.94618 0
M  V30 1000 H 101.113 -2.17064 -5.0753 0
M  V30 1001 H 101.59 -0.639584 -4.34518 0
M  V30 1002 H 102.196 -2.16522 -3.66058 0
M  V30 1003 N 100.511 1.16574 -1.06058 0
M  V30 1004 C 101.459 2.22941 -0.663343 0
M  V30 1005 C 102.453 1.66358 0.319593 0
M  V30 1006 O 103.659 1.7905 0.184713 0
M  V30 1007 H 100.034 0.725907 -0.196376 0
M  V30 1008 H 102.005 2.53736 -1.57037 0
M  V30 1009 C 100.754 3.47642 -0.0632808 0
M  V30 1010 H 100.077 3.91493 -0.810733 0
M  V30 1011 H 101.517 4.2363 0.177177 0
M  V30 1012 C 99.9758 3.1509 1.19248 0
M  V30 1013 O 100.506 3.30673 2.28075 0
M  V30 1014 N 98.7118 2.6924 1.09353 0
M  V30 1015 H 98.2588 2.5676 0.207912 0
M  V30 1016 H 98.2168 2.47833 1.93458 0
M  V30 1017 N 101.989 0.842826 1.3317 0
M  V30 1018 C 102.899 0.281444 2.32906 0
M  V30 1019 C 103.915 -0.594587 1.63526 0
M  V30 1020 O 105.091 -0.49777 1.95152 0
M  V30 1021 C 102.156 -0.530929 3.42611 0
M  V30 1022 C 101.217 0.369843 4.27704 0
M  V30 1023 C 100.45 -0.403853 5.3217 0
M  V30 1024 O 100.673 -1.63513 5.46461 0
M  V30 1025 O 99.6069 0.224199 6.01482 0
M  V30 1026 H 103.433 1.10744 2.82789 0
M  V30 1027 H 101.018 0.60545 1.36582 0
M  V30 1028 H 102.9 -0.992437 4.09547 0
M  V30 1029 H 101.575 -1.33392 2.94938 0
M  V30 1030 H 100.482 0.879275 3.6362 0
M  V30 1031 H 101.815 1.13771 4.78871 0
M  V30 1032 N 103.467 -1.45747 0.599634 0
M  V30 1033 C 104.697 -2.06369 0.0977132 0
M  V30 1034 C 105.105 -1.44624 -1.21985 0
M  V30 1035 O 104.448 -0.551831 -1.75216 0
M  V30 1036 C 104.51 -3.59284 -0.124673 0
M  V30 1037 C 104.174 -4.43318 1.10987 0
M  V30 1038 C 105.171 -4.78796 2.02609 0
M  V30 1039 C 102.856 -4.84194 1.33647 0
M  V30 1040 C 104.85 -5.53997 3.15224 0
M  V30 1041 C 102.537 -5.5915 2.46565 0
M  V30 1042 C 103.535 -5.93968 3.37182 0
M  V30 1043 O 103.223 -6.67405 4.48136 0
M  V30 1044 H 102.955 -0.673122 0.0623153 0
M  V30 1045 H 105.509 -1.88104 0.824981 0
M  V30 1046 H 103.739 -3.75919 -0.906745 0
M  V30 1047 H 105.428 -4.01775 -0.577201 0
M  V30 1048 H 106.194 -4.47781 1.86325 0
M  V30 1049 H 102.073 -4.56534 0.64016 0
M  V30 1050 H 105.617 -5.81091 3.85978 0
M  V30 1051 H 101.514 -5.89579 2.62805 0
M  V30 1052 H 102.282 -6.85847 4.46717 0
M  V30 1053 N 104.945 -0.338344 -1.53925 0
M  V30 1054 C 106.191 0.260143 -2.01125 0
M  V30 1055 C 106.524 1.50617 -1.22589 0
M  V30 1056 O 105.799 1.91979 -0.312113 0
M  V30 1057 C 106.082 0.579499 -3.55407 0
M  V30 1058 C 105.935 -0.678264 -4.44657 0
M  V30 1059 C 107.254 1.39122 -4.17532 0
M  V30 1060 H 104.373 0.0930772 -0.731099 0
M  V30 1061 H 107.015 -0.457852 -1.84401 0
M  V30 1062 H 105.165 1.19118 -3.69788 0
M  V30 1063 H 106.837 -1.31631 -4.42121 0
M  V30 1064 H 105.08 -1.3042 -4.13731 0
M  V30 1065 H 105.751 -0.410143 -5.50474 0
M  V30 1066 H 108.227 0.874035 -4.06817 0
M  V30 1067 H 107.103 1.58342 -5.25565 0
M  V30 1068 H 107.364 2.39178 -3.71815 0
M  V30 1069 N 106.423 1.57458 -0.0668435 0
M  V30 1070 C 107.386 2.11323 0.887422 0
M  V30 1071 C 108.386 1.03618 1.22964 0
M  V30 1072 O 109.576 1.29626 1.16373 0
M  V30 1073 C 106.708 2.61048 2.19242 0
M  V30 1074 H 107.901 2.96942 0.420194 0
M  V30 1075 H 105.454 1.55239 0.181793 0
M  V30 1076 H 106.189 1.78868 2.70512 0
M  V30 1077 H 105.974 3.39769 1.95702 0
M  V30 1078 H 107.464 3.02814 2.87565 0
M  V30 1079 N 107.901 -0.206675 1.56239 0
M  V30 1080 C 109.15 -0.926964 1.79138 0
M  V30 1081 C 109.463 -1.84901 0.638043 0
M  V30 1082 O 110.669 -2.60906 0.751033 0
M  V30 1083 C 109.125 -1.6986 3.17294 0
M  V30 1084 C 108.733 -0.821956 4.40395 0
M  V30 1085 C 110.477 -2.40922 3.4951 0
M  V30 1086 C 108.384 -1.59179 5.69575 0
M  V30 1087 H 107.314 -0.349864 0.667915 0
M  V30 1088 H 109.965 -0.180487 1.8261 0
M  V30 1089 H 108.347 -2.48853 3.08039 0
M  V30 1090 H 109.521 -0.0715019 4.60745 0
M  V30 1091 H 107.836 -0.222741 4.15804 0
M  V30 1092 H 110.433 -2.99047 4.43255 0
M  V30 1093 H 110.776 -3.14542 2.72707 0
M  V30 1094 H 111.309 -1.68905 3.60161 0
M  V30 1095 H 108.048 -0.898589 6.49312 0
M  V30 1096 H 107.568 -2.31648 5.53262 0
M  V30 1097 H 109.247 -2.14862 6.10281 0
M  V30 1098 N 109.379 -1.50304 -0.473955 0
M  V30 1099 C 110.326 -1.68959 -1.57231 0
M  V30 1100 C 111.296 -0.530899 -1.57387 0
M  V30 1101 O 112.481 -0.761133 -1.74961 0
M  V30 1102 C 109.621 -1.7871 -2.95223 0
M  V30 1103 C 108.734 -3.06061 -3.04878 0
M  V30 1104 C 107.869 -3.06626 -4.33767 0
M  V30 1105 C 106.908 -4.28443 -4.37154 0
M  V30 1106 N 106.045 -4.26763 -5.5751 0
M  V30 1107 H 110.885 -2.6273 -1.40631 0
M  V30 1108 H 108.422 -1.30241 -0.683789 0
M  V30 1109 H 110.38 -1.82344 -3.75242 0
M  V30 1110 H 109.01 -0.883806 -3.10465 0
M  V30 1111 H 108.062 -3.11911 -2.17751 0
M  V30 1112 H 109.374 -3.96039 -3.0324 0
M  V30 1113 H 108.528 -3.08973 -5.22131 0
M  V30 1114 H 107.267 -2.14473 -4.3801 0
M  V30 1115 H 106.272 -4.2631 -3.47188 0
M  V30 1116 H 107.497 -5.2182 -4.34605 0
M  V30 1117 H 105.443 -3.37462 -5.62544 0
M  V30 1118 H 105.36 -5.10507 -5.57601 0
M  V30 1119 H 106.628 -4.33253 -6.48006 0
M  V30 1120 N 110.857 0.726932 -1.39834 0
M  V30 1121 C 111.787 1.85405 -1.41941 0
M  V30 1122 C 112.768 1.67751 -0.281728 0
M  V30 1123 O 113.953 1.8795 -0.488717 0
M  V30 1124 C 111.083 3.23243 -1.2701 0
M  V30 1125 C 110.037 3.55549 -2.38262 0
M  V30 1126 C 109.363 4.9241 -2.08415 0
M  V30 1127 C 110.663 3.577 -3.80589 0
M  V30 1128 H 112.357 1.83899 -2.36266 0
M  V30 1129 H 109.903 0.883349 -1.13723 0
M  V30 1130 H 111.856 4.01775 -1.27103 0
M  V30 1131 H 110.58 3.25296 -0.291564 0
M  V30 1132 H 109.239 2.79351 -2.37399 0
M  V30 1133 H 108.887 4.91052 -1.0898 0
M  V30 1134 H 108.587 5.14992 -2.82943 0
M  V30 1135 H 110.111 5.73289 -2.10171 0
M  V30 1136 H 111.525 4.26293 -3.83337 0
M  V30 1137 H 109.922 3.91804 -4.54543 0
M  V30 1138 H 110.992 2.57328 -4.10987 0
M  V30 1139 N 112.336 1.25143 0.95797 0
M  V30 1140 C 113.246 1.06968 2.08794 0
M  V30 1141 C 114.262 0.00773911 1.73998 0
M  V30 1142 O 115.438 0.207972 2.00323 0
M  V30 1143 C 112.503 0.68691 3.39827 0
M  V30 1144 C 111.564 1.82641 3.88511 0
M  V30 1145 C 110.797 1.46181 5.1329 0
M  V30 1146 O 111.02 0.355971 5.69288 0
M  V30 1147 O 109.954 2.29085 5.566 0
M  V30 1148 H 113.78 2.01723 2.27027 0
M  V30 1149 H 111.365 1.04051 1.07209 0
M  V30 1150 H 113.247 0.485417 4.18595 0
M  V30 1151 H 111.922 -0.231417 3.22872 0
M  V30 1152 H 110.829 2.08274 3.10762 0
M  V30 1153 H 112.162 2.72386 4.09959 0
M  V30 1154 N 113.814 -1.1601 1.06675 0
M  V30 1155 C 115.225 -1.68235 0.809565 0
M  V30 1156 C 115.576 -1.8454 -0.666303 0
M  V30 1157 O 114.701 -1.54374 -1.5165 0
M  V30 1158 C 115.296 -3.05585 1.46299 0
M  V30 1159 C 113.855 -3.54915 1.25349 0
M  V30 1160 C 113.002 -2.30804 1.53703 0
M  V30 1161 H 115.953 -1.00318 1.22971 0
M  V30 1162 H 115.974 -3.70174 0.880431 0
M  V30 1163 H 115.486 -2.93686 2.53713 0
M  V30 1164 H 113.587 -3.72067 0.199261 0
M  V30 1165 H 113.7 -4.36774 1.9689 0
M  V30 1166 H 112.064 -2.36007 0.957739 0
M  V30 1167 H 112.847 -2.21499 2.62284 0
M  V30 1168 N 115.292 -0.849877 -1.32721 0
M  V30 1169 C 116.541 -0.447175 -1.96681 0
M  V30 1170 C 116.854 1.00135 -1.68025 0
M  V30 1171 O 118.06 1.50926 -2.25685 0
M  V30 1172 C 116.516 -0.7487 -3.52026 0
M  V30 1173 C 116.124 -2.21264 -3.89546 0
M  V30 1174 C 117.868 -0.413487 -4.22481 0
M  V30 1175 C 115.775 -2.45763 -5.37917 0
M  V30 1176 H 114.705 -0.163486 -0.736063 0
M  V30 1177 H 117.356 -1.03999 -1.51183 0
M  V30 1178 H 115.738 -0.0853727 -3.95908 0
M  V30 1179 H 116.912 -2.91736 -3.56689 0
M  V30 1180 H 115.227 -2.5119 -3.32103 0
M  V30 1181 H 117.824 -0.574017 -5.3161 0
M  V30 1182 H 118.167 0.644492 -4.11281 0
M  V30 1183 H 118.7 -1.03251 -3.84167 0
M  V30 1184 H 115.439 -3.50168 -5.54132 0
M  V30 1185 H 114.959 -1.79864 -5.72197 0
M  V30 1186 H 116.638 -2.29471 -6.0494 0
M  V30 1187 N 116.77 1.45427 -0.607355 0
M  V30 1188 C 117.717 2.3053 0.111625 0
M  V30 1189 C 118.687 1.4209 0.860216 0
M  V30 1190 O 119.872 1.71019 0.845998 0
M  V30 1191 C 117.012 3.26992 1.10319 0
M  V30 1192 C 116.125 4.30535 0.355493 0
M  V30 1193 C 115.26 5.14105 1.33676 0
M  V30 1194 C 114.299 6.09376 0.576862 0
M  V30 1195 N 113.436 6.85727 1.5074 0
M  V30 1196 H 118.276 2.91477 -0.620093 0
M  V30 1197 H 115.813 1.43631 -0.317594 0
M  V30 1198 H 117.771 3.81385 1.6912 0
M  V30 1199 H 116.401 2.67799 1.80232 0
M  V30 1200 H 115.453 3.78805 -0.348023 0
M  V30 1201 H 116.765 4.98235 -0.237423 0
M  V30 1202 H 115.919 5.72897 1.99684 0
M  V30 1203 H 114.658 4.46423 1.9636 0
M  V30 1204 H 113.663 5.49715 -0.0968519 0
M  V30 1205 H 114.888 6.79085 -0.0449341 0
M  V30 1206 H 112.834 6.20735 2.12189 0
M  V30 1207 H 112.751 7.49778 0.967913 0
M  V30 1208 H 114.019 7.4906 2.15706 0
M  V30 1209 N 118.248 0.346503 1.53744 0
M  V30 1210 C 119.473 -0.253074 2.0585 0
M  V30 1211 C 119.898 -1.43202 1.21962 0
M  V30 1212 O 119.256 -1.79783 0.234073 0
M  V30 1213 C 119.304 -0.643193 3.54817 0
M  V30 1214 O 118.408 -1.74286 3.73762 0
M  V30 1215 H 117.749 -0.0413583 0.662711 0
M  V30 1216 H 120.279 0.501574 1.98357 0
M  V30 1217 H 120.289 -0.919526 3.97503 0
M  V30 1218 H 118.964 0.218966 4.15323 0
M  V30 1219 H 117.541 -1.46356 3.42979 0
M  V30 1220 N 119.726 -1.57421 0.075193 0
M  V30 1221 C 121.142 -1.57099 -0.281444 0
M  V30 1222 C 121.342 -1.08486 -1.69803 0
M  V30 1223 O 120.398 -0.752279 -2.41033 0
M  V30 1224 C 121.711 -3.00571 -0.0880041 0
M  V30 1225 C 123.259 -3.12605 -0.157281 0
M  V30 1226 C 123.734 -4.57999 0.0079207 0
M  V30 1227 N 125.225 -4.63176 -0.0475725 0
M  V30 1228 C 125.96 -5.73373 0.0557876 0
M  V30 1229 N 125.456 -6.92473 0.21286 0
M  V30 1230 N 127.249 -5.621 -0.00152098 0
M  V30 1231 H 119.4 -1.87335 1.00098 0
M  V30 1232 H 121.663 -0.86377 0.390646 0
M  V30 1233 H 121.369 -3.40262 0.889629 0
M  V30 1234 H 121.243 -3.67754 -0.838875 0
M  V30 1235 H 123.63 -2.72798 -1.1254 0
M  V30 1236 H 123.711 -2.48053 0.62475 0
M  V30 1237 H 123.355 -4.98496 0.972824 0
M  V30 1238 H 123.285 -5.20586 -0.793556 0
M  V30 1239 H 125.776 -3.7753 -0.167244 0
M  V30 1240 H 126.089 -7.72279 0.283781 0
M  V30 1241 H 124.434 -6.94556 0.248267 0
M  V30 1242 H 127.625 -4.67938 -0.122958 0
M  V30 1243 H 127.798 -6.47948 0.0824844 0
M  V30 1244 N 121.204 0.198386 -1.56346 0
M  V30 1245 C 122.167 1.22952 -1.93431 0
M  V30 1246 C 123.167 1.38611 -0.815092 0
M  V30 1247 O 124.357 1.36479 -1.08255 0
M  V30 1248 C 121.489 2.59946 -2.20546 0
M  V30 1249 H 122.682 0.912626 -2.85677 0
M  V30 1250 H 120.235 0.43977 -1.49986 0
M  V30 1251 H 120.97 2.96696 -1.30927 0
M  V30 1252 H 120.755 2.49953 -3.02102 0
M  V30 1253 H 122.245 3.3431 -2.50253 0
M  V30 1254 N 122.682 1.50554 0.465978 0
M  V30 1255 C 124.093 1.54599 1.04671 0
M  V30 1256 C 124.444 0.352488 1.93008 0
M  V30 1257 O 123.569 -0.534044 2.09707 0
M  V30 1258 C 124.164 2.80166 1.90505 0
M  V30 1259 C 122.723 2.86876 2.43678 0
M  V30 1260 C 121.87 2.48947 1.22151 0
M  V30 1261 H 124.821 1.56744 0.248384 0
M  V30 1262 H 124.842 2.62311 2.75633 0
M  V30 1263 H 124.354 3.67013 1.26186 0
M  V30 1264 H 122.455 2.04393 3.11536 0
M  V30 1265 H 122.568 3.89885 2.78436 0
M  V30 1266 H 120.932 2.01498 1.5579 0
M  V30 1267 H 121.715 3.38107 0.594866 0
M  V30 1268 N 124.16 -0.719506 1.40217 0
M  V30 1269 C 125.092 -1.84428 1.36084 0
M  V30 1270 C 126.105 -1.60597 0.266913 0
M  V30 1271 O 127.294 -1.70544 0.526983 0
M  V30 1272 C 124.394 -3.20757 1.094 0
M  V30 1273 C 123.567 -3.71817 2.30372 0
M  V30 1274 C 122.626 -4.86748 1.99907 0
M  V30 1275 O 121.652 -4.99603 2.72737 0
M  V30 1276 N 122.854 -5.7226 0.974635 0
M  V30 1277 H 125.619 -1.88473 2.33019 0
M  V30 1278 H 123.18 -0.900885 1.3452 0
M  V30 1279 H 125.172 -3.95235 0.870116 0
M  V30 1280 H 123.742 -3.11884 0.211452 0
M  V30 1281 H 122.962 -2.88514 2.68614 0
M  V30 1282 H 124.25 -4.02666 3.11026 0
M  V30 1283 H 123.648 -5.6448 0.371368 0
M  V30 1284 H 122.205 -6.46739 0.810656 0
M  V30 1285 N 125.638 -1.25649 -0.95132 0
M  V30 1286 C 126.568 -1.08808 -2.06599 0
M  V30 1287 C 127.549 0.00382547 -1.701 0
M  V30 1288 O 128.734 -0.166325 -1.93486 0
M  V30 1289 C 125.864 -0.709542 -3.39975 0
M  V30 1290 C 124.818 -1.75206 -3.90496 0
M  V30 1291 C 124.144 -1.22811 -5.20405 0
M  V30 1292 C 125.444 -3.15153 -4.16504 0
M  V30 1293 H 127.138 -2.02048 -2.20946 0
M  V30 1294 H 124.684 -0.972835 -1.06169 0
M  V30 1295 H 126.637 -0.578649 -4.17408 0
M  V30 1296 H 125.361 0.258556 -3.25575 0
M  V30 1297 H 124.02 -1.87145 -3.15234 0
M  V30 1298 H 123.668 -0.250145 -5.02378 0
M  V30 1299 H 123.368 -1.92492 -5.55176 0
M  V30 1300 H 124.892 -1.10968 -6.00432 0
M  V30 1301 H 126.306 -3.06349 -4.84586 0
M  V30 1302 H 124.703 -3.82333 -4.62538 0
M  V30 1303 H 125.773 -3.61966 -3.22658 0
M  V30 1304 N 127.117 1.15442 -1.07289 0
M  V30 1305 C 128.067 2.18164 -0.662467 0
M  V30 1306 C 129.051 1.57845 0.312074 0
M  V30 1307 O 130.243 1.76552 0.125905 0
M  V30 1308 C 127.372 3.43246 -0.0611295 0
M  V30 1309 C 126.458 4.1062 -1.06077 0
M  V30 1310 N 126.849 4.53491 -2.24008 0
M  V30 1311 C 125.147 4.36949 -0.893964 0
M  V30 1312 C 125.848 5.05731 -2.87422 0
M  V30 1313 N 124.824 4.99236 -2.15091 0
M  V30 1314 H 128.626 2.49038 -1.56068 0
M  V30 1315 H 126.14 1.32003 -0.945988 0
M  V30 1316 H 128.137 4.16145 0.250792 0
M  V30 1317 H 126.797 3.13854 0.832207 0
M  V30 1318 H 127.808 4.46898 -2.6173 0
M  V30 1319 H 124.485 4.17466 -0.0534693 0
M  V30 1320 H 125.875 5.48865 -3.87553 0
M  V30 1321 N 128.595 0.856903 1.32268 0
M  V30 1322 C 129.525 0.31858 2.31316 0
M  V30 1323 C 130.506 -0.583487 1.59779 0
M  V30 1324 O 131.691 -0.503259 1.87566 0
M  V30 1325 C 128.821 -0.491979 3.43798 0
M  V30 1326 C 127.775 0.315849 4.26833 0
M  V30 1327 C 127.101 -0.619586 5.31098 0
M  V30 1328 C 128.401 1.54282 4.98993 0
M  V30 1329 H 130.095 1.14621 2.76591 0
M  V30 1330 H 127.641 0.552613 1.32974 0
M  V30 1331 H 129.594 -0.879012 4.1213 0
M  V30 1332 H 128.318 -1.35299 2.97257 0
M  V30 1333 H 126.977 0.684664 3.6015 0
M  V30 1334 H 126.625 -1.47751 4.8081 0
M  V30 1335 H 126.325 -0.0830621 5.87541 0
M  V30 1336 H 127.849 -1.00375 6.02293 0
M  V30 1337 H 129.263 1.22796 5.59995 0
M  V30 1338 H 127.66 2.01745 5.65172 0
M  V30 1339 H 128.73 2.30285 4.26728 0
M  V30 1340 N 130.073 -1.45103 0.615059 0
M  V30 1341 C 130.983 -2.34382 -0.101034 0
M  V30 1342 C 131.999 -1.51681 -0.852585 0
M  V30 1343 O 133.175 -1.8446 -0.808484 0
M  V30 1344 C 130.24 -3.29417 -1.08099 0
M  V30 1345 C 129.301 -4.28025 -0.330577 0
M  V30 1346 C 128.534 -5.1852 -1.26385 0
M  V30 1347 O 128.757 -5.12598 -2.50198 0
M  V30 1348 O 127.691 -5.97122 -0.756866 0
M  V30 1349 H 131.517 -2.97033 0.632855 0
M  V30 1350 H 129.102 -1.4461 0.375293 0
M  V30 1351 H 130.984 -3.87958 -1.6452 0
M  V30 1352 H 129.659 -2.69321 -1.79577 0
M  V30 1353 H 128.566 -3.73078 0.276283 0
M  V30 1354 H 129.899 -4.90997 0.343866 0
M  V30 1355 N 131.551 -0.354651 -1.53558 0
M  V30 1356 C 132.781 0.239167 -2.05211 0
M  V30 1357 C 133.189 1.43879 -1.22863 0
M  V30 1358 O 132.532 1.81857 -0.259565 0
M  V30 1359 C 132.594 0.707251 -3.52474 0
M  V30 1360 C 132.258 -0.374212 -4.55465 0
M  V30 1361 C 133.255 -1.22054 -5.0537 0
M  V30 1362 C 130.94 -0.531323 -4.99482 0
M  V30 1363 C 132.934 -2.20942 -5.97882 0
M  V30 1364 C 130.621 -1.52358 -5.91802 0
M  V30 1365 C 131.619 -2.36108 -6.40892 0
M  V30 1366 O 131.307 -3.33643 -7.31394 0
M  V30 1367 H 131.039 0.0479716 -0.674296 0
M  V30 1368 H 133.593 -0.508121 -1.99016 0
M  V30 1369 H 131.823 1.50596 -3.56171 0
M  V30 1370 H 133.512 1.22285 -3.87042 0
M  V30 1371 H 134.278 -1.1103 -4.7212 0
M  V30 1372 H 130.157 0.110738 -4.60867 0
M  V30 1373 H 133.701 -2.86348 -6.36121 0
M  V30 1374 H 129.598 -1.63434 -6.24467 0
M  V30 1375 H 130.366 -3.29244 -7.4936 0
M  V30 1376 N 133.029 1.57378 -0.0835403 0
M  V30 1377 C 134.445 1.57246 0.273109 0
M  V30 1378 C 134.645 1.09385 1.69225 0
M  V30 1379 O 133.701 0.765051 2.40631 0
M  V30 1380 C 135.014 3.00614 0.0720628 0
M  V30 1381 C 136.562 3.12684 0.1407 0
M  V30 1382 C 137.037 4.57989 -0.0322094 0
M  V30 1383 N 138.528 4.63194 0.0230085 0
M  V30 1384 C 139.263 5.73335 -0.0861941 0
M  V30 1385 N 138.759 6.9235 -0.24958 0
M  V30 1386 N 140.552 5.62093 -0.0282886 0
M  V30 1387 H 132.703 1.86801 -1.0109 0
M  V30 1388 H 134.966 0.861687 -0.395222 0
M  V30 1389 H 134.672 3.39786 -0.907662 0
M  V30 1390 H 134.546 3.68193 0.81936 0
M  V30 1391 H 136.933 2.73391 1.11092 0
M  V30 1392 H 137.014 2.47719 -0.637896 0
M  V30 1393 H 136.658 4.97973 -0.999247 0
M  V30 1394 H 136.588 5.21 0.765937 0
M  V30 1395 H 139.079 3.77613 0.14722 0
M  V30 1396 H 139.392 7.72117 -0.324733 0
M  V30 1397 H 137.737 6.94415 -0.285097 0
M  V30 1398 H 140.928 4.67997 0.0981408 0
M  V30 1399 H 141.101 6.47895 -0.116845 0
M  V30 1400 N 134.507 -0.190092 1.56449 0
M  V30 1401 C 135.754 -0.909705 1.80916 0
M  V30 1402 C 136.082 -1.83047 0.657583 0
M  V30 1403 O 135.337 -1.92428 -0.356356 0
M  V30 1404 C 135.636 -1.75382 3.1141 0
M  V30 1405 C 135.302 -0.983606 4.40041 0
M  V30 1406 C 133.964 -0.770967 4.74984 0
M  V30 1407 C 136.316 -0.442024 5.19322 0
M  V30 1408 C 133.644 -0.0053448 5.867 0
M  V30 1409 C 135.996 0.310412 6.31838 0
M  V30 1410 C 134.66 0.534023 6.6536 0
M  V30 1411 H 133.93 -0.332885 0.662019 0
M  V30 1412 H 136.577 -0.175762 1.90692 0
M  V30 1413 H 134.882 -2.55659 2.96893 0
M  V30 1414 H 136.579 -2.31331 3.27547 0
M  V30 1415 H 133.169 -1.15936 4.12622 0
M  V30 1416 H 137.353 -0.593693 4.92736 0
M  V30 1417 H 132.609 0.177825 6.11141 0
M  V30 1418 H 136.783 0.737419 6.92485 0
M  V30 1419 H 134.41 1.12918 7.51767 0
M  V30 1420 N 135.985 -1.50799 -0.457987 0
M  V30 1421 C 137.215 -1.65977 -1.23025 0
M  V30 1422 C 137.623 -0.347918 -1.85974 0
M  V30 1423 O 136.966 0.68148 -1.70592 0
M  V30 1424 C 137.028 -2.70309 -2.3701 0
M  V30 1425 C 136.692 -4.135 -1.94594 0
M  V30 1426 C 137.689 -4.98949 -1.46101 0
M  V30 1427 C 135.374 -4.5949 -2.02915 0
M  V30 1428 C 137.368 -6.28442 -1.06489 0
M  V30 1429 C 135.055 -5.88984 -1.62914 0
M  V30 1430 C 136.053 -6.73286 -1.1478 0
M  V30 1431 O 135.741 -8.00362 -0.75339 0
M  V30 1432 H 135.473 -0.56064 -0.377702 0
M  V30 1433 H 138.027 -1.97857 -0.551537 0
M  V30 1434 H 136.257 -2.337 -3.08093 0
M  V30 1435 H 137.946 -2.74574 -2.98938 0
M  V30 1436 H 138.712 -4.6463 -1.39084 0
M  V30 1437 H 134.591 -3.94009 -2.39328 0
M  V30 1438 H 138.135 -6.94194 -0.688488 0
M  V30 1439 H 134.032 -6.22822 -1.69595 0
M  V30 1440 H 134.8 -8.13744 -0.88108 0
M  V30 1441 N 137.463 0.71206 -1.40597 0
M  V30 1442 C 138.41 1.82613 -1.41142 0
M  V30 1443 C 139.38 1.63925 -0.267903 0
M  V30 1444 O 140.565 1.85009 -0.466495 0
M  V30 1445 C 137.705 3.20354 -1.28324 0
M  V30 1446 C 136.818 3.50589 -2.52411 0
M  V30 1447 C 135.953 4.77855 -2.32009 0
M  V30 1448 C 134.992 5.01005 -3.51654 0
M  V30 1449 N 134.129 6.19487 -3.30425 0
M  V30 1450 H 138.969 1.81482 -2.36365 0
M  V30 1451 H 136.506 0.886475 -1.17388 0
M  V30 1452 H 138.464 3.99899 -1.18899 0
M  V30 1453 H 137.094 3.20705 -0.367189 0
M  V30 1454 H 136.146 2.65573 -2.72351 0
M  V30 1455 H 137.458 3.63604 -3.41458 0
M  V30 1456 H 136.612 5.65424 -2.19956 0
M  V30 1457 H 135.351 4.67056 -1.40392 0
M  V30 1458 H 134.356 4.1189 -3.64179 0
M  V30 1459 H 135.581 5.13674 -4.44202 0
M  V30 1460 H 133.527 6.09932 -2.41494 0
M  V30 1461 H 133.444 6.33194 -4.13039 0
M  V30 1462 H 134.712 7.09834 -3.22113 0
M  V30 1463 N 138.941 1.26152 0.944643 0
M  V30 1464 C 139.873 1.03199 2.04652 0
M  V30 1465 C 140.886 -0.00642356 1.62799 0
M  V30 1466 O 142.075 0.233263 1.76969 0
M  V30 1467 C 139.175 0.540111 3.34568 0
M  V30 1468 C 138.348 1.64697 4.05208 0
M  V30 1469 C 137.407 1.15374 5.13396 0
M  V30 1470 O 136.433 1.85013 5.38293 0
M  V30 1471 N 137.635 0.00031529 5.805 0
M  V30 1472 H 140.4 1.9808 2.2491 0
M  V30 1473 H 137.961 1.17491 1.11389 0
M  V30 1474 H 139.953 0.194401 4.04233 0
M  V30 1475 H 138.523 -0.315021 3.11009 0
M  V30 1476 H 137.743 2.16379 3.29506 0
M  V30 1477 H 139.031 2.3903 4.49157 0
M  V30 1478 H 138.429 -0.581336 5.62705 0
M  V30 1479 H 136.986 -0.286346 6.51171 0
M  V30 1480 N 140.419 -1.14872 1.07899 0
M  V30 1481 C 141.349 -2.2193 0.725887 0
M  V30 1482 C 142.33 -1.67622 -0.28927 0
M  V30 1483 O 143.515 -1.93533 -0.160787 0
M  V30 1484 C 140.645 -3.47061 0.128856 0
M  V30 1485 C 139.599 -4.14363 1.07178 0
M  V30 1486 C 138.925 -5.33636 0.337229 0
M  V30 1487 C 140.225 -4.63492 2.40775 0
M  V30 1488 H 141.919 -2.51724 1.62097 0
M  V30 1489 H 139.465 -1.20991 0.780838 0
M  V30 1490 H 141.418 -4.21199 -0.130147 0
M  V30 1491 H 140.142 -3.16617 -0.80134 0
M  V30 1492 H 138.801 -3.42173 1.3158 0
M  V30 1493 H 138.449 -4.99449 -0.596606 0
M  V30 1494 H 138.149 -5.79609 0.965788 0
M  V30 1495 H 139.673 -6.10539 0.0861567 0
M  V30 1496 H 141.087 -5.2913 2.20669 0
M  V30 1497 H 139.484 -5.20148 2.99276 0
M  V30 1498 H 140.554 -3.78834 3.02676 0
M  V30 1499 N 141.898 -0.863906 -1.31812 0
M  V30 1500 C 143.123 -0.48527 -2.01643 0
M  V30 1501 C 143.548 0.913058 -1.64453 0
M  V30 1502 O 142.906 1.6014 -0.849985 0
M  V30 1503 C 142.954 -0.642625 -3.54828 0
M  V30 1504 O 142.058 0.320659 -4.11151 0
M  V30 1505 H 141.399 -0.193793 -0.635091 0
M  V30 1506 H 143.929 -1.16565 -1.68148 0
M  V30 1507 H 143.939 -0.533628 -4.04495 0
M  V30 1508 H 142.614 -1.66227 -3.81237 0
M  V30 1509 H 141.191 0.167126 -3.72525 0
M  V30 1510 N 143.376 1.44774 -0.622745 0
M  V30 1511 C 144.339 2.29069 0.0774015 0
M  V30 1512 C 145.339 1.4059 0.780461 0
M  V30 1513 O 146.529 1.62551 0.626322 0
M  V30 1514 C 143.661 3.21974 1.12006 0
M  V30 1515 H 144.854 2.92459 -0.663901 0
M  V30 1516 H 142.407 1.51548 -0.382486 0
M  V30 1517 H 143.142 2.63417 1.89162 0
M  V30 1518 H 142.927 3.87168 0.619951 0
M  V30 1519 H 144.417 3.85318 1.60995 0
M  V30 1520 N 144.854 0.36279 1.53368 0
M  V30 1521 C 146.082 -0.228613 2.05633 0
M  V30 1522 C 146.497 -1.42676 1.23649 0
M  V30 1523 O 145.854 -1.80394 0.27647 0
M  V30 1524 C 145.905 -0.624845 3.56059 0
M  V30 1525 O 145.626 0.525675 4.34935 0
M  V30 1526 C 147.127 -1.27493 4.24571 0
M  V30 1527 H 144.347 -0.0407183 0.669763 0
M  V30 1528 H 146.891 0.520352 1.97769 0
M  V30 1529 H 145.046 -1.32373 3.64083 0
M  V30 1530 H 145.46 0.205969 5.24095 0
M  V30 1531 H 146.934 -1.50277 5.31151 0
M  V30 1532 H 147.411 -2.23439 3.78116 0
M  V30 1533 H 148.017 -0.617558 4.20792 0
M  V30 1534 N 146.332 -1.57332 0.0918853 0
M  V30 1535 C 147.242 -2.17368 -0.882505 0
M  V30 1536 C 148.258 -1.14226 -1.31257 0
M  V30 1537 O 149.434 -1.46582 -1.38115 0
M  V30 1538 C 146.499 -2.73962 -2.12476 0
M  V30 1539 C 145.56 -3.92048 -1.7492 0
M  V30 1540 C 144.793 -4.45933 -2.93223 0
M  V30 1541 O 145.016 -3.98764 -4.07852 0
M  V30 1542 O 143.95 -5.36999 -2.71875 0
M  V30 1543 H 147.776 -3.01031 -0.40172 0
M  V30 1544 H 145.361 -1.48813 -0.132291 0
M  V30 1545 H 147.243 -3.10147 -2.85283 0
M  V30 1546 H 145.918 -1.93347 -2.59613 0
M  V30 1547 H 144.825 -3.6068 -0.993025 0
M  V30 1548 H 146.158 -4.74017 -1.32548 0
M  V30 1549 N 147.81 0.181792 -1.56548 0
M  V30 1550 C 149.058 0.89832 -1.81038 0
M  V30 1551 C 149.379 1.83232 -0.667164 0
M  V30 1552 O 148.649 1.93372 0.313673 0
M  V30 1553 H 147.229 0.33471 -0.667816 0
M  V30 1554 H 149.891 0.184116 -1.94028 0
M  V30 1555 H 148.987 1.4815 -2.74696 0
M  V30 1556 N 149.288 1.51039 0.449983 0
M  V30 1557 C 150.534 1.63322 1.20223 0
M  V30 1558 C 150.867 0.34241 1.91158 0
M  V30 1559 O 150.142 -0.657344 1.83055 0
M  V30 1560 C 150.425 2.82801 2.22925 0
M  V30 1561 C 150.278 4.21823 1.56157 0
M  V30 1562 C 151.597 2.97807 3.24035 0
M  V30 1563 H 148.716 0.594407 0.435718 0
M  V30 1564 H 151.358 1.83489 0.493136 0
M  V30 1565 H 149.508 2.65738 2.834 0
M  V30 1566 H 151.18 4.50526 0.991162 0
M  V30 1567 H 149.423 4.25105 0.864172 0
M  V30 1568 H 150.094 5.01391 2.30891 0
M  V30 1569 H 152.57 3.13497 2.73603 0
M  V30 1570 H 151.446 3.82992 3.93202 0
M  V30 1571 H 151.707 2.09328 3.89402 0
M  V30 1572 N 150.766 -0.704594 1.40972 0
M  V30 1573 C 152.177 -1.28418 1.3552 0
M  V30 1574 C 152.528 -1.96171 0.0339434 0
M  V30 1575 O 151.653 -1.98231 -0.867944 0
M  V30 1576 C 152.248 -2.33528 2.45459 0
M  V30 1577 C 150.807 -2.87085 2.43433 0
M  V30 1578 C 149.954 -1.61007 2.2577 0
M  V30 1579 H 152.905 -0.499963 1.50619 0
M  V30 1580 H 152.926 -3.14619 2.13998 0
M  V30 1581 H 152.438 -1.84187 3.41609 0
M  V30 1582 H 150.539 -3.40626 1.51013 0
M  V30 1583 H 150.652 -3.3813 3.39419 0
M  V30 1584 H 149.016 -1.86482 1.73483 0
M  V30 1585 H 149.799 -1.13675 3.23933 0
M  V30 1586 N 152.244 -1.26651 -0.937939 0
M  V30 1587 C 153.176 -1.04283 -2.04102 0
M  V30 1588 C 154.189 -0.00221014 -1.628 0
M  V30 1589 O 155.378 -0.242645 -1.76843 0
M  V30 1590 C 152.478 -0.557846 -3.34277 0
M  V30 1591 C 151.651 -1.66843 -4.04329 0
M  V30 1592 C 150.71 -1.18095 -5.12777 0
M  V30 1593 O 149.736 -1.87865 -5.37304 0
M  V30 1594 N 150.938 -0.0311006 -5.80492 0
M  V30 1595 H 153.703 -1.9927 -2.23856 0
M  V30 1596 H 151.264 -1.1808 -1.10764 0
M  V30 1597 H 153.256 -0.215836 -4.04124 0
M  V30 1598 H 151.826 0.298523 -3.11171 0
M  V30 1599 H 151.046 -2.18123 -3.28353 0
M  V30 1600 H 152.334 -2.41408 -4.47883 0
M  V30 1601 H 151.732 0.551486 -5.63005 0
M  V30 1602 H 150.289 0.251809 -6.51313 0
M  V30 1603 N 153.722 1.14298 -1.08507 0
M  V30 1604 C 154.968 1.85633 -0.816581 0
M  V30 1605 C 155.301 1.82784 0.656021 0
M  V30 1606 O 154.576 1.25926 1.48233 0
M  V30 1607 C 154.859 3.34223 -1.34041 0
M  V30 1608 C 154.712 3.45639 -2.87843 0
M  V30 1609 C 156.031 4.29356 -0.9665 0
M  V30 1610 H 153.15 0.67402 -0.298104 0
M  V30 1611 H 155.792 1.34214 -1.34487 0
M  V30 1612 H 153.942 3.78144 -0.89104 0
M  V30 1613 H 155.614 3.10498 -3.41158 0
M  V30 1614 H 153.857 2.86817 -3.25451 0
M  V30 1615 H 154.528 4.50089 -3.19569 0
M  V30 1616 H 157.004 3.93457 -1.35391 0
M  V30 1617 H 155.88 5.3178 -1.3602 0
M  V30 1618 H 156.141 4.41919 0.126362 0
M  V30 1619 N 155.201 0.870884 1.31352 0
M  V30 1620 C 156.431 0.496049 2.00557 0
M  V30 1621 C 156.839 -0.916241 1.65534 0
M  V30 1622 O 156.182 -1.61188 0.881134 0
M  V30 1623 C 156.244 0.574418 3.54881 0
M  V30 1624 C 155.908 1.94849 4.1338 0
M  V30 1625 C 156.905 2.91611 4.30417 0
M  V30 1626 C 154.59 2.25005 4.49086 0
M  V30 1627 C 156.584 4.16672 4.82352 0
M  V30 1628 C 154.271 3.50315 5.00722 0
M  V30 1629 C 155.269 4.45964 5.17306 0
M  V30 1630 O 154.957 5.69052 5.67833 0
M  V30 1631 H 154.689 0.191664 0.64826 0
M  V30 1632 H 157.243 1.17409 1.68536 0
M  V30 1633 H 155.473 -0.160549 3.86367 0
M  V30 1634 H 157.162 0.212879 4.05341 0
M  V30 1635 H 157.928 2.69622 4.03149 0
M  V30 1636 H 153.807 1.51332 4.35453 0
M  V30 1637 H 157.351 4.91336 4.95211 0
M  V30 1638 H 153.248 3.72147 5.27424 0
M  V30 1639 H 154.016 5.71236 5.86201 0
M  V30 1640 N 156.679 -1.44442 0.630414 0
M  V30 1641 C 157.909 -2.06115 0.141465 0
M  V30 1642 C 158.317 -1.47179 -1.1889 0
M  V30 1643 O 157.66 -0.588873 -1.74006 0
M  V30 1644 C 157.722 -3.59467 -0.0484355 0
M  V30 1645 C 157.386 -4.40864 1.20366 0
M  V30 1646 C 158.383 -4.74391 2.12719 0
M  V30 1647 C 156.068 -4.8125 1.43887 0
M  V30 1648 C 158.062 -5.47186 3.26904 0
M  V30 1649 C 155.749 -5.53795 2.5837 0
M  V30 1650 C 156.747 -5.86682 3.49705 0
M  V30 1651 O 156.435 -6.57749 4.62191 0
M  V30 1652 H 156.167 -0.671648 0.0765792 0
M  V30 1653 H 158.721 -1.86312 0.864695 0
M  V30 1654 H 156.951 -3.77758 -0.826803 0
M  V30 1655 H 158.64 -4.02909 -0.491849 0
M  V30 1656 H 159.406 -4.43728 1.95781 0
M  V30 1657 H 155.285 -4.55073 0.736853 0
M  V30 1658 H 158.829 -5.72773 3.98217 0
M  V30 1659 H 154.726 -5.83872 2.75251 0
M  V30 1660 H 155.494 -6.76217 4.61164 0
M  V30 1661 N 158.157 -0.370918 -1.53173 0
M  V30 1662 C 159.404 0.217102 -2.01333 0
M  V30 1663 C 159.732 1.48338 -1.25802 0
M  V30 1664 O 158.987 1.92698 -0.34146 0
M  V30 1665 C 159.286 0.549696 -3.53147 0
M  V30 1666 C 158.952 -0.622872 -4.46577 0
M  V30 1667 C 157.614 -0.944595 -4.71838 0
M  V30 1668 C 159.966 -1.40819 -5.01816 0
M  V30 1669 C 157.294 -2.05351 -5.49589 0
M  V30 1670 C 159.646 -2.50757 -5.80778 0
M  V30 1671 C 158.31 -2.83458 -6.04324 0
M  V30 1672 H 157.58 0.0794431 -0.736729 0
M  V30 1673 H 160.227 -0.504481 -1.84736 0
M  V30 1674 H 158.532 1.35237 -3.6772 0
M  V30 1675 H 160.229 1.017 -3.87889 0
M  V30 1676 H 156.819 -0.36209 -4.27068 0
M  V30 1677 H 161.003 -1.17289 -4.82242 0
M  V30 1678 H 156.259 -2.3108 -5.6605 0
M  V30 1679 H 160.433 -3.12022 -6.22588 0
M  V30 1680 H 158.06 -3.69508 -6.64355 0
M  V30 1681 N 159.635 1.57281 -0.100228 0
M  V30 1682 C 160.883 1.94153 0.561157 0
M  V30 1683 C 161.204 0.983157 1.68401 0
M  V30 1684 O 160.474 0.0361132 1.95867 0
M  V30 1685 H 159.054 0.716791 0.210283 0
M  V30 1686 H 161.716 1.94202 -0.164765 0
M  V30 1687 H 160.812 2.96709 0.968008 0
M  V30 1688 N 161.113 -0.173488 1.56642 0
M  V30 1689 C 162.524 -0.736155 1.71574 0
M  V30 1690 C 162.875 -1.82888 0.710389 0
M  V30 1691 O 162 -2.16017 -0.1287 0
M  V30 1692 C 162.595 -1.34211 3.11083 0
M  V30 1693 C 161.154 -1.85162 3.27707 0
M  V30 1694 C 160.301 -0.729765 2.67525 0
M  V30 1695 H 163.252 0.0518786 1.58615 0
M  V30 1696 H 163.273 -2.21178 3.09613 0
M  V30 1697 H 162.785 -0.546579 3.84232 0
M  V30 1698 H 160.886 -2.67366 2.59512 0
M  V30 1699 H 160.999 -1.99855 4.35425 0
M  V30 1700 H 159.363 -1.14965 2.27278 0
M  V30 1701 H 160.146 0.0538806 3.43258 0
M  V30 1702 N 162.591 -1.51276 -0.441967 0
M  V30 1703 C 163.831 -1.65372 -1.20132 0
M  V30 1704 C 164.195 -0.359871 -1.88597 0
M  V30 1705 O 165.396 -0.376551 -2.66149 0
M  V30 1706 C 163.667 -2.8207 -2.1948 0
M  V30 1707 S 165.226 -3.16467 -3.03964 0
M  V30 1708 H 162.044 -0.582669 -0.407453 0
M  V30 1709 H 164.646 -1.89166 -0.493609 0
M  V30 1710 H 163.35 -3.74523 -1.67812 0
M  V30 1711 H 162.881 -2.6045 -2.94838 0
M  V30 1712 H 164.896 -2.62543 -4.21053 0
M  V30 1713 N 164.069 0.697108 -1.41344 0
M  V30 1714 C 165.317 1.45426 -1.40341 0
M  V30 1715 C 165.638 1.94996 -0.0128787 0
M  V30 1716 O 164.908 1.71599 0.945027 0
M  V30 1717 H 163.488 0.539594 -0.516573 0
M  V30 1718 H 166.15 0.825201 -1.76569 0
M  V30 1719 H 165.246 2.31817 -2.08967 0
M  V30 1720 N 165.547 1.27147 0.931209 0
M  V30 1721 C 166.494 1.09568 2.03134 0
M  V30 1722 C 167.464 -0.00222433 1.661 0
M  V30 1723 O 168.649 0.159439 1.90133 0
M  V30 1724 C 165.789 0.745231 3.36957 0
M  V30 1725 C 164.902 1.92041 3.86968 0
M  V30 1726 C 164.037 1.51216 5.09222 0
M  V30 1727 C 163.076 2.65504 5.5152 0
M  V30 1728 N 162.213 2.25291 6.64972 0
M  V30 1729 H 167.053 2.03708 2.17502 0
M  V30 1730 H 164.59 1.01411 1.06556 0
M  V30 1731 H 166.548 0.522878 4.1391 0
M  V30 1732 H 165.178 -0.159202 3.22407 0
M  V30 1733 H 164.23 2.25541 3.06326 0
M  V30 1734 H 165.542 2.77787 4.1429 0
M  V30 1735 H 164.696 1.25084 5.93666 0
M  V30 1736 H 163.435 0.625749 4.83669 0
M  V30 1737 H 162.44 2.92354 4.65628 0
M  V30 1738 H 163.665 3.54761 5.7907 0
M  V30 1739 H 161.611 1.39098 6.41083 0
M  V30 1740 H 161.528 3.04577 6.91931 0
M  V30 1741 H 162.796 2.02398 7.52765 0
M  V30 1742 N 167.025 -1.13721 1.09112 0
M  V30 1743 C 168.255 -1.88499 0.845671 0
M  V30 1744 C 168.663 -1.79218 -0.606432 0
M  V30 1745 O 168.006 -1.1544 -1.42896 0
M  V30 1746 C 168.068 -3.38954 1.19793 0
M  V30 1747 C 167.732 -3.72018 2.65428 0
M  V30 1748 C 168.729 -3.7153 3.63677 0
M  V30 1749 C 166.414 -4.01775 3.01467 0
M  V30 1750 C 168.408 -4.00336 4.95994 0
M  V30 1751 C 166.095 -4.30243 4.33975 0
M  V30 1752 C 167.093 -4.29508 5.31048 0
M  V30 1753 O 166.781 -4.5728 6.61173 0
M  V30 1754 H 166.513 -0.603702 0.304171 0
M  V30 1755 H 169.067 -1.44903 1.45576 0
M  V30 1756 H 167.297 -3.83039 0.530871 0
M  V30 1757 H 168.986 -3.95052 0.932146 0
M  V30 1758 H 169.752 -3.4862 3.37179 0
M  V30 1759 H 165.631 -4.01496 2.26544 0
M  V30 1760 H 169.175 -3.99678 5.71755 0
M  V30 1761 H 165.072 -4.52625 4.60219 0
M  V30 1762 H 165.84 -4.74964 6.66597 0
M  V30 1763 N 168.503 -0.877838 -1.30888 0
M  V30 1764 C 169.451 -0.328662 -2.30266 0
M  V30 1765 C 170.445 0.560496 -1.59859 0
M  V30 1766 O 171.651 0.445722 -1.74394 0
M  V30 1767 H 168.026 -0.0876142 -0.746879 0
M  V30 1768 H 169.997 -1.18061 -2.74051 0
M  V30 1769 C 168.746 0.448071 -3.44801 0
M  V30 1770 H 168.069 -0.226859 -3.99156 0
M  V30 1771 H 169.509 0.797541 -4.16432 0
M  V30 1772 C 167.968 1.64239 -2.94155 0
M  V30 1773 O 168.498 2.74175 -2.93583 0
M  V30 1774 N 166.704 1.47716 -2.50256 0
M  V30 1775 H 166.251 0.582821 -2.5092 0
M  V30 1776 H 166.209 2.27765 -2.16727 0
M  V30 1777 N 169.982 1.44106 -0.638065 0
M  V30 1778 C 170.945 2.29138 0.0531013 0
M  V30 1779 C 171.945 1.41409 0.765506 0
M  V30 1780 O 173.135 1.63206 0.609046 0
M  V30 1781 C 170.267 3.23144 1.08584 0
M  V30 1782 H 171.46 2.91739 -0.694883 0
M  V30 1783 H 169.013 1.51134 -0.398538 0
M  V30 1784 H 169.748 2.65408 1.86357 0
M  V30 1785 H 169.533 3.87804 0.578852 0
M  V30 1786 H 171.023 3.87004 1.56899 0
M  V30 1787 N 171.46 0.379036 1.52974 0
M  V30 1788 C 172.393 -0.504932 2.22544 0
M  V30 1789 C 173.371 -1.0723 1.22231 0
M  V30 1790 O 174.555 -1.12589 1.51182 0
M  V30 1791 C 171.682 -1.69794 2.93066 0
M  V30 1792 C 170.728 -1.25678 4.07563 0
M  V30 1793 S 171.561 -0.246852 5.34931 0
M  V30 1794 C 172.717 -1.44588 6.08971 0
M  V30 1795 H 172.95 0.0858666 2.97176 0
M  V30 1796 H 170.483 0.163183 1.53535 0
M  V30 1797 H 172.441 -2.38219 3.34308 0
M  V30 1798 H 171.102 -2.26002 2.18133 0
M  V30 1799 H 170.295 -2.14725 4.5597 0
M  V30 1800 H 169.897 -0.651584 3.6828 0
M  V30 1801 H 172.189 -2.37469 6.34519 0
M  V30 1802 H 173.132 -1.00292 7.00962 0
M  V30 1803 H 173.54 -1.65804 5.39601 0
M  V30 1804 N 172.938 -1.57226 0.108567 0
M  V30 1805 C 174.184 -1.95121 -0.552761 0
M  V30 1806 C 174.517 -0.991345 -1.66991 0
M  V30 1807 O 173.792 -0.0267211 -1.94482 0
M  V30 1808 C 174.075 -3.43039 -1.09528 0
M  V30 1809 C 173.928 -4.49797 0.0177332 0
M  V30 1810 C 175.247 -3.92567 -1.98945 0
M  V30 1811 H 172.366 -0.709496 -0.199461 0
M  V30 1812 H 175.008 -1.89126 0.182011 0
M  V30 1813 H 173.158 -3.48279 -1.72146 0
M  V30 1814 H 174.83 -4.56661 0.652584 0
M  V30 1815 H 173.073 -4.284 0.682309 0
M  V30 1816 H 173.744 -5.50528 -0.402919 0
M  V30 1817 H 176.22 -3.89565 -1.46214 0
M  V30 1818 H 175.096 -4.96605 -2.33827 0
M  V30 1819 H 175.357 -3.32648 -2.91201 0
M  V30 1820 N 174.416 0.165178 -1.56732 0
M  V30 1821 C 175.346 1.20651 -1.99914 0
M  V30 1822 C 176.327 1.45827 -0.875705 0
M  V30 1823 O 177.512 1.57057 -1.14223 0
M  V30 1824 C 174.642 2.54401 -2.36427 0
M  V30 1825 C 173.596 2.43782 -3.51787 0
M  V30 1826 C 172.922 3.82078 -3.7406 0
M  V30 1827 C 174.222 1.93732 -4.85041 0
M  V30 1828 H 175.916 0.847534 -2.87154 0
M  V30 1829 H 173.462 0.40625 -1.38151 0
M  V30 1830 H 175.415 3.27458 -2.65234 0
M  V30 1831 H 174.139 2.92098 -1.46103 0
M  V30 1832 H 172.798 1.73178 -3.23117 0
M  V30 1833 H 172.446 4.17179 -2.81017 0
M  V30 1834 H 172.146 3.7584 -4.51684 0
M  V30 1835 H 173.67 4.56712 -4.05274 0
M  V30 1836 H 175.084 2.56569 -5.12684 0
M  V30 1837 H 173.481 1.98428 -5.66345 0
M  V30 1838 H 174.551 0.891962 -4.76626 0
M  V30 1839 N 175.894 1.51508 0.433938 0
M  V30 1840 C 176.804 1.75917 1.5521 0
M  V30 1841 C 177.82 0.643545 1.61662 0
M  V30 1842 O 178.996 0.926183 1.7884 0
M  V30 1843 C 176.061 1.88213 2.91164 0
M  V30 1844 C 175.122 3.12074 2.94802 0
M  V30 1845 C 174.355 3.23774 4.24271 0
M  V30 1846 O 174.578 2.4133 5.16833 0
M  V30 1847 O 173.512 4.16774 4.34262 0
M  V30 1848 H 177.338 2.70777 1.37527 0
M  V30 1849 H 174.923 1.36051 0.617293 0
M  V30 1850 H 176.805 1.98267 3.71845 0
M  V30 1851 H 175.48 0.965413 3.08968 0
M  V30 1852 H 174.387 3.07497 2.13065 0
M  V30 1853 H 175.72 4.03446 2.81943 0
M  V30 1854 N 177.372 -0.689602 1.41712 0
M  V30 1855 C 178.302 -1.81577 1.46806 0
M  V30 1856 C 179.283 -1.66945 0.326105 0
M  V30 1857 O 180.468 -1.86588 0.538377 0
M  V30 1858 C 177.598 -3.19762 1.35535 0
M  V30 1859 C 176.552 -3.49107 2.47605 0
M  V30 1860 C 175.878 -4.86711 2.21397 0
M  V30 1861 C 177.178 -3.47483 3.89939 0
M  V30 1862 H 178.872 -1.7757 2.41058 0
M  V30 1863 H 176.418 -0.852887 1.16025 0
M  V30 1864 H 178.371 -3.98263 1.3771 0
M  V30 1865 H 177.095 -3.24409 0.377708 0
M  V30 1866 H 175.754 -2.72959 2.44722 0
M  V30 1867 H 175.402 -4.8799 1.21961 0
M  V30 1868 H 175.102 -5.0731 2.96497 0
M  V30 1869 H 176.626 -5.67515 2.25297 0
M  V30 1870 H 178.04 -4.1598 3.94505 0
M  V30 1871 H 176.437 -3.79615 4.64771 0
M  V30 1872 H 177.507 -2.46341 4.17665 0
M  V30 1873 N 178.85 -1.27639 -0.924453 0
M  V30 1874 C 179.78 -1.13166 -2.04244 0
M  V30 1875 C 180.761 -0.032256 -1.70069 0
M  V30 1876 O 181.946 -0.207328 -1.9309 0
M  V30 1877 C 179.076 -0.781496 -3.38393 0
M  V30 1878 C 178.03 -1.83449 -3.86692 0
M  V30 1879 C 177.356 -1.33822 -5.17683 0
M  V30 1880 C 178.656 -3.23917 -4.09726 0
M  V30 1881 H 180.35 -2.06689 -2.1661 0
M  V30 1882 H 177.896 -0.995136 -1.04082 0
M  V30 1883 H 179.849 -0.667057 -4.16087 0
M  V30 1884 H 178.573 0.189439 -3.2605 0
M  V30 1885 H 177.232 -1.93789 -3.11193 0
M  V30 1886 H 176.88 -0.35665 -5.01734 0
M  V30 1887 H 176.58 -2.04224 -5.50968 0
M  V30 1888 H 178.104 -1.23679 -5.97943 0
M  V30 1889 H 179.518 -3.16559 -4.77978 0
M  V30 1890 H 177.915 -3.92059 -4.54324 0
M  V30 1891 H 178.985 -3.68729 -3.14908 0
M  V30 1892 N 180.328 1.1314 -1.09713 0
M  V30 1893 C 181.576 1.84119 -0.833338 0
M  V30 1894 C 181.897 1.84097 0.642904 0
M  V30 1895 O 181.167 1.29881 1.46655 0
M  V30 1896 H 179.747 0.681766 -0.305293 0
M  V30 1897 H 182.409 1.37038 -1.38588 0
M  V30 1898 H 181.505 2.88543 -1.18951 0
M  V30 1899 N 181.806 0.884767 1.30421 0
M  V30 1900 C 183.217 0.553656 1.78302 0
M  V30 1901 C 183.568 -0.930153 1.7275 0
M  V30 1902 O 182.693 -1.72681 1.30423 0
M  V30 1903 C 183.288 0.998234 3.2376 0
M  V30 1904 C 181.847 0.71854 3.69478 0
M  V30 1905 C 180.994 1.18132 2.50879 0
M  V30 1906 H 183.945 1.06901 1.17294 0
M  V30 1907 H 183.966 0.327118 3.79091 0
M  V30 1908 H 183.478 2.0782 3.27769 0
M  V30 1909 H 181.579 -0.349444 3.70958 0
M  V30 1910 H 181.692 1.30595 4.60958 0
M  V30 1911 H 180.056 0.600669 2.47516 0
M  V30 1912 H 180.839 2.26902 2.57624 0
M  V30 1913 N 183.284 -1.43765 0.645699 0
M  V30 1914 C 184.509 -2.06767 0.161883 0
M  V30 1915 C 184.934 -1.48034 -1.16049 0
M  V30 1916 O 184.292 -0.587369 -1.71522 0
M  V30 1917 C 184.34 -3.60519 0.0762003 0
M  V30 1918 O 183.444 -4.00982 -0.963721 0
M  V30 1919 H 182.785 -0.657675 0.091429 0
M  V30 1920 H 185.315 -1.84397 0.886499 0
M  V30 1921 H 185.325 -4.07853 -0.109604 0
M  V30 1922 H 184 -4.02646 1.04157 0
M  V30 1923 H 182.577 -3.65253 -0.751312 0
M  V30 1924 N 184.763 -0.387143 -1.52771 0
M  V30 1925 C 185.693 0.440551 -2.29306 0
M  V30 1926 C 186.674 1.06535 -1.32606 0
M  V30 1927 O 187.859 1.07853 -1.61497 0
M  V30 1928 C 184.989 1.56919 -3.09829 0
M  V30 1929 C 183.943 1.07054 -4.14395 0
M  V30 1930 C 183.269 2.29109 -4.83129 0
M  V30 1931 C 184.569 0.140015 -5.22112 0
M  V30 1932 H 186.263 -0.198026 -2.98744 0
M  V30 1933 H 183.809 -0.09668 -1.43675 0
M  V30 1934 H 185.762 2.15503 -3.62128 0
M  V30 1935 H 184.486 2.23532 -2.3812 0
M  V30 1936 H 183.145 0.507247 -3.63074 0
M  V30 1937 H 182.793 2.94227 -4.0797 0
M  V30 1938 H 182.493 1.96406 -5.53804 0
M  V30 1939 H 184.017 2.88339 -5.38231 0
M  V30 1940 H 185.431 0.633978 -5.69784 0
M  V30 1941 H 183.828 -0.0971485 -6.00021 0
M  V30 1942 H 184.898 -0.811711 -4.78058 0
M  V30 1943 N 186.241 1.57166 -0.116904 0
M  V30 1944 C 187.151 2.18745 0.847812 0
M  V30 1945 C 188.167 1.163 1.29423 0
M  V30 1946 O 189.343 1.48761 1.35765 0
M  V30 1947 C 186.408 2.77307 2.0809 0
M  V30 1948 C 185.469 3.94781 1.68661 0
M  V30 1949 C 184.702 4.50541 2.86091 0
M  V30 1950 O 184.925 4.05202 4.01456 0
M  V30 1951 O 183.859 5.41256 2.63298 0
M  V30 1952 H 187.685 3.01632 0.353778 0
M  V30 1953 H 185.27 1.49005 0.108599 0
M  V30 1954 H 187.152 3.14647 2.80313 0
M  V30 1955 H 185.827 1.97452 2.56504 0
M  V30 1956 H 184.734 3.62214 0.935518 0
M  V30 1957 H 186.067 4.76065 1.24991 0
M  V30 1958 N 187.719 -0.156864 1.56817 0
M  V30 1959 C 188.996 -0.899244 1.73704 0
M  V30 1960 C 189.376 -1.99771 0.682254 0
M  V30 1961 O 188.724 -2.26515 -0.300522 0
M  V30 1962 C 188.934 -1.45075 3.17418 0
M  V30 1963 C 190.282 -1.91802 3.7881 0
M  V30 1964 O 191.306 -1.54838 3.20786 0
M  V30 1965 O 190.165 -2.5994 4.80722 0
M  V30 1966 H 187.259 -0.424267 0.709878 0
M  V30 1967 H 189.805 -0.143561 1.69092 0
M  V30 1968 H 188.577 -0.660846 3.85679 0
M  V30 1969 H 188.2 -2.27021 3.26416 0
M  V30 1970 N 189.197 -1.51736 -0.425897 0
M  V30 1971 C 190.127 -1.76827 -1.52494 0
M  V30 1972 C 191.108 -0.618524 -1.58456 0
M  V30 1973 O 192.293 -0.862416 -1.74 0
M  V30 1974 C 189.423 -1.90374 -2.90474 0
M  V30 1975 C 188.377 -3.0588 -2.99369 0
M  V30 1976 C 187.703 -3.04625 -4.3944 0
M  V30 1977 C 189.003 -4.45644 -2.72394 0
M  V30 1978 H 190.697 -2.68855 -1.31748 0
M  V30 1979 H 188.243 -1.29372 -0.632362 0
M  V30 1980 H 190.196 -2.0651 -3.6733 0
M  V30 1981 H 188.92 -0.95004 -3.12477 0
M  V30 1982 H 187.579 -2.89467 -2.24954 0
M  V30 1983 H 187.227 -2.0701 -4.58428 0
M  V30 1984 H 186.927 -3.82195 -4.46319 0
M  V30 1985 H 188.451 -3.22869 -5.18255 0
M  V30 1986 H 189.865 -4.62348 -3.38979 0
M  V30 1987 H 188.262 -5.25006 -2.9067 0
M  V30 1988 H 189.332 -4.54893 -1.67929 0
M  V30 1989 N 190.675 0.682077 -1.42076 0
M  V30 1990 C 191.922 1.44215 -1.42156 0
M  V30 1991 C 192.25 1.94468 -0.0354186 0
M  V30 1992 O 191.505 1.70816 0.955002 0
M  V30 1993 C 191.804 2.66036 -2.38662 0
M  V30 1994 C 191.47 2.34366 -3.85206 0
M  V30 1995 C 190.132 2.25439 -4.25124 0
M  V30 1996 C 192.484 2.08513 -4.77673 0
M  V30 1997 C 189.812 1.88775 -5.55501 0
M  V30 1998 C 192.164 1.73354 -6.08384 0
M  V30 1999 C 190.828 1.62933 -6.47309 0
M  V30 2000 H 190.098 0.527718 -0.520187 0
M  V30 2001 H 192.745 0.778387 -1.74967 0
M  V30 2002 H 191.05 3.3741 -1.99152 0
M  V30 2003 H 192.747 3.24205 -2.35991 0
M  V30 2004 H 189.337 2.42213 -3.53597 0
M  V30 2005 H 193.521 2.14346 -4.47626 0
M  V30 2006 H 188.777 1.7927 -5.84527 0
M  V30 2007 H 192.951 1.52373 -6.79526 0
M  V30 2008 H 190.578 1.34292 -7.48244 0
M  V30 2009 N 192.153 1.28127 0.917671 0
M  V30 2010 C 193.43 1.05761 1.64542 0
M  V30 2011 C 193.81 -0.404344 2.07191 0
M  V30 2012 O 193.158 -1.38963 1.81388 0
M  V30 2013 C 193.368 2.02857 2.83989 0
M  V30 2014 C 194.716 2.32786 3.551 0
M  V30 2015 O 195.74 2.0091 2.94132 0
M  V30 2016 O 194.599 2.87169 4.64969 0
M  V30 2017 H 191.693 0.403916 0.721652 0
M  V30 2018 H 194.239 1.39431 0.967322 0
M  V30 2019 H 193.011 3.01407 2.49538 0
M  V30 2020 H 192.634 1.69809 3.59514 0
M  V30 2021 N 193.631 -1.12557 1.10312 0
M  V30 2022 C 194.561 -2.20341 0.772798 0
M  V30 2023 C 195.542 -1.68198 -0.25365 0
M  V30 2024 O 196.727 -1.93831 -0.119699 0
M  V30 2025 C 193.857 -3.46709 0.202443 0
M  V30 2026 C 192.811 -4.11996 1.15943 0
M  V30 2027 C 192.137 -5.328 0.450345 0
M  V30 2028 C 193.437 -4.5828 2.50552 0
M  V30 2029 H 195.131 -2.48229 1.674 0
M  V30 2030 H 192.677 -1.19308 0.806326 0
M  V30 2031 H 194.63 -4.2138 -0.0407752 0
M  V30 2032 H 193.354 -3.18245 -0.734001 0
M  V30 2033 H 192.013 -3.39305 1.38808 0
M  V30 2034 H 191.661 -5.00602 -0.490531 0
M  V30 2035 H 191.361 -5.7743 1.08851 0
M  V30 2036 H 192.885 -6.10219 0.215642 0
M  V30 2037 H 194.299 -5.2433 2.31843 0
M  V30 2038 H 192.696 -5.13683 3.10242 0
M  V30 2039 H 193.766 -3.72329 3.10643 0
M  V30 2040 N 195.109 -0.891671 -1.2995 0
M  V30 2041 C 196.349 -0.520296 -1.97667 0
M  V30 2042 C 196.713 0.914797 -1.68806 0
M  V30 2043 O 197.914 1.39263 -2.29911 0
M  V30 2044 C 196.185 -0.795222 -3.48441 0
M  V30 2045 S 197.744 -0.526953 -4.35624 0
M  V30 2046 H 194.562 -0.19333 -0.684211 0
M  V30 2047 H 197.164 -1.15238 -1.57926 0
M  V30 2048 H 195.868 -1.83805 -3.66938 0
M  V30 2049 H 195.399 -0.15095 -3.9311 0
M  V30 2050 H 197.414 0.631533 -4.92165 0
M  V30 2051 N 196.587 1.43421 -0.653314 0
M  V30 2052 C 197.864 1.95361 -0.0966581 0
M  V30 2053 C 198.244 1.59461 1.38331 0
M  V30 2054 O 197.592 0.879777 2.10884 0
M  V30 2055 C 197.802 3.47311 -0.342988 0
M  V30 2056 C 199.15 4.23875 -0.24798 0
M  V30 2057 O 200.174 3.55133 -0.275553 0
M  V30 2058 O 199.033 5.4623 -0.171771 0
M  V30 2059 H 196.127 0.826945 0.00956291 0
M  V30 2060 H 198.673 1.5336 -0.726558 0
M  V30 2061 H 197.445 3.66569 -1.36906 0
M  V30 2062 H 197.068 3.9631 0.319975 0
M  V30 2063 N 198.065 0.39524 1.52563 0
M  V30 2064 C 199.481 0.0454682 1.59535 0
M  V30 2065 C 199.681 -1.44056 1.4089 0
M  V30 2066 O 198.737 -2.20579 1.22888 0
M  V30 2067 C 200.05 0.527963 2.96029 0
M  V30 2068 C 201.598 0.484733 3.09224 0
M  V30 2069 C 202.073 0.943512 4.48176 0
M  V30 2070 N 203.564 0.899765 4.54377 0
M  V30 2071 C 204.299 1.22609 5.60138 0
M  V30 2072 N 203.795 1.62319 6.73516 0
M  V30 2073 N 205.588 1.14696 5.50274 0
M  V30 2074 H 197.739 1.36261 1.62931 0
M  V30 2075 H 200.002 0.558887 0.765735 0
M  V30 2076 H 199.708 1.56607 3.14908 0
M  V30 2077 H 199.582 -0.0698056 3.77135 0
M  V30 2078 H 201.969 -0.544298 2.90037 0
M  V30 2079 H 202.05 1.11838 2.30056 0
M  V30 2080 H 201.694 1.9708 4.68104 0
M  V30 2081 H 201.624 0.286817 5.25818 0
M  V30 2082 H 204.115 0.607632 3.72983 0
M  V30 2083 H 204.428 1.85567 7.5019 0
M  V30 2084 H 202.773 1.66211 6.74833 0
M  V30 2085 H 205.964 0.835701 4.6058 0
M  V30 2086 H 206.137 1.40459 6.32594 0
M  V30 2087 N 199.544 -1.57102 0.125237 0
M  V30 2088 C 200.772 -1.99761 -0.538797 0
M  V30 2089 C 201.187 -1.00503 -1.59827 0
M  V30 2090 O 200.544 0.00119474 -1.825 0
M  V30 2091 C 200.595 -3.42408 -1.15927 0
M  V30 2092 O 200.316 -4.37869 -0.142143 0
M  V30 2093 C 201.817 -4.00232 -1.90602 0
M  V30 2094 H 199.037 -0.655772 -0.14214 0
M  V30 2095 H 201.581 -2.03383 0.213413 0
M  V30 2096 H 199.736 -3.39706 -1.86223 0
M  V30 2097 H 200.15 -5.21128 -0.593775 0
M  V30 2098 H 201.624 -5.02105 -2.29335 0
M  V30 2099 H 202.101 -3.39721 -2.78363 0
M  V30 2100 H 202.707 -4.06499 -1.25055 0
M  V30 2101 N 201.022 0.148545 -1.56898 0
M  V30 2102 C 202.269 0.861418 -1.83264 0
M  V30 2103 C 202.597 1.81239 -0.705883 0
M  V30 2104 O 201.852 1.93305 0.305212 0
M  V30 2105 C 202.151 1.67064 -3.1595 0
M  V30 2106 C 201.817 0.866591 -4.42494 0
M  V30 2107 C 200.479 0.644762 -4.76861 0
M  V30 2108 C 202.831 0.30418 -5.20312 0
M  V30 2109 C 200.159 -0.15021 -5.86508 0
M  V30 2110 C 202.511 -0.477824 -6.30793 0
M  V30 2111 C 201.175 -0.710244 -6.63711 0
M  V30 2112 H 200.445 0.315215 -0.670612 0
M  V30 2113 H 203.092 0.125142 -1.91091 0
M  V30 2114 H 201.397 2.47698 -3.03567 0
M  V30 2115 H 203.094 2.22566 -3.33565 0
M  V30 2116 H 199.684 1.04955 -4.15551 0
M  V30 2117 H 203.868 0.462844 -4.94137 0
M  V30 2118 H 199.124 -0.339796 -6.10455 0
M  V30 2119 H 203.298 -0.92076 -6.90286 0
M  V30 2120 H 200.925 -1.3281 -7.48509 0
M  V30 2121 N 202.5 1.5196 0.417844 0
M  V30 2122 C 203.728 1.69426 1.18753 0
M  V30 2123 C 204.143 0.399955 1.84515 0
M  V30 2124 O 203.5 -0.623288 1.71527 0
M  V30 2125 C 203.551 2.82375 2.25714 0
M  V30 2126 O 203.272 4.06793 1.62638 0
M  V30 2127 C 204.773 3.11277 3.15628 0
M  V30 2128 H 201.993 0.568031 0.357186 0
M  V30 2129 H 204.537 1.98475 0.49273 0
M  V30 2130 H 202.692 2.5587 2.90877 0
M  V30 2131 H 203.106 4.69667 2.3348 0
M  V30 2132 H 204.58 3.93843 3.86771 0
M  V30 2133 H 205.057 2.24473 3.77503 0
M  V30 2134 H 205.663 3.39515 2.56144 0
M  V30 2135 N 203.978 -0.674533 1.42435 0
M  V30 2136 C 204.908 -1.80009 1.48724 0
M  V30 2137 C 205.889 -1.6659 0.343793 0
M  V30 2138 O 207.074 -1.86007 0.558137 0
M  V30 2139 C 204.204 -3.18306 1.38919 0
M  V30 2140 C 203.158 -3.46461 2.51294 0
M  V30 2141 C 202.484 -4.84335 2.26547 0
M  V30 2142 C 203.784 -3.43328 3.93603 0
M  V30 2143 H 205.478 -1.75004 2.42928 0
M  V30 2144 H 203.024 -0.840533 1.16923 0
M  V30 2145 H 204.977 -3.9678 1.41927 0
M  V30 2146 H 203.701 -3.2399 0.412094 0
M  V30 2147 H 202.36 -2.70348 2.47604 0
M  V30 2148 H 202.008 -4.86669 1.2713 0
M  V30 2149 H 201.708 -5.04136 3.01861 0
M  V30 2150 H 203.232 -5.65094 2.31304 0
M  V30 2151 H 204.646 -4.11772 3.98894 0
M  V30 2152 H 203.043 -3.74664 4.68771 0
M  V30 2153 H 204.113 -2.41897 4.20255 0
M  V30 2154 N 205.456 -1.28612 -0.910864 0
M  V30 2155 C 206.403 -1.12786 -2.01365 0
M  V30 2156 C 207.373 -0.024201 -1.66082 0
M  V30 2157 O 208.558 -0.189667 -1.89855 0
M  V30 2158 C 205.698 -0.798743 -3.35729 0
M  V30 2159 C 204.811 -1.98173 -3.83864 0
M  V30 2160 C 203.946 -1.59298 -5.06752 0
M  V30 2161 C 202.985 -2.74245 -5.47226 0
M  V30 2162 N 202.122 -2.35842 -6.61304 0
M  V30 2163 H 206.962 -2.07142 -2.14234 0
M  V30 2164 H 204.499 -1.03093 -1.0493 0
M  V30 2165 H 206.457 -0.588662 -4.13026 0
M  V30 2166 H 205.087 0.10789 -3.2262 0
M  V30 2167 H 204.139 -2.30386 -3.02699 0
M  V30 2168 H 205.451 -2.84343 -4.09818 0
M  V30 2169 H 204.605 -1.34513 -5.916 0
M  V30 2170 H 203.344 -0.702618 -4.82612 0
M  V30 2171 H 202.349 -2.99725 -4.60918 0
M  V30 2172 H 203.574 -3.63928 -5.73353 0
M  V30 2173 H 201.52 -1.49279 -6.38789 0
M  V30 2174 H 201.437 -3.15546 -6.86998 0
M  V30 2175 H 202.705 -2.14348 -7.4945 0
M  V30 2176 N 206.934 1.1197 -1.10907 0
M  V30 2177 C 208.162 1.87402 -0.876824 0
M  V30 2178 C 208.577 1.79894 0.573025 0
M  V30 2179 O 207.934 1.17629 1.39534 0
M  V30 2180 C 207.985 3.36428 -1.32282 0
M  V30 2181 O 207.706 3.43765 -2.71582 0
M  V30 2182 C 209.207 4.28783 -1.12518 0
M  V30 2183 H 206.427 0.592793 -0.314384 0
M  V30 2184 H 208.971 1.41649 -1.47499 0
M  V30 2185 H 207.126 3.79706 -0.768229 0
M  V30 2186 H 207.54 4.3652 -2.90776 0
M  V30 2187 H 209.014 5.31613 -1.48633 0
M  V30 2188 H 209.491 4.39153 -0.0642394 0
M  V30 2189 H 210.097 3.91291 -1.66648 0
M  V30 2190 N 208.412 0.89855 1.29475 0
M  V30 2191 C 209.658 0.524658 1.95896 0
M  V30 2192 C 209.991 -0.926468 1.70676 0
M  V30 2193 O 209.266 -1.65665 1.01908 0
M  V30 2194 C 209.549 0.81633 3.50725 0
M  V30 2195 C 209.402 2.31907 3.85408 0
M  V30 2196 C 210.721 0.302038 4.39062 0
M  V30 2197 H 207.84 0.19209 0.711527 0
M  V30 2198 H 210.482 1.12502 1.53112 0
M  V30 2199 H 208.632 0.305369 3.87298 0
M  V30 2200 H 210.304 2.89949 3.58786 0
M  V30 2201 H 208.547 2.78027 3.32992 0
M  V30 2202 H 209.218 2.47373 4.93468 0
M  V30 2203 H 211.694 0.739551 4.09475 0
M  V30 2204 H 210.57 0.535331 5.46283 0
M  V30 2205 H 210.831 -0.797216 4.34853 0
M  V30 2206 N 209.89 -1.43072 0.660911 0
M  V30 2207 C 210.82 -2.33497 -0.0122829 0
M  V30 2208 C 211.801 -1.49903 -0.803925 0
M  V30 2209 O 212.986 -1.78546 -0.763864 0
M  V30 2210 C 210.116 -3.33363 -0.973994 0
M  V30 2211 C 209.07 -4.27003 -0.291928 0
M  V30 2212 C 208.396 -5.16967 -1.36562 0
M  V30 2213 C 209.696 -5.15816 0.820462 0
M  V30 2214 H 211.39 -2.90038 0.742873 0
M  V30 2215 H 208.936 -1.39461 0.358688 0
M  V30 2216 H 210.889 -3.95524 -1.45392 0
M  V30 2217 H 209.613 -2.75095 -1.7604 0
M  V30 2218 H 208.272 -3.66217 0.167623 0
M  V30 2219 H 207.92 -4.55034 -2.14366 0
M  V30 2220 H 207.62 -5.80441 -0.914454 0
M  V30 2221 H 209.144 -5.82003 -1.84675 0
M  V30 2222 H 210.558 -5.71742 0.422366 0
M  V30 2223 H 208.955 -5.8805 1.19656 0
M  V30 2224 H 210.025 -4.55045 1.67518 0
M  V30 2225 N 211.368 -0.403325 -1.52352 0
M  V30 2226 C 212.301 0.469463 -2.23319 0
M  V30 2227 C 213.279 1.05272 -1.23922 0
M  V30 2228 O 214.463 1.10169 -1.52954 0
M  V30 2229 C 211.59 1.6511 -2.9573 0
M  V30 2230 C 210.636 1.19178 -4.0951 0
M  V30 2231 S 211.469 0.161718 -5.35256 0
M  V30 2232 C 212.625 1.34882 -6.11194 0
M  V30 2233 H 212.858 -0.133134 -2.97002 0
M  V30 2234 H 210.391 -0.187588 -1.53256 0
M  V30 2235 H 212.349 2.3287 -3.38056 0
M  V30 2236 H 211.01 2.22503 -2.21701 0
M  V30 2237 H 210.203 2.07444 -4.59329 0
M  V30 2238 H 209.805 0.592911 -3.6927 0
M  V30 2239 H 212.097 2.27345 -6.38217 0
M  V30 2240 H 213.04 0.89128 -7.02468 0
M  V30 2241 H 213.448 1.57198 -5.42171 0
M  V30 2242 N 212.846 1.57033 -0.133567 0
M  V30 2243 C 214.095 1.94861 0.520768 0
M  V30 2244 C 214.408 1.02012 1.66892 0
M  V30 2245 O 215.614 1.29365 2.38699 0
M  V30 2246 C 214.07 3.46362 0.977809 0
M  V30 2247 C 213.678 4.47773 -0.142674 0
M  V30 2248 C 215.422 3.93083 1.60269 0
M  V30 2249 C 213.329 5.90468 0.331883 0
M  V30 2250 H 212.259 0.727453 0.198315 0
M  V30 2251 H 214.91 1.82227 -0.215759 0
M  V30 2252 H 213.292 3.54282 1.7692 0
M  V30 2253 H 214.466 4.51536 -0.919317 0
M  V30 2254 H 212.781 4.10891 -0.675124 0
M  V30 2255 H 215.378 4.97121 1.96914 0
M  V30 2256 H 215.721 3.33876 2.48662 0
M  V30 2257 H 216.254 3.88025 0.876453 0
M  V30 2258 H 212.993 6.53463 -0.516341 0
M  V30 2259 H 212.513 5.90094 1.07469 0
M  V30 2260 H 214.192 6.42179 0.788332 0
M  V30 2261 N 214.325 -0.140222 1.56975 0
M  V30 2262 C 215.288 -1.15689 1.97861 0
M  V30 2263 C 216.288 -1.3549 0.865974 0
M  V30 2264 O 217.478 -1.32367 1.13246 0
M  V30 2265 C 214.61 -2.51582 2.30042 0
M  V30 2266 H 215.803 -0.805971 2.88867 0
M  V30 2267 H 213.356 -0.383801 1.51515 0
M  V30 2268 H 214.091 -2.91632 1.41849 0
M  V30 2269 H 213.876 -2.38569 3.11171 0
M  V30 2270 H 215.366 -3.24792 2.62488 0
M  V30 2271 N 215.803 -1.52179 -0.40978 0
M  V30 2272 C 217.052 -1.65434 -1.15388 0
M  V30 2273 C 217.365 -0.390056 -1.91671 0
M  V30 2274 O 218.571 -0.402399 -2.68501 0
M  V30 2275 C 217.027 -2.92279 -2.10003 0
M  V30 2276 C 216.635 -4.25813 -1.39239 0
M  V30 2277 C 218.379 -3.14897 -2.84675 0
M  V30 2278 C 216.286 -5.43782 -2.32498 0
M  V30 2279 H 215.216 -0.616267 -0.434432 0
M  V30 2280 H 217.867 -1.78666 -0.418401 0
M  V30 2281 H 216.249 -2.72744 -2.871 0
M  V30 2282 H 217.423 -4.55828 -0.675099 0
M  V30 2283 H 215.738 -4.09292 -0.766097 0
M  V30 2284 H 218.335 -4.0021 -3.54593 0
M  V30 2285 H 218.678 -2.29103 -3.47588 0
M  V30 2286 H 219.211 -3.34901 -2.14677 0
M  V30 2287 H 215.95 -6.3192 -1.74233 0
M  V30 2288 H 215.47 -5.18106 -3.02201 0
M  V30 2289 H 217.149 -5.76834 -2.93038 0
M  V30 2290 N 217.281 0.66697 -1.42791 0
M  V30 2291 C 218.213 1.7925 -1.42836 0
M  V30 2292 C 219.226 1.59496 -0.326333 0
M  V30 2293 O 220.415 1.6847 -0.589916 0
M  V30 2294 C 217.515 3.16476 -1.21229 0
M  V30 2295 C 216.688 3.63011 -2.44013 0
M  V30 2296 C 215.747 4.78993 -2.17834 0
M  V30 2297 O 214.773 4.89137 -2.91091 0
M  V30 2298 N 215.975 5.68248 -1.18635 0
M  V30 2299 H 218.74 1.79695 -2.39854 0
M  V30 2300 H 216.301 0.850338 -1.37771 0
M  V30 2301 H 218.293 3.91734 -1.01621 0
M  V30 2302 H 216.863 3.10884 -0.32706 0
M  V30 2303 H 216.083 2.78346 -2.79137 0
M  V30 2304 H 217.371 3.90845 -3.25757 0
M  V30 2305 H 216.769 5.62712 -0.580615 0
M  V30 2306 H 215.326 6.43285 -1.05013 0
M  V30 2307 N 218.759 1.29093 0.90403 0
M  V30 2308 C 219.689 1.16401 2.02418 0
M  V30 2309 C 220.67 0.0593085 1.69997 0
M  V30 2310 O 221.855 0.238021 1.92736 0
M  V30 2311 C 218.985 0.835233 3.37107 0
M  V30 2312 C 217.939 1.89578 3.83724 0
M  V30 2313 C 217.265 1.42041 5.15489 0
M  V30 2314 C 218.565 3.30394 4.04521 0
M  V30 2315 H 220.259 2.10109 2.13295 0
M  V30 2316 H 217.805 1.01157 1.02486 0
M  V30 2317 H 219.758 0.733169 4.14973 0
M  V30 2318 H 218.482 -0.137543 3.2631 0
M  V30 2319 H 217.141 1.98715 3.08071 0
M  V30 2320 H 216.789 0.436426 5.01103 0
M  V30 2321 H 216.489 2.12964 5.4765 0
M  V30 2322 H 218.013 1.33176 5.959 0
M  V30 2323 H 219.427 3.24123 4.72882 0
M  V30 2324 H 217.824 3.99237 4.48029 0
M  V30 2325 H 218.894 3.73692 3.09002 0
M  V30 2326 N 220.237 -1.11381 1.11499 0
M  V30 2327 C 221.486 -1.82494 0.858993 0
M  V30 2328 C 221.799 -1.85605 -0.617278 0
M  V30 2329 O 223.005 -2.52824 -0.989552 0
M  V30 2330 C 221.461 -3.27745 1.48699 0
M  V30 2331 C 221.069 -3.32961 2.99735 0
M  V30 2332 C 222.813 -4.03754 1.31085 0
M  V30 2333 C 220.72 -4.72612 3.55516 0
M  V30 2334 H 219.65 -0.683802 0.317696 0
M  V30 2335 H 222.301 -1.25331 1.34031 0
M  V30 2336 H 220.683 -3.84844 0.933339 0
M  V30 2337 H 221.857 -2.85741 3.61509 0
M  V30 2338 H 220.172 -2.70433 3.16631 0
M  V30 2339 H 222.769 -5.06891 1.70192 0
M  V30 2340 H 223.112 -4.15527 0.253496 0
M  V30 2341 H 223.645 -3.53043 1.83318 0
M  V30 2342 H 220.384 -4.66036 4.60967 0
M  V30 2343 H 219.904 -5.2024 2.98513 0
M  V30 2344 H 221.583 -5.4157 3.53992 0
M  V30 2345 N 221.715 -0.905404 -1.28997 0
M  V30 2346 C 222.943 -0.549846 -1.9946 0
M  V30 2347 C 223.358 0.866834 -1.67724 0
M  V30 2348 O 222.715 1.57298 -0.925404 0
M  V30 2349 C 222.766 -0.739387 -3.53858 0
M  V30 2350 O 222.487 -2.10031 -3.84472 0
M  V30 2351 C 223.988 -0.389541 -4.41585 0
M  V30 2352 H 221.208 -0.210429 -0.637151 0
M  V30 2353 H 223.752 -1.21632 -1.64396 0
M  V30 2354 H 221.907 -0.120023 -3.87214 0
M  V30 2355 H 222.321 -2.13385 -4.79132 0
M  V30 2356 H 223.795 -0.572972 -5.49018 0
M  V30 2357 H 224.272 0.673756 -4.34001 0
M  V30 2358 H 224.878 -0.986089 -4.1371 0
M  V30 2359 N 223.193 1.4272 -0.668489 0
M  V30 2360 C 224.609 1.55992 -0.33745 0
M  V30 2361 C 224.809 1.64933 1.15756 0
M  V30 2362 O 223.865 1.61278 1.94282 0
M  V30 2363 C 225.178 2.81314 -1.06222 0
M  V30 2364 C 226.726 2.95078 -1.04394 0
M  V30 2365 C 227.201 4.23252 -1.74991 0
M  V30 2366 N 228.692 4.3015 -1.71829 0
M  V30 2367 C 229.427 5.28127 -2.23315 0
M  V30 2368 N 228.923 6.32293 -2.83156 0
M  V30 2369 N 230.716 5.19882 -2.13726 0
M  V30 2370 H 222.867 1.3516 -1.63846 0
M  V30 2371 H 225.13 0.650174 -0.689912 0
M  V30 2372 H 224.836 2.80823 -2.11734 0
M  V30 2373 H 224.71 3.72012 -0.62344 0
M  V30 2374 H 227.097 2.951 0.0028244 0
M  V30 2375 H 227.178 2.05627 -1.52155 0
M  V30 2376 H 226.822 4.2399 -2.79633 0
M  V30 2377 H 226.752 5.11626 -1.24685 0
M  V30 2378 H 229.243 3.55499 -1.28175 0
M  V30 2379 H 229.556 7.03398 -3.20079 0
M  V30 2380 H 227.901 6.32873 -2.87223 0
M  V30 2381 H 231.092 4.37423 -1.66669 0
M  V30 2382 H 231.265 5.96077 -2.54158 0
M  V30 2383 N 224.671 0.411399 1.52136 0
M  V30 2384 C 225.604 -0.457614 2.23565 0
M  V30 2385 C 226.582 -1.04613 1.24478 0
M  V30 2386 O 227.766 -1.09356 1.53536 0
M  V30 2387 C 224.893 -1.6354 2.96602 0
M  V30 2388 C 223.939 -1.17005 4.10137 0
M  V30 2389 S 224.772 -0.13333 5.35334 0
M  V30 2390 C 225.928 -1.31638 6.119 0
M  V30 2391 H 226.161 0.148883 2.96927 0
M  V30 2392 H 223.694 0.195713 1.53155 0
M  V30 2393 H 225.652 -2.31074 3.39286 0
M  V30 2394 H 224.313 -2.21324 2.22878 0
M  V30 2395 H 223.506 -2.05005 4.60422 0
M  V30 2396 H 223.108 -0.573319 3.6958 0
M  V30 2397 H 225.4 -2.23957 6.39413 0
M  V30 2398 H 226.343 -0.854014 7.02931 0
M  V30 2399 H 226.751 -1.54321 5.42997 0
M  V30 2400 N 226.149 -1.5696 0.141893 0
M  V30 2401 C 227.059 -2.20066 -0.812905 0
M  V30 2402 C 228.075 -1.18344 -1.27557 0
M  V30 2403 O 229.251 -1.50902 -1.33381 0
M  V30 2404 C 226.316 -2.80583 -2.03652 0
M  V30 2405 C 225.377 -3.97414 -1.62359 0
M  V30 2406 C 224.61 -4.55036 -2.78887 0
M  V30 2407 O 224.833 -4.11538 -3.94959 0
M  V30 2408 O 223.767 -5.45376 -2.54653 0
M  V30 2409 H 227.593 -3.02157 -0.305746 0
M  V30 2410 H 225.178 -1.49159 -0.0848799 0
M  V30 2411 H 227.06 -3.19067 -2.75272 0
M  V30 2412 H 225.735 -2.01508 -2.5333 0
M  V30 2413 H 224.642 -3.63656 -0.877775 0
M  V30 2414 H 225.975 -4.77994 -1.17401 0
M  V30 2415 N 227.627 0.131896 -1.57047 0
M  V30 2416 C 228.857 0.855219 -1.88068 0
M  V30 2417 C 229.265 1.74557 -0.729817 0
M  V30 2418 O 228.608 1.81083 0.308962 0
M  V30 2419 C 228.67 1.75119 -3.13964 0
M  V30 2420 C 228.334 1.03646 -4.45091 0
M  V30 2421 C 229.331 0.383276 -5.18485 0
M  V30 2422 C 227.016 1.02148 -4.91804 0
M  V30 2423 C 229.01 -0.275347 -6.36805 0
M  V30 2424 C 226.697 0.359047 -6.10044 0
M  V30 2425 C 227.695 -0.288222 -6.82392 0
M  V30 2426 O 227.383 -0.94011 -7.98384 0
M  V30 2427 H 227.115 0.251864 -0.627328 0
M  V30 2428 H 229.669 0.124782 -2.05021 0
M  V30 2429 H 227.899 2.52295 -2.9306 0
M  V30 2430 H 229.588 2.3478 -3.31109 0
M  V30 2431 H 230.354 0.386562 -4.83457 0
M  V30 2432 H 226.233 1.5147 -4.35405 0
M  V30 2433 H 229.777 -0.781148 -6.93213 0
M  V30 2434 H 225.674 0.35348 -6.44531 0
M  V30 2435 H 226.442 -0.84329 -8.14144 0
M  V30 2436 N 229.106 1.52395 0.401703 0
M  V30 2437 C 230.352 1.67065 1.14966 0
M  V30 2438 C 230.685 0.403052 1.89971 0
M  V30 2439 O 229.96 -0.598774 1.85054 0
M  V30 2440 C 230.243 2.8975 2.13815 0
M  V30 2441 C 230.096 4.26578 1.42658 0
M  V30 2442 C 231.415 3.07965 3.14397 0
M  V30 2443 H 228.534 0.607968 0.416587 0
M  V30 2444 H 231.176 1.84965 0.434511 0
M  V30 2445 H 229.326 2.74619 2.74803 0
M  V30 2446 H 230.998 4.53451 0.847329 0
M  V30 2447 H 229.241 4.27639 0.72849 0
M  V30 2448 H 229.912 5.08483 2.14823 0
M  V30 2449 H 232.388 3.22043 2.63491 0
M  V30 2450 H 231.264 3.95308 3.80819 0
M  V30 2451 H 231.525 2.21611 3.82545 0
M  V30 2452 N 230.584 -0.659388 1.43143 0
M  V30 2453 C 231.534 -1.7655 1.44271 0
M  V30 2454 C 232.518 -1.57847 0.311961 0
M  V30 2455 O 233.71 -1.68064 0.555306 0
M  V30 2456 C 230.839 -3.15104 1.36251 0
M  V30 2457 C 229.925 -3.39377 2.54331 0
M  V30 2458 N 230.316 -3.34153 3.79704 0
M  V30 2459 C 228.614 -3.70072 2.48922 0
M  V30 2460 C 229.315 -3.58337 4.58225 0
M  V30 2461 N 228.291 -3.79851 3.88863 0
M  V30 2462 H 232.093 -1.70928 2.39083 0
M  V30 2463 H 229.607 -0.860823 1.37708 0
M  V30 2464 H 231.604 -3.94389 1.35141 0
M  V30 2465 H 230.264 -3.21913 0.424531 0
M  V30 2466 H 231.275 -3.13704 4.1208 0
M  V30 2467 H 227.952 -3.84034 1.63781 0
M  V30 2468 H 229.342 -3.60129 5.67236 0
M  V30 2469 N 232.062 -1.29571 -0.897171 0
M  V30 2470 C 233.29 -1.20583 -1.68129 0
M  V30 2471 C 233.705 0.233181 -1.87354 0
M  V30 2472 O 233.062 1.15579 -1.41236 0
M  V30 2473 C 233.113 -1.91772 -3.06441 0
M  V30 2474 O 232.834 -3.30053 -2.88091 0
M  V30 2475 C 234.335 -1.89291 -4.00854 0
M  V30 2476 H 231.555 -0.417826 -0.525036 0
M  V30 2477 H 234.099 -1.70987 -1.12177 0
M  V30 2478 H 232.254 -1.45196 -3.59161 0
M  V30 2479 H 232.668 -3.65942 -3.75748 0
M  V30 2480 H 234.142 -2.43662 -4.95311 0
M  V30 2481 H 234.619 -0.869014 -4.30517 0
M  V30 2482 H 235.225 -2.35622 -3.54066 0
M  V30 2483 N 233.54 1.10788 -1.12088 0
M  V30 2484 C 234.487 2.17025 -0.785407 0
M  V30 2485 C 235.457 1.64265 0.246191 0
M  V30 2486 O 236.642 1.90412 0.121584 0
M  V30 2487 C 233.782 3.44249 -0.242177 0
M  V30 2488 C 232.895 4.1098 -1.33115 0
M  V30 2489 C 232.03 5.25911 -0.747741 0
M  V30 2490 C 231.069 5.84538 -1.81609 0
M  V30 2491 N 230.206 6.90853 -1.25167 0
M  V30 2492 H 235.046 2.45066 -1.69548 0
M  V30 2493 H 232.583 1.20297 -0.846582 0
M  V30 2494 H 234.541 4.17101 0.0908026 0
M  V30 2495 H 233.171 3.16571 0.631072 0
M  V30 2496 H 232.223 3.36133 -1.78097 0
M  V30 2497 H 233.535 4.50601 -2.13917 0
M  V30 2498 H 232.689 6.056 -0.365216 0
M  V30 2499 H 231.428 4.87614 0.0915188 0
M  V30 2500 H 230.433 5.03522 -2.20785 0
M  V30 2501 H 231.658 6.249 -2.6585 0
M  V30 2502 H 229.604 6.54562 -0.434174 0
M  V30 2503 H 229.521 7.29166 -1.99633 0
M  V30 2504 H 230.789 7.7433 -0.896259 0
M  V30 2505 N 235.018 0.912232 1.28515 0
M  V30 2506 C 236.243 0.559774 1.99703 0
M  V30 2507 C 236.668 -0.851393 1.67729 0
M  V30 2508 O 236.026 -1.56875 0.908834 0
M  V30 2509 C 236.074 0.773874 3.52198 0
M  V30 2510 O 235.178 -0.167842 4.12058 0
M  V30 2511 H 234.519 0.21723 0.627461 0
M  V30 2512 H 237.049 1.22725 1.63706 0
M  V30 2513 H 237.059 0.683386 4.02236 0
M  V30 2514 H 235.734 1.80261 3.74805 0
M  V30 2515 H 234.311 -0.0287509 3.72889 0
M  V30 2516 N 236.496 -1.42363 0.676048 0
M  V30 2517 C 237.426 -2.33497 0.0124832 0
M  V30 2518 C 238.407 -1.50748 -0.787981 0
M  V30 2519 O 239.592 -1.79346 -0.744884 0
M  V30 2520 C 236.722 -3.34377 -0.938582 0
M  V30 2521 C 235.676 -4.27289 -0.246622 0
M  V30 2522 C 235.002 -5.18386 -1.31071 0
M  V30 2523 C 236.302 -5.14916 0.875125 0
M  V30 2524 H 237.996 -2.89233 0.773593 0
M  V30 2525 H 235.542 -1.39073 0.37346 0
M  V30 2526 H 237.495 -3.97044 -1.41188 0
M  V30 2527 H 236.219 -2.76947 -1.73113 0
M  V30 2528 H 234.878 -3.66018 0.206456 0
M  V30 2529 H 234.526 -4.57282 -2.09528 0
M  V30 2530 H 234.226 -5.81378 -0.852839 0
M  V30 2531 H 235.75 -5.83929 -1.78492 0
M  V30 2532 H 237.164 -5.71262 0.482983 0
M  V30 2533 H 235.561 -5.86747 1.25887 0
M  V30 2534 H 236.631 -4.53242 1.72335 0
M  V30 2535 N 237.974 -0.419461 -1.51915 0
M  V30 2536 C 239.223 0.154346 -2.01109 0
M  V30 2537 C 239.536 1.45338 -1.30905 0
M  V30 2538 O 240.742 2.10906 -1.7097 0
M  V30 2539 C 239.198 0.325615 -3.58424 0
M  V30 2540 C 238.806 -0.961934 -4.37551 0
M  V30 2541 C 240.55 0.854155 -4.15818 0
M  V30 2542 C 238.457 -0.757287 -5.86531 0
M  V30 2543 H 237.387 0.0614563 -0.751491 0
M  V30 2544 H 240.038 -0.54649 -1.75173 0
M  V30 2545 H 238.42 1.08903 -3.80731 0
M  V30 2546 H 239.594 -1.7323 -4.26999 0
M  V30 2547 H 237.909 -1.41766 -3.91524 0
M  V30 2548 H 240.506 1.02346 -5.24814 0
M  V30 2549 H 240.849 1.83172 -3.73837 0
M  V30 2550 H 241.382 0.149528 -3.97519 0
M  V30 2551 H 238.121 -1.70671 -6.32892 0
M  V30 2552 H 237.641 -0.0264061 -5.99794 0
M  V30 2553 H 239.32 -0.403482 -6.45741 0
M  V30 2554 N 239.452 1.56882 -0.150215 0
M  V30 2555 C 240.682 2.00302 0.506213 0
M  V30 2556 C 241.09 1.02934 1.58749 0
M  V30 2557 O 240.433 0.0188384 1.8369 0
M  V30 2558 C 240.495 3.40156 1.16337 0
M  V30 2559 C 240.159 4.56439 0.226311 0
M  V30 2560 C 241.156 5.17012 -0.547265 0
M  V30 2561 C 238.841 5.02136 0.128279 0
M  V30 2562 C 240.835 6.21693 -1.40629 0
M  V30 2563 C 238.522 6.06672 -0.734345 0
M  V30 2564 C 239.52 6.6632 -1.50023 0
M  V30 2565 O 239.208 7.68831 -2.34848 0
M  V30 2566 H 238.94 0.662182 0.135984 0
M  V30 2567 H 241.494 2.03961 -0.242746 0
M  V30 2568 H 239.724 3.33346 1.96004 0
M  V30 2569 H 241.413 3.67663 1.71985 0
M  V30 2570 H 242.179 4.82603 -0.48158 0
M  V30 2571 H 238.058 4.55435 0.714157 0
M  V30 2572 H 241.602 6.68179 -2.00455 0
M  V30 2573 H 237.499 6.40507 -0.801309 0
M  V30 2574 H 238.267 7.86065 -2.28131 0
M  V30 2575 N 240.93 -0.123565 1.57115 0
M  V30 2576 C 242.346 -0.476961 1.52306 0
M  V30 2577 C 242.546 -1.82109 0.86248 0
M  V30 2578 O 241.602 -2.48586 0.442884 0
M  V30 2579 C 242.915 -0.465661 2.97073 0
M  V30 2580 C 244.463 -0.549534 3.08138 0
M  V30 2581 C 244.938 -0.568669 4.54456 0
M  V30 2582 N 246.429 -0.630237 4.58892 0
M  V30 2583 C 247.164 -0.666415 5.69514 0
M  V30 2584 N 246.66 -0.660514 6.89644 0
M  V30 2585 N 248.453 -0.709077 5.5761 0
M  V30 2586 H 240.604 0.757198 1.98445 0
M  V30 2587 H 242.867 0.278808 0.906074 0
M  V30 2588 H 242.573 0.454232 3.48754 0
M  V30 2589 H 242.447 -1.29513 3.54269 0
M  V30 2590 H 244.834 -1.45985 2.56461 0
M  V30 2591 H 244.915 0.307532 2.53945 0
M  V30 2592 H 244.559 0.337581 5.06777 0
M  V30 2593 H 244.489 -1.44256 5.06456 0
M  V30 2594 H 246.98 -0.641146 3.72421 0
M  V30 2595 H 247.293 -0.690616 7.69708 0
M  V30 2596 H 245.638 -0.628012 6.92157 0
M  V30 2597 H 248.829 -0.711019 4.62668 0
M  V30 2598 H 249.002 -0.733804 6.43832 0
M  V30 2599 N 242.408 -1.52605 -0.393616 0
M  V30 2600 C 243.685 -1.58001 -1.15304 0
M  V30 2601 C 244.065 -0.370385 -2.07825 0
M  V30 2602 O 243.413 0.641638 -2.19306 0
M  V30 2603 C 243.623 -2.91652 -1.91677 0
M  V30 2604 C 244.971 -3.4522 -2.47201 0
M  V30 2605 O 245.995 -2.93495 -2.01839 0
M  V30 2606 O 244.854 -4.35579 -3.3005 0
M  V30 2607 H 241.948 -0.637068 -0.527327 0
M  V30 2608 H 244.494 -1.64939 -0.399141 0
M  V30 2609 H 243.266 -3.71136 -1.23992 0
M  V30 2610 H 242.889 -2.88077 -2.74039 0
M  V30 2611 N 243.887 0.651787 -1.4349 0
M  V30 2612 C 245.133 1.41376 -1.45398 0
M  V30 2613 C 245.466 1.94041 -0.0784823 0
M  V30 2614 O 244.741 1.72379 0.900878 0
M  V30 2615 C 245.024 2.59414 -2.49752 0
M  V30 2616 C 244.877 2.12232 -3.96582 0
M  V30 2617 C 246.196 3.61626 -2.50827 0
M  V30 2618 H 243.315 0.512719 -0.529422 0
M  V30 2619 H 245.957 0.738796 -1.75048 0
M  V30 2620 H 244.107 3.16997 -2.246 0
M  V30 2621 H 245.779 1.59639 -4.32797 0
M  V30 2622 H 244.022 1.43592 -4.09346 0
M  V30 2623 H 244.693 2.9712 -4.65214 0
M  V30 2624 H 247.169 3.13805 -2.7325 0
M  V30 2625 H 246.045 4.41766 -3.25783 0
M  V30 2626 H 246.306 4.14314 -1.5426 0
M  V30 2627 N 245.365 1.30045 0.890287 0
M  V30 2628 C 246.312 1.15976 1.99545 0
M  V30 2629 C 247.282 0.0506202 1.66023 0
M  V30 2630 O 248.467 0.219847 1.89529 0
M  V30 2631 C 245.607 0.852054 3.34416 0
M  V30 2632 C 244.72 2.04255 3.80662 0
M  V30 2633 C 243.855 1.6734 5.04154 0
M  V30 2634 C 242.894 2.82916 5.42794 0
M  V30 2635 N 242.031 2.46333 6.57468 0
M  V30 2636 H 246.871 2.10524 2.10911 0
M  V30 2637 H 244.408 1.04749 1.03276 0
M  V30 2638 H 246.366 0.654296 4.12037 0
M  V30 2639 H 244.996 -0.0565502 3.2275 0
M  V30 2640 H 244.048 2.35172 2.98995 0
M  V30 2641 H 245.36 2.90826 4.05242 0
M  V30 2642 H 244.514 1.43908 5.89386 0
M  V30 2643 H 243.253 0.779308 4.81433 0
M  V30 2644 H 242.258 3.0702 4.56091 0
M  V30 2645 H 243.483 3.73004 5.6749 0
M  V30 2646 H 241.429 1.59423 6.36334 0
M  V30 2647 H 241.346 3.26436 6.81891 0
M  V30 2648 H 242.614 2.26244 7.45945 0
M  V30 2649 N 246.843 -1.10192 1.12674 0
M  V30 2650 C 248.254 -1.63707 0.897604 0
M  V30 2651 C 248.605 -1.87812 -0.567546 0
M  V30 2652 O 247.73 -1.62196 -1.43253 0
M  V30 2653 C 248.325 -2.974 1.62292 0
M  V30 2654 C 246.884 -3.47772 1.43986 0
M  V30 2655 C 246.031 -2.22332 1.65722 0
M  V30 2656 H 248.982 -0.936587 1.28116 0
M  V30 2657 H 249.003 -3.64986 1.07541 0
M  V30 2658 H 248.515 -2.79824 2.68924 0
M  V30 2659 H 246.616 -3.70487 0.396206 0
M  V30 2660 H 246.729 -4.25723 2.19765 0
M  V30 2661 H 245.093 -2.30599 1.08149 0
M  V30 2662 H 245.876 -2.07285 2.73657 0
M  V30 2663 N 248.321 -0.919034 -1.28029 0
M  V30 2664 C 249.231 -0.416756 -2.30869 0
M  V30 2665 C 250.247 0.498235 -1.66714 0
M  V30 2666 O 251.423 0.383144 -1.97722 0
M  V30 2667 C 248.488 0.330274 -3.45123 0
M  V30 2668 C 247.549 -0.618578 -4.2482 0
M  V30 2669 C 246.782 0.0928959 -5.33619 0
M  V30 2670 O 247.005 1.31375 -5.55065 0
M  V30 2671 O 245.939 -0.574499 -5.99152 0
M  V30 2672 H 249.765 -1.27043 -2.75851 0
M  V30 2673 H 247.35 -0.684052 -1.3282 0
M  V30 2674 H 249.232 0.751972 -4.14636 0
M  V30 2675 H 247.907 1.1597 -3.02213 0
M  V30 2676 H 246.814 -1.08978 -3.57875 0
M  V30 2677 H 248.147 -1.41497 -4.71423 0
M  V30 2678 N 249.799 1.42003 -0.683588 0
M  V30 2679 C 250.747 2.326 0.000815408 0
M  V30 2680 C 251.741 1.50308 0.781278 0
M  V30 2681 O 252.947 1.66322 0.688251 0
M  V30 2682 H 249.322 0.751758 0.0190616 0
M  V30 2683 H 251.293 2.88011 -0.780528 0
M  V30 2684 C 250.042 3.34978 0.93195 0
M  V30 2685 H 249.365 3.98345 0.340817 0
M  V30 2686 H 250.805 4.00936 1.37936 0
M  V30 2687 C 249.264 2.67925 2.04249 0
M  V30 2688 O 249.794 2.51788 3.12995 0
M  V30 2689 N 248 2.2681 1.81675 0
M  V30 2690 H 247.547 2.40135 0.932363 0
M  V30 2691 H 247.505 1.8228 2.56167 0
M  V30 2692 N 251.277 0.427512 1.51691 0
M  V30 2693 C 252.524 -0.142229 2.02 0
M  V30 2694 C 252.852 -1.43566 1.31221 0
M  V30 2695 O 252.107 -1.91298 0.412744 0
M  V30 2696 C 252.406 -0.418249 3.54944 0
M  V30 2697 C 252.072 0.788187 4.43958 0
M  V30 2698 C 250.734 1.11906 4.68007 0
M  V30 2699 C 253.086 1.59347 4.96244 0
M  V30 2700 C 250.414 2.25608 5.41588 0
M  V30 2701 C 252.766 2.7214 5.71072 0
M  V30 2702 C 251.43 3.05692 5.93387 0
M  V30 2703 H 250.7 -0.0520451 0.73917 0
M  V30 2704 H 253.347 0.572697 1.82736 0
M  V30 2705 H 251.652 -1.21496 3.72486 0
M  V30 2706 H 253.349 -0.872339 3.91397 0
M  V30 2707 H 249.939 0.520344 4.2543 0
M  V30 2708 H 254.123 1.35106 4.77556 0
M  V30 2709 H 249.379 2.51929 5.57083 0
M  V30 2710 H 253.553 3.34914 6.10578 0
M  V30 2711 H 251.18 3.9391 6.50184 0
M  V30 2712 N 252.755 -1.56801 0.158532 0
M  V30 2713 C 253.685 -2.20347 -0.772609 0
M  V30 2714 C 254.666 -1.15518 -1.24859 0
M  V30 2715 O 255.851 -1.43902 -1.30406 0
M  V30 2716 C 252.981 -2.83417 -2.00729 0
M  V30 2717 C 251.935 -3.94174 -1.66765 0
M  V30 2718 C 251.261 -4.44233 -2.97592 0
M  V30 2719 C 252.561 -5.14392 -0.905447 0
M  V30 2720 H 254.255 -2.98413 -0.242959 0
M  V30 2721 H 251.801 -1.43537 -0.115419 0
M  V30 2722 H 253.754 -3.26543 -2.6636 0
M  V30 2723 H 252.478 -2.02701 -2.56086 0
M  V30 2724 H 251.137 -3.51684 -1.03508 0
M  V30 2725 H 250.785 -3.60325 -3.50963 0
M  V30 2726 H 250.485 -5.18945 -2.75626 0
M  V30 2727 H 252.009 -4.90037 -3.64274 0
M  V30 2728 H 253.423 -5.5429 -1.46408 0
M  V30 2729 H 251.82 -5.9494 -0.7853 0
M  V30 2730 H 252.89 -4.84795 0.100668 0
M  V30 2731 N 254.233 0.115231 -1.57178 0
M  V30 2732 C 255.479 0.82357 -1.85325 0
M  V30 2733 C 255.812 1.79349 -0.744814 0
M  V30 2734 O 255.087 1.92899 0.249024 0
M  V30 2735 C 255.37 1.57014 -3.24066 0
M  V30 2736 C 255.223 0.619565 -4.45513 0
M  V30 2737 C 256.542 2.52545 -3.60429 0
M  V30 2738 H 253.661 0.297948 -0.674089 0
M  V30 2739 H 256.303 0.0877138 -1.89797 0
M  V30 2740 H 254.453 2.19742 -3.20383 0
M  V30 2741 H 256.125 0.000837639 -4.613 0
M  V30 2742 H 254.368 -0.0686174 -4.33746 0
M  V30 2743 H 255.039 1.17866 -5.3927 0
M  V30 2744 H 257.515 1.9992 -3.64926 0
M  V30 2745 H 256.391 3.01811 -4.58477 0
M  V30 2746 H 256.652 3.35383 -2.88047 0
M  V30 2747 N 255.711 1.52812 0.385517 0
M  V30 2748 C 256.959 1.67694 1.12797 0
M  V30 2749 C 257.28 0.421115 1.90399 0
M  V30 2750 O 256.55 -0.564551 1.87589 0
M  V30 2751 H 255.13 0.618155 0.419396 0
M  V30 2752 H 257.792 1.89938 0.436972 0
M  V30 2753 H 256.888 2.52896 1.82894 0
M  V30 2754 N 257.189 -0.644168 1.43834 0
M  V30 2755 C 258.605 -0.960875 1.27434 0
M  V30 2756 C 258.805 -2.00499 0.200618 0
M  V30 2757 O 257.861 -2.49018 -0.417906 0
M  V30 2758 C 259.174 -1.43653 2.64167 0
M  V30 2759 C 260.722 -1.55271 2.71772 0
M  V30 2760 C 261.197 -2.06224 4.08944 0
M  V30 2761 N 262.688 -2.13513 4.11055 0
M  V30 2762 C 263.423 -2.54081 5.14033 0
M  V30 2763 N 262.919 -2.9388 6.27381 0
M  V30 2764 N 264.712 -2.54101 5.01387 0
M  V30 2765 H 256.863 0.0465779 2.12349 0
M  V30 2766 H 259.126 -0.0417638 0.94708 0
M  V30 2767 H 258.832 -0.743706 3.43747 0
M  V30 2768 H 258.706 -2.40993 2.90176 0
M  V30 2769 H 261.093 -2.23653 1.92519 0
M  V30 2770 H 261.174 -0.563395 2.49519 0
M  V30 2771 H 260.818 -1.38441 4.88668 0
M  V30 2772 H 260.748 -3.06003 4.28567 0
M  V30 2773 H 263.239 -1.85493 3.29242 0
M  V30 2774 H 263.552 -3.2361 7.01781 0
M  V30 2775 H 261.897 -2.91663 6.30839 0
M  V30 2776 H 265.088 -2.22391 4.11898 0
M  V30 2777 H 265.261 -2.85394 5.81768 0
M  V30 2778 N 258.668 -1.30515 -0.883378 0
M  V30 2779 C 260.079 -1.17509 -1.45081 0
M  V30 2780 C 260.43 0.223605 -1.94922 0
M  V30 2781 O 259.555 1.12041 -1.85137 0
M  V30 2782 C 260.15 -2.12715 -2.63701 0
M  V30 2783 C 258.709 -2.03682 -3.16529 0
M  V30 2784 C 257.856 -2.02706 -1.89224 0
M  V30 2785 H 260.807 -1.42762 -0.693165 0
M  V30 2786 H 260.828 -1.70891 -3.39965 0
M  V30 2787 H 260.34 -3.14505 -2.27395 0
M  V30 2788 H 258.441 -1.05039 -3.57488 0
M  V30 2789 H 258.554 -2.92146 -3.7972 0
M  V30 2790 H 256.918 -1.4753 -2.07622 0
M  V30 2791 H 257.701 -3.06229 -1.55174 0
M  V30 2792 N 260.146 1.09593 -1.13257 0
M  V30 2793 C 261.394 1.81375 -0.891492 0
M  V30 2794 C 261.715 1.86049 0.584009 0
M  V30 2795 O 260.985 1.34481 1.42449 0
M  V30 2796 H 259.565 0.671708 -0.326828 0
M  V30 2797 H 262.227 1.3256 -1.42877 0
M  V30 2798 H 261.323 2.84612 -1.28071 0
M  V30 2799 N 261.624 0.925811 1.2754 0
M  V30 2800 C 262.852 0.581509 1.9856 0
M  V30 2801 C 263.267 -0.840041 1.69082 0
M  V30 2802 O 262.624 -1.55805 0.950312 0
M  V30 2803 C 262.675 0.795589 3.52637 0
M  V30 2804 O 262.396 2.16121 3.81082 0
M  V30 2805 C 263.897 0.459744 4.4091 0
M  V30 2806 H 261.117 0.220538 0.633722 0
M  V30 2807 H 263.661 1.24232 1.6244 0
M  V30 2808 H 261.816 0.18161 3.86974 0
M  V30 2809 H 262.23 2.2098 4.75676 0
M  V30 2810 H 263.704 0.660244 5.48037 0
M  V30 2811 H 264.181 -0.604625 4.35018 0
M  V30 2812 H 264.787 1.05178 4.12089 0
M  V30 2813 N 263.102 -1.41638 0.69111 0
M  V30 2814 C 264.049 -2.30789 0.0229705 0
M  V30 2815 C 265.019 -1.46863 -0.775911 0
M  V30 2816 O 266.204 -1.75661 -0.74485 0
M  V30 2817 C 263.344 -3.32868 -0.910666 0
M  V30 2818 C 262.457 -4.31875 -0.103874 0
M  V30 2819 C 261.592 -5.21024 -1.03475 0
M  V30 2820 C 260.631 -6.11702 -0.220598 0
M  V30 2821 N 259.768 -6.93349 -1.10504 0
M  V30 2822 H 264.608 -2.87366 0.788978 0
M  V30 2823 H 262.145 -1.41535 0.400794 0
M  V30 2824 H 264.103 -3.90596 -1.46597 0
M  V30 2825 H 262.733 -2.77851 -1.64312 0
M  V30 2826 H 261.785 -3.76131 0.568285 0
M  V30 2827 H 263.097 -4.96003 0.527504 0
M  V30 2828 H 262.251 -5.83565 -1.65943 0
M  V30 2829 H 260.99 -4.57112 -1.69999 0
M  V30 2830 H 259.995 -5.48215 0.417187 0
M  V30 2831 H 261.22 -6.77668 0.440784 0
M  V30 2832 H 259.166 -6.3205 -1.75638 0
M  V30 2833 H 259.083 -7.54146 -0.529125 0
M  V30 2834 H 260.351 -7.60362 -1.71667 0
M  V30 2835 N 264.58 -0.43555 -1.51462 0
M  V30 2836 C 265.996 -0.0877501 -1.59359 0
M  V30 2837 C 266.196 1.4027 -1.4466 0
M  V30 2838 O 265.252 2.17243 -1.28693 0
M  V30 2839 C 266.565 -0.606264 -2.94525 0
M  V30 2840 C 268.113 -0.566548 -3.0783 0
M  V30 2841 C 268.588 -1.06201 -4.45517 0
M  V30 2842 N 270.079 -1.01992 -4.51832 0
M  V30 2843 C 270.814 -1.37417 -5.5669 0
M  V30 2844 N 270.31 -1.80119 -6.68976 0
M  V30 2845 N 272.103 -1.29245 -5.47039 0
M  V30 2846 H 264.254 -1.40533 -1.59261 0
M  V30 2847 H 266.517 -0.578992 -0.750648 0
M  V30 2848 H 266.223 -1.64901 -3.10645 0
M  V30 2849 H 266.097 -0.0302097 -3.77188 0
M  V30 2850 H 268.484 0.467208 -2.91378 0
M  V30 2851 H 268.565 -1.17898 -2.2701 0
M  V30 2852 H 268.209 -2.09422 -4.62715 0
M  V30 2853 H 268.139 -0.426127 -5.24873 0
M  V30 2854 H 270.63 -0.706308 -3.71241 0
M  V30 2855 H 270.943 -2.05392 -7.45006 0
M  V30 2856 H 269.288 -1.84044 -6.70189 0
M  V30 2857 H 272.479 -0.957522 -4.58202 0
M  V30 2858 H 272.652 -1.57182 -6.28648 0
M  V30 2859 N 266.058 1.56714 -0.166846 0
M  V30 2860 C 266.99 2.14914 0.796537 0
M  V30 2861 C 268.003 1.10357 1.19688 0
M  V30 2862 O 269.192 1.37561 1.13751 0
M  V30 2863 C 266.292 2.67326 2.08303 0
M  V30 2864 C 265.465 3.96493 1.84696 0
M  V30 2865 C 264.524 4.34014 2.97521 0
M  V30 2866 O 263.55 5.01973 2.6835 0
M  V30 2867 N 264.752 3.95208 4.25196 0
M  V30 2868 H 267.517 2.98205 0.299006 0
M  V30 2869 H 265.078 1.61892 0.0160839 0
M  V30 2870 H 267.07 2.89428 2.82867 0
M  V30 2871 H 265.64 1.88649 2.4926 0
M  V30 2872 H 264.86 3.82814 0.940602 0
M  V30 2873 H 266.148 4.8086 1.66285 0
M  V30 2874 H 265.546 3.40487 4.51758 0
M  V30 2875 H 264.103 4.2232 4.96477 0
M  V30 2876 N 267.536 -0.106894 1.57237 0
M  V30 2877 C 268.486 -1.1366 1.9765 0
M  V30 2878 C 269.47 -1.36416 0.853203 0
M  V30 2879 O 270.662 -1.37305 1.11697 0
M  V30 2880 C 267.791 -2.46 2.39455 0
M  V30 2881 C 266.877 -2.26668 3.58445 0
M  V30 2882 N 267.268 -1.77176 4.73754 0
M  V30 2883 C 265.566 -2.57279 3.64312 0
M  V30 2884 C 266.267 -1.71836 5.5574 0
M  V30 2885 N 265.243 -2.16623 4.98573 0
M  V30 2886 H 269.045 -0.74669 2.84256 0
M  V30 2887 H 266.559 -0.314483 1.59326 0
M  V30 2888 H 268.556 -3.2049 2.6663 0
M  V30 2889 H 267.216 -2.85738 1.54219 0
M  V30 2890 H 268.227 -1.46545 4.96734 0
M  V30 2891 H 264.904 -3.00622 2.89711 0
M  V30 2892 H 266.294 -1.34723 6.58255 0
M  V30 2893 N 269.014 -1.53014 -0.377408 0
M  V30 2894 C 269.977 -1.77957 -1.44444 0
M  V30 2895 C 270.977 -0.649763 -1.47087 0
M  V30 2896 O 272.167 -0.917897 -1.48055 0
M  V30 2897 C 269.299 -1.89089 -2.83651 0
M  V30 2898 H 270.492 -2.73243 -1.23606 0
M  V30 2899 H 268.045 -1.43912 -0.609844 0
M  V30 2900 H 268.78 -0.958293 -3.09818 0
M  V30 2901 H 268.565 -2.71254 -2.83132 0
M  V30 2902 H 270.055 -2.1002 -3.60945 0
M  V30 2903 N 270.492 0.636531 -1.44174 0
M  V30 2904 C 271.741 1.39213 -1.45954 0
M  V30 2905 C 272.054 1.95374 -0.0939119 0
M  V30 2906 O 273.26 2.71498 0.0107767 0
M  V30 2907 C 271.716 2.52025 -2.56927 0
M  V30 2908 C 271.324 2.024 -3.99673 0
M  V30 2909 C 273.068 3.29269 -2.67922 0
M  V30 2910 C 270.975 3.12521 -5.0208 0
M  V30 2911 H 269.905 0.523132 -0.542999 0
M  V30 2912 H 272.556 0.685349 -1.70221 0
M  V30 2913 H 270.938 3.25253 -2.25891 0
M  V30 2914 H 272.112 1.36073 -4.40251 0
M  V30 2915 H 270.427 1.37987 -3.92872 0
M  V30 2916 H 273.024 4.11352 -3.41605 0
M  V30 2917 H 273.367 3.78397 -1.73555 0
M  V30 2918 H 273.9 2.63129 -2.98342 0
M  V30 2919 H 270.639 2.68343 -5.98057 0
M  V30 2920 H 270.159 3.77507 -4.66099 0
M  V30 2921 H 271.838 3.77385 -5.25538 0
M  V30 2922 N 271.97 1.30982 0.876444 0
M  V30 2923 C 272.92 1.14688 1.97055 0
M  V30 2924 C 273.904 0.0596593 1.60789 0
M  V30 2925 O 275.096 0.283892 1.74708 0
M  V30 2926 C 272.225 0.849627 3.3262 0
M  V30 2927 C 271.311 1.97752 3.75173 0
M  V30 2928 N 271.702 3.22384 3.89746 0
M  V30 2929 C 270 1.8758 4.04635 0
M  V30 2930 C 270.701 3.96121 4.25985 0
M  V30 2931 N 269.677 3.24237 4.36315 0
M  V30 2932 H 273.479 2.09204 2.06424 0
M  V30 2933 H 270.993 1.22445 1.06682 0
M  V30 2934 H 272.99 0.713895 4.10742 0
M  V30 2935 H 271.65 -0.087376 3.24582 0
M  V30 2936 H 272.661 3.57575 3.74647 0
M  V30 2937 H 269.338 1.01303 4.05024 0
M  V30 2938 H 270.728 5.03491 4.44911 0
M  V30 2939 N 273.449 -1.08991 1.13837 0
M  V30 2940 C 274.698 -1.80631 0.897509 0
M  V30 2941 C 275.011 -1.86872 -0.57777 0
M  V30 2942 O 276.217 -2.54866 -0.935701 0
M  V30 2943 C 274.673 -3.24517 1.55618 0
M  V30 2944 C 274.281 -3.26529 3.0673 0
M  V30 2945 C 276.025 -4.00882 1.3962 0
M  V30 2946 C 273.932 -4.64965 3.65461 0
M  V30 2947 H 272.862 -0.67691 0.332129 0
M  V30 2948 H 275.513 -1.2246 1.3666 0
M  V30 2949 H 273.895 -3.82778 1.01476 0
M  V30 2950 H 275.069 -2.78008 3.67489 0
M  V30 2951 H 273.384 -2.63656 3.22296 0
M  V30 2952 H 275.981 -5.03167 1.80906 0
M  V30 2953 H 276.324 -4.14896 0.341578 0
M  V30 2954 H 276.857 -3.49075 1.90766 0
M  V30 2955 H 273.596 -4.56153 4.70749 0
M  V30 2956 H 273.116 -5.13792 3.09481 0
M  V30 2957 H 274.795 -5.3394 3.654 0
M  V30 2958 N 274.927 -0.932562 -1.27047 0
M  V30 2959 C 276.176 -0.571351 -1.93439 0
M  V30 2960 C 276.489 0.892467 -1.74053 0
M  V30 2961 O 277.695 1.36267 -2.34826 0
M  V30 2962 C 276.151 -0.97106 -3.46552 0
M  V30 2963 C 275.759 -2.4559 -3.74686 0
M  V30 2964 C 277.503 -0.681333 -4.18997 0
M  V30 2965 C 275.41 -2.79475 -5.21198 0
M  V30 2966 H 274.34 -0.209966 -0.724176 0
M  V30 2967 H 276.991 -1.13403 -1.44263 0
M  V30 2968 H 275.373 -0.336983 -3.94564 0
M  V30 2969 H 276.547 -3.13829 -3.37414 0
M  V30 2970 H 274.862 -2.71802 -3.15456 0
M  V30 2971 H 277.459 -0.910939 -5.26883 0
M  V30 2972 H 277.802 0.381628 -4.14547 0
M  V30 2973 H 278.335 -1.27473 -3.76823 0
M  V30 2974 H 275.074 -3.847 -5.30741 0
M  V30 2975 H 274.594 -2.1589 -5.596 0
M  V30 2976 H 276.273 -2.67478 -5.89122 0
M  V30 2977 N 276.405 1.4127 -0.698611 0
M  V30 2978 C 277.682 1.94955 -0.158762 0
M  V30 2979 C 278.062 1.63781 1.33188 0
M  V30 2980 O 277.41 0.946423 2.07979 0
M  V30 2981 C 277.62 3.46044 -0.453309 0
M  V30 2982 C 278.968 4.22872 -0.382707 0
M  V30 2983 O 279.992 3.54076 -0.388396 0
M  V30 2984 O 278.851 5.45407 -0.345463 0
M  V30 2985 H 275.945 0.82683 -0.0167505 0
M  V30 2986 H 278.491 1.50971 -0.77498 0
M  V30 2987 H 277.263 3.62028 -1.48498 0
M  V30 2988 H 276.886 3.97128 0.19373 0
M  V30 2989 N 277.883 0.443576 1.51229 0
M  V30 2990 C 279.13 -0.120796 2.02139 0
M  V30 2991 C 279.458 -1.42166 1.32736 0
M  V30 2992 O 278.713 -1.90849 0.43301 0
M  V30 2993 C 279.012 -0.380579 3.55368 0
M  V30 2994 C 278.678 0.83523 4.43097 0
M  V30 2995 C 277.34 1.16864 4.66794 0
M  V30 2996 C 279.692 1.64601 4.94526 0
M  V30 2997 C 277.02 2.31339 5.39165 0
M  V30 2998 C 279.372 2.78181 5.68153 0
M  V30 2999 C 278.036 3.11969 5.90112 0
M  V30 3000 H 277.306 -0.0442023 0.73968 0
M  V30 3001 H 279.953 0.592046 1.82118 0
M  V30 3002 H 278.258 -1.17538 3.73754 0
M  V30 3003 H 279.955 -0.830777 3.923 0
M  V30 3004 H 276.545 0.565437 4.24854 0
M  V30 3005 H 280.729 1.40163 4.76097 0
M  V30 3006 H 275.985 2.57823 5.5438 0
M  V30 3007 H 280.159 3.41371 6.06992 0
M  V30 3008 H 277.786 4.00784 6.45969 0
M  V30 3009 N 279.361 -1.56624 0.175154 0
M  V30 3010 C 280.609 -1.96609 -0.467885 0
M  V30 3011 C 280.93 -1.06238 -1.63519 0
M  V30 3012 O 280.2 -0.129523 -1.95471 0
M  V30 3013 H 278.78 -0.726008 -0.175845 0
M  V30 3014 H 281.442 -1.93195 0.257234 0
M  V30 3015 H 280.538 -3.00989 -0.825342 0
M  V30 3016 N 280.839 0.0985539 -1.57292 0
M  V30 3017 C 281.769 1.12064 -2.04851 0
M  V30 3018 C 282.75 1.41981 -0.936767 0
M  V30 3019 O 283.935 1.52071 -1.20781 0
M  V30 3020 C 281.065 2.44144 -2.47004 0
M  V30 3021 C 280.019 2.28643 -3.6181 0
M  V30 3022 C 279.345 3.65869 -3.89929 0
M  V30 3023 C 280.645 1.72986 -4.92822 0
M  V30 3024 H 282.339 0.724979 -2.9049 0
M  V30 3025 H 279.885 0.34729 -1.39749 0
M  V30 3026 H 281.838 3.15914 -2.78884 0
M  V30 3027 H 280.562 2.85639 -1.5836 0
M  V30 3028 H 279.221 1.59318 -3.30172 0
M  V30 3029 H 278.869 4.04885 -2.98458 0
M  V30 3030 H 278.569 3.56344 -4.67218 0
M  V30 3031 H 280.093 4.39112 -4.2428 0
M  V30 3032 H 281.507 2.34593 -5.23105 0
M  V30 3033 H 279.904 1.74229 -5.74251 0
M  V30 3034 H 280.974 0.689007 -4.7998 0
M  V30 3035 N 282.317 1.53212 0.369288 0
M  V30 3036 C 283.28 1.7872 1.43498 0
M  V30 3037 C 284.28 0.657554 1.46741 0
M  V30 3038 O 285.47 0.925736 1.47566 0
M  V30 3039 C 282.602 1.90591 2.82645 0
M  V30 3040 H 283.795 2.73894 1.22156 0
M  V30 3041 H 281.348 1.44233 0.602203 0
M  V30 3042 H 282.083 0.974709 3.09306 0
M  V30 3043 H 281.868 2.72751 2.8169 0
M  V30 3044 H 283.358 2.11931 3.59826 0
M  V30 3045 N 283.795 -0.628877 1.44509 0
M  V30 3046 C 284.742 -1.74074 1.51549 0
M  V30 3047 C 285.712 -1.62084 0.363021 0
M  V30 3048 O 286.897 -1.81975 0.573567 0
M  V30 3049 C 284.037 -3.12328 1.46784 0
M  V30 3050 C 283.15 -3.35277 2.72422 0
M  V30 3051 C 282.285 -4.63515 2.59475 0
M  V30 3052 C 281.324 -4.7965 3.80266 0
M  V30 3053 N 280.461 -5.99168 3.65981 0
M  V30 3054 H 285.301 -1.67392 2.46544 0
M  V30 3055 H 282.838 -0.816527 1.22357 0
M  V30 3056 H 284.796 -3.92286 1.42012 0
M  V30 3057 H 283.426 -3.18018 0.553544 0
M  V30 3058 H 282.478 -2.49242 2.87372 0
M  V30 3059 H 283.79 -3.43078 3.62076 0
M  V30 3060 H 282.944 -5.51638 2.52548 0
M  V30 3061 H 281.683 -4.58076 1.67384 0
M  V30 3062 H 280.688 -3.89957 3.87574 0
M  V30 3063 H 281.913 -4.86902 4.73395 0
M  V30 3064 H 279.859 -5.94814 2.76644 0
M  V30 3065 H 279.776 -6.08035 4.49254 0
M  V30 3066 H 281.044 -6.89846 3.6295 0
M  V30 3067 N 285.273 -1.31445 -0.869486 0
M  V30 3068 C 286.183 -1.21097 -2.0093 0
M  V30 3069 C 287.199 -0.127584 -1.73532 0
M  V30 3070 O 288.375 -0.345477 -1.98415 0
M  V30 3071 C 285.44 -0.919378 -3.34288 0
M  V30 3072 C 284.501 -2.08971 -3.75006 0
M  V30 3073 C 283.734 -1.81194 -5.02001 0
M  V30 3074 O 283.957 -0.747296 -5.65484 0
M  V30 3075 O 282.891 -2.66883 -5.39497 0
M  V30 3076 H 286.717 -2.16883 -2.12592 0
M  V30 3077 H 284.302 -1.11189 -0.997868 0
M  V30 3078 H 286.184 -0.772625 -4.14257 0
M  V30 3079 H 284.859 0.00844772 -3.23699 0
M  V30 3080 H 283.766 -2.29187 -2.95676 0
M  V30 3081 H 285.099 -2.9998 -3.90221 0
M  V30 3082 N 286.751 1.08385 -1.14413 0
M  V30 3083 C 287.981 1.8425 -0.934644 0
M  V30 3084 C 288.389 1.81907 0.520234 0
M  V30 3085 O 287.732 1.22126 1.37226 0
M  V30 3086 C 287.794 3.32853 -1.35828 0
M  V30 3087 C 287.458 3.5893 -2.82875 0
M  V30 3088 C 288.455 3.53756 -3.80989 0
M  V30 3089 C 286.14 3.86934 -3.20293 0
M  V30 3090 C 288.134 3.76216 -5.14529 0
M  V30 3091 C 285.821 4.09047 -4.54008 0
M  V30 3092 C 286.819 4.03682 -5.50936 0
M  V30 3093 O 286.507 4.25214 -6.82238 0
M  V30 3094 H 286.239 0.588502 -0.332628 0
M  V30 3095 H 288.793 1.37792 -1.52324 0
M  V30 3096 H 287.023 3.8007 -0.713019 0
M  V30 3097 H 288.712 3.90154 -1.11957 0
M  V30 3098 H 289.478 3.32135 -3.53428 0
M  V30 3099 H 285.357 3.9023 -2.45442 0
M  V30 3100 H 288.901 3.71943 -5.90173 0
M  V30 3101 H 284.798 4.30151 -4.8129 0
M  V30 3102 H 285.566 4.42619 -6.88499 0
M  V30 3103 N 288.23 0.939286 1.26551 0
M  V30 3104 C 289.479 0.581601 1.93133 0
M  V30 3105 C 289.792 -0.883224 1.74524 0
M  V30 3106 O 290.998 -1.3502 2.35546 0
M  V30 3107 C 289.454 0.989425 3.46032 0
M  V30 3108 C 289.062 2.47573 3.73379 0
M  V30 3109 C 290.806 0.703544 4.18629 0
M  V30 3110 C 288.713 2.82235 5.19709 0
M  V30 3111 H 287.643 0.213803 0.723052 0
M  V30 3112 H 290.294 1.14167 1.4366 0
M  V30 3113 H 288.676 0.357902 3.94379 0
M  V30 3114 H 289.85 3.15614 3.35744 0
M  V30 3115 H 288.165 2.73471 3.1401 0
M  V30 3116 H 290.762 0.938869 5.26393 0
M  V30 3117 H 291.105 -0.359639 4.14744 0
M  V30 3118 H 291.638 1.2947 3.76141 0
M  V30 3119 H 288.377 3.87509 5.28694 0
M  V30 3120 H 287.897 2.18854 5.58447 0
M  V30 3121 H 289.576 2.70599 5.87695 0
M  V30 3122 N 289.708 -1.40897 0.706093 0
M  V30 3123 C 290.985 -1.94868 0.169099 0
M  V30 3124 C 291.365 -1.64485 -1.32318 0
M  V30 3125 O 290.713 -0.95744 -2.07474 0
M  V30 3126 C 290.923 -3.45798 0.471654 0
M  V30 3127 C 292.271 -4.22663 0.405127 0
M  V30 3128 O 293.295 -3.53865 0.407168 0
M  V30 3129 O 292.154 -5.45216 0.374383 0
M  V30 3130 H 289.248 -0.82673 0.0211352 0
M  V30 3131 H 291.794 -1.50558 0.782976 0
M  V30 3132 H 290.566 -3.61235 1.50416 0
M  V30 3133 H 290.189 -3.97225 -0.172666 0
M  V30 3134 N 291.186 -0.45159 -1.50991 0
M  V30 3135 C 292.597 0.00818571 -1.86698 0
M  V30 3136 C 292.948 1.40661 -1.3678 0
M  V30 3137 O 292.073 2.0391 -0.724546 0
M  V30 3138 C 292.668 0.0216303 -3.38793 0
M  V30 3139 C 291.227 0.425865 -3.73983 0
M  V30 3140 C 290.374 -0.372163 -2.74791 0
M  V30 3141 H 293.325 -0.666785 -1.44013 0
M  V30 3142 H 293.346 0.828078 -3.7138 0
M  V30 3143 H 292.858 -0.996288 -3.75094 0
M  V30 3144 H 290.959 1.44886 -3.43277 0
M  V30 3145 H 291.072 0.140761 -4.78893 0
M  V30 3146 H 289.436 0.171498 -2.54122 0
M  V30 3147 H 290.219 -1.38922 -3.13935 0
M  V30 3148 N 292.664 1.56529 -0.183458 0
M  V30 3149 C 293.574 2.22144 0.754272 0
M  V30 3150 C 294.59 1.21684 1.24374 0
M  V30 3151 O 295.766 1.54385 1.29333 0
M  V30 3152 C 292.831 2.85884 1.96141 0
M  V30 3153 C 291.892 4.01579 1.51765 0
M  V30 3154 C 291.125 4.6227 2.66725 0
M  V30 3155 O 291.348 4.21865 3.83909 0
M  V30 3156 O 290.282 5.51936 2.40104 0
M  V30 3157 H 294.108 3.02861 0.225527 0
M  V30 3158 H 291.693 1.49331 0.0453032 0
M  V30 3159 H 293.575 3.26253 2.66715 0
M  V30 3160 H 292.25 2.08154 2.47899 0
M  V30 3161 H 291.157 3.65856 0.781049 0
M  V30 3162 H 292.49 4.80938 1.04686 0
M  V30 3163 N 294.142 -0.090211 1.57342 0
M  V30 3164 C 295.37 -0.806224 1.90546 0
M  V30 3165 C 295.785 -1.72041 0.777644 0
M  V30 3166 O 295.142 -1.80778 -0.250103 0
M  V30 3167 C 295.193 -1.61546 3.23396 0
M  V30 3168 O 294.914 -0.738043 4.31839 0
M  V30 3169 C 296.415 -2.4341 3.70495 0
M  V30 3170 H 293.635 -0.230256 0.630257 0
M  V30 3171 H 296.179 -0.0659843 2.04394 0
M  V30 3172 H 294.334 -2.30816 3.11131 0
M  V30 3173 H 294.748 -1.29901 5.08159 0
M  V30 3174 H 296.222 -2.95676 4.66133 0
M  V30 3175 H 296.699 -3.22098 2.98579 0
M  V30 3176 H 297.305 -1.79331 3.85643 0
M  V30 3177 N 295.62 -1.53406 -0.361157 0
M  V30 3178 C 296.567 -1.80156 -1.44265 0
M  V30 3179 C 297.537 -0.646183 -1.53015 0
M  V30 3180 O 298.722 -0.888818 -1.68833 0
M  V30 3181 C 295.862 -2.00116 -2.81154 0
M  V30 3182 C 294.975 -3.27833 -2.81335 0
M  V30 3183 C 294.11 -3.37957 -4.09828 0
M  V30 3184 C 293.149 -4.59689 -4.04168 0
M  V30 3185 N 292.286 -4.66942 -5.24318 0
M  V30 3186 H 297.126 -2.72438 -1.20754 0
M  V30 3187 H 294.663 -1.34954 -0.585296 0
M  V30 3188 H 296.621 -2.09677 -3.60682 0
M  V30 3189 H 295.251 -1.11167 -3.03054 0
M  V30 3190 H 294.303 -3.27204 -1.94014 0
M  V30 3191 H 295.615 -4.17442 -2.73027 0
M  V30 3192 H 294.769 -3.46853 -4.97773 0
M  V30 3193 H 293.508 -2.46372 -4.20894 0
M  V30 3194 H 292.513 -4.50889 -3.14609 0
M  V30 3195 H 293.738 -5.5262 -3.947 0
M  V30 3196 H 291.684 -3.7826 -5.35962 0
M  V30 3197 H 291.601 -5.50462 -5.18197 0
M  V30 3198 H 292.869 -4.80127 -6.14084 0
M  V30 3199 N 297.098 0.621204 -1.44841 0
M  V30 3200 C 298.045 1.73267 -1.5247 0
M  V30 3201 C 299.015 1.6189 -0.371611 0
M  V30 3202 O 300.2 1.81668 -0.58321 0
M  V30 3203 C 297.34 3.11545 -1.48438 0
M  V30 3204 C 296.453 3.33827 -2.74196 0
M  V30 3205 C 295.588 4.62133 -2.61929 0
M  V30 3206 C 294.627 4.77627 -3.82804 0
M  V30 3207 N 293.764 5.97219 -3.69153 0
M  V30 3208 H 298.604 1.66082 -2.47428 0
M  V30 3209 H 296.141 0.810026 -1.22788 0
M  V30 3210 H 298.099 3.91528 -1.4409 0
M  V30 3211 H 296.729 3.1772 -0.570402 0
M  V30 3212 H 295.781 2.47715 -2.88689 0
M  V30 3213 H 297.093 3.41153 -3.6389 0
M  V30 3214 H 296.247 5.50291 -2.5547 0
M  V30 3215 H 294.986 4.57182 -1.69811 0
M  V30 3216 H 293.991 3.87896 -3.89637 0
M  V30 3217 H 295.216 4.84385 -4.75971 0
M  V30 3218 H 293.162 5.93339 -2.79794 0
M  V30 3219 H 293.079 6.05644 -4.52472 0
M  V30 3220 H 294.347 6.87912 -3.66603 0
M  V30 3221 N 298.576 1.31904 0.862503 0
M  V30 3222 C 299.526 1.16772 1.95827 0
M  V30 3223 C 300.51 0.0767098 1.60717 0
M  V30 3224 O 301.702 0.302407 1.74398 0
M  V30 3225 C 298.831 0.884858 3.317 0
M  V30 3226 C 297.917 2.0172 3.73055 0
M  V30 3227 N 298.308 3.265 3.86305 0
M  V30 3228 C 296.606 1.91861 4.02623 0
M  V30 3229 C 297.307 4.00616 4.2176 0
M  V30 3230 N 296.283 3.28847 4.32852 0
M  V30 3231 H 300.085 2.11382 2.04193 0
M  V30 3232 H 297.599 1.2357 1.05377 0
M  V30 3233 H 299.596 0.757419 4.09962 0
M  V30 3234 H 298.256 -0.0529448 3.24657 0
M  V30 3235 H 299.267 3.61529 3.70833 0
M  V30 3236 H 295.944 1.05593 4.03926 0
M  V30 3237 H 297.334 5.08182 4.39546 0
M  V30 3238 N 300.054 -1.07777 1.14986 0
M  V30 3239 C 301.303 -1.79669 0.916617 0
M  V30 3240 C 301.616 -1.87474 -0.557917 0
M  V30 3241 O 302.822 -2.55845 -0.908617 0
M  V30 3242 C 301.278 -3.22848 1.59051 0
M  V30 3243 C 300.886 -3.23257 3.10176 0
M  V30 3244 C 302.63 -3.99379 1.43864 0
M  V30 3245 C 300.537 -4.61063 3.70372 0
M  V30 3246 H 299.467 -0.673349 0.33929 0
M  V30 3247 H 302.118 -1.21003 1.37951 0
M  V30 3248 H 300.5 -3.8168 1.0553 0
M  V30 3249 H 301.674 -2.74095 3.70417 0
M  V30 3250 H 299.989 -2.60222 3.25074 0
M  V30 3251 H 302.586 -5.0122 1.86232 0
M  V30 3252 H 302.929 -4.14511 0.385564 0
M  V30 3253 H 303.462 -3.47032 1.94457 0
M  V30 3254 H 300.201 -4.51135 4.7556 0
M  V30 3255 H 299.721 -5.1048 3.14913 0
M  V30 3256 H 301.4 -5.30034 3.71043 0
M  V30 3257 N 301.532 -0.945985 -1.26051 0
M  V30 3258 C 302.943 -0.638096 -1.75457 0
M  V30 3259 C 303.294 0.846672 -1.76991 0
M  V30 3260 O 302.419 1.66262 -1.38513 0
M  V30 3261 C 303.014 -1.15157 -3.18629 0
M  V30 3262 C 301.573 -0.894004 -3.65629 0
M  V30 3263 C 300.72 -1.29967 -2.44957 0
M  V30 3264 H 303.671 -1.12376 -1.1206 0
M  V30 3265 H 303.692 -0.507615 -3.77099 0
M  V30 3266 H 303.204 -2.23222 -3.1748 0
M  V30 3267 H 301.305 0.172057 -3.72203 0
M  V30 3268 H 301.418 -1.52439 -4.54202 0
M  V30 3269 H 299.782 -0.718078 -2.44368 0
M  V30 3270 H 300.565 -2.38935 -2.46505 0
M  V30 3271 N 303.011 1.40521 -0.713556 0
M  V30 3272 C 304.241 2.0494 -0.261395 0
M  V30 3273 C 304.649 1.53861 1.10107 0
M  V30 3274 O 303.992 0.689321 1.70276 0
M  V30 3275 C 304.054 3.59138 -0.161227 0
M  V30 3276 C 303.718 4.33096 -1.45865 0
M  V30 3277 C 304.715 4.61182 -2.40016 0
M  V30 3278 C 302.4 4.72043 -1.71701 0
M  V30 3279 C 304.394 5.27196 -3.58251 0
M  V30 3280 C 302.081 5.37789 -2.90218 0
M  V30 3281 C 303.079 5.65295 -3.83315 0
M  V30 3282 O 302.767 6.29683 -4.99754 0
M  V30 3283 H 302.499 0.666041 -0.115608 0
M  V30 3284 H 305.053 1.80954 -0.971849 0
M  V30 3285 H 303.283 3.81936 0.605153 0
M  V30 3286 H 304.972 4.05091 0.256105 0
M  V30 3287 H 305.738 4.31559 -2.21318 0
M  V30 3288 H 301.617 4.50003 -1.00092 0
M  V30 3289 H 305.161 5.48582 -4.30934 0
M  V30 3290 H 301.058 5.66831 -3.08825 0
M  V30 3291 H 301.826 6.4818 -4.99805 0
M  V30 3292 N 304.489 0.459591 1.5075 0
M  V30 3293 C 305.905 0.113092 1.59199 0
M  V30 3294 C 306.105 -1.37951 1.46874 0
M  V30 3295 O 305.161 -2.15168 1.32132 0
M  V30 3296 C 306.474 0.653043 2.93523 0
M  V30 3297 C 308.022 0.615449 3.0689 0
M  V30 3298 C 308.497 1.13275 4.43771 0
M  V30 3299 N 309.988 1.09167 4.50152 0
M  V30 3300 C 310.723 1.46256 5.54434 0
M  V30 3301 N 310.219 1.90739 6.66026 0
M  V30 3302 N 312.012 1.37932 5.44914 0
M  V30 3303 H 304.163 1.43049 1.57005 0
M  V30 3304 H 306.426 0.590861 0.741341 0
M  V30 3305 H 306.132 1.69822 3.07983 0
M  V30 3306 H 306.006 0.0902132 3.77092 0
M  V30 3307 H 308.393 -0.420793 2.92084 0
M  V30 3308 H 308.474 1.21495 2.25106 0
M  V30 3309 H 308.118 2.16757 4.59324 0
M  V30 3310 H 308.048 0.509576 5.24129 0
M  V30 3311 H 310.539 0.76528 3.7007 0
M  V30 3312 H 310.852 2.17218 7.41644 0
M  V30 3313 H 309.197 1.94683 6.67176 0
M  V30 3314 H 312.388 1.0303 4.56621 0
M  V30 3315 H 312.561 1.67164 6.26067 0
M  V30 3316 N 305.967 -1.56429 0.191757 0
M  V30 3317 C 306.877 -2.22541 -0.742481 0
M  V30 3318 C 307.893 -1.22342 -1.23727 0
M  V30 3319 O 309.069 -1.55069 -1.28513 0
M  V30 3320 C 306.134 -2.8692 -1.94623 0
M  V30 3321 C 305.195 -4.02378 -1.49633 0
M  V30 3322 C 304.428 -4.63678 -2.6427 0
M  V30 3323 O 304.651 -4.23895 -3.81666 0
M  V30 3324 O 303.585 -5.53202 -2.37174 0
M  V30 3325 H 307.411 -3.02977 -0.209462 0
M  V30 3326 H 304.996 -1.49353 -0.0373832 0
M  V30 3327 H 306.878 -3.27663 -2.64982 0
M  V30 3328 H 305.553 -2.09466 -2.46791 0
M  V30 3329 H 304.46 -3.66265 -0.761636 0
M  V30 3330 H 305.793 -4.81487 -1.02134 0
M  V30 3331 N 307.445 0.0818655 -1.57387 0
M  V30 3332 C 308.395 1.10501 -1.99433 0
M  V30 3333 C 309.379 1.35041 -0.874798 0
M  V30 3334 O 310.571 1.35511 -1.13868 0
M  V30 3335 C 307.7 2.42159 -2.43339 0
M  V30 3336 C 306.786 2.20937 -3.62005 0
M  V30 3337 N 307.177 1.69616 -4.76512 0
M  V30 3338 C 305.475 2.51451 -3.68359 0
M  V30 3339 C 306.176 1.62973 -5.58404 0
M  V30 3340 N 305.152 2.08664 -5.01956 0
M  V30 3341 H 308.954 0.701373 -2.85408 0
M  V30 3342 H 306.468 0.289096 -1.59806 0
M  V30 3343 H 308.465 3.16208 -2.71695 0
M  V30 3344 H 307.125 2.83249 -1.58746 0
M  V30 3345 H 308.136 1.38624 -4.99003 0
M  V30 3346 H 304.813 2.95975 -2.94457 0
M  V30 3347 H 306.203 1.24233 -6.60315 0
M  V30 3348 N 308.923 1.53595 0.353017 0
M  V30 3349 C 309.87 1.80919 1.43308 0
M  V30 3350 C 310.84 0.654288 1.5267 0
M  V30 3351 O 312.025 0.897759 1.6836 0
M  V30 3352 C 309.165 2.01605 2.80089 0
M  V30 3353 C 308.278 3.29321 2.79593 0
M  V30 3354 C 307.413 3.40125 4.0803 0
M  V30 3355 C 306.452 4.61826 4.01725 0
M  V30 3356 N 305.589 4.69716 5.21834 0
M  V30 3357 H 310.429 2.73074 1.19308 0
M  V30 3358 H 307.966 1.35263 0.578131 0
M  V30 3359 H 309.924 2.11586 3.59565 0
M  V30 3360 H 308.554 1.12772 3.0246 0
M  V30 3361 H 307.606 3.28229 1.92276 0
M  V30 3362 H 308.918 4.18884 2.70809 0
M  V30 3363 H 308.072 3.49488 4.95927 0
M  V30 3364 H 306.811 2.48601 4.19582 0
M  V30 3365 H 305.816 4.52552 3.12213 0
M  V30 3366 H 307.041 5.54705 3.91764 0
M  V30 3367 H 304.987 3.81097 5.33948 0
M  V30 3368 H 304.904 5.53202 5.1527 0
M  V30 3369 H 306.172 4.83376 6.11529 0
M  V30 3370 N 310.401 -0.613514 1.45168 0
M  V30 3371 C 311.626 -1.40437 1.52618 0
M  V30 3372 C 312.051 -1.87438 0.157707 0
M  V30 3373 O 311.409 -1.59791 -0.856537 0
M  V30 3374 C 311.457 -2.58894 2.51011 0
M  V30 3375 O 310.561 -3.59326 2.02382 0
M  V30 3376 H 309.902 -0.419506 0.514695 0
M  V30 3377 H 312.432 -0.747215 1.90467 0
M  V30 3378 H 312.442 -3.06214 2.69624 0
M  V30 3379 H 311.117 -2.24032 3.50403 0
M  V30 3380 H 309.694 -3.18695 1.93618 0
M  V30 3381 N 311.879 -1.3236 -0.855495 0
M  V30 3382 C 312.809 -1.23833 -1.97958 0
M  V30 3383 C 313.79 -0.122361 -1.69659 0
M  V30 3384 O 314.975 -0.30939 -1.9172 0
M  V30 3385 C 312.105 -0.959772 -3.33775 0
M  V30 3386 C 311.059 -2.03689 -3.76424 0
M  V30 3387 C 310.385 -1.61075 -5.09862 0
M  V30 3388 C 311.685 -3.4518 -3.9198 0
M  V30 3389 H 313.379 -2.1788 -2.0535 0
M  V30 3390 H 310.925 -1.04891 -0.986605 0
M  V30 3391 H 312.878 -0.886678 -4.11966 0
M  V30 3392 H 311.602 0.0163404 -3.26596 0
M  V30 3393 H 310.261 -2.10012 -3.00484 0
M  V30 3394 H 309.909 -0.622107 -4.99138 0
M  V30 3395 H 309.609 -2.33143 -5.39368 0
M  V30 3396 H 311.133 -1.55201 -5.90546 0
M  V30 3397 H 312.547 -3.4145 -4.60526 0
M  V30 3398 H 310.944 -4.1559 -4.32903 0
M  V30 3399 H 312.014 -3.84903 -2.94919 0
M  V30 3400 N 313.357 1.07166 -1.15556 0
M  V30 3401 C 314.585 1.83514 -0.955519 0
M  V30 3402 C 315 1.82163 0.49621 0
M  V30 3403 O 314.357 1.23441 1.34419 0
M  V30 3404 C 314.408 3.30515 -1.46432 0
M  V30 3405 O 314.129 3.31937 -2.85918 0
M  V30 3406 C 315.63 4.23625 -1.30603 0
M  V30 3407 H 312.85 0.578926 -0.339244 0
M  V30 3408 H 315.394 1.35265 -1.53374 0
M  V30 3409 H 313.549 3.76106 -0.928584 0
M  V30 3410 H 313.963 4.23794 -3.09029 0
M  V30 3411 H 315.437 5.24831 -1.71047 0
M  V30 3412 H 315.914 4.38485 -0.250441 0
M  V30 3413 H 316.52 3.83871 -1.83094 0
M  V30 3414 N 314.835 0.952656 1.25548 0
M  V30 3415 C 316.083 0.605176 1.92826 0
M  V30 3416 C 316.404 -0.860261 1.74999 0
M  V30 3417 O 315.674 -1.6125 1.11244 0
M  V30 3418 H 314.254 0.220832 0.713612 0
M  V30 3419 H 316.916 1.21047 1.52754 0
M  V30 3420 H 316.012 0.832798 3.00784 0
M  V30 3421 N 316.313 -1.40141 0.720998 0
M  V30 3422 C 317.541 -2.05096 0.272656 0
M  V30 3423 C 317.956 -1.54334 -1.0875 0
M  V30 3424 O 317.313 -0.702211 -1.6845 0
M  V30 3425 C 317.364 -3.60636 0.249835 0
M  V30 3426 O 317.085 -4.09526 1.55629 0
M  V30 3427 C 318.586 -4.42772 -0.216396 0
M  V30 3428 H 315.806 -0.659897 0.121558 0
M  V30 3429 H 318.35 -1.79449 0.980723 0
M  V30 3430 H 316.505 -3.85232 -0.409237 0
M  V30 3431 H 316.919 -5.03758 1.4604 0
M  V30 3432 H 318.393 -5.51702 -0.181212 0
M  V30 3433 H 318.87 -4.20756 -1.25941 0
M  V30 3434 H 319.476 -4.23294 0.412596 0
M  V30 3435 N 317.792 -0.46758 -1.50504 0
M  V30 3436 C 318.755 0.317059 -2.26996 0
M  V30 3437 C 319.755 0.923513 -1.31635 0
M  V30 3438 O 320.945 0.793239 -1.55091 0
M  V30 3439 C 318.077 1.45134 -3.08462 0
M  V30 3440 H 319.27 -0.353723 -2.97807 0
M  V30 3441 H 316.823 -0.221545 -1.54722 0
M  V30 3442 H 317.558 2.15728 -2.4214 0
M  V30 3443 H 317.343 1.02232 -3.78538 0
M  V30 3444 H 318.833 2.00493 -3.66323 0
M  V30 3445 N 319.27 1.56325 -0.20005 0
M  V30 3446 C 320.686 1.58839 0.155716 0
M  V30 3447 C 320.886 1.21636 1.60645 0
M  V30 3448 O 319.942 0.941437 2.34293 0
M  V30 3449 C 321.255 3.0032 -0.151124 0
M  V30 3450 C 322.803 3.12866 -0.0916284 0
M  V30 3451 C 323.278 4.56488 -0.371845 0
M  V30 3452 N 324.769 4.62089 -0.320641 0
M  V30 3453 C 325.504 5.71116 -0.511243 0
M  V30 3454 N 325 6.88592 -0.762461 0
M  V30 3455 N 326.793 5.60335 -0.445157 0
M  V30 3456 H 318.944 1.78788 -1.14668 0
M  V30 3457 H 321.207 0.829996 -0.458051 0
M  V30 3458 H 320.913 3.32117 -1.15721 0
M  V30 3459 H 320.787 3.73257 0.543986 0
M  V30 3460 H 323.174 2.80878 0.905065 0
M  V30 3461 H 323.255 2.42304 -0.81989 0
M  V30 3462 H 322.899 4.89189 -1.36588 0
M  V30 3463 H 322.829 5.25246 0.377362 0
M  V30 3464 H 325.32 3.77665 -0.13329 0
M  V30 3465 H 325.633 7.67581 -0.896576 0
M  V30 3466 H 323.978 6.90387 -0.799412 0
M  V30 3467 H 327.169 4.67436 -0.249278 0
M  V30 3468 H 327.342 6.45243 -0.597116 0
M  V30 3469 N 320.748 -0.0735177 1.57428 0
M  V30 3470 C 321.978 -0.78483 1.91112 0
M  V30 3471 C 322.386 -1.71729 0.7941 0
M  V30 3472 O 321.729 -1.82105 -0.241542 0
M  V30 3473 C 321.791 -1.63346 3.20247 0
M  V30 3474 C 321.455 -0.870557 4.48632 0
M  V30 3475 C 322.452 -0.19058 5.19551 0
M  V30 3476 C 320.137 -0.838242 4.95256 0
M  V30 3477 C 322.131 0.511503 6.35344 0
M  V30 3478 C 319.818 -0.132386 6.10957 0
M  V30 3479 C 320.816 0.541288 6.80852 0
M  V30 3480 O 320.504 1.23578 7.94345 0
M  V30 3481 H 320.236 -0.228408 0.636244 0
M  V30 3482 H 322.79 -0.0486039 2.05342 0
M  V30 3483 H 321.02 -2.41245 3.02222 0
M  V30 3484 H 322.709 -2.22329 3.39595 0
M  V30 3485 H 323.475 -0.206864 4.84559 0
M  V30 3486 H 319.354 -1.35206 4.40727 0
M  V30 3487 H 322.898 1.03789 6.89836 0
M  V30 3488 H 318.795 -0.114023 6.45399 0
M  V30 3489 H 319.563 1.14487 8.10454 0
M  V30 3490 N 322.226 -1.5378 -0.344866 0
M  V30 3491 C 323.159 -1.7649 -1.4466 0
M  V30 3492 C 324.137 -0.613954 -1.50563 0
M  V30 3493 O 325.321 -0.84896 -1.683 0
M  V30 3494 C 322.448 -1.86235 -2.82903 0
M  V30 3495 C 321.494 -3.08375 -2.94631 0
M  V30 3496 S 322.327 -4.67457 -2.61236 0
M  V30 3497 C 323.483 -4.80079 -4.0159 0
M  V30 3498 H 323.716 -2.69661 -1.2518 0
M  V30 3499 H 321.249 -1.44632 -0.540455 0
M  V30 3500 H 323.207 -1.92535 -3.62547 0
M  V30 3501 H 321.868 -0.940786 -2.9968 0
M  V30 3502 H 321.061 -3.11865 -3.95925 0
M  V30 3503 H 320.663 -3.00294 -2.22934 0
M  V30 3504 H 322.955 -4.61407 -4.96094 0
M  V30 3505 H 323.898 -5.82168 -4.03095 0
M  V30 3506 H 324.306 -4.08544 -3.89554 0
M  V30 3507 N 323.704 0.605807 -1.45491 0
M  V30 3508 C 324.929 1.39625 -1.53361 0
M  V30 3509 C 325.354 1.87351 -0.167645 0
M  V30 3510 O 324.712 1.60243 0.848051 0
M  V30 3511 C 324.76 2.57559 -2.5238 0
M  V30 3512 O 323.864 3.58248 -2.04285 0
M  V30 3513 H 323.205 0.416771 -0.516912 0
M  V30 3514 H 325.735 0.737103 -1.90861 0
M  V30 3515 H 325.745 3.0478 -2.71244 0
M  V30 3516 H 324.42 2.22171 -3.51586 0
M  V30 3517 H 322.997 3.17664 -1.95305 0
M  V30 3518 N 325.182 1.32811 0.848464 0
M  V30 3519 C 326.431 1.23075 1.59798 0
M  V30 3520 C 326.744 -0.204419 1.94529 0
M  V30 3521 O 327.95 -0.423701 2.68173 0
M  V30 3522 C 326.406 2.15594 2.88179 0
M  V30 3523 C 326.014 3.64228 2.60849 0
M  V30 3524 C 327.758 2.14709 3.66197 0
M  V30 3525 C 325.665 4.48689 3.85269 0
M  V30 3526 H 324.595 0.457091 0.599653 0
M  V30 3527 H 327.246 1.57813 0.936342 0
M  V30 3528 H 325.628 1.73778 3.55833 0
M  V30 3529 H 326.802 4.14424 2.01467 0
M  V30 3530 H 325.117 3.67306 1.96151 0
M  V30 3531 H 327.714 2.75046 4.58534 0
M  V30 3532 H 328.057 1.13966 4.00397 0
M  V30 3533 H 328.59 2.54837 3.05455 0
M  V30 3534 H 325.329 5.5027 3.56207 0
M  V30 3535 H 324.849 4.03241 4.44024 0
M  V30 3536 H 326.528 4.62006 4.52946 0
M  V30 3537 N 326.66 -1.06551 1.16123 0
M  V30 3538 C 327.608 -2.16063 0.861371 0
M  V30 3539 C 328.602 -1.6856 -0.168517 0
M  V30 3540 O 329.808 -1.79986 -0.0227579 0
M  V30 3541 H 326.183 -0.705278 0.260934 0
M  V30 3542 H 328.154 -2.38567 1.79244 0
M  V30 3543 C 326.903 -3.45661 0.376018 0
M  V30 3544 H 326.226 -3.82604 1.15992 0
M  V30 3545 H 327.666 -4.23504 0.204951 0
M  V30 3546 C 326.125 -3.24546 -0.903954 0
M  V30 3547 O 326.655 -3.49865 -1.97377 0
M  V30 3548 N 324.861 -2.77992 -0.846679 0
M  V30 3549 H 324.408 -2.57589 0.0241017 0
M  V30 3550 H 324.366 -2.64244 -1.70359 0
M  V30 3551 N 328.138 -0.959301 -1.25041 0
M  V30 3552 C 329.366 -0.633949 -1.96948 0
M  V30 3553 C 329.781 0.794916 -1.7125 0
M  V30 3554 O 329.138 1.53231 -0.991287 0
M  V30 3555 C 329.189 -0.888805 -3.50403 0
M  V30 3556 O 328.91 -2.26149 -3.75218 0
M  V30 3557 C 330.411 -0.576482 -4.39536 0
M  V30 3558 H 327.631 -0.237263 -0.627652 0
M  V30 3559 H 330.175 -1.28495 -1.59089 0
M  V30 3560 H 328.33 -0.284145 -3.86357 0
M  V30 3561 H 328.744 -2.33514 -4.6965 0
M  V30 3562 H 330.218 -0.805314 -5.46094 0
M  V30 3563 H 330.695 0.489075 -4.36468 0
M  V30 3564 H 331.301 -1.16067 -4.09156 0
M  V30 3565 N 329.616 1.39756 -0.72842 0
M  V30 3566 C 330.566 2.2792 -0.0603424 0
M  V30 3567 C 331.55 1.43922 0.719399 0
M  V30 3568 O 332.742 1.66895 0.589489 0
M  V30 3569 C 329.871 3.32582 0.851104 0
M  V30 3570 C 328.957 4.24049 0.0658641 0
M  V30 3571 N 329.348 4.96653 -0.957578 0
M  V30 3572 C 327.646 4.45013 0.296509 0
M  V30 3573 C 328.347 5.63836 -1.43052 0
M  V30 3574 N 327.323 5.38397 -0.750315 0
M  V30 3575 H 331.125 2.81504 -0.84455 0
M  V30 3576 H 328.639 1.5236 -0.562155 0
M  V30 3577 H 330.636 3.94603 1.34514 0
M  V30 3578 H 329.296 2.80558 1.63454 0
M  V30 3579 H 330.307 5.00297 -1.33877 0
M  V30 3580 H 326.984 4.03943 1.05527 0
M  V30 3581 H 328.374 6.31974 -2.28163 0
M  V30 3582 N 331.094 0.475555 1.50254 0
M  V30 3583 C 332.024 -0.30611 2.31485 0
M  V30 3584 C 333.005 -0.986228 1.38591 0
M  V30 3585 O 334.19 -0.982541 1.67511 0
M  V30 3586 C 331.32 -1.38588 3.1845 0
M  V30 3587 C 330.274 -0.827115 4.19932 0
M  V30 3588 C 329.6 -2.00551 4.95665 0
M  V30 3589 C 330.9 0.16463 5.2204 0
M  V30 3590 H 332.594 0.371866 2.97082 0
M  V30 3591 H 330.14 0.180282 1.42867 0
M  V30 3592 H 332.093 -1.94023 3.74076 0
M  V30 3593 H 330.817 -2.09269 2.50747 0
M  V30 3594 H 329.476 -0.294702 3.65414 0
M  V30 3595 H 329.124 -2.6994 4.2443 0
M  V30 3596 H 328.824 -1.63784 5.64313 0
M  V30 3597 H 330.348 -2.56468 5.54127 0
M  V30 3598 H 331.762 -0.300699 5.72511 0
M  V30 3599 H 330.159 0.446813 5.98434 0
M  V30 3600 H 331.229 1.08905 4.72512 0
M  V30 3601 N 332.573 -1.56217 0.208337 0
M  V30 3602 C 333.821 -1.97558 -0.426076 0
M  V30 3603 C 334.142 -1.09683 -1.61229 0
M  V30 3604 O 333.412 -0.170956 -1.95153 0
M  V30 3605 H 331.992 -0.729575 -0.160405 0
M  V30 3606 H 334.654 -1.92606 0.298155 0
M  V30 3607 H 333.75 -3.02672 -0.761312 0
M  V30 3608 N 334.051 0.0651679 -1.57465 0
M  V30 3609 C 334.998 1.07675 -2.04144 0
M  V30 3610 C 335.968 1.38071 -0.923335 0
M  V30 3611 O 337.153 1.49026 -1.19146 0
M  V30 3612 C 334.293 2.38337 -2.49579 0
M  V30 3613 C 333.406 2.14413 -3.75035 0
M  V30 3614 C 332.541 3.38686 -4.09225 0
M  V30 3615 C 331.58 3.10156 -5.27702 0
M  V30 3616 N 330.717 4.26778 -5.57499 0
M  V30 3617 H 335.557 0.671716 -2.90331 0
M  V30 3618 H 333.094 0.3201 -1.43575 0
M  V30 3619 H 335.052 3.14632 -2.73975 0
M  V30 3620 H 333.682 2.7663 -1.6636 0
M  V30 3621 H 332.734 1.2878 -3.57939 0
M  V30 3622 H 334.046 1.89344 -4.61466 0
M  V30 3623 H 333.2 4.23373 -4.34558 0
M  V30 3624 H 331.939 3.66837 -3.21374 0
M  V30 3625 H 330.944 2.23866 -5.02159 0
M  V30 3626 H 332.169 2.8332 -6.17176 0
M  V30 3627 H 330.115 4.54948 -4.72608 0
M  V30 3628 H 330.032 4.05005 -6.38362 0
M  V30 3629 H 331.3 5.12443 -5.87386 0
M  V30 3630 N 335.529 1.53961 0.336706 0
M  V30 3631 C 336.439 1.85432 1.43708 0
M  V30 3632 C 337.455 0.745053 1.57242 0
M  V30 3633 O 338.631 1.03804 1.72588 0
M  V30 3634 C 335.696 2.06349 2.78605 0
M  V30 3635 C 334.757 3.30191 2.74358 0
M  V30 3636 C 333.99 3.50101 4.02822 0
M  V30 3637 O 334.213 2.7371 5.00439 0
M  V30 3638 O 333.147 4.43547 4.06878 0
M  V30 3639 H 336.973 2.78975 1.20028 0
M  V30 3640 H 334.558 1.39701 0.52952 0
M  V30 3641 H 336.44 2.21513 3.58483 0
M  V30 3642 H 335.115 1.15995 3.02203 0
M  V30 3643 H 334.022 3.20425 1.93078 0
M  V30 3644 H 335.355 4.2056 2.55715 0
M  V30 3645 N 337.007 -0.598083 1.45811 0
M  V30 3646 C 337.939 -1.72231 1.51225 0
M  V30 3647 C 338.952 -1.57757 0.402059 0
M  V30 3648 O 340.141 -1.65464 0.669624 0
M  V30 3649 C 337.241 -3.10331 1.3619 0
M  V30 3650 C 336.414 -3.50955 2.61054 0
M  V30 3651 C 335.473 -4.68055 2.40439 0
M  V30 3652 O 334.499 -4.74691 3.14097 0
M  V30 3653 N 335.701 -5.61941 1.45612 0
M  V30 3654 H 338.466 -1.68046 2.48154 0
M  V30 3655 H 336.027 -0.783637 1.41671 0
M  V30 3656 H 338.019 -3.86439 1.20195 0
M  V30 3657 H 336.589 -3.0897 0.475015 0
M  V30 3658 H 335.809 -2.64711 2.92099 0
M  V30 3659 H 337.097 -3.74858 3.44034 0
M  V30 3660 H 336.495 -5.59301 0.848431 0
M  V30 3661 H 335.052 -6.37542 1.35585 0
M  V30 3662 N 338.485 -1.33259 -0.841409 0
M  V30 3663 C 339.71 -1.2775 -1.63385 0
M  V30 3664 C 340.135 0.149188 -1.87507 0
M  V30 3665 O 339.493 1.10498 -1.43736 0
M  V30 3666 C 339.541 -2.05571 -2.96265 0
M  V30 3667 O 338.645 -1.41257 -3.87453 0
M  V30 3668 H 337.986 -0.439627 -0.497618 0
M  V30 3669 H 340.516 -1.75782 -1.04699 0
M  V30 3670 H 340.526 -2.16241 -3.45982 0
M  V30 3671 H 339.201 -3.09309 -2.7803 0
M  V30 3672 H 337.778 -1.39217 -3.45938 0
M  V30 3673 N 339.963 1.05934 -1.16686 0
M  V30 3674 C 341.379 1.30938 -0.912542 0
M  V30 3675 C 341.579 1.96803 0.432533 0
M  V30 3676 O 340.635 2.23693 1.17123 0
M  V30 3677 C 341.948 2.18649 -2.06429 0
M  V30 3678 C 343.496 2.32055 -2.10047 0
M  V30 3679 C 343.971 3.23122 -3.24586 0
M  V30 3680 N 345.462 3.30706 -3.24327 0
M  V30 3681 C 346.197 4.01273 -4.09594 0
M  V30 3682 N 345.693 4.74332 -5.04956 0
M  V30 3683 N 347.486 3.97361 -3.97569 0
M  V30 3684 H 339.637 0.615777 -2.03278 0
M  V30 3685 H 341.9 0.334077 -0.887185 0
M  V30 3686 H 341.606 1.77534 -3.03603 0
M  V30 3687 H 341.48 3.19252 -2.00894 0
M  V30 3688 H 343.867 2.72415 -1.13464 0
M  V30 3689 H 343.948 1.31107 -2.19647 0
M  V30 3690 H 343.592 2.83477 -4.2143 0
M  V30 3691 H 343.522 4.24057 -3.12223 0
M  V30 3692 H 346.013 2.78644 -2.55276 0
M  V30 3693 H 346.326 5.25716 -5.6643 0
M  V30 3694 H 344.671 4.733 -5.08933 0
M  V30 3695 H 347.862 3.39405 -3.22369 0
M  V30 3696 H 348.035 4.52089 -4.64241 0
M  V30 3697 N 341.441 0.965919 1.2453 0
M  V30 3698 C 342.857 0.67216 1.44756 0
M  V30 3699 C 343.057 -0.766609 1.86347 0
M  V30 3700 O 342.113 -1.5407 2.00047 0
M  V30 3701 C 343.426 1.65473 2.51076 0
M  V30 3702 C 344.974 1.66716 2.64905 0
M  V30 3703 C 345.449 2.63766 3.74421 0
M  V30 3704 N 346.94 2.62198 3.81846 0
M  V30 3705 C 347.675 3.33966 4.66106 0
M  V30 3706 N 347.171 4.15245 5.54566 0
M  V30 3707 N 348.964 3.22799 4.60171 0
M  V30 3708 H 341.115 1.89553 0.958293 0
M  V30 3709 H 343.378 0.815979 0.482579 0
M  V30 3710 H 343.084 2.68296 2.27399 0
M  V30 3711 H 342.958 1.4261 3.49202 0
M  V30 3712 H 345.345 0.646057 2.87941 0
M  V30 3713 H 345.426 1.93642 1.67142 0
M  V30 3714 H 345.07 3.6601 3.52135 0
M  V30 3715 H 345 2.34121 4.71694 0
M  V30 3716 H 347.491 2.032 3.18619 0
M  V30 3717 H 347.804 4.66898 6.15814 0
M  V30 3718 H 346.149 4.1934 5.54237 0
M  V30 3719 H 349.34 2.58764 3.90075 0
M  V30 3720 H 349.513 3.78994 5.25612 0
M  V30 3721 N 342.919 -1.39368 0.735821 0
M  V30 3722 C 344.196 -1.94465 0.210395 0
M  V30 3723 C 344.576 -1.67254 -1.28799 0
M  V30 3724 O 343.924 -1.00123 -2.05396 0
M  V30 3725 C 344.134 -3.4472 0.544897 0
M  V30 3726 C 345.482 -4.21708 0.494689 0
M  V30 3727 O 346.506 -3.52922 0.482136 0
M  V30 3728 O 345.365 -5.44299 0.489947 0
M  V30 3729 H 342.459 -0.826096 0.0386666 0
M  V30 3730 H 345.005 -1.48863 0.814735 0
M  V30 3731 H 343.777 -3.57963 1.58045 0
M  V30 3732 H 343.4 -3.97502 -0.08837 0
M  V30 3733 N 344.397 -0.483516 -1.5 0
M  V30 3734 C 345.674 0.129337 -1.95172 0
M  V30 3735 C 346.054 1.55802 -1.4244 0
M  V30 3736 O 345.402 2.19625 -0.630649 0
M  V30 3737 C 345.612 0.0599251 -3.48949 0
M  V30 3738 C 346.96 0.242617 -4.23906 0
M  V30 3739 O 347.984 0.135933 -3.55941 0
M  V30 3740 O 346.843 0.459454 -5.44565 0
M  V30 3741 H 343.937 0.104887 -0.820322 0
M  V30 3742 H 346.483 -0.544807 -1.60717 0
M  V30 3743 H 345.255 -0.937079 -3.79914 0
M  V30 3744 H 344.878 0.774984 -3.89974 0
M  V30 3745 N 345.875 1.56104 -0.216619 0
M  V30 3746 C 346.805 2.23063 0.690296 0
M  V30 3747 C 347.786 1.20072 1.20485 0
M  V30 3748 O 348.971 1.48643 1.24976 0
M  V30 3749 C 346.101 2.90672 1.90072 0
M  V30 3750 C 345.055 4.00092 1.5202 0
M  V30 3751 C 344.381 4.54972 2.80899 0
M  V30 3752 C 345.681 5.17398 0.71391 0
M  V30 3753 H 347.375 2.99109 0.132038 0
M  V30 3754 H 344.921 1.43866 0.0620664 0
M  V30 3755 H 346.874 3.36204 2.54057 0
M  V30 3756 H 345.598 2.12066 2.48386 0
M  V30 3757 H 344.257 3.55283 0.903839 0
M  V30 3758 H 343.905 3.73102 3.37348 0
M  V30 3759 H 343.605 5.28817 2.56176 0
M  V30 3760 H 345.129 5.0322 3.45836 0
M  V30 3761 H 346.543 5.59342 1.25735 0
M  V30 3762 H 344.94 5.97444 0.563951 0
M  V30 3763 H 346.01 4.84088 -0.280527 0
M  V30 3764 N 347.353 -0.0568162 1.57498 0
M  V30 3765 C 348.263 -1.08346 2.08083 0
M  V30 3766 C 349.279 -1.41439 1.01346 0
M  V30 3767 O 350.455 -1.51316 1.32912 0
M  V30 3768 C 347.52 -2.37352 2.52715 0
M  V30 3769 C 346.581 -2.11093 3.73816 0
M  V30 3770 C 345.814 -3.33949 4.1631 0
M  V30 3771 O 346.037 -4.43622 3.58547 0
M  V30 3772 O 344.971 -3.21279 5.08983 0
M  V30 3773 H 348.797 -0.683667 2.95905 0
M  V30 3774 H 346.382 -0.271965 1.46904 0
M  V30 3775 H 348.264 -3.13246 2.81877 0
M  V30 3776 H 346.939 -2.76681 1.68016 0
M  V30 3777 H 345.846 -1.32856 3.49714 0
M  V30 3778 H 347.179 -1.76637 4.59413 0
M  V30 3779 N 348.832 -1.54138 -0.328536 0
M  V30 3780 C 349.795 -1.82462 -1.38709 0
M  V30 3781 C 350.795 -0.696229 -1.44946 0
M  V30 3782 O 351.985 -0.964535 -1.4506 0
M  V30 3783 C 349.117 -1.98018 -2.77492 0
M  V30 3784 H 350.31 -2.77037 -1.14851 0
M  V30 3785 H 347.863 -1.45779 -0.563751 0
M  V30 3786 H 348.598 -1.05637 -3.06613 0
M  V30 3787 H 348.383 -2.80124 -2.74359 0
M  V30 3788 H 349.873 -2.21396 -3.54081 0
M  V30 3789 N 350.31 0.590341 -1.46126 0
M  V30 3790 C 351.24 1.71032 -1.58966 0
M  V30 3791 C 352.221 1.64302 -0.440335 0
M  V30 3792 O 353.406 1.82436 -0.665634 0
M  V30 3793 C 350.536 3.09665 -1.57241 0
M  V30 3794 C 349.49 3.31221 -2.71066 0
M  V30 3795 C 348.816 4.70303 -2.54399 0
M  V30 3796 C 350.116 3.19796 -4.1295 0
M  V30 3797 H 351.81 1.60543 -2.52718 0
M  V30 3798 H 349.356 0.770933 -1.21625 0
M  V30 3799 H 351.309 3.87831 -1.64819 0
M  V30 3800 H 350.033 3.21036 -0.600289 0
M  V30 3801 H 348.692 2.55452 -2.62944 0
M  V30 3802 H 348.34 4.78429 -1.55288 0
M  V30 3803 H 348.04 4.85679 -3.30741 0
M  V30 3804 H 349.564 5.50647 -2.63857 0
M  V30 3805 H 350.978 3.87815 -4.22223 0
M  V30 3806 H 349.375 3.46696 -4.89818 0
M  V30 3807 H 350.445 2.16983 -4.33643 0
M  V30 3808 N 351.788 1.33704 0.83433 0
M  V30 3809 C 353.036 1.25169 1.58673 0
M  V30 3810 C 353.357 -0.18127 1.94156 0
M  V30 3811 O 352.627 -1.11113 1.6134 0
M  V30 3812 H 351.207 0.4603 0.58833 0
M  V30 3813 H 353.869 1.67478 0.996847 0
M  V30 3814 H 352.965 1.84856 2.51465 0
M  V30 3815 N 353.266 -1.05314 1.17247 0
M  V30 3816 C 354.216 -2.11313 0.856196 0
M  V30 3817 C 355.2 -1.60013 -0.168694 0
M  V30 3818 O 356.392 -1.76968 0.0335624 0
M  V30 3819 C 353.521 -3.41301 0.369917 0
M  V30 3820 C 352.607 -3.99401 1.42616 0
M  V30 3821 N 352.998 -4.31481 2.63928 0
M  V30 3822 C 351.296 -4.27126 1.28373 0
M  V30 3823 C 351.997 -4.77799 3.31787 0
M  V30 3824 N 350.973 -4.77843 2.59166 0
M  V30 3825 H 354.775 -2.33976 1.77856 0
M  V30 3826 H 352.289 -1.2295 1.06099 0
M  V30 3827 H 354.286 -4.16713 0.124897 0
M  V30 3828 H 352.946 -3.20072 -0.546253 0
M  V30 3829 H 353.957 -4.21519 3.00902 0
M  V30 3830 H 350.634 -4.15289 0.429111 0
M  V30 3831 H 352.024 -5.11743 4.35395 0
M  V30 3832 N 354.744 -0.972509 -1.24016 0
M  V30 3833 C 355.677 -0.45117 -2.23696 0
M  V30 3834 C 356.655 0.477378 -1.55434 0
M  V30 3835 O 357.839 0.407647 -1.84039 0
M  V30 3836 C 354.966 0.34818 -3.36906 0
M  V30 3837 C 354.012 -0.523355 -4.23277 0
M  V30 3838 S 354.845 -1.96647 -4.98087 0
M  V30 3839 C 356.001 -1.17604 -6.14752 0
M  V30 3840 H 356.234 -1.29588 -2.67571 0
M  V30 3841 H 353.767 -0.777903 -1.33372 0
M  V30 3842 H 355.725 0.803387 -4.02562 0
M  V30 3843 H 354.386 1.16792 -2.91579 0
M  V30 3844 H 353.579 0.0906181 -5.03919 0
M  V30 3845 H 353.181 -0.914485 -3.62647 0
M  V30 3846 H 355.473 -0.433434 -6.76112 0
M  V30 3847 H 356.416 -1.95701 -6.8052 0
M  V30 3848 H 356.824 -0.698295 -5.60164 0
M  V30 3849 N 356.222 1.38976 -0.743202 0
M  V30 3850 C 357.469 2.00343 -0.294752 0
M  V30 3851 C 357.797 1.58983 1.12047 0
M  V30 3852 O 357.052 0.813809 1.77977 0
M  V30 3853 C 357.351 3.55647 -0.353517 0
M  V30 3854 C 357.017 4.16685 -1.72292 0
M  V30 3855 C 355.679 4.3307 -2.09771 0
M  V30 3856 C 358.031 4.50464 -2.62168 0
M  V30 3857 C 355.359 4.80526 -3.36618 0
M  V30 3858 C 357.711 4.99332 -3.88395 0
M  V30 3859 C 356.375 5.13924 -4.25956 0
M  V30 3860 H 355.645 0.733108 -0.107857 0
M  V30 3861 H 358.292 1.6618 -0.951651 0
M  V30 3862 H 356.597 3.89884 0.386954 0
M  V30 3863 H 358.294 4.00998 0.0117269 0
M  V30 3864 H 354.884 4.04339 -1.42155 0
M  V30 3865 H 359.068 4.37416 -2.3448 0
M  V30 3866 H 354.324 4.90008 -3.65653 0
M  V30 3867 H 358.498 5.2444 -4.58187 0
M  V30 3868 H 356.125 5.50457 -5.2431 0
M  V30 3869 N 357.7 0.491464 1.49741 0
M  V30 3870 C 358.633 -0.338464 2.25676 0
M  V30 3871 C 359.611 -0.978676 1.29849 0
M  V30 3872 O 360.795 -1.01064 1.59117 0
M  V30 3873 C 357.922 -1.47588 3.04853 0
M  V30 3874 C 356.968 -0.951 4.15762 0
M  V30 3875 S 357.801 0.150626 5.35288 0
M  V30 3876 C 358.957 -0.990178 6.18018 0
M  V30 3877 H 359.19 0.306068 2.9572 0
M  V30 3878 H 356.723 0.276622 1.51902 0
M  V30 3879 H 358.681 -2.12764 3.51058 0
M  V30 3880 H 357.342 -2.09199 2.34296 0
M  V30 3881 H 356.535 -1.80311 4.70642 0
M  V30 3882 H 356.137 -0.376607 3.72099 0
M  V30 3883 H 358.429 -1.89748 6.50386 0
M  V30 3884 H 359.372 -0.480205 7.0647 0
M  V30 3885 H 359.78 -1.25321 5.50413 0
M  V30 3886 N 359.178 -1.55987 0.224894 0
M  V30 3887 C 360.408 -2.02489 -0.41007 0
M  V30 3888 C 360.816 -1.10391 -1.53657 0
M  V30 3889 O 360.159 -0.106458 -1.83391 0
M  V30 3890 C 360.221 -3.45319 -0.999757 0
M  V30 3891 C 359.885 -4.56999 -0.00827976 0
M  V30 3892 C 360.882 -5.13812 0.793314 0
M  V30 3893 C 358.567 -5.02176 0.111442 0
M  V30 3894 C 360.561 -6.14276 1.7013 0
M  V30 3895 C 358.248 -6.02477 1.02296 0
M  V30 3896 C 359.246 -6.58403 1.81643 0
M  V30 3897 O 358.934 -7.56751 2.71262 0
M  V30 3898 H 358.666 -0.667915 -0.104235 0
M  V30 3899 H 361.22 -2.0257 0.339782 0
M  V30 3900 H 359.45 -3.42318 -1.79876 0
M  V30 3901 H 361.139 -3.7545 -1.54248 0
M  V30 3902 H 361.905 -4.79756 0.711288 0
M  V30 3903 H 357.784 -4.58323 -0.49605 0
M  V30 3904 H 361.328 -6.57854 2.32107 0
M  V30 3905 H 357.225 -6.35954 1.10599 0
M  V30 3906 H 357.993 -7.74286 2.65375 0
M  V30 3907 N 360.656 0.0484629 -1.57525 0
M  V30 3908 C 361.903 0.743125 -1.88372 0
M  V30 3909 C 362.231 1.76383 -0.819715 0
M  V30 3910 O 361.486 1.94855 0.181659 0
M  V30 3911 C 361.785 1.46632 -3.25935 0
M  V30 3912 C 361.451 0.583427 -4.4711 0
M  V30 3913 C 360.113 0.340191 -4.79996 0
M  V30 3914 C 362.465 -0.0273345 -5.21193 0
M  V30 3915 C 359.793 -0.522903 -5.84365 0
M  V30 3916 C 362.145 -0.878017 -6.26477 0
M  V30 3917 C 360.809 -1.1309 -6.5785 0
M  V30 3918 H 360.079 0.271929 -0.689301 0
M  V30 3919 H 362.726 0.00336166 -1.915 0
M  V30 3920 H 361.031 2.2789 -3.18706 0
M  V30 3921 H 362.728 2.00902 -3.47044 0
M  V30 3922 H 359.318 0.783151 -4.21384 0
M  V30 3923 H 363.502 0.147654 -4.9608 0
M  V30 3924 H 358.758 -0.727335 -6.07058 0
M  V30 3925 H 362.932 -1.35789 -6.83033 0
M  V30 3926 H 360.559 -1.80144 -7.38547 0
M  V30 3927 N 362.134 1.5431 0.320358 0
M  V30 3928 C 363.064 1.86912 1.3995 0
M  V30 3929 C 364.045 0.726211 1.53819 0
M  V30 3930 O 365.23 0.980233 1.67646 0
M  V30 3931 C 362.36 2.09932 2.7667 0
M  V30 3932 C 361.314 3.25776 2.77586 0
M  V30 3933 C 360.64 3.34173 4.17412 0
M  V30 3934 C 361.94 4.6335 2.41048 0
M  V30 3935 H 363.634 2.77292 1.12914 0
M  V30 3936 H 361.18 1.33421 0.541738 0
M  V30 3937 H 363.133 2.31324 3.52232 0
M  V30 3938 H 361.857 1.16304 3.0519 0
M  V30 3939 H 360.516 3.04276 2.04479 0
M  V30 3940 H 360.164 2.38098 4.43078 0
M  V30 3941 H 359.864 4.12033 4.18931 0
M  V30 3942 H 361.388 3.57803 4.94782 0
M  V30 3943 H 362.802 4.84602 3.06324 0
M  V30 3944 H 361.199 5.43782 2.53813 0
M  V30 3945 H 362.269 4.65381 1.36193 0
M  V30 3946 N 363.613 -0.582584 1.46437 0
M  V30 3947 C 365.029 -0.905962 1.31394 0
M  V30 3948 C 365.229 -1.99468 0.285476 0
M  V30 3949 O 364.285 -2.50566 -0.311914 0
M  V30 3950 C 365.598 -1.3232 2.70022 0
M  V30 3951 C 367.146 -1.43604 2.78113 0
M  V30 3952 C 367.621 -1.88694 4.17323 0
M  V30 3953 N 369.112 -1.95887 4.19741 0
M  V30 3954 C 369.847 -2.32051 5.24347 0
M  V30 3955 N 369.343 -2.67006 6.39281 0
M  V30 3956 N 371.136 -2.32606 5.11713 0
M  V30 3957 H 363.287 0.1366 2.1196 0
M  V30 3958 H 365.55 -0.00155736 0.947999 0
M  V30 3959 H 365.256 -0.597242 3.46592 0
M  V30 3960 H 365.13 -2.28469 3.00136 0
M  V30 3961 H 367.517 -2.15286 2.01832 0
M  V30 3962 H 367.598 -0.457059 2.51684 0
M  V30 3963 H 367.242 -1.1759 4.941 0
M  V30 3964 H 367.172 -2.8755 4.4116 0
M  V30 3965 H 369.663 -1.71362 3.36814 0
M  V30 3966 H 369.976 -2.93554 7.14875 0
M  V30 3967 H 368.321 -2.64644 6.42642 0
M  V30 3968 H 371.512 -2.04721 4.2096 0
M  V30 3969 H 371.685 -2.60462 5.93349 0
M  V30 3970 N 365.091 -1.34144 -0.827227 0
M  V30 3971 C 366.339 -1.26009 -1.58007 0
M  V30 3972 C 366.66 0.170971 -1.94249 0
M  V30 3973 O 365.93 1.10256 -1.61927 0
M  V30 3974 H 364.51 -0.463414 -0.585881 0
M  V30 3975 H 367.172 -1.68005 -0.987951 0
M  V30 3976 H 366.268 -1.86187 -2.50481 0
M  V30 3977 N 366.569 1.04691 -1.17803 0
M  V30 3978 C 367.794 1.81984 -0.994813 0
M  V30 3979 C 368.219 1.82586 0.452112 0
M  V30 3980 O 367.577 1.23854 1.324 0
M  V30 3981 C 367.625 3.2575 -1.54659 0
M  V30 3982 O 366.729 4.05267 -0.763728 0
M  V30 3983 H 366.07 0.562483 -0.352857 0
M  V30 3984 H 368.6 1.3189 -1.56417 0
M  V30 3985 H 368.61 3.76541 -1.57102 0
M  V30 3986 H 367.285 3.24627 -2.59981 0
M  V30 3987 H 365.862 3.63972 -0.811108 0
M  V30 3988 N 368.047 0.979072 1.23499 0
M  V30 3989 C 368.977 0.537606 2.27227 0
M  V30 3990 C 369.958 -0.428539 1.64613 0
M  V30 3991 O 371.143 -0.322191 1.91509 0
M  V30 3992 C 368.273 -0.162052 3.46922 0
M  V30 3993 C 367.227 0.721242 4.21879 0
M  V30 3994 C 366.553 -0.110555 5.34586 0
M  V30 3995 C 367.853 2.01141 4.82016 0
M  V30 3996 H 369.547 1.40462 2.64406 0
M  V30 3997 H 367.093 0.67684 1.27102 0
M  V30 3998 H 369.046 -0.482192 4.18632 0
M  V30 3999 H 367.77 -1.06351 3.08799 0
M  V30 4000 H 366.429 1.02482 3.51984 0
M  V30 4001 H 366.077 -1.0125 4.92704 0
M  V30 4002 H 365.777 0.477325 5.85658 0
M  V30 4003 H 367.301 -0.425107 6.09118 0
M  V30 4004 H 368.715 1.75612 5.45741 0
M  V30 4005 H 367.112 2.54695 5.43369 0
M  V30 4006 H 368.182 2.69909 4.02836 0
M  V30 4007 N 369.525 -1.3858 0.750561 0
M  V30 4008 C 370.936 -1.82927 0.373438 0
M  V30 4009 C 371.287 -1.62634 -1.09748 0
M  V30 4010 O 370.412 -1.12588 -1.84805 0
M  V30 4011 C 371.007 -3.32088 0.671029 0
M  V30 4012 C 369.566 -3.74795 0.34722 0
M  V30 4013 C 368.713 -2.61391 0.92575 0
M  V30 4014 H 371.664 -1.27351 0.946958 0
M  V30 4015 H 371.685 -3.80465 -0.0518269 0
M  V30 4016 H 371.197 -3.46826 1.74164 0
M  V30 4017 H 369.298 -3.65638 -0.716933 0
M  V30 4018 H 369.411 -4.71667 0.840656 0
M  V30 4019 H 367.775 -2.52265 0.351327 0
M  V30 4020 H 368.558 -2.78929 2.00133 0
M  V30 4021 N 371.003 -0.499398 -1.49478 0
M  V30 4022 C 372.249 0.0377587 -2.03365 0
M  V30 4023 C 372.604 1.3484 -1.37244 0
M  V30 4024 O 371.897 1.85 -0.498547 0
M  V30 4025 C 372.091 0.248424 -3.56536 0
M  V30 4026 C 371.92 -1.04025 -4.37503 0
M  V30 4027 C 370.69 -1.59159 -4.79579 0
M  V30 4028 C 372.888 -1.9431 -4.76181 0
M  V30 4029 N 370.87 -2.82634 -5.44969 0
M  V30 4030 C 372.241 -3.02364 -5.41272 0
M  V30 4031 C 374.296 -1.95008 -4.58123 0
M  V30 4032 C 372.999 -4.1114 -5.90217 0
M  V30 4033 C 375.025 -3.02758 -5.08027 0
M  V30 4034 C 374.387 -4.09531 -5.73118 0
M  V30 4035 H 370.486 -0.026923 -0.781536 0
M  V30 4036 H 373.07 -0.673901 -1.82665 0
M  V30 4037 H 371.241 0.929139 -3.77123 0
M  V30 4038 H 372.973 0.782445 -3.97064 0
M  V30 4039 H 369.728 -1.13696 -4.5975 0
M  V30 4040 H 370.152 -3.45416 -5.82252 0
M  V30 4041 H 374.794 -1.13766 -4.07207 0
M  V30 4042 H 372.512 -4.93181 -6.40155 0
M  V30 4043 H 376.098 -3.04315 -4.95866 0
M  V30 4044 H 374.978 -4.91534 -6.11035 0
M  V30 4045 N 372.481 1.55866 -0.233164 0
M  V30 4046 C 373.413 2.18099 0.704668 0
M  V30 4047 C 374.426 1.15334 1.14899 0
M  V30 4048 O 375.615 1.42262 1.07814 0
M  V30 4049 C 372.715 2.7592 1.96777 0
M  V30 4050 C 371.888 4.03969 1.67713 0
M  V30 4051 C 370.947 4.46242 2.78845 0
M  V30 4052 O 369.973 5.12903 2.46818 0
M  V30 4053 N 371.175 4.12886 4.08051 0
M  V30 4054 H 373.94 2.99205 0.172258 0
M  V30 4055 H 371.501 1.61815 -0.0525945 0
M  V30 4056 H 373.493 3.01165 2.70337 0
M  V30 4057 H 372.063 1.99051 2.41034 0
M  V30 4058 H 371.283 3.86459 0.777391 0
M  V30 4059 H 372.571 4.8748 1.4574 0
M  V30 4060 H 371.969 3.59342 4.3691 0
M  V30 4061 H 370.526 4.42997 4.78118 0
M  V30 4062 N 373.959 -0.0401083 1.57549 0
M  V30 4063 C 375.207 -0.731677 1.8839 0
M  V30 4064 C 375.528 -1.76481 0.829425 0
M  V30 4065 O 374.798 -1.95411 -0.1383 0
M  V30 4066 H 373.378 -0.273225 0.695239 0
M  V30 4067 H 376.04 -0.00867725 1.94898 0
M  V30 4068 H 375.136 -1.22816 2.86919 0
M  V30 4069 N 375.437 -1.54477 -0.31217 0
M  V30 4070 C 376.367 -1.87652 -1.38957 0
M  V30 4071 C 377.348 -0.734358 -1.53431 0
M  V30 4072 O 378.533 -0.98911 -1.67123 0
M  V30 4073 C 375.663 -2.11396 -2.75552 0
M  V30 4074 C 374.617 -3.27243 -2.75855 0
M  V30 4075 C 373.943 -3.36382 -4.15633 0
M  V30 4076 C 375.243 -4.64622 -2.38587 0
M  V30 4077 H 376.937 -2.77887 -1.11442 0
M  V30 4078 H 374.483 -1.33707 -0.534655 0
M  V30 4079 H 376.436 -2.33189 -3.51 0
M  V30 4080 H 375.16 -1.17921 -3.04569 0
M  V30 4081 H 373.819 -3.05356 -2.02863 0
M  V30 4082 H 373.467 -2.40445 -4.41809 0
M  V30 4083 H 373.167 -4.14249 -4.1674 0
M  V30 4084 H 374.691 -3.60422 -4.92877 0
M  V30 4085 H 376.105 -4.86219 -3.03749 0
M  V30 4086 H 374.502 -5.45121 -2.50925 0
M  V30 4087 H 375.572 -4.66097 -1.33723 0
M  V30 4088 N 376.915 0.57481 -1.46744 0
M  V30 4089 C 377.862 1.68329 -1.57905 0
M  V30 4090 C 378.832 1.60625 -0.422927 0
M  V30 4091 O 380.017 1.79721 -0.640711 0
M  V30 4092 C 377.157 3.06665 -1.58274 0
M  V30 4093 C 376.27 3.24935 -2.84678 0
M  V30 4094 C 375.405 4.53566 -2.76499 0
M  V30 4095 C 374.444 4.65207 -3.97806 0
M  V30 4096 N 373.581 5.85172 -3.87967 0
M  V30 4097 H 378.421 1.58127 -2.52587 0
M  V30 4098 H 375.958 0.770552 -1.25303 0
M  V30 4099 H 377.916 3.86745 -1.56473 0
M  V30 4100 H 376.546 3.15745 -0.671194 0
M  V30 4101 H 375.598 2.38405 -2.96424 0
M  V30 4102 H 376.91 3.29403 -3.7456 0
M  V30 4103 H 376.064 5.41885 -2.72848 0
M  V30 4104 H 374.803 4.51548 -1.8427 0
M  V30 4105 H 373.808 3.75304 -4.0178 0
M  V30 4106 H 375.033 4.68997 -4.9114 0
M  V30 4107 H 372.979 5.84137 -2.98529 0
M  V30 4108 H 372.896 5.90943 -4.71511 0
M  V30 4109 H 374.164 6.759 -3.88303 0
M  V30 4110 N 378.394 1.34581 0.820102 0
M  V30 4111 C 379.357 1.2628 1.91275 0
M  V30 4112 C 380.357 0.177344 1.59819 0
M  V30 4113 O 381.547 0.430156 1.68806 0
M  V30 4114 C 378.679 0.950327 3.27386 0
M  V30 4115 H 379.872 2.23421 2.00057 0
M  V30 4116 H 377.425 1.1891 1.0144 0
M  V30 4117 H 378.16 -0.0177938 3.24295 0
M  V30 4118 H 377.945 1.73549 3.51601 0
M  V30 4119 H 379.435 0.917492 4.07396 0
M  V30 4120 N 379.872 -1.04064 1.18357 0
M  V30 4121 C 381.149 -1.74252 0.888581 0
M  V30 4122 C 381.529 -2.02138 -0.60856 0
M  V30 4123 O 380.877 -1.66656 -1.56327 0
M  V30 4124 C 381.087 -3.0277 1.73584 0
M  V30 4125 C 382.435 -3.76506 1.96286 0
M  V30 4126 O 383.459 -3.12668 1.70637 0
M  V30 4127 O 382.318 -4.91243 2.39464 0
M  V30 4128 H 379.412 -0.758271 0.330082 0
M  V30 4129 H 381.958 -1.1013 1.2911 0
M  V30 4130 H 380.73 -2.78299 2.75073 0
M  V30 4131 H 380.353 -3.74631 1.33183 0
M  V30 4132 N 381.35 -0.985608 -1.22978 0
M  V30 4133 C 382.578 -0.675582 -1.95559 0
M  V30 4134 C 382.993 0.758413 -1.72897 0
M  V30 4135 O 382.35 1.51094 -1.02357 0
M  V30 4136 C 382.401 -0.96293 -3.48439 0
M  V30 4137 O 382.122 -2.34057 -3.70336 0
M  V30 4138 C 383.623 -0.669585 -4.38214 0
M  V30 4139 H 380.843 -0.250523 -0.622478 0
M  V30 4140 H 383.387 -1.3184 -1.56328 0
M  V30 4141 H 381.542 -0.366033 -3.85667 0
M  V30 4142 H 381.956 -2.43424 -4.64591 0
M  V30 4143 H 383.43 -0.920967 -5.44263 0
M  V30 4144 H 383.907 0.396383 -4.37408 0
M  V30 4145 H 384.513 -1.2472 -4.06602 0
M  V30 4146 N 382.828 1.3818 -0.7579 0
M  V30 4147 C 383.758 2.33027 -0.148597 0
M  V30 4148 C 384.739 1.55085 0.69875 0
M  V30 4149 O 385.924 1.83384 0.639053 0
M  V30 4150 C 383.054 3.3928 0.742034 0
M  V30 4151 C 382.008 4.28 -0.00291946 0
M  V30 4152 C 381.334 5.25146 1.00625 0
M  V30 4153 C 382.634 5.08938 -1.17385 0
M  V30 4154 H 384.328 2.84231 -0.940909 0
M  V30 4155 H 381.874 1.36659 -0.453908 0
M  V30 4156 H 383.827 4.046 1.17799 0
M  V30 4157 H 382.551 2.86569 1.56671 0
M  V30 4158 H 381.21 3.64192 -0.419504 0
M  V30 4159 H 380.858 4.68721 1.8251 0
M  V30 4160 H 380.558 5.85361 0.512428 0
M  V30 4161 H 382.082 5.93342 1.44143 0
M  V30 4162 H 383.496 5.67474 -0.815224 0
M  V30 4163 H 381.893 5.7841 -1.59882 0
M  V30 4164 H 382.963 4.42424 -1.98468 0
M  V30 4165 N 384.306 0.507319 1.49211 0
M  V30 4166 C 385.253 -0.267728 2.29242 0
M  V30 4167 C 386.223 -0.954609 1.35928 0
M  V30 4168 O 387.408 -0.960046 1.64887 0
M  V30 4169 C 384.548 -1.32243 3.18756 0
M  V30 4170 C 383.661 -0.64669 4.27132 0
M  V30 4171 C 382.796 -1.68238 5.03855 0
M  V30 4172 C 381.835 -0.98885 6.0406 0
M  V30 4173 N 380.972 -1.96903 6.73924 0
M  V30 4174 H 385.812 0.420968 2.95012 0
M  V30 4175 H 383.349 0.219443 1.45454 0
M  V30 4176 H 385.307 -1.94599 3.69036 0
M  V30 4177 H 383.937 -1.97981 2.54958 0
M  V30 4178 H 382.989 0.0902926 3.80293 0
M  V30 4179 H 384.301 -0.101058 4.98698 0
M  V30 4180 H 383.455 -2.38081 5.58034 0
M  V30 4181 H 382.194 -2.26187 4.32077 0
M  V30 4182 H 381.199 -0.276222 5.49106 0
M  V30 4183 H 382.424 -0.415767 6.77826 0
M  V30 4184 H 380.37 -2.53803 6.04913 0
M  V30 4185 H 380.287 -1.47423 7.41487 0
M  V30 4186 H 381.555 -2.66015 7.32705 0
M  V30 4187 N 385.784 -1.5574 0.241426 0
M  V30 4188 C 386.694 -2.2479 -0.671305 0
M  V30 4189 C 387.71 -1.26217 -1.19772 0
M  V30 4190 O 388.886 -1.59079 -1.23514 0
M  V30 4191 C 385.951 -2.92966 -1.85396 0
M  V30 4192 C 385.012 -4.06935 -1.36756 0
M  V30 4193 C 384.245 -4.71851 -2.49384 0
M  V30 4194 O 384.468 -4.35823 -3.67987 0
M  V30 4195 O 383.402 -5.60467 -2.19454 0
M  V30 4196 H 387.228 -3.0349 -0.112966 0
M  V30 4197 H 384.813 -1.49397 0.0101513 0
M  V30 4198 H 386.695 -3.35927 -2.54423 0
M  V30 4199 H 385.37 -2.17211 -2.40002 0
M  V30 4200 H 384.277 -3.68503 -0.644726 0
M  V30 4201 H 385.61 -4.84492 -0.867647 0
M  V30 4202 N 387.262 0.0317525 -1.57568 0
M  V30 4203 C 388.678 0.38735 -1.54828 0
M  V30 4204 C 388.878 1.7677 -0.967187 0
M  V30 4205 O 387.934 2.45581 -0.587063 0
M  V30 4206 C 389.247 0.291667 -2.99282 0
M  V30 4207 C 390.795 0.368946 -3.10818 0
M  V30 4208 C 391.27 0.302741 -4.56998 0
M  V30 4209 N 392.761 0.361617 -4.61786 0
M  V30 4210 C 393.496 0.333238 -5.72431 0
M  V30 4211 N 392.992 0.257308 -6.92322 0
M  V30 4212 N 394.785 0.382769 -5.60795 0
M  V30 4213 H 386.936 -0.871609 -1.93692 0
M  V30 4214 H 389.199 -0.331161 -0.888277 0
M  V30 4215 H 388.905 -0.656794 -3.45513 0
M  V30 4216 H 388.779 1.08638 -3.61217 0
M  V30 4217 H 391.166 1.30784 -2.64536 0
M  V30 4218 H 391.247 -0.455066 -2.5172 0
M  V30 4219 H 390.891 -0.632473 -5.03947 0
M  V30 4220 H 390.821 1.14482 -5.14005 0
M  V30 4221 H 393.312 0.422923 -3.75526 0
M  V30 4222 H 393.625 0.24068 -7.72425 0
M  V30 4223 H 391.97 0.223396 -6.94641 0
M  V30 4224 H 395.161 0.44006 -4.66027 0
M  V30 4225 H 395.334 0.357184 -6.47015 0
M  V30 4226 N 388.74 1.54641 0.303973 0
M  V30 4227 C 389.97 1.77511 1.05705 0
M  V30 4228 C 390.378 0.533228 1.81531 0
M  V30 4229 O 389.721 -0.506423 1.76582 0
M  V30 4230 C 389.783 2.92779 2.08617 0
M  V30 4231 C 389.447 4.30977 1.52013 0
M  V30 4232 C 390.444 5.11115 0.9517 0
M  V30 4233 C 388.129 4.77571 1.55665 0
M  V30 4234 C 390.123 6.35966 0.427327 0
M  V30 4235 C 387.81 6.02384 1.02841 0
M  V30 4236 C 388.808 6.81417 0.464713 0
M  V30 4237 O 388.496 8.03881 -0.0555283 0
M  V30 4238 H 388.228 0.59579 0.319391 0
M  V30 4239 H 390.782 2.02401 0.349712 0
M  V30 4240 H 389.012 2.63506 2.83022 0
M  V30 4241 H 390.701 3.03252 2.69802 0
M  V30 4242 H 391.467 4.76264 0.916407 0
M  V30 4243 H 387.346 4.16085 1.9848 0
M  V30 4244 H 390.89 6.97599 -0.0133062 0
M  V30 4245 H 386.787 6.36723 1.06084 0
M  V30 4246 H 387.555 8.18479 0.0580522 0
M  V30 4247 N 390.218 -0.567019 1.47046 0
M  V30 4248 C 391.15 -1.68985 1.54844 0
M  V30 4249 C 392.163 -1.56869 0.435431 0
M  V30 4250 O 393.352 -1.64006 0.70457 0
M  V30 4251 C 390.452 -3.07373 1.42742 0
M  V30 4252 C 389.625 -3.45339 2.6844 0
M  V30 4253 C 388.684 -4.62849 2.50314 0
M  V30 4254 O 387.71 -4.67922 3.24095 0
M  V30 4255 N 388.912 -5.58726 1.57499 0
M  V30 4256 H 391.677 -1.62745 2.51663 0
M  V30 4257 H 389.238 -0.753411 1.43302 0
M  V30 4258 H 391.23 -3.83803 1.28365 0
M  V30 4259 H 389.8 -3.07893 0.540445 0
M  V30 4260 H 389.02 -2.58455 2.97648 0
M  V30 4261 H 390.308 -3.67476 3.51907 0
M  V30 4262 H 389.706 -5.57376 0.966876 0
M  V30 4263 H 388.263 -6.34523 1.49078 0
M  V30 4264 N 391.696 -1.35014 -0.812953 0
M  V30 4265 C 392.643 -1.27412 -1.92444 0
M  V30 4266 C 393.613 -0.14733 -1.65445 0
M  V30 4267 O 394.798 -0.329974 -1.87925 0
M  V30 4268 C 391.938 -1.04558 -3.28879 0
M  V30 4269 C 391.051 -2.26101 -3.68106 0
M  V30 4270 C 390.186 -1.96449 -4.9354 0
M  V30 4271 C 389.225 -3.14081 -5.25376 0
M  V30 4272 N 388.362 -2.84246 -6.41988 0
M  V30 4273 H 393.202 -2.22463 -1.98278 0
M  V30 4274 H 390.739 -1.10593 -0.969933 0
M  V30 4275 H 392.697 -0.893413 -4.07522 0
M  V30 4276 H 391.327 -0.131719 -3.22531 0
M  V30 4277 H 390.379 -2.52204 -2.84775 0
M  V30 4278 H 391.691 -3.13959 -3.87597 0
M  V30 4279 H 390.845 -1.78026 -5.79993 0
M  V30 4280 H 389.584 -1.05867 -4.76071 0
M  V30 4281 H 388.589 -3.33089 -4.37415 0
M  V30 4282 H 389.814 -4.05455 -5.44778 0
M  V30 4283 H 387.76 -1.96252 -6.25956 0
M  V30 4284 H 387.677 -3.65637 -6.61699 0
M  V30 4285 H 388.945 -2.6935 -7.31485 0
M  V30 4286 N 393.175 1.03435 -1.18907 0
M  V30 4287 C 394.424 1.76143 -0.982669 0
M  V30 4288 C 394.737 1.89416 0.487953 0
M  V30 4289 O 395.943 2.59041 0.813036 0
M  V30 4290 C 394.399 3.16722 -1.70924 0
M  V30 4291 C 394.007 3.11522 -3.21959 0
M  V30 4292 C 395.751 3.93764 -1.58588 0
M  V30 4293 C 393.658 4.46999 -3.87228 0
M  V30 4294 H 392.588 0.660292 -0.364047 0
M  V30 4295 H 395.239 1.158 -1.42347 0
M  V30 4296 H 393.621 3.775 -1.19623 0
M  V30 4297 H 394.795 2.60158 -3.80335 0
M  V30 4298 H 393.11 2.47978 -3.34508 0
M  V30 4299 H 395.707 4.93963 -2.04707 0
M  V30 4300 H 396.05 4.12794 -0.539142 0
M  V30 4301 H 396.583 3.39576 -2.07203 0
M  V30 4302 H 393.322 4.33174 -4.91976 0
M  V30 4303 H 392.842 4.98441 -3.33642 0
M  V30 4304 H 394.521 5.15898 -3.90459 0
M  V30 4305 N 394.653 0.992116 1.22453 0
M  V30 4306 C 395.901 0.666215 1.90804 0
M  V30 4307 C 396.222 -0.804152 1.77647 0
M  V30 4308 O 395.492 -1.57629 1.16318 0
M  V30 4309 H 394.072 0.243423 0.706225 0
M  V30 4310 H 396.734 1.25845 1.48825 0
M  V30 4311 H 395.83 0.928069 2.97982 0
M  V30 4312 N 396.131 -1.37776 0.765217 0
M  V30 4313 C 397.408 -1.93975 0.251596 0
M  V30 4314 C 397.788 -1.69949 -1.25222 0
M  V30 4315 O 397.136 -1.04457 -2.03226 0
M  V30 4316 C 397.346 -3.43487 0.617895 0
M  V30 4317 C 398.694 -4.20564 0.584029 0
M  V30 4318 O 399.718 -3.5182 0.556888 0
M  V30 4319 O 398.577 -5.43138 0.605291 0
M  V30 4320 H 395.671 -0.82509 0.0561806 0
M  V30 4321 H 398.217 -1.47101 0.846128 0
M  V30 4322 H 396.989 -3.5453 1.65602 0
M  V30 4323 H 396.612 -3.976 -0.00403411 0
M  V30 4324 N 397.609 -0.515225 -1.4894 0
M  V30 4325 C 398.837 0.0206034 -2.0689 0
M  V30 4326 C 399.252 1.29514 -1.37374 0
M  V30 4327 O 398.609 1.76698 -0.456529 0
M  V30 4328 C 398.66 0.26351 -3.60538 0
M  V30 4329 O 398.381 -0.960517 -4.27441 0
M  V30 4330 C 399.882 0.841383 -4.35242 0
M  V30 4331 H 397.102 -0.0268608 -0.670462 0
M  V30 4332 H 399.646 -0.716651 -1.91532 0
M  V30 4333 H 397.801 0.950777 -3.75552 0
M  V30 4334 H 398.215 -0.73212 -5.19365 0
M  V30 4335 H 399.689 0.96085 -5.43573 0
M  V30 4336 H 400.166 1.8427 -3.98674 0
M  V30 4337 H 400.772 0.191143 -4.2487 0
M  V30 4338 N 399.087 1.5561 -0.249682 0
M  V30 4339 C 400.034 2.21496 0.648694 0
M  V30 4340 C 401.004 1.17977 1.16921 0
M  V30 4341 O 402.189 1.46434 1.22318 0
M  V30 4342 C 399.329 2.92039 1.83868 0
M  V30 4343 C 398.442 4.10219 1.35442 0
M  V30 4344 C 397.577 4.6847 2.50419 0
M  V30 4345 C 396.616 5.78893 1.98869 0
M  V30 4346 N 395.753 6.31315 3.07223 0
M  V30 4347 H 400.593 2.97892 0.0801582 0
M  V30 4348 H 398.13 1.47074 0.0278031 0
M  V30 4349 H 400.088 3.31138 2.53778 0
M  V30 4350 H 398.718 2.18111 2.37965 0
M  V30 4351 H 397.77 3.76413 0.54928 0
M  V30 4352 H 399.082 4.89927 0.936649 0
M  V30 4353 H 398.236 5.10158 3.28366 0
M  V30 4354 H 396.975 3.87984 2.95499 0
M  V30 4355 H 395.98 5.3668 1.19393 0
M  V30 4356 H 397.205 6.61232 1.54755 0
M  V30 4357 H 395.151 5.53733 3.51732 0
M  V30 4358 H 395.068 7.06224 2.69784 0
M  V30 4359 H 396.336 6.77662 3.8522 0
M  V30 4360 N 400.565 -0.0233959 1.57583 0
M  V30 4361 C 401.981 -0.379134 1.55031 0
M  V30 4362 C 402.181 -1.76255 0.976548 0
M  V30 4363 O 401.237 -2.45266 0.600078 0
M  V30 4364 C 402.55 -0.275792 2.99433 0
M  V30 4365 C 404.098 -0.352458 3.11009 0
M  V30 4366 C 404.573 -0.278501 4.57152 0
M  V30 4367 N 406.064 -0.337123 4.61972 0
M  V30 4368 C 406.799 -0.302876 5.726 0
M  V30 4369 N 406.295 -0.220589 6.92449 0
M  V30 4370 N 408.088 -0.353023 5.6099 0
M  V30 4371 H 400.239 0.881869 1.93227 0
M  V30 4372 H 402.502 0.335867 0.886509 0
M  V30 4373 H 402.208 0.675108 3.4516 0
M  V30 4374 H 402.082 -1.06721 3.61788 0
M  V30 4375 H 404.469 -1.29379 2.65226 0
M  V30 4376 H 404.55 0.468409 2.51475 0
M  V30 4377 H 404.194 0.659189 5.03604 0
M  V30 4378 H 404.124 -1.11755 5.14605 0
M  V30 4379 H 406.615 -0.403002 3.75745 0
M  V30 4380 H 406.928 -0.199713 7.72542 0
M  V30 4381 H 405.273 -0.186555 6.9475 0
M  V30 4382 H 408.464 -0.415339 4.66254 0
M  V30 4383 H 408.637 -0.322866 6.47195 0
M  V30 4384 N 402.043 -1.548 -0.295768 0
M  V30 4385 C 403.006 -1.85363 -1.34808 0
M  V30 4386 C 404.006 -0.726817 -1.43436 0
M  V30 4387 O 405.196 -0.995088 -1.42981 0
M  V30 4388 C 402.328 -2.03859 -2.73229 0
M  V30 4389 H 403.521 -2.7941 -1.08949 0
M  V30 4390 H 401.074 -1.46942 -0.532702 0
M  V30 4391 H 401.809 -1.12117 -3.04303 0
M  V30 4392 H 401.594 -2.8588 -2.68356 0
M  V30 4393 H 403.084 -2.28857 -3.49305 0
M  V30 4394 N 403.521 0.559213 -1.47345 0
M  V30 4395 C 404.749 1.34194 -1.57479 0
M  V30 4396 C 405.164 1.87463 -0.224261 0
M  V30 4397 O 404.521 1.64888 0.782185 0
M  V30 4398 C 404.572 2.51324 -2.59843 0
M  V30 4399 O 404.293 2.00256 -3.89653 0
M  V30 4400 C 405.794 3.43563 -2.80142 0
M  V30 4401 H 403.014 0.409136 -0.531835 0
M  V30 4402 H 405.558 0.677609 -1.92947 0
M  V30 4403 H 403.713 3.13699 -2.27314 0
M  V30 4404 H 404.127 2.76708 -4.4557 0
M  V30 4405 H 405.601 4.2217 -3.55635 0
M  V30 4406 H 406.078 3.9698 -1.87892 0
M  V30 4407 H 406.684 2.87005 -3.1386 0
M  V30 4408 N 404.999 1.35443 0.805782 0
M  V30 4409 C 406.41 1.25768 1.37983 0
M  V30 4410 C 406.761 -0.10958 1.95894 0
M  V30 4411 O 405.886 -1.01056 1.91355 0
M  V30 4412 C 406.481 2.27727 2.5085 0
M  V30 4413 C 405.04 2.2179 3.04115 0
M  V30 4414 C 404.187 2.13393 1.77084 0
M  V30 4415 H 407.138 1.4656 0.608752 0
M  V30 4416 H 407.159 1.90422 3.29424 0
M  V30 4417 H 406.671 3.27227 2.08671 0
M  V30 4418 H 404.772 1.25703 3.50756 0
M  V30 4419 H 404.885 3.13788 3.62042 0
M  V30 4420 H 403.249 1.59384 1.98668 0
M  V30 4421 H 404.032 3.14755 1.37056 0
M  V30 4422 N 406.477 -1.02803 1.19454 0
M  V30 4423 C 407.726 -1.7562 0.991996 0
M  V30 4424 C 408.039 -1.89672 -0.477901 0
M  V30 4425 O 409.245 -2.59468 -0.799287 0
M  V30 4426 C 407.701 -3.15812 1.72601 0
M  V30 4427 C 407.309 -3.0981 3.23607 0
M  V30 4428 C 409.053 -3.92918 1.60674 0
M  V30 4429 C 406.96 -4.44939 3.89594 0
M  V30 4430 H 405.89 -0.658352 0.367543 0
M  V30 4431 H 408.541 -1.15044 1.42959 0
M  V30 4432 H 406.923 -3.7686 1.21624 0
M  V30 4433 H 408.097 -2.58138 3.81709 0
M  V30 4434 H 406.412 -2.46201 3.35819 0
M  V30 4435 H 409.009 -4.9287 2.07323 0
M  V30 4436 H 409.352 -4.12502 0.561025 0
M  V30 4437 H 409.885 -3.38472 2.09001 0
M  V30 4438 H 406.624 -4.30559 4.94267 0
M  V30 4439 H 406.144 -4.96664 3.36281 0
M  V30 4440 H 407.823 -5.1382 3.93189 0
M  V30 4441 N 407.956 -0.998596 -1.21925 0
M  V30 4442 C 408.866 -0.562736 -2.27751 0
M  V30 4443 C 409.882 0.391203 -1.69545 0
M  V30 4444 O 411.058 0.256625 -1.99758 0
M  V30 4445 C 408.123 0.11012 -3.46525 0
M  V30 4446 C 407.184 -0.887495 -4.20026 0
M  V30 4447 C 406.417 -0.246654 -5.3313 0
M  V30 4448 O 406.64 0.958088 -5.62296 0
M  V30 4449 O 405.574 -0.954374 -5.94286 0
M  V30 4450 H 409.4 -1.44329 -2.67213 0
M  V30 4451 H 406.985 -0.767135 -1.28201 0
M  V30 4452 H 408.867 0.486756 -4.18579 0
M  V30 4453 H 407.542 0.965154 -3.08976 0
M  V30 4454 H 406.449 -1.31517 -3.5022 0
M  V30 4455 H 407.782 -1.71191 -4.6147 0
M  V30 4456 N 409.434 1.37368 -0.772513 0
M  V30 4457 C 410.68 1.99969 -0.337681 0
M  V30 4458 C 411.013 1.61184 1.08321 0
M  V30 4459 O 410.288 0.858395 1.74533 0
M  V30 4460 C 410.571 3.56858 -0.482121 0
M  V30 4461 C 410.424 4.0555 -1.94549 0
M  V30 4462 C 411.743 4.39955 0.113143 0
M  V30 4463 H 408.862 0.726464 -0.124171 0
M  V30 4464 H 411.504 1.63034 -0.975699 0
M  V30 4465 H 409.654 3.88452 0.0610361 0
M  V30 4466 H 411.326 3.84518 -2.54841 0
M  V30 4467 H 409.569 3.57715 -2.45403 0
M  V30 4468 H 410.24 5.14587 -1.9976 0
M  V30 4469 H 412.716 4.14623 -0.35031 0
M  V30 4470 H 411.592 5.48897 -0.0180514 0
M  V30 4471 H 411.853 4.25403 1.20354 0
M  V30 4472 N 410.912 0.523116 1.48665 0
M  V30 4473 C 411.842 -0.23231 2.32342 0
M  V30 4474 C 412.823 -0.941637 1.41659 0
M  V30 4475 O 414.008 -0.928751 1.70552 0
M  V30 4476 C 411.138 -1.28387 3.22698 0
M  V30 4477 C 410.092 -0.693098 4.22351 0
M  V30 4478 C 409.418 -1.8468 5.01794 0
M  V30 4479 C 410.718 0.33063 5.21252 0
M  V30 4480 H 412.412 0.466192 2.95748 0
M  V30 4481 H 409.958 0.225643 1.42221 0
M  V30 4482 H 411.911 -1.82024 3.80059 0
M  V30 4483 H 410.635 -2.01186 2.57278 0
M  V30 4484 H 409.294 -0.178299 3.66166 0
M  V30 4485 H 408.942 -2.56301 4.32804 0
M  V30 4486 H 408.642 -1.45747 5.69238 0
M  V30 4487 H 410.166 -2.38709 5.62006 0
M  V30 4488 H 411.58 -0.118407 5.73178 0
M  V30 4489 H 409.977 0.636974 5.9671 0
M  V30 4490 H 411.047 1.23883 4.68808 0
M  V30 4491 N 412.39 -1.55475 0.257931 0
M  V30 4492 C 413.63 -2.01112 -0.365129 0
M  V30 4493 C 413.994 -1.1423 -1.54323 0
M  V30 4494 O 415.195 -1.49371 -2.23477 0
M  V30 4495 C 413.466 -3.49353 -0.754117 0
M  V30 4496 S 415.025 -4.16992 -1.36614 0
M  V30 4497 H 411.843 -0.701737 -0.114397 0
M  V30 4498 H 414.445 -1.91855 0.375747 0
M  V30 4499 H 413.149 -4.10246 0.112441 0
M  V30 4500 H 412.68 -3.6256 -1.52689 0
M  V30 4501 H 414.695 -4.19191 -2.65505 0
M  V30 4502 N 413.868 0.0150385 -1.57593 0
M  V30 4503 C 414.778 1.02791 -2.10882 0
M  V30 4504 C 415.794 1.38702 -1.0506 0
M  V30 4505 O 416.97 1.47739 -1.36877 0
M  V30 4506 C 414.035 2.30568 -2.58919 0
M  V30 4507 C 413.096 2.01108 -3.79281 0
M  V30 4508 C 412.329 3.22794 -4.25018 0
M  V30 4509 O 412.552 4.33959 -3.70183 0
M  V30 4510 O 411.486 3.07672 -5.17322 0
M  V30 4511 H 415.312 0.604973 -2.97613 0
M  V30 4512 H 412.897 0.23292 -1.47573 0
M  V30 4513 H 414.779 3.05662 -2.90084 0
M  V30 4514 H 413.454 2.72129 -1.75293 0
M  V30 4515 H 412.361 1.23537 -3.53114 0
M  V30 4516 H 413.694 1.64394 -4.63935 0
M  V30 4517 N 415.346 1.54954 0.287554 0
M  V30 4518 C 416.294 1.87606 1.37502 0
M  V30 4519 C 417.288 0.751001 1.51843 0
M  V30 4520 O 418.494 0.935169 1.53801 0
M  V30 4521 H 414.869 0.595231 0.459569 0
M  V30 4522 H 416.84 2.78477 1.07206 0
M  V30 4523 C 415.589 2.15183 2.73115 0
M  V30 4524 H 414.912 3.01234 2.62866 0
M  V30 4525 H 416.352 2.4196 3.48183 0
M  V30 4526 C 414.811 0.954686 3.2309 0
M  V30 4527 O 415.341 0.181949 4.01288 0
M  V30 4528 N 413.547 0.756368 2.80584 0
M  V30 4529 H 413.094 1.38643 2.17108 0
M  V30 4530 H 413.052 -0.0430391 3.14371 0
M  V30 4531 N 416.824 -0.551391 1.4764 0
M  V30 4532 C 418.071 -1.3083 1.54563 0
M  V30 4533 C 418.399 -1.93359 0.210361 0
M  V30 4534 O 417.654 -1.78721 -0.797332 0
M  V30 4535 C 417.953 -2.43469 2.61644 0
M  V30 4536 C 417.619 -1.98732 4.04742 0
M  V30 4537 C 416.281 -1.86248 4.43695 0
M  V30 4538 C 418.633 -1.64659 4.94507 0
M  V30 4539 C 415.961 -1.37995 5.70241 0
M  V30 4540 C 418.313 -1.17875 6.21521 0
M  V30 4541 C 416.977 -1.03992 6.5935 0
M  V30 4542 H 416.247 -0.478741 0.565587 0
M  V30 4543 H 418.894 -0.617697 1.81264 0
M  V30 4544 H 417.199 -3.18109 2.28722 0
M  V30 4545 H 418.896 -3.01642 2.64222 0
M  V30 4546 H 415.486 -2.09393 3.73968 0
M  V30 4547 H 419.67 -1.73174 4.65107 0
M  V30 4548 H 414.926 -1.25915 5.98294 0
M  V30 4549 H 419.1 -0.905739 6.90485 0
M  V30 4550 H 416.727 -0.663794 7.57296 0
M  V30 4551 N 418.302 -1.35869 -0.798587 0
M  V30 4552 C 419.713 -1.26498 -1.37314 0
M  V30 4553 C 420.064 0.0991899 -1.95949 0
M  V30 4554 O 419.189 1.0004 -1.91888 0
M  V30 4555 C 419.784 -2.29054 -2.49639 0
M  V30 4556 C 418.343 -2.234 -3.02935 0
M  V30 4557 C 417.49 -2.14329 -1.75949 0
M  V30 4558 H 420.441 -1.46881 -0.600971 0
M  V30 4559 H 420.462 -1.92166 -3.28409 0
M  V30 4560 H 419.974 -3.2833 -2.06933 0
M  V30 4561 H 418.075 -1.27562 -3.50084 0
M  V30 4562 H 418.188 -3.15703 -3.60372 0
M  V30 4563 H 416.552 -1.60435 -1.9782 0
M  V30 4564 H 417.335 -3.15477 -1.35384 0
M  V30 4565 N 419.78 1.02168 -1.19998 0
M  V30 4566 C 420.69 2.14069 -0.959774 0
M  V30 4567 C 421.706 1.73804 0.082655 0
M  V30 4568 O 422.882 2.01133 -0.103633 0
M  V30 4569 C 419.947 3.42936 -0.509459 0
M  V30 4570 C 419.008 3.97474 -1.62213 0
M  V30 4571 C 418.241 5.2019 -1.19321 0
M  V30 4572 O 418.464 5.70369 -0.0597726 0
M  V30 4573 O 417.398 5.67749 -1.99863 0
M  V30 4574 H 421.224 2.37199 -1.89658 0
M  V30 4575 H 418.809 1.12469 -0.983411 0
M  V30 4576 H 420.691 4.20551 -0.267322 0
M  V30 4577 H 419.366 3.21234 0.398821 0
M  V30 4578 H 418.273 3.21161 -1.9185 0
M  V30 4579 H 419.606 4.23555 -2.50723 0
M  V30 4580 N 421.258 1.00505 1.21394 0
M  V30 4581 C 422.168 0.574806 2.27449 0
M  V30 4582 C 423.184 -0.382206 1.6975 0
M  V30 4583 O 424.36 -0.246027 1.99892 0
M  V30 4584 C 421.425 -0.0917414 3.46579 0
M  V30 4585 C 420.486 0.909758 4.1955 0
M  V30 4586 C 419.719 0.274924 5.32991 0
M  V30 4587 O 419.942 -0.928254 5.62796 0
M  V30 4588 O 418.876 0.985877 5.93771 0
M  V30 4589 H 422.702 1.45744 2.66444 0
M  V30 4590 H 420.287 0.773923 1.27792 0
M  V30 4591 H 422.169 -0.464551 4.18832 0
M  V30 4592 H 420.844 -0.948755 3.09484 0
M  V30 4593 H 419.751 1.33372 3.49518 0
M  V30 4594 H 421.084 1.73636 4.60555 0
M  V30 4595 N 422.737 -1.36956 0.779787 0
M  V30 4596 C 423.67 -2.27896 0.117681 0
M  V30 4597 C 424.648 -1.46736 -0.700523 0
M  V30 4598 O 425.832 -1.76055 -0.673568 0
M  V30 4599 C 422.959 -3.28136 -0.839296 0
M  V30 4600 C 422.005 -4.26373 -0.10409 0
M  V30 4601 S 422.838 -5.2157 1.21348 0
M  V30 4602 C 423.994 -6.25359 0.260249 0
M  V30 4603 H 424.227 -2.83704 0.888778 0
M  V30 4604 H 421.76 -1.43352 0.57355 0
M  V30 4605 H 423.718 -3.86394 -1.38601 0
M  V30 4606 H 422.379 -2.7126 -1.58356 0
M  V30 4607 H 421.572 -4.97121 -0.82986 0
M  V30 4608 H 421.174 -3.72147 0.371858 0
M  V30 4609 H 423.466 -6.75145 -0.564435 0
M  V30 4610 H 424.409 -7.01885 0.936135 0
M  V30 4611 H 424.817 -5.64345 -0.132127 0
M  V30 4612 N 424.215 -0.530993 -1.48385 0
M  V30 4613 C 425.178 0.220497 -2.28137 0
M  V30 4614 C 426.178 0.866851 -1.35434 0
M  V30 4615 O 427.368 0.726746 -1.58316 0
M  V30 4616 C 424.5 1.31921 -3.1434 0
M  V30 4617 H 425.693 -0.479714 -2.96038 0
M  V30 4618 H 423.246 -0.286968 -1.53643 0
M  V30 4619 H 423.981 2.05264 -2.51072 0
M  V30 4620 H 423.766 0.86085 -3.82533 0
M  V30 4621 H 425.256 1.84776 -3.74497 0
M  V30 4622 N 425.693 1.55336 -0.266172 0
M  V30 4623 C 426.921 2.03801 0.356756 0
M  V30 4624 C 427.336 1.14485 1.50129 0
M  V30 4625 O 426.693 0.163121 1.8177 0
M  V30 4626 C 426.744 3.51455 0.846281 0
M  V30 4627 O 426.465 4.37371 -0.252663 0
M  V30 4628 C 427.966 4.15767 1.53794 0
M  V30 4629 H 425.186 0.665906 0.0825218 0
M  V30 4630 H 427.73 2.00636 -0.39566 0
M  V30 4631 H 425.885 3.55092 1.54881 0
M  V30 4632 H 426.299 5.24358 0.122173 0
M  V30 4633 H 427.773 5.20714 1.83198 0
M  V30 4634 H 428.25 3.63404 2.46646 0
M  V30 4635 H 428.856 4.16107 0.879488 0
M  V30 4636 N 427.171 -0.0066808 1.57599 0
M  V30 4637 C 428.401 -0.703066 1.94269 0
M  V30 4638 C 428.809 -1.68206 0.866222 0
M  V30 4639 O 428.152 -1.82966 -0.164087 0
M  V30 4640 C 428.214 -1.49616 3.26887 0
M  V30 4641 C 427.878 -0.679494 4.5192 0
M  V30 4642 C 428.875 0.0299508 5.19891 0
M  V30 4643 C 426.56 -0.627433 4.98366 0
M  V30 4644 C 428.554 0.780514 6.32603 0
M  V30 4645 C 426.241 0.126861 6.10968 0
M  V30 4646 C 427.239 0.829574 6.77943 0
M  V30 4647 O 426.927 1.57157 7.88389 0
M  V30 4648 H 426.659 -0.201217 0.645359 0
M  V30 4649 H 429.213 0.0385326 2.05364 0
M  V30 4650 H 427.443 -2.28209 3.12182 0
M  V30 4651 H 429.132 -2.07726 3.48719 0
M  V30 4652 H 429.898 -0.00115963 4.85 0
M  V30 4653 H 425.777 -1.16392 4.46065 0
M  V30 4654 H 429.321 1.32954 6.84813 0
M  V30 4655 H 425.218 0.159815 6.45302 0
M  V30 4656 H 425.986 1.48758 8.04868 0
M  V30 4657 N 428.649 -1.55105 -0.279332 0
M  V30 4658 C 429.579 -1.90557 -1.34945 0
M  V30 4659 C 430.56 -0.766738 -1.51839 0
M  V30 4660 O 431.745 -1.02434 -1.64988 0
M  V30 4661 C 428.875 -2.17193 -2.71006 0
M  V30 4662 C 427.829 -3.33021 -2.68851 0
M  V30 4663 C 427.155 -3.45123 -4.08405 0
M  V30 4664 C 428.455 -4.69578 -2.28678 0
M  V30 4665 H 430.149 -2.80188 -1.05522 0
M  V30 4666 H 427.695 -1.34811 -0.506173 0
M  V30 4667 H 429.648 -2.40581 -3.45975 0
M  V30 4668 H 428.372 -1.24355 -3.01999 0
M  V30 4669 H 427.031 -3.0959 -1.9634 0
M  V30 4670 H 426.679 -2.49762 -4.3661 0
M  V30 4671 H 426.379 -4.22995 -4.07859 0
M  V30 4672 H 427.903 -3.70796 -4.85121 0
M  V30 4673 H 429.317 -4.92553 -2.93368 0
M  V30 4674 H 427.714 -5.5032 -2.39306 0
M  V30 4675 H 428.784 -4.68828 -1.23807 0
M  V30 4676 N 430.127 0.543554 -1.4793 0
M  V30 4677 C 431.543 0.870806 -1.3375 0
M  V30 4678 C 431.743 1.9864 -0.338261 0
M  V30 4679 O 430.799 2.51305 0.245371 0
M  V30 4680 C 432.112 1.25114 -2.73435 0
M  V30 4681 C 433.66 1.3618 -2.81823 0
M  V30 4682 C 434.135 1.77563 -4.22179 0
M  V30 4683 N 435.626 1.8469 -4.24787 0
M  V30 4684 C 436.361 2.18067 -5.30315 0
M  V30 4685 N 435.857 2.49963 -6.46135 0
M  V30 4686 N 437.65 2.18958 -5.17701 0
M  V30 4687 H 429.801 -0.19275 -2.11524 0
M  V30 4688 H 432.064 -0.0235777 -0.947707 0
M  V30 4689 H 431.77 0.50514 -3.48053 0
M  V30 4690 H 431.644 2.20431 -3.06088 0
M  V30 4691 H 434.031 2.09859 -2.07468 0
M  V30 4692 H 434.112 0.390169 -2.52807 0
M  V30 4693 H 433.756 1.04449 -4.97044 0
M  V30 4694 H 433.686 2.75753 -4.48629 0
M  V30 4695 H 436.177 1.62372 -3.41239 0
M  V30 4696 H 436.49 2.74497 -7.22406 0
M  V30 4697 H 434.835 2.47513 -6.49432 0
M  V30 4698 H 438.026 1.93488 -4.2624 0
M  V30 4699 H 438.199 2.44639 -6.00047 0
M  V30 4700 N 431.605 1.3629 0.791371 0
M  V30 4701 C 432.835 1.33368 1.57786 0
M  V30 4702 C 433.243 -0.0875188 1.88997 0
M  V30 4703 O 432.586 -1.05427 1.50435 0
M  V30 4704 C 432.648 2.08802 2.92646 0
M  V30 4705 C 432.312 3.57903 2.84174 0
M  V30 4706 C 433.309 4.52191 2.56553 0
M  V30 4707 C 430.994 4.00762 3.02812 0
M  V30 4708 C 432.988 5.87315 2.47669 0
M  V30 4709 C 430.675 5.35977 2.93551 0
M  V30 4710 C 431.673 6.29066 2.66017 0
M  V30 4711 O 431.361 7.61798 2.56746 0
M  V30 4712 H 431.093 0.459166 0.496128 0
M  V30 4713 H 433.647 1.79952 0.990269 0
M  V30 4714 H 431.877 1.56878 3.53449 0
M  V30 4715 H 433.566 1.98762 3.53904 0
M  V30 4716 H 434.332 4.20393 2.41858 0
M  V30 4717 H 430.211 3.2868 3.2325 0
M  V30 4718 H 433.755 6.59943 2.26099 0
M  V30 4719 H 429.652 5.67384 3.07808 0
M  V30 4720 H 430.42 7.71898 2.72242 0
M  V30 4721 N 433.083 -1.0153 1.20538 0
M  V30 4722 C 434.329 -1.75408 1.01783 0
M  V30 4723 C 434.662 -1.88943 -0.448814 0
M  V30 4724 O 433.937 -1.4162 -1.33319 0
M  V30 4725 C 434.22 -3.17255 1.70356 0
M  V30 4726 C 434.073 -3.11508 3.24473 0
M  V30 4727 C 435.392 -4.15955 1.43769 0
M  V30 4728 H 432.511 -0.636713 0.371167 0
M  V30 4729 H 435.153 -1.18436 1.4857 0
M  V30 4730 H 433.303 -3.65898 1.30578 0
M  V30 4731 H 434.975 -2.70658 3.73553 0
M  V30 4732 H 433.218 -2.4887 3.55311 0
M  V30 4733 H 433.889 -4.11784 3.67611 0
M  V30 4734 H 436.365 -3.75973 1.7828 0
M  V30 4735 H 435.241 -5.13368 1.94279 0
M  V30 4736 H 435.502 -4.40586 0.365564 0
M  V30 4737 N 434.561 -1.01147 -1.20859 0
M  V30 4738 C 435.977 -0.725422 -1.42161 0
M  V30 4739 C 436.177 0.696919 -1.89064 0
M  V30 4740 O 435.233 1.46539 -2.05627 0
M  V30 4741 C 436.546 -1.74678 -2.44761 0
M  V30 4742 C 438.094 -1.76433 -2.58535 0
M  V30 4743 C 438.569 -2.77481 -3.64374 0
M  V30 4744 N 440.06 -2.76189 -3.71852 0
M  V30 4745 C 440.795 -3.51035 -4.53389 0
M  V30 4746 N 440.291 -4.35541 -5.38773 0
M  V30 4747 N 442.084 -3.39655 -4.47873 0
M  V30 4748 H 434.235 -1.92979 -0.887282 0
M  V30 4749 H 436.498 -0.833327 -0.451962 0
M  V30 4750 H 436.204 -2.76551 -2.17285 0
M  V30 4751 H 436.078 -1.55472 -3.43669 0
M  V30 4752 H 438.465 -0.75248 -2.85345 0
M  V30 4753 H 438.546 -1.99712 -1.5984 0
M  V30 4754 H 438.19 -3.78827 -3.38308 0
M  V30 4755 H 438.12 -2.51466 -4.6268 0
M  V30 4756 H 440.611 -2.14885 -3.10858 0
M  V30 4757 H 440.924 -4.89432 -5.98061 0
M  V30 4758 H 439.269 -4.39621 -5.38292 0
M  V30 4759 H 442.46 -2.73063 -3.80203 0
M  V30 4760 H 442.633 -3.9824 -5.11184 0
M  V30 4761 N 436.039 1.36541 -0.78704 0
M  V30 4762 C 437.455 1.52571 -0.46844 0
M  V30 4763 C 437.655 1.7415 1.01361 0
M  V30 4764 O 436.711 1.77163 1.79915 0
M  V30 4765 C 438.024 2.71299 -1.29682 0
M  V30 4766 C 439.572 2.85169 -1.29027 0
M  V30 4767 C 440.047 4.06898 -2.10233 0
M  V30 4768 N 441.538 4.1404 -2.07666 0
M  V30 4769 C 442.273 5.07301 -2.67271 0
M  V30 4770 N 441.769 6.06021 -3.35724 0
M  V30 4771 N 443.562 4.99898 -2.57018 0
M  V30 4772 H 435.713 1.20788 -1.74711 0
M  V30 4773 H 437.976 0.589364 -0.742532 0
M  V30 4774 H 437.682 2.61868 -2.34773 0
M  V30 4775 H 437.556 3.6539 -0.936479 0
M  V30 4776 H 439.943 2.94062 -0.247284 0
M  V30 4777 H 440.024 1.91992 -1.69035 0
M  V30 4778 H 439.668 3.98766 -3.1456 0
M  V30 4779 H 439.598 4.99218 -1.67597 0
M  V30 4780 H 442.089 3.43357 -1.57843 0
M  V30 4781 H 442.402 6.73741 -3.78541 0
M  V30 4782 H 440.747 6.06253 -3.39826 0
M  V30 4783 H 443.938 4.21724 -2.03142 0
M  V30 4784 H 444.111 5.72392 -3.03761 0
M  V30 4785 N 437.518 0.538854 1.48102 0
M  V30 4786 C 438.448 -0.207654 2.32575 0
M  V30 4787 C 439.429 -0.926559 1.4265 0
M  V30 4788 O 440.614 -0.91061 1.71527 0
M  V30 4789 C 437.744 -1.24957 3.24042 0
M  V30 4790 C 436.698 -0.648263 4.23062 0
M  V30 4791 C 436.024 -1.79348 5.03725 0
M  V30 4792 C 437.324 0.385897 5.20872 0
M  V30 4793 H 439.018 0.497534 2.95237 0
M  V30 4794 H 436.564 0.240715 1.41974 0
M  V30 4795 H 438.517 -1.77983 3.81969 0
M  V30 4796 H 437.241 -1.98446 2.59397 0
M  V30 4797 H 435.9 -0.139452 3.66335 0
M  V30 4798 H 435.548 -2.51696 4.35498 0
M  V30 4799 H 435.248 -1.39702 5.70751 0
M  V30 4800 H 436.772 -2.32735 5.64506 0
M  V30 4801 H 438.186 -0.057607 5.73271 0
M  V30 4802 H 436.583 0.700227 5.96001 0
M  V30 4803 H 437.653 1.28848 4.67468 0
M  V30 4804 N 438.996 -1.55193 0.274407 0
M  V30 4805 C 440.273 -1.91584 -0.394331 0
M  V30 4806 C 440.653 -1.19858 -1.73774 0
M  V30 4807 O 440.001 -0.3252 -2.26174 0
M  V30 4808 C 440.211 -3.4487 -0.535311 0
M  V30 4809 C 441.559 -4.16636 -0.818534 0
M  V30 4810 O 442.583 -3.5076 -0.620146 0
M  V30 4811 O 441.442 -5.33209 -1.19792 0
M  V30 4812 H 438.536 -0.798349 -0.215794 0
M  V30 4813 H 441.082 -1.66646 0.320507 0
M  V30 4814 H 439.854 -3.89145 0.410141 0
M  V30 4815 H 439.477 -3.75759 -1.29964 0
M  V30 4816 N 440.474 -0.00167713 -1.576 0
M  V30 4817 C 441.721 0.68282 -1.90641 0
M  V30 4818 C 442.049 1.73686 -0.875415 0
M  V30 4819 O 441.304 1.95334 0.119575 0
M  V30 4820 C 441.603 1.36189 -3.30435 0
M  V30 4821 C 441.269 0.440887 -4.48739 0
M  V30 4822 C 439.931 0.187312 -4.80835 0
M  V30 4823 C 442.283 -0.193134 -5.20842 0
M  V30 4824 C 439.611 -0.70855 -5.82406 0
M  V30 4825 C 441.963 -1.07688 -6.23367 0
M  V30 4826 C 440.627 -1.33962 -6.53919 0
M  V30 4827 H 439.897 0.249862 -0.697603 0
M  V30 4828 H 442.544 -0.0575642 -1.91413 0
M  V30 4829 H 440.849 2.17636 -3.25794 0
M  V30 4830 H 442.546 1.89759 -3.5326 0
M  V30 4831 H 439.136 0.648694 -4.23663 0
M  V30 4832 H 443.32 -0.0102445 -4.96299 0
M  V30 4833 H 438.576 -0.920097 -6.04437 0
M  V30 4834 H 442.75 -1.57451 -6.78367 0
M  V30 4835 H 440.377 -2.03549 -7.32442 0
M  V30 4836 N 441.952 1.55251 0.271103 0
M  V30 4837 C 443.199 1.75946 1.00245 0
M  V30 4838 C 443.527 0.561611 1.86215 0
M  V30 4839 O 442.782 -0.455832 1.90317 0
M  V30 4840 C 443.081 3.01879 1.91321 0
M  V30 4841 C 442.747 4.34337 1.21086 0
M  V30 4842 C 441.409 4.70338 1.01666 0
M  V30 4843 C 443.761 5.16325 0.71119 0
M  V30 4844 C 441.089 5.8588 0.310099 0
M  V30 4845 C 443.441 6.32597 0.0182157 0
M  V30 4846 C 442.105 6.67236 -0.18768 0
M  V30 4847 H 441.375 0.643833 0.366824 0
M  V30 4848 H 444.022 1.89521 0.27458 0
M  V30 4849 H 442.327 2.83212 2.70736 0
M  V30 4850 H 444.024 3.15088 2.48033 0
M  V30 4851 H 440.614 4.06043 1.37213 0
M  V30 4852 H 444.798 4.88987 0.848844 0
M  V30 4853 H 440.054 6.1124 0.139873 0
M  V30 4854 H 444.228 6.9538 -0.376711 0
M  V30 4855 H 441.855 7.56618 -0.73715 0
M  V30 4856 N 443.43 -0.535701 1.48216 0
M  V30 4857 C 444.34 -1.66785 1.64985 0
M  V30 4858 C 445.356 -1.65654 0.532414 0
M  V30 4859 O 446.532 -1.8471 0.80275 0
M  V30 4860 C 443.597 -3.0326 1.68031 0
M  V30 4861 C 442.658 -3.1529 2.9136 0
M  V30 4862 C 441.891 -4.45255 2.94252 0
M  V30 4863 O 442.114 -5.32011 2.05719 0
M  V30 4864 O 441.048 -4.6153 3.86359 0
M  V30 4865 H 444.874 -1.55576 2.60825 0
M  V30 4866 H 442.459 -0.70815 1.31551 0
M  V30 4867 H 444.341 -3.84436 1.72589 0
M  V30 4868 H 443.016 -3.14805 0.753628 0
M  V30 4869 H 441.923 -2.3343 2.92337 0
M  V30 4870 H 443.256 -3.08658 3.83394 0
M  V30 4871 N 444.908 -1.36708 -0.784132 0
M  V30 4872 C 445.855 -1.31466 -1.89698 0
M  V30 4873 C 446.825 -0.18239 -1.65096 0
M  V30 4874 O 448.01 -0.369762 -1.87183 0
M  V30 4875 C 445.15 -1.1151 -3.26588 0
M  V30 4876 C 444.263 -2.33859 -3.63227 0
M  V30 4877 C 443.398 -2.06873 -4.89262 0
M  V30 4878 C 442.437 -3.25154 -5.18595 0
M  V30 4879 N 441.574 -2.978 -6.35814 0
M  V30 4880 H 446.414 -2.26619 -1.93515 0
M  V30 4881 H 443.951 -1.12625 -0.946256 0
M  V30 4882 H 445.909 -0.979653 -4.05535 0
M  V30 4883 H 444.539 -0.200103 -3.22179 0
M  V30 4884 H 443.591 -2.58188 -2.79362 0
M  V30 4885 H 444.903 -3.22109 -3.8085 0
M  V30 4886 H 444.057 -1.90289 -5.76086 0
M  V30 4887 H 442.796 -1.15942 -4.73718 0
M  V30 4888 H 441.801 -3.42292 -4.30251 0
M  V30 4889 H 443.026 -4.1692 -5.36055 0
M  V30 4890 H 440.972 -2.09485 -6.21653 0
M  V30 4891 H 440.889 -3.7959 -6.53794 0
M  V30 4892 H 442.157 -2.84805 -7.25607 0
M  V30 4893 N 446.386 1.0089 -1.21074 0
M  V30 4894 C 447.797 1.56056 -1.02486 0
M  V30 4895 C 448.148 1.91728 0.416506 0
M  V30 4896 O 447.273 1.73066 1.29912 0
M  V30 4897 C 447.868 2.83563 -1.85411 0
M  V30 4898 C 446.427 3.3523 -1.71166 0
M  V30 4899 C 445.574 2.0846 -1.82865 0
M  V30 4900 H 448.525 0.831818 -1.35154 0
M  V30 4901 H 448.546 3.55286 -1.36205 0
M  V30 4902 H 448.058 2.57569 -2.9031 0
M  V30 4903 H 446.159 3.66167 -0.689361 0
M  V30 4904 H 446.272 4.06913 -2.52901 0
M  V30 4905 H 444.636 2.21275 -1.26132 0
M  V30 4906 H 445.419 1.84883 -2.89263 0
M  V30 4907 N 447.864 1.01787 1.20321 0
M  V30 4908 C 449.141 0.622978 1.85414 0
M  V30 4909 C 449.521 -0.898887 1.91006 0
M  V30 4910 O 448.869 -1.79112 1.41884 0
M  V30 4911 C 449.079 1.27226 3.24984 0
M  V30 4912 C 450.427 1.3885 4.01255 0
M  V30 4913 O 451.451 1.22857 3.34342 0
M  V30 4914 O 450.31 1.64705 5.2109 0
M  V30 4915 H 447.404 0.215116 0.798533 0
M  V30 4916 H 449.95 1.11533 1.27901 0
M  V30 4917 H 448.722 2.31209 3.15687 0
M  V30 4918 H 448.345 0.767069 3.90131 0
M  V30 4919 N 449.342 -1.36122 0.79427 0
M  V30 4920 C 450.572 -2.03067 0.380437 0
M  V30 4921 C 450.98 -1.60018 -1.00949 0
M  V30 4922 O 450.323 -0.787425 -1.65968 0
M  V30 4923 C 450.385 -3.57587 0.37034 0
M  V30 4924 C 450.049 -4.23855 1.70867 0
M  V30 4925 C 451.046 -4.46404 2.66496 0
M  V30 4926 C 448.731 -4.61229 1.9893 0
M  V30 4927 C 450.725 -5.05412 3.88378 0
M  V30 4928 C 448.412 -5.19953 3.21079 0
M  V30 4929 C 449.41 -5.41985 4.15621 0
M  V30 4930 O 449.098 -5.99475 5.35616 0
M  V30 4931 H 448.83 -0.658168 0.154243 0
M  V30 4932 H 451.384 -1.7498 1.0757 0
M  V30 4933 H 449.614 -3.84814 -0.381444 0
M  V30 4934 H 451.303 -4.05895 -0.0194894 0
M  V30 4935 H 452.069 -4.17921 2.46103 0
M  V30 4936 H 447.948 -4.43402 1.26158 0
M  V30 4937 H 451.492 -5.22524 4.62185 0
M  V30 4938 H 447.389 -5.47862 3.41347 0
M  V30 4939 H 448.157 -6.17937 5.36745 0
M  V30 4940 N 450.82 -0.546701 -1.47814 0
M  V30 4941 C 452.097 0.0464413 -1.95545 0
M  V30 4942 C 452.477 1.4962 -1.48919 0
M  V30 4943 O 451.825 2.16752 -0.723232 0
M  V30 4944 C 452.035 -0.0881298 -3.48889 0
M  V30 4945 C 453.383 0.0626059 -4.24554 0
M  V30 4946 O 454.407 -0.0151555 -3.56197 0
M  V30 4947 O 453.266 0.228071 -5.46024 0
M  V30 4948 H 450.36 0.0700004 -0.824032 0
M  V30 4949 H 452.906 -0.612482 -1.58262 0
M  V30 4950 H 451.678 -1.09737 -3.75597 0
M  V30 4951 H 451.301 0.608886 -3.9291 0
M  V30 4952 N 452.299 1.55045 -0.282633 0
M  V30 4953 C 453.529 2.03872 0.334635 0
M  V30 4954 C 453.937 1.16018 1.49454 0
M  V30 4955 O 453.28 0.174449 1.8287 0
M  V30 4956 C 453.342 3.48791 0.870905 0
M  V30 4957 C 453.006 4.56715 -0.161338 0
M  V30 4958 C 454.003 5.10513 -0.983466 0
M  V30 4959 C 451.688 5.01417 -0.297745 0
M  V30 4960 C 453.682 6.07538 -1.92811 0
M  V30 4961 C 451.369 5.98265 -1.24586 0
M  V30 4962 C 452.367 6.51208 -2.05954 0
M  V30 4963 O 452.055 7.46162 -2.99162 0
M  V30 4964 H 451.787 0.671324 0.0793742 0
M  V30 4965 H 454.341 2.01169 -0.41473 0
M  V30 4966 H 452.571 3.48758 1.67047 0
M  V30 4967 H 454.26 3.80916 1.40207 0
M  V30 4968 H 455.026 4.76785 -0.888856 0
M  V30 4969 H 450.905 4.59849 0.325604 0
M  V30 4970 H 454.449 6.48787 -2.56363 0
M  V30 4971 H 450.346 6.31412 -1.34126 0
M  V30 4972 H 451.114 7.63903 -2.93929 0
M  V30 4973 N 453.777 0.010035 1.57597 0
M  V30 4974 C 454.707 -0.976857 2.12084 0
M  V30 4975 C 455.688 -1.35191 1.03235 0
M  V30 4976 O 456.873 -1.43389 1.3097 0
M  V30 4977 C 454.003 -2.26548 2.63236 0
M  V30 4978 C 452.957 -2.03175 3.76701 0
M  V30 4979 C 452.283 -3.38138 4.14206 0
M  V30 4980 C 453.583 -1.38625 5.03568 0
M  V30 4981 H 455.277 -0.523145 2.94794 0
M  V30 4982 H 452.823 -0.250195 1.4181 0
M  V30 4983 H 454.776 -2.95952 2.99984 0
M  V30 4984 H 453.5 -2.74051 1.77661 0
M  V30 4985 H 452.159 -1.36195 3.40362 0
M  V30 4986 H 451.807 -3.83363 3.25641 0
M  V30 4987 H 451.507 -3.23312 4.90656 0
M  V30 4988 H 453.031 -4.08841 4.53521 0
M  V30 4989 H 454.445 -1.98 5.38023 0
M  V30 4990 H 452.842 -1.34256 5.84889 0
M  V30 4991 H 453.912 -0.356722 4.83586 0
M  V30 4992 N 455.255 -1.55392 -0.262866 0
M  V30 4993 C 456.671 -1.47459 -0.610582 0
M  V30 4994 C 456.871 -0.697031 -1.8906 0
M  V30 4995 O 455.927 -0.219952 -2.5154 0
M  V30 4996 C 457.24 -2.91751 -0.728131 0
M  V30 4997 C 458.788 -3.02027 -0.821517 0
M  V30 4998 C 459.263 -4.47594 -0.97076 0
M  V30 4999 N 460.754 -4.51465 -1.03603 0
M  V30 5000 C 461.489 -5.61326 -1.17049 0
M  V30 5001 N 460.985 -6.81032 -1.2715 0
M  V30 5002 N 462.778 -5.49089 -1.20239 0
M  V30 5003 H 454.929 -2.04395 0.577632 0
M  V30 5004 H 457.192 -0.927287 0.197086 0
M  V30 5005 H 456.898 -3.51413 0.142132 0
M  V30 5006 H 456.772 -3.4134 -1.6052 0
M  V30 5007 H 459.159 -2.42456 -1.68224 0
M  V30 5008 H 459.24 -2.55674 0.0803688 0
M  V30 5009 H 458.884 -5.07771 -0.114655 0
M  V30 5010 H 458.814 -4.91613 -1.88745 0
M  V30 5011 H 461.305 -3.6524 -0.96996 0
M  V30 5012 H 461.618 -7.60511 -1.37271 0
M  V30 5013 H 459.963 -6.83824 -1.24136 0
M  V30 5014 H 463.154 -4.54507 -1.11985 0
M  V30 5015 H 463.327 -6.34749 -1.30373 0
M  V30 5016 N 456.733 0.527833 -1.48498 0
M  V30 5017 C 457.68 1.6322 -1.6318 0
M  V30 5018 C 458.65 1.59199 -0.473815 0
M  V30 5019 O 459.835 1.77591 -0.697563 0
M  V30 5020 C 456.975 3.01474 -1.67951 0
M  V30 5021 C 456.088 3.15713 -2.94871 0
M  V30 5022 C 455.223 4.44539 -2.90789 0
M  V30 5023 C 454.262 4.52315 -4.12404 0
M  V30 5024 N 453.399 5.72533 -4.06387 0
M  V30 5025 H 458.239 1.50011 -2.57489 0
M  V30 5026 H 455.776 0.730298 -1.27691 0
M  V30 5027 H 457.734 3.81572 -1.68698 0
M  V30 5028 H 456.364 3.1345 -0.771306 0
M  V30 5029 H 455.416 2.28854 -3.03859 0
M  V30 5030 H 456.728 3.1732 -3.8485 0
M  V30 5031 H 455.882 5.3293 -2.89949 0
M  V30 5032 H 454.621 4.45457 -1.98542 0
M  V30 5033 H 453.626 3.62331 -4.13517 0
M  V30 5034 H 454.851 4.53134 -5.05812 0
M  V30 5035 H 452.797 5.74344 -3.16962 0
M  V30 5036 H 452.714 5.75643 -4.90073 0
M  V30 5037 H 453.982 6.63204 -4.0961 0
M  V30 5038 N 458.211 1.37122 0.776871 0
M  V30 5039 C 459.141 1.35164 1.90402 0
M  V30 5040 C 460.122 0.221069 1.68657 0
M  V30 5041 O 461.307 0.420642 1.8959 0
M  V30 5042 C 458.437 1.15274 3.27611 0
M  V30 5043 C 457.391 2.25289 3.63908 0
M  V30 5044 C 456.717 1.90527 4.99603 0
M  V30 5045 C 458.017 3.67446 3.71188 0
M  V30 5046 H 459.711 2.29482 1.92297 0
M  V30 5047 H 457.257 1.10465 0.923773 0
M  V30 5048 H 459.21 1.12536 4.06096 0
M  V30 5049 H 457.934 0.174102 3.26136 0
M  V30 5050 H 456.593 2.27174 2.87728 0
M  V30 5051 H 456.241 0.91206 4.94662 0
M  V30 5052 H 455.941 2.64193 5.24858 0
M  V30 5053 H 457.465 1.89367 5.80493 0
M  V30 5054 H 458.879 3.67719 4.39836 0
M  V30 5055 H 457.276 4.40123 4.07936 0
M  V30 5056 H 458.346 4.01443 2.71977 0
M  V30 5057 N 459.689 -1.00246 1.21608 0
M  V30 5058 C 460.936 -1.74061 1.03485 0
M  V30 5059 C 461.264 -1.89658 -0.431308 0
M  V30 5060 O 460.519 -1.42976 -1.33627 0
M  V30 5061 C 460.818 -3.15448 1.68009 0
M  V30 5062 C 460.484 -3.19792 3.17874 0
M  V30 5063 C 459.146 -3.20685 3.58768 0
M  V30 5064 C 461.498 -3.16835 4.13842 0
M  V30 5065 C 458.826 -3.16309 4.94131 0
M  V30 5066 C 461.178 -3.14001 5.49169 0
M  V30 5067 C 459.842 -3.13204 5.89457 0
M  V30 5068 H 459.112 -0.636934 0.378677 0
M  V30 5069 H 461.759 -1.17473 1.51236 0
M  V30 5070 H 460.064 -3.75284 1.12557 0
M  V30 5071 H 461.761 -3.71285 1.51487 0
M  V30 5072 H 458.351 -3.19842 2.85305 0
M  V30 5073 H 462.535 -3.15303 3.83272 0
M  V30 5074 H 457.791 -3.14032 5.24589 0
M  V30 5075 H 461.965 -3.10667 6.23265 0
M  V30 5076 H 459.592 -3.09568 6.94314 0
M  V30 5077 N 461.167 -1.02423 -1.1978 0
M  V30 5078 C 462.395 -0.737456 -1.93311 0
M  V30 5079 C 462.81 0.703023 -1.75223 0
M  V30 5080 O 462.167 1.47761 -1.07112 0
M  V30 5081 C 462.218 -1.0733 -3.45199 0
M  V30 5082 O 461.939 -2.4572 -3.62702 0
M  V30 5083 C 463.44 -0.80866 -4.35862 0
M  V30 5084 H 460.66 -0.2702 -0.614193 0
M  V30 5085 H 463.204 -1.36747 -1.52054 0
M  V30 5086 H 461.359 -0.488545 -3.84307 0
M  V30 5087 H 461.773 -2.58081 -4.56612 0
M  V30 5088 H 463.247 -1.09365 -5.41057 0
M  V30 5089 H 463.724 0.257025 -4.38447 0
M  V30 5090 H 464.33 -1.37592 -4.02428 0
M  V30 5091 N 462.645 1.35699 -0.801477 0
M  V30 5092 C 463.922 1.9324 -0.302937 0
M  V30 5093 C 464.302 1.73209 1.20672 0
M  V30 5094 O 463.65 1.09809 2.00385 0
M  V30 5095 C 463.86 3.41728 -0.708747 0
M  V30 5096 C 465.208 4.18868 -0.695328 0
M  V30 5097 O 466.232 3.5022 -0.649971 0
M  V30 5098 O 465.091 5.41342 -0.749081 0
M  V30 5099 H 462.185 0.82331 -0.0780367 0
M  V30 5100 H 464.731 1.44806 -0.884832 0
M  V30 5101 H 463.503 3.50015 -1.74944 0
M  V30 5102 H 463.126 3.97471 -0.101384 0
M  V30 5103 N 464.123 0.554532 1.47522 0
M  V30 5104 C 465.053 -0.182974 2.32782 0
M  V30 5105 C 466.034 -0.911377 1.43624 0
M  V30 5106 O 467.219 -0.892366 1.72483 0
M  V30 5107 C 464.349 -1.21513 3.25349 0
M  V30 5108 C 463.303 -0.603355 4.23726 0
M  V30 5109 C 462.629 -1.73995 5.05598 0
M  V30 5110 C 463.929 0.441121 5.20434 0
M  V30 5111 H 465.623 0.52882 2.94693 0
M  V30 5112 H 463.169 0.255759 1.41711 0
M  V30 5113 H 465.122 -1.73922 3.83835 0
M  V30 5114 H 463.846 -1.95683 2.61487 0
M  V30 5115 H 462.505 -0.10059 3.66462 0
M  V30 5116 H 462.153 -2.47063 4.38143 0
M  V30 5117 H 461.853 -1.3364 5.72201 0
M  V30 5118 H 463.377 -2.26735 5.66942 0
M  V30 5119 H 464.791 0.00319931 5.733 0
M  V30 5120 H 463.188 0.763402 5.95224 0
M  V30 5121 H 464.258 1.33799 4.66075 0
M  V30 5122 N 465.601 -1.54893 0.290851 0
M  V30 5123 C 466.848 -1.99933 -0.321391 0
M  V30 5124 C 467.176 -1.17927 -1.54672 0
M  V30 5125 O 466.431 -0.240902 -1.94212 0
M  V30 5126 C 466.73 -3.49815 -0.732397 0
M  V30 5127 C 466.396 -4.4921 0.390056 0
M  V30 5128 C 465.058 -4.76107 0.698223 0
M  V30 5129 C 467.41 -5.08453 1.14562 0
M  V30 5130 C 464.738 -5.59514 1.76526 0
M  V30 5131 C 467.09 -5.9302 2.2025 0
M  V30 5132 C 465.754 -6.18232 2.51684 0
M  V30 5133 H 465.024 -0.731608 -0.117605 0
M  V30 5134 H 467.671 -1.87107 0.407839 0
M  V30 5135 H 465.976 -3.60199 -1.54155 0
M  V30 5136 H 467.673 -3.82083 -1.21712 0
M  V30 5137 H 464.263 -4.28372 0.13976 0
M  V30 5138 H 468.447 -4.87683 0.920801 0
M  V30 5139 H 463.703 -5.77289 2.01364 0
M  V30 5140 H 467.877 -6.37955 2.7926 0
M  V30 5141 H 465.504 -6.82653 3.34499 0
M  V30 5142 N 467.08 -0.0183926 -1.57589 0
M  V30 5143 C 468.357 0.700621 -1.82622 0
M  V30 5144 C 468.737 1.90951 -0.90005 0
M  V30 5145 O 468.085 2.28452 0.0469145 0
M  V30 5146 C 468.295 1.08899 -3.31575 0
M  V30 5147 C 469.643 1.48514 -3.9778 0
M  V30 5148 O 470.667 1.18227 -3.36007 0
M  V30 5149 O 469.526 2.04903 -5.06633 0
M  V30 5150 H 466.62 0.342743 -0.752633 0
M  V30 5151 H 469.166 -0.0452548 -1.6964 0
M  V30 5152 H 467.938 0.228113 -3.90635 0
M  V30 5153 H 467.561 1.89338 -3.49624 0
M  V30 5154 N 468.558 1.5553 0.254621 0
M  V30 5155 C 469.974 1.4778 0.602753 0
M  V30 5156 C 470.174 0.707047 1.88688 0
M  V30 5157 O 469.23 0.233288 2.5142 0
M  V30 5158 C 470.543 2.92133 0.712648 0
M  V30 5159 C 472.091 3.02458 0.805488 0
M  V30 5160 C 472.566 4.48102 0.947009 0
M  V30 5161 N 474.057 4.52008 1.01207 0
M  V30 5162 C 474.792 5.61939 1.1407 0
M  V30 5163 N 474.288 6.81697 1.23536 0
M  V30 5164 N 476.081 5.49719 1.17325 0
M  V30 5165 H 468.232 2.04085 -0.588463 0
M  V30 5166 H 470.495 0.926229 -0.202001 0
M  V30 5167 H 470.201 3.51332 -0.160766 0
M  V30 5168 H 470.075 3.42187 1.58707 0
M  V30 5169 H 472.462 2.43344 1.66936 0
M  V30 5170 H 472.543 2.55627 -0.0939266 0
M  V30 5171 H 472.187 5.07824 0.087725 0
M  V30 5172 H 472.117 4.92607 1.86135 0
M  V30 5173 H 474.608 3.65749 0.950577 0
M  V30 5174 H 474.921 7.61228 1.33236 0
M  V30 5175 H 473.266 6.84473 1.20508 0
M  V30 5176 H 476.457 4.55095 1.09573 0
M  V30 5177 H 476.63 6.35432 1.27005 0
M  V30 5178 N 470.036 -0.519951 1.48776 0
M  V30 5179 C 471.261 -1.30447 1.6124 0
M  V30 5180 C 471.686 -1.86055 0.276591 0
M  V30 5181 O 471.044 -1.64915 -0.753183 0
M  V30 5182 C 471.092 -2.42406 2.66967 0
M  V30 5183 O 470.196 -3.45728 2.24824 0
M  V30 5184 H 469.537 -0.385924 0.540332 0
M  V30 5185 H 472.067 -0.624572 1.94834 0
M  V30 5186 H 472.077 -2.88447 2.88552 0
M  V30 5187 H 470.752 -2.01294 3.63941 0
M  V30 5188 H 469.329 -3.05737 2.13494 0
M  V30 5189 N 471.514 -1.37532 -0.769588 0
M  V30 5190 C 472.762 -1.32597 -1.5252 0
M  V30 5191 C 473.083 0.0884294 -1.94799 0
M  V30 5192 O 472.353 1.03289 -1.66458 0
M  V30 5193 H 470.933 -0.487846 -0.565699 0
M  V30 5194 H 473.595 -1.72044 -0.915806 0
M  V30 5195 H 472.691 -1.96643 -2.42359 0
M  V30 5196 N 472.992 0.995999 -1.22138 0
M  V30 5197 C 474.239 1.7351 -1.04406 0
M  V30 5198 C 474.567 1.89884 0.421244 0
M  V30 5199 O 473.822 1.43683 1.32867 0
M  V30 5200 C 474.121 3.14553 -1.6968 0
M  V30 5201 C 473.787 3.18102 -3.19565 0
M  V30 5202 C 472.449 3.18778 -3.60464 0
M  V30 5203 C 474.801 3.14636 -4.15516 0
M  V30 5204 C 472.129 3.13684 -4.95801 0
M  V30 5205 C 474.481 3.11084 -5.50826 0
M  V30 5206 C 473.145 3.10074 -5.91109 0
M  V30 5207 H 472.415 0.634916 -0.38205 0
M  V30 5208 H 475.062 1.1667 -1.51857 0
M  V30 5209 H 473.367 3.74682 -1.14546 0
M  V30 5210 H 475.064 3.70477 -1.53454 0
M  V30 5211 H 471.654 3.18324 -2.86998 0
M  V30 5212 H 475.838 3.13266 -3.84939 0
M  V30 5213 H 471.094 3.11245 -5.26247 0
M  V30 5214 H 475.268 3.07357 -6.24904 0
M  V30 5215 H 472.895 3.05882 -6.95946 0
M  V30 5216 N 474.47 1.03057 1.19235 0
M  V30 5217 C 475.716 0.729098 1.89241 0
M  V30 5218 C 476.049 -0.740573 1.79525 0
M  V30 5219 O 475.324 -1.53946 1.18874 0
M  V30 5220 C 475.607 1.18304 3.40112 0
M  V30 5221 C 475.46 2.71406 3.5869 0
M  V30 5222 C 476.779 0.765161 4.33397 0
M  V30 5223 H 473.898 0.266338 0.687192 0
M  V30 5224 H 476.54 1.28079 1.40341 0
M  V30 5225 H 474.69 0.713672 3.81889 0
M  V30 5226 H 476.362 3.26303 3.26074 0
M  V30 5227 H 474.605 3.11717 3.01687 0
M  V30 5228 H 475.276 2.98225 4.64506 0
M  V30 5229 H 477.752 1.16889 3.99345 0
M  V30 5230 H 476.628 1.11065 5.37546 0
M  V30 5231 H 476.889 -0.332372 4.40849 0
M  V30 5232 N 475.948 -1.35272 0.808662 0
M  V30 5233 C 477.195 -1.98709 0.390003 0
M  V30 5234 C 477.523 -1.64148 -1.04335 0
M  V30 5235 O 476.778 -0.897797 -1.73891 0
M  V30 5236 C 477.077 -3.53556 0.522798 0
M  V30 5237 C 476.743 -4.0799 1.91977 0
M  V30 5238 C 475.405 -4.22568 2.30195 0
M  V30 5239 C 477.757 -4.37442 2.83361 0
M  V30 5240 C 475.085 -4.63918 3.59162 0
M  V30 5241 C 477.437 -4.80232 4.11776 0
M  V30 5242 C 476.101 -4.93016 4.49991 0
M  V30 5243 H 475.371 -0.727127 0.142712 0
M  V30 5244 H 478.018 -1.6145 1.02985 0
M  V30 5245 H 476.323 -3.91287 -0.200494 0
M  V30 5246 H 478.02 -4.00598 0.179608 0
M  V30 5247 H 474.61 -3.97096 1.61284 0
M  V30 5248 H 478.794 -4.25731 2.55083 0
M  V30 5249 H 474.05 -4.72005 3.88615 0
M  V30 5250 H 478.224 -5.01982 4.82687 0
M  V30 5251 H 475.851 -5.24814 5.49976 0
M  V30 5252 N 477.426 -0.562348 -1.47226 0
M  V30 5253 C 478.703 0.0256985 -1.95583 0
M  V30 5254 C 479.083 1.48032 -1.50498 0
M  V30 5255 O 478.431 2.15973 -0.746181 0
M  V30 5256 C 478.641 -0.125129 -3.48776 0
M  V30 5257 C 479.989 0.0175728 -4.24596 0
M  V30 5258 O 481.013 -0.0529341 -3.56161 0
M  V30 5259 O 479.872 0.170145 -5.46235 0
M  V30 5260 H 476.966 0.0612565 -0.824728 0
M  V30 5261 H 479.512 -0.629233 -1.57603 0
M  V30 5262 H 478.284 -1.13715 -3.74412 0
M  V30 5263 H 477.907 0.567178 -3.93534 0
M  V30 5264 N 478.904 1.54736 -0.299062 0
M  V30 5265 C 480.134 2.04215 0.312992 0
M  V30 5266 C 480.542 1.17596 1.48215 0
M  V30 5267 O 479.885 0.193835 1.82674 0
M  V30 5268 C 479.947 3.49696 0.833862 0
M  V30 5269 C 479.611 4.56518 -0.20977 0
M  V30 5270 C 480.608 5.09442 -1.03756 0
M  V30 5271 C 478.293 5.01073 -0.35091 0
M  V30 5272 C 480.287 6.05459 -1.99244 0
M  V30 5273 C 477.974 5.9691 -1.30924 0
M  V30 5274 C 478.972 6.48987 -2.1285 0
M  V30 5275 O 478.66 7.42947 -3.07059 0
M  V30 5276 H 478.392 0.672128 0.0722494 0
M  V30 5277 H 480.946 2.00718 -0.436043 0
M  V30 5278 H 479.176 3.5051 1.63339 0
M  V30 5279 H 480.865 3.82381 1.36159 0
M  V30 5280 H 481.631 4.75816 -0.939376 0
M  V30 5281 H 477.51 4.60168 0.276813 0
M  V30 5282 H 481.054 6.46031 -2.63229 0
M  V30 5283 H 476.951 6.29953 -1.40815 0
M  V30 5284 H 477.719 7.60743 -3.02015 0
M  V30 5285 N 480.382 0.0267497 1.57577 0
M  V30 5286 C 481.292 -0.971633 2.13533 0
M  V30 5287 C 482.308 -1.35868 1.08701 0
M  V30 5288 O 483.484 -1.44058 1.40746 0
M  V30 5289 C 480.549 -2.23622 2.64941 0
M  V30 5290 C 479.61 -1.90982 3.8448 0
M  V30 5291 C 478.843 -3.11411 4.33427 0
M  V30 5292 O 479.066 -4.23992 3.81558 0
M  V30 5293 O 478 -2.93848 5.25297 0
M  V30 5294 H 481.826 -0.525853 2.99113 0
M  V30 5295 H 479.411 -0.193712 1.48139 0
M  V30 5296 H 481.293 -2.97864 2.98086 0
M  V30 5297 H 479.968 -2.67386 1.82446 0
M  V30 5298 H 478.875 -1.14132 3.56265 0
M  V30 5299 H 480.208 -1.52036 4.6813 0
M  V30 5300 N 481.861 -1.55662 -0.24637 0
M  V30 5301 C 483.091 -1.81312 -0.990438 0
M  V30 5302 C 483.499 -0.600234 -1.79426 0
M  V30 5303 O 482.842 0.440537 -1.78339 0
M  V30 5304 C 482.904 -3.0032 -1.97607 0
M  V30 5305 C 482.568 -4.36322 -1.35912 0
M  V30 5306 C 483.565 -5.14295 -0.761348 0
M  V30 5307 C 481.25 -4.83019 -1.37833 0
M  V30 5308 C 483.244 -6.37114 -0.190998 0
M  V30 5309 C 480.931 -6.05786 -0.804128 0
M  V30 5310 C 481.929 -6.82672 -0.211489 0
M  V30 5311 O 481.617 -8.03121 0.353845 0
M  V30 5312 H 481.349 -0.607233 -0.297058 0
M  V30 5313 H 483.903 -2.0356 -0.274351 0
M  V30 5314 H 482.133 -2.73829 -2.73047 0
M  V30 5315 H 483.822 -3.13057 -2.58361 0
M  V30 5316 H 484.588 -4.79337 -0.739013 0
M  V30 5317 H 480.467 -4.23165 -1.829 0
M  V30 5318 H 484.011 -6.97069 0.272206 0
M  V30 5319 H 479.908 -6.40222 -0.823792 0
M  V30 5320 H 480.676 -8.18131 0.245761 0
M  V30 5321 N 483.339 0.512053 -1.4905 0
M  V30 5322 C 484.616 1.27337 -1.48474 0
M  V30 5323 C 484.996 2.1009 -0.206301 0
M  V30 5324 O 484.344 2.136 0.811609 0
M  V30 5325 C 484.554 2.13954 -2.75726 0
M  V30 5326 C 485.902 2.73507 -3.24776 0
M  V30 5327 O 486.926 2.24229 -2.76767 0
M  V30 5328 O 485.785 3.63186 -4.08361 0
M  V30 5329 H 482.879 0.575652 -0.593762 0
M  V30 5330 H 485.425 0.527232 -1.61302 0
M  V30 5331 H 484.197 1.52709 -3.60272 0
M  V30 5332 H 483.82 2.95782 -2.65705 0
M  V30 5333 N 484.817 1.37938 0.762283 0
M  V30 5334 C 486.063 1.34873 1.52253 0
M  V30 5335 C 486.418 -0.0635972 1.92295 0
M  V30 5336 O 485.711 -1.02434 1.61919 0
M  V30 5337 C 485.905 2.23042 2.79261 0
M  V30 5338 C 485.734 3.72706 2.51635 0
M  V30 5339 C 484.504 4.41771 2.45289 0
M  V30 5340 C 486.702 4.65345 2.18994 0
M  V30 5341 N 484.684 5.76921 2.09846 0
M  V30 5342 C 486.055 5.88943 1.9377 0
M  V30 5343 C 488.11 4.53636 2.0523 0
M  V30 5344 C 486.813 7.02142 1.5617 0
M  V30 5345 C 488.839 5.6673 1.69031 0
M  V30 5346 C 488.201 6.89383 1.44673 0
M  V30 5347 H 484.3 0.548818 0.557067 0
M  V30 5348 H 486.884 1.73247 0.888458 0
M  V30 5349 H 485.055 1.8687 3.40491 0
M  V30 5350 H 486.787 2.11165 3.45241 0
M  V30 5351 H 483.542 3.94883 2.61465 0
M  V30 5352 H 483.966 6.4837 1.94794 0
M  V30 5353 H 488.608 3.5937 2.2274 0
M  V30 5354 H 486.326 7.96334 1.37399 0
M  V30 5355 H 489.912 5.59645 1.59026 0
M  V30 5356 H 488.792 7.75411 1.17079 0
M  V30 5357 N 486.295 -0.989507 1.22664 0
M  V30 5358 C 487.258 -2.06183 1.00106 0
M  V30 5359 C 488.258 -1.60765 -0.0337726 0
M  V30 5360 O 489.448 -1.72989 0.205072 0
M  V30 5361 C 486.58 -3.37021 0.51279 0
M  V30 5362 H 487.773 -2.27629 1.95256 0
M  V30 5363 H 485.326 -1.16158 1.0458 0
M  V30 5364 H 486.061 -3.21261 -0.442917 0
M  V30 5365 H 485.846 -3.71323 1.25942 0
M  V30 5366 H 487.336 -4.1591 0.375315 0
M  V30 5367 N 487.773 -1.03688 -1.18687 0
M  V30 5368 C 489.021 -0.736572 -1.88199 0
M  V30 5369 C 489.342 0.737665 -1.80509 0
M  V30 5370 O 488.612 1.53204 -1.22088 0
M  V30 5371 H 487.192 -0.269466 -0.696704 0
M  V30 5372 H 489.854 -1.31282 -1.44052 0
M  V30 5373 H 488.95 -1.03802 -2.94332 0
M  V30 5374 N 489.251 1.34841 -0.815825 0
M  V30 5375 C 490.198 2.29644 -0.230664 0
M  V30 5376 C 491.168 1.53253 0.640533 0
M  V30 5377 O 492.353 1.81653 0.583672 0
M  V30 5378 C 489.493 3.39715 0.607275 0
M  V30 5379 C 488.606 4.31056 -0.28538 0
M  V30 5380 C 487.741 5.28225 0.561446 0
M  V30 5381 C 486.78 6.11204 -0.331035 0
M  V30 5382 N 485.917 7.00483 0.476302 0
M  V30 5383 H 490.757 2.79095 -1.0445 0
M  V30 5384 H 488.294 1.37351 -0.526595 0
M  V30 5385 H 490.252 4.02208 1.10835 0
M  V30 5386 H 488.882 2.91517 1.38629 0
M  V30 5387 H 487.934 3.69487 -0.904621 0
M  V30 5388 H 489.246 4.89239 -0.97193 0
M  V30 5389 H 488.4 5.96135 1.12728 0
M  V30 5390 H 487.139 4.70562 1.28153 0
M  V30 5391 H 486.144 5.42232 -0.909069 0
M  V30 5392 H 487.369 6.70947 -1.04912 0
M  V30 5393 H 485.315 6.45296 1.18019 0
M  V30 5394 H 485.232 7.55847 -0.152008 0
M  V30 5395 H 486.5 7.7273 1.02512 0
M  V30 5396 N 490.729 0.570148 1.46925 0
M  V30 5397 C 492.14 0.1402 1.86173 0
M  V30 5398 C 492.491 -1.29347 1.47526 0
M  V30 5399 O 491.616 -1.97508 0.884292 0
M  V30 5400 C 492.211 0.247661 3.37894 0
M  V30 5401 C 490.77 -0.127332 3.76185 0
M  V30 5402 C 489.917 0.589349 2.70965 0
M  V30 5403 H 492.868 0.779117 1.38259 0
M  V30 5404 H 492.889 -0.530341 3.76786 0
M  V30 5405 H 492.401 1.29121 3.65991 0
M  V30 5406 H 490.502 -1.17149 3.53704 0
M  V30 5407 H 490.615 0.240238 4.78497 0
M  V30 5408 H 488.979 0.0309824 2.54681 0
M  V30 5409 H 489.762 1.6343 3.01903 0
M  V30 5410 N 492.207 -1.54576 0.307264 0
M  V30 5411 C 493.137 -2.26708 -0.55907 0
M  V30 5412 C 494.118 -1.26893 -1.1328 0
M  V30 5413 O 495.303 -1.55677 -1.16097 0
M  V30 5414 C 492.433 -3.01259 -1.72801 0
M  V30 5415 C 491.387 -4.08275 -1.28435 0
M  V30 5416 C 490.713 -4.70575 -2.53895 0
M  V30 5417 C 492.013 -5.2068 -0.411038 0
M  V30 5418 H 493.707 -2.9937 0.042576 0
M  V30 5419 H 491.253 -1.43983 0.0219173 0
M  V30 5420 H 493.206 -3.50444 -2.34023 0
M  V30 5421 H 491.93 -2.26187 -2.356 0
M  V30 5422 H 490.589 -3.59949 -0.695161 0
M  V30 5423 H 490.237 -3.92136 -3.15021 0
M  V30 5424 H 489.937 -5.42854 -2.24908 0
M  V30 5425 H 491.461 -5.22527 -3.15908 0
M  V30 5426 H 492.875 -5.65721 -0.929097 0
M  V30 5427 H 491.272 -5.99716 -0.214664 0
M  V30 5428 H 492.342 -4.81629 0.562287 0
M  V30 5429 N 493.685 -0.035106 -1.57561 0
M  V30 5430 C 495.096 0.502885 -1.798 0
M  V30 5431 C 495.447 1.71892 -0.945921 0
M  V30 5432 O 494.572 2.15822 -0.157991 0
M  V30 5433 C 495.167 0.919097 -3.26095 0
M  V30 5434 C 493.726 1.40216 -3.49308 0
M  V30 5435 C 492.873 0.369709 -2.74824 0
M  V30 5436 H 495.824 -0.261102 -1.56537 0
M  V30 5437 H 495.845 1.78308 -3.36135 0
M  V30 5438 H 495.357 0.0338526 -3.88085 0
M  V30 5439 H 493.458 2.30714 -2.92578 0
M  V30 5440 H 493.571 1.40541 -4.58023 0
M  V30 5441 H 491.935 0.839113 -2.40481 0
M  V30 5442 H 492.718 -0.507173 -3.39533 0
M  V30 5443 N 495.163 1.55791 0.238111 0
M  V30 5444 C 496.391 1.82098 0.982233 0
M  V30 5445 C 496.806 0.612025 1.78605 0
M  V30 5446 O 496.163 -0.419381 1.77616 0
M  V30 5447 C 496.214 3.0673 1.91309 0
M  V30 5448 O 495.935 4.2296 1.14179 0
M  V30 5449 C 497.436 3.45903 2.77248 0
M  V30 5450 H 494.656 0.605748 0.288635 0
M  V30 5451 H 497.2 2.02862 0.258341 0
M  V30 5452 H 495.355 2.87991 2.59114 0
M  V30 5453 H 495.769 4.93653 1.7722 0
M  V30 5454 H 497.243 4.36189 3.38295 0
M  V30 5455 H 497.72 2.66891 3.48806 0
M  V30 5456 H 498.326 3.67024 2.14881 0
M  V30 5457 N 496.642 -0.504142 1.49319 0
M  V30 5458 C 498.053 -1.08572 1.51885 0
M  V30 5459 C 498.404 -1.93842 0.303255 0
M  V30 5460 O 497.529 -2.0828 -0.58724 0
M  V30 5461 C 498.124 -1.97574 2.75227 0
M  V30 5462 C 496.683 -2.509 2.80581 0
M  V30 5463 C 495.83 -1.28447 2.45757 0
M  V30 5464 H 498.781 -0.288194 1.56061 0
M  V30 5465 H 498.802 -2.82219 2.55211 0
M  V30 5466 H 498.314 -1.35486 3.63683 0
M  V30 5467 H 496.415 -3.16636 1.96398 0
M  V30 5468 H 496.528 -2.88268 3.82673 0
M  V30 5469 H 494.892 -1.60868 1.97468 0
M  V30 5470 H 495.675 -0.68072 3.36483 0
M  V30 5471 N 498.12 -1.38341 -0.754957 0
M  V30 5472 C 499.369 -1.33791 -1.5094 0
M  V30 5473 C 499.682 0.0699267 -1.95475 0
M  V30 5474 O 500.888 0.237956 -2.70455 0
M  V30 5475 C 499.344 -2.34934 -2.72643 0
M  V30 5476 C 498.952 -3.81332 -2.35138 0
M  V30 5477 C 500.696 -2.39425 -3.50536 0
M  V30 5478 C 498.603 -4.74164 -3.53444 0
M  V30 5479 H 497.533 -0.497314 -0.566741 0
M  V30 5480 H 500.184 -1.63888 -0.825403 0
M  V30 5481 H 498.566 -1.97878 -3.43017 0
M  V30 5482 H 499.74 -4.27319 -1.7244 0
M  V30 5483 H 498.055 -3.79946 -1.70382 0
M  V30 5484 H 500.652 -3.0598 -4.38498 0
M  V30 5485 H 500.995 -1.41278 -3.91594 0
M  V30 5486 H 501.528 -2.75274 -2.87174 0
M  V30 5487 H 498.267 -5.73501 -3.17453 0
M  V30 5488 H 497.787 -4.3287 -4.15191 0
M  V30 5489 H 499.466 -4.92111 -4.20043 0
M  V30 5490 N 499.598 0.982988 -1.23187 0
M  V30 5491 C 500.846 1.72052 -1.06031 0
M  V30 5492 C 501.167 1.90769 0.404019 0
M  V30 5493 O 500.437 1.47446 1.28982 0
M  V30 5494 H 499.017 0.637499 -0.389363 0
M  V30 5495 H 501.679 1.18338 -1.54862 0
M  V30 5496 H 500.775 2.7111 -1.54615 0
M  V30 5497 N 501.076 1.04316 1.18135 0
M  V30 5498 C 502.304 0.768117 1.92113 0
M  V30 5499 C 502.719 -0.675057 1.76319 0
M  V30 5500 O 502.076 -1.46038 1.09449 0
M  V30 5501 C 502.127 1.12808 3.43448 0
M  V30 5502 O 501.848 2.5146 3.58747 0
M  V30 5503 C 503.349 0.8779 4.3452 0
M  V30 5504 H 500.569 0.279937 0.609817 0
M  V30 5505 H 503.113 1.39149 1.49859 0
M  V30 5506 H 501.268 0.549623 3.83481 0
M  V30 5507 H 501.682 2.65313 4.52448 0
M  V30 5508 H 503.156 1.17959 5.39249 0
M  V30 5509 H 503.633 -0.187239 4.38801 0
M  V30 5510 H 504.239 1.43977 4.00188 0
M  V30 5511 N 502.554 -1.34406 0.822964 0
M  V30 5512 C 503.8 -1.98578 0.411666 0
M  V30 5513 C 504.133 -1.65093 -1.02264 0
M  V30 5514 O 503.408 -0.92258 -1.71227 0
M  V30 5515 C 503.691 -3.54823 0.614235 0
M  V30 5516 C 503.544 -3.9805 2.09466 0
M  V30 5517 C 504.863 -4.40071 0.050221 0
M  V30 5518 H 501.982 -0.721355 0.151047 0
M  V30 5519 H 504.624 -1.59301 1.03554 0
M  V30 5520 H 502.774 -3.88411 0.0831774 0
M  V30 5521 H 504.446 -3.74795 2.68936 0
M  V30 5522 H 502.689 -3.4836 2.5851 0
M  V30 5523 H 503.36 -5.06819 2.18721 0
M  V30 5524 H 505.836 -4.13037 0.503953 0
M  V30 5525 H 504.712 -5.48452 0.221759 0
M  V30 5526 H 504.973 -4.29576 -1.04482 0
M  V30 5527 N 504.032 -0.577932 -1.46621 0
M  V30 5528 C 504.982 0.178869 -2.27297 0
M  V30 5529 C 505.966 0.866279 -1.35589 0
M  V30 5530 O 507.158 0.761163 -1.59798 0
M  V30 5531 C 504.287 1.19499 -3.2183 0
M  V30 5532 C 503.373 0.50994 -4.21023 0
M  V30 5533 N 503.764 -0.43177 -5.03954 0
M  V30 5534 C 502.062 0.761287 -4.39455 0
M  V30 5535 C 502.763 -0.831693 -5.75724 0
M  V30 5536 N 501.739 -0.181897 -5.43296 0
M  V30 5537 H 505.541 -0.544859 -2.88805 0
M  V30 5538 H 503.055 -0.399373 -1.57413 0
M  V30 5539 H 505.052 1.75131 -3.78332 0
M  V30 5540 H 503.712 1.91959 -2.61881 0
M  V30 5541 H 504.723 -0.807045 -5.11573 0
M  V30 5542 H 501.4 1.47282 -3.90659 0
M  V30 5543 H 502.79 -1.6067 -6.52407 0
M  V30 5544 N 505.51 1.54411 -0.315457 0
M  V30 5545 C 506.738 2.04833 0.291738 0
M  V30 5546 C 507.153 1.19203 1.46411 0
M  V30 5547 O 506.51 0.220867 1.81159 0
M  V30 5548 C 506.561 3.53969 0.73404 0
M  V30 5549 O 506.282 4.36346 -0.391682 0
M  V30 5550 C 507.783 4.2045 1.40489 0
M  V30 5551 H 505.003 0.668195 0.0612947 0
M  V30 5552 H 507.547 1.99276 -0.45929 0
M  V30 5553 H 505.702 3.5984 1.43506 0
M  V30 5554 H 506.116 5.24481 -0.0447088 0
M  V30 5555 H 507.59 5.26278 1.66539 0
M  V30 5556 H 508.067 3.71067 2.3496 0
M  V30 5557 H 508.673 4.18694 0.746662 0
M  V30 5558 N 506.988 0.0434614 1.5754 0
M  V30 5559 C 508.265 -0.671479 1.83713 0
M  V30 5560 C 508.645 -1.89495 0.930315 0
M  V30 5561 O 507.993 -2.28498 -0.0105639 0
M  V30 5562 C 508.203 -1.0361 3.33266 0
M  V30 5563 C 509.551 -1.42167 4.00092 0
M  V30 5564 O 510.575 -1.12866 3.37846 0
M  V30 5565 O 509.434 -1.96817 5.09829 0
M  V30 5566 H 506.528 -0.330726 0.75799 0
M  V30 5567 H 509.074 0.0722373 1.69546 0
M  V30 5568 H 507.846 -0.165938 3.90948 0
M  V30 5569 H 507.469 -1.83751 3.52592 0
M  V30 5570 N 508.466 -1.55915 -0.229846 0
M  V30 5571 C 509.396 -1.94754 -1.28815 0
M  V30 5572 C 510.377 -0.814657 -1.49323 0
M  V30 5573 O 511.562 -1.07631 -1.61645 0
M  V30 5574 C 508.692 -2.25705 -2.63959 0
M  V30 5575 C 507.646 -3.41406 -2.5812 0
M  V30 5576 C 506.972 -3.57941 -3.97218 0
M  V30 5577 C 508.272 -4.76616 -2.13623 0
M  V30 5578 H 509.966 -2.83404 -0.965547 0
M  V30 5579 H 507.512 -1.36353 -0.463028 0
M  V30 5580 H 509.465 -2.51467 -3.38146 0
M  V30 5581 H 508.189 -1.339 -2.9789 0
M  V30 5582 H 506.848 -3.1568 -1.86391 0
M  V30 5583 H 506.496 -2.63526 -4.28443 0
M  V30 5584 H 506.196 -4.35757 -3.94195 0
M  V30 5585 H 507.72 -3.86042 -4.73079 0
M  V30 5586 H 509.134 -5.01637 -2.77549 0
M  V30 5587 H 507.531 -5.57655 -2.21677 0
M  V30 5588 H 508.601 -4.7253 -1.08829 0
M  V30 5589 N 509.944 0.496216 -1.49584 0
M  V30 5590 C 511.355 1.07765 -1.52459 0
M  V30 5591 C 511.706 1.93679 -0.31353 0
M  V30 5592 O 510.831 2.08588 0.576186 0
M  V30 5593 C 511.426 1.96111 -2.76271 0
M  V30 5594 C 509.985 2.49409 -2.81908 0
M  V30 5595 C 509.132 1.27142 -2.46435 0
M  V30 5596 H 512.083 0.279914 -1.56212 0
M  V30 5597 H 512.104 2.80862 -2.56704 0
M  V30 5598 H 511.616 1.33555 -3.64396 0
M  V30 5599 H 509.717 3.1559 -1.98074 0
M  V30 5600 H 509.83 2.86234 -3.84196 0
M  V30 5601 H 508.194 1.59818 -1.98319 0
M  V30 5602 H 508.977 0.662866 -3.3684 0
M  V30 5603 N 511.423 1.38739 0.74761 0
M  V30 5604 C 512.648 1.38702 1.54197 0
M  V30 5605 C 513.073 -0.019664 1.8809 0
M  V30 5606 O 512.431 -1.00333 1.51006 0
M  V30 5607 C 512.479 2.25492 2.814 0
M  V30 5608 O 511.583 1.67613 3.76802 0
M  V30 5609 H 510.924 0.472863 0.466151 0
M  V30 5610 H 513.454 1.82577 0.923413 0
M  V30 5611 H 513.464 2.39561 3.30264 0
M  V30 5612 H 512.139 3.27727 2.56062 0
M  V30 5613 H 510.716 1.62718 3.35526 0
M  V30 5614 N 512.901 -0.976442 1.23707 0
M  V30 5615 C 513.833 -2.07212 0.979574 0
M  V30 5616 C 514.846 -1.6273 -0.0478528 0
M  V30 5617 O 516.035 -1.77506 0.18815 0
M  V30 5618 C 513.135 -3.35835 0.45479 0
M  V30 5619 C 512.308 -4.09268 1.54331 0
M  V30 5620 C 511.367 -5.16166 1.02271 0
M  V30 5621 O 510.393 -5.42827 1.71254 0
M  V30 5622 N 511.595 -5.80313 -0.147419 0
M  V30 5623 H 514.36 -2.29878 1.92292 0
M  V30 5624 H 511.921 -1.14343 1.14618 0
M  V30 5625 H 513.913 -4.04597 0.0914631 0
M  V30 5626 H 512.483 -3.10106 -0.394068 0
M  V30 5627 H 511.703 -3.34906 2.07923 0
M  V30 5628 H 512.991 -4.55095 2.27522 0
M  V30 5629 H 512.389 -5.61043 -0.724353 0
M  V30 5630 H 510.946 -6.50231 -0.451972 0
M  V30 5631 N 514.379 -1.04941 -1.1758 0
M  V30 5632 C 515.79 -0.784501 -1.69418 0
M  V30 5633 C 516.141 0.693625 -1.8353 0
M  V30 5634 O 515.266 1.53925 -1.52106 0
M  V30 5635 C 515.861 -1.41746 -3.07723 0
M  V30 5636 C 514.42 -1.20066 -3.56737 0
M  V30 5637 C 513.567 -1.5026 -2.33061 0
M  V30 5638 H 516.518 -1.21469 -1.02133 0
M  V30 5639 H 516.539 -0.825381 -3.7144 0
M  V30 5640 H 516.051 -2.49325 -2.9742 0
M  V30 5641 H 514.152 -0.144006 -3.72322 0
M  V30 5642 H 514.265 -1.90384 -4.39648 0
M  V30 5643 H 512.629 -0.922598 -2.37403 0
M  V30 5644 H 513.412 -2.58967 -2.25368 0
M  V30 5645 N 515.857 1.33968 -0.830081 0
M  V30 5646 C 516.789 2.28194 -0.21448 0
M  V30 5647 C 517.802 1.5135 0.599752 0
M  V30 5648 O 518.991 1.73286 0.42826 0
M  V30 5649 C 516.091 3.31221 0.717356 0
M  V30 5650 C 515.264 4.37365 -0.055613 0
M  V30 5651 C 514.323 5.2011 0.798231 0
M  V30 5652 O 513.349 5.68691 0.240616 0
M  V30 5653 N 514.551 5.40523 2.11695 0
M  V30 5654 H 517.316 2.81662 -1.02405 0
M  V30 5655 H 514.877 1.46568 -0.687713 0
M  V30 5656 H 516.869 3.83477 1.29334 0
M  V30 5657 H 515.439 2.78095 1.42765 0
M  V30 5658 H 514.659 3.85727 -0.812936 0
M  V30 5659 H 515.947 5.05397 -0.587444 0
M  V30 5660 H 515.345 5.0274 2.59363 0
M  V30 5661 H 513.902 5.95871 2.64162 0
M  V30 5662 N 517.335 0.585699 1.46312 0
M  V30 5663 C 518.265 -0.133556 2.33118 0
M  V30 5664 C 519.246 -0.880707 1.45525 0
M  V30 5665 O 520.431 -0.855579 1.74337 0
M  V30 5666 C 517.561 -1.14585 3.27853 0
M  V30 5667 C 516.515 -0.513341 4.2491 0
M  V30 5668 C 515.841 -1.63231 5.09175 0
M  V30 5669 C 517.141 0.551413 5.19381 0
M  V30 5670 H 518.835 0.59121 2.93505 0
M  V30 5671 H 516.381 0.285761 1.41136 0
M  V30 5672 H 518.334 -1.65741 3.87438 0
M  V30 5673 H 517.058 -1.90093 2.65579 0
M  V30 5674 H 515.717 -0.0228349 3.66593 0
M  V30 5675 H 515.365 -2.37713 4.43285 0
M  V30 5676 H 515.065 -1.21473 5.74907 0
M  V30 5677 H 516.589 -2.14658 5.71624 0
M  V30 5678 H 518.003 0.124804 5.73164 0
M  V30 5679 H 516.4 0.889486 5.93471 0
M  V30 5680 H 517.47 1.43655 4.63132 0
M  V30 5681 N 518.813 -1.54241 0.323641 0
M  V30 5682 C 520.229 -1.59574 -0.0290018 0
M  V30 5683 C 520.429 -1.34017 -1.50472 0
M  V30 5684 O 519.485 -1.12464 -2.26071 0
M  V30 5685 C 520.798 -2.98169 0.389295 0
M  V30 5686 C 522.346 -3.11148 0.339958 0
M  V30 5687 C 522.821 -4.5209 0.733418 0
M  V30 5688 N 524.312 -4.5808 0.686827 0
M  V30 5689 C 525.047 -5.65248 0.963464 0
M  V30 5690 N 524.543 -6.80355 1.30724 0
M  V30 5691 N 526.336 -5.55025 0.88902 0
M  V30 5692 H 518.487 -1.6911 1.28512 0
M  V30 5693 H 520.75 -0.790972 0.522558 0
M  V30 5694 H 520.456 -3.21871 1.41746 0
M  V30 5695 H 520.33 -3.76399 -0.245657 0
M  V30 5696 H 522.717 -2.87182 -0.679002 0
M  V30 5697 H 522.798 -2.35023 1.00985 0
M  V30 5698 H 522.442 -4.76788 1.75029 0
M  V30 5699 H 522.372 -5.26584 0.0412189 0
M  V30 5700 H 524.863 -3.75411 0.43298 0
M  V30 5701 H 525.176 -7.58029 1.5037 0
M  V30 5702 H 523.521 -6.81851 1.3455 0
M  V30 5703 H 526.712 -4.63977 0.619939 0
M  V30 5704 H 526.885 -6.38458 1.10797 0
M  V30 5705 N 520.291 -0.0518155 -1.57515 0
M  V30 5706 C 521.568 0.661727 -1.84067 0
M  V30 5707 C 521.948 1.88999 -0.940351 0
M  V30 5708 O 521.296 2.285 -0.00155404 0
M  V30 5709 C 521.506 1.01841 -3.3381 0
M  V30 5710 C 522.854 1.40043 -4.00841 0
M  V30 5711 O 523.878 1.11073 -3.38439 0
M  V30 5712 O 522.737 1.94111 -5.10865 0
M  V30 5713 H 519.831 0.326702 -0.759733 0
M  V30 5714 H 522.377 -0.0812277 -1.69505 0
M  V30 5715 H 521.149 0.145202 -3.91031 0
M  V30 5716 H 520.772 1.81879 -3.53562 0
M  V30 5717 N 521.769 1.56035 0.221574 0
M  V30 5718 C 522.716 1.92413 1.27459 0
M  V30 5719 C 523.686 0.781323 1.46576 0
M  V30 5720 O 524.871 1.03721 1.60145 0
M  V30 5721 C 522.011 2.24617 2.61995 0
M  V30 5722 C 521.124 3.51831 2.50677 0
M  V30 5723 C 520.259 3.73482 3.77736 0
M  V30 5724 C 519.298 4.94211 3.6114 0
M  V30 5725 N 518.435 5.12252 4.80148 0
M  V30 5726 H 523.275 2.82203 0.957355 0
M  V30 5727 H 520.812 1.39676 0.461415 0
M  V30 5728 H 522.77 2.41298 3.40339 0
M  V30 5729 H 521.4 1.38 2.91815 0
M  V30 5730 H 520.452 3.43343 1.63767 0
M  V30 5731 H 521.764 4.40328 2.34334 0
M  V30 5732 H 520.918 3.9026 4.64523 0
M  V30 5733 H 519.657 2.83266 3.97003 0
M  V30 5734 H 518.662 4.77384 2.72736 0
M  V30 5735 H 519.887 5.85912 3.43343 0
M  V30 5736 H 517.833 4.24978 4.99729 0
M  V30 5737 H 517.75 5.94881 4.66532 0
M  V30 5738 H 519.018 5.33465 5.68362 0
M  V30 5739 N 523.247 -0.488276 1.49845 0
M  V30 5740 C 524.475 -1.26527 1.63702 0
M  V30 5741 C 524.89 -1.8618 0.313447 0
M  V30 5742 O 524.247 -1.68432 -0.702624 0
M  V30 5743 C 524.298 -2.3864 2.71538 0
M  V30 5744 O 524.019 -1.81437 3.98763 0
M  V30 5745 C 525.52 -3.29805 2.96215 0
M  V30 5746 H 522.74 -0.383295 0.55075 0
M  V30 5747 H 525.284 -0.584779 1.95961 0
M  V30 5748 H 523.439 -3.02496 2.42023 0
M  V30 5749 H 523.853 -2.55135 4.58265 0
M  V30 5750 H 525.327 -4.04722 3.75372 0
M  V30 5751 H 525.804 -3.87563 2.06619 0
M  V30 5752 H 526.41 -2.71703 3.27196 0
M  V30 5753 N 524.725 -1.39134 -0.740242 0
M  V30 5754 C 525.657 -1.33332 -1.86428 0
M  V30 5755 C 526.67 -0.243042 -1.60976 0
M  V30 5756 O 527.859 -0.501608 -1.71307 0
M  V30 5757 C 524.959 -1.04626 -3.22346 0
M  V30 5758 C 524.132 -2.24826 -3.75196 0
M  V30 5759 C 523.191 -1.92659 -4.89662 0
M  V30 5760 O 522.217 -2.6529 -5.03597 0
M  V30 5761 N 523.419 -0.889575 -5.73643 0
M  V30 5762 H 526.184 -2.30196 -1.91911 0
M  V30 5763 H 523.745 -1.33168 -0.920756 0
M  V30 5764 H 525.737 -0.811347 -3.96484 0
M  V30 5765 H 524.307 -0.165129 -3.12164 0
M  V30 5766 H 523.527 -2.64301 -2.9247 0
M  V30 5767 H 524.815 -3.05015 -4.07239 0
M  V30 5768 H 524.213 -0.287529 -5.64969 0
M  V30 5769 H 522.77 -0.714557 -6.47871 0
M  V30 5770 N 526.204 0.969867 -1.24223 0
M  V30 5771 C 527.615 1.52717 -1.07399 0
M  V30 5772 C 527.966 1.92956 0.355298 0
M  V30 5773 O 527.091 1.77112 1.2434 0
M  V30 5774 C 527.686 2.77521 -1.94339 0
M  V30 5775 C 526.245 3.29615 -1.81744 0
M  V30 5776 C 525.392 2.02537 -1.89405 0
M  V30 5777 H 528.343 0.788399 -1.37732 0
M  V30 5778 H 528.364 3.50773 -1.47439 0
M  V30 5779 H 527.876 2.48203 -2.98357 0
M  V30 5780 H 525.977 3.63789 -0.805505 0
M  V30 5781 H 526.09 3.98661 -2.65718 0
M  V30 5782 H 524.454 2.17151 -1.33108 0
M  V30 5783 H 525.237 1.75587 -2.94999 0
M  V30 5784 N 527.682 1.05563 1.17022 0
M  V30 5785 C 528.632 0.630007 2.19123 0
M  V30 5786 C 529.616 -0.335472 1.57364 0
M  V30 5787 O 530.808 -0.1521 1.76345 0
M  V30 5788 C 527.937 0.0101676 3.43298 0
M  V30 5789 C 527.023 0.999698 4.12149 0
M  V30 5790 N 527.414 2.17251 4.56766 0
M  V30 5791 C 525.712 0.829 4.38228 0
M  V30 5792 C 526.413 2.79883 5.09942 0
M  V30 5793 N 525.389 2.07656 5.02374 0
M  V30 5794 H 529.191 1.52353 2.51328 0
M  V30 5795 H 526.705 0.926288 1.33393 0
M  V30 5796 H 528.702 -0.312541 4.15727 0
M  V30 5797 H 527.362 -0.878707 3.12584 0
M  V30 5798 H 528.373 2.55067 4.50734 0
M  V30 5799 H 525.05 -0.00850974 4.17499 0
M  V30 5800 H 526.44 3.79362 5.54558 0
M  V30 5801 N 529.16 -1.33526 0.837174 0
M  V30 5802 C 530.385 -2.0258 0.444545 0
M  V30 5803 C 530.81 -1.6258 -0.946006 0
M  V30 5804 O 530.168 -0.817548 -1.6182 0
M  V30 5805 C 530.216 -3.5605 0.571006 0
M  V30 5806 O 529.32 -4.10422 -0.403431 0
M  V30 5807 H 528.661 -0.638866 0.180958 0
M  V30 5808 H 531.191 -1.70462 1.13154 0
M  V30 5809 H 531.201 -4.05488 0.452024 0
M  V30 5810 H 529.876 -3.84509 1.58512 0
M  V30 5811 H 528.453 -3.72113 -0.242147 0
M  V30 5812 N 530.638 -0.59345 -1.46 0
M  V30 5813 C 531.585 0.133618 -2.30413 0
M  V30 5814 C 532.555 0.873736 -1.41262 0
M  V30 5815 O 533.74 0.862279 -1.70204 0
M  V30 5816 C 530.88 1.13434 -3.25924 0
M  V30 5817 C 529.993 0.39656 -4.30176 0
M  V30 5818 C 529.128 1.38575 -5.12806 0
M  V30 5819 C 528.167 0.634984 -6.08797 0
M  V30 5820 N 527.304 1.57276 -6.84258 0
M  V30 5821 H 532.144 -0.592252 -2.92055 0
M  V30 5822 H 529.681 -0.303874 -1.43927 0
M  V30 5823 H 531.639 1.72752 -3.79753 0
M  V30 5824 H 530.269 1.82779 -2.66067 0
M  V30 5825 H 529.321 -0.311861 -3.79119 0
M  V30 5826 H 530.633 -0.189869 -4.98438 0
M  V30 5827 H 529.787 2.05141 -5.70966 0
M  V30 5828 H 528.526 2.00611 -4.44529 0
M  V30 5829 H 527.531 -0.0443925 -5.49782 0
M  V30 5830 H 528.756 0.0198678 -6.79097 0
M  V30 5831 H 526.702 2.18103 -6.18682 0
M  V30 5832 H 526.619 1.03941 -7.48821 0
M  V30 5833 H 527.887 2.22844 -7.46968 0
M  V30 5834 N 532.116 1.54067 -0.331816 0
M  V30 5835 C 533.064 2.26105 0.54582 0
M  V30 5836 C 534.058 1.27816 1.11173 0
M  V30 5837 O 535.264 1.45565 1.05882 0
M  V30 5838 H 531.639 0.726363 0.194683 0
M  V30 5839 H 533.61 2.98282 -0.083931 0
M  V30 5840 C 532.359 3.03814 1.69092 0
M  V30 5841 H 531.682 3.79269 1.26473 0
M  V30 5842 H 533.122 3.57453 2.28043 0
M  V30 5843 C 531.581 2.12606 2.61343 0
M  V30 5844 O 532.111 1.71437 3.6328 0
M  V30 5845 N 530.317 1.77925 2.29763 0
M  V30 5846 H 529.864 2.11602 1.46909 0
M  V30 5847 H 529.822 1.1718 2.91747 0
M  V30 5848 N 533.594 0.0601682 1.57485 0
M  V30 5849 C 534.526 -0.94047 2.09016 0
M  V30 5850 C 535.539 -1.26897 1.01985 0
M  V30 5851 O 536.728 -1.22819 1.29529 0
M  V30 5852 C 533.828 -2.25955 2.52582 0
M  V30 5853 C 533.001 -2.11163 3.83052 0
M  V30 5854 C 532.06 -3.26273 4.12835 0
M  V30 5855 O 531.086 -3.01779 4.82616 0
M  V30 5856 N 532.288 -4.51022 3.65458 0
M  V30 5857 H 535.053 -0.500578 2.9549 0
M  V30 5858 H 532.614 -0.125852 1.6141 0
M  V30 5859 H 534.606 -3.01846 2.69575 0
M  V30 5860 H 533.176 -2.61481 1.71308 0
M  V30 5861 H 532.396 -1.19808 3.75552 0
M  V30 5862 H 533.684 -1.98517 4.68475 0
M  V30 5863 H 533.082 -4.73811 3.09062 0
M  V30 5864 H 531.639 -5.23978 3.87673 0
M  V30 5865 N 535.072 -1.5615 -0.213296 0
M  V30 5866 C 536.035 -1.92249 -1.24792 0
M  V30 5867 C 537.035 -0.801828 -1.39382 0
M  V30 5868 O 538.225 -1.06948 -1.37506 0
M  V30 5869 C 535.357 -2.18056 -2.62039 0
M  V30 5870 H 536.55 -2.84793 -0.939845 0
M  V30 5871 H 534.103 -1.49559 -0.454062 0
M  V30 5872 H 534.838 -1.2809 -2.97932 0
M  V30 5873 H 534.623 -2.99703 -2.52825 0
M  V30 5874 H 536.113 -2.47051 -3.36683 0
M  V30 5875 N 536.55 0.480323 -1.50102 0
M  V30 5876 C 537.48 1.58769 -1.71215 0
M  V30 5877 C 538.461 1.60583 -0.560997 0
M  V30 5878 O 539.646 1.76996 -0.799127 0
M  V30 5879 C 536.776 2.97148 -1.79778 0
M  V30 5880 C 535.73 3.10201 -2.94888 0
M  V30 5881 C 535.056 4.50137 -2.88584 0
M  V30 5882 C 536.356 2.88283 -4.35534 0
M  V30 5883 H 538.05 1.41354 -2.6393 0
M  V30 5884 H 535.596 0.678591 -1.27008 0
M  V30 5885 H 537.549 3.74536 -1.93133 0
M  V30 5886 H 536.273 3.15699 -0.836772 0
M  V30 5887 H 534.932 2.35244 -2.81169 0
M  V30 5888 H 534.58 4.65593 -1.90349 0
M  V30 5889 H 534.28 4.59808 -3.65856 0
M  V30 5890 H 535.804 5.29558 -3.03976 0
M  V30 5891 H 537.218 3.55427 -4.49827 0
M  V30 5892 H 535.615 3.09408 -5.14186 0
M  V30 5893 H 536.685 1.84219 -4.48544 0
M  V30 5894 N 538.028 1.39524 0.732853 0
M  V30 5895 C 538.976 1.38563 1.86824 0
M  V30 5896 C 539.97 0.268467 1.67259 0
M  V30 5897 O 541.176 0.438613 1.74574 0
M  V30 5898 H 537.551 0.432737 0.615014 0
M  V30 5899 H 539.522 2.34328 1.84751 0
M  V30 5900 C 538.271 1.2481 3.24527 0
M  V30 5901 H 537.594 2.10044 3.40179 0
M  V30 5902 H 539.034 1.28194 4.04156 0
M  V30 5903 C 537.493 -0.0432825 3.36872 0
M  V30 5904 O 538.023 -1.01268 3.88726 0
M  V30 5905 N 536.229 -0.107055 2.90403 0
M  V30 5906 H 535.776 0.682512 2.48394 0
M  V30 5907 H 535.734 -0.970618 2.99042 0
M  V30 5908 N 539.506 -0.963266 1.24736 0
M  V30 5909 C 540.731 -1.74699 1.11781 0
M  V30 5910 C 541.156 -1.85267 -0.325258 0
M  V30 5911 O 540.514 -1.32681 -1.23553 0
M  V30 5912 C 540.562 -3.14322 1.76731 0
M  V30 5913 O 539.666 -3.99043 1.04109 0
M  V30 5914 H 539.007 -0.53684 0.390767 0
M  V30 5915 H 541.537 -1.20801 1.65131 0
M  V30 5916 H 541.547 -3.64824 1.82668 0
M  V30 5917 H 540.222 -3.05946 2.81726 0
M  V30 5918 H 538.799 -3.5752 1.05991 0
M  V30 5919 N 540.985 -1.06182 -1.16461 0
M  V30 5920 C 542.213 -0.798583 -1.90867 0
M  V30 5921 C 542.628 0.646921 -1.77371 0
M  V30 5922 O 541.985 1.44279 -1.11758 0
M  V30 5923 C 542.036 -1.18258 -3.4161 0
M  V30 5924 O 541.757 -2.57135 -3.54701 0
M  V30 5925 C 543.258 -0.946917 -4.33069 0
M  V30 5926 H 540.478 -0.289603 -0.605286 0
M  V30 5927 H 543.022 -1.41515 -1.47627 0
M  V30 5928 H 541.177 -0.610562 -3.82558 0
M  V30 5929 H 541.591 -2.72477 -4.4817 0
M  V30 5930 H 543.065 -1.26523 -5.37304 0
M  V30 5931 H 543.542 0.117406 -4.39043 0
M  V30 5932 H 544.148 -1.50326 -3.97847 0
M  V30 5933 N 542.463 1.3308 -0.844243 0
M  V30 5934 C 543.411 2.31028 -0.269954 0
M  V30 5935 C 544.405 1.58381 0.600997 0
M  V30 5936 O 545.611 1.73203 0.48996 0
M  V30 5937 H 541.986 0.748866 -0.0685782 0
M  V30 5938 H 543.957 2.76967 -1.11049 0
M  V30 5939 C 542.706 3.43549 0.535676 0
M  V30 5940 H 542.029 3.99604 -0.125202 0
M  V30 5941 H 543.469 4.14267 0.903262 0
M  V30 5942 C 541.928 2.8988 1.71672 0
M  V30 5943 O 542.458 2.86511 2.81557 0
M  V30 5944 N 540.664 2.46416 1.54037 0
M  V30 5945 H 540.211 2.49356 0.64649 0
M  V30 5946 H 540.169 2.1086 2.33207 0
M  V30 5947 N 543.941 0.601185 1.45683 0
M  V30 5948 C 545.189 0.0936957 2.01883 0
M  V30 5949 C 545.51 -1.2779 1.47291 0
M  V30 5950 O 544.78 -1.84279 0.664691 0
M  V30 5951 H 543.36 0.0316466 0.746329 0
M  V30 5952 H 546.022 0.781137 1.78562 0
M  V30 5953 H 545.118 0.0386297 3.12076 0
M  V30 5954 N 545.419 -1.53889 0.339982 0
M  V30 5955 C 546.329 -2.28604 -0.526988 0
M  V30 5956 C 547.345 -1.33578 -1.11503 0
M  V30 5957 O 548.521 -1.66612 -1.13148 0
M  V30 5958 C 545.586 -3.04164 -1.66389 0
M  V30 5959 C 544.647 -4.14809 -1.10599 0
M  V30 5960 C 543.88 -4.86756 -2.18871 0
M  V30 5961 O 544.103 -4.58343 -3.39526 0
M  V30 5962 O 543.037 -5.73289 -1.83366 0
M  V30 5963 H 546.863 -3.03594 0.0802707 0
M  V30 5964 H 544.448 -1.4903 0.105141 0
M  V30 5965 H 546.33 -3.51427 -2.32544 0
M  V30 5966 H 545.005 -2.32035 -2.25703 0
M  V30 5967 H 543.912 -3.71857 -0.409067 0
M  V30 5968 H 545.245 -4.89029 -0.557771 0
M  V30 5969 N 546.897 -0.0685191 -1.57451 0
M  V30 5970 C 547.827 0.89747 -2.15564 0
M  V30 5971 C 548.808 1.31266 -1.08181 0
M  V30 5972 O 549.993 1.38429 -1.36202 0
M  V30 5973 C 547.123 2.16623 -2.71463 0
M  V30 5974 C 546.077 1.89054 -3.83982 0
M  V30 5975 C 545.403 3.22532 -4.26471 0
M  V30 5976 C 546.703 1.1984 -5.08366 0
M  V30 5977 H 548.397 0.413373 -2.96533 0
M  V30 5978 H 545.943 0.197391 -1.42641 0
M  V30 5979 H 547.896 2.84614 -3.10761 0
M  V30 5980 H 546.62 2.67269 -1.8771 0
M  V30 5981 H 545.279 1.23469 -3.45183 0
M  V30 5982 H 544.927 3.71013 -3.39644 0
M  V30 5983 H 544.627 3.04879 -5.02317 0
M  V30 5984 H 546.151 3.91727 -4.68383 0
M  V30 5985 H 547.565 1.77896 -5.45001 0
M  V30 5986 H 545.962 1.12456 -5.89469 0
M  V30 5987 H 547.032 0.176996 -4.84577 0
M  V30 5988 N 548.375 1.56261 0.205012 0
M  V30 5989 C 549.323 1.94631 1.27364 0
M  V30 5990 C 550.317 0.830434 1.47649 0
M  V30 5991 O 551.523 1.01538 1.48627 0
M  V30 5992 H 547.898 0.618755 0.427371 0
M  V30 5993 H 549.869 2.83768 0.922941 0
M  V30 5994 C 548.618 2.29358 2.61324 0
M  V30 5995 H 547.941 3.14744 2.46528 0
M  V30 5996 H 549.381 2.60076 3.34868 0
M  V30 5997 C 547.84 1.12461 3.17575 0
M  V30 5998 O 548.37 0.394407 3.99759 0
M  V30 5999 N 546.576 0.904036 2.7618 0
M  V30 6000 H 546.123 1.49956 2.09454 0
M  V30 6001 H 546.081 0.123662 3.14157 0
M  V30 6002 N 549.853 -0.472356 1.50355 0
M  V30 6003 C 550.816 -1.5529 1.68576 0
M  V30 6004 C 551.816 -1.50863 0.556511 0
M  V30 6005 O 553.006 -1.53505 0.823516 0
M  V30 6006 C 550.138 -2.94921 1.70981 0
M  V30 6007 H 551.331 -1.40451 2.64978 0
M  V30 6008 H 548.884 -0.698645 1.39816 0
M  V30 6009 H 549.619 -3.15204 0.762675 0
M  V30 6010 H 549.404 -2.99541 2.53017 0
M  V30 6011 H 550.894 -3.73372 1.87037 0
M  V30 6012 N 551.331 -1.39911 -0.725443 0
M  V30 6013 C 552.608 -1.28158 -1.47766 0
M  V30 6014 C 552.988 0.104545 -2.10841 0
M  V30 6015 O 552.336 1.11657 -1.99361 0
M  V30 6016 C 552.546 -2.41306 -2.52135 0
M  V30 6017 C 553.894 -2.81076 -3.18247 0
M  V30 6018 O 554.918 -2.40827 -2.62452 0
M  V30 6019 O 553.777 -3.50581 -4.19231 0
M  V30 6020 H 550.871 -0.502761 -0.656628 0
M  V30 6021 H 553.417 -1.51808 -0.758456 0
M  V30 6022 H 552.189 -3.33932 -2.03974 0
M  V30 6023 H 551.812 -2.19374 -3.31603 0
M  V30 6024 N 552.809 0.956637 -1.25245 0
M  V30 6025 C 554.086 1.67716 -1.00651 0
M  V30 6026 C 554.466 2.0585 0.467866 0
M  V30 6027 O 553.814 1.77029 1.44475 0
M  V30 6028 C 554.024 2.90093 -1.94028 0
M  V30 6029 C 555.372 3.6209 -2.21756 0
M  V30 6030 O 556.396 3.00171 -1.9177 0
M  V30 6031 O 555.255 4.7358 -2.72735 0
M  V30 6032 H 552.349 0.733731 -0.381533 0
M  V30 6033 H 554.895 1.00974 -1.3639 0
M  V30 6034 H 553.667 2.58689 -2.93591 0
M  V30 6035 H 553.29 3.64566 -1.58674 0
M  V30 6036 N 554.287 1.06798 1.15896 0
M  V30 6037 C 555.698 0.811355 1.68149 0
M  V30 6038 C 556.049 -0.664339 1.8461 0
M  V30 6039 O 555.174 -1.51485 1.54535 0
M  V30 6040 C 555.769 1.46624 3.05429 0
M  V30 6041 C 554.328 1.25726 3.54781 0
M  V30 6042 C 553.475 1.53949 2.3064 0
M  V30 6043 H 556.426 1.23078 1.00187 0
M  V30 6044 H 556.447 0.88437 3.7008 0
M  V30 6045 H 555.959 2.54025 2.93416 0
M  V30 6046 H 554.06 0.20322 3.72045 0
M  V30 6047 H 554.173 1.97354 4.36564 0
M  V30 6048 H 552.537 0.96025 2.35905 0
M  V30 6049 H 553.32 2.6252 2.2122 0
M  V30 6050 N 555.766 -1.3263 0.851289 0
M  V30 6051 C 556.994 -2.01563 0.466899 0
M  V30 6052 C 557.409 -1.63996 -0.935447 0
M  V30 6053 O 556.766 -0.85957 -1.6099 0
M  V30 6054 C 556.817 -3.56613 0.592433 0
M  V30 6055 O 556.538 -3.92828 1.93954 0
M  V30 6056 C 558.039 -4.42818 0.206612 0
M  V30 6057 H 555.259 -0.645307 0.183902 0
M  V30 6058 H 557.803 -1.69285 1.1473 0
M  V30 6059 H 555.958 -3.87379 -0.0401936 0
M  V30 6060 H 556.372 -4.87545 1.9339 0
M  V30 6061 H 557.846 -5.50918 0.345462 0
M  V30 6062 H 558.323 -4.30844 -0.85264 0
M  V30 6063 H 558.929 -4.17434 0.814176 0
M  V30 6064 N 557.244 -0.608902 -1.45362 0
M  V30 6065 C 558.207 0.0992563 -2.28985 0
M  V30 6066 C 559.207 0.793841 -1.39838 0
M  V30 6067 O 560.397 0.641804 -1.61946 0
M  V30 6068 C 557.529 1.15073 -3.20891 0
M  V30 6069 H 558.722 -0.635964 -2.93079 0
M  V30 6070 H 556.275 -0.368007 -1.51906 0
M  V30 6071 H 557.01 1.91667 -2.616 0
M  V30 6072 H 556.795 0.656867 -3.86559 0
M  V30 6073 H 558.285 1.64665 -3.83765 0
M  V30 6074 N 558.722 1.53707 -0.348139 0
M  V30 6075 C 559.97 2.00591 0.246478 0
M  V30 6076 C 560.291 1.23753 1.50699 0
M  V30 6077 O 559.561 0.345964 1.92821 0
M  V30 6078 H 558.141 0.741053 0.0940679 0
M  V30 6079 H 560.803 1.89139 -0.470354 0
M  V30 6080 H 559.899 3.08297 0.485714 0
M  V30 6081 N 560.2 0.0768682 1.57412 0
M  V30 6082 C 561.15 -0.898795 2.09537 0
M  V30 6083 C 562.134 -1.25556 1.0062 0
M  V30 6084 O 563.326 -1.23369 1.26921 0
M  V30 6085 C 560.455 -2.16453 2.66464 0
M  V30 6086 C 559.541 -1.83401 3.82393 0
M  V30 6087 N 559.932 -1.20823 4.91157 0
M  V30 6088 C 558.23 -2.13121 3.91785 0
M  V30 6089 C 558.931 -1.05976 5.71965 0
M  V30 6090 N 557.907 -1.57113 5.204 0
M  V30 6091 H 561.709 -0.410718 2.91016 0
M  V30 6092 H 559.223 -0.126878 1.61904 0
M  V30 6093 H 561.22 -2.87274 3.02125 0
M  V30 6094 H 559.88 -2.65844 1.86433 0
M  V30 6095 H 560.891 -0.877249 5.10416 0
M  V30 6096 H 557.568 -2.64854 3.22736 0
M  V30 6097 H 558.958 -0.571809 6.69462 0
M  V30 6098 N 561.678 -1.56367 -0.196722 0
M  V30 6099 C 562.903 -1.84991 -0.937714 0
M  V30 6100 C 563.328 -0.660244 -1.76132 0
M  V30 6101 O 562.686 0.390967 -1.77034 0
M  V30 6102 C 562.734 -3.11828 -1.81096 0
M  V30 6103 O 561.838 -2.92266 -2.90955 0
M  V30 6104 H 561.179 -0.609193 -0.264159 0
M  V30 6105 H 563.709 -2.03595 -0.202529 0
M  V30 6106 H 563.719 -3.42579 -2.21594 0
M  V30 6107 H 562.394 -3.98037 -1.2058 0
M  V30 6108 H 560.971 -2.72809 -2.54224 0
M  V30 6109 N 563.156 0.464375 -1.50603 0
M  V30 6110 C 564.104 1.58224 -1.70493 0
M  V30 6111 C 565.098 1.59492 -0.570836 0
M  V30 6112 O 566.304 1.63561 -0.751517 0
M  V30 6113 H 562.679 0.525161 -0.538247 0
M  V30 6114 H 564.65 1.38613 -2.64252 0
M  V30 6115 C 563.399 2.96113 -1.82243 0
M  V30 6116 H 562.722 2.95858 -2.68901 0
M  V30 6117 H 564.162 3.73769 -2.00182 0
M  V30 6118 C 562.621 3.31946 -0.575628 0
M  V30 6119 O 563.151 4.00708 0.282152 0
M  V30 6120 N 561.357 2.87436 -0.427665 0
M  V30 6121 H 560.904 2.31652 -1.12674 0
M  V30 6122 H 560.862 3.11776 0.405379 0
M  V30 6123 N 564.634 1.40294 0.718013 0
M  V30 6124 C 565.597 1.4012 1.81381 0
M  V30 6125 C 566.597 0.295405 1.58063 0
M  V30 6126 O 567.787 0.554187 1.6515 0
M  V30 6127 C 564.919 1.19056 3.19435 0
M  V30 6128 H 566.112 2.37645 1.82933 0
M  V30 6129 H 563.665 1.26107 0.923405 0
M  V30 6130 H 564.4 0.222809 3.23534 0
M  V30 6131 H 564.185 1.99152 3.37758 0
M  V30 6132 H 565.675 1.21716 3.99468 0
M  V30 6133 N 566.112 -0.949982 1.2575 0
M  V30 6134 C 567.523 -1.50989 1.09815 0
M  V30 6135 C 567.874 -1.93497 -0.324556 0
M  V30 6136 O 566.999 -1.79068 -1.21506 0
M  V30 6137 C 567.594 -2.74394 1.98729 0
M  V30 6138 C 566.153 -3.26682 1.86965 0
M  V30 6139 C 565.3 -1.99498 1.92603 0
M  V30 6140 H 568.251 -0.766387 1.38968 0
M  V30 6141 H 568.272 -3.48383 1.53001 0
M  V30 6142 H 567.784 -2.43425 3.02268 0
M  V30 6143 H 565.885 -3.62461 0.863279 0
M  V30 6144 H 565.998 -3.94383 2.72027 0
M  V30 6145 H 564.362 -2.15005 1.36546 0
M  V30 6146 H 565.145 -1.70871 2.97755 0
M  V30 6147 N 567.59 -1.07411 -1.15328 0
M  V30 6148 C 568.839 -0.792643 -1.85473 0
M  V30 6149 C 569.152 0.683789 -1.83259 0
M  V30 6150 O 570.358 1.08005 -2.49093 0
M  V30 6151 C 568.814 -1.36787 -3.32892 0
M  V30 6152 C 568.422 -2.87536 -3.43551 0
M  V30 6153 C 570.166 -1.16444 -4.08217 0
M  V30 6154 C 568.073 -3.38247 -4.85122 0
M  V30 6155 H 567.003 -0.292838 -0.694811 0
M  V30 6156 H 569.654 -1.29426 -1.30082 0
M  V30 6157 H 568.036 -0.793993 -3.87958 0
M  V30 6158 H 569.21 -3.50973 -2.98588 0
M  V30 6159 H 567.525 -3.06676 -2.81672 0
M  V30 6160 H 570.122 -1.51808 -5.12697 0
M  V30 6161 H 570.465 -0.10353 -4.16171 0
M  V30 6162 H 570.998 -1.70472 -3.59422 0
M  V30 6163 H 567.737 -4.43866 -4.82351 0
M  V30 6164 H 567.257 -2.79564 -5.30664 0
M  V30 6165 H 568.936 -3.34238 -5.5398 0
M  V30 6166 N 569.068 1.32177 -0.85831 0
M  V30 6167 C 570.296 2.01313 -0.477582 0
M  V30 6168 C 570.711 1.6449 0.926736 0
M  V30 6169 O 570.068 0.868096 1.60531 0
M  V30 6170 C 570.119 3.56293 -0.611337 0
M  V30 6171 O 569.84 3.91794 -1.96034 0
M  V30 6172 C 571.341 4.42702 -0.230093 0
M  V30 6173 H 568.561 0.644323 -0.187322 0
M  V30 6174 H 571.105 1.68674 -1.15626 0
M  V30 6175 H 569.26 3.87395 0.0196494 0
M  V30 6176 H 569.674 4.86513 -1.95973 0
M  V30 6177 H 571.148 5.50727 -0.374674 0
M  V30 6178 H 571.625 4.3129 0.829779 0
M  V30 6179 H 572.231 4.16997 -0.836302 0
M  V30 6180 N 570.547 0.616602 1.45037 0
M  V30 6181 C 571.51 -0.0871112 2.29034 0
M  V30 6182 C 572.51 -0.786414 1.40258 0
M  V30 6183 O 573.7 -0.633207 1.62284 0
M  V30 6184 C 570.832 -1.13369 3.21497 0
M  V30 6185 H 572.025 0.651497 2.92738 0
M  V30 6186 H 569.578 0.376058 1.51709 0
M  V30 6187 H 570.313 -1.90277 2.62612 0
M  V30 6188 H 570.098 -0.636358 3.86902 0
M  V30 6189 H 571.588 -1.62627 3.84633 0
M  V30 6190 N 572.025 -1.5352 0.356285 0
M  V30 6191 C 573.436 -1.86282 -0.12492 0
M  V30 6192 C 573.787 -1.27717 -1.48939 0
M  V30 6193 O 572.912 -0.595614 -2.08042 0
M  V30 6194 C 573.507 -3.37995 -0.23345 0
M  V30 6195 C 572.066 -3.70588 -0.658899 0
M  V30 6196 C 571.213 -2.76581 0.199596 0
M  V30 6197 H 574.164 -1.47901 0.575423 0
M  V30 6198 H 574.185 -3.65475 -1.0587 0
M  V30 6199 H 573.697 -3.8059 0.759776 0
M  V30 6200 H 571.798 -3.33544 -1.66069 0
M  V30 6201 H 571.911 -4.77076 -0.439957 0
M  V30 6202 H 570.275 -2.52552 -0.330076 0
M  V30 6203 H 571.058 -3.22008 1.19019 0
M  V30 6204 N 573.503 -0.0852151 -1.57369 0
M  V30 6205 C 574.466 0.8627 -2.12344 0
M  V30 6206 C 575.466 1.21746 -1.05046 0
M  V30 6207 O 576.656 1.14852 -1.30976 0
M  V30 6208 C 573.788 2.1618 -2.63589 0
M  V30 6209 H 574.981 0.385511 -2.97412 0
M  V30 6210 H 572.534 0.163663 -1.55441 0
M  V30 6211 H 573.269 2.68406 -1.82013 0
M  V30 6212 H 573.054 1.91723 -3.4203 0
M  V30 6213 H 574.544 2.84011 -3.06149 0
M  V30 6214 N 574.981 1.5647 0.188427 0
M  V30 6215 C 575.891 1.98285 1.2538 0
M  V30 6216 C 576.907 0.891535 1.49424 0
M  V30 6217 O 578.083 1.19782 1.61908 0
M  V30 6218 C 575.148 2.31965 2.57669 0
M  V30 6219 C 574.209 3.54838 2.41638 0
M  V30 6220 C 573.442 3.86901 3.67618 0
M  V30 6221 O 573.665 3.20163 4.72072 0
M  V30 6222 O 572.599 4.80309 3.62749 0
M  V30 6223 H 576.425 2.89145 0.928912 0
M  V30 6224 H 574.01 1.44112 0.393955 0
M  V30 6225 H 575.892 2.54673 3.35737 0
M  V30 6226 H 574.567 1.44271 2.89771 0
M  V30 6227 H 573.474 3.37369 1.61658 0
M  V30 6228 H 574.807 4.43019 2.14465 0
M  V30 6229 N 576.459 -0.456382 1.50847 0
M  V30 6230 C 577.705 -1.20914 1.62811 0
M  V30 6231 C 578.038 -1.91301 0.334304 0
M  V30 6232 O 577.313 -1.82775 -0.665098 0
M  V30 6233 C 577.596 -2.24122 2.81853 0
M  V30 6234 C 577.449 -1.57944 4.21158 0
M  V30 6235 C 578.768 -3.25295 2.96431 0
M  V30 6236 H 575.887 -0.438233 0.592554 0
M  V30 6237 H 578.529 -0.50091 1.83278 0
M  V30 6238 H 576.679 -2.84524 2.64534 0
M  V30 6239 H 578.351 -1.01025 4.50102 0
M  V30 6240 H 576.594 -0.882185 4.24735 0
M  V30 6241 H 577.265 -2.33014 5.00408 0
M  V30 6242 H 579.741 -2.7493 3.12335 0
M  V30 6243 H 578.617 -3.94822 3.81322 0
M  V30 6244 H 578.878 -3.90286 2.07676 0
M  V30 6245 N 577.937 -1.40673 -0.710563 0
M  V30 6246 C 578.847 -1.43663 -1.85467 0
M  V30 6247 C 579.863 -0.328721 -1.70867 0
M  V30 6248 O 581.039 -0.574098 -1.93044 0
M  V30 6249 C 578.104 -1.30226 -3.21313 0
M  V30 6250 C 577.165 -2.51204 -3.48131 0
M  V30 6251 C 576.398 -2.38398 -4.77495 0
M  V30 6252 O 576.621 -1.40048 -5.5294 0
M  V30 6253 O 575.555 -3.2787 -5.04762 0
M  V30 6254 H 579.381 -2.40156 -1.859 0
M  V30 6255 H 576.966 -1.22049 -0.861652 0
M  V30 6256 H 578.848 -1.2496 -4.02446 0
M  V30 6257 H 577.523 -0.368419 -3.21597 0
M  V30 6258 H 576.43 -2.62048 -2.66987 0
M  V30 6259 H 577.763 -3.43366 -3.52648 0
M  V30 6260 N 579.415 0.9433 -1.26252 0
M  V30 6261 C 580.661 1.69175 -1.11837 0
M  V30 6262 C 580.994 1.91238 0.337891 0
M  V30 6263 O 580.269 1.49152 1.24836 0
M  V30 6264 C 580.552 3.06783 -1.88563 0
M  V30 6265 C 580.405 2.9206 -3.42083 0
M  V30 6266 C 581.724 4.06865 -1.67776 0
M  V30 6267 H 578.843 0.61399 -0.407658 0
M  V30 6268 H 581.485 1.09572 -1.55222 0
M  V30 6269 H 579.635 3.57663 -1.51689 0
M  V30 6270 H 581.307 2.48419 -3.88698 0
M  V30 6271 H 579.55 2.27731 -3.69217 0
M  V30 6272 H 580.221 3.89651 -3.90994 0
M  V30 6273 H 582.697 3.64939 -1.99897 0
M  V30 6274 H 581.573 5.01168 -2.23879 0
M  V30 6275 H 581.834 4.37705 -0.621816 0
M  V30 6276 N 580.893 1.08022 1.14757 0
M  V30 6277 C 581.856 0.71048 2.1791 0
M  V30 6278 C 582.856 -0.252731 1.58801 0
M  V30 6279 O 584.046 -0.0327915 1.74169 0
M  V30 6280 C 581.178 0.0483203 3.40866 0
M  V30 6281 H 582.371 1.62384 2.52134 0
M  V30 6282 H 579.924 0.877595 1.29337 0
M  V30 6283 H 580.659 -0.876959 3.12218 0
M  V30 6284 H 580.444 0.741189 3.85031 0
M  V30 6285 H 581.934 -0.195471 4.17142 0
M  V30 6286 N 582.371 -1.3172 0.865308 0
M  V30 6287 C 583.648 -1.91574 0.394789 0
M  V30 6288 C 584.028 -1.78769 -1.12271 0
M  V30 6289 O 583.376 -1.19245 -1.94918 0
M  V30 6290 C 583.586 -3.37957 0.870982 0
M  V30 6291 C 584.934 -4.15073 0.894384 0
M  V30 6292 O 585.958 -3.4672 0.816325 0
M  V30 6293 O 584.817 -5.37151 1.00651 0
M  V30 6294 H 581.911 -0.818649 0.117229 0
M  V30 6295 H 584.457 -1.4042 0.952913 0
M  V30 6296 H 583.229 -3.41269 1.91444 0
M  V30 6297 H 582.852 -3.96534 0.290907 0
M  V30 6298 N 583.85 -0.624285 -1.44708 0
M  V30 6299 C 584.76 0.0861083 -2.34442 0
M  V30 6300 C 585.776 0.84291 -1.5222 0
M  V30 6301 O 586.952 0.796723 -1.84971 0
M  V30 6302 C 584.017 1.05999 -3.30099 0
M  V30 6303 C 583.077 0.303316 -4.28227 0
M  V30 6304 C 582.311 1.23081 -5.19314 0
M  V30 6305 O 582.534 2.46929 -5.14181 0
M  V30 6306 O 581.468 0.71883 -5.97592 0
M  V30 6307 H 585.293 -0.651756 -2.96624 0
M  V30 6308 H 582.879 -0.384493 -1.44368 0
M  V30 6309 H 584.76 1.62046 -3.88997 0
M  V30 6310 H 583.436 1.77859 -2.70459 0
M  V30 6311 H 582.343 -0.300033 -3.72895 0
M  V30 6312 H 583.676 -0.375123 -4.90768 0
M  V30 6313 N 585.328 1.53329 -0.364422 0
M  V30 6314 C 586.556 2.05657 0.226424 0
M  V30 6315 C 586.971 1.23801 1.42544 0
M  V30 6316 O 586.328 0.27839 1.80364 0
M  V30 6317 C 586.379 3.56125 0.621056 0
M  V30 6318 O 586.1 4.34879 -0.530304 0
M  V30 6319 C 587.601 4.24706 1.27041 0
M  V30 6320 H 584.821 0.669806 0.0400056 0
M  V30 6321 H 587.365 1.97714 -0.522456 0
M  V30 6322 H 585.52 3.64223 1.31985 0
M  V30 6323 H 585.934 5.24073 -0.211546 0
M  V30 6324 H 587.408 5.3131 1.49711 0
M  V30 6325 H 587.885 3.78354 2.23036 0
M  V30 6326 H 588.491 4.20858 0.613079 0
M  V30 6327 N 586.806 0.0935595 1.57322 0
M  V30 6328 C 587.753 -0.865935 2.1394 0
M  V30 6329 C 588.723 -1.28083 1.05754 0
M  V30 6330 O 589.908 -1.36285 1.33533 0
M  V30 6331 C 587.048 -2.12023 2.72287 0
M  V30 6332 C 586.161 -1.756 3.94701 0
M  V30 6333 C 585.296 -2.95804 4.41218 0
M  V30 6334 C 584.335 -2.555 5.56225 0
M  V30 6335 N 583.472 -3.68534 5.97601 0
M  V30 6336 H 588.312 -0.376261 2.95615 0
M  V30 6337 H 585.849 -0.174052 1.46067 0
M  V30 6338 H 587.807 -2.85477 3.04235 0
M  V30 6339 H 586.437 -2.58492 1.93343 0
M  V30 6340 H 585.489 -0.921208 3.69077 0
M  V30 6341 H 586.801 -1.41964 4.78171 0
M  V30 6342 H 585.955 -3.77513 4.74941 0
M  V30 6343 H 584.694 -3.32649 3.56645 0
M  V30 6344 H 583.699 -1.72218 5.22131 0
M  V30 6345 H 584.924 -2.19801 6.42545 0
M  V30 6346 H 582.87 -4.051 5.15974 0
M  V30 6347 H 582.787 -3.38737 6.75865 0
M  V30 6348 H 584.055 -4.50757 6.35955 0
M  V30 6349 N 588.284 -1.56567 -0.180126 0
M  V30 6350 C 589.524 -1.83285 -0.904761 0
M  V30 6351 C 589.888 -0.673226 -1.7981 0
M  V30 6352 O 591.089 -0.820645 -2.55967 0
M  V30 6353 C 589.36 -3.15086 -1.68688 0
M  V30 6354 S 590.919 -3.63258 -2.46149 0
M  V30 6355 H 587.737 -0.643114 -0.303193 0
M  V30 6356 H 590.339 -1.94785 -0.167034 0
M  V30 6357 H 589.043 -3.97484 -1.02148 0
M  V30 6358 H 588.574 -3.06504 -2.46615 0
M  V30 6359 H 590.589 -3.29884 -3.70663 0
M  V30 6360 N 589.762 0.448376 -1.51087 0
M  V30 6361 C 591.002 1.20832 -1.64861 0
M  V30 6362 C 591.366 1.88748 -0.351873 0
M  V30 6363 O 592.567 2.66307 -0.365265 0
M  V30 6364 C 590.838 2.20674 -2.81137 0
M  V30 6365 S 592.397 3.05303 -3.15176 0
M  V30 6366 H 589.215 0.40992 -0.580936 0
M  V30 6367 H 591.817 0.501624 -1.88955 0
M  V30 6368 H 590.521 1.69399 -3.73808 0
M  V30 6369 H 590.052 2.9594 -2.59198 0
M  V30 6370 H 592.067 4.22162 -2.60756 0
M  V30 6371 N 591.24 1.41047 0.703093 0
M  V30 6372 C 592.48 1.41461 1.4754 0
M  V30 6373 C 592.844 0.0199013 1.9199 0
M  V30 6374 O 594.045 -0.101138 2.6861 0
M  V30 6375 C 592.316 2.38703 2.66 0
M  V30 6376 S 593.875 2.57582 3.55242 0
M  V30 6377 H 590.693 0.501226 0.504275 0
M  V30 6378 H 593.295 1.77422 0.821074 0
M  V30 6379 H 591.999 3.3885 2.31536 0
M  V30 6380 H 591.53 2.04069 3.36333 0
M  V30 6381 H 593.545 1.83758 4.6092 0
M  V30 6382 N 592.718 -0.936591 1.26751 0
M  V30 6383 C 593.965 -1.68331 1.12566 0
M  V30 6384 C 594.293 -1.91677 -0.330168 0
M  V30 6385 O 593.548 -1.49859 -1.2586 0
M  V30 6386 C 593.847 -3.06099 1.84494 0
M  V30 6387 C 593.513 -3.02493 3.34378 0
M  V30 6388 C 592.175 -3.01217 3.75262 0
M  V30 6389 C 594.527 -2.94453 4.30055 0
M  V30 6390 C 591.855 -2.89672 5.10203 0
M  V30 6391 C 594.207 -2.84449 5.65041 0
M  V30 6392 C 592.871 -2.81518 6.0523 0
M  V30 6393 H 592.141 -0.615965 0.411907 0
M  V30 6394 H 594.788 -1.09292 1.5725 0
M  V30 6395 H 593.093 -3.6879 1.32292 0
M  V30 6396 H 594.79 -3.62733 1.70955 0
M  V30 6397 H 591.38 -3.04269 3.01858 0
M  V30 6398 H 595.564 -2.94544 3.99447 0
M  V30 6399 H 590.82 -2.85783 5.40498 0
M  V30 6400 H 594.994 -2.77192 6.38856 0
M  V30 6401 H 592.621 -2.72329 7.09747 0
M  V30 6402 N 594.196 -1.08629 -1.14182 0
M  V30 6403 C 595.443 -0.817345 -1.85272 0
M  V30 6404 C 595.771 0.656917 -1.83071 0
M  V30 6405 O 595.026 1.49897 -1.25815 0
M  V30 6406 C 595.325 -1.28734 -3.3341 0
M  V30 6407 C 594.991 -2.76981 -3.55798 0
M  V30 6408 C 593.653 -3.17469 -3.61617 0
M  V30 6409 C 596.005 -3.72605 -3.64438 0
M  V30 6410 C 593.333 -4.52371 -3.736 0
M  V30 6411 C 595.685 -5.07286 -3.77947 0
M  V30 6412 C 594.349 -5.47376 -3.82016 0
M  V30 6413 H 593.619 -0.299088 -0.677958 0
M  V30 6414 H 596.266 -1.35962 -1.34857 0
M  V30 6415 H 594.571 -0.664702 -3.8612 0
M  V30 6416 H 596.268 -1.05598 -3.86846 0
M  V30 6417 H 592.858 -2.44644 -3.51919 0
M  V30 6418 H 597.042 -3.42443 -3.5923 0
M  V30 6419 H 592.298 -4.82882 -3.75013 0
M  V30 6420 H 596.472 -5.81243 -3.83575 0
M  V30 6421 H 594.099 -6.51906 -3.91054 0
M  V30 6422 N 595.674 1.31259 -0.872281 0
M  V30 6423 C 596.621 2.28459 -0.327857 0
M  V30 6424 C 597.591 1.55831 0.574957 0
M  V30 6425 O 598.776 1.83965 0.506101 0
M  V30 6426 C 595.916 3.41985 0.462644 0
M  V30 6427 C 595.029 4.29458 -0.467949 0
M  V30 6428 C 594.164 5.30131 0.336903 0
M  V30 6429 C 593.203 6.0925 -0.58997 0
M  V30 6430 N 592.34 7.01872 0.178775 0
M  V30 6431 H 597.18 2.74414 -1.16193 0
M  V30 6432 H 594.717 1.34994 -0.584376 0
M  V30 6433 H 596.675 4.06547 0.936759 0
M  V30 6434 H 595.305 2.97134 1.2614 0
M  V30 6435 H 594.357 3.65318 -1.06052 0
M  V30 6436 H 595.669 4.84677 -1.17856 0
M  V30 6437 H 594.823 6.0038 0.873427 0
M  V30 6438 H 593.562 4.75573 1.08079 0
M  V30 6439 H 592.567 5.37889 -1.13823 0
M  V30 6440 H 593.792 6.65894 -1.33275 0
M  V30 6441 H 591.738 6.49721 0.905435 0
M  V30 6442 H 591.655 7.54522 -0.472452 0
M  V30 6443 H 592.923 7.76382 0.696454 0
M  V30 6444 N 597.152 0.631951 1.44375 0
M  V30 6445 C 598.568 0.297642 1.568 0
M  V30 6446 C 598.768 -1.19916 1.61934 0
M  V30 6447 O 597.824 -1.98324 1.56281 0
M  V30 6448 C 599.137 0.990286 2.83926 0
M  V30 6449 C 600.685 0.968507 2.97639 0
M  V30 6450 C 601.16 1.64163 4.27568 0
M  V30 6451 N 602.651 1.60826 4.34384 0
M  V30 6452 C 603.386 2.09802 5.33639 0
M  V30 6453 N 602.882 2.66973 6.39294 0
M  V30 6454 N 604.675 2.00426 5.25153 0
M  V30 6455 H 596.826 1.60353 1.39286 0
M  V30 6456 H 599.089 0.673142 0.667521 0
M  V30 6457 H 598.795 2.04519 2.8612 0
M  V30 6458 H 598.669 0.528563 3.73478 0
M  V30 6459 H 601.056 -0.0779247 2.94997 0
M  V30 6460 H 601.137 1.46873 2.09433 0
M  V30 6461 H 600.781 2.68752 4.3097 0
M  V30 6462 H 600.711 1.11624 5.14634 0
M  V30 6463 H 603.202 1.19087 3.58646 0
M  V30 6464 H 603.515 3.02074 7.11316 0
M  V30 6465 H 601.86 2.71024 6.39977 0
M  V30 6466 H 605.051 1.55483 4.41523 0
M  V30 6467 H 605.224 2.38906 6.02352 0
M  V30 6468 N 598.631 -1.53133 0.372548 0
M  V30 6469 C 600.047 -1.59585 0.02178 0
M  V30 6470 C 600.247 -1.38736 -1.46132 0
M  V30 6471 O 599.303 -1.19599 -2.22379 0
M  V30 6472 C 600.616 -2.9678 0.483959 0
M  V30 6473 C 602.164 -3.09909 0.438775 0
M  V30 6474 C 602.639 -4.49527 0.876876 0
M  V30 6475 N 604.13 -4.55663 0.832214 0
M  V30 6476 C 604.865 -5.61896 1.14281 0
M  V30 6477 N 604.361 -6.75852 1.52303 0
M  V30 6478 N 606.154 -5.51916 1.06515 0
M  V30 6479 H 598.305 -1.64936 1.33827 0
M  V30 6480 H 600.568 -0.773947 0.547458 0
M  V30 6481 H 600.274 -3.17198 1.51915 0
M  V30 6482 H 600.148 -3.7699 -0.125784 0
M  V30 6483 H 602.535 -2.89197 -0.587294 0
M  V30 6484 H 602.616 -2.31691 1.0841 0
M  V30 6485 H 602.26 -4.70979 1.90109 0
M  V30 6486 H 602.19 -5.26186 0.208727 0
M  V30 6487 H 604.681 -3.73844 0.552195 0
M  V30 6488 H 604.994 -7.52862 1.7441 0
M  V30 6489 H 603.339 -6.77226 1.56175 0
M  V30 6490 H 606.53 -4.6177 0.767235 0
M  V30 6491 H 606.703 -6.34609 1.31053 0
M  V30 6492 N 600.109 -0.101901 -1.5727 0
M  V30 6493 C 601.056 0.854577 -2.14396 0
M  V30 6494 C 602.026 1.27521 -1.06432 0
M  V30 6495 O 603.211 1.35575 -1.34253 0
M  V30 6496 C 600.351 2.10576 -2.73408 0
M  V30 6497 C 599.464 1.73504 -3.95626 0
M  V30 6498 C 598.599 2.9346 -4.42781 0
M  V30 6499 C 597.638 2.52547 -5.57572 0
M  V30 6500 N 596.775 3.65359 -5.99547 0
M  V30 6501 H 601.615 0.360578 -2.9581 0
M  V30 6502 H 599.152 0.166303 -1.46157 0
M  V30 6503 H 601.11 2.83859 -3.05745 0
M  V30 6504 H 599.74 2.57463 -1.94711 0
M  V30 6505 H 598.792 0.901622 -3.6956 0
M  V30 6506 H 600.104 1.39426 -4.78917 0
M  V30 6507 H 599.258 3.74988 -4.76937 0
M  V30 6508 H 597.997 3.30753 -3.58404 0
M  V30 6509 H 597.002 1.69446 -5.23037 0
M  V30 6510 H 598.227 2.1639 -6.43702 0
M  V30 6511 H 596.173 4.02358 -5.18116 0
M  V30 6512 H 596.09 3.35148 -6.77652 0
M  V30 6513 H 597.358 4.47378 -6.38336 0
M  V30 6514 N 601.587 1.56661 0.17182 0
M  V30 6515 C 603.003 1.50768 0.52357 0
M  V30 6516 C 603.203 0.806072 1.84675 0
M  V30 6517 O 602.259 0.366233 2.4983 0
M  V30 6518 C 603.572 2.955 0.556793 0
M  V30 6519 C 605.12 3.06303 0.644029 0
M  V30 6520 C 605.595 4.52492 0.708148 0
M  V30 6521 N 607.086 4.56737 0.771051 0
M  V30 6522 C 607.821 5.67196 0.841229 0
M  V30 6523 N 607.317 6.87287 0.872272 0
M  V30 6524 N 609.11 5.55165 0.88021 0
M  V30 6525 H 601.261 2.00679 -0.695817 0
M  V30 6526 H 603.524 0.914219 -0.250814 0
M  V30 6527 H 603.23 3.49986 -0.346774 0
M  V30 6528 H 603.104 3.50119 1.40346 0
M  V30 6529 H 605.491 2.51851 1.53802 0
M  V30 6530 H 605.572 2.5477 -0.229297 0
M  V30 6531 H 605.216 5.07575 -0.181585 0
M  V30 6532 H 605.146 5.01781 1.59761 0
M  V30 6533 H 607.637 3.70274 0.755364 0
M  V30 6534 H 607.95 7.6722 0.92698 0
M  V30 6535 H 606.295 6.89898 0.840557 0
M  V30 6536 H 609.486 4.60263 0.852956 0
M  V30 6537 H 609.659 6.41271 0.931439 0
M  V30 6538 N 603.065 -0.440357 1.51323 0
M  V30 6539 C 604.012 -1.53429 1.72419 0
M  V30 6540 C 604.982 -1.56165 0.565826 0
M  V30 6541 O 606.167 -1.73222 0.799917 0
M  V30 6542 C 603.307 -2.91169 1.85242 0
M  V30 6543 C 602.42 -2.97985 3.12777 0
M  V30 6544 C 601.555 -4.26829 3.16212 0
M  V30 6545 C 600.594 -4.27501 4.38074 0
M  V30 6546 N 599.731 -5.47866 4.39076 0
M  V30 6547 H 604.571 -1.34743 2.65797 0
M  V30 6548 H 602.108 -0.654608 1.31732 0
M  V30 6549 H 604.066 -3.71087 1.90658 0
M  V30 6550 H 602.696 -3.0842 0.952744 0
M  V30 6551 H 601.748 -2.10749 3.16685 0
M  V30 6552 H 603.06 -2.94342 4.02696 0
M  V30 6553 H 602.214 -5.15118 3.20527 0
M  V30 6554 H 600.953 -4.33124 2.24176 0
M  V30 6555 H 599.958 -3.37606 4.33938 0
M  V30 6556 H 601.183 -4.22873 5.31371 0
M  V30 6557 H 599.129 -5.54887 3.49909 0
M  V30 6558 H 599.046 -5.46091 5.22801 0
M  V30 6559 H 600.314 -6.38195 4.4758 0
M  V30 6560 N 604.543 -1.41418 -0.695603 0
M  V30 6561 C 605.768 -1.44329 -1.48942 0
M  V30 6562 C 606.193 -0.0501579 -1.88033 0
M  V30 6563 O 605.551 0.946598 -1.54626 0
M  V30 6564 C 605.599 -2.3578 -2.72837 0
M  V30 6565 O 604.703 -1.81482 -3.70322 0
M  V30 6566 H 604.044 -0.489838 -0.44828 0
M  V30 6567 H 606.574 -1.85878 -0.855014 0
M  V30 6568 H 606.584 -2.51654 -3.21145 0
M  V30 6569 H 605.259 -3.37005 -2.43722 0
M  V30 6570 H 603.836 -1.75058 -3.29255 0
M  V30 6571 N 606.021 0.929856 -1.27246 0
M  V30 6572 C 606.951 2.04722 -1.12299 0
M  V30 6573 C 607.932 1.70082 -0.0250464 0
M  V30 6574 O 609.117 1.93176 -0.199141 0
M  V30 6575 C 606.247 3.38721 -0.767145 0
M  V30 6576 C 605.201 3.87466 -1.81808 0
M  V30 6577 C 604.527 5.18246 -1.31626 0
M  V30 6578 C 605.827 4.11095 -3.22177 0
M  V30 6579 H 607.521 2.17485 -2.05769 0
M  V30 6580 H 605.067 1.04503 -0.990715 0
M  V30 6581 H 607.02 4.16366 -0.649413 0
M  V30 6582 H 605.744 3.25967 0.203259 0
M  V30 6583 H 604.403 3.12012 -1.92468 0
M  V30 6584 H 604.051 5.01881 -0.335378 0
M  V30 6585 H 603.751 5.51829 -2.01887 0
M  V30 6586 H 605.275 5.98462 -1.21143 0
M  V30 6587 H 606.689 4.79316 -3.1453 0
M  V30 6588 H 605.086 4.55982 -3.90129 0
M  V30 6589 H 606.156 3.16468 -3.67391 0
M  V30 6590 N 607.499 1.09233 1.13605 0
M  V30 6591 C 608.431 0.687794 2.18637 0
M  V30 6592 C 609.444 -0.26936 1.60556 0
M  V30 6593 O 610.633 -0.0557162 1.78413 0
M  V30 6594 C 607.733 -0.00751901 3.38899 0
M  V30 6595 C 606.906 0.97067 4.26494 0
M  V30 6596 C 605.965 0.309129 5.25291 0
M  V30 6597 O 604.991 0.956149 5.61112 0
M  V30 6598 N 606.193 -0.937555 5.72879 0
M  V30 6599 H 608.958 1.59141 2.53957 0
M  V30 6600 H 606.519 0.979515 1.28907 0
M  V30 6601 H 608.511 -0.461238 4.02063 0
M  V30 6602 H 607.081 -0.813353 3.01833 0
M  V30 6603 H 606.301 1.603 3.60135 0
M  V30 6604 H 607.589 1.63323 4.81875 0
M  V30 6605 H 606.987 -1.48281 5.4592 0
M  V30 6606 H 605.544 -1.33463 6.3799 0
M  V30 6607 N 608.977 -1.30795 0.87923 0
M  V30 6608 C 610.393 -1.48981 0.57243 0
M  V30 6609 C 610.593 -1.80719 -0.891236 0
M  V30 6610 O 609.649 -1.89136 -1.67283 0
M  V30 6611 C 610.962 -2.61721 1.48063 0
M  V30 6612 C 612.51 -2.75603 1.48365 0
M  V30 6613 C 612.985 -3.91449 2.37763 0
M  V30 6614 N 614.476 -3.98751 2.35695 0
M  V30 6615 C 615.211 -4.87684 3.01583 0
M  V30 6616 N 614.707 -5.81454 3.76674 0
M  V30 6617 N 616.5 -4.81005 2.90844 0
M  V30 6618 H 608.651 -1.08465 1.82617 0
M  V30 6619 H 610.914 -0.536813 0.781368 0
M  V30 6620 H 610.62 -2.45073 2.52254 0
M  V30 6621 H 610.494 -3.58071 1.18596 0
M  V30 6622 H 612.881 -2.9166 0.44927 0
M  V30 6623 H 612.962 -1.79891 1.81859 0
M  V30 6624 H 612.606 -3.76149 3.41283 0
M  V30 6625 H 612.536 -4.86487 2.01589 0
M  V30 6626 H 615.027 -3.31668 1.81121 0
M  V30 6627 H 615.34 -6.46063 4.24054 0
M  V30 6628 H 613.685 -5.81403 3.80782 0
M  V30 6629 H 616.876 -4.06728 2.31711 0
M  V30 6630 H 617.049 -5.50107 3.42471 0
M  V30 6631 N 610.455 -0.639598 -1.44038 0
M  V30 6632 C 611.405 0.0823038 -2.27851 0
M  V30 6633 C 612.389 0.807991 -1.39141 0
M  V30 6634 O 613.581 0.692702 -1.62882 0
M  V30 6635 C 610.71 1.05742 -3.26609 0
M  V30 6636 C 609.796 0.330911 -4.22807 0
M  V30 6637 N 610.187 -0.645126 -5.01669 0
M  V30 6638 C 608.485 0.574214 -4.42288 0
M  V30 6639 C 609.186 -1.07513 -5.71678 0
M  V30 6640 N 608.162 -0.412164 -5.42035 0
M  V30 6641 H 611.964 -0.666861 -2.86234 0
M  V30 6642 H 609.478 -0.465777 -1.55577 0
M  V30 6643 H 611.475 1.58927 -3.85419 0
M  V30 6644 H 610.135 1.80679 -2.69787 0
M  V30 6645 H 611.146 -1.02329 -5.0769 0
M  V30 6646 H 607.823 1.30581 -3.96554 0
M  V30 6647 H 609.213 -1.88196 -6.45005 0
M  V30 6648 N 611.933 1.52934 -0.380664 0
M  V30 6649 C 612.88 2.26197 0.458641 0
M  V30 6650 C 613.85 1.27462 1.06502 0
M  V30 6651 O 615.035 1.56274 1.09467 0
M  V30 6652 C 612.175 3.06571 1.58456 0
M  V30 6653 C 611.288 4.20222 1.00189 0
M  V30 6654 C 610.423 4.88007 2.09815 0
M  V30 6655 C 609.462 5.93665 1.49092 0
M  V30 6656 N 608.599 6.55081 2.52613 0
M  V30 6657 H 613.439 2.975 -0.172595 0
M  V30 6658 H 610.976 1.4678 -0.0969426 0
M  V30 6659 H 612.934 3.51455 2.24801 0
M  V30 6660 H 611.564 2.37494 2.18624 0
M  V30 6661 H 610.616 3.79714 0.228292 0
M  V30 6662 H 611.928 4.96102 0.518064 0
M  V30 6663 H 611.082 5.36151 2.83948 0
M  V30 6664 H 609.821 4.11632 2.61555 0
M  V30 6665 H 608.826 5.44868 0.7348 0
M  V30 6666 H 610.051 6.71969 0.981582 0
M  V30 6667 H 607.997 5.8155 3.03538 0
M  V30 6668 H 607.914 7.26548 2.08961 0
M  V30 6669 H 609.182 7.07871 3.26402 0
M  V30 6670 O 613.45 0.250515 1.59545 0
M  V30 6671 H 614.141 -0.324371 1.90965 0
M  V30 END ATOM
M  V30 BEGIN BOND
M  V30 END BOND
M  V30 END CTAB
M  END
$$$$
