drugbank_target|Q9RZ04 Agmatinase, putative (DB03260)
 OpenBabel12092120273D

  0  0  0     0  0            999 V3000
M  V30 BEGIN CTAB
M  V30 COUNTS 4565 4620 0 0 0
M  V30 BEGIN ATOM
M  V30 1 H -0.908 1.98254 -0.117106 0
M  V30 2 N 0 1.576 0 0
M  V30 3 C 0.933 2.03868 1.02534 0
M  V30 4 C 1.911 0.928543 1.3348 0
M  V30 5 O 3.095 1.19667 1.45644 0
M  V30 6 C 0.222 2.43627 2.35294 0
M  V30 7 C -0.732 3.65373 2.2001 0
M  V30 8 S 0.101 5.13292 1.52614 0
M  V30 9 C 1.257 5.56322 2.86805 0
M  V30 10 H 1.49 2.90518 0.631377 0
M  V30 11 H -0.977 1.52953 0.210867 0
M  V30 12 H 0.981 2.67203 3.11629 0
M  V30 13 H -0.358 1.57376 2.7183 0
M  V30 14 H -1.165 3.90944 3.18086 0
M  V30 15 H -1.563 3.418 1.51819 0
M  V30 16 H 0.729 5.58782 3.83104 0
M  V30 17 H 1.672 6.56266 2.65933 0
M  V30 18 H 2.08 4.83886 2.90714 0
M  V30 19 N 1.4781 -0.272755 1.55222 0
M  V30 20 C 2.7031 -1.02683 1.80197 0
M  V30 21 C 3.1281 -1.79142 0.573551 0
M  V30 22 O 2.4861 -1.74917 -0.476849 0
M  V30 23 C 2.5341 -1.9609 3.02624 0
M  V30 24 O 1.6381 -3.04863 2.77727 0
M  V30 25 H 0.9791 -0.293557 0.595584 0
M  V30 26 H 3.5091 -0.30159 2.02365 0
M  V30 27 H 3.5191 -2.38039 3.31363 0
M  V30 28 H 2.1941 -1.39851 3.91682 0
M  V30 29 H 0.7711 -2.67228 2.60084 0
M  V30 30 N 2.9562 -1.48159 -0.537278 0
M  V30 31 C 4.2042 -1.55497 -1.29094 0
M  V30 32 C 4.5252 -0.227454 -1.93669 0
M  V30 33 O 3.7952 0.750386 -1.80959 0
M  V30 34 H 2.3752 -0.572832 -0.47945 0
M  V30 35 H 5.0372 -1.84579 -0.625818 0
M  V30 36 H 4.1332 -2.33216 -2.07405 0
M  V30 37 N 4.4343 0.785586 -1.36625 0
M  V30 38 C 5.8453 1.36101 -1.27803 0
M  V30 39 C 6.1963 1.96035 0.0804875 0
M  V30 40 O 5.3213 1.92834 0.982042 0
M  V30 41 C 5.9163 2.47442 -2.31426 0
M  V30 42 C 4.4753 3.00789 -2.26281 0
M  V30 43 C 3.6223 1.73896 -2.15999 0
M  V30 44 H 6.5733 0.586928 -1.47448 0
M  V30 45 H 6.5943 3.2656 -1.95291 0
M  V30 46 H 6.1063 2.03791 -3.30289 0
M  V30 47 H 4.2073 3.48851 -1.30896 0
M  V30 48 H 4.3203 3.57343 -3.19128 0
M  V30 49 H 2.6843 1.9628 -1.62316 0
M  V30 50 H 3.4673 1.32368 -3.16755 0
M  V30 51 N 5.9124 1.20967 1.01018 0
M  V30 52 C 6.8754 0.965918 2.07853 0
M  V30 53 C 7.8754 -0.0610545 1.60684 0
M  V30 54 O 9.0654 0.175681 1.73312 0
M  V30 55 C 6.1974 0.455513 3.37843 0
M  V30 56 H 7.3904 1.91365 2.3091 0
M  V30 57 H 4.9434 1.02594 1.17916 0
M  V30 58 H 5.6784 -0.497381 3.20463 0
M  V30 59 H 5.4634 1.19622 3.73407 0
M  V30 60 H 6.9534 0.304667 4.16487 0
M  V30 61 N 7.3905 -1.2043 1.01659 0
M  V30 62 C 8.3405 -2.21076 0.557623 0
M  V30 63 C 9.3245 -1.56176 -0.387029 0
M  V30 64 O 10.5165 -1.7575 -0.209996 0
M  V30 65 C 7.6455 -3.43146 -0.102707 0
M  V30 66 C 6.7315 -4.15213 0.863652 0
M  V30 67 N 7.1225 -4.63662 2.02117 0
M  V30 68 C 5.4205 -4.40716 0.684472 0
M  V30 69 C 6.1215 -5.18868 2.62966 0
M  V30 70 N 5.0975 -5.0893 1.91027 0
M  V30 71 H 8.8995 -2.56201 1.44008 0
M  V30 72 H 6.4135 -1.36366 0.881931 0
M  V30 73 H 8.4105 -4.14475 -0.449054 0
M  V30 74 H 7.0705 -3.09526 -0.981003 0
M  V30 75 H 8.0815 -4.58877 2.40109 0
M  V30 76 H 4.7585 -4.17245 -0.14577 0
M  V30 77 H 6.1485 -5.6673 3.60924 0
M  V30 78 N 8.8686 -0.792821 -1.36206 0
M  V30 79 C 9.7986 -0.207853 -2.32573 0
M  V30 80 C 10.7796 0.659055 -1.56813 0
M  V30 81 O 11.9646 0.592176 -1.84951 0
M  V30 82 C 9.0946 0.655449 -3.41059 0
M  V30 83 C 8.0486 -0.111842 -4.27854 0
M  V30 84 C 7.3746 0.872274 -5.27537 0
M  V30 85 C 8.6746 -1.30299 -5.05786 0
M  V30 86 H 10.3686 -1.01294 -2.81744 0
M  V30 87 H 7.9146 -0.48854 -1.3546 0
M  V30 88 H 9.8676 1.07464 -4.07467 0
M  V30 89 H 8.5916 1.49328 -2.90463 0
M  V30 90 H 7.2506 -0.512053 -3.63006 0
M  V30 91 H 6.8986 1.70523 -4.73214 0
M  V30 92 H 6.5986 0.363291 -5.86476 0
M  V30 93 H 8.1226 1.28996 -5.96818 0
M  V30 94 H 9.5366 -0.959379 -5.65216 0
M  V30 95 H 7.9336 -1.7455 -5.74154 0
M  V30 96 H 9.0036 -2.09663 -4.37229 0
M  V30 97 N 10.3467 1.47872 -0.545128 0
M  V30 98 C 11.7577 1.86384 -0.108581 0
M  V30 99 C 12.1087 1.45309 1.31832 0
M  V30 100 O 11.2337 0.850641 1.9898 0
M  V30 101 C 11.8287 3.38265 -0.190274 0
M  V30 102 C 10.3877 3.75914 0.191164 0
M  V30 103 C 9.5347 2.71926 -0.543273 0
M  V30 104 H 12.4857 1.39561 -0.755537 0
M  V30 105 H 12.5067 3.75831 0.594217 0
M  V30 106 H 12.0187 3.6813 -1.2289 0
M  V30 107 H 10.1197 3.51665 1.23136 0
M  V30 108 H 10.2327 4.78836 -0.158987 0
M  V30 109 H 8.5967 2.54697 0.0122495 0
M  V30 110 H 9.3797 3.04634 -1.58282 0
M  V30 111 N 11.8248 0.280983 1.55075 0
M  V30 112 C 13.0548 -0.336804 2.03836 0
M  V30 113 C 13.4628 -1.49577 1.15859 0
M  V30 114 O 12.8058 -1.82888 0.172503 0
M  V30 115 C 12.8678 -0.874616 3.48699 0
M  V30 116 C 12.5318 0.156478 4.56732 0
M  V30 117 C 13.5288 0.978032 5.10618 0
M  V30 118 C 11.2138 0.292409 5.01448 0
M  V30 119 C 13.2078 1.92165 6.07743 0
M  V30 120 C 10.8948 1.23949 5.98398 0
M  V30 121 C 11.8928 2.05261 6.51427 0
M  V30 122 O 11.5808 2.98367 7.4648 0
M  V30 123 H 11.3128 -0.0800885 0.671239 0
M  V30 124 H 13.8668 0.412589 2.01213 0
M  V30 125 H 12.0968 -1.67418 3.4858 0
M  V30 126 H 13.7858 -1.40612 3.80766 0
M  V30 127 H 14.5518 0.883782 4.7688 0
M  V30 128 H 10.4308 -0.330498 4.59814 0
M  V30 129 H 13.9748 2.55672 6.49059 0
M  V30 130 H 9.8718 1.33454 6.31554 0
M  V30 131 H 10.6398 2.93116 7.64215 0
M  V30 132 N 13.3029 -1.57598 0.00835791 0
M  V30 133 C 14.5509 -1.90551 -0.6734 0
M  V30 134 C 14.8719 -0.883301 -1.73847 0
M  V30 135 O 14.1419 0.0781442 -1.95744 0
M  V30 136 H 12.7219 -0.703312 -0.251717 0
M  V30 137 H 15.3839 -1.94833 0.0512592 0
M  V30 138 H 14.4799 -2.9056 -1.13935 0
M  V30 139 N 14.781 0.264519 -1.55364 0
M  V30 140 C 16.029 0.993021 -1.76021 0
M  V30 141 C 16.35 1.86511 -0.569099 0
M  V30 142 O 15.62 1.91438 0.415735 0
M  V30 143 H 14.2 0.369639 -0.649135 0
M  V30 144 H 16.862 0.286707 -1.9278 0
M  V30 145 H 15.958 1.62502 -2.66457 0
M  V30 146 N 16.2591 1.48442 0.529413 0
M  V30 147 C 17.5081 1.55742 1.28169 0
M  V30 148 C 17.8211 0.236511 1.94165 0
M  V30 149 O 19.0271 0.187761 2.7085 0
M  V30 150 C 17.4831 2.74667 2.32564 0
M  V30 151 C 17.0911 4.13402 1.72636 0
M  V30 152 C 18.8351 2.9128 3.08798 0
M  V30 153 C 16.7421 5.23587 2.74975 0
M  V30 154 H 15.6721 0.579796 0.48203 0
M  V30 155 H 18.3231 1.74776 0.559056 0
M  V30 156 H 16.7051 2.49067 3.07866 0
M  V30 157 H 17.8791 4.49022 1.03519 0
M  V30 158 H 16.1941 4.0191 1.08892 0
M  V30 159 H 18.7911 3.70767 3.85274 0
M  V30 160 H 19.1341 2.00757 3.64695 0
M  V30 161 H 19.6671 3.16782 2.40611 0
M  V30 162 H 16.4061 6.16076 2.23897 0
M  V30 163 H 15.9261 4.92454 3.42417 0
M  V30 164 H 17.6051 5.51724 3.37949 0
M  V30 165 N 17.7372 -0.778329 1.37039 0
M  V30 166 C 19.1482 -1.35421 1.28523 0
M  V30 167 C 19.4992 -1.96075 -0.0700901 0
M  V30 168 O 18.6242 -1.93352 -0.971801 0
M  V30 169 C 19.2192 -2.46211 2.32735 0
M  V30 170 C 17.7782 -2.99585 2.27873 0
M  V30 171 C 16.9252 -1.72748 2.16918 0
M  V30 172 H 19.8762 -0.5791 1.47757 0
M  V30 173 H 19.8972 -3.2552 1.9702 0
M  V30 174 H 19.4092 -2.02036 3.31365 0
M  V30 175 H 17.5102 -3.48152 1.32745 0
M  V30 176 H 17.6232 -3.55646 3.21018 0
M  V30 177 H 15.9872 -1.95416 1.63354 0
M  V30 178 H 16.7702 -1.30686 3.17452 0
M  V30 179 N 19.2153 -1.21501 -1.00376 0
M  V30 180 C 20.4433 -1.059 -1.77744 0
M  V30 181 C 20.8583 0.391125 -1.84704 0
M  V30 182 O 20.2153 1.27133 -1.30933 0
M  V30 183 C 20.2663 -1.65111 -3.21591 0
M  V30 184 O 19.9873 -3.0445 -3.15027 0
M  V30 185 C 21.4883 -1.54637 -4.15454 0
M  V30 186 H 18.7083 -0.371825 -0.558558 0
M  V30 187 H 21.2523 -1.60865 -1.26264 0
M  V30 188 H 19.4073 -1.14235 -3.70175 0
M  V30 189 H 19.8213 -3.3278 -4.0541 0
M  V30 190 H 21.2953 -2.00808 -5.14179 0
M  V30 191 H 21.7723 -0.501022 -4.36333 0
M  V30 192 H 22.3783 -2.04767 -3.72761 0
M  V30 193 N 20.6934 1.19889 -1.02296 0
M  V30 194 C 21.9404 1.8942 -0.715972 0
M  V30 195 C 22.2684 1.79251 0.754944 0
M  V30 196 O 21.5234 1.17526 1.56481 0
M  V30 197 C 21.8224 3.39883 -1.10518 0
M  V30 198 C 21.4884 3.70254 -2.57337 0
M  V30 199 C 20.1504 3.78254 -2.97452 0
M  V30 200 C 22.5024 3.84052 -3.52354 0
M  V30 201 C 19.8304 3.97514 -4.31509 0
M  V30 202 C 22.1824 4.04824 -4.86108 0
M  V30 203 C 20.8464 4.11054 -5.25919 0
M  V30 204 H 20.1164 0.693138 -0.261993 0
M  V30 205 H 22.7634 1.42012 -1.28472 0
M  V30 206 H 21.0684 3.8915 -0.454953 0
M  V30 207 H 22.7654 3.9199 -0.845261 0
M  V30 208 H 19.3554 3.64632 -2.25258 0
M  V30 209 H 23.5394 3.77221 -3.22518 0
M  V30 210 H 18.7954 4.00574 -4.61898 0
M  V30 211 H 22.9694 4.14442 -5.59653 0
M  V30 212 H 20.5964 4.2573 -6.29808 0
M  V30 213 N 22.1715 0.800033 1.35784 0
M  V30 214 C 23.1345 0.211565 2.28221 0
M  V30 215 C 24.1345 -0.59728 1.49296 0
M  V30 216 O 25.3245 -0.416721 1.69142 0
M  V30 217 C 22.4565 -0.705846 3.33513 0
M  V30 218 H 23.6495 1.02677 2.81776 0
M  V30 219 H 21.2025 0.570211 1.45528 0
M  V30 220 H 21.9375 -1.54498 2.85133 0
M  V30 221 H 21.7225 -0.127655 3.91892 0
M  V30 222 H 23.2125 -1.11211 4.02519 0
M  V30 223 N 23.6496 -1.47581 0.552962 0
M  V30 224 C 25.0656 -1.5818 0.212424 0
M  V30 225 C 25.2656 -1.55213 -1.28496 0
M  V30 226 O 24.3216 -1.45329 -2.06484 0
M  V30 227 C 25.6346 -2.88865 0.835318 0
M  V30 228 C 27.1826 -3.0244 0.806156 0
M  V30 229 C 27.6576 -4.35819 1.40804 0
M  V30 230 N 29.1486 -4.42444 1.37103 0
M  V30 231 C 29.8836 -5.44202 1.80641 0
M  V30 232 N 29.3796 -6.52795 2.32015 0
M  V30 233 N 31.1726 -5.35222 1.71738 0
M  V30 234 H 23.3236 -1.47753 1.52587 0
M  V30 235 H 25.5866 -0.702941 0.636064 0
M  V30 236 H 25.2926 -2.9676 1.88749 0
M  V30 237 H 25.1666 -3.7579 0.325848 0
M  V30 238 H 27.5536 -2.94144 -0.237317 0
M  V30 239 H 27.6346 -2.17068 1.35334 0
M  V30 240 H 27.2786 -4.44871 2.45056 0
M  V30 241 H 27.2086 -5.19916 0.836338 0
M  V30 242 H 29.6996 -3.6456 0.995202 0
M  V30 243 H 30.0126 -7.26609 2.63171 0
M  V30 244 H 28.3576 -6.53696 2.36023 0
M  V30 245 H 31.5486 -4.49284 1.31382 0
M  V30 246 H 31.7216 -6.14389 2.05987 0
M  V30 247 N 25.1277 -0.289203 -1.54924 0
M  V30 248 C 26.0907 0.579144 -2.21762 0
M  V30 249 C 27.0907 1.07047 -1.1999 0
M  V30 250 O 28.2807 0.968384 -1.44803 0
M  V30 251 C 25.4127 1.80055 -2.8947 0
M  V30 252 H 26.6057 -0.00464908 -2.999 0
M  V30 253 H 24.1587 -0.0399306 -1.56249 0
M  V30 254 H 24.8937 2.42449 -2.15381 0
M  V30 255 H 24.6787 1.45602 -3.64064 0
M  V30 256 H 26.1687 2.41773 -3.40493 0
M  V30 257 N 26.6058 1.57591 -0.0167156 0
M  V30 258 C 28.0168 1.79201 0.523834 0
M  V30 259 C 28.3678 0.925796 1.72984 0
M  V30 260 O 27.4928 0.132792 2.15992 0
M  V30 261 C 28.0878 3.25 0.957091 0
M  V30 262 C 26.6468 3.47648 1.44283 0
M  V30 263 C 25.7938 2.74374 0.401757 0
M  V30 264 H 28.7448 1.56831 -0.242816 0
M  V30 265 H 28.7658 3.34031 1.82219 0
M  V30 266 H 28.2778 3.88019 0.0791415 0
M  V30 267 H 26.3788 2.89866 2.34113 0
M  V30 268 H 26.4918 4.56352 1.45877 0
M  V30 269 H 24.8558 2.39485 0.867121 0
M  V30 270 H 25.6388 3.40102 -0.467513 0
M  V30 271 N 28.0839 -0.256276 1.55502 0
M  V30 272 C 29.0139 -1.32102 1.92539 0
M  V30 273 C 29.9949 -1.50684 0.789194 0
M  V30 274 O 31.1799 -1.63449 1.04872 0
M  V30 275 C 28.3099 -2.67752 2.21192 0
M  V30 276 C 27.2639 -2.63878 3.36975 0
M  V30 277 C 26.5899 -4.03236 3.51147 0
M  V30 278 C 27.8899 -2.21682 4.72921 0
M  V30 279 H 29.5839 -1.01351 2.81724 0
M  V30 280 H 27.1299 -0.486105 1.35547 0
M  V30 281 H 29.0829 -3.42365 2.45691 0
M  V30 282 H 27.8069 -3.0012 1.28824 0
M  V30 283 H 26.4659 -1.91722 3.12471 0
M  V30 284 H 26.1139 -4.32854 2.56216 0
M  V30 285 H 25.8139 -4.01535 4.29003 0
M  V30 286 H 27.3379 -4.79563 3.77957 0
M  V30 287 H 28.7519 -2.86023 4.96854 0
M  V30 288 H 27.1489 -2.3111 5.53812 0
M  V30 289 H 28.2189 -1.16833 4.70615 0
M  V30 290 N 29.562 -1.4872 -0.521534 0
M  V30 291 C 30.808 -1.574 -1.27879 0
M  V30 292 C 31.141 -0.250817 -1.92573 0
M  V30 293 O 30.416 0.743934 -1.79711 0
M  V30 294 C 30.699 -2.71843 -2.36164 0
M  V30 295 C 30.552 -4.13893 -1.76105 0
M  V30 296 C 31.871 -2.82008 -3.37875 0
M  V30 297 H 28.99 -0.572941 -0.463581 0
M  V30 298 H 31.632 -1.80927 -0.580119 0
M  V30 299 H 29.782 -2.51914 -2.95756 0
M  V30 300 H 31.454 -4.45284 -1.20499 0
M  V30 301 H 29.697 -4.20498 -1.06601 0
M  V30 302 H 30.368 -4.89804 -2.5455 0
M  V30 303 H 32.844 -3.00086 -2.88249 0
M  V30 304 H 31.72 -3.63796 -4.11028 0
M  V30 305 H 31.981 -1.90511 -3.98946 0
M  V30 306 N 31.0401 0.771051 -1.3745 0
M  V30 307 C 31.9721 1.89352 -1.29146 0
M  V30 308 C 32.9851 1.61477 -0.207124 0
M  V30 309 O 34.1741 1.72382 -0.463324 0
M  V30 310 C 31.2741 3.24596 -0.974195 0
M  V30 311 C 30.4471 3.80111 -2.16413 0
M  V30 312 C 29.5061 4.93832 -1.81703 0
M  V30 313 O 28.5321 5.09382 -2.54006 0
M  V30 314 N 29.7341 5.75483 -0.761573 0
M  V30 315 H 32.4991 1.96991 -2.25864 0
M  V30 316 H 30.0601 0.950191 -1.31084 0
M  V30 317 H 32.0521 3.98193 -0.722828 0
M  V30 318 H 30.6221 3.12454 -0.0955527 0
M  V30 319 H 29.8421 2.98284 -2.57721 0
M  V30 320 H 31.1301 4.13932 -2.95867 0
M  V30 321 H 30.5281 5.65469 -0.161609 0
M  V30 322 H 29.0851 6.49302 -0.570064 0
M  V30 323 N 32.5182 1.22032 0.997298 0
M  V30 324 C 33.9292 1.0397 1.55071 0
M  V30 325 C 34.2802 -0.398192 1.92117 0
M  V30 326 O 33.4052 -1.28254 1.74298 0
M  V30 327 C 34.0002 1.88109 2.81781 0
M  V30 328 C 32.5592 1.74357 3.33581 0
M  V30 329 C 31.7062 1.84846 2.06706 0
M  V30 330 H 34.6572 1.35941 0.818883 0
M  V30 331 H 34.6782 1.39589 3.53971 0
M  V30 332 H 34.1902 2.92754 2.54787 0
M  V30 333 H 32.2912 0.72427 3.65493 0
M  V30 334 H 32.4042 2.56772 4.04481 0
M  V30 335 H 30.7682 1.28238 2.20062 0
M  V30 336 H 31.5512 2.91014 1.82114 0
M  V30 337 N 33.9963 -1.19345 1.0293 0
M  V30 338 C 35.2733 -1.84811 0.640642 0
M  V30 339 C 35.6533 -1.91855 -0.88062 0
M  V30 340 O 35.0013 -1.43587 -1.7775 0
M  V30 341 C 35.2113 -3.23755 1.30321 0
M  V30 342 C 36.5593 -3.99912 1.42673 0
M  V30 343 O 37.5833 -3.33155 1.26041 0
M  V30 344 O 36.4423 -5.19494 1.6967 0
M  V30 345 H 33.5363 -0.796443 0.222726 0
M  V30 346 H 36.0823 -1.26831 1.12748 0
M  V30 347 H 34.8543 -3.13466 2.34211 0
M  V30 348 H 34.4773 -3.89381 0.804261 0
M  V30 349 N 35.4744 -0.807222 -1.35358 0
M  V30 350 C 36.7224 -0.387122 -1.98358 0
M  V30 351 C 37.0434 1.04942 -1.64354 0
M  V30 352 O 36.3134 1.72615 -0.926339 0
M  V30 353 H 34.8934 -0.140154 -0.733734 0
M  V30 354 H 37.5554 -1.0332 -1.6526 0
M  V30 355 H 36.6514 -0.493352 -3.08176 0
M  V30 356 N 36.9525 1.47285 -0.560781 0
M  V30 357 C 38.2295 1.9558 0.0277798 0
M  V30 358 C 38.6095 1.5034 1.48192 0
M  V30 359 O 37.9575 0.743882 2.16052 0
M  V30 360 C 38.1675 3.48789 -0.121418 0
M  V30 361 C 39.5155 4.24594 0.0220912 0
M  V30 362 O 40.5395 3.56166 -0.0491439 0
M  V30 363 O 39.3985 5.46217 0.175958 0
M  V30 364 H 36.4925 0.824663 0.0621342 0
M  V30 365 H 39.0385 1.5767 -0.627556 0
M  V30 366 H 37.8105 3.74533 -1.13316 0
M  V30 367 H 37.4335 3.93473 0.571366 0
M  V30 368 N 38.4306 0.297415 1.54768 0
M  V30 369 C 39.6766 -0.306263 2.01081 0
M  V30 370 C 40.0316 -1.518 1.18214 0
M  V30 371 O 39.3246 -1.89967 0.249613 0
M  V30 372 C 39.5186 -0.717561 3.50123 0
M  V30 373 C 39.3476 0.45277 4.47415 0
M  V30 374 C 38.1176 0.943651 4.9641 0
M  V30 375 C 40.3156 1.29657 4.97688 0
M  V30 376 N 38.2976 2.08112 5.77549 0
M  V30 377 C 39.6686 2.28158 5.76493 0
M  V30 378 C 41.7236 1.32735 4.79881 0
M  V30 379 C 40.4266 3.29509 6.39387 0
M  V30 380 C 42.4526 2.32943 5.43591 0
M  V30 381 C 41.8146 3.30174 6.22225 0
M  V30 382 H 37.9136 -0.0766274 0.778237 0
M  V30 383 H 40.4976 0.426515 1.89971 0
M  V30 384 H 38.6686 -1.41952 3.6153 0
M  V30 385 H 40.4006 -1.30047 3.83236 0
M  V30 386 H 37.1556 0.51922 4.70745 0
M  V30 387 H 37.5796 2.65414 6.22803 0
M  V30 388 H 42.2216 0.589375 4.18672 0
M  V30 389 H 39.9396 4.04228 6.99732 0
M  V30 390 H 43.5256 2.36094 5.31743 0
M  V30 391 H 42.4056 4.06445 6.7065 0
M  V30 392 N 39.9087 -1.5758 0.0250728 0
M  V30 393 C 40.8407 -2.06869 -0.986796 0
M  V30 394 C 41.8537 -0.991332 -1.29137 0
M  V30 395 O 43.0427 -1.26761 -1.25674 0
M  V30 396 C 40.1427 -2.47486 -2.31525 0
M  V30 397 C 39.3157 -3.78253 -2.19643 0
M  V30 398 C 38.3747 -4.05464 -3.35388 0
M  V30 399 O 37.4007 -4.75774 -3.12454 0
M  V30 400 N 38.6027 -3.55321 -4.59051 0
M  V30 401 H 41.3677 -2.94302 -0.566276 0
M  V30 402 H 38.9287 -1.6109 -0.161776 0
M  V30 403 H 40.9207 -2.62785 -3.07776 0
M  V30 404 H 39.4907 -1.65441 -2.65232 0
M  V30 405 H 38.7107 -3.7279 -1.28144 0
M  V30 406 H 39.9987 -4.63936 -2.08903 0
M  V30 407 H 39.3967 -2.98431 -4.80578 0
M  V30 408 H 37.9537 -3.75905 -5.32483 0
M  V30 409 N 41.3868 0.248026 -1.55636 0
M  V30 410 C 42.3498 1.29044 -1.89421 0
M  V30 411 C 43.3498 1.41134 -0.770581 0
M  V30 412 O 44.5398 1.39854 -1.03858 0
M  V30 413 C 41.6718 2.66831 -2.12165 0
M  V30 414 H 42.8648 1.00305 -2.82629 0
M  V30 415 H 40.4178 0.487265 -1.48511 0
M  V30 416 H 41.1528 3.00711 -1.21422 0
M  V30 417 H 40.9378 2.59438 -2.93997 0
M  V30 418 H 42.4278 3.42103 -2.3949 0
M  V30 419 N 42.8649 1.48995 0.513639 0
M  V30 420 C 44.1419 1.48338 1.27495 0
M  V30 421 C 44.5219 0.204065 2.10111 0
M  V30 422 O 43.8699 -0.813881 2.13514 0
M  V30 423 C 44.0799 2.75498 2.14247 0
M  V30 424 C 45.4279 3.24484 2.73852 0
M  V30 425 O 46.4519 2.76528 2.24523 0
M  V30 426 O 45.3109 4.07974 3.6362 0
M  V30 427 H 42.4049 0.593149 0.576284 0
M  V30 428 H 44.9509 1.61246 0.528948 0
M  V30 429 H 43.7229 3.60109 1.53092 0
M  V30 430 H 43.3459 2.6539 2.96064 0
M  V30 431 N 44.343 -0.763751 1.37857 0
M  V30 432 C 45.589 -1.52483 1.33704 0
M  V30 433 C 45.922 -1.94051 -0.0759612 0
M  V30 434 O 45.197 -1.64675 -1.03501 0
M  V30 435 C 45.48 -2.78441 2.28348 0
M  V30 436 C 45.333 -2.43075 3.78463 0
M  V30 437 C 46.652 -3.80415 2.21298 0
M  V30 438 H 43.771 -0.553169 0.487005 0
M  V30 439 H 46.413 -0.875562 1.68624 0
M  V30 440 H 44.563 -3.33842 1.987 0
M  V30 441 H 46.235 -1.93527 4.18742 0
M  V30 442 H 44.478 -1.75666 3.96641 0
M  V30 443 H 45.149 -3.33149 4.40132 0
M  V30 444 H 47.625 -3.34527 2.47449 0
M  V30 445 H 46.501 -4.66257 2.89647 0
M  V30 446 H 46.762 -4.25262 1.20849 0
M  V30 447 N 45.8211 -1.22559 -0.990812 0
M  V30 448 C 46.7841 -0.998863 -2.0629 0
M  V30 449 C 47.7841 0.0354834 -1.60761 0
M  V30 450 O 48.9741 -0.203231 -1.7301 0
M  V30 451 C 46.1061 -0.509203 -3.37076 0
M  V30 452 H 47.2991 -1.95014 -2.27837 0
M  V30 453 H 44.8521 -1.04456 -1.16269 0
M  V30 454 H 45.5871 0.446335 -3.21214 0
M  V30 455 H 45.3721 -1.25547 -3.71457 0
M  V30 456 H 46.8621 -0.370888 -4.1595 0
M  V30 457 N 47.2992 1.18797 -1.03562 0
M  V30 458 C 48.2622 2.20464 -0.626769 0
M  V30 459 C 49.2622 1.57721 0.313173 0
M  V30 460 O 50.4522 1.73917 0.0992615 0
M  V30 461 C 47.5842 3.40802 0.0818498 0
M  V30 462 H 48.7772 2.58149 -1.5264 0
M  V30 463 H 46.3302 1.32593 -0.827578 0
M  V30 464 H 47.0652 3.08642 0.995518 0
M  V30 465 H 46.8502 3.8758 -0.593652 0
M  V30 466 H 48.3402 4.16092 0.354584 0
M  V30 467 N 48.7773 0.814389 1.34928 0
M  V30 468 C 49.7073 0.244827 2.32213 0
M  V30 469 C 50.6883 -0.634024 1.57842 0
M  V30 470 O 51.8733 -0.562676 1.8587 0
M  V30 471 C 49.0033 -0.601106 3.42058 0
M  V30 472 C 47.9573 0.179896 4.27622 0
M  V30 473 C 47.2833 -0.788237 5.28858 0
M  V30 474 C 48.5833 1.38329 5.03649 0
M  V30 475 H 50.2773 1.05763 2.80097 0
M  V30 476 H 47.8233 0.510029 1.34665 0
M  V30 477 H 49.7763 -1.00968 4.09125 0
M  V30 478 H 48.5003 -1.44688 2.92802 0
M  V30 479 H 47.1593 0.569739 3.62146 0
M  V30 480 H 46.8073 -1.62973 4.75866 0
M  V30 481 H 46.5073 -0.269942 5.8698 0
M  V30 482 H 48.0313 -1.19485 5.98795 0
M  V30 483 H 49.4453 1.04918 5.63618 0
M  V30 484 H 47.8423 1.83662 5.71304 0
M  V30 485 H 48.9123 2.16592 4.33839 0
M  V30 486 N 50.2554 -1.46986 0.568584 0
M  V30 487 C 51.5034 -2.02041 0.0487022 0
M  V30 488 C 51.8244 -1.44408 -1.31039 0
M  V30 489 O 51.0944 -0.623477 -1.85714 0
M  V30 490 H 49.6744 -0.746849 0.015014 0
M  V30 491 H 52.3364 -1.80257 0.741168 0
M  V30 492 H 51.4324 -3.12085 -0.0308961 0
M  V30 493 N 51.7335 -0.305618 -1.54608 0
M  V30 494 C 52.9795 0.302746 -2.00528 0
M  V30 495 C 53.3125 1.53184 -1.19367 0
M  V30 496 O 52.5875 1.92598 -0.271321 0
M  V30 497 C 52.8705 0.654756 -3.54097 0
M  V30 498 C 52.7235 -0.583793 -4.45995 0
M  V30 499 C 54.0425 1.47947 -4.14487 0
M  V30 500 H 51.1615 0.108564 -0.72896 0
M  V30 501 H 53.8035 -0.418634 -1.85331 0
M  V30 502 H 51.9535 1.26935 -3.67178 0
M  V30 503 H 53.6255 -1.22224 -4.44814 0
M  V30 504 H 51.8685 -1.21615 -4.16404 0
M  V30 505 H 52.5395 -0.293287 -5.5122 0
M  V30 506 H 55.0155 0.96013 -4.04871 0
M  V30 507 H 53.8915 1.69454 -5.22088 0
M  V30 508 H 54.1525 2.47011 -3.66658 0
M  V30 509 N 53.2116 1.57565 -0.0334293 0
M  V30 510 C 54.6226 1.79746 0.504798 0
M  V30 511 C 54.9736 0.944091 1.71992 0
M  V30 512 O 54.0986 0.155694 2.15839 0
M  V30 513 C 54.6936 3.25997 0.922567 0
M  V30 514 C 53.2526 3.49159 1.40588 0
M  V30 515 C 52.3996 2.74785 0.372633 0
M  V30 516 H 55.3506 1.56565 -0.259436 0
M  V30 517 H 55.3716 3.35945 1.78666 0
M  V30 518 H 54.8836 3.88081 0.0379825 0
M  V30 519 H 52.9846 2.92332 2.31025 0
M  V30 520 H 53.0976 4.57873 1.41028 0
M  V30 521 H 51.4616 2.40391 0.841672 0
M  V30 522 H 52.2446 3.39587 -0.503559 0
M  V30 523 N 54.6897 -0.239769 1.55765 0
M  V30 524 C 55.9367 -0.966801 1.7793 0
M  V30 525 C 56.2647 -1.85046 0.599015 0
M  V30 526 O 55.5197 -1.91197 -0.417395 0
M  V30 527 C 55.8187 -1.852 3.05672 0
M  V30 528 C 55.4847 -1.1231 4.36689 0
M  V30 529 C 54.1467 -0.921689 4.72291 0
M  V30 530 C 56.4987 -0.607019 5.17653 0
M  V30 531 C 53.8267 -0.191996 5.86386 0
M  V30 532 C 56.1787 0.109241 6.32506 0
M  V30 533 C 54.8427 0.322073 6.66723 0
M  V30 534 H 54.1127 -0.353778 0.651093 0
M  V30 535 H 56.7597 -0.23634 1.90036 0
M  V30 536 H 55.0647 -2.64975 2.8861 0
M  V30 537 H 56.7617 -2.41635 3.20021 0
M  V30 538 H 53.3517 -1.29004 4.08725 0
M  V30 539 H 57.5357 -0.750153 4.90598 0
M  V30 540 H 52.7917 -0.0166949 6.11398 0
M  V30 541 H 56.9657 0.516737 6.9448 0
M  V30 542 H 54.5927 0.88944 7.54979 0
M  V30 543 N 56.1678 -1.49265 -0.50573 0
M  V30 544 C 57.4448 -1.49012 -1.26707 0
M  V30 545 C 57.8248 -0.215205 -2.1 0
M  V30 546 O 57.1728 0.802547 -2.13943 0
M  V30 547 C 57.3828 -2.7663 -2.12783 0
M  V30 548 C 58.7308 -3.25932 -2.72127 0
M  V30 549 O 59.7548 -2.77715 -2.23054 0
M  V30 550 O 58.6138 -4.09897 -3.61451 0
M  V30 551 H 55.7078 -0.596197 -0.57313 0
M  V30 552 H 58.2538 -1.61524 -0.52039 0
M  V30 553 H 57.0258 -3.60916 -1.5118 0
M  V30 554 H 56.6488 -2.66956 -2.94653 0
M  V30 555 N 57.6459 0.756429 -1.3826 0
M  V30 556 C 58.8949 1.51082 -1.3363 0
M  V30 557 C 59.2079 1.95467 0.0720068 0
M  V30 558 O 60.4139 2.7043 0.240834 0
M  V30 559 C 58.8699 2.72893 -2.34644 0
M  V30 560 C 58.4779 2.35544 -3.81081 0
M  V30 561 C 60.2219 3.50791 -2.39052 0
M  V30 562 C 58.1289 3.53948 -4.73787 0
M  V30 563 H 57.0589 0.56727 -0.49671 0
M  V30 564 H 59.7099 0.827147 -1.638 0
M  V30 565 H 58.0919 3.43227 -1.97513 0
M  V30 566 H 59.2659 1.72894 -4.27135 0
M  V30 567 H 57.5809 1.70786 -3.79764 0
M  V30 568 H 60.1779 4.38823 -3.05513 0
M  V30 569 H 60.5209 3.91745 -1.40861 0
M  V30 570 H 61.0539 2.87467 -2.74968 0
M  V30 571 H 57.7929 3.18064 -5.73163 0
M  V30 572 H 57.3129 4.15651 -4.32428 0
M  V30 573 H 58.9919 4.20566 -4.91663 0
M  V30 574 N 59.124 1.23083 0.984299 0
M  V30 575 C 60.087 1.00979 2.05757 0
M  V30 576 C 61.087 -0.0269573 1.60777 0
M  V30 577 O 62.277 0.212403 1.729 0
M  V30 578 C 59.409 0.527072 3.36801 0
M  V30 579 H 60.602 1.9622 2.26799 0
M  V30 580 H 58.155 1.05072 1.15714 0
M  V30 581 H 58.89 -0.429294 3.21446 0
M  V30 582 H 58.675 1.27515 3.70786 0
M  V30 583 H 60.165 0.392942 4.15747 0
M  V30 584 N 60.6021 -1.18246 1.0419 0
M  V30 585 C 61.5321 -2.24127 0.654914 0
M  V30 586 C 62.5131 -1.66617 -0.342451 0
M  V30 587 O 63.6981 -1.92924 -0.222277 0
M  V30 588 C 60.8281 -3.47295 0.0183757 0
M  V30 589 C 59.7821 -4.17563 0.939414 0
M  V30 590 C 59.1081 -5.34438 0.167286 0
M  V30 591 C 60.4081 -4.70917 2.25908 0
M  V30 592 H 62.1021 -2.56753 1.54007 0
M  V30 593 H 59.6481 -1.23414 0.74195 0
M  V30 594 H 61.6011 -4.20572 -0.264082 0
M  V30 595 H 60.3251 -3.13907 -0.901664 0
M  V30 596 H 58.9841 -3.46186 1.20628 0
M  V30 597 H 58.6321 -4.97298 -0.7552 0
M  V30 598 H 58.3321 -5.82388 0.780901 0
M  V30 599 H 59.8561 -6.10504 -0.108125 0
M  V30 600 H 61.2701 -5.35882 2.03724 0
M  V30 601 H 59.6671 -5.29406 2.82577 0
M  V30 602 H 60.7371 -3.88272 2.9047 0
M  V30 603 N 62.0802 -0.821533 -1.34494 0
M  V30 604 C 63.3282 -0.408139 -1.97936 0
M  V30 605 C 63.6492 1.03193 -1.65457 0
M  V30 606 O 62.9192 1.71622 -0.944595 0
M  V30 607 H 61.4992 -0.147928 -0.732206 0
M  V30 608 H 64.1612 -1.05067 -1.64155 0
M  V30 609 H 63.2572 -0.52601 -3.07635 0
M  V30 610 N 63.5583 1.46682 -0.576371 0
M  V30 611 C 64.8053 2.02412 -0.0595339 0
M  V30 612 C 65.1333 1.44859 1.29793 0
M  V30 613 O 64.3883 0.601099 1.8624 0
M  V30 614 C 64.6873 3.57345 0.062886 0
M  V30 615 C 64.3533 4.33908 -1.22616 0
M  V30 616 C 63.0153 4.54544 -1.57933 0
M  V30 617 C 65.3673 4.77919 -2.07948 0
M  V30 618 C 62.6953 5.16444 -2.78393 0
M  V30 619 C 65.0473 5.41149 -3.27629 0
M  V30 620 C 63.7113 5.60014 -3.63236 0
M  V30 621 H 62.9813 0.74068 -0.021785 0
M  V30 622 H 65.6283 1.76128 -0.751735 0
M  V30 623 H 63.9333 3.82729 0.838178 0
M  V30 624 H 65.6303 3.98136 0.478439 0
M  V30 625 H 62.2203 4.18138 -0.941202 0
M  V30 626 H 66.4043 4.61738 -1.81967 0
M  V30 627 H 61.6603 5.29242 -3.06126 0
M  V30 628 H 65.8343 5.74211 -3.94023 0
M  V30 629 H 63.4613 6.07748 -4.56669 0
M  V30 630 N 65.0364 0.313813 1.54444 0
M  V30 631 C 66.4524 -0.0391619 1.59552 0
M  V30 632 C 66.6524 -1.51322 1.33056 0
M  V30 633 O 65.7084 -2.26782 1.11022 0
M  V30 634 C 67.0214 0.370302 2.98411 0
M  V30 635 C 68.5694 0.320139 3.11358 0
M  V30 636 C 69.0444 0.704617 4.52547 0
M  V30 637 N 70.5354 0.657645 4.58508 0
M  V30 638 C 71.2704 0.927453 5.6585 0
M  V30 639 N 70.7664 1.26389 6.81174 0
M  V30 640 N 72.5594 0.853662 5.5558 0
M  V30 641 H 64.7104 1.27433 1.69925 0
M  V30 642 H 66.9734 0.517511 0.794284 0
M  V30 643 H 66.6794 1.39694 3.22767 0
M  V30 644 H 66.5534 -0.269619 3.76235 0
M  V30 645 H 68.9404 -0.697275 2.86744 0
M  V30 646 H 69.0214 0.99486 2.35661 0
M  V30 647 H 68.6654 1.7199 4.77893 0
M  V30 648 H 68.5954 0.00768843 5.26599 0
M  V30 649 H 71.0864 0.409067 3.75679 0
M  V30 650 H 71.3994 1.4554 7.58972 0
M  V30 651 H 69.7444 1.30206 6.82694 0
M  V30 652 H 72.9354 0.590383 4.64362 0
M  V30 653 H 73.1084 1.0673 6.3915 0
M  V30 654 N 66.5145 -1.57545 0.0417849 0
M  V30 655 C 67.9255 -1.80011 -0.495259 0
M  V30 656 C 68.2765 -0.953199 -1.71489 0
M  V30 657 O 67.4015 -0.167138 -2.15754 0
M  V30 658 C 67.9965 -3.26482 -0.905265 0
M  V30 659 C 66.5555 -3.499 -1.38734 0
M  V30 660 C 65.7025 -2.74979 -0.358056 0
M  V30 661 H 68.6535 -1.56425 0.267736 0
M  V30 662 H 68.6745 -3.36887 -1.76882 0
M  V30 663 H 68.1865 -3.88096 -0.017401 0
M  V30 664 H 66.2875 -2.93553 -2.29471 0
M  V30 665 H 66.4005 -4.58615 -1.38598 0
M  V30 666 H 64.7645 -2.40834 -0.828912 0
M  V30 667 H 65.5475 -3.39315 0.521561 0
M  V30 668 N 67.9926 0.231505 -1.5589 0
M  V30 669 C 69.2406 0.955461 -1.78088 0
M  V30 670 C 69.5616 1.85262 -0.608533 0
M  V30 671 O 68.8316 1.92277 0.375035 0
M  V30 672 H 67.4116 0.355787 -0.656829 0
M  V30 673 H 70.0736 0.245751 -1.93344 0
M  V30 674 H 69.1696 1.56814 -2.69844 0
M  V30 675 N 69.4707 1.49531 0.497807 0
M  V30 676 C 70.4337 1.65916 1.58128 0
M  V30 677 C 71.4337 0.530825 1.51786 0
M  V30 678 O 72.6237 0.797342 1.54881 0
M  V30 679 C 69.7557 1.65951 2.9778 0
M  V30 680 H 70.9487 2.62556 1.44929 0
M  V30 681 H 68.5017 1.38611 0.722275 0
M  V30 682 H 69.2367 0.709065 3.16453 0
M  V30 683 H 69.0217 2.47897 3.03792 0
M  V30 684 H 70.5117 1.80673 3.76493 0
M  V30 685 N 70.9488 -0.749086 1.3866 0
M  V30 686 C 72.3648 -1.05276 1.19955 0
M  V30 687 C 72.5648 -2.01435 0.05134 0
M  V30 688 O 71.6208 -2.45232 -0.60147 0
M  V30 689 C 72.9338 -1.62853 2.52783 0
M  V30 690 C 74.4818 -1.75002 2.59506 0
M  V30 691 C 74.9568 -2.35991 3.92521 0
M  V30 692 N 76.4478 -2.43416 3.94085 0
M  V30 693 C 77.1828 -2.91511 4.9377 0
M  V30 694 N 76.6788 -3.39608 6.03853 0
M  V30 695 N 78.4718 -2.90592 4.81157 0
M  V30 696 H 70.6228 -0.111066 2.12109 0
M  V30 697 H 72.8858 -0.111901 0.941373 0
M  V30 698 H 72.5918 -0.99664 3.37283 0
M  V30 699 H 72.4658 -2.61854 2.715 0
M  V30 700 H 74.8528 -2.37317 1.75398 0
M  V30 701 H 74.9338 -0.74693 2.44652 0
M  V30 702 H 74.5778 -1.74308 4.77053 0
M  V30 703 H 74.5078 -3.3695 4.04688 0
M  V30 704 H 76.9988 -2.09405 3.14576 0
M  V30 705 H 77.3118 -3.74775 6.75843 0
M  V30 706 H 75.6568 -3.37653 6.07466 0
M  V30 707 H 78.8478 -2.52332 3.94267 0
M  V30 708 H 79.0208 -3.27762 5.58996 0
M  V30 709 N 72.4269 -1.23603 -0.977757 0
M  V30 710 C 73.6739 -1.06971 -1.71941 0
M  V30 711 C 74.0019 0.393009 -1.90488 0
M  V30 712 O 73.2569 1.30719 -1.4564 0
M  V30 713 C 73.5559 -1.7433 -3.11999 0
M  V30 714 C 73.2219 -3.24252 -3.13323 0
M  V30 715 C 71.8839 -3.65156 -3.13392 0
M  V30 716 C 74.2359 -4.20141 -3.08433 0
M  V30 717 C 71.5639 -5.00403 -3.0629 0
M  V30 718 C 73.9159 -5.55384 -3.02873 0
M  V30 719 C 72.5799 -5.95647 -3.01265 0
M  V30 720 H 71.8499 -0.391433 -0.629175 0
M  V30 721 H 74.4969 -1.53572 -1.14403 0
M  V30 722 H 72.8019 -1.20096 -3.7294 0
M  V30 723 H 74.4989 -1.58936 -3.68158 0
M  V30 724 H 71.0889 -2.91692 -3.14029 0
M  V30 725 H 75.2729 -3.89547 -3.07517 0
M  V30 726 H 70.5289 -5.3081 -3.03399 0
M  V30 727 H 74.7029 -6.29398 -2.98046 0
M  V30 728 H 72.3299 -7.0041 -2.95516 0
M  V30 729 N 73.905 1.17692 -1.04816 0
M  V30 730 C 74.868 2.19787 -0.650117 0
M  V30 731 C 75.868 1.58044 0.296427 0
M  V30 732 O 77.058 1.74012 0.0808097 0
M  V30 733 C 74.19 3.40869 0.0456987 0
M  V30 734 H 75.383 2.56516 -1.5537 0
M  V30 735 H 72.936 1.31708 -0.841594 0
M  V30 736 H 73.671 3.09681 0.962726 0
M  V30 737 H 73.456 3.86928 -0.634727 0
M  V30 738 H 74.946 4.16445 0.310432 0
M  V30 739 N 75.3831 0.828654 1.34056 0
M  V30 740 C 76.7941 0.477534 1.8049 0
M  V30 741 C 77.1451 -1.00258 1.6865 0
M  V30 742 O 76.2701 -1.78057 1.22982 0
M  V30 743 C 76.8651 0.860018 3.27703 0
M  V30 744 C 75.4241 0.561185 3.72193 0
M  V30 745 C 74.5711 1.07385 2.55663 0
M  V30 746 H 77.5221 1.0183 1.21722 0
M  V30 747 H 77.5431 0.166038 3.80138 0
M  V30 748 H 77.0551 1.93731 3.36288 0
M  V30 749 H 75.1561 -0.506465 3.69142 0
M  V30 750 H 75.2691 1.10926 4.66082 0
M  V30 751 H 73.6331 0.495149 2.49841 0
M  V30 752 H 74.4161 2.15771 2.67016 0
M  V30 753 N 76.8612 -1.46375 0.584142 0
M  V30 754 C 78.2772 -1.57694 0.245929 0
M  V30 755 C 78.4772 -1.57903 -1.25175 0
M  V30 756 O 77.5332 -1.49676 -2.03355 0
M  V30 757 C 78.8462 -2.87028 0.896402 0
M  V30 758 C 80.3942 -3.00662 0.870127 0
M  V30 759 C 80.8692 -4.32734 1.50017 0
M  V30 760 N 82.3602 -4.39436 1.46458 0
M  V30 761 C 83.0952 -5.40248 1.92144 0
M  V30 762 N 82.5912 -6.47726 2.4581 0
M  V30 763 N 84.3842 -5.31459 1.83052 0
M  V30 764 H 76.5352 -1.44483 1.55687 0
M  V30 765 H 78.7982 -0.689291 0.650831 0
M  V30 766 H 78.5042 -2.9269 1.95002 0
M  V30 767 H 78.3782 -3.75014 0.405486 0
M  V30 768 H 80.7652 -2.94581 -0.174871 0
M  V30 769 H 80.8462 -2.14148 1.39908 0
M  V30 770 H 80.4902 -4.39573 2.54437 0
M  V30 771 H 80.4202 -5.18025 0.946432 0
M  V30 772 H 82.9112 -3.62367 1.07231 0
M  V30 773 H 83.2242 -7.20863 2.78525 0
M  V30 774 H 81.5692 -6.48542 2.49836 0
M  V30 775 H 84.7602 -4.46396 1.40883 0
M  V30 776 H 84.9332 -6.09881 2.18973 0
M  V30 777 N 78.3393 -0.321999 -1.54275 0
M  V30 778 C 79.3023 0.531975 -2.22941 0
M  V30 779 C 80.3023 1.04478 -1.22234 0
M  V30 780 O 81.4923 0.937452 -1.46825 0
M  V30 781 C 78.6243 1.73874 -2.93224 0
M  V30 782 H 79.8173 -0.0682612 -2.99822 0
M  V30 783 H 77.3703 -0.0730644 -1.56129 0
M  V30 784 H 78.1053 2.37825 -2.20476 0
M  V30 785 H 77.8903 1.37847 -3.6707 0
M  V30 786 H 79.3803 2.34496 -3.45545 0
M  V30 787 N 79.8174 1.5752 -0.0501392 0
M  V30 788 C 80.7474 2.14502 0.922566 0
M  V30 789 C 81.7284 1.06642 1.3252 0
M  V30 790 O 82.9134 1.34577 1.4001 0
M  V30 791 C 80.0434 2.68916 2.19776 0
M  V30 792 C 78.9974 3.8175 1.93523 0
M  V30 793 C 78.3234 4.22677 3.27487 0
M  V30 794 C 79.6234 5.06932 1.25765 0
M  V30 795 H 81.3174 2.9603 0.447952 0
M  V30 796 H 78.8634 1.42401 0.214024 0
M  V30 797 H 80.8164 3.07419 2.88222 0
M  V30 798 H 79.5404 1.84578 2.69441 0
M  V30 799 H 78.1994 3.43718 1.27489 0
M  V30 800 H 77.8474 3.35291 3.74952 0
M  V30 801 H 77.5474 4.98725 3.1072 0
M  V30 802 H 79.0714 4.63779 3.97166 0
M  V30 803 H 80.4854 5.42888 1.84244 0
M  V30 804 H 78.8824 5.88116 1.19328 0
M  V30 805 H 79.9524 4.84337 0.233536 0
M  V30 806 N 81.2955 -0.223234 1.56011 0
M  V30 807 C 82.7115 -0.572856 1.48965 0
M  V30 808 C 82.9115 -1.87225 0.74492 0
M  V30 809 O 81.9675 -2.50899 0.283896 0
M  V30 810 C 83.2805 -0.653646 2.9351 0
M  V30 811 C 84.8285 -0.744386 3.0402 0
M  V30 812 C 85.3035 -0.856535 4.49919 0
M  V30 813 N 86.7945 -0.9208 4.53955 0
M  V30 814 C 87.5295 -1.02726 5.64123 0
M  V30 815 N 87.0255 -1.09777 6.84047 0
M  V30 816 N 88.8185 -1.06226 5.51971 0
M  V30 817 H 80.9695 0.629462 2.02858 0
M  V30 818 H 83.2325 0.220621 0.921971 0
M  V30 819 H 82.9385 0.231518 3.50937 0
M  V30 820 H 82.8125 -1.51781 3.45315 0
M  V30 821 H 85.1995 -1.61999 2.46658 0
M  V30 822 H 85.2805 0.14541 2.55386 0
M  V30 823 H 84.9245 0.0146069 5.07898 0
M  V30 824 H 84.8545 -1.76172 4.96257 0
M  V30 825 H 87.3455 -0.876694 3.6759 0
M  V30 826 H 87.6585 -1.17872 7.63758 0
M  V30 827 H 86.0035 -1.06693 6.86762 0
M  V30 828 H 89.1945 -1.00382 4.5721 0
M  V30 829 H 89.3675 -1.14177 6.37862 0
M  V30 830 N 82.7736 -1.49793 -0.48987 0
M  V30 831 C 83.6836 -1.70036 -1.61632 0
M  V30 832 C 84.6996 -0.583102 -1.63939 0
M  V30 833 O 85.8756 -0.859169 -1.82154 0
M  V30 834 C 82.9406 -1.77277 -2.97949 0
M  V30 835 C 82.0016 -3.00918 -3.06181 0
M  V30 836 C 81.2346 -3.07804 -4.35996 0
M  V30 837 O 81.4576 -2.21982 -5.25433 0
M  V30 838 O 80.3916 -4.00369 -4.49431 0
M  V30 839 H 84.2176 -2.65486 -1.47482 0
M  V30 840 H 81.8026 -1.33666 -0.667362 0
M  V30 841 H 83.6846 -1.84329 -3.78947 0
M  V30 842 H 82.3596 -0.850076 -3.12339 0
M  V30 843 H 81.2666 -2.99377 -2.2433 0
M  V30 844 H 82.5996 -3.92704 -2.96723 0
M  V30 845 N 84.2517 0.741722 -1.39055 0
M  V30 846 C 85.2147 1.83733 -1.37021 0
M  V30 847 C 86.2147 1.58542 -0.268534 0
M  V30 848 O 87.4047 1.66067 -0.526076 0
M  V30 849 C 84.5367 3.2141 -1.13617 0
M  V30 850 H 85.7297 1.86941 -2.34506 0
M  V30 851 H 83.2827 0.944676 -1.24521 0
M  V30 852 H 84.0177 3.23865 -0.167863 0
M  V30 853 H 83.8027 3.4109 -1.93391 0
M  V30 854 H 85.2927 4.01477 -1.14918 0
M  V30 855 N 85.7298 1.2412 0.971189 0
M  V30 856 C 86.9548 1.10667 1.75407 0
M  V30 857 C 87.3798 -0.337048 1.85056 0
M  V30 858 O 86.7378 -1.24396 1.31892 0
M  V30 859 C 86.7858 1.74726 3.15441 0
M  V30 860 O 85.8898 1.01566 3.99697 0
M  V30 861 H 85.2308 0.387341 0.539317 0
M  V30 862 H 87.7608 1.64358 1.2185 0
M  V30 863 H 87.7708 1.80341 3.6598 0
M  V30 864 H 86.4458 2.79773 3.07734 0
M  V30 865 H 85.0228 1.03713 3.58187 0
M  V30 866 N 87.2079 -1.17134 1.05439 0
M  V30 867 C 88.1379 -2.2342 0.678649 0
M  V30 868 C 89.1189 -1.66971 -0.32476 0
M  V30 869 O 90.3039 -1.93149 -0.201802 0
M  V30 870 C 87.4339 -3.47256 0.0552099 0
M  V30 871 C 86.3879 -4.16543 0.98365 0
M  V30 872 C 85.7139 -5.34231 0.223961 0
M  V30 873 C 87.0139 -4.68495 2.3089 0
M  V30 874 H 88.7079 -2.55105 1.56722 0
M  V30 875 H 86.2539 -1.2262 0.754998 0
M  V30 876 H 88.2069 -4.20828 -0.21946 0
M  V30 877 H 86.9309 -3.14846 -0.868319 0
M  V30 878 H 85.5899 -3.44887 1.24293 0
M  V30 879 H 85.2379 -4.98071 -0.702412 0
M  V30 880 H 84.9379 -5.81527 0.842627 0
M  V30 881 H 86.4619 -6.10585 -0.0433671 0
M  V30 882 H 87.8759 -5.33691 2.09396 0
M  V30 883 H 86.2729 -5.26379 2.88176 0
M  V30 884 H 87.3429 -3.85169 2.94572 0
M  V30 885 N 88.686 -0.835752 -1.33615 0
M  V30 886 C 90.102 -0.523139 -1.50783 0
M  V30 887 C 90.302 0.950171 -1.77691 0
M  V30 888 O 89.358 1.73411 -1.83534 0
M  V30 889 C 90.671 -1.39378 -2.66448 0
M  V30 890 C 92.219 -1.39223 -2.80332 0
M  V30 891 C 92.694 -2.24765 -3.99055 0
M  V30 892 N 94.185 -2.22458 -4.06284 0
M  V30 893 C 94.92 -2.85386 -4.97336 0
M  V30 894 N 94.416 -3.57354 -5.93523 0
M  V30 895 N 96.209 -2.74872 -4.90308 0
M  V30 896 H 88.36 -1.78952 -1.14411 0
M  V30 897 H 90.623 -0.763297 -0.562212 0
M  V30 898 H 90.329 -2.44061 -2.53234 0
M  V30 899 H 90.203 -1.0676 -3.61776 0
M  V30 900 H 92.59 -0.353136 -2.92979 0
M  V30 901 H 92.671 -1.75846 -1.85773 0
M  V30 902 H 92.315 -3.28732 -3.87167 0
M  V30 903 H 92.245 -1.85485 -4.92852 0
M  V30 904 H 94.736 -1.70119 -3.37443 0
M  V30 905 H 95.049 -4.02584 -6.59656 0
M  V30 906 H 93.394 -3.61461 -5.93608 0
M  V30 907 H 96.585 -2.18213 -4.14126 0
M  V30 908 H 96.758 -3.24199 -5.61069 0
M  V30 909 N 90.1641 1.46063 -0.591896 0
M  V30 910 C 91.3891 2.07226 -0.0850314 0
M  V30 911 C 91.8141 1.43625 1.21463 0
M  V30 912 O 91.1721 0.523305 1.73583 0
M  V30 913 C 91.2201 3.60554 0.0576567 0
M  V30 914 O 90.3241 3.97128 1.11188 0
M  V30 915 H 89.6651 0.660615 -0.0669568 0
M  V30 916 H 92.1951 1.8756 -0.81745 0
M  V30 917 H 92.2051 4.07165 0.2609 0
M  V30 918 H 90.8801 4.06235 -0.891416 0
M  V30 919 H 89.4571 3.62213 0.886356 0
M  V30 920 N 91.6422 0.330177 1.54103 0
M  V30 921 C 92.8882 -0.270806 2.00984 0
M  V30 922 C 93.2212 -1.51265 1.21789 0
M  V30 923 O 92.4962 -1.92142 0.301927 0
M  V30 924 C 92.7792 -0.598339 3.55094 0
M  V30 925 C 92.6322 0.654674 4.4501 0
M  V30 926 C 93.9512 -1.41334 4.16789 0
M  V30 927 H 91.0702 -0.0969531 0.730595 0
M  V30 928 H 93.7122 0.448066 1.84641 0
M  V30 929 H 91.8622 -1.21078 3.69151 0
M  V30 930 H 93.5342 1.29285 4.42813 0
M  V30 931 H 91.7772 1.28224 4.14416 0
M  V30 932 H 92.4482 0.380944 5.50684 0
M  V30 933 H 94.9242 -0.895597 4.06347 0
M  V30 934 H 93.8002 -1.61127 5.24718 0
M  V30 935 H 94.0612 -2.41146 3.70541 0
M  V30 936 N 93.1203 -1.57491 0.0584922 0
M  V30 937 C 94.5313 -1.80526 -0.476138 0
M  V30 938 C 94.8823 -0.971334 -1.70469 0
M  V30 939 O 94.0073 -0.190012 -2.15564 0
M  V30 940 C 94.6023 -3.27424 -0.870587 0
M  V30 941 C 93.1613 -3.51351 -1.35015 0
M  V30 942 C 92.3083 -2.75343 -0.32887 0
M  V30 943 H 95.2593 -1.56133 0.284312 0
M  V30 944 H 95.2803 -3.38745 -1.73299 0
M  V30 945 H 94.7923 -3.88093 0.0237627 0
M  V30 946 H 92.8933 -2.95971 -2.26345 0
M  V30 947 H 93.0063 -4.60059 -1.33726 0
M  V30 948 H 91.3703 -2.417 -0.803321 0
M  V30 949 H 92.1533 -3.38743 0.557521 0
M  V30 950 N 94.5984 0.214957 -1.56127 0
M  V30 951 C 96.0094 0.781386 -1.69562 0
M  V30 952 C 96.3604 1.84707 -0.66165 0
M  V30 953 O 95.4854 2.156 0.185927 0
M  V30 954 C 96.0804 1.42411 -3.07416 0
M  V30 955 C 94.6394 1.93786 -3.22683 0
M  V30 956 C 93.7864 0.800438 -2.65496 0
M  V30 957 H 96.7374 -0.00980633 -1.58697 0
M  V30 958 H 96.7584 2.29309 -3.0364 0
M  V30 959 H 96.2704 0.64826 -3.82648 0
M  V30 960 H 94.3714 2.74152 -2.52332 0
M  V30 961 H 94.4844 2.1133 -4.29973 0
M  V30 962 H 92.8484 1.2095 -2.2415 0
M  V30 963 H 93.6314 0.0371471 -3.4328 0
M  V30 964 N 96.0765 1.50051 0.48192 0
M  V30 965 C 97.3235 1.60498 1.23477 0
M  V30 966 C 97.6515 0.300331 1.92167 0
M  V30 967 O 96.9065 -0.713094 1.82246 0
M  V30 968 C 97.2055 2.72717 2.30998 0
M  V30 969 C 96.8715 4.13572 1.79636 0
M  V30 970 C 95.5335 4.519 1.65348 0
M  V30 971 C 97.8855 5.01649 1.41412 0
M  V30 972 C 95.2135 5.76057 1.11244 0
M  V30 973 C 97.5655 6.26343 0.887538 0
M  V30 974 C 96.2295 6.63483 0.731207 0
M  V30 975 H 95.4995 0.587303 0.451836 0
M  V30 976 H 98.1465 1.83948 0.532468 0
M  V30 977 H 96.4515 2.43312 3.07094 0
M  V30 978 H 98.1485 2.78006 2.88988 0
M  V30 979 H 94.7385 3.83329 1.91721 0
M  V30 980 H 98.9225 4.72679 1.51289 0
M  V30 981 H 94.1785 6.03516 0.978686 0
M  V30 982 H 98.3525 6.93958 0.582654 0
M  V30 983 H 95.9795 7.59568 0.309806 0
M  V30 984 N 97.5546 -0.734337 1.39446 0
M  V30 985 C 98.7826 -1.52358 1.39981 0
M  V30 986 C 99.1976 -1.88799 -0.0054975 0
M  V30 987 O 98.5546 -1.54146 -0.976998 0
M  V30 988 C 98.6056 -2.81072 2.27333 0
M  V30 989 O 98.3266 -2.46178 3.62392 0
M  V30 990 C 99.8276 -3.75096 2.36259 0
M  V30 991 H 97.0476 -0.470806 0.478103 0
M  V30 992 H 99.5916 -0.907339 1.83269 0
M  V30 993 H 97.7466 -3.39026 1.87457 0
M  V30 994 H 98.1606 -3.28866 4.08592 0
M  V30 995 H 99.6346 -4.62305 3.01626 0
M  V30 996 H 100.112 -4.16892 1.38194 0
M  V30 997 H 100.718 -3.23061 2.76608 0
M  V30 998 N 99.0327 -1.24633 -0.964593 0
M  V30 999 C 100.281 -1.08573 -1.70459 0
M  V30 1000 C 100.602 0.375655 -1.91347 0
M  V30 1001 O 99.8717 1.26779 -1.49345 0
M  V30 1002 H 98.4517 -0.398784 -0.631649 0
M  V30 1003 H 101.114 -1.56601 -1.16026 0
M  V30 1004 H 100.21 -1.58623 -2.68785 0
M  V30 1005 N 100.511 1.16574 -1.06058 0
M  V30 1006 C 101.441 2.23057 -0.690488 0
M  V30 1007 C 102.422 1.67141 0.315901 0
M  V30 1008 O 103.607 1.93253 0.191556 0
M  V30 1009 C 100.737 3.47222 -0.073625 0
M  V30 1010 C 99.6908 4.16016 -1.00573 0
M  V30 1011 C 99.0168 5.34104 -0.252289 0
M  V30 1012 C 100.317 4.67264 -2.33371 0
M  V30 1013 H 102.011 2.54271 -1.58072 0
M  V30 1014 H 99.5568 1.22218 -0.76149 0
M  V30 1015 H 101.51 4.20939 0.19714 0
M  V30 1016 H 100.234 3.15302 0.85161 0
M  V30 1017 H 98.8928 3.44223 -1.2612 0
M  V30 1018 H 98.5408 4.98437 0.675988 0
M  V30 1019 H 98.2408 5.81072 -0.873455 0
M  V30 1020 H 99.7648 6.10599 0.0109857 0
M  V30 1021 H 101.179 5.32573 -2.12223 0
M  V30 1022 H 99.5758 5.24843 -2.90963 0
M  V30 1023 H 100.646 3.83602 -2.96611 0
M  V30 1024 N 101.989 0.842826 1.3317 0
M  V30 1025 C 103.266 0.362216 1.92217 0
M  V30 1026 C 103.646 -1.15289 1.76838 0
M  V30 1027 O 102.994 -1.96914 1.15919 0
M  V30 1028 C 103.204 0.813495 3.39387 0
M  V30 1029 C 104.552 0.823804 4.16532 0
M  V30 1030 O 105.576 0.757358 3.48055 0
M  V30 1031 O 104.435 0.915193 5.38782 0
M  V30 1032 H 101.529 0.103317 0.820521 0
M  V30 1033 H 104.075 0.928942 1.42017 0
M  V30 1034 H 102.847 1.85624 3.4447 0
M  V30 1035 H 102.47 0.223561 3.96971 0
M  V30 1036 N 103.467 -1.45747 0.599634 0
M  V30 1037 C 104.715 -2.01893 0.0915472 0
M  V30 1038 C 105.036 -1.47155 -1.27946 0
M  V30 1039 O 104.306 -0.66273 -1.84349 0
M  V30 1040 H 102.886 -0.746363 0.0308524 0
M  V30 1041 H 105.548 -1.78645 0.779237 0
M  V30 1042 H 104.644 -3.1208 0.0353086 0
M  V30 1043 N 104.945 -0.338344 -1.53925 0
M  V30 1044 C 105.892 0.520845 -2.24846 0
M  V30 1045 C 106.862 1.09976 -1.24477 0
M  V30 1046 O 108.047 1.13735 -1.53196 0
M  V30 1047 C 105.187 1.6685 -3.02084 0
M  V30 1048 C 104.3 1.11739 -4.17299 0
M  V30 1049 C 103.435 2.23193 -4.82036 0
M  V30 1050 C 102.474 1.65407 -5.89328 0
M  V30 1051 N 101.611 2.70582 -6.47866 0
M  V30 1052 H 106.451 -0.0904881 -2.97863 0
M  V30 1053 H 103.988 -0.0564282 -1.46992 0
M  V30 1054 H 105.946 2.34407 -3.45122 0
M  V30 1055 H 104.576 2.2509 -2.31375 0
M  V30 1056 H 103.628 0.332919 -3.7894 0
M  V30 1057 H 104.94 0.654677 -4.94485 0
M  V30 1058 H 104.094 2.98626 -5.28117 0
M  V30 1059 H 102.833 2.72807 -4.04262 0
M  V30 1060 H 101.838 0.884779 -5.42634 0
M  V30 1061 H 103.063 1.16652 -6.69006 0
M  V30 1062 H 101.009 3.1946 -5.72959 0
M  V30 1063 H 100.926 2.28917 -7.20509 0
M  V30 1064 H 102.194 3.45799 -6.98601 0
M  V30 1065 N 106.423 1.57458 -0.0668435 0
M  V30 1066 C 107.651 1.97624 0.612565 0
M  V30 1067 C 108.066 0.94502 1.63447 0
M  V30 1068 O 107.423 -0.0689276 1.8237 0
M  V30 1069 C 107.474 3.37869 1.28555 0
M  V30 1070 O 107.195 4.3704 0.304557 0
M  V30 1071 C 108.696 3.92882 2.05325 0
M  V30 1072 H 105.916 0.650045 0.166381 0
M  V30 1073 H 108.46 2.04035 -0.137782 0
M  V30 1074 H 106.615 3.3256 1.98702 0
M  V30 1075 H 107.029 5.18565 0.786779 0
M  V30 1076 H 108.503 4.93247 2.47812 0
M  V30 1077 H 108.98 3.29156 2.9078 0
M  V30 1078 H 109.586 4.01577 1.40056 0
M  V30 1079 N 107.901 -0.206675 1.56239 0
M  V30 1080 C 109.317 -0.557025 1.49564 0
M  V30 1081 C 109.517 -1.86424 0.764735 0
M  V30 1082 O 108.573 -2.50584 0.310491 0
M  V30 1083 C 109.886 -0.622478 2.94186 0
M  V30 1084 C 111.434 -0.712099 3.04792 0
M  V30 1085 C 111.909 -0.808767 4.50803 0
M  V30 1086 N 113.4 -0.8726 4.54907 0
M  V30 1087 C 114.135 -0.967365 5.65181 0
M  V30 1088 N 113.631 -1.02515 6.85173 0
M  V30 1089 N 115.424 -1.00366 5.53067 0
M  V30 1090 H 107.575 0.650943 2.02179 0
M  V30 1091 H 109.838 0.230387 0.919579 0
M  V30 1092 H 109.544 0.268727 3.50672 0
M  V30 1093 H 109.418 -1.4811 3.46905 0
M  V30 1094 H 111.805 -1.59374 2.48363 0
M  V30 1095 H 111.886 0.172489 2.55218 0
M  V30 1096 H 111.53 0.0684754 5.07854 0
M  V30 1097 H 111.46 -1.70899 4.98098 0
M  V30 1098 H 113.951 -0.837657 3.68499 0
M  V30 1099 H 114.264 -1.09765 7.64965 0
M  V30 1100 H 112.609 -0.994026 6.87855 0
M  V30 1101 H 115.8 -0.95527 4.58249 0
M  V30 1102 H 115.973 -1.07405 6.39037 0
M  V30 1103 N 109.379 -1.50304 -0.473955 0
M  V30 1104 C 110.309 -1.71886 -1.58042 0
M  V30 1105 C 111.29 -0.567799 -1.60344 0
M  V30 1106 O 112.475 -0.806623 -1.76656 0
M  V30 1107 C 109.605 -1.81036 -2.96384 0
M  V30 1108 C 108.559 -2.962 -3.08949 0
M  V30 1109 C 107.885 -2.9049 -4.48909 0
M  V30 1110 C 109.185 -4.36752 -2.86434 0
M  V30 1111 H 110.879 -2.64527 -1.40234 0
M  V30 1112 H 108.425 -1.27295 -0.673201 0
M  V30 1113 H 110.378 -1.94719 -3.73714 0
M  V30 1114 H 109.102 -0.850147 -3.15341 0
M  V30 1115 H 107.761 -2.82164 -2.3405 0
M  V30 1116 H 107.409 -1.92321 -4.64781 0
M  V30 1117 H 107.109 -3.67802 -4.58253 0
M  V30 1118 H 108.633 -3.06218 -5.28264 0
M  V30 1119 H 110.047 -4.5133 -3.53517 0
M  V30 1120 H 108.444 -5.15493 -3.07225 0
M  V30 1121 H 109.514 -4.49321 -1.82316 0
M  V30 1122 N 110.857 0.726932 -1.39834 0
M  V30 1123 C 111.789 1.85147 -1.35104 0
M  V30 1124 C 112.802 1.60736 -0.258392 0
M  V30 1125 O 113.991 1.70821 -0.517931 0
M  V30 1126 C 111.091 3.21332 -1.07697 0
M  V30 1127 C 110.264 3.73033 -2.28396 0
M  V30 1128 C 109.323 4.87802 -1.97322 0
M  V30 1129 O 108.349 5.01043 -2.70083 0
M  V30 1130 N 109.551 5.72768 -0.944273 0
M  V30 1131 H 112.316 1.89706 -2.32017 0
M  V30 1132 H 109.877 0.908006 -1.3404 0
M  V30 1133 H 111.869 3.95691 -0.849144 0
M  V30 1134 H 110.439 3.11992 -0.194909 0
M  V30 1135 H 109.659 2.89934 -2.6708 0
M  V30 1136 H 110.947 4.0431 -3.08887 0
M  V30 1137 H 110.345 5.64669 -0.341427 0
M  V30 1138 H 108.902 6.4716 -0.776346 0
M  V30 1139 N 112.336 1.25143 0.95797 0
M  V30 1140 C 113.584 1.09476 1.69881 0
M  V30 1141 C 113.905 -0.365502 1.91544 0
M  V30 1142 O 113.175 -1.25985 1.50015 0
M  V30 1143 H 111.755 0.402128 0.629525 0
M  V30 1144 H 114.417 1.57214 1.15194 0
M  V30 1145 H 113.513 1.60046 2.6794 0
M  V30 1146 N 113.814 -1.1601 1.06675 0
M  V30 1147 C 115.06 -1.86909 0.786945 0
M  V30 1148 C 115.393 -1.81717 -0.685018 0
M  V30 1149 O 114.668 -1.23551 -1.50218 0
M  V30 1150 C 114.951 -3.36313 1.28707 0
M  V30 1151 C 114.804 -3.50175 2.82308 0
M  V30 1152 C 116.123 -4.3084 0.898071 0
M  V30 1153 H 113.242 -0.678677 0.287343 0
M  V30 1154 H 115.884 -1.36336 1.32334 0
M  V30 1155 H 114.034 -3.79513 0.830768 0
M  V30 1156 H 115.706 -3.15886 3.36175 0
M  V30 1157 H 113.949 -2.91959 3.20847 0
M  V30 1158 H 114.62 -4.55116 3.12368 0
M  V30 1159 H 117.096 -3.95561 1.29114 0
M  V30 1160 H 115.972 -5.33876 1.27543 0
M  V30 1161 H 116.233 -4.41662 -0.196651 0
M  V30 1162 N 115.292 -0.849877 -1.32721 0
M  V30 1163 C 116.52 -0.464754 -2.01613 0
M  V30 1164 C 116.935 0.937191 -1.63897 0
M  V30 1165 O 116.292 1.61081 -0.857856 0
M  V30 1166 C 116.343 -0.588638 -3.56675 0
M  V30 1167 O 116.064 -1.93535 -3.93034 0
M  V30 1168 C 117.565 -0.2019 -4.4284 0
M  V30 1169 H 114.785 -0.183215 -0.645502 0
M  V30 1170 H 117.329 -1.1455 -1.69407 0
M  V30 1171 H 115.484 0.0443159 -3.87375 0
M  V30 1172 H 115.898 -1.92871 -4.87751 0
M  V30 1173 H 117.372 -0.339599 -5.50954 0
M  V30 1174 H 117.849 0.857224 -4.30753 0
M  V30 1175 H 118.455 -0.809733 -4.17521 0
M  V30 1176 N 116.77 1.45427 -0.607355 0
M  V30 1177 C 118.017 2.02241 -0.102455 0
M  V30 1178 C 118.345 1.4758 1.26691 0
M  V30 1179 O 117.6 0.640468 1.84923 0
M  V30 1180 C 117.899 3.57398 -0.0129263 0
M  V30 1181 C 117.565 4.3121 -1.31792 0
M  V30 1182 C 116.227 4.51092 -1.67539 0
M  V30 1183 C 118.579 4.73401 -2.18039 0
M  V30 1184 C 115.907 5.10422 -2.89285 0
M  V30 1185 C 118.259 5.34078 -3.39034 0
M  V30 1186 C 116.923 5.52184 -3.75033 0
M  V30 1187 H 116.193 0.740051 -0.037491 0
M  V30 1188 H 118.84 1.74494 -0.788926 0
M  V30 1189 H 117.145 3.84421 0.756806 0
M  V30 1190 H 118.842 3.99061 0.393881 0
M  V30 1191 H 115.432 4.16047 -1.02968 0
M  V30 1192 H 119.616 4.57774 -1.91721 0
M  V30 1193 H 114.872 5.22629 -3.17283 0
M  V30 1194 H 119.046 5.65724 -4.06115 0
M  V30 1195 H 116.673 5.97925 -4.69457 0
M  V30 1196 N 118.248 0.346503 1.53744 0
M  V30 1197 C 119.211 -0.496439 2.23759 0
M  V30 1198 C 120.211 -1.0252 1.2388 0
M  V30 1199 O 121.401 -0.913974 1.48297 0
M  V30 1200 C 118.533 -1.69187 2.95954 0
M  V30 1201 H 119.726 0.115952 2.99676 0
M  V30 1202 H 117.279 0.0978939 1.55993 0
M  V30 1203 H 118.014 -2.34288 2.24231 0
M  V30 1204 H 117.799 -1.31989 3.69217 0
M  V30 1205 H 119.289 -2.28969 3.49232 0
M  V30 1206 N 119.726 -1.57421 0.075193 0
M  V30 1207 C 121.003 -1.85029 -0.634329 0
M  V30 1208 C 121.383 -0.968305 -1.87582 0
M  V30 1209 O 120.731 -0.0354749 -2.28472 0
M  V30 1210 C 120.941 -3.35286 -0.968742 0
M  V30 1211 C 122.289 -4.02875 -1.34077 0
M  V30 1212 O 123.313 -3.40051 -1.06037 0
M  V30 1213 O 122.172 -5.13691 -1.86506 0
M  V30 1214 H 119.266 -0.7645 -0.315387 0
M  V30 1215 H 121.812 -1.69366 0.106382 0
M  V30 1216 H 120.584 -3.91203 -0.0871376 0
M  V30 1217 H 120.207 -3.56223 -1.7661 0
M  V30 1218 N 121.204 0.198386 -1.56346 0
M  V30 1219 C 122.167 1.22952 -1.93431 0
M  V30 1220 C 123.167 1.38611 -0.815092 0
M  V30 1221 O 124.357 1.36479 -1.08255 0
M  V30 1222 C 121.489 2.59946 -2.20546 0
M  V30 1223 H 122.682 0.912626 -2.85677 0
M  V30 1224 H 120.235 0.43977 -1.49986 0
M  V30 1225 H 120.97 2.96696 -1.30927 0
M  V30 1226 H 120.755 2.49953 -3.02102 0
M  V30 1227 H 122.245 3.3431 -2.50253 0
M  V30 1228 N 122.682 1.50554 0.465978 0
M  V30 1229 C 123.93 1.61479 1.21528 0
M  V30 1230 C 124.251 0.319596 1.92363 0
M  V30 1231 O 123.521 -0.663194 1.84333 0
M  V30 1232 H 122.101 0.595055 0.451573 0
M  V30 1233 H 124.763 1.87355 0.53704 0
M  V30 1234 H 123.859 2.42846 1.96042 0
M  V30 1235 N 124.16 -0.719506 1.40217 0
M  V30 1236 C 125.437 -1.47221 1.28784 0
M  V30 1237 C 125.817 -2.10883 -0.0956067 0
M  V30 1238 O 125.165 -1.99833 -1.10811 0
M  V30 1239 C 125.375 -2.5111 2.42373 0
M  V30 1240 C 126.723 -3.17053 2.82423 0
M  V30 1241 O 127.747 -2.61429 2.41937 0
M  V30 1242 O 126.606 -4.17742 3.52355 0
M  V30 1243 H 123.7 -0.654491 0.50554 0
M  V30 1244 H 126.246 -0.752014 1.52128 0
M  V30 1245 H 125.018 -2.02556 3.34793 0
M  V30 1246 H 124.641 -3.3067 2.20778 0
M  V30 1247 N 125.638 -1.25649 -0.95132 0
M  V30 1248 C 126.884 -1.10757 -1.69884 0
M  V30 1249 C 127.217 0.350061 -1.91019 0
M  V30 1250 O 126.492 1.25783 -1.48354 0
M  V30 1251 C 126.775 -1.86606 -3.07978 0
M  V30 1252 C 126.628 -3.40217 -2.94232 0
M  V30 1253 C 127.947 -1.65182 -4.07925 0
M  V30 1254 H 125.066 -0.40374 -0.616574 0
M  V30 1255 H 127.708 -1.54521 -1.10558 0
M  V30 1256 H 125.858 -1.49409 -3.58621 0
M  V30 1257 H 127.53 -3.87108 -2.50889 0
M  V30 1258 H 125.773 -3.67759 -2.30078 0
M  V30 1259 H 126.444 -3.88505 -3.92133 0
M  V30 1260 H 128.92 -1.9757 -3.66204 0
M  V30 1261 H 127.796 -2.20683 -5.02583 0
M  V30 1262 H 128.057 -0.593933 -4.38092 0
M  V30 1263 N 127.117 1.15442 -1.07289 0
M  V30 1264 C 128.366 1.85557 -0.790669 0
M  V30 1265 C 128.679 1.83186 0.685739 0
M  V30 1266 O 129.885 2.48977 1.0827 0
M  V30 1267 C 128.341 3.33038 -1.36433 0
M  V30 1268 C 127.949 3.43856 -2.8717 0
M  V30 1269 C 129.693 4.0834 -1.1601 0
M  V30 1270 C 127.6 4.85482 -3.3773 0
M  V30 1271 H 126.53 0.695122 -0.292098 0
M  V30 1272 H 129.181 1.30219 -1.29287 0
M  V30 1273 H 127.563 3.88043 -0.789864 0
M  V30 1274 H 128.737 2.98961 -3.50655 0
M  V30 1275 H 127.052 2.81998 -3.06376 0
M  V30 1276 H 129.649 5.12859 -1.51262 0
M  V30 1277 H 129.992 4.16182 -0.0991007 0
M  V30 1278 H 130.525 3.59603 -1.70089 0
M  V30 1279 H 127.264 4.82823 -4.43353 0
M  V30 1280 H 126.784 5.30961 -2.78999 0
M  V30 1281 H 128.463 5.54335 -3.33648 0
M  V30 1282 N 128.595 0.856903 1.32268 0
M  V30 1283 C 129.525 0.31858 2.31316 0
M  V30 1284 C 130.506 -0.583487 1.59779 0
M  V30 1285 O 131.691 -0.503259 1.87566 0
M  V30 1286 C 128.821 -0.491979 3.43798 0
M  V30 1287 C 127.775 0.315849 4.26833 0
M  V30 1288 C 127.101 -0.619586 5.31098 0
M  V30 1289 C 128.401 1.54282 4.98993 0
M  V30 1290 H 130.095 1.14621 2.76591 0
M  V30 1291 H 127.641 0.552613 1.32974 0
M  V30 1292 H 129.594 -0.879012 4.1213 0
M  V30 1293 H 128.318 -1.35299 2.97257 0
M  V30 1294 H 126.977 0.684664 3.6015 0
M  V30 1295 H 126.625 -1.47751 4.8081 0
M  V30 1296 H 126.325 -0.0830621 5.87541 0
M  V30 1297 H 127.849 -1.00375 6.02293 0
M  V30 1298 H 129.263 1.22796 5.59995 0
M  V30 1299 H 127.66 2.01745 5.65172 0
M  V30 1300 H 128.73 2.30285 4.26728 0
M  V30 1301 N 130.073 -1.45103 0.615059 0
M  V30 1302 C 131.484 -1.85654 0.197383 0
M  V30 1303 C 131.835 -1.51433 -1.24749 0
M  V30 1304 O 130.96 -0.944608 -1.94695 0
M  V30 1305 C 131.555 -3.36972 0.351448 0
M  V30 1306 C 130.114 -3.76398 -0.011593 0
M  V30 1307 C 129.261 -2.69024 0.672394 0
M  V30 1308 H 132.212 -1.35797 0.821263 0
M  V30 1309 H 132.233 -3.78239 -0.414227 0
M  V30 1310 H 131.745 -3.61847 1.40314 0
M  V30 1311 H 129.846 -3.5714 -1.06217 0
M  V30 1312 H 129.959 -4.77532 0.387265 0
M  V30 1313 H 128.323 -2.54465 0.109284 0
M  V30 1314 H 129.106 -2.96735 1.72636 0
M  V30 1315 N 131.551 -0.354651 -1.53558 0
M  V30 1316 C 132.776 0.242153 -2.05981 0
M  V30 1317 C 133.201 1.42553 -1.2272 0
M  V30 1318 O 132.559 1.79656 -0.243604 0
M  V30 1319 C 132.607 0.624367 -3.55154 0
M  V30 1320 O 131.711 1.72301 -3.74681 0
M  V30 1321 H 131.052 0.0378432 -0.662921 0
M  V30 1322 H 133.582 -0.512087 -1.98088 0
M  V30 1323 H 133.592 0.898433 -3.97985 0
M  V30 1324 H 132.267 -0.240989 -4.15201 0
M  V30 1325 H 130.844 1.44535 -3.4375 0
M  V30 1326 N 133.029 1.57378 -0.0835403 0
M  V30 1327 C 133.959 2.1641 0.87686 0
M  V30 1328 C 134.94 1.09429 1.30228 0
M  V30 1329 O 136.125 1.37516 1.37124 0
M  V30 1330 C 133.255 2.73517 2.14022 0
M  V30 1331 C 132.209 3.85769 1.85381 0
M  V30 1332 C 131.535 4.29529 3.18448 0
M  V30 1333 C 132.835 5.09486 1.14984 0
M  V30 1334 H 134.529 2.96914 0.385059 0
M  V30 1335 H 132.075 1.42823 0.18377 0
M  V30 1336 H 134.028 3.13463 2.81636 0
M  V30 1337 H 132.752 1.90252 2.65465 0
M  V30 1338 H 131.411 3.46345 1.20169 0
M  V30 1339 H 131.059 3.43169 3.67755 0
M  V30 1340 H 130.759 5.05204 3.00071 0
M  V30 1341 H 132.283 4.72099 3.8724 0
M  V30 1342 H 133.697 5.46674 1.72687 0
M  V30 1343 H 132.094 5.90515 1.06826 0
M  V30 1344 H 133.164 4.84724 0.130749 0
M  V30 1345 N 134.507 -0.190092 1.56449 0
M  V30 1346 C 135.417 -1.25591 1.98152 0
M  V30 1347 C 136.433 -1.49519 0.889944 0
M  V30 1348 O 137.609 -1.62036 1.19609 0
M  V30 1349 C 134.674 -2.57916 2.3169 0
M  V30 1350 C 133.735 -2.42015 3.5458 0
M  V30 1351 C 132.968 -3.6803 3.8651 0
M  V30 1352 O 133.191 -4.72413 3.1966 0
M  V30 1353 O 132.125 -3.6326 4.79923 0
M  V30 1354 H 135.951 -0.931988 2.89046 0
M  V30 1355 H 133.536 -0.395488 1.4407 0
M  V30 1356 H 135.418 -3.36008 2.54316 0
M  V30 1357 H 134.093 -2.89925 1.43963 0
M  V30 1358 H 133 -1.62017 3.37196 0
M  V30 1359 H 134.333 -2.14937 4.4279 0
M  V30 1360 N 135.985 -1.50799 -0.457987 0
M  V30 1361 C 137.396 -1.55152 -1.0385 0
M  V30 1362 C 137.747 -0.362719 -1.92818 0
M  V30 1363 O 136.872 0.522915 -2.09987 0
M  V30 1364 C 137.467 -2.81173 -1.89017 0
M  V30 1365 C 136.026 -2.88164 -2.42154 0
M  V30 1366 C 135.173 -2.49591 -1.20829 0
M  V30 1367 H 138.124 -1.56874 -0.240068 0
M  V30 1368 H 138.145 -2.63769 -2.74238 0
M  V30 1369 H 137.657 -3.67677 -1.24238 0
M  V30 1370 H 135.758 -2.06042 -3.10447 0
M  V30 1371 H 135.871 -3.91356 -2.76364 0
M  V30 1372 H 134.235 -2.02322 -1.54719 0
M  V30 1373 H 135.018 -3.38418 -0.576927 0
M  V30 1374 N 137.463 0.71206 -1.40597 0
M  V30 1375 C 138.395 1.83704 -1.37061 0
M  V30 1376 C 139.408 1.60453 -0.275426 0
M  V30 1377 O 140.597 1.70262 -0.53602 0
M  V30 1378 C 137.697 3.20172 -1.11099 0
M  V30 1379 C 136.87 3.7059 -2.3234 0
M  V30 1380 C 135.929 4.85681 -2.02485 0
M  V30 1381 O 134.955 4.9815 -2.75382 0
M  V30 1382 N 136.157 5.71735 -1.00497 0
M  V30 1383 H 138.922 1.87235 -2.34016 0
M  V30 1384 H 136.483 0.893739 -1.34996 0
M  V30 1385 H 138.475 3.94768 -0.891064 0
M  V30 1386 H 137.045 3.11767 -0.227989 0
M  V30 1387 H 136.265 2.87085 -2.7014 0
M  V30 1388 H 137.553 4.01011 -3.13157 0
M  V30 1389 H 136.951 5.64275 -0.401298 0
M  V30 1390 H 135.508 6.463 -0.844942 0
M  V30 1391 N 138.941 1.26152 0.944643 0
M  V30 1392 C 139.871 1.09902 2.06019 0
M  V30 1393 C 140.852 0.00519538 1.70099 0
M  V30 1394 O 142.037 0.176583 1.93396 0
M  V30 1395 C 139.167 0.727562 3.39594 0
M  V30 1396 C 138.121 1.77274 3.89561 0
M  V30 1397 C 137.447 1.25569 5.19747 0
M  V30 1398 C 138.747 3.17357 4.14827 0
M  V30 1399 H 140.441 2.03217 2.19871 0
M  V30 1400 H 137.987 0.978452 1.05652 0
M  V30 1401 H 139.94 0.600777 4.17095 0
M  V30 1402 H 138.664 -0.241287 3.25707 0
M  V30 1403 H 137.323 1.88814 3.14237 0
M  V30 1404 H 136.971 0.276783 5.02238 0
M  V30 1405 H 136.671 1.95433 5.54148 0
M  V30 1406 H 138.195 1.1415 5.99835 0
M  V30 1407 H 139.609 3.08914 4.82954 0
M  V30 1408 H 138.006 3.84781 4.60504 0
M  V30 1409 H 139.076 3.63673 3.20734 0
M  V30 1410 N 140.419 -1.14872 1.07899 0
M  V30 1411 C 141.382 -2.17986 0.708161 0
M  V30 1412 C 142.382 -1.58775 -0.25442 0
M  V30 1413 O 143.572 -1.74166 -0.034645 0
M  V30 1414 C 140.704 -3.40871 0.0446929 0
M  V30 1415 H 141.897 -2.52306 1.62116 0
M  V30 1416 H 139.45 -1.2943 0.876218 0
M  V30 1417 H 140.185 -3.12124 -0.880281 0
M  V30 1418 H 139.97 -3.8511 0.737091 0
M  V30 1419 H 141.46 -4.17121 -0.19991 0
M  V30 1420 N 141.898 -0.863906 -1.31812 0
M  V30 1421 C 142.848 -0.286898 -2.26188 0
M  V30 1422 C 143.832 0.572577 -1.50367 0
M  V30 1423 O 145.024 0.420447 -1.71934 0
M  V30 1424 C 142.153 0.515849 -3.39402 0
M  V30 1425 C 141.239 -0.356531 -4.22599 0
M  V30 1426 N 141.63 -1.44716 -4.84656 0
M  V30 1427 C 139.928 -0.147898 -4.45755 0
M  V30 1428 C 140.629 -1.98462 -5.46798 0
M  V30 1429 N 139.605 -1.28247 -5.28255 0
M  V30 1430 H 143.407 -1.12055 -2.717 0
M  V30 1431 H 140.921 -0.711012 -1.46008 0
M  V30 1432 H 142.918 0.945701 -4.06032 0
M  V30 1433 H 141.578 1.34718 -2.95434 0
M  V30 1434 H 142.589 -1.83008 -4.84488 0
M  V30 1435 H 139.266 0.647973 -4.12441 0
M  V30 1436 H 140.656 -2.89932 -6.06126 0
M  V30 1437 N 143.376 1.44774 -0.622745 0
M  V30 1438 C 144.653 1.95522 -0.0551974 0
M  V30 1439 C 145.033 1.5649 1.41683 0
M  V30 1440 O 144.381 0.834848 2.12703 0
M  V30 1441 C 144.591 3.4796 -0.269242 0
M  V30 1442 C 145.939 4.24306 -0.158014 0
M  V30 1443 O 146.963 3.55637 -0.200162 0
M  V30 1444 O 145.822 5.46471 -0.0558693 0
M  V30 1445 H 142.916 0.826556 0.0271015 0
M  V30 1446 H 145.462 1.54866 -0.693864 0
M  V30 1447 H 144.234 3.6939 -1.29099 0
M  V30 1448 H 143.857 3.95543 0.403966 0
M  V30 1449 N 144.854 0.36279 1.53368 0
M  V30 1450 C 146.27 0.0116182 1.59596 0
M  V30 1451 C 146.47 -1.47012 1.37803 0
M  V30 1452 O 145.526 -2.23136 1.18181 0
M  V30 1453 C 146.839 0.465052 2.97082 0
M  V30 1454 C 148.387 0.419033 3.10182 0
M  V30 1455 C 148.862 0.848235 4.50077 0
M  V30 1456 N 150.353 0.803183 4.56183 0
M  V30 1457 C 151.088 1.107 5.62613 0
M  V30 1458 N 150.584 1.47996 6.76808 0
M  V30 1459 N 152.377 1.02998 5.52583 0
M  V30 1460 H 144.528 1.32775 1.65785 0
M  V30 1461 H 146.791 0.542518 0.777417 0
M  V30 1462 H 146.497 1.49892 3.18159 0
M  V30 1463 H 146.371 -0.149786 3.76902 0
M  V30 1464 H 148.758 -0.605696 2.88817 0
M  V30 1465 H 148.839 1.06933 2.32377 0
M  V30 1466 H 148.483 1.87107 4.7218 0
M  V30 1467 H 148.413 0.175218 5.26308 0
M  V30 1468 H 150.904 0.52838 3.74188 0
M  V30 1469 H 151.217 1.69613 7.53957 0
M  V30 1470 H 149.562 1.51859 6.78206 0
M  V30 1471 H 152.753 0.737817 4.62249 0
M  V30 1472 H 152.926 1.2701 6.35431 0
M  V30 1473 N 146.332 -1.57332 0.0918853 0
M  V30 1474 C 147.581 -1.93412 -0.572249 0
M  V30 1475 C 147.894 -0.975515 -1.69538 0
M  V30 1476 O 149.1 -1.22991 -2.42045 0
M  V30 1477 C 147.556 -3.43648 -1.0693 0
M  V30 1478 C 147.164 -4.47994 0.0239049 0
M  V30 1479 C 148.908 -3.88695 -1.70635 0
M  V30 1480 C 146.815 -5.89381 -0.488319 0
M  V30 1481 H 145.745 -0.721939 -0.217532 0
M  V30 1482 H 148.396 -1.82735 0.167369 0
M  V30 1483 H 146.778 -3.49466 -1.8625 0
M  V30 1484 H 147.952 -4.53815 0.799277 0
M  V30 1485 H 146.267 -4.12536 0.565946 0
M  V30 1486 H 148.864 -4.91725 -2.10025 0
M  V30 1487 H 149.207 -3.27166 -2.57426 0
M  V30 1488 H 149.74 -3.85564 -0.979023 0
M  V30 1489 H 146.479 -6.54602 0.342906 0
M  V30 1490 H 145.999 -5.87037 -1.23077 0
M  V30 1491 H 147.678 -6.39863 -0.958317 0
M  V30 1492 N 147.81 0.181792 -1.56548 0
M  V30 1493 C 149.038 0.915947 -1.85521 0
M  V30 1494 C 149.453 1.76282 -0.676016 0
M  V30 1495 O 148.81 1.79012 0.355077 0
M  V30 1496 C 148.861 1.80126 -3.13427 0
M  V30 1497 O 148.582 0.988562 -4.26801 0
M  V30 1498 C 150.083 2.64597 -3.55673 0
M  V30 1499 H 147.303 0.26661 -0.61576 0
M  V30 1500 H 149.847 0.185039 -2.03661 0
M  V30 1501 H 148.002 2.48563 -2.97145 0
M  V30 1502 H 148.416 1.59308 -4.99721 0
M  V30 1503 H 149.89 3.2235 -4.48101 0
M  V30 1504 H 150.367 3.38958 -2.79292 0
M  V30 1505 H 150.973 2.0151 -3.74532 0
M  V30 1506 N 149.288 1.51039 0.449983 0
M  V30 1507 C 150.198 1.74261 1.57067 0
M  V30 1508 C 151.214 0.626363 1.62335 0
M  V30 1509 O 152.39 0.907162 1.79812 0
M  V30 1510 C 149.455 1.85114 2.93144 0
M  V30 1511 C 148.516 3.0893 2.98095 0
M  V30 1512 C 147.749 3.19256 4.27681 0
M  V30 1513 O 147.972 2.35835 5.19363 0
M  V30 1514 O 146.906 4.12144 4.38658 0
M  V30 1515 H 150.732 2.69303 1.40391 0
M  V30 1516 H 148.317 1.35389 0.631688 0
M  V30 1517 H 150.199 1.94311 3.73926 0
M  V30 1518 H 148.874 0.932588 3.09975 0
M  V30 1519 H 147.781 3.0522 2.16314 0
M  V30 1520 H 149.114 4.00433 2.86206 0
M  V30 1521 N 150.766 -0.704594 1.40972 0
M  V30 1522 C 151.729 -1.80035 1.41845 0
M  V30 1523 C 152.729 -1.57774 0.310474 0
M  V30 1524 O 153.919 -1.64613 0.56992 0
M  V30 1525 C 151.051 -3.18284 1.22098 0
M  V30 1526 H 152.244 -1.80658 2.3938 0
M  V30 1527 H 149.797 -0.911329 1.26982 0
M  V30 1528 H 150.532 -3.23306 0.253672 0
M  V30 1529 H 150.317 -3.35843 2.02366 0
M  V30 1530 H 151.807 -3.98289 1.25522 0
M  V30 1531 N 152.244 -1.26651 -0.937939 0
M  V30 1532 C 153.207 -1.08546 -2.01867 0
M  V30 1533 C 154.207 -0.0327327 -1.60767 0
M  V30 1534 O 155.397 -0.276427 -1.71993 0
M  V30 1535 C 152.529 -0.651711 -3.34613 0
M  V30 1536 H 153.722 -2.04502 -2.1936 0
M  V30 1537 H 151.275 -1.09294 -1.11734 0
M  V30 1538 H 152.01 0.309696 -3.22818 0
M  V30 1539 H 151.795 -1.41189 -3.65798 0
M  V30 1540 H 153.285 -0.546973 -4.14002 0
M  V30 1541 N 153.722 1.14298 -1.08507 0
M  V30 1542 C 155.138 1.37347 -0.812901 0
M  V30 1543 C 155.338 1.93052 0.577325 0
M  V30 1544 O 154.394 2.14389 1.33393 0
M  V30 1545 C 155.707 2.33359 -1.89642 0
M  V30 1546 C 157.255 2.46996 -1.92255 0
M  V30 1547 C 157.73 3.46309 -2.99724 0
M  V30 1548 N 159.221 3.53853 -2.98902 0
M  V30 1549 C 159.956 4.3055 -3.787 0
M  V30 1550 N 159.452 5.10482 -4.6838 0
M  V30 1551 N 161.245 4.25757 -3.66998 0
M  V30 1552 H 153.396 0.764867 -1.9815 0
M  V30 1553 H 155.659 0.398966 -0.859959 0
M  V30 1554 H 155.365 1.99565 -2.89597 0
M  V30 1555 H 155.239 3.33274 -1.76659 0
M  V30 1556 H 157.626 2.80081 -0.929445 0
M  V30 1557 H 157.707 1.47039 -2.09316 0
M  V30 1558 H 157.351 3.13957 -3.99241 0
M  V30 1559 H 157.281 4.46049 -2.79907 0
M  V30 1560 H 159.772 2.96812 -2.33904 0
M  V30 1561 H 160.085 5.66284 -5.25873 0
M  V30 1562 H 158.43 5.09747 -4.72422 0
M  V30 1563 H 161.621 3.62383 -2.96304 0
M  V30 1564 H 161.794 4.85279 -4.29427 0
M  V30 1565 N 155.201 0.870884 1.31352 0
M  V30 1566 C 156.133 0.28455 2.27427 0
M  V30 1567 C 157.146 -0.552927 1.53123 0
M  V30 1568 O 158.335 -0.374771 1.74521 0
M  V30 1569 C 155.435 -0.615164 3.3327 0
M  V30 1570 C 154.608 0.190079 4.36987 0
M  V30 1571 C 153.667 -0.637917 5.22319 0
M  V30 1572 O 152.693 -0.065626 5.69162 0
M  V30 1573 N 153.895 -1.94973 5.46778 0
M  V30 1574 H 156.66 1.11017 2.7838 0
M  V30 1575 H 154.221 0.732458 1.44384 0
M  V30 1576 H 156.213 -1.1748 3.87273 0
M  V30 1577 H 154.783 -1.34146 2.82354 0
M  V30 1578 H 154.003 0.931165 3.83044 0
M  V30 1579 H 155.291 0.742579 5.03352 0
M  V30 1580 H 154.689 -2.4378 5.10478 0
M  V30 1581 H 153.246 -2.45713 6.03712 0
M  V30 1582 N 156.679 -1.44442 0.630414 0
M  V30 1583 C 157.925 -2.02351 0.134816 0
M  V30 1584 C 158.258 -1.4947 -1.23986 0
M  V30 1585 O 157.533 -0.678475 -1.82283 0
M  V30 1586 C 157.816 -3.59898 0.120707 0
M  V30 1587 C 157.669 -4.23063 1.52767 0
M  V30 1588 C 158.988 -4.36585 -0.555127 0
M  V30 1589 H 156.107 -0.73527 0.0504646 0
M  V30 1590 H 158.749 -1.72022 0.806751 0
M  V30 1591 H 156.899 -3.85868 -0.451477 0
M  V30 1592 H 158.571 -4.08202 2.14869 0
M  V30 1593 H 156.814 -3.80586 2.08175 0
M  V30 1594 H 157.485 -5.32071 1.46984 0
M  V30 1595 H 159.961 -4.16044 -0.0685429 0
M  V30 1596 H 158.837 -5.46294 -0.534185 0
M  V30 1597 H 159.098 -4.11138 -1.62535 0
M  V30 1598 N 158.157 -0.370918 -1.53173 0
M  V30 1599 C 159.573 -0.0200818 -1.59587 0
M  V30 1600 C 159.773 1.46279 -1.38581 0
M  V30 1601 O 158.829 2.22506 -1.19363 0
M  V30 1602 C 160.142 -0.4808 -2.96831 0
M  V30 1603 C 161.69 -0.435477 -3.09956 0
M  V30 1604 C 162.165 -0.872092 -4.4962 0
M  V30 1605 N 163.656 -0.827364 -4.55751 0
M  V30 1606 C 164.391 -1.13683 -5.62018 0
M  V30 1607 N 163.887 -1.51584 -6.76014 0
M  V30 1608 N 165.68 -1.05927 -5.52029 0
M  V30 1609 H 157.831 -1.33652 -1.65079 0
M  V30 1610 H 160.094 -0.546634 -0.774529 0
M  V30 1611 H 159.8 -1.51577 -3.1736 0
M  V30 1612 H 159.674 0.129796 -3.76977 0
M  V30 1613 H 162.061 0.590371 -2.89134 0
M  V30 1614 H 162.142 -1.08164 -2.31806 0
M  V30 1615 H 161.786 -1.89608 -4.71181 0
M  V30 1616 H 161.716 -0.203127 -5.26208 0
M  V30 1617 H 164.207 -0.548216 -3.73902 0
M  V30 1618 H 164.52 -1.73609 -7.53047 0
M  V30 1619 H 162.865 -1.55454 -6.77391 0
M  V30 1620 H 166.056 -0.762321 -4.61851 0
M  V30 1621 H 166.229 -1.30378 -6.34749 0
M  V30 1622 N 159.635 1.57281 -0.100228 0
M  V30 1623 C 160.883 1.94153 0.561157 0
M  V30 1624 C 161.204 0.983157 1.68401 0
M  V30 1625 O 160.474 0.0361132 1.95867 0
M  V30 1626 H 159.054 0.716791 0.210283 0
M  V30 1627 H 161.716 1.94202 -0.164765 0
M  V30 1628 H 160.812 2.96709 0.968008 0
M  V30 1629 N 161.113 -0.173488 1.56642 0
M  V30 1630 C 162.529 -0.525174 1.50712 0
M  V30 1631 C 162.729 -1.8476 0.804107 0
M  V30 1632 O 161.785 -2.49869 0.363574 0
M  V30 1633 C 163.098 -0.559937 2.95441 0
M  V30 1634 C 164.646 -0.647288 3.06234 0
M  V30 1635 C 165.121 -0.712963 4.52417 0
M  V30 1636 N 166.612 -0.775911 4.56655 0
M  V30 1637 C 167.347 -0.847264 5.67106 0
M  V30 1638 N 166.843 -0.879585 6.87194 0
M  V30 1639 N 168.636 -0.886117 5.55071 0
M  V30 1640 H 160.787 0.693681 2.00753 0
M  V30 1641 H 163.05 0.249841 0.914485 0
M  V30 1642 H 162.756 0.343049 3.50023 0
M  V30 1643 H 162.63 -1.40718 3.49969 0
M  V30 1644 H 165.017 -1.5407 2.51687 0
M  V30 1645 H 165.098 0.226586 2.54794 0
M  V30 1646 H 164.742 0.176183 5.07594 0
M  V30 1647 H 164.672 -1.60295 5.0161 0
M  V30 1648 H 167.163 -0.759304 3.70193 0
M  V30 1649 H 167.476 -0.935144 7.67121 0
M  V30 1650 H 165.821 -0.847898 6.89808 0
M  V30 1651 H 169.012 -0.857853 4.60172 0
M  V30 1652 H 169.185 -0.938263 6.41171 0
M  V30 1653 N 162.591 -1.51276 -0.441967 0
M  V30 1654 C 163.831 -1.65372 -1.20132 0
M  V30 1655 C 164.195 -0.359871 -1.88597 0
M  V30 1656 O 165.396 -0.376551 -2.66149 0
M  V30 1657 C 163.667 -2.8207 -2.1948 0
M  V30 1658 S 165.226 -3.16467 -3.03964 0
M  V30 1659 H 162.044 -0.582669 -0.407453 0
M  V30 1660 H 164.646 -1.89166 -0.493609 0
M  V30 1661 H 163.35 -3.74523 -1.67812 0
M  V30 1662 H 162.881 -2.6045 -2.94838 0
M  V30 1663 H 164.896 -2.62543 -4.21053 0
M  V30 1664 N 164.069 0.697108 -1.41344 0
M  V30 1665 C 165.485 1.00751 -1.2378 0
M  V30 1666 C 165.685 2.01105 -0.126066 0
M  V30 1667 O 164.741 2.47295 0.51004 0
M  V30 1668 C 166.054 1.53359 -2.58653 0
M  V30 1669 C 167.602 1.6525 -2.65822 0
M  V30 1670 C 168.077 2.2126 -4.01009 0
M  V30 1671 N 169.568 2.28622 -4.02847 0
M  V30 1672 C 170.303 2.72984 -5.04249 0
M  V30 1673 N 169.799 3.16962 -6.16041 0
M  V30 1674 N 171.592 2.72534 -4.91611 0
M  V30 1675 H 163.743 0.0322662 -2.12375 0
M  V30 1676 H 166.006 0.0768853 -0.944877 0
M  V30 1677 H 165.712 0.870773 -3.4075 0
M  V30 1678 H 165.586 2.51597 -2.81032 0
M  V30 1679 H 167.973 2.30644 -1.84086 0
M  V30 1680 H 168.054 0.655614 -2.47256 0
M  V30 1681 H 167.698 1.56482 -4.83193 0
M  V30 1682 H 167.628 3.21698 -4.16915 0
M  V30 1683 H 170.119 1.97585 -3.22131 0
M  V30 1684 H 170.432 3.49434 -6.89287 0
M  V30 1685 H 168.777 3.14875 -6.1958 0
M  V30 1686 H 171.968 2.37525 -4.0336 0
M  V30 1687 H 172.141 3.06789 -5.70775 0
M  V30 1688 N 165.547 1.27147 0.931209 0
M  V30 1689 C 166.793 1.13446 1.68101 0
M  V30 1690 C 167.126 -0.319628 1.91552 0
M  V30 1691 O 166.401 -1.23407 1.50336 0
M  V30 1692 C 166.684 1.91482 3.0497 0
M  V30 1693 C 166.537 3.44855 2.88782 0
M  V30 1694 C 167.856 1.71651 4.05246 0
M  V30 1695 H 164.975 0.413498 0.610072 0
M  V30 1696 H 167.617 1.56261 1.08086 0
M  V30 1697 H 165.767 1.55095 3.56199 0
M  V30 1698 H 167.439 3.9105 2.44698 0
M  V30 1699 H 165.682 3.71373 2.24198 0
M  V30 1700 H 166.353 3.94694 3.85902 0
M  V30 1701 H 168.829 2.0337 3.63015 0
M  V30 1702 H 167.705 2.28651 4.99009 0
M  V30 1703 H 167.966 0.663555 4.37092 0
M  V30 1704 N 167.025 -1.13721 1.09112 0
M  V30 1705 C 168.436 -1.6648 0.845068 0
M  V30 1706 C 168.787 -1.85911 -0.62701 0
M  V30 1707 O 167.912 -1.57556 -1.48341 0
M  V30 1708 C 168.507 -3.02413 1.52748 0
M  V30 1709 C 167.066 -3.52176 1.32849 0
M  V30 1710 C 166.213 -2.27492 1.58564 0
M  V30 1711 H 169.164 -0.976872 1.25072 0
M  V30 1712 H 169.185 -3.68223 0.958752 0
M  V30 1713 H 168.697 -2.88238 2.59885 0
M  V30 1714 H 166.798 -3.7156 0.278137 0
M  V30 1715 H 166.911 -4.32499 2.0611 0
M  V30 1716 H 165.275 -2.33923 1.00758 0
M  V30 1717 H 166.058 -2.15886 2.66924 0
M  V30 1718 N 168.503 -0.877838 -1.30888 0
M  V30 1719 C 169.749 -0.493426 -1.96706 0
M  V30 1720 C 170.082 0.953504 -1.6918 0
M  V30 1721 O 169.357 1.67266 -0.992594 0
M  V30 1722 C 169.64 -0.760429 -3.51979 0
M  V30 1723 C 169.493 -2.25747 -3.89048 0
M  V30 1724 C 170.812 -0.232148 -4.39487 0
M  V30 1725 H 167.931 -0.180746 -0.714493 0
M  V30 1726 H 170.573 -1.10052 -1.54882 0
M  V30 1727 H 168.723 -0.243715 -3.87735 0
M  V30 1728 H 170.395 -2.84204 -3.63354 0
M  V30 1729 H 168.638 -2.72694 -3.37373 0
M  V30 1730 H 169.309 -2.39491 -4.97341 0
M  V30 1731 H 171.785 -0.674314 -4.106 0
M  V30 1732 H 170.661 -0.448355 -5.47066 0
M  V30 1733 H 170.922 0.866297 -4.33529 0
M  V30 1734 N 169.982 1.44106 -0.638065 0
M  V30 1735 C 171.229 2.01978 -0.14533 0
M  V30 1736 C 171.557 1.50234 1.23532 0
M  V30 1737 O 170.812 0.679548 1.83523 0
M  V30 1738 C 171.111 3.5729 -0.0887327 0
M  V30 1739 C 170.777 4.28317 -1.40909 0
M  V30 1740 C 169.439 4.47437 -1.77069 0
M  V30 1741 C 171.791 4.6867 -2.28031 0
M  V30 1742 C 169.119 5.04171 -3.00047 0
M  V30 1743 C 171.471 5.26766 -3.50286 0
M  V30 1744 C 170.135 5.44104 -3.86661 0
M  V30 1745 H 169.405 0.739089 -0.0531801 0
M  V30 1746 H 172.052 1.72781 -0.825761 0
M  V30 1747 H 170.357 3.8594 0.675095 0
M  V30 1748 H 172.054 3.99807 0.309145 0
M  V30 1749 H 168.644 4.1377 -1.1177 0
M  V30 1750 H 172.828 4.53604 -2.01388 0
M  V30 1751 H 168.084 5.15782 -3.28298 0
M  V30 1752 H 172.258 5.56983 -4.18023 0
M  V30 1753 H 169.885 5.87832 -4.82034 0
M  V30 1754 N 171.46 0.379036 1.52974 0
M  V30 1755 C 172.39 -0.452706 2.29069 0
M  V30 1756 C 173.371 -1.07237 1.32039 0
M  V30 1757 O 174.556 -1.08708 1.60923 0
M  V30 1758 C 171.686 -1.5856 3.08992 0
M  V30 1759 C 170.64 -1.0925 4.13822 0
M  V30 1760 C 169.966 -2.31668 4.81907 0
M  V30 1761 C 171.266 -0.167702 5.22031 0
M  V30 1762 H 172.96 0.182181 2.98845 0
M  V30 1763 H 170.506 0.0890592 1.43724 0
M  V30 1764 H 172.459 -2.1742 3.6098 0
M  V30 1765 H 171.183 -2.24792 2.36931 0
M  V30 1766 H 169.842 -0.526494 3.628 0
M  V30 1767 H 169.49 -2.96386 4.06404 0
M  V30 1768 H 169.19 -1.9934 5.52754 0
M  V30 1769 H 170.714 -2.91189 5.36695 0
M  V30 1770 H 172.128 -0.664186 5.6944 0
M  V30 1771 H 170.525 0.0653265 6.00064 0
M  V30 1772 H 171.595 0.786347 4.78482 0
M  V30 1773 N 172.938 -1.57226 0.108567 0
M  V30 1774 C 174.186 -1.94448 -0.550853 0
M  V30 1775 C 174.507 -0.992074 -1.67878 0
M  V30 1776 O 173.777 -0.0465 -1.95845 0
M  V30 1777 H 172.357 -0.717897 -0.206479 0
M  V30 1778 H 175.019 -1.94112 0.175062 0
M  V30 1779 H 174.115 -2.97218 -0.952259 0
M  V30 1780 N 174.416 0.165178 -1.56732 0
M  V30 1781 C 175.664 0.879068 -1.8198 0
M  V30 1782 C 175.985 1.82514 -0.686561 0
M  V30 1783 O 175.255 1.93694 0.293146 0
M  V30 1784 H 173.835 0.327608 -0.671329 0
M  V30 1785 H 176.497 0.163526 -1.94213 0
M  V30 1786 H 175.593 1.45228 -2.76252 0
M  V30 1787 N 175.894 1.51508 0.433938 0
M  V30 1788 C 177.171 1.54888 1.19453 0
M  V30 1789 C 177.551 0.315154 2.08734 0
M  V30 1790 O 176.899 -0.699558 2.17528 0
M  V30 1791 C 177.109 2.86467 1.99342 0
M  V30 1792 C 178.457 3.38545 2.56267 0
M  V30 1793 O 179.481 2.88041 2.0955 0
M  V30 1794 O 178.34 4.26675 3.41483 0
M  V30 1795 H 175.434 0.622863 0.544032 0
M  V30 1796 H 177.98 1.63823 0.442732 0
M  V30 1797 H 176.752 3.67718 1.33788 0
M  V30 1798 H 176.375 2.8071 2.8158 0
M  V30 1799 N 177.372 -0.689602 1.41712 0
M  V30 1800 C 178.322 -1.79571 1.40493 0
M  V30 1801 C 179.306 -1.58473 0.278409 0
M  V30 1802 O 180.498 -1.69204 0.519532 0
M  V30 1803 C 177.627 -3.17923 1.29536 0
M  V30 1804 C 176.713 -3.44695 2.47075 0
M  V30 1805 N 177.104 -3.42132 3.72531 0
M  V30 1806 C 175.402 -3.75269 2.41017 0
M  V30 1807 C 176.103 -3.67976 4.50521 0
M  V30 1808 N 175.079 -3.88014 3.80718 0
M  V30 1809 H 178.881 -1.75961 2.35404 0
M  V30 1810 H 176.395 -0.889839 1.35851 0
M  V30 1811 H 178.392 -3.97167 1.26745 0
M  V30 1812 H 177.052 -3.22741 0.356153 0
M  V30 1813 H 178.063 -3.22375 4.05333 0
M  V30 1814 H 174.74 -3.87421 1.55599 0
M  V30 1815 H 176.13 -3.7208 5.59469 0
M  V30 1816 N 178.85 -1.27639 -0.924453 0
M  V30 1817 C 180.075 -1.17101 -1.71179 0
M  V30 1818 C 180.5 0.268134 -1.86179 0
M  V30 1819 O 179.858 1.19415 -1.36418 0
M  V30 1820 C 179.906 -1.86313 -3.08739 0
M  V30 1821 O 179.01 -1.16331 -3.95652 0
M  V30 1822 H 178.351 -0.407091 -0.524569 0
M  V30 1823 H 180.881 -1.68767 -1.15666 0
M  V30 1824 H 180.891 -1.938 -3.59034 0
M  V30 1825 H 179.566 -2.91001 -2.97138 0
M  V30 1826 H 178.143 -1.16935 -3.54091 0
M  V30 1827 N 180.328 1.1314 -1.09713 0
M  V30 1828 C 181.574 1.84757 -0.836224 0
M  V30 1829 C 181.907 1.8347 0.636598 0
M  V30 1830 O 181.182 1.27491 1.46889 0
M  V30 1831 C 181.465 3.32782 -1.37578 0
M  V30 1832 C 181.318 3.42567 -2.91493 0
M  V30 1833 C 182.637 4.28307 -1.01198 0
M  V30 1834 H 179.756 0.67082 -0.305236 0
M  V30 1835 H 182.398 1.3278 -1.35903 0
M  V30 1836 H 180.548 3.77177 -0.931097 0
M  V30 1837 H 182.22 3.06862 -3.44432 0
M  V30 1838 H 180.463 2.83349 -3.28475 0
M  V30 1839 H 181.134 4.46674 -3.24324 0
M  V30 1840 H 183.61 3.91999 -1.39556 0
M  V30 1841 H 182.486 5.30307 -1.41653 0
M  V30 1842 H 182.747 4.42029 0.0794833 0
M  V30 1843 N 181.806 0.884767 1.30421 0
M  V30 1844 C 183.031 0.517288 2.00845 0
M  V30 1845 C 183.456 -0.886779 1.65885 0
M  V30 1846 O 182.814 -1.58768 0.875354 0
M  V30 1847 C 182.862 0.698994 3.5376 0
M  V30 1848 O 181.966 -0.255208 4.1161 0
M  V30 1849 H 181.307 0.203872 0.631927 0
M  V30 1850 H 183.837 1.19225 1.66272 0
M  V30 1851 H 183.847 0.597912 4.03595 0
M  V30 1852 H 182.522 1.72271 3.78544 0
M  V30 1853 H 181.099 -0.10784 3.72744 0
M  V30 1854 N 183.284 -1.43765 0.645699 0
M  V30 1855 C 184.514 -2.05953 0.163318 0
M  V30 1856 C 184.922 -1.48432 -1.17322 0
M  V30 1857 O 184.265 -0.607295 -1.73371 0
M  V30 1858 C 184.327 -3.59499 -0.0103065 0
M  V30 1859 C 183.991 -4.39563 1.25035 0
M  V30 1860 C 184.988 -4.72108 2.17739 0
M  V30 1861 C 182.673 -4.79697 1.48983 0
M  V30 1862 C 184.667 -5.43688 3.3269 0
M  V30 1863 C 182.354 -5.51023 2.64229 0
M  V30 1864 C 183.352 -5.8294 3.55908 0
M  V30 1865 O 183.04 -6.5281 4.69142 0
M  V30 1866 H 182.772 -0.670798 0.0836986 0
M  V30 1867 H 185.326 -1.85384 0.884407 0
M  V30 1868 H 183.556 -3.78613 -0.78669 0
M  V30 1869 H 185.245 -4.03408 -0.449087 0
M  V30 1870 H 186.011 -4.41627 2.00476 0
M  V30 1871 H 181.89 -4.54266 0.785078 0
M  V30 1872 H 185.434 -5.68517 4.04269 0
M  V30 1873 H 181.331 -5.8092 2.81429 0
M  V30 1874 H 182.099 -6.71288 4.6831 0
M  V30 1875 N 184.763 -0.387143 -1.52771 0
M  V30 1876 C 186.174 0.0873634 -1.86495 0
M  V30 1877 C 186.525 1.46336 -1.30691 0
M  V30 1878 O 185.65 2.068 -0.637409 0
M  V30 1879 C 186.245 0.165305 -3.38396 0
M  V30 1880 C 184.804 0.584101 -3.7184 0
M  V30 1881 C 183.951 -0.255279 -2.76122 0
M  V30 1882 H 186.902 -0.605104 -1.46711 0
M  V30 1883 H 186.923 0.984848 -3.67534 0
M  V30 1884 H 186.435 -0.836301 -3.78982 0
M  V30 1885 H 184.536 1.59315 -3.36823 0
M  V30 1886 H 184.649 0.343749 -4.77865 0
M  V30 1887 H 183.013 0.279126 -2.53166 0
M  V30 1888 H 183.796 -1.25482 -3.19545 0
M  V30 1889 N 186.241 1.57166 -0.116904 0
M  V30 1890 C 187.171 2.18222 0.830759 0
M  V30 1891 C 188.152 1.12167 1.27877 0
M  V30 1892 O 189.337 1.40394 1.34176 0
M  V30 1893 C 186.467 2.77996 2.08172 0
M  V30 1894 C 185.421 3.89614 1.77157 0
M  V30 1895 C 184.747 4.36187 3.09265 0
M  V30 1896 C 186.047 5.1181 1.04151 0
M  V30 1897 H 187.741 2.97664 0.321992 0
M  V30 1898 H 185.287 1.4318 0.153434 0
M  V30 1899 H 187.24 3.19366 2.74924 0
M  V30 1900 H 185.964 1.9584 2.6137 0
M  V30 1901 H 184.623 3.48816 1.12796 0
M  V30 1902 H 184.271 3.50893 3.60393 0
M  V30 1903 H 183.971 5.11455 2.89288 0
M  V30 1904 H 185.495 4.80207 3.77139 0
M  V30 1905 H 186.909 5.50214 1.61052 0
M  V30 1906 H 185.306 5.92648 0.942762 0
M  V30 1907 H 186.376 4.84892 0.0279022 0
M  V30 1908 N 187.719 -0.156864 1.56817 0
M  V30 1909 C 188.649 -1.19589 2.00551 0
M  V30 1910 C 189.63 -1.4536 0.883426 0
M  V30 1911 O 190.815 -1.56449 1.15054 0
M  V30 1912 C 187.945 -2.53143 2.37773 0
M  V30 1913 C 186.899 -2.41913 3.53075 0
M  V30 1914 C 186.225 -3.80088 3.76081 0
M  V30 1915 C 187.525 -1.91157 4.86062 0
M  V30 1916 H 189.219 -0.832293 2.87599 0
M  V30 1917 H 186.765 -0.398918 1.38364 0
M  V30 1918 H 188.718 -3.26047 2.66967 0
M  V30 1919 H 187.442 -2.91319 1.4765 0
M  V30 1920 H 186.101 -1.71462 3.24031 0
M  V30 1921 H 185.749 -4.15683 2.83225 0
M  V30 1922 H 185.449 -3.73439 4.53671 0
M  V30 1923 H 186.973 -4.54556 4.0769 0
M  V30 1924 H 188.387 -2.53846 5.14038 0
M  V30 1925 H 186.784 -1.95422 5.67389 0
M  V30 1926 H 187.854 -0.866673 4.77092 0
M  V30 1927 N 189.197 -1.51736 -0.425897 0
M  V30 1928 C 190.613 -1.40166 -0.76326 0
M  V30 1929 C 190.813 -0.492962 -1.95377 0
M  V30 1930 O 189.869 0.0475815 -2.52455 0
M  V30 1931 C 191.182 -2.82403 -1.03291 0
M  V30 1932 C 192.73 -2.91632 -1.13665 0
M  V30 1933 C 193.205 -4.34801 -1.43916 0
M  V30 1934 N 194.696 -4.3796 -1.50816 0
M  V30 1935 C 195.431 -5.4578 -1.75817 0
M  V30 1936 N 194.927 -6.63744 -1.98534 0
M  V30 1937 N 196.72 -5.33274 -1.77694 0
M  V30 1938 H 188.871 -2.09361 0.358 0
M  V30 1939 H 191.134 -0.942941 0.0978094 0
M  V30 1940 H 190.84 -3.50943 -0.230696 0
M  V30 1941 H 190.714 -3.22428 -1.95754 0
M  V30 1942 H 193.101 -2.23284 -1.92947 0
M  V30 1943 H 193.182 -2.55088 -0.190756 0
M  V30 1944 H 192.826 -5.03703 -0.65157 0
M  V30 1945 H 192.756 -4.68868 -2.39729 0
M  V30 1946 H 195.247 -3.52919 -1.35118 0
M  V30 1947 H 195.56 -7.41704 -2.17013 0
M  V30 1948 H 193.905 -6.66839 -1.95832 0
M  V30 1949 H 197.096 -4.40098 -1.59473 0
M  V30 1950 H 197.269 -6.1738 -1.9684 0
M  V30 1951 N 190.675 0.682077 -1.42076 0
M  V30 1952 C 191.638 1.77756 -1.44691 0
M  V30 1953 C 192.638 1.5726 -0.335535 0
M  V30 1954 O 193.828 1.63686 -0.596037 0
M  V30 1955 C 190.96 3.16301 -1.27146 0
M  V30 1956 H 192.153 1.76826 -2.42224 0
M  V30 1957 H 189.706 0.891012 -1.28416 0
M  V30 1958 H 190.441 3.22862 -0.305075 0
M  V30 1959 H 190.226 3.32581 -2.07683 0
M  V30 1960 H 191.716 3.96241 -1.31843 0
M  V30 1961 N 192.153 1.28127 0.917671 0
M  V30 1962 C 193.4 1.15052 1.66641 0
M  V30 1963 C 193.728 -0.301677 1.92146 0
M  V30 1964 O 192.983 -1.23622 1.51711 0
M  V30 1965 C 193.282 1.89018 3.03327 0
M  V30 1966 C 192.948 3.38832 2.97496 0
M  V30 1967 C 191.61 3.79693 2.95613 0
M  V30 1968 C 193.962 4.34378 2.88036 0
M  V30 1969 C 191.29 5.14447 2.82066 0
M  V30 1970 C 193.642 5.69201 2.7603 0
M  V30 1971 C 192.306 6.09343 2.72502 0
M  V30 1972 H 191.576 0.421006 0.609783 0
M  V30 1973 H 194.223 1.58855 1.06945 0
M  V30 1974 H 192.528 1.37752 3.66785 0
M  V30 1975 H 194.225 1.76321 3.60156 0
M  V30 1976 H 190.815 3.06342 2.99754 0
M  V30 1977 H 194.999 4.03775 2.88581 0
M  V30 1978 H 190.255 5.44681 2.77728 0
M  V30 1979 H 194.429 6.42901 2.67678 0
M  V30 1980 H 192.056 7.13712 2.61762 0
M  V30 1981 N 193.631 -1.12557 1.10312 0
M  V30 1982 C 194.594 -2.16434 0.75424 0
M  V30 1983 C 195.594 -1.59278 -0.220685 0
M  V30 1984 O 196.784 -1.742 0.00230591 0
M  V30 1985 C 193.916 -3.40699 0.116987 0
M  V30 1986 H 195.109 -2.48811 1.67431 0
M  V30 1987 H 192.662 -1.27542 0.903475 0
M  V30 1988 H 193.397 -3.13921 -0.813877 0
M  V30 1989 H 193.182 -3.83459 0.818613 0
M  V30 1990 H 194.672 -4.17451 -0.111387 0
M  V30 1991 N 195.109 -0.891671 -1.2995 0
M  V30 1992 C 196.386 -0.433307 -1.9074 0
M  V30 1993 C 196.766 1.08646 -1.80995 0
M  V30 1994 O 196.114 1.92476 -1.23147 0
M  V30 1995 C 196.324 -0.938895 -3.36134 0
M  V30 1996 C 197.672 -0.977829 -4.13187 0
M  V30 1997 O 198.696 -0.886015 -3.45005 0
M  V30 1998 O 197.555 -1.11453 -5.35015 0
M  V30 1999 H 194.649 -0.133699 -0.816121 0
M  V30 2000 H 197.195 -0.981011 -1.38471 0
M  V30 2001 H 195.967 -1.98281 -3.37343 0
M  V30 2002 H 195.59 -0.37074 -3.95868 0
M  V30 2003 N 196.587 1.43421 -0.653314 0
M  V30 2004 C 197.833 2.02111 -0.166992 0
M  V30 2005 C 198.166 1.51423 1.21592 0
M  V30 2006 O 197.441 0.707389 1.8118 0
M  V30 2007 C 197.724 3.5966 -0.177948 0
M  V30 2008 C 197.577 4.20579 -1.59478 0
M  V30 2009 C 198.896 4.37413 0.4856 0
M  V30 2010 H 196.015 0.734374 -0.0621557 0
M  V30 2011 H 198.657 1.70717 -0.834016 0
M  V30 2012 H 196.807 3.86537 0.390032 0
M  V30 2013 H 198.479 4.04732 -2.21336 0
M  V30 2014 H 196.722 3.77226 -2.14204 0
M  V30 2015 H 197.393 5.29665 -1.5543 0
M  V30 2016 H 199.869 4.161 0.00234528 0
M  V30 2017 H 198.745 5.47075 0.447207 0
M  V30 2018 H 199.006 4.13672 1.55974 0
M  V30 2019 N 198.065 0.39524 1.52563 0
M  V30 2020 C 199.476 -0.0774719 1.86539 0
M  V30 2021 C 199.827 -1.45641 1.31466 0
M  V30 2022 O 198.952 -2.06459 0.648367 0
M  V30 2023 C 199.547 -0.147356 3.38479 0
M  V30 2024 C 198.106 -0.564373 3.72145 0
M  V30 2025 C 197.253 0.269919 2.75983 0
M  V30 2026 H 200.204 0.612876 1.46388 0
M  V30 2027 H 200.225 -0.965343 3.68051 0
M  V30 2028 H 199.737 0.856387 3.78534 0
M  V30 2029 H 197.838 -1.57527 3.37663 0
M  V30 2030 H 197.951 -0.318402 4.78041 0
M  V30 2031 H 196.315 -0.265696 2.5331 0
M  V30 2032 H 197.098 1.27175 3.18875 0
M  V30 2033 N 199.544 -1.57102 0.125237 0
M  V30 2034 C 200.821 -1.86953 -0.575142 0
M  V30 2035 C 201.201 -1.02749 -1.84407 0
M  V30 2036 O 200.549 -0.108144 -2.28244 0
M  V30 2037 C 200.759 -3.38198 -0.861583 0
M  V30 2038 C 202.107 -4.06937 -1.21192 0
M  V30 2039 O 203.131 -3.43252 -0.951645 0
M  V30 2040 O 201.99 -5.19364 -1.70068 0
M  V30 2041 H 199.084 -0.774147 -0.290906 0
M  V30 2042 H 201.63 -1.68942 0.160211 0
M  V30 2043 H 200.402 -3.91282 0.0373647 0
M  V30 2044 H 200.025 -3.61661 -1.65188 0
M  V30 2045 N 201.022 0.148545 -1.56898 0
M  V30 2046 C 201.952 1.18524 -2.01182 0
M  V30 2047 C 202.933 1.4489 -0.891123 0
M  V30 2048 O 204.118 1.55836 -1.15882 0
M  V30 2049 C 201.248 2.51879 -2.39112 0
M  V30 2050 C 200.202 2.40038 -3.54353 0
M  V30 2051 C 199.528 3.78089 -3.78091 0
M  V30 2052 C 200.828 1.88577 -4.87069 0
M  V30 2053 H 202.522 0.817029 -2.88036 0
M  V30 2054 H 200.068 0.391575 -1.38574 0
M  V30 2055 H 202.021 3.24627 -2.68692 0
M  V30 2056 H 200.745 2.90532 -1.49193 0
M  V30 2057 H 199.404 1.69742 -3.24936 0
M  V30 2058 H 199.052 4.14175 -2.85426 0
M  V30 2059 H 198.752 3.71028 -4.55645 0
M  V30 2060 H 200.276 4.52387 -4.10095 0
M  V30 2061 H 201.69 2.51117 -5.15377 0
M  V30 2062 H 200.087 1.9241 -5.68417 0
M  V30 2063 H 201.157 0.84136 -4.77545 0
M  V30 2064 N 202.5 1.5196 0.417844 0
M  V30 2065 C 203.45 1.7106 1.5074 0
M  V30 2066 C 204.434 0.564487 1.50673 0
M  V30 2067 O 205.626 0.821206 1.56797 0
M  V30 2068 C 202.755 1.85677 2.88754 0
M  V30 2069 C 201.841 3.06133 2.93502 0
M  V30 2070 N 202.232 4.28987 2.67962 0
M  V30 2071 C 200.53 3.05787 3.24669 0
M  V30 2072 C 201.231 5.10395 2.79055 0
M  V30 2073 N 200.207 4.45455 3.11561 0
M  V30 2074 H 204.009 2.63696 1.29775 0
M  V30 2075 H 201.523 1.49873 0.625436 0
M  V30 2076 H 203.52 1.97475 3.67164 0
M  V30 2077 H 202.18 0.942348 3.10725 0
M  V30 2078 H 203.191 4.57607 2.4252 0
M  V30 2079 H 199.868 2.2405 3.52289 0
M  V30 2080 H 201.258 6.18247 2.63097 0
M  V30 2081 N 203.978 -0.674533 1.42435 0
M  V30 2082 C 205.224 -1.43671 1.43131 0
M  V30 2083 C 205.557 -1.94142 0.0476021 0
M  V30 2084 O 204.832 -1.70924 -0.928188 0
M  V30 2085 C 205.115 -2.63355 2.45594 0
M  V30 2086 C 204.968 -2.18514 3.93156 0
M  V30 2087 C 206.287 -3.65571 2.45043 0
M  V30 2088 H 203.406 -0.521077 0.521198 0
M  V30 2089 H 206.048 -0.766551 1.7385 0
M  V30 2090 H 204.198 -3.2053 2.19528 0
M  V30 2091 H 205.87 -1.66504 4.30202 0
M  V30 2092 H 204.113 -1.50086 4.07009 0
M  V30 2093 H 204.784 -3.04484 4.60428 0
M  V30 2094 H 207.26 -3.18113 2.68223 0
M  V30 2095 H 206.136 -4.46893 3.18713 0
M  V30 2096 H 206.397 -4.16716 1.47649 0
M  V30 2097 N 205.456 -1.28612 -0.910864 0
M  V30 2098 C 206.702 -1.16106 -1.66274 0
M  V30 2099 C 207.035 0.289113 -1.92036 0
M  V30 2100 O 206.31 1.21 -1.52281 0
M  V30 2101 C 206.593 -1.96309 -3.01885 0
M  V30 2102 C 206.446 -3.49405 -2.8326 0
M  V30 2103 C 207.765 -1.78076 -4.02463 0
M  V30 2104 H 204.884 -0.423152 -0.603417 0
M  V30 2105 H 207.526 -1.57961 -1.05586 0
M  V30 2106 H 205.676 -1.60742 -3.53687 0
M  V30 2107 H 207.348 -3.94894 -2.38446 0
M  V30 2108 H 205.591 -3.74893 -2.18261 0
M  V30 2109 H 206.262 -4.00784 -3.79574 0
M  V30 2110 H 208.738 -2.0912 -3.59733 0
M  V30 2111 H 207.614 -2.36561 -4.95308 0
M  V30 2112 H 207.875 -0.733008 -4.35981 0
M  V30 2113 N 206.934 1.1197 -1.10907 0
M  V30 2114 C 207.866 2.17592 -0.720175 0
M  V30 2115 C 208.879 1.60938 0.245495 0
M  V30 2116 O 210.068 1.78476 0.0292245 0
M  V30 2117 C 207.168 3.38873 -0.0427917 0
M  V30 2118 C 206.341 4.25006 -1.03388 0
M  V30 2119 C 205.4 5.24774 -0.387075 0
M  V30 2120 O 204.426 5.59631 -1.03934 0
M  V30 2121 N 205.628 5.74208 0.852407 0
M  V30 2122 H 208.393 2.51567 -1.62893 0
M  V30 2123 H 205.954 1.27439 -0.998543 0
M  V30 2124 H 207.946 4.02703 0.401501 0
M  V30 2125 H 206.516 3.03007 0.768456 0
M  V30 2126 H 205.736 3.57716 -1.65629 0
M  V30 2127 H 207.024 4.79397 -1.70458 0
M  V30 2128 H 206.422 5.48062 1.40161 0
M  V30 2129 H 204.979 6.39901 1.23977 0
M  V30 2130 N 208.412 0.89855 1.29475 0
M  V30 2131 C 209.342 0.39201 2.30186 0
M  V30 2132 C 210.323 -0.532359 1.61555 0
M  V30 2133 O 211.508 -0.443331 1.89072 0
M  V30 2134 C 208.638 -0.382353 3.45189 0
M  V30 2135 C 207.592 0.451483 4.25612 0
M  V30 2136 C 206.918 -0.450307 5.328 0
M  V30 2137 C 208.218 1.70079 4.93832 0
M  V30 2138 H 209.912 1.23362 2.72804 0
M  V30 2139 H 207.458 0.594638 1.31149 0
M  V30 2140 H 209.411 -0.747451 4.14718 0
M  V30 2141 H 208.135 -1.25774 3.01411 0
M  V30 2142 H 206.794 0.798897 3.57789 0
M  V30 2143 H 206.442 -1.32379 4.85268 0
M  V30 2144 H 206.142 0.103902 5.87508 0
M  V30 2145 H 207.666 -0.811623 6.05182 0
M  V30 2146 H 209.08 1.40549 5.55805 0
M  V30 2147 H 207.477 2.19623 5.58467 0
M  V30 2148 H 208.547 2.43744 4.19186 0
M  V30 2149 N 209.89 -1.43072 0.660911 0
M  V30 2150 C 211.167 -1.95307 0.107017 0
M  V30 2151 C 211.547 -1.60192 -1.37484 0
M  V30 2152 O 210.895 -0.890949 -2.10415 0
M  V30 2153 C 211.105 -3.47124 0.361402 0
M  V30 2154 C 212.453 -4.23738 0.270455 0
M  V30 2155 O 213.477 -3.54981 0.294382 0
M  V30 2156 O 212.336 -5.46131 0.200737 0
M  V30 2157 H 209.43 -0.826984 -0.00517729 0
M  V30 2158 H 211.976 -1.52972 0.734681 0
M  V30 2159 H 210.748 -3.65837 1.38848 0
M  V30 2160 H 210.371 -3.96475 -0.298953 0
M  V30 2161 N 211.368 -0.403325 -1.52352 0
M  V30 2162 C 212.331 0.413051 -2.25447 0
M  V30 2163 C 213.331 0.978513 -1.276 0
M  V30 2164 O 214.521 0.858305 -1.51587 0
M  V30 2165 C 211.653 1.58087 -3.02029 0
M  V30 2166 H 212.846 -0.227094 -2.99039 0
M  V30 2167 H 210.399 -0.155722 -1.55522 0
M  V30 2168 H 211.134 2.25804 -2.32772 0
M  V30 2169 H 210.919 1.18195 -3.73861 0
M  V30 2170 H 212.409 2.1585 -3.57489 0
M  V30 2171 N 212.846 1.57033 -0.133567 0
M  V30 2172 C 213.796 2.12641 0.822671 0
M  V30 2173 C 214.78 1.05081 1.21847 0
M  V30 2174 O 215.972 1.31287 1.18713 0
M  V30 2175 C 213.101 2.74094 2.06706 0
M  V30 2176 C 212.187 3.88757 1.69497 0
M  V30 2177 N 212.578 4.95194 1.03037 0
M  V30 2178 C 210.876 3.99213 1.98859 0
M  V30 2179 C 211.577 5.75414 0.852873 0
M  V30 2180 N 210.553 5.25726 1.3825 0
M  V30 2181 H 214.355 2.92308 0.305537 0
M  V30 2182 H 211.869 1.62256 0.0684276 0
M  V30 2183 H 213.866 3.12285 2.76195 0
M  V30 2184 H 212.526 1.95896 2.5895 0
M  V30 2185 H 213.537 5.13247 0.692669 0
M  V30 2186 H 210.214 3.32075 2.53047 0
M  V30 2187 H 211.604 6.71089 0.330091 0
M  V30 2188 N 214.325 -0.140222 1.56975 0
M  V30 2189 C 215.255 -1.17456 2.01808 0
M  V30 2190 C 216.236 -1.44415 0.898794 0
M  V30 2191 O 217.421 -1.5522 1.16707 0
M  V30 2192 C 214.551 -2.50607 2.40444 0
M  V30 2193 C 213.505 -2.38155 3.55621 0
M  V30 2194 C 212.831 -3.76078 3.80091 0
M  V30 2195 C 214.131 -1.85991 4.88062 0
M  V30 2196 H 215.825 -0.801743 2.88466 0
M  V30 2197 H 213.371 -0.38422 1.38779 0
M  V30 2198 H 215.324 -3.23197 2.7041 0
M  V30 2199 H 214.048 -2.89737 1.50732 0
M  V30 2200 H 212.707 -1.68016 3.25832 0
M  V30 2201 H 212.355 -4.12656 2.87618 0
M  V30 2202 H 212.055 -3.68606 4.57606 0
M  V30 2203 H 213.579 -4.50206 4.12488 0
M  V30 2204 H 214.993 -2.4838 5.16701 0
M  V30 2205 H 213.39 -1.89393 5.6943 0
M  V30 2206 H 214.46 -0.816023 4.77984 0
M  V30 2207 N 215.803 -1.52179 -0.40978 0
M  V30 2208 C 217.08 -1.56769 -1.16974 0
M  V30 2209 C 217.46 -0.348322 -2.08206 0
M  V30 2210 O 216.808 0.664862 -2.18613 0
M  V30 2211 C 217.018 -2.89603 -1.9476 0
M  V30 2212 C 218.366 -3.42579 -2.50849 0
M  V30 2213 O 219.39 -2.91338 -2.04941 0
M  V30 2214 O 218.249 -4.32054 -3.34652 0
M  V30 2215 H 215.343 -0.631439 -0.534054 0
M  V30 2216 H 217.889 -1.64507 -0.416613 0
M  V30 2217 H 216.661 -3.698 -1.27921 0
M  V30 2218 H 216.284 -2.85155 -2.77079 0
M  V30 2219 N 217.281 0.66697 -1.42791 0
M  V30 2220 C 218.528 1.42699 -1.43678 0
M  V30 2221 C 218.856 1.94419 -0.0560425 0
M  V30 2222 O 218.111 1.7182 0.936831 0
M  V30 2223 C 218.41 2.6349 -2.4147 0
M  V30 2224 C 218.076 2.30267 -3.8767 0
M  V30 2225 C 216.738 2.20918 -4.27491 0
M  V30 2226 C 219.09 2.03435 -4.79858 0
M  V30 2227 C 216.418 1.82873 -5.57471 0
M  V30 2228 C 218.77 1.66892 -6.10188 0
M  V30 2229 C 217.434 1.56058 -6.49001 0
M  V30 2230 H 216.704 0.522171 -0.525755 0
M  V30 2231 H 219.351 0.759785 -1.75783 0
M  V30 2232 H 217.656 3.35279 -2.0272 0
M  V30 2233 H 219.353 3.21684 -2.39417 0
M  V30 2234 H 215.943 2.38449 -3.56146 0
M  V30 2235 H 220.127 2.09586 -4.49875 0
M  V30 2236 H 215.383 1.7306 -5.86396 0
M  V30 2237 H 219.557 1.45157 -6.81104 0
M  V30 2238 H 217.184 1.26348 -7.49627 0
M  V30 2239 N 218.759 1.29093 0.90403 0
M  V30 2240 C 219.987 1.19689 1.68766 0
M  V30 2241 C 220.402 -0.243113 1.87228 0
M  V30 2242 O 219.759 -1.16326 1.40621 0
M  V30 2243 C 219.81 1.90144 3.07453 0
M  V30 2244 O 219.531 3.2852 2.89838 0
M  V30 2245 C 221.032 1.87162 4.01852 0
M  V30 2246 H 218.252 0.415035 0.527244 0
M  V30 2247 H 220.796 1.7039 1.13082 0
M  V30 2248 H 218.951 1.43289 3.59926 0
M  V30 2249 H 219.365 3.63944 3.77684 0
M  V30 2250 H 220.839 2.41032 4.96596 0
M  V30 2251 H 221.316 0.84617 4.30972 0
M  V30 2252 H 221.922 2.33741 3.5531 0
M  V30 2253 N 220.237 -1.11381 1.11499 0
M  V30 2254 C 221.514 -1.7955 0.775965 0
M  V30 2255 C 221.894 -1.97859 -0.73588 0
M  V30 2256 O 221.242 -1.56376 -1.66609 0
M  V30 2257 C 221.452 -3.13196 1.53977 0
M  V30 2258 C 222.8 -3.88227 1.71944 0
M  V30 2259 O 223.824 -3.22887 1.50407 0
M  V30 2260 O 222.683 -5.05477 2.07738 0
M  V30 2261 H 219.777 -0.777728 0.28119 0
M  V30 2262 H 222.323 -1.18118 1.21845 0
M  V30 2263 H 221.095 -2.95229 2.56818 0
M  V30 2264 H 220.718 -3.82342 1.09088 0
M  V30 2265 N 221.715 -0.905404 -1.28997 0
M  V30 2266 C 222.943 -0.549846 -1.9946 0
M  V30 2267 C 223.358 0.866834 -1.67724 0
M  V30 2268 O 222.715 1.57298 -0.925404 0
M  V30 2269 C 222.766 -0.739387 -3.53858 0
M  V30 2270 O 222.487 -2.10031 -3.84472 0
M  V30 2271 C 223.988 -0.389541 -4.41585 0
M  V30 2272 H 221.208 -0.210429 -0.637151 0
M  V30 2273 H 223.752 -1.21632 -1.64396 0
M  V30 2274 H 221.907 -0.120023 -3.87214 0
M  V30 2275 H 222.321 -2.13385 -4.79132 0
M  V30 2276 H 223.795 -0.572972 -5.49018 0
M  V30 2277 H 224.272 0.673756 -4.34001 0
M  V30 2278 H 224.878 -0.986089 -4.1371 0
M  V30 2279 N 223.193 1.4272 -0.668489 0
M  V30 2280 C 224.609 1.55992 -0.33745 0
M  V30 2281 C 224.809 1.64933 1.15756 0
M  V30 2282 O 223.865 1.61278 1.94282 0
M  V30 2283 C 225.178 2.81314 -1.06222 0
M  V30 2284 C 226.726 2.95078 -1.04394 0
M  V30 2285 C 227.201 4.23252 -1.74991 0
M  V30 2286 N 228.692 4.3015 -1.71829 0
M  V30 2287 C 229.427 5.28127 -2.23315 0
M  V30 2288 N 228.923 6.32293 -2.83156 0
M  V30 2289 N 230.716 5.19882 -2.13726 0
M  V30 2290 H 222.867 1.3516 -1.63846 0
M  V30 2291 H 225.13 0.650174 -0.689912 0
M  V30 2292 H 224.836 2.80823 -2.11734 0
M  V30 2293 H 224.71 3.72012 -0.62344 0
M  V30 2294 H 227.097 2.951 0.0028244 0
M  V30 2295 H 227.178 2.05627 -1.52155 0
M  V30 2296 H 226.822 4.2399 -2.79633 0
M  V30 2297 H 226.752 5.11626 -1.24685 0
M  V30 2298 H 229.243 3.55499 -1.28175 0
M  V30 2299 H 229.556 7.03398 -3.20079 0
M  V30 2300 H 227.901 6.32873 -2.87223 0
M  V30 2301 H 231.092 4.37423 -1.66669 0
M  V30 2302 H 231.265 5.96077 -2.54158 0
M  V30 2303 N 224.671 0.411399 1.52136 0
M  V30 2304 C 225.619 -0.427633 2.28635 0
M  V30 2305 C 226.613 -1.04383 1.33419 0
M  V30 2306 O 227.819 -0.981772 1.50868 0
M  V30 2307 H 224.194 -0.156689 0.735495 0
M  V30 2308 H 226.165 0.238761 2.97443 0
M  V30 2309 C 224.914 -1.53082 3.12188 0
M  V30 2310 H 224.237 -1.06601 3.85326 0
M  V30 2311 H 225.677 -2.09167 3.68816 0
M  V30 2312 C 224.136 -2.49946 2.25895 0
M  V30 2313 O 224.666 -3.53884 1.90076 0
M  V30 2314 N 222.872 -2.2021 1.8962 0
M  V30 2315 H 222.419 -1.35719 2.18948 0
M  V30 2316 H 222.377 -2.85266 1.32176 0
M  V30 2317 N 226.149 -1.5696 0.141893 0
M  V30 2318 C 227.426 -1.87553 -0.555281 0
M  V30 2319 C 227.806 -1.04699 -1.83306 0
M  V30 2320 O 227.154 -0.132346 -2.28116 0
M  V30 2321 C 227.364 -3.39093 -0.825664 0
M  V30 2322 C 228.712 -4.08199 -1.16869 0
M  V30 2323 O 229.736 -3.44242 -0.915185 0
M  V30 2324 O 228.595 -5.21139 -1.6455 0
M  V30 2325 H 225.689 -0.777188 -0.282679 0
M  V30 2326 H 228.235 -1.68763 0.17812 0
M  V30 2327 H 227.007 -3.91221 0.0788633 0
M  V30 2328 H 226.63 -3.63393 -1.61343 0
M  V30 2329 N 227.627 0.131896 -1.57047 0
M  V30 2330 C 228.855 0.856461 -1.88341 0
M  V30 2331 C 229.27 1.74042 -0.731757 0
M  V30 2332 O 228.627 1.80051 0.297945 0
M  V30 2333 C 228.678 1.70064 -3.18999 0
M  V30 2334 O 228.399 0.852278 -4.2973 0
M  V30 2335 C 229.9 2.53148 -3.63911 0
M  V30 2336 H 227.12 0.246885 -0.62393 0
M  V30 2337 H 229.664 0.120152 -2.04147 0
M  V30 2338 H 227.819 2.38984 -3.04902 0
M  V30 2339 H 228.233 1.43329 -5.04537 0
M  V30 2340 H 229.707 3.07931 -4.58129 0
M  V30 2341 H 230.184 3.29901 -2.89935 0
M  V30 2342 H 230.79 1.89492 -3.80753 0
M  V30 2343 N 229.106 1.52395 0.401703 0
M  V30 2344 C 230.053 1.76268 1.48991 0
M  V30 2345 C 231.023 0.605386 1.54675 0
M  V30 2346 O 232.208 0.843742 1.7113 0
M  V30 2347 C 229.348 1.92592 2.86361 0
M  V30 2348 C 228.461 3.20259 2.89928 0
M  V30 2349 C 227.596 3.26972 4.18644 0
M  V30 2350 C 226.635 4.48812 4.16214 0
M  V30 2351 N 225.772 4.52877 5.36514 0
M  V30 2352 H 230.612 2.6914 1.27935 0
M  V30 2353 H 228.149 1.33355 0.620871 0
M  V30 2354 H 230.107 2.0004 3.66115 0
M  V30 2355 H 228.737 1.03093 3.05895 0
M  V30 2356 H 227.789 3.21945 2.02621 0
M  V30 2357 H 229.101 4.10056 2.83999 0
M  V30 2358 H 228.255 3.33533 5.06794 0
M  V30 2359 H 226.994 2.35126 4.27278 0
M  V30 2360 H 225.999 4.4239 3.26453 0
M  V30 2361 H 227.224 5.41961 4.09213 0
M  V30 2362 H 225.17 3.63917 5.45802 0
M  V30 2363 H 225.087 5.36529 5.32609 0
M  V30 2364 H 226.355 4.63676 6.26597 0
M  V30 2365 N 230.584 -0.659388 1.43143 0
M  V30 2366 C 231.83 -1.41984 1.45644 0
M  V30 2367 C 232.185 -1.92245 0.0771718 0
M  V30 2368 O 231.478 -1.68976 -0.903205 0
M  V30 2369 C 231.672 -2.62206 2.42864 0
M  V30 2370 C 231.501 -2.23711 3.90107 0
M  V30 2371 C 230.271 -2.12332 4.58523 0
M  V30 2372 C 232.469 -1.84384 4.80112 0
M  V30 2373 N 230.451 -1.67102 5.9072 0
M  V30 2374 C 231.822 -1.5019 6.01534 0
M  V30 2375 C 233.877 -1.71512 4.67427 0
M  V30 2376 C 232.58 -1.04414 7.11681 0
M  V30 2377 C 234.606 -1.27142 5.77572 0
M  V30 2378 C 233.968 -0.938808 6.98116 0
M  V30 2379 H 230.067 -0.515448 0.588079 0
M  V30 2380 H 232.651 -0.759409 1.79279 0
M  V30 2381 H 230.822 -3.25917 2.11265 0
M  V30 2382 H 232.554 -3.28877 2.35843 0
M  V30 2383 H 229.309 -2.31893 4.12944 0
M  V30 2384 H 229.733 -1.46866 6.60878 0
M  V30 2385 H 234.375 -1.95868 3.74694 0
M  V30 2386 H 232.093 -0.788061 8.04248 0
M  V30 2387 H 235.679 -1.17681 5.69774 0
M  V30 2388 H 234.559 -0.6007 7.81896 0
M  V30 2389 N 232.062 -1.29571 -0.897171 0
M  V30 2390 C 233.287 -1.20705 -1.68656 0
M  V30 2391 C 233.712 0.228582 -1.86706 0
M  V30 2392 O 233.07 1.16494 -1.3892 0
M  V30 2393 C 233.118 -1.9282 -3.04717 0
M  V30 2394 O 232.222 -1.24697 -3.93096 0
M  V30 2395 H 231.563 -0.418126 -0.515816 0
M  V30 2396 H 234.093 -1.71183 -1.12061 0
M  V30 2397 H 234.103 -2.01372 -3.54843 0
M  V30 2398 H 232.778 -2.97239 -2.90899 0
M  V30 2399 H 231.355 -1.2442 -3.51531 0
M  V30 2400 N 233.54 1.10788 -1.12088 0
M  V30 2401 C 234.488 2.19111 -0.780587 0
M  V30 2402 C 235.482 1.67818 0.230961 0
M  V30 2403 O 236.688 1.79777 0.0895427 0
M  V30 2404 H 233.063 0.714477 -0.234578 0
M  V30 2405 H 235.034 2.45055 -1.70266 0
M  V30 2406 C 233.783 3.46818 -0.24747 0
M  V30 2407 H 233.106 3.86646 -1.01712 0
M  V30 2408 H 234.546 4.23973 -0.0476291 0
M  V30 2409 C 233.005 3.20968 1.02378 0
M  V30 2410 O 233.535 3.42298 2.10226 0
M  V30 2411 N 231.741 2.74658 0.949271 0
M  V30 2412 H 231.288 2.57501 0.0715173 0
M  V30 2413 H 231.246 2.57739 1.80049 0
M  V30 2414 N 235.018 0.912232 1.28515 0
M  V30 2415 C 236.243 0.559774 1.99703 0
M  V30 2416 C 236.668 -0.851393 1.67729 0
M  V30 2417 O 236.026 -1.56875 0.908834 0
M  V30 2418 C 236.074 0.773874 3.52198 0
M  V30 2419 O 235.178 -0.167842 4.12058 0
M  V30 2420 H 234.519 0.21723 0.627461 0
M  V30 2421 H 237.049 1.22725 1.63706 0
M  V30 2422 H 237.059 0.683386 4.02236 0
M  V30 2423 H 235.734 1.80261 3.74805 0
M  V30 2424 H 234.311 -0.0287509 3.72889 0
M  V30 2425 N 236.496 -1.42363 0.676048 0
M  V30 2426 C 237.721 -2.06377 0.205705 0
M  V30 2427 C 238.146 -1.50463 -1.12883 0
M  V30 2428 O 237.504 -0.623619 -1.70237 0
M  V30 2429 C 237.552 -3.60277 0.152655 0
M  V30 2430 O 236.656 -4.02935 -0.87845 0
M  V30 2431 H 235.997 -0.655588 0.105359 0
M  V30 2432 H 238.527 -1.82475 0.925412 0
M  V30 2433 H 238.537 -4.07993 -0.0230675 0
M  V30 2434 H 237.212 -4.00346 1.12675 0
M  V30 2435 H 235.789 -3.66764 -0.673668 0
M  V30 2436 N 237.974 -0.419461 -1.51915 0
M  V30 2437 C 239.385 0.0477853 -1.86639 0
M  V30 2438 C 239.736 1.43531 -1.33766 0
M  V30 2439 O 238.861 2.05401 -0.68113 0
M  V30 2440 C 239.456 0.0934885 -3.38671 0
M  V30 2441 C 238.015 0.505097 -3.72996 0
M  V30 2442 C 237.162 -0.313792 -2.75519 0
M  V30 2443 H 240.113 -0.636088 -1.45395 0
M  V30 2444 H 240.134 0.906667 -3.6954 0
M  V30 2445 H 239.646 -0.916501 -3.77123 0
M  V30 2446 H 237.747 1.52135 -3.40126 0
M  V30 2447 H 237.86 0.242309 -4.78487 0
M  V30 2448 H 236.224 0.225363 -2.53701 0
M  V30 2449 H 237.007 -1.32232 -3.16812 0
M  V30 2450 N 239.452 1.56882 -0.150215 0
M  V30 2451 C 240.699 1.96228 0.500093 0
M  V30 2452 C 241.027 1.03522 1.64661 0
M  V30 2453 O 240.282 0.0650683 1.95592 0
M  V30 2454 C 240.581 3.41801 1.04437 0
M  V30 2455 C 240.247 4.50897 0.0159671 0
M  V30 2456 C 238.909 4.8046 -0.266731 0
M  V30 2457 C 241.261 5.16703 -0.683192 0
M  V30 2458 C 238.589 5.73135 -1.25434 0
M  V30 2459 C 240.941 6.10441 -1.65964 0
M  V30 2460 C 239.605 6.38382 -1.95 0
M  V30 2461 H 238.875 0.718048 0.182997 0
M  V30 2462 H 241.522 1.90019 -0.237724 0
M  V30 2463 H 239.827 3.44857 1.85959 0
M  V30 2464 H 241.524 3.69573 1.55618 0
M  V30 2465 H 238.114 4.27891 0.246485 0
M  V30 2466 H 242.298 4.93993 -0.477983 0
M  V30 2467 H 237.554 5.93074 -1.48571 0
M  V30 2468 H 241.728 6.60507 -2.20689 0
M  V30 2469 H 239.355 7.09996 -2.71679 0
M  V30 2470 N 240.93 -0.123565 1.57115 0
M  V30 2471 C 242.346 -0.476961 1.52306 0
M  V30 2472 C 242.546 -1.82109 0.86248 0
M  V30 2473 O 241.602 -2.48586 0.442884 0
M  V30 2474 C 242.915 -0.465661 2.97073 0
M  V30 2475 C 244.463 -0.549534 3.08138 0
M  V30 2476 C 244.938 -0.568669 4.54456 0
M  V30 2477 N 246.429 -0.630237 4.58892 0
M  V30 2478 C 247.164 -0.666415 5.69514 0
M  V30 2479 N 246.66 -0.660514 6.89644 0
M  V30 2480 N 248.453 -0.709077 5.5761 0
M  V30 2481 H 240.604 0.757198 1.98445 0
M  V30 2482 H 242.867 0.278808 0.906074 0
M  V30 2483 H 242.573 0.454232 3.48754 0
M  V30 2484 H 242.447 -1.29513 3.54269 0
M  V30 2485 H 244.834 -1.45985 2.56461 0
M  V30 2486 H 244.915 0.307532 2.53945 0
M  V30 2487 H 244.559 0.337581 5.06777 0
M  V30 2488 H 244.489 -1.44256 5.06456 0
M  V30 2489 H 246.98 -0.641146 3.72421 0
M  V30 2490 H 247.293 -0.690616 7.69708 0
M  V30 2491 H 245.638 -0.628012 6.92157 0
M  V30 2492 H 248.829 -0.711019 4.62668 0
M  V30 2493 H 249.002 -0.733804 6.43832 0
M  V30 2494 N 242.408 -1.52605 -0.393616 0
M  V30 2495 C 243.824 -1.41753 -0.733357 0
M  V30 2496 C 244.024 -0.534293 -1.94287 0
M  V30 2497 O 243.08 -0.0059787 -2.52499 0
M  V30 2498 C 244.393 -2.84531 -0.972772 0
M  V30 2499 C 245.941 -2.93978 -1.07453 0
M  V30 2500 C 246.416 -4.37756 -1.3466 0
M  V30 2501 N 247.907 -4.4106 -1.41492 0
M  V30 2502 C 248.642 -5.49387 -1.642 0
M  V30 2503 N 248.138 -6.67806 -1.8441 0
M  V30 2504 N 249.931 -5.36923 -1.66342 0
M  V30 2505 H 242.082 -2.08555 0.402328 0
M  V30 2506 H 244.345 -0.940654 0.117789 0
M  V30 2507 H 244.051 -3.51353 -0.156204 0
M  V30 2508 H 243.925 -3.26508 -1.88871 0
M  V30 2509 H 246.312 -2.27326 -1.88167 0
M  V30 2510 H 246.393 -2.55435 -0.136605 0
M  V30 2511 H 246.037 -5.04972 -0.544581 0
M  V30 2512 H 245.967 -4.73848 -2.2973 0
M  V30 2513 H 248.458 -3.55705 -1.27601 0
M  V30 2514 H 248.771 -7.46141 -2.01231 0
M  V30 2515 H 247.116 -6.70843 -1.81644 0
M  V30 2516 H 250.307 -4.43381 -1.50102 0
M  V30 2517 H 250.48 -6.21416 -1.837 0
M  V30 2518 N 243.887 0.651787 -1.4349 0
M  V30 2519 C 244.85 1.74647 -1.48429 0
M  V30 2520 C 245.85 1.56513 -0.368817 0
M  V30 2521 O 247.04 1.62385 -0.630623 0
M  V30 2522 C 244.172 3.13533 -1.33827 0
M  V30 2523 H 245.365 1.71649 -2.4592 0
M  V30 2524 H 242.918 0.863573 -1.30277 0
M  V30 2525 H 243.653 3.22142 -0.37349 0
M  V30 2526 H 243.438 3.28101 -2.14691 0
M  V30 2527 H 244.928 3.93356 -1.40218 0
M  V30 2528 N 245.365 1.30045 0.890287 0
M  V30 2529 C 246.605 1.19839 1.65584 0
M  V30 2530 C 246.969 -0.244175 1.90441 0
M  V30 2531 O 248.17 -0.469378 2.6467 0
M  V30 2532 C 246.441 1.99876 2.96284 0
M  V30 2533 S 248 2.06309 3.87275 0
M  V30 2534 H 244.818 0.427157 0.568382 0
M  V30 2535 H 247.42 1.64453 1.05715 0
M  V30 2536 H 246.124 3.03809 2.75913 0
M  V30 2537 H 245.655 1.55903 3.61189 0
M  V30 2538 H 247.67 1.18661 4.81803 0
M  V30 2539 N 246.843 -1.10192 1.12674 0
M  V30 2540 C 247.753 -2.20172 0.810026 0
M  V30 2541 C 248.769 -1.72821 -0.202188 0
M  V30 2542 O 249.945 -2.01369 -0.0351691 0
M  V30 2543 C 247.01 -3.45631 0.272007 0
M  V30 2544 C 246.071 -4.07704 1.34447 0
M  V30 2545 C 245.304 -5.27175 0.832029 0
M  V30 2546 O 245.527 -5.69425 -0.333284 0
M  V30 2547 O 244.461 -5.80168 1.60277 0
M  V30 2548 H 248.287 -2.49701 1.72867 0
M  V30 2549 H 245.872 -1.18977 0.903597 0
M  V30 2550 H 247.754 -4.21394 -0.0230219 0
M  V30 2551 H 246.429 -3.17723 -0.619164 0
M  V30 2552 H 245.336 -3.33614 1.6927 0
M  V30 2553 H 246.669 -4.3982 2.2095 0
M  V30 2554 N 248.321 -0.919034 -1.28029 0
M  V30 2555 C 249.284 -0.416182 -2.2539 0
M  V30 2556 C 250.284 0.460438 -1.54067 0
M  V30 2557 O 251.474 0.262744 -1.72207 0
M  V30 2558 C 248.606 0.402707 -3.38513 0
M  V30 2559 H 249.799 -1.27629 -2.71387 0
M  V30 2560 H 247.352 -0.698919 -1.39803 0
M  V30 2561 H 248.087 1.282 -2.97885 0
M  V30 2562 H 247.872 -0.225698 -3.9145 0
M  V30 2563 H 249.362 0.745191 -4.10897 0
M  V30 2564 N 249.799 1.42003 -0.683588 0
M  V30 2565 C 250.729 2.33487 -0.024866 0
M  V30 2566 C 251.71 1.51163 0.779975 0
M  V30 2567 O 252.895 1.79739 0.735362 0
M  V30 2568 C 250.025 3.3487 0.920836 0
M  V30 2569 C 248.979 4.27414 0.223958 0
M  V30 2570 C 248.305 5.19074 1.2832 0
M  V30 2571 C 249.605 5.14445 -0.90242 0
M  V30 2572 H 251.299 2.88819 -0.788921 0
M  V30 2573 H 248.845 1.38873 -0.38083 0
M  V30 2574 H 250.798 3.97787 1.39081 0
M  V30 2575 H 249.522 2.77861 1.71642 0
M  V30 2576 H 248.181 3.65904 -0.225864 0
M  V30 2577 H 247.829 4.58387 2.071 0
M  V30 2578 H 247.529 5.81822 0.821995 0
M  V30 2579 H 249.053 5.84867 1.75392 0
M  V30 2580 H 250.467 5.70998 -0.513272 0
M  V30 2581 H 248.864 5.86072 -1.28997 0
M  V30 2582 H 249.934 4.52322 -1.74737 0
M  V30 2583 N 251.277 0.427512 1.51691 0
M  V30 2584 C 252.688 -0.0378867 1.86662 0
M  V30 2585 C 253.039 -1.42819 1.34525 0
M  V30 2586 O 252.164 -2.05037 0.692014 0
M  V30 2587 C 252.759 -0.0755266 3.38716 0
M  V30 2588 C 251.318 -0.485309 3.73258 0
M  V30 2589 C 250.465 0.328399 2.75349 0
M  V30 2590 H 253.416 0.64379 1.45055 0
M  V30 2591 H 253.437 -0.887056 3.70016 0
M  V30 2592 H 252.949 0.936487 3.76632 0
M  V30 2593 H 251.05 -1.50329 3.40928 0
M  V30 2594 H 251.163 -0.21693 4.78609 0
M  V30 2595 H 249.527 -0.211905 2.53817 0
M  V30 2596 H 250.31 1.3391 3.16106 0
M  V30 2597 N 252.755 -1.56801 0.158532 0
M  V30 2598 C 253.703 -2.18638 -0.793729 0
M  V30 2599 C 254.697 -1.14669 -1.24689 0
M  V30 2600 O 255.903 -1.32895 -1.21403 0
M  V30 2601 H 252.278 -0.700226 -0.274204 0
M  V30 2602 H 254.249 -2.97367 -0.248095 0
M  V30 2603 C 252.998 -2.83139 -2.0181 0
M  V30 2604 H 252.321 -3.62863 -1.67841 0
M  V30 2605 H 253.761 -3.29894 -2.66357 0
M  V30 2606 C 252.22 -1.82244 -2.83353 0
M  V30 2607 O 252.75 -1.3 -3.80083 0
M  V30 2608 N 250.956 -1.51288 -2.48114 0
M  V30 2609 H 250.503 -1.93964 -1.69516 0
M  V30 2610 H 250.461 -0.840296 -3.02963 0
M  V30 2611 N 254.233 0.115231 -1.57178 0
M  V30 2612 C 255.163 1.1423 -2.03651 0
M  V30 2613 C 256.144 1.42967 -0.921655 0
M  V30 2614 O 257.329 1.53343 -1.19162 0
M  V30 2615 C 254.459 2.4675 -2.44401 0
M  V30 2616 C 253.413 2.32467 -3.59365 0
M  V30 2617 C 252.739 3.69984 -3.86026 0
M  V30 2618 C 254.039 1.78203 -4.90959 0
M  V30 2619 H 255.733 0.755749 -2.89705 0
M  V30 2620 H 253.279 0.362093 -1.39373 0
M  V30 2621 H 255.232 3.18854 -2.75517 0
M  V30 2622 H 253.956 2.87302 -1.55322 0
M  V30 2623 H 252.615 1.62811 -3.28463 0
M  V30 2624 H 252.263 4.08028 -2.94147 0
M  V30 2625 H 251.963 3.61279 -4.63412 0
M  V30 2626 H 253.487 4.43587 -4.19599 0
M  V30 2627 H 254.901 2.40128 -5.20587 0
M  V30 2628 H 253.298 1.8031 -5.72371 0
M  V30 2629 H 254.368 0.739876 -4.79222 0
M  V30 2630 N 255.711 1.52812 0.385517 0
M  V30 2631 C 256.957 1.68275 1.13188 0
M  V30 2632 C 257.29 0.423179 1.89533 0
M  V30 2633 O 256.565 -0.579113 1.85679 0
M  V30 2634 C 256.848 2.92001 2.1073 0
M  V30 2635 C 256.701 4.28067 1.38125 0
M  V30 2636 C 258.02 3.11283 3.11113 0
M  V30 2637 H 255.139 0.612352 0.410115 0
M  V30 2638 H 257.781 1.85415 0.414869 0
M  V30 2639 H 255.931 2.77519 2.71874 0
M  V30 2640 H 257.603 4.54324 0.799187 0
M  V30 2641 H 255.846 4.28388 0.683092 0
M  V30 2642 H 256.517 5.10733 2.09417 0
M  V30 2643 H 258.993 3.2482 2.6006 0
M  V30 2644 H 257.869 3.99325 3.76605 0
M  V30 2645 H 258.13 2.25656 3.80173 0
M  V30 2646 N 257.189 -0.644168 1.43834 0
M  V30 2647 C 258.139 -1.7501 1.46135 0
M  V30 2648 C 259.123 -1.57507 0.328685 0
M  V30 2649 O 260.315 -1.67465 0.5731 0
M  V30 2650 C 257.444 -3.13641 1.39585 0
M  V30 2651 C 256.53 -3.3666 2.57916 0
M  V30 2652 N 256.921 -3.30107 3.83227 0
M  V30 2653 C 255.219 -3.67411 2.52834 0
M  V30 2654 C 255.92 -3.53456 4.61999 0
M  V30 2655 N 254.896 -3.75705 3.9287 0
M  V30 2656 H 258.698 -1.68382 2.40883 0
M  V30 2657 H 256.212 -0.846169 1.38614 0
M  V30 2658 H 258.209 -3.92933 1.39317 0
M  V30 2659 H 256.869 -3.21444 0.45865 0
M  V30 2660 H 257.88 -3.09316 4.15384 0
M  V30 2661 H 254.557 -3.82275 1.67845 0
M  V30 2662 H 255.947 -3.54093 5.71024 0
M  V30 2663 N 258.668 -1.30515 -0.883378 0
M  V30 2664 C 259.917 -1.18795 -1.63005 0
M  V30 2665 C 260.23 0.255923 -1.93919 0
M  V30 2666 O 261.436 0.494654 -2.66956 0
M  V30 2667 C 259.892 -2.07878 -2.93794 0
M  V30 2668 C 259.5 -3.57184 -2.70414 0
M  V30 2669 C 261.244 -2.04924 -3.71761 0
M  V30 2670 C 259.151 -4.38317 -3.97029 0
M  V30 2671 H 258.081 -0.441031 -0.611562 0
M  V30 2672 H 260.732 -1.55275 -0.977854 0
M  V30 2673 H 259.114 -1.64283 -3.60315 0
M  V30 2674 H 260.288 -4.08937 -2.12384 0
M  V30 2675 H 258.603 -3.61976 -2.0582 0
M  V30 2676 H 261.2 -2.62792 -4.65665 0
M  V30 2677 H 261.543 -1.0331 -4.03277 0
M  V30 2678 H 262.076 -2.46649 -3.12104 0
M  V30 2679 H 258.815 -5.40632 -3.70671 0
M  V30 2680 H 258.335 -3.91326 -4.54559 0
M  V30 2681 H 260.014 -4.49834 -4.65036 0
M  V30 2682 N 260.146 1.09593 -1.13257 0
M  V30 2683 C 261.374 1.855 -0.916378 0
M  V30 2684 C 261.789 1.81069 0.534738 0
M  V30 2685 O 261.146 1.20562 1.37007 0
M  V30 2686 C 261.197 3.33546 -1.39388 0
M  V30 2687 O 260.918 3.37927 -2.78813 0
M  V30 2688 C 262.419 4.26299 -1.21588 0
M  V30 2689 H 259.639 0.585991 -0.326887 0
M  V30 2690 H 262.183 1.38488 -1.5047 0
M  V30 2691 H 260.338 3.77992 -0.848597 0
M  V30 2692 H 260.752 4.30254 -2.9997 0
M  V30 2693 H 262.226 5.28341 -1.59876 0
M  V30 2694 H 262.703 4.38918 -0.157376 0
M  V30 2695 H 263.309 3.87668 -1.7491 0
M  V30 2696 N 261.624 0.925811 1.2754 0
M  V30 2697 C 262.852 0.581509 1.9856 0
M  V30 2698 C 263.267 -0.840041 1.69082 0
M  V30 2699 O 262.624 -1.55805 0.950312 0
M  V30 2700 C 262.675 0.795589 3.52637 0
M  V30 2701 O 262.396 2.16121 3.81082 0
M  V30 2702 C 263.897 0.459744 4.4091 0
M  V30 2703 H 261.117 0.220538 0.633722 0
M  V30 2704 H 263.661 1.24232 1.6244 0
M  V30 2705 H 261.816 0.18161 3.86974 0
M  V30 2706 H 262.23 2.2098 4.75676 0
M  V30 2707 H 263.704 0.660244 5.48037 0
M  V30 2708 H 264.181 -0.604625 4.35018 0
M  V30 2709 H 264.787 1.05178 4.12089 0
M  V30 2710 N 263.102 -1.41638 0.69111 0
M  V30 2711 C 264.348 -2.01598 0.220519 0
M  V30 2712 C 264.681 -1.54594 -1.17535 0
M  V30 2713 O 263.956 -0.755177 -1.79241 0
M  V30 2714 C 264.239 -3.59062 0.273243 0
M  V30 2715 C 264.092 -4.16203 1.70573 0
M  V30 2716 C 265.411 -4.38546 -0.369457 0
M  V30 2717 H 262.53 -0.732468 0.0816045 0
M  V30 2718 H 265.172 -1.68445 0.878986 0
M  V30 2719 H 263.322 -3.87435 -0.287411 0
M  V30 2720 H 264.994 -3.98722 2.31989 0
M  V30 2721 H 263.237 -3.71414 2.2413 0
M  V30 2722 H 263.908 -5.25358 1.69419 0
M  V30 2723 H 266.384 -4.1596 0.107977 0
M  V30 2724 H 265.26 -5.48069 -0.302002 0
M  V30 2725 H 265.521 -4.17662 -1.44951 0
M  V30 2726 N 264.58 -0.43555 -1.51462 0
M  V30 2727 C 265.828 0.131254 -2.01673 0
M  V30 2728 C 266.149 1.43368 -1.32177 0
M  V30 2729 O 265.419 1.90524 -0.455769 0
M  V30 2730 H 263.999 0.0514954 -0.745223 0
M  V30 2731 H 266.661 -0.577847 -1.86137 0
M  V30 2732 H 265.757 0.308446 -3.10572 0
M  V30 2733 N 266.058 1.56714 -0.166846 0
M  V30 2734 C 266.988 2.20754 0.760913 0
M  V30 2735 C 267.969 1.16178 1.24244 0
M  V30 2736 O 269.154 1.44592 1.29641 0
M  V30 2737 C 266.284 2.84478 1.99223 0
M  V30 2738 C 265.238 3.95053 1.64672 0
M  V30 2739 C 264.564 4.45805 2.95232 0
M  V30 2740 C 265.864 5.14865 0.878155 0
M  V30 2741 H 267.558 2.98537 0.22713 0
M  V30 2742 H 265.104 1.43596 0.107805 0
M  V30 2743 H 267.057 3.27951 2.64624 0
M  V30 2744 H 265.781 2.04056 2.55007 0
M  V30 2745 H 264.44 3.52228 1.01641 0
M  V30 2746 H 264.088 3.62181 3.49047 0
M  V30 2747 H 263.788 5.204 2.7287 0
M  V30 2748 H 265.312 4.91962 3.6167 0
M  V30 2749 H 266.726 5.55059 1.43466 0
M  V30 2750 H 265.123 5.95348 0.753738 0
M  V30 2751 H 266.193 4.84735 -0.126377 0
M  V30 2752 N 267.536 -0.106894 1.57237 0
M  V30 2753 C 268.952 -0.46078 1.52804 0
M  V30 2754 C 269.152 -1.81184 0.881746 0
M  V30 2755 O 268.208 -2.48102 0.469224 0
M  V30 2756 C 269.521 -0.434127 2.9755 0
M  V30 2757 C 271.069 -0.516821 3.08704 0
M  V30 2758 C 271.544 -0.520436 4.55033 0
M  V30 2759 N 273.035 -0.58153 4.59535 0
M  V30 2760 C 273.77 -0.605973 5.70189 0
M  V30 2761 N 273.266 -0.587331 6.90306 0
M  V30 2762 N 275.059 -0.649895 5.5833 0
M  V30 2763 H 267.21 0.778203 1.9763 0
M  V30 2764 H 269.473 0.288403 0.903066 0
M  V30 2765 H 269.179 0.491197 3.48253 0
M  V30 2766 H 269.053 -1.25748 3.55622 0
M  V30 2767 H 271.44 -1.43256 2.57995 0
M  V30 2768 H 271.521 0.334449 2.53604 0
M  V30 2769 H 271.165 0.391313 5.0639 0
M  V30 2770 H 271.095 -1.38876 5.07958 0
M  V30 2771 H 273.586 -0.60161 3.73081 0
M  V30 2772 H 273.899 -0.60894 7.70397 0
M  V30 2773 H 272.244 -0.554564 6.92784 0
M  V30 2774 H 275.435 -0.661907 4.63397 0
M  V30 2775 H 275.608 -0.665476 6.44574 0
M  V30 2776 N 269.014 -1.53014 -0.377408 0
M  V30 2777 C 270.262 -1.6829 -1.11906 0
M  V30 2778 C 270.583 -0.431206 -1.90173 0
M  V30 2779 O 269.853 0.554595 -1.87886 0
M  V30 2780 H 268.433 -0.620371 -0.416112 0
M  V30 2781 H 271.095 -1.90167 -0.426893 0
M  V30 2782 H 270.191 -2.53862 -1.8155 0
M  V30 2783 N 270.492 0.636531 -1.44174 0
M  V30 2784 C 271.422 1.76003 -1.53444 0
M  V30 2785 C 272.403 1.65619 -0.387841 0
M  V30 2786 O 273.588 1.84461 -0.607257 0
M  V30 2787 C 270.718 3.14511 -1.4731 0
M  V30 2788 C 269.672 3.39677 -2.60391 0
M  V30 2789 C 268.998 4.78159 -2.39308 0
M  V30 2790 C 270.298 3.32772 -4.02567 0
M  V30 2791 H 271.992 1.68501 -2.47483 0
M  V30 2792 H 269.538 0.809237 -1.19111 0
M  V30 2793 H 271.491 3.92878 -1.52397 0
M  V30 2794 H 270.215 3.22783 -0.49785 0
M  V30 2795 H 268.874 2.63688 -2.54684 0
M  V30 2796 H 268.522 4.83128 -1.39988 0
M  V30 2797 H 268.222 4.95956 -3.15122 0
M  V30 2798 H 269.746 5.58762 -2.46205 0
M  V30 2799 H 271.16 4.01051 -4.09672 0
M  V30 2800 H 269.557 3.62104 -4.7854 0
M  V30 2801 H 270.627 2.30669 -4.2652 0
M  V30 2802 N 271.97 1.30982 0.876444 0
M  V30 2803 C 273.386 1.09498 1.16113 0
M  V30 2804 C 273.586 -0.13875 2.01022 0
M  V30 2805 O 272.642 -0.829935 2.38471 0
M  V30 2806 C 273.955 2.36308 1.85954 0
M  V30 2807 C 275.503 2.41856 1.98683 0
M  V30 2808 C 275.978 3.6853 2.71937 0
M  V30 2809 N 277.469 3.69387 2.79477 0
M  V30 2810 C 278.204 4.64096 3.36753 0
M  V30 2811 N 277.7 5.69155 3.95012 0
M  V30 2812 N 279.493 4.51626 3.3465 0
M  V30 2813 H 271.644 2.10118 0.310494 0
M  V30 2814 H 273.907 0.926634 0.200131 0
M  V30 2815 H 273.613 3.26388 1.31011 0
M  V30 2816 H 273.487 2.4561 2.86278 0
M  V30 2817 H 275.874 1.52249 2.52793 0
M  V30 2818 H 275.955 2.36523 0.9742 0
M  V30 2819 H 275.599 4.58499 2.18496 0
M  V30 2820 H 275.529 3.71127 3.73593 0
M  V30 2821 H 278.02 2.93438 2.38123 0
M  V30 2822 H 278.333 6.3751 4.36808 0
M  V30 2823 H 276.678 5.72937 3.93406 0
M  V30 2824 H 279.869 3.68728 2.8837 0
M  V30 2825 H 280.042 5.25614 3.7899 0
M  V30 2826 N 273.449 -1.08991 1.13837 0
M  V30 2827 C 274.696 -1.81258 0.902882 0
M  V30 2828 C 275.024 -1.85936 -0.570803 0
M  V30 2829 O 274.279 -1.3267 -1.43865 0
M  V30 2830 C 274.578 -3.27042 1.44147 0
M  V30 2831 C 274.244 -3.4249 2.93276 0
M  V30 2832 C 272.906 -3.46414 3.33992 0
M  V30 2833 C 275.258 -3.4666 3.892 0
M  V30 2834 C 272.586 -3.52091 4.69307 0
M  V30 2835 C 274.938 -3.53872 5.24364 0
M  V30 2836 C 273.602 -3.56066 5.646 0
M  V30 2837 H 272.872 -0.663268 0.330388 0
M  V30 2838 H 275.519 -1.28368 1.42105 0
M  V30 2839 H 273.824 -3.82599 0.844097 0
M  V30 2840 H 275.521 -3.81499 1.23528 0
M  V30 2841 H 272.111 -3.40124 2.60794 0
M  V30 2842 H 276.295 -3.42865 3.58828 0
M  V30 2843 H 271.551 -3.52079 4.9985 0
M  V30 2844 H 275.725 -3.56043 5.98503 0
M  V30 2845 H 273.352 -3.60218 6.69438 0
M  V30 2846 N 274.927 -0.932562 -1.27047 0
M  V30 2847 C 276.204 -0.49377 -1.89265 0
M  V30 2848 C 276.584 1.02833 -1.8436 0
M  V30 2849 O 275.932 1.88461 -1.29209 0
M  V30 2850 C 276.142 -1.04536 -3.32976 0
M  V30 2851 C 277.49 -1.10879 -4.09867 0
M  V30 2852 O 278.514 -0.995327 -3.42011 0
M  V30 2853 O 277.373 -1.28417 -5.31198 0
M  V30 2854 H 274.467 -0.159596 -0.811454 0
M  V30 2855 H 277.013 -1.02457 -1.3528 0
M  V30 2856 H 275.785 -2.08913 -3.30864 0
M  V30 2857 H 275.408 -0.496494 -3.94488 0
M  V30 2858 N 276.405 1.4127 -0.698611 0
M  V30 2859 C 277.816 1.84187 -0.305289 0
M  V30 2860 C 278.167 1.58449 1.15708 0
M  V30 2861 O 277.292 1.05651 1.88856 0
M  V30 2862 C 277.887 3.3435 -0.547314 0
M  V30 2863 C 276.446 3.75826 -0.207878 0
M  V30 2864 C 275.593 2.64647 -0.828099 0
M  V30 2865 H 278.544 1.30778 -0.89904 0
M  V30 2866 H 278.565 3.8001 0.192998 0
M  V30 2867 H 278.077 3.53051 -1.61172 0
M  V30 2868 H 276.178 3.62725 0.852143 0
M  V30 2869 H 276.291 4.74462 -0.665021 0
M  V30 2870 H 274.655 2.53395 -0.257458 0
M  V30 2871 H 275.438 2.86165 -1.89643 0
M  V30 2872 N 277.883 0.443576 1.51229 0
M  V30 2873 C 278.793 -0.370721 2.31652 0
M  V30 2874 C 279.809 -1.02186 1.40833 0
M  V30 2875 O 280.985 -1.01586 1.73903 0
M  V30 2876 C 278.05 -1.45376 3.14749 0
M  V30 2877 C 277.111 -0.822099 4.21355 0
M  V30 2878 C 276.344 -1.85353 5.0048 0
M  V30 2879 O 276.567 -3.07656 4.80316 0
M  V30 2880 O 275.501 -1.4406 5.84406 0
M  V30 2881 H 279.327 0.286002 3.0235 0
M  V30 2882 H 276.912 0.20598 1.47973 0
M  V30 2883 H 278.794 -2.08173 3.66391 0
M  V30 2884 H 277.469 -2.09445 2.46809 0
M  V30 2885 H 276.376 -0.155909 3.73775 0
M  V30 2886 H 277.709 -0.224797 4.91686 0
M  V30 2887 N 279.361 -1.56624 0.175154 0
M  V30 2888 C 280.324 -2.16934 -0.739738 0
M  V30 2889 C 281.324 -1.11842 -1.15533 0
M  V30 2890 O 282.514 -1.37335 -1.07167 0
M  V30 2891 C 279.646 -2.75531 -2.00738 0
M  V30 2892 H 280.839 -2.99131 -0.214639 0
M  V30 2893 H 278.392 -1.56123 -0.0744197 0
M  V30 2894 H 279.127 -1.97078 -2.57548 0
M  V30 2895 H 278.912 -3.52444 -1.71831 0
M  V30 2896 H 280.402 -3.21904 -2.66021 0
M  V30 2897 N 280.839 0.0985539 -1.57292 0
M  V30 2898 C 282.085 0.803867 -1.86188 0
M  V30 2899 C 282.418 1.78549 -0.763794 0
M  V30 2900 O 281.693 1.93153 0.22855 0
M  V30 2901 C 281.976 1.53568 -3.25713 0
M  V30 2902 C 281.829 0.572277 -4.46145 0
M  V30 2903 C 283.148 2.48708 -3.63087 0
M  V30 2904 H 280.267 0.290781 -0.677211 0
M  V30 2905 H 282.909 0.0675783 -1.8988 0
M  V30 2906 H 281.059 2.16332 -3.22696 0
M  V30 2907 H 282.731 -0.0480894 -4.61275 0
M  V30 2908 H 280.974 -0.114618 -4.33649 0
M  V30 2909 H 281.645 1.12139 -5.40489 0
M  V30 2910 H 284.121 1.96039 -3.67026 0
M  V30 2911 H 282.997 2.96932 -4.61652 0
M  V30 2912 H 283.258 3.32309 -2.91588 0
M  V30 2913 N 282.317 1.53212 0.369288 0
M  V30 2914 C 283.28 1.7872 1.43498 0
M  V30 2915 C 284.28 0.657554 1.46741 0
M  V30 2916 O 285.47 0.925736 1.47566 0
M  V30 2917 C 282.602 1.90591 2.82645 0
M  V30 2918 H 283.795 2.73894 1.22156 0
M  V30 2919 H 281.348 1.44233 0.602203 0
M  V30 2920 H 282.083 0.974709 3.09306 0
M  V30 2921 H 281.868 2.72751 2.8169 0
M  V30 2922 H 283.358 2.11931 3.59826 0
M  V30 2923 N 283.795 -0.628877 1.44509 0
M  V30 2924 C 284.758 -1.72263 1.51188 0
M  V30 2925 C 285.758 -1.55907 0.39367 0
M  V30 2926 O 286.948 -1.61361 0.656377 0
M  V30 2927 C 284.08 -3.11365 1.38798 0
M  V30 2928 H 285.273 -1.67714 2.4862 0
M  V30 2929 H 282.826 -0.842737 1.31634 0
M  V30 2930 H 283.561 -3.21507 0.424693 0
M  V30 2931 H 283.346 -3.24644 2.19884 0
M  V30 2932 H 284.836 -3.91075 1.46458 0
M  V30 2933 N 285.273 -1.31445 -0.869486 0
M  V30 2934 C 286.236 -1.19094 -1.9583 0
M  V30 2935 C 287.236 -0.117906 -1.60367 0
M  V30 2936 O 288.426 -0.367208 -1.70286 0
M  V30 2937 C 285.558 -0.828165 -3.30688 0
M  V30 2938 H 286.751 -2.15842 -2.08212 0
M  V30 2939 H 284.304 -1.15063 -1.05784 0
M  V30 2940 H 285.039 0.138142 -3.24006 0
M  V30 2941 H 284.824 -1.6038 -3.578 0
M  V30 2942 H 286.314 -0.765658 -4.10521 0
M  V30 2943 N 286.751 1.08385 -1.14413 0
M  V30 2944 C 288.167 1.32844 -0.884563 0
M  V30 2945 C 288.367 1.95841 0.474181 0
M  V30 2946 O 287.423 2.21158 1.21842 0
M  V30 2947 C 288.736 2.22978 -2.01745 0
M  V30 2948 C 290.284 2.36458 -2.05077 0
M  V30 2949 C 290.759 3.29934 -3.1766 0
M  V30 2950 N 292.25 3.37511 -3.17239 0
M  V30 2951 C 292.985 4.09871 -4.0099 0
M  V30 2952 N 292.481 4.84936 -4.94781 0
M  V30 2953 N 294.274 4.05704 -3.89051 0
M  V30 2954 H 286.425 0.658756 -2.01926 0
M  V30 2955 H 288.688 0.352821 -0.879899 0
M  V30 2956 H 288.394 1.83934 -2.99769 0
M  V30 2957 H 288.268 3.23441 -1.94077 0
M  V30 2958 H 290.655 2.7476 -1.0766 0
M  V30 2959 H 290.736 1.35736 -2.16816 0
M  V30 2960 H 290.38 2.92352 -4.15322 0
M  V30 2961 H 290.31 4.30584 -3.03158 0
M  V30 2962 H 292.801 2.83996 -2.49308 0
M  V30 2963 H 293.114 5.37612 -5.55151 0
M  V30 2964 H 291.459 4.83988 -4.98779 0
M  V30 2965 H 294.65 3.46167 -3.15097 0
M  V30 2966 H 294.823 4.61834 -4.54547 0
M  V30 2967 N 288.23 0.939286 1.26551 0
M  V30 2968 C 289.193 0.451987 2.24699 0
M  V30 2969 C 290.193 -0.435869 1.5478 0
M  V30 2970 O 291.383 -0.235314 1.72603 0
M  V30 2971 C 288.515 -0.348801 3.39111 0
M  V30 2972 H 289.708 1.3193 2.69322 0
M  V30 2973 H 287.261 0.721072 1.38673 0
M  V30 2974 H 287.996 -1.23444 2.99887 0
M  V30 2975 H 287.781 0.287945 3.91041 0
M  V30 2976 H 289.271 -0.679726 4.12031 0
M  V30 2977 N 289.708 -1.40897 0.706093 0
M  V30 2978 C 291.124 -1.55042 0.37869 0
M  V30 2979 C 291.324 -1.67944 -1.11342 0
M  V30 2980 O 290.38 -1.66372 -1.89938 0
M  V30 2981 C 291.693 -2.78398 1.13643 0
M  V30 2982 C 293.241 -2.92206 1.12181 0
M  V30 2983 C 293.716 -4.18463 1.86152 0
M  V30 2984 N 295.207 -4.25443 1.83173 0
M  V30 2985 C 295.942 -5.2202 2.37239 0
M  V30 2986 N 295.438 -6.24563 2.99821 0
M  V30 2987 N 297.231 -5.14033 2.27435 0
M  V30 2988 H 289.382 -1.30769 1.67372 0
M  V30 2989 H 291.645 -0.631653 0.706907 0
M  V30 2990 H 291.351 -2.7511 2.19106 0
M  V30 2991 H 291.225 -3.70228 0.721853 0
M  V30 2992 H 293.612 -2.95004 0.0754171 0
M  V30 2993 H 293.693 -2.01521 1.57554 0
M  V30 2994 H 293.337 -4.16427 2.90776 0
M  V30 2995 H 293.267 -5.08141 1.38206 0
M  V30 2996 H 295.758 -3.51976 1.37556 0
M  V30 2997 H 296.071 -6.94665 3.38616 0
M  V30 2998 H 294.416 -6.25035 3.03902 0
M  V30 2999 H 297.607 -4.3285 1.78208 0
M  V30 3000 H 297.78 -5.89129 2.69873 0
M  V30 3001 N 291.186 -0.45159 -1.50991 0
M  V30 3002 C 292.434 0.109857 -2.01801 0
M  V30 3003 C 292.755 1.41958 -1.3369 0
M  V30 3004 O 292.025 1.9003 -0.475951 0
M  V30 3005 H 290.605 0.0435884 -0.745727 0
M  V30 3006 H 293.267 -0.597557 -1.85514 0
M  V30 3007 H 292.363 0.275489 -3.10882 0
M  V30 3008 N 292.664 1.56529 -0.183458 0
M  V30 3009 C 293.614 2.1515 0.754605 0
M  V30 3010 C 294.598 1.08904 1.18443 0
M  V30 3011 O 295.79 1.34997 1.14476 0
M  V30 3012 C 292.919 2.80531 1.97881 0
M  V30 3013 C 292.005 3.93952 1.57043 0
M  V30 3014 N 292.396 4.98221 0.87231 0
M  V30 3015 C 290.694 4.05338 1.86057 0
M  V30 3016 C 291.395 5.77836 0.669377 0
M  V30 3017 N 290.371 5.29858 1.21454 0
M  V30 3018 H 294.173 2.93132 0.212387 0
M  V30 3019 H 291.687 1.62391 0.0167725 0
M  V30 3020 H 293.684 3.20914 2.6612 0
M  V30 3021 H 292.344 2.04035 2.52586 0
M  V30 3022 H 293.355 5.15191 0.529033 0
M  V30 3023 H 290.032 3.39957 2.42354 0
M  V30 3024 H 291.422 6.71799 0.116422 0
M  V30 3025 N 294.142 -0.090211 1.57342 0
M  V30 3026 C 295.37 -0.806224 1.90546 0
M  V30 3027 C 295.785 -1.72041 0.777644 0
M  V30 3028 O 295.142 -1.80778 -0.250103 0
M  V30 3029 C 295.193 -1.61546 3.23396 0
M  V30 3030 O 294.914 -0.738043 4.31839 0
M  V30 3031 C 296.415 -2.4341 3.70495 0
M  V30 3032 H 293.635 -0.230256 0.630257 0
M  V30 3033 H 296.179 -0.0659843 2.04394 0
M  V30 3034 H 294.334 -2.30816 3.11131 0
M  V30 3035 H 294.748 -1.29901 5.08159 0
M  V30 3036 H 296.222 -2.95676 4.66133 0
M  V30 3037 H 296.699 -3.22098 2.98579 0
M  V30 3038 H 297.305 -1.79331 3.85643 0
M  V30 3039 N 295.62 -1.53406 -0.361157 0
M  V30 3040 C 296.869 -1.69022 -1.10066 0
M  V30 3041 C 297.182 -0.450838 -1.90333 0
M  V30 3042 O 298.388 -0.487617 -2.67085 0
M  V30 3043 C 296.844 -2.98812 -2.00598 0
M  V30 3044 C 296.452 -4.30027 -1.25621 0
M  V30 3045 C 298.196 -3.23795 -2.74513 0
M  V30 3046 C 296.103 -5.50903 -2.1508 0
M  V30 3047 H 295.033 -0.629776 -0.414606 0
M  V30 3048 H 297.684 -1.79907 -0.361348 0
M  V30 3049 H 296.066 -2.8174 -2.78278 0
M  V30 3050 H 297.24 -4.57745 -0.529739 0
M  V30 3051 H 295.555 -4.11522 -0.635496 0
M  V30 3052 H 298.152 -4.11289 -3.41681 0
M  V30 3053 H 298.495 -2.40045 -3.40123 0
M  V30 3054 H 299.028 -3.41561 -2.03914 0
M  V30 3055 H 295.767 -6.37143 -1.54041 0
M  V30 3056 H 295.287 -5.27459 -2.85565 0
M  V30 3057 H 296.966 -5.85865 -2.74538 0
M  V30 3058 N 297.098 0.621204 -1.44841 0
M  V30 3059 C 298.347 1.37658 -1.47422 0
M  V30 3060 C 298.66 1.95264 -0.114629 0
M  V30 3061 O 299.866 2.71494 -0.0180199 0
M  V30 3062 C 298.322 2.49285 -2.59586 0
M  V30 3063 C 297.93 1.98149 -4.01797 0
M  V30 3064 C 299.674 3.26409 -2.71399 0
M  V30 3065 C 297.581 3.07178 -5.05367 0
M  V30 3066 H 296.511 0.517344 -0.548517 0
M  V30 3067 H 299.162 0.667257 -1.70938 0
M  V30 3068 H 297.544 3.22839 -2.29328 0
M  V30 3069 H 298.718 1.31395 -4.41669 0
M  V30 3070 H 297.033 1.33812 -3.94314 0
M  V30 3071 H 299.63 4.07706 -3.45948 0
M  V30 3072 H 299.973 3.76535 -1.77559 0
M  V30 3073 H 300.506 2.5995 -3.01116 0
M  V30 3074 H 297.245 2.61985 -6.00869 0
M  V30 3075 H 296.765 3.72542 -4.70077 0
M  V30 3076 H 298.444 3.71789 -5.29511 0
M  V30 3077 N 298.576 1.31904 0.862503 0
M  V30 3078 C 299.987 1.19803 1.43193 0
M  V30 3079 C 300.338 -0.192567 1.95253 0
M  V30 3080 O 299.463 -1.09081 1.86896 0
M  V30 3081 C 300.058 2.16883 2.60283 0
M  V30 3082 C 298.617 2.08692 3.13248 0
M  V30 3083 C 297.764 2.05691 1.85975 0
M  V30 3084 H 300.715 1.43846 0.670365 0
M  V30 3085 H 300.736 1.76278 3.37204 0
M  V30 3086 H 300.248 3.18083 2.22363 0
M  V30 3087 H 298.349 1.10713 3.55771 0
M  V30 3088 H 298.462 2.9815 3.75025 0
M  V30 3089 H 296.826 1.50814 2.05249 0
M  V30 3090 H 297.609 3.08659 1.50282 0
M  V30 3091 N 300.054 -1.07777 1.14986 0
M  V30 3092 C 300.987 -2.14228 0.786243 0
M  V30 3093 C 301.965 -1.60888 -0.235347 0
M  V30 3094 O 303.149 -1.88099 -0.122909 0
M  V30 3095 C 300.276 -3.38281 0.168433 0
M  V30 3096 C 299.322 -4.10387 1.16123 0
M  V30 3097 S 300.155 -4.62371 2.70135 0
M  V30 3098 C 301.311 -5.89704 2.09762 0
M  V30 3099 H 301.544 -2.44741 1.68787 0
M  V30 3100 H 299.077 -1.19984 0.971756 0
M  V30 3101 H 301.035 -4.10098 -0.181588 0
M  V30 3102 H 299.696 -3.05953 -0.710725 0
M  V30 3103 H 298.889 -4.99431 0.677086 0
M  V30 3104 H 298.491 -3.44513 1.45556 0
M  V30 3105 H 300.783 -6.61648 1.45701 0
M  V30 3106 H 301.726 -6.42824 2.96955 0
M  V30 3107 H 302.134 -5.4302 1.54239 0
M  V30 3108 N 301.532 -0.945985 -1.26051 0
M  V30 3109 C 302.809 -0.513816 -1.88731 0
M  V30 3110 C 303.189 1.00872 -1.8544 0
M  V30 3111 O 302.537 1.8708 -1.312 0
M  V30 3112 C 302.747 -1.08062 -3.31849 0
M  V30 3113 C 304.095 -1.1522 -4.08668 0
M  V30 3114 O 305.119 -1.03155 -3.40936 0
M  V30 3115 O 303.978 -1.34044 -5.29806 0
M  V30 3116 H 301.072 -0.168193 -0.809716 0
M  V30 3117 H 303.618 -1.03886 -1.34186 0
M  V30 3118 H 302.39 -2.1241 -3.2863 0
M  V30 3119 H 302.013 -0.538307 -3.93939 0
M  V30 3120 N 303.011 1.40521 -0.713556 0
M  V30 3121 C 304.288 1.94775 -0.17943 0
M  V30 3122 C 304.668 1.65184 1.31444 0
M  V30 3123 O 304.016 0.968429 2.06963 0
M  V30 3124 C 304.226 3.45543 -0.489986 0
M  V30 3125 C 305.574 4.22442 -0.427536 0
M  V30 3126 O 306.598 3.53644 -0.425929 0
M  V30 3127 O 305.457 5.4501 -0.403292 0
M  V30 3128 H 302.551 0.826606 -0.0255192 0
M  V30 3129 H 305.097 1.5014 -0.790949 0
M  V30 3130 H 303.869 3.60432 -1.5233 0
M  V30 3131 H 303.492 3.97311 0.151598 0
M  V30 3132 N 304.489 0.459591 1.5075 0
M  V30 3133 C 305.735 -0.0994966 2.02556 0
M  V30 3134 C 306.068 -1.40399 1.3417 0
M  V30 3135 O 305.343 -1.88892 0.463683 0
M  V30 3136 C 305.626 -0.295242 3.58888 0
M  V30 3137 C 305.479 1.02947 4.37861 0
M  V30 3138 C 306.798 -1.05502 4.27267 0
M  V30 3139 H 303.917 -0.034686 0.736183 0
M  V30 3140 H 306.559 0.602938 1.8018 0
M  V30 3141 H 304.709 -0.893563 3.78084 0
M  V30 3142 H 306.381 1.66348 4.30263 0
M  V30 3143 H 304.624 1.62885 4.02058 0
M  V30 3144 H 305.295 0.846281 5.45474 0
M  V30 3145 H 307.771 -0.547993 4.12476 0
M  V30 3146 H 306.647 -1.16077 5.36486 0
M  V30 3147 H 306.908 -2.08875 3.89645 0
M  V30 3148 N 305.967 -1.56429 0.191757 0
M  V30 3149 C 307.195 -2.01867 -0.453586 0
M  V30 3150 C 307.61 -1.07191 -1.5542 0
M  V30 3151 O 306.967 -0.0762108 -1.82341 0
M  V30 3152 C 307.018 -3.47017 -1.013 0
M  V30 3153 O 306.739 -4.38078 0.0437005 0
M  V30 3154 C 308.24 -4.07956 -1.73456 0
M  V30 3155 H 305.46 -0.661211 -0.114199 0
M  V30 3156 H 308.004 -2.02295 0.299483 0
M  V30 3157 H 306.159 -3.47298 -1.71647 0
M  V30 3158 H 306.573 -5.23178 -0.372212 0
M  V30 3159 H 308.047 -5.1138 -2.07833 0
M  V30 3160 H 308.524 -3.51222 -2.63704 0
M  V30 3161 H 309.13 -4.11437 -1.07702 0
M  V30 3162 N 307.445 0.0818655 -1.57387 0
M  V30 3163 C 308.408 1.08265 -2.02018 0
M  V30 3164 C 309.408 1.32183 -0.915664 0
M  V30 3165 O 310.598 1.28073 -1.18081 0
M  V30 3166 C 307.73 2.42871 -2.39221 0
M  V30 3167 H 308.923 0.698204 -2.91659 0
M  V30 3168 H 306.476 0.327303 -1.52835 0
M  V30 3169 H 307.211 2.86167 -1.52575 0
M  V30 3170 H 306.996 2.26855 -3.19811 0
M  V30 3171 H 308.486 3.14826 -2.74362 0
M  V30 3172 N 308.923 1.53595 0.353017 0
M  V30 3173 C 310.2 1.61002 1.11075 0
M  V30 3174 C 310.58 0.425356 2.0677 0
M  V30 3175 O 309.928 -0.583267 2.2093 0
M  V30 3176 C 310.138 2.96631 1.83877 0
M  V30 3177 C 311.486 3.51653 2.37961 0
M  V30 3178 O 312.51 2.98743 1.93987 0
M  V30 3179 O 311.369 4.44177 3.18386 0
M  V30 3180 H 308.463 0.650825 0.510251 0
M  V30 3181 H 311.009 1.6594 0.35527 0
M  V30 3182 H 309.781 3.74293 1.14108 0
M  V30 3183 H 309.404 2.95242 2.66304 0
M  V30 3184 N 310.401 -0.613514 1.45168 0
M  V30 3185 C 311.331 -1.7354 1.56225 0
M  V30 3186 C 312.312 -1.64981 0.41414 0
M  V30 3187 O 313.497 -1.83472 0.636526 0
M  V30 3188 C 310.627 -3.12128 1.52295 0
M  V30 3189 C 309.581 -3.35491 2.65762 0
M  V30 3190 C 308.907 -4.74291 2.46885 0
M  V30 3191 C 310.207 -3.26325 4.0781 0
M  V30 3192 H 311.901 -1.64543 2.50132 0
M  V30 3193 H 309.447 -0.790185 1.20383 0
M  V30 3194 H 311.4 -3.90404 1.58628 0
M  V30 3195 H 310.124 -3.2195 0.549139 0
M  V30 3196 H 308.783 -2.59603 2.58847 0
M  V30 3197 H 308.431 -4.80839 1.47657 0
M  V30 3198 H 308.131 -4.9088 3.22972 0
M  V30 3199 H 309.655 -5.54775 2.55063 0
M  V30 3200 H 311.069 -3.94483 4.16 0
M  V30 3201 H 309.466 -3.54445 4.8424 0
M  V30 3202 H 310.536 -2.23855 4.30136 0
M  V30 3203 N 311.879 -1.3236 -0.855495 0
M  V30 3204 C 312.842 -1.21164 -1.94556 0
M  V30 3205 C 313.842 -0.134908 -1.60233 0
M  V30 3206 O 315.032 -0.385249 -1.69887 0
M  V30 3207 C 312.164 -0.863192 -3.29791 0
M  V30 3208 H 313.357 -2.18038 -2.05911 0
M  V30 3209 H 310.91 -1.16179 -1.04557 0
M  V30 3210 H 311.645 0.103769 -3.24134 0
M  V30 3211 H 311.43 -1.64166 -3.56078 0
M  V30 3212 H 312.92 -0.809156 -4.09686 0
M  V30 3213 N 313.357 1.07166 -1.15556 0
M  V30 3214 C 314.605 1.79443 -0.929764 0
M  V30 3215 C 314.926 1.87246 0.544414 0
M  V30 3216 O 314.196 1.37473 1.39564 0
M  V30 3217 H 312.776 0.664625 -0.341003 0
M  V30 3218 H 315.438 1.29499 -1.45657 0
M  V30 3219 H 314.534 2.81832 -1.34079 0
M  V30 3220 N 314.835 0.952656 1.25548 0
M  V30 3221 C 316.081 0.607272 1.93494 0
M  V30 3222 C 316.414 -0.853245 1.74452 0
M  V30 3223 O 315.689 -1.61194 1.08843 0
M  V30 3224 C 315.972 0.96435 3.46947 0
M  V30 3225 C 315.825 2.48045 3.75225 0
M  V30 3226 C 317.144 0.487987 4.37386 0
M  V30 3227 H 314.263 0.222096 0.702739 0
M  V30 3228 H 316.905 1.18895 1.48203 0
M  V30 3229 H 315.055 0.469361 3.85654 0
M  V30 3230 H 316.727 3.04905 3.46166 0
M  V30 3231 H 314.97 2.919 3.209 0
M  V30 3232 H 315.641 2.6808 4.82532 0
M  V30 3233 H 318.117 0.912558 4.0597 0
M  V30 3234 H 316.993 0.766547 5.43521 0
M  V30 3235 H 317.254 -0.612063 4.37843 0
M  V30 3236 N 316.313 -1.40141 0.720998 0
M  V30 3237 C 317.243 -2.33339 0.0867621 0
M  V30 3238 C 318.224 -1.53178 -0.739622 0
M  V30 3239 O 319.409 -1.81625 -0.687449 0
M  V30 3240 C 316.539 -3.37194 -0.831728 0
M  V30 3241 C 315.493 -4.27857 -0.110558 0
M  V30 3242 C 314.819 -5.22294 -1.14513 0
M  V30 3243 C 316.119 -5.11872 1.0385 0
M  V30 3244 H 317.813 -2.86626 0.865219 0
M  V30 3245 H 315.359 -1.37814 0.417516 0
M  V30 3246 H 317.312 -4.01335 -1.28485 0
M  V30 3247 H 316.036 -2.82314 -1.64214 0
M  V30 3248 H 314.695 -3.65176 0.322797 0
M  V30 3249 H 314.343 -4.63717 -1.94874 0
M  V30 3250 H 314.043 -5.83797 -0.667446 0
M  V30 3251 H 315.567 -5.89312 -1.59824 0
M  V30 3252 H 316.981 -5.69436 0.664482 0
M  V30 3253 H 315.378 -5.82445 1.4449 0
M  V30 3254 H 316.448 -4.4753 1.86668 0
M  V30 3255 N 317.792 -0.46758 -1.50504 0
M  V30 3256 C 318.755 0.317059 -2.26996 0
M  V30 3257 C 319.755 0.923513 -1.31635 0
M  V30 3258 O 320.945 0.793239 -1.55091 0
M  V30 3259 C 318.077 1.45134 -3.08462 0
M  V30 3260 H 319.27 -0.353723 -2.97807 0
M  V30 3261 H 316.823 -0.221545 -1.54722 0
M  V30 3262 H 317.558 2.15728 -2.4214 0
M  V30 3263 H 317.343 1.02232 -3.78538 0
M  V30 3264 H 318.833 2.00493 -3.66323 0
M  V30 3265 N 319.27 1.56325 -0.20005 0
M  V30 3266 C 320.202 2.16555 0.750771 0
M  V30 3267 C 321.215 1.12871 1.1732 0
M  V30 3268 O 322.404 1.39943 1.10807 0
M  V30 3269 C 319.504 2.71684 2.02586 0
M  V30 3270 C 318.677 4.00321 1.76244 0
M  V30 3271 C 317.736 4.40227 2.88248 0
M  V30 3272 O 316.762 5.07552 2.57642 0
M  V30 3273 N 317.964 4.04138 4.16717 0
M  V30 3274 H 320.729 2.98772 0.235685 0
M  V30 3275 H 318.29 1.6189 -0.0182594 0
M  V30 3276 H 320.282 2.95363 2.76664 0
M  V30 3277 H 318.852 1.93893 2.45202 0
M  V30 3278 H 318.072 3.84723 0.85919 0
M  V30 3279 H 319.36 4.84279 1.56048 0
M  V30 3280 H 318.758 3.49993 4.44434 0
M  V30 3281 H 317.315 4.32756 4.87407 0
M  V30 3282 N 320.748 -0.0735177 1.57428 0
M  V30 3283 C 321.678 -1.0879 2.06608 0
M  V30 3284 C 322.659 -1.40473 0.959237 0
M  V30 3285 O 323.844 -1.5013 1.23185 0
M  V30 3286 C 320.974 -2.40183 2.50857 0
M  V30 3287 C 319.928 -2.22858 3.65402 0
M  V30 3288 C 319.254 -3.59619 3.957 0
M  V30 3289 C 320.554 -1.65123 4.95511 0
M  V30 3290 H 322.248 -0.678673 2.91607 0
M  V30 3291 H 319.794 -0.325013 1.40284 0
M  V30 3292 H 321.747 -3.11437 2.83874 0
M  V30 3293 H 320.471 -2.83083 1.62885 0
M  V30 3294 H 319.13 -1.54045 3.32664 0
M  V30 3295 H 318.778 -4.00086 3.04861 0
M  V30 3296 H 318.478 -3.48866 4.72828 0
M  V30 3297 H 320.002 -4.32306 4.31212 0
M  V30 3298 H 321.416 -2.26241 5.26771 0
M  V30 3299 H 319.813 -1.65071 5.7695 0
M  V30 3300 H 320.883 -0.612559 4.81015 0
M  V30 3301 N 322.226 -1.5378 -0.344866 0
M  V30 3302 C 323.637 -1.62428 -0.920552 0
M  V30 3303 C 323.988 -0.504747 -1.89596 0
M  V30 3304 O 323.113 0.365711 -2.13287 0
M  V30 3305 C 323.708 -2.94419 -1.67639 0
M  V30 3306 C 322.267 -3.05333 -2.20111 0
M  V30 3307 C 321.414 -2.57866 -1.01982 0
M  V30 3308 H 324.365 -1.58222 -0.123042 0
M  V30 3309 H 324.386 -2.83384 -2.53917 0
M  V30 3310 H 323.898 -3.7588 -0.966224 0
M  V30 3311 H 321.999 -2.28502 -2.94308 0
M  V30 3312 H 322.112 -4.10778 -2.46573 0
M  V30 3313 H 320.476 -2.13241 -1.39285 0
M  V30 3314 H 321.259 -3.41765 -0.324308 0
M  V30 3315 N 323.704 0.605807 -1.45491 0
M  V30 3316 C 325.12 0.926751 -1.29936 0
M  V30 3317 C 325.32 1.99896 -0.253706 0
M  V30 3318 O 324.376 2.50038 0.351737 0
M  V30 3319 C 325.689 1.36599 -2.67883 0
M  V30 3320 C 327.237 1.4801 -2.75793 0
M  V30 3321 C 327.712 1.95309 -4.14268 0
M  V30 3322 N 329.203 2.0254 -4.16571 0
M  V30 3323 C 329.938 2.40363 -5.20589 0
M  V30 3324 N 329.434 2.77143 -6.34952 0
M  V30 3325 N 331.227 2.40718 -5.07948 0
M  V30 3326 H 323.378 -0.102862 -2.12151 0
M  V30 3327 H 325.641 0.016639 -0.947854 0
M  V30 3328 H 325.347 0.652306 -3.45598 0
M  V30 3329 H 325.221 2.33215 -2.96463 0
M  V30 3330 H 327.608 2.1847 -1.98381 0
M  V30 3331 H 327.689 0.497041 -2.50925 0
M  V30 3332 H 327.333 1.25436 -4.92167 0
M  V30 3333 H 327.263 2.94532 -4.3653 0
M  V30 3334 H 329.754 1.76699 -3.34045 0
M  V30 3335 H 330.067 3.0489 -7.10114 0
M  V30 3336 H 328.412 2.74834 -6.3835 0
M  V30 3337 H 331.603 2.11392 -4.1765 0
M  V30 3338 H 331.776 2.69869 -5.89131 0
M  V30 3339 N 325.182 1.32811 0.848464 0
M  V30 3340 C 326.43 1.23479 1.59991 0
M  V30 3341 C 326.751 -0.201853 1.93952 0
M  V30 3342 O 326.021 -1.12818 1.60153 0
M  V30 3343 H 324.601 0.454034 0.593179 0
M  V30 3344 H 327.263 1.66412 1.01455 0
M  V30 3345 H 326.359 1.82178 2.53412 0
M  V30 3346 N 326.66 -1.06551 1.16123 0
M  V30 3347 C 327.592 -2.13908 0.823171 0
M  V30 3348 C 328.605 -1.61926 -0.16843 0
M  V30 3349 O 329.794 -1.78412 0.055962 0
M  V30 3350 C 326.894 -3.38283 0.204424 0
M  V30 3351 C 326.067 -4.19589 1.23548 0
M  V30 3352 C 325.126 -5.2233 0.637011 0
M  V30 3353 O 324.152 -5.54034 1.30516 0
M  V30 3354 N 325.354 -5.77621 -0.577474 0
M  V30 3355 H 328.119 -2.43508 1.74711 0
M  V30 3356 H 325.68 -1.2253 1.05821 0
M  V30 3357 H 327.672 -4.0416 -0.208909 0
M  V30 3358 H 326.242 -3.06329 -0.623012 0
M  V30 3359 H 325.462 -3.49406 1.82507 0
M  V30 3360 H 326.75 -4.70718 1.93137 0
M  V30 3361 H 326.148 -5.54125 -1.13853 0
M  V30 3362 H 324.705 -6.45087 -0.933053 0
M  V30 3363 N 328.138 -0.959301 -1.25041 0
M  V30 3364 C 329.086 -0.474437 -2.2771 0
M  V30 3365 C 330.08 0.457697 -1.631 0
M  V30 3366 O 331.286 0.333912 -1.76876 0
M  V30 3367 H 327.661 -0.134936 -0.739795 0
M  V30 3368 H 329.632 -1.35251 -2.65988 0
M  V30 3369 C 328.381 0.227884 -3.46952 0
M  V30 3370 H 327.704 -0.480248 -3.96905 0
M  V30 3371 H 329.144 0.531091 -4.20661 0
M  V30 3372 C 327.603 1.452 -3.04004 0
M  V30 3373 O 328.133 2.54949 -3.10426 0
M  V30 3374 N 326.339 1.31502 -2.59144 0
M  V30 3375 H 325.886 0.422065 -2.54119 0
M  V30 3376 H 325.844 2.13521 -2.30773 0
M  V30 3377 N 329.616 1.39756 -0.72842 0
M  V30 3378 C 330.862 2.00942 -0.273892 0
M  V30 3379 C 331.195 1.57656 1.13394 0
M  V30 3380 O 330.47 0.802434 1.77176 0
M  V30 3381 C 330.753 3.58211 -0.368346 0
M  V30 3382 C 330.606 4.11534 -1.81548 0
M  V30 3383 C 331.925 4.39372 0.253054 0
M  V30 3384 H 329.044 0.730047 -0.100996 0
M  V30 3385 H 331.686 1.66056 -0.923337 0
M  V30 3386 H 329.836 3.88061 0.184588 0
M  V30 3387 H 331.508 3.92431 -2.42478 0
M  V30 3388 H 329.751 3.65341 -2.33898 0
M  V30 3389 H 330.422 5.20682 -1.83288 0
M  V30 3390 H 332.898 4.15527 -0.218224 0
M  V30 3391 H 331.774 5.48677 0.156585 0
M  V30 3392 H 332.035 4.21358 1.33826 0
M  V30 3393 N 331.094 0.475555 1.50254 0
M  V30 3394 C 332.324 -0.0753399 2.06463 0
M  V30 3395 C 332.732 -1.33661 1.33908 0
M  V30 3396 O 332.075 -1.79219 0.403257 0
M  V30 3397 C 332.137 -0.424921 3.5698 0
M  V30 3398 C 331.801 0.734965 4.51051 0
M  V30 3399 C 332.798 1.61827 4.94073 0
M  V30 3400 C 330.483 0.926557 4.9368 0
M  V30 3401 C 332.477 2.67754 5.78434 0
M  V30 3402 C 330.164 1.98904 5.77824 0
M  V30 3403 C 331.162 2.8629 6.20103 0
M  V30 3404 O 330.85 3.90708 7.02568 0
M  V30 3405 H 330.582 0.00576308 0.675975 0
M  V30 3406 H 333.136 0.664662 1.94349 0
M  V30 3407 H 331.366 -1.21817 3.67012 0
M  V30 3408 H 333.055 -0.911422 3.95535 0
M  V30 3409 H 333.821 1.48196 4.61804 0
M  V30 3410 H 329.7 0.25584 4.6029 0
M  V30 3411 H 333.244 3.35992 6.11355 0
M  V30 3412 H 329.141 2.12541 6.09505 0
M  V30 3413 H 329.909 3.87751 7.20827 0
M  V30 3414 N 332.573 -1.56217 0.208337 0
M  V30 3415 C 333.82 -1.97949 -0.42692 0
M  V30 3416 C 334.148 -1.09562 -1.60706 0
M  V30 3417 O 333.403 -0.137616 -1.95216 0
M  V30 3418 C 333.702 -3.45441 -0.916797 0
M  V30 3419 C 333.368 -4.50646 0.151391 0
M  V30 3420 C 332.03 -4.79139 0.444867 0
M  V30 3421 C 334.382 -5.13811 0.874492 0
M  V30 3422 C 331.71 -5.68084 1.46619 0
M  V30 3423 C 334.062 -6.03861 1.88506 0
M  V30 3424 C 332.726 -6.30704 2.18559 0
M  V30 3425 H 331.996 -0.724345 -0.156221 0
M  V30 3426 H 334.643 -1.89006 0.308084 0
M  V30 3427 H 332.948 -3.51521 -1.73032 0
M  V30 3428 H 334.645 -3.75094 -1.41794 0
M  V30 3429 H 331.235 -4.28511 -0.0875068 0
M  V30 3430 H 335.419 -4.91879 0.660996 0
M  V30 3431 H 330.675 -5.87151 1.7048 0
M  V30 3432 H 334.849 -6.51861 2.45051 0
M  V30 3433 H 332.476 -6.99424 2.97843 0
M  V30 3434 N 334.051 0.0651679 -1.57465 0
M  V30 3435 C 335.276 0.779605 -1.9219 0
M  V30 3436 C 335.701 1.69988 -0.805333 0
M  V30 3437 O 335.059 1.79685 0.241435 0
M  V30 3438 C 335.107 1.54364 -3.2589 0
M  V30 3439 O 334.211 2.65474 -3.1559 0
M  V30 3440 H 333.552 0.212249 -0.629163 0
M  V30 3441 H 336.082 0.0314294 -2.04576 0
M  V30 3442 H 336.092 1.92146 -3.59922 0
M  V30 3443 H 334.767 0.868457 -4.06732 0
M  V30 3444 H 333.344 2.30501 -2.93128 0
M  V30 3445 N 335.529 1.53961 0.336706 0
M  V30 3446 C 336.775 1.7179 1.07777 0
M  V30 3447 C 337.108 0.483263 1.88091 0
M  V30 3448 O 336.383 -0.519747 1.87427 0
M  V30 3449 C 336.666 2.98558 2.01334 0
M  V30 3450 C 336.519 4.32245 1.24437 0
M  V30 3451 C 337.838 3.21023 3.01052 0
M  V30 3452 H 334.957 0.625089 0.390426 0
M  V30 3453 H 337.599 1.86641 0.35567 0
M  V30 3454 H 335.749 2.86028 2.62908 0
M  V30 3455 H 337.421 4.56637 0.654243 0
M  V30 3456 H 335.664 4.30344 0.546458 0
M  V30 3457 H 336.335 5.17137 1.93063 0
M  V30 3458 H 338.811 3.32929 2.49595 0
M  V30 3459 H 337.687 4.11104 3.6371 0
M  V30 3460 H 337.948 2.37637 3.72802 0
M  V30 3461 N 337.007 -0.598083 1.45811 0
M  V30 3462 C 338.284 -1.35777 1.40797 0
M  V30 3463 C 338.664 -2.10935 0.083462 0
M  V30 3464 O 338.012 -2.08505 -0.934763 0
M  V30 3465 C 338.222 -2.29666 2.62783 0
M  V30 3466 C 339.57 -2.91977 3.08277 0
M  V30 3467 O 340.594 -2.39984 2.63223 0
M  V30 3468 O 339.453 -3.86376 3.86491 0
M  V30 3469 H 336.547 -0.609291 0.55919 0
M  V30 3470 H 339.093 -0.620379 1.57954 0
M  V30 3471 H 337.865 -1.73454 3.50756 0
M  V30 3472 H 337.488 -3.1077 2.48008 0
M  V30 3473 N 338.485 -1.33259 -0.841409 0
M  V30 3474 C 339.731 -1.24757 -1.59886 0
M  V30 3475 C 340.064 0.186913 -1.93298 0
M  V30 3476 O 339.339 1.12757 -1.5848 0
M  V30 3477 C 339.622 -2.12036 -2.91055 0
M  V30 3478 C 339.475 -3.63929 -2.6434 0
M  V30 3479 C 340.794 -1.9916 -3.92458 0
M  V30 3480 H 337.913 -0.454542 -0.580138 0
M  V30 3481 H 340.555 -1.63335 -0.970647 0
M  V30 3482 H 338.705 -1.79265 -3.44669 0
M  V30 3483 H 340.377 -4.06978 -2.17178 0
M  V30 3484 H 338.62 -3.85935 -1.98082 0
M  V30 3485 H 339.291 -4.20341 -3.57796 0
M  V30 3486 H 341.767 -2.27895 -3.48143 0
M  V30 3487 H 340.643 -2.62484 -4.82072 0
M  V30 3488 H 340.904 -0.963082 -4.31482 0
M  V30 3489 N 339.963 1.05934 -1.16686 0
M  V30 3490 C 341.24 1.75643 -0.860747 0
M  V30 3491 C 341.62 2.01144 0.640641 0
M  V30 3492 O 340.968 1.64147 1.58959 0
M  V30 3493 C 341.178 3.05493 -1.68745 0
M  V30 3494 C 342.526 3.79581 -1.90271 0
M  V30 3495 O 343.55 3.15344 -1.65641 0
M  V30 3496 O 342.409 4.9499 -2.31618 0
M  V30 3497 H 339.503 0.763426 -0.317977 0
M  V30 3498 H 342.049 1.1217 -1.27342 0
M  V30 3499 H 340.821 2.8264 -2.70611 0
M  V30 3500 H 340.444 3.76702 -1.27206 0
M  V30 3501 N 341.441 0.965919 1.2453 0
M  V30 3502 C 342.689 0.625593 1.92174 0
M  V30 3503 C 343.01 -0.841652 1.75901 0
M  V30 3504 O 342.28 -1.60061 1.12948 0
M  V30 3505 H 340.86 0.228388 0.71123 0
M  V30 3506 H 343.522 1.2266 1.51461 0
M  V30 3507 H 342.618 0.864653 2.99884 0
M  V30 3508 N 342.919 -1.39368 0.735821 0
M  V30 3509 C 344.166 -2.00497 0.284123 0
M  V30 3510 C 344.494 -1.58387 -1.12889 0
M  V30 3511 O 343.749 -0.804359 -1.78406 0
M  V30 3512 C 344.048 -3.5583 0.334651 0
M  V30 3513 C 343.714 -4.17593 1.7008 0
M  V30 3514 C 342.376 -4.34176 2.07472 0
M  V30 3515 C 344.728 -4.51848 2.59775 0
M  V30 3516 C 342.056 -4.82304 3.34065 0
M  V30 3517 C 344.408 -5.01384 3.85741 0
M  V30 3518 C 343.072 -5.16175 4.23225 0
M  V30 3519 H 342.342 -0.73367 0.103968 0
M  V30 3520 H 344.989 -1.66683 0.942825 0
M  V30 3521 H 343.294 -3.89674 -0.407625 0
M  V30 3522 H 344.991 -4.00986 -0.0329927 0
M  V30 3523 H 341.581 -4.05087 1.40008 0
M  V30 3524 H 345.765 -4.38653 2.32157 0
M  V30 3525 H 341.021 -4.91941 3.63049 0
M  V30 3526 H 345.195 -5.26863 4.55399 0
M  V30 3527 H 342.822 -5.5323 5.21384 0
M  V30 3528 N 344.397 -0.483516 -1.5 0
M  V30 3529 C 345.674 0.129337 -1.95172 0
M  V30 3530 C 346.054 1.55802 -1.4244 0
M  V30 3531 O 345.402 2.19625 -0.630649 0
M  V30 3532 C 345.612 0.0599251 -3.48949 0
M  V30 3533 C 346.96 0.242617 -4.23906 0
M  V30 3534 O 347.984 0.135933 -3.55941 0
M  V30 3535 O 346.843 0.459454 -5.44565 0
M  V30 3536 H 343.937 0.104887 -0.820322 0
M  V30 3537 H 346.483 -0.544807 -1.60717 0
M  V30 3538 H 345.255 -0.937079 -3.79914 0
M  V30 3539 H 344.878 0.774984 -3.89974 0
M  V30 3540 N 345.875 1.56104 -0.216619 0
M  V30 3541 C 347.286 1.844 0.292128 0
M  V30 3542 C 347.637 1.13788 1.59833 0
M  V30 3543 O 346.762 0.405888 2.12559 0
M  V30 3544 C 347.357 3.3452 0.53681 0
M  V30 3545 C 345.916 3.63151 0.989876 0
M  V30 3546 C 345.063 2.77255 0.0502302 0
M  V30 3547 H 348.014 1.52481 -0.439926 0
M  V30 3548 H 348.035 3.54459 1.38345 0
M  V30 3549 H 347.547 3.85885 -0.414031 0
M  V30 3550 H 345.648 3.17238 1.95425 0
M  V30 3551 H 345.761 4.71177 0.867698 0
M  V30 3552 H 344.125 2.48555 0.556117 0
M  V30 3553 H 344.908 3.31416 -0.89544 0
M  V30 3554 N 347.353 -0.0568162 1.57498 0
M  V30 3555 C 348.316 -1.05038 2.03715 0
M  V30 3556 C 349.316 -1.30709 0.936577 0
M  V30 3557 O 350.506 -1.26178 1.20103 0
M  V30 3558 C 347.638 -2.39034 2.43055 0
M  V30 3559 H 348.831 -0.651715 2.92733 0
M  V30 3560 H 346.384 -0.302947 1.53336 0
M  V30 3561 H 347.119 -2.83703 1.57108 0
M  V30 3562 H 346.904 -2.21739 3.2338 0
M  V30 3563 H 348.394 -3.10421 2.79336 0
M  V30 3564 N 348.832 -1.54138 -0.328536 0
M  V30 3565 C 350.078 -1.7236 -1.06865 0
M  V30 3566 C 350.411 -0.493231 -1.87832 0
M  V30 3567 O 349.686 0.5098 -1.877 0
M  V30 3568 C 349.969 -2.99621 -1.99747 0
M  V30 3569 C 349.822 -4.32899 -1.22143 0
M  V30 3570 C 351.141 -3.22615 -2.99345 0
M  V30 3571 H 348.26 -0.627151 -0.387105 0
M  V30 3572 H 350.902 -1.86827 -0.345767 0
M  V30 3573 H 349.052 -2.87418 -2.61387 0
M  V30 3574 H 350.724 -4.56978 -0.630017 0
M  V30 3575 H 348.967 -4.30628 -0.523628 0
M  V30 3576 H 349.638 -5.18154 -1.90318 0
M  V30 3577 H 352.114 -3.34248 -2.47826 0
M  V30 3578 H 350.99 -4.13027 -3.61524 0
M  V30 3579 H 351.251 -2.3961 -3.71536 0
M  V30 3580 N 350.31 0.590341 -1.46126 0
M  V30 3581 C 351.559 1.34499 -1.50309 0
M  V30 3582 C 351.872 1.94977 -0.156021 0
M  V30 3583 O 353.078 2.71395 -0.0756037 0
M  V30 3584 C 351.534 2.43723 -2.64815 0
M  V30 3585 C 351.142 1.89582 -4.0591 0
M  V30 3586 C 352.886 3.20579 -2.78262 0
M  V30 3587 C 350.793 2.9639 -5.11769 0
M  V30 3588 H 349.723 0.505593 -0.559368 0
M  V30 3589 H 352.374 0.630848 -1.72315 0
M  V30 3590 H 350.756 3.17902 -2.36124 0
M  V30 3591 H 351.93 1.21997 -4.44357 0
M  V30 3592 H 350.245 1.25418 -3.97063 0
M  V30 3593 H 352.842 4.00276 -3.54519 0
M  V30 3594 H 353.185 3.72684 -1.85505 0
M  V30 3595 H 353.718 2.53505 -3.06562 0
M  V30 3596 H 350.457 2.49181 -6.06291 0
M  V30 3597 H 349.977 3.62487 -4.77873 0
M  V30 3598 H 351.656 3.60474 -5.37278 0
M  V30 3599 N 351.788 1.33704 0.83433 0
M  V30 3600 C 353.199 1.22813 1.4062 0
M  V30 3601 C 353.55 -0.151107 1.95617 0
M  V30 3602 O 352.675 -1.05092 1.89168 0
M  V30 3603 C 353.27 2.22355 2.55624 0
M  V30 3604 C 351.829 2.1529 3.08751 0
M  V30 3605 C 350.976 2.09589 1.8157 0
M  V30 3606 H 353.927 1.45236 0.639702 0
M  V30 3607 H 353.948 1.83391 3.33389 0
M  V30 3608 H 353.46 3.22728 2.15566 0
M  V30 3609 H 351.561 1.18235 3.53343 0
M  V30 3610 H 351.674 3.06038 3.68616 0
M  V30 3611 H 350.038 1.55134 2.02004 0
M  V30 3612 H 350.821 3.11777 1.43701 0
M  V30 3613 N 353.266 -1.05314 1.17247 0
M  V30 3614 C 354.514 -1.77941 0.958194 0
M  V30 3615 C 354.835 -1.88089 -0.514556 0
M  V30 3616 O 354.105 -1.39676 -1.37359 0
M  V30 3617 H 352.685 -0.659116 0.351533 0
M  V30 3618 H 355.347 -1.27166 1.47699 0
M  V30 3619 H 354.443 -2.79663 1.38546 0
M  V30 3620 N 354.744 -0.972509 -1.24016 0
M  V30 3621 C 355.972 -0.654803 -1.96265 0
M  V30 3622 C 356.387 0.776708 -1.72083 0
M  V30 3623 O 355.744 1.52171 -1.00748 0
M  V30 3624 C 355.795 -0.92592 -3.49441 0
M  V30 3625 O 355.516 -2.30116 -3.72798 0
M  V30 3626 C 357.017 -0.623068 -4.38899 0
M  V30 3627 H 354.237 -0.243907 -0.6251 0
M  V30 3628 H 356.781 -1.30175 -1.57717 0
M  V30 3629 H 354.936 -0.325108 -3.86033 0
M  V30 3630 H 355.35 -2.38483 -4.67147 0
M  V30 3631 H 356.824 -0.863189 -5.45209 0
M  V30 3632 H 357.301 0.442754 -4.36963 0
M  V30 3633 H 357.907 -1.204 -4.07902 0
M  V30 3634 N 356.222 1.38976 -0.743202 0
M  V30 3635 C 357.447 2.05161 -0.303936 0
M  V30 3636 C 357.872 1.55677 1.05576 0
M  V30 3637 O 357.23 0.704131 1.67068 0
M  V30 3638 C 357.278 3.59138 -0.324373 0
M  V30 3639 O 356.382 4.06668 0.685204 0
M  V30 3640 H 355.723 0.649815 -0.136518 0
M  V30 3641 H 358.253 1.77852 -1.01142 0
M  V30 3642 H 358.263 4.07639 -0.171618 0
M  V30 3643 H 356.938 3.94515 -1.31647 0
M  V30 3644 H 355.515 3.69561 0.497913 0
M  V30 3645 N 357.7 0.491464 1.49741 0
M  V30 3646 C 358.925 -0.0557177 2.07325 0
M  V30 3647 C 359.35 -1.30925 1.35056 0
M  V30 3648 O 358.708 -1.76733 0.404365 0
M  V30 3649 C 358.756 -0.302074 3.59333 0
M  V30 3650 O 357.86 -1.37868 3.88672 0
M  V30 3651 H 357.201 0.0219956 0.663636 0
M  V30 3652 H 359.731 0.688352 1.92673 0
M  V30 3653 H 359.741 -0.536464 4.04458 0
M  V30 3654 H 358.416 0.61383 4.11345 0
M  V30 3655 H 356.993 -1.12999 3.55367 0
M  V30 3656 N 359.178 -1.55987 0.224894 0
M  V30 3657 C 360.589 -1.84553 -0.282345 0
M  V30 3658 C 360.94 -1.14634 -1.59227 0
M  V30 3659 O 360.065 -0.417155 -2.12341 0
M  V30 3660 C 360.66 -3.348 -0.519062 0
M  V30 3661 C 359.219 -3.63671 -0.970604 0
M  V30 3662 C 358.366 -2.77277 -0.0355261 0
M  V30 3663 H 361.317 -1.52245 0.448006 0
M  V30 3664 H 361.338 -3.55187 -1.36463 0
M  V30 3665 H 360.85 -3.8566 0.43449 0
M  V30 3666 H 358.951 -3.1827 -1.9374 0
M  V30 3667 H 359.064 -4.71631 -0.842698 0
M  V30 3668 H 357.428 -2.48846 -0.542927 0
M  V30 3669 H 358.211 -3.30937 0.913003 0
M  V30 3670 N 360.656 0.0484629 -1.57525 0
M  V30 3671 C 361.566 1.07241 -2.08654 0
M  V30 3672 C 362.582 1.409 -1.02095 0
M  V30 3673 O 363.758 1.50609 -1.33712 0
M  V30 3674 C 360.823 2.36008 -2.5397 0
M  V30 3675 C 359.884 2.09108 -3.7493 0
M  V30 3676 C 359.117 3.31736 -4.18075 0
M  V30 3677 O 359.34 4.41714 -3.60895 0
M  V30 3678 O 358.274 3.18576 -5.10679 0
M  V30 3679 H 362.1 0.667965 -2.96263 0
M  V30 3680 H 359.685 0.26417 -1.47046 0
M  V30 3681 H 361.567 3.11747 -2.83535 0
M  V30 3682 H 360.242 2.75786 -1.69481 0
M  V30 3683 H 359.149 1.31 -3.50414 0
M  V30 3684 H 360.482 1.74198 -4.60343 0
M  V30 3685 N 362.134 1.5431 0.320358 0
M  V30 3686 C 363.545 1.63872 0.894594 0
M  V30 3687 C 363.896 0.534847 1.88769 0
M  V30 3688 O 363.021 -0.331732 2.13842 0
M  V30 3689 C 363.616 2.97049 1.62934 0
M  V30 3690 C 362.175 3.08796 2.15226 0
M  V30 3691 C 361.322 2.59456 0.978671 0
M  V30 3692 H 364.273 1.58398 0.0978544 0
M  V30 3693 H 364.294 2.87388 2.49376 0
M  V30 3694 H 363.806 3.7737 0.906302 0
M  V30 3695 H 361.907 2.33156 2.90636 0
M  V30 3696 H 362.02 4.14649 2.40006 0
M  V30 3697 H 360.384 2.1543 1.35875 0
M  V30 3698 H 361.167 3.42237 0.269895 0
M  V30 3699 N 363.613 -0.582584 1.46437 0
M  V30 3700 C 364.89 -1.34276 1.4223 0
M  V30 3701 C 365.27 -2.10835 0.10583 0
M  V30 3702 O 364.618 -2.09485 -0.912596 0
M  V30 3703 C 364.828 -2.26865 2.65204 0
M  V30 3704 C 366.176 -2.88691 3.11356 0
M  V30 3705 O 367.2 -2.37178 2.65753 0
M  V30 3706 O 366.059 -3.82255 3.90568 0
M  V30 3707 H 363.153 -0.603326 0.565621 0
M  V30 3708 H 365.699 -0.603591 1.58603 0
M  V30 3709 H 364.471 -1.69724 3.52576 0
M  V30 3710 H 364.094 -3.08122 2.5129 0
M  V30 3711 N 365.091 -1.34144 -0.827227 0
M  V30 3712 C 366.339 -1.26009 -1.58007 0
M  V30 3713 C 366.66 0.170971 -1.94249 0
M  V30 3714 O 365.93 1.10256 -1.61927 0
M  V30 3715 H 364.51 -0.463414 -0.585881 0
M  V30 3716 H 367.172 -1.68005 -0.987951 0
M  V30 3717 H 366.268 -1.86187 -2.50481 0
M  V30 3718 N 366.569 1.04691 -1.17803 0
M  V30 3719 C 367.499 2.14494 -0.92275 0
M  V30 3720 C 368.48 1.69546 0.137179 0
M  V30 3721 O 369.665 1.94195 -0.0141108 0
M  V30 3722 C 366.795 3.44491 -0.440803 0
M  V30 3723 C 365.749 4.03031 -1.4405 0
M  V30 3724 C 365.075 5.28432 -0.81631 0
M  V30 3725 C 366.375 4.39932 -2.81527 0
M  V30 3726 H 368.069 2.36107 -1.84103 0
M  V30 3727 H 365.615 1.1347 -0.886599 0
M  V30 3728 H 367.568 4.2066 -0.249602 0
M  V30 3729 H 366.292 3.22546 0.513025 0
M  V30 3730 H 364.951 3.28937 -1.61853 0
M  V30 3731 H 364.599 5.02792 0.144511 0
M  V30 3732 H 364.299 5.68559 -1.48371 0
M  V30 3733 H 365.823 6.07284 -0.635496 0
M  V30 3734 H 367.237 5.07113 -2.67412 0
M  V30 3735 H 365.634 4.9109 -3.44892 0
M  V30 3736 H 366.704 3.50045 -3.35554 0
M  V30 3737 N 368.047 0.979072 1.23499 0
M  V30 3738 C 369.275 0.665202 1.95915 0
M  V30 3739 C 369.69 -0.767571 1.72493 0
M  V30 3740 O 369.047 -1.51635 1.01554 0
M  V30 3741 C 369.098 0.944438 3.48945 0
M  V30 3742 O 368.819 2.3209 3.71572 0
M  V30 3743 C 370.32 0.646336 4.38563 0
M  V30 3744 H 367.54 0.247218 0.623798 0
M  V30 3745 H 370.084 1.31009 1.57025 0
M  V30 3746 H 368.239 0.345575 3.85856 0
M  V30 3747 H 368.653 2.40957 4.65876 0
M  V30 3748 H 370.127 0.892091 5.44744 0
M  V30 3749 H 370.604 -0.419575 4.37191 0
M  V30 3750 H 371.21 1.22562 4.07258 0
M  V30 3751 N 369.525 -1.3858 0.750561 0
M  V30 3752 C 370.755 -2.04175 0.31564 0
M  V30 3753 C 371.163 -1.56726 -1.05989 0
M  V30 3754 O 370.506 -0.734225 -1.68389 0
M  V30 3755 C 370.568 -3.58585 0.256389 0
M  V30 3756 C 370.232 -4.29077 1.57296 0
M  V30 3757 C 371.229 -4.54656 2.52159 0
M  V30 3758 C 368.914 -4.67324 1.84156 0
M  V30 3759 C 370.908 -5.17512 3.72103 0
M  V30 3760 C 368.595 -5.29905 3.04374 0
M  V30 3761 C 369.593 -5.54933 3.98168 0
M  V30 3762 O 369.281 -6.16212 5.16273 0
M  V30 3763 H 369.013 -0.662742 0.133226 0
M  V30 3764 H 371.567 -1.78313 1.01948 0
M  V30 3765 H 369.797 -3.83406 -0.503677 0
M  V30 3766 H 371.486 -4.05628 -0.148612 0
M  V30 3767 H 372.252 -4.25539 2.32683 0
M  V30 3768 H 368.131 -4.47191 1.11988 0
M  V30 3769 H 371.675 -5.36963 4.45327 0
M  V30 3770 H 367.572 -5.58444 3.23745 0
M  V30 3771 H 368.34 -6.34701 5.16815 0
M  V30 3772 N 371.003 -0.499398 -1.49478 0
M  V30 3773 C 371.966 0.268838 -2.27618 0
M  V30 3774 C 372.966 0.895383 -1.33565 0
M  V30 3775 O 374.156 0.760164 -1.56739 0
M  V30 3776 C 371.288 1.38559 -3.11471 0
M  V30 3777 H 372.481 -0.416812 -2.96989 0
M  V30 3778 H 370.034 -0.254313 -1.54217 0
M  V30 3779 H 370.769 2.10544 -2.46661 0
M  V30 3780 H 370.554 0.941797 -3.80621 0
M  V30 3781 H 372.044 1.92678 -3.70493 0
M  V30 3782 N 372.481 1.55866 -0.233164 0
M  V30 3783 C 373.413 2.18099 0.704668 0
M  V30 3784 C 374.426 1.15334 1.14899 0
M  V30 3785 O 375.615 1.42262 1.07814 0
M  V30 3786 C 372.715 2.7592 1.96777 0
M  V30 3787 C 371.888 4.03969 1.67713 0
M  V30 3788 C 370.947 4.46242 2.78845 0
M  V30 3789 O 369.973 5.12903 2.46818 0
M  V30 3790 N 371.175 4.12886 4.08051 0
M  V30 3791 H 373.94 2.99205 0.172258 0
M  V30 3792 H 371.501 1.61815 -0.0525945 0
M  V30 3793 H 373.493 3.01165 2.70337 0
M  V30 3794 H 372.063 1.99051 2.41034 0
M  V30 3795 H 371.283 3.86459 0.777391 0
M  V30 3796 H 372.571 4.8748 1.4574 0
M  V30 3797 H 371.969 3.59342 4.3691 0
M  V30 3798 H 370.526 4.42997 4.78118 0
M  V30 3799 N 373.959 -0.0401083 1.57549 0
M  V30 3800 C 375.207 -0.731677 1.8839 0
M  V30 3801 C 375.528 -1.76481 0.829425 0
M  V30 3802 O 374.798 -1.95411 -0.1383 0
M  V30 3803 H 373.378 -0.273225 0.695239 0
M  V30 3804 H 376.04 -0.00867725 1.94898 0
M  V30 3805 H 375.136 -1.22816 2.86919 0
M  V30 3806 N 375.437 -1.54477 -0.31217 0
M  V30 3807 C 376.37 -1.79519 -1.40884 0
M  V30 3808 C 377.348 -0.645753 -1.49227 0
M  V30 3809 O 378.532 -0.884468 -1.66461 0
M  V30 3810 C 375.659 -1.92194 -2.78889 0
M  V30 3811 C 374.705 -3.14555 -2.88023 0
M  V30 3812 S 375.538 -4.72893 -2.51262 0
M  V30 3813 C 376.694 -4.8849 -3.91317 0
M  V30 3814 H 376.927 -2.72256 -1.19432 0
M  V30 3815 H 374.46 -1.45746 -0.509654 0
M  V30 3816 H 376.418 -2.00182 -3.58382 0
M  V30 3817 H 375.079 -1.00414 -2.97617 0
M  V30 3818 H 374.272 -3.20193 -3.89221 0
M  V30 3819 H 373.874 -3.04955 -2.16514 0
M  V30 3820 H 376.166 -4.71826 -4.86196 0
M  V30 3821 H 377.109 -5.90588 -3.90656 0
M  V30 3822 H 377.517 -4.16715 -3.80801 0
M  V30 3823 N 376.915 0.57481 -1.46744 0
M  V30 3824 C 377.862 1.68329 -1.57905 0
M  V30 3825 C 378.832 1.60625 -0.422927 0
M  V30 3826 O 380.017 1.79721 -0.640711 0
M  V30 3827 C 377.157 3.06665 -1.58274 0
M  V30 3828 C 376.27 3.24935 -2.84678 0
M  V30 3829 C 375.405 4.53566 -2.76499 0
M  V30 3830 C 374.444 4.65207 -3.97806 0
M  V30 3831 N 373.581 5.85172 -3.87967 0
M  V30 3832 H 378.421 1.58127 -2.52587 0
M  V30 3833 H 375.958 0.770552 -1.25303 0
M  V30 3834 H 377.916 3.86745 -1.56473 0
M  V30 3835 H 376.546 3.15745 -0.671194 0
M  V30 3836 H 375.598 2.38405 -2.96424 0
M  V30 3837 H 376.91 3.29403 -3.7456 0
M  V30 3838 H 376.064 5.41885 -2.72848 0
M  V30 3839 H 374.803 4.51548 -1.8427 0
M  V30 3840 H 373.808 3.75304 -4.0178 0
M  V30 3841 H 375.033 4.68997 -4.9114 0
M  V30 3842 H 372.979 5.84137 -2.98529 0
M  V30 3843 H 372.896 5.90943 -4.71511 0
M  V30 3844 H 374.164 6.759 -3.88303 0
M  V30 3845 N 378.394 1.34581 0.820102 0
M  V30 3846 C 379.643 1.26437 1.57151 0
M  V30 3847 C 379.956 -0.163111 1.94919 0
M  V30 3848 O 381.162 -0.366722 2.69012 0
M  V30 3849 C 379.618 2.21658 2.83541 0
M  V30 3850 C 379.226 3.69679 2.53065 0
M  V30 3851 C 380.97 2.22428 3.61561 0
M  V30 3852 C 378.877 4.56761 3.75664 0
M  V30 3853 H 377.807 0.469707 0.589823 0
M  V30 3854 H 380.458 1.59763 0.902656 0
M  V30 3855 H 378.84 1.81287 3.52067 0
M  V30 3856 H 380.014 4.18605 1.92631 0
M  V30 3857 H 378.329 3.71384 1.88316 0
M  V30 3858 H 380.926 2.8471 4.52597 0
M  V30 3859 H 381.269 1.22434 3.97889 0
M  V30 3860 H 381.802 2.61259 2.99981 0
M  V30 3861 H 378.541 5.57702 3.44454 0
M  V30 3862 H 378.061 4.12568 4.35371 0
M  V30 3863 H 379.74 4.71509 4.43044 0
M  V30 3864 N 379.872 -1.04064 1.18357 0
M  V30 3865 C 380.802 -2.14001 0.934113 0
M  V30 3866 C 381.783 -1.69616 -0.128186 0
M  V30 3867 O 382.968 -1.94185 0.0244093 0
M  V30 3868 C 380.098 -3.44253 0.459066 0
M  V30 3869 C 379.052 -4.02261 1.46185 0
M  V30 3870 C 378.378 -5.27992 0.844322 0
M  V30 3871 C 379.678 -4.38432 2.83856 0
M  V30 3872 H 381.372 -2.35127 1.85352 0
M  V30 3873 H 378.918 -1.12998 0.892604 0
M  V30 3874 H 380.871 -4.20522 0.271907 0
M  V30 3875 H 379.595 -3.22813 -0.495912 0
M  V30 3876 H 378.254 -3.28074 1.63595 0
M  V30 3877 H 377.902 -5.02862 -0.117845 0
M  V30 3878 H 377.602 -5.67765 1.51384 0
M  V30 3879 H 379.126 -6.06938 0.667693 0
M  V30 3880 H 380.54 -5.05688 2.70098 0
M  V30 3881 H 378.937 -4.89254 3.47491 0
M  V30 3882 H 380.007 -3.4826 3.37406 0
M  V30 3883 N 381.35 -0.985608 -1.22978 0
M  V30 3884 C 382.313 -0.535071 -2.22867 0
M  V30 3885 C 383.313 0.378123 -1.56291 0
M  V30 3886 O 384.503 0.171092 -1.73358 0
M  V30 3887 C 381.635 0.222702 -3.40172 0
M  V30 3888 H 382.828 -1.41835 -2.6424 0
M  V30 3889 H 380.381 -0.772042 -1.35901 0
M  V30 3890 H 381.116 1.12229 -3.04262 0
M  V30 3891 H 380.901 -0.43288 -3.89703 0
M  V30 3892 H 382.391 0.526335 -4.1427 0
M  V30 3893 N 382.828 1.3818 -0.7579 0
M  V30 3894 C 383.791 2.28764 -0.141286 0
M  V30 3895 C 384.791 1.47388 0.642907 0
M  V30 3896 O 385.981 1.67781 0.468536 0
M  V30 3897 C 383.113 3.31184 0.808069 0
M  V30 3898 H 384.306 2.848 -0.939633 0
M  V30 3899 H 381.859 1.47212 -0.525191 0
M  V30 3900 H 382.594 2.80247 1.63193 0
M  V30 3901 H 382.379 3.91314 0.248104 0
M  V30 3902 H 383.869 3.98909 1.23536 0
M  V30 3903 N 384.306 0.507319 1.49211 0
M  V30 3904 C 385.269 -0.256763 2.27757 0
M  V30 3905 C 386.269 -0.888287 1.34038 0
M  V30 3906 O 387.459 -0.751841 1.5714 0
M  V30 3907 C 384.591 -1.36905 3.12202 0
M  V30 3908 H 385.784 0.432557 2.96764 0
M  V30 3909 H 383.337 0.262488 1.5408 0
M  V30 3910 H 384.072 -2.09233 2.47775 0
M  V30 3911 H 383.857 -0.921599 3.81115 0
M  V30 3912 H 385.347 -1.9071 3.7151 0
M  V30 3913 N 385.784 -1.5574 0.241426 0
M  V30 3914 C 386.747 -2.19877 -0.647063 0
M  V30 3915 C 387.747 -1.16642 -1.10686 0
M  V30 3916 O 388.937 -1.41757 -1.01245 0
M  V30 3917 C 386.069 -2.83797 -1.88871 0
M  V30 3918 H 387.262 -2.99772 -0.087574 0
M  V30 3919 H 384.815 -1.56298 -0.00813574 0
M  V30 3920 H 385.55 -2.07824 -2.48957 0
M  V30 3921 H 385.335 -3.59414 -1.56728 0
M  V30 3922 H 386.825 -3.32898 -2.52129 0
M  V30 3923 N 387.262 0.0317525 -1.57568 0
M  V30 3924 C 388.225 1.01783 -2.0536 0
M  V30 3925 C 389.225 1.29203 -0.957253 0
M  V30 3926 O 390.415 1.24251 -1.22095 0
M  V30 3927 C 387.547 2.35137 -2.46827 0
M  V30 3928 H 388.74 0.605062 -2.93733 0
M  V30 3929 H 386.293 0.278514 -1.53799 0
M  V30 3930 H 387.028 2.81168 -1.61602 0
M  V30 3931 H 386.813 2.16566 -3.26866 0
M  V30 3932 H 388.303 3.05938 -2.84239 0
M  V30 3933 N 388.74 1.54641 0.303973 0
M  V30 3934 C 389.688 1.86137 1.39484 0
M  V30 3935 C 390.682 0.734854 1.52631 0
M  V30 3936 O 391.888 0.918803 1.54784 0
M  V30 3937 H 388.263 0.590324 0.465856 0
M  V30 3938 H 390.234 2.77324 1.10154 0
M  V30 3939 C 388.983 2.12274 2.75382 0
M  V30 3940 H 388.306 2.98429 2.66046 0
M  V30 3941 H 389.746 2.38254 3.5073 0
M  V30 3942 C 388.205 0.920365 3.24085 0
M  V30 3943 O 388.735 0.139377 4.01458 0
M  V30 3944 N 386.941 0.726566 2.81371 0
M  V30 3945 H 386.488 1.36332 2.18567 0
M  V30 3946 H 386.446 -0.0763799 3.14307 0
M  V30 3947 N 390.218 -0.567019 1.47046 0
M  V30 3948 C 391.166 -1.69593 1.59188 0
M  V30 3949 C 392.16 -1.63046 0.459609 0
M  V30 3950 O 393.366 -1.6835 0.637058 0
M  V30 3951 H 389.741 -0.560993 0.500791 0
M  V30 3952 H 391.712 -1.56488 2.54075 0
M  V30 3953 C 390.461 -3.07964 1.61411 0
M  V30 3954 H 389.784 -3.13679 2.47881 0
M  V30 3955 H 391.224 -3.86671 1.73958 0
M  V30 3956 C 389.683 -3.35123 0.34559 0
M  V30 3957 O 390.213 -3.97812 -0.557521 0
M  V30 3958 N 388.419 -2.89699 0.22864 0
M  V30 3959 H 387.966 -2.38863 0.964479 0
M  V30 3960 H 387.924 -3.08242 -0.619192 0
M  V30 3961 N 391.696 -1.35014 -0.812953 0
M  V30 3962 C 392.924 -1.31031 -1.6012 0
M  V30 3963 C 393.339 0.113558 -1.88458 0
M  V30 3964 O 392.696 1.06363 -1.48301 0
M  V30 3965 C 392.747 -2.10872 -2.93624 0
M  V30 3966 O 392.468 -3.47706 -2.66518 0
M  V30 3967 C 393.969 -2.14401 -3.88004 0
M  V30 3968 H 391.189 -0.45037 -0.497401 0
M  V30 3969 H 393.733 -1.77775 -1.01076 0
M  V30 3970 H 391.888 -1.67744 -3.492 0
M  V30 3971 H 392.302 -3.89097 -3.51715 0
M  V30 3972 H 393.776 -2.74669 -4.78812 0
M  V30 3973 H 394.253 -1.14105 -4.24119 0
M  V30 3974 H 394.859 -2.57662 -3.38364 0
M  V30 3975 N 393.175 1.03435 -1.18907 0
M  V30 3976 C 394.421 1.77005 -0.989798 0
M  V30 3977 C 394.754 1.88205 0.478816 0
M  V30 3978 O 394.029 1.39481 1.35556 0
M  V30 3979 C 394.312 3.19925 -1.65287 0
M  V30 3980 C 394.165 3.1663 -3.19477 0
M  V30 3981 C 395.484 4.18189 -1.37134 0
M  V30 3982 H 392.603 0.642538 -0.360991 0
M  V30 3983 H 395.245 1.20784 -1.46667 0
M  V30 3984 H 393.395 3.67929 -1.24741 0
M  V30 3985 H 395.067 2.76567 -3.692 0
M  V30 3986 H 393.31 2.54491 -3.51307 0
M  V30 3987 H 393.981 4.1758 -3.61013 0
M  V30 3988 H 396.457 3.78761 -1.72276 0
M  V30 3989 H 395.333 5.16394 -1.86087 0
M  V30 3990 H 395.594 4.41112 -0.295424 0
M  V30 3991 N 394.653 0.992116 1.22453 0
M  V30 3992 C 395.899 0.668523 1.91464 0
M  V30 3993 C 396.232 -0.797313 1.77078 0
M  V30 3994 O 395.507 -1.5765 1.13916 0
M  V30 3995 C 395.79 1.07424 3.43703 0
M  V30 3996 C 395.643 2.59857 3.67143 0
M  V30 3997 C 396.962 0.626891 4.35612 0
M  V30 3998 H 394.081 0.244341 0.695318 0
M  V30 3999 H 396.723 1.2355 1.44345 0
M  V30 4000 H 394.873 0.591816 3.83966 0
M  V30 4001 H 396.545 3.15764 3.3629 0
M  V30 4002 H 394.788 3.01961 3.11451 0
M  V30 4003 H 395.459 2.83296 4.73759 0
M  V30 4004 H 397.935 1.04125 4.02861 0
M  V30 4005 H 396.811 0.939076 5.40807 0
M  V30 4006 H 397.072 -0.472457 4.39568 0
M  V30 4007 N 396.131 -1.37776 0.765217 0
M  V30 4008 C 397.379 -1.99454 0.325943 0
M  V30 4009 C 397.7 -1.61049 -1.09947 0
M  V30 4010 O 396.97 -0.872821 -1.75381 0
M  V30 4011 H 395.55 -0.737697 0.117525 0
M  V30 4012 H 398.212 -1.68359 0.981895 0
M  V30 4013 H 397.308 -3.09547 0.398353 0
M  V30 4014 N 397.609 -0.515225 -1.4894 0
M  V30 4015 C 398.539 0.244628 -2.32215 0
M  V30 4016 C 399.52 0.949136 -1.41157 0
M  V30 4017 O 400.705 0.937783 -1.70057 0
M  V30 4018 C 397.835 1.30096 -3.22013 0
M  V30 4019 C 396.789 0.715486 -4.21977 0
M  V30 4020 C 396.115 1.87339 -5.00808 0
M  V30 4021 C 397.415 -0.302982 -5.2142 0
M  V30 4022 H 399.109 -0.450501 -2.95991 0
M  V30 4023 H 396.655 -0.218098 -1.42339 0
M  V30 4024 H 398.608 1.84037 -3.79089 0
M  V30 4025 H 397.332 2.02547 -2.56207 0
M  V30 4026 H 395.991 0.197715 -3.66066 0
M  V30 4027 H 395.639 2.58592 -4.31438 0
M  V30 4028 H 395.339 1.48764 -5.68457 0
M  V30 4029 H 396.863 2.41686 -5.60732 0
M  V30 4030 H 398.277 0.148802 -5.73107 0
M  V30 4031 H 396.674 -0.60532 -5.97039 0
M  V30 4032 H 397.744 -1.21395 -4.69459 0
M  V30 4033 N 399.087 1.5561 -0.249682 0
M  V30 4034 C 400.364 1.90932 0.424761 0
M  V30 4035 C 400.744 1.17078 1.75658 0
M  V30 4036 O 400.092 0.289176 2.26663 0
M  V30 4037 C 400.302 3.43975 0.590109 0
M  V30 4038 C 401.65 4.15281 0.884714 0
M  V30 4039 O 402.674 3.49729 0.67587 0
M  V30 4040 O 401.533 5.31236 1.28259 0
M  V30 4041 H 398.627 0.794815 0.228468 0
M  V30 4042 H 401.173 1.67135 -0.293954 0
M  V30 4043 H 399.945 3.89748 -0.34818 0
M  V30 4044 H 399.568 3.73644 1.35926 0
M  V30 4045 N 400.565 -0.0233959 1.57583 0
M  V30 4046 C 401.495 -1.02162 2.09965 0
M  V30 4047 C 402.476 -1.3735 1.00344 0
M  V30 4048 O 403.661 -1.46135 1.27899 0
M  V30 4049 C 400.791 -2.32081 2.58371 0
M  V30 4050 C 399.745 -2.1112 3.72307 0
M  V30 4051 C 399.071 -3.46848 4.06941 0
M  V30 4052 C 400.371 -1.49276 5.00514 0
M  V30 4053 H 402.065 -0.585557 2.93618 0
M  V30 4054 H 399.611 -0.280218 1.41247 0
M  V30 4055 H 401.564 -3.02249 2.93639 0
M  V30 4056 H 400.288 -2.77758 1.71808 0
M  V30 4057 H 398.947 -1.43384 3.37397 0
M  V30 4058 H 398.595 -3.90184 3.17436 0
M  V30 4059 H 398.295 -3.33646 4.83688 0
M  V30 4060 H 399.819 -4.18369 4.44747 0
M  V30 4061 H 401.233 -2.09368 5.33702 0
M  V30 4062 H 399.63 -1.46632 5.8191 0
M  V30 4063 H 400.7 -0.459217 4.82721 0
M  V30 4064 N 402.043 -1.548 -0.295768 0
M  V30 4065 C 403.289 -1.74588 -1.03184 0
M  V30 4066 C 403.622 -0.532962 -1.86744 0
M  V30 4067 O 402.897 0.469872 -1.88739 0
M  V30 4068 C 403.18 -3.03791 -1.93347 0
M  V30 4069 C 403.033 -4.35392 -1.12933 0
M  V30 4070 C 404.352 -3.28892 -2.92435 0
M  V30 4071 H 401.471 -0.635221 -0.373715 0
M  V30 4072 H 404.113 -1.87519 -0.30606 0
M  V30 4073 H 402.263 -2.92898 -2.55232 0
M  V30 4074 H 403.935 -4.58211 -0.532943 0
M  V30 4075 H 402.178 -4.31642 -0.432168 0
M  V30 4076 H 402.849 -5.22074 -1.79284 0
M  V30 4077 H 405.325 -3.39429 -2.4068 0
M  V30 4078 H 404.201 -4.20603 -3.52682 0
M  V30 4079 H 404.462 -2.47437 -3.6637 0
M  V30 4080 N 403.521 0.559213 -1.47345 0
M  V30 4081 C 404.431 1.69388 -1.62311 0
M  V30 4082 C 405.447 1.6648 -0.505993 0
M  V30 4083 O 406.623 1.85964 -0.773262 0
M  V30 4084 C 403.688 3.05894 -1.63185 0
M  V30 4085 C 402.749 3.19885 -2.86307 0
M  V30 4086 C 401.982 4.49879 -2.87131 0
M  V30 4087 O 402.205 5.35217 -1.97229 0
M  V30 4088 O 401.139 4.67618 -3.78968 0
M  V30 4089 H 404.965 1.59706 -2.58317 0
M  V30 4090 H 402.55 0.728989 -1.30407 0
M  V30 4091 H 404.432 3.87133 -1.66451 0
M  V30 4092 H 403.107 3.15964 -0.70345 0
M  V30 4093 H 402.014 2.38052 -2.88587 0
M  V30 4094 H 403.347 3.14718 -3.78435 0
M  V30 4095 N 404.999 1.35443 0.805782 0
M  V30 4096 C 405.929 1.31095 1.93226 0
M  V30 4097 C 406.91 0.185244 1.69088 0
M  V30 4098 O 408.095 0.380332 1.90439 0
M  V30 4099 C 405.225 1.08299 3.29983 0
M  V30 4100 C 404.179 2.17519 3.68605 0
M  V30 4101 C 403.505 1.79887 5.03532 0
M  V30 4102 C 404.805 3.5949 3.78898 0
M  V30 4103 H 406.499 2.25352 1.97122 0
M  V30 4104 H 404.045 1.0848 0.946996 0
M  V30 4105 H 405.998 1.03897 4.08391 0
M  V30 4106 H 404.722 0.104885 3.26432 0
M  V30 4107 H 403.381 2.2102 2.92482 0
M  V30 4108 H 403.029 0.80693 4.96485 0
M  V30 4109 H 402.729 2.53001 5.30344 0
M  V30 4110 H 404.253 1.77011 5.84379 0
M  V30 4111 H 405.667 3.58307 4.47536 0
M  V30 4112 H 404.064 4.31371 4.1718 0
M  V30 4113 H 405.134 3.95584 2.80431 0
M  V30 4114 N 406.477 -1.02803 1.19454 0
M  V30 4115 C 407.44 -2.09264 0.934955 0
M  V30 4116 C 408.44 -1.60576 -0.0849015 0
M  V30 4117 O 409.63 -1.73554 0.149933 0
M  V30 4118 C 406.762 -3.38482 0.40531 0
M  V30 4119 H 407.955 -2.33726 1.87916 0
M  V30 4120 H 405.508 -1.19426 1.00832 0
M  V30 4121 H 406.243 -3.19689 -0.544899 0
M  V30 4122 H 406.028 -3.75142 1.14065 0
M  V30 4123 H 407.518 -4.16894 0.242806 0
M  V30 4124 N 407.956 -0.998596 -1.21925 0
M  V30 4125 C 409.367 -0.711939 -1.72593 0
M  V30 4126 C 409.718 0.770842 -1.80423 0
M  V30 4127 O 408.843 1.60237 -1.4544 0
M  V30 4128 C 409.438 -1.28567 -3.13458 0
M  V30 4129 C 407.997 -1.04828 -3.61508 0
M  V30 4130 C 407.144 -1.4024 -2.39224 0
M  V30 4131 H 410.095 -1.17027 -1.07193 0
M  V30 4132 H 410.116 -0.667098 -3.74607 0
M  V30 4133 H 409.628 -2.36486 -3.07727 0
M  V30 4134 H 407.729 0.0140383 -3.72597 0
M  V30 4135 H 407.842 -1.71566 -4.47328 0
M  V30 4136 H 406.206 -0.821077 -2.41103 0
M  V30 4137 H 406.989 -2.49176 -2.36149 0
M  V30 4138 N 409.434 1.37368 -0.772513 0
M  V30 4139 C 410.382 2.32134 -0.147111 0
M  V30 4140 C 411.376 1.54972 0.684106 0
M  V30 4141 O 412.582 1.70363 0.581083 0
M  V30 4142 H 408.957 0.751449 -0.028786 0
M  V30 4143 H 410.928 2.82464 -0.962112 0
M  V30 4144 C 409.677 3.40226 0.71703 0
M  V30 4145 H 409 3.99706 0.0867951 0
M  V30 4146 H 410.44 4.08897 1.12159 0
M  V30 4147 C 408.899 2.80372 1.86797 0
M  V30 4148 O 409.429 2.71183 2.96349 0
M  V30 4149 N 407.635 2.37904 1.66883 0
M  V30 4150 H 407.182 2.45578 0.777759 0
M  V30 4151 H 407.14 1.98202 2.44056 0
M  V30 4152 N 410.912 0.523116 1.48665 0
M  V30 4153 C 411.842 -0.23231 2.32342 0
M  V30 4154 C 412.823 -0.941637 1.41659 0
M  V30 4155 O 414.008 -0.928751 1.70552 0
M  V30 4156 C 411.138 -1.28387 3.22698 0
M  V30 4157 C 410.092 -0.693098 4.22351 0
M  V30 4158 C 409.418 -1.8468 5.01794 0
M  V30 4159 C 410.718 0.33063 5.21252 0
M  V30 4160 H 412.412 0.466192 2.95748 0
M  V30 4161 H 409.958 0.225643 1.42221 0
M  V30 4162 H 411.911 -1.82024 3.80059 0
M  V30 4163 H 410.635 -2.01186 2.57278 0
M  V30 4164 H 409.294 -0.178299 3.66166 0
M  V30 4165 H 408.942 -2.56301 4.32804 0
M  V30 4166 H 408.642 -1.45747 5.69238 0
M  V30 4167 H 410.166 -2.38709 5.62006 0
M  V30 4168 H 411.58 -0.118407 5.73178 0
M  V30 4169 H 409.977 0.636974 5.9671 0
M  V30 4170 H 411.047 1.23883 4.68808 0
M  V30 4171 N 412.39 -1.55475 0.257931 0
M  V30 4172 C 413.667 -1.91155 -0.414629 0
M  V30 4173 C 414.047 -1.18008 -1.75035 0
M  V30 4174 O 413.395 -0.301193 -2.26506 0
M  V30 4175 C 413.605 -3.44283 -0.571859 0
M  V30 4176 C 414.953 -4.15744 -0.862678 0
M  V30 4177 O 415.977 -3.50083 -0.657314 0
M  V30 4178 O 414.836 -5.31909 -1.2544 0
M  V30 4179 H 411.93 -0.796016 -0.22425 0
M  V30 4180 H 414.476 -1.66976 0.302814 0
M  V30 4181 H 413.248 -3.89558 0.368844 0
M  V30 4182 H 412.871 -3.7436 -1.33943 0
M  V30 4183 N 413.868 0.0150385 -1.57593 0
M  V30 4184 C 415.279 0.559832 -1.78109 0
M  V30 4185 C 415.63 1.74814 -0.890756 0
M  V30 4186 O 414.755 2.16216 -0.0892482 0
M  V30 4187 C 415.35 1.02238 -3.23006 0
M  V30 4188 C 413.909 1.51258 -3.44671 0
M  V30 4189 C 413.056 0.456955 -2.73509 0
M  V30 4190 H 416.007 -0.211169 -1.57289 0
M  V30 4191 H 416.028 1.88912 -3.30292 0
M  V30 4192 H 415.54 0.157302 -3.87781 0
M  V30 4193 H 413.641 2.39905 -2.8509 0
M  V30 4194 H 413.754 1.55042 -4.5332 0
M  V30 4195 H 412.118 0.915196 -2.37689 0
M  V30 4196 H 412.901 -0.398896 -3.40975 0
M  V30 4197 N 415.346 1.54954 0.287554 0
M  V30 4198 C 416.574 1.78881 1.03967 0
M  V30 4199 C 416.989 0.554894 1.80462 0
M  V30 4200 O 416.346 -0.475676 1.76192 0
M  V30 4201 C 416.397 3.00488 2.0097 0
M  V30 4202 O 416.118 4.19113 1.27577 0
M  V30 4203 C 417.619 3.36907 2.88112 0
M  V30 4204 H 414.839 0.596259 0.307761 0
M  V30 4205 H 417.383 2.01937 0.322749 0
M  V30 4206 H 415.538 2.79601 2.68145 0
M  V30 4207 H 415.952 4.87765 1.92835 0
M  V30 4208 H 417.426 4.25205 3.52001 0
M  V30 4209 H 417.903 2.55659 3.57121 0
M  V30 4210 H 418.509 3.60001 2.26449 0
M  V30 4211 N 416.824 -0.551391 1.4764 0
M  V30 4212 C 418.072 -1.30572 1.54258 0
M  V30 4213 C 418.393 -1.93877 0.208963 0
M  V30 4214 O 417.663 -1.80234 -0.767619 0
M  V30 4215 H 416.243 -0.484894 0.568231 0
M  V30 4216 H 418.905 -0.643402 1.83974 0
M  V30 4217 H 418.001 -2.09621 2.31226 0
M  V30 4218 N 418.302 -1.35869 -0.798587 0
M  V30 4219 C 419.718 -1.16082 -1.09532 0
M  V30 4220 C 419.918 0.0213124 -2.01489 0
M  V30 4221 O 418.974 0.689488 -2.42904 0
M  V30 4222 C 420.287 -2.46748 -1.7186 0
M  V30 4223 C 421.835 -2.53028 -1.84244 0
M  V30 4224 C 422.31 -3.83758 -2.49988 0
M  V30 4225 N 423.801 -3.85053 -2.57465 0
M  V30 4226 C 424.536 -4.8294 -3.09122 0
M  V30 4227 N 424.032 -5.91217 -3.61157 0
M  V30 4228 N 425.825 -4.70369 -3.0775 0
M  V30 4229 H 417.976 -2.11571 -0.187461 0
M  V30 4230 H 420.239 -0.936726 -0.145765 0
M  V30 4231 H 419.945 -3.33471 -1.11759 0
M  V30 4232 H 419.819 -2.61883 -2.71472 0
M  V30 4233 H 422.206 -1.66729 -2.43486 0
M  V30 4234 H 422.287 -2.418 -0.834643 0
M  V30 4235 H 421.931 -4.70459 -1.91393 0
M  V30 4236 H 421.861 -3.92278 -3.5132 0
M  V30 4237 H 424.352 -3.06822 -2.20609 0
M  V30 4238 H 424.665 -6.61892 -3.98896 0
M  V30 4239 H 423.01 -5.94899 -3.59333 0
M  V30 4240 H 426.201 -3.84914 -2.66381 0
M  V30 4241 H 426.374 -5.46816 -3.47701 0
M  V30 4242 N 419.78 1.02168 -1.19998 0
M  V30 4243 C 421.005 1.79833 -1.03319 0
M  V30 4244 C 421.43 1.83504 0.413281 0
M  V30 4245 O 420.788 1.26635 1.29743 0
M  V30 4246 C 420.836 3.22396 -1.61533 0
M  V30 4247 O 419.94 4.03555 -0.849519 0
M  V30 4248 H 419.281 0.554872 -0.364709 0
M  V30 4249 H 421.811 1.28542 -1.59179 0
M  V30 4250 H 421.821 3.73124 -1.65054 0
M  V30 4251 H 420.496 3.19039 -2.66809 0
M  V30 4252 H 419.073 3.62169 -0.888129 0
M  V30 4253 N 421.258 1.00505 1.21394 0
M  V30 4254 C 422.168 0.574806 2.27449 0
M  V30 4255 C 423.184 -0.382206 1.6975 0
M  V30 4256 O 424.36 -0.246027 1.99892 0
M  V30 4257 C 421.425 -0.0917414 3.46579 0
M  V30 4258 C 420.486 0.909758 4.1955 0
M  V30 4259 C 419.719 0.274924 5.32991 0
M  V30 4260 O 419.942 -0.928254 5.62796 0
M  V30 4261 O 418.876 0.985877 5.93771 0
M  V30 4262 H 422.702 1.45744 2.66444 0
M  V30 4263 H 420.287 0.773923 1.27792 0
M  V30 4264 H 422.169 -0.464551 4.18832 0
M  V30 4265 H 420.844 -0.948755 3.09484 0
M  V30 4266 H 419.751 1.33372 3.49518 0
M  V30 4267 H 421.084 1.73636 4.60555 0
M  V30 4268 N 422.737 -1.36956 0.779787 0
M  V30 4269 C 423.667 -2.32761 0.185651 0
M  V30 4270 C 424.648 -1.56177 -0.673989 0
M  V30 4271 O 425.833 -1.84378 -0.609797 0
M  V30 4272 C 422.963 -3.40418 -0.687964 0
M  V30 4273 C 421.917 -4.27941 0.0710102 0
M  V30 4274 C 421.243 -5.26681 -0.922573 0
M  V30 4275 C 422.543 -5.07006 1.25467 0
M  V30 4276 H 424.237 -2.82698 0.986008 0
M  V30 4277 H 421.783 -1.3592 0.475592 0
M  V30 4278 H 423.736 -4.06423 -1.11348 0
M  V30 4279 H 422.46 -2.89025 -1.52093 0
M  V30 4280 H 421.119 -3.63478 0.47739 0
M  V30 4281 H 420.767 -4.71565 -1.7503 0
M  V30 4282 H 420.467 -5.86103 -0.419237 0
M  V30 4283 H 421.991 -5.9556 -1.34686 0
M  V30 4284 H 423.405 -5.66105 0.905401 0
M  V30 4285 H 421.802 -5.75793 1.69063 0
M  V30 4286 H 422.872 -4.3921 2.05481 0
M  V30 4287 N 424.215 -0.530993 -1.48385 0
M  V30 4288 C 425.145 0.219985 -2.32461 0
M  V30 4289 C 426.126 0.934111 -1.42156 0
M  V30 4290 O 427.311 0.919694 -1.71042 0
M  V30 4291 C 424.441 1.26674 -3.23375 0
M  V30 4292 C 423.395 0.67069 -4.22712 0
M  V30 4293 C 422.721 1.82017 -5.02766 0
M  V30 4294 C 424.021 -0.358268 -5.2107 0
M  V30 4295 H 425.715 -0.48187 -2.95497 0
M  V30 4296 H 423.261 -0.233182 -1.42099 0
M  V30 4297 H 425.214 1.80006 -3.81019 0
M  V30 4298 H 423.938 1.99818 -2.58341 0
M  V30 4299 H 422.597 0.158878 -3.66256 0
M  V30 4300 H 422.245 2.54002 -4.34157 0
M  V30 4301 H 421.945 1.42727 -5.70003 0
M  V30 4302 H 423.469 2.35725 -5.63264 0
M  V30 4303 H 424.883 0.0880081 -5.73232 0
M  V30 4304 H 423.28 -0.66861 -5.96364 0
M  V30 4305 H 424.35 -1.26367 -4.68145 0
M  V30 4306 N 425.693 1.55336 -0.266172 0
M  V30 4307 C 426.626 2.18256 0.666296 0
M  V30 4308 C 427.604 1.14064 1.1588 0
M  V30 4309 O 428.788 1.42546 1.23341 0
M  V30 4310 C 425.915 2.79867 1.90768 0
M  V30 4311 C 424.961 3.97283 1.55141 0
M  V30 4312 S 425.794 5.31694 0.637313 0
M  V30 4313 C 426.95 5.96769 1.88727 0
M  V30 4314 H 427.183 2.97008 0.131647 0
M  V30 4315 H 424.716 1.54317 -0.0504869 0
M  V30 4316 H 426.674 3.15996 2.62025 0
M  V30 4317 H 425.335 2.01025 2.41346 0
M  V30 4318 H 424.528 4.3905 2.4749 0
M  V30 4319 H 424.13 3.6253 0.919113 0
M  V30 4320 H 426.422 6.15458 2.83227 0
M  V30 4321 H 427.365 6.91752 1.51276 0
M  V30 4322 H 427.773 5.26034 2.04814 0
M  V30 4323 N 427.171 -0.0066808 1.57599 0
M  V30 4324 C 428.134 -0.985035 2.06953 0
M  V30 4325 C 429.134 -1.27663 0.977687 0
M  V30 4326 O 430.324 -1.22293 1.24057 0
M  V30 4327 C 427.456 -2.3118 2.50536 0
M  V30 4328 H 428.649 -0.558255 2.94658 0
M  V30 4329 H 426.202 -0.254011 1.54222 0
M  V30 4330 H 426.937 -2.78561 1.66054 0
M  V30 4331 H 426.722 -2.11338 3.3027 0
M  V30 4332 H 428.212 -3.01377 2.8907 0
M  V30 4333 N 428.649 -1.55105 -0.279332 0
M  V30 4334 C 430.065 -1.46803 -0.626187 0
M  V30 4335 C 430.265 -0.676939 -1.89789 0
M  V30 4336 O 429.321 -0.19326 -2.51759 0
M  V30 4337 C 430.634 -2.90962 -0.759034 0
M  V30 4338 C 432.182 -3.01138 -0.853504 0
M  V30 4339 C 432.657 -4.46539 -1.01818 0
M  V30 4340 N 434.148 -4.50341 -1.08386 0
M  V30 4341 C 434.883 -5.60053 -1.22996 0
M  V30 4342 N 434.379 -6.79645 -1.34366 0
M  V30 4343 N 436.172 -5.47783 -1.26056 0
M  V30 4344 H 428.323 -2.04996 0.555921 0
M  V30 4345 H 430.586 -0.929325 0.187239 0
M  V30 4346 H 430.292 -3.51544 0.104852 0
M  V30 4347 H 430.166 -3.39619 -1.64131 0
M  V30 4348 H 432.553 -2.40658 -1.70786 0
M  V30 4349 H 432.634 -2.55745 0.0532466 0
M  V30 4350 H 432.278 -5.0762 -0.168504 0
M  V30 4351 H 432.208 -4.89583 -1.93948 0
M  V30 4352 H 434.699 -3.64191 -1.00864 0
M  V30 4353 H 435.012 -7.59012 -1.4533 0
M  V30 4354 H 433.357 -6.82469 -1.31382 0
M  V30 4355 H 436.548 -4.53294 -1.168 0
M  V30 4356 H 436.721 -6.33331 -1.37098 0
M  V30 4357 N 430.127 0.543554 -1.4793 0
M  V30 4358 C 431.057 1.65888 -1.64327 0
M  V30 4359 C 432.038 1.62818 -0.492383 0
M  V30 4360 O 433.223 1.80226 -0.723338 0
M  V30 4361 C 430.353 3.04506 -1.67013 0
M  V30 4362 C 429.307 3.2243 -2.81466 0
M  V30 4363 C 428.633 4.61972 -2.69233 0
M  V30 4364 C 429.933 3.06496 -4.22915 0
M  V30 4365 H 431.627 1.52421 -2.57698 0
M  V30 4366 H 429.173 0.731849 -1.24016 0
M  V30 4367 H 431.126 3.82391 -1.77074 0
M  V30 4368 H 429.85 3.18964 -0.70212 0
M  V30 4369 H 428.509 2.46957 -2.70938 0
M  V30 4370 H 428.157 4.73247 -1.7043 0
M  V30 4371 H 427.857 4.74911 -3.46025 0
M  V30 4372 H 429.381 5.41974 -2.81242 0
M  V30 4373 H 430.795 3.74186 -4.34348 0
M  V30 4374 H 429.192 3.30938 -5.006 0
M  V30 4375 H 430.262 2.03077 -4.40327 0
M  V30 4376 N 431.605 1.3629 0.791371 0
M  V30 4377 C 432.851 1.30605 1.55146 0
M  V30 4378 C 433.184 -0.115042 1.93859 0
M  V30 4379 O 432.459 -1.06798 1.62556 0
M  V30 4380 C 432.742 2.22692 2.82985 0
M  V30 4381 C 432.595 3.73489 2.50651 0
M  V30 4382 C 433.914 2.13588 3.84796 0
M  V30 4383 H 431.033 0.475761 0.562868 0
M  V30 4384 H 433.675 1.66825 0.909358 0
M  V30 4385 H 431.825 1.91933 3.37778 0
M  V30 4386 H 433.497 4.14758 2.01924 0
M  V30 4387 H 431.74 3.93021 1.83622 0
M  V30 4388 H 432.411 4.3333 3.41949 0
M  V30 4389 H 434.887 2.40659 3.39445 0
M  V30 4390 H 433.763 2.80195 4.71998 0
M  V30 4391 H 434.024 1.12256 4.27611 0
M  V30 4392 N 433.083 -1.0153 1.20538 0
M  V30 4393 C 434.016 -2.09759 0.898695 0
M  V30 4394 C 434.994 -1.61909 -0.149733 0
M  V30 4395 O 436.178 -1.88486 -0.0230293 0
M  V30 4396 C 433.305 -3.36913 0.347512 0
M  V30 4397 C 432.351 -4.03655 1.37713 0
M  V30 4398 S 433.184 -4.47402 2.94265 0
M  V30 4399 C 434.34 -5.77756 2.40726 0
M  V30 4400 H 434.573 -2.3545 1.81523 0
M  V30 4401 H 432.106 -1.14665 1.03399 0
M  V30 4402 H 434.064 -4.10484 0.0360518 0
M  V30 4403 H 432.725 -3.09291 -0.547546 0
M  V30 4404 H 431.918 -4.9514 0.940872 0
M  V30 4405 H 431.52 -3.36313 1.63614 0
M  V30 4406 H 433.812 -6.52994 1.80569 0
M  V30 4407 H 434.755 -6.2618 3.30612 0
M  V30 4408 H 435.163 -5.34081 1.82806 0
M  V30 4409 N 434.561 -1.01147 -1.20859 0
M  V30 4410 C 435.471 -0.58686 -2.27141 0
M  V30 4411 C 436.487 0.373198 -1.69951 0
M  V30 4412 O 437.663 0.235423 -2.00019 0
M  V30 4413 C 434.728 0.0733602 -3.46622 0
M  V30 4414 C 433.789 -0.931995 -4.19061 0
M  V30 4415 C 433.022 -0.303186 -5.32838 0
M  V30 4416 O 433.245 0.898395 -5.63281 0
M  V30 4417 O 432.179 -1.01735 -5.9324 0
M  V30 4418 H 436.005 -1.47155 -2.65667 0
M  V30 4419 H 433.59 -0.780689 -1.2738 0
M  V30 4420 H 435.472 0.442333 -4.19072 0
M  V30 4421 H 434.147 0.932329 -3.09983 0
M  V30 4422 H 433.054 -1.35224 -3.48805 0
M  V30 4423 H 434.387 -1.76076 -4.59628 0
M  V30 4424 N 436.039 1.36541 -0.78704 0
M  V30 4425 C 437.267 2.03561 -0.370199 0
M  V30 4426 C 437.682 1.59347 1.01263 0
M  V30 4427 O 437.039 0.781781 1.64907 0
M  V30 4428 C 437.09 3.59033 -0.421614 0
M  V30 4429 O 436.811 4.01634 -1.7499 0
M  V30 4430 C 438.312 4.433 0.00489763 0
M  V30 4431 H 435.532 0.653346 -0.152904 0
M  V30 4432 H 438.076 1.74566 -1.06522 0
M  V30 4433 H 436.231 3.86746 0.224971 0
M  V30 4434 H 436.645 4.96217 -1.69909 0
M  V30 4435 H 438.119 5.51939 -0.0822184 0
M  V30 4436 H 438.596 4.26285 1.05723 0
M  V30 4437 H 439.202 4.20843 -0.614085 0
M  V30 4438 N 437.518 0.538854 1.48102 0
M  V30 4439 C 438.448 -0.207654 2.32575 0
M  V30 4440 C 439.429 -0.926559 1.4265 0
M  V30 4441 O 440.614 -0.91061 1.71527 0
M  V30 4442 C 437.744 -1.24957 3.24042 0
M  V30 4443 C 436.698 -0.648263 4.23062 0
M  V30 4444 C 436.024 -1.79348 5.03725 0
M  V30 4445 C 437.324 0.385897 5.20872 0
M  V30 4446 H 439.018 0.497534 2.95237 0
M  V30 4447 H 436.564 0.240715 1.41974 0
M  V30 4448 H 438.517 -1.77983 3.81969 0
M  V30 4449 H 437.241 -1.98446 2.59397 0
M  V30 4450 H 435.9 -0.139452 3.66335 0
M  V30 4451 H 435.548 -2.51696 4.35498 0
M  V30 4452 H 435.248 -1.39702 5.70751 0
M  V30 4453 H 436.772 -2.32735 5.64506 0
M  V30 4454 H 438.186 -0.057607 5.73271 0
M  V30 4455 H 436.583 0.700227 5.96001 0
M  V30 4456 H 437.653 1.28848 4.67468 0
M  V30 4457 N 438.996 -1.55193 0.274407 0
M  V30 4458 C 440.236 -2.01488 -0.343778 0
M  V30 4459 C 440.6 -1.1586 -1.53103 0
M  V30 4460 O 441.801 -1.51732 -2.2188 0
M  V30 4461 C 440.072 -3.50134 -0.717021 0
M  V30 4462 S 441.631 -4.18417 -1.32184 0
M  V30 4463 H 438.449 -0.70291 -0.106948 0
M  V30 4464 H 441.051 -1.91446 0.396075 0
M  V30 4465 H 439.755 -4.10104 0.155947 0
M  V30 4466 H 439.286 -3.64159 -1.48835 0
M  V30 4467 H 441.301 -4.21984 -2.61044 0
M  V30 4468 N 440.474 -0.00167713 -1.576 0
M  V30 4469 C 441.384 1.00548 -2.1196 0
M  V30 4470 C 442.4 1.3758 -1.06526 0
M  V30 4471 O 443.576 1.46278 -1.38436 0
M  V30 4472 C 440.641 2.27809 -2.6135 0
M  V30 4473 C 439.702 1.97074 -3.81393 0
M  V30 4474 C 438.935 3.18267 -4.28417 0
M  V30 4475 O 439.158 4.30009 -3.74765 0
M  V30 4476 O 438.092 3.02167 -5.20556 0
M  V30 4477 H 441.918 0.573373 -2.98238 0
M  V30 4478 H 439.503 0.217255 -1.47812 0
M  V30 4479 H 441.385 3.02568 -2.93309 0
M  V30 4480 H 440.06 2.70254 -1.78169 0
M  V30 4481 H 438.967 1.19785 -3.54404 0
M  V30 4482 H 440.3 1.59464 -4.65652 0
M  V30 4483 N 441.952 1.55251 0.271103 0
M  V30 4484 C 443.198 1.76207 1.00394 0
M  V30 4485 C 443.531 0.562604 1.85872 0
M  V30 4486 O 442.806 -0.439785 1.89463 0
M  V30 4487 C 443.089 3.06828 1.8849 0
M  V30 4488 C 442.942 4.37134 1.05992 0
M  V30 4489 C 444.261 3.33503 2.87165 0
M  V30 4490 H 441.38 0.641086 0.363562 0
M  V30 4491 H 444.022 1.87982 0.276189 0
M  V30 4492 H 442.172 2.96921 2.5054 0
M  V30 4493 H 443.844 4.59001 0.459978 0
M  V30 4494 H 442.087 4.32275 0.363443 0
M  V30 4495 H 442.758 5.2486 1.70955 0
M  V30 4496 H 445.234 3.43215 2.3525 0
M  V30 4497 H 444.11 4.2616 3.45946 0
M  V30 4498 H 444.371 2.53235 3.62387 0
M  V30 4499 N 443.43 -0.535701 1.48216 0
M  V30 4500 C 444.677 -1.29183 1.55942 0
M  V30 4501 C 445.005 -1.93125 0.230857 0
M  V30 4502 O 444.26 -1.79556 -0.778331 0
M  V30 4503 C 444.559 -2.4068 2.64212 0
M  V30 4504 C 444.225 -1.94428 4.06827 0
M  V30 4505 C 442.887 -1.81532 4.45645 0
M  V30 4506 C 445.239 -1.59405 4.96225 0
M  V30 4507 C 442.567 -1.31939 5.71672 0
M  V30 4508 C 444.919 -1.11276 6.22736 0
M  V30 4509 C 443.583 -0.969924 6.60416 0
M  V30 4510 H 442.853 -0.472715 0.570632 0
M  V30 4511 H 445.5 -0.598437 1.81909 0
M  V30 4512 H 443.805 -3.15666 2.32083 0
M  V30 4513 H 445.502 -2.98822 2.67407 0
M  V30 4514 H 442.092 -2.05415 3.76168 0
M  V30 4515 H 446.276 -1.68231 4.66917 0
M  V30 4516 H 441.532 -1.19562 5.99596 0
M  V30 4517 H 445.706 -0.832453 6.91407 0
M  V30 4518 H 443.333 -0.583436 7.57958 0
M  V30 4519 N 444.908 -1.36708 -0.784132 0
M  V30 4520 C 446.185 -1.21776 -1.53069 0
M  V30 4521 C 446.565 0.193876 -2.10208 0
M  V30 4522 O 445.913 1.20012 -1.94446 0
M  V30 4523 C 446.123 -2.30395 -2.62143 0
M  V30 4524 C 447.471 -2.67325 -3.29882 0
M  V30 4525 O 448.495 -2.29478 -2.7243 0
M  V30 4526 O 447.354 -3.32485 -4.33724 0
M  V30 4527 H 444.448 -0.474459 -0.677361 0
M  V30 4528 H 446.994 -1.48454 -0.82216 0
M  V30 4529 H 445.766 -3.2498 -2.17953 0
M  V30 4530 H 445.389 -2.05112 -3.40609 0
M  V30 4531 N 446.386 1.0089 -1.21074 0
M  V30 4532 C 447.336 2.0799 -0.934034 0
M  V30 4533 C 448.32 1.60529 0.10919 0
M  V30 4534 O 449.512 1.76722 -0.0992198 0
M  V30 4535 C 446.641 3.39693 -0.496334 0
M  V30 4536 C 445.727 3.93833 -1.57341 0
M  V30 4537 N 446.118 4.21388 -2.7976 0
M  V30 4538 C 444.416 4.22067 -1.44137 0
M  V30 4539 C 445.117 4.65156 -3.49292 0
M  V30 4540 N 444.093 4.67895 -2.76722 0
M  V30 4541 H 447.895 2.27213 -1.86417 0
M  V30 4542 H 445.409 1.18927 -1.10589 0
M  V30 4543 H 447.406 4.15962 -0.279471 0
M  V30 4544 H 446.066 3.21879 0.427084 0
M  V30 4545 H 447.077 4.10061 -3.1634 0
M  V30 4546 H 443.754 4.1341 -0.582947 0
M  V30 4547 H 445.144 4.95231 -4.54088 0
M  V30 4548 N 447.864 1.01787 1.20321 0
M  V30 4549 C 449.11 0.708985 1.90003 0
M  V30 4550 C 449.443 -0.759572 1.78729 0
M  V30 4551 O 448.718 -1.55198 1.17234 0
M  V30 4552 C 449.001 1.1469 3.41348 0
M  V30 4553 C 448.854 2.67586 3.61549 0
M  V30 4554 C 450.173 0.71915 4.34185 0
M  V30 4555 H 447.292 0.259034 0.689978 0
M  V30 4556 H 449.934 1.26584 1.41692 0
M  V30 4557 H 448.084 0.673128 3.82624 0
M  V30 4558 H 449.756 3.22826 3.29517 0
M  V30 4559 H 447.999 3.085 3.04976 0
M  V30 4560 H 448.67 2.93281 4.67643 0
M  V30 4561 H 451.146 1.12647 4.00562 0
M  V30 4562 H 450.022 1.05358 5.38694 0
M  V30 4563 H 450.283 -0.379111 4.40472 0
M  V30 4564 O 449.381 -1.32008 0.930387 0
M  V30 4565 H 450.072 -1.85615 0.553775 0
M  V30 END ATOM
M  V30 BEGIN BOND
M  V30 END BOND
M  V30 END CTAB
M  END
$$$$
