drugbank_target|Q65CX5 Arabinogalactan endo-beta-1,4-galactanase (DB02327; DB02743; DB04248)
 OpenBabel12092120243D

  0  0  0     0  0            999 V3000
M  V30 BEGIN CTAB
M  V30 COUNTS 6422 6506 0 0 0
M  V30 BEGIN ATOM
M  V30 1 H -0.908 1.98254 -0.117106 0
M  V30 2 N 0 1.576 0 0
M  V30 3 C 0.933 2.03868 1.02534 0
M  V30 4 C 1.911 0.928543 1.3348 0
M  V30 5 O 3.095 1.19667 1.45644 0
M  V30 6 C 0.222 2.43627 2.35294 0
M  V30 7 C -0.732 3.65373 2.2001 0
M  V30 8 S 0.101 5.13292 1.52614 0
M  V30 9 C 1.257 5.56322 2.86805 0
M  V30 10 H 1.49 2.90518 0.631377 0
M  V30 11 H -0.977 1.52953 0.210867 0
M  V30 12 H 0.981 2.67203 3.11629 0
M  V30 13 H -0.358 1.57376 2.7183 0
M  V30 14 H -1.165 3.90944 3.18086 0
M  V30 15 H -1.563 3.418 1.51819 0
M  V30 16 H 0.729 5.58782 3.83104 0
M  V30 17 H 1.672 6.56266 2.65933 0
M  V30 18 H 2.08 4.83886 2.90714 0
M  V30 19 N 1.4781 -0.272755 1.55222 0
M  V30 20 C 2.4251 -1.33716 1.88119 0
M  V30 21 C 3.3951 -1.49066 0.73271 0
M  V30 22 O 4.5801 -1.63469 0.984002 0
M  V30 23 C 1.7201 -2.69238 2.15882 0
M  V30 24 C 0.8331 -2.62108 3.43399 0
M  V30 25 C -0.0319 -3.89811 3.60861 0
M  V30 26 C -0.9929 -3.77193 4.8207 0
M  V30 27 N -1.8559 -4.9673 4.96189 0
M  V30 28 H 2.9841 -1.04962 2.78903 0
M  V30 29 H 0.5211 -0.507088 1.38083 0
M  V30 30 H 2.4791 -3.48089 2.29978 0
M  V30 31 H 1.1091 -2.96194 1.28331 0
M  V30 32 H 0.1611 -1.74967 3.37773 0
M  V30 33 H 1.4731 -2.48685 4.32386 0
M  V30 34 H 0.6271 -4.77103 3.74777 0
M  V30 35 H -0.6339 -4.06102 2.7006 0
M  V30 36 H -1.6289 -2.88284 4.68159 0
M  V30 37 H -0.4039 -3.62421 5.74307 0
M  V30 38 H -2.4579 -5.13431 4.08319 0
M  V30 39 H -2.5409 -4.85839 5.79221 0
M  V30 40 H -1.2729 -5.85594 5.1449 0
M  V30 41 N 2.9562 -1.48159 -0.537278 0
M  V30 42 C 3.9042 -1.62573 -1.66352 0
M  V30 43 C 4.8982 -0.492366 -1.62087 0
M  V30 44 O 6.1042 -0.670847 -1.67032 0
M  V30 45 H 2.4792 -0.511992 -0.550789 0
M  V30 46 H 4.4502 -2.57176 -1.51337 0
M  V30 47 C 3.1992 -1.67583 -3.04649 0
M  V30 48 H 2.5222 -2.54151 -3.08622 0
M  V30 49 H 3.9622 -1.81713 -3.83088 0
M  V30 50 C 2.4212 -0.413039 -3.34358 0
M  V30 51 O 2.9512 0.477259 -3.98855 0
M  V30 52 N 1.1572 -0.286961 -2.8918 0
M  V30 53 H 0.7042 -1.01241 -2.36871 0
M  V30 54 H 0.6622 0.556963 -3.09427 0
M  V30 55 N 4.4343 0.785586 -1.36625 0
M  V30 56 C 5.6803 1.54591 -1.31261 0
M  V30 57 C 6.0133 1.93906 0.106823 0
M  V30 58 O 5.2883 1.63007 1.06108 0
M  V30 59 C 5.5713 2.82038 -2.23889 0
M  V30 60 C 5.4243 2.49066 -3.74548 0
M  V30 61 C 6.7433 3.83887 -2.15217 0
M  V30 62 H 3.8623 0.560846 -0.478143 0
M  V30 63 H 6.5043 0.902278 -1.67209 0
M  V30 64 H 4.6543 3.36961 -1.93363 0
M  V30 65 H 6.3263 2.00164 -4.15611 0
M  V30 66 H 4.5693 1.81954 -3.93796 0
M  V30 67 H 5.2403 3.40109 -4.34776 0
M  V30 68 H 7.7163 3.38421 -2.42096 0
M  V30 69 H 6.5923 4.70806 -2.82193 0
M  V30 70 H 6.8533 4.27131 -1.14068 0
M  V30 71 N 5.9124 1.20967 1.01018 0
M  V30 72 C 6.8424 0.988272 2.11555 0
M  V30 73 C 7.8234 -0.0849778 1.69888 0
M  V30 74 O 9.0084 0.0738202 1.9406 0
M  V30 75 C 6.1384 0.546528 3.42973 0
M  V30 76 C 5.0924 1.56375 3.9841 0
M  V30 77 C 4.4184 0.97842 5.25672 0
M  V30 78 C 5.7184 2.94922 4.31066 0
M  V30 79 H 7.4124 1.91276 2.30334 0
M  V30 80 H 4.9584 0.921073 1.1069 0
M  V30 81 H 6.9114 0.378839 4.19694 0
M  V30 82 H 5.6354 -0.413598 3.23971 0
M  V30 83 H 4.2944 1.71891 3.23804 0
M  V30 84 H 3.9424 0.0101688 5.02999 0
M  V30 85 H 3.6424 1.65784 5.63728 0
M  V30 86 H 5.1664 0.821939 6.05043 0
M  V30 87 H 6.5804 2.8288 4.9865 0
M  V30 88 H 4.9774 3.5983 4.80253 0
M  V30 89 H 6.0474 3.4616 3.39561 0
M  V30 90 N 7.3905 -1.2043 1.01659 0
M  V30 91 C 8.3535 -2.21433 0.591616 0
M  V30 92 C 9.3535 -1.57203 -0.338226 0
M  V30 93 O 10.5435 -1.73737 -0.126918 0
M  V30 94 C 7.6755 -3.40628 -0.136058 0
M  V30 95 H 8.8685 -2.60545 1.48514 0
M  V30 96 H 6.4215 -1.33893 0.806379 0
M  V30 97 H 7.1565 -3.07019 -1.04449 0
M  V30 98 H 6.9415 -3.88475 0.531917 0
M  V30 99 H 8.4315 -4.15475 -0.420735 0
M  V30 100 N 8.8686 -0.792821 -1.36206 0
M  V30 101 C 10.1146 -0.36733 -1.99446 0
M  V30 102 C 10.4476 1.05917 -1.62774 0
M  V30 103 O 9.7226 1.7324 -0.88421 0
M  V30 104 C 10.0056 -0.535044 -3.56103 0
M  V30 105 C 9.8586 -2.00548 -4.02617 0
M  V30 106 C 11.1776 0.0478191 -4.40074 0
M  V30 107 H 8.2966 -0.134941 -0.724541 0
M  V30 108 H 10.9386 -0.999794 -1.61568 0
M  V30 109 H 9.0886 0.00336329 -3.885 0
M  V30 110 H 10.7606 -2.60521 -3.80692 0
M  V30 111 H 9.0036 -2.50686 -3.54032 0
M  V30 112 H 9.6746 -2.07377 -5.11565 0
M  V30 113 H 12.1506 -0.411822 -4.14057 0
M  V30 114 H 11.0266 -0.0995336 -5.4881 0
M  V30 115 H 11.2876 1.14025 -4.27142 0
M  V30 116 N 10.3467 1.47872 -0.545128 0
M  V30 117 C 11.5937 2.02493 -0.0165858 0
M  V30 118 C 11.9217 1.42073 1.32836 0
M  V30 119 O 11.1767 0.561459 1.87473 0
M  V30 120 C 11.4757 3.57131 0.13867 0
M  V30 121 C 11.1417 4.36411 -1.13384 0
M  V30 122 C 9.8037 4.57792 -1.48256 0
M  V30 123 C 12.1557 4.82223 -1.97764 0
M  V30 124 C 9.4837 5.22233 -2.67376 0
M  V30 125 C 11.8357 5.47977 -3.16076 0
M  V30 126 C 10.4997 5.67593 -3.51275 0
M  V30 127 H 9.7697 0.740975 -0.00606918 0
M  V30 128 H 12.4167 1.77683 -0.714207 0
M  V30 129 H 10.7217 3.80865 0.919172 0
M  V30 130 H 12.4187 3.97031 0.562782 0
M  V30 131 H 9.0087 4.2004 -0.852297 0
M  V30 132 H 13.1927 4.65493 -1.72132 0
M  V30 133 H 8.4487 5.35616 -2.94831 0
M  V30 134 H 12.6227 5.8244 -3.81755 0
M  V30 135 H 10.2497 6.17298 -4.43675 0
M  V30 136 N 11.8248 0.280983 1.55075 0
M  V30 137 C 13.0708 -0.33461 2.00021 0
M  V30 138 C 13.4038 -1.55063 1.16915 0
M  V30 139 O 12.6788 -1.93006 0.240646 0
M  V30 140 C 12.9618 -0.711007 3.53011 0
M  V30 141 C 12.8148 0.512766 4.46868 0
M  V30 142 C 14.1338 -1.54522 4.12081 0
M  V30 143 H 11.2528 -0.120147 0.727141 0
M  V30 144 H 13.8948 0.389097 1.85973 0
M  V30 145 H 12.0448 -1.32761 3.65112 0
M  V30 146 H 13.7168 1.15131 4.46702 0
M  V30 147 H 11.9598 1.14975 4.18286 0
M  V30 148 H 12.6308 0.205556 5.51617 0
M  V30 149 H 15.1068 -1.02442 4.03293 0
M  V30 150 H 13.9828 -1.77739 5.19327 0
M  V30 151 H 14.2438 -2.52813 3.62682 0
M  V30 152 N 13.3029 -1.57598 0.00835791 0
M  V30 153 C 14.5489 -1.91211 -0.675732 0
M  V30 154 C 14.8819 -0.883139 -1.72958 0
M  V30 155 O 14.1569 0.097016 -1.94258 0
M  V30 156 C 14.4399 -3.35379 -1.31123 0
M  V30 157 C 14.2929 -4.48999 -0.268356 0
M  V30 158 C 15.6119 -3.7912 -2.23508 0
M  V30 159 H 12.7309 -0.695374 -0.244179 0
M  V30 160 H 15.3729 -1.89901 0.0613655 0
M  V30 161 H 13.5229 -3.36626 -1.93946 0
M  V30 162 H 15.1949 -4.59887 0.360844 0
M  V30 163 H 13.4379 -4.31873 0.408482 0
M  V30 164 H 14.1089 -5.46851 -0.752218 0
M  V30 165 H 16.5849 -3.79477 -1.70693 0
M  V30 166 H 15.4609 -4.80729 -2.64936 0
M  V30 167 H 15.7219 -3.13455 -3.11766 0
M  V30 168 N 14.781 0.264519 -1.55364 0
M  V30 169 C 15.711 1.33121 -1.91836 0
M  V30 170 C 16.692 1.51101 -0.781192 0
M  V30 171 O 17.877 1.64003 -1.04003 0
M  V30 172 C 15.007 2.68921 -2.19769 0
M  V30 173 C 13.961 2.65661 -3.35571 0
M  V30 174 C 13.287 4.05093 -3.49004 0
M  V30 175 C 14.587 2.24187 -4.71739 0
M  V30 176 H 16.281 1.02844 -2.81182 0
M  V30 177 H 13.827 0.493286 -1.35287 0
M  V30 178 H 15.78 3.43663 -2.43872 0
M  V30 179 H 14.504 3.00799 -1.27231 0
M  V30 180 H 13.163 1.93377 -3.1145 0
M  V30 181 H 12.811 4.34206 -2.53917 0
M  V30 182 H 12.511 4.03804 -4.26868 0
M  V30 183 H 14.035 4.81561 -3.75408 0
M  V30 184 H 15.449 2.88654 -4.9533 0
M  V30 185 H 13.846 2.34044 -5.52579 0
M  V30 186 H 14.916 1.19327 -4.69988 0
M  V30 187 N 16.2591 1.48442 0.529413 0
M  V30 188 C 17.5081 1.55742 1.28169 0
M  V30 189 C 17.8211 0.236511 1.94165 0
M  V30 190 O 19.0271 0.187761 2.7085 0
M  V30 191 C 17.4831 2.74667 2.32564 0
M  V30 192 C 17.0911 4.13402 1.72636 0
M  V30 193 C 18.8351 2.9128 3.08798 0
M  V30 194 C 16.7421 5.23587 2.74975 0
M  V30 195 H 15.6721 0.579796 0.48203 0
M  V30 196 H 18.3231 1.74776 0.559056 0
M  V30 197 H 16.7051 2.49067 3.07866 0
M  V30 198 H 17.8791 4.49022 1.03519 0
M  V30 199 H 16.1941 4.0191 1.08892 0
M  V30 200 H 18.7911 3.70767 3.85274 0
M  V30 201 H 19.1341 2.00757 3.64695 0
M  V30 202 H 19.6671 3.16782 2.40611 0
M  V30 203 H 16.4061 6.16076 2.23897 0
M  V30 204 H 15.9261 4.92454 3.42417 0
M  V30 205 H 17.6051 5.51724 3.37949 0
M  V30 206 N 17.7372 -0.778329 1.37039 0
M  V30 207 C 18.9842 -1.53665 1.31884 0
M  V30 208 C 19.3122 -1.9425 -0.0986303 0
M  V30 209 O 18.5672 -1.63832 -1.07041 0
M  V30 210 C 18.8662 -2.81845 2.19768 0
M  V30 211 C 18.5322 -2.60345 3.68146 0
M  V30 212 C 17.1942 -2.5419 4.08584 0
M  V30 213 C 19.5462 -2.40923 4.62175 0
M  V30 214 C 16.8742 -2.26594 5.41177 0
M  V30 215 C 19.2262 -2.14852 5.94997 0
M  V30 216 C 17.8902 -2.07137 6.34547 0
M  V30 217 H 17.1602 -0.562299 0.482598 0
M  V30 218 H 19.8072 -0.897069 1.69189 0
M  V30 219 H 18.1122 -3.50328 1.75436 0
M  V30 220 H 19.8092 -3.39692 2.13097 0
M  V30 221 H 16.3992 -2.65996 3.36072 0
M  V30 222 H 20.5832 -2.44673 4.31797 0
M  V30 223 H 15.8392 -2.19111 5.70789 0
M  V30 224 H 20.0132 -1.98822 6.67415 0
M  V30 225 H 17.6402 -1.85518 7.37216 0
M  V30 226 N 19.2153 -1.21501 -1.00376 0
M  V30 227 C 20.4613 -1.03452 -1.74429 0
M  V30 228 C 20.7943 0.430764 -1.89362 0
M  V30 229 O 20.0693 1.31962 -1.42886 0
M  V30 230 C 20.3523 -1.73375 -3.15615 0
M  V30 231 C 20.2053 -3.27431 -3.08397 0
M  V30 232 C 21.5243 -1.47732 -4.14564 0
M  V30 233 H 18.6433 -0.377226 -0.633143 0
M  V30 234 H 21.2853 -1.49693 -1.17013 0
M  V30 235 H 19.4353 -1.34064 -3.64636 0
M  V30 236 H 21.1073 -3.76119 -2.67081 0
M  V30 237 H 19.3503 -3.5767 -2.45468 0
M  V30 238 H 20.0213 -3.71524 -4.08258 0
M  V30 239 H 22.4973 -1.8186 -3.74254 0
M  V30 240 H 21.3733 -1.99169 -5.11491 0
M  V30 241 H 21.6343 -0.407589 -4.40217 0
M  V30 242 N 20.6934 1.19889 -1.02296 0
M  V30 243 C 21.6234 2.25141 -0.619174 0
M  V30 244 C 22.6044 1.66051 0.368915 0
M  V30 245 O 23.7894 1.92546 0.252941 0
M  V30 246 C 20.9194 3.4728 0.0368783 0
M  V30 247 C 19.8734 4.19005 -0.872865 0
M  V30 248 C 19.1994 5.34637 -0.0822402 0
M  V30 249 C 20.4994 4.74452 -2.18387 0
M  V30 250 H 22.1934 2.59171 -1.49903 0
M  V30 251 H 19.7394 1.24579 -0.722222 0
M  V30 252 H 21.6924 4.20098 0.330958 0
M  V30 253 H 20.4164 3.12433 0.95149 0
M  V30 254 H 19.0754 3.48061 -1.15105 0
M  V30 255 H 18.7234 4.96034 0.83422 0
M  V30 256 H 18.4234 5.83557 -0.688149 0
M  V30 257 H 19.9474 6.10255 0.205238 0
M  V30 258 H 21.3614 5.39055 -1.95172 0
M  V30 259 H 19.7584 5.33834 -2.74119 0
M  V30 260 H 20.8284 3.92844 -2.84257 0
M  V30 261 N 22.1715 0.800033 1.35784 0
M  V30 262 C 23.4195 0.376597 1.9856 0
M  V30 263 C 23.7405 -1.05812 1.63795 0
M  V30 264 O 23.0105 -1.73103 0.917171 0
M  V30 265 H 21.5905 0.136261 0.734467 0
M  V30 266 H 24.2525 1.02442 1.65806 0
M  V30 267 H 23.3485 0.477002 3.08433 0
M  V30 268 N 23.6496 -1.47581 0.552962 0
M  V30 269 C 24.6126 -2.28439 -0.186605 0
M  V30 270 C 25.6126 -1.36706 -0.84665 0
M  V30 271 O 26.8026 -1.59378 -0.703164 0
M  V30 272 C 23.9346 -3.16264 -1.2724 0
M  V30 273 H 25.1276 -2.95294 0.523609 0
M  V30 274 H 22.6806 -1.532 0.309745 0
M  V30 275 H 23.4156 -2.54091 -2.01514 0
M  V30 276 H 23.2006 -3.83769 -0.803968 0
M  V30 277 H 24.6906 -3.77198 -1.79196 0
M  V30 278 N 25.1277 -0.289203 -1.54924 0
M  V30 279 C 26.3747 0.323519 -1.99899 0
M  V30 280 C 26.7027 1.54797 -1.17762 0
M  V30 281 O 25.9577 1.94237 -0.238835 0
M  V30 282 C 26.2567 0.736119 -3.49737 0
M  V30 283 C 25.9227 -0.385276 -4.49251 0
M  V30 284 C 24.5847 -0.693156 -4.76181 0
M  V30 285 C 26.9367 -1.14021 -5.08575 0
M  V30 286 C 24.2647 -1.7593 -5.59701 0
M  V30 287 C 26.6167 -2.19619 -5.93254 0
M  V30 288 C 25.2807 -2.51026 -6.185 0
M  V30 289 H 24.5507 0.118384 -0.731482 0
M  V30 290 H 27.1977 -0.405847 -1.8715 0
M  V30 291 H 25.5027 1.54539 -3.60035 0
M  V30 292 H 27.1997 1.22118 -3.81953 0
M  V30 293 H 23.7897 -0.135202 -4.28387 0
M  V30 294 H 27.9737 -0.915611 -4.87781 0
M  V30 295 H 23.2297 -2.0075 -5.77503 0
M  V30 296 H 27.4037 -2.78581 -6.38252 0
M  V30 297 H 25.0307 -3.33772 -6.83008 0
M  V30 298 N 26.6058 1.57591 -0.0167156 0
M  V30 299 C 27.8538 1.90906 0.663285 0
M  V30 300 C 28.1748 0.892509 1.73376 0
M  V30 301 O 27.4448 -0.0677623 1.95783 0
M  V30 302 H 26.0248 0.704637 0.247983 0
M  V30 303 H 28.6868 1.94803 -0.0615909 0
M  V30 304 H 27.7828 2.9116 1.12393 0
M  V30 305 N 28.0839 -0.256276 1.55502 0
M  V30 306 C 29.3119 -1.00342 1.8094 0
M  V30 307 C 29.7269 -1.79307 0.59114 0
M  V30 308 O 29.0839 -1.77114 -0.440081 0
M  V30 309 C 29.1349 -1.94875 3.04476 0
M  V30 310 O 28.8559 -1.19107 4.21598 0
M  V30 311 C 30.3569 -2.81266 3.42644 0
M  V30 312 H 27.5769 -0.295685 0.602338 0
M  V30 313 H 30.1209 -0.281998 2.02546 0
M  V30 314 H 28.2759 -2.62457 2.84947 0
M  V30 315 H 28.6899 -1.82969 4.91551 0
M  V30 316 H 30.1639 -3.43362 4.32211 0
M  V30 317 H 30.6409 -3.51897 2.62802 0
M  V30 318 H 31.2469 -2.1915 3.64491 0
M  V30 319 N 29.562 -1.4872 -0.521534 0
M  V30 320 C 30.787 -1.61101 -1.30618 0
M  V30 321 C 31.212 -0.274611 -1.86085 0
M  V30 322 O 30.57 0.754937 -1.64834 0
M  V30 323 C 30.618 -2.66709 -2.4269 0
M  V30 324 O 29.722 -2.24456 -3.45967 0
M  V30 325 H 29.063 -0.539921 -0.386499 0
M  V30 326 H 31.593 -1.94767 -0.626645 0
M  V30 327 H 31.603 -2.88245 -2.88754 0
M  V30 328 H 30.278 -3.63727 -2.01682 0
M  V30 329 H 28.855 -2.13168 -3.05964 0
M  V30 330 N 31.0401 0.771051 -1.3745 0
M  V30 331 C 32.2881 1.52661 -1.32435 0
M  V30 332 C 32.6091 1.9479 0.0905024 0
M  V30 333 O 31.8791 1.66348 1.03466 0
M  V30 334 H 30.4591 0.566218 -0.487244 0
M  V30 335 H 33.1211 0.917636 -1.71946 0
M  V30 336 H 32.2171 2.42568 -1.96385 0
M  V30 337 N 32.5182 1.22032 0.997298 0
M  V30 338 C 33.9292 1.0397 1.55071 0
M  V30 339 C 34.2802 -0.398192 1.92117 0
M  V30 340 O 33.4052 -1.28254 1.74298 0
M  V30 341 C 34.0002 1.88109 2.81781 0
M  V30 342 C 32.5592 1.74357 3.33581 0
M  V30 343 C 31.7062 1.84846 2.06706 0
M  V30 344 H 34.6572 1.35941 0.818883 0
M  V30 345 H 34.6782 1.39589 3.53971 0
M  V30 346 H 34.1902 2.92754 2.54787 0
M  V30 347 H 32.2912 0.72427 3.65493 0
M  V30 348 H 32.4042 2.56772 4.04481 0
M  V30 349 H 30.7682 1.28238 2.20062 0
M  V30 350 H 31.5512 2.91014 1.82114 0
M  V30 351 N 33.9963 -1.19345 1.0293 0
M  V30 352 C 34.9593 -2.20793 0.615069 0
M  V30 353 C 35.9593 -1.57553 -0.321533 0
M  V30 354 O 37.1493 -1.73862 -0.108483 0
M  V30 355 C 34.2813 -3.40754 -0.0999222 0
M  V30 356 H 35.4743 -2.58955 1.51269 0
M  V30 357 H 33.0273 -1.3303 0.820534 0
M  V30 358 H 33.7623 -3.0811 -1.01187 0
M  V30 359 H 33.5473 -3.87889 0.57309 0
M  V30 360 H 35.0373 -4.15898 -0.376645 0
M  V30 361 N 35.4744 -0.807222 -1.35358 0
M  V30 362 C 36.3844 -0.219594 -2.3357 0
M  V30 363 C 37.4004 0.637734 -1.61892 0
M  V30 364 O 38.5764 0.549336 -1.93763 0
M  V30 365 C 35.6414 0.62158 -3.41083 0
M  V30 366 C 34.7024 -0.256315 -4.28534 0
M  V30 367 C 33.9354 0.544807 -5.30912 0
M  V30 368 O 34.1584 1.77944 -5.41934 0
M  V30 369 O 33.0924 -0.0646478 -6.01865 0
M  V30 370 H 36.9184 -1.03208 -2.85625 0
M  V30 371 H 34.5034 -0.569025 -1.38139 0
M  V30 372 H 36.3854 1.10067 -4.06772 0
M  V30 373 H 35.0604 1.41165 -2.91297 0
M  V30 374 H 33.9674 -0.782559 -3.65823 0
M  V30 375 H 35.3004 -1.01034 -4.81719 0
M  V30 376 N 36.9525 1.47285 -0.560781 0
M  V30 377 C 37.9155 2.28535 0.174488 0
M  V30 378 C 38.9155 1.37153 0.839388 0
M  V30 379 O 40.1055 1.59748 0.694702 0
M  V30 380 C 37.2375 3.16934 1.25561 0
M  V30 381 H 38.4305 2.95012 -0.539262 0
M  V30 382 H 35.9835 1.53034 -0.317865 0
M  V30 383 H 36.7185 2.55157 2.00164 0
M  V30 384 H 36.5035 3.8419 0.783604 0
M  V30 385 H 37.9935 3.78143 1.77193 0
M  V30 386 N 38.4306 0.297415 1.54768 0
M  V30 387 C 39.3936 -0.567375 2.22066 0
M  V30 388 C 40.3936 -1.06409 1.20556 0
M  V30 389 O 41.5836 -0.960691 1.45315 0
M  V30 390 C 38.7156 -1.78517 2.90421 0
M  V30 391 H 39.9086 0.0205534 2.99893 0
M  V30 392 H 37.4616 0.0482163 1.56226 0
M  V30 393 H 38.1966 -2.41303 2.16664 0
M  V30 394 H 37.9816 -1.43669 3.64831 0
M  V30 395 H 39.4716 -2.39964 3.41771 0
M  V30 396 N 39.9087 -1.5758 0.0250728 0
M  V30 397 C 41.3247 -1.56124 -0.331282 0
M  V30 398 C 41.5247 -1.03029 -1.73169 0
M  V30 399 O 40.5807 -0.675215 -2.43305 0
M  V30 400 C 41.8937 -3.00139 -0.183584 0
M  V30 401 C 43.4417 -3.11946 -0.256654 0
M  V30 402 C 43.9167 -4.57793 -0.137792 0
M  V30 403 N 45.4077 -4.6279 -0.194904 0
M  V30 404 C 46.1427 -5.7326 -0.126655 0
M  V30 405 N 45.6387 -6.928 -0.00755288 0
M  V30 406 N 47.4317 -5.61811 -0.180348 0
M  V30 407 H 39.5827 -1.90424 0.94087 0
M  V30 408 H 41.8457 -0.875761 0.362968 0
M  V30 409 H 41.5517 -3.4292 0.780927 0
M  V30 410 H 41.4257 -3.64899 -0.955448 0
M  V30 411 H 43.8127 -2.69079 -1.21162 0
M  V30 412 H 43.8937 -2.49915 0.545517 0
M  V30 413 H 43.5377 -5.01339 0.813739 0
M  V30 414 H 43.4677 -5.17798 -0.958775 0
M  V30 415 H 45.9587 -3.76807 -0.287267 0
M  V30 416 H 46.2717 -7.72791 0.0379428 0
M  V30 417 H 44.6167 -6.94995 0.0271731 0
M  V30 418 H 47.8077 -4.6731 -0.271767 0
M  V30 419 H 47.9807 -6.47882 -0.123697 0
M  V30 420 N 41.3868 0.248026 -1.55636 0
M  V30 421 C 42.6638 0.998988 -1.68165 0
M  V30 422 C 43.0438 2.03409 -0.564621 0
M  V30 423 O 42.3918 2.24378 0.432076 0
M  V30 424 C 42.6018 1.63334 -3.0842 0
M  V30 425 C 43.9498 2.13562 -3.66983 0
M  V30 426 O 44.9738 1.73277 -3.11213 0
M  V30 427 O 43.8328 2.87526 -4.64749 0
M  V30 428 H 40.9268 0.464933 -0.683935 0
M  V30 429 H 43.4728 0.241902 -1.67967 0
M  V30 430 H 42.2448 0.884583 -3.8117 0
M  V30 431 H 41.8678 2.45666 -3.12624 0
M  V30 432 N 42.8649 1.48995 0.513639 0
M  V30 433 C 44.0899 1.61792 1.29762 0
M  V30 434 C 44.5149 0.284475 1.85936 0
M  V30 435 O 43.8729 -0.746185 1.65232 0
M  V30 436 C 43.9209 2.67993 2.41272 0
M  V30 437 O 43.0249 2.26287 3.44772 0
M  V30 438 H 42.3659 0.541963 0.38363 0
M  V30 439 H 44.8959 1.95097 0.616307 0
M  V30 440 H 44.9059 2.89772 2.87221 0
M  V30 441 H 43.5809 3.64791 1.9975 0
M  V30 442 H 42.1579 2.14788 3.04829 0
M  V30 443 N 44.343 -0.763751 1.37857 0
M  V30 444 C 45.591 -1.51957 1.33243 0
M  V30 445 C 45.912 -1.94835 -0.0801709 0
M  V30 446 O 45.182 -1.66894 -1.02582 0
M  V30 447 H 43.762 -0.563626 0.49024 0
M  V30 448 H 46.424 -0.908504 1.7243 0
M  V30 449 H 45.52 -2.41523 1.97669 0
M  V30 450 N 45.8211 -1.22559 -0.990812 0
M  V30 451 C 47.0491 -1.07779 -1.76611 0
M  V30 452 C 47.4641 0.371513 -1.85109 0
M  V30 453 O 46.8211 1.25737 -1.32274 0
M  V30 454 C 46.8721 -1.68512 -3.19822 0
M  V30 455 O 46.5931 -3.07774 -3.1178 0
M  V30 456 C 48.0941 -1.59035 -4.13791 0
M  V30 457 H 45.3141 -0.377729 -0.554583 0
M  V30 458 H 47.8581 -1.62195 -1.24551 0
M  V30 459 H 46.0131 -1.18154 -3.68942 0
M  V30 460 H 46.4271 -3.37062 -4.01858 0
M  V30 461 H 47.9011 -2.0625 -5.1202 0
M  V30 462 H 48.3781 -0.547273 -4.35777 0
M  V30 463 H 48.9841 -2.08709 -3.70568 0
M  V30 464 N 47.2992 1.18797 -1.03562 0
M  V30 465 C 48.2622 2.20464 -0.626769 0
M  V30 466 C 49.2622 1.57721 0.313173 0
M  V30 467 O 50.4522 1.73917 0.0992615 0
M  V30 468 C 47.5842 3.40802 0.0818498 0
M  V30 469 H 48.7772 2.58149 -1.5264 0
M  V30 470 H 46.3302 1.32593 -0.827578 0
M  V30 471 H 47.0652 3.08642 0.995518 0
M  V30 472 H 46.8502 3.8758 -0.593652 0
M  V30 473 H 48.3402 4.16092 0.354584 0
M  V30 474 N 48.7773 0.814389 1.34928 0
M  V30 475 C 49.7243 0.22822 2.29669 0
M  V30 476 C 50.6943 -0.642164 1.53184 0
M  V30 477 O 51.8793 -0.585605 1.81591 0
M  V30 478 C 49.0193 -0.61089 3.3965 0
M  V30 479 C 48.1323 0.280792 4.31086 0
M  V30 480 C 47.2673 -0.567067 5.28165 0
M  V30 481 C 46.3063 0.324531 6.11239 0
M  V30 482 N 45.4433 -0.483756 7.00431 0
M  V30 483 H 50.2833 1.04153 2.79206 0
M  V30 484 H 47.8203 0.525133 1.37407 0
M  V30 485 H 49.7783 -1.11263 4.0209 0
M  V30 486 H 48.4083 -1.38939 2.91369 0
M  V30 487 H 47.4603 0.900688 3.69583 0
M  V30 488 H 48.7723 0.966723 4.89342 0
M  V30 489 H 47.9263 -1.13363 5.96015 0
M  V30 490 H 46.6653 -1.28654 4.70425 0
M  V30 491 H 45.6703 0.903298 5.42329 0
M  V30 492 H 46.8953 1.04198 6.71059 0
M  V30 493 H 44.8413 -1.18706 6.45171 0
M  V30 494 H 44.7583 0.143965 7.55863 0
M  V30 495 H 46.0263 -1.03334 7.7262 0
M  V30 496 N 50.2554 -1.46986 0.568584 0
M  V30 497 C 51.4804 -2.07335 0.0520528 0
M  V30 498 C 51.9054 -1.41675 -1.23733 0
M  V30 499 O 51.2634 -0.495623 -1.74394 0
M  V30 500 C 51.3114 -3.60417 -0.11501 0
M  V30 501 O 50.4154 -3.95309 -1.17492 0
M  V30 502 H 49.7564 -0.661597 0.0564385 0
M  V30 503 H 52.2864 -1.88837 0.787507 0
M  V30 504 H 52.2964 -4.06698 -0.325644 0
M  V30 505 H 50.9714 -4.07601 0.826675 0
M  V30 506 H 49.5484 -3.60757 -0.943869 0
M  V30 507 N 51.7335 -0.305618 -1.54608 0
M  V30 508 C 52.9815 0.301701 -1.99835 0
M  V30 509 C 53.3025 1.54054 -1.19551 0
M  V30 510 O 52.5725 1.93702 -0.292658 0
M  V30 511 H 51.1525 0.114468 -0.738178 0
M  V30 512 H 53.8145 -0.418016 -1.90364 0
M  V30 513 H 52.9105 0.570548 -3.06841 0
M  V30 514 N 53.2116 1.57565 -0.0334293 0
M  V30 515 C 54.1416 2.13511 0.945265 0
M  V30 516 C 55.1226 1.05231 1.33643 0
M  V30 517 O 56.3076 1.33084 1.41429 0
M  V30 518 C 53.4376 2.6657 2.22616 0
M  V30 519 C 52.3916 3.79676 1.97561 0
M  V30 520 C 51.7176 4.1918 3.31952 0
M  V30 521 C 53.0176 5.0557 1.31135 0
M  V30 522 H 54.7116 2.95538 0.479325 0
M  V30 523 H 52.2576 1.42166 0.229115 0
M  V30 524 H 54.2106 3.04344 2.91466 0
M  V30 525 H 52.9346 1.8171 2.71384 0
M  V30 526 H 51.5936 3.42347 1.31127 0
M  V30 527 H 51.2416 3.31296 3.78487 0
M  V30 528 H 50.9416 4.95402 3.15992 0
M  V30 529 H 52.4656 4.59541 4.02063 0
M  V30 530 H 53.8796 5.40903 1.89992 0
M  V30 531 H 52.2766 5.86818 1.25559 0
M  V30 532 H 53.3466 4.84062 0.284894 0
M  V30 533 N 54.6897 -0.239769 1.55765 0
M  V30 534 C 55.9197 -0.982743 1.8173 0
M  V30 535 C 56.3277 -1.7917 0.607835 0
M  V30 536 O 55.6707 -1.78525 -0.432973 0
M  V30 537 C 55.7327 -1.96332 3.01155 0
M  V30 538 C 55.3967 -1.34062 4.36894 0
M  V30 539 C 56.3937 -0.739539 5.14613 0
M  V30 540 C 54.0787 -1.35784 4.83599 0
M  V30 541 C 56.0727 -0.163989 6.37189 0
M  V30 542 C 53.7597 -0.778441 6.06122 0
M  V30 543 C 54.7577 -0.182548 6.82756 0
M  V30 544 O 54.4457 0.387887 8.02964 0
M  V30 545 H 54.1777 -0.294481 0.608487 0
M  V30 546 H 56.7317 -0.26572 2.03674 0
M  V30 547 H 54.9617 -2.71884 2.74984 0
M  V30 548 H 56.6507 -2.57032 3.14149 0
M  V30 549 H 57.4167 -0.718687 4.79646 0
M  V30 550 H 53.2957 -1.81105 4.23936 0
M  V30 551 H 56.8397 0.301753 6.96947 0
M  V30 552 H 52.7367 -0.796645 6.40565 0
M  V30 553 H 53.5047 0.28044 8.18019 0
M  V30 554 N 56.1678 -1.49265 -0.50573 0
M  V30 555 C 57.4138 -1.58748 -1.26202 0
M  V30 556 C 57.7468 -0.271227 -1.92297 0
M  V30 557 O 57.0218 0.724831 -1.80489 0
M  V30 558 C 57.3048 -2.74332 -2.33268 0
M  V30 559 C 57.1578 -4.15737 -1.71705 0
M  V30 560 C 58.4768 -2.85576 -3.34865 0
M  V30 561 H 55.5958 -0.577826 -0.457478 0
M  V30 562 H 58.2378 -1.81532 -0.560897 0
M  V30 563 H 56.3878 -2.55036 -2.93068 0
M  V30 564 H 58.0598 -4.46537 -1.15769 0
M  V30 565 H 56.3028 -4.21605 -1.02135 0
M  V30 566 H 56.9738 -4.92477 -2.49341 0
M  V30 567 H 59.4498 -3.03127 -2.8505 0
M  V30 568 H 58.3258 -3.68135 -4.07146 0
M  V30 569 H 58.5868 -1.94732 -3.96903 0
M  V30 570 N 57.6459 0.756429 -1.3826 0
M  V30 571 C 58.5559 1.9009 -1.37488 0
M  V30 572 C 59.5719 1.71855 -0.272366 0
M  V30 573 O 60.7479 1.94827 -0.510318 0
M  V30 574 C 57.8129 3.25421 -1.19592 0
M  V30 575 C 56.8739 3.56202 -2.39622 0
M  V30 576 C 56.1069 4.85075 -2.2257 0
M  V30 577 O 56.3299 5.57246 -1.21793 0
M  V30 578 O 55.2639 5.15269 -3.11098 0
M  V30 579 H 59.0899 1.93695 -2.33914 0
M  V30 580 H 56.6749 0.901313 -1.1915 0
M  V30 581 H 58.5569 4.06337 -1.11661 0
M  V30 582 H 57.2319 3.22634 -0.262486 0
M  V30 583 H 56.1389 2.75458 -2.53128 0
M  V30 584 H 57.4719 3.63747 -3.31586 0
M  V30 585 N 59.124 1.23083 0.984299 0
M  V30 586 C 60.071 1.00854 2.07598 0
M  V30 587 C 61.041 -0.0726709 1.65941 0
M  V30 588 O 62.226 0.0786535 1.90638 0
M  V30 589 C 59.366 0.601645 3.39815 0
M  V30 590 C 58.479 1.75456 3.94765 0
M  V30 591 C 57.614 1.29482 5.15177 0
M  V30 592 C 56.653 2.41873 5.62284 0
M  V30 593 N 55.79 1.96885 6.73929 0
M  V30 594 H 60.63 1.943 2.25946 0
M  V30 595 H 58.167 0.968001 1.10762 0
M  V30 596 H 60.125 0.346854 4.15756 0
M  V30 597 H 58.755 -0.295803 3.21442 0
M  V30 598 H 57.807 2.12346 3.15616 0
M  V30 599 H 59.119 2.59965 4.25699 0
M  V30 600 H 58.273 0.997923 5.98437 0
M  V30 601 H 57.012 0.420046 4.85888 0
M  V30 602 H 56.017 2.72342 4.77608 0
M  V30 603 H 57.242 3.29881 5.93595 0
M  V30 604 H 55.188 1.11782 6.46406 0
M  V30 605 H 55.105 2.74956 7.04227 0
M  V30 606 H 56.373 1.70289 7.60672 0
M  V30 607 N 60.6021 -1.18246 1.0419 0
M  V30 608 C 61.8481 -1.88536 0.747122 0
M  V30 609 C 62.1811 -1.80223 -0.723409 0
M  V30 610 O 61.4561 -1.20337 -1.52804 0
M  V30 611 C 61.7391 -3.38968 1.21544 0
M  V30 612 C 61.5921 -3.56084 2.74816 0
M  V30 613 C 62.9111 -4.32648 0.806482 0
M  V30 614 H 60.0301 -0.684619 0.272883 0
M  V30 615 H 62.6721 -1.39113 1.29413 0
M  V30 616 H 60.8221 -3.8119 0.750081 0
M  V30 617 H 62.4941 -3.22946 3.29399 0
M  V30 618 H 60.7371 -2.98699 3.14582 0
M  V30 619 H 61.4081 -4.61639 3.02644 0
M  V30 620 H 63.8841 -3.98211 1.20695 0
M  V30 621 H 62.7601 -5.36462 1.1619 0
M  V30 622 H 63.0211 -4.41146 -0.29029 0
M  V30 623 N 62.0802 -0.821533 -1.34494 0
M  V30 624 C 63.3052 -0.420873 -2.03085 0
M  V30 625 C 63.7302 0.964915 -1.61465 0
M  V30 626 O 63.0882 1.62763 -0.798607 0
M  V30 627 C 63.1362 -0.529414 -3.56693 0
M  V30 628 O 62.2402 0.451302 -4.09923 0
M  V30 629 H 61.5812 -0.173489 -0.640935 0
M  V30 630 H 64.1112 -1.11157 -1.71771 0
M  V30 631 H 64.1212 -0.404671 -4.05988 0
M  V30 632 H 62.7962 -1.54014 -3.86332 0
M  V30 633 H 61.3732 0.285558 -3.71805 0
M  V30 634 N 63.5583 1.46682 -0.576371 0
M  V30 635 C 64.8063 2.02013 -0.0594163 0
M  V30 636 C 65.1273 1.45101 1.30271 0
M  V30 637 O 64.3973 0.633317 1.8538 0
M  V30 638 H 62.9773 0.746759 -0.0189745 0
M  V30 639 H 65.6393 1.79862 -0.750717 0
M  V30 640 H 64.7353 3.12097 0.014345 0
M  V30 641 N 65.0364 0.313813 1.54444 0
M  V30 642 C 65.9664 -0.549454 2.26943 0
M  V30 643 C 66.9474 -1.12741 1.27372 0
M  V30 644 O 68.1324 -1.15436 1.56167 0
M  V30 645 C 65.2624 -1.71523 3.01989 0
M  V30 646 C 64.2164 -1.26703 4.08816 0
M  V30 647 C 63.5424 -2.51898 4.71647 0
M  V30 648 C 64.8424 -0.388962 5.2085 0
M  V30 649 H 66.5364 0.0552661 2.99349 0
M  V30 650 H 64.0824 0.0280207 1.43973 0
M  V30 651 H 66.0354 -2.32535 3.51433 0
M  V30 652 H 64.7594 -2.34639 2.27183 0
M  V30 653 H 63.4184 -0.679896 3.6024 0
M  V30 654 H 63.0664 -3.13356 3.93468 0
M  V30 655 H 62.7664 -2.22605 5.43802 0
M  V30 656 H 64.2904 -3.1369 5.23861 0
M  V30 657 H 65.7044 -0.905107 5.6611 0
M  V30 658 H 64.1014 -0.18924 5.99802 0
M  V30 659 H 65.1714 0.582699 4.81386 0
M  V30 660 N 66.5145 -1.57545 0.0417849 0
M  V30 661 C 67.9305 -1.56467 -0.314704 0
M  V30 662 C 68.1305 -1.04859 -1.72066 0
M  V30 663 O 67.1865 -0.700983 -2.42575 0
M  V30 664 C 68.4995 -3.00317 -0.15174 0
M  V30 665 C 70.0475 -3.12201 -0.223553 0
M  V30 666 C 70.5225 -4.57913 -0.0892295 0
M  V30 667 N 72.0135 -4.6297 -0.145808 0
M  V30 668 C 72.7485 -5.73362 -0.0658459 0
M  V30 669 N 72.2445 -6.92769 0.0659282 0
M  V30 670 N 74.0375 -5.6197 -0.12075 0
M  V30 671 H 66.1885 -1.89416 0.961014 0
M  V30 672 H 68.4515 -0.871862 0.372237 0
M  V30 673 H 68.1575 -3.42073 0.817254 0
M  V30 674 H 68.0315 -3.65892 -0.916692 0
M  V30 675 H 70.4185 -2.70349 -1.18301 0
M  V30 676 H 70.4995 -2.49323 0.571994 0
M  V30 677 H 70.1435 -5.00448 0.866867 0
M  V30 678 H 70.0735 -5.18786 -0.903802 0
M  V30 679 H 72.5645 -3.7709 -0.247286 0
M  V30 680 H 72.8775 -7.72707 0.119905 0
M  V30 681 H 71.2225 -6.94927 0.100885 0
M  V30 682 H 74.4135 -4.67572 -0.222187 0
M  V30 683 H 74.5865 -6.47977 -0.0549735 0
M  V30 684 N 67.9926 0.231505 -1.5589 0
M  V30 685 C 68.9396 1.28682 -1.91598 0
M  V30 686 C 69.9096 1.47071 -0.771974 0
M  V30 687 O 71.0946 1.60802 -1.027 0
M  V30 688 C 68.2346 2.6342 -2.22944 0
M  V30 689 C 67.3476 2.52912 -3.50228 0
M  V30 690 C 66.4826 3.80106 -3.7107 0
M  V30 691 C 65.5216 3.64279 -4.91902 0
M  V30 692 N 64.6586 4.834 -5.09184 0
M  V30 693 H 69.4986 0.975305 -2.81588 0
M  V30 694 H 67.0356 0.470299 -1.39379 0
M  V30 695 H 68.9936 3.41869 -2.39126 0
M  V30 696 H 67.6236 2.92687 -1.36139 0
M  V30 697 H 66.6756 1.6595 -3.42294 0
M  V30 698 H 67.9876 2.37133 -4.38827 0
M  V30 699 H 67.1416 4.66999 -3.87295 0
M  V30 700 H 65.8806 3.98799 -2.80733 0
M  V30 701 H 64.8856 2.7577 -4.75637 0
M  V30 702 H 66.1106 3.47067 -5.83714 0
M  V30 703 H 64.0566 5.02425 -4.21788 0
M  V30 704 H 63.9736 4.70311 -5.91898 0
M  V30 705 H 65.2416 5.71747 -5.29835 0
M  V30 706 N 69.4707 1.49531 0.497807 0
M  V30 707 C 70.7477 1.49682 1.25915 0
M  V30 708 C 71.1277 0.226339 2.09883 0
M  V30 709 O 70.4757 -0.791189 2.14365 0
M  V30 710 C 70.6857 2.77755 2.11313 0
M  V30 711 C 72.0337 3.27371 2.70395 0
M  V30 712 O 73.0577 2.78894 2.21578 0
M  V30 713 O 71.9167 4.11808 3.59272 0
M  V30 714 H 69.0107 0.599228 0.56996 0
M  V30 715 H 71.5567 1.61798 0.511816 0
M  V30 716 H 70.3287 3.61713 1.49264 0
M  V30 717 H 69.9517 2.68515 2.93233 0
M  V30 718 N 70.9488 -0.749086 1.3866 0
M  V30 719 C 72.1958 -1.50833 1.35114 0
M  V30 720 C 72.5238 -1.94415 -0.0574049 0
M  V30 721 O 71.7788 -1.66065 -1.03541 0
M  V30 722 C 72.0778 -2.7712 2.25697 0
M  V30 723 C 71.7438 -2.52477 3.73585 0
M  V30 724 C 70.4058 -2.45466 4.13884 0
M  V30 725 C 72.7578 -2.31066 4.67181 0
M  V30 726 C 70.0858 -2.15064 5.45861 0
M  V30 727 C 72.4378 -2.02183 5.9942 0
M  V30 728 C 71.1018 -1.93631 6.38798 0
M  V30 729 H 70.3718 -0.551936 0.494416 0
M  V30 730 H 73.0188 -0.860979 1.71054 0
M  V30 731 H 71.3238 -3.46528 1.82827 0
M  V30 732 H 73.0208 -3.35096 2.20254 0
M  V30 733 H 69.6108 -2.58807 3.41638 0
M  V30 734 H 73.7948 -2.35459 4.3689 0
M  V30 735 H 69.0508 -2.06954 5.75308 0
M  V30 736 H 73.2248 -1.8462 6.71482 0
M  V30 737 H 70.8518 -1.69839 7.40985 0
M  V30 738 N 72.4269 -1.23603 -0.977757 0
M  V30 739 C 73.6759 -1.06377 -1.71368 0
M  V30 740 C 73.9889 0.399062 -1.91486 0
M  V30 741 O 75.1949 0.691312 -2.62551 0
M  V30 742 C 73.6509 -1.85512 -3.08404 0
M  V30 743 C 73.2589 -3.36141 -2.96164 0
M  V30 744 C 75.0029 -1.76783 -3.85938 0
M  V30 745 C 72.9099 -4.07659 -4.28449 0
M  V30 746 H 71.8399 -0.394452 -0.642591 0
M  V30 747 H 74.4909 -1.47594 -1.09034 0
M  V30 748 H 72.8729 -1.37103 -3.71509 0
M  V30 749 H 74.0469 -3.92056 -2.42133 0
M  V30 750 H 72.3619 -3.45712 -2.32104 0
M  V30 751 H 74.9589 -2.27526 -4.83876 0
M  V30 752 H 75.3019 -0.731116 -4.0983 0
M  V30 753 H 75.8349 -2.22818 -3.2954 0
M  V30 754 H 72.5739 -5.11648 -4.09752 0
M  V30 755 H 72.0939 -3.5653 -4.82334 0
M  V30 756 H 73.7729 -4.141 -4.97122 0
M  V30 757 N 73.905 1.17692 -1.04816 0
M  V30 758 C 74.852 2.21581 -0.645797 0
M  V30 759 C 75.822 1.62367 0.350159 0
M  V30 760 O 77.007 1.89254 0.242433 0
M  V30 761 C 74.147 3.45092 -0.0227568 0
M  V30 762 C 73.26 4.18613 -1.06709 0
M  V30 763 C 72.395 5.29602 -0.411767 0
M  V30 764 C 71.434 5.94904 -1.44067 0
M  V30 765 N 70.571 6.97414 -0.809781 0
M  V30 766 H 75.411 2.55353 -1.5362 0
M  V30 767 H 72.948 1.25438 -0.768364 0
M  V30 768 H 74.906 4.15679 0.35588 0
M  V30 769 H 73.536 3.11917 0.831122 0
M  V30 770 H 72.588 3.46779 -1.5636 0
M  V30 771 H 73.9 4.63293 -1.84827 0
M  V30 772 H 73.054 6.06696 0.0206623 0
M  V30 773 H 71.793 4.86045 0.401438 0
M  V30 774 H 70.798 5.16544 -1.88316 0
M  V30 775 H 72.023 6.40542 -2.25571 0
M  V30 776 H 69.969 6.55998 -0.0170186 0
M  V30 777 H 69.886 7.40386 -1.52856 0
M  V30 778 H 71.154 7.78463 -0.401999 0
M  V30 779 N 75.3831 0.828654 1.34056 0
M  V30 780 C 76.6311 0.41863 1.97717 0
M  V30 781 C 76.9521 -1.02314 1.66002 0
M  V30 782 O 76.2221 -1.71119 0.953683 0
M  V30 783 H 74.8021 0.151809 0.731412 0
M  V30 784 H 77.4641 1.05936 1.63596 0
M  V30 785 H 76.5601 0.542318 3.07352 0
M  V30 786 N 76.8612 -1.46375 0.584142 0
M  V30 787 C 78.1072 -2.02678 0.0703716 0
M  V30 788 C 78.4402 -1.4545 -1.28678 0
M  V30 789 O 77.7152 -0.62014 -1.84349 0
M  V30 790 C 77.9982 -3.60099 0.00614674 0
M  V30 791 C 77.8512 -4.27709 1.3923 0
M  V30 792 C 79.1702 -4.34598 -0.693742 0
M  V30 793 H 76.2892 -0.736504 0.027047 0
M  V30 794 H 78.9312 -1.74501 0.751615 0
M  V30 795 H 77.0812 -3.84236 -0.574009 0
M  V30 796 H 78.7532 -4.14832 2.01773 0
M  V30 797 H 76.9962 -3.87016 1.95962 0
M  V30 798 H 77.6672 -5.36478 1.29982 0
M  V30 799 H 80.1432 -4.15615 -0.200869 0
M  V30 800 H 79.0192 -5.44318 -0.707714 0
M  V30 801 H 79.2802 -4.05759 -1.75533 0
M  V30 802 N 78.3393 -0.321999 -1.54275 0
M  V30 803 C 79.6163 0.335232 -1.92706 0
M  V30 804 C 79.9963 1.70006 -1.25145 0
M  V30 805 O 79.3443 2.25067 -0.394596 0
M  V30 806 C 79.5543 0.429008 -3.46353 0
M  V30 807 C 80.9023 0.690029 -4.18956 0
M  V30 808 O 81.9263 0.511992 -3.52501 0
M  V30 809 O 80.7853 1.03338 -5.36641 0
M  V30 810 H 77.8793 0.191143 -0.804608 0
M  V30 811 H 80.4253 -0.3716 -1.65581 0
M  V30 812 H 79.1973 -0.529611 -3.87699 0
M  V30 813 H 78.8203 1.18348 -3.79578 0
M  V30 814 N 79.8174 1.5752 -0.0501392 0
M  V30 815 C 81.0634 1.92936 0.624798 0
M  V30 816 C 81.3964 0.928685 1.70555 0
M  V30 817 O 80.6714 -0.0454779 1.94447 0
M  V30 818 C 80.9544 3.38737 1.22185 0
M  V30 819 C 80.8074 4.49552 0.149218 0
M  V30 820 C 82.1264 3.84913 2.13378 0
M  V30 821 H 79.2454 0.701604 0.225657 0
M  V30 822 H 81.8874 1.89671 -0.111693 0
M  V30 823 H 80.0374 3.4165 1.84953 0
M  V30 824 H 81.7094 4.58768 -0.482648 0
M  V30 825 H 79.9524 4.30638 -0.522841 0
M  V30 826 H 80.6234 5.48653 0.606966 0
M  V30 827 H 83.0994 3.8387 1.60572 0
M  V30 828 H 81.9754 4.87584 2.52097 0
M  V30 829 H 82.2364 3.21611 3.03346 0
M  V30 830 N 81.2955 -0.223234 1.56011 0
M  V30 831 C 82.5205 -0.968978 1.83373 0
M  V30 832 C 82.9455 -1.77227 0.630254 0
M  V30 833 O 82.3035 -1.76345 -0.420959 0
M  V30 834 C 82.3515 -1.86363 3.08709 0
M  V30 835 O 81.4555 -2.95873 2.87285 0
M  V30 836 H 80.7965 -0.274461 0.604622 0
M  V30 837 H 83.3265 -0.237056 2.03222 0
M  V30 838 H 83.3365 -2.27376 3.38768 0
M  V30 839 H 82.0115 -1.27319 3.95933 0
M  V30 840 H 80.5885 -2.58818 2.68454 0
M  V30 841 N 82.7736 -1.49793 -0.48987 0
M  V30 842 C 83.9986 -1.63836 -1.27172 0
M  V30 843 C 84.4236 -0.31402 -1.8546 0
M  V30 844 O 83.7816 0.719803 -1.66399 0
M  V30 845 C 83.8296 -2.71797 -2.36978 0
M  V30 846 O 82.9336 -2.31744 -3.41128 0
M  V30 847 H 82.2746 -0.547997 -0.37496 0
M  V30 848 H 84.8046 -1.96053 -0.585191 0
M  V30 849 H 84.8146 -2.94305 -2.82575 0
M  V30 850 H 83.4896 -3.67923 -1.93921 0
M  V30 851 H 82.0666 -2.1961 -3.01373 0
M  V30 852 N 84.2517 0.741722 -1.39055 0
M  V30 853 C 85.5007 1.49656 -1.35225 0
M  V30 854 C 85.8137 1.95533 0.0512708 0
M  V30 855 O 87.0197 2.7067 0.212138 0
M  V30 856 C 85.4757 2.70389 -2.37525 0
M  V30 857 C 85.0837 2.31489 -3.83558 0
M  V30 858 C 86.8277 3.48236 -2.42759 0
M  V30 859 C 84.7347 3.48903 -4.77515 0
M  V30 860 H 83.6647 0.56197 -0.502699 0
M  V30 861 H 86.3157 0.809727 -1.64668 0
M  V30 862 H 84.6977 3.41113 -2.01142 0
M  V30 863 H 85.8717 1.68354 -4.28945 0
M  V30 864 H 84.1867 1.66749 -3.81554 0
M  V30 865 H 86.7837 4.35558 -3.1015 0
M  V30 866 H 87.1267 3.90229 -1.45008 0
M  V30 867 H 87.6597 2.84535 -2.78002 0
M  V30 868 H 84.3987 3.11966 -5.76504 0
M  V30 869 H 83.9187 4.11041 -4.36813 0
M  V30 870 H 85.5977 4.15328 -4.96096 0
M  V30 871 N 85.7298 1.2412 0.971189 0
M  V30 872 C 86.9788 1.07284 1.70801 0
M  V30 873 C 87.2918 -0.388902 1.91695 0
M  V30 874 O 88.4978 -0.677379 2.62914 0
M  V30 875 C 86.9538 1.87145 3.07416 0
M  V30 876 C 86.5618 3.37707 2.94377 0
M  V30 877 C 88.3058 1.78828 3.84995 0
M  V30 878 C 86.2128 4.09925 4.26281 0
M  V30 879 H 85.1428 0.397854 0.64049 0
M  V30 880 H 87.7938 1.4817 1.0825 0
M  V30 881 H 86.1758 1.39071 3.70777 0
M  V30 882 H 87.3498 3.93335 2.4005 0
M  V30 883 H 85.6648 3.46938 2.30267 0
M  V30 884 H 88.2618 2.30089 4.82662 0
M  V30 885 H 88.6048 0.75284 4.09436 0
M  V30 886 H 89.1378 2.24563 3.28354 0
M  V30 887 H 85.8768 5.13813 4.07033 0
M  V30 888 H 85.3968 3.59083 4.80437 0
M  V30 889 H 87.0758 4.1673 4.94919 0
M  V30 890 N 87.2079 -1.17134 1.05439 0
M  V30 891 C 88.1709 -2.19439 0.661764 0
M  V30 892 C 89.1709 -1.58199 -0.288042 0
M  V30 893 O 90.3609 -1.74053 -0.0715803 0
M  V30 894 C 87.4929 -3.40889 -0.0276209 0
M  V30 895 H 88.6859 -2.55688 1.56728 0
M  V30 896 H 86.2389 -1.31259 0.848567 0
M  V30 897 H 86.9739 -3.10187 -0.94629 0
M  V30 898 H 86.7589 -3.86586 0.655238 0
M  V30 899 H 88.2489 -4.16603 -0.288342 0
M  V30 900 N 88.686 -0.835752 -1.33615 0
M  V30 901 C 89.616 -0.281739 -2.31794 0
M  V30 902 C 90.597 0.608833 -1.58831 0
M  V30 903 O 91.782 0.533035 -1.86741 0
M  V30 904 C 88.912 0.546612 -3.42971 0
M  V30 905 C 87.866 -0.247904 -4.27281 0
M  V30 906 C 87.192 0.704001 -5.30045 0
M  V30 907 C 88.492 -1.46324 -5.01385 0
M  V30 908 H 90.186 -1.10206 -2.78379 0
M  V30 909 H 87.732 -0.531388 -1.33837 0
M  V30 910 H 89.685 0.944467 -4.1068 0
M  V30 911 H 88.409 1.40011 -2.95067 0
M  V30 912 H 87.068 -0.627281 -3.61194 0
M  V30 913 H 86.716 1.55381 -4.78399 0
M  V30 914 H 86.416 0.176524 -5.87335 0
M  V30 915 H 87.94 1.09944 -6.0062 0
M  V30 916 H 89.354 -1.13871 -5.61877 0
M  V30 917 H 87.751 -1.92728 -5.6831 0
M  V30 918 H 88.821 -2.23467 -4.30338 0
M  V30 919 N 90.1641 1.46063 -0.591896 0
M  V30 920 C 91.0741 2.34192 0.13831 0
M  V30 921 C 92.0901 1.50305 0.876608 0
M  V30 922 O 93.2661 1.8315 0.837728 0
M  V30 923 C 90.3311 3.27656 1.13326 0
M  V30 924 C 89.3921 4.27445 0.39863 0
M  V30 925 C 88.6251 5.16443 1.34618 0
M  V30 926 O 88.8481 5.08553 2.58321 0
M  V30 927 O 87.7821 5.95843 0.851768 0
M  V30 928 H 91.6081 2.98002 -0.58552 0
M  V30 929 H 89.1931 1.45188 -0.352239 0
M  V30 930 H 91.0751 3.85291 1.70671 0
M  V30 931 H 89.7501 2.6643 1.83839 0
M  V30 932 H 88.6571 3.73471 -0.216895 0
M  V30 933 H 89.9901 4.91482 -0.265709 0
M  V30 934 N 91.6422 0.330177 1.54103 0
M  V30 935 C 92.5522 -0.541534 2.28264 0
M  V30 936 C 93.5682 -1.12351 1.32866 0
M  V30 937 O 94.7442 -1.14206 1.65888 0
M  V30 938 C 91.8092 -1.68322 3.03098 0
M  V30 939 C 90.8702 -1.13238 4.14096 0
M  V30 940 C 90.1032 -2.21966 4.85352 0
M  V30 941 O 90.3262 -3.42437 4.56172 0
M  V30 942 O 89.2602 -1.87013 5.7211 0
M  V30 943 H 93.0862 0.060938 3.03639 0
M  V30 944 H 90.6712 0.09565 1.49093 0
M  V30 945 H 92.5532 -2.34777 3.49939 0
M  V30 946 H 91.2282 -2.27176 2.30593 0
M  V30 947 H 90.1352 -0.432736 3.71589 0
M  V30 948 H 91.4682 -0.588898 4.88664 0
M  V30 949 N 93.1203 -1.57491 0.0584922 0
M  V30 950 C 94.3453 -1.97711 -0.62652 0
M  V30 951 C 94.7703 -0.936132 -1.63151 0
M  V30 952 O 94.1283 0.099811 -1.81025 0
M  V30 953 C 94.1763 -3.36989 -1.28338 0
M  V30 954 O 93.2803 -3.35433 -2.39913 0
M  V30 955 H 92.6213 -0.643868 -0.162266 0
M  V30 956 H 95.1513 -2.04193 0.129064 0
M  V30 957 H 95.1613 -3.73879 -1.63335 0
M  V30 958 H 93.8363 -4.12289 -0.546889 0
M  V30 959 H 92.4133 -3.10298 -2.06809 0
M  V30 960 N 94.5984 0.214957 -1.56127 0
M  V30 961 C 95.8464 0.936518 -1.79091 0
M  V30 962 C 96.1674 1.84606 -0.628148 0
M  V30 963 O 95.4374 1.92664 0.35462 0
M  V30 964 H 94.0174 0.3488 -0.660566 0
M  V30 965 H 96.6794 0.22523 -1.93594 0
M  V30 966 H 95.7754 1.53943 -2.71492 0
M  V30 967 N 96.0765 1.50051 0.48192 0
M  V30 968 C 97.3225 1.60736 1.2366 0
M  V30 969 C 97.6555 0.301786 1.91841 0
M  V30 970 O 96.9305 -0.696025 1.8162 0
M  V30 971 C 97.2135 2.78009 2.28874 0
M  V30 972 C 97.0665 4.18416 1.65069 0
M  V30 973 C 98.3855 2.90867 3.30279 0
M  V30 974 H 95.5045 0.585031 0.448228 0
M  V30 975 H 98.1465 1.82402 0.531946 0
M  V30 976 H 96.2965 2.59667 2.88973 0
M  V30 977 H 97.9685 4.48322 1.0865 0
M  V30 978 H 96.2115 4.23177 0.954148 0
M  V30 979 H 96.8825 4.96381 2.41474 0
M  V30 980 H 99.3585 3.07623 2.80191 0
M  V30 981 H 98.2345 3.74566 4.01238 0
M  V30 982 H 98.4955 2.01021 3.93755 0
M  V30 983 N 97.5546 -0.734337 1.39446 0
M  V30 984 C 98.5176 -1.83004 1.37994 0
M  V30 985 C 99.5176 -1.58397 0.276938 0
M  V30 986 O 100.708 -1.65785 0.534875 0
M  V30 987 C 97.8396 -3.20802 1.1532 0
M  V30 988 H 99.0326 -1.85694 2.35494 0
M  V30 989 H 96.5856 -0.938059 1.25021 0
M  V30 990 H 97.3206 -3.23772 0.185036 0
M  V30 991 H 97.1056 -3.4006 1.95197 0
M  V30 992 H 98.5956 -4.00862 1.17046 0
M  V30 993 N 99.0327 -1.24633 -0.964593 0
M  V30 994 C 100.28 -1.08788 -1.70796 0
M  V30 995 C 100.608 0.372783 -1.90894 0
M  V30 996 O 99.8627 1.29167 -1.47018 0
M  V30 997 C 100.162 -1.7763 -3.10133 0
M  V30 998 C 99.8277 -3.27557 -3.09866 0
M  V30 999 C 98.4897 -3.6846 -3.09501 0
M  V30 1000 C 100.842 -4.23389 -3.03959 0
M  V30 1001 C 98.1697 -5.03624 -3.00965 0
M  V30 1002 C 100.522 -5.58565 -2.96965 0
M  V30 1003 C 99.1857 -5.98809 -2.9493 0
M  V30 1004 H 98.4557 -0.398084 -0.624988 0
M  V30 1005 H 101.103 -1.54777 -1.12767 0
M  V30 1006 H 99.4077 -1.24044 -3.71645 0
M  V30 1007 H 101.105 -1.62832 -3.66451 0
M  V30 1008 H 97.6947 -2.95006 -3.10917 0
M  V30 1009 H 101.879 -3.92787 -3.03368 0
M  V30 1010 H 97.1347 -5.33998 -2.97752 0
M  V30 1011 H 101.309 -6.32523 -2.91354 0
M  V30 1012 H 98.9357 -7.03505 -2.88071 0
M  V30 1013 N 100.511 1.16574 -1.06058 0
M  V30 1014 C 101.741 1.90675 -0.795397 0
M  V30 1015 C 102.149 1.77547 0.653735 0
M  V30 1016 O 101.492 1.11611 1.45907 0
M  V30 1017 C 101.554 3.42011 -1.10764 0
M  V30 1018 C 101.218 3.78924 -2.55471 0
M  V30 1019 C 102.215 3.81042 -3.53699 0
M  V30 1020 C 99.8998 4.09626 -2.90708 0
M  V30 1021 C 101.894 4.13346 -4.85205 0
M  V30 1022 C 99.5808 4.41597 -4.22416 0
M  V30 1023 C 100.579 4.43436 -5.19474 0
M  V30 1024 O 100.267 4.74649 -6.48817 0
M  V30 1025 H 99.9988 0.611554 -0.288058 0
M  V30 1026 H 102.553 1.48711 -1.41683 0
M  V30 1027 H 100.783 3.84312 -0.429128 0
M  V30 1028 H 102.472 3.97384 -0.827077 0
M  V30 1029 H 103.238 3.57437 -3.27817 0
M  V30 1030 H 99.1168 4.07361 -2.15819 0
M  V30 1031 H 102.661 4.14696 -5.60957 0
M  V30 1032 H 98.5578 4.64667 -4.48056 0
M  V30 1033 H 99.3258 4.9247 -6.5377 0
M  V30 1034 N 101.989 0.842826 1.3317 0
M  V30 1035 C 102.937 0.267495 2.31057 0
M  V30 1036 C 103.931 -0.602682 1.58316 0
M  V30 1037 O 105.137 -0.491803 1.73151 0
M  V30 1038 H 101.512 0.0677813 0.748939 0
M  V30 1039 H 103.483 1.10754 2.77085 0
M  V30 1040 C 102.232 -0.539331 3.43492 0
M  V30 1041 H 101.555 0.12095 3.99617 0
M  V30 1042 H 102.995 -0.90767 4.14171 0
M  V30 1043 C 101.454 -1.71981 2.89697 0
M  V30 1044 O 101.984 -2.81862 2.86211 0
M  V30 1045 N 100.19 -1.54299 2.46252 0
M  V30 1046 H 99.7369 -0.649143 2.49287 0
M  V30 1047 H 99.6949 -2.33431 2.10612 0
M  V30 1048 N 103.467 -1.45747 0.599634 0
M  V30 1049 C 104.377 -2.34262 -0.125888 0
M  V30 1050 C 105.393 -1.50768 -0.868625 0
M  V30 1051 O 106.569 -1.83592 -0.828003 0
M  V30 1052 C 103.634 -3.28252 -1.11587 0
M  V30 1053 C 102.695 -4.27651 -0.375956 0
M  V30 1054 C 101.928 -5.1715 -1.31877 0
M  V30 1055 O 102.151 -5.09916 -2.55621 0
M  V30 1056 O 101.085 -5.96286 -0.820157 0
M  V30 1057 H 104.911 -2.97688 0.601315 0
M  V30 1058 H 102.496 -1.44999 0.359934 0
M  V30 1059 H 104.378 -3.86191 -1.68626 0
M  V30 1060 H 103.053 -2.67401 -1.82424 0
M  V30 1061 H 101.96 -3.7335 0.236698 0
M  V30 1062 H 103.293 -4.91334 0.29177 0
M  V30 1063 N 104.945 -0.338344 -1.53925 0
M  V30 1064 C 106.17 0.263987 -2.05713 0
M  V30 1065 C 106.595 1.43847 -1.21201 0
M  V30 1066 O 105.953 1.79904 -0.224535 0
M  V30 1067 C 106.001 0.662 -3.54471 0
M  V30 1068 O 105.105 1.76265 -3.72833 0
M  V30 1069 H 104.446 0.0448722 -0.662482 0
M  V30 1070 H 106.976 -0.491048 -1.9862 0
M  V30 1071 H 106.986 0.940594 -3.9701 0
M  V30 1072 H 105.661 -0.196937 -4.15433 0
M  V30 1073 H 104.238 1.48173 -3.42198 0
M  V30 1074 N 106.423 1.57458 -0.0668435 0
M  V30 1075 C 107.671 1.92919 0.602214 0
M  V30 1076 C 107.992 0.947215 1.70449 0
M  V30 1077 O 107.262 -0.00544117 1.95899 0
M  V30 1078 H 105.842 0.71217 0.22544 0
M  V30 1079 H 108.504 1.94508 -0.123535 0
M  V30 1080 H 107.6 2.94589 1.03073 0
M  V30 1081 N 107.901 -0.206675 1.56239 0
M  V30 1082 C 108.848 -1.25617 1.93621 0
M  V30 1083 C 109.818 -1.45824 0.795274 0
M  V30 1084 O 111.003 -1.59148 1.05245 0
M  V30 1085 C 108.143 -2.59839 2.27107 0
M  V30 1086 C 107.256 -2.47308 3.54207 0
M  V30 1087 C 106.391 -3.74155 3.7707 0
M  V30 1088 C 105.43 -3.56407 4.97635 0
M  V30 1089 N 104.567 -4.75238 5.1681 0
M  V30 1090 H 109.407 -0.930383 2.83104 0
M  V30 1091 H 106.944 -0.448065 1.4011 0
M  V30 1092 H 108.902 -3.38021 2.44535 0
M  V30 1093 H 107.532 -2.90485 1.40778 0
M  V30 1094 H 106.584 -1.60483 3.4489 0
M  V30 1095 H 107.896 -2.30122 4.42544 0
M  V30 1096 H 107.05 -4.60778 3.94675 0
M  V30 1097 H 105.789 -3.94282 2.87042 0
M  V30 1098 H 104.794 -2.68168 4.79964 0
M  V30 1099 H 106.019 -3.37736 5.89161 0
M  V30 1100 H 103.965 -4.95651 4.29728 0
M  V30 1101 H 103.882 -4.60835 5.99306 0
M  V30 1102 H 105.15 -5.63246 5.38864 0
M  V30 1103 N 109.379 -1.50304 -0.473955 0
M  V30 1104 C 110.326 -1.68959 -1.57231 0
M  V30 1105 C 111.296 -0.530899 -1.57387 0
M  V30 1106 O 112.481 -0.761133 -1.74961 0
M  V30 1107 C 109.621 -1.7871 -2.95223 0
M  V30 1108 C 108.734 -3.06061 -3.04878 0
M  V30 1109 C 107.869 -3.06626 -4.33767 0
M  V30 1110 C 106.908 -4.28443 -4.37154 0
M  V30 1111 N 106.045 -4.26763 -5.5751 0
M  V30 1112 H 110.885 -2.6273 -1.40631 0
M  V30 1113 H 108.422 -1.30241 -0.683789 0
M  V30 1114 H 110.38 -1.82344 -3.75242 0
M  V30 1115 H 109.01 -0.883806 -3.10465 0
M  V30 1116 H 108.062 -3.11911 -2.17751 0
M  V30 1117 H 109.374 -3.96039 -3.0324 0
M  V30 1118 H 108.528 -3.08973 -5.22131 0
M  V30 1119 H 107.267 -2.14473 -4.3801 0
M  V30 1120 H 106.272 -4.2631 -3.47188 0
M  V30 1121 H 107.497 -5.2182 -4.34605 0
M  V30 1122 H 105.443 -3.37462 -5.62544 0
M  V30 1123 H 105.36 -5.10507 -5.57601 0
M  V30 1124 H 106.628 -4.33253 -6.48006 0
M  V30 1125 N 110.857 0.726932 -1.39834 0
M  V30 1126 C 111.789 1.85147 -1.35104 0
M  V30 1127 C 112.802 1.60736 -0.258392 0
M  V30 1128 O 113.991 1.70821 -0.517931 0
M  V30 1129 C 111.091 3.21332 -1.07697 0
M  V30 1130 C 110.264 3.73033 -2.28396 0
M  V30 1131 C 109.323 4.87802 -1.97322 0
M  V30 1132 O 108.349 5.01043 -2.70083 0
M  V30 1133 N 109.551 5.72768 -0.944273 0
M  V30 1134 H 112.316 1.89706 -2.32017 0
M  V30 1135 H 109.877 0.908006 -1.3404 0
M  V30 1136 H 111.869 3.95691 -0.849144 0
M  V30 1137 H 110.439 3.11992 -0.194909 0
M  V30 1138 H 109.659 2.89934 -2.6708 0
M  V30 1139 H 110.947 4.0431 -3.08887 0
M  V30 1140 H 110.345 5.64669 -0.341427 0
M  V30 1141 H 108.902 6.4716 -0.776346 0
M  V30 1142 N 112.336 1.25143 0.95797 0
M  V30 1143 C 113.613 1.00472 1.67823 0
M  V30 1144 C 113.993 -0.470056 2.058 0
M  V30 1145 O 113.341 -1.44663 1.76875 0
M  V30 1146 C 113.551 1.9372 2.90299 0
M  V30 1147 C 114.899 2.21371 3.62326 0
M  V30 1148 O 115.923 1.91451 3.00375 0
M  V30 1149 O 114.782 2.72231 4.7387 0
M  V30 1150 H 111.876 0.380752 0.734137 0
M  V30 1151 H 114.422 1.36283 1.01119 0
M  V30 1152 H 113.194 2.93316 2.59001 0
M  V30 1153 H 112.817 1.58286 3.64735 0
M  V30 1154 N 113.814 -1.1601 1.06675 0
M  V30 1155 C 115.063 -1.85973 0.780818 0
M  V30 1156 C 115.376 -1.82819 -0.695444 0
M  V30 1157 O 116.582 -2.484 -1.09589 0
M  V30 1158 C 115.038 -3.33757 1.34665 0
M  V30 1159 C 114.646 -3.45374 2.85343 0
M  V30 1160 C 116.39 -4.0895 1.13843 0
M  V30 1161 C 114.297 -4.87266 3.35151 0
M  V30 1162 H 113.227 -0.696661 0.288407 0
M  V30 1163 H 115.878 -1.30903 1.28595 0
M  V30 1164 H 114.26 -3.88456 0.769274 0
M  V30 1165 H 115.434 -3.00816 3.49065 0
M  V30 1166 H 113.749 -2.83619 3.04876 0
M  V30 1167 H 116.346 -5.13654 1.4854 0
M  V30 1168 H 116.689 -4.16229 0.0770282 0
M  V30 1169 H 117.222 -3.605 1.68179 0
M  V30 1170 H 113.961 -4.85168 4.40786 0
M  V30 1171 H 113.481 -5.32433 2.76179 0
M  V30 1172 H 115.16 -5.56097 3.30704 0
M  V30 1173 N 115.292 -0.849877 -1.32721 0
M  V30 1174 C 116.539 -0.450923 -1.97416 0
M  V30 1175 C 116.867 0.992376 -1.67279 0
M  V30 1176 O 116.122 1.71048 -0.950845 0
M  V30 1177 C 116.421 -0.631272 -3.51781 0
M  V30 1178 C 116.087 -2.04432 -4.01894 0
M  V30 1179 C 114.749 -2.4308 -4.1529 0
M  V30 1180 C 117.101 -2.96679 -4.28522 0
M  V30 1181 C 114.429 -3.73257 -4.52654 0
M  V30 1182 C 116.781 -4.26349 -4.67343 0
M  V30 1183 C 115.445 -4.64939 -4.78945 0
M  V30 1184 H 114.715 -0.165004 -0.722395 0
M  V30 1185 H 117.362 -1.07901 -1.58207 0
M  V30 1186 H 115.667 0.0800767 -3.91718 0
M  V30 1187 H 117.364 -0.302709 -3.99856 0
M  V30 1188 H 113.954 -1.73419 -3.91949 0
M  V30 1189 H 118.138 -2.68054 -4.17685 0
M  V30 1190 H 113.394 -4.02946 -4.59831 0
M  V30 1191 H 117.568 -4.97895 -4.86902 0
M  V30 1192 H 115.195 -5.65855 -5.07654 0
M  V30 1193 N 116.77 1.45427 -0.607355 0
M  V30 1194 C 117.717 2.3053 0.111625 0
M  V30 1195 C 118.687 1.4209 0.860216 0
M  V30 1196 O 119.872 1.71019 0.845998 0
M  V30 1197 C 117.012 3.26992 1.10319 0
M  V30 1198 C 116.125 4.30535 0.355493 0
M  V30 1199 C 115.26 5.14105 1.33676 0
M  V30 1200 C 114.299 6.09376 0.576862 0
M  V30 1201 N 113.436 6.85727 1.5074 0
M  V30 1202 H 118.276 2.91477 -0.620093 0
M  V30 1203 H 115.813 1.43631 -0.317594 0
M  V30 1204 H 117.771 3.81385 1.6912 0
M  V30 1205 H 116.401 2.67799 1.80232 0
M  V30 1206 H 115.453 3.78805 -0.348023 0
M  V30 1207 H 116.765 4.98235 -0.237423 0
M  V30 1208 H 115.919 5.72897 1.99684 0
M  V30 1209 H 114.658 4.46423 1.9636 0
M  V30 1210 H 113.663 5.49715 -0.0968519 0
M  V30 1211 H 114.888 6.79085 -0.0449341 0
M  V30 1212 H 112.834 6.20735 2.12189 0
M  V30 1213 H 112.751 7.49778 0.967913 0
M  V30 1214 H 114.019 7.4906 2.15706 0
M  V30 1215 N 118.248 0.346503 1.53744 0
M  V30 1216 C 119.476 -0.25041 2.05379 0
M  V30 1217 C 119.891 -1.43979 1.22129 0
M  V30 1218 O 119.248 -1.80677 0.257321 0
M  V30 1219 C 119.299 -0.662575 3.55376 0
M  V30 1220 O 119.02 0.479515 4.35468 0
M  V30 1221 C 120.521 -1.31989 4.23195 0
M  V30 1222 H 117.741 -0.0478198 0.669294 0
M  V30 1223 H 120.285 0.499346 1.9831 0
M  V30 1224 H 118.44 -1.36227 3.62658 0
M  V30 1225 H 118.854 0.15037 5.24284 0
M  V30 1226 H 120.328 -1.55902 5.29527 0
M  V30 1227 H 120.805 -2.27436 3.75725 0
M  V30 1228 H 121.411 -0.662154 4.20114 0
M  V30 1229 N 119.726 -1.57421 0.075193 0
M  V30 1230 C 120.656 -2.15942 -0.888324 0
M  V30 1231 C 121.637 -1.08737 -1.30806 0
M  V30 1232 O 122.822 -1.36787 -1.37851 0
M  V30 1233 C 119.952 -2.72379 -2.1547 0
M  V30 1234 C 118.906 -3.8478 -1.87425 0
M  V30 1235 C 118.232 -4.27834 -3.20721 0
M  V30 1236 C 119.532 -5.08869 -1.17684 0
M  V30 1237 H 121.226 -2.96705 -0.400799 0
M  V30 1238 H 118.772 -1.42723 -0.191342 0
M  V30 1239 H 120.725 -3.11965 -2.83295 0
M  V30 1240 H 119.449 -1.88841 -2.6647 0
M  V30 1241 H 118.108 -3.45703 -1.22004 0
M  V30 1242 H 117.756 -3.41214 -3.6957 0
M  V30 1243 H 117.456 -5.03605 -3.02746 0
M  V30 1244 H 118.98 -4.70039 -3.89738 0
M  V30 1245 H 120.394 -5.4575 -1.75584 0
M  V30 1246 H 118.791 -5.8994 -1.09956 0
M  V30 1247 H 119.861 -4.84648 -0.156453 0
M  V30 1248 N 121.204 0.198386 -1.56346 0
M  V30 1249 C 122.151 1.24589 -1.94284 0
M  V30 1250 C 123.121 1.454 -0.802997 0
M  V30 1251 O 124.306 1.58588 -1.06087 0
M  V30 1252 C 121.446 2.58631 -2.28482 0
M  V30 1253 C 120.559 2.45426 -3.55514 0
M  V30 1254 C 119.694 3.7215 -3.79049 0
M  V30 1255 C 118.733 3.53763 -4.99518 0
M  V30 1256 N 117.87 4.72491 -5.19323 0
M  V30 1257 H 122.71 0.915356 -2.83593 0
M  V30 1258 H 120.247 0.440629 -1.40346 0
M  V30 1259 H 122.205 3.3672 -2.46324 0
M  V30 1260 H 120.835 2.89734 -1.42317 0
M  V30 1261 H 119.887 1.58652 -3.45737 0
M  V30 1262 H 121.199 2.27772 -4.43758 0
M  V30 1263 H 120.353 4.58679 -3.97113 0
M  V30 1264 H 119.092 3.92754 -2.89129 0
M  V30 1265 H 118.097 2.65619 -4.8138 0
M  V30 1266 H 119.322 3.34607 -5.90944 0
M  V30 1267 H 117.268 4.93365 -4.3235 0
M  V30 1268 H 117.185 4.5765 -6.01741 0
M  V30 1269 H 118.453 5.6038 -5.41843 0
M  V30 1270 N 122.682 1.50554 0.465978 0
M  V30 1271 C 123.592 1.72585 1.58907 0
M  V30 1272 C 124.608 0.60911 1.6299 0
M  V30 1273 O 125.784 0.88804 1.80765 0
M  V30 1274 C 122.849 1.81995 2.95091 0
M  V30 1275 C 121.91 3.05751 3.01355 0
M  V30 1276 C 121.143 3.14702 4.31043 0
M  V30 1277 O 121.366 2.30313 5.21835 0
M  V30 1278 O 120.3 4.07468 4.43005 0
M  V30 1279 H 124.126 2.67799 1.43239 0
M  V30 1280 H 121.711 1.34711 0.646013 0
M  V30 1281 H 123.593 1.90335 3.75966 0
M  V30 1282 H 122.268 0.899659 3.10947 0
M  V30 1283 H 121.175 3.02908 2.19539 0
M  V30 1284 H 122.508 3.97375 2.90437 0
M  V30 1285 N 124.16 -0.719506 1.40217 0
M  V30 1286 C 125.123 -1.8153 1.39927 0
M  V30 1287 C 126.123 -1.58095 0.293723 0
M  V30 1288 O 127.313 -1.65209 0.552429 0
M  V30 1289 C 124.445 -3.19561 1.18716 0
M  V30 1290 H 125.638 -1.83186 2.37451 0
M  V30 1291 H 123.191 -0.924746 1.26008 0
M  V30 1292 H 123.926 -3.23557 0.219366 0
M  V30 1293 H 123.711 -3.3797 1.98793 0
M  V30 1294 H 125.201 -3.99598 1.21291 0
M  V30 1295 N 125.638 -1.25649 -0.95132 0
M  V30 1296 C 126.886 -1.10375 -1.69298 0
M  V30 1297 C 127.207 0.355339 -1.91735 0
M  V30 1298 O 126.477 1.25188 -1.50681 0
M  V30 1299 H 125.057 -0.405461 -0.627384 0
M  V30 1300 H 127.719 -1.57823 -1.14358 0
M  V30 1301 H 126.815 -1.61465 -2.67087 0
M  V30 1302 N 127.117 1.15442 -1.07289 0
M  V30 1303 C 128.363 1.86489 -0.796846 0
M  V30 1304 C 128.696 1.82078 0.675371 0
M  V30 1305 O 127.971 1.24346 1.4956 0
M  V30 1306 C 128.254 3.35626 -1.30489 0
M  V30 1307 C 128.107 3.48673 -2.84161 0
M  V30 1308 C 129.426 4.30357 -0.920907 0
M  V30 1309 H 126.545 0.677144 -0.290939 0
M  V30 1310 H 129.187 1.35633 -1.33056 0
M  V30 1311 H 127.337 3.79068 -0.850883 0
M  V30 1312 H 129.009 3.14099 -3.37846 0
M  V30 1313 H 127.252 2.90253 -3.22391 0
M  V30 1314 H 127.923 4.53453 -3.14777 0
M  V30 1315 H 130.399 3.94871 -1.3121 0
M  V30 1316 H 129.275 5.33193 -1.30372 0
M  V30 1317 H 129.536 4.4176 0.173226 0
M  V30 1318 N 128.595 0.856903 1.32268 0
M  V30 1319 C 129.543 0.291987 2.3076 0
M  V30 1320 C 130.537 -0.585857 1.58947 0
M  V30 1321 O 131.743 -0.47341 1.73663 0
M  V30 1322 H 128.118 0.075721 0.748178 0
M  V30 1323 H 130.089 1.13687 2.75895 0
M  V30 1324 C 128.838 -0.502869 3.44044 0
M  V30 1325 H 128.161 0.163328 3.99466 0
M  V30 1326 H 129.601 -0.863691 4.1511 0
M  V30 1327 C 128.06 -1.68898 2.91505 0
M  V30 1328 O 128.59 -2.78811 2.89184 0
M  V30 1329 N 126.796 -1.51679 2.47875 0
M  V30 1330 H 126.343 -0.622666 2.49961 0
M  V30 1331 H 126.301 -2.31184 2.13076 0
M  V30 1332 N 130.073 -1.45103 0.615059 0
M  V30 1333 C 131.303 -2.06254 0.119596 0
M  V30 1334 C 131.711 -1.4591 -1.20445 0
M  V30 1335 O 131.054 -0.570384 -1.7462 0
M  V30 1336 C 131.116 -3.59396 -0.0865591 0
M  V30 1337 C 130.78 -4.42116 1.15683 0
M  V30 1338 C 131.777 -4.7662 2.07676 0
M  V30 1339 C 129.462 -4.82749 1.38775 0
M  V30 1340 C 131.456 -5.50622 3.21082 0
M  V30 1341 C 129.143 -5.56504 2.52481 0
M  V30 1342 C 130.141 -5.90358 3.43463 0
M  V30 1343 O 129.829 -6.62615 4.55189 0
M  V30 1344 H 129.561 -0.672423 0.0694512 0
M  V30 1345 H 132.115 -1.87219 0.844885 0
M  V30 1346 H 130.345 -3.76859 -0.866823 0
M  V30 1347 H 132.034 -4.02365 -0.534555 0
M  V30 1348 H 132.8 -4.4578 1.91063 0
M  V30 1349 H 128.679 -4.55829 0.688545 0
M  V30 1350 H 132.223 -5.76965 3.92119 0
M  V30 1351 H 128.12 -5.86759 2.69043 0
M  V30 1352 H 128.888 -6.81071 4.53966 0
M  V30 1353 N 131.551 -0.354651 -1.53558 0
M  V30 1354 C 132.797 0.238797 -2.01389 0
M  V30 1355 C 133.13 1.49309 -1.2418 0
M  V30 1356 O 132.405 1.91638 -0.332457 0
M  V30 1357 C 132.688 0.541771 -3.56001 0
M  V30 1358 C 132.541 -0.725388 -4.43912 0
M  V30 1359 C 133.86 1.34685 -4.18984 0
M  V30 1360 H 130.979 0.0853177 -0.732045 0
M  V30 1361 H 133.621 -0.477384 -1.83905 0
M  V30 1362 H 131.771 1.15189 -3.71031 0
M  V30 1363 H 133.443 -1.36313 -4.407 0
M  V30 1364 H 131.686 -1.34801 -4.12324 0
M  V30 1365 H 132.357 -0.468505 -5.50008 0
M  V30 1366 H 134.833 0.830837 -4.07721 0
M  V30 1367 H 133.709 1.52759 -5.27215 0
M  V30 1368 H 133.97 2.35221 -3.74331 0
M  V30 1369 N 133.029 1.57378 -0.0835403 0
M  V30 1370 C 134.445 1.57246 0.273109 0
M  V30 1371 C 134.645 1.09385 1.69225 0
M  V30 1372 O 133.701 0.765051 2.40631 0
M  V30 1373 C 135.014 3.00614 0.0720628 0
M  V30 1374 C 136.562 3.12684 0.1407 0
M  V30 1375 C 137.037 4.57989 -0.0322094 0
M  V30 1376 N 138.528 4.63194 0.0230085 0
M  V30 1377 C 139.263 5.73335 -0.0861941 0
M  V30 1378 N 138.759 6.9235 -0.24958 0
M  V30 1379 N 140.552 5.62093 -0.0282886 0
M  V30 1380 H 132.703 1.86801 -1.0109 0
M  V30 1381 H 134.966 0.861687 -0.395222 0
M  V30 1382 H 134.672 3.39786 -0.907662 0
M  V30 1383 H 134.546 3.68193 0.81936 0
M  V30 1384 H 136.933 2.73391 1.11092 0
M  V30 1385 H 137.014 2.47719 -0.637896 0
M  V30 1386 H 136.658 4.97973 -0.999247 0
M  V30 1387 H 136.588 5.21 0.765937 0
M  V30 1388 H 139.079 3.77613 0.14722 0
M  V30 1389 H 139.392 7.72117 -0.324733 0
M  V30 1390 H 137.737 6.94415 -0.285097 0
M  V30 1391 H 140.928 4.67997 0.0981408 0
M  V30 1392 H 141.101 6.47895 -0.116845 0
M  V30 1393 N 134.507 -0.190092 1.56449 0
M  V30 1394 C 135.753 -0.911052 1.81184 0
M  V30 1395 C 136.086 -1.82699 0.658396 0
M  V30 1396 O 135.361 -1.91491 -0.340775 0
M  V30 1397 C 135.644 -1.72297 3.16205 0
M  V30 1398 C 135.497 -0.831419 4.42049 0
M  V30 1399 C 136.816 -2.69454 3.47969 0
M  V30 1400 H 133.935 -0.32977 0.659106 0
M  V30 1401 H 136.577 -0.178169 1.89163 0
M  V30 1402 H 134.727 -2.34778 3.09534 0
M  V30 1403 H 136.399 -0.220929 4.60771 0
M  V30 1404 H 134.642 -0.138406 4.33579 0
M  V30 1405 H 135.313 -1.43461 5.33032 0
M  V30 1406 H 137.789 -2.17104 3.54972 0
M  V30 1407 H 136.665 -3.23342 4.43555 0
M  V30 1408 H 136.926 -3.48744 2.71717 0
M  V30 1409 N 135.985 -1.50799 -0.457987 0
M  V30 1410 C 137.401 -1.38515 -0.792819 0
M  V30 1411 C 137.601 -0.451409 -1.96379 0
M  V30 1412 O 136.657 0.10112 -2.52297 0
M  V30 1413 C 137.97 -2.80149 -1.09258 0
M  V30 1414 C 139.518 -2.89156 -1.19825 0
M  V30 1415 C 139.993 -4.31651 -1.53106 0
M  V30 1416 N 141.484 -4.34662 -1.60072 0
M  V30 1417 C 142.219 -5.41928 -1.87354 0
M  V30 1418 N 141.715 -6.59384 -2.12568 0
M  V30 1419 N 143.508 -5.29385 -1.88965 0
M  V30 1420 H 135.659 -2.10073 0.313511 0
M  V30 1421 H 137.922 -0.944803 0.0777862 0
M  V30 1422 H 137.628 -3.50374 -0.305084 0
M  V30 1423 H 137.502 -3.18204 -2.02549 0
M  V30 1424 H 139.889 -2.19141 -1.97639 0
M  V30 1425 H 139.97 -2.54626 -0.244821 0
M  V30 1426 H 139.614 -5.02208 -0.758266 0
M  V30 1427 H 139.544 -4.63678 -2.49621 0
M  V30 1428 H 142.035 -3.49973 -1.42573 0
M  V30 1429 H 142.348 -7.36934 -2.32696 0
M  V30 1430 H 140.693 -6.62535 -2.09933 0
M  V30 1431 H 143.884 -4.36616 -1.68772 0
M  V30 1432 H 144.057 -6.13066 -2.09891 0
M  V30 1433 N 137.463 0.71206 -1.40597 0
M  V30 1434 C 138.712 1.46754 -1.38369 0
M  V30 1435 C 139.025 1.95598 0.0097839 0
M  V30 1436 O 140.231 2.71059 0.154677 0
M  V30 1437 C 138.687 2.65289 -2.43207 0
M  V30 1438 C 138.295 2.23301 -3.88382 0
M  V30 1439 C 140.039 3.43008 -2.50091 0
M  V30 1440 C 137.946 3.38696 -4.84808 0
M  V30 1441 H 136.876 0.55118 -0.514506 0
M  V30 1442 H 139.527 0.774616 -1.66349 0
M  V30 1443 H 137.909 3.36769 -2.08332 0
M  V30 1444 H 139.083 1.59218 -4.32419 0
M  V30 1445 H 137.398 1.58618 -3.85006 0
M  V30 1446 H 139.995 4.28881 -3.1932 0
M  V30 1447 H 140.338 3.87065 -1.53253 0
M  V30 1448 H 140.871 2.78574 -2.83974 0
M  V30 1449 H 137.61 2.99668 -5.82992 0
M  V30 1450 H 137.13 4.01683 -4.45433 0
M  V30 1451 H 138.809 4.04712 -5.04794 0
M  V30 1452 N 138.941 1.26152 0.944643 0
M  V30 1453 C 140.187 1.12665 1.69346 0
M  V30 1454 C 140.542 -0.3273 1.89596 0
M  V30 1455 O 139.835 -1.23717 1.46303 0
M  V30 1456 C 140.029 1.82541 3.07268 0
M  V30 1457 C 139.858 3.34582 3.00475 0
M  V30 1458 C 138.628 4.03863 3.03681 0
M  V30 1459 C 140.826 4.30828 2.80877 0
M  V30 1460 N 138.808 5.42603 2.87151 0
M  V30 1461 C 140.179 5.5672 2.7288 0
M  V30 1462 C 142.234 4.21122 2.65633 0
M  V30 1463 C 140.937 6.74013 2.51196 0
M  V30 1464 C 142.963 5.38118 2.45323 0
M  V30 1465 C 142.325 6.62955 2.38055 0
M  V30 1466 H 138.424 0.467041 0.627214 0
M  V30 1467 H 141.008 1.59391 1.11815 0
M  V30 1468 H 139.179 1.38296 3.62945 0
M  V30 1469 H 140.911 1.61708 3.70989 0
M  V30 1470 H 137.666 3.55198 3.1326 0
M  V30 1471 H 138.09 6.15443 2.82063 0
M  V30 1472 H 142.732 3.25344 2.70021 0
M  V30 1473 H 140.45 7.6989 2.4555 0
M  V30 1474 H 144.036 5.32475 2.34439 0
M  V30 1475 H 142.916 7.51959 2.22546 0
M  V30 1476 N 140.419 -1.14872 1.07899 0
M  V30 1477 C 141.367 -2.21857 0.698727 0
M  V30 1478 C 142.361 -1.66845 -0.293086 0
M  V30 1479 O 143.567 -1.79321 -0.156204 0
M  V30 1480 H 139.942 -0.722691 0.207899 0
M  V30 1481 H 141.913 -2.51205 1.61054 0
M  V30 1482 C 140.662 -3.47498 0.11858 0
M  V30 1483 H 139.985 -3.90154 0.872914 0
M  V30 1484 H 141.425 -4.23858 -0.109759 0
M  V30 1485 C 139.884 -3.16947 -1.1422 0
M  V30 1486 O 140.414 -3.3426 -2.22785 0
M  V30 1487 N 138.62 -2.70946 -1.05055 0
M  V30 1488 H 138.167 -2.57058 -0.167038 0
M  V30 1489 H 138.125 -2.50879 -1.89491 0
M  V30 1490 N 141.898 -0.863906 -1.31812 0
M  V30 1491 C 143.175 -0.39275 -1.91616 0
M  V30 1492 C 143.555 1.12461 -1.7865 0
M  V30 1493 O 142.903 1.95045 -1.19037 0
M  V30 1494 C 143.113 -0.867385 -3.38049 0
M  V30 1495 C 144.461 -0.889966 -4.15168 0
M  V30 1496 O 145.485 -0.812635 -3.46806 0
M  V30 1497 O 144.344 -1.00079 -5.37258 0
M  V30 1498 H 141.438 -0.116358 -0.818773 0
M  V30 1499 H 143.984 -0.951418 -1.40521 0
M  V30 1500 H 142.756 -1.91081 -3.41473 0
M  V30 1501 H 142.379 -0.286687 -3.96565 0
M  V30 1502 N 143.376 1.44774 -0.622745 0
M  V30 1503 C 144.787 1.85546 -0.207226 0
M  V30 1504 C 145.138 1.52093 1.23944 0
M  V30 1505 O 144.263 0.95492 1.94191 0
M  V30 1506 C 144.858 3.36781 -0.369313 0
M  V30 1507 C 143.417 3.76399 -0.00836847 0
M  V30 1508 C 142.564 2.68664 -0.686651 0
M  V30 1509 H 145.515 1.3536 -0.828454 0
M  V30 1510 H 145.536 3.78453 0.394162 0
M  V30 1511 H 145.048 3.61098 -1.42231 0
M  V30 1512 H 143.149 3.57698 1.04322 0
M  V30 1513 H 143.262 4.7732 -0.412584 0
M  V30 1514 H 141.626 2.54404 -0.122777 0
M  V30 1515 H 142.409 2.95815 -1.74208 0
M  V30 1516 N 144.854 0.36279 1.53368 0
M  V30 1517 C 146.084 -0.228281 2.05335 0
M  V30 1518 C 146.492 -1.43226 1.23625 0
M  V30 1519 O 145.835 -1.81717 0.269206 0
M  V30 1520 C 145.897 -0.688549 3.52845 0
M  V30 1521 C 145.561 0.398362 4.5526 0
M  V30 1522 C 146.558 1.24732 5.04716 0
M  V30 1523 C 144.243 0.557805 4.99193 0
M  V30 1524 C 146.237 2.2411 5.96702 0
M  V30 1525 C 143.924 1.55495 5.90986 0
M  V30 1526 C 144.922 2.39503 6.39631 0
M  V30 1527 O 144.61 3.37517 7.29615 0
M  V30 1528 H 144.342 -0.044395 0.674541 0
M  V30 1529 H 146.896 0.518668 1.98744 0
M  V30 1530 H 145.126 -1.48706 3.56964 0
M  V30 1531 H 146.815 -1.20231 3.87685 0
M  V30 1532 H 147.581 1.13532 4.71525 0
M  V30 1533 H 143.46 -0.0862959 4.60919 0
M  V30 1534 H 147.004 2.89718 6.34594 0
M  V30 1535 H 142.901 1.66744 6.23592 0
M  V30 1536 H 143.669 3.33213 7.47604 0
M  V30 1537 N 146.332 -1.57332 0.0918853 0
M  V30 1538 C 147.609 -1.85691 -0.614668 0
M  V30 1539 C 147.989 -0.988146 -1.86545 0
M  V30 1540 O 147.337 -0.0597055 -2.28422 0
M  V30 1541 C 147.547 -3.36294 -0.933126 0
M  V30 1542 C 148.895 -4.04275 -1.29796 0
M  V30 1543 O 149.919 -3.41157 -1.02424 0
M  V30 1544 O 148.778 -5.1564 -1.81047 0
M  V30 1545 H 145.872 -0.767802 -0.307261 0
M  V30 1546 H 148.418 -1.69244 0.12434 0
M  V30 1547 H 147.19 -3.91273 -0.0456404 0
M  V30 1548 H 146.813 -3.58076 -1.72822 0
M  V30 1549 N 147.81 0.181792 -1.56548 0
M  V30 1550 C 148.773 1.20894 -1.94724 0
M  V30 1551 C 149.773 1.37738 -0.829747 0
M  V30 1552 O 150.963 1.35323 -1.09697 0
M  V30 1553 C 148.095 2.57593 -2.23291 0
M  V30 1554 H 149.288 0.882275 -2.86629 0
M  V30 1555 H 146.841 0.423838 -1.50444 0
M  V30 1556 H 147.576 2.95291 -1.34067 0
M  V30 1557 H 147.361 2.46735 -3.04736 0
M  V30 1558 H 148.851 3.31637 -2.53785 0
M  V30 1559 N 149.288 1.51039 0.449983 0
M  V30 1560 C 150.236 1.71995 1.5659 0
M  V30 1561 C 151.23 0.586029 1.5894 0
M  V30 1562 O 152.436 0.76709 1.62837 0
M  V30 1563 H 148.811 0.543233 0.520001 0
M  V30 1564 H 150.782 2.65562 1.36085 0
M  V30 1565 C 149.531 1.8506 2.9436 0
M  V30 1566 H 148.854 2.71712 2.93279 0
M  V30 1567 H 150.294 2.0374 3.71842 0
M  V30 1568 C 148.753 0.607277 3.31382 0
M  V30 1569 O 149.283 -0.243903 4.00959 0
M  V30 1570 N 147.489 0.455073 2.87015 0
M  V30 1571 H 147.036 1.14879 2.30566 0
M  V30 1572 H 146.994 -0.375611 3.12148 0
M  V30 1573 N 150.766 -0.704594 1.40972 0
M  V30 1574 C 152.014 -1.46169 1.39568 0
M  V30 1575 C 152.335 -1.95 0.00253745 0
M  V30 1576 O 151.605 -1.71095 -0.954114 0
M  V30 1577 H 150.185 -0.542326 0.513704 0
M  V30 1578 H 152.847 -0.834553 1.76128 0
M  V30 1579 H 151.943 -2.32922 2.07735 0
M  V30 1580 N 152.244 -1.26651 -0.937939 0
M  V30 1581 C 153.192 -1.08308 -2.05845 0
M  V30 1582 C 154.186 -0.0090757 -1.69398 0
M  V30 1583 O 155.392 -0.166007 -1.79233 0
M  V30 1584 H 151.767 -0.333416 -0.674046 0
M  V30 1585 H 153.738 -2.03261 -2.18467 0
M  V30 1586 C 152.487 -0.736229 -3.39816 0
M  V30 1587 H 151.81 -1.55453 -3.6834 0
M  V30 1588 H 153.25 -0.64769 -4.19024 0
M  V30 1589 C 151.709 0.558824 -3.32233 0
M  V30 1590 O 152.239 1.59621 -3.68624 0
M  V30 1591 N 150.445 0.550657 -2.85335 0
M  V30 1592 H 149.992 -0.293943 -2.55917 0
M  V30 1593 H 149.95 1.41726 -2.80644 0
M  V30 1594 N 153.722 1.14298 -1.08507 0
M  V30 1595 C 154.97 1.84993 -0.813763 0
M  V30 1596 C 155.291 1.83405 0.662393 0
M  V30 1597 O 154.561 1.28319 1.48024 0
M  V30 1598 H 153.141 0.684966 -0.298045 0
M  V30 1599 H 155.803 1.385 -1.37126 0
M  V30 1600 H 154.899 2.89788 -1.15884 0
M  V30 1601 N 155.201 0.870884 1.31352 0
M  V30 1602 C 156.431 0.496049 2.00557 0
M  V30 1603 C 156.839 -0.916241 1.65534 0
M  V30 1604 O 156.182 -1.61188 0.881134 0
M  V30 1605 C 156.244 0.574418 3.54881 0
M  V30 1606 C 155.908 1.94849 4.1338 0
M  V30 1607 C 156.905 2.91611 4.30417 0
M  V30 1608 C 154.59 2.25005 4.49086 0
M  V30 1609 C 156.584 4.16672 4.82352 0
M  V30 1610 C 154.271 3.50315 5.00722 0
M  V30 1611 C 155.269 4.45964 5.17306 0
M  V30 1612 O 154.957 5.69052 5.67833 0
M  V30 1613 H 154.689 0.191664 0.64826 0
M  V30 1614 H 157.243 1.17409 1.68536 0
M  V30 1615 H 155.473 -0.160549 3.86367 0
M  V30 1616 H 157.162 0.212879 4.05341 0
M  V30 1617 H 157.928 2.69622 4.03149 0
M  V30 1618 H 153.807 1.51332 4.35453 0
M  V30 1619 H 157.351 4.91336 4.95211 0
M  V30 1620 H 153.248 3.72147 5.27424 0
M  V30 1621 H 154.016 5.71236 5.86201 0
M  V30 1622 N 156.679 -1.44442 0.630414 0
M  V30 1623 C 157.927 -2.01653 0.134351 0
M  V30 1624 C 158.248 -1.49836 -1.24796 0
M  V30 1625 O 157.518 -0.701684 -1.82902 0
M  V30 1626 H 156.098 -0.74554 0.0466769 0
M  V30 1627 H 158.76 -1.76952 0.816955 0
M  V30 1628 H 157.856 -3.11935 0.101498 0
M  V30 1629 N 158.157 -0.370918 -1.53173 0
M  V30 1630 C 159.405 0.216673 -2.00935 0
M  V30 1631 C 159.726 1.48845 -1.25977 0
M  V30 1632 O 158.996 1.92286 -0.374551 0
M  V30 1633 H 157.576 0.0830565 -0.742368 0
M  V30 1634 H 160.238 -0.49838 -1.8842 0
M  V30 1635 H 159.334 0.439893 -3.08984 0
M  V30 1636 N 159.635 1.57281 -0.100228 0
M  V30 1637 C 160.883 1.94153 0.561157 0
M  V30 1638 C 161.204 0.983157 1.68401 0
M  V30 1639 O 160.474 0.0361132 1.95867 0
M  V30 1640 H 159.054 0.716791 0.210283 0
M  V30 1641 H 161.716 1.94202 -0.164765 0
M  V30 1642 H 160.812 2.96709 0.968008 0
M  V30 1643 N 161.113 -0.173488 1.56642 0
M  V30 1644 C 162.061 -1.23417 1.97157 0
M  V30 1645 C 163.055 -1.45946 0.860013 0
M  V30 1646 O 164.261 -1.46551 1.04512 0
M  V30 1647 H 160.636 -0.414818 0.62724 0
M  V30 1648 H 162.607 -0.865582 2.8557 0
M  V30 1649 C 161.356 -2.5665 2.34576 0
M  V30 1650 H 160.679 -2.40137 3.19647 0
M  V30 1651 H 162.119 -3.2956 2.6677 0
M  V30 1652 C 160.578 -3.15245 1.18836 0
M  V30 1653 O 161.108 -3.98883 0.474869 0
M  V30 1654 N 159.314 -2.74303 0.959497 0
M  V30 1655 H 158.861 -2.0639 1.54146 0
M  V30 1656 H 158.819 -3.13844 0.186932 0
M  V30 1657 N 162.591 -1.51276 -0.441967 0
M  V30 1658 C 163.539 -1.72823 -1.55676 0
M  V30 1659 C 164.533 -0.59445 -1.58627 0
M  V30 1660 O 165.739 -0.775715 -1.62427 0
M  V30 1661 H 162.114 -0.545983 -0.517113 0
M  V30 1662 H 164.085 -2.6628 -1.34675 0
M  V30 1663 C 162.834 -1.86619 -2.93375 0
M  V30 1664 H 162.157 -2.73264 -2.91834 0
M  V30 1665 H 163.597 -2.05709 -3.70756 0
M  V30 1666 C 162.056 -0.624842 -3.31055 0
M  V30 1667 O 162.586 0.222636 -4.01083 0
M  V30 1668 N 160.792 -0.470288 -2.86769 0
M  V30 1669 H 160.339 -1.161 -2.29953 0
M  V30 1670 H 160.297 0.359051 -3.12343 0
M  V30 1671 N 164.069 0.697108 -1.41344 0
M  V30 1672 C 165.346 1.45154 -1.31109 0
M  V30 1673 C 165.726 2.11009 0.0620449 0
M  V30 1674 O 165.074 2.01571 1.07618 0
M  V30 1675 C 165.284 2.47223 -2.46337 0
M  V30 1676 C 166.632 3.1252 -2.87431 0
M  V30 1677 O 167.656 2.57547 -2.46065 0
M  V30 1678 O 166.515 4.12083 -3.58957 0
M  V30 1679 H 163.609 0.646365 -0.515889 0
M  V30 1680 H 166.155 0.727716 -1.53305 0
M  V30 1681 H 164.927 1.97204 -3.37974 0
M  V30 1682 H 164.55 3.27116 -2.2601 0
M  V30 1683 N 165.547 1.27147 0.931209 0
M  V30 1684 C 166.477 1.12081 2.04842 0
M  V30 1685 C 167.458 0.0232364 1.70084 0
M  V30 1686 O 168.643 0.197085 1.93197 0
M  V30 1687 C 165.773 0.76354 3.38803 0
M  V30 1688 C 164.727 1.81396 3.87659 0
M  V30 1689 C 164.053 1.31075 5.18385 0
M  V30 1690 C 165.353 3.21739 4.11438 0
M  V30 1691 H 167.047 2.05537 2.17703 0
M  V30 1692 H 164.593 0.989603 1.04608 0
M  V30 1693 H 166.546 0.644982 4.16435 0
M  V30 1694 H 165.27 -0.206727 3.25945 0
M  V30 1695 H 163.929 1.92136 3.12217 0
M  V30 1696 H 163.577 0.330037 5.01916 0
M  V30 1697 H 163.277 2.013 5.52044 0
M  V30 1698 H 164.801 1.20506 5.98591 0
M  V30 1699 H 166.215 3.14019 4.79651 0
M  V30 1700 H 164.612 3.89644 4.56397 0
M  V30 1701 H 165.682 3.67054 3.16859 0
M  V30 1702 N 167.025 -1.13721 1.09112 0
M  V30 1703 C 167.935 -2.22638 0.73957 0
M  V30 1704 C 168.951 -1.72091 -0.257068 0
M  V30 1705 O 170.127 -2.01155 -0.0992154 0
M  V30 1706 C 167.192 -3.46322 0.16191 0
M  V30 1707 C 166.253 -4.11775 1.21408 0
M  V30 1708 C 165.486 -5.29555 0.663891 0
M  V30 1709 O 165.709 -5.68077 -0.514274 0
M  V30 1710 O 164.643 -5.84973 1.41738 0
M  V30 1711 H 168.469 -2.55074 1.64836 0
M  V30 1712 H 166.054 -1.21791 0.865289 0
M  V30 1713 H 167.936 -4.21107 -0.157073 0
M  V30 1714 H 166.611 -3.15593 -0.719932 0
M  V30 1715 H 165.518 -3.3883 1.58571 0
M  V30 1716 H 166.851 -4.46627 2.06845 0
M  V30 1717 N 168.503 -0.877838 -1.30888 0
M  V30 1718 C 169.45 -0.337538 -2.28318 0
M  V30 1719 C 170.42 0.568346 -1.56074 0
M  V30 1720 O 171.605 0.498298 -1.84178 0
M  V30 1721 C 168.745 0.448142 -3.42178 0
M  V30 1722 C 167.858 -0.48615 -4.29256 0
M  V30 1723 C 166.993 0.314427 -5.30269 0
M  V30 1724 C 166.032 -0.615791 -6.08995 0
M  V30 1725 N 165.169 0.14902 -7.01942 0
M  V30 1726 H 170.009 -1.17356 -2.73919 0
M  V30 1727 H 167.546 -0.590094 -1.34745 0
M  V30 1728 H 169.504 0.919517 -4.06941 0
M  V30 1729 H 168.134 1.24879 -2.97666 0
M  V30 1730 H 167.186 -1.076 -3.64865 0
M  V30 1731 H 168.498 -1.19909 -4.84173 0
M  V30 1732 H 167.652 0.847969 -6.00745 0
M  V30 1733 H 166.391 1.06062 -4.76027 0
M  V30 1734 H 165.396 -1.16102 -5.37401 0
M  V30 1735 H 166.621 -1.36097 -6.65323 0
M  V30 1736 H 164.567 0.877884 -6.50099 0
M  V30 1737 H 164.484 -0.504433 -7.54315 0
M  V30 1738 H 165.752 0.663537 -7.76671 0
M  V30 1739 N 169.982 1.44106 -0.638065 0
M  V30 1740 C 170.945 2.29138 0.0531013 0
M  V30 1741 C 171.945 1.41409 0.765506 0
M  V30 1742 O 173.135 1.63206 0.609046 0
M  V30 1743 C 170.267 3.23144 1.08584 0
M  V30 1744 H 171.46 2.91739 -0.694883 0
M  V30 1745 H 169.013 1.51134 -0.398538 0
M  V30 1746 H 169.748 2.65408 1.86357 0
M  V30 1747 H 169.533 3.87804 0.578852 0
M  V30 1748 H 171.023 3.87004 1.56899 0
M  V30 1749 N 171.46 0.379036 1.52974 0
M  V30 1750 C 172.709 -0.207612 2.00629 0
M  V30 1751 C 173.022 -1.48758 1.27006 0
M  V30 1752 O 174.228 -2.15365 1.65318 0
M  V30 1753 C 172.684 -0.42053 3.57435 0
M  V30 1754 C 172.292 0.845587 4.39948 0
M  V30 1755 C 174.036 -0.964102 4.13407 0
M  V30 1756 C 171.943 0.601513 5.88333 0
M  V30 1757 H 170.873 -0.0813591 0.749598 0
M  V30 1758 H 173.524 0.499853 1.76561 0
M  V30 1759 H 171.906 -1.18959 3.7771 0
M  V30 1760 H 173.08 1.61848 4.31442 0
M  V30 1761 H 171.395 1.31336 3.95145 0
M  V30 1762 H 173.992 -1.16225 5.21916 0
M  V30 1763 H 174.335 -1.93019 3.68849 0
M  V30 1764 H 174.868 -0.25487 3.96983 0
M  V30 1765 H 171.607 1.53831 6.37194 0
M  V30 1766 H 171.127 -0.132628 5.99653 0
M  V30 1767 H 172.806 0.232134 6.46583 0
M  V30 1768 N 172.938 -1.57226 0.108567 0
M  V30 1769 C 173.87 -2.11809 -0.875752 0
M  V30 1770 C 174.883 -1.05839 -1.23701 0
M  V30 1771 O 176.072 -1.33245 -1.18778 0
M  V30 1772 C 173.172 -2.59411 -2.18081 0
M  V30 1773 C 172.345 -3.89364 -1.99284 0
M  V30 1774 C 171.404 -4.22672 -3.13424 0
M  V30 1775 O 170.43 -4.91668 -2.86795 0
M  V30 1776 N 171.632 -3.79154 -4.3957 0
M  V30 1777 H 174.397 -2.9689 -0.409477 0
M  V30 1778 H 171.958 -1.61721 -0.076158 0
M  V30 1779 H 173.95 -2.7873 -2.93414 0
M  V30 1780 H 172.52 -1.79268 -2.5609 0
M  V30 1781 H 171.74 -3.79059 -1.08203 0
M  V30 1782 H 173.028 -4.74358 -1.84017 0
M  V30 1783 H 172.426 -3.23486 -4.64083 0
M  V30 1784 H 170.983 -4.03602 -5.11809 0
M  V30 1785 N 174.416 0.165178 -1.56732 0
M  V30 1786 C 175.665 0.879143 -1.81532 0
M  V30 1787 C 175.978 1.83144 -0.686842 0
M  V30 1788 O 177.184 2.58823 -0.819944 0
M  V30 1789 C 175.64 1.61388 -3.21686 0
M  V30 1790 C 175.248 0.704904 -4.4242 0
M  V30 1791 C 176.992 2.3157 -3.55774 0
M  V30 1792 C 174.899 1.44022 -5.73595 0
M  V30 1793 H 173.829 0.332033 -0.676957 0
M  V30 1794 H 176.48 0.132008 -1.83025 0
M  V30 1795 H 174.862 2.40599 -3.14529 0
M  V30 1796 H 176.036 -0.0506815 -4.60772 0
M  V30 1797 H 174.351 0.112419 -4.16248 0
M  V30 1798 H 176.948 2.8719 -4.51028 0
M  V30 1799 H 177.291 3.07201 -2.8095 0
M  V30 1800 H 177.824 1.59297 -3.64513 0
M  V30 1801 H 174.563 0.72612 -6.51466 0
M  V30 1802 H 174.083 2.16898 -5.5921 0
M  V30 1803 H 175.762 1.98606 -6.15764 0
M  V30 1804 N 175.894 1.51508 0.433938 0
M  V30 1805 C 177.142 1.6402 1.18075 0
M  V30 1806 C 177.463 0.360328 1.91642 0
M  V30 1807 O 176.733 -0.623945 1.85698 0
M  V30 1808 H 175.313 0.6045 0.43885 0
M  V30 1809 H 177.975 1.88452 0.497178 0
M  V30 1810 H 177.071 2.46949 1.90847 0
M  V30 1811 N 177.372 -0.689602 1.41712 0
M  V30 1812 C 178.319 -1.80345 1.44029 0
M  V30 1813 C 179.289 -1.63478 0.293948 0
M  V30 1814 O 180.474 -1.84244 0.495869 0
M  V30 1815 C 177.614 -3.18272 1.33405 0
M  V30 1816 C 176.727 -3.46529 2.57956 0
M  V30 1817 C 175.862 -4.74103 2.39582 0
M  V30 1818 C 174.901 -4.95347 3.5958 0
M  V30 1819 N 174.038 -6.14151 3.40239 0
M  V30 1820 H 178.878 -1.77698 2.39222 0
M  V30 1821 H 176.415 -0.867688 1.18784 0
M  V30 1822 H 178.373 -3.97956 1.25246 0
M  V30 1823 H 177.003 -3.2008 0.418164 0
M  V30 1824 H 176.055 -2.61207 2.76542 0
M  V30 1825 H 177.367 -3.58126 3.47199 0
M  V30 1826 H 176.521 -5.61853 2.28924 0
M  V30 1827 H 175.26 -4.64763 1.47805 0
M  V30 1828 H 174.265 -4.06044 3.70686 0
M  V30 1829 H 175.49 -5.06542 4.52318 0
M  V30 1830 H 173.436 -6.06013 2.51167 0
M  V30 1831 H 173.353 -6.26543 4.23061 0
M  V30 1832 H 174.621 -7.04619 3.33365 0
M  V30 1833 N 178.85 -1.27639 -0.924453 0
M  V30 1834 C 180.266 -1.05113 -1.20097 0
M  V30 1835 C 180.466 0.213262 -2.00368 0
M  V30 1836 O 179.522 0.91787 -2.35226 0
M  V30 1837 C 180.835 -2.29244 -1.94596 0
M  V30 1838 C 182.383 -2.34315 -2.07522 0
M  V30 1839 C 182.858 -3.58183 -2.85427 0
M  V30 1840 N 184.349 -3.5876 -2.92994 0
M  V30 1841 C 185.084 -4.51277 -3.53746 0
M  V30 1842 N 184.58 -5.54102 -4.15863 0
M  V30 1843 N 186.373 -4.38894 -3.51181 0
M  V30 1844 H 178.524 -2.08821 -0.388264 0
M  V30 1845 H 180.787 -0.918568 -0.234385 0
M  V30 1846 H 180.493 -3.21301 -1.43034 0
M  V30 1847 H 180.367 -2.34816 -2.95197 0
M  V30 1848 H 182.754 -1.42762 -2.58269 0
M  V30 1849 H 182.835 -2.32744 -1.06131 0
M  V30 1850 H 182.479 -4.50074 -2.35363 0
M  V30 1851 H 182.409 -3.57006 -3.8711 0
M  V30 1852 H 184.9 -2.84398 -2.4885 0
M  V30 1853 H 185.213 -6.20859 -4.60168 0
M  V30 1854 H 183.558 -5.57941 -4.144 0
M  V30 1855 H 186.749 -3.57772 -3.01856 0
M  V30 1856 H 186.922 -5.11186 -3.98237 0
M  V30 1857 N 180.328 1.1314 -1.09713 0
M  V30 1858 C 181.291 2.16831 -0.742751 0
M  V30 1859 C 182.291 1.59159 0.229129 0
M  V30 1860 O 183.481 1.74199 0.00693237 0
M  V30 1861 C 180.613 3.40756 -0.0989168 0
M  V30 1862 H 181.806 2.49695 -1.66109 0
M  V30 1863 H 179.359 1.2802 -0.896699 0
M  V30 1864 H 180.094 3.13485 0.830514 0
M  V30 1865 H 179.879 3.83888 -0.798265 0
M  V30 1866 H 181.369 4.17386 0.133524 0
M  V30 1867 N 181.806 0.884767 1.30421 0
M  V30 1868 C 183.034 0.518044 2.0031 0
M  V30 1869 C 183.449 -0.893408 1.66324 0
M  V30 1870 O 182.806 -1.5875 0.900262 0
M  V30 1871 C 182.857 0.682997 3.54989 0
M  V30 1872 O 182.578 2.03888 3.87764 0
M  V30 1873 C 184.079 0.31924 4.42149 0
M  V30 1874 H 181.299 0.200265 0.640418 0
M  V30 1875 H 183.843 1.19001 1.6631 0
M  V30 1876 H 181.998 0.0584052 3.87356 0
M  V30 1877 H 182.412 2.05735 4.82466 0
M  V30 1878 H 183.886 0.485555 5.4986 0
M  V30 1879 H 184.363 -0.742717 4.32875 0
M  V30 1880 H 184.969 0.920147 4.15227 0
M  V30 1881 N 183.284 -1.43765 0.645699 0
M  V30 1882 C 184.247 -2.29163 -0.0409488 0
M  V30 1883 C 185.247 -1.41813 -0.757996 0
M  V30 1884 O 186.437 -1.63527 -0.600382 0
M  V30 1885 C 183.569 -3.23716 -1.06869 0
M  V30 1886 H 184.762 -2.91366 0.710345 0
M  V30 1887 H 182.315 -1.5092 0.406547 0
M  V30 1888 H 183.05 -2.66393 -1.84947 0
M  V30 1889 H 182.835 -3.88105 -0.558277 0
M  V30 1890 H 184.325 -3.87831 -1.54845 0
M  V30 1891 N 184.763 -0.387143 -1.52771 0
M  V30 1892 C 185.711 0.463953 -2.27926 0
M  V30 1893 C 186.705 1.06493 -1.31741 0
M  V30 1894 O 187.911 1.00565 -1.49287 0
M  V30 1895 H 184.286 0.16837 -0.732909 0
M  V30 1896 H 186.257 -0.19141 -2.97785 0
M  V30 1897 C 185.006 1.5803 -3.09713 0
M  V30 1898 H 184.329 1.12718 -3.83581 0
M  V30 1899 H 185.769 2.15008 -3.65442 0
M  V30 1900 C 184.228 2.53509 -2.2189 0
M  V30 1901 O 184.758 3.56863 -1.84422 0
M  V30 1902 N 182.964 2.23199 -1.86093 0
M  V30 1903 H 182.511 1.39185 -2.16761 0
M  V30 1904 H 182.469 2.87333 -1.27621 0
M  V30 1905 N 186.241 1.57166 -0.116904 0
M  V30 1906 C 187.489 1.94737 0.540533 0
M  V30 1907 C 187.81 1.00096 1.67349 0
M  V30 1908 O 187.08 0.0568854 1.95817 0
M  V30 1909 H 185.66 0.718981 0.202669 0
M  V30 1910 H 188.322 1.94017 -0.185353 0
M  V30 1911 H 187.418 2.97719 0.936483 0
M  V30 1912 N 187.719 -0.156864 1.56817 0
M  V30 1913 C 188.652 -1.22316 1.9265 0
M  V30 1914 C 189.63 -1.42059 0.791076 0
M  V30 1915 O 190.814 -1.56831 1.04576 0
M  V30 1916 C 187.941 -2.58375 2.18998 0
M  V30 1917 C 186.987 -2.55284 3.41661 0
M  V30 1918 S 187.82 -2.02946 4.95553 0
M  V30 1919 C 188.976 -3.40753 5.25013 0
M  V30 1920 H 189.209 -0.917403 2.82791 0
M  V30 1921 H 186.742 -0.362059 1.50095 0
M  V30 1922 H 188.7 -3.36677 2.34859 0
M  V30 1923 H 187.361 -2.86145 1.29538 0
M  V30 1924 H 186.554 -3.55418 3.57343 0
M  V30 1925 H 186.156 -1.85086 3.24991 0
M  V30 1926 H 188.448 -4.36819 5.17876 0
M  V30 1927 H 189.391 -3.29933 6.26538 0
M  V30 1928 H 189.799 -3.37433 4.52548 0
M  V30 1929 N 189.197 -1.51736 -0.425897 0
M  V30 1930 C 190.144 -1.73875 -1.51776 0
M  V30 1931 C 191.114 -0.580702 -1.55618 0
M  V30 1932 O 192.299 -0.81641 -1.72451 0
M  V30 1933 C 189.439 -1.88012 -2.89388 0
M  V30 1934 C 188.552 -3.15606 -2.94986 0
M  V30 1935 C 187.687 -3.20271 -4.23793 0
M  V30 1936 C 186.726 -4.42134 -4.23302 0
M  V30 1937 N 185.863 -4.44284 -5.43651 0
M  V30 1938 H 190.703 -2.67071 -1.32201 0
M  V30 1939 H 188.24 -1.32351 -0.642008 0
M  V30 1940 H 190.198 -1.9419 -3.69251 0
M  V30 1941 H 188.828 -0.98213 -3.07496 0
M  V30 1942 H 187.88 -3.18681 -2.07717 0
M  V30 1943 H 189.192 -4.05486 -2.90486 0
M  V30 1944 H 188.346 -3.25428 -5.12036 0
M  V30 1945 H 187.085 -2.28299 -4.30965 0
M  V30 1946 H 186.09 -4.3714 -3.3345 0
M  V30 1947 H 187.315 -5.35382 -4.17783 0
M  V30 1948 H 185.261 -3.55188 -5.51523 0
M  V30 1949 H 185.178 -5.27988 -5.41078 0
M  V30 1950 H 186.446 -4.53649 -6.33895 0
M  V30 1951 N 190.675 0.682077 -1.42076 0
M  V30 1952 C 191.605 1.80796 -1.47767 0
M  V30 1953 C 192.586 1.6677 -0.334954 0
M  V30 1954 O 193.771 1.863 -0.548264 0
M  V30 1955 C 190.901 3.19038 -1.37229 0
M  V30 1956 C 189.855 3.47789 -2.49453 0
M  V30 1957 C 189.181 4.8553 -2.23975 0
M  V30 1958 C 190.481 3.45411 -3.91776 0
M  V30 1959 H 192.175 1.7629 -2.41997 0
M  V30 1960 H 189.721 0.846721 -1.16476 0
M  V30 1961 H 191.674 3.97528 -1.39821 0
M  V30 1962 H 190.398 3.24204 -0.394907 0
M  V30 1963 H 189.057 2.71657 -2.46166 0
M  V30 1964 H 188.705 4.87337 -1.24547 0
M  V30 1965 H 188.405 5.0573 -2.99184 0
M  V30 1966 H 189.929 5.66312 -2.28304 0
M  V30 1967 H 191.343 4.13882 -3.96705 0
M  V30 1968 H 189.74 3.77145 -4.66778 0
M  V30 1969 H 190.81 2.44122 -4.18966 0
M  V30 1970 N 192.153 1.28127 0.917671 0
M  V30 1971 C 193.083 1.14248 2.03641 0
M  V30 1972 C 194.064 0.0412748 1.7005 0
M  V30 1973 O 195.249 0.217566 1.92977 0
M  V30 1974 C 192.379 0.799431 3.37974 0
M  V30 1975 C 191.333 1.85497 3.85713 0
M  V30 1976 C 190.659 1.36565 5.16966 0
M  V30 1977 C 191.959 3.26085 4.08002 0
M  V30 1978 H 193.653 2.07835 2.15511 0
M  V30 1979 H 191.199 1.00064 1.03553 0
M  V30 1980 H 193.152 0.689114 4.15727 0
M  V30 1981 H 191.876 -0.172145 3.26146 0
M  V30 1982 H 190.535 1.95437 3.10161 0
M  V30 1983 H 190.183 0.383253 5.01538 0
M  V30 1984 H 189.883 2.07143 5.49878 0
M  V30 1985 H 191.407 1.26848 5.97279 0
M  V30 1986 H 192.821 3.19089 4.76293 0
M  V30 1987 H 191.218 3.94462 4.52238 0
M  V30 1988 H 192.288 3.70394 3.12948 0
M  V30 1989 N 193.631 -1.12557 1.10312 0
M  V30 1990 C 194.594 -2.16434 0.75424 0
M  V30 1991 C 195.594 -1.59278 -0.220685 0
M  V30 1992 O 196.784 -1.742 0.00230591 0
M  V30 1993 C 193.916 -3.40699 0.116987 0
M  V30 1994 H 195.109 -2.48811 1.67431 0
M  V30 1995 H 192.662 -1.27542 0.903475 0
M  V30 1996 H 193.397 -3.13921 -0.813877 0
M  V30 1997 H 193.182 -3.83459 0.818613 0
M  V30 1998 H 194.672 -4.17451 -0.111387 0
M  V30 1999 N 195.109 -0.891671 -1.2995 0
M  V30 2000 C 196.386 -0.433307 -1.9074 0
M  V30 2001 C 196.766 1.08646 -1.80995 0
M  V30 2002 O 196.114 1.92476 -1.23147 0
M  V30 2003 C 196.324 -0.938895 -3.36134 0
M  V30 2004 C 197.672 -0.977829 -4.13187 0
M  V30 2005 O 198.696 -0.886015 -3.45005 0
M  V30 2006 O 197.555 -1.11453 -5.35015 0
M  V30 2007 H 194.649 -0.133699 -0.816121 0
M  V30 2008 H 197.195 -0.981011 -1.38471 0
M  V30 2009 H 195.967 -1.98281 -3.37343 0
M  V30 2010 H 195.59 -0.37074 -3.95868 0
M  V30 2011 N 196.587 1.43421 -0.653314 0
M  V30 2012 C 197.834 2.01812 -0.166745 0
M  V30 2013 C 198.162 1.51535 1.21931 0
M  V30 2014 O 197.417 0.698975 1.82792 0
M  V30 2015 C 197.716 3.57176 -0.126623 0
M  V30 2016 C 197.382 4.26798 -1.45444 0
M  V30 2017 C 196.044 4.45534 -1.81805 0
M  V30 2018 C 198.396 4.66225 -2.32989 0
M  V30 2019 C 195.724 5.00961 -3.05377 0
M  V30 2020 C 198.076 5.23021 -3.55853 0
M  V30 2021 C 196.74 5.39973 -3.9241 0
M  V30 2022 H 196.01 0.738484 -0.0610162 0
M  V30 2023 H 198.657 1.71896 -0.84404 0
M  V30 2024 H 196.962 3.86634 0.634123 0
M  V30 2025 H 198.659 4.00112 0.266723 0
M  V30 2026 H 195.249 4.12561 -1.16153 0
M  V30 2027 H 199.433 4.51443 -2.06187 0
M  V30 2028 H 194.689 5.12271 -3.3375 0
M  V30 2029 H 198.863 5.52518 -4.23907 0
M  V30 2030 H 196.49 5.82687 -4.88242 0
M  V30 2031 N 198.065 0.39524 1.52563 0
M  V30 2032 C 199.015 -0.4541 2.23432 0
M  V30 2033 C 199.999 -1.02482 1.24042 0
M  V30 2034 O 201.191 -0.949938 1.49349 0
M  V30 2035 C 198.32 -1.57769 3.049 0
M  V30 2036 C 197.406 -1.01842 4.1169 0
M  V30 2037 N 197.797 -0.184613 5.05463 0
M  V30 2038 C 196.095 -1.29033 4.26927 0
M  V30 2039 C 196.796 0.125013 5.81566 0
M  V30 2040 N 195.772 -0.480498 5.41472 0
M  V30 2041 H 199.574 0.189413 2.93289 0
M  V30 2042 H 197.088 0.204877 1.61102 0
M  V30 2043 H 199.085 -2.19862 3.54212 0
M  V30 2044 H 197.745 -2.22397 2.36579 0
M  V30 2045 H 198.756 0.178602 5.17592 0
M  V30 2046 H 195.433 -1.93721 3.69836 0
M  V30 2047 H 196.823 0.800962 6.67109 0
M  V30 2048 N 199.544 -1.57102 0.125237 0
M  V30 2049 C 200.774 -1.99472 -0.538015 0
M  V30 2050 C 201.182 -1.00395 -1.60366 0
M  V30 2051 O 200.525 0.0103875 -1.83697 0
M  V30 2052 C 200.587 -3.38262 -1.21734 0
M  V30 2053 C 200.251 -4.56021 -0.298897 0
M  V30 2054 C 201.248 -5.17817 0.464943 0
M  V30 2055 C 198.933 -5.01869 -0.208149 0
M  V30 2056 C 200.927 -6.23852 1.3072 0
M  V30 2057 C 198.614 -6.07763 0.637736 0
M  V30 2058 C 199.612 -6.68622 1.39403 0
M  V30 2059 O 199.3 -7.7247 2.22586 0
M  V30 2060 H 199.032 -0.659934 -0.146501 0
M  V30 2061 H 201.586 -2.04321 0.210267 0
M  V30 2062 H 199.816 -3.30185 -2.01282 0
M  V30 2063 H 201.505 -3.6488 -1.77813 0
M  V30 2064 H 202.271 -4.83308 0.404741 0
M  V30 2065 H 198.15 -4.54241 -0.786522 0
M  V30 2066 H 201.694 -6.71284 1.898 0
M  V30 2067 H 197.591 -6.41701 0.699309 0
M  V30 2068 H 198.359 -7.89595 2.15596 0
M  V30 2069 N 201.022 0.148545 -1.56898 0
M  V30 2070 C 202.247 0.880385 -1.87787 0
M  V30 2071 C 202.672 1.74018 -0.714093 0
M  V30 2072 O 202.03 1.78153 0.336343 0
M  V30 2073 C 202.078 1.71422 -3.17249 0
M  V30 2074 O 201.182 2.8183 -3.01074 0
M  V30 2075 H 200.523 0.245301 -0.617028 0
M  V30 2076 H 203.053 0.139826 -2.04122 0
M  V30 2077 H 203.063 2.10954 -3.49231 0
M  V30 2078 H 201.738 1.08284 -4.01556 0
M  V30 2079 H 200.315 2.45715 -2.80497 0
M  V30 2080 N 202.5 1.5196 0.417844 0
M  V30 2081 C 203.777 1.56146 1.17803 0
M  V30 2082 C 204.157 0.337275 2.08388 0
M  V30 2083 O 203.505 -0.676447 2.18258 0
M  V30 2084 C 203.715 2.88566 1.96293 0
M  V30 2085 C 205.063 3.41244 2.52662 0
M  V30 2086 O 206.087 2.90247 2.06483 0
M  V30 2087 O 204.946 4.30273 3.36938 0
M  V30 2088 H 202.04 0.628598 0.537395 0
M  V30 2089 H 204.586 1.64283 0.425331 0
M  V30 2090 H 203.358 3.69116 1.2988 0
M  V30 2091 H 202.981 2.83681 2.78587 0
M  V30 2092 N 203.978 -0.674533 1.42435 0
M  V30 2093 C 205.225 -1.43459 1.42919 0
M  V30 2094 C 205.553 -1.94446 0.0457312 0
M  V30 2095 O 204.808 -1.7132 -0.94593 0
M  V30 2096 C 205.107 -2.64767 2.40069 0
M  V30 2097 C 204.773 -2.3232 3.86443 0
M  V30 2098 C 203.435 -2.23182 4.26314 0
M  V30 2099 C 205.787 -2.05977 4.78773 0
M  V30 2100 C 203.115 -1.85827 5.56494 0
M  V30 2101 C 205.467 -1.70125 6.09295 0
M  V30 2102 C 204.131 -1.59498 6.48164 0
M  V30 2103 H 203.401 -0.524952 0.522978 0
M  V30 2104 H 206.048 -0.769097 1.75377 0
M  V30 2105 H 204.353 -3.36349 2.00939 0
M  V30 2106 H 206.05 -3.22949 2.37707 0
M  V30 2107 H 202.64 -2.40334 3.54877 0
M  V30 2108 H 206.824 -2.11969 4.48757 0
M  V30 2109 H 202.08 -1.76168 5.8547 0
M  V30 2110 H 206.254 -1.48767 6.80324 0
M  V30 2111 H 203.881 -1.30322 7.48946 0
M  V30 2112 N 205.456 -1.28612 -0.910864 0
M  V30 2113 C 206.702 -1.17116 -1.66299 0
M  V30 2114 C 207.057 0.276917 -1.90397 0
M  V30 2115 O 206.35 1.19795 -1.49532 0
M  V30 2116 C 206.544 -1.90624 -3.0232 0
M  V30 2117 C 206.373 -3.42431 -2.91498 0
M  V30 2118 C 205.143 -4.11773 -2.92867 0
M  V30 2119 C 207.341 -4.38124 -2.69355 0
M  V30 2120 N 205.323 -5.50025 -2.72664 0
M  V30 2121 C 206.694 -5.63759 -2.58023 0
M  V30 2122 C 208.749 -4.28016 -2.54375 0
M  V30 2123 C 207.452 -6.80436 -2.33238 0
M  V30 2124 C 209.478 -5.44433 -2.30969 0
M  V30 2125 C 208.84 -6.69034 -2.20394 0
M  V30 2126 H 204.939 -0.483506 -0.61461 0
M  V30 2127 H 207.523 -1.62299 -1.0755 0
M  V30 2128 H 205.694 -1.4787 -3.5915 0
M  V30 2129 H 207.426 -1.71488 -3.66571 0
M  V30 2130 H 204.181 -3.63378 -3.03732 0
M  V30 2131 H 204.605 -6.22705 -2.65646 0
M  V30 2132 H 209.247 -3.32388 -2.613 0
M  V30 2133 H 206.965 -7.7613 -2.25051 0
M  V30 2134 H 210.551 -5.38504 -2.20238 0
M  V30 2135 H 209.431 -7.57595 -2.02531 0
M  V30 2136 N 206.934 1.1197 -1.10907 0
M  V30 2137 C 207.897 2.16031 -0.765707 0
M  V30 2138 C 208.897 1.59393 0.212235 0
M  V30 2139 O 210.087 1.74196 -0.0115441 0
M  V30 2140 C 207.219 3.40632 -0.135053 0
M  V30 2141 H 208.412 2.47919 -1.68748 0
M  V30 2142 H 205.965 1.27061 -0.910226 0
M  V30 2143 H 206.7 3.14348 0.797218 0
M  V30 2144 H 206.485 3.8302 -0.838937 0
M  V30 2145 H 207.975 4.17505 0.0892469 0
M  V30 2146 N 208.412 0.89855 1.29475 0
M  V30 2147 C 209.689 0.443416 1.90508 0
M  V30 2148 C 210.069 -1.07685 1.81569 0
M  V30 2149 O 209.417 -1.9182 1.24166 0
M  V30 2150 C 209.627 0.956708 3.35631 0
M  V30 2151 C 210.975 0.999728 4.12663 0
M  V30 2152 O 211.999 0.904299 3.4453 0
M  V30 2153 O 210.858 1.14289 5.34416 0
M  V30 2154 H 207.952 0.138025 0.815401 0
M  V30 2155 H 210.498 0.98834 1.37949 0
M  V30 2156 H 209.27 2.00067 3.36287 0
M  V30 2157 H 208.893 0.391728 3.95666 0
M  V30 2158 N 209.89 -1.43072 0.660911 0
M  V30 2159 C 211.301 -1.84932 0.256348 0
M  V30 2160 C 211.652 -1.55325 -1.19868 0
M  V30 2161 O 210.777 -1.00607 -1.91591 0
M  V30 2162 C 211.372 -3.35684 0.458475 0
M  V30 2163 C 209.931 -3.76245 0.108161 0
M  V30 2164 C 209.078 -2.66749 0.757641 0
M  V30 2165 H 212.029 -1.33116 0.864051 0
M  V30 2166 H 212.05 -3.79365 -0.293683 0
M  V30 2167 H 211.562 -3.572 1.51755 0
M  V30 2168 H 209.663 -3.60338 -0.948014 0
M  V30 2169 H 209.776 -4.76058 0.538992 0
M  V30 2170 H 208.14 -2.53989 0.190185 0
M  V30 2171 H 208.923 -2.91092 1.81989 0
M  V30 2172 N 211.368 -0.403325 -1.52352 0
M  V30 2173 C 212.331 0.413051 -2.25447 0
M  V30 2174 C 213.331 0.978513 -1.276 0
M  V30 2175 O 214.521 0.858305 -1.51587 0
M  V30 2176 C 211.653 1.58087 -3.02029 0
M  V30 2177 H 212.846 -0.227094 -2.99039 0
M  V30 2178 H 210.399 -0.155722 -1.55522 0
M  V30 2179 H 211.134 2.25804 -2.32772 0
M  V30 2180 H 210.919 1.18195 -3.73861 0
M  V30 2181 H 212.409 2.1585 -3.57489 0
M  V30 2182 N 212.846 1.57033 -0.133567 0
M  V30 2183 C 213.793 2.16074 0.811208 0
M  V30 2184 C 214.763 1.08979 1.2535 0
M  V30 2185 O 215.948 1.36958 1.32843 0
M  V30 2186 C 213.088 2.77595 2.05024 0
M  V30 2187 C 212.201 3.99042 1.65498 0
M  V30 2188 C 211.336 4.48603 2.84479 0
M  V30 2189 C 210.375 5.62547 2.41262 0
M  V30 2190 N 209.512 6.06787 3.53206 0
M  V30 2191 H 214.352 2.96477 0.300906 0
M  V30 2192 H 211.889 1.46462 0.136822 0
M  V30 2193 H 213.847 3.11402 2.77642 0
M  V30 2194 H 212.477 1.99859 2.53488 0
M  V30 2195 H 211.529 3.71302 0.826981 0
M  V30 2196 H 212.841 4.81629 1.29748 0
M  V30 2197 H 211.995 4.84395 3.65303 0
M  V30 2198 H 210.734 3.64995 3.23465 0
M  V30 2199 H 209.739 5.26345 1.58874 0
M  V30 2200 H 210.964 6.47931 2.03377 0
M  V30 2201 H 208.91 5.26117 3.91838 0
M  V30 2202 H 208.827 6.84266 3.21427 0
M  V30 2203 H 210.095 6.4722 4.34427 0
M  V30 2204 N 214.325 -0.140222 1.56975 0
M  V30 2205 C 215.257 -1.19818 1.95388 0
M  V30 2206 C 216.27 -1.38816 0.850525 0
M  V30 2207 O 217.459 -1.38267 1.12891 0
M  V30 2208 C 214.559 -2.56189 2.21857 0
M  V30 2209 C 213.732 -2.58077 3.5315 0
M  V30 2210 C 212.791 -3.76037 3.6808 0
M  V30 2211 O 211.817 -3.60598 4.40406 0
M  V30 2212 N 213.019 -4.93763 3.05251 0
M  V30 2213 H 215.784 -0.871609 2.86746 0
M  V30 2214 H 213.345 -0.32972 1.58507 0
M  V30 2215 H 215.337 -3.33623 2.2908 0
M  V30 2216 H 213.907 -2.81111 1.36731 0
M  V30 2217 H 213.127 -1.6651 3.57307 0
M  V30 2218 H 214.415 -2.56377 4.39486 0
M  V30 2219 H 213.813 -5.09209 2.46419 0
M  V30 2220 H 212.37 -5.68949 3.18026 0
M  V30 2221 N 215.803 -1.52179 -0.40978 0
M  V30 2222 C 216.75 -1.75475 -1.49924 0
M  V30 2223 C 217.72 -0.597175 -1.54994 0
M  V30 2224 O 218.905 -0.834655 -1.71575 0
M  V30 2225 C 216.045 -1.9107 -2.87378 0
M  V30 2226 C 215.158 -3.18717 -2.91622 0
M  V30 2227 C 214.293 -3.24747 -4.20372 0
M  V30 2228 C 213.332 -4.46598 -4.18588 0
M  V30 2229 N 212.469 -4.50025 -5.38908 0
M  V30 2230 H 217.309 -2.68458 -1.29361 0
M  V30 2231 H 214.846 -1.33024 -0.627934 0
M  V30 2232 H 216.804 -1.98096 -3.6717 0
M  V30 2233 H 215.434 -1.01469 -3.06437 0
M  V30 2234 H 214.486 -3.20866 -2.04326 0
M  V30 2235 H 215.798 -4.08544 -2.86169 0
M  V30 2236 H 214.952 -3.30841 -5.08556 0
M  V30 2237 H 213.691 -2.32857 -4.28519 0
M  V30 2238 H 212.696 -4.40652 -3.28794 0
M  V30 2239 H 213.921 -5.39783 -4.12081 0
M  V30 2240 H 211.867 -3.61017 -5.47725 0
M  V30 2241 H 211.784 -5.33697 -5.35447 0
M  V30 2242 H 213.052 -4.60347 -6.29048 0
M  V30 2243 N 217.281 0.66697 -1.42791 0
M  V30 2244 C 218.244 1.76211 -1.46568 0
M  V30 2245 C 219.244 1.56896 -0.352196 0
M  V30 2246 O 220.434 1.63044 -0.613364 0
M  V30 2247 C 217.566 3.14935 -1.30494 0
M  V30 2248 H 218.759 1.74247 -2.44086 0
M  V30 2249 H 216.312 0.877342 -1.29354 0
M  V30 2250 H 217.047 3.2252 -0.339301 0
M  V30 2251 H 216.832 3.30359 -2.11199 0
M  V30 2252 H 218.322 3.94821 -1.36038 0
M  V30 2253 N 218.759 1.29093 0.90403 0
M  V30 2254 C 220.17 1.15186 1.46932 0
M  V30 2255 C 220.521 -0.254587 1.94541 0
M  V30 2256 O 219.646 -1.14972 1.83332 0
M  V30 2257 C 220.241 2.08492 2.67051 0
M  V30 2258 C 218.8 1.98621 3.19729 0
M  V30 2259 C 217.947 1.9967 1.92425 0
M  V30 2260 H 220.898 1.41641 0.715789 0
M  V30 2261 H 220.919 1.65461 3.42641 0
M  V30 2262 H 220.431 3.10847 2.3237 0
M  V30 2263 H 218.532 0.993389 3.59114 0
M  V30 2264 H 218.645 2.86068 3.8432 0
M  V30 2265 H 217.009 1.44208 2.09943 0
M  V30 2266 H 217.792 3.03721 1.60026 0
M  V30 2267 N 220.237 -1.11381 1.11499 0
M  V30 2268 C 221.184 -2.17439 0.773887 0
M  V30 2269 C 222.154 -1.64132 -0.254899 0
M  V30 2270 O 223.339 -1.90345 -0.13168 0
M  V30 2271 C 220.479 -3.44373 0.223917 0
M  V30 2272 C 219.592 -4.1168 1.30934 0
M  V30 2273 C 218.727 -5.263 0.71984 0
M  V30 2274 C 217.766 -5.85493 1.78507 0
M  V30 2275 N 216.903 -6.91507 1.21502 0
M  V30 2276 H 221.743 -2.45962 1.68246 0
M  V30 2277 H 219.28 -1.20744 0.840191 0
M  V30 2278 H 221.238 -4.17047 -0.112921 0
M  V30 2279 H 219.868 -3.16232 -0.647851 0
M  V30 2280 H 218.92 -3.37073 1.76312 0
M  V30 2281 H 220.232 -4.51729 2.11524 0
M  V30 2282 H 219.386 -6.05785 0.333094 0
M  V30 2283 H 218.125 -4.87559 -0.117377 0
M  V30 2284 H 217.13 -5.04686 2.18111 0
M  V30 2285 H 218.355 -6.26301 2.62533 0
M  V30 2286 H 216.301 -6.54783 0.399455 0
M  V30 2287 H 216.218 -7.30214 1.95763 0
M  V30 2288 H 217.486 -7.74795 0.855181 0
M  V30 2289 N 221.715 -0.905404 -1.28997 0
M  V30 2290 C 222.678 -0.392253 -2.25819 0
M  V30 2291 C 223.678 0.476753 -1.5357 0
M  V30 2292 O 224.868 0.280994 -1.71919 0
M  V30 2293 C 222 0.438588 -3.38067 0
M  V30 2294 H 223.193 -1.24743 -2.72725 0
M  V30 2295 H 220.746 -0.684051 -1.40536 0
M  V30 2296 H 221.481 1.31352 -2.96508 0
M  V30 2297 H 221.266 -0.184167 -3.91667 0
M  V30 2298 H 222.756 0.78873 -4.10084 0
M  V30 2299 N 223.193 1.4272 -0.668489 0
M  V30 2300 C 224.439 2.02443 -0.197076 0
M  V30 2301 C 224.794 1.51882 1.18109 0
M  V30 2302 O 224.087 0.708618 1.78015 0
M  V30 2303 C 224.281 3.57021 -0.164499 0
M  V30 2304 C 224.11 4.22583 -1.53797 0
M  V30 2305 C 222.88 4.58019 -2.13416 0
M  V30 2306 C 225.078 4.50588 -2.47941 0
M  V30 2307 N 223.06 5.08729 -3.4361 0
M  V30 2308 C 224.431 5.02782 -3.62782 0
M  V30 2309 C 226.486 4.32571 -2.46551 0
M  V30 2310 C 225.189 5.38852 -4.76478 0
M  V30 2311 C 227.215 4.69713 -3.59338 0
M  V30 2312 C 226.577 5.22053 -4.72906 0
M  V30 2313 H 222.676 0.773214 -0.116894 0
M  V30 2314 H 225.26 1.73673 -0.880108 0
M  V30 2315 H 223.431 3.85323 0.487925 0
M  V30 2316 H 225.163 4.03439 0.319207 0
M  V30 2317 H 221.918 4.43566 -1.65969 0
M  V30 2318 H 222.342 5.38521 -4.10273 0
M  V30 2319 H 226.984 3.91365 -1.59978 0
M  V30 2320 H 224.702 5.78993 -5.63731 0
M  V30 2321 H 228.288 4.57454 -3.59482 0
M  V30 2322 H 227.168 5.50258 -5.58736 0
M  V30 2323 N 224.671 0.411399 1.52136 0
M  V30 2324 C 225.634 -0.401089 2.25663 0
M  V30 2325 C 226.634 -0.971732 1.28117 0
M  V30 2326 O 227.824 -0.850254 1.52041 0
M  V30 2327 C 224.956 -1.56483 3.02863 0
M  V30 2328 H 226.149 0.24295 2.98914 0
M  V30 2329 H 223.702 0.163968 1.55438 0
M  V30 2330 H 224.437 -2.24567 2.33967 0
M  V30 2331 H 224.222 -1.16211 3.74483 0
M  V30 2332 H 225.712 -2.13951 3.58629 0
M  V30 2333 N 226.149 -1.5696 0.141893 0
M  V30 2334 C 227.097 -2.17784 -0.816874 0
M  V30 2335 C 228.091 -1.1334 -1.25899 0
M  V30 2336 O 229.297 -1.316 -1.22806 0
M  V30 2337 H 225.672 -0.697278 -0.281615 0
M  V30 2338 H 227.643 -2.97087 -0.279621 0
M  V30 2339 C 226.392 -2.80983 -2.04802 0
M  V30 2340 H 225.715 -3.61062 -1.7168 0
M  V30 2341 H 227.155 -3.2705 -2.69841 0
M  V30 2342 C 225.614 -1.79228 -2.8527 0
M  V30 2343 O 226.144 -1.25962 -3.8144 0
M  V30 2344 N 224.35 -1.48647 -2.49704 0
M  V30 2345 H 223.897 -1.92155 -1.71564 0
M  V30 2346 H 223.855 -0.808115 -3.03837 0
M  V30 2347 N 227.627 0.131896 -1.57047 0
M  V30 2348 C 228.557 1.16384 -2.02428 0
M  V30 2349 C 229.538 1.43936 -0.90644 0
M  V30 2350 O 230.723 1.54599 -1.17528 0
M  V30 2351 C 227.853 2.49328 -2.4177 0
M  V30 2352 C 226.807 2.36266 -3.56879 0
M  V30 2353 C 226.133 3.74057 -3.8208 0
M  V30 2354 C 227.433 1.834 -4.89042 0
M  V30 2355 H 229.127 0.786433 -2.88887 0
M  V30 2356 H 226.673 0.376855 -1.38981 0
M  V30 2357 H 228.626 3.21759 -2.7212 0
M  V30 2358 H 227.35 2.88934 -1.52266 0
M  V30 2359 H 226.009 1.66286 -3.26718 0
M  V30 2360 H 225.657 4.11125 -2.89803 0
M  V30 2361 H 225.357 3.66174 -4.59554 0
M  V30 2362 H 226.881 4.48012 -4.1487 0
M  V30 2363 H 228.295 2.45636 -5.18011 0
M  V30 2364 H 226.692 1.8637 -5.70426 0
M  V30 2365 H 227.762 0.790662 -4.7841 0
M  V30 2366 N 229.106 1.52395 0.401703 0
M  V30 2367 C 230.054 1.7689 1.51039 0
M  V30 2368 C 231.048 0.636298 1.56996 0
M  V30 2369 O 232.254 0.818507 1.60314 0
M  V30 2370 H 228.629 0.559502 0.502456 0
M  V30 2371 H 230.6 2.69757 1.27568 0
M  V30 2372 C 229.349 1.94331 2.88324 0
M  V30 2373 H 228.672 2.80905 2.84486 0
M  V30 2374 H 230.112 2.15466 3.65172 0
M  V30 2375 C 228.571 0.712396 3.29282 0
M  V30 2376 O 229.101 -0.116218 4.01532 0
M  V30 2377 N 227.307 0.546154 2.85422 0
M  V30 2378 H 226.854 1.22156 2.26794 0
M  V30 2379 H 226.812 -0.276113 3.13185 0
M  V30 2380 N 230.584 -0.659388 1.43143 0
M  V30 2381 C 231.831 -1.41935 1.44433 0
M  V30 2382 C 232.159 -1.94387 0.0663522 0
M  V30 2383 O 231.414 -1.72314 -0.927706 0
M  V30 2384 C 231.713 -2.62206 2.42864 0
M  V30 2385 C 231.379 -2.28208 3.88886 0
M  V30 2386 C 230.041 -2.18647 4.28657 0
M  V30 2387 C 232.393 -2.00887 4.8093 0
M  V30 2388 C 229.721 -1.79914 5.58433 0
M  V30 2389 C 232.073 -1.63653 6.11065 0
M  V30 2390 C 230.737 -1.52614 6.49819 0
M  V30 2391 H 230.007 -0.519376 0.528517 0
M  V30 2392 H 232.654 -0.750453 1.76183 0
M  V30 2393 H 230.959 -3.34199 2.04495 0
M  V30 2394 H 232.656 -3.2041 2.41119 0
M  V30 2395 H 229.246 -2.36557 3.57406 0
M  V30 2396 H 233.43 -2.07198 4.5098 0
M  V30 2397 H 228.686 -1.69948 5.87305 0
M  V30 2398 H 232.86 -1.41543 6.81864 0
M  V30 2399 H 230.487 -1.22371 7.50286 0
M  V30 2400 N 232.062 -1.29571 -0.897171 0
M  V30 2401 C 232.972 -1.16808 -2.03453 0
M  V30 2402 C 233.988 -0.0907471 -1.73763 0
M  V30 2403 O 235.164 -0.303312 -1.99103 0
M  V30 2404 C 232.229 -0.848264 -3.36163 0
M  V30 2405 C 231.29 -2.0097 -3.79354 0
M  V30 2406 C 230.523 -1.70505 -5.05731 0
M  V30 2407 O 230.746 -0.62718 -5.66941 0
M  V30 2408 O 229.68 -2.5538 -5.45036 0
M  V30 2409 H 233.506 -2.12325 -2.17144 0
M  V30 2410 H 231.091 -1.09047 -1.02123 0
M  V30 2411 H 232.973 -0.684581 -4.15802 0
M  V30 2412 H 231.648 0.0771071 -3.23608 0
M  V30 2413 H 230.555 -2.22863 -3.00471 0
M  V30 2414 H 231.888 -2.91636 -3.96496 0
M  V30 2415 N 233.54 1.10788 -1.12088 0
M  V30 2416 C 234.817 1.79136 -0.785476 0
M  V30 2417 C 235.197 1.98246 0.725377 0
M  V30 2418 O 234.545 1.57258 1.65778 0
M  V30 2419 C 234.755 3.12375 -1.55636 0
M  V30 2420 C 236.103 3.8731 -1.74001 0
M  V30 2421 O 237.127 3.22085 -1.52117 0
M  V30 2422 O 235.986 5.04369 -2.10415 0
M  V30 2423 H 233.08 0.776226 -0.285311 0
M  V30 2424 H 235.626 1.1747 -1.2247 0
M  V30 2425 H 234.398 2.93863 -2.5838 0
M  V30 2426 H 234.021 3.81758 -1.11114 0
M  V30 2427 N 235.018 0.912232 1.28515 0
M  V30 2428 C 235.965 0.397954 2.27343 0
M  V30 2429 C 236.935 -0.526766 1.57526 0
M  V30 2430 O 238.12 -0.449292 1.85435 0
M  V30 2431 C 235.26 -0.357263 3.43246 0
M  V30 2432 C 234.373 0.599788 4.27816 0
M  V30 2433 C 233.508 -0.173725 5.30916 0
M  V30 2434 C 232.547 0.777039 6.07148 0
M  V30 2435 N 231.684 0.0371398 7.0209 0
M  V30 2436 H 236.524 1.24577 2.70711 0
M  V30 2437 H 234.061 0.625612 1.33133 0
M  V30 2438 H 236.019 -0.8113 4.09236 0
M  V30 2439 H 234.649 -1.16943 3.00872 0
M  V30 2440 H 233.701 1.17235 3.61884 0
M  V30 2441 H 235.013 1.32704 4.80823 0
M  V30 2442 H 234.167 -0.688394 6.02782 0
M  V30 2443 H 232.906 -0.934041 4.78672 0
M  V30 2444 H 231.911 1.3031 5.34134 0
M  V30 2445 H 233.136 1.53689 6.61481 0
M  V30 2446 H 231.082 -0.705213 6.52198 0
M  V30 2447 H 230.999 0.704249 7.52713 0
M  V30 2448 H 232.267 -0.457383 7.78157 0
M  V30 2449 N 236.496 -1.42363 0.676048 0
M  V30 2450 C 237.443 -2.308 -0.00150904 0
M  V30 2451 C 238.413 -1.46032 -0.791444 0
M  V30 2452 O 239.598 -1.74861 -0.76344 0
M  V30 2453 C 236.738 -3.31883 -0.945919 0
M  V30 2454 C 235.851 -4.31741 -0.149675 0
M  V30 2455 C 234.986 -5.19898 -1.08995 0
M  V30 2456 C 234.025 -6.11434 -0.285465 0
M  V30 2457 N 233.162 -6.92138 -1.17851 0
M  V30 2458 H 238.002 -2.88187 0.758455 0
M  V30 2459 H 235.539 -1.41952 0.38576 0
M  V30 2460 H 237.497 -3.89019 -1.50731 0
M  V30 2461 H 236.127 -2.76093 -1.6725 0
M  V30 2462 H 235.179 -3.76713 0.528359 0
M  V30 2463 H 236.491 -4.96534 0.474866 0
M  V30 2464 H 235.645 -5.81772 -1.72123 0
M  V30 2465 H 234.384 -4.55284 -1.74837 0
M  V30 2466 H 233.389 -5.48627 0.359018 0
M  V30 2467 H 234.614 -6.78097 0.368883 0
M  V30 2468 H 232.56 -6.30152 -1.82332 0
M  V30 2469 H 232.477 -7.53542 -0.609082 0
M  V30 2470 H 233.745 -7.58499 -1.79722 0
M  V30 2471 N 237.974 -0.419461 -1.51915 0
M  V30 2472 C 239.202 0.152136 -2.0634 0
M  V30 2473 C 239.617 1.37988 -1.28859 0
M  V30 2474 O 238.974 1.79243 -0.343232 0
M  V30 2475 C 239.025 0.492266 -3.58133 0
M  V30 2476 O 238.746 -0.686736 -4.32684 0
M  V30 2477 C 240.247 1.11648 -4.2901 0
M  V30 2478 H 237.467 0.0158325 -0.670813 0
M  V30 2479 H 240.011 -0.593394 -1.95702 0
M  V30 2480 H 238.166 1.18769 -3.68745 0
M  V30 2481 H 238.58 -0.400341 -5.2297 0
M  V30 2482 H 240.054 1.3046 -5.36362 0
M  V30 2483 H 240.531 2.09251 -3.86148 0
M  V30 2484 H 241.137 0.460958 -4.22795 0
M  V30 2485 N 239.452 1.56882 -0.150215 0
M  V30 2486 C 240.415 2.1573 0.774157 0
M  V30 2487 C 241.415 1.0999 1.17298 0
M  V30 2488 O 242.605 1.35613 1.09338 0
M  V30 2489 C 239.737 2.72302 2.05096 0
M  V30 2490 H 240.93 2.98752 0.262201 0
M  V30 2491 H 238.483 1.55985 0.099248 0
M  V30 2492 H 239.218 1.92956 2.6065 0
M  V30 2493 H 239.003 3.49665 1.77416 0
M  V30 2494 H 240.493 3.17632 2.71109 0
M  V30 2495 N 240.93 -0.123565 1.57115 0
M  V30 2496 C 241.86 -1.15309 2.03042 0
M  V30 2497 C 242.841 -1.43454 0.914061 0
M  V30 2498 O 244.026 -1.53973 1.18347 0
M  V30 2499 C 241.156 -2.48043 2.43089 0
M  V30 2500 C 240.11 -2.3437 3.58127 0
M  V30 2501 C 239.436 -3.72026 3.84059 0
M  V30 2502 C 240.736 -1.80804 4.90007 0
M  V30 2503 H 242.43 -0.771102 2.893 0
M  V30 2504 H 239.976 -0.369479 1.39179 0
M  V30 2505 H 241.929 -3.20311 2.73823 0
M  V30 2506 H 240.653 -2.88122 1.53796 0
M  V30 2507 H 239.312 -1.64551 3.27595 0
M  V30 2508 H 238.96 -4.09582 2.91979 0
M  V30 2509 H 238.66 -3.63732 4.6149 0
M  V30 2510 H 240.184 -4.45806 4.1724 0
M  V30 2511 H 241.598 -2.42886 5.19307 0
M  V30 2512 H 239.995 -1.83343 5.71407 0
M  V30 2513 H 241.065 -0.76528 4.78823 0
M  V30 2514 N 242.408 -1.52605 -0.393616 0
M  V30 2515 C 243.638 -1.71046 -1.15874 0
M  V30 2516 C 244.046 -0.426483 -1.84331 0
M  V30 2517 O 243.389 0.608513 -1.73329 0
M  V30 2518 C 243.451 -2.80118 -2.25332 0
M  V30 2519 C 243.115 -4.21381 -1.76881 0
M  V30 2520 C 244.112 -5.04697 -1.24808 0
M  V30 2521 C 241.797 -4.67683 -1.83244 0
M  V30 2522 C 243.791 -6.32393 -0.797387 0
M  V30 2523 C 241.478 -5.95364 -1.37787 0
M  V30 2524 C 242.476 -6.77549 -0.861208 0
M  V30 2525 O 242.164 -8.02837 -0.413252 0
M  V30 2526 H 241.896 -0.576155 -0.353583 0
M  V30 2527 H 244.45 -2.00018 -0.467123 0
M  V30 2528 H 242.68 -2.46557 -2.97904 0
M  V30 2529 H 244.369 -2.87006 -2.87023 0
M  V30 2530 H 245.135 -4.70111 -1.19252 0
M  V30 2531 H 241.014 -4.03805 -2.22401 0
M  V30 2532 H 244.558 -6.9649 -0.393437 0
M  V30 2533 H 240.455 -6.29455 -1.43026 0
M  V30 2534 H 241.223 -8.16749 -0.53515 0
M  V30 2535 N 243.887 0.651787 -1.4349 0
M  V30 2536 C 244.819 1.77725 -1.44729 0
M  V30 2537 C 245.832 1.59141 -0.343231 0
M  V30 2538 O 247.021 1.67835 -0.607751 0
M  V30 2539 C 244.121 3.15172 -1.24579 0
M  V30 2540 C 243.294 3.60402 -2.47849 0
M  V30 2541 C 242.353 4.76656 -2.22902 0
M  V30 2542 O 241.379 4.86022 -2.96263 0
M  V30 2543 N 242.581 5.66958 -1.24656 0
M  V30 2544 H 245.346 1.77141 -2.41746 0
M  V30 2545 H 242.907 0.835678 -1.38665 0
M  V30 2546 H 244.899 3.90634 -1.0577 0
M  V30 2547 H 243.469 3.1052 -0.360015 0
M  V30 2548 H 242.689 2.75369 -2.82073 0
M  V30 2549 H 243.977 3.87368 -3.29884 0
M  V30 2550 H 243.375 5.62065 -0.640265 0
M  V30 2551 H 241.932 6.42135 -1.1183 0
M  V30 2552 N 245.365 1.30045 0.890287 0
M  V30 2553 C 246.595 1.21296 1.67245 0
M  V30 2554 C 247.003 -0.227471 1.87828 0
M  V30 2555 O 246.346 -1.16296 1.422 0
M  V30 2556 C 246.408 1.86519 3.07329 0
M  V30 2557 C 246.072 3.35837 3.09939 0
M  V30 2558 C 247.069 4.31915 2.89389 0
M  V30 2559 C 244.754 3.77196 3.31706 0
M  V30 2560 C 246.748 5.67325 2.90552 0
M  V30 2561 C 244.435 5.12725 3.32499 0
M  V30 2562 C 245.433 6.076 3.11947 0
M  V30 2563 O 245.121 7.40655 3.12547 0
M  V30 2564 H 244.853 0.4211 0.528821 0
M  V30 2565 H 247.407 1.72111 1.12103 0
M  V30 2566 H 245.637 1.30228 3.64112 0
M  V30 2567 H 247.326 1.71963 3.67673 0
M  V30 2568 H 248.092 4.01294 2.72375 0
M  V30 2569 H 243.971 3.03796 3.4674 0
M  V30 2570 H 247.515 6.41354 2.74429 0
M  V30 2571 H 243.412 5.42988 3.49047 0
M  V30 2572 H 244.18 7.49577 3.28749 0
M  V30 2573 N 246.843 -1.10192 1.12674 0
M  V30 2574 C 248.071 -1.85983 0.906527 0
M  V30 2575 C 248.486 -1.80783 -0.544333 0
M  V30 2576 O 247.843 -1.19834 -1.37645 0
M  V30 2577 C 247.894 -3.34281 1.37618 0
M  V30 2578 O 247.615 -3.39401 2.77017 0
M  V30 2579 C 249.116 -4.26938 1.19325 0
M  V30 2580 H 246.336 -0.587716 0.323775 0
M  V30 2581 H 248.88 -1.39284 1.49734 0
M  V30 2582 H 247.035 -3.78436 0.828539 0
M  V30 2583 H 247.449 -4.31838 2.97684 0
M  V30 2584 H 248.923 -5.29181 1.57071 0
M  V30 2585 H 249.4 -4.38995 0.134097 0
M  V30 2586 H 250.006 -3.8859 1.72852 0
M  V30 2587 N 248.321 -0.919034 -1.28029 0
M  V30 2588 C 249.268 -0.410005 -2.27129 0
M  V30 2589 C 250.238 0.518405 -1.57803 0
M  V30 2590 O 251.423 0.439451 -1.8567 0
M  V30 2591 C 248.563 0.339054 -3.4343 0
M  V30 2592 C 247.676 -0.622468 -4.27492 0
M  V30 2593 C 246.811 0.145567 -5.31001 0
M  V30 2594 C 245.85 -0.809226 -6.06727 0
M  V30 2595 N 244.987 -0.0743728 -7.02061 0
M  V30 2596 H 249.827 -1.26011 -2.70047 0
M  V30 2597 H 247.364 -0.632663 -1.328 0
M  V30 2598 H 249.322 0.789586 -4.0966 0
M  V30 2599 H 247.952 1.15346 -3.01488 0
M  V30 2600 H 247.004 -1.19153 -3.61257 0
M  V30 2601 H 248.316 -1.35252 -4.80113 0
M  V30 2602 H 247.47 0.656417 -6.03139 0
M  V30 2603 H 246.209 0.908643 -4.79161 0
M  V30 2604 H 245.214 -1.3314 -5.33436 0
M  V30 2605 H 246.439 -1.57194 -6.60656 0
M  V30 2606 H 244.385 0.670616 -6.52563 0
M  V30 2607 H 244.302 -0.744157 -7.52329 0
M  V30 2608 H 245.57 0.416109 -7.78389 0
M  V30 2609 N 249.799 1.42003 -0.683588 0
M  V30 2610 C 250.731 2.29183 0.0283068 0
M  V30 2611 C 251.744 1.4415 0.756611 0
M  V30 2612 O 252.933 1.67779 0.609306 0
M  V30 2613 C 250.033 3.21765 1.06398 0
M  V30 2614 C 249.206 4.35496 0.407723 0
M  V30 2615 C 248.265 5.08737 1.34437 0
M  V30 2616 O 247.291 5.62948 0.841318 0
M  V30 2617 N 248.493 5.15075 2.67728 0
M  V30 2618 H 251.258 2.9092 -0.720105 0
M  V30 2619 H 248.819 1.53025 -0.528682 0
M  V30 2620 H 250.811 3.6763 1.69204 0
M  V30 2621 H 249.381 2.61418 1.71404 0
M  V30 2622 H 248.601 3.92165 -0.400012 0
M  V30 2623 H 249.889 5.08776 -0.0490956 0
M  V30 2624 H 249.287 4.72457 3.11129 0
M  V30 2625 H 247.844 5.64556 3.2576 0
M  V30 2626 N 251.277 0.427512 1.51691 0
M  V30 2627 C 252.502 -0.143601 2.06902 0
M  V30 2628 C 252.927 -1.36536 1.29382 0
M  V30 2629 O 252.285 -1.78289 0.329043 0
M  V30 2630 C 252.333 -0.454207 3.57728 0
M  V30 2631 O 251.437 -1.54228 3.82475 0
M  V30 2632 H 250.778 -0.00617128 0.663971 0
M  V30 2633 H 253.308 0.606014 1.95419 0
M  V30 2634 H 253.318 -0.707525 4.01818 0
M  V30 2635 H 251.993 0.438812 4.13579 0
M  V30 2636 H 250.57 -1.2797 3.50254 0
M  V30 2637 N 252.755 -1.56801 0.158532 0
M  V30 2638 C 253.685 -2.20347 -0.772609 0
M  V30 2639 C 254.666 -1.15518 -1.24859 0
M  V30 2640 O 255.851 -1.43902 -1.30406 0
M  V30 2641 C 252.981 -2.83417 -2.00729 0
M  V30 2642 C 251.935 -3.94174 -1.66765 0
M  V30 2643 C 251.261 -4.44233 -2.97592 0
M  V30 2644 C 252.561 -5.14392 -0.905447 0
M  V30 2645 H 254.255 -2.98413 -0.242959 0
M  V30 2646 H 251.801 -1.43537 -0.115419 0
M  V30 2647 H 253.754 -3.26543 -2.6636 0
M  V30 2648 H 252.478 -2.02701 -2.56086 0
M  V30 2649 H 251.137 -3.51684 -1.03508 0
M  V30 2650 H 250.785 -3.60325 -3.50963 0
M  V30 2651 H 250.485 -5.18945 -2.75626 0
M  V30 2652 H 252.009 -4.90037 -3.64274 0
M  V30 2653 H 253.423 -5.5429 -1.46408 0
M  V30 2654 H 251.82 -5.9494 -0.7853 0
M  V30 2655 H 252.89 -4.84795 0.100668 0
M  V30 2656 N 254.233 0.115231 -1.57178 0
M  V30 2657 C 255.18 1.14115 -2.00615 0
M  V30 2658 C 256.15 1.40939 -0.878941 0
M  V30 2659 O 257.335 1.52741 -1.14345 0
M  V30 2660 C 254.475 2.46156 -2.4187 0
M  V30 2661 C 253.588 2.26236 -3.68024 0
M  V30 2662 C 252.723 3.51534 -3.98243 0
M  V30 2663 C 251.762 3.26787 -5.17568 0
M  V30 2664 N 250.899 4.44298 -5.43639 0
M  V30 2665 H 255.739 0.763743 -2.88047 0
M  V30 2666 H 253.276 0.365615 -1.42484 0
M  V30 2667 H 255.234 3.23189 -2.63827 0
M  V30 2668 H 253.864 2.81783 -1.57475 0
M  V30 2669 H 252.916 1.40102 -3.5366 0
M  V30 2670 H 254.228 2.03929 -4.55208 0
M  V30 2671 H 253.382 4.36984 -4.20868 0
M  V30 2672 H 252.121 3.76876 -3.09541 0
M  V30 2673 H 251.126 2.39729 -4.94783 0
M  V30 2674 H 252.351 3.02812 -6.0785 0
M  V30 2675 H 250.297 4.69754 -4.57895 0
M  V30 2676 H 250.214 4.25109 -6.25154 0
M  V30 2677 H 251.482 5.3087 -5.70786 0
M  V30 2678 N 255.711 1.52812 0.385517 0
M  V30 2679 C 256.674 1.77188 1.45386 0
M  V30 2680 C 257.674 0.641953 1.4743 0
M  V30 2681 O 258.864 0.910033 1.4854 0
M  V30 2682 C 255.996 1.87582 2.8465 0
M  V30 2683 H 257.189 2.72583 1.25054 0
M  V30 2684 H 254.742 1.43586 0.617467 0
M  V30 2685 H 255.477 0.941849 3.10322 0
M  V30 2686 H 255.262 2.69748 2.84567 0
M  V30 2687 H 256.752 2.08102 3.62054 0
M  V30 2688 N 257.189 -0.644168 1.43834 0
M  V30 2689 C 258.122 -1.76906 1.44151 0
M  V30 2690 C 259.1 -1.59774 0.301857 0
M  V30 2691 O 260.284 -1.81834 0.496841 0
M  V30 2692 C 257.411 -3.14321 1.26174 0
M  V30 2693 C 256.457 -3.50134 2.43533 0
M  V30 2694 S 257.29 -3.49085 4.06079 0
M  V30 2695 C 258.446 -4.89142 3.90501 0
M  V30 2696 H 258.679 -1.76368 2.39336 0
M  V30 2697 H 256.212 -0.817624 1.30974 0
M  V30 2698 H 258.17 -3.93625 1.16489 0
M  V30 2699 H 256.831 -3.12412 0.325224 0
M  V30 2700 H 256.024 -4.50095 2.26783 0
M  V30 2701 H 255.626 -2.78264 2.4989 0
M  V30 2702 H 257.918 -5.78036 3.53385 0
M  V30 2703 H 258.861 -5.10945 4.90246 0
M  V30 2704 H 259.269 -4.63102 3.22795 0
M  V30 2705 N 258.668 -1.30515 -0.883378 0
M  V30 2706 C 259.615 -1.17032 -1.98927 0
M  V30 2707 C 260.585 -0.0594241 -1.65994 0
M  V30 2708 O 261.77 -0.229895 -1.8941 0
M  V30 2709 C 258.91 -0.869777 -3.33959 0
M  V30 2710 C 258.023 -2.06271 -3.79574 0
M  V30 2711 C 257.158 -1.70011 -5.03259 0
M  V30 2712 C 256.197 -2.8579 -5.41286 0
M  V30 2713 N 255.334 -2.49816 -6.56153 0
M  V30 2714 H 260.174 -2.1164 -2.09792 0
M  V30 2715 H 257.711 -1.05296 -1.02719 0
M  V30 2716 H 259.669 -0.676138 -4.11685 0
M  V30 2717 H 258.299 0.0394332 -3.22776 0
M  V30 2718 H 257.351 -2.36755 -2.97744 0
M  V30 2719 H 258.663 -2.92971 -4.03694 0
M  V30 2720 H 257.817 -1.47032 -5.88614 0
M  V30 2721 H 256.556 -0.804829 -4.81013 0
M  V30 2722 H 255.561 -3.09434 -4.54456 0
M  V30 2723 H 256.786 -3.76008 -5.65504 0
M  V30 2724 H 254.732 -1.62795 -6.35479 0
M  V30 2725 H 254.649 -3.30048 -6.8015 0
M  V30 2726 H 255.917 -2.30197 -7.44735 0
M  V30 2727 N 260.146 1.09593 -1.13257 0
M  V30 2728 C 261.109 2.14359 -0.811358 0
M  V30 2729 C 262.109 1.59808 0.178377 0
M  V30 2730 O 263.299 1.74132 -0.0484911 0
M  V30 2731 C 260.431 3.40269 -0.207276 0
M  V30 2732 H 261.624 2.44284 -1.73969 0
M  V30 2733 H 259.177 1.25102 -0.936973 0
M  V30 2734 H 259.912 3.15969 0.73036 0
M  V30 2735 H 259.697 3.81154 -0.919992 0
M  V30 2736 H 261.187 4.176 0.000667944 0
M  V30 2737 N 261.624 0.925811 1.2754 0
M  V30 2738 C 262.587 0.428129 2.25166 0
M  V30 2739 C 263.587 -0.452261 1.54309 0
M  V30 2740 O 264.777 -0.253608 1.72344 0
M  V30 2741 C 261.909 -0.384749 3.38722 0
M  V30 2742 H 263.102 1.29066 2.70706 0
M  V30 2743 H 260.655 0.706323 1.3943 0
M  V30 2744 H 261.39 -1.26618 2.98561 0
M  V30 2745 H 261.175 0.246454 3.91325 0
M  V30 2746 H 262.665 -0.723389 4.11287 0
M  V30 2747 N 263.102 -1.41638 0.69111 0
M  V30 2748 C 264.35 -2.00902 0.219758 0
M  V30 2749 C 264.671 -1.54994 -1.18329 0
M  V30 2750 O 263.941 -0.778628 -1.79762 0
M  V30 2751 H 262.521 -0.74289 0.0782558 0
M  V30 2752 H 265.183 -1.73327 0.891271 0
M  V30 2753 H 264.279 -3.11224 0.233708 0
M  V30 2754 N 264.58 -0.43555 -1.51462 0
M  V30 2755 C 265.829 0.133007 -2.01261 0
M  V30 2756 C 266.142 1.43942 -1.32439 0
M  V30 2757 O 267.348 2.09081 -1.73198 0
M  V30 2758 C 265.804 0.287581 -3.58749 0
M  V30 2759 C 265.412 -1.00829 -4.36506 0
M  V30 2760 C 267.156 0.810004 -4.167 0
M  V30 2761 C 265.063 -0.819454 -5.85695 0
M  V30 2762 H 263.993 0.0534822 -0.752101 0
M  V30 2763 H 266.644 -0.565038 -1.74584 0
M  V30 2764 H 265.026 1.04859 -3.81865 0
M  V30 2765 H 266.2 -1.77749 -4.25138 0
M  V30 2766 H 264.515 -1.45911 -3.89999 0
M  V30 2767 H 267.112 0.967743 -5.2587 0
M  V30 2768 H 267.455 1.79196 -3.75758 0
M  V30 2769 H 267.988 0.107357 -3.97655 0
M  V30 2770 H 264.727 -1.77374 -6.31046 0
M  V30 2771 H 264.247 -0.0900208 -5.99732 0
M  V30 2772 H 265.926 -0.471949 -6.45276 0
M  V30 2773 N 266.058 1.56714 -0.166846 0
M  V30 2774 C 267.335 1.88412 0.525373 0
M  V30 2775 C 267.715 1.07602 1.81618 0
M  V30 2776 O 267.063 0.168621 2.27877 0
M  V30 2777 C 267.273 3.40363 0.771613 0
M  V30 2778 C 268.621 4.10007 1.1036 0
M  V30 2779 O 269.645 3.45655 0.860304 0
M  V30 2780 O 268.504 5.2369 1.56239 0
M  V30 2781 H 265.598 0.781587 0.270278 0
M  V30 2782 H 268.144 1.68458 -0.204946 0
M  V30 2783 H 266.916 3.91046 -0.141093 0
M  V30 2784 H 266.539 3.65914 1.55541 0
M  V30 2785 N 267.536 -0.106894 1.57237 0
M  V30 2786 C 268.785 -0.811163 1.8467 0
M  V30 2787 C 269.098 -1.80469 0.754342 0
M  V30 2788 O 270.304 -2.55601 0.915439 0
M  V30 2789 C 268.76 -1.49337 3.27454 0
M  V30 2790 C 268.368 -0.540217 4.44731 0
M  V30 2791 C 270.112 -2.18206 3.64124 0
M  V30 2792 C 268.019 -1.22634 5.78545 0
M  V30 2793 H 266.949 -0.306679 0.688813 0
M  V30 2794 H 269.6 -0.0639887 1.83388 0
M  V30 2795 H 267.982 -2.2876 3.23241 0
M  V30 2796 H 269.156 0.221659 4.60267 0
M  V30 2797 H 267.471 0.042146 4.16379 0
M  V30 2798 H 270.068 -2.70253 4.61376 0
M  V30 2799 H 270.411 -2.96562 2.92158 0
M  V30 2800 H 270.944 -1.45658 3.70174 0
M  V30 2801 H 267.683 -0.483832 6.53712 0
M  V30 2802 H 267.203 -1.95993 5.66874 0
M  V30 2803 H 268.882 -1.75615 6.2271 0
M  V30 2804 N 269.014 -1.53014 -0.377408 0
M  V30 2805 C 270.262 -1.6829 -1.11906 0
M  V30 2806 C 270.583 -0.431206 -1.90173 0
M  V30 2807 O 269.853 0.554595 -1.87886 0
M  V30 2808 H 268.433 -0.620371 -0.416112 0
M  V30 2809 H 271.095 -1.90167 -0.426893 0
M  V30 2810 H 270.191 -2.53862 -1.8155 0
M  V30 2811 N 270.492 0.636531 -1.44174 0
M  V30 2812 C 271.425 1.76139 -1.45087 0
M  V30 2813 C 272.403 1.59611 -0.310326 0
M  V30 2814 O 273.587 1.81568 -0.506477 0
M  V30 2815 C 270.714 3.13648 -1.27839 0
M  V30 2816 C 269.76 3.48838 -2.45386 0
M  V30 2817 S 270.593 3.46927 -4.07924 0
M  V30 2818 C 271.749 4.87064 -3.9309 0
M  V30 2819 H 271.982 1.75096 -2.40268 0
M  V30 2820 H 269.515 0.810666 -1.31406 0
M  V30 2821 H 271.473 3.93002 -1.18575 0
M  V30 2822 H 270.134 3.12235 -0.341787 0
M  V30 2823 H 269.327 4.48886 -2.29167 0
M  V30 2824 H 268.929 2.76935 -2.51362 0
M  V30 2825 H 271.221 5.76153 -3.56446 0
M  V30 2826 H 272.164 5.08337 -4.92949 0
M  V30 2827 H 272.572 4.61384 -3.25246 0
M  V30 2828 N 271.97 1.30982 0.876444 0
M  V30 2829 C 273.216 1.20474 1.63138 0
M  V30 2830 C 273.549 -0.238096 1.92735 0
M  V30 2831 O 272.824 -1.1692 1.55435 0
M  V30 2832 C 273.107 2.04244 2.96574 0
M  V30 2833 C 272.96 3.56793 2.73896 0
M  V30 2834 C 274.279 1.88684 3.97601 0
M  V30 2835 H 271.398 0.439001 0.591985 0
M  V30 2836 H 274.04 1.60704 1.01361 0
M  V30 2837 H 272.19 1.70063 3.493 0
M  V30 2838 H 273.862 4.01077 2.27892 0
M  V30 2839 H 272.105 3.80548 2.08245 0
M  V30 2840 H 272.776 4.10706 3.68815 0
M  V30 2841 H 275.252 2.18584 3.54062 0
M  V30 2842 H 274.128 2.4961 4.88862 0
M  V30 2843 H 274.389 0.848343 4.33884 0
M  V30 2844 N 273.449 -1.08991 1.13837 0
M  V30 2845 C 274.381 -2.15606 0.777612 0
M  V30 2846 C 275.394 -1.61533 -0.202739 0
M  V30 2847 O 276.583 -1.78491 0.0181055 0
M  V30 2848 C 273.683 -3.3864 0.132623 0
M  V30 2849 C 272.856 -4.22115 1.1462 0
M  V30 2850 C 271.915 -5.23564 0.526074 0
M  V30 2851 O 270.941 -5.56678 1.18735 0
M  V30 2852 N 272.143 -5.76266 -0.699866 0
M  V30 2853 H 274.908 -2.47159 1.69506 0
M  V30 2854 H 272.469 -1.24747 1.03198 0
M  V30 2855 H 274.461 -4.03626 -0.29459 0
M  V30 2856 H 273.031 -3.04938 -0.687849 0
M  V30 2857 H 272.251 -3.53199 1.75055 0
M  V30 2858 H 273.539 -4.74709 1.83109 0
M  V30 2859 H 272.937 -5.51585 -1.25581 0
M  V30 2860 H 271.494 -6.42963 -1.06968 0
M  V30 2861 N 274.927 -0.932562 -1.27047 0
M  V30 2862 C 276.173 -0.576412 -1.94436 0
M  V30 2863 C 276.506 0.880891 -1.73072 0
M  V30 2864 O 275.781 1.62905 -1.06264 0
M  V30 2865 C 276.064 -0.909031 -3.48437 0
M  V30 2866 C 275.917 -2.42044 -3.79123 0
M  V30 2867 C 277.236 -0.418341 -4.38107 0
M  V30 2868 H 274.355 -0.210888 -0.706184 0
M  V30 2869 H 276.997 -1.16522 -1.50075 0
M  V30 2870 H 275.147 -0.407947 -3.86352 0
M  V30 2871 H 276.819 -2.99359 -3.50973 0
M  V30 2872 H 275.062 -2.86758 -3.25503 0
M  V30 2873 H 275.733 -2.6037 -4.86736 0
M  V30 2874 H 278.209 -0.847856 -4.0737 0
M  V30 2875 H 277.085 -0.679981 -5.44672 0
M  V30 2876 H 277.346 0.681642 -4.36814 0
M  V30 2877 N 276.405 1.4127 -0.698611 0
M  V30 2878 C 277.653 2.00782 -0.230409 0
M  V30 2879 C 277.974 1.5562 1.17505 0
M  V30 2880 O 277.244 0.78815 1.79346 0
M  V30 2881 H 275.824 0.742464 -0.0821944 0
M  V30 2882 H 278.486 1.72852 -0.90045 0
M  V30 2883 H 277.582 3.11095 -0.25021 0
M  V30 2884 N 277.883 0.443576 1.51229 0
M  V30 2885 C 278.831 -0.37904 2.29491 0
M  V30 2886 C 279.825 -1.0153 1.35603 0
M  V30 2887 O 281.031 -0.94955 1.52917 0
M  V30 2888 H 277.406 -0.141053 0.738653 0
M  V30 2889 H 279.377 0.301799 2.9687 0
M  V30 2890 C 278.126 -1.46426 3.15364 0
M  V30 2891 H 277.449 -0.984037 3.87501 0
M  V30 2892 H 278.889 -2.01297 3.7317 0
M  V30 2893 C 277.348 -2.45099 2.31146 0
M  V30 2894 O 277.878 -3.49773 1.9754 0
M  V30 2895 N 276.084 -2.16139 1.94249 0
M  V30 2896 H 275.631 -1.31044 2.21777 0
M  V30 2897 H 275.589 -2.82398 1.38198 0
M  V30 2898 N 279.361 -1.56624 0.175154 0
M  V30 2899 C 280.271 -2.21741 -0.766042 0
M  V30 2900 C 281.287 -1.21023 -1.25018 0
M  V30 2901 O 282.463 -1.53697 -1.3015 0
M  V30 2902 C 279.528 -2.84839 -1.97655 0
M  V30 2903 C 278.589 -4.00769 -1.53892 0
M  V30 2904 C 277.822 -4.60849 -2.69173 0
M  V30 2905 O 278.045 -4.19823 -3.86141 0
M  V30 2906 O 276.979 -5.50655 -2.43028 0
M  V30 2907 H 280.805 -3.02738 -0.241585 0
M  V30 2908 H 278.39 -1.49305 -0.053222 0
M  V30 2909 H 280.272 -3.24834 -2.68442 0
M  V30 2910 H 278.947 -2.06836 -2.48999 0
M  V30 2911 H 277.854 -3.65436 -0.80044 0
M  V30 2912 H 279.187 -4.80376 -1.07236 0
M  V30 2913 N 280.839 0.0985539 -1.57292 0
M  V30 2914 C 282.067 0.816318 -1.90115 0
M  V30 2915 C 282.482 1.72451 -0.768509 0
M  V30 2916 O 281.839 1.80643 0.259687 0
M  V30 2917 C 281.89 1.63259 -3.22535 0
M  V30 2918 O 281.611 0.760934 -4.31441 0
M  V30 2919 C 283.112 2.45372 -3.69199 0
M  V30 2920 H 280.332 0.233595 -0.629027 0
M  V30 2921 H 282.876 0.0768229 -2.04356 0
M  V30 2922 H 281.031 2.32463 -3.09903 0
M  V30 2923 H 281.445 1.32595 -5.07463 0
M  V30 2924 H 282.919 2.98144 -4.64558 0
M  V30 2925 H 283.396 3.23677 -2.96867 0
M  V30 2926 H 284.002 1.81373 -3.84687 0
M  V30 2927 N 282.317 1.53212 0.369288 0
M  V30 2928 C 283.265 1.80054 1.47253 0
M  V30 2929 C 284.259 0.669456 1.55611 0
M  V30 2930 O 285.465 0.852328 1.58541 0
M  V30 2931 H 281.84 0.570034 0.490475 0
M  V30 2932 H 283.811 2.72403 1.21817 0
M  V30 2933 C 282.56 2.00403 2.84137 0
M  V30 2934 H 281.883 2.86876 2.78464 0
M  V30 2935 H 283.323 2.23164 3.60519 0
M  V30 2936 C 281.782 0.782081 3.27697 0
M  V30 2937 O 282.312 -0.0310205 4.01688 0
M  V30 2938 N 280.518 0.606573 2.84199 0
M  V30 2939 H 280.065 1.26939 2.24152 0
M  V30 2940 H 280.023 -0.20962 3.137 0
M  V30 2941 N 283.795 -0.628877 1.44509 0
M  V30 2942 C 285.043 -1.38565 1.4712 0
M  V30 2943 C 285.364 -1.94712 0.105899 0
M  V30 2944 O 284.634 -1.75912 -0.862079 0
M  V30 2945 H 283.214 -0.514333 0.541729 0
M  V30 2946 H 285.876 -0.740018 1.80305 0
M  V30 2947 H 284.972 -2.21583 2.19789 0
M  V30 2948 N 285.273 -1.31445 -0.869486 0
M  V30 2949 C 286.521 -1.20918 -1.61936 0
M  V30 2950 C 286.842 0.232683 -1.93607 0
M  V30 2951 O 286.112 1.15352 -1.58338 0
M  V30 2952 H 284.692 -0.44454 -0.600328 0
M  V30 2953 H 287.354 -1.64776 -1.0409 0
M  V30 2954 H 286.45 -1.78124 -2.56278 0
M  V30 2955 N 286.751 1.08385 -1.14413 0
M  V30 2956 C 287.681 2.17321 -0.854044 0
M  V30 2957 C 288.662 1.69024 0.191049 0
M  V30 2958 O 289.847 1.94141 0.0476779 0
M  V30 2959 C 286.977 3.45719 -0.330983 0
M  V30 2960 C 285.931 4.07409 -1.31155 0
M  V30 2961 C 285.257 5.30762 -0.64778 0
M  V30 2962 C 286.557 4.48665 -2.67388 0
M  V30 2963 H 288.251 2.41845 -1.76498 0
M  V30 2964 H 285.797 1.16233 -0.850051 0
M  V30 2965 H 287.75 4.21241 -0.115645 0
M  V30 2966 H 286.474 3.2075 0.615381 0
M  V30 2967 H 285.133 3.33919 -1.51306 0
M  V30 2968 H 284.781 5.02078 0.304398 0
M  V30 2969 H 284.481 5.72992 -1.30207 0
M  V30 2970 H 286.005 6.08998 -0.441972 0
M  V30 2971 H 287.419 5.15364 -2.51143 0
M  V30 2972 H 285.816 5.01814 -3.29093 0
M  V30 2973 H 286.886 3.60543 -3.24248 0
M  V30 2974 N 288.23 0.939286 1.26551 0
M  V30 2975 C 289.193 0.451987 2.24699 0
M  V30 2976 C 290.193 -0.435869 1.5478 0
M  V30 2977 O 291.383 -0.235314 1.72603 0
M  V30 2978 C 288.515 -0.348801 3.39111 0
M  V30 2979 H 289.708 1.3193 2.69322 0
M  V30 2980 H 287.261 0.721072 1.38673 0
M  V30 2981 H 287.996 -1.23444 2.99887 0
M  V30 2982 H 287.781 0.287945 3.91041 0
M  V30 2983 H 289.271 -0.679726 4.12031 0
M  V30 2984 N 289.708 -1.40897 0.706093 0
M  V30 2985 C 290.956 -2.00657 0.241054 0
M  V30 2986 C 291.277 -1.56241 -1.16678 0
M  V30 2987 O 290.547 -0.79765 -1.78926 0
M  V30 2988 H 289.127 -0.742018 0.0861308 0
M  V30 2989 H 291.789 -1.72372 0.909604 0
M  V30 2990 H 290.885 -3.10958 0.266705 0
M  V30 2991 N 291.186 -0.45159 -1.50991 0
M  V30 2992 C 292.096 0.358431 -2.31846 0
M  V30 2993 C 293.112 1.01438 -1.41373 0
M  V30 2994 O 294.288 1.00663 -1.74439 0
M  V30 2995 C 291.353 1.43704 -3.15515 0
M  V30 2996 C 290.414 0.799742 -4.21785 0
M  V30 2997 C 289.647 1.82696 -5.01456 0
M  V30 2998 O 289.87 3.05105 -4.81941 0
M  V30 2999 O 288.804 1.40958 -5.85162 0
M  V30 3000 H 292.63 -0.302032 -3.02194 0
M  V30 3001 H 290.215 -0.213825 -1.47862 0
M  V30 3002 H 292.097 2.06227 -3.67489 0
M  V30 3003 H 290.772 2.08133 -2.47916 0
M  V30 3004 H 289.679 0.136084 -3.73852 0
M  V30 3005 H 291.012 0.198718 -4.91799 0
M  V30 3006 N 292.664 1.56529 -0.183458 0
M  V30 3007 C 293.892 2.01623 0.464285 0
M  V30 3008 C 294.307 1.06366 1.55986 0
M  V30 3009 O 293.664 0.0665398 1.82379 0
M  V30 3010 C 293.715 3.46475 1.03139 0
M  V30 3011 O 293.436 4.38095 -0.0204675 0
M  V30 3012 C 294.937 4.0703 1.75617 0
M  V30 3013 H 292.157 0.660596 0.117704 0
M  V30 3014 H 294.701 2.02451 -0.288751 0
M  V30 3015 H 292.856 3.46383 1.73486 0
M  V30 3016 H 293.27 5.22973 0.399952 0
M  V30 3017 H 294.744 5.10271 2.10542 0
M  V30 3018 H 295.221 3.49819 2.65563 0
M  V30 3019 H 295.827 4.1086 1.09882 0
M  V30 3020 N 294.142 -0.090211 1.57342 0
M  V30 3021 C 295.419 -0.824761 1.77361 0
M  V30 3022 C 295.799 -1.96698 0.76637 0
M  V30 3023 O 295.147 -2.27586 -0.204179 0
M  V30 3024 C 295.357 -1.31481 3.23286 0
M  V30 3025 C 296.705 -1.75563 3.86604 0
M  V30 3026 O 297.729 -1.41093 3.27065 0
M  V30 3027 O 296.588 -2.39317 4.91314 0
M  V30 3028 H 293.682 -0.393776 0.727234 0
M  V30 3029 H 296.228 -0.0717138 1.69548 0
M  V30 3030 H 295 -0.496671 3.88135 0
M  V30 3031 H 294.623 -2.12973 3.35751 0
M  V30 3032 N 295.62 -1.53406 -0.361157 0
M  V30 3033 C 296.866 -1.70999 -1.1014 0
M  V30 3034 C 297.221 -0.458425 -1.86859 0
M  V30 3035 O 296.514 0.548654 -1.83577 0
M  V30 3036 C 296.708 -2.90211 -2.08596 0
M  V30 3037 C 296.537 -4.26841 -1.41553 0
M  V30 3038 C 295.307 -4.91621 -1.16778 0
M  V30 3039 C 297.505 -5.07212 -0.850915 0
M  V30 3040 N 295.487 -6.12164 -0.461312 0
M  V30 3041 C 296.858 -6.19394 -0.274046 0
M  V30 3042 C 298.913 -4.92218 -0.750036 0
M  V30 3043 C 297.616 -7.18221 0.393868 0
M  V30 3044 C 299.642 -5.91322 -0.095894 0
M  V30 3045 C 299.004 -7.0283 0.470081 0
M  V30 3046 H 295.103 -0.678939 -0.388028 0
M  V30 3047 H 297.687 -1.90811 -0.38722 0
M  V30 3048 H 295.858 -2.71931 -2.77323 0
M  V30 3049 H 297.59 -2.96606 -2.7533 0
M  V30 3050 H 294.345 -4.50849 -1.45024 0
M  V30 3051 H 294.769 -6.76888 -0.123312 0
M  V30 3052 H 299.411 -4.06192 -1.17337 0
M  V30 3053 H 297.129 -8.03835 0.82914 0
M  V30 3054 H 300.715 -5.81797 -0.0187075 0
M  V30 3055 H 299.595 -7.782 0.968241 0
M  V30 3056 N 297.098 0.621204 -1.44841 0
M  V30 3057 C 298.061 1.71459 -1.521 0
M  V30 3058 C 299.061 1.55696 -0.401933 0
M  V30 3059 O 300.251 1.61011 -0.664925 0
M  V30 3060 C 297.383 3.10624 -1.40447 0
M  V30 3061 H 298.576 1.66394 -2.49506 0
M  V30 3062 H 296.129 0.835745 -1.3208 0
M  V30 3063 H 296.864 3.21277 -0.441737 0
M  V30 3064 H 296.649 3.23473 -2.21602 0
M  V30 3065 H 298.139 3.90293 -1.4853 0
M  V30 3066 N 298.576 1.31904 0.862503 0
M  V30 3067 C 299.523 1.20182 1.9704 0
M  V30 3068 C 300.493 0.0858247 1.65878 0
M  V30 3069 O 301.678 0.26 1.8902 0
M  V30 3070 C 298.818 0.922797 3.32533 0
M  V30 3071 C 297.931 2.12284 3.76244 0
M  V30 3072 C 297.066 1.77996 5.00491 0
M  V30 3073 C 296.105 2.94366 5.36671 0
M  V30 3074 N 295.242 2.60223 6.52095 0
M  V30 3075 H 300.082 2.14951 2.06398 0
M  V30 3076 H 297.619 1.06917 1.01031 0
M  V30 3077 H 299.577 0.741548 4.10557 0
M  V30 3078 H 298.207 0.0119227 3.22798 0
M  V30 3079 H 297.259 2.41461 2.9394 0
M  V30 3080 H 298.571 2.99357 3.98982 0
M  V30 3081 H 297.725 1.56377 5.862 0
M  V30 3082 H 296.464 0.881252 4.79672 0
M  V30 3083 H 295.469 3.16625 4.49476 0
M  V30 3084 H 296.694 3.84957 5.59451 0
M  V30 3085 H 294.64 1.72884 6.32809 0
M  V30 3086 H 294.557 3.40827 6.74814 0
M  V30 3087 H 295.825 2.42016 7.40978 0
M  V30 3088 N 300.054 -1.07777 1.14986 0
M  V30 3089 C 300.987 -2.14228 0.786243 0
M  V30 3090 C 301.965 -1.60888 -0.235347 0
M  V30 3091 O 303.149 -1.88099 -0.122909 0
M  V30 3092 C 300.276 -3.38281 0.168433 0
M  V30 3093 C 299.322 -4.10387 1.16123 0
M  V30 3094 S 300.155 -4.62371 2.70135 0
M  V30 3095 C 301.311 -5.89704 2.09762 0
M  V30 3096 H 301.544 -2.44741 1.68787 0
M  V30 3097 H 299.077 -1.19984 0.971756 0
M  V30 3098 H 301.035 -4.10098 -0.181588 0
M  V30 3099 H 299.696 -3.05953 -0.710725 0
M  V30 3100 H 298.889 -4.99431 0.677086 0
M  V30 3101 H 298.491 -3.44513 1.45556 0
M  V30 3102 H 300.783 -6.61648 1.45701 0
M  V30 3103 H 301.726 -6.42824 2.96955 0
M  V30 3104 H 302.134 -5.4302 1.54239 0
M  V30 3105 N 301.532 -0.945985 -1.26051 0
M  V30 3106 C 302.757 -0.612525 -1.98149 0
M  V30 3107 C 303.182 0.806623 -1.69927 0
M  V30 3108 O 302.54 1.54411 -0.950108 0
M  V30 3109 C 302.588 -0.866981 -3.50023 0
M  V30 3110 O 301.692 0.0585333 -4.12358 0
M  V30 3111 H 301.033 -0.23379 -0.621481 0
M  V30 3112 H 303.563 -1.27023 -1.60395 0
M  V30 3113 H 303.573 -0.789792 -4.00283 0
M  V30 3114 H 302.248 -1.90135 -3.69894 0
M  V30 3115 H 300.825 -0.0701241 -3.72834 0
M  V30 3116 N 303.011 1.40521 -0.713556 0
M  V30 3117 C 303.943 2.29191 -0.0203126 0
M  V30 3118 C 304.956 1.45723 0.725864 0
M  V30 3119 O 306.145 1.69033 0.573581 0
M  V30 3120 C 303.245 3.2395 0.995486 0
M  V30 3121 C 302.418 4.36262 0.315256 0
M  V30 3122 C 301.477 5.11474 1.23616 0
M  V30 3123 O 300.503 5.64606 0.721719 0
M  V30 3124 N 301.705 5.20638 2.56743 0
M  V30 3125 H 304.47 2.89327 -0.781652 0
M  V30 3126 H 302.031 1.51869 -0.561022 0
M  V30 3127 H 304.023 3.71137 1.61368 0
M  V30 3128 H 302.593 2.64995 1.6582 0
M  V30 3129 H 301.813 3.91228 -0.483106 0
M  V30 3130 H 303.101 5.08558 -0.157004 0
M  V30 3131 H 302.499 4.7895 3.01037 0
M  V30 3132 H 301.056 5.71339 3.13712 0
M  V30 3133 N 304.489 0.459591 1.5075 0
M  V30 3134 C 305.419 -0.330644 2.31147 0
M  V30 3135 C 306.4 -1.00087 1.37538 0
M  V30 3136 O 307.585 -1.00025 1.66459 0
M  V30 3137 C 304.715 -1.41958 3.16962 0
M  V30 3138 C 303.669 -0.871608 4.19031 0
M  V30 3139 C 302.995 -2.05797 4.9351 0
M  V30 3140 C 304.295 0.109251 5.22186 0
M  V30 3141 H 305.989 0.340336 2.97459 0
M  V30 3142 H 303.535 0.165119 1.4305 0
M  V30 3143 H 305.488 -1.9798 3.71997 0
M  V30 3144 H 304.212 -2.11917 2.48513 0
M  V30 3145 H 302.871 -0.333442 3.6508 0
M  V30 3146 H 302.519 -2.74427 4.21544 0
M  V30 3147 H 302.219 -1.6976 5.62544 0
M  V30 3148 H 303.743 -2.62331 5.51375 0
M  V30 3149 H 305.157 -0.361405 5.7216 0
M  V30 3150 H 303.554 0.383316 5.98875 0
M  V30 3151 H 304.624 1.03887 4.73641 0
M  V30 3152 N 305.967 -1.56429 0.191757 0
M  V30 3153 C 307.214 -1.97485 -0.447891 0
M  V30 3154 C 307.542 -1.07852 -1.61859 0
M  V30 3155 O 306.797 -0.116903 -1.95351 0
M  V30 3156 C 307.096 -3.44449 -0.953384 0
M  V30 3157 C 306.762 -4.50781 0.103586 0
M  V30 3158 C 305.424 -4.79584 0.394023 0
M  V30 3159 C 307.776 -5.1471 0.819946 0
M  V30 3160 C 305.104 -5.69607 1.40585 0
M  V30 3161 C 307.456 -6.05827 1.8209 0
M  V30 3162 C 306.12 -6.32987 2.11857 0
M  V30 3163 H 305.39 -0.722648 -0.163895 0
M  V30 3164 H 308.037 -1.89322 0.28802 0
M  V30 3165 H 306.342 -3.49666 -1.76751 0
M  V30 3166 H 308.039 -3.73569 -1.45765 0
M  V30 3167 H 304.629 -4.28394 -0.132951 0
M  V30 3168 H 308.813 -4.92552 0.608789 0
M  V30 3169 H 304.069 -5.88926 1.64243 0
M  V30 3170 H 308.243 -6.54424 2.38123 0
M  V30 3171 H 305.87 -7.02544 2.90407 0
M  V30 3172 N 307.445 0.0818655 -1.57387 0
M  V30 3173 C 308.393 1.11712 -2.04018 0
M  V30 3174 C 309.387 1.40683 -0.94364 0
M  V30 3175 O 310.593 1.40209 -1.12878 0
M  V30 3176 H 306.968 0.377542 -0.650358 0
M  V30 3177 H 308.939 0.697614 -2.90131 0
M  V30 3178 C 307.688 2.42537 -2.49141 0
M  V30 3179 H 307.011 2.21092 -3.33104 0
M  V30 3180 H 308.451 3.13446 -2.85531 0
M  V30 3181 C 306.91 3.0778 -1.37014 0
M  V30 3182 O 307.44 3.95436 -0.706621 0
M  V30 3183 N 305.646 2.68242 -1.11779 0
M  V30 3184 H 305.193 1.97052 -1.65917 0
M  V30 3185 H 305.151 3.1222 -0.369594 0
M  V30 3186 N 308.923 1.53595 0.353017 0
M  V30 3187 C 309.886 1.80232 1.41594 0
M  V30 3188 C 310.886 0.673081 1.46035 0
M  V30 3189 O 312.076 0.941335 1.46576 0
M  V30 3190 C 309.208 1.93578 2.80607 0
M  V30 3191 H 310.401 2.75174 1.19244 0
M  V30 3192 H 307.954 1.44864 0.586872 0
M  V30 3193 H 308.689 1.00746 3.08254 0
M  V30 3194 H 308.474 2.75724 2.78781 0
M  V30 3195 H 309.964 2.15735 3.57558 0
M  V30 3196 N 310.401 -0.613514 1.45168 0
M  V30 3197 C 311.649 -1.36997 1.48581 0
M  V30 3198 C 311.97 -1.94589 0.126545 0
M  V30 3199 O 311.24 -1.76816 -0.843372 0
M  V30 3200 H 309.82 -0.508558 0.547154 0
M  V30 3201 H 312.482 -0.720853 1.81079 0
M  V30 3202 H 311.578 -2.1924 2.22127 0
M  V30 3203 N 311.879 -1.3236 -0.855495 0
M  V30 3204 C 313.104 -1.2601 -1.64731 0
M  V30 3205 C 313.529 0.169068 -1.87339 0
M  V30 3206 O 312.887 1.12016 -1.42556 0
M  V30 3207 C 312.935 -2.02417 -2.98429 0
M  V30 3208 O 312.039 -1.3714 -3.8893 0
M  V30 3209 H 311.38 -0.434325 -0.502253 0
M  V30 3210 H 313.91 -1.74661 -1.06558 0
M  V30 3211 H 313.92 -2.12559 -3.48257 0
M  V30 3212 H 312.595 -3.06343 -2.81295 0
M  V30 3213 H 311.172 -1.3554 -3.47395 0
M  V30 3214 N 313.357 1.07166 -1.15556 0
M  V30 3215 C 314.289 2.14341 -0.811815 0
M  V30 3216 C 315.302 1.61835 0.177015 0
M  V30 3217 O 316.491 1.78439 -0.0464996 0
M  V30 3218 C 313.591 3.38387 -0.186481 0
M  V30 3219 C 312.764 4.20238 -1.21321 0
M  V30 3220 C 311.823 5.2266 -0.609302 0
M  V30 3221 O 310.849 5.54719 -1.27576 0
M  V30 3222 N 312.051 5.77306 0.608099 0
M  V30 3223 H 314.816 2.44431 -1.73417 0
M  V30 3224 H 312.377 1.23089 -1.0517 0
M  V30 3225 H 314.369 4.04044 0.230339 0
M  V30 3226 H 312.939 3.05994 0.639249 0
M  V30 3227 H 312.159 3.50369 -1.80652 0
M  V30 3228 H 313.447 4.71736 -1.90638 0
M  V30 3229 H 312.845 5.53513 1.1679 0
M  V30 3230 H 311.402 6.44583 0.96725 0
M  V30 3231 N 314.835 0.952656 1.25548 0
M  V30 3232 C 315.798 0.475794 2.24207 0
M  V30 3233 C 316.798 -0.419428 1.55234 0
M  V30 3234 O 317.988 -0.216994 1.72843 0
M  V30 3235 C 315.12 -0.312814 3.39462 0
M  V30 3236 H 316.313 1.34779 2.67908 0
M  V30 3237 H 313.866 0.735739 1.37901 0
M  V30 3238 H 314.601 -1.20257 3.01179 0
M  V30 3239 H 314.386 0.329404 3.90714 0
M  V30 3240 H 315.876 -0.635986 4.12729 0
M  V30 3241 N 316.313 -1.40141 0.720998 0
M  V30 3242 C 317.559 -2.01084 0.263231 0
M  V30 3243 C 317.892 -1.57052 -1.14229 0
M  V30 3244 O 317.167 -0.793027 -1.77599 0
M  V30 3245 C 317.45 -3.58401 0.349344 0
M  V30 3246 C 317.303 -4.12491 1.79363 0
M  V30 3247 C 318.622 -4.39231 -0.276351 0
M  V30 3248 H 315.741 -0.730572 0.0971228 0
M  V30 3249 H 318.383 -1.66543 0.914518 0
M  V30 3250 H 316.533 -3.87958 -0.205165 0
M  V30 3251 H 318.205 -3.93711 2.40394 0
M  V30 3252 H 316.448 -3.66576 2.31958 0
M  V30 3253 H 317.119 -5.21646 1.80524 0
M  V30 3254 H 319.595 -4.15637 0.196184 0
M  V30 3255 H 318.471 -5.48586 -0.185681 0
M  V30 3256 H 318.732 -4.20643 -1.36059 0
M  V30 3257 N 317.792 -0.46758 -1.50504 0
M  V30 3258 C 319.208 -0.121533 -1.59137 0
M  V30 3259 C 319.408 1.3717 -1.47603 0
M  V30 3260 O 318.464 2.14464 -1.33272 0
M  V30 3261 C 319.777 -0.6686 -2.93173 0
M  V30 3262 C 321.325 -0.631716 -3.06559 0
M  V30 3263 C 321.8 -1.15627 -4.43164 0
M  V30 3264 N 323.291 -1.11553 -4.49567 0
M  V30 3265 C 324.026 -1.49195 -5.5365 0
M  V30 3266 N 323.522 -1.94269 -6.65005 0
M  V30 3267 N 325.315 -1.4082 -5.44175 0
M  V30 3268 H 317.466 -1.4388 -1.56245 0
M  V30 3269 H 319.729 -0.594784 -0.738198 0
M  V30 3270 H 319.435 -1.71453 -3.07078 0
M  V30 3271 H 319.309 -0.11021 -3.77039 0
M  V30 3272 H 321.696 0.405297 -2.92304 0
M  V30 3273 H 321.777 -1.22687 -2.24458 0
M  V30 3274 H 321.421 -2.1919 -4.58168 0
M  V30 3275 H 321.351 -0.537365 -5.23851 0
M  V30 3276 H 323.842 -0.784895 -3.69659 0
M  V30 3277 H 324.155 -2.21148 -7.40482 0
M  V30 3278 H 322.5 -1.98219 -6.66134 0
M  V30 3279 H 325.691 -1.0545 -4.56068 0
M  V30 3280 H 325.864 -1.70481 -6.25172 0
M  V30 3281 N 319.27 1.56325 -0.20005 0
M  V30 3282 C 320.18 2.22931 0.730668 0
M  V30 3283 C 321.196 1.22997 1.23076 0
M  V30 3284 O 322.372 1.55748 1.27689 0
M  V30 3285 C 319.437 2.87948 1.93098 0
M  V30 3286 C 318.498 4.03166 1.47497 0
M  V30 3287 C 317.731 4.65073 2.61807 0
M  V30 3288 O 317.954 4.25913 3.79413 0
M  V30 3289 O 316.888 5.54452 2.34237 0
M  V30 3290 H 320.714 3.03084 0.193391 0
M  V30 3291 H 318.299 1.49371 0.0294621 0
M  V30 3292 H 320.181 3.29063 2.6324 0
M  V30 3293 H 318.856 2.10771 2.45677 0
M  V30 3294 H 317.763 3.66664 0.742201 0
M  V30 3295 H 319.096 4.82022 0.995796 0
M  V30 3296 N 320.748 -0.0735177 1.57428 0
M  V30 3297 C 321.976 -0.785969 1.9139 0
M  V30 3298 C 322.391 -1.71207 0.795847 0
M  V30 3299 O 321.748 -1.81033 -0.230915 0
M  V30 3300 C 321.799 -1.58107 3.25091 0
M  V30 3301 O 321.52 -0.6922 4.32597 0
M  V30 3302 C 323.021 -2.39467 3.73055 0
M  V30 3303 H 320.241 -0.223558 0.632663 0
M  V30 3304 H 322.785 -0.044302 2.04452 0
M  V30 3305 H 320.94 -2.27503 3.13562 0
M  V30 3306 H 321.354 -1.24504 5.09508 0
M  V30 3307 H 322.828 -2.90716 4.69242 0
M  V30 3308 H 323.305 -3.18913 3.01979 0
M  V30 3309 H 323.911 -1.7523 3.87523 0
M  V30 3310 N 322.226 -1.5378 -0.344866 0
M  V30 3311 C 323.503 -1.61589 -1.10219 0
M  V30 3312 C 323.883 -0.436316 -2.06542 0
M  V30 3313 O 323.231 0.571543 -2.21237 0
M  V30 3314 C 323.441 -2.97602 -1.82301 0
M  V30 3315 C 324.789 -3.5291 -2.36093 0
M  V30 3316 O 325.813 -2.99768 -1.924 0
M  V30 3317 O 324.672 -4.45859 -3.16026 0
M  V30 3318 H 321.766 -0.653522 -0.506792 0
M  V30 3319 H 324.312 -1.66126 -0.346465 0
M  V30 3320 H 323.084 -3.74893 -1.12121 0
M  V30 3321 H 322.707 -2.9665 -2.64735 0
M  V30 3322 N 323.704 0.605807 -1.45491 0
M  V30 3323 C 324.929 1.39625 -1.53361 0
M  V30 3324 C 325.354 1.87351 -0.167645 0
M  V30 3325 O 324.712 1.60243 0.848051 0
M  V30 3326 C 324.76 2.57559 -2.5238 0
M  V30 3327 O 323.864 3.58248 -2.04285 0
M  V30 3328 H 323.205 0.416771 -0.516912 0
M  V30 3329 H 325.735 0.737103 -1.90861 0
M  V30 3330 H 325.745 3.0478 -2.71244 0
M  V30 3331 H 324.42 2.22171 -3.51586 0
M  V30 3332 H 322.997 3.17664 -1.95305 0
M  V30 3333 N 325.182 1.32811 0.848464 0
M  V30 3334 C 326.13 1.22231 1.97895 0
M  V30 3335 C 327.124 0.125749 1.68933 0
M  V30 3336 O 328.33 0.289083 1.77663 0
M  V30 3337 H 324.705 0.379058 0.649476 0
M  V30 3338 H 326.676 2.17828 2.03945 0
M  V30 3339 C 325.425 0.968572 3.33937 0
M  V30 3340 H 324.748 1.80458 3.56756 0
M  V30 3341 H 326.188 0.934808 4.13567 0
M  V30 3342 C 324.647 -0.328628 3.35293 0
M  V30 3343 O 325.177 -1.33848 3.78745 0
M  V30 3344 N 323.383 -0.352788 2.88451 0
M  V30 3345 H 322.93 0.469541 2.53285 0
M  V30 3346 H 322.888 -1.22057 2.89741 0
M  V30 3347 N 326.66 -1.06551 1.16123 0
M  V30 3348 C 327.909 -1.78687 0.935622 0
M  V30 3349 C 328.222 -1.88056 -0.538001 0
M  V30 3350 O 329.428 -2.56794 -0.88143 0
M  V30 3351 C 327.884 -3.21143 1.62466 0
M  V30 3352 C 327.492 -3.19949 3.13587 0
M  V30 3353 C 329.236 -3.9783 1.48092 0
M  V30 3354 C 327.143 -4.57108 3.75241 0
M  V30 3355 H 326.073 -0.669712 0.346412 0
M  V30 3356 H 328.724 -1.19534 1.39226 0
M  V30 3357 H 327.106 -3.80539 1.09572 0
M  V30 3358 H 328.28 -2.70151 3.73303 0
M  V30 3359 H 326.595 -2.5676 3.27816 0
M  V30 3360 H 329.192 -4.99217 1.91538 0
M  V30 3361 H 329.535 -4.14078 0.429507 0
M  V30 3362 H 330.068 -3.4495 1.98127 0
M  V30 3363 H 326.807 -4.46065 4.80319 0
M  V30 3364 H 326.327 -5.07111 3.20309 0
M  V30 3365 H 328.006 -5.26069 3.76644 0
M  V30 3366 N 328.138 -0.959301 -1.25041 0
M  V30 3367 C 329.068 -0.501388 -2.28053 0
M  V30 3368 C 330.049 0.454673 -1.63911 0
M  V30 3369 O 331.234 0.352618 -1.90972 0
M  V30 3370 C 328.364 0.217224 -3.4662 0
M  V30 3371 C 327.318 -0.654034 -4.22973 0
M  V30 3372 C 326.644 0.195589 -5.34342 0
M  V30 3373 C 327.944 -1.93447 -4.85155 0
M  V30 3374 H 329.638 -1.36238 -2.66608 0
M  V30 3375 H 327.184 -0.656534 -1.28163 0
M  V30 3376 H 329.137 0.548732 -4.17812 0
M  V30 3377 H 327.861 1.1125 -3.07068 0
M  V30 3378 H 326.52 -0.968693 -3.5357 0
M  V30 3379 H 326.168 1.09076 -4.91031 0
M  V30 3380 H 325.868 -0.384091 -5.86343 0
M  V30 3381 H 327.392 0.521958 -6.08365 0
M  V30 3382 H 328.806 -1.66908 -5.48466 0
M  V30 3383 H 327.203 -2.46018 -5.47353 0
M  V30 3384 H 328.273 -2.63466 -4.07079 0
M  V30 3385 N 329.616 1.39756 -0.72842 0
M  V30 3386 C 330.862 2.00942 -0.273892 0
M  V30 3387 C 331.195 1.57656 1.13394 0
M  V30 3388 O 330.47 0.802434 1.77176 0
M  V30 3389 C 330.753 3.58211 -0.368346 0
M  V30 3390 C 330.606 4.11534 -1.81548 0
M  V30 3391 C 331.925 4.39372 0.253054 0
M  V30 3392 H 329.044 0.730047 -0.100996 0
M  V30 3393 H 331.686 1.66056 -0.923337 0
M  V30 3394 H 329.836 3.88061 0.184588 0
M  V30 3395 H 331.508 3.92431 -2.42478 0
M  V30 3396 H 329.751 3.65341 -2.33898 0
M  V30 3397 H 330.422 5.20682 -1.83288 0
M  V30 3398 H 332.898 4.15527 -0.218224 0
M  V30 3399 H 331.774 5.48677 0.156585 0
M  V30 3400 H 332.035 4.21358 1.33826 0
M  V30 3401 N 331.094 0.475555 1.50254 0
M  V30 3402 C 332.057 -0.305016 2.27161 0
M  V30 3403 C 333.057 -0.916519 1.32123 0
M  V30 3404 O 334.247 -0.785003 1.5551 0
M  V30 3405 C 331.379 -1.43496 3.09227 0
M  V30 3406 H 332.572 0.369511 2.97615 0
M  V30 3407 H 330.125 0.229747 1.54602 0
M  V30 3408 H 330.86 -2.14441 2.43281 0
M  V30 3409 H 330.645 -1.00223 3.79075 0
M  V30 3410 H 332.135 -1.98548 3.67381 0
M  V30 3411 N 332.573 -1.56217 0.208337 0
M  V30 3412 C 333.503 -2.22694 -0.702116 0
M  V30 3413 C 334.484 -1.19432 -1.2112 0
M  V30 3414 O 335.669 -1.47978 -1.25762 0
M  V30 3415 C 332.799 -2.8966 -1.9161 0
M  V30 3416 C 331.753 -3.9928 -1.5414 0
M  V30 3417 C 331.079 -4.53476 -2.83308 0
M  V30 3418 C 332.379 -5.17012 -0.741339 0
M  V30 3419 H 334.073 -2.99034 -0.147898 0
M  V30 3420 H 331.619 -1.43831 -0.0696951 0
M  V30 3421 H 333.572 -3.34852 -2.55836 0
M  V30 3422 H 332.296 -2.10746 -2.49507 0
M  V30 3423 H 330.955 -3.54799 -0.922668 0
M  V30 3424 H 330.603 -3.71308 -3.39322 0
M  V30 3425 H 330.303 -5.27451 -2.58976 0
M  V30 3426 H 331.827 -5.01378 -3.485 0
M  V30 3427 H 333.241 -5.58667 -1.28699 0
M  V30 3428 H 331.638 -5.97137 -0.595627 0
M  V30 3429 H 332.708 -4.8423 0.254851 0
M  V30 3430 N 334.051 0.0651679 -1.57465 0
M  V30 3431 C 335.001 1.0838 -2.00594 0
M  V30 3432 C 335.985 1.34106 -0.889071 0
M  V30 3433 O 337.177 1.34295 -1.15299 0
M  V30 3434 C 334.306 2.39565 -2.45894 0
M  V30 3435 C 333.392 2.17085 -3.64328 0
M  V30 3436 N 333.783 1.64553 -4.78285 0
M  V30 3437 C 332.081 2.4753 -3.71006 0
M  V30 3438 C 332.782 1.57042 -5.60101 0
M  V30 3439 N 331.758 2.03328 -5.04141 0
M  V30 3440 H 335.56 0.671062 -2.86136 0
M  V30 3441 H 333.074 0.27213 -1.60104 0
M  V30 3442 H 335.071 3.13308 -2.75034 0
M  V30 3443 H 333.731 2.81549 -1.61741 0
M  V30 3444 H 334.742 1.33323 -5.00445 0
M  V30 3445 H 331.419 2.92835 -2.9758 0
M  V30 3446 H 332.809 1.17223 -6.61595 0
M  V30 3447 N 335.529 1.53961 0.336706 0
M  V30 3448 C 336.776 1.71536 1.07618 0
M  V30 3449 C 337.104 0.482125 1.8843 0
M  V30 3450 O 336.359 -0.536142 1.88213 0
M  V30 3451 C 336.658 2.93493 2.03953 0
M  V30 3452 C 336.324 4.28811 1.39399 0
M  V30 3453 C 334.986 4.65602 1.21523 0
M  V30 3454 C 337.338 5.12844 0.929541 0
M  V30 3455 C 334.666 5.84037 0.558312 0
M  V30 3456 C 337.018 6.31951 0.286505 0
M  V30 3457 C 335.682 6.67432 0.0954869 0
M  V30 3458 H 334.952 0.627696 0.393801 0
M  V30 3459 H 337.599 1.88186 0.354715 0
M  V30 3460 H 335.904 2.71475 2.82504 0
M  V30 3461 H 337.601 3.04285 2.61174 0
M  V30 3462 H 334.191 3.99858 1.54311 0
M  V30 3463 H 338.375 4.84947 1.05548 0
M  V30 3464 H 333.631 6.10097 0.398995 0
M  V30 3465 H 337.805 6.96352 -0.0814376 0
M  V30 3466 H 335.432 7.59063 -0.415579 0
M  V30 3467 N 337.007 -0.598083 1.45811 0
M  V30 3468 C 338.235 -1.38322 1.53866 0
M  V30 3469 C 338.65 -1.87992 0.174479 0
M  V30 3470 O 338.007 -1.62756 -0.825627 0
M  V30 3471 C 338.058 -2.58125 2.53089 0
M  V30 3472 O 337.779 -2.10516 3.84206 0
M  V30 3473 C 339.28 -3.50869 2.70935 0
M  V30 3474 H 336.5 -0.423093 0.520801 0
M  V30 3475 H 339.044 -0.728527 1.91083 0
M  V30 3476 H 337.199 -3.19615 2.18917 0
M  V30 3477 H 337.613 -2.88425 4.38077 0
M  V30 3478 H 339.087 -4.31451 3.44317 0
M  V30 3479 H 339.564 -4.01822 1.77301 0
M  V30 3480 H 340.17 -2.95225 3.06141 0
M  V30 3481 N 338.485 -1.33259 -0.841409 0
M  V30 3482 C 339.433 -1.23279 -1.97244 0
M  V30 3483 C 340.427 -0.134706 -1.68864 0
M  V30 3484 O 341.633 -0.298501 -1.77508 0
M  V30 3485 H 338.008 -0.382497 -0.647457 0
M  V30 3486 H 339.979 -2.18906 -2.02787 0
M  V30 3487 C 338.728 -0.986268 -3.33419 0
M  V30 3488 H 338.051 -1.82347 -3.55794 0
M  V30 3489 H 339.491 -0.956728 -4.13065 0
M  V30 3490 C 337.95 0.310842 -3.35463 0
M  V30 3491 O 338.48 1.31838 -3.79449 0
M  V30 3492 N 336.686 0.337485 -2.88634 0
M  V30 3493 H 336.233 -0.482967 -2.53032 0
M  V30 3494 H 336.191 1.20518 -2.90384 0
M  V30 3495 N 339.963 1.05934 -1.16686 0
M  V30 3496 C 341.374 1.60263 -0.957745 0
M  V30 3497 C 341.725 1.89789 0.49745 0
M  V30 3498 O 340.85 1.67401 1.37135 0
M  V30 3499 C 341.445 2.91172 -1.73218 0
M  V30 3500 C 340.004 3.42188 -1.56794 0
M  V30 3501 C 339.151 2.16028 -1.73859 0
M  V30 3502 H 342.102 0.888392 -1.31504 0
M  V30 3503 H 342.123 3.60744 -1.21014 0
M  V30 3504 H 341.635 2.6965 -2.79124 0
M  V30 3505 H 339.736 3.68762 -0.533437 0
M  V30 3506 H 339.849 4.17273 -2.35414 0
M  V30 3507 H 338.213 2.26426 -1.16633 0
M  V30 3508 H 338.996 1.96985 -2.81161 0
M  V30 3509 N 341.441 0.965919 1.2453 0
M  V30 3510 C 342.351 0.502154 2.29163 0
M  V30 3511 C 343.367 -0.436017 1.68448 0
M  V30 3512 O 344.543 -0.309497 1.99008 0
M  V30 3513 C 341.608 -0.201956 3.46111 0
M  V30 3514 C 340.669 0.775821 4.22232 0
M  V30 3515 C 339.902 0.105217 5.33596 0
M  V30 3516 O 340.125 -1.10683 5.59558 0
M  V30 3517 O 339.059 0.796475 5.96607 0
M  V30 3518 H 342.885 1.37194 2.70946 0
M  V30 3519 H 340.47 0.732875 1.30189 0
M  V30 3520 H 342.352 -0.597564 4.17142 0
M  V30 3521 H 341.027 -1.04673 3.06309 0
M  V30 3522 H 339.934 1.22185 3.53584 0
M  V30 3523 H 341.267 1.58896 4.65846 0
M  V30 3524 N 342.919 -1.39368 0.735821 0
M  V30 3525 C 344.147 -2.04795 0.294393 0
M  V30 3526 C 344.562 -1.55478 -1.07107 0
M  V30 3527 O 343.919 -0.720038 -1.67695 0
M  V30 3528 C 343.97 -3.6035 0.288071 0
M  V30 3529 O 343.691 -4.07852 1.59963 0
M  V30 3530 C 345.192 -4.42976 -0.169422 0
M  V30 3531 H 342.412 -0.658571 0.128551 0
M  V30 3532 H 344.956 -1.78399 0.999701 0
M  V30 3533 H 343.111 -3.85645 -0.368355 0
M  V30 3534 H 343.525 -5.02181 1.51375 0
M  V30 3535 H 344.999 -5.51864 -0.122687 0
M  V30 3536 H 345.476 -4.22068 -1.21472 0
M  V30 3537 H 346.082 -4.22832 0.457469 0
M  V30 3538 N 344.397 -0.483516 -1.5 0
M  V30 3539 C 345.622 0.0667119 -2.07293 0
M  V30 3540 C 346.047 1.3164 -1.3436 0
M  V30 3541 O 345.405 1.76945 -0.394987 0
M  V30 3542 C 345.453 0.321126 -3.59167 0
M  V30 3543 O 344.557 1.39927 -3.87936 0
M  V30 3544 H 343.898 -0.0184758 -0.663743 0
M  V30 3545 H 346.428 -0.678125 -1.93035 0
M  V30 3546 H 346.438 0.557906 -4.04168 0
M  V30 3547 H 345.113 -0.592007 -4.11665 0
M  V30 3548 H 343.69 1.14882 -3.54763 0
M  V30 3549 N 345.875 1.56104 -0.216619 0
M  V30 3550 C 347.123 1.97781 0.415593 0
M  V30 3551 C 347.444 1.10536 1.60645 0
M  V30 3552 O 346.714 0.181303 1.95059 0
M  V30 3553 H 345.294 0.730415 0.156534 0
M  V30 3554 H 347.956 1.92445 -0.308366 0
M  V30 3555 H 347.052 3.03072 0.74525 0
M  V30 3556 N 347.353 -0.0568162 1.57498 0
M  V30 3557 C 348.769 -0.411933 1.54192 0
M  V30 3558 C 348.969 -1.78287 0.938942 0
M  V30 3559 O 348.025 -2.46483 0.547919 0
M  V30 3560 C 349.338 -0.339244 2.9878 0
M  V30 3561 C 350.886 -0.418348 3.10192 0
M  V30 3562 C 351.361 -0.375407 4.56459 0
M  V30 3563 N 352.852 -0.435038 4.61153 0
M  V30 3564 C 353.587 -0.424265 5.71828 0
M  V30 3565 N 353.083 -0.367418 6.91825 0
M  V30 3566 N 354.876 -0.471938 5.60115 0
M  V30 3567 H 347.027 0.840684 1.95055 0
M  V30 3568 H 349.29 0.316987 0.893433 0
M  V30 3569 H 348.996 0.601742 3.46514 0
M  V30 3570 H 348.87 -1.14371 3.59443 0
M  V30 3571 H 351.257 -1.34976 2.62422 0
M  V30 3572 H 351.338 0.414962 2.52412 0
M  V30 3573 H 350.982 0.552219 5.04889 0
M  V30 3574 H 350.912 -1.22645 5.12119 0
M  V30 3575 H 353.403 -0.482612 3.74806 0
M  V30 3576 H 353.716 -0.363535 7.71944 0
M  V30 3577 H 352.061 -0.333879 6.94198 0
M  V30 3578 H 355.252 -0.514145 4.65268 0
M  V30 3579 H 355.425 -0.460073 6.46365 0
M  V30 3580 N 348.832 -1.54138 -0.328536 0
M  V30 3581 C 350.062 -1.75807 -1.08516 0
M  V30 3582 C 350.47 -0.50428 -1.82356 0
M  V30 3583 O 349.813 0.534451 -1.75754 0
M  V30 3584 C 349.875 -2.89423 -2.13248 0
M  V30 3585 C 349.539 -4.28504 -1.5885 0
M  V30 3586 C 350.536 -5.09536 -1.03289 0
M  V30 3587 C 348.221 -4.75034 -1.63243 0
M  V30 3588 C 350.215 -6.35206 -0.52845 0
M  V30 3589 C 347.902 -6.00672 -1.12411 0
M  V30 3590 C 348.9 -6.80592 -0.573062 0
M  V30 3591 O 348.588 -8.03867 -0.0723692 0
M  V30 3592 H 348.32 -0.590633 -0.328829 0
M  V30 3593 H 350.874 -2.01819 -0.381868 0
M  V30 3594 H 349.104 -2.5897 -2.87178 0
M  V30 3595 H 350.793 -2.98921 -2.74592 0
M  V30 3596 H 351.559 -4.74745 -0.99206 0
M  V30 3597 H 347.438 -4.12875 -2.05074 0
M  V30 3598 H 350.982 -6.97532 -0.0976774 0
M  V30 3599 H 346.879 -6.34955 -1.162 0
M  V30 3600 H 347.647 -8.18283 -0.188258 0
M  V30 3601 N 350.31 0.590341 -1.46126 0
M  V30 3602 C 351.273 1.68194 -1.55703 0
M  V30 3603 C 352.273 1.54808 -0.434868 0
M  V30 3604 O 353.463 1.59564 -0.698928 0
M  V30 3605 C 350.595 3.07575 -1.47005 0
M  V30 3606 H 351.788 1.61064 -2.52979 0
M  V30 3607 H 349.341 0.807541 -1.33823 0
M  V30 3608 H 350.076 3.20268 -0.509785 0
M  V30 3609 H 349.861 3.187 -2.28414 0
M  V30 3610 H 351.351 3.87055 -1.56776 0
M  V30 3611 N 351.788 1.33704 0.83433 0
M  V30 3612 C 353.034 1.26612 1.59188 0
M  V30 3613 C 353.389 -0.165439 1.91687 0
M  V30 3614 O 352.682 -1.10873 1.56262 0
M  V30 3615 C 352.876 2.07926 2.90692 0
M  V30 3616 C 352.705 3.58844 2.71038 0
M  V30 3617 C 351.475 4.28148 2.68361 0
M  V30 3618 C 353.673 4.53082 2.43353 0
M  V30 3619 N 351.655 5.64987 2.40132 0
M  V30 3620 C 353.026 5.77843 2.24716 0
M  V30 3621 C 355.081 4.42119 2.28987 0
M  V30 3622 C 353.784 6.92877 1.9317 0
M  V30 3623 C 355.81 5.56973 1.98835 0
M  V30 3624 C 355.172 6.80745 1.81012 0
M  V30 3625 H 351.271 0.518517 0.585375 0
M  V30 3626 H 353.855 1.68294 0.979044 0
M  V30 3627 H 352.026 1.68558 3.49918 0
M  V30 3628 H 353.758 1.92568 3.55949 0
M  V30 3629 H 350.513 3.80469 2.82029 0
M  V30 3630 H 350.937 6.37133 2.28889 0
M  V30 3631 H 355.579 3.47058 2.41477 0
M  V30 3632 H 353.297 7.87931 1.79418 0
M  V30 3633 H 356.883 5.50428 1.88468 0
M  V30 3634 H 355.763 7.68115 1.58017 0
M  V30 3635 N 353.266 -1.05314 1.17247 0
M  V30 3636 C 354.515 -1.77685 0.954521 0
M  V30 3637 C 354.828 -1.88616 -0.518025 0
M  V30 3638 O 356.034 -2.57714 -0.854144 0
M  V30 3639 C 354.49 -3.19402 1.65863 0
M  V30 3640 C 354.098 -3.16605 3.16963 0
M  V30 3641 C 355.842 -3.96237 1.52303 0
M  V30 3642 C 353.749 -4.53103 3.80068 0
M  V30 3643 H 352.679 -0.666 0.353496 0
M  V30 3644 H 355.33 -1.1805 1.40486 0
M  V30 3645 H 353.712 -3.79355 1.13602 0
M  V30 3646 H 354.886 -2.66176 3.76148 0
M  V30 3647 H 353.201 -2.53268 3.30521 0
M  V30 3648 H 355.798 -4.97157 1.96822 0
M  V30 3649 H 356.141 -4.136 0.473401 0
M  V30 3650 H 356.674 -3.42829 2.01775 0
M  V30 3651 H 353.413 -4.40946 4.85023 0
M  V30 3652 H 352.933 -5.03686 3.2567 0
M  V30 3653 H 354.612 -5.22045 3.82202 0
M  V30 3654 N 354.744 -0.972509 -1.24016 0
M  V30 3655 C 355.707 -0.511403 -2.23422 0
M  V30 3656 C 356.707 0.394679 -1.55881 0
M  V30 3657 O 357.897 0.189469 -1.73167 0
M  V30 3658 C 355.029 0.258769 -3.39916 0
M  V30 3659 H 356.222 -1.39024 -2.6573 0
M  V30 3660 H 353.775 -0.757585 -1.36713 0
M  V30 3661 H 354.51 1.1545 -3.03054 0
M  V30 3662 H 354.295 -0.391522 -3.9014 0
M  V30 3663 H 355.785 0.570244 -4.13688 0
M  V30 3664 N 356.222 1.38976 -0.743202 0
M  V30 3665 C 357.132 2.3434 -0.110399 0
M  V30 3666 C 358.148 1.58741 0.712559 0
M  V30 3667 O 359.324 1.9099 0.639125 0
M  V30 3668 C 356.389 3.37812 0.780012 0
M  V30 3669 C 355.45 4.29263 -0.0561319 0
M  V30 3670 C 354.683 5.27793 0.791875 0
M  V30 3671 O 354.906 5.33043 2.03031 0
M  V30 3672 O 353.84 6.01512 0.216183 0
M  V30 3673 H 357.666 2.90129 -0.897714 0
M  V30 3674 H 355.251 1.40643 -0.503966 0
M  V30 3675 H 357.133 4.01194 1.28923 0
M  V30 3676 H 355.808 2.84395 1.546 0
M  V30 3677 H 354.715 3.69076 -0.611056 0
M  V30 3678 H 356.048 4.85907 -0.784531 0
M  V30 3679 N 357.7 0.491464 1.49741 0
M  V30 3680 C 358.928 -0.0535151 2.06831 0
M  V30 3681 C 359.343 -1.31683 1.35296 0
M  V30 3682 O 358.7 -1.77402 0.42836 0
M  V30 3683 C 358.751 -0.320835 3.60073 0
M  V30 3684 O 358.472 0.892394 4.28915 0
M  V30 3685 C 359.973 -0.910519 4.33848 0
M  V30 3686 H 357.193 0.0161909 0.670805 0
M  V30 3687 H 359.737 0.68609 1.92647 0
M  V30 3688 H 357.892 -1.0104 3.73991 0
M  V30 3689 H 358.306 0.649401 5.20464 0
M  V30 3690 H 359.78 -1.04721 5.41976 0
M  V30 3691 H 360.257 -1.90589 3.95692 0
M  V30 3692 H 360.863 -0.258712 4.24512 0
M  V30 3693 N 359.178 -1.55987 0.224894 0
M  V30 3694 C 360.108 -2.23426 -0.678457 0
M  V30 3695 C 361.089 -1.20709 -1.19847 0
M  V30 3696 O 362.274 -1.49304 -1.24186 0
M  V30 3697 C 359.404 -2.91676 -1.88527 0
M  V30 3698 C 358.358 -4.00893 -1.49896 0
M  V30 3699 C 357.684 -4.56455 -2.78483 0
M  V30 3700 C 358.984 -5.17769 -0.686461 0
M  V30 3701 H 360.678 -2.99175 -0.116173 0
M  V30 3702 H 358.224 -1.43897 -0.054436 0
M  V30 3703 H 360.177 -3.37547 -2.5227 0
M  V30 3704 H 358.901 -2.1338 -2.47258 0
M  V30 3705 H 357.56 -3.55758 -0.884985 0
M  V30 3706 H 357.208 -3.74886 -3.35365 0
M  V30 3707 H 356.908 -5.30169 -2.53368 0
M  V30 3708 H 358.432 -5.05047 -3.43162 0
M  V30 3709 H 359.846 -5.60001 -1.22767 0
M  V30 3710 H 358.243 -5.97735 -0.532259 0
M  V30 3711 H 359.313 -4.83932 0.306196 0
M  V30 3712 N 360.656 0.0484629 -1.57525 0
M  V30 3713 C 361.606 1.06246 -2.01732 0
M  V30 3714 C 362.59 1.33155 -0.903245 0
M  V30 3715 O 363.782 1.33065 -1.16717 0
M  V30 3716 C 360.911 2.36943 -2.48421 0
M  V30 3717 C 359.997 2.13208 -3.6661 0
M  V30 3718 N 360.388 1.5947 -4.80003 0
M  V30 3719 C 358.686 2.43581 -3.7361 0
M  V30 3720 C 359.387 1.51092 -5.61735 0
M  V30 3721 N 358.363 1.9797 -5.0627 0
M  V30 3722 H 362.165 0.640675 -2.86832 0
M  V30 3723 H 359.679 0.255134 -1.60383 0
M  V30 3724 H 361.676 3.10374 -2.78341 0
M  V30 3725 H 360.336 2.79818 -1.64718 0
M  V30 3726 H 361.347 1.28008 -5.01831 0
M  V30 3727 H 358.024 2.89662 -3.00669 0
M  V30 3728 H 359.414 1.10199 -6.62801 0
M  V30 3729 N 362.134 1.5431 0.320358 0
M  V30 3730 C 363.55 1.45091 0.664889 0
M  V30 3731 C 363.75 0.626382 1.91517 0
M  V30 3732 O 362.806 0.126443 2.52183 0
M  V30 3733 C 364.119 2.88848 0.83591 0
M  V30 3734 C 365.667 2.9877 0.933046 0
M  V30 3735 C 366.142 4.43683 1.13621 0
M  V30 3736 N 367.633 4.47309 1.20287 0
M  V30 3737 C 368.368 5.56595 1.37801 0
M  V30 3738 N 367.864 6.75844 1.52338 0
M  V30 3739 N 369.657 5.44248 1.40535 0
M  V30 3740 H 361.808 2.06398 -0.501374 0
M  V30 3741 H 364.071 0.933963 -0.162534 0
M  V30 3742 H 363.777 3.51698 -0.0116092 0
M  V30 3743 H 363.651 3.35148 1.73078 0
M  V30 3744 H 366.038 2.36045 1.77107 0
M  V30 3745 H 366.119 2.55796 0.0145782 0
M  V30 3746 H 365.763 5.06995 0.303032 0
M  V30 3747 H 365.693 4.84269 2.0686 0
M  V30 3748 H 368.184 3.61388 1.10485 0
M  V30 3749 H 368.497 7.54892 1.65403 0
M  V30 3750 H 366.842 6.78746 1.4943 0
M  V30 3751 H 370.033 4.50038 1.28777 0
M  V30 3752 H 370.206 6.29473 1.53842 0
M  V30 3753 N 363.613 -0.582584 1.46437 0
M  V30 3754 C 364.563 -1.68654 1.53426 0
M  V30 3755 C 365.547 -1.55971 0.395194 0
M  V30 3756 O 366.739 -1.64884 0.643612 0
M  V30 3757 C 363.868 -3.07439 1.52762 0
M  V30 3758 C 362.954 -3.25418 2.71963 0
M  V30 3759 N 363.345 -3.13556 3.96883 0
M  V30 3760 C 361.643 -3.56357 2.68189 0
M  V30 3761 C 362.344 -3.33543 4.76575 0
M  V30 3762 N 361.32 -3.58704 4.08451 0
M  V30 3763 H 365.122 -1.58014 2.47808 0
M  V30 3764 H 362.636 -0.786617 1.42078 0
M  V30 3765 H 364.633 -3.86671 1.55857 0
M  V30 3766 H 363.293 -3.1921 0.594573 0
M  V30 3767 H 364.304 -2.9142 4.28129 0
M  V30 3768 H 360.981 -3.74812 1.83908 0
M  V30 3769 H 362.371 -3.29555 5.85528 0
M  V30 3770 N 365.091 -1.34144 -0.827227 0
M  V30 3771 C 366.041 -1.21923 -1.92663 0
M  V30 3772 C 367.025 -0.119294 -1.60457 0
M  V30 3773 O 368.217 -0.348539 -1.73534 0
M  V30 3774 C 365.346 -0.972492 -3.29238 0
M  V30 3775 C 364.432 -2.1154 -3.67576 0
M  V30 3776 N 364.823 -3.36627 -3.77512 0
M  V30 3777 C 363.121 -2.02468 -3.97395 0
M  V30 3778 C 363.822 -4.11658 -4.1099 0
M  V30 3779 N 362.798 -3.40207 -4.23981 0
M  V30 3780 H 366.6 -2.16721 -1.98517 0
M  V30 3781 H 364.114 -1.2632 -1.02064 0
M  V30 3782 H 366.111 -0.865847 -4.0781 0
M  V30 3783 H 364.771 -0.0331509 -3.24683 0
M  V30 3784 H 365.782 -3.71234 -3.61118 0
M  V30 3785 H 362.459 -1.16265 -4.00985 0
M  V30 3786 H 363.849 -5.19657 -4.25918 0
M  V30 3787 N 366.569 1.04691 -1.17803 0
M  V30 3788 C 367.815 1.78045 -0.970969 0
M  V30 3789 C 368.148 1.87686 0.498751 0
M  V30 3790 O 367.423 1.38035 1.37027 0
M  V30 3791 C 367.706 3.2166 -1.61884 0
M  V30 3792 C 367.559 3.20001 -3.161 0
M  V30 3793 C 368.878 4.1962 -1.3269 0
M  V30 3794 H 365.997 0.64633 -0.354155 0
M  V30 3795 H 368.639 1.22333 -1.45378 0
M  V30 3796 H 366.789 3.69232 -1.20831 0
M  V30 3797 H 368.461 2.80467 -3.66246 0
M  V30 3798 H 366.704 2.58203 -3.48588 0
M  V30 3799 H 367.375 4.21386 -3.56564 0
M  V30 3800 H 369.851 3.80567 -1.68249 0
M  V30 3801 H 368.727 5.18339 -1.80599 0
M  V30 3802 H 368.988 4.414 -0.248622 0
M  V30 3803 N 368.047 0.979072 1.23499 0
M  V30 3804 C 369.324 0.563674 1.87302 0
M  V30 3805 C 369.704 -0.959199 1.88049 0
M  V30 3806 O 369.052 -1.83535 1.36114 0
M  V30 3807 C 369.262 1.16822 3.28867 0
M  V30 3808 C 370.61 1.26014 4.0547 0
M  V30 3809 O 371.634 1.12158 3.38082 0
M  V30 3810 O 370.493 1.48044 5.26066 0
M  V30 3811 H 367.587 0.189602 0.804972 0
M  V30 3812 H 370.133 1.07407 1.31384 0
M  V30 3813 H 368.905 2.21049 3.22883 0
M  V30 3814 H 368.528 0.642564 3.92373 0
M  V30 3815 N 369.525 -1.3858 0.750561 0
M  V30 3816 C 370.755 -2.04175 0.31564 0
M  V30 3817 C 371.163 -1.56726 -1.05989 0
M  V30 3818 O 370.506 -0.734225 -1.68389 0
M  V30 3819 C 370.568 -3.58585 0.256389 0
M  V30 3820 C 370.232 -4.29077 1.57296 0
M  V30 3821 C 371.229 -4.54656 2.52159 0
M  V30 3822 C 368.914 -4.67324 1.84156 0
M  V30 3823 C 370.908 -5.17512 3.72103 0
M  V30 3824 C 368.595 -5.29905 3.04374 0
M  V30 3825 C 369.593 -5.54933 3.98168 0
M  V30 3826 O 369.281 -6.16212 5.16273 0
M  V30 3827 H 369.013 -0.662742 0.133226 0
M  V30 3828 H 371.567 -1.78313 1.01948 0
M  V30 3829 H 369.797 -3.83406 -0.503677 0
M  V30 3830 H 371.486 -4.05628 -0.148612 0
M  V30 3831 H 372.252 -4.25539 2.32683 0
M  V30 3832 H 368.131 -4.47191 1.11988 0
M  V30 3833 H 371.675 -5.36963 4.45327 0
M  V30 3834 H 367.572 -5.58444 3.23745 0
M  V30 3835 H 368.34 -6.34701 5.16815 0
M  V30 3836 N 371.003 -0.499398 -1.49478 0
M  V30 3837 C 372.28 0.108629 -1.95298 0
M  V30 3838 C 372.66 1.54282 -1.44084 0
M  V30 3839 O 372.008 2.18944 -0.653908 0
M  V30 3840 C 372.218 0.0229111 -3.48992 0
M  V30 3841 C 373.566 0.197643 -4.2414 0
M  V30 3842 O 374.59 0.0981735 -3.56065 0
M  V30 3843 O 373.449 0.401669 -5.45022 0
M  V30 3844 H 370.543 0.096181 -0.821388 0
M  V30 3845 H 373.089 -0.561822 -1.6013 0
M  V30 3846 H 371.861 -0.977321 -3.78899 0
M  V30 3847 H 371.484 0.733579 -3.90774 0
M  V30 3848 N 372.481 1.55866 -0.233164 0
M  V30 3849 C 373.727 1.98897 0.395959 0
M  V30 3850 C 374.06 1.12091 1.58585 0
M  V30 3851 O 373.335 0.181182 1.93654 0
M  V30 3852 C 373.618 3.50658 0.819224 0
M  V30 3853 C 373.471 4.48233 -0.375109 0
M  V30 3854 C 374.79 4.07135 1.67121 0
M  V30 3855 H 371.909 0.723102 0.142451 0
M  V30 3856 H 374.551 1.87082 -0.331725 0
M  V30 3857 H 372.701 3.60857 1.43925 0
M  V30 3858 H 374.373 4.50031 -1.01341 0
M  V30 3859 H 372.616 4.21624 -1.02058 0
M  V30 3860 H 373.287 5.51988 -0.0358328 0
M  V30 3861 H 375.763 3.99952 1.14795 0
M  V30 3862 H 374.639 5.13615 1.93625 0
M  V30 3863 H 374.9 3.54736 2.63846 0
M  V30 3864 N 373.959 -0.0401083 1.57549 0
M  V30 3865 C 375.206 -0.733125 1.88763 0
M  V30 3866 C 375.534 -1.75946 0.829058 0
M  V30 3867 O 374.789 -1.94949 -0.171323 0
M  V30 3868 C 375.088 -1.44902 3.26708 0
M  V30 3869 C 374.754 -0.559707 4.47413 0
M  V30 3870 C 373.416 -0.314731 4.8017 0
M  V30 3871 C 375.768 0.0549743 5.21171 0
M  V30 3872 C 373.096 0.553886 5.8408 0
M  V30 3873 C 375.448 0.911229 6.26003 0
M  V30 3874 C 374.112 1.16577 6.57241 0
M  V30 3875 H 373.382 -0.268269 0.690733 0
M  V30 3876 H 376.029 0.00679408 1.91499 0
M  V30 3877 H 374.334 -2.26197 3.1991 0
M  V30 3878 H 376.031 -1.99058 3.48105 0
M  V30 3879 H 372.621 -0.760793 4.21794 0
M  V30 3880 H 376.805 -0.121344 4.96152 0
M  V30 3881 H 372.061 0.759518 6.06664 0
M  V30 3882 H 376.235 1.3941 6.82303 0
M  V30 3883 H 373.862 1.84058 7.37582 0
M  V30 3884 N 375.437 -1.54477 -0.31217 0
M  V30 3885 C 376.4 -1.83923 -1.36766 0
M  V30 3886 C 377.4 -0.711563 -1.44199 0
M  V30 3887 O 378.59 -0.979866 -1.44029 0
M  V30 3888 C 375.722 -2.0095 -2.75376 0
M  V30 3889 H 376.915 -2.78239 -1.11906 0
M  V30 3890 H 374.468 -1.46369 -0.548257 0
M  V30 3891 H 375.203 -1.08883 -3.05475 0
M  V30 3892 H 374.988 -2.83018 -2.71373 0
M  V30 3893 H 376.478 -2.2514 -3.51713 0
M  V30 3894 N 376.915 0.57481 -1.46744 0
M  V30 3895 C 378.14 1.36341 -1.56288 0
M  V30 3896 C 378.565 1.86954 -0.207347 0
M  V30 3897 O 377.923 1.62006 0.813871 0
M  V30 3898 C 377.971 2.52147 -2.57787 0
M  V30 3899 O 377.075 3.53834 -2.11838 0
M  V30 3900 H 376.416 0.405713 -0.525636 0
M  V30 3901 H 378.946 0.696453 -1.92382 0
M  V30 3902 H 378.956 2.98958 -2.77648 0
M  V30 3903 H 377.631 2.14663 -3.5622 0
M  V30 3904 H 376.208 3.1345 -2.01999 0
M  V30 3905 N 378.394 1.34581 0.820102 0
M  V30 3906 C 379.619 1.30333 1.61332 0
M  V30 3907 C 380.044 -0.119339 1.87721 0
M  V30 3908 O 379.402 -1.08197 1.45475 0
M  V30 3909 C 379.45 2.10258 2.92957 0
M  V30 3910 O 378.554 1.47404 3.85157 0
M  V30 3911 H 377.895 0.447488 0.490561 0
M  V30 3912 H 380.425 1.77425 1.01889 0
M  V30 3913 H 380.435 2.21718 3.42498 0
M  V30 3914 H 379.11 3.13693 2.73074 0
M  V30 3915 H 377.687 1.44703 3.43679 0
M  V30 3916 N 379.872 -1.04064 1.18357 0
M  V30 3917 C 381.102 -1.80654 1.00238 0
M  V30 3918 C 381.51 -1.83713 -0.452362 0
M  V30 3919 O 380.853 -1.27135 -1.32599 0
M  V30 3920 C 380.915 -3.27582 1.48088 0
M  V30 3921 C 380.579 -3.48184 2.96002 0
M  V30 3922 C 381.576 -3.39372 3.93856 0
M  V30 3923 C 379.261 -3.7478 3.34433 0
M  V30 3924 C 381.255 -3.5686 5.28138 0
M  V30 3925 C 378.942 -3.91915 4.68877 0
M  V30 3926 C 379.94 -3.82956 5.65539 0
M  V30 3927 O 379.628 -3.996 6.97549 0
M  V30 3928 H 379.36 -0.575751 0.354241 0
M  V30 3929 H 381.914 -1.32044 1.57333 0
M  V30 3930 H 380.144 -3.77161 0.853588 0
M  V30 3931 H 381.833 -3.8573 1.2636 0
M  V30 3932 H 382.599 -3.18789 3.65511 0
M  V30 3933 H 378.478 -3.80852 2.59756 0
M  V30 3934 H 382.022 -3.49783 6.03571 0
M  V30 3935 H 377.919 -4.11992 4.96923 0
M  V30 3936 H 378.687 -4.1676 7.04452 0
M  V30 3937 N 381.35 -0.985608 -1.22978 0
M  V30 3938 C 382.58 -0.674603 -1.95276 0
M  V30 3939 C 382.988 0.763483 -1.73111 0
M  V30 3940 O 382.331 1.52601 -1.02268 0
M  V30 3941 C 382.393 -0.891597 -3.48268 0
M  V30 3942 C 382.057 -2.31275 -3.94158 0
M  V30 3943 C 383.054 -3.29179 -4.02415 0
M  V30 3944 C 380.739 -2.64524 -4.27004 0
M  V30 3945 C 382.733 -4.58407 -4.42879 0
M  V30 3946 C 380.42 -3.93974 -4.67149 0
M  V30 3947 C 381.418 -4.90727 -4.75053 0
M  V30 3948 O 381.106 -6.17865 -5.14294 0
M  V30 3949 H 380.838 -0.249251 -0.628371 0
M  V30 3950 H 383.392 -1.32106 -1.5728 0
M  V30 3951 H 381.622 -0.187962 -3.86243 0
M  V30 3952 H 383.311 -0.576957 -4.01779 0
M  V30 3953 H 384.077 -3.04823 -3.77237 0
M  V30 3954 H 379.956 -1.89923 -4.2006 0
M  V30 3955 H 383.5 -5.33926 -4.48964 0
M  V30 3956 H 379.397 -4.18122 -4.91777 0
M  V30 3957 H 380.165 -6.21694 -5.32389 0
M  V30 3958 N 382.828 1.3818 -0.7579 0
M  V30 3959 C 384.239 1.82726 -0.383134 0
M  V30 3960 C 384.59 1.63214 1.08884 0
M  V30 3961 O 383.715 1.13566 1.84205 0
M  V30 3962 C 384.31 3.31728 -0.688631 0
M  V30 3963 C 382.869 3.74606 -0.367091 0
M  V30 3964 C 382.016 2.60896 -0.939599 0
M  V30 3965 H 384.967 1.26847 -0.953699 0
M  V30 3966 H 384.988 3.80487 0.0316492 0
M  V30 3967 H 384.5 3.45898 -1.76001 0
M  V30 3968 H 382.601 3.66013 0.697532 0
M  V30 3969 H 382.714 4.71215 -0.865658 0
M  V30 3970 H 381.078 2.52075 -0.3647 0
M  V30 3971 H 381.861 2.77864 -2.0161 0
M  V30 3972 N 384.306 0.507319 1.49211 0
M  V30 3973 C 385.553 -0.0349529 2.0247 0
M  V30 3974 C 385.881 -1.36409 1.38647 0
M  V30 3975 O 385.136 -1.88841 0.513566 0
M  V30 3976 C 385.435 -0.229513 3.56662 0
M  V30 3977 C 385.101 1.02241 4.39156 0
M  V30 3978 C 383.763 1.36557 4.61417 0
M  V30 3979 C 386.115 1.85428 4.871 0
M  V30 3980 C 383.443 2.53999 5.28868 0
M  V30 3981 C 385.795 3.02028 5.55843 0
M  V30 3982 C 384.459 3.36717 5.76349 0
M  V30 3983 H 383.729 -0.0127902 0.74089 0
M  V30 3984 H 386.376 0.668756 1.79443 0
M  V30 3985 H 384.681 -1.0158 3.78403 0
M  V30 3986 H 386.378 -0.663641 3.9547 0
M  V30 3987 H 382.968 0.745124 4.22073 0
M  V30 3988 H 387.152 1.6023 4.69723 0
M  V30 3989 H 382.408 2.81105 5.42946 0
M  V30 3990 H 386.582 3.66808 5.91967 0
M  V30 3991 H 384.209 4.27821 6.28389 0
M  V30 3992 N 385.784 -1.5574 0.241426 0
M  V30 3993 C 387.03 -1.99846 -0.378555 0
M  V30 3994 C 387.385 -1.12665 -1.55963 0
M  V30 3995 O 386.678 -0.180966 -1.90743 0
M  V30 3996 C 386.872 -3.47308 -0.843317 0
M  V30 3997 C 386.701 -4.48756 0.291178 0
M  V30 3998 C 385.471 -4.9949 0.764077 0
M  V30 3999 C 387.669 -5.02039 1.11631 0
M  V30 4000 N 385.651 -5.84676 1.87156 0
M  V30 4001 C 387.022 -5.84343 2.07226 0
M  V30 4002 C 389.077 -4.84354 1.15349 0
M  V30 4003 C 387.78 -6.50851 3.06245 0
M  V30 4004 C 389.806 -5.51636 2.13195 0
M  V30 4005 C 389.168 -6.33724 3.07528 0
M  V30 4006 H 385.267 -0.774968 -0.104634 0
M  V30 4007 H 387.851 -1.91385 0.357751 0
M  V30 4008 H 386.022 -3.56178 -1.54893 0
M  V30 4009 H 387.754 -3.78299 -1.43779 0
M  V30 4010 H 384.509 -4.72311 0.349175 0
M  V30 4011 H 384.933 -6.31967 2.42789 0
M  V30 4012 H 389.575 -4.20525 0.438057 0
M  V30 4013 H 387.293 -7.1385 3.78739 0
M  V30 4014 H 390.879 -5.39909 2.16771 0
M  V30 4015 H 389.759 -6.84867 3.82003 0
M  V30 4016 N 387.262 0.0317525 -1.57568 0
M  V30 4017 C 388.212 1.04101 -2.02847 0
M  V30 4018 C 389.196 1.3219 -0.917317 0
M  V30 4019 O 390.388 1.31819 -1.18121 0
M  V30 4020 C 387.517 2.34295 -2.5092 0
M  V30 4021 C 386.603 2.09308 -3.68851 0
M  V30 4022 N 386.994 1.5437 -4.81667 0
M  V30 4023 C 385.292 2.39604 -3.76172 0
M  V30 4024 C 385.993 1.45126 -5.63306 0
M  V30 4025 N 384.969 1.92589 -5.08341 0
M  V30 4026 H 388.771 0.610217 -2.87495 0
M  V30 4027 H 386.285 0.238108 -1.60645 0
M  V30 4028 H 388.282 3.07404 -2.81617 0
M  V30 4029 H 386.942 2.78055 -1.67677 0
M  V30 4030 H 387.953 1.22678 -5.03161 0
M  V30 4031 H 384.63 2.86457 -3.03724 0
M  V30 4032 H 386.02 1.03163 -6.63933 0
M  V30 4033 N 388.74 1.54641 0.303973 0
M  V30 4034 C 389.988 1.73437 1.0375 0
M  V30 4035 C 390.309 0.521449 1.87899 0
M  V30 4036 O 389.579 -0.46432 1.90318 0
M  V30 4037 H 388.159 0.639518 0.386039 0
M  V30 4038 H 390.821 1.91988 0.335675 0
M  V30 4039 H 389.917 2.62235 1.69231 0
M  V30 4040 N 390.218 -0.567019 1.47046 0
M  V30 4041 C 391.446 -1.35027 1.56765 0
M  V30 4042 C 391.861 -1.8758 0.214316 0
M  V30 4043 O 391.218 -1.64471 -0.790919 0
M  V30 4044 C 391.269 -2.52698 2.58507 0
M  V30 4045 O 390.99 -2.0232 3.88585 0
M  V30 4046 C 392.491 -3.45043 2.78316 0
M  V30 4047 H 389.711 -0.41195 0.529658 0
M  V30 4048 H 392.255 -0.687832 1.92585 0
M  V30 4049 H 390.41 -3.149 2.25648 0
M  V30 4050 H 390.824 -2.79068 4.44096 0
M  V30 4051 H 392.298 -4.2405 3.53391 0
M  V30 4052 H 392.775 -3.97971 1.85784 0
M  V30 4053 H 393.381 -2.88665 3.12334 0
M  V30 4054 N 391.696 -1.35014 -0.812953 0
M  V30 4055 C 392.626 -1.30069 -1.93919 0
M  V30 4056 C 393.607 -0.176275 -1.69184 0
M  V30 4057 O 394.792 -0.370227 -1.90638 0
M  V30 4058 C 391.922 -1.06547 -3.30552 0
M  V30 4059 C 390.876 -2.15561 -3.69753 0
M  V30 4060 C 390.202 -1.77214 -5.04479 0
M  V30 4061 C 391.502 -3.57476 -3.808 0
M  V30 4062 H 393.196 -2.24303 -1.98314 0
M  V30 4063 H 390.742 -1.07977 -0.952736 0
M  V30 4064 H 392.695 -1.01729 -4.08937 0
M  V30 4065 H 391.419 -0.0875719 -3.26483 0
M  V30 4066 H 390.078 -2.19466 -2.9365 0
M  V30 4067 H 389.726 -0.780589 -4.96906 0
M  V30 4068 H 389.426 -2.50184 -5.31678 0
M  V30 4069 H 390.95 -1.7391 -5.8531 0
M  V30 4070 H 392.364 -3.55929 -4.4943 0
M  V30 4071 H 390.761 -4.29152 -4.19462 0
M  V30 4072 H 391.831 -3.94091 -2.82525 0
M  V30 4073 N 393.175 1.03435 -1.18907 0
M  V30 4074 C 394.122 2.11591 -0.921837 0
M  V30 4075 C 395.092 1.65499 0.141226 0
M  V30 4076 O 396.277 1.908 0.000242829 0
M  V30 4077 C 393.417 3.42012 -0.460616 0
M  V30 4078 C 392.53 4.01682 -1.58982 0
M  V30 4079 C 391.665 5.20091 -1.08069 0
M  V30 4080 C 390.704 5.71805 -2.18416 0
M  V30 4081 N 389.841 6.81494 -1.68849 0
M  V30 4082 H 394.681 2.33787 -1.8479 0
M  V30 4083 H 392.218 1.1467 -0.921373 0
M  V30 4084 H 394.176 4.16834 -0.174642 0
M  V30 4085 H 392.806 3.19944 0.428467 0
M  V30 4086 H 391.858 3.24127 -1.99113 0
M  V30 4087 H 393.17 4.36084 -2.4214 0
M  V30 4088 H 392.324 6.02051 -0.749615 0
M  V30 4089 H 391.063 4.87209 -0.218771 0
M  V30 4090 H 390.068 4.88461 -2.5236 0
M  V30 4091 H 391.293 6.06728 -3.05054 0
M  V30 4092 H 389.239 6.50475 -0.849572 0
M  V30 4093 H 389.156 7.14994 -2.45601 0
M  V30 4094 H 390.424 7.67063 -1.38689 0
M  V30 4095 N 394.653 0.992116 1.22453 0
M  V30 4096 C 395.601 0.534644 2.26372 0
M  V30 4097 C 396.595 -0.414293 1.64256 0
M  V30 4098 O 397.801 -0.286899 1.77699 0
M  V30 4099 H 394.176 0.154502 0.735957 0
M  V30 4100 H 396.147 1.42256 2.62309 0
M  V30 4101 C 394.896 -0.135815 3.47435 0
M  V30 4102 H 394.219 0.585311 3.95492 0
M  V30 4103 H 395.659 -0.419374 4.21921 0
M  V30 4104 C 394.118 -1.37089 3.07747 0
M  V30 4105 O 394.648 -2.46629 3.17076 0
M  V30 4106 N 392.854 -1.24585 2.62539 0
M  V30 4107 H 392.401 -0.354542 2.55149 0
M  V30 4108 H 392.359 -2.07327 2.36353 0
M  V30 4109 N 396.131 -1.37776 0.765217 0
M  V30 4110 C 397.061 -2.32945 0.160953 0
M  V30 4111 C 398.042 -1.55454 -0.690516 0
M  V30 4112 O 399.227 -1.83721 -0.629318 0
M  V30 4113 C 396.357 -3.39669 -0.724031 0
M  V30 4114 C 395.311 -4.27992 0.0256173 0
M  V30 4115 C 394.637 -5.25673 -0.978383 0
M  V30 4116 C 395.937 -5.08309 1.20082 0
M  V30 4117 H 397.631 -2.83728 0.955969 0
M  V30 4118 H 395.177 -1.36416 0.461149 0
M  V30 4119 H 397.13 -4.05219 -1.15652 0
M  V30 4120 H 395.854 -2.87396 -1.5515 0
M  V30 4121 H 394.513 -3.63964 0.438812 0
M  V30 4122 H 394.161 -4.69682 -1.80022 0
M  V30 4123 H 393.861 -5.85625 -0.481378 0
M  V30 4124 H 395.385 -5.94098 -1.40995 0
M  V30 4125 H 396.799 -5.67034 0.845307 0
M  V30 4126 H 395.196 -5.77554 1.62947 0
M  V30 4127 H 396.266 -4.41365 2.00811 0
M  V30 4128 N 397.609 -0.515225 -1.4894 0
M  V30 4129 C 398.837 0.0206034 -2.0689 0
M  V30 4130 C 399.252 1.29514 -1.37374 0
M  V30 4131 O 398.609 1.76698 -0.456529 0
M  V30 4132 C 398.66 0.26351 -3.60538 0
M  V30 4133 O 398.381 -0.960517 -4.27441 0
M  V30 4134 C 399.882 0.841383 -4.35242 0
M  V30 4135 H 397.102 -0.0268608 -0.670462 0
M  V30 4136 H 399.646 -0.716651 -1.91532 0
M  V30 4137 H 397.801 0.950777 -3.75552 0
M  V30 4138 H 398.215 -0.73212 -5.19365 0
M  V30 4139 H 399.689 0.96085 -5.43573 0
M  V30 4140 H 400.166 1.8427 -3.98674 0
M  V30 4141 H 400.772 0.191143 -4.2487 0
M  V30 4142 N 399.087 1.5561 -0.249682 0
M  V30 4143 C 400.312 2.03865 0.381305 0
M  V30 4144 C 400.737 1.12769 1.50548 0
M  V30 4145 O 400.095 0.121189 1.80895 0
M  V30 4146 C 400.143 3.50101 0.863816 0
M  V30 4147 O 399.247 3.62132 1.97318 0
M  V30 4148 H 398.588 0.658827 0.0827194 0
M  V30 4149 H 401.118 2.01105 -0.376552 0
M  V30 4150 H 401.128 3.90975 1.1663 0
M  V30 4151 H 399.803 4.1588 0.0411816 0
M  V30 4152 H 398.38 3.33155 1.67517 0
M  V30 4153 N 400.565 -0.0233959 1.57583 0
M  V30 4154 C 401.811 -0.714119 1.89811 0
M  V30 4155 C 402.144 -1.74702 0.848113 0
M  V30 4156 O 401.419 -1.94023 -0.136135 0
M  V30 4157 C 401.702 -1.37853 3.32669 0
M  V30 4158 C 401.555 -0.358764 4.48367 0
M  V30 4159 C 402.874 -2.31101 3.7454 0
M  V30 4160 H 399.993 -0.25814 0.690314 0
M  V30 4161 H 402.635 0.0230927 1.89986 0
M  V30 4162 H 400.785 -2.00689 3.3265 0
M  V30 4163 H 402.457 0.268115 4.6052 0
M  V30 4164 H 400.7 0.321387 4.32608 0
M  V30 4165 H 401.371 -0.862242 5.45224 0
M  V30 4166 H 403.847 -1.78304 3.75961 0
M  V30 4167 H 402.723 -2.74567 4.75294 0
M  V30 4168 H 402.984 -3.18018 3.0711 0
M  V30 4169 N 402.043 -1.548 -0.295768 0
M  V30 4170 C 402.973 -1.89115 -1.36959 0
M  V30 4171 C 403.954 -0.75059 -1.52644 0
M  V30 4172 O 405.139 -1.00678 -1.66065 0
M  V30 4173 C 402.269 -2.14307 -2.73295 0
M  V30 4174 C 401.223 -3.30151 -2.72368 0
M  V30 4175 C 400.549 -3.40772 -4.12042 0
M  V30 4176 C 401.849 -4.67126 -2.33646 0
M  V30 4177 H 403.543 -2.79053 -1.08488 0
M  V30 4178 H 401.089 -1.34266 -0.520443 0
M  V30 4179 H 403.042 -2.36898 -3.48507 0
M  V30 4180 H 401.766 -1.21145 -3.03301 0
M  V30 4181 H 400.425 -3.0749 -1.99613 0
M  V30 4182 H 400.073 -2.45117 -4.39234 0
M  V30 4183 H 399.773 -4.18645 -4.12322 0
M  V30 4184 H 401.297 -3.6563 -4.89027 0
M  V30 4185 H 402.711 -4.89414 -2.98575 0
M  V30 4186 H 401.108 -5.47751 -2.45129 0
M  V30 4187 H 402.178 -4.67489 -1.28772 0
M  V30 4188 N 403.521 0.559213 -1.47345 0
M  V30 4189 C 404.749 1.34194 -1.57479 0
M  V30 4190 C 405.164 1.87463 -0.224261 0
M  V30 4191 O 404.521 1.64888 0.782185 0
M  V30 4192 C 404.572 2.51324 -2.59843 0
M  V30 4193 O 404.293 2.00256 -3.89653 0
M  V30 4194 C 405.794 3.43563 -2.80142 0
M  V30 4195 H 403.014 0.409136 -0.531835 0
M  V30 4196 H 405.558 0.677609 -1.92947 0
M  V30 4197 H 403.713 3.13699 -2.27314 0
M  V30 4198 H 404.127 2.76708 -4.4557 0
M  V30 4199 H 405.601 4.2217 -3.55635 0
M  V30 4200 H 406.078 3.9698 -1.87892 0
M  V30 4201 H 406.684 2.87005 -3.1386 0
M  V30 4202 N 404.999 1.35443 0.805782 0
M  V30 4203 C 406.224 1.32037 1.59941 0
M  V30 4204 C 406.649 -0.0994215 1.87837 0
M  V30 4205 O 406.007 -1.06648 1.46615 0
M  V30 4206 C 406.055 2.13354 2.90711 0
M  V30 4207 O 405.159 1.5148 3.83572 0
M  V30 4208 H 404.5 0.452666 0.485787 0
M  V30 4209 H 407.03 1.78496 1.00002 0
M  V30 4210 H 407.04 2.25338 3.40128 0
M  V30 4211 H 405.715 3.16572 2.69732 0
M  V30 4212 H 404.292 1.4834 3.42125 0
M  V30 4213 N 406.477 -1.02803 1.19454 0
M  V30 4214 C 407.723 -1.76478 0.999171 0
M  V30 4215 C 408.056 -1.88456 -0.468828 0
M  V30 4216 O 407.331 -1.40198 -1.34814 0
M  V30 4217 C 407.614 -3.19044 1.66981 0
M  V30 4218 C 407.467 -3.14932 3.21151 0
M  V30 4219 C 408.786 -4.17456 1.39349 0
M  V30 4220 H 405.905 -0.640614 0.364393 0
M  V30 4221 H 408.547 -1.20005 1.47305 0
M  V30 4222 H 406.697 -3.67263 1.2669 0
M  V30 4223 H 408.369 -2.74605 3.70661 0
M  V30 4224 H 406.612 -2.52625 3.52652 0
M  V30 4225 H 407.283 -4.1566 3.63223 0
M  V30 4226 H 409.759 -3.77842 1.74283 0
M  V30 4227 H 408.635 -5.154 1.88823 0
M  V30 4228 H 408.896 -4.40949 0.318813 0
M  V30 4229 N 407.956 -0.998596 -1.21925 0
M  V30 4230 C 408.919 -0.558679 -2.22287 0
M  V30 4231 C 409.919 0.361525 -1.56683 0
M  V30 4232 O 411.109 0.152695 -1.73529 0
M  V30 4233 C 408.241 0.18661 -3.40389 0
M  V30 4234 H 409.434 -1.4463 -2.62721 0
M  V30 4235 H 406.987 -0.786413 -1.35075 0
M  V30 4236 H 407.722 1.08996 -3.05435 0
M  V30 4237 H 407.507 -0.474188 -3.89222 0
M  V30 4238 H 408.997 0.482367 -4.14805 0
M  V30 4239 N 409.434 1.37368 -0.772513 0
M  V30 4240 C 410.711 1.93839 -0.26188 0
M  V30 4241 C 411.091 1.7061 1.24319 0
M  V30 4242 O 410.439 1.05534 2.02669 0
M  V30 4243 C 410.649 3.43154 -0.636102 0
M  V30 4244 C 411.997 4.20249 -0.606324 0
M  V30 4245 O 413.021 3.5152 -0.575538 0
M  V30 4246 O 411.88 5.42809 -0.634086 0
M  V30 4247 H 408.974 0.82478 -0.0605555 0
M  V30 4248 H 411.52 1.4665 -0.853917 0
M  V30 4249 H 410.292 3.53647 -1.6748 0
M  V30 4250 H 409.915 3.97596 -0.0170516 0
M  V30 4251 N 410.912 0.523116 1.48665 0
M  V30 4252 C 412.14 -0.0096312 2.06898 0
M  V30 4253 C 412.555 -1.28784 1.38059 0
M  V30 4254 O 411.912 -1.76453 0.465893 0
M  V30 4255 C 411.963 -0.244386 3.60673 0
M  V30 4256 O 411.684 0.983172 4.26925 0
M  V30 4257 C 413.185 -0.818289 4.35682 0
M  V30 4258 H 410.405 0.0304161 0.67031 0
M  V30 4259 H 412.949 0.726799 1.91149 0
M  V30 4260 H 411.104 -0.930847 3.76051 0
M  V30 4261 H 411.518 0.759653 5.1897 0
M  V30 4262 H 412.992 -0.93201 5.44075 0
M  V30 4263 H 413.469 -1.82153 3.99646 0
M  V30 4264 H 414.075 -0.168609 4.24966 0
M  V30 4265 N 412.39 -1.55475 0.257931 0
M  V30 4266 C 413.62 -2.03314 -0.367026 0
M  V30 4267 C 414.028 -1.13625 -1.51281 0
M  V30 4268 O 413.371 -0.145334 -1.83124 0
M  V30 4269 C 413.433 -3.47362 -0.926284 0
M  V30 4270 C 413.097 -4.56914 0.0886584 0
M  V30 4271 C 414.094 -5.12013 0.902123 0
M  V30 4272 C 411.779 -5.01827 0.217936 0
M  V30 4273 C 413.773 -6.10529 1.83122 0
M  V30 4274 C 411.46 -6.00172 1.15052 0
M  V30 4275 C 412.458 -6.54402 1.95568 0
M  V30 4276 O 412.146 -7.50827 2.87253 0
M  V30 4277 H 411.878 -0.669976 -0.0900443 0
M  V30 4278 H 414.432 -2.01804 0.382673 0
M  V30 4279 H 412.662 -3.46056 -1.72575 0
M  V30 4280 H 414.351 -3.78637 -1.46249 0
M  V30 4281 H 415.117 -4.78139 0.812891 0
M  V30 4282 H 410.996 -4.59272 -0.398721 0
M  V30 4283 H 414.54 -6.52783 2.46008 0
M  V30 4284 H 410.437 -6.33465 1.24064 0
M  V30 4285 H 411.205 -7.68483 2.81739 0
M  V30 4286 N 413.868 0.0150385 -1.57593 0
M  V30 4287 C 415.116 0.701613 -1.8953 0
M  V30 4288 C 415.437 1.75139 -0.857396 0
M  V30 4289 O 414.707 1.95607 0.107194 0
M  V30 4290 H 413.287 0.26213 -0.699498 0
M  V30 4291 H 415.949 -0.0223304 -1.94887 0
M  V30 4292 H 415.045 1.18236 -2.88837 0
M  V30 4293 N 415.346 1.54954 0.287554 0
M  V30 4294 C 416.293 1.86834 1.35505 0
M  V30 4295 C 417.263 0.718452 1.49758 0
M  V30 4296 O 418.448 0.968358 1.644 0
M  V30 4297 C 415.588 2.13303 2.71286 0
M  V30 4298 C 414.701 3.40883 2.65373 0
M  V30 4299 C 413.836 3.57125 3.93236 0
M  V30 4300 C 412.875 4.78449 3.81776 0
M  V30 4301 N 412.012 4.91426 5.01443 0
M  V30 4302 H 416.852 2.77889 1.07619 0
M  V30 4303 H 414.389 1.37593 0.520241 0
M  V30 4304 H 416.347 2.26646 3.50267 0
M  V30 4305 H 414.977 1.25499 2.97405 0
M  V30 4306 H 414.029 3.36088 1.78182 0
M  V30 4307 H 415.341 4.29993 2.52799 0
M  V30 4308 H 414.495 3.70207 4.80658 0
M  V30 4309 H 413.234 2.66173 4.0866 0
M  V30 4310 H 412.239 4.65386 2.92738 0
M  V30 4311 H 413.464 5.70822 3.67884 0
M  V30 4312 H 411.41 4.03401 5.17304 0
M  V30 4313 H 411.327 5.74559 4.91343 0
M  V30 4314 H 412.595 5.08879 5.90477 0
M  V30 4315 N 416.824 -0.551391 1.4764 0
M  V30 4316 C 417.771 -1.65796 1.60563 0
M  V30 4317 C 418.741 -1.59932 0.448428 0
M  V30 4318 O 419.926 -1.78679 0.669222 0
M  V30 4319 C 417.066 -3.04108 1.63133 0
M  V30 4320 C 416.179 -3.20365 2.89811 0
M  V30 4321 C 415.314 -4.49109 2.8368 0
M  V30 4322 C 414.353 -4.58819 4.05156 0
M  V30 4323 N 413.49 -5.78926 3.97227 0
M  V30 4324 H 418.33 -1.54088 2.5507 0
M  V30 4325 H 415.867 -0.75052 1.26513 0
M  V30 4326 H 417.825 -3.84207 1.62606 0
M  V30 4327 H 416.455 -3.14637 0.721341 0
M  V30 4328 H 415.507 -2.33659 3.00179 0
M  V30 4329 H 416.819 -3.23402 3.79753 0
M  V30 4330 H 415.973 -5.37475 2.81434 0
M  V30 4331 H 414.712 -4.4856 1.91431 0
M  V30 4332 H 413.717 -3.68864 4.077 0
M  V30 4333 H 414.942 -4.61124 4.98539 0
M  V30 4334 H 412.888 -5.79314 3.07785 0
M  V30 4335 H 412.805 -5.83367 4.80853 0
M  V30 4336 H 414.073 -6.69637 3.99007 0
M  V30 4337 N 418.302 -1.35869 -0.798587 0
M  V30 4338 C 419.548 -1.2978 -1.55836 0
M  V30 4339 C 419.881 0.125322 -1.93795 0
M  V30 4340 O 419.156 1.07658 -1.61987 0
M  V30 4341 C 419.439 -2.21188 -2.84162 0
M  V30 4342 C 419.292 -3.72155 -2.52628 0
M  V30 4343 C 420.611 -2.11545 -3.85923 0
M  V30 4344 H 417.73 -0.472769 -0.565383 0
M  V30 4345 H 420.372 -1.66341 -0.918192 0
M  V30 4346 H 418.522 -1.90139 -3.38791 0
M  V30 4347 H 420.194 -4.13682 -2.04121 0
M  V30 4348 H 418.437 -3.92042 -1.85704 0
M  V30 4349 H 419.108 -4.31511 -3.44242 0
M  V30 4350 H 421.584 -2.38855 -3.40716 0
M  V30 4351 H 420.46 -2.77688 -4.73477 0
M  V30 4352 H 420.721 -1.09987 -4.282 0
M  V30 4353 N 419.78 1.02168 -1.19998 0
M  V30 4354 C 420.713 2.10232 -0.887558 0
M  V30 4355 C 421.691 1.61827 0.158317 0
M  V30 4356 O 422.875 1.88471 0.0330249 0
M  V30 4357 C 420.002 3.37092 -0.32964 0
M  V30 4358 C 419.048 4.0438 -1.3557 0
M  V30 4359 S 419.881 4.48956 -2.91888 0
M  V30 4360 C 421.037 5.79024 -2.37658 0
M  V30 4361 H 421.27 2.36409 -1.80272 0
M  V30 4362 H 418.803 1.15211 -1.0279 0
M  V30 4363 H 420.761 4.10498 -0.0142824 0
M  V30 4364 H 419.422 3.08996 0.563941 0
M  V30 4365 H 418.615 4.95632 -0.9146 0
M  V30 4366 H 418.217 3.37176 -1.61828 0
M  V30 4367 H 420.509 6.53942 -1.77103 0
M  V30 4368 H 421.452 6.27924 -3.27287 0
M  V30 4369 H 421.86 5.35043 -1.79971 0
M  V30 4370 N 421.258 1.00505 1.21394 0
M  V30 4371 C 422.504 0.688793 1.90745 0
M  V30 4372 C 422.837 -0.778486 1.77914 0
M  V30 4373 O 422.112 -1.56433 1.15581 0
M  V30 4374 C 422.395 1.11063 3.42545 0
M  V30 4375 C 422.248 2.63737 3.64367 0
M  V30 4376 C 423.567 0.673059 4.34923 0
M  V30 4377 H 420.686 0.251702 0.692687 0
M  V30 4378 H 423.328 1.25074 1.43026 0
M  V30 4379 H 421.478 0.632508 3.83317 0
M  V30 4380 H 423.15 3.19313 3.32922 0
M  V30 4381 H 421.393 3.05248 3.08231 0
M  V30 4382 H 422.064 2.88305 4.70727 0
M  V30 4383 H 424.54 1.08392 4.01734 0
M  V30 4384 H 423.416 0.996383 5.39781 0
M  V30 4385 H 423.677 -0.425808 4.40045 0
M  V30 4386 N 422.737 -1.36956 0.779787 0
M  V30 4387 C 423.7 -2.2851 0.177662 0
M  V30 4388 C 424.7 -1.48393 -0.619377 0
M  V30 4389 O 425.89 -1.68505 -0.441785 0
M  V30 4390 C 423.022 -3.32428 -0.755279 0
M  V30 4391 H 424.215 -2.83269 0.984823 0
M  V30 4392 H 421.768 -1.46358 0.548544 0
M  V30 4393 H 422.503 -2.82808 -1.58714 0
M  V30 4394 H 422.288 -3.91659 -0.185817 0
M  V30 4395 H 423.778 -4.00824 -1.17174 0
M  V30 4396 N 424.215 -0.530993 -1.48385 0
M  V30 4397 C 425.125 0.23503 -2.3342 0
M  V30 4398 C 426.141 0.93801 -1.46552 0
M  V30 4399 O 427.317 0.912745 -1.7953 0
M  V30 4400 C 424.382 1.26778 -3.22689 0
M  V30 4401 C 423.443 0.575038 -4.25431 0
M  V30 4402 C 422.676 1.55858 -5.10435 0
M  V30 4403 O 422.899 2.79129 -4.97437 0
M  V30 4404 O 421.833 1.09742 -5.91811 0
M  V30 4405 H 425.659 -0.461794 -3.00169 0
M  V30 4406 H 423.244 -0.291903 -1.46521 0
M  V30 4407 H 425.126 1.86457 -3.77904 0
M  V30 4408 H 423.801 1.94699 -2.586 0
M  V30 4409 H 422.708 -0.0622782 -3.74048 0
M  V30 4410 H 424.041 -0.062253 -4.92161 0
M  V30 4411 N 425.693 1.55336 -0.266172 0
M  V30 4412 C 426.921 2.03801 0.356756 0
M  V30 4413 C 427.336 1.14485 1.50129 0
M  V30 4414 O 426.693 0.163121 1.8177 0
M  V30 4415 C 426.744 3.51455 0.846281 0
M  V30 4416 O 426.465 4.37371 -0.252663 0
M  V30 4417 C 427.966 4.15767 1.53794 0
M  V30 4418 H 425.186 0.665906 0.0825218 0
M  V30 4419 H 427.73 2.00636 -0.39566 0
M  V30 4420 H 425.885 3.55092 1.54881 0
M  V30 4421 H 426.299 5.24358 0.122173 0
M  V30 4422 H 427.773 5.20714 1.83198 0
M  V30 4423 H 428.25 3.63404 2.46646 0
M  V30 4424 H 428.856 4.16107 0.879488 0
M  V30 4425 N 427.171 -0.0066808 1.57599 0
M  V30 4426 C 428.396 -0.707738 1.94951 0
M  V30 4427 C 428.821 -1.66882 0.867868 0
M  V30 4428 O 428.179 -1.80457 -0.17458 0
M  V30 4429 C 428.227 -1.42162 3.31394 0
M  V30 4430 O 427.331 -2.53578 3.25226 0
M  V30 4431 H 426.672 -0.188752 0.636607 0
M  V30 4432 H 429.202 0.0445193 2.04552 0
M  V30 4433 H 429.212 -1.78655 3.66806 0
M  V30 4434 H 427.887 -0.716903 4.09675 0
M  V30 4435 H 426.464 -2.19463 3.01481 0
M  V30 4436 N 428.649 -1.55105 -0.279332 0
M  V30 4437 C 429.879 -1.7917 -1.02867 0
M  V30 4438 C 430.287 -0.56204 -1.80659 0
M  V30 4439 O 429.63 0.478266 -1.77365 0
M  V30 4440 C 429.692 -2.96061 -2.03932 0
M  V30 4441 C 429.356 -4.33341 -1.45137 0
M  V30 4442 C 430.353 -5.12565 -0.870266 0
M  V30 4443 C 428.038 -4.79987 -1.48048 0
M  V30 4444 C 430.032 -6.36565 -0.326097 0
M  V30 4445 C 427.719 -6.03944 -0.932443 0
M  V30 4446 C 428.717 -6.8207 -0.356247 0
M  V30 4447 O 428.405 -8.03691 0.183412 0
M  V30 4448 H 428.137 -0.600796 -0.309872 0
M  V30 4449 H 430.691 -2.02932 -0.317468 0
M  V30 4450 H 428.921 -2.67975 -2.78794 0
M  V30 4451 H 430.61 -3.07506 -2.64943 0
M  V30 4452 H 431.376 -4.77661 -0.840521 0
M  V30 4453 H 427.255 -4.1919 -1.91835 0
M  V30 4454 H 430.799 -6.97489 0.124286 0
M  V30 4455 H 426.696 -6.3833 -0.959407 0
M  V30 4456 H 427.464 -8.18468 0.0721681 0
M  V30 4457 N 430.127 0.543554 -1.4793 0
M  V30 4458 C 431.355 1.32516 -1.58894 0
M  V30 4459 C 431.77 1.87215 -0.244131 0
M  V30 4460 O 431.127 1.65709 0.764652 0
M  V30 4461 C 431.178 2.48554 -2.62494 0
M  V30 4462 O 430.899 1.96112 -3.91755 0
M  V30 4463 C 432.4 3.40572 -2.8377 0
M  V30 4464 H 429.62 0.403472 -0.536145 0
M  V30 4465 H 432.164 0.657106 -1.93655 0
M  V30 4466 H 430.319 3.1127 -2.30629 0
M  V30 4467 H 430.733 2.71967 -4.4848 0
M  V30 4468 H 432.207 4.18375 -3.60093 0
M  V30 4469 H 432.684 3.94965 -1.92092 0
M  V30 4470 H 433.29 2.8366 -3.16887 0
M  V30 4471 N 431.605 1.3629 0.791371 0
M  V30 4472 C 432.835 1.33368 1.57786 0
M  V30 4473 C 433.243 -0.0875188 1.88997 0
M  V30 4474 O 432.586 -1.05427 1.50435 0
M  V30 4475 C 432.648 2.08802 2.92646 0
M  V30 4476 C 432.312 3.57903 2.84174 0
M  V30 4477 C 433.309 4.52191 2.56553 0
M  V30 4478 C 430.994 4.00762 3.02812 0
M  V30 4479 C 432.988 5.87315 2.47669 0
M  V30 4480 C 430.675 5.35977 2.93551 0
M  V30 4481 C 431.673 6.29066 2.66017 0
M  V30 4482 O 431.361 7.61798 2.56746 0
M  V30 4483 H 431.093 0.459166 0.496128 0
M  V30 4484 H 433.647 1.79952 0.990269 0
M  V30 4485 H 431.877 1.56878 3.53449 0
M  V30 4486 H 433.566 1.98762 3.53904 0
M  V30 4487 H 434.332 4.20393 2.41858 0
M  V30 4488 H 430.211 3.2868 3.2325 0
M  V30 4489 H 433.755 6.59943 2.26099 0
M  V30 4490 H 429.652 5.67384 3.07808 0
M  V30 4491 H 430.42 7.71898 2.72242 0
M  V30 4492 N 433.083 -1.0153 1.20538 0
M  V30 4493 C 434.311 -1.78746 1.04199 0
M  V30 4494 C 434.726 -1.84323 -0.408733 0
M  V30 4495 O 434.083 -1.29714 -1.28377 0
M  V30 4496 C 434.134 -3.23152 1.62035 0
M  V30 4497 O 433.855 -3.17918 3.0143 0
M  V30 4498 C 435.356 -4.16911 1.50666 0
M  V30 4499 H 432.576 -0.56208 0.366479 0
M  V30 4500 H 435.12 -1.27794 1.59653 0
M  V30 4501 H 433.275 -3.71248 1.10697 0
M  V30 4502 H 433.689 -4.08567 3.28897 0
M  V30 4503 H 435.163 -5.16072 1.95892 0
M  V30 4504 H 435.64 -4.36791 0.459363 0
M  V30 4505 H 436.246 -3.74698 2.01201 0
M  V30 4506 N 434.561 -1.01147 -1.20859 0
M  V30 4507 C 435.524 -0.582224 -2.21682 0
M  V30 4508 C 436.524 0.344887 -1.57058 0
M  V30 4509 O 437.714 0.134281 -1.73682 0
M  V30 4510 C 434.846 0.150496 -3.40568 0
M  V30 4511 H 436.039 -1.47408 -2.61172 0
M  V30 4512 H 433.592 -0.800695 -1.34233 0
M  V30 4513 H 434.327 1.0575 -3.06574 0
M  V30 4514 H 434.112 -0.515444 -3.88697 0
M  V30 4515 H 435.602 0.438344 -4.15293 0
M  V30 4516 N 436.039 1.36541 -0.78704 0
M  V30 4517 C 436.949 2.3387 -0.184896 0
M  V30 4518 C 437.965 1.60927 0.661697 0
M  V30 4519 O 439.141 1.92927 0.57804 0
M  V30 4520 C 436.206 3.40122 0.672145 0
M  V30 4521 C 435.267 4.28867 -0.19267 0
M  V30 4522 C 434.5 5.30045 0.623561 0
M  V30 4523 O 434.723 5.39232 1.8597 0
M  V30 4524 O 433.657 6.01895 0.0247068 0
M  V30 4525 H 437.483 2.87126 -0.989562 0
M  V30 4526 H 435.068 1.38969 -0.548455 0
M  V30 4527 H 436.95 4.05093 1.16094 0
M  V30 4528 H 435.625 2.89169 1.45474 0
M  V30 4529 H 434.532 3.66945 -0.728166 0
M  V30 4530 H 435.865 4.83165 -0.938722 0
M  V30 4531 N 437.518 0.538854 1.48102 0
M  V30 4532 C 438.795 -0.0568108 1.95517 0
M  V30 4533 C 439.175 -1.50408 1.48124 0
M  V30 4534 O 438.523 -2.17133 0.711727 0
M  V30 4535 C 438.733 0.0696262 3.48931 0
M  V30 4536 C 440.081 -0.0851202 4.24515 0
M  V30 4537 O 441.105 -0.0037347 3.562 0
M  V30 4538 O 439.964 -0.257025 5.45895 0
M  V30 4539 H 437.058 -0.0743695 0.823649 0
M  V30 4540 H 439.604 0.604081 1.58584 0
M  V30 4541 H 438.376 1.07744 3.76174 0
M  V30 4542 H 437.999 -0.629714 3.92582 0
M  V30 4543 N 438.996 -1.55193 0.274407 0
M  V30 4544 C 440.244 -1.99187 -0.341902 0
M  V30 4545 C 440.565 -1.16422 -1.56431 0
M  V30 4546 O 439.835 -0.253573 -1.94252 0
M  V30 4547 H 438.415 -0.735721 -0.129317 0
M  V30 4548 H 441.077 -1.91168 0.379578 0
M  V30 4549 H 440.173 -3.05629 -0.632253 0
M  V30 4550 N 440.474 -0.00167713 -1.576 0
M  V30 4551 C 441.751 0.719951 -1.81868 0
M  V30 4552 C 442.131 1.91895 -0.879747 0
M  V30 4553 O 441.479 2.28389 0.0711423 0
M  V30 4554 C 441.689 1.12409 -3.30402 0
M  V30 4555 C 443.037 1.52724 -3.96182 0
M  V30 4556 O 444.061 1.21784 -3.34734 0
M  V30 4557 O 442.92 2.10265 -5.04431 0
M  V30 4558 H 440.014 0.350707 -0.748955 0
M  V30 4559 H 442.56 -0.0272597 -1.69678 0
M  V30 4560 H 441.332 0.269532 -3.90371 0
M  V30 4561 H 440.955 1.93035 -3.47596 0
M  V30 4562 N 441.952 1.55251 0.271103 0
M  V30 4563 C 443.2 1.75599 1.00047 0
M  V30 4564 C 443.521 0.561188 1.8675 0
M  V30 4565 O 442.791 -0.423846 1.9126 0
M  V30 4566 H 441.371 0.647562 0.372387 0
M  V30 4567 H 444.033 1.92656 0.294876 0
M  V30 4568 H 443.129 2.65766 1.6363 0
M  V30 4569 N 443.43 -0.535701 1.48216 0
M  V30 4570 C 444.38 -1.63688 1.58714 0
M  V30 4571 C 445.364 -1.54635 0.444615 0
M  V30 4572 O 446.556 -1.62753 0.695742 0
M  V30 4573 C 443.685 -3.02423 1.62466 0
M  V30 4574 C 442.771 -3.16601 2.82178 0
M  V30 4575 N 443.162 -3.00771 4.06658 0
M  V30 4576 C 441.46 -3.47645 2.79391 0
M  V30 4577 C 442.161 -3.18213 4.86945 0
M  V30 4578 N 441.137 -3.45528 4.19656 0
M  V30 4579 H 444.939 -1.5005 2.5271 0
M  V30 4580 H 442.453 -0.741018 1.44508 0
M  V30 4581 H 444.45 -3.81517 1.6808 0
M  V30 4582 H 443.11 -3.17157 0.695826 0
M  V30 4583 H 444.121 -2.77652 4.37184 0
M  V30 4584 H 440.798 -3.68771 1.95739 0
M  V30 4585 H 442.188 -3.1076 5.95716 0
M  V30 4586 N 444.908 -1.36708 -0.784132 0
M  V30 4587 C 446.156 -1.30972 -1.53918 0
M  V30 4588 C 446.477 0.109086 -1.94695 0
M  V30 4589 O 445.747 1.05048 -1.65353 0
M  V30 4590 H 444.327 -0.481819 -0.570841 0
M  V30 4591 H 446.989 -1.71063 -0.934002 0
M  V30 4592 H 446.085 -1.94061 -2.44431 0
M  V30 4593 N 446.386 1.0089 -1.21074 0
M  V30 4594 C 447.334 2.11707 -0.963476 0
M  V30 4595 C 448.328 1.69172 0.0879032 0
M  V30 4596 O 449.534 1.79889 -0.0631415 0
M  V30 4597 H 445.909 0.692026 -0.294287 0
M  V30 4598 H 447.88 2.29743 -1.90422 0
M  V30 4599 C 446.629 3.43473 -0.540509 0
M  V30 4600 H 445.952 3.76634 -1.34114 0
M  V30 4601 H 447.392 4.22044 -0.406777 0
M  V30 4602 C 445.851 3.2849 0.748079 0
M  V30 4603 O 446.381 3.58883 1.8046 0
M  V30 4604 N 444.587 2.81715 0.713081 0
M  V30 4605 H 444.134 2.5718 -0.146973 0
M  V30 4606 H 444.092 2.72071 1.57558 0
M  V30 4607 N 447.864 1.01787 1.20321 0
M  V30 4608 C 449.092 0.727194 1.937 0
M  V30 4609 C 449.507 -0.712305 1.74848 0
M  V30 4610 O 448.864 -1.48327 1.06327 0
M  V30 4611 C 448.915 1.05497 3.45764 0
M  V30 4612 O 448.636 2.43794 3.64 0
M  V30 4613 C 450.137 0.785534 4.36285 0
M  V30 4614 H 447.357 0.266939 0.615617 0
M  V30 4615 H 449.901 1.35939 1.52777 0
M  V30 4616 H 448.056 0.468158 3.84561 0
M  V30 4617 H 448.47 2.55656 4.57974 0
M  V30 4618 H 449.944 1.06495 5.4163 0
M  V30 4619 H 450.421 -0.280273 4.38305 0
M  V30 4620 H 451.027 1.35456 4.03152 0
M  V30 4621 N 449.342 -1.36122 0.79427 0
M  V30 4622 C 450.305 -2.28309 0.201889 0
M  V30 4623 C 451.305 -1.49041 -0.603603 0
M  V30 4624 O 452.495 -1.68964 -0.423888 0
M  V30 4625 C 449.627 -3.3321 -0.719978 0
M  V30 4626 H 450.82 -2.82208 1.01481 0
M  V30 4627 H 448.373 -1.45768 0.564037 0
M  V30 4628 H 449.108 -2.84475 -1.55706 0
M  V30 4629 H 448.893 -3.91835 -0.144266 0
M  V30 4630 H 450.383 -4.02044 -1.12916 0
M  V30 4631 N 450.82 -0.546701 -1.47814 0
M  V30 4632 C 452.231 -0.110564 -1.86372 0
M  V30 4633 C 452.582 1.31678 -1.45449 0
M  V30 4634 O 451.707 1.98889 -0.852758 0
M  V30 4635 C 452.302 -0.193873 -3.38245 0
M  V30 4636 C 450.861 0.187164 -3.75934 0
M  V30 4637 C 450.008 -0.546166 -2.71868 0
M  V30 4638 H 452.959 -0.757022 -1.39481 0
M  V30 4639 H 452.98 0.590218 -3.75895 0
M  V30 4640 H 452.492 -1.23282 -3.67999 0
M  V30 4641 H 450.593 1.22762 -3.51796 0
M  V30 4642 H 450.706 -0.164083 -4.78819 0
M  V30 4643 H 449.07 0.00953904 -2.54698 0
M  V30 4644 H 449.853 -1.58606 -3.04465 0
M  V30 4645 N 452.299 1.55045 -0.282633 0
M  V30 4646 C 453.246 2.22822 0.601566 0
M  V30 4647 C 454.216 1.20431 1.14392 0
M  V30 4648 O 455.401 1.48996 1.19184 0
M  V30 4649 C 452.541 2.95873 1.77632 0
M  V30 4650 C 451.654 4.12999 1.26711 0
M  V30 4651 C 450.789 4.73676 2.40426 0
M  V30 4652 C 449.828 5.82981 1.86545 0
M  V30 4653 N 448.965 6.3769 2.93762 0
M  V30 4654 H 453.805 2.97995 0.0169528 0
M  V30 4655 H 451.342 1.471 -0.00339964 0
M  V30 4656 H 453.3 3.36447 2.46697 0
M  V30 4657 H 451.93 2.2311 2.33285 0
M  V30 4658 H 450.982 3.77494 0.469314 0
M  V30 4659 H 452.294 4.91803 0.832518 0
M  V30 4660 H 451.448 5.17008 3.17471 0
M  V30 4661 H 450.187 3.94164 2.87203 0
M  V30 4662 H 449.192 5.39092 1.07983 0
M  V30 4663 H 450.417 6.64366 1.40694 0
M  V30 4664 H 448.363 5.61069 3.39908 0
M  V30 4665 H 448.28 7.11788 2.54744 0
M  V30 4666 H 449.548 6.8568 3.7076 0
M  V30 4667 N 453.777 0.010035 1.57597 0
M  V30 4668 C 454.725 -0.996272 2.10184 0
M  V30 4669 C 455.719 -1.34942 1.02406 0
M  V30 4670 O 456.925 -1.33389 1.20861 0
M  V30 4671 H 453.3 -0.338982 0.671264 0
M  V30 4672 H 455.271 -0.527272 2.93705 0
M  V30 4673 C 454.02 -2.27599 2.62857 0
M  V30 4674 H 453.343 -2.01295 3.45428 0
M  V30 4675 H 454.783 -2.96265 3.0332 0
M  V30 4676 C 453.242 -2.99269 1.54725 0
M  V30 4677 O 453.772 -3.90644 0.93597 0
M  V30 4678 N 451.978 -2.61269 1.27228 0
M  V30 4679 H 451.525 -1.87043 1.77123 0
M  V30 4680 H 451.483 -3.09534 0.550999 0
M  V30 4681 N 455.255 -1.55392 -0.262866 0
M  V30 4682 C 456.503 -1.76127 -0.991147 0
M  V30 4683 C 456.824 -0.571083 -1.8645 0
M  V30 4684 O 456.094 0.413698 -1.91482 0
M  V30 4685 H 454.674 -0.649528 -0.368948 0
M  V30 4686 H 457.336 -1.9281 -0.284655 0
M  V30 4687 H 456.432 -2.6663 -1.62219 0
M  V30 4688 N 456.733 0.527833 -1.48498 0
M  V30 4689 C 457.665 1.6482 -1.5927 0
M  V30 4690 C 458.678 1.55659 -0.476869 0
M  V30 4691 O 459.867 1.62081 -0.747806 0
M  V30 4692 C 456.967 3.0348 -1.50842 0
M  V30 4693 C 456.14 3.381 -2.77502 0
M  V30 4694 C 455.199 4.5605 -2.62497 0
M  V30 4695 O 454.225 4.59165 -3.36387 0
M  V30 4696 N 455.427 5.54353 -1.72257 0
M  V30 4697 H 458.192 1.56015 -2.55889 0
M  V30 4698 H 455.753 0.715152 -1.45249 0
M  V30 4699 H 457.745 3.80264 -1.38496 0
M  V30 4700 H 456.315 3.06352 -0.621887 0
M  V30 4701 H 455.535 2.50473 -3.04396 0
M  V30 4702 H 456.823 3.58017 -3.61527 0
M  V30 4703 H 456.221 5.54617 -1.11431 0
M  V30 4704 H 454.778 6.30347 -1.65849 0
M  V30 4705 N 458.211 1.37122 0.776871 0
M  V30 4706 C 459.439 1.3523 1.5659 0
M  V30 4707 C 459.854 -0.0635518 1.88693 0
M  V30 4708 O 459.211 -1.02394 1.51069 0
M  V30 4709 C 459.262 2.18583 2.8793 0
M  V30 4710 O 458.983 3.5465 2.57206 0
M  V30 4711 C 460.484 2.24612 3.82183 0
M  V30 4712 H 457.704 0.4634 0.485285 0
M  V30 4713 H 460.248 1.80392 0.963266 0
M  V30 4714 H 458.403 1.76943 3.4463 0
M  V30 4715 H 458.817 3.98286 3.41275 0
M  V30 4716 H 460.291 2.87267 4.71361 0
M  V30 4717 H 460.768 1.25309 4.20944 0
M  V30 4718 H 461.374 2.66543 3.31414 0
M  V30 4719 N 459.689 -1.00246 1.21608 0
M  V30 4720 C 460.619 -2.10921 1.00172 0
M  V30 4721 C 461.6 -1.69938 -0.0741587 0
M  V30 4722 O 462.785 -1.94009 0.0861753 0
M  V30 4723 C 459.915 -3.42618 0.568355 0
M  V30 4724 C 458.869 -3.97407 1.58909 0
M  V30 4725 C 458.195 -5.25038 1.01187 0
M  V30 4726 C 459.495 -4.2918 2.97661 0
M  V30 4727 H 461.189 -2.29112 1.92739 0
M  V30 4728 H 458.735 -1.10101 0.928102 0
M  V30 4729 H 460.688 -4.19444 0.405555 0
M  V30 4730 H 459.412 -3.24227 -0.392961 0
M  V30 4731 H 458.071 -3.22703 1.73949 0
M  V30 4732 H 457.719 -5.02982 0.0421965 0
M  V30 4733 H 457.419 -5.62661 1.6937 0
M  V30 4734 H 458.943 -6.04507 0.860448 0
M  V30 4735 H 460.357 -4.96839 2.86049 0
M  V30 4736 H 458.754 -4.77952 3.6288 0
M  V30 4737 H 459.824 -3.3735 3.48315 0
M  V30 4738 N 461.167 -1.02423 -1.1978 0
M  V30 4739 C 462.115 -0.594474 -2.24875 0
M  V30 4740 C 463.109 0.370598 -1.65296 0
M  V30 4741 O 464.315 0.239684 -1.78397 0
M  V30 4742 H 460.69 -0.173961 -0.731602 0
M  V30 4743 H 462.661 -1.4916 -2.58445 0
M  V30 4744 C 461.41 0.0436512 -3.47673 0
M  V30 4745 H 460.733 -0.689963 -3.93801 0
M  V30 4746 H 462.173 0.307362 -4.22884 0
M  V30 4747 C 460.632 1.28881 -3.11274 0
M  V30 4748 O 461.162 2.38135 -3.23503 0
M  V30 4749 N 459.368 1.1758 -2.6575 0
M  V30 4750 H 458.915 0.286769 -2.55999 0
M  V30 4751 H 458.873 2.00988 -2.41767 0
M  V30 4752 N 462.645 1.35699 -0.801477 0
M  V30 4753 C 463.593 2.3177 -0.196317 0
M  V30 4754 C 464.587 1.56388 0.651081 0
M  V30 4755 O 465.793 1.71557 0.544815 0
M  V30 4756 H 462.168 0.750669 -0.0447189 0
M  V30 4757 H 464.139 2.8036 -1.02181 0
M  V30 4758 C 462.888 3.41671 0.644702 0
M  V30 4759 H 462.211 3.998 0.0019921 0
M  V30 4760 H 463.651 4.11184 1.0346 0
M  V30 4761 C 462.11 2.84271 1.80808 0
M  V30 4762 O 462.64 2.77408 2.9053 0
M  V30 4763 N 460.846 2.41391 1.61799 0
M  V30 4764 H 460.393 2.47173 0.725493 0
M  V30 4765 H 460.351 2.03334 2.39797 0
M  V30 4766 N 464.123 0.554532 1.47522 0
M  V30 4767 C 465.534 0.120446 1.86311 0
M  V30 4768 C 465.885 -1.30904 1.46145 0
M  V30 4769 O 465.01 -1.98434 0.863294 0
M  V30 4770 C 465.605 0.211808 3.38137 0
M  V30 4771 C 464.164 -0.167224 3.76028 0
M  V30 4772 C 463.311 0.560576 2.71575 0
M  V30 4773 H 466.262 0.764408 1.39077 0
M  V30 4774 H 466.283 -0.570275 3.76202 0
M  V30 4775 H 465.795 1.25232 3.6734 0
M  V30 4776 H 463.896 -1.20894 3.52442 0
M  V30 4777 H 464.009 0.189473 4.78725 0
M  V30 4778 H 462.373 0.00396836 2.547 0
M  V30 4779 H 463.156 1.60219 3.0362 0
M  V30 4780 N 465.601 -1.54893 0.290851 0
M  V30 4781 C 466.847 -2.0023 -0.321867 0
M  V30 4782 C 467.18 -1.179 -1.54316 0
M  V30 4783 O 466.455 -0.25293 -1.92848 0
M  V30 4784 C 466.738 -3.53456 -0.688515 0
M  V30 4785 C 466.591 -4.46532 0.541209 0
M  V30 4786 C 467.91 -4.13057 -1.51895 0
M  V30 4787 H 465.029 -0.727891 -0.115515 0
M  V30 4788 H 467.671 -1.85722 0.400931 0
M  V30 4789 H 465.821 -3.6595 -1.30433 0
M  V30 4790 H 467.493 -4.4596 1.17973 0
M  V30 4791 H 465.736 -4.17545 1.17636 0
M  V30 4792 H 466.407 -5.51475 0.240675 0
M  V30 4793 H 468.883 -4.03937 -0.99872 0
M  V30 4794 H 467.759 -5.20448 -1.74429 0
M  V30 4795 H 468.02 -3.64284 -2.50498 0
M  V30 4796 N 467.08 -0.0183926 -1.57589 0
M  V30 4797 C 468.308 0.673046 -1.95647 0
M  V30 4798 C 468.723 1.66275 -0.894312 0
M  V30 4799 O 468.08 1.82072 0.124975 0
M  V30 4800 C 468.131 1.38884 -3.33756 0
M  V30 4801 O 467.852 0.438806 -4.35897 0
M  V30 4802 C 469.353 2.1731 -3.86383 0
M  V30 4803 H 466.573 0.186292 -0.644621 0
M  V30 4804 H 469.117 -0.0749748 -2.04363 0
M  V30 4805 H 467.272 2.08835 -3.26293 0
M  V30 4806 H 467.686 0.945869 -5.15901 0
M  V30 4807 H 469.16 2.62863 -4.85394 0
M  V30 4808 H 469.637 3.00764 -3.20059 0
M  V30 4809 H 470.243 1.52339 -3.97081 0
M  V30 4810 N 468.558 1.5553 0.254621 0
M  V30 4811 C 469.804 1.77262 0.985193 0
M  V30 4812 C 470.137 0.582286 1.85265 0
M  V30 4813 O 469.412 -0.419666 1.89919 0
M  V30 4814 C 469.695 3.0881 1.85225 0
M  V30 4815 C 469.548 4.38233 1.0135 0
M  V30 4816 C 470.867 3.3653 2.83612 0
M  V30 4817 H 467.986 0.644906 0.356742 0
M  V30 4818 H 470.628 1.88264 0.256236 0
M  V30 4819 H 468.778 2.99562 2.47376 0
M  V30 4820 H 470.45 4.59463 0.411269 0
M  V30 4821 H 468.693 4.32636 0.317574 0
M  V30 4822 H 469.364 5.26644 1.65379 0
M  V30 4823 H 471.84 3.45691 2.31596 0
M  V30 4824 H 470.716 4.29805 3.41407 0
M  V30 4825 H 470.977 2.57064 3.59681 0
M  V30 4826 N 470.036 -0.519951 1.48776 0
M  V30 4827 C 470.968 -1.63973 1.60142 0
M  V30 4828 C 471.981 -1.55404 0.485117 0
M  V30 4829 O 473.17 -1.61682 0.756391 0
M  V30 4830 C 470.27 -3.02676 1.52449 0
M  V30 4831 C 469.443 -3.36624 2.79291 0
M  V30 4832 C 468.502 -4.54652 2.64912 0
M  V30 4833 O 467.528 -4.57374 3.38818 0
M  V30 4834 N 468.73 -5.53432 1.75195 0
M  V30 4835 H 471.495 -1.54656 2.56713 0
M  V30 4836 H 469.056 -0.707439 1.45626 0
M  V30 4837 H 471.048 -3.79525 1.4051 0
M  V30 4838 H 469.618 -3.06018 0.638125 0
M  V30 4839 H 468.838 -2.48855 3.0572 0
M  V30 4840 H 470.126 -3.56094 3.6342 0
M  V30 4841 H 469.524 -5.54018 1.14371 0
M  V30 4842 H 468.081 -6.29459 1.69189 0
M  V30 4843 N 471.514 -1.37532 -0.769588 0
M  V30 4844 C 472.762 -1.32597 -1.5252 0
M  V30 4845 C 473.083 0.0884294 -1.94799 0
M  V30 4846 O 472.353 1.03289 -1.66458 0
M  V30 4847 H 470.933 -0.487846 -0.565699 0
M  V30 4848 H 473.595 -1.72044 -0.915806 0
M  V30 4849 H 472.691 -1.96643 -2.42359 0
M  V30 4850 N 472.992 0.995999 -1.22138 0
M  V30 4851 C 473.924 2.08745 -0.946485 0
M  V30 4852 C 474.937 1.62633 0.0737356 0
M  V30 4853 O 476.126 1.77782 -0.159886 0
M  V30 4854 C 473.226 3.36516 -0.401305 0
M  V30 4855 C 472.399 4.11672 -1.47801 0
M  V30 4856 C 471.458 5.17728 -0.940461 0
M  V30 4857 O 470.484 5.45482 -1.62596 0
M  V30 4858 N 471.686 5.80005 0.239723 0
M  V30 4859 H 474.451 2.32908 -1.88611 0
M  V30 4860 H 472.012 1.16152 -1.12785 0
M  V30 4861 H 474.004 4.04691 -0.0270837 0
M  V30 4862 H 472.574 3.0944 0.443354 0
M  V30 4863 H 471.794 3.38171 -2.02568 0
M  V30 4864 H 473.082 4.58657 -2.20253 0
M  V30 4865 H 472.48 5.5982 0.813518 0
M  V30 4866 H 471.037 6.4943 0.555361 0
M  V30 4867 N 474.47 1.03057 1.19235 0
M  V30 4868 C 475.433 0.617418 2.20727 0
M  V30 4869 C 476.433 -0.319856 1.57587 0
M  V30 4870 O 477.623 -0.106633 1.73873 0
M  V30 4871 C 474.755 -0.096296 3.40764 0
M  V30 4872 H 475.948 1.51544 2.58794 0
M  V30 4873 H 473.501 0.821949 1.32942 0
M  V30 4874 H 474.236 -1.00859 3.08217 0
M  V30 4875 H 474.021 0.577217 3.87828 0
M  V30 4876 H 475.511 -0.372219 4.15938 0
M  V30 4877 N 475.948 -1.35272 0.808662 0
M  V30 4878 C 476.896 -2.31663 0.208606 0
M  V30 4879 C 477.89 -1.56731 -0.642778 0
M  V30 4880 O 479.096 -1.71843 -0.53571 0
M  V30 4881 H 475.471 -0.750421 0.0486993 0
M  V30 4882 H 477.442 -2.79814 1.03666 0
M  V30 4883 C 476.191 -3.42008 -0.626573 0
M  V30 4884 H 475.514 -3.99795 0.0192103 0
M  V30 4885 H 476.954 -4.11727 -1.01278 0
M  V30 4886 C 475.413 -2.85226 -1.79298 0
M  V30 4887 O 475.943 -2.78945 -2.89055 0
M  V30 4888 N 474.149 -2.42245 -1.60516 0
M  V30 4889 H 473.696 -2.47554 -0.712375 0
M  V30 4890 H 473.654 -2.04603 -2.38715 0
M  V30 4891 N 477.426 -0.562348 -1.47226 0
M  V30 4892 C 478.389 0.172056 -2.28553 0
M  V30 4893 C 479.389 0.837928 -1.37242 0
M  V30 4894 O 480.579 0.693001 -1.59822 0
M  V30 4895 C 477.711 1.25223 -3.17068 0
M  V30 4896 H 478.904 -0.542401 -2.94954 0
M  V30 4897 H 476.457 -0.319493 -1.53 0
M  V30 4898 H 477.192 1.99892 -2.55369 0
M  V30 4899 H 476.977 0.779515 -3.84273 0
M  V30 4900 H 478.467 1.76791 -3.78332 0
M  V30 4901 N 478.904 1.54736 -0.299062 0
M  V30 4902 C 480.15 2.00397 0.311244 0
M  V30 4903 C 480.483 1.18716 1.53688 0
M  V30 4904 O 479.758 0.263154 1.92712 0
M  V30 4905 C 480.041 3.53817 0.669761 0
M  V30 4906 C 479.894 4.46239 -0.564882 0
M  V30 4907 C 481.213 4.13856 1.49702 0
M  V30 4908 H 478.332 0.728493 0.111653 0
M  V30 4909 H 480.974 1.85506 -0.410774 0
M  V30 4910 H 479.124 3.66637 1.28491 0
M  V30 4911 H 480.796 4.45328 -1.20337 0
M  V30 4912 H 479.039 4.16916 -1.19849 0
M  V30 4913 H 479.71 5.5134 -0.269918 0
M  V30 4914 H 482.186 4.04461 0.977284 0
M  V30 4915 H 481.062 5.21365 1.71666 0
M  V30 4916 H 481.323 3.65608 2.48563 0
M  V30 4917 N 480.382 0.0267497 1.57577 0
M  V30 4918 C 481.798 -0.32962 1.56159 0
M  V30 4919 C 481.998 -1.73059 1.03213 0
M  V30 4920 O 481.054 -2.43233 0.677804 0
M  V30 4921 C 482.367 -0.18039 3.00158 0
M  V30 4922 C 483.915 -0.253334 3.11973 0
M  V30 4923 C 484.39 -0.132921 4.57807 0
M  V30 4924 N 485.881 -0.189979 4.6281 0
M  V30 4925 C 486.616 -0.120554 5.73273 0
M  V30 4926 N 486.112 -0.000180315 6.928 0
M  V30 4927 N 487.905 -0.174369 5.61829 0
M  V30 4928 H 480.056 0.942896 1.90324 0
M  V30 4929 H 482.319 0.3639 0.875375 0
M  V30 4930 H 482.025 0.784576 3.42837 0
M  V30 4931 H 481.899 -0.951565 3.65 0
M  V30 4932 H 484.286 -1.20876 2.69208 0
M  V30 4933 H 484.367 0.548177 2.49857 0
M  V30 4934 H 484.011 0.819073 5.01252 0
M  V30 4935 H 483.941 -0.953264 5.179 0
M  V30 4936 H 486.432 -0.283257 3.76837 0
M  V30 4937 H 486.745 0.0461666 7.72786 0
M  V30 4938 H 485.09 0.034569 6.94991 0
M  V30 4939 H 488.281 -0.266794 4.67339 0
M  V30 4940 H 488.454 -0.116802 6.47895 0
M  V30 4941 N 481.861 -1.55662 -0.24637 0
M  V30 4942 C 483.138 -1.68272 -0.997198 0
M  V30 4943 C 483.518 -0.566785 -2.03349 0
M  V30 4944 O 482.866 0.429688 -2.24424 0
M  V30 4945 C 483.076 -3.08594 -1.63006 0
M  V30 4946 C 484.424 -3.6721 -2.13171 0
M  V30 4947 O 485.448 -3.11397 -1.72946 0
M  V30 4948 O 484.307 -4.65054 -2.87031 0
M  V30 4949 H 481.401 -0.684429 -0.464205 0
M  V30 4950 H 483.947 -1.67993 -0.240114 0
M  V30 4951 H 482.719 -3.81264 -0.880527 0
M  V30 4952 H 482.342 -3.12886 -2.45333 0
M  V30 4953 N 483.339 0.512053 -1.4905 0
M  V30 4954 C 484.585 1.26874 -1.58212 0
M  V30 4955 C 484.918 1.9241 -0.263073 0
M  V30 4956 O 484.193 1.80181 0.732476 0
M  V30 4957 C 484.476 2.34428 -2.73341 0
M  V30 4958 C 484.329 1.73466 -4.15006 0
M  V30 4959 C 485.648 3.36073 -2.84154 0
M  V30 4960 H 482.767 0.459924 -0.575881 0
M  V30 4961 H 485.409 0.568587 -1.81293 0
M  V30 4962 H 483.559 2.94146 -2.53792 0
M  V30 4963 H 485.231 1.17661 -4.46042 0
M  V30 4964 H 483.474 1.03921 -4.21168 0
M  V30 4965 H 484.145 2.51426 -4.91415 0
M  V30 4966 H 486.621 2.86332 -3.01916 0
M  V30 4967 H 485.497 4.08703 -3.66406 0
M  V30 4968 H 485.758 3.97725 -1.93048 0
M  V30 4969 N 484.817 1.37938 0.762283 0
M  V30 4970 C 486.066 1.32989 1.51647 0
M  V30 4971 C 486.379 -0.0802922 1.95435 0
M  V30 4972 O 487.585 -0.252295 2.70325 0
M  V30 4973 C 486.041 2.33485 2.73885 0
M  V30 4974 C 485.649 3.80079 2.37157 0
M  V30 4975 C 487.393 2.37563 3.51801 0
M  V30 4976 C 485.3 4.72283 3.55954 0
M  V30 4977 H 484.23 0.494301 0.56937 0
M  V30 4978 H 486.881 1.63448 0.834083 0
M  V30 4979 H 485.263 1.96056 3.44061 0
M  V30 4980 H 486.437 4.26398 1.74704 0
M  V30 4981 H 484.752 3.79037 1.72395 0
M  V30 4982 H 487.349 3.0365 4.40114 0
M  V30 4983 H 487.692 1.39199 3.92338 0
M  V30 4984 H 488.225 2.73747 2.8863 0
M  V30 4985 H 484.964 5.7181 3.2049 0
M  V30 4986 H 484.484 4.30663 4.1748 0
M  V30 4987 H 486.163 4.89876 4.22647 0
M  V30 4988 N 486.295 -0.989507 1.22664 0
M  V30 4989 C 487.227 -2.0824 0.957542 0
M  V30 4990 C 488.24 -1.6267 -0.0651098 0
M  V30 4991 O 489.429 -1.77695 0.169312 0
M  V30 4992 C 486.529 -3.36298 0.419145 0
M  V30 4993 C 485.702 -4.10882 1.49982 0
M  V30 4994 C 484.761 -5.17221 0.967904 0
M  V30 4995 O 483.787 -5.44613 1.65487 0
M  V30 4996 N 484.989 -5.80124 -0.20896 0
M  V30 4997 H 487.754 -2.31904 1.89843 0
M  V30 4998 H 485.315 -1.15552 1.13399 0
M  V30 4999 H 487.307 -4.04671 0.0485451 0
M  V30 5000 H 485.877 -3.09671 -0.426937 0
M  V30 5001 H 485.097 -3.37092 2.04359 0
M  V30 5002 H 486.385 -4.57482 2.22682 0
M  V30 5003 H 485.783 -5.60244 -0.783818 0
M  V30 5004 H 484.34 -6.49715 -0.520913 0
M  V30 5005 N 487.773 -1.03688 -1.18687 0
M  V30 5006 C 488.736 -0.629115 -2.20397 0
M  V30 5007 C 489.736 0.311495 -1.57754 0
M  V30 5008 O 490.926 0.0974107 -1.73927 0
M  V30 5009 C 488.058 0.0782231 -3.4081 0
M  V30 5010 H 489.251 -1.52915 -2.57987 0
M  V30 5011 H 486.804 -0.828988 -1.32505 0
M  V30 5012 H 487.539 0.992233 -3.08748 0
M  V30 5013 H 487.324 -0.597776 -3.87517 0
M  V30 5014 H 488.814 0.350156 -4.16129 0
M  V30 5015 N 489.251 1.34841 -0.815825 0
M  V30 5016 C 490.497 1.98793 -0.401129 0
M  V30 5017 C 490.83 1.64548 1.03139 0
M  V30 5018 O 490.105 0.913487 1.71714 0
M  V30 5019 C 490.388 3.55143 -0.595409 0
M  V30 5020 C 490.241 3.99155 -2.07352 0
M  V30 5021 C 491.56 4.40092 -0.0268823 0
M  V30 5022 H 488.679 0.722146 -0.14722 0
M  V30 5023 H 491.321 1.59847 -1.02707 0
M  V30 5024 H 489.471 3.8845 -0.0625779 0
M  V30 5025 H 491.143 3.76216 -2.66945 0
M  V30 5026 H 489.386 3.49726 -2.56659 0
M  V30 5027 H 490.057 5.07971 -2.1603 0
M  V30 5028 H 492.533 4.13298 -0.482042 0
M  V30 5029 H 491.409 5.48562 -0.19267 0
M  V30 5030 H 491.67 4.29016 1.06759 0
M  V30 5031 N 490.729 0.570148 1.46925 0
M  V30 5032 C 491.954 0.0542592 2.07329 0
M  V30 5033 C 492.379 -1.23582 1.41806 0
M  V30 5034 O 491.737 -1.74341 0.497479 0
M  V30 5035 C 491.785 -0.111175 3.60429 0
M  V30 5036 O 490.889 -1.17071 3.95434 0
M  V30 5037 H 490.23 0.0571425 0.661537 0
M  V30 5038 H 492.76 0.789516 1.88753 0
M  V30 5039 H 492.77 -0.321315 4.06733 0
M  V30 5040 H 491.445 0.831012 4.07513 0
M  V30 5041 H 490.022 -0.940029 3.60857 0
M  V30 5042 N 492.207 -1.54576 0.307264 0
M  V30 5043 C 493.484 -1.92377 -0.353605 0
M  V30 5044 C 493.864 -1.23517 -1.71192 0
M  V30 5045 O 493.212 -0.373101 -2.25433 0
M  V30 5046 C 493.422 -3.45928 -0.462039 0
M  V30 5047 C 494.77 -4.18278 -0.729975 0
M  V30 5048 O 495.794 -3.51997 -0.545605 0
M  V30 5049 O 494.653 -5.3563 -1.08454 0
M  V30 5050 H 491.747 -0.802747 -0.198812 0
M  V30 5051 H 494.293 -1.65929 0.355783 0
M  V30 5052 H 493.065 -3.88187 0.492592 0
M  V30 5053 H 492.688 -3.78431 -1.21965 0
M  V30 5054 N 493.685 -0.035106 -1.57561 0
M  V30 5055 C 494.931 0.64318 -1.92331 0
M  V30 5056 C 495.264 1.71434 -0.912368 0
M  V30 5057 O 494.539 1.94395 0.0640303 0
M  V30 5058 C 494.822 1.25411 -3.37556 0
M  V30 5059 C 494.675 0.192109 -4.4939 0
M  V30 5060 C 495.994 2.17041 -3.82859 0
M  V30 5061 H 493.113 0.232341 -0.699419 0
M  V30 5062 H 495.755 -0.0935889 -1.89769 0
M  V30 5063 H 493.905 1.88205 -3.39869 0
M  V30 5064 H 495.577 -0.438849 -4.59208 0
M  V30 5065 H 493.82 -0.481725 -4.31117 0
M  V30 5066 H 494.491 0.659292 -5.48049 0
M  V30 5067 H 496.967 1.64228 -3.8232 0
M  V30 5068 H 495.843 2.56738 -4.85157 0
M  V30 5069 H 496.104 3.06401 -3.18702 0
M  V30 5070 N 495.163 1.55791 0.238111 0
M  V30 5071 C 496.411 1.77681 0.963001 0
M  V30 5072 C 496.732 0.600674 1.85518 0
M  V30 5073 O 496.002 -0.383182 1.92116 0
M  V30 5074 H 494.582 0.655315 0.358568 0
M  V30 5075 H 497.244 1.93239 0.253945 0
M  V30 5076 H 496.34 2.69177 1.57956 0
M  V30 5077 N 496.642 -0.504142 1.49319 0
M  V30 5078 C 497.552 -1.63248 1.68486 0
M  V30 5079 C 498.568 -1.64488 0.567432 0
M  V30 5080 O 499.744 -1.82966 0.841749 0
M  V30 5081 C 496.809 -2.99627 1.74426 0
M  V30 5082 C 495.87 -3.09039 2.97982 0
M  V30 5083 C 495.103 -4.38913 3.0363 0
M  V30 5084 O 495.326 -5.27528 2.16958 0
M  V30 5085 O 494.26 -4.53231 3.96062 0
M  V30 5086 H 498.086 -1.50008 2.64067 0
M  V30 5087 H 495.671 -0.680086 1.33023 0
M  V30 5088 H 497.553 -3.80689 1.80705 0
M  V30 5089 H 496.228 -3.13136 0.820233 0
M  V30 5090 H 495.135 -2.27177 2.97223 0
M  V30 5091 H 496.468 -3.00456 3.89855 0
M  V30 5092 N 498.12 -1.38341 -0.754957 0
M  V30 5093 C 499.083 -1.35262 -1.85032 0
M  V30 5094 C 500.083 -0.253393 -1.58791 0
M  V30 5095 O 501.273 -0.510205 -1.66561 0
M  V30 5096 C 498.405 -1.10544 -3.22479 0
M  V30 5097 H 499.598 -2.32712 -1.8917 0
M  V30 5098 H 497.151 -1.23614 -0.956515 0
M  V30 5099 H 497.886 -0.136952 -3.24011 0
M  V30 5100 H 497.671 -1.90127 -3.4292 0
M  V30 5101 H 499.161 -1.11082 -4.02555 0
M  V30 5102 N 499.598 0.982988 -1.23187 0
M  V30 5103 C 500.846 1.72052 -1.06031 0
M  V30 5104 C 501.167 1.90769 0.404019 0
M  V30 5105 O 500.437 1.47446 1.28982 0
M  V30 5106 H 499.017 0.637499 -0.389363 0
M  V30 5107 H 501.679 1.18338 -1.54862 0
M  V30 5108 H 500.775 2.7111 -1.54615 0
M  V30 5109 N 501.076 1.04316 1.18135 0
M  V30 5110 C 502.325 0.74319 1.87509 0
M  V30 5111 C 502.638 -0.732136 1.81381 0
M  V30 5112 O 503.844 -1.14572 2.46141 0
M  V30 5113 C 502.3 1.27913 3.36402 0
M  V30 5114 C 501.908 2.78326 3.51053 0
M  V30 5115 C 503.652 1.0558 4.11161 0
M  V30 5116 C 501.559 3.25266 4.93919 0
M  V30 5117 H 500.489 0.274313 0.702331 0
M  V30 5118 H 503.14 1.25931 1.33467 0
M  V30 5119 H 501.522 0.690853 3.89927 0
M  V30 5120 H 502.696 3.42933 3.07788 0
M  V30 5121 H 501.011 2.991 2.89704 0
M  V30 5122 H 503.608 1.38161 5.16542 0
M  V30 5123 H 503.951 -0.00684729 4.16299 0
M  V30 5124 H 504.484 1.60882 3.63816 0
M  V30 5125 H 501.223 4.30922 4.9395 0
M  V30 5126 H 500.743 2.65396 5.3789 0
M  V30 5127 H 502.422 3.19433 5.62647 0
M  V30 5128 N 502.554 -1.34406 0.822964 0
M  V30 5129 C 503.802 -1.97892 0.410245 0
M  V30 5130 C 504.123 -1.65567 -1.03017 0
M  V30 5131 O 503.393 -0.94642 -1.71522 0
M  V30 5132 H 501.973 -0.732049 0.148707 0
M  V30 5133 H 504.635 -1.64043 1.05242 0
M  V30 5134 H 503.731 -3.07579 0.529284 0
M  V30 5135 N 504.032 -0.577932 -1.46621 0
M  V30 5136 C 505.278 -0.0617793 -2.02706 0
M  V30 5137 C 505.611 1.29294 -1.44903 0
M  V30 5138 O 504.886 1.8461 -0.61232 0
M  V30 5139 C 505.169 0.00911824 -3.60099 0
M  V30 5140 C 505.022 -1.37416 -4.28295 0
M  V30 5141 C 506.341 0.712159 -4.343 0
M  V30 5142 H 503.46 -0.0239246 -0.736612 0
M  V30 5143 H 506.102 -0.744211 -1.74818 0
M  V30 5144 H 504.252 0.590292 -3.83989 0
M  V30 5145 H 505.924 -2.00013 -4.15683 0
M  V30 5146 H 504.167 -1.94319 -3.87843 0
M  V30 5147 H 504.838 -1.27707 -5.37024 0
M  V30 5148 H 507.314 0.218486 -4.15526 0
M  V30 5149 H 506.19 0.730782 -5.44014 0
M  V30 5150 H 506.451 1.77251 -4.05012 0
M  V30 5151 N 505.51 1.54411 -0.315457 0
M  V30 5152 C 506.757 2.00419 0.289543 0
M  V30 5153 C 507.085 1.20373 1.52776 0
M  V30 5154 O 506.34 0.271769 1.93804 0
M  V30 5155 C 506.639 3.50936 0.676652 0
M  V30 5156 C 506.305 4.48532 -0.461472 0
M  V30 5157 C 504.967 4.74936 -0.773879 0
M  V30 5158 C 507.319 5.06567 -1.22637 0
M  V30 5159 C 504.647 5.56634 -1.85405 0
M  V30 5160 C 506.999 5.89441 -2.29657 0
M  V30 5161 C 505.663 6.1415 -2.61488 0
M  V30 5162 H 504.933 0.733386 0.105951 0
M  V30 5163 H 507.58 1.86434 -0.437554 0
M  V30 5164 H 505.885 3.62606 1.48405 0
M  V30 5165 H 507.582 3.83971 1.15618 0
M  V30 5166 H 504.172 4.28096 -0.207893 0
M  V30 5167 H 508.356 4.86157 -0.998271 0
M  V30 5168 H 503.612 5.74012 -2.10523 0
M  V30 5169 H 507.786 6.33432 -2.89374 0
M  V30 5170 H 505.413 6.77245 -3.45317 0
M  V30 5171 N 506.988 0.0434614 1.5754 0
M  V30 5172 C 508.218 -0.640905 1.96408 0
M  V30 5173 C 508.626 -1.65365 0.919297 0
M  V30 5174 O 507.969 -1.83395 -0.105795 0
M  V30 5175 C 508.031 -1.39141 3.31482 0
M  V30 5176 C 507.695 -0.535375 4.53853 0
M  V30 5177 C 508.692 0.195335 5.19533 0
M  V30 5178 C 506.377 -0.468564 5.0011 0
M  V30 5179 C 508.371 0.981377 6.298 0
M  V30 5180 C 506.058 0.321171 6.10255 0
M  V30 5181 C 507.056 1.04484 6.74961 0
M  V30 5182 O 506.744 1.8216 7.8299 0
M  V30 5183 H 506.476 -0.180584 0.651433 0
M  V30 5184 H 509.03 0.103848 2.05137 0
M  V30 5185 H 507.26 -2.18162 3.19284 0
M  V30 5186 H 508.949 -1.96526 3.55151 0
M  V30 5187 H 509.715 0.15314 4.84758 0
M  V30 5188 H 505.594 -1.02142 4.49542 0
M  V30 5189 H 509.138 1.54674 6.80237 0
M  V30 5190 H 505.035 0.365032 6.44467 0
M  V30 5191 H 505.803 1.74289 7.99728 0
M  V30 5192 N 508.466 -1.55915 -0.229846 0
M  V30 5193 C 509.712 -1.79718 -0.952517 0
M  V30 5194 C 510.067 -0.61514 -1.82301 0
M  V30 5195 O 509.36 0.391098 -1.87566 0
M  V30 5196 C 509.554 -3.06845 -1.8325 0
M  V30 5197 C 509.383 -4.37302 -1.04868 0
M  V30 5198 C 508.153 -4.99749 -0.746932 0
M  V30 5199 C 510.351 -5.12599 -0.417989 0
M  V30 5200 N 508.333 -6.13871 0.0591596 0
M  V30 5201 C 509.704 -6.19488 0.251879 0
M  V30 5202 C 511.759 -4.96804 -0.33018 0
M  V30 5203 C 510.462 -7.12299 1.00115 0
M  V30 5204 C 512.488 -5.90007 0.4056 0
M  V30 5205 C 511.85 -6.96317 1.06404 0
M  V30 5206 H 507.949 -0.709382 -0.329091 0
M  V30 5207 H 510.533 -1.93406 -0.224114 0
M  V30 5208 H 508.704 -2.94456 -2.53279 0
M  V30 5209 H 510.436 -3.18874 -2.49202 0
M  V30 5210 H 507.191 -4.61518 -1.06292 0
M  V30 5211 H 507.615 -6.75497 0.450798 0
M  V30 5212 H 512.257 -4.14675 -0.824898 0
M  V30 5213 H 509.975 -7.93916 1.50741 0
M  V30 5214 H 513.561 -5.79862 0.474436 0
M  V30 5215 H 512.441 -7.67194 1.62429 0
M  V30 5216 N 509.944 0.496216 -1.49584 0
M  V30 5217 C 510.854 1.62352 -1.69349 0
M  V30 5218 C 511.87 1.64184 -0.576147 0
M  V30 5219 O 513.046 1.82517 -0.85144 0
M  V30 5220 C 510.111 2.98698 -1.76013 0
M  V30 5221 C 509.172 3.07454 -2.99617 0
M  V30 5222 C 508.405 4.37296 -3.05953 0
M  V30 5223 O 508.628 5.2637 -2.19752 0
M  V30 5224 O 507.562 4.51124 -3.9846 0
M  V30 5225 H 511.388 1.48606 -2.64859 0
M  V30 5226 H 508.973 0.673022 -1.33382 0
M  V30 5227 H 510.855 3.79725 -1.82721 0
M  V30 5228 H 509.53 3.12696 -0.836828 0
M  V30 5229 H 508.437 2.25597 -2.98424 0
M  V30 5230 H 509.77 2.98385 -3.91443 0
M  V30 5231 N 511.423 1.38739 0.74761 0
M  V30 5232 C 512.834 1.31507 1.32524 0
M  V30 5233 C 513.185 -0.0263963 1.96182 0
M  V30 5234 O 512.31 -0.92849 1.95469 0
M  V30 5235 C 512.905 2.38162 2.40966 0
M  V30 5236 C 511.464 2.34489 2.94434 0
M  V30 5237 C 510.611 2.20712 1.67873 0
M  V30 5238 H 513.562 1.4901 0.546043 0
M  V30 5239 H 513.583 2.04222 3.21051 0
M  V30 5240 H 513.095 3.35783 1.94605 0
M  V30 5241 H 511.196 1.40467 3.45108 0
M  V30 5242 H 511.309 3.28861 3.48407 0
M  V30 5243 H 509.673 1.67667 1.91729 0
M  V30 5244 H 510.456 3.20285 1.23582 0
M  V30 5245 N 512.901 -0.976442 1.23707 0
M  V30 5246 C 513.864 -2.0511 1.02287 0
M  V30 5247 C 514.864 -1.60791 -0.0167195 0
M  V30 5248 O 516.054 -1.72761 0.223408 0
M  V30 5249 C 513.186 -3.36458 0.548507 0
M  V30 5250 H 514.379 -2.25545 1.9766 0
M  V30 5251 H 511.932 -1.15042 1.05806 0
M  V30 5252 H 512.667 -3.21713 -0.408818 0
M  V30 5253 H 512.452 -3.69967 1.29874 0
M  V30 5254 H 513.942 -4.15489 0.419406 0
M  V30 5255 N 514.379 -1.04941 -1.1758 0
M  V30 5256 C 515.625 -0.768896 -1.88307 0
M  V30 5257 C 515.98 0.696361 -1.79356 0
M  V30 5258 O 515.273 1.50245 -1.18899 0
M  V30 5259 C 515.467 -1.18062 -3.37337 0
M  V30 5260 C 515.296 -2.68436 -3.60794 0
M  V30 5261 C 514.066 -3.35709 -3.77661 0
M  V30 5262 C 516.264 -3.66657 -3.60649 0
M  V30 5263 N 514.246 -4.74974 -3.88939 0
M  V30 5264 C 515.617 -4.91638 -3.77747 0
M  V30 5265 C 517.672 -3.60162 -3.43785 0
M  V30 5266 C 516.375 -6.10902 -3.79726 0
M  V30 5267 C 518.401 -4.78863 -3.47051 0
M  V30 5268 C 517.763 -6.02666 -3.64654 0
M  V30 5269 H 513.862 -0.33355 -0.707296 0
M  V30 5270 H 516.446 -1.34085 -1.41171 0
M  V30 5271 H 514.617 -0.636648 -3.83147 0
M  V30 5272 H 516.349 -0.8502 -3.95669 0
M  V30 5273 H 513.104 -2.8611 -3.77409 0
M  V30 5274 H 513.528 -5.47378 -3.98379 0
M  V30 5275 H 518.17 -2.65412 -3.29114 0
M  V30 5276 H 515.888 -7.05998 -3.93182 0
M  V30 5277 H 519.474 -4.75488 -3.35265 0
M  V30 5278 H 518.354 -6.92979 -3.67083 0
M  V30 5279 N 515.857 1.33968 -0.830081 0
M  V30 5280 C 517.106 1.97323 -0.417928 0
M  V30 5281 C 517.419 1.6652 1.02618 0
M  V30 5282 O 518.625 2.2342 1.54259 0
M  V30 5283 C 517.081 3.53099 -0.696359 0
M  V30 5284 C 516.689 3.92788 -2.15457 0
M  V30 5285 C 518.433 4.23049 -0.350724 0
M  V30 5286 C 516.34 5.41506 -2.37751 0
M  V30 5287 H 515.27 0.738409 -0.152541 0
M  V30 5288 H 517.921 1.52711 -1.01744 0
M  V30 5289 H 516.303 3.95991 -0.0265904 0
M  V30 5290 H 517.477 3.6098 -2.86408 0
M  V30 5291 H 515.792 3.35795 -2.46232 0
M  V30 5292 H 518.389 5.32403 -0.495036 0
M  V30 5293 H 518.732 4.10279 0.705476 0
M  V30 5294 H 519.265 3.85657 -0.975362 0
M  V30 5295 H 516.004 5.5927 -3.41903 0
M  V30 5296 H 515.524 5.74804 -1.7135 0
M  V30 5297 H 517.203 6.0828 -2.20465 0
M  V30 5298 N 517.335 0.585699 1.46312 0
M  V30 5299 C 518.746 0.159938 1.86014 0
M  V30 5300 C 519.097 -1.27775 1.48889 0
M  V30 5301 O 518.222 -1.96559 0.90519 0
M  V30 5302 C 518.817 0.283485 3.37612 0
M  V30 5303 C 517.376 -0.0874256 3.76298 0
M  V30 5304 C 516.523 0.618055 2.70325 0
M  V30 5305 H 519.474 0.793737 1.37425 0
M  V30 5306 H 519.495 -0.490348 3.77327 0
M  V30 5307 H 519.007 1.32995 3.64601 0
M  V30 5308 H 517.108 -1.13391 3.54927 0
M  V30 5309 H 517.221 0.290975 4.78216 0
M  V30 5310 H 515.585 0.057993 2.54634 0
M  V30 5311 H 516.368 1.66623 3.00153 0
M  V30 5312 N 518.813 -1.54241 0.323641 0
M  V30 5313 C 520.059 -2.00867 -0.279323 0
M  V30 5314 C 520.392 -1.21146 -1.5178 0
M  V30 5315 O 519.667 -0.29378 -1.92269 0
M  V30 5316 C 519.95 -3.54837 -0.613387 0
M  V30 5317 C 519.803 -4.45284 0.635803 0
M  V30 5318 C 521.122 -4.16186 -1.43099 0
M  V30 5319 H 518.241 -0.730177 -0.100049 0
M  V30 5320 H 520.883 -1.84829 0.440235 0
M  V30 5321 H 519.033 -3.68634 -1.22641 0
M  V30 5322 H 520.705 -4.43357 1.27406 0
M  V30 5323 H 518.948 -4.14956 1.26466 0
M  V30 5324 H 519.619 -5.5084 0.357597 0
M  V30 5325 H 522.095 -4.05964 -0.912814 0
M  V30 5326 H 520.971 -5.24031 -1.6335 0
M  V30 5327 H 521.232 -3.69516 -2.42715 0
M  V30 5328 N 520.291 -0.0518155 -1.57515 0
M  V30 5329 C 521.539 0.620595 -1.92336 0
M  V30 5330 C 521.86 1.71345 -0.930907 0
M  V30 5331 O 521.13 1.95885 0.0241341 0
M  V30 5332 H 519.71 0.232226 -0.709986 0
M  V30 5333 H 522.372 -0.104969 -1.94617 0
M  V30 5334 H 521.468 1.05879 -2.93592 0
M  V30 5335 N 521.769 1.56035 0.221574 0
M  V30 5336 C 523.18 1.69229 0.788567 0
M  V30 5337 C 523.531 0.653814 1.84986 0
M  V30 5338 O 522.656 -0.195065 2.15519 0
M  V30 5339 C 523.251 3.06809 1.43713 0
M  V30 5340 C 521.81 3.21858 1.95152 0
M  V30 5341 C 520.957 2.65155 0.811685 0
M  V30 5342 H 523.908 1.587 -0.00307894 0
M  V30 5343 H 523.929 3.02666 2.30594 0
M  V30 5344 H 523.441 3.82369 0.664475 0
M  V30 5345 H 521.542 2.51167 2.7522 0
M  V30 5346 H 521.655 4.29073 2.1315 0
M  V30 5347 H 520.019 2.23635 1.21899 0
M  V30 5348 H 520.802 3.43261 0.0516987 0
M  V30 5349 N 523.247 -0.488276 1.49845 0
M  V30 5350 C 524.21 -1.57069 1.66919 0
M  V30 5351 C 525.21 -1.51445 0.540479 0
M  V30 5352 O 526.4 -1.5437 0.807188 0
M  V30 5353 C 523.532 -2.96718 1.67844 0
M  V30 5354 H 524.725 -1.43254 2.63474 0
M  V30 5355 H 522.278 -0.713435 1.39068 0
M  V30 5356 H 523.013 -3.15996 0.7292 0
M  V30 5357 H 522.798 -3.02208 2.49826 0
M  V30 5358 H 524.288 -3.75335 1.83066 0
M  V30 5359 N 524.725 -1.39134 -0.740242 0
M  V30 5360 C 525.675 -1.33928 -1.84519 0
M  V30 5361 C 526.659 -0.221097 -1.59374 0
M  V30 5362 O 527.851 -0.458195 -1.70967 0
M  V30 5363 C 524.98 -1.17991 -3.22387 0
M  V30 5364 C 524.066 -2.34488 -3.53378 0
M  V30 5365 N 524.457 -3.59954 -3.5534 0
M  V30 5366 C 522.755 -2.27331 -3.83714 0
M  V30 5367 C 523.456 -4.36962 -3.83978 0
M  V30 5368 N 522.432 -3.66482 -4.01487 0
M  V30 5369 H 526.234 -2.28907 -1.84333 0
M  V30 5370 H 523.748 -1.32555 -0.938237 0
M  V30 5371 H 525.745 -1.12345 -4.01478 0
M  V30 5372 H 524.405 -0.23957 -3.23815 0
M  V30 5373 H 525.416 -3.93448 -3.36778 0
M  V30 5374 H 522.093 -1.41531 -3.92779 0
M  V30 5375 H 523.483 -5.45692 -3.92008 0
M  V30 5376 N 526.204 0.969867 -1.24223 0
M  V30 5377 C 527.62 1.23809 -1.00716 0
M  V30 5378 C 527.82 1.99469 0.285358 0
M  V30 5379 O 526.876 2.31764 1.00207 0
M  V30 5380 C 528.189 2.02734 -2.2208 0
M  V30 5381 C 529.737 2.15834 -2.26681 0
M  V30 5382 C 530.212 2.98154 -3.47661 0
M  V30 5383 N 531.703 3.05737 -3.47964 0
M  V30 5384 C 532.438 3.69785 -4.38231 0
M  V30 5385 N 531.934 4.35569 -5.3875 0
M  V30 5386 N 533.727 3.66775 -4.25949 0
M  V30 5387 H 525.878 0.463294 -2.07286 0
M  V30 5388 H 528.141 0.267348 -0.909521 0
M  V30 5389 H 527.847 1.54524 -3.15935 0
M  V30 5390 H 527.721 3.0347 -2.24021 0
M  V30 5391 H 530.108 2.63248 -1.33359 0
M  V30 5392 H 530.189 1.14453 -2.28767 0
M  V30 5393 H 529.833 2.51435 -4.41297 0
M  V30 5394 H 529.763 3.99729 -3.42818 0
M  V30 5395 H 532.254 2.58941 -2.75242 0
M  V30 5396 H 532.567 4.82251 -6.03866 0
M  V30 5397 H 530.912 4.34244 -5.42639 0
M  V30 5398 H 534.103 3.14558 -3.46657 0
M  V30 5399 H 534.276 4.16407 -4.96497 0
M  V30 5400 N 527.682 1.05563 1.17022 0
M  V30 5401 C 528.612 0.681026 2.23348 0
M  V30 5402 C 529.593 -0.322983 1.67005 0
M  V30 5403 O 530.778 -0.199746 1.9317 0
M  V30 5404 C 527.908 0.0589053 3.4725 0
M  V30 5405 C 526.862 0.988082 4.16438 0
M  V30 5406 C 526.188 0.229646 5.34207 0
M  V30 5407 C 527.488 2.31388 4.68249 0
M  V30 5408 H 529.182 1.56993 2.54938 0
M  V30 5409 H 526.728 0.756302 1.2254 0
M  V30 5410 H 528.681 -0.214982 4.20851 0
M  V30 5411 H 527.405 -0.864968 3.14938 0
M  V30 5412 H 526.064 1.24659 3.44754 0
M  V30 5413 H 525.712 -0.697111 4.98146 0
M  V30 5414 H 525.412 0.848815 5.81437 0
M  V30 5415 H 526.936 -0.0368694 6.10589 0
M  V30 5416 H 528.35 2.09964 5.33468 0
M  V30 5417 H 526.747 2.88736 5.26072 0
M  V30 5418 H 527.817 2.94982 3.84855 0
M  V30 5419 N 529.16 -1.33526 0.837174 0
M  V30 5420 C 530.07 -2.33023 0.271568 0
M  V30 5421 C 531.086 -1.63272 -0.601514 0
M  V30 5422 O 532.262 -1.94939 -0.506038 0
M  V30 5423 C 529.327 -3.42382 -0.545448 0
M  V30 5424 C 528.388 -4.27857 0.351709 0
M  V30 5425 C 527.621 -5.31994 -0.426409 0
M  V30 5426 O 527.844 -5.45763 -1.65828 0
M  V30 5427 O 526.778 -6.01572 0.1987 0
M  V30 5428 H 530.604 -2.83256 1.09545 0
M  V30 5429 H 528.189 -1.36837 0.599655 0
M  V30 5430 H 530.071 -4.09122 -1.00979 0
M  V30 5431 H 528.746 -2.94369 -1.34641 0
M  V30 5432 H 527.653 -3.6399 0.863853 0
M  V30 5433 H 528.986 -4.79349 1.1174 0
M  V30 5434 N 530.638 -0.59345 -1.46 0
M  V30 5435 C 531.585 0.133618 -2.30413 0
M  V30 5436 C 532.555 0.873736 -1.41262 0
M  V30 5437 O 533.74 0.862279 -1.70204 0
M  V30 5438 C 530.88 1.13434 -3.25924 0
M  V30 5439 C 529.993 0.39656 -4.30176 0
M  V30 5440 C 529.128 1.38575 -5.12806 0
M  V30 5441 C 528.167 0.634984 -6.08797 0
M  V30 5442 N 527.304 1.57276 -6.84258 0
M  V30 5443 H 532.144 -0.592252 -2.92055 0
M  V30 5444 H 529.681 -0.303874 -1.43927 0
M  V30 5445 H 531.639 1.72752 -3.79753 0
M  V30 5446 H 530.269 1.82779 -2.66067 0
M  V30 5447 H 529.321 -0.311861 -3.79119 0
M  V30 5448 H 530.633 -0.189869 -4.98438 0
M  V30 5449 H 529.787 2.05141 -5.70966 0
M  V30 5450 H 528.526 2.00611 -4.44529 0
M  V30 5451 H 527.531 -0.0443925 -5.49782 0
M  V30 5452 H 528.756 0.0198678 -6.79097 0
M  V30 5453 H 526.702 2.18103 -6.18682 0
M  V30 5454 H 526.619 1.03941 -7.48821 0
M  V30 5455 H 527.887 2.22844 -7.46968 0
M  V30 5456 N 532.116 1.54067 -0.331816 0
M  V30 5457 C 533.064 2.26105 0.54582 0
M  V30 5458 C 534.058 1.27816 1.11173 0
M  V30 5459 O 535.264 1.45565 1.05882 0
M  V30 5460 H 531.639 0.726363 0.194683 0
M  V30 5461 H 533.61 2.98282 -0.083931 0
M  V30 5462 C 532.359 3.03814 1.69092 0
M  V30 5463 H 531.682 3.79269 1.26473 0
M  V30 5464 H 533.122 3.57453 2.28043 0
M  V30 5465 C 531.581 2.12606 2.61343 0
M  V30 5466 O 532.111 1.71437 3.6328 0
M  V30 5467 N 530.317 1.77925 2.29763 0
M  V30 5468 H 529.864 2.11602 1.46909 0
M  V30 5469 H 529.822 1.1718 2.91747 0
M  V30 5470 N 533.594 0.0601682 1.57485 0
M  V30 5471 C 534.541 -0.91112 2.12055 0
M  V30 5472 C 535.511 -1.30298 1.03013 0
M  V30 5473 O 536.696 -1.39087 1.30612 0
M  V30 5474 C 533.836 -2.1775 2.67729 0
M  V30 5475 C 532.949 -1.83933 3.90887 0
M  V30 5476 C 532.084 -3.05096 4.34845 0
M  V30 5477 C 531.123 -2.67241 5.5068 0
M  V30 5478 N 530.26 -3.81127 5.8965 0
M  V30 5479 H 535.1 -0.43888 2.9475 0
M  V30 5480 H 532.637 -0.204995 1.45665 0
M  V30 5481 H 534.595 -2.91866 2.98111 0
M  V30 5482 H 533.225 -2.62535 1.87816 0
M  V30 5483 H 532.277 -0.999287 3.6704 0
M  V30 5484 H 533.589 -1.52074 4.75052 0
M  V30 5485 H 532.743 -3.87502 4.66827 0
M  V30 5486 H 531.482 -3.40139 3.49509 0
M  V30 5487 H 530.487 -1.83254 5.18361 0
M  V30 5488 H 531.712 -2.3338 6.37738 0
M  V30 5489 H 529.658 -4.15954 5.07266 0
M  V30 5490 H 529.575 -3.52997 6.68528 0
M  V30 5491 H 530.843 -4.64145 6.2625 0
M  V30 5492 N 535.072 -1.5615 -0.213296 0
M  V30 5493 C 536.035 -1.92249 -1.24792 0
M  V30 5494 C 537.035 -0.801828 -1.39382 0
M  V30 5495 O 538.225 -1.06948 -1.37506 0
M  V30 5496 C 535.357 -2.18056 -2.62039 0
M  V30 5497 H 536.55 -2.84793 -0.939845 0
M  V30 5498 H 534.103 -1.49559 -0.454062 0
M  V30 5499 H 534.838 -1.2809 -2.97932 0
M  V30 5500 H 534.623 -2.99703 -2.52825 0
M  V30 5501 H 536.113 -2.47051 -3.36683 0
M  V30 5502 N 536.55 0.480323 -1.50102 0
M  V30 5503 C 537.48 1.58769 -1.71215 0
M  V30 5504 C 538.461 1.60583 -0.560997 0
M  V30 5505 O 539.646 1.76996 -0.799127 0
M  V30 5506 C 536.776 2.97148 -1.79778 0
M  V30 5507 C 535.73 3.10201 -2.94888 0
M  V30 5508 C 535.056 4.50137 -2.88584 0
M  V30 5509 C 536.356 2.88283 -4.35534 0
M  V30 5510 H 538.05 1.41354 -2.6393 0
M  V30 5511 H 535.596 0.678591 -1.27008 0
M  V30 5512 H 537.549 3.74536 -1.93133 0
M  V30 5513 H 536.273 3.15699 -0.836772 0
M  V30 5514 H 534.932 2.35244 -2.81169 0
M  V30 5515 H 534.58 4.65593 -1.90349 0
M  V30 5516 H 534.28 4.59808 -3.65856 0
M  V30 5517 H 535.804 5.29558 -3.03976 0
M  V30 5518 H 537.218 3.55427 -4.49827 0
M  V30 5519 H 535.615 3.09408 -5.14186 0
M  V30 5520 H 536.685 1.84219 -4.48544 0
M  V30 5521 N 538.028 1.39524 0.732853 0
M  V30 5522 C 539.274 1.38072 1.49358 0
M  V30 5523 C 539.629 -0.0227943 1.92386 0
M  V30 5524 O 538.922 -0.98976 1.64056 0
M  V30 5525 C 539.116 2.28916 2.74468 0
M  V30 5526 C 538.945 3.7796 2.43673 0
M  V30 5527 C 537.715 4.46874 2.35863 0
M  V30 5528 C 539.913 4.69886 2.09074 0
M  V30 5529 N 537.895 5.81242 1.97561 0
M  V30 5530 C 539.266 5.9292 1.81234 0
M  V30 5531 C 541.321 4.57887 1.95561 0
M  V30 5532 C 540.024 7.05297 1.41242 0
M  V30 5533 C 542.05 5.70187 1.56972 0
M  V30 5534 C 541.412 6.92297 1.30018 0
M  V30 5535 H 537.511 0.56051 0.5453 0
M  V30 5536 H 540.095 1.75093 0.85151 0
M  V30 5537 H 538.266 1.9405 3.36451 0
M  V30 5538 H 539.998 2.18441 3.40684 0
M  V30 5539 H 536.753 4.00341 2.5303 0
M  V30 5540 H 537.177 6.52356 1.80997 0
M  V30 5541 H 541.819 3.64014 2.15067 0
M  V30 5542 H 539.537 7.99069 1.20476 0
M  V30 5543 H 543.123 5.62892 1.47119 0
M  V30 5544 H 542.003 7.7772 1.00605 0
M  V30 5545 N 539.506 -0.963266 1.24736 0
M  V30 5546 C 540.416 -2.09246 1.06082 0
M  V30 5547 C 541.432 -1.74 0.000363101 0
M  V30 5548 O 542.608 -2.0041 0.199479 0
M  V30 5549 C 539.673 -3.40115 0.672498 0
M  V30 5550 C 538.734 -3.89282 1.80993 0
M  V30 5551 C 537.967 -5.13905 1.44004 0
M  V30 5552 O 538.19 -5.69434 0.331835 0
M  V30 5553 O 537.124 -5.57566 2.26723 0
M  V30 5554 H 540.95 -2.27881 2.00759 0
M  V30 5555 H 538.535 -1.07649 1.03595 0
M  V30 5556 H 540.417 -4.18797 0.467668 0
M  V30 5557 H 539.092 -3.22771 -0.245102 0
M  V30 5558 H 537.999 -3.11642 2.06955 0
M  V30 5559 H 539.332 -4.1111 2.70646 0
M  V30 5560 N 540.985 -1.06182 -1.16461 0
M  V30 5561 C 542.213 -0.798583 -1.90867 0
M  V30 5562 C 542.628 0.646921 -1.77371 0
M  V30 5563 O 541.985 1.44279 -1.11758 0
M  V30 5564 C 542.036 -1.18258 -3.4161 0
M  V30 5565 O 541.757 -2.57135 -3.54701 0
M  V30 5566 C 543.258 -0.946917 -4.33069 0
M  V30 5567 H 540.478 -0.289603 -0.605286 0
M  V30 5568 H 543.022 -1.41515 -1.47627 0
M  V30 5569 H 541.177 -0.610562 -3.82558 0
M  V30 5570 H 541.591 -2.72477 -4.4817 0
M  V30 5571 H 543.065 -1.26523 -5.37304 0
M  V30 5572 H 543.542 0.117406 -4.39043 0
M  V30 5573 H 544.148 -1.50326 -3.97847 0
M  V30 5574 N 542.463 1.3308 -0.844243 0
M  V30 5575 C 543.693 2.01515 -0.455541 0
M  V30 5576 C 544.101 1.63655 0.949406 0
M  V30 5577 O 543.444 0.84848 1.62931 0
M  V30 5578 C 543.506 3.55967 -0.502801 0
M  V30 5579 C 543.17 4.17222 -1.86481 0
M  V30 5580 C 544.167 4.36205 -2.8288 0
M  V30 5581 C 541.852 4.53528 -2.15911 0
M  V30 5582 C 543.846 4.90649 -4.06869 0
M  V30 5583 C 541.533 5.07679 -3.40155 0
M  V30 5584 C 542.531 5.26186 -4.35451 0
M  V30 5585 O 542.219 5.79183 -5.57496 0
M  V30 5586 H 541.951 0.65199 -0.178565 0
M  V30 5587 H 544.505 1.70867 -1.1399 0
M  V30 5588 H 542.735 3.85965 0.23836 0
M  V30 5589 H 544.424 4.05688 -0.131169 0
M  V30 5590 H 545.19 4.085 -2.61444 0
M  V30 5591 H 541.069 4.38414 -1.42528 0
M  V30 5592 H 544.613 5.0501 -4.81259 0
M  V30 5593 H 540.51 5.34815 -3.61446 0
M  V30 5594 H 541.278 5.97591 -5.5931 0
M  V30 5595 N 543.941 0.601185 1.45683 0
M  V30 5596 C 545.189 0.0936957 2.01883 0
M  V30 5597 C 545.51 -1.2779 1.47291 0
M  V30 5598 O 544.78 -1.84279 0.664691 0
M  V30 5599 H 543.36 0.0316466 0.746329 0
M  V30 5600 H 546.022 0.781137 1.78562 0
M  V30 5601 H 545.118 0.0386297 3.12076 0
M  V30 5602 N 545.419 -1.53889 0.339982 0
M  V30 5603 C 546.644 -2.05741 -0.261798 0
M  V30 5604 C 547.069 -1.21354 -1.43718 0
M  V30 5605 O 546.427 -0.22645 -1.7988 0
M  V30 5606 C 546.475 -3.54542 -0.658228 0
M  V30 5607 O 545.579 -3.7302 -1.75869 0
M  V30 5608 H 544.92 -0.662529 -0.0441672 0
M  V30 5609 H 547.45 -1.98568 0.493161 0
M  V30 5610 H 547.46 -3.9711 -0.936368 0
M  V30 5611 H 546.135 -4.15412 0.201358 0
M  V30 5612 H 544.712 -3.42355 -1.47809 0
M  V30 5613 N 546.897 -0.0685191 -1.57451 0
M  V30 5614 C 548.145 0.60016 -1.92983 0
M  V30 5615 C 548.466 1.70348 -0.949028 0
M  V30 5616 O 547.736 1.959 0.00335647 0
M  V30 5617 H 546.316 0.224682 -0.712409 0
M  V30 5618 H 548.978 -0.125605 -1.94495 0
M  V30 5619 H 548.074 1.02759 -2.94698 0
M  V30 5620 N 548.375 1.56261 0.205012 0
M  V30 5621 C 549.621 1.81211 0.923805 0
M  V30 5622 C 549.976 0.644065 1.813 0
M  V30 5623 O 549.269 -0.361208 1.88164 0
M  V30 5624 C 549.463 3.09722 1.78345 0
M  V30 5625 C 549.292 4.38915 0.978979 0
M  V30 5626 C 548.062 5.00874 0.667332 0
M  V30 5627 C 550.26 5.13199 0.336386 0
M  V30 5628 N 548.242 6.137 -0.156814 0
M  V30 5629 C 549.613 6.19009 -0.350402 0
M  V30 5630 C 551.668 4.97266 0.251101 0
M  V30 5631 C 550.371 7.10616 -1.11434 0
M  V30 5632 C 552.397 5.89288 -0.499413 0
M  V30 5633 C 551.759 6.94536 -1.17468 0
M  V30 5634 H 547.858 0.714528 0.317764 0
M  V30 5635 H 550.442 1.93738 0.193317 0
M  V30 5636 H 548.613 2.98448 2.48563 0
M  V30 5637 H 550.345 3.22798 2.44098 0
M  V30 5638 H 547.1 4.63151 0.989366 0
M  V30 5639 H 547.524 6.74695 -0.558206 0
M  V30 5640 H 552.166 4.15935 0.758823 0
M  V30 5641 H 549.884 7.91417 -1.63353 0
M  V30 5642 H 553.47 5.79034 -0.566627 0
M  V30 5643 H 552.35 7.64513 -1.74613 0
M  V30 5644 N 549.853 -0.472356 1.50355 0
M  V30 5645 C 550.816 -1.5529 1.68576 0
M  V30 5646 C 551.816 -1.50863 0.556511 0
M  V30 5647 O 553.006 -1.53505 0.823516 0
M  V30 5648 C 550.138 -2.94921 1.70981 0
M  V30 5649 H 551.331 -1.40451 2.64978 0
M  V30 5650 H 548.884 -0.698645 1.39816 0
M  V30 5651 H 549.619 -3.15204 0.762675 0
M  V30 5652 H 549.404 -2.99541 2.53017 0
M  V30 5653 H 550.894 -3.73372 1.87037 0
M  V30 5654 N 551.331 -1.39911 -0.725443 0
M  V30 5655 C 552.559 -1.40949 -1.51463 0
M  V30 5656 C 552.974 -0.0065242 -1.88799 0
M  V30 5657 O 552.331 0.967163 -1.54765 0
M  V30 5658 C 552.382 -2.29119 -2.79619 0
M  V30 5659 O 552.103 -3.63952 -2.43866 0
M  V30 5660 C 553.604 -2.38642 -3.73584 0
M  V30 5661 H 550.824 -0.481091 -0.467752 0
M  V30 5662 H 553.368 -1.83843 -0.895651 0
M  V30 5663 H 551.523 -1.89612 -3.37826 0
M  V30 5664 H 551.937 -4.10677 -3.26258 0
M  V30 5665 H 553.411 -3.04563 -4.60375 0
M  V30 5666 H 553.888 -1.40846 -4.16004 0
M  V30 5667 H 554.494 -2.78659 -3.21293 0
M  V30 5668 N 552.809 0.956637 -1.25245 0
M  V30 5669 C 554.034 1.74104 -1.12706 0
M  V30 5670 C 554.459 1.85436 0.315429 0
M  V30 5671 O 553.817 1.33334 1.22848 0
M  V30 5672 C 553.865 3.1338 -1.78396 0
M  V30 5673 O 552.969 3.98485 -1.06224 0
M  V30 5674 H 552.31 0.53476 -0.393609 0
M  V30 5675 H 554.84 1.19924 -1.65769 0
M  V30 5676 H 554.85 3.6385 -1.846 0
M  V30 5677 H 553.525 3.04448 -2.83345 0
M  V30 5678 H 552.102 3.56952 -1.07886 0
M  V30 5679 N 554.287 1.06798 1.15896 0
M  V30 5680 C 555.517 0.807522 1.90165 0
M  V30 5681 C 555.925 -0.642417 1.7796 0
M  V30 5682 O 555.268 -1.45193 1.12537 0
M  V30 5683 C 555.33 1.12939 3.41299 0
M  V30 5684 C 554.994 2.57879 3.7729 0
M  V30 5685 C 555.991 3.56118 3.78782 0
M  V30 5686 C 553.676 2.93311 4.07767 0
M  V30 5687 C 555.67 4.87827 4.10248 0
M  V30 5688 C 553.357 4.25219 4.38899 0
M  V30 5689 C 554.355 5.22287 4.4012 0
M  V30 5690 O 554.043 6.51826 4.70508 0
M  V30 5691 H 553.775 0.291946 0.609708 0
M  V30 5692 H 556.329 1.42627 1.47806 0
M  V30 5693 H 554.559 0.45359 3.84031 0
M  V30 5694 H 556.248 0.852363 3.9685 0
M  V30 5695 H 557.014 3.30086 3.55342 0
M  V30 5696 H 552.893 2.18409 4.05979 0
M  V30 5697 H 556.437 5.63586 4.11116 0
M  V30 5698 H 552.334 4.51006 4.61805 0
M  V30 5699 H 553.102 6.56893 4.88298 0
M  V30 5700 N 555.766 -1.3263 0.851289 0
M  V30 5701 C 556.729 -2.27247 0.298541 0
M  V30 5702 C 557.729 -1.51467 -0.539847 0
M  V30 5703 O 558.919 -1.7061 -0.351843 0
M  V30 5704 C 556.051 -3.35964 -0.578004 0
M  V30 5705 H 557.244 -2.7765 1.13359 0
M  V30 5706 H 554.797 -1.43245 0.625354 0
M  V30 5707 H 555.532 -2.90823 -1.435 0
M  V30 5708 H 555.317 -3.92094 0.0220539 0
M  V30 5709 H 556.807 -4.06472 -0.957626 0
M  V30 5710 N 557.244 -0.608902 -1.45362 0
M  V30 5711 C 558.207 0.0992563 -2.28985 0
M  V30 5712 C 559.207 0.793841 -1.39838 0
M  V30 5713 O 560.397 0.641804 -1.61946 0
M  V30 5714 C 557.529 1.15073 -3.20891 0
M  V30 5715 H 558.722 -0.635964 -2.93079 0
M  V30 5716 H 556.275 -0.368007 -1.51906 0
M  V30 5717 H 557.01 1.91667 -2.616 0
M  V30 5718 H 556.795 0.656867 -3.86559 0
M  V30 5719 H 558.285 1.64665 -3.83765 0
M  V30 5720 N 558.722 1.53707 -0.348139 0
M  V30 5721 C 559.632 2.28881 0.514857 0
M  V30 5722 C 560.648 1.34168 1.10793 0
M  V30 5723 O 561.824 1.6721 1.12262 0
M  V30 5724 C 558.889 3.05042 1.64774 0
M  V30 5725 C 557.95 4.15389 1.08398 0
M  V30 5726 C 557.183 4.87909 2.16287 0
M  V30 5727 O 557.406 4.60137 3.3709 0
M  V30 5728 O 556.34 5.74254 1.80323 0
M  V30 5729 H 560.166 3.03547 -0.0963699 0
M  V30 5730 H 557.751 1.48972 -0.113043 0
M  V30 5731 H 559.633 3.52656 2.30677 0
M  V30 5732 H 558.308 2.33228 2.24469 0
M  V30 5733 H 557.215 3.72068 0.389341 0
M  V30 5734 H 558.548 4.89318 0.531829 0
M  V30 5735 N 560.2 0.0768682 1.57412 0
M  V30 5736 C 561.43 -0.5991 1.97723 0
M  V30 5737 C 561.838 -1.63378 0.954166 0
M  V30 5738 O 561.181 -1.83578 -0.0668706 0
M  V30 5739 C 561.243 -1.32078 3.34358 0
M  V30 5740 C 560.907 -0.438985 4.54887 0
M  V30 5741 C 561.904 0.305492 5.19002 0
M  V30 5742 C 559.589 -0.362378 5.00991 0
M  V30 5743 C 561.583 1.11475 6.27576 0
M  V30 5744 C 559.27 0.450543 6.09437 0
M  V30 5745 C 560.268 1.18777 6.72593 0
M  V30 5746 O 559.956 1.98727 7.7895 0
M  V30 5747 H 559.688 -0.166725 0.655117 0
M  V30 5748 H 562.242 0.147337 2.04871 0
M  V30 5749 H 560.472 -2.1134 3.2384 0
M  V30 5750 H 562.161 -1.88949 3.5924 0
M  V30 5751 H 562.927 0.25593 4.84324 0
M  V30 5752 H 558.806 -0.925832 4.51608 0
M  V30 5753 H 562.35 1.69068 6.76803 0
M  V30 5754 H 558.247 0.501651 6.43548 0
M  V30 5755 H 559.015 1.91214 7.95851 0
M  V30 5756 N 561.678 -1.56367 -0.196722 0
M  V30 5757 C 562.955 -1.71359 -0.943159 0
M  V30 5758 C 563.335 -0.631192 -2.01443 0
M  V30 5759 O 562.683 0.358071 -2.25677 0
M  V30 5760 C 562.893 -3.13623 -1.53106 0
M  V30 5761 C 564.241 -3.73806 -2.01381 0
M  V30 5762 O 565.265 -3.16742 -1.62951 0
M  V30 5763 O 564.124 -4.73951 -2.7209 0
M  V30 5764 H 561.218 -0.698851 -0.442195 0
M  V30 5765 H 563.764 -1.68672 -0.186547 0
M  V30 5766 H 562.536 -3.83873 -0.758785 0
M  V30 5767 H 562.159 -3.20532 -2.35255 0
M  V30 5768 N 563.156 0.464375 -1.50603 0
M  V30 5769 C 564.567 1.04507 -1.5471 0
M  V30 5770 C 564.918 1.9297 -0.354542 0
M  V30 5771 O 564.043 2.09763 0.531812 0
M  V30 5772 C 564.638 1.90207 -2.80369 0
M  V30 5773 C 563.197 2.43373 -2.87135 0
M  V30 5774 C 562.344 1.21886 -2.49076 0
M  V30 5775 H 565.295 0.246716 -1.56771 0
M  V30 5776 H 565.316 2.75353 -2.62604 0
M  V30 5777 H 564.828 1.25796 -3.67147 0
M  V30 5778 H 562.929 3.11318 -2.04724 0
M  V30 5779 H 563.042 2.7802 -3.90181 0
M  V30 5780 H 561.406 1.55575 -2.01664 0
M  V30 5781 H 562.189 0.591268 -3.3817 0
M  V30 5782 N 564.634 1.40294 0.718013 0
M  V30 5783 C 565.544 1.42678 1.86226 0
M  V30 5784 C 566.56 0.319655 1.71039 0
M  V30 5785 O 567.736 0.563852 1.93346 0
M  V30 5786 C 564.801 1.2852 3.21999 0
M  V30 5787 C 563.862 2.49354 3.49458 0
M  V30 5788 C 563.095 2.35863 4.78753 0
M  V30 5789 O 563.318 1.37114 5.53675 0
M  V30 5790 O 562.252 3.25189 5.06494 0
M  V30 5791 H 566.078 2.39167 1.87171 0
M  V30 5792 H 563.663 1.2159 0.868112 0
M  V30 5793 H 565.545 1.22824 4.03103 0
M  V30 5794 H 564.22 0.351359 3.21787 0
M  V30 5795 H 563.127 2.60628 2.68373 0
M  V30 5796 H 564.46 3.41491 3.54464 0
M  V30 5797 N 566.112 -0.949982 1.2575 0
M  V30 5798 C 567.389 -1.6718 1.01539 0
M  V30 5799 C 567.769 -2.06095 -0.456942 0
M  V30 5800 O 567.117 -1.77792 -1.43534 0
M  V30 5801 C 567.327 -2.8906 1.95564 0
M  V30 5802 C 568.675 -3.60909 2.23673 0
M  V30 5803 O 569.699 -2.9915 1.9336 0
M  V30 5804 O 568.558 -4.72127 2.75243 0
M  V30 5805 H 565.652 -0.731697 0.385419 0
M  V30 5806 H 568.198 -1.00249 1.36924 0
M  V30 5807 H 566.97 -2.57128 2.94959 0
M  V30 5808 H 566.593 -3.63719 1.60605 0
M  V30 5809 N 567.59 -1.07411 -1.15328 0
M  V30 5810 C 568.553 -0.698914 -2.18284 0
M  V30 5811 C 569.553 0.261149 -1.58665 0
M  V30 5812 O 570.743 0.0420277 -1.74149 0
M  V30 5813 C 567.875 -0.0302427 -3.40887 0
M  V30 5814 H 569.068 -1.61045 -2.52991 0
M  V30 5815 H 566.621 -0.870724 -1.298 0
M  V30 5816 H 567.356 0.893505 -3.11748 0
M  V30 5817 H 567.141 -0.720759 -3.85419 0
M  V30 5818 H 568.631 0.21759 -4.17033 0
M  V30 5819 N 569.068 1.32177 -0.85831 0
M  V30 5820 C 570.316 1.96735 -0.462568 0
M  V30 5821 C 570.637 1.6824 0.985911 0
M  V30 5822 O 569.907 0.991564 1.68952 0
M  V30 5823 H 568.487 0.727849 -0.168064 0
M  V30 5824 H 571.149 1.61195 -1.09554 0
M  V30 5825 H 570.245 3.06068 -0.610647 0
M  V30 5826 N 570.547 0.616602 1.45037 0
M  V30 5827 C 571.494 -0.0969439 2.30596 0
M  V30 5828 C 572.464 -0.851151 1.42635 0
M  V30 5829 O 573.649 -0.835092 1.71554 0
M  V30 5830 C 570.789 -1.08234 3.27688 0
M  V30 5831 C 569.902 -0.328072 4.30752 0
M  V30 5832 C 569.037 -1.30399 5.14946 0
M  V30 5833 C 568.076 -0.538049 6.09731 0
M  V30 5834 N 567.213 -1.46371 6.86673 0
M  V30 5835 H 572.053 0.63864 2.91076 0
M  V30 5836 H 569.59 0.326733 1.43425 0
M  V30 5837 H 571.548 -1.66688 3.82454 0
M  V30 5838 H 570.178 -1.78523 2.68941 0
M  V30 5839 H 569.23 0.372136 3.78575 0
M  V30 5840 H 570.542 0.269142 4.98073 0
M  V30 5841 H 569.696 -1.96032 5.74157 0
M  V30 5842 H 568.435 -1.93514 4.47665 0
M  V30 5843 H 567.44 0.131852 5.49642 0
M  V30 5844 H 568.665 0.0881732 6.79043 0
M  V30 5845 H 566.611 -2.08233 6.22073 0
M  V30 5846 H 566.528 -0.920152 7.50379 0
M  V30 5847 H 567.796 -2.10932 7.50418 0
M  V30 5848 N 572.025 -1.5352 0.356285 0
M  V30 5849 C 573.271 -2.02104 -0.229271 0
M  V30 5850 C 573.626 -1.23923 -1.47176 0
M  V30 5851 O 572.919 -0.321957 -1.88876 0
M  V30 5852 C 573.113 -3.52607 -0.583369 0
M  V30 5853 C 572.942 -4.4536 0.623253 0
M  V30 5854 C 571.712 -4.92446 1.13248 0
M  V30 5855 C 573.91 -4.92375 1.48563 0
M  V30 5856 N 571.892 -5.69183 2.3001 0
M  V30 5857 C 573.263 -5.67362 2.50001 0
M  V30 5858 C 575.318 -4.74464 1.50959 0
M  V30 5859 C 574.021 -6.26341 3.5368 0
M  V30 5860 C 576.047 -5.34302 2.53526 0
M  V30 5861 C 575.409 -6.09166 3.53688 0
M  V30 5862 H 571.508 -0.780595 -0.0468602 0
M  V30 5863 H 574.092 -1.88204 0.49873 0
M  V30 5864 H 572.263 -3.66686 -1.28046 0
M  V30 5865 H 573.995 -3.87922 -1.15321 0
M  V30 5866 H 570.75 -4.6842 0.698562 0
M  V30 5867 H 571.174 -6.12216 2.88998 0
M  V30 5868 H 575.816 -4.16117 0.748785 0
M  V30 5869 H 573.534 -6.8379 4.30648 0
M  V30 5870 H 577.12 -5.22342 2.56223 0
M  V30 5871 H 576 -6.54644 4.31753 0
M  V30 5872 N 573.503 -0.0852151 -1.57369 0
M  V30 5873 C 574.75 0.580806 -1.93992 0
M  V30 5874 C 575.078 1.68801 -0.966252 0
M  V30 5875 O 574.333 1.95694 0.0158649 0
M  V30 5876 C 574.632 1.18482 -3.3719 0
M  V30 5877 C 574.298 0.2024 -4.50446 0
M  V30 5878 C 572.96 -0.0678318 -4.81152 0
M  V30 5879 C 575.312 -0.46895 -5.19086 0
M  V30 5880 C 572.64 -1.01627 -5.77831 0
M  V30 5881 C 574.992 -1.4058 -6.16782 0
M  V30 5882 C 573.656 -1.68436 -6.45899 0
M  V30 5883 H 572.926 0.212532 -0.709867 0
M  V30 5884 H 575.573 -0.158947 -1.90839 0
M  V30 5885 H 573.878 2.0006 -3.36873 0
M  V30 5886 H 575.575 1.70767 -3.62822 0
M  V30 5887 H 572.165 0.423208 -4.26505 0
M  V30 5888 H 576.349 -0.273307 -4.95547 0
M  V30 5889 H 571.605 -1.2392 -5.9871 0
M  V30 5890 H 575.779 -1.93188 -6.69068 0
M  V30 5891 H 573.406 -2.42088 -7.20623 0
M  V30 5892 N 574.981 1.5647 0.188427 0
M  V30 5893 C 576.229 1.80655 0.905986 0
M  V30 5894 C 576.55 0.659391 1.83513 0
M  V30 5895 O 575.82 -0.321868 1.93238 0
M  V30 5896 H 574.4 0.666391 0.337538 0
M  V30 5897 H 577.062 1.93949 0.192339 0
M  V30 5898 H 576.158 2.74066 1.49313 0
M  V30 5899 N 576.459 -0.456382 1.50847 0
M  V30 5900 C 577.707 -1.20497 1.62249 0
M  V30 5901 C 578.028 -1.92156 0.331839 0
M  V30 5902 O 577.298 -1.84751 -0.651443 0
M  V30 5903 H 575.878 -0.447775 0.597918 0
M  V30 5904 H 578.54 -0.525099 1.87693 0
M  V30 5905 H 577.636 -1.94492 2.44089 0
M  V30 5906 N 577.937 -1.40673 -0.710563 0
M  V30 5907 C 579.162 -1.42741 -1.50465 0
M  V30 5908 C 579.587 -0.0302116 -1.88076 0
M  V30 5909 O 578.945 0.962945 -1.53613 0
M  V30 5910 C 578.993 -2.32873 -2.75322 0
M  V30 5911 O 578.097 -1.77544 -3.72226 0
M  V30 5912 H 577.438 -0.485056 -0.45345 0
M  V30 5913 H 579.968 -1.84961 -0.874681 0
M  V30 5914 H 579.978 -2.48233 -3.23797 0
M  V30 5915 H 578.653 -3.34401 -2.47283 0
M  V30 5916 H 577.23 -1.71556 -3.31093 0
M  V30 5917 N 579.415 0.9433 -1.26252 0
M  V30 5918 C 580.378 2.02326 -1.07689 0
M  V30 5919 C 581.378 1.60779 -0.0259174 0
M  V30 5920 O 582.568 1.72108 -0.269134 0
M  V30 5921 C 579.7 3.34886 -0.63752 0
M  V30 5922 H 580.893 2.20225 -2.0357 0
M  V30 5923 H 578.446 1.12197 -1.08819 0
M  V30 5924 H 579.181 3.22684 0.323377 0
M  V30 5925 H 578.966 3.66393 -1.39637 0
M  V30 5926 H 580.456 4.14231 -0.529418 0
M  V30 5927 N 580.893 1.08022 1.14757 0
M  V30 5928 C 582.139 0.808705 1.85978 0
M  V30 5929 C 582.472 -0.663764 1.82504 0
M  V30 5930 O 581.747 -1.48765 1.25296 0
M  V30 5931 C 582.03 1.32623 3.34788 0
M  V30 5932 C 581.883 2.86375 3.46856 0
M  V30 5933 C 583.202 0.948291 4.29762 0
M  V30 5934 H 580.321 0.295244 0.675278 0
M  V30 5935 H 582.963 1.33917 1.34783 0
M  V30 5936 H 581.113 0.875002 3.78518 0
M  V30 5937 H 582.785 3.39839 3.11941 0
M  V30 5938 H 581.028 3.24232 2.88194 0
M  V30 5939 H 581.699 3.17658 4.51439 0
M  V30 5940 H 584.175 1.33722 3.94028 0
M  V30 5941 H 583.051 1.33765 5.32352 0
M  V30 5942 H 583.312 -0.145094 4.41862 0
M  V30 5943 N 582.371 -1.3172 0.865308 0
M  V30 5944 C 583.648 -1.91574 0.394789 0
M  V30 5945 C 584.028 -1.78769 -1.12271 0
M  V30 5946 O 583.376 -1.19245 -1.94918 0
M  V30 5947 C 583.586 -3.37957 0.870982 0
M  V30 5948 C 584.934 -4.15073 0.894384 0
M  V30 5949 O 585.958 -3.4672 0.816325 0
M  V30 5950 O 584.817 -5.37151 1.00651 0
M  V30 5951 H 581.911 -0.818649 0.117229 0
M  V30 5952 H 584.457 -1.4042 0.952913 0
M  V30 5953 H 583.229 -3.41269 1.91444 0
M  V30 5954 H 582.852 -3.96534 0.290907 0
M  V30 5955 N 583.85 -0.624285 -1.44708 0
M  V30 5956 C 584.798 0.0969952 -2.32398 0
M  V30 5957 C 585.792 0.842762 -1.46949 0
M  V30 5958 O 586.998 0.756436 -1.63334 0
M  V30 5959 H 583.373 0.0501306 -0.750327 0
M  V30 5960 H 585.344 -0.660767 -2.90992 0
M  V30 5961 C 584.093 1.06967 -3.30837 0
M  V30 5962 H 583.416 0.505242 -3.96595 0
M  V30 5963 H 584.856 1.54397 -3.94889 0
M  V30 5964 C 583.315 2.15153 -2.5925 0
M  V30 5965 O 583.845 3.23139 -2.3863 0
M  V30 5966 N 582.051 1.90898 -2.19103 0
M  V30 5967 H 581.598 1.03086 -2.36074 0
M  V30 5968 H 581.556 2.63485 -1.71531 0
M  V30 5969 N 585.328 1.53329 -0.364422 0
M  V30 5970 C 586.26 2.23286 0.517293 0
M  V30 5971 C 587.273 1.24657 1.04711 0
M  V30 5972 O 588.462 1.50887 0.95369 0
M  V30 5973 C 585.562 2.91604 1.72685 0
M  V30 5974 C 584.735 4.1673 1.32873 0
M  V30 5975 C 583.794 4.68269 2.40022 0
M  V30 5976 O 582.82 5.31976 2.02461 0
M  V30 5977 N 584.022 4.45983 3.7159 0
M  V30 5978 H 586.787 2.99588 -0.0819391 0
M  V30 5979 H 584.348 1.60787 -0.189544 0
M  V30 5980 H 586.34 3.22992 2.4384 0
M  V30 5981 H 584.91 2.18763 2.23297 0
M  V30 5982 H 584.13 3.91657 0.447069 0
M  V30 5983 H 585.418 4.98078 1.03902 0
M  V30 5984 H 584.816 3.95077 4.04883 0
M  V30 5985 H 583.373 4.81924 4.38854 0
M  V30 5986 N 586.806 0.0935595 1.57322 0
M  V30 5987 C 587.769 -0.851426 2.12799 0
M  V30 5988 C 588.769 -1.21187 1.0569 0
M  V30 5989 O 589.959 -1.14156 1.31583 0
M  V30 5990 C 587.091 -2.14779 2.64731 0
M  V30 5991 H 588.284 -0.369733 2.97612 0
M  V30 5992 H 585.837 -0.155417 1.55525 0
M  V30 5993 H 586.572 -2.67437 1.83434 0
M  V30 5994 H 586.357 -1.89907 3.43042 0
M  V30 5995 H 587.847 -2.82383 3.07651 0
M  V30 5996 N 588.284 -1.56567 -0.180126 0
M  V30 5997 C 589.214 -1.98753 -1.22553 0
M  V30 5998 C 590.195 -0.86175 -1.46656 0
M  V30 5999 O 591.38 -1.12719 -1.58139 0
M  V30 6000 C 588.51 -2.33988 -2.56645 0
M  V30 6001 C 587.464 -3.49445 -2.47128 0
M  V30 6002 C 586.79 -3.70397 -3.8563 0
M  V30 6003 C 588.09 -4.83171 -1.98352 0
M  V30 6004 H 589.784 -2.86332 -0.874896 0
M  V30 6005 H 587.33 -1.37757 -0.419414 0
M  V30 6006 H 589.283 -2.62097 -3.29974 0
M  V30 6007 H 588.007 -1.43309 -2.93479 0
M  V30 6008 H 586.666 -3.2145 -1.76254 0
M  V30 6009 H 586.314 -2.77023 -4.19842 0
M  V30 6010 H 586.014 -4.48077 -3.80132 0
M  V30 6011 H 587.538 -4.00897 -4.60558 0
M  V30 6012 H 588.952 -5.10213 -2.61449 0
M  V30 6013 H 587.349 -5.64425 -2.03823 0
M  V30 6014 H 588.419 -4.75753 -0.937402 0
M  V30 6015 N 589.762 0.448376 -1.51087 0
M  V30 6016 C 591.009 1.19872 -1.63209 0
M  V30 6017 C 591.337 1.91451 -0.343062 0
M  V30 6018 O 590.592 1.83789 0.672321 0
M  V30 6019 C 590.891 2.24866 -2.77795 0
M  V30 6020 C 590.557 1.70378 -4.17471 0
M  V30 6021 C 589.219 1.55241 -4.55471 0
M  V30 6022 C 591.571 1.30203 -5.04675 0
M  V30 6023 C 588.899 0.983844 -5.78392 0
M  V30 6024 C 591.251 0.747798 -6.28165 0
M  V30 6025 C 589.915 0.583233 -6.64947 0
M  V30 6026 H 589.185 0.438642 -0.597222 0
M  V30 6027 H 591.832 0.49136 -1.85089 0
M  V30 6028 H 590.137 3.01598 -2.50092 0
M  V30 6029 H 591.834 2.82723 -2.84374 0
M  V30 6030 H 588.424 1.83134 -3.87505 0
M  V30 6031 H 592.608 1.40723 -4.75932 0
M  V30 6032 H 587.864 0.844007 -6.05546 0
M  V30 6033 H 592.038 0.427927 -6.95084 0
M  V30 6034 H 589.665 0.140532 -7.6007 0
M  V30 6035 N 591.24 1.41047 0.703093 0
M  V30 6036 C 592.517 1.30493 1.45708 0
M  V30 6037 C 592.897 -0.0709892 2.10981 0
M  V30 6038 O 592.245 -1.08471 2.01113 0
M  V30 6039 C 592.455 2.45287 2.48265 0
M  V30 6040 C 593.803 2.86104 3.13735 0
M  V30 6041 O 594.827 2.44971 2.58587 0
M  V30 6042 O 593.686 3.57206 4.13601 0
M  V30 6043 H 590.78 0.513144 0.648546 0
M  V30 6044 H 593.326 1.52995 0.734208 0
M  V30 6045 H 592.098 3.37135 1.98635 0
M  V30 6046 H 591.721 2.24622 3.28071 0
M  V30 6047 N 592.718 -0.936591 1.26751 0
M  V30 6048 C 593.965 -1.68331 1.12566 0
M  V30 6049 C 594.293 -1.91677 -0.330168 0
M  V30 6050 O 593.548 -1.49859 -1.2586 0
M  V30 6051 C 593.847 -3.06099 1.84494 0
M  V30 6052 C 593.513 -3.02493 3.34378 0
M  V30 6053 C 592.175 -3.01217 3.75262 0
M  V30 6054 C 594.527 -2.94453 4.30055 0
M  V30 6055 C 591.855 -2.89672 5.10203 0
M  V30 6056 C 594.207 -2.84449 5.65041 0
M  V30 6057 C 592.871 -2.81518 6.0523 0
M  V30 6058 H 592.141 -0.615965 0.411907 0
M  V30 6059 H 594.788 -1.09292 1.5725 0
M  V30 6060 H 593.093 -3.6879 1.32292 0
M  V30 6061 H 594.79 -3.62733 1.70955 0
M  V30 6062 H 591.38 -3.04269 3.01858 0
M  V30 6063 H 595.564 -2.94544 3.99447 0
M  V30 6064 H 590.82 -2.85783 5.40498 0
M  V30 6065 H 594.994 -2.77192 6.38856 0
M  V30 6066 H 592.621 -2.72329 7.09747 0
M  V30 6067 N 594.196 -1.08629 -1.14182 0
M  V30 6068 C 595.143 -0.718299 -2.19338 0
M  V30 6069 C 596.113 0.296587 -1.63431 0
M  V30 6070 O 597.298 0.180079 -1.89948 0
M  V30 6071 C 594.438 -0.136203 -3.44831 0
M  V30 6072 C 593.551 -1.20414 -4.14879 0
M  V30 6073 C 592.686 -0.585666 -5.27962 0
M  V30 6074 C 591.725 -1.63548 -5.89846 0
M  V30 6075 N 590.862 -1.03864 -6.94375 0
M  V30 6076 H 595.702 -1.61932 -2.50164 0
M  V30 6077 H 593.239 -0.80919 -1.22844 0
M  V30 6078 H 595.197 0.219021 -4.16625 0
M  V30 6079 H 593.827 0.728121 -3.14481 0
M  V30 6080 H 592.879 -1.67676 -3.41451 0
M  V30 6081 H 594.191 -1.99959 -4.56966 0
M  V30 6082 H 593.345 -0.178818 -6.06436 0
M  V30 6083 H 592.084 0.24142 -4.87102 0
M  V30 6084 H 591.089 -2.05197 -5.10073 0
M  V30 6085 H 592.314 -2.46509 -6.3278 0
M  V30 6086 H 590.26 -0.232687 -6.55587 0
M  V30 6087 H 590.177 -1.77116 -7.3496 0
M  V30 6088 H 591.445 -0.657724 -7.7672 0
M  V30 6089 N 595.674 1.31259 -0.872281 0
M  V30 6090 C 596.922 1.96233 -0.483409 0
M  V30 6091 C 597.243 1.69276 0.968012 0
M  V30 6092 O 596.513 1.00943 1.67891 0
M  V30 6093 H 595.093 0.726025 -0.175774 0
M  V30 6094 H 597.755 1.60024 -1.11258 0
M  V30 6095 H 596.851 3.05403 -0.643075 0
M  V30 6096 N 597.152 0.631951 1.44375 0
M  V30 6097 C 598.568 0.297642 1.568 0
M  V30 6098 C 598.768 -1.19916 1.61934 0
M  V30 6099 O 597.824 -1.98324 1.56281 0
M  V30 6100 C 599.137 0.990286 2.83926 0
M  V30 6101 C 600.685 0.968507 2.97639 0
M  V30 6102 C 601.16 1.64163 4.27568 0
M  V30 6103 N 602.651 1.60826 4.34384 0
M  V30 6104 C 603.386 2.09802 5.33639 0
M  V30 6105 N 602.882 2.66973 6.39294 0
M  V30 6106 N 604.675 2.00426 5.25153 0
M  V30 6107 H 596.826 1.60353 1.39286 0
M  V30 6108 H 599.089 0.673142 0.667521 0
M  V30 6109 H 598.795 2.04519 2.8612 0
M  V30 6110 H 598.669 0.528563 3.73478 0
M  V30 6111 H 601.056 -0.0779247 2.94997 0
M  V30 6112 H 601.137 1.46873 2.09433 0
M  V30 6113 H 600.781 2.68752 4.3097 0
M  V30 6114 H 600.711 1.11624 5.14634 0
M  V30 6115 H 603.202 1.19087 3.58646 0
M  V30 6116 H 603.515 3.02074 7.11316 0
M  V30 6117 H 601.86 2.71024 6.39977 0
M  V30 6118 H 605.051 1.55483 4.41523 0
M  V30 6119 H 605.224 2.38906 6.02352 0
M  V30 6120 N 598.631 -1.53133 0.372548 0
M  V30 6121 C 600.042 -1.86404 -0.105155 0
M  V30 6122 C 600.393 -1.29289 -1.47576 0
M  V30 6123 O 599.518 -0.617646 -2.07398 0
M  V30 6124 C 600.113 -3.38223 -0.197588 0
M  V30 6125 C 598.672 -3.71266 -0.619556 0
M  V30 6126 C 597.819 -2.76353 0.228919 0
M  V30 6127 H 600.77 -1.47282 0.591077 0
M  V30 6128 H 600.791 -3.66577 -1.01987 0
M  V30 6129 H 600.303 -3.79763 0.800099 0
M  V30 6130 H 598.404 -3.35287 -1.62522 0
M  V30 6131 H 598.517 -4.77515 -0.389332 0
M  V30 6132 H 596.881 -2.52888 -0.303271 0
M  V30 6133 H 597.664 -3.20728 1.22428 0
M  V30 6134 N 600.109 -0.101901 -1.5727 0
M  V30 6135 C 601.039 0.851544 -2.17419 0
M  V30 6136 C 602.02 1.28942 -1.10941 0
M  V30 6137 O 603.205 1.35509 -1.39107 0
M  V30 6138 C 600.335 2.10816 -2.75996 0
M  V30 6139 C 599.289 1.80867 -3.87906 0
M  V30 6140 C 598.615 3.13413 -4.33216 0
M  V30 6141 C 599.915 1.0903 -5.10793 0
M  V30 6142 H 601.609 0.350381 -2.97343 0
M  V30 6143 H 599.155 0.16709 -1.43027 0
M  V30 6144 H 601.108 2.77959 -3.16729 0
M  V30 6145 H 599.832 2.63227 -1.93337 0
M  V30 6146 H 598.491 1.16119 -3.47724 0
M  V30 6147 H 598.139 3.63725 -3.47438 0
M  V30 6148 H 597.839 2.94155 -5.08671 0
M  V30 6149 H 599.363 3.81704 -4.76586 0
M  V30 6150 H 600.777 1.66295 -5.48652 0
M  V30 6151 H 599.174 0.99927 -5.91722 0
M  V30 6152 H 600.244 0.0741704 -4.84843 0
M  V30 6153 N 601.587 1.56661 0.17182 0
M  V30 6154 C 602.998 1.71652 0.734329 0
M  V30 6155 C 603.349 0.712335 1.82812 0
M  V30 6156 O 602.474 -0.126401 2.16031 0
M  V30 6157 C 603.069 3.11226 1.3388 0
M  V30 6158 C 601.628 3.27904 1.84813 0
M  V30 6159 C 600.775 2.67603 0.726917 0
M  V30 6160 H 603.726 1.5861 -0.0535665 0
M  V30 6161 H 603.747 3.09849 2.20849 0
M  V30 6162 H 603.259 3.8429 0.54249 0
M  V30 6163 H 601.36 2.59796 2.6709 0
M  V30 6164 H 601.473 4.35637 1.99392 0
M  V30 6165 H 599.837 2.274 1.14723 0
M  V30 6166 H 600.62 3.43252 -0.0575334 0
M  V30 6167 N 603.065 -0.440357 1.51323 0
M  V30 6168 C 604.29 -1.21716 1.67928 0
M  V30 6169 C 604.715 -1.84328 0.374826 0
M  V30 6170 O 604.073 -1.68675 -0.664706 0
M  V30 6171 C 604.121 -2.27914 2.79442 0
M  V30 6172 O 603.225 -3.33325 2.42834 0
M  V30 6173 H 602.566 -0.35674 0.560029 0
M  V30 6174 H 605.096 -0.520417 1.97871 0
M  V30 6175 H 605.106 -2.72746 3.03436 0
M  V30 6176 H 603.781 -1.8172 3.741 0
M  V30 6177 H 602.358 -2.9399 2.294 0
M  V30 6178 N 604.543 -1.41418 -0.695603 0
M  V30 6179 C 605.473 -1.46035 -1.82197 0
M  V30 6180 C 606.454 -0.319025 -1.67082 0
M  V30 6181 O 607.639 -0.530462 -1.86815 0
M  V30 6182 C 604.769 -1.34179 -3.20333 0
M  V30 6183 C 603.723 -2.46123 -3.50154 0
M  V30 6184 C 603.049 -2.19332 -4.87645 0
M  V30 6185 C 604.349 -3.88463 -3.49133 0
M  V30 6186 H 606.043 -2.40303 -1.78591 0
M  V30 6187 H 603.589 -1.15663 -0.857797 0
M  V30 6188 H 605.542 -1.36021 -3.98844 0
M  V30 6189 H 604.266 -0.363952 -3.24566 0
M  V30 6190 H 602.925 -2.43563 -2.73994 0
M  V30 6191 H 602.573 -1.19891 -4.88503 0
M  V30 6192 H 602.273 -2.94344 -5.08562 0
M  V30 6193 H 603.797 -2.22889 -5.68465 0
M  V30 6194 H 605.211 -3.92738 -4.17648 0
M  V30 6195 H 603.608 -4.63158 -3.81582 0
M  V30 6196 H 604.678 -4.16617 -2.48109 0
M  V30 6197 N 606.021 0.929856 -1.27246 0
M  V30 6198 C 606.971 2.01629 -1.06442 0
M  V30 6199 C 607.955 1.60899 0.00687842 0
M  V30 6200 O 609.147 1.75733 -0.211407 0
M  V30 6201 C 606.276 3.35849 -0.711361 0
M  V30 6202 C 605.362 3.8303 -1.82069 0
M  V30 6203 N 605.753 4.02743 -3.05993 0
M  V30 6204 C 604.051 4.12046 -1.70687 0
M  V30 6205 C 604.752 4.42001 -3.78167 0
M  V30 6206 N 603.728 4.4935 -3.05918 0
M  V30 6207 H 607.53 2.14898 -2.00489 0
M  V30 6208 H 605.044 1.11654 -1.17929 0
M  V30 6209 H 607.041 4.13343 -0.543442 0
M  V30 6210 H 605.701 3.23944 0.221517 0
M  V30 6211 H 606.712 3.89112 -3.41778 0
M  V30 6212 H 603.389 4.08866 -0.844681 0
M  V30 6213 H 604.779 4.6535 -4.84664 0
M  V30 6214 N 607.499 1.09233 1.13605 0
M  V30 6215 C 608.745 0.828385 1.8511 0
M  V30 6216 C 609.078 -0.64437 1.83198 0
M  V30 6217 O 608.353 -1.47428 1.26867 0
M  V30 6218 C 608.636 1.36167 3.33363 0
M  V30 6219 C 608.489 2.90038 3.438 0
M  V30 6220 C 609.808 0.993819 4.28732 0
M  V30 6221 H 606.927 0.30239 0.672108 0
M  V30 6222 H 609.569 1.35339 1.33355 0
M  V30 6223 H 607.719 0.9151 3.77569 0
M  V30 6224 H 609.391 3.43128 3.08319 0
M  V30 6225 H 607.634 3.27271 2.84739 0
M  V30 6226 H 608.305 3.22428 4.48045 0
M  V30 6227 H 610.781 1.37893 3.92587 0
M  V30 6228 H 609.657 1.39403 5.30903 0
M  V30 6229 H 609.918 -0.0982206 4.41991 0
M  V30 6230 N 608.977 -1.30795 0.87923 0
M  V30 6231 C 610.224 -1.96362 0.494786 0
M  V30 6232 C 610.552 -1.69448 -0.954868 0
M  V30 6233 O 609.807 -0.988711 -1.68888 0
M  V30 6234 C 610.106 -3.50287 0.709476 0
M  V30 6235 C 609.772 -3.9724 2.13333 0
M  V30 6236 C 608.434 -4.09772 2.52271 0
M  V30 6237 C 610.786 -4.21807 3.06151 0
M  V30 6238 C 608.114 -4.44227 3.83248 0
M  V30 6239 C 610.466 -4.5773 4.36654 0
M  V30 6240 C 609.13 -4.68469 4.75492 0
M  V30 6241 H 608.4 -0.71854 0.181055 0
M  V30 6242 H 611.047 -1.55764 1.11399 0
M  V30 6243 H 609.352 -3.91799 0.0072 0
M  V30 6244 H 611.049 -3.99082 0.391703 0
M  V30 6245 H 607.639 -3.87988 1.82107 0
M  V30 6246 H 611.823 -4.11611 2.77291 0
M  V30 6247 H 607.079 -4.50741 4.13089 0
M  V30 6248 H 611.253 -4.7569 5.08617 0
M  V30 6249 H 608.88 -4.94923 5.77022 0
M  V30 6250 N 610.455 -0.639598 -1.44038 0
M  V30 6251 C 611.387 0.0987684 -2.28987 0
M  V30 6252 C 612.4 0.80058 -1.41755 0
M  V30 6253 O 613.589 0.660611 -1.65826 0
M  V30 6254 C 610.689 1.16242 -3.18341 0
M  V30 6255 C 609.862 0.541447 -4.34036 0
M  V30 6256 C 608.921 1.50017 -5.04362 0
M  V30 6257 O 607.947 1.01403 -5.60095 0
M  V30 6258 N 609.149 2.83441 -5.06598 0
M  V30 6259 H 611.914 -0.630305 -2.92997 0
M  V30 6260 H 609.475 -0.481376 -1.54578 0
M  V30 6261 H 611.467 1.80429 -3.62253 0
M  V30 6262 H 610.037 1.79362 -2.56024 0
M  V30 6263 H 609.257 -0.27923 -3.9321 0
M  V30 6264 H 610.545 0.107379 -5.08687 0
M  V30 6265 H 609.943 3.2551 -4.62666 0
M  V30 6266 H 608.5 3.42966 -5.54272 0
M  V30 6267 N 611.933 1.52934 -0.380664 0
M  V30 6268 C 613.163 2.05587 0.204302 0
M  V30 6269 C 613.571 1.25288 1.41773 0
M  V30 6270 O 612.914 0.290394 1.8139 0
M  V30 6271 C 612.976 3.53624 0.647324 0
M  V30 6272 C 612.64 4.54765 -0.451465 0
M  V30 6273 C 613.637 5.03226 -1.30614 0
M  V30 6274 C 611.322 4.98508 -0.616025 0
M  V30 6275 C 613.316 5.94046 -2.31058 0
M  V30 6276 C 611.003 5.89131 -1.62381 0
M  V30 6277 C 612.001 6.36792 -2.46952 0
M  V30 6278 O 611.689 7.25626 -3.46009 0
M  V30 6279 H 611.421 0.675013 0.0365198 0
M  V30 6280 H 613.975 1.98125 -0.541827 0
M  V30 6281 H 612.205 3.58676 1.44529 0
M  V30 6282 H 613.894 3.89061 1.15698 0
M  V30 6283 H 614.66 4.70167 -1.19027 0
M  V30 6284 H 610.539 4.60989 0.0324987 0
M  V30 6285 H 614.083 6.3117 -2.97104 0
M  V30 6286 H 609.98 6.21603 -1.7401 0
M  V30 6287 H 610.748 7.43664 -3.41916 0
M  V30 6288 N 613.412 0.11024 1.57214 0
M  V30 6289 C 614.658 -0.550684 1.9518 0
M  V30 6290 C 614.991 -1.66885 0.993122 0
M  V30 6291 O 614.266 -1.94479 0.0287907 0
M  V30 6292 C 614.549 -1.09163 3.43155 0
M  V30 6293 C 614.402 0.0225198 4.49794 0
M  V30 6294 C 615.721 -1.98527 3.92778 0
M  V30 6295 H 612.84 -0.198706 0.709708 0
M  V30 6296 H 615.482 0.184024 1.89107 0
M  V30 6297 H 613.632 -1.71775 3.48462 0
M  V30 6298 H 615.304 0.657443 4.56591 0
M  V30 6299 H 613.547 0.686868 4.28328 0
M  V30 6300 H 614.218 -0.39706 5.5057 0
M  V30 6301 H 616.694 -1.458 3.8972 0
M  V30 6302 H 615.57 -2.33298 4.96853 0
M  V30 6303 H 615.831 -2.90846 3.32958 0
M  V30 6304 N 614.89 -1.56749 -0.16351 0
M  V30 6305 C 616.167 -1.73321 -0.906599 0
M  V30 6306 C 616.547 -0.673779 -2.00059 0
M  V30 6307 O 615.895 0.310121 -2.26386 0
M  V30 6308 C 616.105 -3.168 -1.46419 0
M  V30 6309 C 617.453 -3.77993 -1.93407 0
M  V30 6310 O 618.477 -3.20127 -1.56196 0
M  V30 6311 O 617.336 -4.79615 -2.61976 0
M  V30 6312 H 614.43 -0.708073 -0.427272 0
M  V30 6313 H 616.976 -1.69029 -0.150727 0
M  V30 6314 H 615.748 -3.85396 -0.677189 0
M  V30 6315 H 615.371 -3.2545 -2.28403 0
M  V30 6316 N 616.368 0.432326 -1.51554 0
M  V30 6317 C 617.596 1.20364 -1.68286 0
M  V30 6318 C 618.011 1.84888 -0.38233 0
M  V30 6319 O 617.368 1.70924 0.639627 0
M  V30 6320 C 617.419 2.28398 -2.80208 0
M  V30 6321 O 617.14 1.66512 -4.05223 0
M  V30 6322 C 618.641 3.18584 -3.08251 0
M  V30 6323 H 615.861 0.36259 -0.564596 0
M  V30 6324 H 618.405 0.511647 -1.97996 0
M  V30 6325 H 616.56 2.93305 -2.53083 0
M  V30 6326 H 616.974 2.37951 -4.67418 0
M  V30 6327 H 618.448 3.90511 -3.90135 0
M  V30 6328 H 618.925 3.79628 -2.2086 0
M  V30 6329 H 619.531 2.59372 -3.37055 0
M  V30 6330 N 617.846 1.41785 0.688094 0
M  V30 6331 C 619.094 1.41264 1.4453 0
M  V30 6332 C 619.415 0.0252946 1.94984 0
M  V30 6333 O 618.685 -0.934081 1.72197 0
M  V30 6334 H 617.265 0.519998 0.536294 0
M  V30 6335 H 619.927 1.7709 0.813941 0
M  V30 6336 H 619.023 2.10439 2.30482 0
M  V30 6337 N 619.324 -0.923095 1.27737 0
M  V30 6338 C 620.552 -1.70525 1.17171 0
M  V30 6339 C 620.967 -1.86847 -0.270881 0
M  V30 6340 O 620.324 -1.38879 -1.18401 0
M  V30 6341 C 620.375 -3.10242 1.85559 0
M  V30 6342 O 620.096 -2.94683 3.24182 0
M  V30 6343 C 621.597 -4.04586 1.81176 0
M  V30 6344 H 618.817 -0.533347 0.407163 0
M  V30 6345 H 621.361 -1.15599 1.68692 0
M  V30 6346 H 619.516 -3.62014 1.3793 0
M  V30 6347 H 619.93 -3.83045 3.58297 0
M  V30 6348 H 621.404 -5.00119 2.33633 0
M  V30 6349 H 621.881 -4.3218 0.782099 0
M  V30 6350 H 622.487 -3.58741 2.2844 0
M  V30 6351 N 620.802 -1.09834 -1.13024 0
M  V30 6352 C 622.213 -0.855651 -1.65938 0
M  V30 6353 C 622.564 0.615159 -1.86307 0
M  V30 6354 O 621.689 1.47335 -1.58497 0
M  V30 6355 C 622.284 -1.5467 -3.01434 0
M  V30 6356 C 620.843 -1.35088 -3.51323 0
M  V30 6357 C 619.99 -1.6001 -2.26478 0
M  V30 6358 H 622.941 -1.25691 -0.968889 0
M  V30 6359 H 622.962 -0.982179 -3.67605 0
M  V30 6360 H 622.474 -2.61715 -2.86578 0
M  V30 6361 H 620.575 -0.30179 -3.71376 0
M  V30 6362 H 620.688 -2.0886 -4.31178 0
M  V30 6363 H 619.052 -1.02246 -2.33276 0
M  V30 6364 H 619.835 -2.68293 -2.14182 0
M  V30 6365 N 622.28 1.30327 -0.886154 0
M  V30 6366 C 623.527 1.96097 -0.505192 0
M  V30 6367 C 623.855 1.69952 0.945868 0
M  V30 6368 O 623.11 0.997653 1.68361 0
M  V30 6369 C 623.409 3.49906 -0.728042 0
M  V30 6370 C 623.075 3.96103 -2.15437 0
M  V30 6371 C 621.737 4.08428 -2.5444 0
M  V30 6372 C 624.089 4.20177 -3.08384 0
M  V30 6373 C 621.417 4.42189 -3.85598 0
M  V30 6374 C 623.769 4.55407 -4.39075 0
M  V30 6375 C 622.433 4.65941 -4.7797 0
M  V30 6376 H 621.703 0.71757 -0.184863 0
M  V30 6377 H 624.35 1.55171 -1.12223 0
M  V30 6378 H 622.655 3.9179 -0.027978 0
M  V30 6379 H 624.352 3.98869 -0.412862 0
M  V30 6380 H 620.942 3.87017 -1.84162 0
M  V30 6381 H 625.126 4.10134 -2.7947 0
M  V30 6382 H 620.382 4.48544 -4.15473 0
M  V30 6383 H 624.556 4.72986 -5.11133 0
M  V30 6384 H 622.183 4.91856 -5.79639 0
M  V30 6385 N 623.758 0.647228 1.43697 0
M  V30 6386 C 624.705 -0.0480092 2.3075 0
M  V30 6387 C 625.675 -0.820705 1.44408 0
M  V30 6388 O 626.86 -0.798515 1.73287 0
M  V30 6389 C 624 -1.01259 3.2991 0
M  V30 6390 C 623.113 -0.236629 4.31351 0
M  V30 6391 C 622.248 -1.19447 5.17596 0
M  V30 6392 C 621.287 -0.408595 6.10735 0
M  V30 6393 N 620.424 -1.31772 6.89623 0
M  V30 6394 H 625.264 0.700238 2.89656 0
M  V30 6395 H 622.801 0.357082 1.427 0
M  V30 6396 H 624.759 -1.58538 3.85903 0
M  V30 6397 H 623.389 -1.72778 2.72667 0
M  V30 6398 H 622.441 0.452353 3.77701 0
M  V30 6399 H 623.753 0.374731 4.9739 0
M  V30 6400 H 622.907 -1.83809 5.78186 0
M  V30 6401 H 621.646 -1.83975 4.51669 0
M  V30 6402 H 620.651 0.24841 5.49239 0
M  V30 6403 H 621.876 0.232188 6.78703 0
M  V30 6404 H 619.822 -1.94991 6.2635 0
M  V30 6405 H 619.739 -0.760779 7.52162 0
M  V30 6406 H 621.007 -1.94967 7.54724 0
M  V30 6407 N 625.236 -1.5273 0.388769 0
M  V30 6408 C 626.184 -2.27975 -0.461527 0
M  V30 6409 C 627.178 -1.31854 -1.06352 0
M  V30 6410 O 628.384 -1.49394 -1.00406 0
M  V30 6411 H 624.759 -0.733088 -0.16759 0
M  V30 6412 H 626.73 -2.97765 0.194579 0
M  V30 6413 C 625.479 -3.09881 -1.577 0
M  V30 6414 H 624.802 -3.83701 -1.12309 0
M  V30 6415 H 626.242 -3.6567 -2.14619 0
M  V30 6416 C 624.701 -2.22159 -2.53272 0
M  V30 6417 O 625.231 -1.84802 -3.56667 0
M  V30 6418 N 623.437 -1.8633 -2.23001 0
M  V30 6419 H 622.984 -2.16909 -1.38954 0
M  V30 6420 H 622.942 -1.27927 -2.87197 0
M  V30 6421 O 626.753 -0.258973 -1.5941 0
M  V30 6422 H 627.444 0.314239 -1.91134 0
M  V30 END ATOM
M  V30 BEGIN BOND
M  V30 END BOND
M  V30 END CTAB
M  END
$$$$
