drugbank_target|Q58L87 TetR family transcriptional regulator (DB01123)
 OpenBabel12092120513D

  0  0  0     0  0            999 V3000
M  V30 BEGIN CTAB
M  V30 COUNTS 2899 2930 0 0 0
M  V30 BEGIN ATOM
M  V30 1 H -0.908 1.98254 -0.117106 0
M  V30 2 N 0 1.576 0 0
M  V30 3 C 0.933 2.03868 1.02534 0
M  V30 4 C 1.911 0.928543 1.3348 0
M  V30 5 O 3.095 1.19667 1.45644 0
M  V30 6 C 0.222 2.43627 2.35294 0
M  V30 7 C -0.732 3.65373 2.2001 0
M  V30 8 S 0.101 5.13292 1.52614 0
M  V30 9 C 1.257 5.56322 2.86805 0
M  V30 10 H 1.49 2.90518 0.631377 0
M  V30 11 H -0.977 1.52953 0.210867 0
M  V30 12 H 0.981 2.67203 3.11629 0
M  V30 13 H -0.358 1.57376 2.7183 0
M  V30 14 H -1.165 3.90944 3.18086 0
M  V30 15 H -1.563 3.418 1.51819 0
M  V30 16 H 0.729 5.58782 3.83104 0
M  V30 17 H 1.672 6.56266 2.65933 0
M  V30 18 H 2.08 4.83886 2.90714 0
M  V30 19 N 1.4781 -0.272755 1.55222 0
M  V30 20 C 2.7061 -1.02255 1.79865 0
M  V30 21 C 3.1211 -1.79924 0.572088 0
M  V30 22 O 2.4781 -1.76638 -0.458842 0
M  V30 23 C 2.5291 -1.98094 3.02392 0
M  V30 24 O 2.2501 -1.23572 4.20311 0
M  V30 25 C 3.7511 -2.84884 3.39641 0
M  V30 26 H 0.9711 -0.302057 0.599168 0
M  V30 27 H 3.5151 -0.303465 2.02236 0
M  V30 28 H 1.6701 -2.65465 2.82147 0
M  V30 29 H 2.0841 -1.88172 4.89583 0
M  V30 30 H 3.5581 -3.47927 4.28545 0
M  V30 31 H 4.0351 -3.54665 2.59055 0
M  V30 32 H 4.6411 -2.23003 3.62146 0
M  V30 33 N 2.9562 -1.48159 -0.537278 0
M  V30 34 C 4.1812 -1.59707 -1.32319 0
M  V30 35 C 4.6062 -0.254859 -1.86365 0
M  V30 36 O 3.9642 0.772378 -1.64024 0
M  V30 37 C 4.0122 -2.6412 -2.45505 0
M  V30 38 O 3.1162 -2.20774 -3.48328 0
M  V30 39 H 2.4572 -0.535791 -0.392204 0
M  V30 40 H 4.9872 -1.94092 -0.647268 0
M  V30 41 H 4.9972 -2.85166 -2.91795 0
M  V30 42 H 3.6722 -3.61567 -2.05528 0
M  V30 43 H 2.2492 -2.09911 -3.08207 0
M  V30 44 N 4.4343 0.785586 -1.36625 0
M  V30 45 C 5.8453 1.36101 -1.27803 0
M  V30 46 C 6.1963 1.96035 0.0804875 0
M  V30 47 O 5.3213 1.92834 0.982042 0
M  V30 48 C 5.9163 2.47442 -2.31426 0
M  V30 49 C 4.4753 3.00789 -2.26281 0
M  V30 50 C 3.6223 1.73896 -2.15999 0
M  V30 51 H 6.5733 0.586928 -1.47448 0
M  V30 52 H 6.5943 3.2656 -1.95291 0
M  V30 53 H 6.1063 2.03791 -3.30289 0
M  V30 54 H 4.2073 3.48851 -1.30896 0
M  V30 55 H 4.3203 3.57343 -3.19128 0
M  V30 56 H 2.6843 1.9628 -1.62316 0
M  V30 57 H 3.4673 1.32368 -3.16755 0
M  V30 58 N 5.9124 1.20967 1.01018 0
M  V30 59 C 7.1374 1.0503 1.78839 0
M  V30 60 C 7.5624 -0.395752 1.8389 0
M  V30 61 O 6.9204 -1.28529 1.27867 0
M  V30 62 C 6.9684 1.64602 3.2084 0
M  V30 63 O 6.0724 0.887988 4.02726 0
M  V30 64 H 5.4134 0.369987 0.551367 0
M  V30 65 H 7.9434 1.60399 1.27018 0
M  V30 66 H 7.9534 1.68607 3.71532 0
M  V30 67 H 6.6284 2.69841 3.16479 0
M  V30 68 H 5.2054 0.922648 3.61305 0
M  V30 69 N 7.3905 -1.2043 1.01659 0
M  V30 70 C 8.6395 -1.89118 0.701237 0
M  V30 71 C 8.9525 -1.79705 -0.772358 0
M  V30 72 O 10.1585 -2.43528 -1.20026 0
M  V30 73 C 8.6145 -3.39168 1.20388 0
M  V30 74 C 8.2225 -3.57166 2.70438 0
M  V30 75 C 9.9665 -4.1341 0.963953 0
M  V30 76 C 7.8735 -5.01042 3.14183 0
M  V30 77 H 6.8035 -0.708267 0.2586 0
M  V30 78 H 9.4545 -1.36239 1.22927 0
M  V30 79 H 7.8365 -3.91369 0.603824 0
M  V30 80 H 9.0105 -3.15351 3.35992 0
M  V30 81 H 7.3255 -2.96294 2.92572 0
M  V30 82 H 9.9225 -5.19491 1.26621 0
M  V30 83 H 10.2655 -4.16181 -0.099578 0
M  V30 84 H 10.7985 -3.67309 1.52738 0
M  V30 85 H 7.5375 -5.03426 4.19812 0
M  V30 86 H 7.0575 -5.43668 2.53348 0
M  V30 87 H 8.7365 -5.69623 3.0682 0
M  V30 88 N 8.8686 -0.792821 -1.36206 0
M  V30 89 C 9.7786 -0.194808 -2.3379 0
M  V30 90 C 10.7946 0.654869 -1.61206 0
M  V30 91 O 11.9706 0.569856 -1.9317 0
M  V30 92 C 9.0356 0.657721 -3.40404 0
M  V30 93 C 8.0966 -0.210849 -4.28782 0
M  V30 94 C 7.3296 0.601086 -5.30304 0
M  V30 95 O 7.5526 1.83682 -5.40016 0
M  V30 96 O 6.4866 -0.000808277 -6.019 0
M  V30 97 H 10.3126 -1.00172 -2.86704 0
M  V30 98 H 7.8976 -0.554341 -1.38735 0
M  V30 99 H 9.7796 1.14375 -4.05581 0
M  V30 100 H 8.4546 1.44247 -2.89784 0
M  V30 101 H 7.3616 -0.743714 -3.66633 0
M  V30 102 H 8.6946 -0.959195 -4.82763 0
M  V30 103 N 10.3467 1.47872 -0.545128 0
M  V30 104 C 11.5717 2.07391 -0.0190611 0
M  V30 105 C 11.9967 1.39688 1.25971 0
M  V30 106 O 11.3547 0.467816 1.7516 0
M  V30 107 C 11.4027 3.60188 0.172335 0
M  V30 108 O 10.5067 3.9339 1.23766 0
M  V30 109 H 9.8477 0.662411 -0.0459059 0
M  V30 110 H 12.3777 1.90066 -0.757365 0
M  V30 111 H 12.3877 4.06129 0.390305 0
M  V30 112 H 11.0627 4.08865 -0.761725 0
M  V30 113 H 9.6397 3.5921 1.00114 0
M  V30 114 N 11.8248 0.280983 1.55075 0
M  V30 115 C 13.0728 -0.333455 1.9933 0
M  V30 116 C 13.3938 -1.55937 1.17085 0
M  V30 117 O 12.6638 -1.94143 0.261805 0
M  V30 118 H 11.2438 -0.126197 0.736263 0
M  V30 119 H 13.9058 0.387678 1.91005 0
M  V30 120 H 13.0018 -0.619292 3.05894 0
M  V30 121 N 13.3029 -1.57598 0.00835791 0
M  V30 122 C 14.2659 -2.07884 -0.965242 0
M  V30 123 C 15.2659 -0.989825 -1.26725 0
M  V30 124 O 16.4559 -1.25218 -1.21104 0
M  V30 125 C 13.5879 -2.52731 -2.28779 0
M  V30 126 H 14.7809 -2.95178 -0.530112 0
M  V30 127 H 12.3339 -1.54458 -0.239283 0
M  V30 128 H 13.0689 -1.68705 -2.76964 0
M  V30 129 H 12.8539 -3.32272 -2.08177 0
M  V30 130 H 14.3439 -2.91933 -2.98605 0
M  V30 131 N 14.781 0.264519 -1.55364 0
M  V30 132 C 16.197 0.61215 -1.47394 0
M  V30 133 C 16.397 1.89134 -0.695018 0
M  V30 134 O 15.453 2.51563 -0.217275 0
M  V30 135 C 16.766 0.731235 -2.91674 0
M  V30 136 C 18.314 0.82473 -3.01939 0
M  V30 137 C 18.789 0.975522 -4.4749 0
M  V30 138 N 20.28 1.04083 -4.51354 0
M  V30 139 C 21.015 1.17646 -5.61201 0
M  V30 140 N 20.511 1.27874 -6.80896 0
M  V30 141 N 22.304 1.20823 -5.48961 0
M  V30 142 H 14.455 -0.575456 -2.04456 0
M  V30 143 H 16.718 -0.196099 -0.927496 0
M  V30 144 H 16.424 -0.138392 -3.51428 0
M  V30 145 H 16.298 1.60883 -3.41169 0
M  V30 146 H 18.685 1.68482 -2.42276 0
M  V30 147 H 18.766 -0.0776479 -2.55682 0
M  V30 148 H 18.41 0.120058 -5.07758 0
M  V30 149 H 18.34 1.89268 -4.91412 0
M  V30 150 H 20.831 0.973846 -3.65136 0
M  V30 151 H 21.144 1.38081 -7.60364 0
M  V30 152 H 19.489 1.24863 -6.83692 0
M  V30 153 H 22.68 1.12469 -4.54388 0
M  V30 154 H 22.853 1.31049 -6.3461 0
M  V30 155 N 16.2591 1.48442 0.529413 0
M  V30 156 C 17.1691 1.6569 1.66084 0
M  V30 157 C 18.1851 0.539432 1.65427 0
M  V30 158 O 19.3611 0.810572 1.84368 0
M  V30 159 C 16.4261 1.69315 3.02545 0
M  V30 160 C 15.4871 2.92694 3.14052 0
M  V30 161 C 14.7201 2.96137 4.44003 0
M  V30 162 O 14.9431 2.07973 5.31134 0
M  V30 163 O 13.8771 3.88312 4.59888 0
M  V30 164 H 17.7031 2.61483 1.54469 0
M  V30 165 H 15.2881 1.3185 0.702567 0
M  V30 166 H 17.1701 1.74217 3.83701 0
M  V30 167 H 15.8451 0.766966 3.14483 0
M  V30 168 H 14.7521 2.93324 2.32189 0
M  V30 169 H 16.0851 3.84699 3.0703 0
M  V30 170 N 17.7372 -0.778329 1.37039 0
M  V30 171 C 19.1532 -1.07796 1.17695 0
M  V30 172 C 19.3532 -2.01498 0.00860115 0
M  V30 173 O 18.4092 -2.43901 -0.653352 0
M  V30 174 C 19.7222 -1.68178 2.49272 0
M  V30 175 C 21.2702 -1.80467 2.55735 0
M  V30 176 C 21.7452 -2.44263 3.87427 0
M  V30 177 N 23.2362 -2.51721 3.88833 0
M  V30 178 C 23.9712 -3.01919 4.87476 0
M  V30 179 N 23.4672 -3.5234 5.96513 0
M  V30 180 N 25.2602 -3.00733 4.74885 0
M  V30 181 H 17.4112 -0.156032 2.11826 0
M  V30 182 H 19.6742 -0.131844 0.938787 0
M  V30 183 H 19.3802 -1.06796 3.35093 0
M  V30 184 H 19.2542 -2.67554 2.65885 0
M  V30 185 H 21.6412 -2.40984 1.70325 0
M  V30 186 H 21.7222 -0.798656 2.43013 0
M  V30 187 H 21.3662 -1.84388 4.73248 0
M  V30 188 H 21.2962 -3.45458 3.9745 0
M  V30 189 H 23.7872 -2.1603 3.10063 0
M  V30 190 H 24.1002 -3.89027 6.67741 0
M  V30 191 H 22.4452 -3.50462 6.00168 0
M  V30 192 H 25.6362 -2.60638 3.88826 0
M  V30 193 H 25.8092 -3.39545 5.51918 0
M  V30 194 N 19.2153 -1.21501 -1.00376 0
M  V30 195 C 20.4433 -1.059 -1.77744 0
M  V30 196 C 20.8583 0.391125 -1.84704 0
M  V30 197 O 20.2153 1.27133 -1.30933 0
M  V30 198 C 20.2663 -1.65111 -3.21591 0
M  V30 199 O 19.9873 -3.0445 -3.15027 0
M  V30 200 C 21.4883 -1.54637 -4.15454 0
M  V30 201 H 18.7083 -0.371825 -0.558558 0
M  V30 202 H 21.2523 -1.60865 -1.26264 0
M  V30 203 H 19.4073 -1.14235 -3.70175 0
M  V30 204 H 19.8213 -3.3278 -4.0541 0
M  V30 205 H 21.2953 -2.00808 -5.14179 0
M  V30 206 H 21.7723 -0.501022 -4.36333 0
M  V30 207 H 22.3783 -2.04767 -3.72761 0
M  V30 208 N 20.6934 1.19889 -1.02296 0
M  V30 209 C 22.1094 1.41462 -0.738954 0
M  V30 210 C 22.3094 1.89721 0.678846 0
M  V30 211 O 21.3654 2.07016 1.4457 0
M  V30 212 C 22.6784 2.43083 -1.77005 0
M  V30 213 C 24.2264 2.5684 -1.78892 0
M  V30 214 C 24.7014 3.61709 -2.80945 0
M  V30 215 N 26.1924 3.69199 -2.79725 0
M  V30 216 C 26.9274 4.50019 -3.55345 0
M  V30 217 N 26.4234 5.34592 -4.40662 0
M  V30 218 N 28.2164 4.44612 -3.43914 0
M  V30 219 H 20.3674 0.868827 -1.93817 0
M  V30 220 H 22.6304 0.44399 -0.837602 0
M  V30 221 H 22.3364 2.14636 -2.78612 0
M  V30 222 H 22.2104 3.4217 -1.58744 0
M  V30 223 H 24.5974 2.84614 -0.779674 0
M  V30 224 H 24.6784 1.57927 -2.01228 0
M  V30 225 H 24.3224 3.34678 -3.82038 0
M  V30 226 H 24.2524 4.60259 -2.5587 0
M  V30 227 H 26.7434 3.08794 -2.17842 0
M  V30 228 H 27.0564 5.93363 -4.95116 0
M  V30 229 H 25.4014 5.34073 -4.44737 0
M  V30 230 H 28.5924 3.7758 -2.76679 0
M  V30 231 H 28.7654 5.0736 -4.031 0
M  V30 232 N 22.1715 0.800033 1.35784 0
M  V30 233 C 23.5875 0.482977 1.52117 0
M  V30 234 C 23.7875 -0.996948 1.75109 0
M  V30 235 O 22.8435 -1.78216 1.78872 0
M  V30 236 C 24.1565 1.32264 2.70049 0
M  V30 237 C 25.7045 1.31742 2.83924 0
M  V30 238 C 26.1795 2.14106 4.04874 0
M  V30 239 N 27.6705 2.11607 4.12039 0
M  V30 240 C 28.4055 2.72099 5.04727 0
M  V30 241 N 27.9015 3.41492 6.02789 0
M  V30 242 N 29.6945 2.61776 4.97423 0
M  V30 243 H 21.8455 1.75856 1.19115 0
M  V30 244 H 24.1085 0.748122 0.582252 0
M  V30 245 H 23.8145 2.37261 2.59616 0
M  V30 246 H 23.6885 0.971303 3.6448 0
M  V30 247 H 26.0755 0.275333 2.93813 0
M  V30 248 H 26.1565 1.70859 1.9037 0
M  V30 249 H 25.8005 3.18351 3.95746 0
M  V30 250 H 25.7305 1.72353 4.97596 0
M  V30 251 H 28.2215 1.61112 3.41835 0
M  V30 252 H 28.5345 3.84953 6.70098 0
M  V30 253 H 26.8795 3.45596 6.02983 0
M  V30 254 H 30.0705 2.07157 4.19766 0
M  V30 255 H 30.2435 3.0921 5.69468 0
M  V30 256 N 23.6496 -1.47581 0.552962 0
M  V30 257 C 24.6126 -2.28439 -0.186605 0
M  V30 258 C 25.6126 -1.36706 -0.84665 0
M  V30 259 O 26.8026 -1.59378 -0.703164 0
M  V30 260 C 23.9346 -3.16264 -1.2724 0
M  V30 261 H 25.1276 -2.95294 0.523609 0
M  V30 262 H 22.6806 -1.532 0.309745 0
M  V30 263 H 23.4156 -2.54091 -2.01514 0
M  V30 264 H 23.2006 -3.83769 -0.803968 0
M  V30 265 H 24.6906 -3.77198 -1.79196 0
M  V30 266 N 25.1277 -0.289203 -1.54924 0
M  V30 267 C 26.3767 0.324231 -1.99077 0
M  V30 268 C 26.6897 1.5591 -1.18117 0
M  V30 269 O 27.8957 2.24637 -1.52481 0
M  V30 270 C 26.3517 0.628209 -3.54375 0
M  V30 271 C 25.9597 -0.587647 -4.44129 0
M  V30 272 C 27.7037 1.20349 -4.07083 0
M  V30 273 C 25.6107 -0.257475 -5.90839 0
M  V30 274 H 24.5407 0.124924 -0.743579 0
M  V30 275 H 27.1917 -0.396063 -1.79175 0
M  V30 276 H 25.5737 1.40778 -3.70132 0
M  V30 277 H 26.7477 -1.36418 -4.40144 0
M  V30 278 H 25.0627 -1.08074 -4.0213 0
M  V30 279 H 27.6597 1.46456 -5.14252 0
M  V30 280 H 28.0027 2.14195 -3.56968 0
M  V30 281 H 28.5357 0.485889 -3.94821 0
M  V30 282 H 25.2747 -1.16419 -6.45079 0
M  V30 283 H 24.7947 0.482018 -5.9786 0
M  V30 284 H 26.4737 0.145238 -6.46837 0
M  V30 285 N 26.6058 1.57591 -0.0167156 0
M  V30 286 C 27.5358 2.12496 0.967858 0
M  V30 287 C 28.5168 1.03807 1.34752 0
M  V30 288 O 29.7018 1.31577 1.42833 0
M  V30 289 C 26.8318 2.64194 2.25431 0
M  V30 290 C 25.7858 3.77559 2.01576 0
M  V30 291 C 25.1118 4.15636 3.36379 0
M  V30 292 C 26.4118 5.04151 1.36489 0
M  V30 293 H 28.1058 2.95013 0.510643 0
M  V30 294 H 25.6518 1.41915 0.244181 0
M  V30 295 H 27.6048 3.01236 2.94678 0
M  V30 296 H 26.3288 1.78821 2.73296 0
M  V30 297 H 24.9878 3.40937 1.34751 0
M  V30 298 H 24.6358 3.27263 3.81979 0
M  V30 299 H 24.3358 4.92022 3.21229 0
M  V30 300 H 25.8598 4.5525 4.06915 0
M  V30 301 H 27.2738 5.38857 1.95718 0
M  V30 302 H 25.6708 5.85453 1.31776 0
M  V30 303 H 26.7408 4.83733 0.336219 0
M  V30 304 N 28.0839 -0.256276 1.55502 0
M  V30 305 C 29.3609 -1.00789 1.67633 0
M  V30 306 C 29.7409 -2.03706 0.553826 0
M  V30 307 O 29.0889 -2.24145 -0.443969 0
M  V30 308 C 29.2989 -1.64968 3.07549 0
M  V30 309 C 30.6469 -2.15505 3.65845 0
M  V30 310 O 31.6709 -1.74925 3.1029 0
M  V30 311 O 30.5299 -2.89986 4.63217 0
M  V30 312 H 27.6239 -0.468553 0.681459 0
M  V30 313 H 30.1699 -0.250806 1.67836 0
M  V30 314 H 28.9419 -0.904785 3.80696 0
M  V30 315 H 28.5649 -2.47321 3.11317 0
M  V30 316 N 29.562 -1.4872 -0.521534 0
M  V30 317 C 30.525 -1.63379 -1.60748 0
M  V30 318 C 31.525 -0.50661 -1.52611 0
M  V30 319 O 32.715 -0.772601 -1.5613 0
M  V30 320 C 29.847 -1.61192 -3.00383 0
M  V30 321 H 31.04 -2.60217 -1.49087 0
M  V30 322 H 28.593 -1.37444 -0.744235 0
M  V30 323 H 29.328 -0.65863 -3.17541 0
M  V30 324 H 29.113 -2.43032 -3.07698 0
M  V30 325 H 30.603 -1.7466 -3.7932 0
M  V30 326 N 31.0401 0.771051 -1.3745 0
M  V30 327 C 32.0031 1.86598 -1.33093 0
M  V30 328 C 33.0031 1.59076 -0.234845 0
M  V30 329 O 34.1931 1.67145 -0.490732 0
M  V30 330 C 31.3251 3.23747 -1.06773 0
M  V30 331 H 32.5181 1.91873 -2.30488 0
M  V30 332 H 30.0711 0.970876 -1.2249 0
M  V30 333 H 30.8061 3.24148 -0.099129 0
M  V30 334 H 30.5911 3.45115 -1.86112 0
M  V30 335 H 32.0811 4.03824 -1.06377 0
M  V30 336 N 32.5182 1.22032 0.997298 0
M  V30 337 C 33.4512 0.929735 2.08401 0
M  V30 338 C 34.4292 -0.125681 1.62114 0
M  V30 339 O 35.6132 0.00495409 1.88499 0
M  V30 340 C 32.7402 0.397488 3.3636 0
M  V30 341 C 31.7862 1.4369 4.01566 0
M  V30 342 S 32.6192 3.00874 4.42984 0
M  V30 343 C 33.7752 2.49276 5.74119 0
M  V30 344 H 34.0082 1.84998 2.32729 0
M  V30 345 H 31.5412 1.0509 1.13117 0
M  V30 346 H 33.4992 0.0969846 4.10385 0
M  V30 347 H 32.1602 -0.501571 3.10069 0
M  V30 348 H 31.3532 1.01427 4.93689 0
M  V30 349 H 30.9552 1.68588 3.33847 0
M  V30 350 H 33.2472 1.90242 6.50242 0
M  V30 351 H 34.1902 3.39872 6.21203 0
M  V30 352 H 34.5982 1.90714 5.31308 0
M  V30 353 N 33.9963 -1.19345 1.0293 0
M  V30 354 C 34.9263 -2.2481 0.631105 0
M  V30 355 C 35.9073 -1.66245 -0.360104 0
M  V30 356 O 37.0923 -1.92677 -0.242726 0
M  V30 357 C 34.2223 -3.47295 -0.0184607 0
M  V30 358 C 33.1763 -4.18536 0.895073 0
M  V30 359 C 32.5023 -5.34586 0.110592 0
M  V30 360 C 33.8023 -4.73287 2.209 0
M  V30 361 H 35.4963 -2.58372 1.51275 0
M  V30 362 H 33.0423 -1.24194 0.728818 0
M  V30 363 H 34.9953 -4.20268 -0.308675 0
M  V30 364 H 33.7193 -3.12933 -0.934907 0
M  V30 365 H 32.3783 -3.47446 1.16949 0
M  V30 366 H 32.0263 -4.96469 -0.807902 0
M  V30 367 H 31.7263 -5.83183 0.719087 0
M  V30 368 H 33.2503 -6.10355 -0.172871 0
M  V30 369 H 34.6643 -5.38013 1.98028 0
M  V30 370 H 33.0613 -5.32373 2.76946 0
M  V30 371 H 34.1313 -3.91331 2.86336 0
M  V30 372 N 35.4744 -0.807222 -1.35358 0
M  V30 373 C 36.7204 -0.388463 -1.99045 0
M  V30 374 C 37.0534 1.04184 -1.63888 0
M  V30 375 O 36.3284 1.72292 -0.902535 0
M  V30 376 C 36.6114 -0.572783 -3.55515 0
M  V30 377 C 36.4644 -2.04807 -4.00468 0
M  V30 378 C 37.7834 0.00114064 -4.401 0
M  V30 379 H 34.9024 -0.142619 -0.723069 0
M  V30 380 H 37.5444 -1.01687 -1.60498 0
M  V30 381 H 35.6944 -0.0378425 -3.88482 0
M  V30 382 H 37.3664 -2.64544 -3.77908 0
M  V30 383 H 35.6094 -2.54427 -3.51353 0
M  V30 384 H 36.2804 -2.12792 -5.09337 0
M  V30 385 H 38.7564 -0.455716 -4.13597 0
M  V30 386 H 37.6324 -0.157737 -5.48673 0
M  V30 387 H 37.8934 1.09488 -4.28328 0
M  V30 388 N 36.9525 1.47285 -0.560781 0
M  V30 389 C 37.8825 2.32857 0.173105 0
M  V30 390 C 38.8635 1.44009 0.905281 0
M  V30 391 O 40.0485 1.7286 0.885046 0
M  V30 392 C 37.1785 3.25861 1.20133 0
M  V30 393 C 36.1325 4.23978 0.585388 0
M  V30 394 C 35.4585 5.06332 1.7185 0
M  V30 395 C 36.7585 5.20242 -0.463178 0
M  V30 396 H 38.4525 2.94466 -0.541307 0
M  V30 397 H 35.9985 1.41601 -0.261764 0
M  V30 398 H 37.9515 3.84569 1.72293 0
M  V30 399 H 36.6755 2.62315 1.94573 0
M  V30 400 H 35.3345 3.66501 0.085054 0
M  V30 401 H 34.9825 4.39186 2.45203 0
M  V30 402 H 34.6825 5.72762 1.31213 0
M  V30 403 H 36.2065 5.67899 2.24329 0
M  V30 404 H 37.6205 5.73293 -0.027502 0
M  V30 405 H 36.0175 5.94896 -0.788627 0
M  V30 406 H 37.0875 4.65504 -1.35773 0
M  V30 407 N 38.4306 0.297415 1.54768 0
M  V30 408 C 39.3936 -0.567375 2.22066 0
M  V30 409 C 40.3936 -1.06409 1.20556 0
M  V30 410 O 41.5836 -0.960691 1.45315 0
M  V30 411 C 38.7156 -1.78517 2.90421 0
M  V30 412 H 39.9086 0.0205534 2.99893 0
M  V30 413 H 37.4616 0.0482163 1.56226 0
M  V30 414 H 38.1966 -2.41303 2.16664 0
M  V30 415 H 37.9816 -1.43669 3.64831 0
M  V30 416 H 39.4716 -2.39964 3.41771 0
M  V30 417 N 39.9087 -1.5758 0.0250728 0
M  V30 418 C 41.1857 -1.82917 -0.692873 0
M  V30 419 C 41.5657 -0.908137 -1.90568 0
M  V30 420 O 40.9137 0.0372298 -2.2847 0
M  V30 421 C 41.1237 -3.32034 -1.07492 0
M  V30 422 C 42.4717 -3.98406 -1.46826 0
M  V30 423 O 43.4957 -3.36505 -1.16801 0
M  V30 424 O 42.3547 -5.07497 -2.02754 0
M  V30 425 H 39.4487 -0.754079 -0.33955 0
M  V30 426 H 41.9947 -1.69619 0.0524456 0
M  V30 427 H 40.7667 -3.90728 -0.211552 0
M  V30 428 H 40.3897 -3.50424 -1.87854 0
M  V30 429 N 41.3868 0.248026 -1.55636 0
M  V30 430 C 42.3368 1.30994 -1.86614 0
M  V30 431 C 43.3208 1.43543 -0.726918 0
M  V30 432 O 44.5128 1.46804 -0.988818 0
M  V30 433 C 41.6418 2.6656 -2.16335 0
M  V30 434 C 40.7278 2.58019 -3.36581 0
M  V30 435 N 41.1188 2.1911 -4.55878 0
M  V30 436 C 39.4168 2.89035 -3.39669 0
M  V30 437 C 40.1178 2.21174 -5.38012 0
M  V30 438 N 39.0938 2.60632 -4.77045 0
M  V30 439 H 42.8958 0.999583 -2.76379 0
M  V30 440 H 40.4098 0.456652 -1.55848 0
M  V30 441 H 42.4068 3.43194 -2.36692 0
M  V30 442 H 41.0668 2.98463 -1.27867 0
M  V30 443 H 42.0778 1.90672 -4.81523 0
M  V30 444 H 38.7548 3.25485 -2.61469 0
M  V30 445 H 40.1448 1.9344 -6.43452 0
M  V30 446 N 42.8649 1.48995 0.513639 0
M  V30 447 C 44.2759 1.5119 1.09537 0
M  V30 448 C 44.6269 0.290906 1.94031 0
M  V30 449 O 43.7519 -0.60049 2.07902 0
M  V30 450 C 44.3469 2.73964 1.99322 0
M  V30 451 C 42.9059 2.78978 2.52682 0
M  V30 452 C 42.0529 2.44934 1.30009 0
M  V30 453 H 45.0039 1.55875 0.298125 0
M  V30 454 H 45.0249 2.53409 2.83838 0
M  V30 455 H 44.5369 3.62813 1.37799 0
M  V30 456 H 42.6379 1.94378 3.1788 0
M  V30 457 H 42.7509 3.8083 2.90698 0
M  V30 458 H 41.1149 1.9644 1.62122 0
M  V30 459 H 41.8979 3.36043 0.702131 0
M  V30 460 N 44.343 -0.763751 1.37857 0
M  V30 461 C 45.571 -1.55293 1.36718 0
M  V30 462 C 45.986 -1.88745 -0.0455434 0
M  V30 463 O 45.343 -1.52039 -1.00947 0
M  V30 464 C 45.394 -2.85831 2.2132 0
M  V30 465 O 45.115 -2.5381 3.57089 0
M  V30 466 C 46.616 -3.80023 2.28249 0
M  V30 467 H 43.836 -0.480841 0.468009 0
M  V30 468 H 46.38 -0.946009 1.81303 0
M  V30 469 H 44.535 -3.42926 1.80223 0
M  V30 470 H 44.949 -3.37459 4.01524 0
M  V30 471 H 46.423 -4.68599 2.91752 0
M  V30 472 H 46.9 -4.1973 1.2932 0
M  V30 473 H 47.506 -3.28855 2.69693 0
M  V30 474 N 45.8211 -1.22559 -0.990812 0
M  V30 475 C 46.7841 -0.998863 -2.0629 0
M  V30 476 C 47.7841 0.0354834 -1.60761 0
M  V30 477 O 48.9741 -0.203231 -1.7301 0
M  V30 478 C 46.1061 -0.509203 -3.37076 0
M  V30 479 H 47.2991 -1.95014 -2.27837 0
M  V30 480 H 44.8521 -1.04456 -1.16269 0
M  V30 481 H 45.5871 0.446335 -3.21214 0
M  V30 482 H 45.3721 -1.25547 -3.71457 0
M  V30 483 H 46.8621 -0.370888 -4.1595 0
M  V30 484 N 47.2992 1.18797 -1.03562 0
M  V30 485 C 48.2622 2.20464 -0.626769 0
M  V30 486 C 49.2622 1.57721 0.313173 0
M  V30 487 O 50.4522 1.73917 0.0992615 0
M  V30 488 C 47.5842 3.40802 0.0818498 0
M  V30 489 H 48.7772 2.58149 -1.5264 0
M  V30 490 H 46.3302 1.32593 -0.827578 0
M  V30 491 H 47.0652 3.08642 0.995518 0
M  V30 492 H 46.8502 3.8758 -0.593652 0
M  V30 493 H 48.3402 4.16092 0.354584 0
M  V30 494 N 48.7773 0.814389 1.34928 0
M  V30 495 C 49.7073 0.244827 2.32213 0
M  V30 496 C 50.6883 -0.634024 1.57842 0
M  V30 497 O 51.8733 -0.562676 1.8587 0
M  V30 498 C 49.0033 -0.601106 3.42058 0
M  V30 499 C 47.9573 0.179896 4.27622 0
M  V30 500 C 47.2833 -0.788237 5.28858 0
M  V30 501 C 48.5833 1.38329 5.03649 0
M  V30 502 H 50.2773 1.05763 2.80097 0
M  V30 503 H 47.8233 0.510029 1.34665 0
M  V30 504 H 49.7763 -1.00968 4.09125 0
M  V30 505 H 48.5003 -1.44688 2.92802 0
M  V30 506 H 47.1593 0.569739 3.62146 0
M  V30 507 H 46.8073 -1.62973 4.75866 0
M  V30 508 H 46.5073 -0.269942 5.8698 0
M  V30 509 H 48.0313 -1.19485 5.98795 0
M  V30 510 H 49.4453 1.04918 5.63618 0
M  V30 511 H 47.8423 1.83662 5.71304 0
M  V30 512 H 48.9123 2.16592 4.33839 0
M  V30 513 N 50.2554 -1.46986 0.568584 0
M  V30 514 C 51.5034 -2.02041 0.0487022 0
M  V30 515 C 51.8244 -1.44408 -1.31039 0
M  V30 516 O 51.0944 -0.623477 -1.85714 0
M  V30 517 H 49.6744 -0.746849 0.015014 0
M  V30 518 H 52.3364 -1.80257 0.741168 0
M  V30 519 H 51.4324 -3.12085 -0.0308961 0
M  V30 520 N 51.7335 -0.305618 -1.54608 0
M  V30 521 C 53.0105 0.355652 -1.92339 0
M  V30 522 C 53.3905 1.71324 -1.23335 0
M  V30 523 O 52.7385 2.25473 -0.370702 0
M  V30 524 C 52.9485 0.46572 -3.45879 0
M  V30 525 C 54.2965 0.734426 -4.182 0
M  V30 526 O 55.3205 0.54935 -3.51938 0
M  V30 527 O 54.1795 1.09024 -5.35515 0
M  V30 528 H 51.2735 0.199666 -0.802535 0
M  V30 529 H 53.8195 -0.354017 -1.65966 0
M  V30 530 H 52.5915 -0.488461 -3.88239 0
M  V30 531 H 52.2145 1.22367 -3.78301 0
M  V30 532 N 53.2116 1.57565 -0.0334293 0
M  V30 533 C 54.4606 1.91155 0.643639 0
M  V30 534 C 54.7736 0.91192 1.73042 0
M  V30 535 O 55.9796 1.13923 2.46442 0
M  V30 536 C 54.4356 3.39443 1.1961 0
M  V30 537 C 54.0436 4.47774 0.142381 0
M  V30 538 C 55.7876 3.82094 1.84944 0
M  V30 539 C 53.6946 5.87162 0.706727 0
M  V30 540 H 52.6246 0.713368 0.244176 0
M  V30 541 H 55.2756 1.8323 -0.0994323 0
M  V30 542 H 53.6576 3.42313 1.99092 0
M  V30 543 H 54.8316 4.56469 -0.630296 0
M  V30 544 H 53.1466 4.14352 -0.412446 0
M  V30 545 H 55.7436 4.83591 2.2813 0
M  V30 546 H 56.0866 3.17386 2.69392 0
M  V30 547 H 56.6196 3.81665 1.12145 0
M  V30 548 H 53.3586 6.55424 -0.0997178 0
M  V30 549 H 52.8786 5.82064 1.44779 0
M  V30 550 H 54.5576 6.35866 1.19514 0
M  V30 551 N 54.6897 -0.239769 1.55765 0
M  V30 552 C 55.6527 -1.28038 1.90103 0
M  V30 553 C 56.6527 -1.40723 0.778055 0
M  V30 554 O 57.8427 -1.39301 1.04599 0
M  V30 555 C 54.9747 -2.65702 2.13577 0
M  V30 556 H 56.1677 -0.988048 2.83157 0
M  V30 557 H 53.7207 -0.479382 1.48767 0
M  V30 558 H 54.4557 -3.00063 1.23015 0
M  V30 559 H 54.2407 -2.57875 2.95369 0
M  V30 560 H 55.7307 -3.40828 2.41301 0
M  V30 561 N 56.1678 -1.49265 -0.50573 0
M  V30 562 C 57.1308 -1.65075 -1.59006 0
M  V30 563 C 58.1308 -0.522768 -1.52065 0
M  V30 564 O 59.3208 -0.789117 -1.55302 0
M  V30 565 C 56.4528 -1.64369 -2.98656 0
M  V30 566 H 57.6458 -2.61784 -1.46319 0
M  V30 567 H 55.1988 -1.38226 -0.729616 0
M  V30 568 H 55.9338 -0.692272 -3.16825 0
M  V30 569 H 55.7188 -2.46282 -3.05103 0
M  V30 570 H 57.2088 -1.78674 -3.77446 0
M  V30 571 N 57.6459 0.756429 -1.3826 0
M  V30 572 C 58.6089 1.85176 -1.35065 0
M  V30 573 C 59.6089 1.58818 -0.251703 0
M  V30 574 O 60.7989 1.66615 -0.508433 0
M  V30 575 C 57.9309 3.22596 -1.10201 0
M  V30 576 H 59.1239 1.89417 -2.3251 0
M  V30 577 H 56.6769 0.95783 -1.23512 0
M  V30 578 H 57.4119 3.24025 -0.133504 0
M  V30 579 H 57.1969 3.43122 -1.89762 0
M  V30 580 H 58.6869 4.02673 -1.10654 0
M  V30 581 N 59.124 1.23083 0.984299 0
M  V30 582 C 60.087 1.00979 2.05757 0
M  V30 583 C 61.087 -0.0269573 1.60777 0
M  V30 584 O 62.277 0.212403 1.729 0
M  V30 585 C 59.409 0.527072 3.36801 0
M  V30 586 H 60.602 1.9622 2.26799 0
M  V30 587 H 58.155 1.05072 1.15714 0
M  V30 588 H 58.89 -0.429294 3.21446 0
M  V30 589 H 58.675 1.27515 3.70786 0
M  V30 590 H 60.165 0.392942 4.15747 0
M  V30 591 N 60.6021 -1.18246 1.0419 0
M  V30 592 C 61.8501 -1.87886 0.744543 0
M  V30 593 C 62.1711 -1.8082 -0.730006 0
M  V30 594 O 61.4411 -1.22736 -1.52685 0
M  V30 595 H 60.0211 -0.695556 0.272417 0
M  V30 596 H 62.6831 -1.43494 1.31892 0
M  V30 597 H 61.7791 -2.9389 1.05049 0
M  V30 598 N 62.0802 -0.821533 -1.34494 0
M  V30 599 C 63.3262 -0.409552 -1.98622 0
M  V30 600 C 63.6592 1.0244 -1.64984 0
M  V30 601 O 62.9342 1.71325 -0.920758 0
M  V30 602 C 63.2172 -0.610458 -3.54888 0
M  V30 603 C 63.0702 -2.09043 -3.98273 0
M  V30 604 C 64.3892 -0.0455379 -4.40076 0
M  V30 605 H 61.5082 -0.15028 -0.721516 0
M  V30 606 H 64.1502 -1.03384 -1.59411 0
M  V30 607 H 62.3002 -0.079044 -3.8842 0
M  V30 608 H 63.9722 -2.68537 -3.75081 0
M  V30 609 H 62.2152 -2.58139 -3.48635 0
M  V30 610 H 62.8862 -2.18182 -5.07051 0
M  V30 611 H 65.3622 -0.499557 -4.1309 0
M  V30 612 H 64.2382 -0.215922 -5.48475 0
M  V30 613 H 64.4992 1.04939 -4.29465 0
M  V30 614 N 63.5583 1.46682 -0.576371 0
M  V30 615 C 64.8063 2.02013 -0.0594163 0
M  V30 616 C 65.1273 1.45101 1.30271 0
M  V30 617 O 64.3973 0.633317 1.8538 0
M  V30 618 H 62.9773 0.746759 -0.0189745 0
M  V30 619 H 65.6393 1.79862 -0.750717 0
M  V30 620 H 64.7353 3.12097 0.014345 0
M  V30 621 N 65.0364 0.313813 1.54444 0
M  V30 622 C 66.4524 -0.0391619 1.59552 0
M  V30 623 C 66.6524 -1.51322 1.33056 0
M  V30 624 O 65.7084 -2.26782 1.11022 0
M  V30 625 C 67.0214 0.370302 2.98411 0
M  V30 626 C 68.5694 0.320139 3.11358 0
M  V30 627 C 69.0444 0.704617 4.52547 0
M  V30 628 N 70.5354 0.657645 4.58508 0
M  V30 629 C 71.2704 0.927453 5.6585 0
M  V30 630 N 70.7664 1.26389 6.81174 0
M  V30 631 N 72.5594 0.853662 5.5558 0
M  V30 632 H 64.7104 1.27433 1.69925 0
M  V30 633 H 66.9734 0.517511 0.794284 0
M  V30 634 H 66.6794 1.39694 3.22767 0
M  V30 635 H 66.5534 -0.269619 3.76235 0
M  V30 636 H 68.9404 -0.697275 2.86744 0
M  V30 637 H 69.0214 0.99486 2.35661 0
M  V30 638 H 68.6654 1.7199 4.77893 0
M  V30 639 H 68.5954 0.00768843 5.26599 0
M  V30 640 H 71.0864 0.409067 3.75679 0
M  V30 641 H 71.3994 1.4554 7.58972 0
M  V30 642 H 69.7444 1.30206 6.82694 0
M  V30 643 H 72.9354 0.590383 4.64362 0
M  V30 644 H 73.1084 1.0673 6.3915 0
M  V30 645 N 66.5145 -1.57545 0.0417849 0
M  V30 646 C 67.7395 -1.97035 -0.647455 0
M  V30 647 C 68.1645 -0.918775 -1.64135 0
M  V30 648 O 67.5225 0.119006 -1.80909 0
M  V30 649 C 67.5705 -3.35609 -1.31905 0
M  V30 650 O 66.6745 -3.3287 -2.43457 0
M  V30 651 H 66.0155 -0.64211 -0.169086 0
M  V30 652 H 68.5455 -2.04318 0.107399 0
M  V30 653 H 68.5555 -3.72126 -1.67291 0
M  V30 654 H 67.2305 -4.11685 -0.590586 0
M  V30 655 H 65.8075 -3.08087 -2.10088 0
M  V30 656 N 67.9926 0.231505 -1.5589 0
M  V30 657 C 69.2206 0.974505 -1.82513 0
M  V30 658 C 69.6356 1.78344 -0.619591 0
M  V30 659 O 68.9926 1.77792 0.411848 0
M  V30 660 C 69.0436 1.90007 -3.07538 0
M  V30 661 O 68.7646 1.12385 -4.2344 0
M  V30 662 C 70.2656 2.75779 -3.47075 0
M  V30 663 H 67.4856 0.286065 -0.606966 0
M  V30 664 H 70.0296 0.249739 -2.02969 0
M  V30 665 H 68.1846 2.57891 -2.89086 0
M  V30 666 H 68.5986 1.75125 -4.944 0
M  V30 667 H 70.0726 3.36443 -4.37619 0
M  V30 668 H 70.5496 3.47672 -2.68367 0
M  V30 669 H 71.1556 2.13323 -3.67931 0
M  V30 670 N 69.4707 1.49531 0.497807 0
M  V30 671 C 70.7167 1.59415 1.25358 0
M  V30 672 C 71.0497 0.281422 1.9215 0
M  V30 673 O 70.3247 -0.715249 1.80871 0
M  V30 674 C 70.6077 2.75566 2.3181 0
M  V30 675 C 70.4607 4.16642 1.69498 0
M  V30 676 C 71.7797 2.87347 3.33346 0
M  V30 677 H 68.8987 0.580244 0.454408 0
M  V30 678 H 71.5407 1.81827 0.551262 0
M  V30 679 H 69.6907 2.56587 2.91711 0
M  V30 680 H 71.3627 4.47145 1.13399 0
M  V30 681 H 69.6057 4.22141 0.998978 0
M  V30 682 H 70.2767 4.93792 2.46725 0
M  V30 683 H 72.7527 3.04634 2.83438 0
M  V30 684 H 71.6287 3.70289 4.05188 0
M  V30 685 H 71.8897 1.96834 3.95865 0
M  V30 686 N 70.9488 -0.749086 1.3866 0
M  V30 687 C 71.8988 -1.85368 1.32751 0
M  V30 688 C 72.8828 -1.59511 0.210945 0
M  V30 689 O 74.0748 -1.71255 0.447299 0
M  V30 690 C 71.2038 -3.23131 1.15935 0
M  V30 691 C 70.2898 -3.54864 2.32233 0
M  V30 692 N 70.6808 -3.57625 3.57684 0
M  V30 693 C 68.9788 -3.85154 2.24883 0
M  V30 694 C 69.6798 -3.86753 4.34508 0
M  V30 695 N 68.6558 -4.03812 3.63918 0
M  V30 696 H 72.4578 -1.85787 2.27729 0
M  V30 697 H 69.9718 -0.946658 1.31955 0
M  V30 698 H 71.9688 -4.02185 1.09786 0
M  V30 699 H 70.6288 -3.23961 0.218947 0
M  V30 700 H 71.6398 -3.39276 3.91295 0
M  V30 701 H 68.3168 -3.93672 1.39027 0
M  V30 702 H 69.7068 -3.95474 5.43185 0
M  V30 703 N 72.4269 -1.23603 -0.977757 0
M  V30 704 C 73.8429 -0.999251 -1.24447 0
M  V30 705 C 74.0429 0.298053 -1.99283 0
M  V30 706 O 73.0989 1.01681 -2.31122 0
M  V30 707 C 74.4119 -2.20784 -2.04144 0
M  V30 708 C 75.9599 -2.25303 -2.17273 0
M  V30 709 C 76.4349 -3.45755 -3.00362 0
M  V30 710 N 77.9259 -3.4601 -3.07947 0
M  V30 711 C 78.6609 -4.35868 -3.72568 0
M  V30 712 N 78.1569 -5.35966 -4.38991 0
M  V30 713 N 79.9499 -4.23605 -3.6948 0
M  V30 714 H 72.1009 -2.06986 -0.476483 0
M  V30 715 H 74.3639 -0.907801 -0.273134 0
M  V30 716 H 74.0699 -3.14945 -1.56533 0
M  V30 717 H 73.9439 -2.22085 -3.04891 0
M  V30 718 H 76.3309 -1.3168 -2.64092 0
M  V30 719 H 76.4119 -2.28033 -1.15907 0
M  V30 720 H 76.0559 -4.39687 -2.5424 0
M  V30 721 H 75.9859 -3.40266 -4.01904 0
M  V30 722 H 78.4769 -2.73588 -2.60688 0
M  V30 723 H 78.7899 -6.00783 -4.86086 0
M  V30 724 H 77.1349 -5.39863 -4.37691 0
M  V30 725 H 80.3259 -3.44647 -3.16759 0
M  V30 726 H 80.4989 -4.93836 -4.1956 0
M  V30 727 N 73.905 1.17692 -1.04816 0
M  V30 728 C 75.135 1.91508 -0.775128 0
M  V30 729 C 75.543 1.76844 0.67253 0
M  V30 730 O 74.886 1.10057 1.47082 0
M  V30 731 C 74.948 3.43167 -1.0713 0
M  V30 732 C 74.612 3.81612 -2.51438 0
M  V30 733 C 75.609 3.84772 -3.49638 0
M  V30 734 C 73.294 4.12687 -2.86348 0
M  V30 735 C 75.288 4.18469 -4.80794 0
M  V30 736 C 72.975 4.46053 -4.17708 0
M  V30 737 C 73.973 4.48921 -5.14741 0
M  V30 738 O 73.661 4.81504 -6.43746 0
M  V30 739 H 73.393 0.614575 -0.281555 0
M  V30 740 H 75.947 1.50206 -1.40098 0
M  V30 741 H 74.177 3.84745 -0.388342 0
M  V30 742 H 75.866 3.98239 -0.784883 0
M  V30 743 H 76.632 3.60893 -3.24008 0
M  V30 744 H 72.511 4.09627 -2.11486 0
M  V30 745 H 76.055 4.20623 -5.56527 0
M  V30 746 H 71.952 4.69393 -4.43103 0
M  V30 747 H 72.72 4.99377 -6.4851 0
M  V30 748 N 75.3831 0.828654 1.34056 0
M  V30 749 C 76.6131 0.431993 2.02033 0
M  V30 750 C 77.0211 -0.96844 1.62536 0
M  V30 751 O 76.3641 -1.6391 0.829408 0
M  V30 752 C 76.4261 0.461224 3.56529 0
M  V30 753 C 76.0901 1.81599 4.1937 0
M  V30 754 C 77.0871 2.7777 4.39477 0
M  V30 755 C 74.7721 2.10604 4.56017 0
M  V30 756 C 76.7661 4.01115 4.95364 0
M  V30 757 C 74.4531 3.34207 5.11614 0
M  V30 758 C 75.4511 4.2928 5.31232 0
M  V30 759 O 75.1391 5.50699 5.8565 0
M  V30 760 H 74.8711 0.170943 0.654029 0
M  V30 761 H 77.4251 1.11988 1.72185 0
M  V30 762 H 75.6551 -0.283388 3.8566 0
M  V30 763 H 77.3441 0.0838149 4.05813 0
M  V30 764 H 78.1101 2.56659 4.11523 0
M  V30 765 H 73.9891 1.37402 4.40047 0
M  V30 766 H 77.5331 4.75333 5.10592 0
M  V30 767 H 73.4301 3.55179 5.38997 0
M  V30 768 H 74.1981 5.52298 6.04077 0
M  V30 769 N 76.8612 -1.46375 0.584142 0
M  V30 770 C 78.2722 -1.86031 0.157959 0
M  V30 771 C 78.6232 -1.48753 -1.27933 0
M  V30 772 O 77.7482 -0.903098 -1.96655 0
M  V30 773 C 78.3432 -3.37642 0.279892 0
M  V30 774 C 76.9022 -3.76289 -0.09143 0
M  V30 775 C 76.0492 -2.7039 0.615178 0
M  V30 776 H 79.0002 -1.37509 0.792274 0
M  V30 777 H 79.0212 -3.77275 -0.494364 0
M  V30 778 H 78.5332 -3.64742 1.32607 0
M  V30 779 H 76.6342 -3.54806 -1.13769 0
M  V30 780 H 76.7472 -4.78246 0.285886 0
M  V30 781 H 75.1112 -2.5464 0.0552833 0
M  V30 782 H 75.8942 -3.0033 1.66303 0
M  V30 783 N 78.3393 -0.321999 -1.54275 0
M  V30 784 C 79.2493 0.553631 -2.27974 0
M  V30 785 C 80.2653 1.13054 -1.32268 0
M  V30 786 O 81.4413 1.15084 -1.6528 0
M  V30 787 C 78.5063 1.69927 -3.02201 0
M  V30 788 C 77.5673 1.15433 -4.1349 0
M  V30 789 C 76.8003 2.24537 -4.84168 0
M  V30 790 O 77.0233 3.44852 -4.5435 0
M  V30 791 O 75.9573 1.90044 -5.7111 0
M  V30 792 H 79.7833 -0.0448345 -3.03667 0
M  V30 793 H 77.3683 -0.0877418 -1.49142 0
M  V30 794 H 79.2503 2.3663 -3.48689 0
M  V30 795 H 77.9253 2.28395 -2.29385 0
M  V30 796 H 76.8323 0.452436 -3.71354 0
M  V30 797 H 78.1653 0.614805 -4.88345 0
M  V30 798 N 79.8174 1.5752 -0.0501392 0
M  V30 799 C 81.2334 1.56631 0.306402 0
M  V30 800 C 81.4334 1.0577 1.71508 0
M  V30 801 O 80.4894 0.713837 2.422 0
M  V30 802 C 81.8024 3.00393 0.135811 0
M  V30 803 C 83.3504 3.12315 0.206993 0
M  V30 804 C 83.8254 4.57954 0.064944 0
M  V30 805 N 85.3164 4.63041 0.121254 0
M  V30 806 C 86.0514 5.73389 0.0354381 0
M  V30 807 N 85.5474 6.92724 -0.102666 0
M  V30 808 N 87.3404 5.62026 0.090946 0
M  V30 809 H 79.4914 1.88903 -0.971046 0
M  V30 810 H 81.7544 0.869876 -0.376855 0
M  V30 811 H 81.4604 3.41635 -0.835384 0
M  V30 812 H 81.3344 3.66373 0.897275 0
M  V30 813 H 83.7214 2.70973 1.16866 0
M  V30 814 H 83.8024 2.49016 -0.585208 0
M  V30 815 H 83.4464 4.99981 -0.893394 0
M  V30 816 H 83.3764 5.19258 0.876277 0
M  V30 817 H 85.8674 3.77216 0.227284 0
M  V30 818 H 86.1804 7.72633 -0.160882 0
M  V30 819 H 84.5254 6.94864 -0.137737 0
M  V30 820 H 87.7164 4.67684 0.197388 0
M  V30 821 H 87.8894 6.47997 0.0206089 0
M  V30 822 N 81.2955 -0.223234 1.56011 0
M  V30 823 C 82.5235 -0.964812 1.83027 0
M  V30 824 C 82.9385 -1.78013 0.62904 0
M  V30 825 O 82.2955 -1.78008 -0.402414 0
M  V30 826 C 82.3465 -1.88373 3.08542 0
M  V30 827 O 82.0675 -1.10137 4.2403 0
M  V30 828 C 83.5685 -2.73934 3.48533 0
M  V30 829 H 80.7885 -0.282842 0.608475 0
M  V30 830 H 83.3325 -0.238971 2.03099 0
M  V30 831 H 81.4875 -2.56354 2.9045 0
M  V30 832 H 81.9015 -1.72501 4.95322 0
M  V30 833 H 83.3755 -3.34117 4.39397 0
M  V30 834 H 83.8525 -3.46244 2.70207 0
M  V30 835 H 84.4585 -2.11369 3.69057 0
M  V30 836 N 82.7736 -1.49793 -0.48987 0
M  V30 837 C 84.0506 -1.50348 -1.25119 0
M  V30 838 C 84.4306 -0.237466 -2.0976 0
M  V30 839 O 83.7786 0.77981 -2.14782 0
M  V30 840 C 83.9886 -2.78872 -2.09837 0
M  V30 841 C 85.3366 -3.288 -2.68655 0
M  V30 842 O 86.3606 -2.80065 -2.20096 0
M  V30 843 O 85.2196 -4.13707 -3.57083 0
M  V30 844 H 82.3136 -0.602242 -0.566775 0
M  V30 845 H 84.8596 -1.62067 -0.503229 0
M  V30 846 H 83.6316 -3.62499 -1.47343 0
M  V30 847 H 83.2546 -2.70066 -2.91805 0
M  V30 848 N 84.2517 0.741722 -1.39055 0
M  V30 849 C 85.1817 1.869 -1.39966 0
M  V30 850 C 86.1627 1.6804 -0.26392 0
M  V30 851 O 87.3477 1.88458 -0.468755 0
M  V30 852 C 84.4777 3.24572 -1.23574 0
M  V30 853 C 83.4317 3.58056 -2.34477 0
M  V30 854 C 82.7577 4.94593 -2.0318 0
M  V30 855 C 84.0577 3.61716 -3.76774 0
M  V30 856 H 85.7517 1.86395 -2.34302 0
M  V30 857 H 83.2977 0.895361 -1.1278 0
M  V30 858 H 85.2507 4.031 -1.22834 0
M  V30 859 H 83.9747 3.25587 -0.257045 0
M  V30 860 H 82.6337 2.81854 -2.34423 0
M  V30 861 H 82.2817 4.92181 -1.03765 0
M  V30 862 H 81.9817 5.17964 -2.77465 0
M  V30 863 H 83.5057 5.75486 -2.04079 0
M  V30 864 H 84.9197 4.30335 -3.78794 0
M  V30 865 H 83.3167 3.96603 -4.50362 0
M  V30 866 H 84.3867 2.61672 -4.08235 0
M  V30 867 N 85.7298 1.2412 0.971189 0
M  V30 868 C 86.6598 1.05508 2.08304 0
M  V30 869 C 87.6408 -0.0308864 1.70072 0
M  V30 870 O 88.8258 0.135521 1.93727 0
M  V30 871 C 85.9558 0.655365 3.4106 0
M  V30 872 C 84.9098 1.68971 3.93234 0
M  V30 873 C 84.2358 1.14516 5.22293 0
M  V30 874 C 85.5358 3.08487 4.21465 0
M  V30 875 H 87.2298 1.98507 2.24132 0
M  V30 876 H 84.7758 0.955821 1.07704 0
M  V30 877 H 86.7288 0.51217 4.18276 0
M  V30 878 H 85.4528 -0.31032 3.25122 0
M  V30 879 H 84.1118 1.82106 3.18171 0
M  V30 880 H 83.7598 0.170189 5.02712 0
M  V30 881 H 83.4598 1.83635 5.58168 0
M  V30 882 H 84.9838 1.01401 6.02121 0
M  V30 883 H 86.3978 2.98601 4.89398 0
M  V30 884 H 84.7948 3.74926 4.68562 0
M  V30 885 H 85.8648 3.56787 3.28376 0
M  V30 886 N 87.2079 -1.17134 1.05439 0
M  V30 887 C 88.6239 -1.39454 0.776201 0
M  V30 888 C 88.8239 -1.91454 -0.628307 0
M  V30 889 O 87.8799 -2.10777 -1.39031 0
M  V30 890 C 89.1929 -2.38305 1.83388 0
M  V30 891 C 90.7409 -2.52006 1.85639 0
M  V30 892 C 91.2159 -3.54133 2.90437 0
M  V30 893 N 92.7069 -3.61653 2.89415 0
M  V30 894 C 93.4419 -4.4044 3.67152 0
M  V30 895 N 92.9379 -5.22721 4.54681 0
M  V30 896 N 94.7309 -4.35337 3.55581 0
M  V30 897 H 86.8819 -0.817134 1.96053 0
M  V30 898 H 89.1449 -0.421626 0.849079 0
M  V30 899 H 88.8509 -2.07173 2.84204 0
M  V30 900 H 88.7249 -3.37841 1.67761 0
M  V30 901 H 91.1119 -2.82447 0.85486 0
M  V30 902 H 91.1929 -1.52537 2.05344 0
M  V30 903 H 90.8369 -3.24431 3.90777 0
M  V30 904 H 90.7669 -4.53313 2.67983 0
M  V30 905 H 93.2579 -3.02909 2.25952 0
M  V30 906 H 93.5709 -5.80027 5.10674 0
M  V30 907 H 91.9159 -5.22093 4.58741 0
M  V30 908 H 95.1069 -3.70112 2.86592 0
M  V30 909 H 95.2799 -4.96494 4.1641 0
M  V30 910 N 88.686 -0.835752 -1.33615 0
M  V30 911 C 89.649 -0.272 -2.2758 0
M  V30 912 C 90.649 0.557487 -1.50827 0
M  V30 913 O 91.839 0.37173 -1.70188 0
M  V30 914 C 88.971 0.617173 -3.35267 0
M  V30 915 H 90.164 -1.10111 -2.78954 0
M  V30 916 H 87.717 -0.608594 -1.43965 0
M  V30 917 H 88.452 1.46884 -2.89129 0
M  V30 918 H 88.237 0.0237066 -3.92093 0
M  V30 919 H 89.727 1.005 -4.05326 0
M  V30 920 N 90.1641 1.46063 -0.591896 0
M  V30 921 C 91.0941 2.33172 0.123673 0
M  V30 922 C 92.0751 1.45897 0.87453 0
M  V30 923 O 93.2601 1.74698 0.848181 0
M  V30 924 C 90.3901 3.28336 1.13194 0
M  V30 925 C 89.3441 4.25124 0.495324 0
M  V30 926 C 88.6701 5.09863 1.61071 0
M  V30 927 C 89.9701 5.19143 -0.573425 0
M  V30 928 H 91.6641 2.93252 -0.603646 0
M  V30 929 H 89.2101 1.41014 -0.291741 0
M  V30 930 H 91.1631 3.88137 1.64097 0
M  V30 931 H 89.8871 2.66383 1.88965 0
M  V30 932 H 88.5461 3.66599 0.00729452 0
M  V30 933 H 88.1941 4.44288 2.35832 0
M  V30 934 H 87.8941 5.75417 1.19035 0
M  V30 935 H 89.4181 5.72529 2.12233 0
M  V30 936 H 90.8321 5.73106 -0.1491 0
M  V30 937 H 89.2291 5.93089 -0.914636 0
M  V30 938 H 90.2991 4.62519 -1.45617 0
M  V30 939 N 91.6422 0.330177 1.54103 0
M  V30 940 C 92.6052 -0.520144 2.2322 0
M  V30 941 C 93.6052 -1.03828 1.22786 0
M  V30 942 O 94.7952 -0.929652 1.4732 0
M  V30 943 C 91.9272 -1.72317 2.94142 0
M  V30 944 H 93.1202 0.0841605 2.99782 0
M  V30 945 H 90.6732 0.0813433 1.56088 0
M  V30 946 H 91.4082 -2.36653 2.21734 0
M  V30 947 H 91.1932 -1.35898 3.67796 0
M  V30 948 H 92.6832 -2.3266 3.46784 0
M  V30 949 N 93.1203 -1.57491 0.0584922 0
M  V30 950 C 94.5363 -1.56792 -0.298091 0
M  V30 951 C 94.7363 -1.06679 -1.70944 0
M  V30 952 O 93.7923 -0.726672 -2.41818 0
M  V30 953 C 95.1053 -3.00461 -0.119879 0
M  V30 954 C 96.6533 -3.1242 -0.190428 0
M  V30 955 C 97.1283 -4.57982 -0.0406567 0
M  V30 956 N 98.6193 -4.63099 -0.0966958 0
M  V30 957 C 99.3543 -5.734 -0.00502943 0
M  V30 958 N 98.8503 -6.9266 0.139402 0
M  V30 959 N 100.643 -5.62067 -0.0611391 0
M  V30 960 H 92.7943 -1.88386 0.98105 0
M  V30 961 H 95.0573 -0.867865 0.381463 0
M  V30 962 H 94.7633 -3.41187 0.85349 0
M  V30 963 H 94.6373 -3.66843 -0.877833 0
M  V30 964 H 97.0243 -2.71589 -1.15427 0
M  V30 965 H 97.1053 -2.48702 0.598405 0
M  V30 966 H 96.7493 -4.995 0.919897 0
M  V30 967 H 96.6793 -5.19715 -0.848727 0
M  V30 968 H 99.1703 -3.77331 -0.207277 0
M  V30 969 H 99.4833 -7.72536 0.201855 0
M  V30 970 H 97.8283 -6.94781 0.174586 0
M  V30 971 H 101.019 -4.67782 -0.172583 0
M  V30 972 H 101.192 -6.47999 0.0137562 0
M  V30 973 N 94.5984 0.214957 -1.56127 0
M  V30 974 C 95.5484 1.27006 -1.8935 0
M  V30 975 C 96.5324 1.41969 -0.757202 0
M  V30 976 O 97.7244 1.44673 -1.01973 0
M  V30 977 C 94.8534 2.61911 -2.2194 0
M  V30 978 C 93.9394 2.50822 -3.41978 0
M  V30 979 N 94.3304 2.09391 -4.60423 0
M  V30 980 C 92.6284 2.81765 -3.45723 0
M  V30 981 C 93.3294 2.09712 -5.42582 0
M  V30 982 N 92.3054 2.50454 -4.82466 0
M  V30 983 H 96.1074 0.940734 -2.78437 0
M  V30 984 H 93.6214 0.423492 -1.56781 0
M  V30 985 H 95.6184 3.38096 -2.43919 0
M  V30 986 H 94.2784 2.95684 -1.34169 0
M  V30 987 H 95.2894 1.80416 -4.85459 0
M  V30 988 H 91.9664 3.19865 -2.68314 0
M  V30 989 H 93.3564 1.79748 -6.4741 0
M  V30 990 N 96.0765 1.50051 0.48192 0
M  V30 991 C 97.3225 1.60736 1.2366 0
M  V30 992 C 97.6555 0.301786 1.91841 0
M  V30 993 O 96.9305 -0.696025 1.8162 0
M  V30 994 C 97.2135 2.78009 2.28874 0
M  V30 995 C 97.0665 4.18416 1.65069 0
M  V30 996 C 98.3855 2.90867 3.30279 0
M  V30 997 H 95.5045 0.585031 0.448228 0
M  V30 998 H 98.1465 1.82402 0.531946 0
M  V30 999 H 96.2965 2.59667 2.88973 0
M  V30 1000 H 97.9685 4.48322 1.0865 0
M  V30 1001 H 96.2115 4.23177 0.954148 0
M  V30 1002 H 96.8825 4.96381 2.41474 0
M  V30 1003 H 99.3585 3.07623 2.80191 0
M  V30 1004 H 98.2345 3.74566 4.01238 0
M  V30 1005 H 98.4955 2.01021 3.93755 0
M  V30 1006 N 97.5546 -0.734337 1.39446 0
M  V30 1007 C 98.5046 -1.83949 1.34709 0
M  V30 1008 C 99.4886 -1.59279 0.227851 0
M  V30 1009 O 100.681 -1.70771 0.465438 0
M  V30 1010 C 97.8096 -3.21884 1.19356 0
M  V30 1011 C 96.8956 -3.52381 2.35984 0
M  V30 1012 N 97.2866 -3.53811 3.61457 0
M  V30 1013 C 95.5846 -3.82747 2.28956 0
M  V30 1014 C 96.2856 -3.82122 4.38586 0
M  V30 1015 N 95.2616 -3.9993 3.68181 0
M  V30 1016 H 99.0636 -1.83361 2.29687 0
M  V30 1017 H 96.5776 -0.932609 1.32952 0
M  V30 1018 H 98.5746 -4.00998 1.14046 0
M  V30 1019 H 97.2346 -3.23711 0.253295 0
M  V30 1020 H 98.2456 -3.35107 3.94872 0
M  V30 1021 H 94.9226 -3.92175 1.43194 0
M  V30 1022 H 96.3126 -3.89691 5.47349 0
M  V30 1023 N 99.0327 -1.24633 -0.964593 0
M  V30 1024 C 100.31 -0.995809 -1.68354 0
M  V30 1025 C 100.69 0.480964 -2.05548 0
M  V30 1026 O 100.038 1.45599 -1.76105 0
M  V30 1027 C 100.248 -1.92177 -2.91323 0
M  V30 1028 C 101.596 -2.19446 -3.63495 0
M  V30 1029 O 102.62 -1.89855 -3.01386 0
M  V30 1030 O 101.479 -2.69714 -4.75307 0
M  V30 1031 H 98.5727 -0.376854 -0.736146 0
M  V30 1032 H 101.119 -1.35745 -1.0184 0
M  V30 1033 H 99.8907 -2.91938 -2.60553 0
M  V30 1034 H 99.5137 -1.56349 -3.65569 0
M  V30 1035 N 100.511 1.16574 -1.06058 0
M  V30 1036 C 101.441 2.23057 -0.690488 0
M  V30 1037 C 102.422 1.67141 0.315901 0
M  V30 1038 O 103.607 1.93253 0.191556 0
M  V30 1039 C 100.737 3.47222 -0.073625 0
M  V30 1040 C 99.6908 4.16016 -1.00573 0
M  V30 1041 C 99.0168 5.34104 -0.252289 0
M  V30 1042 C 100.317 4.67264 -2.33371 0
M  V30 1043 H 102.011 2.54271 -1.58072 0
M  V30 1044 H 99.5568 1.22218 -0.76149 0
M  V30 1045 H 101.51 4.20939 0.19714 0
M  V30 1046 H 100.234 3.15302 0.85161 0
M  V30 1047 H 98.8928 3.44223 -1.2612 0
M  V30 1048 H 98.5408 4.98437 0.675988 0
M  V30 1049 H 98.2408 5.81072 -0.873455 0
M  V30 1050 H 99.7648 6.10599 0.0109857 0
M  V30 1051 H 101.179 5.32573 -2.12223 0
M  V30 1052 H 99.5758 5.24843 -2.90963 0
M  V30 1053 H 100.646 3.83602 -2.96611 0
M  V30 1054 N 101.989 0.842826 1.3317 0
M  V30 1055 C 103.214 0.453129 2.02389 0
M  V30 1056 C 103.639 -0.939105 1.6298 0
M  V30 1057 O 102.997 -1.61472 0.8244 0
M  V30 1058 C 103.045 0.586094 3.55805 0
M  V30 1059 O 102.149 -0.386029 4.10589 0
M  V30 1060 H 101.49 0.183664 0.638094 0
M  V30 1061 H 104.02 1.13875 1.69981 0
M  V30 1062 H 104.03 0.469209 4.05293 0
M  V30 1063 H 102.705 1.6014 3.83833 0
M  V30 1064 H 101.282 -0.226371 3.72212 0
M  V30 1065 N 103.467 -1.45747 0.599634 0
M  V30 1066 C 104.415 -2.322 -0.136426 0
M  V30 1067 C 105.409 -1.45497 -0.867583 0
M  V30 1068 O 106.615 -1.62027 -0.78405 0
M  V30 1069 H 102.99 -0.749368 -0.0628588 0
M  V30 1070 H 104.961 -2.92072 0.611281 0
M  V30 1071 C 103.71 -3.28974 -1.12567 0
M  V30 1072 H 103.033 -3.9568 -0.572484 0
M  V30 1073 H 104.473 -3.92212 -1.61077 0
M  V30 1074 C 102.932 -2.55561 -2.19523 0
M  V30 1075 O 103.462 -2.33111 -3.27143 0
M  V30 1076 N 101.668 -2.15832 -1.94589 0
M  V30 1077 H 101.215 -2.3429 -1.07078 0
M  V30 1078 H 101.173 -1.67034 -2.66359 0
M  V30 1079 N 104.945 -0.338344 -1.53925 0
M  V30 1080 C 105.908 0.508299 -2.23493 0
M  V30 1081 C 106.908 1.03175 -1.23335 0
M  V30 1082 O 108.098 0.921826 -1.47811 0
M  V30 1083 C 105.23 1.70754 -2.95052 0
M  V30 1084 H 106.423 -0.100058 -2.99733 0
M  V30 1085 H 103.976 -0.0896198 -1.56043 0
M  V30 1086 H 104.711 2.35474 -2.22986 0
M  V30 1087 H 104.496 1.33946 -3.68512 0
M  V30 1088 H 105.986 2.30818 -3.48013 0
M  V30 1089 N 106.423 1.57458 -0.0668435 0
M  V30 1090 C 107.386 2.11323 0.887422 0
M  V30 1091 C 108.386 1.03618 1.22964 0
M  V30 1092 O 109.576 1.29626 1.16373 0
M  V30 1093 C 106.708 2.61048 2.19242 0
M  V30 1094 H 107.901 2.96942 0.420194 0
M  V30 1095 H 105.454 1.55239 0.181793 0
M  V30 1096 H 106.189 1.78868 2.70512 0
M  V30 1097 H 105.974 3.39769 1.95702 0
M  V30 1098 H 107.464 3.02814 2.87565 0
M  V30 1099 N 107.901 -0.206675 1.56239 0
M  V30 1100 C 109.15 -0.926964 1.79138 0
M  V30 1101 C 109.463 -1.84901 0.638043 0
M  V30 1102 O 110.669 -2.60906 0.751033 0
M  V30 1103 C 109.125 -1.6986 3.17294 0
M  V30 1104 C 108.733 -0.821956 4.40395 0
M  V30 1105 C 110.477 -2.40922 3.4951 0
M  V30 1106 C 108.384 -1.59179 5.69575 0
M  V30 1107 H 107.314 -0.349864 0.667915 0
M  V30 1108 H 109.965 -0.180487 1.8261 0
M  V30 1109 H 108.347 -2.48853 3.08039 0
M  V30 1110 H 109.521 -0.0715019 4.60745 0
M  V30 1111 H 107.836 -0.222741 4.15804 0
M  V30 1112 H 110.433 -2.99047 4.43255 0
M  V30 1113 H 110.776 -3.14542 2.72707 0
M  V30 1114 H 111.309 -1.68905 3.60161 0
M  V30 1115 H 108.048 -0.898589 6.49312 0
M  V30 1116 H 107.568 -2.31648 5.53262 0
M  V30 1117 H 109.247 -2.14862 6.10281 0
M  V30 1118 N 109.379 -1.50304 -0.473955 0
M  V30 1119 C 110.289 -1.7174 -1.5982 0
M  V30 1120 C 111.305 -0.600457 -1.63311 0
M  V30 1121 O 112.481 -0.878441 -1.81233 0
M  V30 1122 C 109.546 -1.80427 -2.96052 0
M  V30 1123 C 108.607 -3.04148 -3.02972 0
M  V30 1124 C 107.84 -3.12411 -4.32706 0
M  V30 1125 O 108.063 -2.27542 -5.23049 0
M  V30 1126 O 106.997 -4.05113 -4.45159 0
M  V30 1127 H 110.823 -2.67035 -1.44657 0
M  V30 1128 H 108.408 -1.34366 -0.653148 0
M  V30 1129 H 110.29 -1.88338 -3.7697 0
M  V30 1130 H 108.965 -0.883156 -3.11419 0
M  V30 1131 H 107.872 -3.0174 -2.21142 0
M  V30 1132 H 109.205 -3.95829 -2.92541 0
M  V30 1133 N 110.857 0.726932 -1.39834 0
M  V30 1134 C 112.273 1.03354 -1.21615 0
M  V30 1135 C 112.473 2.01327 -0.08338 0
M  V30 1136 O 111.529 2.46158 0.56238 0
M  V30 1137 C 112.842 1.58811 -2.55342 0
M  V30 1138 C 114.39 1.70851 -2.62257 0
M  V30 1139 C 114.865 2.29716 -3.96225 0
M  V30 1140 N 116.356 2.37116 -3.97907 0
M  V30 1141 C 117.091 2.83619 -4.98345 0
M  V30 1142 N 116.587 3.29958 -6.09179 0
M  V30 1143 N 118.38 2.82901 -4.8572 0
M  V30 1144 H 110.531 0.0773069 -2.12259 0
M  V30 1145 H 112.794 0.0969102 -0.943034 0
M  V30 1146 H 112.5 0.942855 -3.38826 0
M  V30 1147 H 112.374 2.57502 -2.75632 0
M  V30 1148 H 114.761 2.34497 -1.79152 0
M  V30 1149 H 114.842 0.707913 -2.45809 0
M  V30 1150 H 114.486 1.66696 -4.79765 0
M  V30 1151 H 114.416 3.30469 -4.09997 0
M  V30 1152 H 116.907 2.04374 -3.17868 0
M  V30 1153 H 117.22 3.63976 -6.8172 0
M  V30 1154 H 115.565 3.27946 -6.12761 0
M  V30 1155 H 118.756 2.46027 -3.98231 0
M  V30 1156 H 118.929 3.18827 -5.6414 0
M  V30 1157 N 112.336 1.25143 0.95797 0
M  V30 1158 C 113.299 1.05321 2.03569 0
M  V30 1159 C 114.299 0.007152 1.60798 0
M  V30 1160 O 115.489 0.24903 1.72411 0
M  V30 1161 C 112.621 0.598394 3.35607 0
M  V30 1162 H 113.814 2.00986 2.22586 0
M  V30 1163 H 111.367 1.07502 1.13459 0
M  V30 1164 H 112.102 -0.361014 3.22284 0
M  V30 1165 H 111.887 1.35351 3.67998 0
M  V30 1166 H 113.377 0.48104 4.1482 0
M  V30 1167 N 113.814 -1.1601 1.06675 0
M  V30 1168 C 115.091 -1.82679 0.699114 0
M  V30 1169 C 115.471 -1.94559 -0.819137 0
M  V30 1170 O 114.819 -1.49169 -1.73092 0
M  V30 1171 C 115.029 -3.19445 1.40555 0
M  V30 1172 C 116.377 -3.95171 1.55323 0
M  V30 1173 O 117.401 -3.28976 1.36577 0
M  V30 1174 O 116.26 -5.13833 1.86112 0
M  V30 1175 H 113.354 -0.788954 0.247951 0
M  V30 1176 H 115.9 -1.23179 1.16726 0
M  V30 1177 H 114.672 -3.05856 2.44065 0
M  V30 1178 H 114.295 -3.86625 0.927733 0
M  V30 1179 N 115.292 -0.849877 -1.32721 0
M  V30 1180 C 116.703 -0.506188 -1.79707 0
M  V30 1181 C 117.054 0.975627 -1.70223 0
M  V30 1182 O 116.179 1.76078 -1.25799 0
M  V30 1183 C 116.774 -0.912044 -3.26293 0
M  V30 1184 C 115.333 -0.620326 -3.71253 0
M  V30 1185 C 114.48 -1.11439 -2.53922 0
M  V30 1186 H 117.431 -1.03754 -1.20087 0
M  V30 1187 H 117.452 -0.226493 -3.79825 0
M  V30 1188 H 116.964 -1.99057 -3.33164 0
M  V30 1189 H 115.065 0.447674 -3.69901 0
M  V30 1190 H 115.178 -1.18327 -4.64258 0
M  V30 1191 H 113.542 -0.534834 -2.49021 0
M  V30 1192 H 114.325 -2.19992 -2.6355 0
M  V30 1193 N 116.77 1.45427 -0.607355 0
M  V30 1194 C 117.998 2.06614 -0.108814 0
M  V30 1195 C 118.413 1.45204 1.2067 0
M  V30 1196 O 117.77 0.566132 1.73497 0
M  V30 1197 C 117.821 3.61481 0.0375347 0
M  V30 1198 O 117.542 4.20598 -1.22593 0
M  V30 1199 C 119.043 4.39652 0.567561 0
M  V30 1200 H 116.263 0.66747 -0.0687351 0
M  V30 1201 H 118.807 1.86675 -0.835022 0
M  V30 1202 H 116.962 3.80762 0.714068 0
M  V30 1203 H 117.376 5.1377 -1.05547 0
M  V30 1204 H 118.85 5.48518 0.61905 0
M  V30 1205 H 119.327 4.09417 1.58978 0
M  V30 1206 H 119.933 4.25234 -0.0749202 0
M  V30 1207 N 118.248 0.346503 1.53744 0
M  V30 1208 C 119.473 -0.253074 2.0585 0
M  V30 1209 C 119.898 -1.43202 1.21962 0
M  V30 1210 O 119.256 -1.79783 0.234073 0
M  V30 1211 C 119.304 -0.643193 3.54817 0
M  V30 1212 O 118.408 -1.74286 3.73762 0
M  V30 1213 H 117.749 -0.0413583 0.662711 0
M  V30 1214 H 120.279 0.501574 1.98357 0
M  V30 1215 H 120.289 -0.919526 3.97503 0
M  V30 1216 H 118.964 0.218966 4.15323 0
M  V30 1217 H 117.541 -1.46356 3.42979 0
M  V30 1218 N 119.726 -1.57421 0.075193 0
M  V30 1219 C 120.974 -1.93236 -0.591974 0
M  V30 1220 C 121.295 -0.956241 -1.69944 0
M  V30 1221 O 120.565 -0.00494792 -1.95899 0
M  V30 1222 H 119.145 -0.713355 -0.22166 0
M  V30 1223 H 121.807 -1.9444 0.133848 0
M  V30 1224 H 120.903 -2.95131 -1.01509 0
M  V30 1225 N 121.204 0.198386 -1.56346 0
M  V30 1226 C 122.615 0.763358 -1.70381 0
M  V30 1227 C 122.966 1.83995 -0.681203 0
M  V30 1228 O 122.091 2.15785 0.16305 0
M  V30 1229 C 122.686 1.39143 -3.08909 0
M  V30 1230 C 121.245 1.90352 -3.2472 0
M  V30 1231 C 120.392 0.772233 -2.6633 0
M  V30 1232 H 123.343 -0.0266377 -1.58678 0
M  V30 1233 H 123.364 2.26076 -3.06055 0
M  V30 1234 H 122.876 0.607638 -3.83314 0
M  V30 1235 H 120.977 2.71461 -2.55225 0
M  V30 1236 H 121.09 2.06757 -4.3219 0
M  V30 1237 H 119.454 1.18566 -2.2542 0
M  V30 1238 H 120.237 0.00073556 -3.433 0
M  V30 1239 N 122.682 1.50554 0.465978 0
M  V30 1240 C 123.928 1.62038 1.21949 0
M  V30 1241 C 124.261 0.322116 1.9151 0
M  V30 1242 O 123.536 -0.676723 1.82348 0
M  V30 1243 C 123.819 2.80421 2.25912 0
M  V30 1244 C 123.672 4.20144 1.60622 0
M  V30 1245 C 124.991 2.94354 3.27176 0
M  V30 1246 H 122.11 0.589752 0.441998 0
M  V30 1247 H 124.752 1.82956 0.51257 0
M  V30 1248 H 122.902 2.62717 2.86203 0
M  V30 1249 H 124.574 4.49449 1.03889 0
M  V30 1250 H 122.817 4.24165 0.909211 0
M  V30 1251 H 123.488 4.98914 2.36196 0
M  V30 1252 H 125.964 3.10578 2.76913 0
M  V30 1253 H 124.84 3.788 3.97242 0
M  V30 1254 H 125.101 2.05186 3.916 0
M  V30 1255 N 124.16 -0.719506 1.40217 0
M  V30 1256 C 125.437 -1.47221 1.28784 0
M  V30 1257 C 125.817 -2.10883 -0.0956067 0
M  V30 1258 O 125.165 -1.99833 -1.10811 0
M  V30 1259 C 125.375 -2.5111 2.42373 0
M  V30 1260 C 126.723 -3.17053 2.82423 0
M  V30 1261 O 127.747 -2.61429 2.41937 0
M  V30 1262 O 126.606 -4.17742 3.52355 0
M  V30 1263 H 123.7 -0.654491 0.50554 0
M  V30 1264 H 126.246 -0.752014 1.52128 0
M  V30 1265 H 125.018 -2.02556 3.34793 0
M  V30 1266 H 124.641 -3.3067 2.20778 0
M  V30 1267 N 125.638 -1.25649 -0.95132 0
M  V30 1268 C 126.601 -1.06399 -2.03007 0
M  V30 1269 C 127.601 -0.0156794 -1.60792 0
M  V30 1270 O 128.791 -0.25817 -1.72276 0
M  V30 1271 C 125.923 -0.616184 -3.35285 0
M  V30 1272 H 127.116 -2.02164 -2.21517 0
M  V30 1273 H 124.669 -1.08103 -1.12887 0
M  V30 1274 H 125.404 0.343917 -3.22471 0
M  V30 1275 H 125.189 -1.37301 -3.67275 0
M  V30 1276 H 126.679 -0.503032 -4.14559 0
M  V30 1277 N 127.117 1.15442 -1.07289 0
M  V30 1278 C 128.08 2.18358 -0.696591 0
M  V30 1279 C 129.08 1.58637 0.262837 0
M  V30 1280 O 130.27 1.74145 0.0438809 0
M  V30 1281 C 127.402 3.4089 -0.0266151 0
M  V30 1282 H 128.595 2.53162 -1.60776 0
M  V30 1283 H 126.148 1.29893 -0.869342 0
M  V30 1284 H 126.883 3.11653 0.896822 0
M  V30 1285 H 126.668 3.85495 -0.716657 0
M  V30 1286 H 128.158 4.17009 0.222028 0
M  V30 1287 N 128.595 0.856903 1.32268 0
M  V30 1288 C 129.525 0.31858 2.31316 0
M  V30 1289 C 130.506 -0.583487 1.59779 0
M  V30 1290 O 131.691 -0.503259 1.87566 0
M  V30 1291 C 128.821 -0.491979 3.43798 0
M  V30 1292 C 127.775 0.315849 4.26833 0
M  V30 1293 C 127.101 -0.619586 5.31098 0
M  V30 1294 C 128.401 1.54282 4.98993 0
M  V30 1295 H 130.095 1.14621 2.76591 0
M  V30 1296 H 127.641 0.552613 1.32974 0
M  V30 1297 H 129.594 -0.879012 4.1213 0
M  V30 1298 H 128.318 -1.35299 2.97257 0
M  V30 1299 H 126.977 0.684664 3.6015 0
M  V30 1300 H 126.625 -1.47751 4.8081 0
M  V30 1301 H 126.325 -0.0830621 5.87541 0
M  V30 1302 H 127.849 -1.00375 6.02293 0
M  V30 1303 H 129.263 1.22796 5.59995 0
M  V30 1304 H 127.66 2.01745 5.65172 0
M  V30 1305 H 128.73 2.30285 4.26728 0
M  V30 1306 N 130.073 -1.45103 0.615059 0
M  V30 1307 C 131.489 -1.57137 0.279322 0
M  V30 1308 C 131.689 -1.60523 -1.21797 0
M  V30 1309 O 130.745 -1.53956 -2.00134 0
M  V30 1310 C 132.058 -2.85062 0.957083 0
M  V30 1311 C 133.606 -2.98749 0.933706 0
M  V30 1312 C 134.081 -4.29455 1.59162 0
M  V30 1313 N 135.572 -4.36231 1.55746 0
M  V30 1314 C 136.307 -5.36051 2.0356 0
M  V30 1315 N 135.803 -6.42367 2.59494 0
M  V30 1316 N 137.596 -5.27456 1.94284 0
M  V30 1317 H 129.747 -1.41148 1.58717 0
M  V30 1318 H 132.01 -0.675331 0.665306 0
M  V30 1319 H 131.716 -2.88488 2.01166 0
M  V30 1320 H 131.59 -3.7407 0.48494 0
M  V30 1321 H 133.977 -2.94886 -0.112347 0
M  V30 1322 H 134.058 -2.11132 1.44419 0
M  V30 1323 H 133.702 -4.34077 2.63704 0
M  V30 1324 H 133.632 -5.15901 1.0561 0
M  V30 1325 H 136.123 -3.60011 1.14893 0
M  V30 1326 H 136.436 -7.14793 2.93752 0
M  V30 1327 H 134.781 -6.43097 2.63537 0
M  V30 1328 H 137.972 -4.43308 1.5032 0
M  V30 1329 H 138.145 -6.05099 2.3186 0
M  V30 1330 N 131.551 -0.354651 -1.53558 0
M  V30 1331 C 132.967 -0.00315426 -1.596 0
M  V30 1332 C 133.167 1.47741 -1.37021 0
M  V30 1333 O 132.223 2.23759 -1.16996 0
M  V30 1334 C 133.536 -0.44929 -2.97325 0
M  V30 1335 C 135.084 -0.402578 -3.104 0
M  V30 1336 C 135.559 -0.824355 -4.5052 0
M  V30 1337 N 137.05 -0.778979 -4.56603 0
M  V30 1338 C 137.785 -1.07715 -5.63192 0
M  V30 1339 N 137.281 -1.44405 -6.77583 0
M  V30 1340 N 139.074 -1.00066 -5.53121 0
M  V30 1341 H 131.225 -1.31893 -1.66487 0
M  V30 1342 H 133.488 -0.538388 -0.780284 0
M  V30 1343 H 133.194 -1.48202 -3.1895 0
M  V30 1344 H 133.068 0.169772 -3.76818 0
M  V30 1345 H 135.455 0.621004 -2.88492 0
M  V30 1346 H 135.536 -1.05699 -2.32941 0
M  V30 1347 H 135.18 -1.846 -4.73165 0
M  V30 1348 H 135.11 -0.147304 -5.26394 0
M  V30 1349 H 137.601 -0.508528 -3.74463 0
M  V30 1350 H 137.914 -1.65612 -7.54846 0
M  V30 1351 H 136.259 -1.4826 -6.79002 0
M  V30 1352 H 139.45 -0.713293 -4.62633 0
M  V30 1353 H 139.623 -1.23638 -6.36096 0
M  V30 1354 N 133.029 1.57378 -0.0835403 0
M  V30 1355 C 134.275 1.94217 0.583733 0
M  V30 1356 C 134.608 0.964653 1.68547 0
M  V30 1357 O 133.883 -0.00422258 1.945 0
M  V30 1358 C 134.166 3.41253 1.14972 0
M  V30 1359 C 134.019 4.49768 0.0538277 0
M  V30 1360 C 135.338 3.89352 2.05166 0
M  V30 1361 H 132.457 0.706233 0.210724 0
M  V30 1362 H 135.099 1.89392 -0.1519 0
M  V30 1363 H 133.249 3.45496 1.77665 0
M  V30 1364 H 134.921 4.57641 -0.579851 0
M  V30 1365 H 133.164 4.29432 -0.614068 0
M  V30 1366 H 133.835 5.49817 0.490452 0
M  V30 1367 H 136.311 3.87189 1.52393 0
M  V30 1368 H 135.187 4.92822 2.41698 0
M  V30 1369 H 135.448 3.27973 2.96456 0
M  V30 1370 N 134.507 -0.190092 1.56449 0
M  V30 1371 C 135.753 -0.911052 1.81184 0
M  V30 1372 C 136.086 -1.82699 0.658396 0
M  V30 1373 O 135.361 -1.91491 -0.340775 0
M  V30 1374 C 135.644 -1.72297 3.16205 0
M  V30 1375 C 135.497 -0.831419 4.42049 0
M  V30 1376 C 136.816 -2.69454 3.47969 0
M  V30 1377 H 133.935 -0.32977 0.659106 0
M  V30 1378 H 136.577 -0.178169 1.89163 0
M  V30 1379 H 134.727 -2.34778 3.09534 0
M  V30 1380 H 136.399 -0.220929 4.60771 0
M  V30 1381 H 134.642 -0.138406 4.33579 0
M  V30 1382 H 135.313 -1.43461 5.33032 0
M  V30 1383 H 137.789 -2.17104 3.54972 0
M  V30 1384 H 136.665 -3.23342 4.43555 0
M  V30 1385 H 136.926 -3.48744 2.71717 0
M  V30 1386 N 135.985 -1.50799 -0.457987 0
M  V30 1387 C 136.895 -1.73426 -1.57989 0
M  V30 1388 C 137.911 -0.617745 -1.62665 0
M  V30 1389 O 139.087 -0.897614 -1.80291 0
M  V30 1390 C 136.152 -1.83557 -2.94122 0
M  V30 1391 C 135.213 -3.07345 -2.99729 0
M  V30 1392 C 134.446 -3.16983 -4.29368 0
M  V30 1393 O 134.669 -2.33077 -5.20607 0
M  V30 1394 O 133.603 -4.09812 -4.40837 0
M  V30 1395 H 137.429 -2.68555 -1.41817 0
M  V30 1396 H 135.014 -1.35052 -0.638859 0
M  V30 1397 H 136.896 -1.92326 -3.74952 0
M  V30 1398 H 135.571 -0.916137 -3.10465 0
M  V30 1399 H 134.478 -3.04068 -2.1793 0
M  V30 1400 H 135.811 -3.9891 -2.88326 0
M  V30 1401 N 137.463 0.71206 -1.40597 0
M  V30 1402 C 138.688 1.50617 -1.42581 0
M  V30 1403 C 139.113 1.88079 -0.0282102 0
M  V30 1404 O 138.471 1.53511 0.964579 0
M  V30 1405 C 138.519 2.7557 -2.3258 0
M  V30 1406 O 137.623 3.72414 -1.77148 0
M  V30 1407 H 136.964 0.453966 -0.484573 0
M  V30 1408 H 139.494 0.876649 -1.84868 0
M  V30 1409 H 139.504 3.2406 -2.47889 0
M  V30 1410 H 138.179 2.47639 -3.34138 0
M  V30 1411 H 136.756 3.31276 -1.71204 0
M  V30 1412 N 138.941 1.26152 0.944643 0
M  V30 1413 C 139.873 1.03199 2.04652 0
M  V30 1414 C 140.886 -0.00642356 1.62799 0
M  V30 1415 O 142.075 0.233263 1.76969 0
M  V30 1416 C 139.175 0.540111 3.34568 0
M  V30 1417 C 138.348 1.64697 4.05208 0
M  V30 1418 C 137.407 1.15374 5.13396 0
M  V30 1419 O 136.433 1.85013 5.38293 0
M  V30 1420 N 137.635 0.00031529 5.805 0
M  V30 1421 H 140.4 1.9808 2.2491 0
M  V30 1422 H 137.961 1.17491 1.11389 0
M  V30 1423 H 139.953 0.194401 4.04233 0
M  V30 1424 H 138.523 -0.315021 3.11009 0
M  V30 1425 H 137.743 2.16379 3.29506 0
M  V30 1426 H 139.031 2.3903 4.49157 0
M  V30 1427 H 138.429 -0.581336 5.62705 0
M  V30 1428 H 136.986 -0.286346 6.51171 0
M  V30 1429 N 140.419 -1.14872 1.07899 0
M  V30 1430 C 141.349 -2.2193 0.725887 0
M  V30 1431 C 142.33 -1.67622 -0.28927 0
M  V30 1432 O 143.515 -1.93533 -0.160787 0
M  V30 1433 C 140.645 -3.47061 0.128856 0
M  V30 1434 C 139.599 -4.14363 1.07178 0
M  V30 1435 C 138.925 -5.33636 0.337229 0
M  V30 1436 C 140.225 -4.63492 2.40775 0
M  V30 1437 H 141.919 -2.51724 1.62097 0
M  V30 1438 H 139.465 -1.20991 0.780838 0
M  V30 1439 H 141.418 -4.21199 -0.130147 0
M  V30 1440 H 140.142 -3.16617 -0.80134 0
M  V30 1441 H 138.801 -3.42173 1.3158 0
M  V30 1442 H 138.449 -4.99449 -0.596606 0
M  V30 1443 H 138.149 -5.79609 0.965788 0
M  V30 1444 H 139.673 -6.10539 0.0861567 0
M  V30 1445 H 141.087 -5.2913 2.20669 0
M  V30 1446 H 139.484 -5.20148 2.99276 0
M  V30 1447 H 140.554 -3.78834 3.02676 0
M  V30 1448 N 141.898 -0.863906 -1.31812 0
M  V30 1449 C 143.175 -0.39275 -1.91616 0
M  V30 1450 C 143.555 1.12461 -1.7865 0
M  V30 1451 O 142.903 1.95045 -1.19037 0
M  V30 1452 C 143.113 -0.867385 -3.38049 0
M  V30 1453 C 144.461 -0.889966 -4.15168 0
M  V30 1454 O 145.485 -0.812635 -3.46806 0
M  V30 1455 O 144.344 -1.00079 -5.37258 0
M  V30 1456 H 141.438 -0.116358 -0.818773 0
M  V30 1457 H 143.984 -0.951418 -1.40521 0
M  V30 1458 H 142.756 -1.91081 -3.41473 0
M  V30 1459 H 142.379 -0.286687 -3.96565 0
M  V30 1460 N 143.376 1.44774 -0.622745 0
M  V30 1461 C 144.306 2.33382 0.0741861 0
M  V30 1462 C 145.287 1.47719 0.843387 0
M  V30 1463 O 146.472 1.76458 0.810934 0
M  V30 1464 C 143.602 3.30663 1.06204 0
M  V30 1465 C 142.556 4.26079 0.405037 0
M  V30 1466 C 141.882 5.13165 1.5022 0
M  V30 1467 C 143.182 5.1781 -0.683414 0
M  V30 1468 H 144.876 2.91905 -0.665713 0
M  V30 1469 H 142.422 1.40363 -0.321587 0
M  V30 1470 H 144.375 3.9153 1.55827 0
M  V30 1471 H 143.099 2.70331 1.83272 0
M  V30 1472 H 141.758 3.66532 -0.0704683 0
M  V30 1473 H 141.406 4.49191 2.26355 0
M  V30 1474 H 141.106 5.77812 1.06803 0
M  V30 1475 H 142.63 5.76902 2.00041 0
M  V30 1476 H 144.044 5.72661 -0.270631 0
M  V30 1477 H 142.441 5.91015 -1.04023 0
M  V30 1478 H 143.511 4.59326 -1.55395 0
M  V30 1479 N 144.854 0.36279 1.53368 0
M  V30 1480 C 146.102 -0.227326 2.00817 0
M  V30 1481 C 146.423 -1.49511 1.25186 0
M  V30 1482 O 145.693 -1.92482 0.364348 0
M  V30 1483 H 144.273 -0.0869923 0.741917 0
M  V30 1484 H 146.935 0.488381 1.88682 0
M  V30 1485 H 146.031 -0.456273 3.08747 0
M  V30 1486 N 146.332 -1.57332 0.0918853 0
M  V30 1487 C 147.743 -1.81496 -0.437739 0
M  V30 1488 C 148.094 -1.00727 -1.6837 0
M  V30 1489 O 147.219 -0.235694 -2.15113 0
M  V30 1490 C 147.814 -3.29197 -0.800939 0
M  V30 1491 C 146.373 -3.54136 -1.27532 0
M  V30 1492 C 145.52 -2.75979 -0.270392 0
M  V30 1493 H 148.471 -1.55494 0.317366 0
M  V30 1494 H 148.492 -3.42344 -1.66074 0
M  V30 1495 H 148.004 -3.87955 0.106078 0
M  V30 1496 H 146.105 -3.00705 -2.20016 0
M  V30 1497 H 146.218 -4.62792 -1.23938 0
M  V30 1498 H 144.582 -2.43349 -0.751872 0
M  V30 1499 H 145.365 -3.37484 0.629248 0
M  V30 1500 N 147.81 0.181792 -1.56548 0
M  V30 1501 C 149.059 0.898348 -1.8059 0
M  V30 1502 C 149.372 1.83862 -0.667379 0
M  V30 1503 O 150.578 2.59678 -0.792446 0
M  V30 1504 C 149.034 1.64791 -3.19956 0
M  V30 1505 C 148.642 0.751789 -4.41647 0
M  V30 1506 C 150.386 2.35331 -3.53298 0
M  V30 1507 C 148.293 1.50098 -5.72035 0
M  V30 1508 H 147.223 0.339194 -0.673397 0
M  V30 1509 H 149.874 0.151413 -1.82874 0
M  V30 1510 H 148.256 2.43921 -3.11959 0
M  V30 1511 H 149.43 -0.0018076 -4.608 0
M  V30 1512 H 147.745 0.156562 -4.16106 0
M  V30 1513 H 150.342 2.91958 -4.47956 0
M  V30 1514 H 150.685 3.10164 -2.77676 0
M  V30 1515 H 151.218 1.63154 -3.62803 0
M  V30 1516 H 147.957 0.795175 -6.50659 0
M  V30 1517 H 147.477 2.22817 -5.56878 0
M  V30 1518 H 149.156 2.05125 -6.13622 0
M  V30 1519 N 149.288 1.51039 0.449983 0
M  V30 1520 C 150.534 1.63322 1.20223 0
M  V30 1521 C 150.867 0.34241 1.91158 0
M  V30 1522 O 150.142 -0.657344 1.83055 0
M  V30 1523 C 150.425 2.82801 2.22925 0
M  V30 1524 C 150.278 4.21823 1.56157 0
M  V30 1525 C 151.597 2.97807 3.24035 0
M  V30 1526 H 148.716 0.594407 0.435718 0
M  V30 1527 H 151.358 1.83489 0.493136 0
M  V30 1528 H 149.508 2.65738 2.834 0
M  V30 1529 H 151.18 4.50526 0.991162 0
M  V30 1530 H 149.423 4.25105 0.864172 0
M  V30 1531 H 150.094 5.01391 2.30891 0
M  V30 1532 H 152.57 3.13497 2.73603 0
M  V30 1533 H 151.446 3.82992 3.93202 0
M  V30 1534 H 151.707 2.09328 3.89402 0
M  V30 1535 N 150.766 -0.704594 1.40972 0
M  V30 1536 C 151.696 -1.83124 1.44872 0
M  V30 1537 C 152.677 -1.67281 0.30838 0
M  V30 1538 O 153.862 -1.87149 0.518556 0
M  V30 1539 C 150.992 -3.21181 1.32136 0
M  V30 1540 C 149.946 -3.51714 2.43888 0
M  V30 1541 C 149.272 -4.89032 2.16222 0
M  V30 1542 C 150.572 -3.516 3.86232 0
M  V30 1543 H 152.266 -1.80117 2.39161 0
M  V30 1544 H 149.812 -0.865145 1.15114 0
M  V30 1545 H 151.765 -3.99702 1.33479 0
M  V30 1546 H 150.489 -3.24791 0.343279 0
M  V30 1547 H 149.148 -2.75539 2.41813 0
M  V30 1548 H 148.796 -4.89256 1.16778 0
M  V30 1549 H 148.496 -5.10426 2.911 0
M  V30 1550 H 150.02 -5.69873 2.19265 0
M  V30 1551 H 151.434 -4.2014 3.9007 0
M  V30 1552 H 149.831 -3.84523 4.60719 0
M  V30 1553 H 150.901 -2.50757 4.15029 0
M  V30 1554 N 152.244 -1.26651 -0.937939 0
M  V30 1555 C 153.491 -1.12387 -1.6845 0
M  V30 1556 C 153.819 0.332208 -1.91642 0
M  V30 1557 O 153.074 1.2602 -1.49725 0
M  V30 1558 C 153.373 -1.84168 -3.06295 0
M  V30 1559 C 153.039 -3.34056 -3.02849 0
M  V30 1560 C 151.701 -3.74942 -3.01616 0
M  V30 1561 C 154.053 -4.29741 -2.9491 0
M  V30 1562 C 151.381 -5.09894 -2.90215 0
M  V30 1563 C 153.733 -5.64738 -2.8505 0
M  V30 1564 C 152.397 -6.0493 -2.82162 0
M  V30 1565 H 151.667 -0.411252 -0.616403 0
M  V30 1566 H 154.314 -1.57134 -1.09459 0
M  V30 1567 H 152.619 -1.319 -3.6893 0
M  V30 1568 H 154.316 -1.70569 -3.62915 0
M  V30 1569 H 150.906 -3.01534 -3.0459 0
M  V30 1570 H 155.09 -3.99133 -2.94969 0
M  V30 1571 H 150.346 -5.40194 -2.86358 0
M  V30 1572 H 154.52 -6.38561 -2.77872 0
M  V30 1573 H 152.147 -7.09457 -2.73084 0
M  V30 1574 N 153.722 1.14298 -1.08507 0
M  V30 1575 C 154.968 1.85633 -0.816581 0
M  V30 1576 C 155.301 1.82784 0.656021 0
M  V30 1577 O 154.576 1.25926 1.48233 0
M  V30 1578 C 154.859 3.34223 -1.34041 0
M  V30 1579 C 154.712 3.45639 -2.87843 0
M  V30 1580 C 156.031 4.29356 -0.9665 0
M  V30 1581 H 153.15 0.67402 -0.298104 0
M  V30 1582 H 155.792 1.34214 -1.34487 0
M  V30 1583 H 153.942 3.78144 -0.89104 0
M  V30 1584 H 155.614 3.10498 -3.41158 0
M  V30 1585 H 153.857 2.86817 -3.25451 0
M  V30 1586 H 154.528 4.50089 -3.19569 0
M  V30 1587 H 157.004 3.93457 -1.35391 0
M  V30 1588 H 155.88 5.3178 -1.3602 0
M  V30 1589 H 156.141 4.41919 0.126362 0
M  V30 1590 N 155.201 0.870884 1.31352 0
M  V30 1591 C 156.431 0.496049 2.00557 0
M  V30 1592 C 156.839 -0.916241 1.65534 0
M  V30 1593 O 156.182 -1.61188 0.881134 0
M  V30 1594 C 156.244 0.574418 3.54881 0
M  V30 1595 C 155.908 1.94849 4.1338 0
M  V30 1596 C 156.905 2.91611 4.30417 0
M  V30 1597 C 154.59 2.25005 4.49086 0
M  V30 1598 C 156.584 4.16672 4.82352 0
M  V30 1599 C 154.271 3.50315 5.00722 0
M  V30 1600 C 155.269 4.45964 5.17306 0
M  V30 1601 O 154.957 5.69052 5.67833 0
M  V30 1602 H 154.689 0.191664 0.64826 0
M  V30 1603 H 157.243 1.17409 1.68536 0
M  V30 1604 H 155.473 -0.160549 3.86367 0
M  V30 1605 H 157.162 0.212879 4.05341 0
M  V30 1606 H 157.928 2.69622 4.03149 0
M  V30 1607 H 153.807 1.51332 4.35453 0
M  V30 1608 H 157.351 4.91336 4.95211 0
M  V30 1609 H 153.248 3.72147 5.27424 0
M  V30 1610 H 154.016 5.71236 5.86201 0
M  V30 1611 N 156.679 -1.44442 0.630414 0
M  V30 1612 C 157.909 -2.06115 0.141465 0
M  V30 1613 C 158.317 -1.47179 -1.1889 0
M  V30 1614 O 157.66 -0.588873 -1.74006 0
M  V30 1615 C 157.722 -3.59467 -0.0484355 0
M  V30 1616 C 157.386 -4.40864 1.20366 0
M  V30 1617 C 158.383 -4.74391 2.12719 0
M  V30 1618 C 156.068 -4.8125 1.43887 0
M  V30 1619 C 158.062 -5.47186 3.26904 0
M  V30 1620 C 155.749 -5.53795 2.5837 0
M  V30 1621 C 156.747 -5.86682 3.49705 0
M  V30 1622 O 156.435 -6.57749 4.62191 0
M  V30 1623 H 156.167 -0.671648 0.0765792 0
M  V30 1624 H 158.721 -1.86312 0.864695 0
M  V30 1625 H 156.951 -3.77758 -0.826803 0
M  V30 1626 H 158.64 -4.02909 -0.491849 0
M  V30 1627 H 159.406 -4.43728 1.95781 0
M  V30 1628 H 155.285 -4.55073 0.736853 0
M  V30 1629 H 158.829 -5.72773 3.98217 0
M  V30 1630 H 154.726 -5.83872 2.75251 0
M  V30 1631 H 155.494 -6.76217 4.61164 0
M  V30 1632 N 158.157 -0.370918 -1.53173 0
M  V30 1633 C 159.067 0.480823 -2.2962 0
M  V30 1634 C 160.083 1.08789 -1.35798 0
M  V30 1635 O 161.259 1.09768 -1.68858 0
M  V30 1636 C 158.324 1.60227 -3.07454 0
M  V30 1637 C 157.385 1.0222 -4.16953 0
M  V30 1638 C 156.618 2.0902 -4.91066 0
M  V30 1639 O 156.841 3.30222 -4.65091 0
M  V30 1640 O 155.775 1.71778 -5.76867 0
M  V30 1641 H 159.601 -0.141421 -3.03371 0
M  V30 1642 H 157.186 -0.135146 -1.48787 0
M  V30 1643 H 159.068 2.25417 -3.56041 0
M  V30 1644 H 157.743 2.20982 -2.36535 0
M  V30 1645 H 156.65 0.334064 -3.72605 0
M  V30 1646 H 157.983 0.459131 -4.90054 0
M  V30 1647 N 159.635 1.57281 -0.100228 0
M  V30 1648 C 161.046 1.81725 0.428107 0
M  V30 1649 C 161.397 1.01619 1.67833 0
M  V30 1650 O 160.522 0.247098 2.14985 0
M  V30 1651 C 161.117 3.29617 0.78347 0
M  V30 1652 C 159.676 3.54808 1.25653 0
M  V30 1653 C 158.823 2.76118 0.255752 0
M  V30 1654 H 161.774 1.55324 -0.325608 0
M  V30 1655 H 161.795 3.4322 1.64256 0
M  V30 1656 H 161.307 3.87893 -0.12665 0
M  V30 1657 H 159.408 3.01868 2.18418 0
M  V30 1658 H 159.521 4.63443 1.21482 0
M  V30 1659 H 157.885 2.43745 0.738956 0
M  V30 1660 H 158.668 3.37145 -0.647136 0
M  V30 1661 N 161.113 -0.173488 1.56642 0
M  V30 1662 C 162.338 -0.910149 1.86363 0
M  V30 1663 C 162.763 -1.75132 0.686318 0
M  V30 1664 O 162.121 -1.77595 -0.364643 0
M  V30 1665 C 162.169 -1.76447 3.14482 0
M  V30 1666 O 161.273 -2.86584 2.96553 0
M  V30 1667 H 160.614 -0.255086 0.613047 0
M  V30 1668 H 163.144 -0.172283 2.03873 0
M  V30 1669 H 163.154 -2.16483 3.45831 0
M  V30 1670 H 161.829 -1.14658 3.99783 0
M  V30 1671 H 160.406 -2.50146 2.76553 0
M  V30 1672 N 162.591 -1.51276 -0.441967 0
M  V30 1673 C 163.84 -1.6295 -1.18871 0
M  V30 1674 C 164.153 -0.349312 -1.92456 0
M  V30 1675 O 165.359 -0.345355 -2.69295 0
M  V30 1676 C 163.815 -2.87759 -2.16155 0
M  V30 1677 C 163.423 -4.22764 -1.48239 0
M  V30 1678 C 165.167 -3.08788 -2.91291 0
M  V30 1679 C 163.074 -5.38728 -2.4398 0
M  V30 1680 H 162.004 -0.606913 -0.447406 0
M  V30 1681 H 164.655 -1.77739 -0.456205 0
M  V30 1682 H 163.037 -2.66593 -2.92821 0
M  V30 1683 H 164.211 -4.54293 -0.771635 0
M  V30 1684 H 162.526 -4.07575 -0.852741 0
M  V30 1685 H 165.123 -3.92599 -3.63002 0
M  V30 1686 H 165.466 -2.21679 -3.5237 0
M  V30 1687 H 165.999 -3.30272 -2.21733 0
M  V30 1688 H 162.738 -6.28082 -1.87598 0
M  V30 1689 H 162.258 -5.1158 -3.13123 0
M  V30 1690 H 163.937 -5.70489 -3.05207 0
M  V30 1691 N 164.069 0.697108 -1.41344 0
M  V30 1692 C 164.999 1.82353 -1.45841 0
M  V30 1693 C 165.98 1.67115 -0.317247 0
M  V30 1694 O 167.165 1.86871 -0.528474 0
M  V30 1695 C 164.295 3.20476 -1.33838 0
M  V30 1696 C 163.249 3.50415 -2.4575 0
M  V30 1697 C 162.575 4.87878 -2.18813 0
M  V30 1698 C 163.875 3.49546 -3.88091 0
M  V30 1699 H 165.569 1.78846 -2.40113 0
M  V30 1700 H 163.115 0.859028 -1.15571 0
M  V30 1701 H 165.068 3.98988 -1.35596 0
M  V30 1702 H 163.792 3.24604 -0.360498 0
M  V30 1703 H 162.451 2.74253 -2.43271 0
M  V30 1704 H 162.099 4.8863 -1.19371 0
M  V30 1705 H 161.799 5.08875 -2.93803 0
M  V30 1706 H 163.323 5.68702 -2.22284 0
M  V30 1707 H 164.737 4.18066 -3.92293 0
M  V30 1708 H 163.134 3.82075 -4.62751 0
M  V30 1709 H 164.204 2.48552 -4.16353 0
M  V30 1710 N 165.547 1.27147 0.931209 0
M  V30 1711 C 166.51 1.09615 2.01289 0
M  V30 1712 C 167.51 0.0412581 1.60747 0
M  V30 1713 O 168.7 0.285545 1.71844 0
M  V30 1714 C 165.832 0.669447 3.34262 0
M  V30 1715 H 167.025 2.05662 2.18273 0
M  V30 1716 H 164.578 1.09885 1.11153 0
M  V30 1717 H 165.313 -0.292572 3.22978 0
M  V30 1718 H 165.098 1.43127 3.65044 0
M  V30 1719 H 166.588 0.568921 4.13706 0
M  V30 1720 N 167.025 -1.13721 1.09112 0
M  V30 1721 C 168.302 -1.81155 0.737706 0
M  V30 1722 C 168.682 -1.96253 -0.777683 0
M  V30 1723 O 168.03 -1.52807 -1.69889 0
M  V30 1724 C 168.24 -3.16392 1.47299 0
M  V30 1725 C 169.588 -3.91787 1.63671 0
M  V30 1726 O 170.612 -3.26005 1.43524 0
M  V30 1727 O 169.471 -5.0977 1.96969 0
M  V30 1728 H 166.565 -0.783518 0.26463 0
M  V30 1729 H 169.111 -1.20676 1.19312 0
M  V30 1730 H 167.883 -3.0061 2.50498 0
M  V30 1731 H 167.506 -3.8457 1.00953 0
M  V30 1732 N 168.503 -0.877838 -1.30888 0
M  V30 1733 C 169.914 -0.544193 -1.78593 0
M  V30 1734 C 170.265 0.939301 -1.72254 0
M  V30 1735 O 169.39 1.7337 -1.29505 0
M  V30 1736 C 169.985 -0.98105 -3.24285 0
M  V30 1737 C 168.544 -0.698935 -3.69854 0
M  V30 1738 C 167.691 -1.168 -2.51502 0
M  V30 1739 H 170.642 -1.06278 -1.17859 0
M  V30 1740 H 170.663 -0.307009 -3.79259 0
M  V30 1741 H 170.175 -2.06079 -3.28866 0
M  V30 1742 H 168.276 0.369112 -3.70767 0
M  V30 1743 H 168.389 -1.28148 -4.61644 0
M  V30 1744 H 166.753 -0.587535 -2.47831 0
M  V30 1745 H 167.536 -2.25533 -2.58824 0
M  V30 1746 N 169.982 1.44106 -0.638065 0
M  V30 1747 C 170.892 2.34513 0.0637334 0
M  V30 1748 C 171.908 1.53018 0.828346 0
M  V30 1749 O 173.084 1.85723 0.779036 0
M  V30 1750 C 170.149 3.31095 1.02844 0
M  V30 1751 C 169.21 4.28497 0.26244 0
M  V30 1752 C 168.443 5.20465 1.1812 0
M  V30 1753 O 168.666 5.16514 2.42011 0
M  V30 1754 O 167.6 5.98251 0.661774 0
M  V30 1755 H 171.426 2.95989 -0.68003 0
M  V30 1756 H 169.011 1.43994 -0.398252 0
M  V30 1757 H 170.893 3.90526 1.58327 0
M  V30 1758 H 169.568 2.72144 1.7527 0
M  V30 1759 H 168.475 3.72592 -0.335602 0
M  V30 1760 H 169.808 4.90388 -0.421936 0
M  V30 1761 N 171.46 0.379036 1.52974 0
M  V30 1762 C 172.39 -0.452706 2.29069 0
M  V30 1763 C 173.371 -1.07237 1.32039 0
M  V30 1764 O 174.556 -1.08708 1.60923 0
M  V30 1765 C 171.686 -1.5856 3.08992 0
M  V30 1766 C 170.64 -1.0925 4.13822 0
M  V30 1767 C 169.966 -2.31668 4.81907 0
M  V30 1768 C 171.266 -0.167702 5.22031 0
M  V30 1769 H 172.96 0.182181 2.98845 0
M  V30 1770 H 170.506 0.0890592 1.43724 0
M  V30 1771 H 172.459 -2.1742 3.6098 0
M  V30 1772 H 171.183 -2.24792 2.36931 0
M  V30 1773 H 169.842 -0.526494 3.628 0
M  V30 1774 H 169.49 -2.96386 4.06404 0
M  V30 1775 H 169.19 -1.9934 5.52754 0
M  V30 1776 H 170.714 -2.91189 5.36695 0
M  V30 1777 H 172.128 -0.664186 5.6944 0
M  V30 1778 H 170.525 0.0653265 6.00064 0
M  V30 1779 H 171.595 0.786347 4.78482 0
M  V30 1780 N 172.938 -1.57226 0.108567 0
M  V30 1781 C 173.901 -2.13602 -0.831082 0
M  V30 1782 C 174.901 -1.06841 -1.20173 0
M  V30 1783 O 176.091 -1.32666 -1.12895 0
M  V30 1784 C 173.223 -2.66769 -2.12243 0
M  V30 1785 H 174.416 -2.97951 -0.341317 0
M  V30 1786 H 171.969 -1.55667 -0.14057 0
M  V30 1787 H 172.704 -1.85977 -2.65675 0
M  V30 1788 H 172.489 -3.44839 -1.86625 0
M  V30 1789 H 173.979 -3.10332 -2.79435 0
M  V30 1790 N 174.416 0.165178 -1.56732 0
M  V30 1791 C 175.379 1.18822 -1.95995 0
M  V30 1792 C 176.379 1.3685 -0.84431 0
M  V30 1793 O 177.569 1.34152 -1.11126 0
M  V30 1794 C 174.701 2.5521 -2.26011 0
M  V30 1795 H 175.894 0.851825 -2.87548 0
M  V30 1796 H 173.447 0.407857 -1.50885 0
M  V30 1797 H 174.182 2.93852 -1.37191 0
M  V30 1798 H 173.967 2.43489 -3.07336 0
M  V30 1799 H 175.457 3.28927 -2.57288 0
M  V30 1800 N 175.894 1.51508 0.433938 0
M  V30 1801 C 177.124 1.67914 1.20369 0
M  V30 1802 C 177.532 0.377461 1.85397 0
M  V30 1803 O 176.875 -0.654255 1.71654 0
M  V30 1804 C 176.937 2.74045 2.32679 0
M  V30 1805 C 176.601 4.16543 1.87991 0
M  V30 1806 C 177.598 5.01211 1.38145 0
M  V30 1807 C 175.283 4.6266 1.95579 0
M  V30 1808 C 177.277 6.30056 0.964774 0
M  V30 1809 C 174.964 5.91501 1.53523 0
M  V30 1810 C 175.962 6.75027 1.04055 0
M  V30 1811 O 175.65 8.01459 0.625964 0
M  V30 1812 H 175.382 0.566578 0.368735 0
M  V30 1813 H 177.936 1.98709 0.51999 0
M  V30 1814 H 176.166 2.38572 3.04336 0
M  V30 1815 H 177.855 2.79295 2.94532 0
M  V30 1816 H 178.621 4.66783 1.31675 0
M  V30 1817 H 174.5 3.97767 2.33029 0
M  V30 1818 H 178.044 6.95202 0.57796 0
M  V30 1819 H 173.941 6.25442 1.59665 0
M  V30 1820 H 174.709 8.15043 0.751509 0
M  V30 1821 N 177.372 -0.689602 1.41712 0
M  V30 1822 C 178.619 -1.44966 1.4139 0
M  V30 1823 C 178.947 -1.94484 0.025105 0
M  V30 1824 O 178.202 -1.70307 -0.964048 0
M  V30 1825 C 178.501 -2.67298 2.37247 0
M  V30 1826 C 178.167 -2.36405 3.83958 0
M  V30 1827 C 176.829 -2.27691 4.23923 0
M  V30 1828 C 179.181 -2.11043 4.76561 0
M  V30 1829 C 176.509 -1.91719 5.54492 0
M  V30 1830 C 178.861 -1.76578 6.07456 0
M  V30 1831 C 177.525 -1.66363 6.46436 0
M  V30 1832 H 176.795 -0.53047 0.517381 0
M  V30 1833 H 179.442 -0.787655 1.74552 0
M  V30 1834 H 177.747 -3.38461 1.9736 0
M  V30 1835 H 179.444 -3.25452 2.34269 0
M  V30 1836 H 176.034 -2.44085 3.52308 0
M  V30 1837 H 180.218 -2.16717 4.46483 0
M  V30 1838 H 175.474 -1.82367 5.83568 0
M  V30 1839 H 179.648 -1.55974 6.78708 0
M  V30 1840 H 177.275 -1.38258 7.47522 0
M  V30 1841 N 178.85 -1.27639 -0.924453 0
M  V30 1842 C 180.127 -1.04887 -1.651 0
M  V30 1843 C 180.507 0.415327 -2.06974 0
M  V30 1844 O 179.855 1.39923 -1.80648 0
M  V30 1845 C 180.065 -2.01348 -2.85061 0
M  V30 1846 C 181.413 -2.30899 -3.56329 0
M  V30 1847 O 182.437 -1.99348 -2.95193 0
M  V30 1848 O 181.296 -2.84699 -4.66485 0
M  V30 1849 H 178.39 -0.400083 -0.723784 0
M  V30 1850 H 180.936 -1.38916 -0.974703 0
M  V30 1851 H 179.708 -3.0008 -2.51133 0
M  V30 1852 H 179.331 -1.679 -3.6041 0
M  V30 1853 N 180.328 1.1314 -1.09713 0
M  V30 1854 C 181.577 1.83838 -0.829851 0
M  V30 1855 C 181.89 1.84599 0.646728 0
M  V30 1856 O 183.096 2.51218 1.02965 0
M  V30 1857 C 181.552 3.30069 -1.43466 0
M  V30 1858 C 181.16 3.37688 -2.94399 0
M  V30 1859 C 182.904 4.05788 -1.24645 0
M  V30 1860 C 180.811 4.78209 -3.47952 0
M  V30 1861 H 179.741 0.68877 -0.306777 0
M  V30 1862 H 182.392 1.27448 -1.3202 0
M  V30 1863 H 180.774 3.8628 -0.871996 0
M  V30 1864 H 181.948 2.91456 -3.56918 0
M  V30 1865 H 180.263 2.75436 -3.12289 0
M  V30 1866 H 182.86 5.09535 -1.62107 0
M  V30 1867 H 183.203 4.15878 -0.187357 0
M  V30 1868 H 183.736 3.55915 -1.77678 0
M  V30 1869 H 180.475 4.73311 -4.53495 0
M  V30 1870 H 179.995 5.24924 -2.90198 0
M  V30 1871 H 181.674 5.47133 -3.45332 0
M  V30 1872 N 181.806 0.884767 1.30421 0
M  V30 1873 C 183.054 0.502112 1.95763 0
M  V30 1874 C 183.375 -0.951815 1.70192 0
M  V30 1875 O 182.645 -1.6692 1.0254 0
M  V30 1876 H 181.225 0.182694 0.724315 0
M  V30 1877 H 183.887 1.1278 1.58955 0
M  V30 1878 H 182.983 0.672188 3.04775 0
M  V30 1879 N 183.284 -1.43765 0.645699 0
M  V30 1880 C 184.561 -1.9541 0.0862963 0
M  V30 1881 C 184.941 -1.58725 -1.39175 0
M  V30 1882 O 184.289 -0.868581 -2.11348 0
M  V30 1883 C 184.499 -3.47488 0.324565 0
M  V30 1884 C 185.847 -4.24001 0.225497 0
M  V30 1885 O 186.871 -3.55274 0.256715 0
M  V30 1886 O 185.73 -5.46313 0.142801 0
M  V30 1887 H 182.824 -0.826882 -0.0139483 0
M  V30 1888 H 185.37 -1.53743 0.718415 0
M  V30 1889 H 184.142 -3.67289 1.3496 0
M  V30 1890 H 183.765 -3.96135 -0.340987 0
M  V30 1891 N 184.763 -0.387143 -1.52771 0
M  V30 1892 C 185.673 0.456442 -2.30117 0
M  V30 1893 C 186.689 1.07342 -1.36944 0
M  V30 1894 O 187.865 1.07971 -1.70013 0
M  V30 1895 C 184.93 1.56957 -3.09136 0
M  V30 1896 C 183.991 0.977916 -4.18014 0
M  V30 1897 C 183.224 2.038 -4.93256 0
M  V30 1898 O 183.447 3.25271 -4.68567 0
M  V30 1899 O 182.381 1.6565 -5.78657 0
M  V30 1900 H 186.207 -0.17359 -3.03203 0
M  V30 1901 H 183.792 -0.150919 -1.48636 0
M  V30 1902 H 185.674 2.21628 -3.58412 0
M  V30 1903 H 184.349 2.18461 -2.38865 0
M  V30 1904 H 183.256 0.294525 -3.72939 0
M  V30 1905 H 184.589 0.407128 -4.90513 0
M  V30 1906 N 186.241 1.57166 -0.116904 0
M  V30 1907 C 187.204 2.14039 0.819742 0
M  V30 1908 C 188.204 1.07477 1.19605 0
M  V30 1909 O 189.394 1.33263 1.1219 0
M  V30 1910 C 186.526 2.67891 2.10826 0
M  V30 1911 H 187.719 2.98128 0.325511 0
M  V30 1912 H 185.272 1.55739 0.132312 0
M  V30 1913 H 186.007 1.87384 2.64685 0
M  V30 1914 H 185.792 3.45823 1.84793 0
M  V30 1915 H 187.282 3.11809 2.77785 0
M  V30 1916 N 187.719 -0.156864 1.56817 0
M  V30 1917 C 188.968 -0.869504 1.81996 0
M  V30 1918 C 189.281 -1.82777 0.696545 0
M  V30 1919 O 190.487 -2.58384 0.833658 0
M  V30 1920 C 188.943 -1.59679 3.22538 0
M  V30 1921 C 188.551 -0.681431 4.42787 0
M  V30 1922 C 190.295 -2.2968 3.56997 0
M  V30 1923 C 188.202 -1.40978 5.74351 0
M  V30 1924 H 187.132 -0.328438 0.678708 0
M  V30 1925 H 189.783 -0.1223 1.83092 0
M  V30 1926 H 188.165 -2.38927 3.158 0
M  V30 1927 H 189.339 0.0751166 4.60739 0
M  V30 1928 H 187.654 -0.0903431 4.16302 0
M  V30 1929 H 190.251 -2.84794 4.52544 0
M  V30 1930 H 190.594 -3.05707 2.82576 0
M  V30 1931 H 191.127 -1.57361 3.65352 0
M  V30 1932 H 187.866 -0.691561 6.51842 0
M  V30 1933 H 187.386 -2.13929 5.60352 0
M  V30 1934 H 189.065 -1.95337 6.16808 0
M  V30 1935 N 189.197 -1.51736 -0.425897 0
M  V30 1936 C 190.443 -1.65214 -1.1761 0
M  V30 1937 C 190.776 -0.372778 -1.90589 0
M  V30 1938 O 190.051 0.628139 -1.84078 0
M  V30 1939 C 190.334 -2.86312 -2.18398 0
M  V30 1940 C 190.187 -4.24254 -1.49426 0
M  V30 1941 C 191.506 -3.02925 -3.19256 0
M  V30 1942 H 188.625 -0.601263 -0.426206 0
M  V30 1943 H 191.267 -1.8425 -0.463882 0
M  V30 1944 H 189.417 -2.70213 -2.79137 0
M  V30 1945 H 191.089 -4.52046 -0.919362 0
M  V30 1946 H 189.332 -4.26426 -0.796432 0
M  V30 1947 H 190.003 -5.05001 -2.22885 0
M  V30 1948 H 192.479 -3.1781 -2.68581 0
M  V30 1949 H 191.355 -3.89199 -3.8706 0
M  V30 1950 H 191.616 -2.15497 -3.86023 0
M  V30 1951 N 190.675 0.682077 -1.42076 0
M  V30 1952 C 191.585 1.82535 -1.47371 0
M  V30 1953 C 192.601 1.7017 -0.363079 0
M  V30 1954 O 193.777 1.91848 -0.612875 0
M  V30 1955 C 190.842 3.18624 -1.36674 0
M  V30 1956 C 189.903 3.42999 -2.58167 0
M  V30 1957 C 189.136 4.72595 -2.4797 0
M  V30 1958 O 189.359 5.50006 -1.5116 0
M  V30 1959 O 188.293 4.98054 -3.37974 0
M  V30 1960 H 192.119 1.81023 -2.43853 0
M  V30 1961 H 189.704 0.836887 -1.2376 0
M  V30 1962 H 191.586 3.99847 -1.33043 0
M  V30 1963 H 190.261 3.20789 -0.433138 0
M  V30 1964 H 189.168 2.61653 -2.67373 0
M  V30 1965 H 190.501 3.45659 -3.50401 0
M  V30 1966 N 192.153 1.28127 0.917671 0
M  V30 1967 C 193.399 1.15223 1.66888 0
M  V30 1968 C 193.732 -0.299293 1.9188 0
M  V30 1969 O 193.007 -1.21805 1.51637 0
M  V30 1970 C 193.29 1.94706 3.02922 0
M  V30 1971 C 193.143 3.47898 2.85109 0
M  V30 1972 C 194.462 1.75939 4.03402 0
M  V30 1973 H 191.581 0.419946 0.605652 0
M  V30 1974 H 194.223 1.57398 1.06423 0
M  V30 1975 H 192.373 1.58864 3.54534 0
M  V30 1976 H 194.045 3.93624 2.40537 0
M  V30 1977 H 192.288 3.7373 2.20246 0
M  V30 1978 H 192.959 3.98765 3.81694 0
M  V30 1979 H 195.435 2.07209 3.60837 0
M  V30 1980 H 194.311 2.33931 4.96556 0
M  V30 1981 H 194.572 0.709877 4.36364 0
M  V30 1982 N 193.631 -1.12557 1.10312 0
M  V30 1983 C 194.561 -2.20341 0.772798 0
M  V30 1984 C 195.542 -1.68198 -0.25365 0
M  V30 1985 O 196.727 -1.93831 -0.119699 0
M  V30 1986 C 193.857 -3.46709 0.202443 0
M  V30 1987 C 192.811 -4.11996 1.15943 0
M  V30 1988 C 192.137 -5.328 0.450345 0
M  V30 1989 C 193.437 -4.5828 2.50552 0
M  V30 1990 H 195.131 -2.48229 1.674 0
M  V30 1991 H 192.677 -1.19308 0.806326 0
M  V30 1992 H 194.63 -4.2138 -0.0407752 0
M  V30 1993 H 193.354 -3.18245 -0.734001 0
M  V30 1994 H 192.013 -3.39305 1.38808 0
M  V30 1995 H 191.661 -5.00602 -0.490531 0
M  V30 1996 H 191.361 -5.7743 1.08851 0
M  V30 1997 H 192.885 -6.10219 0.215642 0
M  V30 1998 H 194.299 -5.2433 2.31843 0
M  V30 1999 H 192.696 -5.13683 3.10242 0
M  V30 2000 H 193.766 -3.72329 3.10643 0
M  V30 2001 N 195.109 -0.891671 -1.2995 0
M  V30 2002 C 196.057 -0.353066 -2.29905 0
M  V30 2003 C 197.051 0.543509 -1.60444 0
M  V30 2004 O 198.257 0.4272 -1.74857 0
M  V30 2005 H 194.632 -0.095531 -0.745907 0
M  V30 2006 H 196.603 -1.20961 -2.72784 0
M  V30 2007 C 195.352 0.411475 -3.45257 0
M  V30 2008 H 194.675 -0.269182 -3.98893 0
M  V30 2009 H 196.115 0.753328 -4.17254 0
M  V30 2010 C 194.574 1.6111 -2.9588 0
M  V30 2011 O 195.104 2.71045 -2.96475 0
M  V30 2012 N 193.31 1.45054 -2.51809 0
M  V30 2013 H 192.857 0.556175 -2.51524 0
M  V30 2014 H 192.815 2.25453 -2.1913 0
M  V30 2015 N 196.587 1.43421 -0.653314 0
M  V30 2016 C 198.003 1.56341 -0.320886 0
M  V30 2017 C 198.203 1.63696 1.17499 0
M  V30 2018 O 197.259 1.59208 1.95982 0
M  V30 2019 C 198.572 2.82424 -1.03233 0
M  V30 2020 C 200.12 2.96168 -1.01259 0
M  V30 2021 C 200.595 4.25084 -1.70492 0
M  V30 2022 N 202.086 4.31948 -1.67257 0
M  V30 2023 C 202.821 5.30466 -2.17701 0
M  V30 2024 N 202.317 6.35261 -2.76434 0
M  V30 2025 N 204.11 5.2212 -2.082 0
M  V30 2026 H 196.261 1.3689 -1.62403 0
M  V30 2027 H 198.524 0.657455 -0.682977 0
M  V30 2028 H 198.23 2.83053 -2.08744 0
M  V30 2029 H 198.104 3.72653 -0.583948 0
M  V30 2030 H 200.491 2.9508 0.0341235 0
M  V30 2031 H 200.572 2.07229 -1.49966 0
M  V30 2032 H 200.216 4.26932 -2.7512 0
M  V30 2033 H 200.146 5.1292 -1.19251 0
M  V30 2034 H 202.637 3.56838 -1.24398 0
M  V30 2035 H 202.95 7.06754 -3.12601 0
M  V30 2036 H 201.295 6.35884 -2.80495 0
M  V30 2037 H 204.486 4.39166 -1.62021 0
M  V30 2038 H 204.659 5.98739 -2.47822 0
M  V30 2039 N 198.065 0.39524 1.52563 0
M  V30 2040 C 199.028 -0.425001 2.25225 0
M  V30 2041 C 200.028 -0.985266 1.27079 0
M  V30 2042 O 201.218 -0.866332 1.5113 0
M  V30 2043 C 198.35 -1.59686 3.01186 0
M  V30 2044 H 199.543 0.211233 2.99155 0
M  V30 2045 H 197.096 0.147472 1.55603 0
M  V30 2046 H 197.831 -2.27035 2.31572 0
M  V30 2047 H 197.616 -1.20176 3.73229 0
M  V30 2048 H 199.106 -2.17743 3.5634 0
M  V30 2049 N 199.544 -1.57102 0.125237 0
M  V30 2050 C 200.769 -2.0019 -0.542101 0
M  V30 2051 C 201.194 -1.00449 -1.59034 0
M  V30 2052 O 200.552 0.0229423 -1.81285 0
M  V30 2053 C 200.6 -3.42129 -1.13929 0
M  V30 2054 O 199.704 -3.45307 -2.2547 0
M  V30 2055 H 199.045 -0.650171 -0.134812 0
M  V30 2056 H 201.575 -2.03461 0.215553 0
M  V30 2057 H 201.585 -3.80471 -1.4733 0
M  V30 2058 H 200.26 -4.14237 -0.371531 0
M  V30 2059 H 198.837 -3.1879 -1.93462 0
M  V30 2060 N 201.022 0.148545 -1.56898 0
M  V30 2061 C 202.25 0.876389 -1.87422 0
M  V30 2062 C 202.665 1.74809 -0.713256 0
M  V30 2063 O 202.022 1.79725 0.317025 0
M  V30 2064 C 202.073 1.73438 -3.17178 0
M  V30 2065 O 201.794 0.897809 -4.28802 0
M  V30 2066 C 203.295 2.56993 -3.61205 0
M  V30 2067 H 200.515 0.253489 -0.621277 0
M  V30 2068 H 203.059 0.141798 -2.04008 0
M  V30 2069 H 201.214 2.42205 -3.0235 0
M  V30 2070 H 201.628 1.48672 -5.02988 0
M  V30 2071 H 203.102 3.12773 -4.54838 0
M  V30 2072 H 203.579 3.32958 -2.86419 0
M  V30 2073 H 204.185 1.9352 -3.78722 0
M  V30 2074 N 202.5 1.5196 0.417844 0
M  V30 2075 C 203.41 1.77554 1.53336 0
M  V30 2076 C 204.426 0.660655 1.6097 0
M  V30 2077 O 205.602 0.945099 1.77848 0
M  V30 2078 C 202.667 1.91291 2.89152 0
M  V30 2079 C 201.728 3.15183 2.91475 0
M  V30 2080 C 200.961 3.28256 4.20813 0
M  V30 2081 O 201.184 2.46798 5.14244 0
M  V30 2082 O 200.118 4.21356 4.29817 0
M  V30 2083 H 203.944 2.7222 1.34647 0
M  V30 2084 H 201.529 1.36698 0.602828 0
M  V30 2085 H 203.411 2.02199 3.69721 0
M  V30 2086 H 202.086 0.998129 3.07927 0
M  V30 2087 H 200.993 3.09739 2.09791 0
M  V30 2088 H 202.326 4.06414 2.77648 0
M  V30 2089 N 203.978 -0.674533 1.42435 0
M  V30 2090 C 205.394 -0.98769 1.25367 0
M  V30 2091 C 205.594 -2.00879 0.158044 0
M  V30 2092 O 204.65 -2.48075 -0.470633 0
M  V30 2093 C 205.963 -1.49224 2.6106 0
M  V30 2094 C 207.511 -1.61 2.68417 0
M  V30 2095 C 207.986 -2.14852 4.04478 0
M  V30 2096 N 209.477 -2.22185 4.06434 0
M  V30 2097 C 210.212 -2.64928 5.08528 0
M  V30 2098 N 209.708 -3.07121 6.21006 0
M  V30 2099 N 211.501 -2.64679 4.95885 0
M  V30 2100 H 203.652 0.00152503 2.124 0
M  V30 2101 H 205.915 -0.0618434 0.945981 0
M  V30 2102 H 205.621 -0.816453 3.42092 0
M  V30 2103 H 205.495 -2.47094 2.84999 0
M  V30 2104 H 207.882 -2.27686 1.87732 0
M  V30 2105 H 207.963 -0.616195 2.48267 0
M  V30 2106 H 207.607 -1.48775 4.85622 0
M  V30 2107 H 207.537 -3.15024 4.2198 0
M  V30 2108 H 210.028 -1.92435 3.25234 0
M  V30 2109 H 210.341 -3.38423 6.94759 0
M  V30 2110 H 208.686 -3.04978 6.24511 0
M  V30 2111 H 211.877 -2.31078 4.07088 0
M  V30 2112 H 212.05 -2.9767 5.75584 0
M  V30 2113 N 205.456 -1.28612 -0.910864 0
M  V30 2114 C 206.867 -1.14406 -1.47541 0
M  V30 2115 C 207.218 0.264901 -1.94403 0
M  V30 2116 O 206.343 1.15942 -1.82719 0
M  V30 2117 C 206.938 -2.07073 -2.68153 0
M  V30 2118 C 205.497 -1.96923 -3.20778 0
M  V30 2119 C 204.644 -1.98646 -1.93481 0
M  V30 2120 H 207.595 -1.41259 -0.723291 0
M  V30 2121 H 207.616 -1.63642 -3.43514 0
M  V30 2122 H 207.128 -3.09611 -2.34015 0
M  V30 2123 H 205.229 -0.97433 -3.59635 0
M  V30 2124 H 205.342 -2.84026 -3.85832 0
M  V30 2125 H 203.706 -1.43093 -2.10705 0
M  V30 2126 H 204.489 -3.02868 -1.61634 0
M  V30 2127 N 206.934 1.1197 -1.10907 0
M  V30 2128 C 207.844 2.21433 -0.774896 0
M  V30 2129 C 208.86 1.72478 0.229657 0
M  V30 2130 O 210.036 2.01288 0.0672008 0
M  V30 2131 C 207.101 3.4602 -0.216986 0
M  V30 2132 C 206.162 4.09791 -1.27944 0
M  V30 2133 C 205.395 5.28431 -0.748055 0
M  V30 2134 O 205.618 5.68823 0.423833 0
M  V30 2135 O 204.552 5.82644 -1.51027 0
M  V30 2136 H 208.378 2.5242 -1.68873 0
M  V30 2137 H 205.963 1.20399 -0.884555 0
M  V30 2138 H 207.845 4.21304 0.090059 0
M  V30 2139 H 206.52 3.16698 0.669633 0
M  V30 2140 H 205.427 3.36265 -1.63941 0
M  V30 2141 H 206.76 4.4328 -2.13925 0
M  V30 2142 N 208.412 0.89855 1.29475 0
M  V30 2143 C 209.642 0.538479 1.99459 0
M  V30 2144 C 210.05 -0.880922 1.67441 0
M  V30 2145 O 209.393 -1.59283 0.915127 0
M  V30 2146 C 209.455 0.649564 3.53583 0
M  V30 2147 C 209.119 2.03573 4.09154 0
M  V30 2148 C 210.116 3.00675 4.24135 0
M  V30 2149 C 207.801 2.3448 4.44212 0
M  V30 2150 C 209.795 4.26809 4.73405 0
M  V30 2151 C 207.482 3.60857 4.93179 0
M  V30 2152 C 208.48 4.56836 5.0773 0
M  V30 2153 O 208.168 5.80969 5.55635 0
M  V30 2154 H 207.9 0.205372 0.644048 0
M  V30 2155 H 210.454 1.20958 1.66007 0
M  V30 2156 H 208.684 -0.0785592 3.8662 0
M  V30 2157 H 210.373 0.29881 4.04799 0
M  V30 2158 H 211.139 2.78112 3.97339 0
M  V30 2159 H 207.018 1.60534 4.32145 0
M  V30 2160 H 210.562 5.0173 4.84678 0
M  V30 2161 H 206.459 3.83251 5.19412 0
M  V30 2162 H 207.227 5.83542 5.73952 0
M  V30 2163 N 209.89 -1.43072 0.660911 0
M  V30 2164 C 211.301 -1.84932 0.256348 0
M  V30 2165 C 211.652 -1.55325 -1.19868 0
M  V30 2166 O 210.777 -1.00607 -1.91591 0
M  V30 2167 C 211.372 -3.35684 0.458475 0
M  V30 2168 C 209.931 -3.76245 0.108161 0
M  V30 2169 C 209.078 -2.66749 0.757641 0
M  V30 2170 H 212.029 -1.33116 0.864051 0
M  V30 2171 H 212.05 -3.79365 -0.293683 0
M  V30 2172 H 211.562 -3.572 1.51755 0
M  V30 2173 H 209.663 -3.60338 -0.948014 0
M  V30 2174 H 209.776 -4.76058 0.538992 0
M  V30 2175 H 208.14 -2.53989 0.190185 0
M  V30 2176 H 208.923 -2.91092 1.81989 0
M  V30 2177 N 211.368 -0.403325 -1.52352 0
M  V30 2178 C 212.779 0.0675782 -1.86578 0
M  V30 2179 C 213.13 1.44941 -1.32236 0
M  V30 2180 O 212.255 2.06112 -0.659307 0
M  V30 2181 C 212.85 0.129404 -3.38553 0
M  V30 2182 C 211.409 0.544629 -3.72439 0
M  V30 2183 C 210.556 -0.284551 -2.75836 0
M  V30 2184 H 213.507 -0.620631 -1.46061 0
M  V30 2185 H 213.528 0.94581 -3.68558 0
M  V30 2186 H 213.04 -0.87645 -3.78074 0
M  V30 2187 H 211.141 1.55734 -3.38493 0
M  V30 2188 H 211.254 0.293046 -4.78203 0
M  V30 2189 H 209.618 0.252258 -2.53448 0
M  V30 2190 H 210.401 -1.28865 -3.18196 0
M  V30 2191 N 212.846 1.57033 -0.133567 0
M  V30 2192 C 214.094 1.953 0.519848 0
M  V30 2193 C 214.415 1.01866 1.66278 0
M  V30 2194 O 213.685 0.0776513 1.95746 0
M  V30 2195 H 212.265 0.721091 0.195032 0
M  V30 2196 H 214.927 1.93809 -0.205921 0
M  V30 2197 H 214.023 2.98695 0.904854 0
M  V30 2198 N 214.325 -0.140222 1.56975 0
M  V30 2199 C 215.571 -0.848084 1.84876 0
M  V30 2200 C 215.926 -1.78481 0.718481 0
M  V30 2201 O 215.219 -1.89497 -0.283093 0
M  V30 2202 C 215.413 -1.65386 3.16832 0
M  V30 2203 C 215.242 -0.79665 4.42587 0
M  V30 2204 C 214.012 -0.459648 5.03205 0
M  V30 2205 C 216.21 -0.12389 5.14151 0
M  V30 2206 N 214.192 0.410446 6.12526 0
M  V30 2207 C 215.563 0.606064 6.17031 0
M  V30 2208 C 217.618 -0.0452654 4.97879 0
M  V30 2209 C 216.321 1.40723 7.054 0
M  V30 2210 C 218.347 0.742658 5.86718 0
M  V30 2211 C 217.709 1.46087 6.89085 0
M  V30 2212 H 213.808 -0.287946 0.727056 0
M  V30 2213 H 216.392 -0.11304 1.94372 0
M  V30 2214 H 214.563 -2.36009 3.08471 0
M  V30 2215 H 216.295 -2.30541 3.32615 0
M  V30 2216 H 213.05 -0.797006 4.66846 0
M  V30 2217 H 213.474 0.836716 6.7181 0
M  V30 2218 H 218.116 -0.586184 4.18717 0
M  V30 2219 H 215.834 1.95938 7.83986 0
M  V30 2220 H 219.42 0.805574 5.76196 0
M  V30 2221 H 218.3 2.06077 7.56639 0
M  V30 2222 N 215.803 -1.52179 -0.40978 0
M  V30 2223 C 216.766 -1.74853 -1.48186 0
M  V30 2224 C 217.766 -0.618417 -1.48433 0
M  V30 2225 O 218.956 -0.886286 -1.49969 0
M  V30 2226 C 216.088 -1.8303 -2.87598 0
M  V30 2227 H 217.281 -2.70559 -1.29374 0
M  V30 2228 H 214.834 -1.42586 -0.640233 0
M  V30 2229 H 215.569 -0.89236 -3.11781 0
M  V30 2230 H 215.354 -2.65187 -2.88822 0
M  V30 2231 H 216.844 -2.02316 -3.65319 0
M  V30 2232 N 217.281 0.66697 -1.42791 0
M  V30 2233 C 218.697 0.981027 -1.25889 0
M  V30 2234 C 218.897 2.00793 -0.168695 0
M  V30 2235 O 217.953 2.48321 0.45747 0
M  V30 2236 C 219.266 1.47838 -2.61848 0
M  V30 2237 C 220.814 1.59575 -2.69267 0
M  V30 2238 C 221.289 2.12704 -4.05612 0
M  V30 2239 N 222.78 2.20026 -4.07606 0
M  V30 2240 C 223.515 2.62227 -5.09926 0
M  V30 2241 N 223.011 3.03824 -6.22626 0
M  V30 2242 N 224.804 2.62045 -4.97281 0
M  V30 2243 H 216.955 -0.0127891 -2.12396 0
M  V30 2244 H 219.218 0.0568258 -0.946295 0
M  V30 2245 H 218.924 0.798299 -3.4252 0
M  V30 2246 H 218.798 2.45579 -2.86305 0
M  V30 2247 H 221.185 2.26687 -1.88936 0
M  V30 2248 H 221.266 0.60302 -2.48591 0
M  V30 2249 H 220.91 1.46198 -4.86404 0
M  V30 2250 H 220.84 3.12782 -4.23645 0
M  V30 2251 H 223.331 1.90708 -3.2625 0
M  V30 2252 H 223.644 3.34734 -6.96544 0
M  V30 2253 H 221.989 3.01662 -6.26119 0
M  V30 2254 H 225.18 2.28916 -4.08308 0
M  V30 2255 H 225.353 2.94613 -5.77154 0
M  V30 2256 N 218.759 1.29093 0.90403 0
M  V30 2257 C 220.175 1.07011 1.1841 0
M  V30 2258 C 220.375 -0.181358 2.00682 0
M  V30 2259 O 219.431 -0.880331 2.36657 0
M  V30 2260 C 220.744 2.32311 1.90924 0
M  V30 2261 C 222.292 2.37587 2.03768 0
M  V30 2262 C 222.767 3.62679 2.79693 0
M  V30 2263 N 224.258 3.63376 2.87249 0
M  V30 2264 C 224.993 4.56848 3.46522 0
M  V30 2265 N 224.489 5.60648 4.06996 0
M  V30 2266 N 226.282 4.44426 3.44154 0
M  V30 2267 H 218.433 2.09412 0.354993 0
M  V30 2268 H 220.696 0.922181 0.219742 0
M  V30 2269 H 220.402 3.23536 1.37905 0
M  V30 2270 H 220.276 2.39483 2.91424 0
M  V30 2271 H 222.663 1.46853 2.55965 0
M  V30 2272 H 222.744 2.34403 1.02415 0
M  V30 2273 H 222.388 4.53762 2.28173 0
M  V30 2274 H 222.318 3.63119 3.81381 0
M  V30 2275 H 224.809 2.88321 2.44293 0
M  V30 2276 H 225.122 6.28101 4.50232 0
M  V30 2277 H 223.467 5.64463 4.05471 0
M  V30 2278 H 226.658 3.62529 2.96126 0
M  V30 2279 H 226.831 5.17457 3.90054 0
M  V30 2280 N 220.237 -1.11381 1.11499 0
M  V30 2281 C 221.483 -1.83403 0.865512 0
M  V30 2282 C 221.816 -1.84459 -0.607329 0
M  V30 2283 O 221.091 -1.29811 -1.44842 0
M  V30 2284 C 221.374 -3.30552 1.42855 0
M  V30 2285 C 221.227 -3.37886 2.96906 0
M  V30 2286 C 222.546 -4.26643 1.08 0
M  V30 2287 H 219.665 -0.665879 0.31587 0
M  V30 2288 H 222.307 -1.30601 1.37998 0
M  V30 2289 H 220.457 -3.75648 0.990985 0
M  V30 2290 H 222.129 -3.01343 3.49271 0
M  V30 2291 H 220.372 -2.78088 3.32941 0
M  V30 2292 H 221.043 -4.41458 3.31389 0
M  V30 2293 H 223.519 -3.89729 1.45775 0
M  V30 2294 H 222.395 -5.27986 1.50072 0
M  V30 2295 H 222.656 -4.42099 -0.00915037 0
M  V30 2296 N 221.715 -0.905404 -1.28997 0
M  V30 2297 C 222.962 -0.534248 -1.95325 0
M  V30 2298 C 223.29 0.920535 -1.71337 0
M  V30 2299 O 222.545 1.66861 -1.02254 0
M  V30 2300 C 222.844 -0.779906 -3.48787 0
M  V30 2301 C 222.51 -2.21293 -3.92861 0
M  V30 2302 C 221.172 -2.60475 -4.04606 0
M  V30 2303 C 223.524 -3.14587 -4.15553 0
M  V30 2304 C 220.852 -3.9212 -4.36416 0
M  V30 2305 C 223.204 -4.45787 -4.48839 0
M  V30 2306 C 221.868 -4.84834 -4.58794 0
M  V30 2307 H 221.138 -0.195495 -0.714747 0
M  V30 2308 H 223.785 -1.14514 -1.53488 0
M  V30 2309 H 222.09 -0.0861365 -3.91705 0
M  V30 2310 H 223.787 -0.472029 -3.98212 0
M  V30 2311 H 220.377 -1.89887 -3.84241 0
M  V30 2312 H 224.561 -2.85528 -4.0594 0
M  V30 2313 H 219.817 -4.22086 -4.42327 0
M  V30 2314 H 223.991 -5.18098 -4.65346 0
M  V30 2315 H 221.618 -5.86877 -4.83197 0
M  V30 2316 N 223.193 1.4272 -0.668489 0
M  V30 2317 C 224.439 2.02443 -0.197076 0
M  V30 2318 C 224.794 1.51882 1.18109 0
M  V30 2319 O 224.087 0.708618 1.78015 0
M  V30 2320 C 224.281 3.57021 -0.164499 0
M  V30 2321 C 224.11 4.22583 -1.53797 0
M  V30 2322 C 222.88 4.58019 -2.13416 0
M  V30 2323 C 225.078 4.50588 -2.47941 0
M  V30 2324 N 223.06 5.08729 -3.4361 0
M  V30 2325 C 224.431 5.02782 -3.62782 0
M  V30 2326 C 226.486 4.32571 -2.46551 0
M  V30 2327 C 225.189 5.38852 -4.76478 0
M  V30 2328 C 227.215 4.69713 -3.59338 0
M  V30 2329 C 226.577 5.22053 -4.72906 0
M  V30 2330 H 222.676 0.773214 -0.116894 0
M  V30 2331 H 225.26 1.73673 -0.880108 0
M  V30 2332 H 223.431 3.85323 0.487925 0
M  V30 2333 H 225.163 4.03439 0.319207 0
M  V30 2334 H 221.918 4.43566 -1.65969 0
M  V30 2335 H 222.342 5.38521 -4.10273 0
M  V30 2336 H 226.984 3.91365 -1.59978 0
M  V30 2337 H 224.702 5.78993 -5.63731 0
M  V30 2338 H 228.288 4.57454 -3.59482 0
M  V30 2339 H 227.168 5.50258 -5.58736 0
M  V30 2340 N 224.671 0.411399 1.52136 0
M  V30 2341 C 225.634 -0.401089 2.25663 0
M  V30 2342 C 226.634 -0.971732 1.28117 0
M  V30 2343 O 227.824 -0.850254 1.52041 0
M  V30 2344 C 224.956 -1.56483 3.02863 0
M  V30 2345 H 226.149 0.24295 2.98914 0
M  V30 2346 H 223.702 0.163968 1.55438 0
M  V30 2347 H 224.437 -2.24567 2.33967 0
M  V30 2348 H 224.222 -1.16211 3.74483 0
M  V30 2349 H 225.712 -2.13951 3.58629 0
M  V30 2350 N 226.149 -1.5696 0.141893 0
M  V30 2351 C 227.079 -2.19516 -0.795936 0
M  V30 2352 C 228.06 -1.14187 -1.26077 0
M  V30 2353 O 229.245 -1.42511 -1.31925 0
M  V30 2354 C 226.375 -2.81272 -2.03723 0
M  V30 2355 C 225.329 -3.92384 -1.70936 0
M  V30 2356 C 224.655 -4.41052 -3.02287 0
M  V30 2357 C 225.955 -5.13403 -0.959954 0
M  V30 2358 H 227.649 -2.98138 -0.274596 0
M  V30 2359 H 225.195 -1.43406 -0.130636 0
M  V30 2360 H 227.148 -3.237 -2.69808 0
M  V30 2361 H 225.872 -1.99973 -2.58221 0
M  V30 2362 H 224.531 -3.50566 -1.07232 0
M  V30 2363 H 224.179 -3.56582 -3.54765 0
M  V30 2364 H 223.879 -5.15993 -2.81114 0
M  V30 2365 H 225.403 -4.86146 -3.69451 0
M  V30 2366 H 226.817 -5.52706 -1.52279 0
M  V30 2367 H 225.214 -5.94073 -0.848357 0
M  V30 2368 H 226.284 -4.84875 0.0492434 0
M  V30 2369 N 227.627 0.131896 -1.57047 0
M  V30 2370 C 228.56 1.19236 -1.94571 0
M  V30 2371 C 229.538 1.40782 -0.813576 0
M  V30 2372 O 230.722 1.55148 -1.07058 0
M  V30 2373 C 227.849 2.54858 -2.23081 0
M  V30 2374 C 226.895 2.49817 -3.45679 0
M  V30 2375 S 227.728 1.95036 -4.98719 0
M  V30 2376 C 228.884 3.32357 -5.30367 0
M  V30 2377 H 229.117 0.872297 -2.84215 0
M  V30 2378 H 226.65 0.338134 -1.50652 0
M  V30 2379 H 228.608 3.32898 -2.40185 0
M  V30 2380 H 227.269 2.84047 -1.34074 0
M  V30 2381 H 226.462 3.49688 -3.62952 0
M  V30 2382 H 226.064 1.79892 -3.27895 0
M  V30 2383 H 228.356 4.28525 -5.2476 0
M  V30 2384 H 229.299 3.19923 -6.31708 0
M  V30 2385 H 229.707 3.3019 -4.57859 0
M  V30 2386 N 229.106 1.52395 0.401703 0
M  V30 2387 C 230.038 1.72505 1.50912 0
M  V30 2388 C 231.051 0.605468 1.51122 0
M  V30 2389 O 232.24 0.880828 1.55254 0
M  V30 2390 C 229.34 1.75711 2.89791 0
M  V30 2391 C 228.513 3.04824 3.1369 0
M  V30 2392 C 227.572 2.99743 4.32482 0
M  V30 2393 O 226.598 3.73635 4.29402 0
M  V30 2394 N 227.8 2.18047 5.37992 0
M  V30 2395 H 230.565 2.68049 1.34052 0
M  V30 2396 H 228.126 1.50724 0.591084 0
M  V30 2397 H 230.118 1.69834 3.6734 0
M  V30 2398 H 228.688 0.876092 3.00072 0
M  V30 2399 H 227.908 3.2429 2.24119 0
M  V30 2400 H 229.196 3.90221 3.26504 0
M  V30 2401 H 228.594 1.57456 5.43345 0
M  V30 2402 H 227.151 2.18021 6.14256 0
M  V30 2403 N 230.584 -0.659388 1.43143 0
M  V30 2404 C 231.547 -1.75432 1.47501 0
M  V30 2405 C 232.547 -1.56707 0.360512 0
M  V30 2406 O 233.737 -1.62717 0.622002 0
M  V30 2407 C 230.869 -3.14239 1.32162 0
M  V30 2408 H 232.062 -1.7295 2.45006 0
M  V30 2409 H 229.615 -0.870469 1.29817 0
M  V30 2410 H 230.35 -3.22336 0.356401 0
M  V30 2411 H 230.135 -3.29235 2.12948 0
M  V30 2412 H 231.625 -3.94094 1.3813 0
M  V30 2413 N 232.062 -1.29571 -0.897171 0
M  V30 2414 C 233.31 -1.17456 -1.64464 0
M  V30 2415 C 233.631 0.273698 -1.9307 0
M  V30 2416 O 232.901 1.18684 -1.55855 0
M  V30 2417 H 231.481 -0.431706 -0.609622 0
M  V30 2418 H 234.143 -1.62531 -1.07562 0
M  V30 2419 H 233.239 -1.72648 -2.59998 0
M  V30 2420 N 233.54 1.10788 -1.12088 0
M  V30 2421 C 234.77 1.86191 -0.895351 0
M  V30 2422 C 235.178 1.80763 0.558702 0
M  V30 2423 O 234.521 1.19188 1.39785 0
M  V30 2424 C 234.583 3.35659 -1.28737 0
M  V30 2425 C 234.247 3.64849 -2.75198 0
M  V30 2426 C 235.244 3.61757 -3.734 0
M  V30 2427 C 232.929 3.93641 -3.12013 0
M  V30 2428 C 234.923 3.87045 -5.06434 0
M  V30 2429 C 232.61 4.18585 -4.4523 0
M  V30 2430 C 233.608 4.15277 -5.42249 0
M  V30 2431 O 233.296 4.3959 -6.73065 0
M  V30 2432 H 233.028 0.595425 -0.32007 0
M  V30 2433 H 235.582 1.40992 -1.49367 0
M  V30 2434 H 233.812 3.81497 -0.63224 0
M  V30 2435 H 235.501 3.92441 -1.03656 0
M  V30 2436 H 236.267 3.39557 -3.46303 0
M  V30 2437 H 232.146 3.95348 -2.37109 0
M  V30 2438 H 235.69 3.84378 -5.82151 0
M  V30 2439 H 231.587 4.40264 -4.72057 0
M  V30 2440 H 232.355 4.57123 -6.78956 0
M  V30 2441 N 235.018 0.912232 1.28515 0
M  V30 2442 C 235.928 0.404506 2.31086 0
M  V30 2443 C 236.944 -0.50707 1.66448 0
M  V30 2444 O 238.12 -0.393624 1.97516 0
M  V30 2445 C 235.185 -0.348572 3.44943 0
M  V30 2446 C 234.246 0.59604 4.25142 0
M  V30 2447 C 233.479 -0.121194 5.33562 0
M  V30 2448 O 233.702 -1.34317 5.5436 0
M  V30 2449 O 232.636 0.542716 5.99448 0
M  V30 2450 H 236.462 1.25579 2.76521 0
M  V30 2451 H 234.047 0.676998 1.33181 0
M  V30 2452 H 235.929 -0.77395 4.14232 0
M  V30 2453 H 234.604 -1.17571 3.01594 0
M  V30 2454 H 233.511 1.07079 3.58448 0
M  V30 2455 H 234.844 1.38995 4.72167 0
M  V30 2456 N 236.496 -1.42363 0.676048 0
M  V30 2457 C 237.459 -2.29199 0.00766941 0
M  V30 2458 C 238.459 -1.43389 -0.727745 0
M  V30 2459 O 239.649 -1.64764 -0.56556 0
M  V30 2460 C 236.781 -3.2591 -0.999785 0
M  V30 2461 H 237.974 -2.89794 0.771988 0
M  V30 2462 H 235.527 -1.50024 0.438468 0
M  V30 2463 H 236.262 -2.70256 -1.79255 0
M  V30 2464 H 236.047 -3.89202 -0.475829 0
M  V30 2465 H 237.537 -3.91028 -1.46583 0
M  V30 2466 N 237.974 -0.419461 -1.51915 0
M  V30 2467 C 238.937 0.389116 -2.25873 0
M  V30 2468 C 239.937 0.964924 -1.28631 0
M  V30 2469 O 241.127 0.842179 -1.52489 0
M  V30 2470 C 238.259 1.54874 -3.03689 0
M  V30 2471 H 239.452 -0.258799 -2.98781 0
M  V30 2472 H 237.005 -0.172209 -1.55348 0
M  V30 2473 H 237.74 2.23323 -2.35154 0
M  V30 2474 H 237.525 1.14223 -3.75094 0
M  V30 2475 H 239.015 2.12046 -3.59759 0
M  V30 2476 N 239.452 1.56882 -0.150215 0
M  V30 2477 C 240.399 2.16922 0.788244 0
M  V30 2478 C 241.369 1.10303 1.24187 0
M  V30 2479 O 242.554 1.38359 1.31383 0
M  V30 2480 C 239.694 2.79754 2.02068 0
M  V30 2481 C 238.807 4.00775 1.61257 0
M  V30 2482 C 237.942 4.51595 2.79705 0
M  V30 2483 C 236.981 5.65074 2.35282 0
M  V30 2484 N 236.118 6.10499 3.4675 0
M  V30 2485 H 240.958 2.96779 0.269444 0
M  V30 2486 H 238.495 1.46599 0.12128 0
M  V30 2487 H 240.453 3.14329 2.74323 0
M  V30 2488 H 239.083 2.02536 2.51354 0
M  V30 2489 H 238.135 3.72158 0.787553 0
M  V30 2490 H 239.447 4.82978 1.24633 0
M  V30 2491 H 238.601 4.88242 3.60145 0
M  V30 2492 H 237.34 3.68406 3.19576 0
M  V30 2493 H 236.345 5.28 1.53283 0
M  V30 2494 H 237.57 6.50052 1.96493 0
M  V30 2495 H 235.516 5.30243 3.86236 0
M  V30 2496 H 235.433 6.87637 3.14152 0
M  V30 2497 H 236.701 6.51791 4.27537 0
M  V30 2498 N 240.93 -0.123565 1.57115 0
M  V30 2499 C 242.207 -0.862196 1.75572 0
M  V30 2500 C 242.587 -1.98279 0.724475 0
M  V30 2501 O 241.935 -2.27102 -0.252407 0
M  V30 2502 C 242.145 -1.38309 3.20424 0
M  V30 2503 C 243.493 -1.83724 3.82793 0
M  V30 2504 O 244.517 -1.47999 3.23998 0
M  V30 2505 O 243.376 -2.49685 4.86127 0
M  V30 2506 H 240.47 -0.409113 0.718718 0
M  V30 2507 H 243.016 -0.107661 1.69358 0
M  V30 2508 H 241.788 -0.578889 3.86994 0
M  V30 2509 H 241.411 -2.20046 3.31158 0
M  V30 2510 N 242.408 -1.52605 -0.393616 0
M  V30 2511 C 243.656 -1.67093 -1.13685 0
M  V30 2512 C 243.977 -0.411011 -1.90619 0
M  V30 2513 O 243.247 0.574491 -1.87287 0
M  V30 2514 H 241.827 -0.615923 -0.422668 0
M  V30 2515 H 244.489 -1.89704 -0.447039 0
M  V30 2516 H 243.585 -2.51922 -1.84232 0
M  V30 2517 N 243.887 0.651787 -1.4349 0
M  V30 2518 C 244.82 1.77668 -1.43211 0
M  V30 2519 C 245.798 1.59931 -0.29338 0
M  V30 2520 O 246.982 1.82095 -0.487191 0
M  V30 2521 C 244.109 3.14986 -1.24505 0
M  V30 2522 C 243.155 3.51421 -2.41673 0
M  V30 2523 S 243.988 3.51234 -4.04222 0
M  V30 2524 C 245.144 4.91206 -3.87902 0
M  V30 2525 H 245.377 1.77635 -2.38397 0
M  V30 2526 H 242.91 0.824558 -1.30539 0
M  V30 2527 H 244.868 3.94237 -1.144 0
M  V30 2528 H 243.529 3.1258 -0.308651 0
M  V30 2529 H 242.722 4.51291 -2.24393 0
M  V30 2530 H 242.324 2.79585 -2.48411 0
M  V30 2531 H 244.616 5.79902 -3.50315 0
M  V30 2532 H 245.559 5.13537 -4.8753 0
M  V30 2533 H 245.967 4.64808 -3.20334 0
M  V30 2534 N 245.365 1.30045 0.890287 0
M  V30 2535 C 246.776 1.16738 1.45702 0
M  V30 2536 C 247.127 -0.233939 1.948 0
M  V30 2537 O 246.252 -1.13021 1.84541 0
M  V30 2538 C 246.847 2.11313 2.64825 0
M  V30 2539 C 245.406 2.02001 3.17604 0
M  V30 2540 C 244.553 2.01699 1.90296 0
M  V30 2541 H 247.504 1.42392 0.700726 0
M  V30 2542 H 247.525 1.69086 3.40867 0
M  V30 2543 H 247.037 3.13294 2.2906 0
M  V30 2544 H 245.138 1.03142 3.5804 0
M  V30 2545 H 245.251 2.90128 3.81264 0
M  V30 2546 H 243.615 1.46427 2.08402 0
M  V30 2547 H 244.398 3.05402 1.56795 0
M  V30 2548 N 246.843 -1.10192 1.12674 0
M  V30 2549 C 248.259 -1.34235 0.863317 0
M  V30 2550 C 248.459 -1.95062 -0.505277 0
M  V30 2551 O 247.515 -2.19192 -1.25345 0
M  V30 2552 C 248.828 -2.2616 1.98172 0
M  V30 2553 C 250.376 -2.3969 2.0129 0
M  V30 2554 C 250.851 -3.34946 3.1237 0
M  V30 2555 N 252.342 -3.42515 3.11829 0
M  V30 2556 C 253.077 -4.16199 3.94419 0
M  V30 2557 N 252.573 -4.92747 4.87004 0
M  V30 2558 N 254.366 -4.11843 3.82547 0
M  V30 2559 H 246.517 -0.690798 2.00853 0
M  V30 2560 H 248.78 -0.366774 0.874174 0
M  V30 2561 H 248.486 -1.8868 2.96804 0
M  V30 2562 H 248.36 -3.26488 1.88906 0
M  V30 2563 H 250.747 -2.76438 1.03276 0
M  V30 2564 H 250.828 -1.39169 2.14629 0
M  V30 2565 H 250.472 -2.98923 4.10619 0
M  V30 2566 H 250.402 -4.35353 2.96269 0
M  V30 2567 H 252.893 -2.87926 2.44759 0
M  V30 2568 H 253.206 -5.46376 5.46528 0
M  V30 2569 H 251.551 -4.91862 4.91016 0
M  V30 2570 H 254.742 -3.51136 3.0955 0
M  V30 2571 H 254.915 -4.69007 4.47142 0
M  V30 2572 N 248.321 -0.919034 -1.28029 0
M  V30 2573 C 249.271 -0.382574 -2.24767 0
M  V30 2574 C 250.255 0.508286 -1.52661 0
M  V30 2575 O 251.447 0.347145 -1.73562 0
M  V30 2576 C 248.576 0.371432 -3.41285 0
M  V30 2577 C 247.662 -0.535449 -4.20706 0
M  V30 2578 N 248.053 -1.65141 -4.78082 0
M  V30 2579 C 246.351 -0.336824 -4.44726 0
M  V30 2580 C 247.052 -2.21475 -5.37888 0
M  V30 2581 N 246.028 -1.50537 -5.22341 0
M  V30 2582 H 249.83 -1.23477 -2.66703 0
M  V30 2583 H 247.344 -0.772299 -1.42861 0
M  V30 2584 H 249.341 0.772638 -4.09678 0
M  V30 2585 H 248.001 1.22066 -3.00882 0
M  V30 2586 H 249.012 -2.03392 -4.7629 0
M  V30 2587 H 245.689 0.47246 -4.14818 0
M  V30 2588 H 247.079 -3.15379 -5.93284 0
M  V30 2589 N 249.799 1.42003 -0.683588 0
M  V30 2590 C 250.731 2.29183 0.0283068 0
M  V30 2591 C 251.744 1.4415 0.756611 0
M  V30 2592 O 252.933 1.67779 0.609306 0
M  V30 2593 C 250.033 3.21765 1.06398 0
M  V30 2594 C 249.206 4.35496 0.407723 0
M  V30 2595 C 248.265 5.08737 1.34437 0
M  V30 2596 O 247.291 5.62948 0.841318 0
M  V30 2597 N 248.493 5.15075 2.67728 0
M  V30 2598 H 251.258 2.9092 -0.720105 0
M  V30 2599 H 248.819 1.53025 -0.528682 0
M  V30 2600 H 250.811 3.6763 1.69204 0
M  V30 2601 H 249.381 2.61418 1.71404 0
M  V30 2602 H 248.601 3.92165 -0.400012 0
M  V30 2603 H 249.889 5.08776 -0.0490956 0
M  V30 2604 H 249.287 4.72457 3.11129 0
M  V30 2605 H 247.844 5.64556 3.2576 0
M  V30 2606 N 251.277 0.427512 1.51691 0
M  V30 2607 C 252.526 -0.143679 2.01188 0
M  V30 2608 C 252.839 -1.44642 1.31674 0
M  V30 2609 O 254.045 -2.09997 1.72086 0
M  V30 2610 C 252.501 -0.306602 3.58592 0
M  V30 2611 C 252.109 0.985125 4.37035 0
M  V30 2612 C 253.853 -0.832091 4.16265 0
M  V30 2613 C 251.76 0.788382 5.86122 0
M  V30 2614 H 250.69 -0.0574701 0.751807 0
M  V30 2615 H 253.341 0.555772 1.74881 0
M  V30 2616 H 251.723 -1.06882 3.81303 0
M  V30 2617 H 252.897 1.75492 4.26074 0
M  V30 2618 H 251.212 1.4384 3.90767 0
M  V30 2619 H 253.809 -0.995617 5.25349 0
M  V30 2620 H 254.152 -1.81186 3.74803 0
M  V30 2621 H 254.685 -0.128444 3.97593 0
M  V30 2622 H 251.424 1.74025 6.31978 0
M  V30 2623 H 250.944 0.0582143 5.99772 0
M  V30 2624 H 252.623 0.437722 6.45518 0
M  V30 2625 N 252.755 -1.56801 0.158532 0
M  V30 2626 C 254.001 -1.96781 -0.490405 0
M  V30 2627 C 254.334 -1.04397 -1.63753 0
M  V30 2628 O 253.609 -0.0885805 -1.94298 0
M  V30 2629 C 253.892 -3.4635 -0.985594 0
M  V30 2630 C 253.745 -4.49512 0.160824 0
M  V30 2631 C 255.064 -3.98697 -1.86355 0
M  V30 2632 H 252.183 -0.715482 -0.176788 0
M  V30 2633 H 254.825 -1.88451 0.242088 0
M  V30 2634 H 252.975 -3.53579 -1.60978 0
M  V30 2635 H 254.647 -4.54353 0.797537 0
M  V30 2636 H 252.89 -4.26013 0.818256 0
M  V30 2637 H 253.561 -5.51531 -0.227569 0
M  V30 2638 H 256.037 -3.94019 -1.33746 0
M  V30 2639 H 254.913 -5.03792 -2.17909 0
M  V30 2640 H 255.174 -3.41744 -2.8047 0
M  V30 2641 N 254.233 0.115231 -1.57178 0
M  V30 2642 C 255.51 0.852873 -1.76027 0
M  V30 2643 C 255.89 1.97892 -0.73498 0
M  V30 2644 O 255.238 2.27232 0.24036 0
M  V30 2645 C 255.448 1.36608 -3.21153 0
M  V30 2646 C 256.796 1.81692 -3.83762 0
M  V30 2647 O 257.82 1.46278 -3.24779 0
M  V30 2648 O 256.679 2.47104 -4.87444 0
M  V30 2649 H 253.773 0.405296 -0.720877 0
M  V30 2650 H 256.319 0.0986785 -1.69413 0
M  V30 2651 H 255.091 0.558357 -3.87296 0
M  V30 2652 H 254.714 2.18287 -3.3232 0
M  V30 2653 N 255.711 1.52812 0.385517 0
M  V30 2654 C 256.674 1.77188 1.45386 0
M  V30 2655 C 257.674 0.641953 1.4743 0
M  V30 2656 O 258.864 0.910033 1.4854 0
M  V30 2657 C 255.996 1.87582 2.8465 0
M  V30 2658 H 257.189 2.72583 1.25054 0
M  V30 2659 H 254.742 1.43586 0.617467 0
M  V30 2660 H 255.477 0.941849 3.10322 0
M  V30 2661 H 255.262 2.69748 2.84567 0
M  V30 2662 H 256.752 2.08102 3.62054 0
M  V30 2663 N 257.189 -0.644168 1.43834 0
M  V30 2664 C 258.438 -1.39985 1.45214 0
M  V30 2665 C 258.751 -1.95421 0.0835494 0
M  V30 2666 O 259.957 -2.71488 -0.0251748 0
M  V30 2667 C 258.413 -2.53384 2.55587 0
M  V30 2668 C 258.021 -2.04517 3.98594 0
M  V30 2669 C 259.765 -3.30685 2.66172 0
M  V30 2670 C 257.672 -3.1518 5.00416 0
M  V30 2671 H 256.602 -0.526005 0.540218 0
M  V30 2672 H 259.253 -0.694367 1.69855 0
M  V30 2673 H 257.635 -3.26446 2.24163 0
M  V30 2674 H 258.809 -1.38405 4.39523 0
M  V30 2675 H 257.124 -1.40068 3.92135 0
M  V30 2676 H 259.721 -4.13158 3.39418 0
M  V30 2677 H 260.064 -3.79312 1.71546 0
M  V30 2678 H 260.597 -2.64708 2.96942 0
M  V30 2679 H 257.336 -2.71511 5.96625 0
M  V30 2680 H 256.856 -3.79974 4.64091 0
M  V30 2681 H 258.535 -3.80166 5.23529 0
M  V30 2682 N 258.668 -1.30515 -0.883378 0
M  V30 2683 C 259.601 -1.11359 -1.99184 0
M  V30 2684 C 260.579 -0.0207858 -1.62587 0
M  V30 2685 O 261.763 -0.174646 -1.87689 0
M  V30 2686 C 258.89 -0.69871 -3.31415 0
M  V30 2687 C 257.936 -1.79261 -3.86998 0
M  V30 2688 S 258.769 -3.39536 -4.14096 0
M  V30 2689 C 259.925 -2.99954 -5.49344 0
M  V30 2690 H 260.158 -2.052 -2.15128 0
M  V30 2691 H 257.691 -1.14847 -1.03196 0
M  V30 2692 H 259.649 -0.466075 -4.07846 0
M  V30 2693 H 258.31 0.220368 -3.13326 0
M  V30 2694 H 257.503 -1.45464 -4.82552 0
M  V30 2695 H 257.105 -1.97961 -3.17313 0
M  V30 2696 H 259.397 -2.48013 -6.30473 0
M  V30 2697 H 260.34 -3.9442 -5.8808 0
M  V30 2698 H 260.748 -2.37775 -5.1198 0
M  V30 2699 N 260.146 1.09593 -1.13257 0
M  V30 2700 C 261.374 1.855 -0.916378 0
M  V30 2701 C 261.789 1.81069 0.534738 0
M  V30 2702 O 261.146 1.20562 1.37007 0
M  V30 2703 C 261.197 3.33546 -1.39388 0
M  V30 2704 O 260.918 3.37927 -2.78813 0
M  V30 2705 C 262.419 4.26299 -1.21588 0
M  V30 2706 H 259.639 0.585991 -0.326887 0
M  V30 2707 H 262.183 1.38488 -1.5047 0
M  V30 2708 H 260.338 3.77992 -0.848597 0
M  V30 2709 H 260.752 4.30254 -2.9997 0
M  V30 2710 H 262.226 5.28341 -1.59876 0
M  V30 2711 H 262.703 4.38918 -0.157376 0
M  V30 2712 H 263.309 3.87668 -1.7491 0
M  V30 2713 N 261.624 0.925811 1.2754 0
M  V30 2714 C 262.849 0.580924 1.99098 0
M  V30 2715 C 263.274 -0.833555 1.68622 0
M  V30 2716 O 262.632 -1.55903 0.925422 0
M  V30 2717 C 262.68 0.811186 3.51358 0
M  V30 2718 O 261.784 -0.124129 4.12213 0
M  V30 2719 H 261.125 0.223873 0.625122 0
M  V30 2720 H 263.655 1.24455 1.62395 0
M  V30 2721 H 263.665 0.72601 4.01489 0
M  V30 2722 H 262.34 1.84227 3.72872 0
M  V30 2723 H 260.917 0.0108006 3.72898 0
M  V30 2724 N 263.102 -1.41638 0.69111 0
M  V30 2725 C 264.032 -2.3347 0.037248 0
M  V30 2726 C 265.013 -1.51575 -0.771947 0
M  V30 2727 O 266.198 -1.80126 -0.72582 0
M  V30 2728 C 263.328 -3.35354 -0.903064 0
M  V30 2729 C 262.282 -4.27526 -0.201288 0
M  V30 2730 C 261.608 -5.19747 -1.25565 0
M  V30 2731 C 262.908 -5.13959 0.929689 0
M  V30 2732 H 264.602 -2.88397 0.804227 0
M  V30 2733 H 262.148 -1.38669 0.388189 0
M  V30 2734 H 264.101 -3.98519 -1.36969 0
M  V30 2735 H 262.825 -2.78767 -1.70166 0
M  V30 2736 H 261.484 -3.65779 0.245265 0
M  V30 2737 H 261.132 -4.59479 -2.04666 0
M  V30 2738 H 260.832 -5.8225 -0.791128 0
M  V30 2739 H 262.356 -5.85789 -1.72288 0
M  V30 2740 H 263.77 -5.70718 0.543546 0
M  V30 2741 H 262.167 -5.85379 1.32103 0
M  V30 2742 H 263.237 -4.51389 1.77133 0
M  V30 2743 N 264.58 -0.43555 -1.51462 0
M  V30 2744 C 265.808 0.130242 -2.0649 0
M  V30 2745 C 266.223 1.36614 -1.30315 0
M  V30 2746 O 265.58 1.78869 -0.362223 0
M  V30 2747 C 265.631 0.454253 -3.58635 0
M  V30 2748 O 265.352 -0.73259 -4.31931 0
M  V30 2749 C 266.853 1.07091 -4.3017 0
M  V30 2750 H 264.073 0.00871669 -0.670943 0
M  V30 2751 H 266.617 -0.614117 -1.95061 0
M  V30 2752 H 264.772 1.14851 -3.69984 0
M  V30 2753 H 265.186 -0.455787 -5.22516 0
M  V30 2754 H 266.66 1.24764 -5.37716 0
M  V30 2755 H 267.137 2.05144 -3.88346 0
M  V30 2756 H 267.743 0.416089 -4.2326 0
M  V30 2757 N 266.058 1.56714 -0.166846 0
M  V30 2758 C 267.283 2.01557 0.488833 0
M  V30 2759 C 267.708 1.0463 1.56314 0
M  V30 2760 O 267.066 0.0251304 1.81283 0
M  V30 2761 C 267.114 3.4503 1.04818 0
M  V30 2762 O 266.218 3.51163 2.16236 0
M  V30 2763 H 265.559 0.653516 0.117526 0
M  V30 2764 H 268.089 2.02818 -0.269421 0
M  V30 2765 H 268.099 3.84243 1.37191 0
M  V30 2766 H 266.774 4.15077 0.261572 0
M  V30 2767 H 265.351 3.23807 1.84942 0
M  V30 2768 N 267.536 -0.106894 1.57237 0
M  V30 2769 C 268.784 -0.810921 1.85117 0
M  V30 2770 C 269.105 -1.7984 0.753827 0
M  V30 2771 O 268.375 -1.94649 -0.221056 0
M  V30 2772 H 266.955 -0.302466 0.683025 0
M  V30 2773 H 269.617 -0.0913324 1.94686 0
M  V30 2774 H 268.713 -1.34875 2.81452 0
M  V30 2775 N 269.014 -1.53014 -0.377408 0
M  V30 2776 C 270.263 -1.67845 -1.11853 0
M  V30 2777 C 270.576 -0.430625 -1.90801 0
M  V30 2778 O 271.782 -0.459261 -2.67587 0
M  V30 2779 C 270.238 -2.96668 -2.03756 0
M  V30 2780 C 269.846 -4.28671 -1.30175 0
M  V30 2781 C 271.59 -3.20865 -2.77932 0
M  V30 2782 C 269.497 -5.48591 -2.20911 0
M  V30 2783 H 268.427 -0.625343 -0.421263 0
M  V30 2784 H 271.078 -1.79514 -0.380409 0
M  V30 2785 H 269.46 -2.78773 -2.8125 0
M  V30 2786 H 270.634 -4.57157 -0.578259 0
M  V30 2787 H 268.949 -4.10825 -0.679108 0
M  V30 2788 H 271.546 -4.07642 -3.46024 0
M  V30 2789 H 271.889 -2.36424 -3.4265 0
M  V30 2790 H 272.422 -3.39379 -2.07525 0
M  V30 2791 H 269.161 -6.35474 -1.6079 0
M  V30 2792 H 268.681 -5.244 -2.91144 0
M  V30 2793 H 270.36 -5.8292 -2.80736 0
M  V30 2794 N 270.492 0.636531 -1.44174 0
M  V30 2795 C 271.741 1.39213 -1.45954 0
M  V30 2796 C 272.054 1.95374 -0.0939119 0
M  V30 2797 O 273.26 2.71498 0.0107767 0
M  V30 2798 C 271.716 2.52025 -2.56927 0
M  V30 2799 C 271.324 2.024 -3.99673 0
M  V30 2800 C 273.068 3.29269 -2.67922 0
M  V30 2801 C 270.975 3.12521 -5.0208 0
M  V30 2802 H 269.905 0.523132 -0.542999 0
M  V30 2803 H 272.556 0.685349 -1.70221 0
M  V30 2804 H 270.938 3.25253 -2.25891 0
M  V30 2805 H 272.112 1.36073 -4.40251 0
M  V30 2806 H 270.427 1.37987 -3.92872 0
M  V30 2807 H 273.024 4.11352 -3.41605 0
M  V30 2808 H 273.367 3.78397 -1.73555 0
M  V30 2809 H 273.9 2.63129 -2.98342 0
M  V30 2810 H 270.639 2.68343 -5.98057 0
M  V30 2811 H 270.159 3.77507 -4.66099 0
M  V30 2812 H 271.838 3.77385 -5.25538 0
M  V30 2813 N 271.97 1.30982 0.876444 0
M  V30 2814 C 273.198 1.23242 1.6619 0
M  V30 2815 C 273.613 -0.203345 1.87702 0
M  V30 2816 O 272.97 -1.13317 1.43057 0
M  V30 2817 C 273.021 1.96623 3.03351 0
M  V30 2818 O 272.742 3.34594 2.82804 0
M  V30 2819 C 274.243 1.95644 3.97792 0
M  V30 2820 H 271.463 0.426126 0.518322 0
M  V30 2821 H 274.007 1.7275 1.09442 0
M  V30 2822 H 272.162 1.50892 3.56806 0
M  V30 2823 H 272.576 3.71873 3.69879 0
M  V30 2824 H 274.05 2.51511 4.91372 0
M  V30 2825 H 274.527 0.937395 4.2908 0
M  V30 2826 H 275.133 2.41225 3.50272 0
M  V30 2827 N 273.449 -1.08991 1.13837 0
M  V30 2828 C 274.379 -2.17771 0.842507 0
M  V30 2829 C 275.36 -1.6892 -0.20001 0
M  V30 2830 O 276.545 -1.94113 -0.0579731 0
M  V30 2831 C 273.675 -3.4589 0.312644 0
M  V30 2832 C 272.629 -4.08099 1.28992 0
M  V30 2833 C 271.955 -5.31098 0.619623 0
M  V30 2834 C 273.255 -4.50077 2.65005 0
M  V30 2835 H 274.949 -2.42777 1.75213 0
M  V30 2836 H 272.495 -1.16682 0.843875 0
M  V30 2837 H 274.448 -4.21297 0.0933043 0
M  V30 2838 H 273.172 -3.20419 -0.632382 0
M  V30 2839 H 271.831 -3.34717 1.49533 0
M  V30 2840 H 271.479 -5.0191 -0.33102 0
M  V30 2841 H 271.179 -5.73674 1.27167 0
M  V30 2842 H 272.703 -6.09224 0.409669 0
M  V30 2843 H 274.117 -5.16688 2.48407 0
M  V30 2844 H 272.514 -5.03553 3.26427 0
M  V30 2845 H 273.584 -3.62257 3.22332 0
M  V30 2846 N 274.927 -0.932562 -1.27047 0
M  V30 2847 C 276.338 -0.619451 -1.76124 0
M  V30 2848 C 276.689 0.865397 -1.76083 0
M  V30 2849 O 275.814 1.67722 -1.36742 0
M  V30 2850 C 276.409 -1.11771 -3.19832 0
M  V30 2851 C 274.968 -0.855174 -3.66557 0
M  V30 2852 C 274.115 -1.27362 -2.46321 0
M  V30 2853 H 277.066 -1.11181 -1.13245 0
M  V30 2854 H 277.087 -0.46759 -3.77616 0
M  V30 2855 H 276.599 -2.19842 -3.1983 0
M  V30 2856 H 274.7 0.211524 -3.71999 0
M  V30 2857 H 274.813 -1.47613 -4.55793 0
M  V30 2858 H 273.177 -0.692119 -2.45116 0
M  V30 2859 H 273.96 -2.36307 -2.49025 0
M  V30 2860 N 276.405 1.4127 -0.698611 0
M  V30 2861 C 277.821 1.55241 -0.370462 0
M  V30 2862 C 278.021 1.67351 1.12231 0
M  V30 2863 O 277.077 1.65363 1.90818 0
M  V30 2864 C 278.39 2.78997 -1.12165 0
M  V30 2865 C 279.938 2.92797 -1.1063 0
M  V30 2866 C 280.413 4.19445 -1.8393 0
M  V30 2867 N 281.904 4.26409 -1.80914 0
M  V30 2868 C 282.639 5.23271 -2.34467 0
M  V30 2869 N 282.135 6.26145 -2.96504 0
M  V30 2870 N 283.928 5.15232 -2.24706 0
M  V30 2871 H 276.079 1.31654 -1.66676 0
M  V30 2872 H 278.342 0.635393 -0.703548 0
M  V30 2873 H 278.048 2.76268 -2.17644 0
M  V30 2874 H 277.922 3.70606 -0.702209 0
M  V30 2875 H 280.309 2.95039 -0.0597713 0
M  V30 2876 H 280.39 2.02353 -1.56483 0
M  V30 2877 H 280.034 4.17964 -2.88563 0
M  V30 2878 H 279.964 5.08866 -1.35509 0
M  V30 2879 H 282.455 3.527 -1.35687 0
M  V30 2880 H 282.768 6.96451 -3.34927 0
M  V30 2881 H 281.113 6.26638 -3.00583 0
M  V30 2882 H 284.304 4.33789 -1.7591 0
M  V30 2883 H 284.477 5.90552 -2.66745 0
M  V30 2884 N 277.883 0.443576 1.51229 0
M  V30 2885 C 279.111 -0.11929 2.06556 0
M  V30 2886 C 279.526 -1.35921 1.31038 0
M  V30 2887 O 278.883 -1.78675 0.371704 0
M  V30 2888 C 278.934 -0.435228 3.5887 0
M  V30 2889 O 278.655 0.755486 4.31537 0
M  V30 2890 C 280.156 -1.04808 4.30732 0
M  V30 2891 H 277.376 -0.0051584 0.67098 0
M  V30 2892 H 279.92 0.624453 1.94733 0
M  V30 2893 H 278.075 -1.12887 3.70588 0
M  V30 2894 H 278.489 0.483491 5.22267 0
M  V30 2895 H 279.963 -1.2191 5.3837 0
M  V30 2896 H 280.44 -2.03081 3.89429 0
M  V30 2897 H 281.046 -0.393637 4.23474 0
M  V30 2898 O 279.4 -1.58373 0.316273 0
M  V30 2899 H 280.091 -1.92143 -0.24513 0
M  V30 END ATOM
M  V30 BEGIN BOND
M  V30 END BOND
M  V30 END CTAB
M  END
$$$$
