drugbank_target|Q460N3 Poly [ADP-ribose] polymerase 15 (DB08348)
 OpenBabel12092120503D

  0  0  0     0  0            999 V3000
M  V30 BEGIN CTAB
M  V30 COUNTS 10470 10580 0 0 0
M  V30 BEGIN ATOM
M  V30 1 H -0.908 1.98254 -0.117106 0
M  V30 2 N 0 1.576 0 0
M  V30 3 C 0.933 2.03868 1.02534 0
M  V30 4 C 1.911 0.928543 1.3348 0
M  V30 5 O 3.095 1.19667 1.45644 0
M  V30 6 C 0.222 2.43627 2.35294 0
M  V30 7 C -0.732 3.65373 2.2001 0
M  V30 8 S 0.101 5.13292 1.52614 0
M  V30 9 C 1.257 5.56322 2.86805 0
M  V30 10 H 1.49 2.90518 0.631377 0
M  V30 11 H -0.977 1.52953 0.210867 0
M  V30 12 H 0.981 2.67203 3.11629 0
M  V30 13 H -0.358 1.57376 2.7183 0
M  V30 14 H -1.165 3.90944 3.18086 0
M  V30 15 H -1.563 3.418 1.51819 0
M  V30 16 H 0.729 5.58782 3.83104 0
M  V30 17 H 1.672 6.56266 2.65933 0
M  V30 18 H 2.08 4.83886 2.90714 0
M  V30 19 N 1.4781 -0.272755 1.55222 0
M  V30 20 C 2.4411 -1.32041 1.87344 0
M  V30 21 C 3.4411 -1.42342 0.74803 0
M  V30 22 O 4.6311 -1.41488 1.0162 0
M  V30 23 C 1.7631 -2.70173 2.07893 0
M  V30 24 H 2.9561 -1.04789 2.80997 0
M  V30 25 H 0.5091 -0.51083 1.47717 0
M  V30 26 H 1.2441 -3.02605 1.16622 0
M  V30 27 H 1.0291 -2.64082 2.89833 0
M  V30 28 H 2.5191 -3.45869 2.34017 0
M  V30 29 N 2.9562 -1.48159 -0.537278 0
M  V30 30 C 3.9192 -1.61665 -1.62472 0
M  V30 31 C 4.9192 -0.490395 -1.5314 0
M  V30 32 O 6.1092 -0.755998 -1.5694 0
M  V30 33 C 3.2412 -1.57997 -3.02076 0
M  V30 34 H 4.4342 -2.58621 -1.51839 0
M  V30 35 H 1.9872 -1.36647 -0.758771 0
M  V30 36 H 2.7222 -0.624913 -3.18222 0
M  V30 37 H 2.5072 -2.39755 -3.10258 0
M  V30 38 H 3.9972 -1.70627 -3.81151 0
M  V30 39 N 4.4343 0.785586 -1.36625 0
M  V30 40 C 5.8453 1.36101 -1.27803 0
M  V30 41 C 6.1963 1.96035 0.0804875 0
M  V30 42 O 5.3213 1.92834 0.982042 0
M  V30 43 C 5.9163 2.47442 -2.31426 0
M  V30 44 C 4.4753 3.00789 -2.26281 0
M  V30 45 C 3.6223 1.73896 -2.15999 0
M  V30 46 H 6.5733 0.586928 -1.47448 0
M  V30 47 H 6.5943 3.2656 -1.95291 0
M  V30 48 H 6.1063 2.03791 -3.30289 0
M  V30 49 H 4.2073 3.48851 -1.30896 0
M  V30 50 H 4.3203 3.57343 -3.19128 0
M  V30 51 H 2.6843 1.9628 -1.62316 0
M  V30 52 H 3.4673 1.32368 -3.16755 0
M  V30 53 N 5.9124 1.20967 1.01018 0
M  V30 54 C 7.1604 1.02172 1.74371 0
M  V30 55 C 7.4814 -0.446414 1.89821 0
M  V30 56 O 6.7514 -1.32234 1.44537 0
M  V30 57 H 5.3314 0.375066 0.646014 0
M  V30 58 H 7.9934 1.52187 1.21758 0
M  V30 59 H 7.0894 1.48538 2.74487 0
M  V30 60 N 7.3905 -1.2043 1.01659 0
M  V30 61 C 8.8015 -1.71517 0.737482 0
M  V30 62 C 9.1525 -1.81547 -0.743973 0
M  V30 63 O 8.2775 -1.47803 -1.58061 0
M  V30 64 C 8.8725 -3.11515 1.33206 0
M  V30 65 C 7.4315 -3.59912 1.10183 0
M  V30 66 C 6.5785 -2.37116 1.43776 0
M  V30 67 H 9.5295 -1.05444 1.18606 0
M  V30 68 H 9.5505 -3.73575 0.722636 0
M  V30 69 H 9.0625 -3.04182 2.41028 0
M  V30 70 H 7.1635 -3.72577 0.0412756 0
M  V30 71 H 7.2765 -4.44731 1.78188 0
M  V30 72 H 5.6405 -2.39857 0.856778 0
M  V30 73 H 6.4235 -2.32424 2.52654 0
M  V30 74 N 8.8686 -0.792821 -1.36206 0
M  V30 75 C 9.7986 -0.207853 -2.32573 0
M  V30 76 C 10.7796 0.659055 -1.56813 0
M  V30 77 O 11.9646 0.592176 -1.84951 0
M  V30 78 C 9.0946 0.655449 -3.41059 0
M  V30 79 C 8.0486 -0.111842 -4.27854 0
M  V30 80 C 7.3746 0.872274 -5.27537 0
M  V30 81 C 8.6746 -1.30299 -5.05786 0
M  V30 82 H 10.3686 -1.01294 -2.81744 0
M  V30 83 H 7.9146 -0.48854 -1.3546 0
M  V30 84 H 9.8676 1.07464 -4.07467 0
M  V30 85 H 8.5916 1.49328 -2.90463 0
M  V30 86 H 7.2506 -0.512053 -3.63006 0
M  V30 87 H 6.8986 1.70523 -4.73214 0
M  V30 88 H 6.5986 0.363291 -5.86476 0
M  V30 89 H 8.1226 1.28996 -5.96818 0
M  V30 90 H 9.5366 -0.959379 -5.65216 0
M  V30 91 H 7.9336 -1.7455 -5.74154 0
M  V30 92 H 9.0036 -2.09663 -4.37229 0
M  V30 93 N 10.3467 1.47872 -0.545128 0
M  V30 94 C 11.7577 1.86384 -0.108581 0
M  V30 95 C 12.1087 1.45309 1.31832 0
M  V30 96 O 11.2337 0.850641 1.9898 0
M  V30 97 C 11.8287 3.38265 -0.190274 0
M  V30 98 C 10.3877 3.75914 0.191164 0
M  V30 99 C 9.5347 2.71926 -0.543273 0
M  V30 100 H 12.4857 1.39561 -0.755537 0
M  V30 101 H 12.5067 3.75831 0.594217 0
M  V30 102 H 12.0187 3.6813 -1.2289 0
M  V30 103 H 10.1197 3.51665 1.23136 0
M  V30 104 H 10.2327 4.78836 -0.158987 0
M  V30 105 H 8.5967 2.54697 0.0122495 0
M  V30 106 H 9.3797 3.04634 -1.58282 0
M  V30 107 N 11.8248 0.280983 1.55075 0
M  V30 108 C 12.7878 -0.590896 2.21452 0
M  V30 109 C 13.7878 -1.07682 1.19421 0
M  V30 110 O 14.9778 -0.97605 1.44288 0
M  V30 111 C 12.1098 -1.81587 2.88511 0
M  V30 112 H 13.3028 -0.0112554 2.99898 0
M  V30 113 H 10.8558 0.0316438 1.56268 0
M  V30 114 H 11.5908 -2.43587 2.14093 0
M  V30 115 H 11.3758 -1.4753 3.63287 0
M  V30 116 H 12.8658 -2.43575 3.39206 0
M  V30 117 N 13.3029 -1.57598 0.00835791 0
M  V30 118 C 14.2659 -2.07884 -0.965242 0
M  V30 119 C 15.2659 -0.989825 -1.26725 0
M  V30 120 O 16.4559 -1.25218 -1.21104 0
M  V30 121 C 13.5879 -2.52731 -2.28779 0
M  V30 122 H 14.7809 -2.95178 -0.530112 0
M  V30 123 H 12.3339 -1.54458 -0.239283 0
M  V30 124 H 13.0689 -1.68705 -2.76964 0
M  V30 125 H 12.8539 -3.32272 -2.08177 0
M  V30 126 H 14.3439 -2.91933 -2.98605 0
M  V30 127 N 14.781 0.264519 -1.55364 0
M  V30 128 C 15.744 1.31046 -1.88042 0
M  V30 129 C 16.744 1.41943 -0.755569 0
M  V30 130 O 17.934 1.40947 -1.02369 0
M  V30 131 C 15.066 2.69067 -2.09323 0
M  V30 132 H 16.259 1.03297 -2.81549 0
M  V30 133 H 13.812 0.502989 -1.47986 0
M  V30 134 H 14.547 3.01982 -1.18226 0
M  V30 135 H 14.332 2.62542 -2.91229 0
M  V30 136 H 15.822 3.44623 -2.35848 0
M  V30 137 N 16.2591 1.48442 0.529413 0
M  V30 138 C 17.1891 1.65902 1.64313 0
M  V30 139 C 18.1701 0.507897 1.6234 0
M  V30 140 O 19.3551 0.740503 1.79528 0
M  V30 141 C 16.4851 1.69911 3.02898 0
M  V30 142 C 15.4391 2.8453 3.19729 0
M  V30 143 C 14.7651 2.73629 4.59381 0
M  V30 144 C 16.0651 4.25821 3.02447 0
M  V30 145 H 17.7591 2.5914 1.49955 0
M  V30 146 H 15.3051 1.24709 0.719982 0
M  V30 147 H 17.2581 1.80715 3.80684 0
M  V30 148 H 15.9821 0.732524 3.18279 0
M  V30 149 H 14.6411 2.73283 2.44361 0
M  V30 150 H 14.2891 1.74938 4.71599 0
M  V30 151 H 13.9891 3.50541 4.71588 0
M  V30 152 H 15.5131 2.86401 5.39265 0
M  V30 153 H 16.9271 4.37898 3.70024 0
M  V30 154 H 15.3241 5.03735 3.26146 0
M  V30 155 H 16.3941 4.42244 1.98867 0
M  V30 156 N 17.7372 -0.778329 1.37039 0
M  V30 157 C 18.9622 -1.57248 1.35233 0
M  V30 158 C 19.3872 -1.87999 -0.0615568 0
M  V30 159 O 18.7452 -1.48734 -1.03672 0
M  V30 160 C 18.7932 -2.86353 2.19167 0
M  V30 161 O 17.8972 -3.80442 1.59178 0
M  V30 162 H 17.2382 -0.476569 0.462362 0
M  V30 163 H 19.7682 -0.963853 1.80474 0
M  V30 164 H 19.7782 -3.35519 2.32145 0
M  V30 165 H 18.4532 -2.63299 3.21942 0
M  V30 166 H 17.0302 -3.39067 1.55203 0
M  V30 167 N 19.2153 -1.21501 -1.00376 0
M  V30 168 C 20.6263 -1.03146 -1.55621 0
M  V30 169 C 20.9773 0.408375 -1.91903 0
M  V30 170 O 20.1023 1.29177 -1.73616 0
M  V30 171 C 20.6973 -1.86612 -2.82775 0
M  V30 172 C 19.2563 -1.72586 -3.34501 0
M  V30 173 C 18.4033 -1.83747 -2.07683 0
M  V30 174 H 21.3543 -1.35505 -0.826081 0
M  V30 175 H 21.3753 -1.3771 -3.54706 0
M  V30 176 H 20.8873 -2.91399 -2.56336 0
M  V30 177 H 18.9883 -0.704877 -3.65872 0
M  V30 178 H 19.1013 -2.54623 -4.05837 0
M  V30 179 H 17.4653 -1.27069 -2.20739 0
M  V30 180 H 18.2483 -2.90044 -1.83655 0
M  V30 181 N 20.6934 1.19889 -1.02296 0
M  V30 182 C 21.9414 1.89046 -0.714558 0
M  V30 183 C 22.2624 1.79636 0.758681 0
M  V30 184 O 21.5324 1.20292 1.54618 0
M  V30 185 H 20.1124 0.699802 -0.261317 0
M  V30 186 H 22.7744 1.45574 -1.29592 0
M  V30 187 H 21.8704 2.95524 -1.0036 0
M  V30 188 N 22.1715 0.800033 1.35784 0
M  V30 189 C 23.1345 0.211565 2.28221 0
M  V30 190 C 24.1345 -0.59728 1.49296 0
M  V30 191 O 25.3245 -0.416721 1.69142 0
M  V30 192 C 22.4565 -0.705846 3.33513 0
M  V30 193 H 23.6495 1.02677 2.81776 0
M  V30 194 H 21.2025 0.570211 1.45528 0
M  V30 195 H 21.9375 -1.54498 2.85133 0
M  V30 196 H 21.7225 -0.127655 3.91892 0
M  V30 197 H 23.2125 -1.11211 4.02519 0
M  V30 198 N 23.6496 -1.47581 0.552962 0
M  V30 199 C 25.0606 -1.86324 0.118463 0
M  V30 200 C 25.4116 -1.46006 -1.3106 0
M  V30 201 O 24.5366 -0.861182 -1.98526 0
M  V30 202 C 25.1316 -3.3816 0.20821 0
M  V30 203 C 23.6906 -3.7601 -0.171226 0
M  V30 204 C 22.8376 -2.71634 0.557686 0
M  V30 205 H 25.7886 -1.39159 0.762928 0
M  V30 206 H 25.8096 -3.76141 -0.574278 0
M  V30 207 H 25.3216 -3.67473 1.24841 0
M  V30 208 H 23.4226 -3.52313 -1.21269 0
M  V30 209 H 23.5356 -4.78745 0.184379 0
M  V30 210 H 21.8996 -2.547 0.00125792 0
M  V30 211 H 22.6826 -3.0379 1.59896 0
M  V30 212 N 25.1277 -0.289203 -1.54924 0
M  V30 213 C 26.3557 0.326463 -2.04308 0
M  V30 214 C 26.7707 1.48413 -1.16701 0
M  V30 215 O 26.1277 1.81507 -0.190087 0
M  V30 216 C 26.1787 0.794014 -3.52672 0
M  V30 217 O 25.8997 -0.317564 -4.36948 0
M  V30 218 C 27.4007 1.47605 -4.18004 0
M  V30 219 H 24.6207 0.0726272 -0.667058 0
M  V30 220 H 27.1647 -0.425401 -2.00026 0
M  V30 221 H 25.3197 1.49593 -3.57352 0
M  V30 222 H 25.7337 0.0443186 -5.24481 0
M  V30 223 H 27.2077 1.75447 -5.23376 0
M  V30 224 H 27.6847 2.41224 -3.67025 0
M  V30 225 H 28.2907 0.81762 -4.17367 0
M  V30 226 N 26.6058 1.57591 -0.0167156 0
M  V30 227 C 28.0168 1.79201 0.523834 0
M  V30 228 C 28.3678 0.925796 1.72984 0
M  V30 229 O 27.4928 0.132792 2.15992 0
M  V30 230 C 28.0878 3.25 0.957091 0
M  V30 231 C 26.6468 3.47648 1.44283 0
M  V30 232 C 25.7938 2.74374 0.401757 0
M  V30 233 H 28.7448 1.56831 -0.242816 0
M  V30 234 H 28.7658 3.34031 1.82219 0
M  V30 235 H 28.2778 3.88019 0.0791415 0
M  V30 236 H 26.3788 2.89866 2.34113 0
M  V30 237 H 26.4918 4.56352 1.45877 0
M  V30 238 H 24.8558 2.39485 0.867121 0
M  V30 239 H 25.6388 3.40102 -0.467513 0
M  V30 240 N 28.0839 -0.256276 1.55502 0
M  V30 241 C 29.4999 -0.604325 1.47716 0
M  V30 242 C 29.6999 -1.88763 0.705039 0
M  V30 243 O 28.7559 -2.51445 0.230613 0
M  V30 244 C 30.0689 -0.715756 2.92057 0
M  V30 245 C 31.6169 -0.808706 3.02372 0
M  V30 246 C 32.0919 -0.951777 4.48001 0
M  V30 247 N 33.5829 -1.01688 4.519 0
M  V30 248 C 34.3179 -1.14668 5.61817 0
M  V30 249 N 33.8139 -1.24261 6.81565 0
M  V30 250 N 35.6069 -1.1791 5.49594 0
M  V30 251 H 27.7579 0.586291 2.04148 0
M  V30 252 H 30.0209 0.201015 0.926443 0
M  V30 253 H 29.7269 0.157027 3.51349 0
M  V30 254 H 29.6009 -1.59071 3.42018 0
M  V30 255 H 31.9879 -1.67195 2.43166 0
M  V30 256 H 32.0689 0.0912063 2.55637 0
M  V30 257 H 31.7129 -0.0931291 5.07815 0
M  V30 258 H 31.6429 -1.86659 4.92408 0
M  V30 259 H 34.1339 -0.954468 3.65648 0
M  V30 260 H 34.4469 -1.34046 7.61086 0
M  V30 261 H 32.7919 -1.21236 6.84344 0
M  V30 262 H 35.9829 -1.10057 4.54978 0
M  V30 263 H 36.1559 -1.27681 6.35296 0
M  V30 264 N 29.562 -1.4872 -0.521534 0
M  V30 265 C 30.472 -1.66569 -1.65203 0
M  V30 266 C 31.488 -0.548197 -1.65139 0
M  V30 267 O 32.664 -0.820339 -1.83936 0
M  V30 268 C 29.729 -1.70917 -3.01642 0
M  V30 269 C 28.79 -2.94356 -3.12495 0
M  V30 270 C 28.023 -2.98487 -4.42426 0
M  V30 271 O 28.246 -2.10786 -5.30024 0
M  V30 272 O 27.18 -3.90746 -4.57822 0
M  V30 273 H 31.006 -2.62298 -1.5308 0
M  V30 274 H 28.591 -1.3222 -0.695565 0
M  V30 275 H 30.473 -1.7625 -3.82771 0
M  V30 276 H 29.148 -0.783633 -3.14071 0
M  V30 277 H 28.055 -2.94552 -2.3063 0
M  V30 278 H 29.388 -3.86322 -3.04986 0
M  V30 279 N 31.0401 0.771051 -1.3745 0
M  V30 280 C 31.9701 1.89827 -1.3597 0
M  V30 281 C 32.9511 1.68562 -0.228216 0
M  V30 282 O 34.1361 1.8941 -0.428675 0
M  V30 283 C 31.2661 3.2712 -1.16662 0
M  V30 284 C 30.2201 3.6295 -2.2683 0
M  V30 285 C 29.5461 4.98791 -1.92644 0
M  V30 286 C 30.8461 3.69627 -3.69017 0
M  V30 287 H 32.5401 1.91323 -2.30295 0
M  V30 288 H 30.0861 0.919082 -1.10855 0
M  V30 289 H 32.0391 4.05615 -1.14256 0
M  V30 290 H 30.7631 3.26059 -0.187926 0
M  V30 291 H 29.4221 2.86763 -2.28392 0
M  V30 292 H 29.0701 4.94271 -0.933021 0
M  V30 293 H 28.7701 5.23733 -2.66416 0
M  V30 294 H 30.2941 5.79685 -1.91826 0
M  V30 295 H 31.7081 4.38273 -3.69581 0
M  V30 296 H 30.1051 4.06067 -4.41848 0
M  V30 297 H 31.1751 2.70273 -4.02592 0
M  V30 298 N 32.5182 1.22032 0.997298 0
M  V30 299 C 33.4512 0.929735 2.08401 0
M  V30 300 C 34.4292 -0.125681 1.62114 0
M  V30 301 O 35.6132 0.00495409 1.88499 0
M  V30 302 C 32.7402 0.397488 3.3636 0
M  V30 303 C 31.7862 1.4369 4.01566 0
M  V30 304 S 32.6192 3.00874 4.42984 0
M  V30 305 C 33.7752 2.49276 5.74119 0
M  V30 306 H 34.0082 1.84998 2.32729 0
M  V30 307 H 31.5412 1.0509 1.13117 0
M  V30 308 H 33.4992 0.0969846 4.10385 0
M  V30 309 H 32.1602 -0.501571 3.10069 0
M  V30 310 H 31.3532 1.01427 4.93689 0
M  V30 311 H 30.9552 1.68588 3.33847 0
M  V30 312 H 33.2472 1.90242 6.50242 0
M  V30 313 H 34.1902 3.39872 6.21203 0
M  V30 314 H 34.5982 1.90714 5.31308 0
M  V30 315 N 33.9963 -1.19345 1.0293 0
M  V30 316 C 34.9463 -2.20472 0.58104 0
M  V30 317 C 35.9303 -1.56578 -0.370442 0
M  V30 318 O 37.1223 -1.75963 -0.191344 0
M  V30 319 C 34.2513 -3.43236 -0.066306 0
M  V30 320 C 33.3373 -4.14274 0.907642 0
M  V30 321 N 33.7283 -4.61492 2.07023 0
M  V30 322 C 32.0263 -4.39966 0.731177 0
M  V30 323 C 32.7273 -5.1605 2.68454 0
M  V30 324 N 31.7033 -5.06875 1.96414 0
M  V30 325 H 35.5053 -2.54659 1.46717 0
M  V30 326 H 33.0193 -1.35423 0.896345 0
M  V30 327 H 35.0163 -4.14927 -0.405068 0
M  V30 328 H 33.6763 -3.10549 -0.948118 0
M  V30 329 H 34.6873 -4.56304 2.44963 0
M  V30 330 H 31.3643 -4.17377 -0.101507 0
M  V30 331 H 32.7543 -5.6287 3.66915 0
M  V30 332 N 35.4744 -0.807222 -1.35358 0
M  V30 333 C 36.7224 -0.387122 -1.98358 0
M  V30 334 C 37.0434 1.04942 -1.64354 0
M  V30 335 O 36.3134 1.72615 -0.926339 0
M  V30 336 H 34.8934 -0.140154 -0.733734 0
M  V30 337 H 37.5554 -1.0332 -1.6526 0
M  V30 338 H 36.6514 -0.493352 -3.08176 0
M  V30 339 N 36.9525 1.47285 -0.560781 0
M  V30 340 C 38.1985 2.02764 -0.0381184 0
M  V30 341 C 38.5315 1.43384 1.30976 0
M  V30 342 O 37.8065 0.590733 1.85312 0
M  V30 343 C 38.0895 3.60064 0.0511427 0
M  V30 344 C 37.9425 4.2987 -1.32408 0
M  V30 345 C 39.2615 4.33439 0.762795 0
M  V30 346 H 36.3805 0.736841 -0.0153264 0
M  V30 347 H 39.0225 1.75675 -0.723759 0
M  V30 348 H 37.1725 3.83274 0.635065 0
M  V30 349 H 38.8445 4.17989 -1.95148 0
M  V30 350 H 37.0875 3.90085 -1.8978 0
M  V30 351 H 37.7585 5.38478 -1.21431 0
M  V30 352 H 40.2345 4.15243 0.266965 0
M  V30 353 H 39.1105 5.43124 0.794221 0
M  V30 354 H 39.3715 4.02915 1.81966 0
M  V30 355 N 38.4306 0.297415 1.54768 0
M  V30 356 C 39.3936 -0.567375 2.22066 0
M  V30 357 C 40.3936 -1.06409 1.20556 0
M  V30 358 O 41.5836 -0.960691 1.45315 0
M  V30 359 C 38.7156 -1.78517 2.90421 0
M  V30 360 H 39.9086 0.0205534 2.99893 0
M  V30 361 H 37.4616 0.0482163 1.56226 0
M  V30 362 H 38.1966 -2.41303 2.16664 0
M  V30 363 H 37.9816 -1.43669 3.64831 0
M  V30 364 H 39.4716 -2.39964 3.41771 0
M  V30 365 N 39.9087 -1.5758 0.0250728 0
M  V30 366 C 41.1567 -1.91255 -0.653151 0
M  V30 367 C 41.4777 -0.901691 -1.729 0
M  V30 368 O 40.7477 0.0573785 -1.95816 0
M  V30 369 H 39.3277 -0.705942 -0.244243 0
M  V30 370 H 41.9897 -1.94767 0.0719209 0
M  V30 371 H 41.0857 -2.91752 -1.10847 0
M  V30 372 N 41.3868 0.248026 -1.55636 0
M  V30 373 C 42.6328 0.97767 -1.77678 0
M  V30 374 C 42.9658 1.85016 -0.590135 0
M  V30 375 O 42.2408 1.90095 0.411611 0
M  V30 376 C 42.5238 1.83914 -3.09593 0
M  V30 377 C 42.3768 0.99491 -4.38659 0
M  V30 378 C 43.6958 2.82183 -3.37729 0
M  V30 379 H 40.8148 0.354005 -0.646413 0
M  V30 380 H 43.4568 0.248253 -1.88371 0
M  V30 381 H 41.6068 2.46104 -3.00608 0
M  V30 382 H 43.2788 0.391789 -4.59633 0
M  V30 383 H 41.5218 0.299231 -4.32767 0
M  V30 384 H 42.1928 1.63145 -5.2734 0
M  V30 385 H 44.6688 2.30129 -3.4667 0
M  V30 386 H 43.5448 3.39582 -4.31249 0
M  V30 387 H 43.8058 3.58588 -2.58586 0
M  V30 388 N 42.8649 1.48995 0.513639 0
M  V30 389 C 44.0929 1.61531 1.29288 0
M  V30 390 C 44.5079 0.281801 1.86685 0
M  V30 391 O 43.8649 -0.731111 1.67215 0
M  V30 392 C 43.9159 2.67449 2.43215 0
M  V30 393 O 43.6369 3.95626 1.88179 0
M  V30 394 C 45.1379 2.90575 3.34785 0
M  V30 395 H 42.3579 0.544165 0.392588 0
M  V30 396 H 44.9019 1.9494 0.617956 0
M  V30 397 H 43.0569 2.36853 3.0656 0
M  V30 398 H 43.4709 4.53868 2.62876 0
M  V30 399 H 44.9449 3.68449 4.11035 0
M  V30 400 H 45.4219 2.00011 3.91015 0
M  V30 401 H 46.0279 3.22538 2.77218 0
M  V30 402 N 44.343 -0.763751 1.37857 0
M  V30 403 C 45.568 -1.55805 1.36893 0
M  V30 404 C 45.993 -1.88054 -0.0416135 0
M  V30 405 O 45.351 -1.49825 -1.02089 0
M  V30 406 C 45.399 -2.84012 2.22192 0
M  V30 407 O 44.503 -3.78732 1.63204 0
M  V30 408 H 43.844 -0.471638 0.46739 0
M  V30 409 H 46.374 -0.944657 1.81487 0
M  V30 410 H 46.384 -3.33037 2.35691 0
M  V30 411 H 45.059 -2.59869 3.24716 0
M  V30 412 H 43.636 -3.37402 1.58791 0
M  V30 413 N 45.8211 -1.22559 -0.990812 0
M  V30 414 C 47.2371 -0.985996 -1.255 0
M  V30 415 C 47.4371 0.319173 -1.98956 0
M  V30 416 O 46.4931 1.04127 -2.3003 0
M  V30 417 C 47.8061 -2.18607 -2.06474 0
M  V30 418 C 49.3541 -2.22985 -2.19651 0
M  V30 419 C 49.8291 -3.4255 -3.04012 0
M  V30 420 N 51.3201 -3.42725 -3.11599 0
M  V30 421 C 52.0551 -4.31892 -3.7717 0
M  V30 422 N 51.5511 -5.31279 -4.44651 0
M  V30 423 N 53.3441 -4.19662 -3.73952 0
M  V30 424 H 45.4951 -2.06469 -0.49841 0
M  V30 425 H 47.7581 -0.904853 -0.282747 0
M  V30 426 H 47.4641 -3.13267 -1.59865 0
M  V30 427 H 47.3381 -2.18838 -3.07229 0
M  V30 428 H 49.7251 -1.28871 -2.65474 0
M  V30 429 H 49.8061 -2.26791 -1.18319 0
M  V30 430 H 49.4501 -4.36965 -2.58889 0
M  V30 431 H 49.3801 -3.35984 -4.0549 0
M  V30 432 H 51.8711 -2.70807 -2.63575 0
M  V30 433 H 52.1841 -5.95593 -4.92431 0
M  V30 434 H 50.5291 -5.3519 -4.43392 0
M  V30 435 H 53.7201 -3.41268 -3.20396 0
M  V30 436 H 53.8931 -4.89358 -4.24774 0
M  V30 437 N 47.2992 1.18797 -1.03562 0
M  V30 438 C 48.2622 2.20464 -0.626769 0
M  V30 439 C 49.2622 1.57721 0.313173 0
M  V30 440 O 50.4522 1.73917 0.0992615 0
M  V30 441 C 47.5842 3.40802 0.0818498 0
M  V30 442 H 48.7772 2.58149 -1.5264 0
M  V30 443 H 46.3302 1.32593 -0.827578 0
M  V30 444 H 47.0652 3.08642 0.995518 0
M  V30 445 H 46.8502 3.8758 -0.593652 0
M  V30 446 H 48.3402 4.16092 0.354584 0
M  V30 447 N 48.7773 0.814389 1.34928 0
M  V30 448 C 50.0253 0.397636 1.9815 0
M  V30 449 C 50.3463 -1.04069 1.64908 0
M  V30 450 O 49.6163 -1.72121 0.93548 0
M  V30 451 H 48.1963 0.144043 0.732981 0
M  V30 452 H 50.8583 1.04195 1.6471 0
M  V30 453 H 49.9543 0.509688 3.0791 0
M  V30 454 N 50.2554 -1.46986 0.568584 0
M  V30 455 C 51.6714 -1.57946 0.229189 0
M  V30 456 C 51.8714 -1.56567 -1.26843 0
M  V30 457 O 50.9274 -1.47511 -2.04931 0
M  V30 458 C 52.2404 -2.87963 0.865909 0
M  V30 459 C 53.7884 -3.01568 0.838188 0
M  V30 460 C 54.2634 -4.34301 1.45419 0
M  V30 461 N 55.7544 -4.40965 1.41788 0
M  V30 462 C 56.4894 -5.42256 1.86403 0
M  V30 463 N 55.9854 -6.50297 2.38926 0
M  V30 464 N 57.7784 -5.3337 1.77405 0
M  V30 465 H 49.9294 -1.46126 1.54146 0
M  V30 466 H 52.1924 -0.696156 0.643484 0
M  V30 467 H 51.8984 -2.94742 1.91886 0
M  V30 468 H 51.7724 -3.75423 0.365687 0
M  V30 469 H 54.1594 -2.94379 -0.206106 0
M  V30 470 H 54.2404 -2.1562 1.37629 0
M  V30 471 H 53.8844 -4.42247 2.49761 0
M  V30 472 H 53.8144 -5.19 0.891435 0
M  V30 473 H 56.3054 -3.63484 1.03381 0
M  V30 474 H 56.6184 -7.23777 2.70863 0
M  V30 475 H 54.9634 -6.51155 2.42944 0
M  V30 476 H 58.1544 -4.47865 1.3614 0
M  V30 477 H 58.3274 -6.12169 2.12492 0
M  V30 478 N 51.7335 -0.305618 -1.54608 0
M  V30 479 C 53.0105 0.355652 -1.92339 0
M  V30 480 C 53.3905 1.71324 -1.23335 0
M  V30 481 O 52.7385 2.25473 -0.370702 0
M  V30 482 C 52.9485 0.46572 -3.45879 0
M  V30 483 C 54.2965 0.734426 -4.182 0
M  V30 484 O 55.3205 0.54935 -3.51938 0
M  V30 485 O 54.1795 1.09024 -5.35515 0
M  V30 486 H 51.2735 0.199666 -0.802535 0
M  V30 487 H 53.8195 -0.354017 -1.65966 0
M  V30 488 H 52.5915 -0.488461 -3.88239 0
M  V30 489 H 52.2145 1.22367 -3.78301 0
M  V30 490 N 53.2116 1.57565 -0.0334293 0
M  V30 491 C 54.6276 1.56297 0.322997 0
M  V30 492 C 54.8276 1.03945 1.7262 0
M  V30 493 O 53.8836 0.688109 2.42943 0
M  V30 494 C 55.1966 3.00232 0.167664 0
M  V30 495 C 56.7446 3.12078 0.240107 0
M  V30 496 C 57.2196 4.57859 0.113513 0
M  V30 497 N 58.7106 4.62887 0.170359 0
M  V30 498 C 59.4456 5.73319 0.0962517 0
M  V30 499 N 58.9416 6.92794 -0.0291881 0
M  V30 500 N 60.7346 5.61898 0.150551 0
M  V30 501 H 52.8856 1.89923 -0.950956 0
M  V30 502 H 55.1486 0.873824 -0.367608 0
M  V30 503 H 54.8546 3.42501 -0.799102 0
M  V30 504 H 54.7286 3.654 0.936083 0
M  V30 505 H 57.1156 2.69718 1.19733 0
M  V30 506 H 57.1966 2.49623 -0.558763 0
M  V30 507 H 56.8406 5.009 -0.840314 0
M  V30 508 H 56.7706 5.18299 0.931302 0
M  V30 509 H 59.2616 3.76954 0.26728 0
M  V30 510 H 59.5746 7.7276 -0.0789252 0
M  V30 511 H 57.9196 6.94971 -0.0640299 0
M  V30 512 H 61.1106 4.67448 0.246981 0
M  V30 513 H 61.2836 6.47938 0.0893365 0
M  V30 514 N 54.6897 -0.239769 1.55765 0
M  V30 515 C 55.5997 -1.31831 1.94056 0
M  V30 516 C 56.6157 -1.52275 0.841925 0
M  V30 517 O 57.7917 -1.65759 1.14394 0
M  V30 518 C 54.8567 -2.65156 2.23368 0
M  V30 519 C 53.9177 -2.53173 3.46701 0
M  V30 520 C 53.1507 -3.8014 3.74606 0
M  V30 521 O 53.3737 -4.82343 3.04469 0
M  V30 522 O 52.3077 -3.78344 4.68123 0
M  V30 523 H 56.1337 -1.02347 2.85935 0
M  V30 524 H 53.7187 -0.441123 1.42739 0
M  V30 525 H 55.6007 -3.43929 2.43497 0
M  V30 526 H 54.2757 -2.94358 1.34666 0
M  V30 527 H 53.1827 -1.72662 3.31871 0
M  V30 528 H 54.5157 -2.28915 4.35728 0
M  V30 529 N 56.1678 -1.49265 -0.50573 0
M  V30 530 C 57.1308 -1.65075 -1.59006 0
M  V30 531 C 58.1308 -0.522768 -1.52065 0
M  V30 532 O 59.3208 -0.789117 -1.55302 0
M  V30 533 C 56.4528 -1.64369 -2.98656 0
M  V30 534 H 57.6458 -2.61784 -1.46319 0
M  V30 535 H 55.1988 -1.38226 -0.729616 0
M  V30 536 H 55.9338 -0.692272 -3.16825 0
M  V30 537 H 55.7188 -2.46282 -3.05103 0
M  V30 538 H 57.2088 -1.78674 -3.77446 0
M  V30 539 N 57.6459 0.756429 -1.3826 0
M  V30 540 C 58.8939 1.51248 -1.34047 0
M  V30 541 C 59.2149 1.94875 0.0698372 0
M  V30 542 O 58.4849 1.67436 1.01696 0
M  V30 543 H 57.0649 0.561018 -0.493222 0
M  V30 544 H 59.7269 0.899347 -1.7291 0
M  V30 545 H 58.8229 2.40472 -1.98947 0
M  V30 546 N 59.124 1.23083 0.984299 0
M  V30 547 C 60.349 1.088 1.76571 0
M  V30 548 C 60.774 -0.356657 1.84688 0
M  V30 549 O 60.132 -1.25788 1.30565 0
M  V30 550 C 60.18 1.71371 3.17277 0
M  V30 551 O 59.284 0.973213 4.00752 0
M  V30 552 H 58.625 0.381599 0.543395 0
M  V30 553 H 61.155 1.63057 1.23587 0
M  V30 554 H 61.165 1.76449 3.67872 0
M  V30 555 H 59.84 2.76493 3.10684 0
M  V30 556 H 58.417 0.999078 3.59267 0
M  V30 557 N 60.6021 -1.18246 1.0419 0
M  V30 558 C 61.8481 -1.88536 0.747122 0
M  V30 559 C 62.1811 -1.80223 -0.723409 0
M  V30 560 O 61.4561 -1.20337 -1.52804 0
M  V30 561 C 61.7391 -3.38968 1.21544 0
M  V30 562 C 61.5921 -3.56084 2.74816 0
M  V30 563 C 62.9111 -4.32648 0.806482 0
M  V30 564 H 60.0301 -0.684619 0.272883 0
M  V30 565 H 62.6721 -1.39113 1.29413 0
M  V30 566 H 60.8221 -3.8119 0.750081 0
M  V30 567 H 62.4941 -3.22946 3.29399 0
M  V30 568 H 60.7371 -2.98699 3.14582 0
M  V30 569 H 61.4081 -4.61639 3.02644 0
M  V30 570 H 63.8841 -3.98211 1.20695 0
M  V30 571 H 62.7601 -5.36462 1.1619 0
M  V30 572 H 63.0211 -4.41146 -0.29029 0
M  V30 573 N 62.0802 -0.821533 -1.34494 0
M  V30 574 C 63.0102 -0.257138 -2.3208 0
M  V30 575 C 63.9912 0.625645 -1.58176 0
M  V30 576 O 65.1762 0.552811 -1.86166 0
M  V30 577 C 62.3062 0.582958 -3.42372 0
M  V30 578 C 61.2602 -0.202571 -4.2752 0
M  V30 579 C 60.5862 0.760179 -5.29269 0
M  V30 580 C 61.8862 -1.40998 -5.02908 0
M  V30 581 H 63.5802 -1.07247 -2.79532 0
M  V30 582 H 61.1262 -0.517163 -1.34393 0
M  V30 583 H 63.0792 0.987972 -4.09655 0
M  V30 584 H 61.8032 1.43133 -2.93565 0
M  V30 585 H 60.4622 -0.588936 -3.61838 0
M  V30 586 H 60.1102 1.60447 -4.76724 0
M  V30 587 H 59.8102 0.238809 -5.87115 0
M  V30 588 H 61.3342 1.16308 -5.9942 0
M  V30 589 H 62.7482 -1.07905 -5.63054 0
M  V30 590 H 61.1452 -1.86689 -5.70322 0
M  V30 591 H 62.2152 -2.1889 -4.32684 0
M  V30 592 N 63.5583 1.46682 -0.576371 0
M  V30 593 C 64.9693 1.86112 -0.148091 0
M  V30 594 C 65.3203 1.48073 1.2872 0
M  V30 595 O 64.4453 0.892656 1.97131 0
M  V30 596 C 65.0403 3.37786 -0.261982 0
M  V30 597 C 63.5993 3.76235 0.111384 0
M  V30 598 C 62.7463 2.70713 -0.60083 0
M  V30 599 H 65.6973 1.37927 -0.78497 0
M  V30 600 H 65.7183 3.77007 0.514364 0
M  V30 601 H 65.2303 3.6544 -1.30671 0
M  V30 602 H 63.3313 3.54198 1.15649 0
M  V30 603 H 63.4443 4.78391 -0.26052 0
M  V30 604 H 61.8083 2.54666 -0.0417783 0
M  V30 605 H 62.5913 3.01208 -1.64708 0
M  V30 606 N 65.0364 0.313813 1.54444 0
M  V30 607 C 65.9994 -0.54379 2.22656 0
M  V30 608 C 66.9994 -1.05124 1.21678 0
M  V30 609 O 68.1894 -0.945225 1.46325 0
M  V30 610 C 65.3214 -1.75427 2.92298 0
M  V30 611 H 66.5144 0.0523599 2.99854 0
M  V30 612 H 64.0674 0.0647834 1.56166 0
M  V30 613 H 64.8024 -2.38991 2.19211 0
M  V30 614 H 64.5874 -1.39791 3.66334 0
M  V30 615 H 66.0774 -2.36325 3.44297 0
M  V30 616 N 66.5145 -1.57545 0.0417849 0
M  V30 617 C 67.7625 -1.91937 -0.632829 0
M  V30 618 C 68.0835 -0.919978 -1.71934 0
M  V30 619 O 67.3535 0.0366064 -1.95866 0
M  V30 620 H 65.9335 -0.708493 -0.236742 0
M  V30 621 H 68.5955 -1.9468 0.0925745 0
M  V30 622 H 67.6915 -2.92912 -1.07746 0
M  V30 623 N 67.9926 0.231505 -1.5589 0
M  V30 624 C 68.9406 1.30649 -1.92441 0
M  V30 625 C 69.9346 1.49037 -0.805254 0
M  V30 626 O 71.1406 1.50329 -0.990007 0
M  V30 627 H 67.5156 0.437812 -0.611412 0
M  V30 628 H 69.4866 0.970973 -2.82161 0
M  V30 629 C 68.2356 2.65179 -2.24889 0
M  V30 630 H 67.5586 2.51835 -3.10514 0
M  V30 631 H 68.9986 3.39234 -2.54355 0
M  V30 632 C 67.4576 3.19439 -1.07054 0
M  V30 633 O 67.9876 4.00371 -0.326499 0
M  V30 634 N 66.1936 2.77675 -0.85703 0
M  V30 635 H 65.7406 2.11969 -1.46379 0
M  V30 636 H 65.6986 3.14321 -0.0703223 0
M  V30 637 N 69.4707 1.49531 0.497807 0
M  V30 638 C 70.8867 1.36365 0.829266 0
M  V30 639 C 71.0867 0.399184 1.97506 0
M  V30 640 O 70.1427 -0.167977 2.51941 0
M  V30 641 C 71.4557 2.77153 1.16647 0
M  V30 642 C 73.0037 2.85877 1.27449 0
M  V30 643 C 73.4787 4.2744 1.64497 0
M  V30 644 N 74.9697 4.30265 1.7154 0
M  V30 645 C 75.7047 5.3677 2.01656 0
M  V30 646 N 75.2007 6.53516 2.29976 0
M  V30 647 N 76.9937 5.24189 2.02934 0
M  V30 648 H 69.1447 2.10831 -0.257703 0
M  V30 649 H 71.4077 0.946534 -0.0527091 0
M  V30 650 H 71.1137 3.49442 0.397872 0
M  V30 651 H 70.9877 3.12722 2.10915 0
M  V30 652 H 73.3747 2.13824 2.0338 0
M  V30 653 H 73.4557 2.53887 0.312244 0
M  V30 654 H 73.0997 5.00021 0.891151 0
M  V30 655 H 73.0297 4.56896 2.61827 0
M  V30 656 H 75.5207 3.4607 1.51802 0
M  V30 657 H 75.8337 7.30506 2.52153 0
M  V30 658 H 74.1787 6.56737 2.27425 0
M  V30 659 H 77.3697 4.31988 1.80289 0
M  V30 660 H 77.5427 6.07286 2.26071 0
M  V30 661 N 70.9488 -0.749086 1.3866 0
M  V30 662 C 72.1968 -1.50535 1.34847 0
M  V30 663 C 72.5178 -1.94909 -0.0595016 0
M  V30 664 O 71.7878 -1.67973 -1.00806 0
M  V30 665 H 70.3678 -0.558395 0.49619 0
M  V30 666 H 73.0298 -0.890165 1.73384 0
M  V30 667 H 72.1258 -2.39413 2.00219 0
M  V30 668 N 72.4269 -1.23603 -0.977757 0
M  V30 669 C 73.3899 -1.02069 -2.05218 0
M  V30 670 C 74.3899 0.0184305 -1.60789 0
M  V30 671 O 75.5799 -0.221569 -1.72785 0
M  V30 672 C 72.7119 -0.544926 -3.36517 0
M  V30 673 H 73.9049 -1.9742 -2.25755 0
M  V30 674 H 71.4579 -1.05684 -1.15155 0
M  V30 675 H 72.1929 0.412241 -3.21669 0
M  V30 676 H 71.9779 -1.2948 -3.70105 0
M  V30 677 H 73.4679 -0.414985 -4.15533 0
M  V30 678 N 73.905 1.17692 -1.04816 0
M  V30 679 C 75.321 1.39863 -0.768794 0
M  V30 680 C 75.521 1.91118 0.638451 0
M  V30 681 O 74.577 2.10036 1.40146 0
M  V30 682 C 75.89 2.39274 -1.82122 0
M  V30 683 C 77.438 2.52987 -1.843 0
M  V30 684 C 77.913 3.55669 -2.88555 0
M  V30 685 N 79.404 3.63183 -2.87493 0
M  V30 686 C 80.139 4.42381 -3.64811 0
M  V30 687 N 79.635 5.25125 -4.51903 0
M  V30 688 N 81.428 4.37217 -3.53267 0
M  V30 689 H 73.579 0.82752 -1.95617 0
M  V30 690 H 75.842 0.426123 -0.846831 0
M  V30 691 H 75.548 2.08678 -2.83102 0
M  V30 692 H 75.422 3.38725 -1.65967 0
M  V30 693 H 77.809 2.82896 -0.839869 0
M  V30 694 H 77.89 1.53623 -2.04532 0
M  V30 695 H 77.534 3.26499 -3.89051 0
M  V30 696 H 77.464 4.54728 -2.65575 0
M  V30 697 H 79.955 3.04103 -2.24343 0
M  V30 698 H 80.268 5.82728 -5.07591 0
M  V30 699 H 78.613 5.24519 -4.55966 0
M  V30 700 H 81.804 3.71626 -2.84625 0
M  V30 701 H 81.977 4.98696 -4.13771 0
M  V30 702 N 75.3831 0.828654 1.34056 0
M  V30 703 C 76.3301 0.252567 2.29414 0
M  V30 704 C 77.3001 -0.62588 1.53857 0
M  V30 705 O 78.4851 -0.566312 1.82202 0
M  V30 706 C 75.6251 -0.574831 3.40279 0
M  V30 707 C 74.7381 0.326499 4.30764 0
M  V30 708 C 73.8731 -0.511016 5.28736 0
M  V30 709 C 72.9121 0.389342 6.1086 0
M  V30 710 N 72.0491 -0.409439 7.00905 0
M  V30 711 H 76.8891 1.07108 2.78086 0
M  V30 712 H 74.4261 0.539677 1.36843 0
M  V30 713 H 76.3841 -1.06992 4.03248 0
M  V30 714 H 75.0141 -1.35841 2.92826 0
M  V30 715 H 74.0661 0.939837 3.68607 0
M  V30 716 H 75.3781 1.01857 4.88289 0
M  V30 717 H 74.5321 -1.07035 5.97184 0
M  V30 718 H 73.2711 -1.23657 4.71763 0
M  V30 719 H 72.2761 0.960769 5.4134 0
M  V30 720 H 73.5011 1.1131 6.69916 0
M  V30 721 H 71.4471 -1.11856 6.46393 0
M  V30 722 H 71.3641 0.224126 7.55668 0
M  V30 723 H 72.6321 -0.951336 7.73673 0
M  V30 724 N 76.8612 -1.46375 0.584142 0
M  V30 725 C 77.8242 -2.28784 -0.138108 0
M  V30 726 C 78.8242 -1.38471 -0.817462 0
M  V30 727 O 80.0142 -1.60833 -0.669199 0
M  V30 728 C 77.1462 -3.18892 -1.20503 0
M  V30 729 H 78.3392 -2.94117 0.586127 0
M  V30 730 H 75.8922 -1.52509 0.342171 0
M  V30 731 H 76.6272 -2.58309 -1.96079 0
M  V30 732 H 76.4122 -3.85388 -0.722384 0
M  V30 733 H 77.9022 -3.80914 -1.71155 0
M  V30 734 N 78.3393 -0.321999 -1.54275 0
M  V30 735 C 79.5643 0.285791 -2.05422 0
M  V30 736 C 79.9893 1.45124 -1.19669 0
M  V30 737 O 79.3473 1.80132 -0.205441 0
M  V30 738 C 79.3953 0.69956 -3.53749 0
M  V30 739 O 78.4993 1.8021 -3.70942 0
M  V30 740 H 77.8403 0.0518962 -0.661969 0
M  V30 741 H 80.3703 -0.469954 -1.9913 0
M  V30 742 H 80.3803 0.982649 -3.9599 0
M  V30 743 H 79.0553 -0.152864 -4.15619 0
M  V30 744 H 77.6323 1.51794 -3.40607 0
M  V30 745 N 79.8174 1.5752 -0.0501392 0
M  V30 746 C 81.2334 1.56631 0.306402 0
M  V30 747 C 81.4334 1.0577 1.71508 0
M  V30 748 O 80.4894 0.713837 2.422 0
M  V30 749 C 81.8024 3.00393 0.135811 0
M  V30 750 C 83.3504 3.12315 0.206993 0
M  V30 751 C 83.8254 4.57954 0.064944 0
M  V30 752 N 85.3164 4.63041 0.121254 0
M  V30 753 C 86.0514 5.73389 0.0354381 0
M  V30 754 N 85.5474 6.92724 -0.102666 0
M  V30 755 N 87.3404 5.62026 0.090946 0
M  V30 756 H 79.4914 1.88903 -0.971046 0
M  V30 757 H 81.7544 0.869876 -0.376855 0
M  V30 758 H 81.4604 3.41635 -0.835384 0
M  V30 759 H 81.3344 3.66373 0.897275 0
M  V30 760 H 83.7214 2.70973 1.16866 0
M  V30 761 H 83.8024 2.49016 -0.585208 0
M  V30 762 H 83.4464 4.99981 -0.893394 0
M  V30 763 H 83.3764 5.19258 0.876277 0
M  V30 764 H 85.8674 3.77216 0.227284 0
M  V30 765 H 86.1804 7.72633 -0.160882 0
M  V30 766 H 84.5254 6.94864 -0.137737 0
M  V30 767 H 87.7164 4.67684 0.197388 0
M  V30 768 H 87.8894 6.47997 0.0206089 0
M  V30 769 N 81.2955 -0.223234 1.56011 0
M  V30 770 C 82.7115 -0.572856 1.48965 0
M  V30 771 C 82.9115 -1.87225 0.74492 0
M  V30 772 O 81.9675 -2.50899 0.283896 0
M  V30 773 C 83.2805 -0.653646 2.9351 0
M  V30 774 C 84.8285 -0.744386 3.0402 0
M  V30 775 C 85.3035 -0.856535 4.49919 0
M  V30 776 N 86.7945 -0.9208 4.53955 0
M  V30 777 C 87.5295 -1.02726 5.64123 0
M  V30 778 N 87.0255 -1.09777 6.84047 0
M  V30 779 N 88.8185 -1.06226 5.51971 0
M  V30 780 H 80.9695 0.629462 2.02858 0
M  V30 781 H 83.2325 0.220621 0.921971 0
M  V30 782 H 82.9385 0.231518 3.50937 0
M  V30 783 H 82.8125 -1.51781 3.45315 0
M  V30 784 H 85.1995 -1.61999 2.46658 0
M  V30 785 H 85.2805 0.14541 2.55386 0
M  V30 786 H 84.9245 0.0146069 5.07898 0
M  V30 787 H 84.8545 -1.76172 4.96257 0
M  V30 788 H 87.3455 -0.876694 3.6759 0
M  V30 789 H 87.6585 -1.17872 7.63758 0
M  V30 790 H 86.0035 -1.06693 6.86762 0
M  V30 791 H 89.1945 -1.00382 4.5721 0
M  V30 792 H 89.3675 -1.14177 6.37862 0
M  V30 793 N 82.7736 -1.49793 -0.48987 0
M  V30 794 C 83.9986 -1.63836 -1.27172 0
M  V30 795 C 84.4236 -0.31402 -1.8546 0
M  V30 796 O 83.7816 0.719803 -1.66399 0
M  V30 797 C 83.8296 -2.71797 -2.36978 0
M  V30 798 O 82.9336 -2.31744 -3.41128 0
M  V30 799 H 82.2746 -0.547997 -0.37496 0
M  V30 800 H 84.8046 -1.96053 -0.585191 0
M  V30 801 H 84.8146 -2.94305 -2.82575 0
M  V30 802 H 83.4896 -3.67923 -1.93921 0
M  V30 803 H 82.0666 -2.1961 -3.01373 0
M  V30 804 N 84.2517 0.741722 -1.39055 0
M  V30 805 C 85.4767 1.53607 -1.39354 0
M  V30 806 C 85.9017 1.88096 0.0116905 0
M  V30 807 O 85.2597 1.5143 0.996924 0
M  V30 808 C 85.3077 2.80441 -2.26682 0
M  V30 809 O 84.4117 3.76088 -1.69208 0
M  V30 810 H 83.7527 0.464142 -0.474835 0
M  V30 811 H 86.2827 0.915665 -1.82967 0
M  V30 812 H 86.2927 3.29246 -2.40959 0
M  V30 813 H 84.9677 2.5467 -3.2881 0
M  V30 814 H 83.5447 3.34833 -1.64138 0
M  V30 815 N 85.7298 1.2412 0.971189 0
M  V30 816 C 86.9548 1.10667 1.75407 0
M  V30 817 C 87.3798 -0.337048 1.85056 0
M  V30 818 O 86.7378 -1.24396 1.31892 0
M  V30 819 C 86.7858 1.74726 3.15441 0
M  V30 820 O 85.8898 1.01566 3.99697 0
M  V30 821 H 85.2308 0.387341 0.539317 0
M  V30 822 H 87.7608 1.64358 1.2185 0
M  V30 823 H 87.7708 1.80341 3.6598 0
M  V30 824 H 86.4458 2.79773 3.07734 0
M  V30 825 H 85.0228 1.03713 3.58187 0
M  V30 826 N 87.2079 -1.17134 1.05439 0
M  V30 827 C 88.6239 -1.39454 0.776201 0
M  V30 828 C 88.8239 -1.91454 -0.628307 0
M  V30 829 O 87.8799 -2.10777 -1.39031 0
M  V30 830 C 89.1929 -2.38305 1.83388 0
M  V30 831 C 90.7409 -2.52006 1.85639 0
M  V30 832 C 91.2159 -3.54133 2.90437 0
M  V30 833 N 92.7069 -3.61653 2.89415 0
M  V30 834 C 93.4419 -4.4044 3.67152 0
M  V30 835 N 92.9379 -5.22721 4.54681 0
M  V30 836 N 94.7309 -4.35337 3.55581 0
M  V30 837 H 86.8819 -0.817134 1.96053 0
M  V30 838 H 89.1449 -0.421626 0.849079 0
M  V30 839 H 88.8509 -2.07173 2.84204 0
M  V30 840 H 88.7249 -3.37841 1.67761 0
M  V30 841 H 91.1119 -2.82447 0.85486 0
M  V30 842 H 91.1929 -1.52537 2.05344 0
M  V30 843 H 90.8369 -3.24431 3.90777 0
M  V30 844 H 90.7669 -4.53313 2.67983 0
M  V30 845 H 93.2579 -3.02909 2.25952 0
M  V30 846 H 93.5709 -5.80027 5.10674 0
M  V30 847 H 91.9159 -5.22093 4.58741 0
M  V30 848 H 95.1069 -3.70112 2.86592 0
M  V30 849 H 95.2799 -4.96494 4.1641 0
M  V30 850 N 88.686 -0.835752 -1.33615 0
M  V30 851 C 89.911 -0.442389 -2.02627 0
M  V30 852 C 90.336 0.947735 -1.62479 0
M  V30 853 O 89.694 1.61907 -0.815826 0
M  V30 854 C 89.742 -0.567216 -3.56111 0
M  V30 855 O 88.846 0.407799 -4.10379 0
M  V30 856 H 88.187 -0.180278 -0.639059 0
M  V30 857 H 90.717 -1.12972 -1.70583 0
M  V30 858 H 90.727 -0.447708 -4.05536 0
M  V30 859 H 89.402 -1.58103 -3.84677 0
M  V30 860 H 87.979 0.246107 -3.72087 0
M  V30 861 N 90.1641 1.46063 -0.591896 0
M  V30 862 C 91.0971 2.27452 0.184617 0
M  V30 863 C 92.0751 1.36188 0.888351 0
M  V30 864 O 93.2591 1.65606 0.90039 0
M  V30 865 C 90.3861 3.14162 1.26571 0
M  V30 866 C 89.4321 4.21255 0.666814 0
M  V30 867 S 90.2651 5.33034 -0.513345 0
M  V30 868 C 91.4211 6.23311 0.56872 0
M  V30 869 H 91.6541 2.92963 -0.505939 0
M  V30 870 H 89.1871 1.49676 -0.379014 0
M  V30 871 H 91.1451 3.6468 1.88463 0
M  V30 872 H 89.8061 2.47946 1.92826 0
M  V30 873 H 88.9991 4.81788 1.47974 0
M  V30 874 H 88.6011 3.73797 0.123359 0
M  V30 875 H 90.8931 6.61758 1.45198 0
M  V30 876 H 91.8361 7.081 -7.23824e-05 0
M  V30 877 H 92.2441 5.57646 0.876996 0
M  V30 878 N 91.6422 0.330177 1.54103 0
M  V30 879 C 92.8672 -0.274893 2.0557 0
M  V30 880 C 93.2922 -1.44487 1.20437 0
M  V30 881 O 92.6502 -1.80021 0.214991 0
M  V30 882 C 92.6982 -0.68079 3.54115 0
M  V30 883 O 91.8022 -1.7824 3.71893 0
M  V30 884 H 91.1432 -0.0483849 0.662235 0
M  V30 885 H 93.6732 0.480508 1.98878 0
M  V30 886 H 93.6832 -0.961635 3.96505 0
M  V30 887 H 92.3582 0.174903 4.15532 0
M  V30 888 H 90.9352 -1.49985 3.41407 0
M  V30 889 N 93.1203 -1.57491 0.0584922 0
M  V30 890 C 94.5363 -1.56792 -0.298091 0
M  V30 891 C 94.7363 -1.06679 -1.70944 0
M  V30 892 O 93.7923 -0.726672 -2.41818 0
M  V30 893 C 95.1053 -3.00461 -0.119879 0
M  V30 894 C 96.6533 -3.1242 -0.190428 0
M  V30 895 C 97.1283 -4.57982 -0.0406567 0
M  V30 896 N 98.6193 -4.63099 -0.0966958 0
M  V30 897 C 99.3543 -5.734 -0.00502943 0
M  V30 898 N 98.8503 -6.9266 0.139402 0
M  V30 899 N 100.643 -5.62067 -0.0611391 0
M  V30 900 H 92.7943 -1.88386 0.98105 0
M  V30 901 H 95.0573 -0.867865 0.381463 0
M  V30 902 H 94.7633 -3.41187 0.85349 0
M  V30 903 H 94.6373 -3.66843 -0.877833 0
M  V30 904 H 97.0243 -2.71589 -1.15427 0
M  V30 905 H 97.1053 -2.48702 0.598405 0
M  V30 906 H 96.7493 -4.995 0.919897 0
M  V30 907 H 96.6793 -5.19715 -0.848727 0
M  V30 908 H 99.1703 -3.77331 -0.207277 0
M  V30 909 H 99.4833 -7.72536 0.201855 0
M  V30 910 H 97.8283 -6.94781 0.174586 0
M  V30 911 H 101.019 -4.67782 -0.172583 0
M  V30 912 H 101.192 -6.47999 0.0137562 0
M  V30 913 N 94.5984 0.214957 -1.56127 0
M  V30 914 C 95.8754 0.963093 -1.70247 0
M  V30 915 C 96.2554 2.02166 -0.60764 0
M  V30 916 O 95.6034 2.25244 0.384385 0
M  V30 917 C 95.8134 1.56756 -3.11815 0
M  V30 918 C 97.1614 2.0573 -3.7143 0
M  V30 919 O 98.1854 1.66637 -3.14818 0
M  V30 920 O 97.0444 2.77603 -4.70743 0
M  V30 921 H 94.1384 0.450321 -0.693643 0
M  V30 922 H 96.6844 0.206219 -1.68442 0
M  V30 923 H 95.4564 0.803533 -3.82961 0
M  V30 924 H 95.0794 2.3898 -3.17765 0
M  V30 925 N 96.0765 1.50051 0.48192 0
M  V30 926 C 97.0245 1.68635 1.60203 0
M  V30 927 C 98.0185 0.552184 1.60148 0
M  V30 928 O 99.2245 0.732377 1.64427 0
M  V30 929 H 95.5995 0.532081 0.531407 0
M  V30 930 H 97.5705 2.62616 1.41688 0
M  V30 931 C 96.3195 1.78775 2.9822 0
M  V30 932 H 95.6425 2.6543 2.98976 0
M  V30 933 H 97.0825 1.95806 3.7608 0
M  V30 934 C 95.5415 0.536849 3.32595 0
M  V30 935 O 96.0715 -0.328897 4.00351 0
M  V30 936 N 94.2775 0.394091 2.87915 0
M  V30 937 H 93.8245 1.09962 2.32951 0
M  V30 938 H 93.7825 -0.441737 3.11281 0
M  V30 939 N 97.5546 -0.734337 1.39446 0
M  V30 940 C 98.5016 -1.84835 1.38219 0
M  V30 941 C 99.4716 -1.64331 0.24179 0
M  V30 942 O 100.657 -1.85728 0.437002 0
M  V30 943 C 97.7966 -3.22355 1.23212 0
M  V30 944 C 96.9096 -3.5456 2.46801 0
M  V30 945 C 96.0446 -4.81485 2.24377 0
M  V30 946 C 95.0836 -5.06536 3.43639 0
M  V30 947 N 94.2206 -6.24665 3.20528 0
M  V30 948 H 99.0606 -1.85219 2.33448 0
M  V30 949 H 96.5976 -0.905039 1.15963 0
M  V30 950 H 98.5556 -4.0174 1.12522 0
M  V30 951 H 97.1856 -3.21248 0.316121 0
M  V30 952 H 96.2376 -2.69872 2.68092 0
M  V30 953 H 97.5496 -3.6899 3.3563 0
M  V30 954 H 96.7036 -5.68852 2.10933 0
M  V30 955 H 95.4426 -4.6923 1.32944 0
M  V30 956 H 94.4476 -4.17632 3.5758 0
M  V30 957 H 95.6726 -5.20676 4.35974 0
M  V30 958 H 93.6186 -6.13696 2.3176 0
M  V30 959 H 93.5356 -6.39685 4.02913 0
M  V30 960 H 94.8036 -7.14868 3.10779 0
M  V30 961 N 99.0327 -1.24633 -0.964593 0
M  V30 962 C 100.28 -1.08788 -1.70796 0
M  V30 963 C 100.608 0.372783 -1.90894 0
M  V30 964 O 99.8627 1.29167 -1.47018 0
M  V30 965 C 100.162 -1.7763 -3.10133 0
M  V30 966 C 99.8277 -3.27557 -3.09866 0
M  V30 967 C 98.4897 -3.6846 -3.09501 0
M  V30 968 C 100.842 -4.23389 -3.03959 0
M  V30 969 C 98.1697 -5.03624 -3.00965 0
M  V30 970 C 100.522 -5.58565 -2.96965 0
M  V30 971 C 99.1857 -5.98809 -2.9493 0
M  V30 972 H 98.4557 -0.398084 -0.624988 0
M  V30 973 H 101.103 -1.54777 -1.12767 0
M  V30 974 H 99.4077 -1.24044 -3.71645 0
M  V30 975 H 101.105 -1.62832 -3.66451 0
M  V30 976 H 97.6947 -2.95006 -3.10917 0
M  V30 977 H 101.879 -3.92787 -3.03368 0
M  V30 978 H 97.1347 -5.33998 -2.97752 0
M  V30 979 H 101.309 -6.32523 -2.91354 0
M  V30 980 H 98.9357 -7.03505 -2.88071 0
M  V30 981 N 100.511 1.16574 -1.06058 0
M  V30 982 C 101.736 1.91493 -0.796562 0
M  V30 983 C 102.161 1.76773 0.642868 0
M  V30 984 O 101.519 1.09142 1.44768 0
M  V30 985 C 101.567 3.40293 -1.19303 0
M  V30 986 O 100.671 4.11074 -0.330394 0
M  V30 987 H 100.012 0.596678 -0.291326 0
M  V30 988 H 102.542 1.47708 -1.41575 0
M  V30 989 H 102.552 3.91057 -1.16356 0
M  V30 990 H 101.227 3.50326 -2.24153 0
M  V30 991 H 99.8038 3.70513 -0.421225 0
M  V30 992 N 101.989 0.842826 1.3317 0
M  V30 993 C 102.936 0.276885 2.29133 0
M  V30 994 C 103.906 -0.609527 1.54512 0
M  V30 995 O 105.091 -0.546955 1.82792 0
M  V30 996 C 102.231 -0.538707 3.40869 0
M  V30 997 C 101.344 0.372169 4.30394 0
M  V30 998 C 100.479 -0.454908 5.29249 0
M  V30 999 C 99.5179 0.45411 6.10413 0
M  V30 1000 N 98.6549 -0.335075 7.013 0
M  V30 1001 H 103.495 1.10052 2.76934 0
M  V30 1002 H 101.032 0.554161 1.36262 0
M  V30 1003 H 102.99 -1.02709 4.0436 0
M  V30 1004 H 101.62 -1.32727 2.9425 0
M  V30 1005 H 100.672 0.97888 3.6759 0
M  V30 1006 H 101.984 1.0703 4.87182 0
M  V30 1007 H 101.138 -1.00695 5.98285 0
M  V30 1008 H 99.8769 -1.18646 4.73048 0
M  V30 1009 H 98.8819 1.01813 5.40291 0
M  V30 1010 H 100.107 1.18409 6.68697 0
M  V30 1011 H 98.0529 -1.04994 6.47543 0
M  V30 1012 H 97.9699 0.304262 7.55387 0
M  V30 1013 H 99.2379 -0.869224 7.74638 0
M  V30 1014 N 103.467 -1.45747 0.599634 0
M  V30 1015 C 104.414 -2.30467 -0.123849 0
M  V30 1016 C 105.384 -1.41632 -0.86774 0
M  V30 1017 O 106.569 -1.70568 -0.855056 0
M  V30 1018 C 103.709 -3.26402 -1.12051 0
M  V30 1019 C 102.822 -4.3034 -0.37832 0
M  V30 1020 C 101.957 -5.13389 -1.364 0
M  V30 1021 C 100.996 -6.09061 -0.609171 0
M  V30 1022 N 100.133 -6.84918 -1.54374 0
M  V30 1023 H 104.973 -2.91802 0.604627 0
M  V30 1024 H 102.51 -1.43797 0.309972 0
M  V30 1025 H 104.468 -3.80482 -1.7114 0
M  V30 1026 H 103.098 -2.66839 -1.8165 0
M  V30 1027 H 102.15 -3.78984 0.327929 0
M  V30 1028 H 103.462 -4.98354 0.210997 0
M  V30 1029 H 102.616 -5.7183 -2.02719 0
M  V30 1030 H 101.355 -4.45376 -1.98725 0
M  V30 1031 H 100.36 -5.49758 0.0676979 0
M  V30 1032 H 101.585 -6.79099 0.00891991 0
M  V30 1033 H 99.531 -6.19601 -2.15478 0
M  V30 1034 H 99.448 -7.49254 -1.00766 0
M  V30 1035 H 100.716 -7.47906 -2.19676 0
M  V30 1036 N 104.945 -0.338344 -1.53925 0
M  V30 1037 C 106.222 0.314774 -1.93051 0
M  V30 1038 C 106.602 1.68669 -1.26941 0
M  V30 1039 O 105.95 2.24636 -0.418445 0
M  V30 1040 C 106.16 0.392249 -3.46789 0
M  V30 1041 C 107.508 0.645554 -4.19664 0
M  V30 1042 O 108.532 0.474575 -3.53024 0
M  V30 1043 O 107.391 0.976408 -5.37707 0
M  V30 1044 H 104.485 0.182598 -0.80659 0
M  V30 1045 H 107.031 -0.389141 -1.65178 0
M  V30 1046 H 105.803 -0.570702 -3.87116 0
M  V30 1047 H 105.426 1.14316 -3.80812 0
M  V30 1048 N 106.423 1.57458 -0.0668435 0
M  V30 1049 C 107.663 1.95175 0.607116 0
M  V30 1050 C 108.027 0.946039 1.67075 0
M  V30 1051 O 109.228 1.2107 2.39991 0
M  V30 1052 C 107.499 3.37582 1.17358 0
M  V30 1053 S 109.058 3.97271 1.86336 0
M  V30 1054 H 105.876 0.682604 0.19893 0
M  V30 1055 H 108.478 1.95002 -0.139519 0
M  V30 1056 H 107.182 4.08566 0.387553 0
M  V30 1057 H 106.713 3.41288 1.95669 0
M  V30 1058 H 108.728 3.83772 3.14537 0
M  V30 1059 N 107.901 -0.206675 1.56239 0
M  V30 1060 C 108.831 -1.25909 1.96645 0
M  V30 1061 C 109.812 -1.48097 0.836734 0
M  V30 1062 O 110.997 -1.6003 1.10019 0
M  V30 1063 C 108.127 -2.6058 2.29599 0
M  V30 1064 C 107.081 -2.53024 3.452 0
M  V30 1065 C 106.407 -3.91861 3.63798 0
M  V30 1066 C 107.707 -2.06524 4.79734 0
M  V30 1067 H 109.401 -0.923369 2.84806 0
M  V30 1068 H 106.947 -0.442735 1.37025 0
M  V30 1069 H 108.9 -3.34375 2.56459 0
M  V30 1070 H 107.624 -2.95869 1.38307 0
M  V30 1071 H 106.283 -1.81684 3.18412 0
M  V30 1072 H 105.931 -4.24483 2.69857 0
M  V30 1073 H 105.631 -3.87683 4.4156 0
M  V30 1074 H 107.155 -4.67296 3.93022 0
M  V30 1075 H 108.569 -2.70072 5.05702 0
M  V30 1076 H 106.966 -2.13374 5.60885 0
M  V30 1077 H 108.036 -1.01802 4.74093 0
M  V30 1078 N 109.379 -1.50304 -0.473955 0
M  V30 1079 C 110.604 -1.65175 -1.25427 0
M  V30 1080 C 111.029 -0.333673 -1.85117 0
M  V30 1081 O 110.387 0.702114 -1.67153 0
M  V30 1082 C 110.435 -2.74295 -2.34082 0
M  V30 1083 O 109.539 -2.35349 -3.38651 0
M  V30 1084 H 108.88 -0.551944 -0.369126 0
M  V30 1085 H 111.41 -1.96662 -0.564364 0
M  V30 1086 H 111.42 -2.97285 -2.79438 0
M  V30 1087 H 110.095 -3.69959 -1.90008 0
M  V30 1088 H 108.672 -2.22794 -2.99027 0
M  V30 1089 N 110.857 0.726932 -1.39834 0
M  V30 1090 C 112.106 1.48214 -1.36805 0
M  V30 1091 C 112.419 1.95576 0.0305291 0
M  V30 1092 O 113.625 2.7088 0.183417 0
M  V30 1093 C 112.081 2.67854 -2.40379 0
M  V30 1094 C 111.689 2.27408 -3.85992 0
M  V30 1095 C 113.433 3.45641 -2.46439 0
M  V30 1096 C 111.34 3.43819 -4.81189 0
M  V30 1097 H 110.27 0.556606 -0.508631 0
M  V30 1098 H 112.921 0.792216 -1.65518 0
M  V30 1099 H 111.303 3.3896 -2.04749 0
M  V30 1100 H 112.477 1.63795 -4.30706 0
M  V30 1101 H 110.792 1.62692 -3.83302 0
M  V30 1102 H 113.389 4.32244 -3.14753 0
M  V30 1103 H 113.732 3.88669 -1.49139 0
M  V30 1104 H 114.265 2.8157 -2.81004 0
M  V30 1105 H 111.004 3.05834 -5.79781 0
M  V30 1106 H 110.524 4.06385 -4.41148 0
M  V30 1107 H 112.203 4.10043 -5.00474 0
M  V30 1108 N 112.336 1.25143 0.95797 0
M  V30 1109 C 113.752 1.01892 1.22842 0
M  V30 1110 C 113.952 -0.266311 1.99732 0
M  V30 1111 O 113.008 -0.979913 2.3271 0
M  V30 1112 C 114.321 2.24004 2.00606 0
M  V30 1113 C 115.869 2.28731 2.13662 0
M  V30 1114 C 116.344 3.5049 2.94823 0
M  V30 1115 N 117.835 3.50866 3.02403 0
M  V30 1116 C 118.57 4.4174 3.65586 0
M  V30 1117 N 118.066 5.42882 4.30408 0
M  V30 1118 N 119.859 4.29429 3.62694 0
M  V30 1119 H 112.01 2.07718 0.443493 0
M  V30 1120 H 114.273 0.912031 0.258657 0
M  V30 1121 H 113.979 3.17395 1.51503 0
M  V30 1122 H 113.853 2.26907 3.01319 0
M  V30 1123 H 116.24 1.35865 2.61963 0
M  V30 1124 H 116.321 2.29848 1.12265 0
M  V30 1125 H 115.965 4.43676 2.47213 0
M  V30 1126 H 115.895 3.46617 3.96439 0
M  V30 1127 H 118.386 2.777 2.56302 0
M  V30 1128 H 118.699 6.0844 4.76467 0
M  V30 1129 H 117.044 5.46758 4.29047 0
M  V30 1130 H 120.235 3.49643 3.11236 0
M  V30 1131 H 120.408 5.00448 4.1165 0
M  V30 1132 N 113.814 -1.1601 1.06675 0
M  V30 1133 C 114.762 -2.22586 0.675157 0
M  V30 1134 C 115.756 -1.66525 -0.310766 0
M  V30 1135 O 116.962 -1.79145 -0.175215 0
M  V30 1136 H 113.337 -0.724855 0.200223 0
M  V30 1137 H 115.308 -2.52899 1.58381 0
M  V30 1138 C 114.057 -3.47604 0.0817162 0
M  V30 1139 H 113.38 -3.91058 0.831484 0
M  V30 1140 H 114.82 -4.23718 -0.154708 0
M  V30 1141 C 113.279 -3.15718 -1.17576 0
M  V30 1142 O 113.809 -3.31878 -2.26318 0
M  V30 1143 N 112.015 -2.69816 -1.07923 0
M  V30 1144 H 111.562 -2.56866 -0.194293 0
M  V30 1145 H 111.52 -2.48855 -1.92141 0
M  V30 1146 N 115.292 -0.849877 -1.32721 0
M  V30 1147 C 116.538 -0.451591 -1.97708 0
M  V30 1148 C 116.871 0.989175 -1.6712 0
M  V30 1149 O 116.146 1.69334 -0.956891 0
M  V30 1150 C 116.429 -0.685598 -3.53513 0
M  V30 1151 C 116.282 -2.17444 -3.93749 0
M  V30 1152 C 117.601 -0.138874 -4.39881 0
M  V30 1153 H 114.72 -0.16555 -0.718166 0
M  V30 1154 H 117.362 -1.06742 -1.57182 0
M  V30 1155 H 115.512 -0.161416 -3.88165 0
M  V30 1156 H 117.184 -2.76433 -3.693 0
M  V30 1157 H 115.427 -2.65476 -3.43081 0
M  V30 1158 H 116.098 -2.28888 -5.02309 0
M  V30 1159 H 118.574 -0.587068 -4.11938 0
M  V30 1160 H 117.45 -0.332213 -5.47894 0
M  V30 1161 H 117.711 0.95806 -4.31594 0
M  V30 1162 N 116.77 1.45427 -0.607355 0
M  V30 1163 C 118.016 2.0254 -0.102607 0
M  V30 1164 C 118.349 1.47478 1.26348 0
M  V30 1165 O 117.624 0.64939 1.83339 0
M  V30 1166 C 117.907 3.60044 -0.0634347 0
M  V30 1167 C 117.76 4.2544 -1.46017 0
M  V30 1168 C 119.079 4.35646 0.624514 0
M  V30 1169 H 116.198 0.73598 -0.0387607 0
M  V30 1170 H 118.84 1.73284 -0.779282 0
M  V30 1171 H 116.99 3.85101 0.512808 0
M  V30 1172 H 118.662 4.11569 -2.08347 0
M  V30 1173 H 116.905 3.83849 -2.02094 0
M  V30 1174 H 117.576 5.34342 -1.385 0
M  V30 1175 H 120.052 4.15882 0.134723 0
M  V30 1176 H 118.928 5.45376 0.621028 0
M  V30 1177 H 119.189 4.08501 1.69055 0
M  V30 1178 N 118.248 0.346503 1.53744 0
M  V30 1179 C 119.211 -0.496439 2.23759 0
M  V30 1180 C 120.211 -1.0252 1.2388 0
M  V30 1181 O 121.401 -0.913974 1.48297 0
M  V30 1182 C 118.533 -1.69187 2.95954 0
M  V30 1183 H 119.726 0.115952 2.99676 0
M  V30 1184 H 117.279 0.0978939 1.55993 0
M  V30 1185 H 118.014 -2.34288 2.24231 0
M  V30 1186 H 117.799 -1.31989 3.69217 0
M  V30 1187 H 119.289 -2.28969 3.49232 0
M  V30 1188 N 119.726 -1.57421 0.075193 0
M  V30 1189 C 120.951 -1.98364 -0.605515 0
M  V30 1190 C 121.376 -0.953383 -1.62149 0
M  V30 1191 O 120.734 0.0806053 -1.81121 0
M  V30 1192 C 120.782 -3.38332 -1.24756 0
M  V30 1193 O 119.886 -3.37959 -2.36342 0
M  V30 1194 H 119.227 -0.645553 -0.155428 0
M  V30 1195 H 121.757 -2.04044 0.150714 0
M  V30 1196 H 121.767 -3.75591 -1.5936 0
M  V30 1197 H 120.442 -4.12846 -0.503129 0
M  V30 1198 H 119.019 -3.12474 -2.03506 0
M  V30 1199 N 121.204 0.198386 -1.56346 0
M  V30 1200 C 122.453 0.917451 -1.79627 0
M  V30 1201 C 122.766 1.8456 -0.64784 0
M  V30 1202 O 123.972 2.60504 -0.764859 0
M  V30 1203 C 122.428 1.68175 -3.18191 0
M  V30 1204 C 122.036 0.798589 -4.40825 0
M  V30 1205 C 123.78 2.39065 -3.50782 0
M  V30 1206 C 121.687 1.56157 -5.70411 0
M  V30 1207 H 120.617 0.346317 -0.669762 0
M  V30 1208 H 123.268 0.170801 -1.82703 0
M  V30 1209 H 121.65 2.47216 -3.09354 0
M  V30 1210 H 122.824 0.0470665 -4.60776 0
M  V30 1211 H 121.139 0.200686 -4.15916 0
M  V30 1212 H 123.736 2.96692 -4.44835 0
M  V30 1213 H 124.079 3.13091 -2.74371 0
M  V30 1214 H 124.612 1.66993 -3.61052 0
M  V30 1215 H 121.351 0.864142 -6.49779 0
M  V30 1216 H 120.871 2.2871 -5.54483 0
M  V30 1217 H 122.55 2.11622 -6.11412 0
M  V30 1218 N 122.682 1.50554 0.465978 0
M  V30 1219 C 123.614 1.65949 1.58093 0
M  V30 1220 C 124.627 0.540827 1.53554 0
M  V30 1221 O 125.816 0.814187 1.5885 0
M  V30 1222 C 122.916 1.63261 2.96983 0
M  V30 1223 C 122.089 2.91245 3.26336 0
M  V30 1224 C 121.148 2.8113 4.44806 0
M  V30 1225 O 120.174 3.55086 4.44862 0
M  V30 1226 N 121.376 1.95032 5.46756 0
M  V30 1227 H 124.141 2.62122 1.45301 0
M  V30 1228 H 121.702 1.48082 0.65448 0
M  V30 1229 H 123.694 1.54101 3.74212 0
M  V30 1230 H 122.264 0.748032 3.03518 0
M  V30 1231 H 121.484 3.14493 2.37672 0
M  V30 1232 H 122.772 3.76022 3.42761 0
M  V30 1233 H 122.17 1.3427 5.49534 0
M  V30 1234 H 120.727 1.91772 6.2295 0
M  V30 1235 N 124.16 -0.719506 1.40217 0
M  V30 1236 C 125.388 -1.50864 1.41589 0
M  V30 1237 C 125.803 -1.88794 0.0145275 0
M  V30 1238 O 125.16 -1.55174 -0.960594 0
M  V30 1239 C 125.211 -2.78646 2.30302 0
M  V30 1240 O 124.932 -2.42321 3.64983 0
M  V30 1241 C 126.433 -3.72569 2.40224 0
M  V30 1242 H 123.653 -0.465709 0.48307 0
M  V30 1243 H 126.197 -0.88785 1.84221 0
M  V30 1244 H 124.352 -3.37019 1.91042 0
M  V30 1245 H 124.766 -3.24514 4.12057 0
M  V30 1246 H 126.24 -4.5908 3.06512 0
M  V30 1247 H 126.717 -4.15403 1.42608 0
M  V30 1248 H 127.323 -3.20109 2.80019 0
M  V30 1249 N 125.638 -1.25649 -0.95132 0
M  V30 1250 C 126.585 -1.06323 -2.04851 0
M  V30 1251 C 127.555 0.0286491 -1.66075 0
M  V30 1252 O 128.74 -0.12917 -1.90362 0
M  V30 1253 C 125.88 -0.691529 -3.381 0
M  V30 1254 C 124.993 -1.85861 -3.89974 0
M  V30 1255 C 124.128 -1.43096 -5.11563 0
M  V30 1256 C 123.167 -2.56696 -5.55674 0
M  V30 1257 N 122.304 -2.14684 -6.68472 0
M  V30 1258 H 127.144 -2.00222 -2.20715 0
M  V30 1259 H 124.681 -0.997027 -1.08156 0
M  V30 1260 H 126.639 -0.456963 -4.1469 0
M  V30 1261 H 125.269 0.210474 -3.22113 0
M  V30 1262 H 124.321 -2.20639 -3.09875 0
M  V30 1263 H 125.633 -2.71161 -4.18657 0
M  V30 1264 H 124.787 -1.15624 -5.9558 0
M  V30 1265 H 123.526 -0.548722 -4.84603 0
M  V30 1266 H 122.531 -2.84909 -4.7022 0
M  V30 1267 H 123.756 -3.45503 -5.8464 0
M  V30 1268 H 121.702 -1.28881 -6.43215 0
M  V30 1269 H 121.619 -2.9353 -6.96689 0
M  V30 1270 H 122.887 -1.90397 -7.5589 0
M  V30 1271 N 127.117 1.15442 -1.07289 0
M  V30 1272 C 128.027 2.23786 -0.704057 0
M  V30 1273 C 129.043 1.7166 0.284413 0
M  V30 1274 O 130.219 2.00972 0.131205 0
M  V30 1275 C 127.284 3.46535 -0.106792 0
M  V30 1276 C 126.345 4.13654 -1.14842 0
M  V30 1277 C 125.578 5.30544 -0.57956 0
M  V30 1278 O 125.801 5.67187 0.604585 0
M  V30 1279 O 124.735 5.87154 -1.32414 0
M  V30 1280 H 128.561 2.57664 -1.60757 0
M  V30 1281 H 126.146 1.23152 -0.845803 0
M  V30 1282 H 128.028 4.20804 0.224048 0
M  V30 1283 H 126.703 3.14407 0.770049 0
M  V30 1284 H 125.61 3.4131 -1.5316 0
M  V30 1285 H 126.943 4.49861 -1.99714 0
M  V30 1286 N 128.595 0.856903 1.32268 0
M  V30 1287 C 129.843 0.460474 1.96784 0
M  V30 1288 C 130.164 -0.987701 1.68135 0
M  V30 1289 O 129.434 -1.69058 0.989765 0
M  V30 1290 H 128.014 0.167289 0.728027 0
M  V30 1291 H 130.676 1.09383 1.61312 0
M  V30 1292 H 129.772 0.60739 3.06133 0
M  V30 1293 N 130.073 -1.45103 0.615059 0
M  V30 1294 C 131.003 -2.33339 -0.0865619 0
M  V30 1295 C 131.984 -1.4727 -0.851209 0
M  V30 1296 O 133.169 -1.76026 -0.820281 0
M  V30 1297 C 130.299 -3.30095 -1.07956 0
M  V30 1298 C 129.253 -4.25858 -0.427628 0
M  V30 1299 C 128.579 -5.12361 -1.5294 0
M  V30 1300 C 129.879 -5.18165 0.655944 0
M  V30 1301 H 131.573 -2.92254 0.650224 0
M  V30 1302 H 129.119 -1.40532 0.314138 0
M  V30 1303 H 131.072 -3.90698 -1.57901 0
M  V30 1304 H 129.796 -2.69355 -1.84703 0
M  V30 1305 H 128.455 -3.66564 0.0510292 0
M  V30 1306 H 128.103 -4.47984 -2.28734 0
M  V30 1307 H 127.803 -5.77238 -1.09865 0
M  V30 1308 H 129.327 -5.75833 -2.03098 0
M  V30 1309 H 130.741 -5.72796 0.240257 0
M  V30 1310 H 129.138 -5.91559 1.00888 0
M  V30 1311 H 130.208 -4.60144 1.52957 0
M  V30 1312 N 131.551 -0.354651 -1.53558 0
M  V30 1313 C 132.499 0.512195 -2.26891 0
M  V30 1314 C 133.493 1.09263 -1.29452 0
M  V30 1315 O 134.699 1.03709 -1.47121 0
M  V30 1316 H 131.074 0.183878 -0.729173 0
M  V30 1317 H 133.045 -0.128202 -2.98124 0
M  V30 1318 C 131.794 1.64563 -3.06291 0
M  V30 1319 H 131.117 1.20829 -3.81104 0
M  V30 1320 H 132.557 2.22711 -3.60799 0
M  V30 1321 C 131.016 2.58158 -2.16462 0
M  V30 1322 O 131.546 3.60695 -1.76811 0
M  V30 1323 N 129.752 2.27096 -1.81317 0
M  V30 1324 H 129.299 1.43751 -2.1376 0
M  V30 1325 H 129.257 2.89975 -1.21498 0
M  V30 1326 N 133.029 1.57378 -0.0835403 0
M  V30 1327 C 133.959 2.1641 0.87686 0
M  V30 1328 C 134.94 1.09429 1.30228 0
M  V30 1329 O 136.125 1.37516 1.37124 0
M  V30 1330 C 133.255 2.73517 2.14022 0
M  V30 1331 C 132.209 3.85769 1.85381 0
M  V30 1332 C 131.535 4.29529 3.18448 0
M  V30 1333 C 132.835 5.09486 1.14984 0
M  V30 1334 H 134.529 2.96914 0.385059 0
M  V30 1335 H 132.075 1.42823 0.18377 0
M  V30 1336 H 134.028 3.13463 2.81636 0
M  V30 1337 H 132.752 1.90252 2.65465 0
M  V30 1338 H 131.411 3.46345 1.20169 0
M  V30 1339 H 131.059 3.43169 3.67755 0
M  V30 1340 H 130.759 5.05204 3.00071 0
M  V30 1341 H 132.283 4.72099 3.8724 0
M  V30 1342 H 133.697 5.46674 1.72687 0
M  V30 1343 H 132.094 5.90515 1.06826 0
M  V30 1344 H 133.164 4.84724 0.130749 0
M  V30 1345 N 134.507 -0.190092 1.56449 0
M  V30 1346 C 135.454 -1.23557 1.94942 0
M  V30 1347 C 136.424 -1.44972 0.810696 0
M  V30 1348 O 137.609 -1.58023 1.06927 0
M  V30 1349 C 134.749 -2.57416 2.2985 0
M  V30 1350 C 133.862 -2.43537 3.5681 0
M  V30 1351 C 132.997 -3.70134 3.81017 0
M  V30 1352 C 132.036 -3.51109 5.01387 0
M  V30 1353 N 131.173 -4.6973 5.21822 0
M  V30 1354 H 136.013 -0.900304 2.84075 0
M  V30 1355 H 133.55 -0.43318 1.40577 0
M  V30 1356 H 135.508 -3.35409 2.48106 0
M  V30 1357 H 134.138 -2.88975 1.43852 0
M  V30 1358 H 133.19 -1.56816 3.46573 0
M  V30 1359 H 134.502 -2.25415 4.4496 0
M  V30 1360 H 133.656 -4.56566 3.9954 0
M  V30 1361 H 132.395 -3.91215 2.91207 0
M  V30 1362 H 131.4 -2.63063 4.82782 0
M  V30 1363 H 132.625 -3.31468 5.9271 0
M  V30 1364 H 130.571 -4.91065 4.34961 0
M  V30 1365 H 130.488 -4.54452 6.0416 0
M  V30 1366 H 131.756 -5.57499 5.44808 0
M  V30 1367 N 135.985 -1.50799 -0.457987 0
M  V30 1368 C 136.915 -1.73553 -1.5621 0
M  V30 1369 C 137.896 -0.584774 -1.59732 0
M  V30 1370 O 139.081 -0.825314 -1.7579 0
M  V30 1371 C 136.211 -1.84169 -2.94447 0
M  V30 1372 C 135.165 -2.99461 -3.0579 0
M  V30 1373 C 134.491 -2.95235 -4.45803 0
M  V30 1374 C 135.791 -4.39766 -2.81786 0
M  V30 1375 H 137.485 -2.66 -1.37421 0
M  V30 1376 H 135.031 -1.28002 -0.659662 0
M  V30 1377 H 136.984 -1.98672 -3.71628 0
M  V30 1378 H 135.708 -0.883545 -3.14422 0
M  V30 1379 H 134.367 -2.8463 -2.31044 0
M  V30 1380 H 134.015 -1.97239 -4.62715 0
M  V30 1381 H 133.715 -3.72642 -4.54326 0
M  V30 1382 H 135.239 -3.11803 -5.24987 0
M  V30 1383 H 136.653 -4.55054 -3.4871 0
M  V30 1384 H 135.05 -5.18722 -3.0174 0
M  V30 1385 H 136.12 -4.51229 -1.7754 0
M  V30 1386 N 137.463 0.71206 -1.40597 0
M  V30 1387 C 138.712 1.46754 -1.38369 0
M  V30 1388 C 139.025 1.95598 0.0097839 0
M  V30 1389 O 140.231 2.71059 0.154677 0
M  V30 1390 C 138.687 2.65289 -2.43207 0
M  V30 1391 C 138.295 2.23301 -3.88382 0
M  V30 1392 C 140.039 3.43008 -2.50091 0
M  V30 1393 C 137.946 3.38696 -4.84808 0
M  V30 1394 H 136.876 0.55118 -0.514506 0
M  V30 1395 H 139.527 0.774616 -1.66349 0
M  V30 1396 H 137.909 3.36769 -2.08332 0
M  V30 1397 H 139.083 1.59218 -4.32419 0
M  V30 1398 H 137.398 1.58618 -3.85006 0
M  V30 1399 H 139.995 4.28881 -3.1932 0
M  V30 1400 H 140.338 3.87065 -1.53253 0
M  V30 1401 H 140.871 2.78574 -2.83974 0
M  V30 1402 H 137.61 2.99668 -5.82992 0
M  V30 1403 H 137.13 4.01683 -4.45433 0
M  V30 1404 H 138.809 4.04712 -5.04794 0
M  V30 1405 N 138.941 1.26152 0.944643 0
M  V30 1406 C 140.166 1.14363 1.7302 0
M  V30 1407 C 140.591 -0.29772 1.85729 0
M  V30 1408 O 139.949 -1.2157 1.34501 0
M  V30 1409 C 139.997 1.81378 3.11664 0
M  V30 1410 O 139.101 1.10022 3.97453 0
M  V30 1411 H 138.442 0.398694 0.53098 0
M  V30 1412 H 140.972 1.66906 1.18337 0
M  V30 1413 H 140.982 1.88064 3.62072 0
M  V30 1414 H 139.657 2.86237 3.0173 0
M  V30 1415 H 138.234 1.11287 3.55907 0
M  V30 1416 N 140.419 -1.14872 1.07899 0
M  V30 1417 C 141.667 -1.85422 0.803941 0
M  V30 1418 C 141.988 -1.83051 -0.67211 0
M  V30 1419 O 141.258 -1.27532 -1.48703 0
M  V30 1420 H 139.838 -0.686537 0.294408 0
M  V30 1421 H 142.5 -1.39226 1.3639 0
M  V30 1422 H 141.596 -2.90399 1.14346 0
M  V30 1423 N 141.898 -0.863906 -1.31812 0
M  V30 1424 C 143.175 -0.39275 -1.91616 0
M  V30 1425 C 143.555 1.12461 -1.7865 0
M  V30 1426 O 142.903 1.95045 -1.19037 0
M  V30 1427 C 143.113 -0.867385 -3.38049 0
M  V30 1428 C 144.461 -0.889966 -4.15168 0
M  V30 1429 O 145.485 -0.812635 -3.46806 0
M  V30 1430 O 144.344 -1.00079 -5.37258 0
M  V30 1431 H 141.438 -0.116358 -0.818773 0
M  V30 1432 H 143.984 -0.951418 -1.40521 0
M  V30 1433 H 142.756 -1.91081 -3.41473 0
M  V30 1434 H 142.379 -0.286687 -3.96565 0
M  V30 1435 N 143.376 1.44774 -0.622745 0
M  V30 1436 C 144.622 2.0242 -0.124083 0
M  V30 1437 C 144.955 1.4881 1.24777 0
M  V30 1438 O 144.23 0.668799 1.8264 0
M  V30 1439 C 144.513 3.59957 -0.101619 0
M  V30 1440 C 144.366 4.23867 -1.50521 0
M  V30 1441 C 145.685 4.36284 0.578272 0
M  V30 1442 H 142.804 0.735528 -0.0465645 0
M  V30 1443 H 145.446 1.72447 -0.797617 0
M  V30 1444 H 143.596 3.85623 0.471934 0
M  V30 1445 H 145.268 4.09336 -2.12701 0
M  V30 1446 H 143.511 3.81684 -2.06154 0
M  V30 1447 H 144.182 5.32843 -1.4416 0
M  V30 1448 H 146.658 4.16001 0.0906057 0
M  V30 1449 H 145.534 5.46004 0.563149 0
M  V30 1450 H 145.795 4.10271 1.64713 0
M  V30 1451 N 144.854 0.36279 1.53368 0
M  V30 1452 C 145.784 -0.476976 2.28576 0
M  V30 1453 C 146.765 -1.08631 1.30894 0
M  V30 1454 O 147.95 -1.10409 1.59761 0
M  V30 1455 C 145.08 -1.61828 3.07293 0
M  V30 1456 C 144.034 -1.13633 4.1264 0
M  V30 1457 C 143.36 -2.36766 4.79423 0
M  V30 1458 C 144.66 -0.223061 5.21823 0
M  V30 1459 H 146.354 0.150474 2.99022 0
M  V30 1460 H 143.9 0.0738103 1.43811 0
M  V30 1461 H 145.853 -2.21237 3.58653 0
M  V30 1462 H 144.577 -2.27292 2.34533 0
M  V30 1463 H 143.236 -0.564945 3.62221 0
M  V30 1464 H 142.884 -3.0068 4.03238 0
M  V30 1465 H 142.584 -2.05192 5.50609 0
M  V30 1466 H 144.108 -2.96865 5.33576 0
M  V30 1467 H 145.522 -0.724545 5.68703 0
M  V30 1468 H 143.919 0.001678 6.001 0
M  V30 1469 H 144.989 0.735553 4.79289 0
M  V30 1470 N 146.332 -1.57332 0.0918853 0
M  V30 1471 C 147.562 -1.98286 -0.580205 0
M  V30 1472 C 147.97 -0.969713 -1.6246 0
M  V30 1473 O 147.313 0.0493501 -1.83634 0
M  V30 1474 C 147.375 -3.35603 -1.28882 0
M  V30 1475 C 147.039 -4.55285 -0.395559 0
M  V30 1476 C 148.036 -5.18687 0.355002 0
M  V30 1477 C 145.721 -5.01314 -0.314556 0
M  V30 1478 C 147.715 -6.26484 1.17458 0
M  V30 1479 C 145.402 -6.08979 0.508677 0
M  V30 1480 C 146.4 -6.71429 1.2519 0
M  V30 1481 O 146.088 -7.77018 2.06151 0
M  V30 1482 H 145.82 -0.656678 -0.160466 0
M  V30 1483 H 148.374 -2.04721 0.16688 0
M  V30 1484 H 146.604 -3.25842 -2.08241 0
M  V30 1485 H 148.293 -3.61026 -1.85512 0
M  V30 1486 H 149.059 -4.84058 0.302134 0
M  V30 1487 H 144.938 -4.5247 -0.882697 0
M  V30 1488 H 148.482 -6.75159 1.75518 0
M  V30 1489 H 144.379 -6.4304 0.563037 0
M  V30 1490 H 145.147 -7.93991 1.98799 0
M  V30 1491 N 147.81 0.181792 -1.56548 0
M  V30 1492 C 149.059 0.898348 -1.8059 0
M  V30 1493 C 149.372 1.83862 -0.667379 0
M  V30 1494 O 150.578 2.59678 -0.792446 0
M  V30 1495 C 149.034 1.64791 -3.19956 0
M  V30 1496 C 148.642 0.751789 -4.41647 0
M  V30 1497 C 150.386 2.35331 -3.53298 0
M  V30 1498 C 148.293 1.50098 -5.72035 0
M  V30 1499 H 147.223 0.339194 -0.673397 0
M  V30 1500 H 149.874 0.151413 -1.82874 0
M  V30 1501 H 148.256 2.43921 -3.11959 0
M  V30 1502 H 149.43 -0.0018076 -4.608 0
M  V30 1503 H 147.745 0.156562 -4.16106 0
M  V30 1504 H 150.342 2.91958 -4.47956 0
M  V30 1505 H 150.685 3.10164 -2.77676 0
M  V30 1506 H 151.218 1.63154 -3.62803 0
M  V30 1507 H 147.957 0.795175 -6.50659 0
M  V30 1508 H 147.477 2.22817 -5.56878 0
M  V30 1509 H 149.156 2.05125 -6.13622 0
M  V30 1510 N 149.288 1.51039 0.449983 0
M  V30 1511 C 150.534 1.64287 1.19923 0
M  V30 1512 C 150.889 0.348701 1.89214 0
M  V30 1513 O 150.182 -0.654751 1.80065 0
M  V30 1514 C 150.376 2.77556 2.25161 0
M  V30 1515 C 150.205 4.17862 1.66198 0
M  V30 1516 C 148.975 4.83976 1.45243 0
M  V30 1517 C 151.173 5.01388 1.14519 0
M  V30 1518 N 149.155 6.08433 0.817437 0
M  V30 1519 C 150.526 6.16743 0.634705 0
M  V30 1520 C 152.581 4.87008 1.03574 0
M  V30 1521 C 151.284 7.19295 0.0255452 0
M  V30 1522 C 153.31 5.89757 0.440489 0
M  V30 1523 C 152.672 7.04375 -0.0595112 0
M  V30 1524 H 148.771 0.655161 0.426952 0
M  V30 1525 H 151.355 1.88228 0.49781 0
M  V30 1526 H 149.526 2.553 2.92706 0
M  V30 1527 H 151.258 2.80049 2.92155 0
M  V30 1528 H 148.013 4.41627 1.71063 0
M  V30 1529 H 148.437 6.75017 0.517747 0
M  V30 1530 H 153.079 3.9866 1.4082 0
M  V30 1531 H 150.797 8.07302 -0.359071 0
M  V30 1532 H 154.383 5.80698 0.35788 0
M  V30 1533 H 153.263 7.82521 -0.512882 0
M  V30 1534 N 150.766 -0.704594 1.40972 0
M  V30 1535 C 151.729 -1.80035 1.41845 0
M  V30 1536 C 152.729 -1.57774 0.310474 0
M  V30 1537 O 153.919 -1.64613 0.56992 0
M  V30 1538 C 151.051 -3.18284 1.22098 0
M  V30 1539 H 152.244 -1.80658 2.3938 0
M  V30 1540 H 149.797 -0.911329 1.26982 0
M  V30 1541 H 150.532 -3.23306 0.253672 0
M  V30 1542 H 150.317 -3.35843 2.02366 0
M  V30 1543 H 151.807 -3.98289 1.25522 0
M  V30 1544 N 152.244 -1.26651 -0.937939 0
M  V30 1545 C 153.521 -1.0313 -1.66204 0
M  V30 1546 C 153.901 0.437256 -2.06522 0
M  V30 1547 O 153.249 1.41831 -1.79154 0
M  V30 1548 C 153.459 -1.98314 -2.87181 0
M  V30 1549 C 154.807 -2.27107 -3.58758 0
M  V30 1550 O 155.831 -1.96205 -2.97291 0
M  V30 1551 O 154.69 -2.79736 -4.69479 0
M  V30 1552 H 151.784 -0.392384 -0.727986 0
M  V30 1553 H 154.33 -1.37874 -0.989382 0
M  V30 1554 H 153.102 -2.97399 -2.54302 0
M  V30 1555 H 152.725 -1.64068 -3.6217 0
M  V30 1556 N 153.722 1.14298 -1.08507 0
M  V30 1557 C 154.968 1.85633 -0.816581 0
M  V30 1558 C 155.301 1.82784 0.656021 0
M  V30 1559 O 154.576 1.25926 1.48233 0
M  V30 1560 C 154.859 3.34223 -1.34041 0
M  V30 1561 C 154.712 3.45639 -2.87843 0
M  V30 1562 C 156.031 4.29356 -0.9665 0
M  V30 1563 H 153.15 0.67402 -0.298104 0
M  V30 1564 H 155.792 1.34214 -1.34487 0
M  V30 1565 H 153.942 3.78144 -0.89104 0
M  V30 1566 H 155.614 3.10498 -3.41158 0
M  V30 1567 H 153.857 2.86817 -3.25451 0
M  V30 1568 H 154.528 4.50089 -3.19569 0
M  V30 1569 H 157.004 3.93457 -1.35391 0
M  V30 1570 H 155.88 5.3178 -1.3602 0
M  V30 1571 H 156.141 4.41919 0.126362 0
M  V30 1572 N 155.201 0.870884 1.31352 0
M  V30 1573 C 156.45 0.478408 1.95944 0
M  V30 1574 C 156.763 -0.974493 1.69597 0
M  V30 1575 O 157.969 -1.47316 2.28058 0
M  V30 1576 C 156.425 0.804609 3.50791 0
M  V30 1577 C 156.033 2.27433 3.85977 0
M  V30 1578 C 157.777 0.480648 4.2177 0
M  V30 1579 C 155.684 2.5429 5.33939 0
M  V30 1580 H 154.614 0.175175 0.733369 0
M  V30 1581 H 157.265 1.06391 1.4951 0
M  V30 1582 H 155.647 0.148347 3.95722 0
M  V30 1583 H 156.821 2.97373 3.52002 0
M  V30 1584 H 155.136 2.56442 3.28065 0
M  V30 1585 H 157.733 0.658519 5.30629 0
M  V30 1586 H 158.076 -0.578979 4.12254 0
M  V30 1587 H 158.609 1.09349 3.82476 0
M  V30 1588 H 155.348 3.58939 5.48491 0
M  V30 1589 H 154.868 1.88945 5.69263 0
M  V30 1590 H 156.547 2.39066 6.01212 0
M  V30 1591 N 156.679 -1.44442 0.630414 0
M  V30 1592 C 157.925 -2.02351 0.134816 0
M  V30 1593 C 158.258 -1.4947 -1.23986 0
M  V30 1594 O 157.533 -0.678475 -1.82283 0
M  V30 1595 C 157.816 -3.59898 0.120707 0
M  V30 1596 C 157.669 -4.23063 1.52767 0
M  V30 1597 C 158.988 -4.36585 -0.555127 0
M  V30 1598 H 156.107 -0.73527 0.0504646 0
M  V30 1599 H 158.749 -1.72022 0.806751 0
M  V30 1600 H 156.899 -3.85868 -0.451477 0
M  V30 1601 H 158.571 -4.08202 2.14869 0
M  V30 1602 H 156.814 -3.80586 2.08175 0
M  V30 1603 H 157.485 -5.32071 1.46984 0
M  V30 1604 H 159.961 -4.16044 -0.0685429 0
M  V30 1605 H 158.837 -5.46294 -0.534185 0
M  V30 1606 H 159.098 -4.11138 -1.62535 0
M  V30 1607 N 158.157 -0.370918 -1.53173 0
M  V30 1608 C 159.105 0.488101 -2.27421 0
M  V30 1609 C 160.099 1.07884 -1.30604 0
M  V30 1610 O 161.305 1.02143 -1.48212 0
M  V30 1611 H 157.68 0.176134 -0.731082 0
M  V30 1612 H 159.651 -0.159815 -2.97972 0
M  V30 1613 C 158.4 1.61306 -3.08019 0
M  V30 1614 H 157.723 1.1678 -3.82364 0
M  V30 1615 H 159.163 2.18872 -3.63141 0
M  V30 1616 C 157.622 2.55848 -2.19188 0
M  V30 1617 O 158.152 3.58799 -1.80626 0
M  V30 1618 N 156.358 2.2516 -1.83715 0
M  V30 1619 H 155.905 1.41476 -2.15273 0
M  V30 1620 H 155.863 2.8867 -1.24567 0
M  V30 1621 N 159.635 1.57281 -0.100228 0
M  V30 1622 C 160.86 1.99302 0.573881 0
M  V30 1623 C 161.285 0.979059 1.60611 0
M  V30 1624 O 160.643 -0.0517803 1.81226 0
M  V30 1625 C 160.691 3.40274 1.19358 0
M  V30 1626 O 159.795 3.41676 2.30935 0
M  V30 1627 H 159.136 0.647944 0.145138 0
M  V30 1628 H 161.666 2.03779 -0.183156 0
M  V30 1629 H 161.676 3.78078 1.53365 0
M  V30 1630 H 160.351 4.13594 0.437385 0
M  V30 1631 H 158.928 3.15672 1.98509 0
M  V30 1632 N 161.113 -0.173488 1.56642 0
M  V30 1633 C 162.359 -0.891784 1.8214 0
M  V30 1634 C 162.692 -1.8199 0.677736 0
M  V30 1635 O 161.967 -1.91842 -0.320446 0
M  V30 1636 C 162.25 -1.68933 3.18015 0
M  V30 1637 C 162.103 -0.784487 4.42906 0
M  V30 1638 C 163.422 -2.65748 3.50808 0
M  V30 1639 H 160.541 -0.322761 0.662567 0
M  V30 1640 H 163.183 -0.158095 1.89341 0
M  V30 1641 H 161.333 -2.31482 3.12007 0
M  V30 1642 H 163.005 -0.172046 4.60979 0
M  V30 1643 H 161.248 -0.0924117 4.33702 0
M  V30 1644 H 161.919 -1.37799 5.34524 0
M  V30 1645 H 164.395 -2.13327 3.57255 0
M  V30 1646 H 163.271 -3.18619 4.4696 0
M  V30 1647 H 163.532 -3.45842 2.75401 0
M  V30 1648 N 162.591 -1.51276 -0.441967 0
M  V30 1649 C 164.002 -1.56244 -1.02199 0
M  V30 1650 C 164.353 -0.383149 -1.92422 0
M  V30 1651 O 163.478 0.500613 -2.1053 0
M  V30 1652 C 164.073 -2.83162 -1.86024 0
M  V30 1653 C 162.632 -2.90716 -2.39084 0
M  V30 1654 C 161.779 -2.50858 -1.18175 0
M  V30 1655 H 164.73 -1.5712 -0.223416 0
M  V30 1656 H 164.751 -2.66663 -2.71425 0
M  V30 1657 H 164.263 -3.68974 -1.20331 0
M  V30 1658 H 162.364 -2.09323 -3.08244 0
M  V30 1659 H 162.477 -3.94266 -2.72198 0
M  V30 1660 H 160.841 -2.03951 -1.52565 0
M  V30 1661 H 161.624 -3.3901 -0.541001 0
M  V30 1662 N 164.069 0.697108 -1.41344 0
M  V30 1663 C 165.002 1.82134 -1.37486 0
M  V30 1664 C 165.98 1.60784 -0.242351 0
M  V30 1665 O 167.164 1.83553 -0.429012 0
M  V30 1666 C 164.291 3.18788 -1.14421 0
M  V30 1667 C 163.337 3.58932 -2.3037 0
M  V30 1668 S 164.17 3.63916 -3.92843 0
M  V30 1669 C 165.326 5.03298 -3.72078 0
M  V30 1670 H 165.559 1.85129 -2.32625 0
M  V30 1671 H 163.092 0.865671 -1.2785 0
M  V30 1672 H 165.05 3.97677 -1.018 0
M  V30 1673 H 163.711 3.13404 -0.20905 0
M  V30 1674 H 162.904 4.58202 -2.09922 0
M  V30 1675 H 162.506 2.87347 -2.39391 0
M  V30 1676 H 164.798 5.90753 -3.31688 0
M  V30 1677 H 165.741 5.28788 -4.70945 0
M  V30 1678 H 166.149 4.74764 -3.05384 0
M  V30 1679 N 165.547 1.27147 0.931209 0
M  V30 1680 C 166.495 1.09398 2.05268 0
M  V30 1681 C 167.489 0.0180591 1.6939 0
M  V30 1682 O 168.695 0.17551 1.79142 0
M  V30 1683 H 165.07 0.336986 0.672268 0
M  V30 1684 H 167.041 2.04416 2.17386 0
M  V30 1685 C 165.79 0.75424 3.39421 0
M  V30 1686 H 165.113 1.57404 3.67511 0
M  V30 1687 H 166.553 0.669903 4.18674 0
M  V30 1688 C 165.012 -0.541197 3.32525 0
M  V30 1689 O 165.542 -1.57664 3.69466 0
M  V30 1690 N 163.748 -0.535517 2.85623 0
M  V30 1691 H 163.295 0.307511 2.55758 0
M  V30 1692 H 163.253 -1.40236 2.81392 0
M  V30 1693 N 167.025 -1.13721 1.09112 0
M  V30 1694 C 167.955 -2.21148 0.749385 0
M  V30 1695 C 168.936 -1.6792 -0.271475 0
M  V30 1696 O 170.121 -1.93693 -0.140251 0
M  V30 1697 C 167.251 -3.46905 0.165659 0
M  V30 1698 C 166.205 -4.13203 1.11567 0
M  V30 1699 C 165.531 -5.33248 0.393809 0
M  V30 1700 C 166.831 -4.60912 2.45678 0
M  V30 1701 H 168.525 -2.4999 1.64758 0
M  V30 1702 H 166.071 -1.20156 0.793626 0
M  V30 1703 H 168.024 -4.21313 -0.085466 0
M  V30 1704 H 166.748 -3.17449 -0.767714 0
M  V30 1705 H 165.407 -3.40758 1.35202 0
M  V30 1706 H 165.055 -5.00054 -0.543599 0
M  V30 1707 H 164.755 -5.78552 1.02721 0
M  V30 1708 H 166.279 -6.10413 0.150908 0
M  V30 1709 H 167.693 -5.26759 2.26269 0
M  V30 1710 H 166.09 -5.16944 3.04776 0
M  V30 1711 H 167.16 -3.75603 3.06677 0
M  V30 1712 N 168.503 -0.877838 -1.30888 0
M  V30 1713 C 169.435 -0.296607 -2.27273 0
M  V30 1714 C 170.448 0.544799 -1.53414 0
M  V30 1715 O 171.637 0.365511 -1.74718 0
M  V30 1716 C 168.737 0.597481 -3.33592 0
M  V30 1717 C 167.91 -0.213251 -4.3688 0
M  V30 1718 C 166.969 0.610208 -5.2265 0
M  V30 1719 O 165.995 0.035441 -5.69189 0
M  V30 1720 N 167.197 1.92071 -5.47804 0
M  V30 1721 H 169.962 -1.12492 -2.77787 0
M  V30 1722 H 167.523 -0.740105 -1.43993 0
M  V30 1723 H 169.515 1.15425 -3.87891 0
M  V30 1724 H 168.085 1.32647 -2.83061 0
M  V30 1725 H 167.305 -0.951466 -3.82545 0
M  V30 1726 H 168.593 -0.769262 -5.02951 0
M  V30 1727 H 167.991 2.4107 -5.11763 0
M  V30 1728 H 166.548 2.42508 -6.05007 0
M  V30 1729 N 169.982 1.44106 -0.638065 0
M  V30 1730 C 170.912 2.33448 0.0494287 0
M  V30 1731 C 171.893 1.48606 0.827672 0
M  V30 1732 O 173.078 1.77308 0.792173 0
M  V30 1733 C 170.208 3.31771 1.02691 0
M  V30 1734 C 169.162 4.26485 0.359823 0
M  V30 1735 C 168.488 5.14729 1.44769 0
M  V30 1736 C 169.788 5.17056 -0.738296 0
M  V30 1737 H 171.482 2.91183 -0.696636 0
M  V30 1738 H 169.028 1.40014 -0.336456 0
M  V30 1739 H 170.981 3.93161 1.51666 0
M  V30 1740 H 169.705 2.7226 1.80395 0
M  V30 1741 H 168.364 3.66437 -0.10934 0
M  V30 1742 H 168.012 4.51566 2.21578 0
M  V30 1743 H 167.712 5.78913 1.00668 0
M  V30 1744 H 169.236 5.78991 1.93911 0
M  V30 1745 H 170.65 5.72342 -0.331354 0
M  V30 1746 H 169.047 5.89879 -1.10286 0
M  V30 1747 H 170.117 4.57652 -1.60258 0
M  V30 1748 N 171.46 0.379036 1.52974 0
M  V30 1749 C 172.708 -0.206014 2.01047 0
M  V30 1750 C 173.029 -1.48175 1.26765 0
M  V30 1751 O 172.299 -1.92085 0.384743 0
M  V30 1752 H 170.879 -0.0791184 0.742798 0
M  V30 1753 H 173.541 0.508366 1.88153 0
M  V30 1754 H 172.637 -0.423501 3.09213 0
M  V30 1755 N 172.938 -1.57226 0.108567 0
M  V30 1756 C 174.186 -1.94448 -0.550853 0
M  V30 1757 C 174.507 -0.992074 -1.67878 0
M  V30 1758 O 173.777 -0.0465 -1.95845 0
M  V30 1759 H 172.357 -0.717897 -0.206479 0
M  V30 1760 H 175.019 -1.94112 0.175062 0
M  V30 1761 H 174.115 -2.97218 -0.952259 0
M  V30 1762 N 174.416 0.165178 -1.56732 0
M  V30 1763 C 175.664 0.879068 -1.8198 0
M  V30 1764 C 175.985 1.82514 -0.686561 0
M  V30 1765 O 175.255 1.93694 0.293146 0
M  V30 1766 H 173.835 0.327608 -0.671329 0
M  V30 1767 H 176.497 0.163526 -1.94213 0
M  V30 1768 H 175.593 1.45228 -2.76252 0
M  V30 1769 N 175.894 1.51508 0.433938 0
M  V30 1770 C 177.305 1.56784 1.01369 0
M  V30 1771 C 177.656 0.393349 1.92217 0
M  V30 1772 O 176.781 -0.489441 2.10792 0
M  V30 1773 C 177.376 2.84144 1.8452 0
M  V30 1774 C 175.935 2.9198 2.37539 0
M  V30 1775 C 175.082 2.51482 1.16843 0
M  V30 1776 H 178.033 1.57236 0.215081 0
M  V30 1777 H 178.054 2.68098 2.70007 0
M  V30 1778 H 177.566 3.69607 1.18373 0
M  V30 1779 H 175.667 2.10955 3.0713 0
M  V30 1780 H 175.78 3.95704 2.70103 0
M  V30 1781 H 174.144 2.04758 1.51481 0
M  V30 1782 H 174.927 3.39293 0.523015 0
M  V30 1783 N 177.372 -0.689602 1.41712 0
M  V30 1784 C 178.302 -1.81577 1.46806 0
M  V30 1785 C 179.283 -1.66945 0.326105 0
M  V30 1786 O 180.468 -1.86588 0.538377 0
M  V30 1787 C 177.598 -3.19762 1.35535 0
M  V30 1788 C 176.552 -3.49107 2.47605 0
M  V30 1789 C 175.878 -4.86711 2.21397 0
M  V30 1790 C 177.178 -3.47483 3.89939 0
M  V30 1791 H 178.872 -1.7757 2.41058 0
M  V30 1792 H 176.418 -0.852887 1.16025 0
M  V30 1793 H 178.371 -3.98263 1.3771 0
M  V30 1794 H 177.095 -3.24409 0.377708 0
M  V30 1795 H 175.754 -2.72959 2.44722 0
M  V30 1796 H 175.402 -4.8799 1.21961 0
M  V30 1797 H 175.102 -5.0731 2.96497 0
M  V30 1798 H 176.626 -5.67515 2.25297 0
M  V30 1799 H 178.04 -4.1598 3.94505 0
M  V30 1800 H 176.437 -3.79615 4.64771 0
M  V30 1801 H 177.507 -2.46341 4.17665 0
M  V30 1802 N 178.85 -1.27639 -0.924453 0
M  V30 1803 C 180.075 -1.17101 -1.71179 0
M  V30 1804 C 180.5 0.268134 -1.86179 0
M  V30 1805 O 179.858 1.19415 -1.36418 0
M  V30 1806 C 179.906 -1.86313 -3.08739 0
M  V30 1807 O 179.01 -1.16331 -3.95652 0
M  V30 1808 H 178.351 -0.407091 -0.524569 0
M  V30 1809 H 180.881 -1.68767 -1.15666 0
M  V30 1810 H 180.891 -1.938 -3.59034 0
M  V30 1811 H 179.566 -2.91001 -2.97138 0
M  V30 1812 H 178.143 -1.16935 -3.54091 0
M  V30 1813 N 180.328 1.1314 -1.09713 0
M  V30 1814 C 181.744 1.36477 -0.827423 0
M  V30 1815 C 181.944 1.93654 0.556817 0
M  V30 1816 O 181 2.15791 1.31112 0
M  V30 1817 C 182.313 2.31334 -1.92106 0
M  V30 1818 C 183.861 2.44943 -1.94864 0
M  V30 1819 C 184.336 3.4311 -3.0338 0
M  V30 1820 N 185.827 3.50662 -3.02639 0
M  V30 1821 C 186.562 4.2651 -3.83246 0
M  V30 1822 N 186.058 5.05485 -4.73768 0
M  V30 1823 N 187.851 4.2184 -3.71493 0
M  V30 1824 H 180.002 0.743807 -1.9895 0
M  V30 1825 H 182.265 0.389823 -0.864143 0
M  V30 1826 H 181.971 1.96483 -2.91698 0
M  V30 1827 H 181.845 3.31381 -1.80184 0
M  V30 1828 H 184.232 2.79079 -0.959099 0
M  V30 1829 H 184.313 1.4481 -2.10864 0
M  V30 1830 H 183.957 3.09704 -4.02549 0
M  V30 1831 H 183.887 4.43055 -2.84622 0
M  V30 1832 H 186.378 2.94315 -2.37039 0
M  V30 1833 H 186.691 5.60675 -5.3185 0
M  V30 1834 H 185.036 5.04708 -4.77802 0
M  V30 1835 H 188.227 3.5922 -3.00131 0
M  V30 1836 H 188.4 4.80697 -4.3455 0
M  V30 1837 N 181.806 0.884767 1.30421 0
M  V30 1838 C 182.769 0.356277 2.26414 0
M  V30 1839 C 183.769 -0.501124 1.52792 0
M  V30 1840 O 184.959 -0.30831 1.7145 0
M  V30 1841 C 182.091 -0.492316 3.37326 0
M  V30 1842 H 183.284 1.20389 2.74675 0
M  V30 1843 H 180.837 0.661607 1.41607 0
M  V30 1844 H 181.572 -1.36052 2.94381 0
M  V30 1845 H 181.357 0.121832 3.91911 0
M  V30 1846 H 182.847 -0.853871 4.08777 0
M  V30 1847 N 183.284 -1.43765 0.645699 0
M  V30 1848 C 184.531 -2.01898 0.15604 0
M  V30 1849 C 184.859 -1.50887 -1.22733 0
M  V30 1850 O 184.114 -0.689271 -1.8316 0
M  V30 1851 C 184.413 -3.57238 0.107679 0
M  V30 1852 C 184.079 -4.27564 1.43178 0
M  V30 1853 C 182.741 -4.46492 1.7944 0
M  V30 1854 C 185.093 -4.67454 2.30513 0
M  V30 1855 C 182.421 -5.02573 3.02716 0
M  V30 1856 C 184.773 -5.24901 3.53074 0
M  V30 1857 C 183.437 -5.42046 3.89541 0
M  V30 1858 H 182.707 -0.738797 0.057099 0
M  V30 1859 H 185.354 -1.72341 0.834912 0
M  V30 1860 H 183.659 -3.86293 -0.654618 0
M  V30 1861 H 185.356 -3.99965 -0.287938 0
M  V30 1862 H 181.946 -4.13171 1.13963 0
M  V30 1863 H 186.13 -4.5253 2.0379 0
M  V30 1864 H 181.386 -5.14033 3.31028 0
M  V30 1865 H 185.56 -5.54758 4.20971 0
M  V30 1866 H 183.187 -5.85268 4.85145 0
M  V30 1867 N 184.763 -0.387143 -1.52771 0
M  V30 1868 C 185.693 0.440551 -2.29306 0
M  V30 1869 C 186.674 1.06535 -1.32606 0
M  V30 1870 O 187.859 1.07853 -1.61497 0
M  V30 1871 C 184.989 1.56919 -3.09829 0
M  V30 1872 C 183.943 1.07054 -4.14395 0
M  V30 1873 C 183.269 2.29109 -4.83129 0
M  V30 1874 C 184.569 0.140015 -5.22112 0
M  V30 1875 H 186.263 -0.198026 -2.98744 0
M  V30 1876 H 183.809 -0.09668 -1.43675 0
M  V30 1877 H 185.762 2.15503 -3.62128 0
M  V30 1878 H 184.486 2.23532 -2.3812 0
M  V30 1879 H 183.145 0.507247 -3.63074 0
M  V30 1880 H 182.793 2.94227 -4.0797 0
M  V30 1881 H 182.493 1.96406 -5.53804 0
M  V30 1882 H 184.017 2.88339 -5.38231 0
M  V30 1883 H 185.431 0.633978 -5.69784 0
M  V30 1884 H 183.828 -0.0971485 -6.00021 0
M  V30 1885 H 184.898 -0.811711 -4.78058 0
M  V30 1886 N 186.241 1.57166 -0.116904 0
M  V30 1887 C 187.173 2.12271 0.864507 0
M  V30 1888 C 188.186 1.06494 1.23138 0
M  V30 1889 O 189.375 1.33873 1.18069 0
M  V30 1890 C 186.475 2.60564 2.16702 0
M  V30 1891 C 185.648 3.90416 1.97216 0
M  V30 1892 C 184.707 4.24329 3.11178 0
M  V30 1893 O 183.733 4.93182 2.84184 0
M  V30 1894 N 184.935 3.8148 4.37554 0
M  V30 1895 H 187.7 2.97102 0.393726 0
M  V30 1896 H 185.261 1.61759 0.0675805 0
M  V30 1897 H 187.253 2.80282 2.91932 0
M  V30 1898 H 185.823 1.80623 2.55135 0
M  V30 1899 H 185.043 3.79627 1.06192 0
M  V30 1900 H 186.331 4.75327 1.81499 0
M  V30 1901 H 185.729 3.25943 4.62361 0
M  V30 1902 H 184.286 4.06311 5.09661 0
M  V30 1903 N 187.719 -0.156864 1.56817 0
M  V30 1904 C 188.666 -1.19394 1.97519 0
M  V30 1905 C 189.636 -1.4322 0.841265 0
M  V30 1906 O 190.821 -1.55719 1.10255 0
M  V30 1907 C 187.961 -2.52483 2.35258 0
M  V30 1908 C 187.074 -2.35914 3.61896 0
M  V30 1909 C 186.209 -3.61969 3.88782 0
M  V30 1910 C 185.248 -3.40395 5.08722 0
M  V30 1911 N 184.385 -4.58556 5.31668 0
M  V30 1912 H 189.225 -0.839845 2.85921 0
M  V30 1913 H 186.762 -0.403264 1.41464 0
M  V30 1914 H 188.72 -3.30071 2.55165 0
M  V30 1915 H 187.35 -2.85859 1.49949 0
M  V30 1916 H 186.402 -1.49429 3.49821 0
M  V30 1917 H 187.714 -2.15926 4.49641 0
M  V30 1918 H 186.868 -4.47989 4.09135 0
M  V30 1919 H 185.607 -3.84951 2.9944 0
M  V30 1920 H 184.612 -2.52763 4.88253 0
M  V30 1921 H 185.837 -3.18822 5.99608 0
M  V30 1922 H 183.783 -4.81729 4.45279 0
M  V30 1923 H 183.7 -4.41535 6.13664 0
M  V30 1924 H 184.968 -5.45817 5.5651 0
M  V30 1925 N 189.197 -1.51736 -0.425897 0
M  V30 1926 C 190.16 -1.73271 -1.50032 0
M  V30 1927 C 191.16 -0.602639 -1.4908 0
M  V30 1928 O 192.35 -0.87033 -1.509 0
M  V30 1929 C 189.482 -1.79969 -2.89523 0
M  V30 1930 H 190.675 -2.69172 -1.32237 0
M  V30 1931 H 188.228 -1.41899 -0.65532 0
M  V30 1932 H 188.963 -0.859241 -3.1271 0
M  V30 1933 H 188.748 -2.62109 -2.91619 0
M  V30 1934 H 190.238 -1.9843 -3.67444 0
M  V30 1935 N 190.675 0.682077 -1.42076 0
M  V30 1936 C 191.923 1.4393 -1.41876 0
M  V30 1937 C 192.244 1.94971 -0.0335599 0
M  V30 1938 O 191.514 1.72591 0.926773 0
M  V30 1939 H 190.094 0.534085 -0.522267 0
M  V30 1940 H 192.756 0.806427 -1.77434 0
M  V30 1941 H 191.852 2.29588 -2.11414 0
M  V30 1942 N 192.153 1.28127 0.917671 0
M  V30 1943 C 193.564 1.13622 1.48145 0
M  V30 1944 C 193.915 -0.275207 1.9426 0
M  V30 1945 O 193.04 -1.1691 1.82102 0
M  V30 1946 C 193.635 2.05648 2.69248 0
M  V30 1947 C 192.194 1.95219 3.21818 0
M  V30 1948 C 191.341 1.97618 1.94532 0
M  V30 1949 H 194.292 1.40874 0.730772 0
M  V30 1950 H 194.313 1.61818 3.44377 0
M  V30 1951 H 193.825 3.08365 2.35653 0
M  V30 1952 H 191.926 0.955244 3.60147 0
M  V30 1953 H 192.039 2.81976 3.87333 0
M  V30 1954 H 190.403 1.41973 2.11461 0
M  V30 1955 H 191.186 3.02007 1.63238 0
M  V30 1956 N 193.631 -1.12557 1.10312 0
M  V30 1957 C 194.564 -2.1737 0.694674 0
M  V30 1958 C 195.542 -1.59745 -0.303373 0
M  V30 1959 O 196.726 -1.87408 -0.202578 0
M  V30 1960 C 193.853 -3.38691 0.0248052 0
M  V30 1961 C 192.899 -4.14943 0.986121 0
M  V30 1962 S 193.732 -4.73413 2.50281 0
M  V30 1963 C 194.888 -5.9807 1.84562 0
M  V30 1964 H 195.121 -2.5168 1.58255 0
M  V30 1965 H 192.654 -1.23998 0.919992 0
M  V30 1966 H 194.612 -4.08959 -0.355361 0
M  V30 1967 H 193.273 -3.02664 -0.839851 0
M  V30 1968 H 192.466 -5.01854 0.464651 0
M  V30 1969 H 192.068 -3.50377 1.30813 0
M  V30 1970 H 194.36 -6.67232 1.17507 0
M  V30 1971 H 195.303 -6.54841 2.69423 0
M  V30 1972 H 195.711 -5.49073 1.31069 0
M  V30 1973 N 195.109 -0.891671 -1.2995 0
M  V30 1974 C 196.039 -0.379797 -2.30391 0
M  V30 1975 C 197.02 0.540919 -1.6127 0
M  V30 1976 O 198.205 0.453352 -1.88834 0
M  V30 1977 C 195.335 0.400654 -3.44981 0
M  V30 1978 C 194.289 -0.428905 -4.25846 0
M  V30 1979 C 193.615 0.478557 -5.32554 0
M  V30 1980 C 194.915 -1.67458 -4.94727 0
M  V30 1981 H 196.609 -1.21914 -2.73454 0
M  V30 1982 H 194.155 -0.587675 -1.31462 0
M  V30 1983 H 196.108 0.769434 -4.14316 0
M  V30 1984 H 194.832 1.27371 -3.0074 0
M  V30 1985 H 193.491 -0.779911 -3.58208 0
M  V30 1986 H 193.139 1.34951 -4.84559 0
M  V30 1987 H 192.839 -0.0727433 -5.87555 0
M  V30 1988 H 194.363 0.843705 -6.04743 0
M  V30 1989 H 195.777 -1.376 -5.56542 0
M  V30 1990 H 194.174 -2.16659 -5.59624 0
M  V30 1991 H 195.244 -2.41518 -4.20473 0
M  V30 1992 N 196.587 1.43421 -0.653314 0
M  V30 1993 C 197.519 2.29071 0.0769134 0
M  V30 1994 C 198.532 1.42513 0.787017 0
M  V30 1995 O 199.721 1.66449 0.644757 0
M  V30 1996 C 196.821 3.19436 1.13199 0
M  V30 1997 C 195.994 4.34533 0.500006 0
M  V30 1998 C 195.053 5.05771 1.45198 0
M  V30 1999 O 194.079 5.61037 0.960538 0
M  V30 2000 N 195.281 5.0928 2.78594 0
M  V30 2001 H 198.046 2.92382 -0.658235 0
M  V30 2002 H 195.607 1.54112 -0.496104 0
M  V30 2003 H 197.599 3.63958 1.76964 0
M  V30 2004 H 196.169 2.57724 1.7691 0
M  V30 2005 H 195.389 3.92925 -0.316738 0
M  V30 2006 H 196.677 5.08766 0.0588345 0
M  V30 2007 H 196.075 4.65751 3.2108 0
M  V30 2008 H 194.632 5.57519 3.37662 0
M  V30 2009 N 198.065 0.39524 1.52563 0
M  V30 2010 C 199.012 -0.437036 2.26624 0
M  V30 2011 C 199.982 -1.05281 1.28472 0
M  V30 2012 O 201.167 -1.07971 1.57311 0
M  V30 2013 C 198.307 -1.55524 3.08069 0
M  V30 2014 C 197.42 -0.961745 4.21158 0
M  V30 2015 C 196.555 -2.05149 4.89987 0
M  V30 2016 C 195.594 -1.4342 5.95061 0
M  V30 2017 N 194.731 -2.46351 6.57462 0
M  V30 2018 H 199.571 0.200976 2.97322 0
M  V30 2019 H 197.108 0.110944 1.46681 0
M  V30 2020 H 199.066 -2.21437 3.53584 0
M  V30 2021 H 197.696 -2.16348 2.3957 0
M  V30 2022 H 196.748 -0.192048 3.79915 0
M  V30 2023 H 198.06 -0.470701 4.96574 0
M  V30 2024 H 197.214 -2.78819 5.38837 0
M  V30 2025 H 195.953 -2.57615 4.14109 0
M  V30 2026 H 194.958 -0.682774 5.45544 0
M  V30 2027 H 196.183 -0.917416 6.72875 0
M  V30 2028 H 194.129 -2.97975 5.8442 0
M  V30 2029 H 194.046 -2.02019 7.28508 0
M  V30 2030 H 195.314 -3.19633 7.10954 0
M  V30 2031 N 199.544 -1.57102 0.125237 0
M  V30 2032 C 200.454 -2.19191 -0.8362 0
M  V30 2033 C 201.47 -1.16985 -1.28805 0
M  V30 2034 O 202.646 -1.49479 -1.34974 0
M  V30 2035 C 199.711 -2.78407 -2.06617 0
M  V30 2036 C 198.772 -3.9567 -1.66565 0
M  V30 2037 C 198.005 -4.52052 -2.83698 0
M  V30 2038 O 198.228 -4.07326 -3.99302 0
M  V30 2039 O 197.162 -5.42645 -2.60423 0
M  V30 2040 H 200.988 -3.01816 -0.337776 0
M  V30 2041 H 198.573 -1.4906 -0.100695 0
M  V30 2042 H 200.455 -3.16129 -2.7864 0
M  V30 2043 H 199.13 -1.9881 -2.55453 0
M  V30 2044 H 198.037 -3.62705 -0.916296 0
M  V30 2045 H 199.37 -4.76722 -1.22464 0
M  V30 2046 N 201.022 0.148545 -1.56898 0
M  V30 2047 C 201.952 1.18524 -2.01182 0
M  V30 2048 C 202.933 1.4489 -0.891123 0
M  V30 2049 O 204.118 1.55836 -1.15882 0
M  V30 2050 C 201.248 2.51879 -2.39112 0
M  V30 2051 C 200.202 2.40038 -3.54353 0
M  V30 2052 C 199.528 3.78089 -3.78091 0
M  V30 2053 C 200.828 1.88577 -4.87069 0
M  V30 2054 H 202.522 0.817029 -2.88036 0
M  V30 2055 H 200.068 0.391575 -1.38574 0
M  V30 2056 H 202.021 3.24627 -2.68692 0
M  V30 2057 H 200.745 2.90532 -1.49193 0
M  V30 2058 H 199.404 1.69742 -3.24936 0
M  V30 2059 H 199.052 4.14175 -2.85426 0
M  V30 2060 H 198.752 3.71028 -4.55645 0
M  V30 2061 H 200.276 4.52387 -4.10095 0
M  V30 2062 H 201.69 2.51117 -5.15377 0
M  V30 2063 H 200.087 1.9241 -5.68417 0
M  V30 2064 H 201.157 0.84136 -4.77545 0
M  V30 2065 N 202.5 1.5196 0.417844 0
M  V30 2066 C 203.777 1.56146 1.17803 0
M  V30 2067 C 204.157 0.337275 2.08388 0
M  V30 2068 O 203.505 -0.676447 2.18258 0
M  V30 2069 C 203.715 2.88566 1.96293 0
M  V30 2070 C 205.063 3.41244 2.52662 0
M  V30 2071 O 206.087 2.90247 2.06483 0
M  V30 2072 O 204.946 4.30273 3.36938 0
M  V30 2073 H 202.04 0.628598 0.537395 0
M  V30 2074 H 204.586 1.64283 0.425331 0
M  V30 2075 H 203.358 3.69116 1.2988 0
M  V30 2076 H 202.981 2.83681 2.78587 0
M  V30 2077 N 203.978 -0.674533 1.42435 0
M  V30 2078 C 205.255 -1.4305 1.33402 0
M  V30 2079 C 205.635 -2.11081 -0.0284674 0
M  V30 2080 O 204.983 -2.03257 -1.04397 0
M  V30 2081 C 205.193 -2.43272 2.50239 0
M  V30 2082 C 206.541 -3.07907 2.92367 0
M  V30 2083 O 207.565 -2.53599 2.50132 0
M  V30 2084 O 206.424 -4.0632 3.65467 0
M  V30 2085 H 203.518 -0.638076 0.526106 0
M  V30 2086 H 206.064 -0.703235 1.54443 0
M  V30 2087 H 204.836 -1.91803 3.41068 0
M  V30 2088 H 204.459 -3.23479 2.31186 0
M  V30 2089 N 205.456 -1.28612 -0.910864 0
M  V30 2090 C 206.872 -1.06381 -1.18976 0
M  V30 2091 C 207.072 0.191998 -2.00583 0
M  V30 2092 O 206.128 0.892869 -2.36187 0
M  V30 2093 C 207.441 -2.31295 -1.92154 0
M  V30 2094 C 208.989 -2.36503 -2.05025 0
M  V30 2095 C 209.464 -3.61191 -2.81612 0
M  V30 2096 N 210.955 -3.61847 -2.89172 0
M  V30 2097 C 211.69 -4.55004 -3.4894 0
M  V30 2098 N 211.186 -5.58482 -4.09963 0
M  V30 2099 N 212.979 -4.42594 -3.46506 0
M  V30 2100 H 205.13 -2.09221 -0.366094 0
M  V30 2101 H 207.393 -0.921003 -0.224629 0
M  V30 2102 H 207.099 -3.228 -1.39618 0
M  V30 2103 H 206.973 -2.37934 -2.9269 0
M  V30 2104 H 209.36 -1.45494 -2.5674 0
M  V30 2105 H 209.441 -2.33857 -1.03657 0
M  V30 2106 H 209.085 -4.52545 -2.30576 0
M  V30 2107 H 209.015 -3.61092 -3.83302 0
M  V30 2108 H 211.506 -2.87022 -2.45819 0
M  V30 2109 H 211.819 -6.25704 -4.53557 0
M  V30 2110 H 210.164 -5.62305 -4.08459 0
M  V30 2111 H 213.355 -3.60953 -2.98045 0
M  V30 2112 H 213.528 -5.15381 -3.92793 0
M  V30 2113 N 206.934 1.1197 -1.10907 0
M  V30 2114 C 208.35 1.35591 -0.841852 0
M  V30 2115 C 208.55 1.94233 0.536246 0
M  V30 2116 O 207.606 2.1717 1.28816 0
M  V30 2117 C 208.919 2.29284 -1.94549 0
M  V30 2118 C 210.467 2.42862 -1.97451 0
M  V30 2119 C 210.942 3.39873 -3.07002 0
M  V30 2120 N 212.433 3.47433 -3.06341 0
M  V30 2121 C 213.168 4.22421 -3.87748 0
M  V30 2122 N 212.664 5.00432 -4.79103 0
M  V30 2123 N 214.457 4.17876 -3.75946 0
M  V30 2124 H 206.608 0.722664 -1.99728 0
M  V30 2125 H 208.871 0.380635 -0.868229 0
M  V30 2126 H 208.577 1.93378 -2.93765 0
M  V30 2127 H 208.451 3.29452 -1.83688 0
M  V30 2128 H 210.838 2.78046 -0.988645 0
M  V30 2129 H 210.919 1.42566 -2.12388 0
M  V30 2130 H 210.563 3.05417 -4.05811 0
M  V30 2131 H 210.493 4.40011 -2.89306 0
M  V30 2132 H 212.984 2.91784 -2.40147 0
M  V30 2133 H 213.297 5.55002 -5.37766 0
M  V30 2134 H 211.642 4.99612 -4.83128 0
M  V30 2135 H 214.833 3.56016 -3.03924 0
M  V30 2136 H 215.006 4.76061 -4.39624 0
M  V30 2137 N 208.412 0.89855 1.29475 0
M  V30 2138 C 209.828 0.594483 1.48115 0
M  V30 2139 C 210.028 -0.86431 1.82022 0
M  V30 2140 O 209.084 -1.64457 1.91599 0
M  V30 2141 C 210.397 1.51932 2.59494 0
M  V30 2142 C 211.945 1.5244 2.7337 0
M  V30 2143 C 212.42 2.43548 3.87877 0
M  V30 2144 N 213.911 2.41589 3.95208 0
M  V30 2145 C 214.646 3.08789 4.83153 0
M  V30 2146 N 214.142 3.85265 5.75798 0
M  V30 2147 N 215.935 2.97952 4.76635 0
M  V30 2148 H 208.086 1.84207 1.05742 0
M  V30 2149 H 210.349 0.789251 0.525154 0
M  V30 2150 H 210.055 2.55865 2.41301 0
M  V30 2151 H 209.929 1.23899 3.56271 0
M  V30 2152 H 212.316 0.492518 2.90961 0
M  V30 2153 H 212.397 1.8451 1.77172 0
M  V30 2154 H 212.041 3.46829 3.71041 0
M  V30 2155 H 211.971 2.08788 4.83441 0
M  V30 2156 H 214.462 1.86025 3.28943 0
M  V30 2157 H 214.775 4.33598 6.39697 0
M  V30 2158 H 213.12 3.89371 5.75687 0
M  V30 2159 H 216.311 2.37723 4.03244 0
M  V30 2160 H 216.484 3.50599 5.44962 0
M  V30 2161 N 209.89 -1.43072 0.660911 0
M  V30 2162 C 210.8 -2.34585 -0.0264163 0
M  V30 2163 C 211.816 -1.54316 -0.803898 0
M  V30 2164 O 212.992 -1.86939 -0.749391 0
M  V30 2165 C 210.057 -3.32689 -0.975639 0
M  V30 2166 C 209.118 -4.2886 -0.194236 0
M  V30 2167 C 208.351 -5.22278 -1.09825 0
M  V30 2168 O 208.574 -5.20299 -2.33763 0
M  V30 2169 O 207.508 -5.99228 -0.566513 0
M  V30 2170 H 211.334 -2.94869 0.727034 0
M  V30 2171 H 208.919 -1.43342 0.42111 0
M  V30 2172 H 210.801 -3.92995 -1.52094 0
M  V30 2173 H 209.476 -2.74898 -1.70918 0
M  V30 2174 H 208.383 -3.72011 0.394835 0
M  V30 2175 H 209.716 -4.89655 0.499899 0
M  V30 2176 N 211.368 -0.403325 -1.52352 0
M  V30 2177 C 212.596 0.174012 -2.06167 0
M  V30 2178 C 213.011 1.39347 -1.27388 0
M  V30 2179 O 212.368 1.79597 -0.324201 0
M  V30 2180 C 212.419 0.530223 -3.5759 0
M  V30 2181 O 212.14 -0.640806 -4.33388 0
M  V30 2182 C 213.641 1.16192 -4.27802 0
M  V30 2183 H 210.861 0.0229464 -0.670608 0
M  V30 2184 H 213.405 -0.572604 -1.9632 0
M  V30 2185 H 211.56 1.22673 -3.67464 0
M  V30 2186 H 211.974 -0.344851 -5.23365 0
M  V30 2187 H 213.448 1.36141 -5.34948 0
M  V30 2188 H 213.925 2.13335 -3.83907 0
M  V30 2189 H 214.531 0.505775 -4.22282 0
M  V30 2190 N 212.846 1.57033 -0.133567 0
M  V30 2191 C 213.756 2.19632 0.824564 0
M  V30 2192 C 214.772 1.17666 1.28182 0
M  V30 2193 O 215.948 1.50193 1.3418 0
M  V30 2194 C 213.013 2.79499 2.05137 0
M  V30 2195 C 212.074 3.96548 1.64464 0
M  V30 2196 C 211.307 4.5355 2.81297 0
M  V30 2197 O 211.53 4.09438 3.97136 0
M  V30 2198 O 210.464 5.44018 2.57542 0
M  V30 2199 H 214.29 3.01991 0.321766 0
M  V30 2200 H 211.875 1.49112 0.0927889 0
M  V30 2201 H 213.757 3.17602 2.7696 0
M  V30 2202 H 212.432 2.00162 2.54395 0
M  V30 2203 H 211.339 3.63186 0.897048 0
M  V30 2204 H 212.672 4.77364 1.19934 0
M  V30 2205 N 214.325 -0.140222 1.56975 0
M  V30 2206 C 215.235 -1.19223 2.02047 0
M  V30 2207 C 216.251 -1.46612 0.937062 0
M  V30 2208 O 217.427 -1.58148 1.24704 0
M  V30 2209 C 214.492 -2.50414 2.39778 0
M  V30 2210 C 213.553 -2.30612 3.621 0
M  V30 2211 C 212.786 -3.55547 3.98023 0
M  V30 2212 O 213.009 -4.62004 3.34528 0
M  V30 2213 O 211.943 -3.47808 4.91237 0
M  V30 2214 H 215.769 -0.839559 2.91865 0
M  V30 2215 H 213.354 -0.349453 1.45256 0
M  V30 2216 H 215.236 -3.27747 2.64877 0
M  V30 2217 H 213.911 -2.85198 1.53114 0
M  V30 2218 H 212.818 -1.51207 3.4218 0
M  V30 2219 H 214.151 -2.00741 4.49404 0
M  V30 2220 N 215.803 -1.52179 -0.40978 0
M  V30 2221 C 216.75 -1.75475 -1.49924 0
M  V30 2222 C 217.72 -0.597175 -1.54994 0
M  V30 2223 O 218.905 -0.834655 -1.71575 0
M  V30 2224 C 216.045 -1.9107 -2.87378 0
M  V30 2225 C 215.158 -3.18717 -2.91622 0
M  V30 2226 C 214.293 -3.24747 -4.20372 0
M  V30 2227 C 213.332 -4.46598 -4.18588 0
M  V30 2228 N 212.469 -4.50025 -5.38908 0
M  V30 2229 H 217.309 -2.68458 -1.29361 0
M  V30 2230 H 214.846 -1.33024 -0.627934 0
M  V30 2231 H 216.804 -1.98096 -3.6717 0
M  V30 2232 H 215.434 -1.01469 -3.06437 0
M  V30 2233 H 214.486 -3.20866 -2.04326 0
M  V30 2234 H 215.798 -4.08544 -2.86169 0
M  V30 2235 H 214.952 -3.30841 -5.08556 0
M  V30 2236 H 213.691 -2.32857 -4.28519 0
M  V30 2237 H 212.696 -4.40652 -3.28794 0
M  V30 2238 H 213.921 -5.39783 -4.12081 0
M  V30 2239 H 211.867 -3.61017 -5.47725 0
M  V30 2240 H 211.784 -5.33697 -5.35447 0
M  V30 2241 H 213.052 -4.60347 -6.29048 0
M  V30 2242 N 217.281 0.66697 -1.42791 0
M  V30 2243 C 218.527 1.4291 -1.43891 0
M  V30 2244 C 218.86 1.94114 -0.0578972 0
M  V30 2245 O 218.135 1.71414 0.91911 0
M  V30 2246 C 218.418 2.62049 -2.46987 0
M  V30 2247 C 218.271 2.16426 -3.94309 0
M  V30 2248 C 219.59 3.64266 -2.46978 0
M  V30 2249 H 216.709 0.518306 -0.523954 0
M  V30 2250 H 219.351 0.757321 -1.74255 0
M  V30 2251 H 217.501 3.19361 -2.21225 0
M  V30 2252 H 219.173 1.64221 -4.31079 0
M  V30 2253 H 217.416 1.47925 -4.078 0
M  V30 2254 H 218.087 3.02038 -4.62036 0
M  V30 2255 H 220.563 3.16686 -2.69906 0
M  V30 2256 H 219.439 4.45196 -3.21079 0
M  V30 2257 H 219.7 4.15927 -1.49857 0
M  V30 2258 N 218.759 1.29093 0.90403 0
M  V30 2259 C 220.007 1.16583 1.65085 0
M  V30 2260 C 220.328 -0.283933 1.92922 0
M  V30 2261 O 219.598 -1.19509 1.55224 0
M  V30 2262 H 218.178 0.428467 0.611903 0
M  V30 2263 H 220.84 1.61959 1.08422 0
M  V30 2264 H 219.936 1.71266 2.6091 0
M  V30 2265 N 220.237 -1.11381 1.11499 0
M  V30 2266 C 221.185 -2.19522 0.768956 0
M  V30 2267 C 222.179 -1.67693 -0.239857 0
M  V30 2268 O 223.385 -1.79727 -0.0990755 0
M  V30 2269 H 219.76 -0.715711 0.230786 0
M  V30 2270 H 221.731 -2.45954 1.68964 0
M  V30 2271 C 220.48 -3.46945 0.229073 0
M  V30 2272 H 219.803 -3.8718 0.996596 0
M  V30 2273 H 221.243 -4.23993 0.0251441 0
M  V30 2274 C 219.702 -3.2042 -1.04079 0
M  V30 2275 O 220.232 -3.41178 -2.12038 0
M  V30 2276 N 218.438 -2.74151 -0.963823 0
M  V30 2277 H 217.985 -2.57459 -0.0851722 0
M  V30 2278 H 217.943 -2.56781 -1.81414 0
M  V30 2279 N 221.715 -0.905404 -1.28997 0
M  V30 2280 C 222.964 -0.530191 -1.94607 0
M  V30 2281 C 223.277 0.929185 -1.72121 0
M  V30 2282 O 224.483 1.41218 -2.31883 0
M  V30 2283 C 222.939 -0.897333 -3.48534 0
M  V30 2284 C 222.547 -2.37587 -3.79811 0
M  V30 2285 C 224.291 -0.592304 -4.20347 0
M  V30 2286 C 222.198 -2.68357 -5.27009 0
M  V30 2287 H 221.128 -0.194558 -0.728466 0
M  V30 2288 H 223.779 -1.10318 -1.46636 0
M  V30 2289 H 222.161 -0.253214 -3.9519 0
M  V30 2290 H 223.335 -3.06602 -3.43994 0
M  V30 2291 H 221.65 -2.6505 -3.2115 0
M  V30 2292 H 224.247 -0.798975 -5.28697 0
M  V30 2293 H 224.59 0.469474 -4.13644 0
M  V30 2294 H 225.123 -1.19452 -3.79442 0
M  V30 2295 H 221.862 -3.73355 -5.38782 0
M  V30 2296 H 221.382 -2.03971 -5.64053 0
M  V30 2297 H 223.061 -2.54922 -5.94663 0
M  V30 2298 N 223.193 1.4272 -0.668489 0
M  V30 2299 C 224.44 2.01624 -0.18814 0
M  V30 2300 C 224.768 1.5282 1.20317 0
M  V30 2301 O 224.023 0.718323 1.8204 0
M  V30 2302 C 224.322 3.57021 -0.164499 0
M  V30 2303 C 223.988 4.25232 -1.49962 0
M  V30 2304 C 222.65 4.4358 -1.8652 0
M  V30 2305 C 225.002 4.63727 -2.37921 0
M  V30 2306 C 222.33 4.97694 -3.10674 0
M  V30 2307 C 224.682 5.19218 -3.6138 0
M  V30 2308 C 223.346 5.3578 -3.98115 0
M  V30 2309 H 222.616 0.737795 -0.0688454 0
M  V30 2310 H 225.263 1.70991 -0.862225 0
M  V30 2311 H 223.568 3.87285 0.593079 0
M  V30 2312 H 225.265 4.00372 0.224271 0
M  V30 2313 H 221.855 4.11306 -1.20522 0
M  V30 2314 H 226.039 4.4923 -2.10964 0
M  V30 2315 H 221.295 5.08702 -3.39164 0
M  V30 2316 H 225.469 5.4799 -4.29743 0
M  V30 2317 H 223.096 5.77475 -4.94395 0
M  V30 2318 N 224.671 0.411399 1.52136 0
M  V30 2319 C 225.604 -0.457614 2.23565 0
M  V30 2320 C 226.582 -1.04613 1.24478 0
M  V30 2321 O 227.766 -1.09356 1.53536 0
M  V30 2322 C 224.893 -1.6354 2.96602 0
M  V30 2323 C 223.939 -1.17005 4.10137 0
M  V30 2324 S 224.772 -0.13333 5.35334 0
M  V30 2325 C 225.928 -1.31638 6.119 0
M  V30 2326 H 226.161 0.148883 2.96927 0
M  V30 2327 H 223.694 0.195713 1.53155 0
M  V30 2328 H 225.652 -2.31074 3.39286 0
M  V30 2329 H 224.313 -2.21324 2.22878 0
M  V30 2330 H 223.506 -2.05005 4.60422 0
M  V30 2331 H 223.108 -0.573319 3.6958 0
M  V30 2332 H 225.4 -2.23957 6.39413 0
M  V30 2333 H 226.343 -0.854014 7.02931 0
M  V30 2334 H 226.751 -1.54321 5.42997 0
M  V30 2335 N 226.149 -1.5696 0.141893 0
M  V30 2336 C 227.377 -2.00322 -0.517579 0
M  V30 2337 C 227.792 -1.02193 -1.58752 0
M  V30 2338 O 227.149 -0.0181619 -1.82491 0
M  V30 2339 C 227.2 -3.43618 -1.12289 0
M  V30 2340 O 226.921 -4.37995 -0.0956929 0
M  V30 2341 C 228.422 -4.02231 -1.86347 0
M  V30 2342 H 225.642 -0.657243 -0.135177 0
M  V30 2343 H 228.186 -2.03146 0.234973 0
M  V30 2344 H 226.341 -3.41662 -1.82609 0
M  V30 2345 H 226.755 -5.21729 -0.538469 0
M  V30 2346 H 228.229 -5.04509 -2.23997 0
M  V30 2347 H 228.706 -3.42655 -2.74744 0
M  V30 2348 H 229.312 -4.07802 -1.20737 0
M  V30 2349 N 227.627 0.131896 -1.57047 0
M  V30 2350 C 228.852 0.860418 -1.8871 0
M  V30 2351 C 229.277 1.73251 -0.73251 0
M  V30 2352 O 228.635 1.785 0.317429 0
M  V30 2353 C 228.683 1.68047 -3.19049 0
M  V30 2354 O 227.787 2.7862 -3.04047 0
M  V30 2355 H 227.128 0.238743 -0.619595 0
M  V30 2356 H 229.658 0.118169 -2.04258 0
M  V30 2357 H 229.668 2.07238 -3.51449 0
M  V30 2358 H 228.343 1.04018 -4.02682 0
M  V30 2359 H 226.92 2.42726 -2.83088 0
M  V30 2360 N 229.106 1.52395 0.401703 0
M  V30 2361 C 230.354 1.66488 1.14569 0
M  V30 2362 C 230.675 0.400897 1.90835 0
M  V30 2363 O 229.945 -0.584415 1.8698 0
M  V30 2364 H 228.525 0.613672 0.425929 0
M  V30 2365 H 231.187 1.89464 0.457093 0
M  V30 2366 H 230.283 2.50942 1.85566 0
M  V30 2367 N 230.584 -0.659388 1.43143 0
M  V30 2368 C 231.824 -1.43121 1.45931 0
M  V30 2369 C 232.188 -1.91838 0.0789298 0
M  V30 2370 O 233.389 -2.68794 -0.018491 0
M  V30 2371 C 231.66 -2.58534 2.46769 0
M  V30 2372 S 233.219 -3.47154 2.68384 0
M  V30 2373 H 230.037 -0.488624 0.516496 0
M  V30 2374 H 232.639 -0.766128 1.79863 0
M  V30 2375 H 231.343 -2.21007 3.45809 0
M  V30 2376 H 230.874 -3.29898 2.14315 0
M  V30 2377 H 232.889 -4.55051 1.97845 0
M  V30 2378 N 232.062 -1.29571 -0.897171 0
M  V30 2379 C 233.01 -1.14802 -2.02295 0
M  V30 2380 C 234.004 -0.0629637 -1.69283 0
M  V30 2381 O 235.21 -0.222945 -1.78614 0
M  V30 2382 H 231.585 -0.354692 -0.663097 0
M  V30 2383 H 233.556 -2.10108 -2.11889 0
M  V30 2384 C 232.305 -0.843966 -3.37302 0
M  V30 2385 H 231.628 -1.67093 -3.63208 0
M  V30 2386 H 233.068 -0.780672 -4.16751 0
M  V30 2387 C 231.527 0.452843 -3.33843 0
M  V30 2388 O 232.057 1.47813 -3.73516 0
M  V30 2389 N 230.263 0.459601 -2.86943 0
M  V30 2390 H 229.81 -0.375213 -2.54853 0
M  V30 2391 H 229.768 1.32726 -2.85011 0
M  V30 2392 N 233.54 1.10788 -1.12088 0
M  V30 2393 C 234.47 2.19083 -0.807755 0
M  V30 2394 C 235.451 1.6858 0.226859 0
M  V30 2395 O 236.636 1.93997 0.0888475 0
M  V30 2396 C 233.766 3.46344 -0.257576 0
M  V30 2397 C 232.72 4.101 -1.22483 0
M  V30 2398 C 232.046 5.32016 -0.535052 0
M  V30 2399 C 233.346 4.54236 -2.57811 0
M  V30 2400 H 235.04 2.45534 -1.71328 0
M  V30 2401 H 232.586 1.1801 -0.825205 0
M  V30 2402 H 234.539 4.21392 -0.0262679 0
M  V30 2403 H 233.263 3.19373 0.683278 0
M  V30 2404 H 231.922 3.37054 -1.44189 0
M  V30 2405 H 231.57 5.01319 0.410827 0
M  V30 2406 H 231.27 5.75625 -1.18024 0
M  V30 2407 H 232.794 6.09799 -0.312695 0
M  V30 2408 H 234.208 5.20575 -2.40155 0
M  V30 2409 H 232.605 5.08682 -3.18375 0
M  V30 2410 H 233.675 3.6734 -3.16528 0
M  V30 2411 N 235.018 0.912232 1.28515 0
M  V30 2412 C 236.295 0.463597 1.90027 0
M  V30 2413 C 236.675 -1.05753 1.82701 0
M  V30 2414 O 236.023 -1.90492 1.26194 0
M  V30 2415 C 236.233 0.992253 3.34597 0
M  V30 2416 C 237.581 1.04344 4.11579 0
M  V30 2417 O 238.605 0.94079 3.43551 0
M  V30 2418 O 237.464 1.1995 5.33174 0
M  V30 2419 H 234.558 0.146666 0.813891 0
M  V30 2420 H 237.104 1.00292 1.36893 0
M  V30 2421 H 235.876 2.03623 3.34146 0
M  V30 2422 H 235.499 0.433672 3.95228 0
M  V30 2423 N 236.496 -1.42363 0.676048 0
M  V30 2424 C 237.736 -2.03392 0.20273 0
M  V30 2425 C 238.1 -1.52306 -1.16906 0
M  V30 2426 O 239.301 -2.05129 -1.73711 0
M  V30 2427 C 237.572 -3.56614 0.236947 0
M  V30 2428 S 239.131 -4.38489 -0.165186 0
M  V30 2429 H 235.949 -0.70611 0.0832418 0
M  V30 2430 H 238.551 -1.74093 0.88948 0
M  V30 2431 H 237.255 -3.91293 1.23767 0
M  V30 2432 H 236.786 -3.90587 -0.469596 0
M  V30 2433 H 238.801 -4.76093 -1.39822 0
M  V30 2434 N 237.974 -0.419461 -1.51915 0
M  V30 2435 C 238.921 0.400927 -2.27291 0
M  V30 2436 C 239.891 1.03224 -1.30131 0
M  V30 2437 O 241.076 1.05455 -1.59009 0
M  V30 2438 C 238.216 1.50603 -3.10504 0
M  V30 2439 C 237.329 0.89462 -4.22635 0
M  V30 2440 C 236.464 1.97328 -4.93189 0
M  V30 2441 C 235.503 1.33935 -5.97267 0
M  V30 2442 N 234.64 2.3586 -6.61298 0
M  V30 2443 H 239.48 -0.248251 -2.96964 0
M  V30 2444 H 237.017 -0.134266 -1.46486 0
M  V30 2445 H 238.975 2.15783 -3.57062 0
M  V30 2446 H 237.605 2.12509 -2.42981 0
M  V30 2447 H 236.657 0.131583 -3.80172 0
M  V30 2448 H 237.969 0.391641 -4.9726 0
M  V30 2449 H 237.123 2.70211 -5.43204 0
M  V30 2450 H 235.862 2.50994 -4.18155 0
M  V30 2451 H 234.867 0.595896 -5.46561 0
M  V30 2452 H 236.092 0.810252 -6.74249 0
M  V30 2453 H 234.038 2.88639 -5.89087 0
M  V30 2454 H 233.955 1.90403 -7.3163 0
M  V30 2455 H 235.223 3.08282 -7.15949 0
M  V30 2456 N 239.452 1.56882 -0.150215 0
M  V30 2457 C 240.415 2.1573 0.774157 0
M  V30 2458 C 241.415 1.0999 1.17298 0
M  V30 2459 O 242.605 1.35613 1.09338 0
M  V30 2460 C 239.737 2.72302 2.05096 0
M  V30 2461 H 240.93 2.98752 0.262201 0
M  V30 2462 H 238.483 1.55985 0.099248 0
M  V30 2463 H 239.218 1.92956 2.6065 0
M  V30 2464 H 239.003 3.49665 1.77416 0
M  V30 2465 H 240.493 3.17632 2.71109 0
M  V30 2466 N 240.93 -0.123565 1.57115 0
M  V30 2467 C 242.176 -0.833386 1.84885 0
M  V30 2468 C 242.509 -1.79742 0.735292 0
M  V30 2469 O 241.784 -1.92764 -0.25925 0
M  V30 2470 C 242.067 -1.5873 3.23228 0
M  V30 2471 C 241.92 -0.643183 4.45178 0
M  V30 2472 C 243.239 -2.54453 3.59085 0
M  V30 2473 H 240.358 -0.301518 0.6725 0
M  V30 2474 H 243 -0.097778 1.89748 0
M  V30 2475 H 241.15 -2.21438 3.19214 0
M  V30 2476 H 242.822 -0.0253015 4.61293 0
M  V30 2477 H 241.065 0.0456139 4.33776 0
M  V30 2478 H 241.736 -1.20724 5.38637 0
M  V30 2479 H 244.212 -2.01853 3.63861 0
M  V30 2480 H 243.088 -3.04238 4.5687 0
M  V30 2481 H 243.349 -3.36906 2.86264 0
M  V30 2482 N 242.408 -1.52605 -0.393616 0
M  V30 2483 C 243.338 -1.80022 -1.48709 0
M  V30 2484 C 244.319 -0.651995 -1.57108 0
M  V30 2485 O 245.504 -0.89913 -1.72132 0
M  V30 2486 C 242.634 -1.96492 -2.86371 0
M  V30 2487 C 241.588 -3.12161 -2.92813 0
M  V30 2488 C 240.914 -3.13877 -4.3288 0
M  V30 2489 C 242.214 -4.51322 -2.6288 0
M  V30 2490 H 243.908 -2.71589 -1.26015 0
M  V30 2491 H 241.454 -1.30684 -0.604778 0
M  V30 2492 H 243.407 -2.14255 -3.62867 0
M  V30 2493 H 242.131 -1.01611 -3.10391 0
M  V30 2494 H 240.79 -2.94173 -2.18764 0
M  V30 2495 H 240.438 -2.16687 -4.53933 0
M  V30 2496 H 240.138 -3.91576 -4.38112 0
M  V30 2497 H 241.662 -3.33789 -5.1129 0
M  V30 2498 H 243.076 -4.69435 -3.29096 0
M  V30 2499 H 241.473 -5.31053 -2.79468 0
M  V30 2500 H 242.543 -4.58353 -1.58242 0
M  V30 2501 N 243.887 0.651787 -1.4349 0
M  V30 2502 C 244.837 1.75783 -1.45205 0
M  V30 2503 C 245.821 1.57679 -0.320328 0
M  V30 2504 O 247.013 1.67767 -0.564211 0
M  V30 2505 C 244.142 3.14377 -1.3792 0
M  V30 2506 C 243.228 3.38023 -2.56127 0
M  V30 2507 N 243.619 3.32135 -3.81471 0
M  V30 2508 C 241.917 3.68747 -2.50882 0
M  V30 2509 C 242.618 3.55902 -4.60118 0
M  V30 2510 N 241.594 3.77783 -3.90872 0
M  V30 2511 H 245.396 1.69657 -2.39987 0
M  V30 2512 H 242.91 0.853508 -1.38163 0
M  V30 2513 H 244.907 3.93666 -1.37231 0
M  V30 2514 H 243.567 3.21683 -0.441596 0
M  V30 2515 H 244.578 3.11515 -4.13738 0
M  V30 2516 H 241.255 3.8316 -1.65816 0
M  V30 2517 H 242.645 3.57116 -5.69138 0
M  V30 2518 N 245.365 1.30045 0.890287 0
M  V30 2519 C 246.328 1.15963 1.977 0
M  V30 2520 C 247.328 0.0923777 1.60534 0
M  V30 2521 O 248.518 0.340071 1.70848 0
M  V30 2522 C 245.65 0.775451 3.31963 0
M  V30 2523 H 246.843 2.12502 2.11619 0
M  V30 2524 H 244.396 1.13366 1.07601 0
M  V30 2525 H 245.131 -0.189671 3.23745 0
M  V30 2526 H 244.916 1.54668 3.60306 0
M  V30 2527 H 246.406 0.700251 4.11687 0
M  V30 2528 N 246.843 -1.10192 1.12674 0
M  V30 2529 C 248.089 -1.82475 0.884915 0
M  V30 2530 C 248.422 -1.85093 -0.58773 0
M  V30 2531 O 247.697 -1.3134 -1.43457 0
M  V30 2532 C 247.98 -3.29018 1.46353 0
M  V30 2533 C 247.833 -3.34718 3.00473 0
M  V30 2534 C 249.152 -4.25473 1.12519 0
M  V30 2535 H 246.271 -0.662492 0.322915 0
M  V30 2536 H 248.913 -1.2913 1.39375 0
M  V30 2537 H 247.063 -3.74576 1.03077 0
M  V30 2538 H 248.735 -2.97622 3.52447 0
M  V30 2539 H 246.978 -2.74541 3.35872 0
M  V30 2540 H 247.649 -4.37918 3.36053 0
M  V30 2541 H 250.125 -3.88161 1.499 0
M  V30 2542 H 249.001 -5.26365 1.55663 0
M  V30 2543 H 249.262 -4.42084 0.0377407 0
M  V30 2544 N 248.321 -0.919034 -1.28029 0
M  V30 2545 C 249.284 -0.416182 -2.2539 0
M  V30 2546 C 250.284 0.460438 -1.54067 0
M  V30 2547 O 251.474 0.262744 -1.72207 0
M  V30 2548 C 248.606 0.402707 -3.38513 0
M  V30 2549 H 249.799 -1.27629 -2.71387 0
M  V30 2550 H 247.352 -0.698919 -1.39803 0
M  V30 2551 H 248.087 1.282 -2.97885 0
M  V30 2552 H 247.872 -0.225698 -3.9145 0
M  V30 2553 H 249.362 0.745191 -4.10897 0
M  V30 2554 N 249.799 1.42003 -0.683588 0
M  V30 2555 C 251.21 1.84501 -0.285736 0
M  V30 2556 C 251.561 1.57213 1.17382 0
M  V30 2557 O 250.686 1.03642 1.89966 0
M  V30 2558 C 251.281 3.34912 -0.511821 0
M  V30 2559 C 249.84 3.76025 -0.168005 0
M  V30 2560 C 248.987 2.6551 -0.799983 0
M  V30 2561 H 251.938 1.31724 -0.885119 0
M  V30 2562 H 251.959 3.79784 0.233292 0
M  V30 2563 H 251.471 3.54741 -1.57418 0
M  V30 2564 H 249.572 3.61801 0.890567 0
M  V30 2565 H 249.685 4.75141 -0.614661 0
M  V30 2566 H 248.049 2.53654 -0.230568 0
M  V30 2567 H 248.832 2.8816 -1.86597 0
M  V30 2568 N 251.277 0.427512 1.51691 0
M  V30 2569 C 252.507 -0.140986 2.06118 0
M  V30 2570 C 252.915 -1.37854 1.29588 0
M  V30 2571 O 252.258 -1.80411 0.346036 0
M  V30 2572 C 252.32 -0.538276 3.55447 0
M  V30 2573 C 251.984 0.591095 4.53161 0
M  V30 2574 C 252.981 1.46027 4.98971 0
M  V30 2575 C 250.666 0.769028 4.96378 0
M  V30 2576 C 252.66 2.49216 5.8666 0
M  V30 2577 C 250.347 1.80421 5.83859 0
M  V30 2578 C 251.345 2.66417 6.28897 0
M  V30 2579 O 251.033 3.68159 7.14643 0
M  V30 2580 H 250.765 -0.0157455 0.675817 0
M  V30 2581 H 253.319 0.602495 1.96365 0
M  V30 2582 H 251.549 -1.33432 3.6295 0
M  V30 2583 H 253.238 -1.0368 3.92435 0
M  V30 2584 H 254.004 1.33429 4.66285 0
M  V30 2585 H 249.883 0.109273 4.6087 0
M  V30 2586 H 253.427 3.16372 6.21735 0
M  V30 2587 H 249.324 1.93042 6.15959 0
M  V30 2588 H 250.092 3.64622 7.32798 0
M  V30 2589 N 252.755 -1.56801 0.158532 0
M  V30 2590 C 254.001 -1.97559 -0.483957 0
M  V30 2591 C 254.356 -1.04239 -1.61716 0
M  V30 2592 O 253.649 -0.079603 -1.91435 0
M  V30 2593 C 253.843 -3.4235 -1.02623 0
M  V30 2594 C 253.672 -4.49669 0.0528929 0
M  V30 2595 C 252.442 -5.02838 0.498234 0
M  V30 2596 C 254.64 -5.0725 0.848616 0
M  V30 2597 N 252.622 -5.93775 1.559 0
M  V30 2598 C 253.993 -5.94506 1.7596 0
M  V30 2599 C 256.048 -4.89788 0.895121 0
M  V30 2600 C 254.751 -6.66169 2.71314 0
M  V30 2601 C 256.777 -5.62161 1.83654 0
M  V30 2602 C 256.139 -6.49134 2.73503 0
M  V30 2603 H 252.238 -0.768332 -0.145566 0
M  V30 2604 H 254.822 -1.93012 0.255799 0
M  V30 2605 H 252.993 -3.47467 -1.73555 0
M  V30 2606 H 254.725 -3.70145 -1.63629 0
M  V30 2607 H 251.48 -4.73498 0.0983222 0
M  V30 2608 H 251.904 -6.43948 2.08949 0
M  V30 2609 H 256.546 -4.22255 0.21453 0
M  V30 2610 H 254.264 -7.32923 3.40367 0
M  V30 2611 H 257.85 -5.5064 1.87847 0
M  V30 2612 H 256.73 -7.04153 3.45163 0
M  V30 2613 N 254.233 0.115231 -1.57178 0
M  V30 2614 C 255.181 1.16014 -2.01602 0
M  V30 2615 C 256.175 1.42653 -0.913587 0
M  V30 2616 O 257.381 1.42571 -1.09879 0
M  V30 2617 H 253.756 0.391252 -0.642204 0
M  V30 2618 H 255.727 0.758998 -2.88586 0
M  V30 2619 C 254.476 2.47767 -2.4394 0
M  V30 2620 H 253.799 2.28108 -3.28339 0
M  V30 2621 H 255.239 3.19432 -2.78818 0
M  V30 2622 C 253.698 3.10617 -1.30455 0
M  V30 2623 O 254.228 3.96846 -0.622585 0
M  V30 2624 N 252.434 2.70553 -1.06064 0
M  V30 2625 H 251.981 2.00527 -1.61699 0
M  V30 2626 H 251.939 3.12934 -0.303284 0
M  V30 2627 N 255.711 1.52812 0.385517 0
M  V30 2628 C 256.659 1.78482 1.49155 0
M  V30 2629 C 257.653 0.652914 1.56312 0
M  V30 2630 O 258.859 0.835464 1.59436 0
M  V30 2631 H 255.234 0.5648 0.496493 0
M  V30 2632 H 257.205 2.71095 1.24699 0
M  V30 2633 C 255.954 1.97378 2.86247 0
M  V30 2634 H 255.277 2.83907 2.81491 0
M  V30 2635 H 256.717 2.19327 3.62866 0
M  V30 2636 C 255.176 0.74728 3.28508 0
M  V30 2637 O 255.706 -0.0736232 4.01633 0
M  V30 2638 N 253.912 0.576396 2.84826 0
M  V30 2639 H 253.459 1.24555 2.25486 0
M  V30 2640 H 253.417 -0.24288 3.1346 0
M  V30 2641 N 257.189 -0.644168 1.43834 0
M  V30 2642 C 258.437 -1.40117 1.45642 0
M  V30 2643 C 258.758 -1.94814 0.0852413 0
M  V30 2644 O 258.028 -1.74988 -0.880688 0
M  V30 2645 H 256.608 -0.52005 0.536243 0
M  V30 2646 H 259.27 -0.7591 1.7951 0
M  V30 2647 H 258.366 -2.23902 2.17427 0
M  V30 2648 N 258.668 -1.30515 -0.883378 0
M  V30 2649 C 259.631 -1.1701 -1.97082 0
M  V30 2650 C 260.631 -0.10089 -1.60483 0
M  V30 2651 O 261.821 -0.349127 -1.70666 0
M  V30 2652 C 258.953 -0.793045 -3.31547 0
M  V30 2653 H 260.146 -2.13622 -2.10489 0
M  V30 2654 H 257.699 -1.13935 -1.06998 0
M  V30 2655 H 258.434 0.172499 -3.23841 0
M  V30 2656 H 258.219 -1.56576 -3.5948 0
M  V30 2657 H 259.709 -0.722073 -4.1131 0
M  V30 2658 N 260.146 1.09593 -1.13257 0
M  V30 2659 C 261.056 2.19739 -0.821691 0
M  V30 2660 C 262.072 1.72926 0.19302 0
M  V30 2661 O 263.248 2.01385 0.0244895 0
M  V30 2662 C 260.313 3.45482 -0.290333 0
M  V30 2663 C 259.374 4.06985 -1.36607 0
M  V30 2664 C 258.607 5.26726 -0.859975 0
M  V30 2665 O 258.83 5.69594 0.303082 0
M  V30 2666 O 257.764 5.7931 -1.63351 0
M  V30 2667 H 261.59 2.48781 -1.74189 0
M  V30 2668 H 259.175 1.18496 -0.909894 0
M  V30 2669 H 261.057 4.214 0.000674022 0
M  V30 2670 H 259.732 3.18047 0.602306 0
M  V30 2671 H 258.639 3.32712 -1.71037 0
M  V30 2672 H 259.972 4.38643 -2.23279 0
M  V30 2673 N 261.624 0.925811 1.2754 0
M  V30 2674 C 262.852 0.581509 1.9856 0
M  V30 2675 C 263.267 -0.840041 1.69082 0
M  V30 2676 O 262.624 -1.55805 0.950312 0
M  V30 2677 C 262.675 0.795589 3.52637 0
M  V30 2678 O 262.396 2.16121 3.81082 0
M  V30 2679 C 263.897 0.459744 4.4091 0
M  V30 2680 H 261.117 0.220538 0.633722 0
M  V30 2681 H 263.661 1.24232 1.6244 0
M  V30 2682 H 261.816 0.18161 3.86974 0
M  V30 2683 H 262.23 2.2098 4.75676 0
M  V30 2684 H 263.704 0.660244 5.48037 0
M  V30 2685 H 264.181 -0.604625 4.35018 0
M  V30 2686 H 264.787 1.05178 4.12089 0
M  V30 2687 N 263.102 -1.41638 0.69111 0
M  V30 2688 C 264.327 -2.06148 0.227583 0
M  V30 2689 C 264.752 -1.51652 -1.11281 0
M  V30 2690 O 264.11 -0.64164 -1.69566 0
M  V30 2691 C 264.158 -3.60095 0.190858 0
M  V30 2692 O 263.262 -4.03845 -0.835664 0
M  V30 2693 H 262.603 -0.654434 0.112306 0
M  V30 2694 H 265.133 -1.81484 0.944714 0
M  V30 2695 H 265.143 -4.07995 0.020207 0
M  V30 2696 H 263.818 -3.99129 1.16915 0
M  V30 2697 H 262.395 -3.67458 -0.63473 0
M  V30 2698 N 264.58 -0.43555 -1.51462 0
M  V30 2699 C 265.826 0.123979 -2.03022 0
M  V30 2700 C 266.181 1.4054 -1.31401 0
M  V30 2701 O 265.474 1.86948 -0.419634 0
M  V30 2702 C 265.668 0.39942 -3.55161 0
M  V30 2703 C 265.497 -0.853754 -4.41521 0
M  V30 2704 C 264.267 -1.38675 -4.85898 0
M  V30 2705 C 266.465 -1.73939 -4.83994 0
M  V30 2706 N 264.447 -2.59265 -5.56466 0
M  V30 2707 C 265.818 -2.79135 -5.5361 0
M  V30 2708 C 267.873 -1.75402 -4.65981 0
M  V30 2709 C 266.576 -3.85737 -6.07124 0
M  V30 2710 C 268.602 -2.80938 -5.20411 0
M  V30 2711 C 267.964 -3.84854 -5.89972 0
M  V30 2712 H 264.063 0.00624887 -0.781975 0
M  V30 2713 H 266.647 -0.59582 -1.85359 0
M  V30 2714 H 264.818 1.08825 -3.72843 0
M  V30 2715 H 266.55 0.95015 -3.93388 0
M  V30 2716 H 263.305 -0.94094 -4.64159 0
M  V30 2717 H 263.729 -3.2041 -5.96378 0
M  V30 2718 H 268.371 -0.963926 -4.11665 0
M  V30 2719 H 266.089 -4.65586 -6.60496 0
M  V30 2720 H 269.675 -2.8301 -5.08327 0
M  V30 2721 H 268.555 -4.65176 -6.31333 0
M  V30 2722 N 266.058 1.56714 -0.166846 0
M  V30 2723 C 266.99 2.14914 0.796537 0
M  V30 2724 C 268.003 1.10357 1.19688 0
M  V30 2725 O 269.192 1.37561 1.13751 0
M  V30 2726 C 266.292 2.67326 2.08303 0
M  V30 2727 C 265.465 3.96493 1.84696 0
M  V30 2728 C 264.524 4.34014 2.97521 0
M  V30 2729 O 263.55 5.01973 2.6835 0
M  V30 2730 N 264.752 3.95208 4.25196 0
M  V30 2731 H 267.517 2.98205 0.299006 0
M  V30 2732 H 265.078 1.61892 0.0160839 0
M  V30 2733 H 267.07 2.89428 2.82867 0
M  V30 2734 H 265.64 1.88649 2.4926 0
M  V30 2735 H 264.86 3.82814 0.940602 0
M  V30 2736 H 266.148 4.8086 1.66285 0
M  V30 2737 H 265.546 3.40487 4.51758 0
M  V30 2738 H 264.103 4.2232 4.96477 0
M  V30 2739 N 267.536 -0.106894 1.57237 0
M  V30 2740 C 268.785 -0.811163 1.8467 0
M  V30 2741 C 269.098 -1.80469 0.754342 0
M  V30 2742 O 270.304 -2.55601 0.915439 0
M  V30 2743 C 268.76 -1.49337 3.27454 0
M  V30 2744 C 268.368 -0.540217 4.44731 0
M  V30 2745 C 270.112 -2.18206 3.64124 0
M  V30 2746 C 268.019 -1.22634 5.78545 0
M  V30 2747 H 266.949 -0.306679 0.688813 0
M  V30 2748 H 269.6 -0.0639887 1.83388 0
M  V30 2749 H 267.982 -2.2876 3.23241 0
M  V30 2750 H 269.156 0.221659 4.60267 0
M  V30 2751 H 267.471 0.042146 4.16379 0
M  V30 2752 H 270.068 -2.70253 4.61376 0
M  V30 2753 H 270.411 -2.96562 2.92158 0
M  V30 2754 H 270.944 -1.45658 3.70174 0
M  V30 2755 H 267.683 -0.483832 6.53712 0
M  V30 2756 H 267.203 -1.95993 5.66874 0
M  V30 2757 H 268.882 -1.75615 6.2271 0
M  V30 2758 N 269.014 -1.53014 -0.377408 0
M  V30 2759 C 269.947 -1.73382 -1.48371 0
M  V30 2760 C 270.925 -0.581879 -1.51832 0
M  V30 2761 O 272.109 -0.81307 -1.70063 0
M  V30 2762 C 269.236 -1.80192 -2.8679 0
M  V30 2763 C 268.282 -3.02056 -3.01105 0
M  V30 2764 S 269.115 -4.61811 -2.71093 0
M  V30 2765 C 270.271 -4.71453 -4.11683 0
M  V30 2766 H 270.504 -2.66946 -1.30872 0
M  V30 2767 H 268.037 -1.43453 -0.571012 0
M  V30 2768 H 269.995 -1.84802 -3.6655 0
M  V30 2769 H 268.656 -0.877008 -3.01608 0
M  V30 2770 H 267.849 -3.03396 -4.02451 0
M  V30 2771 H 267.451 -2.95498 -2.29253 0
M  V30 2772 H 269.743 -4.50781 -5.0577 0
M  V30 2773 H 270.686 -5.73487 -4.15353 0
M  V30 2774 H 271.094 -4.00189 -3.98132 0
M  V30 2775 N 270.492 0.636531 -1.44174 0
M  V30 2776 C 271.455 1.73063 -1.50273 0
M  V30 2777 C 272.455 1.56113 -0.385397 0
M  V30 2778 O 273.645 1.61707 -0.64781 0
M  V30 2779 C 270.777 3.12096 -1.37145 0
M  V30 2780 H 271.97 1.69031 -2.47727 0
M  V30 2781 H 269.523 0.849706 -1.31186 0
M  V30 2782 H 270.258 3.21728 -0.407636 0
M  V30 2783 H 270.043 3.25805 -2.18159 0
M  V30 2784 H 271.533 3.91846 -1.44382 0
M  V30 2785 N 271.97 1.30982 0.876444 0
M  V30 2786 C 272.918 1.18006 2.00443 0
M  V30 2787 C 273.912 0.0898871 1.69161 0
M  V30 2788 O 275.118 0.251333 1.78237 0
M  V30 2789 H 271.493 0.365196 0.65737 0
M  V30 2790 H 273.464 2.13453 2.0852 0
M  V30 2791 C 272.213 0.897521 3.35916 0
M  V30 2792 H 271.536 1.7285 3.60504 0
M  V30 2793 H 272.976 0.846874 4.15456 0
M  V30 2794 C 271.435 -0.399674 3.34521 0
M  V30 2795 O 271.965 -1.41852 3.7582 0
M  V30 2796 N 270.171 -0.413893 2.87637 0
M  V30 2797 H 269.718 0.41571 2.54224 0
M  V30 2798 H 269.676 -1.28175 2.87086 0
M  V30 2799 N 273.449 -1.08991 1.13837 0
M  V30 2800 C 274.698 -1.80631 0.897509 0
M  V30 2801 C 275.011 -1.86872 -0.57777 0
M  V30 2802 O 276.217 -2.54866 -0.935701 0
M  V30 2803 C 274.673 -3.24517 1.55618 0
M  V30 2804 C 274.281 -3.26529 3.0673 0
M  V30 2805 C 276.025 -4.00882 1.3962 0
M  V30 2806 C 273.932 -4.64965 3.65461 0
M  V30 2807 H 272.862 -0.67691 0.332129 0
M  V30 2808 H 275.513 -1.2246 1.3666 0
M  V30 2809 H 273.895 -3.82778 1.01476 0
M  V30 2810 H 275.069 -2.78008 3.67489 0
M  V30 2811 H 273.384 -2.63656 3.22296 0
M  V30 2812 H 275.981 -5.03167 1.80906 0
M  V30 2813 H 276.324 -4.14896 0.341578 0
M  V30 2814 H 276.857 -3.49075 1.90766 0
M  V30 2815 H 273.596 -4.56153 4.70749 0
M  V30 2816 H 273.116 -5.13792 3.09481 0
M  V30 2817 H 274.795 -5.3394 3.654 0
M  V30 2818 N 274.927 -0.932562 -1.27047 0
M  V30 2819 C 276.176 -0.571351 -1.93439 0
M  V30 2820 C 276.489 0.892467 -1.74053 0
M  V30 2821 O 277.695 1.36267 -2.34826 0
M  V30 2822 C 276.151 -0.97106 -3.46552 0
M  V30 2823 C 275.759 -2.4559 -3.74686 0
M  V30 2824 C 277.503 -0.681333 -4.18997 0
M  V30 2825 C 275.41 -2.79475 -5.21198 0
M  V30 2826 H 274.34 -0.209966 -0.724176 0
M  V30 2827 H 276.991 -1.13403 -1.44263 0
M  V30 2828 H 275.373 -0.336983 -3.94564 0
M  V30 2829 H 276.547 -3.13829 -3.37414 0
M  V30 2830 H 274.862 -2.71802 -3.15456 0
M  V30 2831 H 277.459 -0.910939 -5.26883 0
M  V30 2832 H 277.802 0.381628 -4.14547 0
M  V30 2833 H 278.335 -1.27473 -3.76823 0
M  V30 2834 H 275.074 -3.847 -5.30741 0
M  V30 2835 H 274.594 -2.1589 -5.596 0
M  V30 2836 H 276.273 -2.67478 -5.89122 0
M  V30 2837 N 276.405 1.4127 -0.698611 0
M  V30 2838 C 277.352 2.30773 -0.0352094 0
M  V30 2839 C 278.322 1.47273 0.768111 0
M  V30 2840 O 279.507 1.76053 0.735524 0
M  V30 2841 C 276.647 3.33346 0.893 0
M  V30 2842 C 275.76 4.31924 0.0809695 0
M  V30 2843 C 274.895 5.21566 1.0071 0
M  V30 2844 C 273.934 6.11811 0.188155 0
M  V30 2845 N 273.071 6.93926 1.06825 0
M  V30 2846 H 277.911 2.86943 -0.804207 0
M  V30 2847 H 275.448 1.4132 -0.408294 0
M  V30 2848 H 277.406 3.91368 1.44523 0
M  V30 2849 H 276.036 2.78719 1.62836 0
M  V30 2850 H 275.088 3.75825 -0.588224 0
M  V30 2851 H 276.4 4.95716 -0.553801 0
M  V30 2852 H 275.554 5.84437 1.62845 0
M  V30 2853 H 274.293 4.58008 1.67572 0
M  V30 2854 H 273.298 5.47986 -0.446254 0
M  V30 2855 H 274.523 6.77425 -0.476716 0
M  V30 2856 H 272.469 6.32973 1.72283 0
M  V30 2857 H 272.386 7.54416 0.489123 0
M  V30 2858 H 273.654 7.61262 1.67632 0
M  V30 2859 N 277.883 0.443576 1.51229 0
M  V30 2860 C 278.83 -0.364716 2.279 0
M  V30 2861 C 279.8 -1.0114 1.31757 0
M  V30 2862 O 280.985 -1.02912 1.60667 0
M  V30 2863 C 278.125 -1.45644 3.12861 0
M  V30 2864 C 277.238 -0.827269 4.24005 0
M  V30 2865 C 276.373 -1.89456 4.96266 0
M  V30 2866 C 275.412 -1.24416 5.99322 0
M  V30 2867 N 274.549 -2.25309 6.64966 0
M  V30 2868 H 279.389 0.295464 2.96532 0
M  V30 2869 H 276.926 0.157554 1.46254 0
M  V30 2870 H 278.884 -2.10076 3.6045 0
M  V30 2871 H 277.514 -2.08616 2.46331 0
M  V30 2872 H 276.566 -0.0710839 3.80334 0
M  V30 2873 H 277.878 -0.312481 4.9782 0
M  V30 2874 H 277.032 -2.61535 5.47434 0
M  V30 2875 H 275.771 -2.4431 4.22095 0
M  V30 2876 H 274.776 -0.508868 5.4744 0
M  V30 2877 H 276.001 -0.702882 6.75453 0
M  V30 2878 H 273.947 -2.79231 5.93604 0
M  V30 2879 H 273.864 -1.78739 7.34567 0
M  V30 2880 H 275.132 -2.96853 7.20763 0
M  V30 2881 N 279.361 -1.56624 0.175154 0
M  V30 2882 C 280.601 -1.98894 -0.471221 0
M  V30 2883 C 280.965 -1.05889 -1.60161 0
M  V30 2884 O 282.166 -1.37315 -2.3108 0
M  V30 2885 C 280.437 -3.44865 -0.938241 0
M  V30 2886 S 281.996 -4.09164 -1.58526 0
M  V30 2887 H 278.814 -0.694686 -0.151434 0
M  V30 2888 H 281.416 -1.93577 0.27352 0
M  V30 2889 H 280.12 -4.10265 -0.10518 0
M  V30 2890 H 279.651 -3.53956 -1.71693 0
M  V30 2891 H 281.666 -4.04528 -2.87352 0
M  V30 2892 N 280.839 0.0985539 -1.57292 0
M  V30 2893 C 281.769 1.12064 -2.04851 0
M  V30 2894 C 282.75 1.41981 -0.936767 0
M  V30 2895 O 283.935 1.52071 -1.20781 0
M  V30 2896 C 281.065 2.44144 -2.47004 0
M  V30 2897 C 280.019 2.28643 -3.6181 0
M  V30 2898 C 279.345 3.65869 -3.89929 0
M  V30 2899 C 280.645 1.72986 -4.92822 0
M  V30 2900 H 282.339 0.724979 -2.9049 0
M  V30 2901 H 279.885 0.34729 -1.39749 0
M  V30 2902 H 281.838 3.15914 -2.78884 0
M  V30 2903 H 280.562 2.85639 -1.5836 0
M  V30 2904 H 279.221 1.59318 -3.30172 0
M  V30 2905 H 278.869 4.04885 -2.98458 0
M  V30 2906 H 278.569 3.56344 -4.67218 0
M  V30 2907 H 280.093 4.39112 -4.2428 0
M  V30 2908 H 281.507 2.34593 -5.23105 0
M  V30 2909 H 279.904 1.74229 -5.74251 0
M  V30 2910 H 280.974 0.689007 -4.7998 0
M  V30 2911 N 282.317 1.53212 0.369288 0
M  V30 2912 C 283.545 1.73119 1.13303 0
M  V30 2913 C 283.96 0.458455 1.83149 0
M  V30 2914 O 283.317 -0.568403 1.73423 0
M  V30 2915 C 283.368 2.89413 2.16616 0
M  V30 2916 O 283.089 4.11761 1.49614 0
M  V30 2917 C 284.59 3.21161 3.05566 0
M  V30 2918 H 281.81 0.579107 0.338934 0
M  V30 2919 H 284.354 1.99942 0.429338 0
M  V30 2920 H 282.509 2.64994 2.82589 0
M  V30 2921 H 282.923 4.76858 2.18419 0
M  V30 2922 H 284.397 4.05949 3.74045 0
M  V30 2923 H 284.874 2.36369 3.70171 0
M  V30 2924 H 285.48 3.47492 2.45213 0
M  V30 2925 N 283.795 -0.628877 1.44509 0
M  V30 2926 C 285.023 -1.41554 1.50897 0
M  V30 2927 C 285.438 -1.8832 0.134564 0
M  V30 2928 O 284.795 -1.60969 -0.859965 0
M  V30 2929 C 284.846 -2.63435 2.47556 0
M  V30 2930 O 284.567 -2.18619 3.79654 0
M  V30 2931 C 286.068 -3.56537 2.63431 0
M  V30 2932 H 283.288 -0.434044 0.511709 0
M  V30 2933 H 285.832 -0.768895 1.89495 0
M  V30 2934 H 283.987 -3.24187 2.12089 0
M  V30 2935 H 284.401 -2.97652 4.31861 0
M  V30 2936 H 285.875 -4.38657 3.35088 0
M  V30 2937 H 286.352 -4.05493 1.68738 0
M  V30 2938 H 286.958 -3.01653 2.9981 0
M  V30 2939 N 285.273 -1.31445 -0.869486 0
M  V30 2940 C 286.519 -1.21337 -1.62496 0
M  V30 2941 C 286.852 0.227872 -1.92858 0
M  V30 2942 O 286.127 1.16094 -1.56053 0
M  V30 2943 C 286.41 -2.05814 -2.95487 0
M  V30 2944 C 286.263 -3.5824 -2.72 0
M  V30 2945 C 287.582 -1.9079 -3.96594 0
M  V30 2946 H 284.701 -0.442135 -0.589649 0
M  V30 2947 H 287.343 -1.6124 -1.00507 0
M  V30 2948 H 285.493 -1.71913 -3.48394 0
M  V30 2949 H 287.165 -4.0228 -2.25762 0
M  V30 2950 H 285.408 -3.81647 -2.06224 0
M  V30 2951 H 286.079 -4.12657 -3.66631 0
M  V30 2952 H 288.555 -2.20459 -3.52898 0
M  V30 2953 H 287.431 -2.52199 -4.87531 0
M  V30 2954 H 287.692 -0.871341 -4.33428 0
M  V30 2955 N 286.751 1.08385 -1.14413 0
M  V30 2956 C 287.661 2.18856 -0.844951 0
M  V30 2957 C 288.677 1.73121 0.174668 0
M  V30 2958 O 289.853 2.014 0.00312857 0
M  V30 2959 C 286.918 3.45155 -0.32696 0
M  V30 2960 C 285.979 4.05513 -1.40916 0
M  V30 2961 C 285.212 5.25784 -0.915793 0
M  V30 2962 O 285.435 5.69884 0.242651 0
M  V30 2963 O 284.369 5.77545 -1.69487 0
M  V30 2964 H 288.195 2.46919 -1.76818 0
M  V30 2965 H 285.78 1.17524 -0.922411 0
M  V30 2966 H 287.662 4.21377 -0.0440211 0
M  V30 2967 H 286.337 3.18668 0.568539 0
M  V30 2968 H 285.244 3.30879 -1.74556 0
M  V30 2969 H 286.577 4.3625 -2.27919 0
M  V30 2970 N 288.23 0.939286 1.26551 0
M  V30 2971 C 289.476 0.586715 1.94128 0
M  V30 2972 C 289.809 -0.8717 1.73537 0
M  V30 2973 O 289.084 -1.62339 1.07127 0
M  V30 2974 C 289.367 0.927497 3.4795 0
M  V30 2975 C 289.22 2.44052 3.77834 0
M  V30 2976 C 290.539 0.441569 4.37879 0
M  V30 2977 H 287.658 0.21463 0.705055 0
M  V30 2978 H 290.3 1.17316 1.49455 0
M  V30 2979 H 288.45 0.428431 3.8613 0
M  V30 2980 H 290.122 3.01216 3.4938 0
M  V30 2981 H 288.365 2.8848 3.23978 0
M  V30 2982 H 289.036 2.62947 4.85348 0
M  V30 2983 H 291.512 0.869448 4.06915 0
M  V30 2984 H 290.388 0.708856 5.44304 0
M  V30 2985 H 290.649 -0.658467 4.37169 0
M  V30 2986 N 289.708 -1.40897 0.706093 0
M  V30 2987 C 290.638 -2.33418 0.0620085 0
M  V30 2988 C 291.619 -1.52385 -0.755827 0
M  V30 2989 O 292.804 -1.80886 -0.706674 0
M  V30 2990 C 289.934 -3.36293 -0.867445 0
M  V30 2991 C 288.888 -4.27716 -0.155932 0
M  V30 2992 C 288.214 -5.2105 -1.20046 0
M  V30 2993 C 289.514 -5.12944 0.984149 0
M  V30 2994 H 291.208 -2.87527 0.83477 0
M  V30 2995 H 288.754 -1.38249 0.402875 0
M  V30 2996 H 290.707 -3.99949 -1.32735 0
M  V30 2997 H 289.431 -2.80556 -1.67199 0
M  V30 2998 H 288.09 -3.65498 0.284047 0
M  V30 2999 H 287.738 -4.61624 -1.99781 0
M  V30 3000 H 287.438 -5.83056 -0.729328 0
M  V30 3001 H 288.962 -5.87584 -1.66066 0
M  V30 3002 H 290.376 -5.70109 0.604048 0
M  V30 3003 H 288.773 -5.83945 1.38304 0
M  V30 3004 H 289.843 -4.49485 1.81911 0
M  V30 3005 N 291.186 -0.45159 -1.50991 0
M  V30 3006 C 292.411 0.110667 -2.07105 0
M  V30 3007 C 292.836 1.3446 -1.31538 0
M  V30 3008 O 292.194 1.77743 -0.357365 0
M  V30 3009 C 292.242 0.397238 -3.58405 0
M  V30 3010 O 291.346 1.48124 -3.84881 0
M  V30 3011 H 290.687 -0.00439271 -0.663985 0
M  V30 3012 H 293.217 -0.637026 -1.9443 0
M  V30 3013 H 293.227 0.64351 -4.02893 0
M  V30 3014 H 291.902 -0.504553 -4.12828 0
M  V30 3015 H 290.479 1.22381 -3.52246 0
M  V30 3016 N 292.664 1.56529 -0.183458 0
M  V30 3017 C 293.911 1.97244 0.458357 0
M  V30 3018 C 294.239 1.06992 1.62428 0
M  V30 3019 O 293.494 0.106542 1.9541 0
M  V30 3020 C 293.793 3.43939 0.971637 0
M  V30 3021 C 293.459 4.5083 -0.0796784 0
M  V30 3022 C 292.121 4.79786 -0.368584 0
M  V30 3023 C 294.473 5.15138 -0.792638 0
M  V30 3024 C 291.801 5.70345 -1.37563 0
M  V30 3025 C 294.153 6.06784 -1.78875 0
M  V30 3026 C 292.817 6.34102 -2.08497 0
M  V30 3027 H 292.087 0.721768 0.167725 0
M  V30 3028 H 294.734 1.89472 -0.277976 0
M  V30 3029 H 293.039 3.48724 1.78602 0
M  V30 3030 H 294.736 3.72791 1.47744 0
M  V30 3031 H 291.326 4.28317 0.155668 0
M  V30 3032 H 295.51 4.92868 -0.582659 0
M  V30 3033 H 290.766 5.89789 -1.61118 0
M  V30 3034 H 294.94 6.55677 -2.3465 0
M  V30 3035 H 292.567 7.04074 -2.86678 0
M  V30 3036 N 294.142 -0.090211 1.57342 0
M  V30 3037 C 295.367 -0.810082 1.90925 0
M  V30 3038 C 295.792 -1.71248 0.778187 0
M  V30 3039 O 295.15 -1.79278 -0.269991 0
M  V30 3040 C 295.198 -1.59529 3.23393 0
M  V30 3041 O 294.302 -2.70461 3.11327 0
M  V30 3042 H 293.643 -0.222231 0.625707 0
M  V30 3043 H 296.173 -0.0639716 2.045 0
M  V30 3044 H 296.183 -1.97847 3.5682 0
M  V30 3045 H 294.858 -0.933055 4.05299 0
M  V30 3046 H 293.435 -2.35135 2.89423 0
M  V30 3047 N 295.62 -1.53406 -0.361157 0
M  V30 3048 C 296.845 -1.74024 -1.12829 0
M  V30 3049 C 297.27 -0.470069 -1.82132 0
M  V30 3050 O 296.628 0.57619 -1.719 0
M  V30 3051 C 296.676 -2.90903 -2.13091 0
M  V30 3052 O 295.78 -2.59821 -3.20261 0
M  V30 3053 H 295.121 -0.577804 -0.327168 0
M  V30 3054 H 297.651 -2.00307 -0.41693 0
M  V30 3055 H 297.661 -3.17194 -2.56616 0
M  V30 3056 H 296.336 -3.83034 -1.62042 0
M  V30 3057 H 294.913 -2.44362 -2.81677 0
M  V30 3058 N 297.098 0.621204 -1.44841 0
M  V30 3059 C 298.347 1.37658 -1.47422 0
M  V30 3060 C 298.66 1.95264 -0.114629 0
M  V30 3061 O 299.866 2.71494 -0.0180199 0
M  V30 3062 C 298.322 2.49285 -2.59586 0
M  V30 3063 C 297.93 1.98149 -4.01797 0
M  V30 3064 C 299.674 3.26409 -2.71399 0
M  V30 3065 C 297.581 3.07178 -5.05367 0
M  V30 3066 H 296.511 0.517344 -0.548517 0
M  V30 3067 H 299.162 0.667257 -1.70938 0
M  V30 3068 H 297.544 3.22839 -2.29328 0
M  V30 3069 H 298.718 1.31395 -4.41669 0
M  V30 3070 H 297.033 1.33812 -3.94314 0
M  V30 3071 H 299.63 4.07706 -3.45948 0
M  V30 3072 H 299.973 3.76535 -1.77559 0
M  V30 3073 H 300.506 2.5995 -3.01116 0
M  V30 3074 H 297.245 2.61985 -6.00869 0
M  V30 3075 H 296.765 3.72542 -4.70077 0
M  V30 3076 H 298.444 3.71789 -5.29511 0
M  V30 3077 N 298.576 1.31904 0.862503 0
M  V30 3078 C 299.804 1.24998 1.64873 0
M  V30 3079 C 300.219 -0.183425 1.87907 0
M  V30 3080 O 299.576 -1.11794 1.44251 0
M  V30 3081 C 299.627 1.99829 3.01248 0
M  V30 3082 O 299.348 3.37575 2.79239 0
M  V30 3083 C 300.849 1.99852 3.95694 0
M  V30 3084 H 298.069 0.431599 0.513773 0
M  V30 3085 H 300.613 1.73901 1.07604 0
M  V30 3086 H 298.768 1.54668 3.55185 0
M  V30 3087 H 299.182 3.75776 3.65914 0
M  V30 3088 H 300.656 2.56709 4.88676 0
M  V30 3089 H 301.133 0.982852 4.28062 0
M  V30 3090 H 301.739 2.44926 3.47694 0
M  V30 3091 N 300.054 -1.07777 1.14986 0
M  V30 3092 C 301.301 -1.8029 0.922056 0
M  V30 3093 C 301.629 -1.86531 -0.55105 0
M  V30 3094 O 300.884 -1.34189 -1.42449 0
M  V30 3095 C 301.183 -3.25495 1.47608 0
M  V30 3096 C 300.849 -3.39361 2.96893 0
M  V30 3097 C 299.511 -3.42852 3.37647 0
M  V30 3098 C 301.863 -3.42512 3.92854 0
M  V30 3099 C 299.191 -3.47094 4.73015 0
M  V30 3100 C 301.543 -3.4829 5.28088 0
M  V30 3101 C 300.207 -3.50058 5.68345 0
M  V30 3102 H 299.477 -0.659727 0.337404 0
M  V30 3103 H 302.124 -1.26854 1.43459 0
M  V30 3104 H 300.429 -3.81683 0.88463 0
M  V30 3105 H 302.126 -3.80168 1.27568 0
M  V30 3106 H 298.716 -3.37339 2.64387 0
M  V30 3107 H 302.9 -3.3904 3.62444 0
M  V30 3108 H 298.156 -3.46758 5.03556 0
M  V30 3109 H 302.33 -3.49675 6.02246 0
M  V30 3110 H 299.957 -3.53097 6.73221 0
M  V30 3111 N 301.532 -0.945985 -1.26051 0
M  V30 3112 C 302.943 -0.638096 -1.75457 0
M  V30 3113 C 303.294 0.846672 -1.76991 0
M  V30 3114 O 302.419 1.66262 -1.38513 0
M  V30 3115 C 303.014 -1.15157 -3.18629 0
M  V30 3116 C 301.573 -0.894004 -3.65629 0
M  V30 3117 C 300.72 -1.29967 -2.44957 0
M  V30 3118 H 303.671 -1.12376 -1.1206 0
M  V30 3119 H 303.692 -0.507615 -3.77099 0
M  V30 3120 H 303.204 -2.23222 -3.1748 0
M  V30 3121 H 301.305 0.172057 -3.72203 0
M  V30 3122 H 301.418 -1.52439 -4.54202 0
M  V30 3123 H 299.782 -0.718078 -2.44368 0
M  V30 3124 H 300.565 -2.38935 -2.46505 0
M  V30 3125 N 303.011 1.40521 -0.713556 0
M  V30 3126 C 303.944 2.28198 -0.00881422 0
M  V30 3127 C 304.922 1.43227 0.769735 0
M  V30 3128 O 306.106 1.72641 0.756799 0
M  V30 3129 C 303.233 3.23758 0.994899 0
M  V30 3130 C 302.279 4.25391 0.3074 0
M  V30 3131 S 303.112 5.26765 -0.963247 0
M  V30 3132 C 304.268 6.25888 0.0384143 0
M  V30 3133 H 304.501 2.87622 -0.752407 0
M  V30 3134 H 302.034 1.45925 -0.504502 0
M  V30 3135 H 303.992 3.79341 1.56879 0
M  V30 3136 H 302.653 2.63396 1.71118 0
M  V30 3137 H 301.846 4.92596 1.0661 0
M  V30 3138 H 301.448 3.73497 -0.193879 0
M  V30 3139 H 303.74 6.71683 0.885912 0
M  V30 3140 H 304.683 7.05552 -0.60019 0
M  V30 3141 H 305.091 5.63072 0.401233 0
M  V30 3142 N 304.489 0.459591 1.5075 0
M  V30 3143 C 305.738 -0.100971 2.01447 0
M  V30 3144 C 306.051 -1.41816 1.34713 0
M  V30 3145 O 307.257 -2.06299 1.76502 0
M  V30 3146 C 305.713 -0.23047 3.59161 0
M  V30 3147 C 305.321 1.0776 4.34847 0
M  V30 3148 C 307.065 -0.743608 4.17936 0
M  V30 3149 C 304.972 0.91253 5.84317 0
M  V30 3150 H 303.902 -0.0415102 0.752856 0
M  V30 3151 H 306.553 0.592742 1.73663 0
M  V30 3152 H 304.935 -0.987703 3.83485 0
M  V30 3153 H 306.109 1.8449 4.22256 0
M  V30 3154 H 304.424 1.52097 3.87628 0
M  V30 3155 H 307.021 -0.883959 5.27343 0
M  V30 3156 H 307.364 -1.73196 3.78562 0
M  V30 3157 H 307.897 -0.04408 3.97776 0
M  V30 3158 H 304.636 1.87391 6.28144 0
M  V30 3159 H 304.156 0.185422 5.99513 0
M  V30 3160 H 305.835 0.574547 6.44444 0
M  V30 3161 N 305.967 -1.56429 0.191757 0
M  V30 3162 C 307.215 -1.97095 -0.447006 0
M  V30 3163 C 307.536 -1.07967 -1.62383 0
M  V30 3164 O 306.806 -0.150248 -1.95323 0
M  V30 3165 H 305.386 -0.727832 -0.168135 0
M  V30 3166 H 308.048 -1.92911 0.27771 0
M  V30 3167 H 307.144 -3.01848 -0.793371 0
M  V30 3168 N 307.445 0.0818655 -1.57387 0
M  V30 3169 C 308.673 0.796108 -1.9097 0
M  V30 3170 C 309.088 1.71626 -0.786757 0
M  V30 3171 O 308.445 1.80908 0.240513 0
M  V30 3172 C 308.496 1.59829 -3.24248 0
M  V30 3173 O 308.217 0.715131 -4.32224 0
M  V30 3174 C 309.718 2.41442 -3.7178 0
M  V30 3175 H 306.938 0.22691 -0.631469 0
M  V30 3176 H 309.482 0.0551439 -2.04426 0
M  V30 3177 H 307.637 2.29163 -3.12351 0
M  V30 3178 H 308.051 1.27205 -5.08841 0
M  V30 3179 H 309.525 2.932 -4.67694 0
M  V30 3180 H 310.002 3.2051 -3.00283 0
M  V30 3181 H 310.608 1.77283 -3.86589 0
M  V30 3182 N 308.923 1.53595 0.353017 0
M  V30 3183 C 310.171 1.70049 1.09215 0
M  V30 3184 C 310.492 0.461406 1.89463 0
M  V30 3185 O 309.762 -0.524633 1.88744 0
M  V30 3186 H 308.342 0.626912 0.40619 0
M  V30 3187 H 311.004 1.90822 0.396585 0
M  V30 3188 H 310.1 2.56718 1.77488 0
M  V30 3189 N 310.401 -0.613514 1.45168 0
M  V30 3190 C 311.626 -1.40437 1.52618 0
M  V30 3191 C 312.051 -1.87438 0.157707 0
M  V30 3192 O 311.409 -1.59791 -0.856537 0
M  V30 3193 C 311.457 -2.58894 2.51011 0
M  V30 3194 O 310.561 -3.59326 2.02382 0
M  V30 3195 H 309.902 -0.419506 0.514695 0
M  V30 3196 H 312.432 -0.747215 1.90467 0
M  V30 3197 H 312.442 -3.06214 2.69624 0
M  V30 3198 H 311.117 -2.24032 3.50403 0
M  V30 3199 H 309.694 -3.18695 1.93618 0
M  V30 3200 N 311.879 -1.3236 -0.855495 0
M  V30 3201 C 312.809 -1.23833 -1.97958 0
M  V30 3202 C 313.79 -0.122361 -1.69659 0
M  V30 3203 O 314.975 -0.30939 -1.9172 0
M  V30 3204 C 312.105 -0.959772 -3.33775 0
M  V30 3205 C 311.059 -2.03689 -3.76424 0
M  V30 3206 C 310.385 -1.61075 -5.09862 0
M  V30 3207 C 311.685 -3.4518 -3.9198 0
M  V30 3208 H 313.379 -2.1788 -2.0535 0
M  V30 3209 H 310.925 -1.04891 -0.986605 0
M  V30 3210 H 312.878 -0.886678 -4.11966 0
M  V30 3211 H 311.602 0.0163404 -3.26596 0
M  V30 3212 H 310.261 -2.10012 -3.00484 0
M  V30 3213 H 309.909 -0.622107 -4.99138 0
M  V30 3214 H 309.609 -2.33143 -5.39368 0
M  V30 3215 H 311.133 -1.55201 -5.90546 0
M  V30 3216 H 312.547 -3.4145 -4.60526 0
M  V30 3217 H 310.944 -4.1559 -4.32903 0
M  V30 3218 H 312.014 -3.84903 -2.94919 0
M  V30 3219 N 313.357 1.07166 -1.15556 0
M  V30 3220 C 314.289 2.14341 -0.811815 0
M  V30 3221 C 315.302 1.61835 0.177015 0
M  V30 3222 O 316.491 1.78439 -0.0464996 0
M  V30 3223 C 313.591 3.38387 -0.186481 0
M  V30 3224 C 312.764 4.20238 -1.21321 0
M  V30 3225 C 311.823 5.2266 -0.609302 0
M  V30 3226 O 310.849 5.54719 -1.27576 0
M  V30 3227 N 312.051 5.77306 0.608099 0
M  V30 3228 H 314.816 2.44431 -1.73417 0
M  V30 3229 H 312.377 1.23089 -1.0517 0
M  V30 3230 H 314.369 4.04044 0.230339 0
M  V30 3231 H 312.939 3.05994 0.639249 0
M  V30 3232 H 312.159 3.50369 -1.80652 0
M  V30 3233 H 313.447 4.71736 -1.90638 0
M  V30 3234 H 312.845 5.53513 1.1679 0
M  V30 3235 H 311.402 6.44583 0.96725 0
M  V30 3236 N 314.835 0.952656 1.25548 0
M  V30 3237 C 316.082 0.606373 1.93208 0
M  V30 3238 C 316.41 -0.85631 1.74636 0
M  V30 3239 O 315.665 -1.62951 1.08376 0
M  V30 3240 C 315.964 0.908818 3.45652 0
M  V30 3241 C 315.63 2.35722 3.84378 0
M  V30 3242 C 314.292 2.75312 3.9466 0
M  V30 3243 C 316.644 3.29793 4.03591 0
M  V30 3244 C 313.972 4.08047 4.21562 0
M  V30 3245 C 316.324 4.62138 4.31985 0
M  V30 3246 C 314.988 5.01528 4.40484 0
M  V30 3247 H 314.258 0.221888 0.706998 0
M  V30 3248 H 316.905 1.20132 1.49133 0
M  V30 3249 H 315.21 0.231456 3.91116 0
M  V30 3250 H 316.907 0.619498 3.96186 0
M  V30 3251 H 313.497 2.04017 3.76928 0
M  V30 3252 H 317.681 3.00397 3.95064 0
M  V30 3253 H 312.937 4.38212 4.26357 0
M  V30 3254 H 317.111 5.35012 4.45797 0
M  V30 3255 H 314.738 6.04406 4.61083 0
M  V30 3256 N 316.313 -1.40141 0.720998 0
M  V30 3257 C 317.724 -1.83678 0.334553 0
M  V30 3258 C 318.075 -1.6027 -1.13173 0
M  V30 3259 O 317.2 -1.08643 -1.87152 0
M  V30 3260 C 317.795 -3.33437 0.600437 0
M  V30 3261 C 316.354 -3.75447 0.267642 0
M  V30 3262 C 315.501 -2.63296 0.870097 0
M  V30 3263 H 318.452 -1.29331 0.919732 0
M  V30 3264 H 318.473 -3.80269 -0.132517 0
M  V30 3265 H 317.985 -3.50442 1.66768 0
M  V30 3266 H 316.086 -3.64035 -0.794329 0
M  V30 3267 H 316.199 -4.73344 0.74042 0
M  V30 3268 H 314.563 -2.52954 0.297739 0
M  V30 3269 H 315.346 -2.83112 1.94172 0
M  V30 3270 N 317.792 -0.46758 -1.50504 0
M  V30 3271 C 318.739 0.328413 -2.28452 0
M  V30 3272 C 319.709 0.990313 -1.33349 0
M  V30 3273 O 320.894 1.00343 -1.62284 0
M  V30 3274 C 318.034 1.40648 -3.15138 0
M  V30 3275 C 317.147 0.759709 -4.25267 0
M  V30 3276 C 316.282 1.81537 -4.99217 0
M  V30 3277 C 315.321 1.14866 -6.01226 0
M  V30 3278 N 314.458 2.14702 -6.68467 0
M  V30 3279 H 319.298 -0.342603 -2.96024 0
M  V30 3280 H 316.835 -0.180801 -1.45985 0
M  V30 3281 H 318.793 2.04315 -3.63746 0
M  V30 3282 H 317.423 2.04671 -2.49619 0
M  V30 3283 H 316.475 0.0105671 -3.80399 0
M  V30 3284 H 317.787 0.233243 -4.98254 0
M  V30 3285 H 316.941 2.52793 -5.51526 0
M  V30 3286 H 315.68 2.37564 -4.25928 0
M  V30 3287 H 314.685 0.42171 -5.4818 0
M  V30 3288 H 315.91 0.595334 -6.76485 0
M  V30 3289 H 313.856 2.69752 -5.97972 0
M  V30 3290 H 313.773 1.6703 -7.37317 0
M  V30 3291 H 315.041 2.85348 -7.25394 0
M  V30 3292 N 319.27 1.56325 -0.20005 0
M  V30 3293 C 320.233 2.18084 0.705132 0
M  V30 3294 C 321.233 1.13666 1.1374 0
M  V30 3295 O 322.423 1.39023 1.04968 0
M  V30 3296 C 319.555 2.78689 1.96329 0
M  V30 3297 H 320.748 2.99435 0.167023 0
M  V30 3298 H 318.301 1.56221 0.0495725 0
M  V30 3299 H 319.036 2.0115 2.5438 0
M  V30 3300 H 318.821 3.55133 1.66202 0
M  V30 3301 H 320.311 3.26096 2.60866 0
M  V30 3302 N 320.748 -0.0735177 1.57428 0
M  V30 3303 C 321.994 -0.774145 1.87443 0
M  V30 3304 C 322.327 -1.77311 0.792103 0
M  V30 3305 O 321.602 -1.93492 -0.197793 0
M  V30 3306 C 321.885 -1.48367 3.28115 0
M  V30 3307 C 321.738 -0.501227 4.46999 0
M  V30 3308 C 323.057 -2.429 3.66998 0
M  V30 3309 H 320.176 -0.279971 0.681752 0
M  V30 3310 H 322.818 -0.0373616 1.89963 0
M  V30 3311 H 320.968 -2.11171 3.26097 0
M  V30 3312 H 322.64 0.121468 4.6114 0
M  V30 3313 H 320.883 0.183593 4.33411 0
M  V30 3314 H 321.554 -1.03526 5.42205 0
M  V30 3315 H 324.03 -1.90175 3.70098 0
M  V30 3316 H 322.906 -2.89549 4.66318 0
M  V30 3317 H 323.167 -3.27628 2.96837 0
M  V30 3318 N 322.226 -1.5378 -0.344866 0
M  V30 3319 C 323.473 -1.70963 -1.08526 0
M  V30 3320 C 323.801 -0.472126 -1.88683 0
M  V30 3321 O 323.056 0.546116 -1.87926 0
M  V30 3322 C 323.355 -2.92407 -2.05506 0
M  V30 3323 C 323.021 -4.28066 -1.41671 0
M  V30 3324 C 321.683 -4.64951 -1.2399 0
M  V30 3325 C 324.035 -5.12344 -0.956726 0
M  V30 3326 C 321.363 -5.83733 -0.589277 0
M  V30 3327 C 323.715 -6.3179 -0.320015 0
M  V30 3328 C 322.379 -6.67372 -0.130881 0
M  V30 3329 H 321.649 -0.625598 -0.397124 0
M  V30 3330 H 324.296 -1.87995 -0.36469 0
M  V30 3331 H 322.601 -2.69973 -2.8394 0
M  V30 3332 H 324.298 -3.02895 -2.62784 0
M  V30 3333 H 320.888 -3.99034 -1.56429 0
M  V30 3334 H 325.072 -4.8438 -1.08118 0
M  V30 3335 H 320.328 -6.09877 -0.431344 0
M  V30 3336 H 324.502 -6.96386 0.0445072 0
M  V30 3337 H 322.129 -7.59273 0.375318 0
M  V30 3338 N 323.704 0.605807 -1.45491 0
M  V30 3339 C 324.667 1.69836 -1.5391 0
M  V30 3340 C 325.667 1.55261 -0.418424 0
M  V30 3341 O 326.857 1.60296 -0.681965 0
M  V30 3342 C 323.989 3.09117 -1.43734 0
M  V30 3343 H 325.182 1.63738 -2.51257 0
M  V30 3344 H 322.735 0.821689 -1.32959 0
M  V30 3345 H 323.47 3.20791 -0.475788 0
M  V30 3346 H 323.255 3.21104 -2.25021 0
M  V30 3347 H 324.745 3.88696 -1.52661 0
M  V30 3348 N 325.182 1.32811 0.848464 0
M  V30 3349 C 326.129 1.22265 1.95755 0
M  V30 3350 C 327.099 0.103413 1.65778 0
M  V30 3351 O 328.284 0.280033 1.88734 0
M  V30 3352 C 325.424 0.958014 3.31536 0
M  V30 3353 C 324.537 2.16262 3.73971 0
M  V30 3354 C 323.672 1.83295 4.98575 0
M  V30 3355 C 322.711 3.00041 5.33518 0
M  V30 3356 N 321.848 2.67125 6.49299 0
M  V30 3357 H 326.688 2.17128 2.04107 0
M  V30 3358 H 324.225 1.07982 0.998913 0
M  V30 3359 H 326.183 0.785052 4.09747 0
M  V30 3360 H 324.813 0.046159 3.22767 0
M  V30 3361 H 323.865 2.44565 2.91362 0
M  V30 3362 H 325.177 3.03572 3.95785 0
M  V30 3363 H 324.331 1.62586 5.84509 0
M  V30 3364 H 323.07 0.932078 4.7871 0
M  V30 3365 H 322.075 3.21374 4.46093 0
M  V30 3366 H 323.3 3.90869 5.55336 0
M  V30 3367 H 321.246 1.79586 6.3094 0
M  V30 3368 H 321.163 3.47965 6.71161 0
M  V30 3369 H 322.431 2.49861 7.3837 0
M  V30 3370 N 326.66 -1.06551 1.16123 0
M  V30 3371 C 327.59 -2.15935 0.88851 0
M  V30 3372 C 328.571 -1.69306 -0.164135 0
M  V30 3373 O 329.756 -1.94193 -0.0167857 0
M  V30 3374 C 326.886 -3.45149 0.385942 0
M  V30 3375 C 325.84 -4.05271 1.3762 0
M  V30 3376 C 325.166 -5.29664 0.732137 0
M  V30 3377 C 326.466 -4.44355 2.74493 0
M  V30 3378 H 328.16 -2.39006 1.80323 0
M  V30 3379 H 325.706 -1.14866 0.868435 0
M  V30 3380 H 327.659 -4.21004 0.182647 0
M  V30 3381 H 326.383 -3.21689 -0.564274 0
M  V30 3382 H 325.042 -3.3147 1.56599 0
M  V30 3383 H 324.69 -5.02499 -0.224483 0
M  V30 3384 H 324.39 -5.70848 1.39307 0
M  V30 3385 H 325.914 -6.08218 0.538802 0
M  V30 3386 H 327.328 -5.11303 2.59311 0
M  V30 3387 H 325.725 -4.96515 3.37035 0
M  V30 3388 H 326.795 -3.55339 3.29943 0
M  V30 3389 N 328.138 -0.959301 -1.25041 0
M  V30 3390 C 329.387 -0.612254 -1.92183 0
M  V30 3391 C 329.7 0.855347 -1.75907 0
M  V30 3392 O 330.906 1.31256 -2.37664 0
M  V30 3393 C 329.362 -1.04435 -3.44414 0
M  V30 3394 C 328.97 -2.53482 -3.69393 0
M  V30 3395 C 330.714 -0.770055 -4.17457 0
M  V30 3396 C 328.621 -2.90468 -5.15153 0
M  V30 3397 H 327.551 -0.225279 -0.719559 0
M  V30 3398 H 330.202 -1.16438 -1.41825 0
M  V30 3399 H 328.584 -0.4206 -3.9376 0
M  V30 3400 H 329.758 -3.20916 -3.30681 0
M  V30 3401 H 328.073 -2.78432 -3.0962 0
M  V30 3402 H 330.67 -1.02249 -5.24832 0
M  V30 3403 H 331.013 0.293611 -4.15263 0
M  V30 3404 H 331.546 -1.35437 -3.74034 0
M  V30 3405 H 328.285 -3.95871 -5.22462 0
M  V30 3406 H 327.805 -2.27711 -5.54894 0
M  V30 3407 H 329.484 -2.79914 -5.83315 0
M  V30 3408 N 329.616 1.39756 -0.72842 0
M  V30 3409 C 330.546 2.33289 -0.0991354 0
M  V30 3410 C 331.527 1.53568 0.731489 0
M  V30 3411 O 332.712 1.81987 0.677807 0
M  V30 3412 C 329.842 3.3763 0.813834 0
M  V30 3413 C 328.796 4.2791 0.0878663 0
M  V30 3414 C 328.122 5.22894 1.11741 0
M  V30 3415 C 329.422 5.11314 -1.06563 0
M  V30 3416 H 331.116 2.86163 -0.880408 0
M  V30 3417 H 328.662 1.37591 -0.424819 0
M  V30 3418 H 330.615 4.0201 1.26355 0
M  V30 3419 H 329.339 2.83181 1.62715 0
M  V30 3420 H 327.998 3.65 -0.342159 0
M  V30 3421 H 327.646 4.64744 1.92412 0
M  V30 3422 H 327.346 5.84143 0.636477 0
M  V30 3423 H 328.87 5.90151 1.56697 0
M  V30 3424 H 330.284 5.69076 -0.694671 0
M  V30 3425 H 328.681 5.81671 -1.47577 0
M  V30 3426 H 329.751 4.46534 -1.89038 0
M  V30 3427 N 331.094 0.475555 1.50254 0
M  V30 3428 C 332.319 -0.0777042 2.07254 0
M  V30 3429 C 332.744 -1.3235 1.3366 0
M  V30 3430 O 332.102 -1.77152 0.385597 0
M  V30 3431 C 332.15 -0.340169 3.58992 0
M  V30 3432 O 331.254 -1.41982 3.87188 0
M  V30 3433 H 330.595 0.0149556 0.663832 0
M  V30 3434 H 333.125 0.667878 1.93392 0
M  V30 3435 H 333.135 -0.579332 4.03866 0
M  V30 3436 H 331.81 0.570167 4.11973 0
M  V30 3437 H 330.387 -1.16762 3.54148 0
M  V30 3438 N 332.573 -1.56217 0.208337 0
M  V30 3439 C 333.483 -2.23316 -0.718836 0
M  V30 3440 C 334.499 -1.23648 -1.22422 0
M  V30 3441 O 335.675 -1.56423 -1.26861 0
M  V30 3442 C 332.74 -2.88968 -1.91568 0
M  V30 3443 C 331.801 -4.03943 -1.45357 0
M  V30 3444 C 331.034 -4.66455 -2.59337 0
M  V30 3445 O 331.257 -4.27919 -3.77149 0
M  V30 3446 O 330.191 -5.55686 -2.31293 0
M  V30 3447 H 334.017 -3.03182 -0.177315 0
M  V30 3448 H 331.602 -1.49384 -0.0215402 0
M  V30 3449 H 333.484 -3.30455 -2.61491 0
M  V30 3450 H 332.159 -2.12071 -2.44556 0
M  V30 3451 H 331.066 -3.67052 -0.722746 0
M  V30 3452 H 332.399 -4.82543 -0.970219 0
M  V30 3453 N 334.051 0.0651679 -1.57465 0
M  V30 3454 C 335.297 0.764193 -1.87851 0
M  V30 3455 C 335.63 1.76889 -0.801495 0
M  V30 3456 O 334.905 1.93594 0.187528 0
M  V30 3457 C 335.188 1.46625 -3.28897 0
M  V30 3458 C 335.041 0.477515 -4.47258 0
M  V30 3459 C 336.36 2.4095 -3.68281 0
M  V30 3460 H 333.479 0.276351 -0.683227 0
M  V30 3461 H 336.121 0.0272868 -1.8998 0
M  V30 3462 H 334.271 2.09438 -3.27212 0
M  V30 3463 H 335.943 -0.145922 -4.61069 0
M  V30 3464 H 334.186 -0.206576 -4.33308 0
M  V30 3465 H 334.857 1.0065 -5.42746 0
M  V30 3466 H 337.333 1.88209 -3.71102 0
M  V30 3467 H 336.209 2.87072 -4.67847 0
M  V30 3468 H 336.47 3.26049 -2.98571 0
M  V30 3469 N 335.529 1.53961 0.336706 0
M  V30 3470 C 336.776 1.71536 1.07618 0
M  V30 3471 C 337.104 0.482125 1.8843 0
M  V30 3472 O 336.359 -0.536142 1.88213 0
M  V30 3473 C 336.658 2.93493 2.03953 0
M  V30 3474 C 336.324 4.28811 1.39399 0
M  V30 3475 C 334.986 4.65602 1.21523 0
M  V30 3476 C 337.338 5.12844 0.929541 0
M  V30 3477 C 334.666 5.84037 0.558312 0
M  V30 3478 C 337.018 6.31951 0.286505 0
M  V30 3479 C 335.682 6.67432 0.0954869 0
M  V30 3480 H 334.952 0.627696 0.393801 0
M  V30 3481 H 337.599 1.88186 0.354715 0
M  V30 3482 H 335.904 2.71475 2.82504 0
M  V30 3483 H 337.601 3.04285 2.61174 0
M  V30 3484 H 334.191 3.99858 1.54311 0
M  V30 3485 H 338.375 4.84947 1.05548 0
M  V30 3486 H 333.631 6.10097 0.398995 0
M  V30 3487 H 337.805 6.96352 -0.0814376 0
M  V30 3488 H 335.432 7.59063 -0.415579 0
M  V30 3489 N 337.007 -0.598083 1.45811 0
M  V30 3490 C 337.917 -1.73632 1.57763 0
M  V30 3491 C 338.933 -1.67763 0.461676 0
M  V30 3492 O 340.109 -1.87949 0.723685 0
M  V30 3493 C 337.174 -3.10114 1.55018 0
M  V30 3494 C 336.235 -3.27364 2.77726 0
M  V30 3495 C 335.468 -4.57334 2.75102 0
M  V30 3496 O 335.691 -5.40258 1.8297 0
M  V30 3497 O 334.625 -4.77502 3.66437 0
M  V30 3498 H 338.451 -1.66498 2.53992 0
M  V30 3499 H 336.036 -0.763308 1.28429 0
M  V30 3500 H 337.918 -3.9141 1.56129 0
M  V30 3501 H 336.593 -3.17718 0.619431 0
M  V30 3502 H 335.5 -2.45619 2.82174 0
M  V30 3503 H 336.833 -3.24641 3.69958 0
M  V30 3504 N 338.485 -1.33259 -0.841409 0
M  V30 3505 C 339.715 -1.2742 -1.62628 0
M  V30 3506 C 340.123 0.157604 -1.88542 0
M  V30 3507 O 339.466 1.10938 -1.46419 0
M  V30 3508 C 339.528 -1.97797 -3.00194 0
M  V30 3509 C 339.192 -3.47109 -2.97261 0
M  V30 3510 C 340.189 -4.42358 -2.73159 0
M  V30 3511 C 337.874 -3.89247 -3.17478 0
M  V30 3512 C 339.868 -5.77718 -2.69296 0
M  V30 3513 C 337.555 -5.24713 -3.13241 0
M  V30 3514 C 338.553 -6.1876 -2.89181 0
M  V30 3515 O 338.241 -7.51745 -2.84843 0
M  V30 3516 H 337.973 -0.440436 -0.512827 0
M  V30 3517 H 340.527 -1.76153 -1.05638 0
M  V30 3518 H 338.757 -1.43652 -3.59028 0
M  V30 3519 H 340.446 -1.8549 -3.61038 0
M  V30 3520 H 341.212 -4.11127 -2.57294 0
M  V30 3521 H 337.091 -3.16456 -3.35226 0
M  V30 3522 H 340.635 -6.51097 -2.50436 0
M  V30 3523 H 336.532 -5.55569 -3.28654 0
M  V30 3524 H 337.3 -7.61262 -3.00702 0
M  V30 3525 N 339.963 1.05934 -1.16686 0
M  V30 3526 C 341.188 1.83029 -0.975455 0
M  V30 3527 C 341.613 1.82096 0.471452 0
M  V30 3528 O 340.971 1.22443 1.33706 0
M  V30 3529 C 341.019 3.27372 -1.51195 0
M  V30 3530 O 340.123 4.06054 -0.720701 0
M  V30 3531 H 339.464 0.566194 -0.346872 0
M  V30 3532 H 341.994 1.33541 -1.55009 0
M  V30 3533 H 342.004 3.78186 -1.53099 0
M  V30 3534 H 340.679 3.27366 -2.56523 0
M  V30 3535 H 339.256 3.64812 -0.772458 0
M  V30 3536 N 341.441 0.965919 1.2453 0
M  V30 3537 C 342.666 0.643971 1.97149 0
M  V30 3538 C 343.091 -0.779487 1.71189 0
M  V30 3539 O 342.449 -1.5288 0.974553 0
M  V30 3540 C 342.497 0.922557 3.48599 0
M  V30 3541 O 341.601 0.00707672 4.12399 0
M  V30 3542 H 340.942 0.243647 0.617683 0
M  V30 3543 H 343.472 1.29558 1.58353 0
M  V30 3544 H 343.482 0.853373 3.98976 0
M  V30 3545 H 342.157 1.95996 3.66822 0
M  V30 3546 H 340.734 0.12943 3.72675 0
M  V30 3547 N 342.919 -1.39368 0.735821 0
M  V30 3548 C 344.144 -2.05319 0.293052 0
M  V30 3549 C 344.569 -1.55115 -1.064 0
M  V30 3550 O 343.927 -0.695261 -1.67439 0
M  V30 3551 C 343.975 -3.59305 0.305323 0
M  V30 3552 O 343.079 -4.06299 -0.706761 0
M  V30 3553 H 342.42 -0.650529 0.13307 0
M  V30 3554 H 344.95 -1.78386 1.00197 0
M  V30 3555 H 344.96 -4.07724 0.149997 0
M  V30 3556 H 343.635 -3.95207 1.29553 0
M  V30 3557 H 342.212 -3.69292 -0.517504 0
M  V30 3558 N 344.397 -0.483516 -1.5 0
M  V30 3559 C 345.625 0.0644831 -2.06799 0
M  V30 3560 C 346.04 1.32399 -1.34596 0
M  V30 3561 O 345.397 1.77626 -0.418946 0
M  V30 3562 C 345.448 0.339927 -3.59898 0
M  V30 3563 O 345.169 -0.869635 -4.29382 0
M  V30 3564 C 346.67 0.933515 -4.33359 0
M  V30 3565 H 343.89 -0.0126333 -0.670881 0
M  V30 3566 H 346.434 -0.675864 -1.93009 0
M  V30 3567 H 344.589 1.03022 -3.7345 0
M  V30 3568 H 345.003 -0.62179 -5.20801 0
M  V30 3569 H 346.477 1.07593 -5.41413 0
M  V30 3570 H 346.954 1.92685 -3.94676 0
M  V30 3571 H 347.56 0.281221 -4.24369 0
M  V30 3572 N 345.875 1.56104 -0.216619 0
M  V30 3573 C 347.291 1.58995 0.13886 0
M  V30 3574 C 347.491 1.23333 1.59346 0
M  V30 3575 O 346.547 0.966234 2.33281 0
M  V30 3576 C 347.86 3.00143 -0.182968 0
M  V30 3577 C 349.408 3.12751 -0.124807 0
M  V30 3578 C 349.883 4.56068 -0.420241 0
M  V30 3579 N 351.374 4.61723 -0.369634 0
M  V30 3580 C 352.109 5.70542 -0.571789 0
M  V30 3581 N 351.605 6.87744 -0.835453 0
M  V30 3582 N 353.398 5.59831 -0.504563 0
M  V30 3583 H 345.549 1.77562 -1.16557 0
M  V30 3584 H 347.812 0.825091 -0.466828 0
M  V30 3585 H 347.518 3.30871 -1.19237 0
M  V30 3586 H 347.392 3.73813 0.504367 0
M  V30 3587 H 349.779 2.81822 0.875223 0
M  V30 3588 H 349.86 2.41421 -0.845544 0
M  V30 3589 H 349.504 4.87713 -1.41769 0
M  V30 3590 H 349.434 5.25617 0.321631 0
M  V30 3591 H 351.925 3.77502 -0.173338 0
M  V30 3592 H 352.238 7.66587 -0.977938 0
M  V30 3593 H 350.583 6.895 -0.872592 0
M  V30 3594 H 353.774 4.67145 -0.298842 0
M  V30 3595 H 353.947 6.44573 -0.665519 0
M  V30 3596 N 347.353 -0.0568162 1.57498 0
M  V30 3597 C 348.764 -0.606858 1.76562 0
M  V30 3598 C 349.115 -1.77114 0.844094 0
M  V30 3599 O 348.24 -2.16376 0.0318911 0
M  V30 3600 C 348.835 -1.10766 3.20182 0
M  V30 3601 C 347.394 -1.60344 3.40539 0
M  V30 3602 C 346.541 -0.529311 2.72201 0
M  V30 3603 H 349.492 0.169393 1.57793 0
M  V30 3604 H 349.513 -1.97602 3.25167 0
M  V30 3605 H 349.025 -0.26006 3.87228 0
M  V30 3606 H 347.126 -2.47379 2.78629 0
M  V30 3607 H 347.239 -1.67006 4.4905 0
M  V30 3608 H 345.603 -0.977893 2.35179 0
M  V30 3609 H 346.386 0.308352 3.41912 0
M  V30 3610 N 348.832 -1.54138 -0.328536 0
M  V30 3611 C 350.081 -1.71318 -1.06456 0
M  V30 3612 C 350.394 -0.491109 -1.89334 0
M  V30 3613 O 351.6 -0.54416 -2.65991 0
M  V30 3614 C 350.056 -3.03 -1.94214 0
M  V30 3615 C 349.664 -4.32595 -1.16471 0
M  V30 3616 C 351.408 -3.29544 -2.67583 0
M  V30 3617 C 349.315 -5.55341 -2.03347 0
M  V30 3618 H 348.245 -0.638429 -0.401155 0
M  V30 3619 H 350.896 -1.80633 -0.323106 0
M  V30 3620 H 349.278 -2.87579 -2.72239 0
M  V30 3621 H 350.452 -4.58766 -0.432525 0
M  V30 3622 H 348.767 -4.12777 -0.548063 0
M  V30 3623 H 351.364 -4.18444 -3.3288 0
M  V30 3624 H 351.707 -2.47206 -3.34955 0
M  V30 3625 H 352.24 -3.45809 -1.96623 0
M  V30 3626 H 348.979 -6.40268 -1.40491 0
M  V30 3627 H 348.499 -5.33397 -2.74313 0
M  V30 3628 H 350.178 -5.91557 -2.62049 0
M  V30 3629 N 350.31 0.590341 -1.46126 0
M  V30 3630 C 351.538 1.37504 -1.54597 0
M  V30 3631 C 351.953 1.87897 -0.184447 0
M  V30 3632 O 351.31 1.63192 0.816984 0
M  V30 3633 C 351.361 2.56779 -2.54454 0
M  V30 3634 O 351.082 2.08476 -3.85317 0
M  V30 3635 C 352.583 3.49427 -2.72792 0
M  V30 3636 H 349.803 0.420325 -0.523037 0
M  V30 3637 H 352.347 0.718383 -1.91467 0
M  V30 3638 H 350.502 3.1845 -2.20609 0
M  V30 3639 H 350.916 2.86097 -4.396 0
M  V30 3640 H 352.39 4.29619 -3.466 0
M  V30 3641 H 352.867 4.00876 -1.79429 0
M  V30 3642 H 353.473 2.93598 -3.07702 0
M  V30 3643 N 351.788 1.33704 0.83433 0
M  V30 3644 C 353.013 1.28615 1.62705 0
M  V30 3645 C 353.438 -0.139242 1.87584 0
M  V30 3646 O 352.796 -1.09734 1.4432 0
M  V30 3647 C 352.844 2.07139 2.95171 0
M  V30 3648 O 351.948 1.4331 3.86699 0
M  V30 3649 H 351.289 0.44226 0.49528 0
M  V30 3650 H 353.819 1.76335 1.03766 0
M  V30 3651 H 353.829 2.18073 3.44831 0
M  V30 3652 H 352.504 3.10779 2.76386 0
M  V30 3653 H 351.081 1.4105 3.45195 0
M  V30 3654 N 353.266 -1.05314 1.17247 0
M  V30 3655 C 354.677 -1.59753 0.96623 0
M  V30 3656 C 355.028 -1.9005 -0.487378 0
M  V30 3657 O 354.153 -1.68126 -1.36245 0
M  V30 3658 C 354.748 -2.90249 1.74759 0
M  V30 3659 C 353.307 -3.41352 1.58606 0
M  V30 3660 C 352.454 -2.15103 1.75002 0
M  V30 3661 H 355.405 -0.881406 1.31973 0
M  V30 3662 H 355.426 -3.60097 1.22925 0
M  V30 3663 H 354.938 -2.68166 2.8055 0
M  V30 3664 H 353.039 -3.68474 0.552985 0
M  V30 3665 H 353.152 -4.16019 2.37624 0
M  V30 3666 H 351.516 -2.25804 1.17833 0
M  V30 3667 H 352.299 -1.95491 2.82202 0
M  V30 3668 N 354.744 -0.972509 -1.24016 0
M  V30 3669 C 355.674 -0.525548 -2.27509 0
M  V30 3670 C 356.655 0.437262 -1.64384 0
M  V30 3671 O 357.84 0.332343 -1.91335 0
M  V30 3672 C 354.97 0.180448 -3.46831 0
M  V30 3673 C 353.924 -0.698859 -4.22256 0
M  V30 3674 C 353.25 0.138903 -5.3452 0
M  V30 3675 C 354.55 -1.98582 -4.83076 0
M  V30 3676 H 356.244 -1.39058 -2.65148 0
M  V30 3677 H 353.79 -0.67009 -1.27459 0
M  V30 3678 H 355.743 0.504387 -4.18371 0
M  V30 3679 H 354.467 1.07987 -3.08231 0
M  V30 3680 H 353.126 -1.00614 -3.52523 0
M  V30 3681 H 352.774 1.03862 -4.9216 0
M  V30 3682 H 352.474 -0.446259 -5.85903 0
M  V30 3683 H 353.998 0.457404 -6.08884 0
M  V30 3684 H 355.412 -1.72715 -5.46665 0
M  V30 3685 H 353.809 -2.5181 -5.44713 0
M  V30 3686 H 354.879 -2.67769 -4.04262 0
M  V30 3687 N 356.222 1.38976 -0.743202 0
M  V30 3688 C 357.154 2.29096 -0.0689228 0
M  V30 3689 C 358.167 1.47229 0.694791 0
M  V30 3690 O 359.356 1.70212 0.537597 0
M  V30 3691 C 356.456 3.25988 0.926548 0
M  V30 3692 C 355.629 4.36833 0.222647 0
M  V30 3693 C 354.688 5.13981 1.12739 0
M  V30 3694 O 353.714 5.6601 0.601795 0
M  V30 3695 N 354.916 5.25966 2.45641 0
M  V30 3696 H 357.681 2.87604 -0.842846 0
M  V30 3697 H 355.242 1.50645 -0.593109 0
M  V30 3698 H 357.234 3.74476 1.5346 0
M  V30 3699 H 355.804 2.68453 1.60162 0
M  V30 3700 H 355.024 3.90116 -0.565983 0
M  V30 3701 H 356.312 5.0811 -0.264841 0
M  V30 3702 H 355.71 4.85228 2.9081 0
M  V30 3703 H 354.267 5.77865 3.01522 0
M  V30 3704 N 357.7 0.491464 1.49741 0
M  V30 3705 C 358.61 -0.296835 2.32715 0
M  V30 3706 C 359.626 -0.976536 1.44013 0
M  V30 3707 O 360.802 -0.960023 1.77047 0
M  V30 3708 C 357.867 -1.35288 3.19215 0
M  V30 3709 C 356.928 -0.687632 4.23757 0
M  V30 3710 C 356.161 -1.69336 5.06123 0
M  V30 3711 O 356.384 -2.92219 4.89861 0
M  V30 3712 O 355.318 -1.25394 5.88693 0
M  V30 3713 H 359.144 0.382048 3.01287 0
M  V30 3714 H 356.729 0.252953 1.47243 0
M  V30 3715 H 358.611 -1.96411 3.72828 0
M  V30 3716 H 357.286 -2.01487 2.53347 0
M  V30 3717 H 356.193 -0.0369159 3.74082 0
M  V30 3718 H 357.526 -0.0682566 4.92153 0
M  V30 3719 N 359.178 -1.55987 0.224894 0
M  V30 3720 C 360.424 -1.98684 -0.406502 0
M  V30 3721 C 360.757 -1.11248 -1.59177 0
M  V30 3722 O 360.032 -0.170909 -1.93748 0
M  V30 3723 C 360.315 -3.50218 -0.837808 0
M  V30 3724 C 360.168 -4.48426 0.351332 0
M  V30 3725 C 361.487 -4.06243 -1.69278 0
M  V30 3726 H 358.606 -0.722337 -0.146283 0
M  V30 3727 H 361.248 -1.87255 0.321799 0
M  V30 3728 H 359.398 -3.60089 -1.45837 0
M  V30 3729 H 361.07 -4.50562 0.989526 0
M  V30 3730 H 359.313 -4.22159 0.998207 0
M  V30 3731 H 359.984 -5.52 0.00655905 0
M  V30 3732 H 362.46 -3.99337 -1.16914 0
M  V30 3733 H 361.336 -5.12581 -1.96346 0
M  V30 3734 H 361.597 -3.53332 -2.65723 0
M  V30 3735 N 360.656 0.0484629 -1.57525 0
M  V30 3736 C 361.606 1.06246 -2.01732 0
M  V30 3737 C 362.59 1.33155 -0.903245 0
M  V30 3738 O 363.782 1.33065 -1.16717 0
M  V30 3739 C 360.911 2.36943 -2.48421 0
M  V30 3740 C 359.997 2.13208 -3.6661 0
M  V30 3741 N 360.388 1.5947 -4.80003 0
M  V30 3742 C 358.686 2.43581 -3.7361 0
M  V30 3743 C 359.387 1.51092 -5.61735 0
M  V30 3744 N 358.363 1.9797 -5.0627 0
M  V30 3745 H 362.165 0.640675 -2.86832 0
M  V30 3746 H 359.679 0.255134 -1.60383 0
M  V30 3747 H 361.676 3.10374 -2.78341 0
M  V30 3748 H 360.336 2.79818 -1.64718 0
M  V30 3749 H 361.347 1.28008 -5.01831 0
M  V30 3750 H 358.024 2.89662 -3.00669 0
M  V30 3751 H 359.414 1.10199 -6.62801 0
M  V30 3752 N 362.134 1.5431 0.320358 0
M  V30 3753 C 363.381 1.72668 1.05792 0
M  V30 3754 C 363.709 0.502084 1.87908 0
M  V30 3755 O 362.964 -0.516149 1.88771 0
M  V30 3756 C 363.263 2.95639 2.00828 0
M  V30 3757 C 362.929 4.30265 1.34843 0
M  V30 3758 C 361.591 4.66865 1.16578 0
M  V30 3759 C 363.943 5.13801 0.875095 0
M  V30 3760 C 361.271 5.84597 0.496336 0
M  V30 3761 C 363.623 6.32219 0.219463 0
M  V30 3762 C 362.287 6.67495 0.0246915 0
M  V30 3763 H 361.557 0.631837 0.387121 0
M  V30 3764 H 364.204 1.88552 0.334735 0
M  V30 3765 H 362.509 2.74456 2.79609 0
M  V30 3766 H 364.206 3.07038 2.57932 0
M  V30 3767 H 360.796 4.01472 1.50061 0
M  V30 3768 H 364.98 4.86039 1.00398 0
M  V30 3769 H 360.236 6.10486 0.334264 0
M  V30 3770 H 364.41 6.96227 -0.155291 0
M  V30 3771 H 362.037 7.5858 -0.496065 0
M  V30 3772 N 363.613 -0.582584 1.46437 0
M  V30 3773 C 364.543 -1.70187 1.59871 0
M  V30 3774 C 365.524 -1.64066 0.449042 0
M  V30 3775 O 366.709 -1.82081 0.6753 0
M  V30 3776 C 363.839 -3.08827 1.58881 0
M  V30 3777 C 362.793 -3.29779 2.72819 0
M  V30 3778 C 362.119 -4.68947 2.5689 0
M  V30 3779 C 363.419 -3.17601 4.1464 0
M  V30 3780 H 365.113 -1.592 2.53566 0
M  V30 3781 H 362.659 -0.764472 1.22032 0
M  V30 3782 H 364.612 -3.86951 1.66873 0
M  V30 3783 H 363.336 -3.20713 0.617306 0
M  V30 3784 H 361.995 -2.54054 2.64296 0
M  V30 3785 H 361.643 -4.77599 1.57823 0
M  V30 3786 H 361.343 -4.83919 3.33312 0
M  V30 3787 H 362.867 -5.4924 2.66773 0
M  V30 3788 H 364.281 -3.8557 4.24274 0
M  V30 3789 H 362.678 -3.44094 4.9165 0
M  V30 3790 H 363.748 -2.14681 4.34788 0
M  V30 3791 N 365.091 -1.34144 -0.827227 0
M  V30 3792 C 366.337 -1.26446 -1.58554 0
M  V30 3793 C 366.67 0.1664 -1.93486 0
M  V30 3794 O 365.945 1.1107 -1.59667 0
M  V30 3795 C 366.228 -2.15111 -2.8879 0
M  V30 3796 C 366.081 -3.66712 -2.60465 0
M  V30 3797 C 367.4 -2.03311 -3.90324 0
M  V30 3798 H 364.519 -0.46067 -0.575284 0
M  V30 3799 H 367.161 -1.64356 -0.953269 0
M  V30 3800 H 365.311 -1.8291 -3.42748 0
M  V30 3801 H 366.983 -4.09259 -2.1285 0
M  V30 3802 H 365.226 -3.88014 -1.93978 0
M  V30 3803 H 365.897 -4.24112 -3.53317 0
M  V30 3804 H 368.373 -2.31574 -3.45706 0
M  V30 3805 H 367.249 -2.67582 -4.79261 0
M  V30 3806 H 367.51 -1.00879 -4.30437 0
M  V30 3807 N 366.569 1.04691 -1.17803 0
M  V30 3808 C 367.799 1.81183 -0.992788 0
M  V30 3809 C 368.207 1.8347 0.462098 0
M  V30 3810 O 367.55 1.2643 1.33271 0
M  V30 3811 C 367.612 3.28363 -1.46349 0
M  V30 3812 C 367.276 3.49749 -2.94151 0
M  V30 3813 C 368.273 3.41456 -3.92051 0
M  V30 3814 C 365.958 3.76548 -3.32441 0
M  V30 3815 C 367.952 3.59656 -5.26238 0
M  V30 3816 C 365.639 3.94396 -4.66792 0
M  V30 3817 C 366.637 3.8595 -5.635 0
M  V30 3818 O 366.325 4.03294 -6.9542 0
M  V30 3819 H 366.057 0.577622 -0.351182 0
M  V30 3820 H 368.611 1.32876 -1.5663 0
M  V30 3821 H 366.841 3.77609 -0.833574 0
M  V30 3822 H 368.53 3.86395 -1.24313 0
M  V30 3823 H 369.296 3.20723 -3.63815 0
M  V30 3824 H 365.175 3.82224 -2.57732 0
M  V30 3825 H 368.719 3.52979 -6.01707 0
M  V30 3826 H 364.616 4.14622 -4.94731 0
M  V30 3827 H 365.384 4.2049 -7.02232 0
M  V30 3828 N 368.047 0.979072 1.23499 0
M  V30 3829 C 369.275 0.665202 1.95915 0
M  V30 3830 C 369.69 -0.767571 1.72493 0
M  V30 3831 O 369.047 -1.51635 1.01554 0
M  V30 3832 C 369.098 0.944438 3.48945 0
M  V30 3833 O 368.819 2.3209 3.71572 0
M  V30 3834 C 370.32 0.646336 4.38563 0
M  V30 3835 H 367.54 0.247218 0.623798 0
M  V30 3836 H 370.084 1.31009 1.57025 0
M  V30 3837 H 368.239 0.345575 3.85856 0
M  V30 3838 H 368.653 2.40957 4.65876 0
M  V30 3839 H 370.127 0.892091 5.44744 0
M  V30 3840 H 370.604 -0.419575 4.37191 0
M  V30 3841 H 371.21 1.22562 4.07258 0
M  V30 3842 N 369.525 -1.3858 0.750561 0
M  V30 3843 C 370.473 -2.32339 0.110162 0
M  V30 3844 C 371.467 -1.53864 -0.708674 0
M  V30 3845 O 372.673 -1.69417 -0.608112 0
M  V30 3846 H 369.048 -0.751812 0.0168275 0
M  V30 3847 H 371.019 -2.83959 0.917053 0
M  V30 3848 C 369.768 -3.39043 -0.771067 0
M  V30 3849 H 369.091 -3.99517 -0.150374 0
M  V30 3850 H 370.531 -4.07061 -1.1865 0
M  V30 3851 C 368.99 -2.77365 -1.91234 0
M  V30 3852 O 369.52 -2.66434 -3.00626 0
M  V30 3853 N 367.726 -2.35219 -1.70646 0
M  V30 3854 H 367.273 -2.4431 -0.81673 0
M  V30 3855 H 367.231 -1.94294 -2.47178 0
M  V30 3856 N 371.003 -0.499398 -1.49478 0
M  V30 3857 C 372.28 0.108629 -1.95298 0
M  V30 3858 C 372.66 1.54282 -1.44084 0
M  V30 3859 O 372.008 2.18944 -0.653908 0
M  V30 3860 C 372.218 0.0229111 -3.48992 0
M  V30 3861 C 373.566 0.197643 -4.2414 0
M  V30 3862 O 374.59 0.0981735 -3.56065 0
M  V30 3863 O 373.449 0.401669 -5.45022 0
M  V30 3864 H 370.543 0.096181 -0.821388 0
M  V30 3865 H 373.089 -0.561822 -1.6013 0
M  V30 3866 H 371.861 -0.977321 -3.78899 0
M  V30 3867 H 371.484 0.733579 -3.90774 0
M  V30 3868 N 372.481 1.55866 -0.233164 0
M  V30 3869 C 373.758 1.90471 0.444988 0
M  V30 3870 C 374.138 1.15209 1.7689 0
M  V30 3871 O 373.486 0.265119 2.26957 0
M  V30 3872 C 373.696 3.4333 0.626559 0
M  V30 3873 C 375.044 4.14319 0.92871 0
M  V30 3874 O 376.068 3.48993 0.712926 0
M  V30 3875 O 374.927 5.29846 1.33887 0
M  V30 3876 H 372.021 0.792347 0.236885 0
M  V30 3877 H 374.567 1.67437 -0.276211 0
M  V30 3878 H 373.339 3.90095 -0.306822 0
M  V30 3879 H 372.962 3.72181 1.39881 0
M  V30 3880 N 373.959 -0.0401083 1.57549 0
M  V30 3881 C 374.869 -1.06133 2.0922 0
M  V30 3882 C 375.885 -1.40356 1.0284 0
M  V30 3883 O 377.061 -1.49897 1.34509 0
M  V30 3884 C 374.126 -2.34658 2.55218 0
M  V30 3885 C 373.187 -2.07117 3.76033 0
M  V30 3886 C 372.42 -3.29514 4.19829 0
M  V30 3887 O 372.643 -4.39794 3.63232 0
M  V30 3888 O 371.577 -3.15863 5.12362 0
M  V30 3889 H 375.403 -0.652244 2.96613 0
M  V30 3890 H 372.988 -0.256368 1.47184 0
M  V30 3891 H 374.87 -3.10239 2.85184 0
M  V30 3892 H 373.545 -2.74883 1.70941 0
M  V30 3893 H 372.452 -1.29139 3.51104 0
M  V30 3894 H 373.785 -1.71754 4.61261 0
M  V30 3895 N 375.437 -1.54477 -0.31217 0
M  V30 3896 C 376.685 -1.72884 -1.04668 0
M  V30 3897 C 377.006 -0.511477 -1.88173 0
M  V30 3898 O 376.276 0.474407 -1.90069 0
M  V30 3899 H 374.856 -0.637461 -0.389425 0
M  V30 3900 H 377.518 -1.91807 -0.345852 0
M  V30 3901 H 376.614 -2.61334 -1.70619 0
M  V30 3902 N 376.915 0.57481 -1.46744 0
M  V30 3903 C 378.155 1.34369 -1.54027 0
M  V30 3904 C 378.519 1.91051 -0.190642 0
M  V30 3905 O 379.72 2.68444 -0.138255 0
M  V30 3906 C 377.991 2.43706 -2.61423 0
M  V30 3907 S 379.55 3.30915 -2.88167 0
M  V30 3908 H 376.368 0.45768 -0.544105 0
M  V30 3909 H 378.97 0.659959 -1.84024 0
M  V30 3910 H 377.674 2.0047 -3.58106 0
M  V30 3911 H 377.205 3.16842 -2.33184 0
M  V30 3912 H 379.22 4.42742 -2.24039 0
M  V30 3913 N 378.394 1.34581 0.820102 0
M  V30 3914 C 379.326 1.22236 1.93884 0
M  V30 3915 C 380.339 0.148776 1.62119 0
M  V30 3916 O 381.528 0.400877 1.7394 0
M  V30 3917 C 378.628 0.856542 3.27897 0
M  V30 3918 C 377.801 2.02569 3.87666 0
M  V30 3919 C 376.86 1.63782 5.00062 0
M  V30 3920 O 375.886 2.35477 5.18208 0
M  V30 3921 N 377.088 0.553611 5.77854 0
M  V30 3922 H 379.853 2.18615 2.05006 0
M  V30 3923 H 377.414 1.27573 0.99683 0
M  V30 3924 H 379.406 0.578806 4.0054 0
M  V30 3925 H 377.976 -0.0171518 3.12595 0
M  V30 3926 H 377.196 2.468 3.07382 0
M  V30 3927 H 378.484 2.80752 4.24329 0
M  V30 3928 H 377.882 -0.0423528 5.65684 0
M  V30 3929 H 376.439 0.335614 6.50935 0
M  V30 3930 N 379.872 -1.04064 1.18357 0
M  V30 3931 C 380.835 -2.10243 0.912707 0
M  V30 3932 C 381.835 -1.60477 -0.101928 0
M  V30 3933 O 383.025 -1.73703 0.131517 0
M  V30 3934 C 380.157 -3.38893 0.369387 0
M  V30 3935 H 381.35 -2.35706 1.85426 0
M  V30 3936 H 378.903 -1.20489 0.995594 0
M  V30 3937 H 379.638 -3.19094 -0.578776 0
M  V30 3938 H 379.423 -3.76331 1.1008 0
M  V30 3939 H 380.913 -4.17128 0.198575 0
M  V30 3940 N 381.35 -0.985608 -1.22978 0
M  V30 3941 C 382.597 -0.657386 -1.91532 0
M  V30 3942 C 382.925 0.809707 -1.76845 0
M  V30 3943 O 382.18 1.60021 -1.12658 0
M  V30 3944 C 382.479 -1.00014 -3.43121 0
M  V30 3945 C 382.145 -2.4583 -3.77993 0
M  V30 3946 C 380.807 -2.85679 -3.87222 0
M  V30 3947 C 383.159 -3.40378 -3.94705 0
M  V30 3948 C 380.487 -4.19081 -4.10595 0
M  V30 3949 C 382.839 -4.73429 -4.1958 0
M  V30 3950 C 381.503 -5.1303 -4.27032 0
M  V30 3951 H 380.773 -0.240555 -0.700867 0
M  V30 3952 H 383.42 -1.24044 -1.45895 0
M  V30 3953 H 381.725 -0.335072 -3.90365 0
M  V30 3954 H 383.422 -0.724322 -3.94404 0
M  V30 3955 H 380.012 -2.13939 -3.71387 0
M  V30 3956 H 384.196 -3.10766 -3.8696 0
M  V30 3957 H 379.452 -4.49362 -4.14589 0
M  V30 3958 H 383.626 -5.46644 -4.31455 0
M  V30 3959 H 381.253 -6.16418 -4.44896 0
M  V30 3960 N 382.828 1.3818 -0.7579 0
M  V30 3961 C 383.758 2.33027 -0.148597 0
M  V30 3962 C 384.739 1.55085 0.69875 0
M  V30 3963 O 385.924 1.83384 0.639053 0
M  V30 3964 C 383.054 3.3928 0.742034 0
M  V30 3965 C 382.008 4.28 -0.00291946 0
M  V30 3966 C 381.334 5.25146 1.00625 0
M  V30 3967 C 382.634 5.08938 -1.17385 0
M  V30 3968 H 384.328 2.84231 -0.940909 0
M  V30 3969 H 381.874 1.36659 -0.453908 0
M  V30 3970 H 383.827 4.046 1.17799 0
M  V30 3971 H 382.551 2.86569 1.56671 0
M  V30 3972 H 381.21 3.64192 -0.419504 0
M  V30 3973 H 380.858 4.68721 1.8251 0
M  V30 3974 H 380.558 5.85361 0.512428 0
M  V30 3975 H 382.082 5.93342 1.44143 0
M  V30 3976 H 383.496 5.67474 -0.815224 0
M  V30 3977 H 381.893 5.7841 -1.59882 0
M  V30 3978 H 382.963 4.42424 -1.98468 0
M  V30 3979 N 384.306 0.507319 1.49211 0
M  V30 3980 C 385.583 -0.0982702 1.95353 0
M  V30 3981 C 385.963 -1.53516 1.449 0
M  V30 3982 O 385.311 -2.18594 0.66551 0
M  V30 3983 C 385.521 -0.00440283 3.49 0
M  V30 3984 C 386.869 -0.175147 4.24239 0
M  V30 3985 O 387.893 -0.0792891 3.56112 0
M  V30 3986 O 386.752 -0.37276 5.45227 0
M  V30 3987 H 383.846 -0.0918236 0.821887 0
M  V30 3988 H 386.392 0.570307 1.5983 0
M  V30 3989 H 385.164 0.997402 3.78375 0
M  V30 3990 H 384.787 -0.712845 3.91158 0
M  V30 3991 N 385.784 -1.5574 0.241426 0
M  V30 3992 C 386.694 -2.2479 -0.671305 0
M  V30 3993 C 387.71 -1.26217 -1.19772 0
M  V30 3994 O 388.886 -1.59079 -1.23514 0
M  V30 3995 C 385.951 -2.92966 -1.85396 0
M  V30 3996 C 385.012 -4.06935 -1.36756 0
M  V30 3997 C 384.245 -4.71851 -2.49384 0
M  V30 3998 O 384.468 -4.35823 -3.67987 0
M  V30 3999 O 383.402 -5.60467 -2.19454 0
M  V30 4000 H 387.228 -3.0349 -0.112966 0
M  V30 4001 H 384.813 -1.49397 0.0101513 0
M  V30 4002 H 386.695 -3.35927 -2.54423 0
M  V30 4003 H 385.37 -2.17211 -2.40002 0
M  V30 4004 H 384.277 -3.68503 -0.644726 0
M  V30 4005 H 385.61 -4.84492 -0.867647 0
M  V30 4006 N 387.262 0.0317525 -1.57568 0
M  V30 4007 C 388.509 0.723104 -1.89149 0
M  V30 4008 C 388.837 1.75504 -0.838377 0
M  V30 4009 O 388.092 1.95037 0.160982 0
M  V30 4010 C 388.391 1.43167 -3.27472 0
M  V30 4011 C 388.057 0.535972 -4.47703 0
M  V30 4012 C 386.719 0.289262 -4.8033 0
M  V30 4013 C 389.071 -0.0826125 -5.21135 0
M  V30 4014 C 386.399 -0.584853 -5.83778 0
M  V30 4015 C 388.751 -0.944414 -6.25511 0
M  V30 4016 C 387.415 -1.20061 -6.56614 0
M  V30 4017 H 386.685 0.264602 -0.692146 0
M  V30 4018 H 389.332 -0.0169496 -1.91492 0
M  V30 4019 H 387.637 2.24497 -3.21105 0
M  V30 4020 H 389.334 1.97209 -3.49155 0
M  V30 4021 H 385.924 0.738414 -4.22191 0
M  V30 4022 H 390.108 0.0950302 -4.96209 0
M  V30 4023 H 385.364 -0.79168 -6.06253 0
M  V30 4024 H 389.538 -1.43026 -6.81554 0
M  V30 4025 H 387.165 -1.87967 -7.36595 0
M  V30 4026 N 388.74 1.54641 0.303973 0
M  V30 4027 C 389.968 1.77768 1.05858 0
M  V30 4028 C 390.383 0.535722 1.8104 0
M  V30 4029 O 389.74 -0.494337 1.75677 0
M  V30 4030 C 389.791 2.9834 2.04146 0
M  V30 4031 O 389.512 4.17736 1.32015 0
M  V30 4032 C 391.013 3.33832 2.91669 0
M  V30 4033 H 388.233 0.592961 0.314067 0
M  V30 4034 H 390.777 2.01583 0.344149 0
M  V30 4035 H 388.932 2.76742 2.71096 0
M  V30 4036 H 389.346 4.85693 1.97998 0
M  V30 4037 H 390.82 4.21448 3.56491 0
M  V30 4038 H 391.297 2.51857 3.59812 0
M  V30 4039 H 391.903 3.57579 2.30254 0
M  V30 4040 N 390.218 -0.567019 1.47046 0
M  V30 4041 C 391.166 -1.69593 1.59188 0
M  V30 4042 C 392.16 -1.63046 0.459609 0
M  V30 4043 O 393.366 -1.6835 0.637058 0
M  V30 4044 H 389.741 -0.560993 0.500791 0
M  V30 4045 H 391.712 -1.56488 2.54075 0
M  V30 4046 C 390.461 -3.07964 1.61411 0
M  V30 4047 H 389.784 -3.13679 2.47881 0
M  V30 4048 H 391.224 -3.86671 1.73958 0
M  V30 4049 C 389.683 -3.35123 0.34559 0
M  V30 4050 O 390.213 -3.97812 -0.557521 0
M  V30 4051 N 388.419 -2.89699 0.22864 0
M  V30 4052 H 387.966 -2.38863 0.964479 0
M  V30 4053 H 387.924 -3.08242 -0.619192 0
M  V30 4054 N 391.696 -1.35014 -0.812953 0
M  V30 4055 C 392.942 -1.29129 -1.57154 0
M  V30 4056 C 393.297 0.134922 -1.91926 0
M  V30 4057 O 392.59 1.08373 -1.58006 0
M  V30 4058 C 392.784 -2.12524 -2.87347 0
M  V30 4059 C 392.613 -3.6311 -2.65294 0
M  V30 4060 C 391.383 -4.32363 -2.61516 0
M  V30 4061 C 393.581 -4.56897 -2.36114 0
M  V30 4062 N 391.563 -5.68735 -2.31113 0
M  V30 4063 C 392.934 -5.81345 -2.15494 0
M  V30 4064 C 394.989 -4.45706 -2.21925 0
M  V30 4065 C 393.692 -6.95862 -1.82122 0
M  V30 4066 C 395.718 -5.60066 -1.89948 0
M  V30 4067 C 395.08 -6.83539 -1.7016 0
M  V30 4068 H 391.179 -0.527764 -0.577052 0
M  V30 4069 H 393.763 -1.6983 -0.952146 0
M  V30 4070 H 391.934 -1.74104 -3.47192 0
M  V30 4071 H 393.666 -1.98207 -3.5284 0
M  V30 4072 H 390.421 -3.84907 -2.75941 0
M  V30 4073 H 390.845 -6.40694 -2.18724 0
M  V30 4074 H 395.487 -3.50855 -2.35925 0
M  V30 4075 H 393.205 -7.90685 -1.6686 0
M  V30 4076 H 396.791 -5.53357 -1.79687 0
M  V30 4077 H 395.671 -7.70531 -1.45777 0
M  V30 4078 N 393.175 1.03435 -1.18907 0
M  V30 4079 C 394.4 1.80919 -1.01406 0
M  V30 4080 C 394.825 1.83055 0.432721 0
M  V30 4081 O 394.183 1.25252 1.31079 0
M  V30 4082 C 394.231 3.24091 -1.58105 0
M  V30 4083 O 393.335 4.04434 -0.806669 0
M  V30 4084 H 392.676 0.558709 -0.358803 0
M  V30 4085 H 395.206 1.30223 -1.57807 0
M  V30 4086 H 395.216 3.74853 -1.61087 0
M  V30 4087 H 393.891 3.21851 -2.6341 0
M  V30 4088 H 392.468 3.63091 -0.849666 0
M  V30 4089 N 394.653 0.992116 1.22453 0
M  V30 4090 C 396.069 0.702713 1.43297 0
M  V30 4091 C 396.269 -0.726909 1.87932 0
M  V30 4092 O 395.325 -1.49792 2.0327 0
M  V30 4093 C 396.638 1.70762 2.47509 0
M  V30 4094 C 398.186 1.72298 2.61309 0
M  V30 4095 C 398.661 2.71649 3.68742 0
M  V30 4096 N 400.152 2.70239 3.76199 0
M  V30 4097 C 400.887 3.43778 4.58917 0
M  V30 4098 N 400.383 4.26914 5.45633 0
M  V30 4099 N 402.176 3.32487 4.5322 0
M  V30 4100 H 394.327 1.91543 0.917871 0
M  V30 4101 H 396.59 0.826031 0.465162 0
M  V30 4102 H 396.296 2.73059 2.21657 0
M  V30 4103 H 396.17 1.49985 3.46099 0
M  V30 4104 H 398.557 0.706989 2.86506 0
M  V30 4105 H 398.638 1.97143 1.62997 0
M  V30 4106 H 398.282 3.73397 3.44292 0
M  V30 4107 H 398.212 2.44074 4.66622 0
M  V30 4108 H 400.703 2.09912 3.14237 0
M  V30 4109 H 401.016 4.79855 6.05771 0
M  V30 4110 H 399.361 4.31002 5.45218 0
M  V30 4111 H 402.552 2.6698 3.84499 0
M  V30 4112 H 402.725 3.90058 5.17454 0
M  V30 4113 N 396.131 -1.37776 0.765217 0
M  V30 4114 C 397.38 -1.99092 0.323307 0
M  V30 4115 C 397.693 -1.61434 -1.10446 0
M  V30 4116 O 398.899 -2.15805 -1.64743 0
M  V30 4117 C 397.355 -3.56019 0.527098 0
M  V30 4118 C 396.963 -4.0262 1.96471 0
M  V30 4119 C 398.707 -4.2424 0.148483 0
M  V30 4120 C 396.614 -5.52233 2.11644 0
M  V30 4121 H 395.544 -0.744846 0.117137 0
M  V30 4122 H 398.195 -1.57391 0.943417 0
M  V30 4123 H 396.577 -3.95667 -0.162372 0
M  V30 4124 H 397.751 -3.74234 2.68859 0
M  V30 4125 H 396.066 -3.47161 2.29931 0
M  V30 4126 H 398.663 -5.34159 0.240456 0
M  V30 4127 H 399.006 -4.06446 -0.900422 0
M  V30 4128 H 399.539 -3.89872 0.79025 0
M  V30 4129 H 396.278 -5.74945 3.1483 0
M  V30 4130 H 395.798 -5.82324 1.4373 0
M  V30 4131 H 397.477 -6.18106 1.91193 0
M  V30 4132 N 397.609 -0.515225 -1.4894 0
M  V30 4133 C 398.557 0.269115 -2.31038 0
M  V30 4134 C 399.551 0.949443 -1.40292 0
M  V30 4135 O 400.757 0.87551 -1.57273 0
M  V30 4136 H 397.132 0.10565 -0.744542 0
M  V30 4137 H 399.103 -0.443096 -2.95092 0
M  V30 4138 C 397.852 1.31213 -3.21991 0
M  V30 4139 H 397.175 0.798034 -3.91754 0
M  V30 4140 H 398.615 1.83263 -3.82349 0
M  V30 4141 C 397.074 2.33791 -2.42576 0
M  V30 4142 O 397.604 3.3995 -2.14003 0
M  V30 4143 N 395.81 2.06625 -2.0434 0
M  V30 4144 H 395.357 1.20314 -2.27777 0
M  V30 4145 H 395.315 2.75483 -1.51514 0
M  V30 4146 N 399.087 1.5561 -0.249682 0
M  V30 4147 C 400.498 1.84979 0.252949 0
M  V30 4148 C 400.849 1.17153 1.57384 0
M  V30 4149 O 399.974 0.450884 2.11651 0
M  V30 4150 C 400.569 3.35584 0.465732 0
M  V30 4151 C 399.128 3.65169 0.912624 0
M  V30 4152 C 398.275 2.77299 -0.00859085 0
M  V30 4153 H 401.226 1.51513 -0.47217 0
M  V30 4154 H 401.247 3.57313 1.30795 0
M  V30 4155 H 400.759 3.8492 -0.49579 0
M  V30 4156 H 398.86 3.21312 1.88652 0
M  V30 4157 H 398.973 4.72912 0.767559 0
M  V30 4158 H 397.337 2.49678 0.50327 0
M  V30 4159 H 398.12 3.29442 -0.965537 0
M  V30 4160 N 400.565 -0.0233959 1.57583 0
M  V30 4161 C 401.513 -1.04063 2.08023 0
M  V30 4162 C 402.507 -1.37084 0.995204 0
M  V30 4163 O 403.713 -1.35923 1.18004 0
M  V30 4164 H 400.088 -0.353144 0.663922 0
M  V30 4165 H 402.059 -0.589453 2.9252 0
M  V30 4166 C 400.808 -2.33123 2.57971 0
M  V30 4167 H 400.131 -2.08577 3.4108 0
M  V30 4168 H 401.571 -3.02632 2.96967 0
M  V30 4169 C 400.03 -3.02483 1.48342 0
M  V30 4170 O 400.56 -3.92541 0.852898 0
M  V30 4171 N 398.766 -2.63909 1.21658 0
M  V30 4172 H 398.313 -1.90758 1.73116 0
M  V30 4173 H 398.271 -3.10633 0.485218 0
M  V30 4174 N 402.043 -1.548 -0.295768 0
M  V30 4175 C 402.99 -1.86113 -1.36494 0
M  V30 4176 C 403.96 -0.7105 -1.50137 0
M  V30 4177 O 405.145 -0.959626 -1.64912 0
M  V30 4178 C 402.285 -2.11861 -2.72413 0
M  V30 4179 C 401.398 -3.39471 -2.67177 0
M  V30 4180 C 400.533 -3.55035 -3.95125 0
M  V30 4181 C 399.572 -4.76418 -3.84308 0
M  V30 4182 N 398.709 -4.8876 -5.04042 0
M  V30 4183 H 403.549 -2.77314 -1.09091 0
M  V30 4184 H 401.086 -1.37315 -0.52753 0
M  V30 4185 H 403.044 -2.24786 -3.51464 0
M  V30 4186 H 401.674 -1.2392 -2.98066 0
M  V30 4187 H 400.726 -3.35139 -1.79962 0
M  V30 4188 H 402.038 -4.28646 -2.55076 0
M  V30 4189 H 401.192 -3.67653 -4.82614 0
M  V30 4190 H 399.931 -2.64002 -4.10066 0
M  V30 4191 H 398.936 -4.63827 -2.95202 0
M  V30 4192 H 400.161 -5.68863 -3.70906 0
M  V30 4193 H 398.107 -4.00652 -5.19436 0
M  V30 4194 H 398.024 -5.71945 -4.94384 0
M  V30 4195 H 399.292 -5.0574 -5.93167 0
M  V30 4196 N 403.521 0.559213 -1.47345 0
M  V30 4197 C 404.484 1.64854 -1.59235 0
M  V30 4198 C 405.484 1.53851 -0.467607 0
M  V30 4199 O 406.674 1.58045 -0.732617 0
M  V30 4200 C 403.806 3.04388 -1.53496 0
M  V30 4201 H 404.999 1.55662 -2.56339 0
M  V30 4202 H 402.552 0.778973 -1.35505 0
M  V30 4203 H 403.287 3.19115 -0.577604 0
M  V30 4204 H 403.072 3.13783 -2.35123 0
M  V30 4205 H 404.562 3.83642 -1.6495 0
M  V30 4206 N 404.999 1.35443 0.805782 0
M  V30 4207 C 406.415 1.15499 1.10146 0
M  V30 4208 C 406.615 -0.0319975 2.01475 0
M  V30 4209 O 405.671 -0.70236 2.42535 0
M  V30 4210 C 406.984 2.45833 1.73166 0
M  V30 4211 C 408.532 2.52047 1.85583 0
M  V30 4212 C 409.007 3.82427 2.52019 0
M  V30 4213 N 410.498 3.83682 2.59504 0
M  V30 4214 C 411.233 4.81294 3.11679 0
M  V30 4215 N 410.729 5.89294 3.64287 0
M  V30 4216 N 412.522 4.6873 3.1024 0
M  V30 4217 H 404.673 2.11469 0.198678 0
M  V30 4218 H 406.936 0.93594 0.150731 0
M  V30 4219 H 406.642 3.32874 1.13526 0
M  V30 4220 H 406.516 2.6044 2.72857 0
M  V30 4221 H 408.903 1.65435 2.44367 0
M  V30 4222 H 408.984 2.41354 0.847455 0
M  V30 4223 H 408.628 4.69437 1.93885 0
M  V30 4224 H 408.558 3.90409 3.53395 0
M  V30 4225 H 411.049 3.05648 2.22234 0
M  V30 4226 H 411.362 6.59768 4.02401 0
M  V30 4227 H 409.707 5.92985 3.62483 0
M  V30 4228 H 412.898 3.83496 2.68419 0
M  V30 4229 H 413.071 5.44965 3.50596 0
M  V30 4230 N 406.477 -1.02803 1.19454 0
M  V30 4231 C 407.726 -1.7562 0.991996 0
M  V30 4232 C 408.039 -1.89672 -0.477901 0
M  V30 4233 O 409.245 -2.59468 -0.799287 0
M  V30 4234 C 407.701 -3.15812 1.72601 0
M  V30 4235 C 407.309 -3.0981 3.23607 0
M  V30 4236 C 409.053 -3.92918 1.60674 0
M  V30 4237 C 406.96 -4.44939 3.89594 0
M  V30 4238 H 405.89 -0.658352 0.367543 0
M  V30 4239 H 408.541 -1.15044 1.42959 0
M  V30 4240 H 406.923 -3.7686 1.21624 0
M  V30 4241 H 408.097 -2.58138 3.81709 0
M  V30 4242 H 406.412 -2.46201 3.35819 0
M  V30 4243 H 409.009 -4.9287 2.07323 0
M  V30 4244 H 409.352 -4.12502 0.561025 0
M  V30 4245 H 409.885 -3.38472 2.09001 0
M  V30 4246 H 406.624 -4.30559 4.94267 0
M  V30 4247 H 406.144 -4.96664 3.36281 0
M  V30 4248 H 407.823 -5.1382 3.93189 0
M  V30 4249 N 407.956 -0.998596 -1.21925 0
M  V30 4250 C 409.367 -0.711939 -1.72593 0
M  V30 4251 C 409.718 0.770842 -1.80423 0
M  V30 4252 O 408.843 1.60237 -1.4544 0
M  V30 4253 C 409.438 -1.28567 -3.13458 0
M  V30 4254 C 407.997 -1.04828 -3.61508 0
M  V30 4255 C 407.144 -1.4024 -2.39224 0
M  V30 4256 H 410.095 -1.17027 -1.07193 0
M  V30 4257 H 410.116 -0.667098 -3.74607 0
M  V30 4258 H 409.628 -2.36486 -3.07727 0
M  V30 4259 H 407.729 0.0140383 -3.72597 0
M  V30 4260 H 407.842 -1.71566 -4.47328 0
M  V30 4261 H 406.206 -0.821077 -2.41103 0
M  V30 4262 H 406.989 -2.49176 -2.36149 0
M  V30 4263 N 409.434 1.37368 -0.772513 0
M  V30 4264 C 410.367 2.27956 -0.105593 0
M  V30 4265 C 411.345 1.46362 0.708295 0
M  V30 4266 O 412.529 1.75695 0.682895 0
M  V30 4267 C 409.656 3.27687 0.856686 0
M  V30 4268 C 408.702 4.26312 0.1267 0
M  V30 4269 S 409.535 5.22206 -1.1858 0
M  V30 4270 C 410.691 6.25488 -0.227081 0
M  V30 4271 H 410.924 2.84171 -0.87372 0
M  V30 4272 H 408.457 1.43654 -0.565939 0
M  V30 4273 H 410.415 3.85653 1.40648 0
M  V30 4274 H 409.076 2.70417 1.59793 0
M  V30 4275 H 408.269 4.96674 0.856212 0
M  V30 4276 H 407.871 3.72339 -0.352117 0
M  V30 4277 H 410.163 6.74836 0.600231 0
M  V30 4278 H 411.106 7.02371 -0.898899 0
M  V30 4279 H 411.514 5.64267 0.162053 0
M  V30 4280 N 410.912 0.523116 1.48665 0
M  V30 4281 C 411.875 -0.232592 2.28017 0
M  V30 4282 C 412.875 -0.874021 1.34972 0
M  V30 4283 O 414.065 -0.735132 1.57929 0
M  V30 4284 C 411.197 -1.33586 3.13636 0
M  V30 4285 H 412.39 0.464008 2.96289 0
M  V30 4286 H 409.943 0.278816 1.53793 0
M  V30 4287 H 410.678 -2.06593 2.4998 0
M  V30 4288 H 410.463 -0.881125 3.82071 0
M  V30 4289 H 411.953 -1.86759 3.73511 0
M  V30 4290 N 412.39 -1.55475 0.257931 0
M  V30 4291 C 413.638 -1.98813 -0.363009 0
M  V30 4292 C 413.959 -1.14757 -1.57657 0
M  V30 4293 O 413.229 -0.232956 -1.9451 0
M  V30 4294 H 411.809 -0.734308 -0.137113 0
M  V30 4295 H 414.471 -1.9156 0.359281 0
M  V30 4296 H 413.567 -3.04941 -0.664634 0
M  V30 4297 N 413.868 0.0150385 -1.57593 0
M  V30 4298 C 415.145 0.7392 -1.81094 0
M  V30 4299 C 415.525 1.92817 -0.859344 0
M  V30 4300 O 414.873 2.28301 0.095362 0
M  V30 4301 C 415.083 1.15907 -3.29191 0
M  V30 4302 C 416.431 1.56918 -3.9454 0
M  V30 4303 O 417.455 1.25328 -3.33424 0
M  V30 4304 O 416.314 2.15604 -5.02173 0
M  V30 4305 H 413.408 0.358631 -0.745193 0
M  V30 4306 H 415.954 -0.00926156 -1.69697 0
M  V30 4307 H 414.726 0.310921 -3.90063 0
M  V30 4308 H 414.349 1.96711 -3.45529 0
M  V30 4309 N 415.346 1.54954 0.287554 0
M  V30 4310 C 416.574 1.78881 1.03967 0
M  V30 4311 C 416.989 0.554894 1.80462 0
M  V30 4312 O 416.346 -0.475676 1.76192 0
M  V30 4313 C 416.397 3.00488 2.0097 0
M  V30 4314 O 416.118 4.19113 1.27577 0
M  V30 4315 C 417.619 3.36907 2.88112 0
M  V30 4316 H 414.839 0.596259 0.307761 0
M  V30 4317 H 417.383 2.01937 0.322749 0
M  V30 4318 H 415.538 2.79601 2.68145 0
M  V30 4319 H 415.952 4.87765 1.92835 0
M  V30 4320 H 417.426 4.25205 3.52001 0
M  V30 4321 H 417.903 2.55659 3.57121 0
M  V30 4322 H 418.509 3.60001 2.26449 0
M  V30 4323 N 416.824 -0.551391 1.4764 0
M  V30 4324 C 417.756 -1.67333 1.56628 0
M  V30 4325 C 418.769 -1.56398 0.452045 0
M  V30 4326 O 419.958 -1.6325 0.721926 0
M  V30 4327 C 417.058 -3.05841 1.45994 0
M  V30 4328 C 416.231 -3.42472 2.72088 0
M  V30 4329 C 415.29 -4.60168 2.55209 0
M  V30 4330 O 414.316 -4.64458 3.2904 0
M  V30 4331 N 415.518 -5.57024 1.63416 0
M  V30 4332 H 418.283 -1.60066 2.53375 0
M  V30 4333 H 415.844 -0.738169 1.44093 0
M  V30 4334 H 417.836 -3.8242 1.32428 0
M  V30 4335 H 416.406 -3.07302 0.573071 0
M  V30 4336 H 415.626 -2.55284 3.00373 0
M  V30 4337 H 416.914 -3.63723 3.55785 0
M  V30 4338 H 416.312 -5.56319 1.02594 0
M  V30 4339 H 414.869 -6.32906 1.558 0
M  V30 4340 N 418.302 -1.35869 -0.798587 0
M  V30 4341 C 419.55 -1.29332 -1.55298 0
M  V30 4342 C 419.871 0.129729 -1.94568 0
M  V30 4343 O 419.141 1.06796 -1.6423 0
M  V30 4344 H 417.721 -0.475737 -0.57592 0
M  V30 4345 H 420.383 -1.70062 -0.952093 0
M  V30 4346 H 419.479 -1.91458 -2.46476 0
M  V30 4347 N 419.78 1.02168 -1.19998 0
M  V30 4348 C 421.026 1.75945 -1.00852 0
M  V30 4349 C 421.359 1.88702 0.458828 0
M  V30 4350 O 420.634 1.40911 1.34069 0
M  V30 4351 C 420.917 3.18154 -1.68671 0
M  V30 4352 C 420.77 3.13224 -3.22817 0
M  V30 4353 C 422.089 4.16711 -1.41561 0
M  V30 4354 H 419.208 0.638673 -0.367785 0
M  V30 4355 H 421.85 1.19222 -1.4794 0
M  V30 4356 H 420 3.66586 -1.28636 0
M  V30 4357 H 421.672 2.72635 -3.72112 0
M  V30 4358 H 419.915 2.50751 -3.53986 0
M  V30 4359 H 420.586 4.13728 -3.65422 0
M  V30 4360 H 423.062 3.76913 -1.76284 0
M  V30 4361 H 421.938 5.14391 -1.91553 0
M  V30 4362 H 422.199 4.40774 -0.342193 0
M  V30 4363 N 421.258 1.00505 1.21394 0
M  V30 4364 C 422.504 0.688793 1.90745 0
M  V30 4365 C 422.837 -0.778486 1.77914 0
M  V30 4366 O 422.112 -1.56433 1.15581 0
M  V30 4367 C 422.395 1.11063 3.42545 0
M  V30 4368 C 422.248 2.63737 3.64367 0
M  V30 4369 C 423.567 0.673059 4.34923 0
M  V30 4370 H 420.686 0.251702 0.692687 0
M  V30 4371 H 423.328 1.25074 1.43026 0
M  V30 4372 H 421.478 0.632508 3.83317 0
M  V30 4373 H 423.15 3.19313 3.32922 0
M  V30 4374 H 421.393 3.05248 3.08231 0
M  V30 4375 H 422.064 2.88305 4.70727 0
M  V30 4376 H 424.54 1.08392 4.01734 0
M  V30 4377 H 423.416 0.996383 5.39781 0
M  V30 4378 H 423.677 -0.425808 4.40045 0
M  V30 4379 N 422.737 -1.36956 0.779787 0
M  V30 4380 C 423.985 -1.99097 0.347079 0
M  V30 4381 C 424.306 -1.62206 -1.08232 0
M  V30 4382 O 423.576 -0.891373 -1.74446 0
M  V30 4383 H 422.156 -0.736409 0.125342 0
M  V30 4384 H 424.818 -1.67308 0.999696 0
M  V30 4385 H 423.914 -3.09107 0.431162 0
M  V30 4386 N 424.215 -0.530993 -1.48385 0
M  V30 4387 C 425.443 -0.00134122 -2.069 0
M  V30 4388 C 425.858 1.2805 -1.3874 0
M  V30 4389 O 425.215 1.76204 -0.475244 0
M  V30 4390 C 425.266 0.225256 -3.60798 0
M  V30 4391 O 424.987 -1.0058 -4.26398 0
M  V30 4392 C 426.488 0.795172 -4.3611 0
M  V30 4393 H 423.708 -0.0339704 -0.67014 0
M  V30 4394 H 426.252 -0.736926 -1.90761 0
M  V30 4395 H 424.407 0.910891 -3.76539 0
M  V30 4396 H 424.821 -0.787165 -5.1856 0
M  V30 4397 H 426.295 0.903143 -5.44562 0
M  V30 4398 H 426.772 1.80031 -4.00606 0
M  V30 4399 H 427.378 0.146069 -4.25049 0
M  V30 4400 N 425.693 1.55336 -0.266172 0
M  V30 4401 C 426.939 1.99692 0.353681 0
M  V30 4402 C 427.272 1.1543 1.56172 0
M  V30 4403 O 426.547 0.222218 1.93226 0
M  V30 4404 C 426.83 3.52316 0.74466 0
M  V30 4405 C 426.683 4.47337 -0.470101 0
M  V30 4406 C 428.002 4.10588 1.58447 0
M  V30 4407 H 425.121 0.725961 0.12708 0
M  V30 4408 H 427.763 1.86336 -0.371333 0
M  V30 4409 H 425.913 3.63829 1.36239 0
M  V30 4410 H 427.585 4.4778 -1.10864 0
M  V30 4411 H 425.828 4.19364 -1.10978 0
M  V30 4412 H 426.499 5.51788 -0.15291 0
M  V30 4413 H 428.975 4.02297 1.06286 0
M  V30 4414 H 427.851 5.17607 1.82686 0
M  V30 4415 H 428.112 3.60253 2.56262 0
M  V30 4416 N 427.171 -0.0066808 1.57599 0
M  V30 4417 C 428.396 -0.707738 1.94951 0
M  V30 4418 C 428.821 -1.66882 0.867868 0
M  V30 4419 O 428.179 -1.80457 -0.17458 0
M  V30 4420 C 428.227 -1.42162 3.31394 0
M  V30 4421 O 427.331 -2.53578 3.25226 0
M  V30 4422 H 426.672 -0.188752 0.636607 0
M  V30 4423 H 429.202 0.0445193 2.04552 0
M  V30 4424 H 429.212 -1.78655 3.66806 0
M  V30 4425 H 427.887 -0.716903 4.09675 0
M  V30 4426 H 426.464 -2.19463 3.01481 0
M  V30 4427 N 428.649 -1.55105 -0.279332 0
M  V30 4428 C 429.596 -1.8755 -1.34513 0
M  V30 4429 C 430.566 -0.726384 -1.49375 0
M  V30 4430 O 431.751 -0.977063 -1.63884 0
M  V30 4431 C 428.891 -2.14738 -2.70151 0
M  V30 4432 C 428.004 -3.42285 -2.63562 0
M  V30 4433 C 427.139 -3.59206 -3.91337 0
M  V30 4434 C 426.178 -4.80467 -3.79233 0
M  V30 4435 N 425.315 -4.94079 -4.98829 0
M  V30 4436 H 430.155 -2.78456 -1.06143 0
M  V30 4437 H 427.692 -1.37867 -0.512936 0
M  V30 4438 H 429.65 -2.28501 -3.49061 0
M  V30 4439 H 428.28 -1.27075 -2.96735 0
M  V30 4440 H 427.332 -3.37029 -1.76397 0
M  V30 4441 H 428.644 -4.31328 -2.50515 0
M  V30 4442 H 427.798 -3.72751 -4.78687 0
M  V30 4443 H 426.537 -2.68337 -4.07243 0
M  V30 4444 H 425.542 -4.66932 -2.90266 0
M  V30 4445 H 426.767 -5.72765 -3.64852 0
M  V30 4446 H 424.713 -4.06139 -5.15158 0
M  V30 4447 H 424.63 -5.77156 -4.8829 0
M  V30 4448 H 425.898 -5.12003 -5.8777 0
M  V30 4449 N 430.127 0.543554 -1.4793 0
M  V30 4450 C 431.538 1.12561 -1.48953 0
M  V30 4451 C 431.889 1.94578 -0.251754 0
M  V30 4452 O 431.014 2.0665 0.642255 0
M  V30 4453 C 431.609 2.04801 -2.69892 0
M  V30 4454 C 430.168 2.58251 -2.73831 0
M  V30 4455 C 429.315 1.34918 -2.42265 0
M  V30 4456 H 432.266 0.32947 -1.55242 0
M  V30 4457 H 432.287 2.88886 -2.47639 0
M  V30 4458 H 431.799 1.4508 -3.59963 0
M  V30 4459 H 429.9 3.21732 -1.87934 0
M  V30 4460 H 430.013 2.98312 -3.74895 0
M  V30 4461 H 428.377 1.66046 -1.93134 0
M  V30 4462 H 429.16 0.769693 -3.3456 0
M  V30 4463 N 431.605 1.3629 0.791371 0
M  V30 4464 C 432.845 1.31792 1.56238 0
M  V30 4465 C 433.209 -0.102237 1.91728 0
M  V30 4466 O 434.41 -0.271759 2.67423 0
M  V30 4467 C 432.681 2.21303 2.80642 0
M  V30 4468 S 434.24 2.34468 3.70904 0
M  V30 4469 H 431.058 0.468141 0.535131 0
M  V30 4470 H 433.66 1.71841 0.932246 0
M  V30 4471 H 432.364 3.23439 2.52617 0
M  V30 4472 H 431.895 1.82266 3.4863 0
M  V30 4473 H 433.91 1.54074 4.71673 0
M  V30 4474 N 433.083 -1.0153 1.20538 0
M  V30 4475 C 434.33 -1.75149 1.01633 0
M  V30 4476 C 434.658 -1.89189 -0.451399 0
M  V30 4477 O 433.913 -1.41551 -1.35136 0
M  V30 4478 C 434.212 -3.17213 1.64654 0
M  V30 4479 C 433.878 -3.23146 3.14464 0
M  V30 4480 C 432.54 -3.24472 3.55347 0
M  V30 4481 C 434.892 -3.21207 4.10458 0
M  V30 4482 C 432.22 -3.21532 4.90748 0
M  V30 4483 C 434.572 -3.19808 5.45807 0
M  V30 4484 C 433.236 -3.19439 5.86102 0
M  V30 4485 H 432.506 -0.640914 0.3719 0
M  V30 4486 H 435.153 -1.19071 1.49981 0
M  V30 4487 H 433.458 -3.76457 1.08571 0
M  V30 4488 H 435.155 -3.72871 1.4754 0
M  V30 4489 H 431.745 -3.2285 2.81897 0
M  V30 4490 H 435.929 -3.19351 3.79906 0
M  V30 4491 H 431.185 -3.19578 5.21229 0
M  V30 4492 H 435.359 -3.1726 6.19935 0
M  V30 4493 H 432.986 -3.16915 6.90991 0
M  V30 4494 N 434.561 -1.01147 -1.20859 0
M  V30 4495 C 435.789 -0.716911 -1.94082 0
M  V30 4496 C 436.204 0.721568 -1.74467 0
M  V30 4497 O 435.561 1.48889 -1.05539 0
M  V30 4498 C 435.612 -1.03662 -3.46318 0
M  V30 4499 O 435.333 -2.4186 -3.65288 0
M  V30 4500 C 436.834 -0.762386 -4.36695 0
M  V30 4501 H 434.054 -0.26367 -0.617024 0
M  V30 4502 H 436.598 -1.35127 -1.53496 0
M  V30 4503 H 434.753 -0.447757 -3.84804 0
M  V30 4504 H 435.167 -2.53224 -4.59323 0
M  V30 4505 H 436.641 -1.03621 -5.42187 0
M  V30 4506 H 437.118 0.303514 -4.3815 0
M  V30 4507 H 437.724 -1.33316 -4.03865 0
M  V30 4508 N 436.039 1.36541 -0.78704 0
M  V30 4509 C 437.002 2.28413 -0.189778 0
M  V30 4510 C 438.002 1.48719 0.611499 0
M  V30 4511 O 439.192 1.68737 0.432842 0
M  V30 4512 C 436.324 3.32824 0.737638 0
M  V30 4513 H 437.517 2.82743 -0.999831 0
M  V30 4514 H 435.07 1.46065 -0.556298 0
M  V30 4515 H 435.805 2.83646 1.57212 0
M  V30 4516 H 435.59 3.91752 0.165044 0
M  V30 4517 H 437.08 4.0144 1.15047 0
M  V30 4518 N 437.518 0.538854 1.48102 0
M  V30 4519 C 438.748 0.0122958 2.06596 0
M  V30 4520 C 439.156 -1.27861 1.39457 0
M  V30 4521 O 438.499 -1.77348 0.478907 0
M  V30 4522 C 438.561 -0.273131 3.58461 0
M  V30 4523 C 438.225 0.92561 4.47528 0
M  V30 4524 C 439.222 1.82637 4.86765 0
M  V30 4525 C 436.907 1.13511 4.89306 0
M  V30 4526 C 438.901 2.92047 5.66558 0
M  V30 4527 C 436.588 2.23233 5.68868 0
M  V30 4528 C 437.586 3.12333 6.07402 0
M  V30 4529 O 437.274 4.20155 6.85365 0
M  V30 4530 H 437.006 0.0344283 0.675123 0
M  V30 4531 H 439.56 0.746494 1.91355 0
M  V30 4532 H 437.79 -1.06141 3.71848 0
M  V30 4533 H 439.479 -0.742842 3.99045 0
M  V30 4534 H 440.245 1.67649 4.55103 0
M  V30 4535 H 436.124 0.450835 4.5879 0
M  V30 4536 H 439.668 3.6162 5.96554 0
M  V30 4537 H 435.565 2.38201 5.99942 0
M  V30 4538 H 436.333 4.17975 7.03732 0
M  V30 4539 N 438.996 -1.55193 0.274407 0
M  V30 4540 C 439.906 -2.26164 -0.623473 0
M  V30 4541 C 440.922 -1.28729 -1.17068 0
M  V30 4542 O 442.098 -1.61663 -1.20112 0
M  V30 4543 C 439.163 -2.96833 -1.7914 0
M  V30 4544 C 438.224 -4.09745 -1.28093 0
M  V30 4545 C 437.457 -4.77034 -2.3932 0
M  V30 4546 O 437.68 -4.4353 -3.5866 0
M  V30 4547 O 436.614 -5.64996 -2.07516 0
M  V30 4548 H 440.44 -3.03661 -0.0485661 0
M  V30 4549 H 438.025 -1.49341 0.0418382 0
M  V30 4550 H 439.907 -3.41248 -2.4724 0
M  V30 4551 H 438.582 -2.22253 -2.35341 0
M  V30 4552 H 437.489 -3.69787 -0.566416 0
M  V30 4553 H 438.822 -4.86224 -0.764683 0
M  V30 4554 N 440.474 -0.00167713 -1.576 0
M  V30 4555 C 441.407 1.02317 -2.03977 0
M  V30 4556 C 442.385 1.33381 -0.929963 0
M  V30 4557 O 443.569 1.45517 -1.19822 0
M  V30 4558 C 440.696 2.35035 -2.43878 0
M  V30 4559 C 439.742 2.19621 -3.65607 0
M  V30 4560 S 440.575 1.52068 -5.13455 0
M  V30 4561 C 441.731 2.86212 -5.56627 0
M  V30 4562 H 441.964 0.628285 -2.90585 0
M  V30 4563 H 439.497 0.209239 -1.52976 0
M  V30 4564 H 441.455 3.11345 -2.67534 0
M  V30 4565 H 440.116 2.71663 -1.57665 0
M  V30 4566 H 439.309 3.1767 -3.91282 0
M  V30 4567 H 438.911 1.51455 -3.41961 0
M  V30 4568 H 441.203 3.82509 -5.59189 0
M  V30 4569 H 442.146 2.65235 -6.56549 0
M  V30 4570 H 442.554 2.90199 -4.84195 0
M  V30 4571 N 441.952 1.55251 0.271103 0
M  V30 4572 C 442.899 1.88261 1.33516 0
M  V30 4573 C 443.869 0.734296 1.48988 0
M  V30 4574 O 445.054 0.985741 1.63364 0
M  V30 4575 C 442.194 2.16168 2.69008 0
M  V30 4576 C 441.307 3.43678 2.61743 0
M  V30 4577 C 440.442 3.61276 3.89427 0
M  V30 4578 C 439.481 4.82472 3.7668 0
M  V30 4579 N 438.618 4.96717 4.96202 0
M  V30 4580 H 443.458 2.79015 1.04665 0
M  V30 4581 H 440.995 1.38137 0.505618 0
M  V30 4582 H 442.953 2.30349 3.47844 0
M  V30 4583 H 441.583 1.28646 2.96057 0
M  V30 4584 H 440.635 3.37959 1.74607 0
M  V30 4585 H 441.947 4.3265 2.48224 0
M  V30 4586 H 441.101 3.75284 4.76704 0
M  V30 4587 H 439.84 2.70492 4.05814 0
M  V30 4588 H 438.845 4.68465 2.87786 0
M  V30 4589 H 440.07 5.74692 3.61809 0
M  V30 4590 H 438.016 4.08865 5.12997 0
M  V30 4591 H 437.933 5.79738 4.85222 0
M  V30 4592 H 439.201 5.15113 5.85046 0
M  V30 4593 N 443.43 -0.535701 1.48216 0
M  V30 4594 C 444.679 -1.28828 1.55197 0
M  V30 4595 C 444.992 -1.94263 0.228278 0
M  V30 4596 O 446.198 -2.70927 0.176278 0
M  V30 4597 C 444.654 -2.33727 2.73678 0
M  V30 4598 C 444.262 -1.74386 4.12666 0
M  V30 4599 C 446.006 -3.1003 2.89968 0
M  V30 4600 C 443.913 -2.77192 5.22416 0
M  V30 4601 H 442.843 -0.484484 0.577747 0
M  V30 4602 H 445.494 -0.56646 1.74538 0
M  V30 4603 H 443.876 -3.08919 2.4776 0
M  V30 4604 H 445.05 -1.05421 4.48579 0
M  V30 4605 H 443.365 -1.10595 4.01445 0
M  V30 4606 H 445.962 -3.86842 3.6913 0
M  V30 4607 H 446.305 -3.65542 1.9921 0
M  V30 4608 H 446.838 -2.41952 3.15759 0
M  V30 4609 H 443.577 -2.26507 6.15122 0
M  V30 4610 H 443.097 -3.44502 4.90998 0
M  V30 4611 H 444.776 -3.40285 5.50286 0
M  V30 4612 N 444.908 -1.36708 -0.784132 0
M  V30 4613 C 446.156 -1.30972 -1.53918 0
M  V30 4614 C 446.477 0.109086 -1.94695 0
M  V30 4615 O 445.747 1.05048 -1.65353 0
M  V30 4616 H 444.327 -0.481819 -0.570841 0
M  V30 4617 H 446.989 -1.71063 -0.934002 0
M  V30 4618 H 446.085 -1.94061 -2.44431 0
M  V30 4619 N 446.386 1.0089 -1.21074 0
M  V30 4620 C 447.349 2.0775 -0.968129 0
M  V30 4621 C 448.349 1.6069 0.0593445 0
M  V30 4622 O 449.539 1.73293 -0.177525 0
M  V30 4623 C 446.671 3.37794 -0.459108 0
M  V30 4624 H 447.864 2.30707 -1.9161 0
M  V30 4625 H 445.417 1.17807 -1.02719 0
M  V30 4626 H 446.152 3.20516 0.49397 0
M  V30 4627 H 445.937 3.7328 -1.20019 0
M  V30 4628 H 447.427 4.16454 -0.309099 0
M  V30 4629 N 447.864 1.01787 1.20321 0
M  V30 4630 C 449.113 0.703249 1.89043 0
M  V30 4631 C 449.426 -0.770445 1.79787 0
M  V30 4632 O 450.632 -1.19767 2.43656 0
M  V30 4633 C 449.088 1.20749 3.3904 0
M  V30 4634 C 448.696 2.70817 3.56878 0
M  V30 4635 C 450.44 0.968352 4.13308 0
M  V30 4636 C 448.347 3.14716 5.00708 0
M  V30 4637 H 447.277 0.259354 0.707991 0
M  V30 4638 H 449.928 1.23072 1.36108 0
M  V30 4639 H 448.31 0.607989 3.91305 0
M  V30 4640 H 449.484 3.36327 3.14993 0
M  V30 4641 H 447.799 2.92888 2.95983 0
M  V30 4642 H 450.396 1.27173 5.19356 0
M  V30 4643 H 450.739 -0.095149 4.16191 0
M  V30 4644 H 451.272 1.53129 3.67146 0
M  V30 4645 H 448.011 4.20347 5.02979 0
M  V30 4646 H 447.531 2.53927 5.43398 0
M  V30 4647 H 449.21 3.07426 5.69296 0
M  V30 4648 N 449.342 -1.36122 0.79427 0
M  V30 4649 C 450.57 -2.03362 0.380989 0
M  V30 4650 C 450.985 -1.59881 -1.00416 0
M  V30 4651 O 450.342 -0.790515 -1.6449 0
M  V30 4652 C 450.393 -3.58804 0.440649 0
M  V30 4653 O 450.114 -4.007 1.77118 0
M  V30 4654 C 451.615 -4.43296 0.0186117 0
M  V30 4655 H 448.835 -0.652526 0.156367 0
M  V30 4656 H 451.379 -1.73998 1.07447 0
M  V30 4657 H 449.534 -3.8686 -0.204458 0
M  V30 4658 H 449.948 -4.95309 1.72538 0
M  V30 4659 H 451.422 -5.51887 0.111488 0
M  V30 4660 H 451.899 -4.2684 -1.03461 0
M  V30 4661 H 452.505 -4.20512 0.636395 0
M  V30 4662 N 450.82 -0.546701 -1.47814 0
M  V30 4663 C 452.067 -0.0187407 -2.02491 0
M  V30 4664 C 452.395 1.32685 -1.42215 0
M  V30 4665 O 451.65 1.87413 -0.563454 0
M  V30 4666 C 451.949 0.134869 -3.57145 0
M  V30 4667 C 451.615 -1.13849 -4.3629 0
M  V30 4668 C 450.277 -1.48743 -4.57634 0
M  V30 4669 C 452.629 -1.98277 -4.82012 0
M  V30 4670 C 449.957 -2.67932 -5.21948 0
M  V30 4671 C 452.309 -3.16659 -5.4764 0
M  V30 4672 C 450.973 -3.51879 -5.67219 0
M  V30 4673 H 450.243 -0.0068577 -0.740968 0
M  V30 4674 H 452.89 -0.716097 -1.77607 0
M  V30 4675 H 451.195 0.915118 -3.80963 0
M  V30 4676 H 452.892 0.558556 -3.97091 0
M  V30 4677 H 449.482 -0.856767 -4.19949 0
M  V30 4678 H 453.666 -1.72628 -4.6531 0
M  V30 4679 H 448.922 -2.95401 -5.35302 0
M  V30 4680 H 453.096 -3.82374 -5.82033 0
M  V30 4681 H 450.723 -4.44331 -6.16825 0
M  V30 4682 N 452.299 1.55045 -0.282633 0
M  V30 4683 C 453.231 2.2023 0.634924 0
M  V30 4684 C 454.244 1.18931 1.11172 0
M  V30 4685 O 455.433 1.4562 1.03233 0
M  V30 4686 C 452.533 2.82041 1.87899 0
M  V30 4687 C 451.706 4.091 1.54776 0
M  V30 4688 C 450.765 4.54887 2.64507 0
M  V30 4689 O 449.791 5.20496 2.30375 0
M  V30 4690 N 450.993 4.25659 3.94709 0
M  V30 4691 H 453.758 2.99601 0.0769811 0
M  V30 4692 H 451.319 1.61565 -0.104048 0
M  V30 4693 H 453.311 3.09613 2.60619 0
M  V30 4694 H 451.881 2.06618 2.3458 0
M  V30 4695 H 451.101 3.88736 0.654049 0
M  V30 4696 H 452.389 4.9187 1.30158 0
M  V30 4697 H 451.787 3.7306 4.25256 0
M  V30 4698 H 450.344 4.57984 4.63782 0
M  V30 4699 N 453.777 0.010035 1.57597 0
M  V30 4700 C 455.023 -0.673697 1.91283 0
M  V30 4701 C 455.356 -1.72863 0.884979 0
M  V30 4702 O 454.631 -1.94268 -0.0949487 0
M  V30 4703 C 454.914 -1.30766 3.35518 0
M  V30 4704 C 454.767 -0.263578 4.49027 0
M  V30 4705 C 456.086 -2.23105 3.79358 0
M  V30 4706 H 453.205 -0.243439 0.695634 0
M  V30 4707 H 455.847 0.0633864 1.89894 0
M  V30 4708 H 453.997 -1.93588 3.36832 0
M  V30 4709 H 455.669 0.365738 4.59848 0
M  V30 4710 H 453.912 0.413077 4.31829 0
M  V30 4711 H 454.583 -0.746398 5.4693 0
M  V30 4712 H 457.059 -1.70289 3.79659 0
M  V30 4713 H 455.935 -2.64424 4.81011 0
M  V30 4714 H 456.196 -3.11433 3.13787 0
M  V30 4715 N 455.255 -1.55392 -0.262866 0
M  V30 4716 C 456.218 -1.88181 -1.30846 0
M  V30 4717 C 457.218 -0.757079 -1.41862 0
M  V30 4718 O 458.408 -1.02519 -1.40838 0
M  V30 4719 C 455.54 -2.09609 -2.68844 0
M  V30 4720 H 456.733 -2.81659 -1.02997 0
M  V30 4721 H 454.286 -1.48039 -0.501414 0
M  V30 4722 H 455.021 -1.18547 -3.01856 0
M  V30 4723 H 454.806 -2.91508 -2.62231 0
M  V30 4724 H 456.296 -2.36215 -3.44372 0
M  V30 4725 N 456.733 0.527833 -1.48498 0
M  V30 4726 C 457.961 1.30823 -1.6029 0
M  V30 4727 C 458.376 1.86945 -0.263974 0
M  V30 4728 O 457.733 1.6651 0.747034 0
M  V30 4729 C 457.784 2.45756 -2.65116 0
M  V30 4730 O 457.505 1.91946 -3.93813 0
M  V30 4731 C 459.006 3.37543 -2.87367 0
M  V30 4732 H 456.226 0.397763 -0.540394 0
M  V30 4733 H 458.77 0.636529 -1.94341 0
M  V30 4734 H 456.925 3.08806 -2.33917 0
M  V30 4735 H 457.339 2.67195 -4.51339 0
M  V30 4736 H 458.813 4.14532 -3.6451 0
M  V30 4737 H 459.29 3.92905 -1.9627 0
M  V30 4738 H 459.896 2.80283 -3.19878 0
M  V30 4739 N 458.211 1.37122 0.776871 0
M  V30 4740 C 459.459 1.31787 1.53221 0
M  V30 4741 C 459.78 -0.0987589 1.9475 0
M  V30 4742 O 459.05 -1.0417 1.65908 0
M  V30 4743 H 457.63 0.484839 0.568278 0
M  V30 4744 H 460.292 1.71556 0.924917 0
M  V30 4745 H 459.388 1.95355 2.43398 0
M  V30 4746 N 459.689 -1.00246 1.21608 0
M  V30 4747 C 460.966 -1.71336 0.943568 0
M  V30 4748 C 461.346 -2.03972 -0.543943 0
M  V30 4749 O 460.694 -1.71545 -1.50946 0
M  V30 4750 C 460.904 -2.97094 1.83128 0
M  V30 4751 C 462.252 -3.70071 2.08165 0
M  V30 4752 O 463.276 -3.07081 1.80498 0
M  V30 4753 O 462.135 -4.83376 2.54971 0
M  V30 4754 H 459.229 -0.747386 0.354039 0
M  V30 4755 H 461.775 -1.05967 1.32549 0
M  V30 4756 H 460.547 -2.69407 2.83788 0
M  V30 4757 H 460.17 -3.70204 1.45034 0
M  V30 4758 N 461.167 -1.02423 -1.1978 0
M  V30 4759 C 462.416 -0.713265 -1.88667 0
M  V30 4760 C 462.729 0.7609 -1.80193 0
M  V30 4761 O 463.935 1.18473 -2.44288 0
M  V30 4762 C 462.391 -1.22545 -3.38394 0
M  V30 4763 C 461.999 -2.72706 -3.55437 0
M  V30 4764 C 463.743 -0.990257 -4.12788 0
M  V30 4765 C 461.65 -3.17367 -4.99031 0
M  V30 4766 H 460.58 -0.263105 -0.706606 0
M  V30 4767 H 463.231 -1.23792 -1.35454 0
M  V30 4768 H 461.613 -0.628732 -3.90977 0
M  V30 4769 H 462.787 -3.37993 -3.13205 0
M  V30 4770 H 461.102 -2.94453 -2.94425 0
M  V30 4771 H 463.699 -1.29926 -5.18675 0
M  V30 4772 H 464.042 0.0730761 -4.16236 0
M  V30 4773 H 464.575 -1.55074 -3.66329 0
M  V30 4774 H 461.314 -4.23009 -5.00743 0
M  V30 4775 H 460.834 -2.56805 -5.42044 0
M  V30 4776 H 462.513 -3.10441 -5.67658 0
M  V30 4777 N 462.645 1.35699 -0.801477 0
M  V30 4778 C 463.608 2.28199 -0.213994 0
M  V30 4779 C 464.608 1.49359 0.595691 0
M  V30 4780 O 465.798 1.69186 0.414921 0
M  V30 4781 C 462.93 3.33587 0.702297 0
M  V30 4782 H 464.123 2.81666 -1.02976 0
M  V30 4783 H 461.676 1.45467 -0.571759 0
M  V30 4784 H 462.411 2.85297 1.54195 0
M  V30 4785 H 462.196 3.91906 0.123484 0
M  V30 4786 H 463.686 4.02638 1.10783 0
M  V30 4787 N 464.123 0.554532 1.47522 0
M  V30 4788 C 465.351 0.034257 2.06872 0
M  V30 4789 C 465.766 -1.25826 1.40759 0
M  V30 4790 O 465.123 -1.75425 0.503217 0
M  V30 4791 C 465.174 -0.167827 3.6111 0
M  V30 4792 O 464.895 1.07351 4.24744 0
M  V30 4793 C 466.396 -0.72569 4.3732 0
M  V30 4794 H 463.616 0.0446275 0.669514 0
M  V30 4795 H 466.16 0.767181 1.89564 0
M  V30 4796 H 464.315 -0.850872 3.7794 0
M  V30 4797 H 464.729 0.869563 5.17242 0
M  V30 4798 H 466.203 -0.816394 5.45929 0
M  V30 4799 H 466.68 -1.73635 4.0342 0
M  V30 4800 H 467.286 -0.0784292 4.25228 0
M  V30 4801 N 465.601 -1.54893 0.290851 0
M  V30 4802 C 466.511 -2.26812 -0.59945 0
M  V30 4803 C 467.527 -1.29963 -1.15696 0
M  V30 4804 O 468.703 -1.62928 -1.18391 0
M  V30 4805 C 465.768 -2.98716 -1.75982 0
M  V30 4806 C 464.829 -4.1108 -1.2374 0
M  V30 4807 C 464.062 -4.79546 -2.34246 0
M  V30 4808 O 464.285 -4.47309 -3.53936 0
M  V30 4809 O 463.219 -5.67165 -2.01512 0
M  V30 4810 H 467.045 -3.03696 -0.0163561 0
M  V30 4811 H 464.63 -1.49289 0.0576755 0
M  V30 4812 H 466.512 -3.43851 -2.43607 0
M  V30 4813 H 465.187 -2.24737 -2.3297 0
M  V30 4814 H 464.094 -3.70367 -0.527163 0
M  V30 4815 H 465.427 -4.87007 -0.71307 0
M  V30 4816 N 467.08 -0.0183926 -1.57589 0
M  V30 4817 C 468.012 0.995557 -2.06449 0
M  V30 4818 C 469.025 1.29556 -0.985849 0
M  V30 4819 O 470.214 1.2621 -1.26227 0
M  V30 4820 C 467.314 2.32572 -2.46502 0
M  V30 4821 C 466.487 2.21245 -3.77319 0
M  V30 4822 C 465.546 3.37104 -4.04039 0
M  V30 4823 O 464.572 3.14468 -4.74445 0
M  V30 4824 N 465.774 4.60553 -3.53372 0
M  V30 4825 H 468.539 0.578746 -2.94059 0
M  V30 4826 H 466.1 0.168603 -1.6102 0
M  V30 4827 H 468.092 3.08887 -2.61478 0
M  V30 4828 H 466.662 2.65931 -1.64315 0
M  V30 4829 H 465.882 1.29723 -3.72244 0
M  V30 4830 H 467.17 2.10868 -4.63047 0
M  V30 4831 H 466.568 4.81839 -2.96391 0
M  V30 4832 H 465.125 5.34072 -3.73644 0
M  V30 4833 N 468.558 1.5553 0.254621 0
M  V30 4834 C 469.804 1.77262 0.985193 0
M  V30 4835 C 470.137 0.582286 1.85265 0
M  V30 4836 O 469.412 -0.419666 1.89919 0
M  V30 4837 C 469.695 3.0881 1.85225 0
M  V30 4838 C 469.548 4.38233 1.0135 0
M  V30 4839 C 470.867 3.3653 2.83612 0
M  V30 4840 H 467.986 0.644906 0.356742 0
M  V30 4841 H 470.628 1.88264 0.256236 0
M  V30 4842 H 468.778 2.99562 2.47376 0
M  V30 4843 H 470.45 4.59463 0.411269 0
M  V30 4844 H 468.693 4.32636 0.317574 0
M  V30 4845 H 469.364 5.26644 1.65379 0
M  V30 4846 H 471.84 3.45691 2.31596 0
M  V30 4847 H 470.716 4.29805 3.41407 0
M  V30 4848 H 470.977 2.57064 3.59681 0
M  V30 4849 N 470.036 -0.519951 1.48776 0
M  V30 4850 C 471.313 -1.28123 1.47797 0
M  V30 4851 C 471.693 -2.10196 0.195157 0
M  V30 4852 O 471.041 -2.13167 -0.822925 0
M  V30 4853 C 471.251 -2.15413 2.74587 0
M  V30 4854 C 472.599 -2.75225 3.23321 0
M  V30 4855 O 473.623 -2.25694 2.75574 0
M  V30 4856 O 472.482 -3.65346 4.06429 0
M  V30 4857 H 469.576 -0.578793 0.590701 0
M  V30 4858 H 472.122 -0.535779 1.6102 0
M  V30 4859 H 470.894 -1.54617 3.59457 0
M  V30 4860 H 470.517 -2.97186 2.64132 0
M  V30 4861 N 471.514 -1.37532 -0.769588 0
M  V30 4862 C 472.76 -1.33057 -1.53048 0
M  V30 4863 C 473.093 0.0841865 -1.94017 0
M  V30 4864 O 472.368 1.04198 -1.64235 0
M  V30 4865 C 472.651 -2.27166 -2.79406 0
M  V30 4866 C 472.504 -3.77429 -2.44677 0
M  V30 4867 C 473.823 -2.19683 -3.81349 0
M  V30 4868 H 470.942 -0.484655 -0.555228 0
M  V30 4869 H 473.584 -1.68251 -0.882702 0
M  V30 4870 H 471.734 -1.97283 -3.34682 0
M  V30 4871 H 473.406 -4.17918 -1.953 0
M  V30 4872 H 471.649 -3.95892 -1.77346 0
M  V30 4873 H 472.32 -4.38716 -3.35011 0
M  V30 4874 H 474.796 -2.46029 -3.35573 0
M  V30 4875 H 473.672 -2.87668 -4.67481 0
M  V30 4876 H 473.933 -1.19045 -4.25771 0
M  V30 4877 N 472.992 0.995999 -1.22138 0
M  V30 4878 C 474.241 1.72928 -1.03821 0
M  V30 4879 C 474.554 1.90872 0.427444 0
M  V30 4880 O 475.76 2.61496 0.730212 0
M  V30 4881 C 474.216 3.11124 -1.80913 0
M  V30 4882 C 473.824 3.01122 -3.31707 0
M  V30 4883 C 475.568 3.8852 -1.71035 0
M  V30 4884 C 473.475 4.34453 -4.01253 0
M  V30 4885 H 472.405 0.648376 -0.384869 0
M  V30 4886 H 475.056 1.11213 -1.45959 0
M  V30 4887 H 473.438 3.73503 -1.31573 0
M  V30 4888 H 474.612 2.47926 -3.88419 0
M  V30 4889 H 472.927 2.3721 -3.42228 0
M  V30 4890 H 475.524 4.872 -2.20318 0
M  V30 4891 H 475.867 4.1087 -0.670196 0
M  V30 4892 H 476.4 3.32812 -2.17902 0
M  V30 4893 H 473.139 4.17303 -5.05508 0
M  V30 4894 H 472.659 4.87574 -3.49331 0
M  V30 4895 H 474.338 5.03215 -4.06674 0
M  V30 4896 N 474.47 1.03057 1.19235 0
M  V30 4897 C 475.716 0.729098 1.89241 0
M  V30 4898 C 476.049 -0.740573 1.79525 0
M  V30 4899 O 475.324 -1.53946 1.18874 0
M  V30 4900 C 475.607 1.18304 3.40112 0
M  V30 4901 C 475.46 2.71406 3.5869 0
M  V30 4902 C 476.779 0.765161 4.33397 0
M  V30 4903 H 473.898 0.266338 0.687192 0
M  V30 4904 H 476.54 1.28079 1.40341 0
M  V30 4905 H 474.69 0.713672 3.81889 0
M  V30 4906 H 476.362 3.26303 3.26074 0
M  V30 4907 H 474.605 3.11717 3.01687 0
M  V30 4908 H 475.276 2.98225 4.64506 0
M  V30 4909 H 477.752 1.16889 3.99345 0
M  V30 4910 H 476.628 1.11065 5.37546 0
M  V30 4911 H 476.889 -0.332372 4.40849 0
M  V30 4912 N 475.948 -1.35272 0.808662 0
M  V30 4913 C 476.896 -2.31663 0.208606 0
M  V30 4914 C 477.89 -1.56731 -0.642778 0
M  V30 4915 O 479.096 -1.71843 -0.53571 0
M  V30 4916 H 475.471 -0.750421 0.0486993 0
M  V30 4917 H 477.442 -2.79814 1.03666 0
M  V30 4918 C 476.191 -3.42008 -0.626573 0
M  V30 4919 H 475.514 -3.99795 0.0192103 0
M  V30 4920 H 476.954 -4.11727 -1.01278 0
M  V30 4921 C 475.413 -2.85226 -1.79298 0
M  V30 4922 O 475.943 -2.78945 -2.89055 0
M  V30 4923 N 474.149 -2.42245 -1.60516 0
M  V30 4924 H 473.696 -2.47554 -0.712375 0
M  V30 4925 H 473.654 -2.04603 -2.38715 0
M  V30 4926 N 477.426 -0.562348 -1.47226 0
M  V30 4927 C 478.651 -0.0432632 -2.07355 0
M  V30 4928 C 479.076 1.24332 -1.41149 0
M  V30 4929 O 478.434 1.74603 -0.488226 0
M  V30 4930 C 478.482 0.130288 -3.60365 0
M  V30 4931 O 477.586 1.19166 -3.94808 0
M  V30 4932 H 476.927 -0.0536334 -0.66183 0
M  V30 4933 H 479.457 -0.779495 -1.89169 0
M  V30 4934 H 479.467 0.342881 -4.06557 0
M  V30 4935 H 478.142 -0.809389 -4.07948 0
M  V30 4936 H 476.719 0.959153 -3.60354 0
M  V30 4937 N 478.904 1.54736 -0.299062 0
M  V30 4938 C 480.132 2.04512 0.313447 0
M  V30 4939 C 480.547 1.17643 1.47667 0
M  V30 4940 O 479.904 0.20164 1.81383 0
M  V30 4941 C 479.955 3.53171 0.771542 0
M  V30 4942 O 479.676 4.36736 -0.345379 0
M  V30 4943 C 481.177 4.18936 1.4494 0
M  V30 4944 H 478.397 0.667507 0.0683784 0
M  V30 4945 H 480.941 1.99752 -0.438129 0
M  V30 4946 H 479.096 3.58298 1.47314 0
M  V30 4947 H 479.51 5.24499 0.0109219 0
M  V30 4948 H 480.984 5.24482 1.72111 0
M  V30 4949 H 481.461 3.68554 2.38883 0
M  V30 4950 H 482.067 4.17879 0.791028 0
M  V30 4951 N 480.382 0.0267497 1.57577 0
M  V30 4952 C 481.345 -0.940916 2.08996 0
M  V30 4953 C 482.345 -1.25561 1.00455 0
M  V30 4954 O 483.535 -1.19634 1.26623 0
M  V30 4955 C 480.667 -2.25814 2.55384 0
M  V30 4956 H 481.86 -0.495628 2.95776 0
M  V30 4957 H 479.413 -0.221241 1.54726 0
M  V30 4958 H 480.148 -2.74976 1.71926 0
M  V30 4959 H 479.933 -2.04285 3.34679 0
M  V30 4960 H 481.423 -2.95178 2.95398 0
M  V30 4961 N 481.861 -1.55662 -0.24637 0
M  V30 4962 C 483.277 -1.48098 -0.594907 0
M  V30 4963 C 483.477 -0.717044 -1.8831 0
M  V30 4964 O 482.533 -0.246618 -2.51293 0
M  V30 4965 C 483.846 -2.92507 -0.697146 0
M  V30 4966 C 485.394 -3.02881 -0.789436 0
M  V30 4967 C 485.869 -4.48598 -0.923232 0
M  V30 4968 N 487.36 -4.52538 -0.988088 0
M  V30 4969 C 488.095 -5.62536 -1.11089 0
M  V30 4970 N 487.591 -6.82342 -1.19919 0
M  V30 4971 N 489.384 -5.50334 -1.14408 0
M  V30 4972 H 481.535 -2.0377 0.599278 0
M  V30 4973 H 483.798 -0.925145 0.20691 0
M  V30 4974 H 483.504 -3.51242 0.179396 0
M  V30 4975 H 483.378 -3.43024 -1.5689 0
M  V30 4976 H 485.765 -2.44226 -1.65643 0
M  V30 4977 H 485.846 -2.55574 0.107482 0
M  V30 4978 H 485.49 -5.07864 -0.0607927 0
M  V30 4979 H 485.42 -4.93587 -1.8352 0
M  V30 4980 H 487.911 -3.66248 -0.931167 0
M  V30 4981 H 488.224 -7.61924 -1.29197 0
M  V30 4982 H 486.569 -6.85102 -1.16876 0
M  V30 4983 H 489.76 -4.5567 -1.07158 0
M  V30 4984 H 489.933 -6.36096 -1.23634 0
M  V30 4985 N 483.339 0.512053 -1.4905 0
M  V30 4986 C 484.567 1.29116 -1.61669 0
M  V30 4987 C 484.982 1.86655 -0.283787 0
M  V30 4988 O 484.339 1.67293 0.729331 0
M  V30 4989 C 484.39 2.4293 -2.67707 0
M  V30 4990 O 484.111 1.87758 -3.95826 0
M  V30 4991 C 485.612 3.34476 -2.90931 0
M  V30 4992 H 482.832 0.392009 -0.544583 0
M  V30 4993 H 485.376 0.615881 -1.95006 0
M  V30 4994 H 483.531 3.06308 -2.37179 0
M  V30 4995 H 483.945 2.62393 -4.54148 0
M  V30 4996 H 485.419 4.10642 -3.68886 0
M  V30 4997 H 485.896 3.90801 -2.00427 0
M  V30 4998 H 486.502 2.76874 -3.22832 0
M  V30 4999 N 484.817 1.37938 0.762283 0
M  V30 5000 C 486.064 1.33668 1.52115 0
M  V30 5001 C 486.392 -0.0759538 1.94352 0
M  V30 5002 O 485.647 -1.05121 1.6507 0
M  V30 5003 C 485.946 2.23042 2.79261 0
M  V30 5004 C 485.612 3.71159 2.56031 0
M  V30 5005 C 484.274 4.11523 2.49404 0
M  V30 5006 C 486.626 4.64955 2.35513 0
M  V30 5007 C 483.954 5.43784 2.20263 0
M  V30 5008 C 486.306 5.97464 2.07894 0
M  V30 5009 C 484.97 6.36922 1.99718 0
M  V30 5010 H 484.24 0.489127 0.556629 0
M  V30 5011 H 486.887 1.70224 0.877262 0
M  V30 5012 H 485.192 1.79512 3.48256 0
M  V30 5013 H 486.889 2.17047 3.37182 0
M  V30 5014 H 483.479 3.39153 2.62056 0
M  V30 5015 H 487.663 4.34623 2.39617 0
M  V30 5016 H 482.919 5.73307 2.12435 0
M  V30 5017 H 487.093 6.6969 1.91019 0
M  V30 5018 H 484.72 7.39331 1.76902 0
M  V30 5019 N 486.295 -0.989507 1.22664 0
M  V30 5020 C 487.243 -2.10148 0.997035 0
M  V30 5021 C 488.237 -1.6929 -0.0609783 0
M  V30 5022 O 489.443 -1.79766 0.0917523 0
M  V30 5023 H 485.818 -0.687256 0.305259 0
M  V30 5024 H 487.789 -2.26685 1.94053 0
M  V30 5025 C 486.538 -3.4257 0.595085 0
M  V30 5026 H 485.861 -3.74453 1.40089 0
M  V30 5027 H 487.301 -4.21344 0.473869 0
M  V30 5028 C 485.76 -3.29638 -0.695725 0
M  V30 5029 O 486.29 -3.61709 -1.74727 0
M  V30 5030 N 484.496 -2.82814 -0.668173 0
M  V30 5031 H 484.043 -2.56914 0.18787 0
M  V30 5032 H 484.001 -2.74544 -1.5321 0
M  V30 5033 N 487.773 -1.03688 -1.18687 0
M  V30 5034 C 489.189 -0.755413 -1.4059 0
M  V30 5035 C 489.389 0.656659 -1.905 0
M  V30 5036 O 488.445 1.42144 -2.08689 0
M  V30 5037 C 489.758 -1.7983 -2.41001 0
M  V30 5038 C 491.306 -1.81877 -2.54735 0
M  V30 5039 C 491.781 -2.85148 -3.58406 0
M  V30 5040 N 493.272 -2.84015 -3.6591 0
M  V30 5041 C 494.007 -3.60573 -4.45841 0
M  V30 5042 N 493.503 -4.46871 -5.29413 0
M  V30 5043 N 495.296 -3.49079 -4.40568 0
M  V30 5044 H 487.447 -1.94818 -0.846148 0
M  V30 5045 H 489.71 -0.842727 -0.434184 0
M  V30 5046 H 489.416 -2.81097 -2.1137 0
M  V30 5047 H 489.29 -1.62727 -3.40294 0
M  V30 5048 H 491.677 -0.812836 -2.83685 0
M  V30 5049 H 491.758 -2.03057 -1.55568 0
M  V30 5050 H 491.402 -3.85918 -3.30197 0
M  V30 5051 H 491.332 -2.61224 -4.57241 0
M  V30 5052 H 493.823 -2.21431 -3.0623 0
M  V30 5053 H 494.136 -5.02007 -5.87545 0
M  V30 5054 H 492.481 -4.5094 -5.28846 0
M  V30 5055 H 495.672 -2.81066 -3.74325 0
M  V30 5056 H 495.845 -4.08994 -5.02621 0
M  V30 5057 N 489.251 1.34841 -0.815825 0
M  V30 5058 C 490.198 2.29644 -0.230664 0
M  V30 5059 C 491.168 1.53253 0.640533 0
M  V30 5060 O 492.353 1.81653 0.583672 0
M  V30 5061 C 489.493 3.39715 0.607275 0
M  V30 5062 C 488.606 4.31056 -0.28538 0
M  V30 5063 C 487.741 5.28225 0.561446 0
M  V30 5064 C 486.78 6.11204 -0.331035 0
M  V30 5065 N 485.917 7.00483 0.476302 0
M  V30 5066 H 490.757 2.79095 -1.0445 0
M  V30 5067 H 488.294 1.37351 -0.526595 0
M  V30 5068 H 490.252 4.02208 1.10835 0
M  V30 5069 H 488.882 2.91517 1.38629 0
M  V30 5070 H 487.934 3.69487 -0.904621 0
M  V30 5071 H 489.246 4.89239 -0.97193 0
M  V30 5072 H 488.4 5.96135 1.12728 0
M  V30 5073 H 487.139 4.70562 1.28153 0
M  V30 5074 H 486.144 5.42232 -0.909069 0
M  V30 5075 H 487.369 6.70947 -1.04912 0
M  V30 5076 H 485.315 6.45296 1.18019 0
M  V30 5077 H 485.232 7.55847 -0.152008 0
M  V30 5078 H 486.5 7.7273 1.02512 0
M  V30 5079 N 490.729 0.570148 1.46925 0
M  V30 5080 C 491.954 0.0542592 2.07329 0
M  V30 5081 C 492.379 -1.23582 1.41806 0
M  V30 5082 O 491.737 -1.74341 0.497479 0
M  V30 5083 C 491.785 -0.111175 3.60429 0
M  V30 5084 O 490.889 -1.17071 3.95434 0
M  V30 5085 H 490.23 0.0571425 0.661537 0
M  V30 5086 H 492.76 0.789516 1.88753 0
M  V30 5087 H 492.77 -0.321315 4.06733 0
M  V30 5088 H 491.445 0.831012 4.07513 0
M  V30 5089 H 490.022 -0.940029 3.60857 0
M  V30 5090 N 492.207 -1.54576 0.307264 0
M  V30 5091 C 493.455 -1.99867 -0.299574 0
M  V30 5092 C 493.776 -1.19714 -1.53927 0
M  V30 5093 O 493.046 -0.29472 -1.9367 0
M  V30 5094 H 491.626 -0.738299 -0.113683 0
M  V30 5095 H 494.288 -1.9032 0.420042 0
M  V30 5096 H 493.384 -3.06901 -0.567283 0
M  V30 5097 N 493.685 -0.035106 -1.57561 0
M  V30 5098 C 494.931 0.64318 -1.92331 0
M  V30 5099 C 495.264 1.71434 -0.912368 0
M  V30 5100 O 494.539 1.94395 0.0640303 0
M  V30 5101 C 494.822 1.25411 -3.37556 0
M  V30 5102 C 494.675 0.192109 -4.4939 0
M  V30 5103 C 495.994 2.17041 -3.82859 0
M  V30 5104 H 493.113 0.232341 -0.699419 0
M  V30 5105 H 495.755 -0.0935889 -1.89769 0
M  V30 5106 H 493.905 1.88205 -3.39869 0
M  V30 5107 H 495.577 -0.438849 -4.59208 0
M  V30 5108 H 493.82 -0.481725 -4.31117 0
M  V30 5109 H 494.491 0.659292 -5.48049 0
M  V30 5110 H 496.967 1.64228 -3.8232 0
M  V30 5111 H 495.843 2.56738 -4.85157 0
M  V30 5112 H 496.104 3.06401 -3.18702 0
M  V30 5113 N 495.163 1.55791 0.238111 0
M  V30 5114 C 496.388 1.8244 0.986432 0
M  V30 5115 C 496.813 0.613314 1.7782 0
M  V30 5116 O 496.171 -0.437767 1.75935 0
M  V30 5117 C 496.219 3.06917 1.893 0
M  V30 5118 O 495.323 2.84449 2.98601 0
M  V30 5119 H 494.664 0.601975 0.280218 0
M  V30 5120 H 497.194 2.02987 0.256437 0
M  V30 5121 H 497.204 3.36583 2.30598 0
M  V30 5122 H 495.879 3.947 1.31091 0
M  V30 5123 H 494.456 2.65972 2.61368 0
M  V30 5124 N 496.642 -0.504142 1.49319 0
M  V30 5125 C 498.058 -0.835039 1.36012 0
M  V30 5126 C 498.258 -1.97674 0.390808 0
M  V30 5127 O 497.314 -2.51867 -0.178655 0
M  V30 5128 C 498.627 -1.17821 2.76656 0
M  V30 5129 C 500.175 -1.2866 2.85334 0
M  V30 5130 C 500.65 -1.66307 4.26739 0
M  V30 5131 N 502.141 -1.73362 4.29534 0
M  V30 5132 C 502.876 -2.0393 5.35911 0
M  V30 5133 N 502.372 -2.32744 6.52535 0
M  V30 5134 N 504.165 -2.05155 5.23324 0
M  V30 5135 H 496.316 0.248764 2.10938 0
M  V30 5136 H 498.579 0.0486962 0.946748 0
M  V30 5137 H 498.285 -0.412682 3.4927 0
M  V30 5138 H 498.159 -2.12239 3.11825 0
M  V30 5139 H 500.546 -2.04285 2.1296 0
M  V30 5140 H 500.627 -0.323004 2.53752 0
M  V30 5141 H 500.271 -0.91234 4.99639 0
M  V30 5142 H 500.201 -2.63761 4.55782 0
M  V30 5143 H 502.692 -1.53268 3.45424 0
M  V30 5144 H 503.005 -2.55248 7.2943 0
M  V30 5145 H 501.35 -2.30207 6.55767 0
M  V30 5146 H 504.541 -1.82119 4.3122 0
M  V30 5147 H 504.714 -2.28644 6.06322 0
M  V30 5148 N 498.12 -1.38341 -0.754957 0
M  V30 5149 C 499.083 -1.35262 -1.85032 0
M  V30 5150 C 500.083 -0.253393 -1.58791 0
M  V30 5151 O 501.273 -0.510205 -1.66561 0
M  V30 5152 C 498.405 -1.10544 -3.22479 0
M  V30 5153 H 499.598 -2.32712 -1.8917 0
M  V30 5154 H 497.151 -1.23614 -0.956515 0
M  V30 5155 H 497.886 -0.136952 -3.24011 0
M  V30 5156 H 497.671 -1.90127 -3.4292 0
M  V30 5157 H 499.161 -1.11082 -4.02555 0
M  V30 5158 N 499.598 0.982988 -1.23187 0
M  V30 5159 C 500.847 1.71817 -1.05649 0
M  V30 5160 C 501.16 1.91315 0.407176 0
M  V30 5161 O 502.366 2.62256 0.702436 0
M  V30 5162 C 500.822 3.09188 -1.84203 0
M  V30 5163 C 500.43 2.97586 -3.34882 0
M  V30 5164 C 502.174 3.86684 -1.75146 0
M  V30 5165 C 500.081 4.30173 -4.05839 0
M  V30 5166 H 499.011 0.644258 -0.391724 0
M  V30 5167 H 501.662 1.09659 -1.4713 0
M  V30 5168 H 500.044 3.72087 -1.35527 0
M  V30 5169 H 501.218 2.43793 -3.91026 0
M  V30 5170 H 499.533 2.33567 -3.44725 0
M  V30 5171 H 502.13 4.84836 -2.25473 0
M  V30 5172 H 502.473 4.10136 -0.713737 0
M  V30 5173 H 503.006 3.30482 -2.21419 0
M  V30 5174 H 499.745 4.11918 -5.09906 0
M  V30 5175 H 499.265 4.83841 -3.54482 0
M  V30 5176 H 500.944 4.98873 -4.11989 0
M  V30 5177 N 501.076 1.04316 1.18135 0
M  V30 5178 C 502.006 0.657299 2.24058 0
M  V30 5179 C 502.987 -0.340678 1.66654 0
M  V30 5180 O 504.172 -0.220223 1.92947 0
M  V30 5181 C 501.302 0.0220715 3.47293 0
M  V30 5182 C 500.256 0.943857 4.17463 0
M  V30 5183 C 499.582 0.172973 5.3442 0
M  V30 5184 C 500.882 2.26409 4.70677 0
M  V30 5185 H 502.576 1.5428 2.56589 0
M  V30 5186 H 500.122 0.743263 1.23335 0
M  V30 5187 H 502.075 -0.259607 4.206 0
M  V30 5188 H 500.799 -0.898323 3.14003 0
M  V30 5189 H 499.458 1.20996 3.46057 0
M  V30 5190 H 499.106 -0.749907 4.97379 0
M  V30 5191 H 498.806 0.787098 5.82304 0
M  V30 5192 H 500.33 -0.101628 6.10515 0
M  V30 5193 H 501.744 2.04294 5.35665 0
M  V30 5194 H 500.141 2.8314 5.29105 0
M  V30 5195 H 501.211 2.90883 3.87962 0
M  V30 5196 N 502.554 -1.34406 0.822964 0
M  V30 5197 C 503.464 -2.33298 0.246838 0
M  V30 5198 C 504.48 -1.62625 -0.618797 0
M  V30 5199 O 505.656 -1.94391 -0.526685 0
M  V30 5200 C 502.721 -3.41785 -0.581731 0
M  V30 5201 C 501.782 -4.28206 0.306309 0
M  V30 5202 C 501.015 -5.31512 -0.48281 0
M  V30 5203 O 501.238 -5.43973 -1.71607 0
M  V30 5204 O 500.172 -6.01749 0.134884 0
M  V30 5205 H 503.998 -2.84401 1.06534 0
M  V30 5206 H 501.583 -1.37466 0.585108 0
M  V30 5207 H 503.465 -4.08028 -1.05313 0
M  V30 5208 H 502.14 -2.92925 -1.37756 0
M  V30 5209 H 501.047 -3.64885 0.825199 0
M  V30 5210 H 502.38 -4.80507 1.06649 0
M  V30 5211 N 504.032 -0.577932 -1.46621 0
M  V30 5212 C 505.28 -0.061566 -2.02006 0
M  V30 5213 C 505.601 1.30117 -1.4524 0
M  V30 5214 O 504.871 1.85313 -0.63529 0
M  V30 5215 H 503.451 -0.0197692 -0.746738 0
M  V30 5216 H 506.113 -0.752631 -1.79782 0
M  V30 5217 H 505.209 0.0110238 -3.12098 0
M  V30 5218 N 505.51 1.54411 -0.315457 0
M  V30 5219 C 506.473 2.22713 0.54142 0
M  V30 5220 C 507.473 1.2179 1.04995 0
M  V30 5221 O 508.663 1.46426 0.943667 0
M  V30 5222 C 505.795 2.92485 1.75116 0
M  V30 5223 H 506.988 2.99849 -0.0555508 0
M  V30 5224 H 504.541 1.56159 -0.0664453 0
M  V30 5225 H 505.276 2.19466 2.38758 0
M  V30 5226 H 505.061 3.66483 1.39401 0
M  V30 5227 H 506.551 3.44548 2.35959 0
M  V30 5228 N 506.988 0.0434614 1.5754 0
M  V30 5229 C 508.236 -0.630786 1.92004 0
M  V30 5230 C 508.557 -1.71836 0.921807 0
M  V30 5231 O 507.827 -1.9587 -0.034522 0
M  V30 5232 H 506.407 -0.235988 0.708745 0
M  V30 5233 H 509.069 0.0946462 1.9467 0
M  V30 5234 H 508.165 -1.07434 2.93026 0
M  V30 5235 N 508.466 -1.55915 -0.229846 0
M  V30 5236 C 509.398 -1.88209 -1.30805 0
M  V30 5237 C 510.411 -0.769672 -1.43457 0
M  V30 5238 O 511.6 -1.04792 -1.44502 0
M  V30 5239 C 508.7 -2.06829 -2.68468 0
M  V30 5240 C 507.873 -3.37798 -2.77869 0
M  V30 5241 C 506.932 -3.45952 -3.96489 0
M  V30 5242 O 505.958 -4.19043 -3.85216 0
M  V30 5243 N 507.16 -2.76488 -5.10426 0
M  V30 5244 H 509.925 -2.81286 -1.03431 0
M  V30 5245 H 507.486 -1.5636 -0.41991 0
M  V30 5246 H 509.478 -2.09608 -3.46189 0
M  V30 5247 H 508.048 -1.20416 -2.88477 0
M  V30 5248 H 507.268 -3.4719 -1.86689 0
M  V30 5249 H 508.556 -4.24091 -2.81113 0
M  V30 5250 H 507.954 -2.16868 -5.2248 0
M  V30 5251 H 506.511 -2.84938 -5.8622 0
M  V30 5252 N 509.944 0.496216 -1.49584 0
M  V30 5253 C 510.907 1.57952 -1.66084 0
M  V30 5254 C 511.907 1.51729 -0.53244 0
M  V30 5255 O 513.097 1.54796 -0.79899 0
M  V30 5256 C 510.229 2.97604 -1.66268 0
M  V30 5257 H 511.422 1.44649 -2.6271 0
M  V30 5258 H 508.975 0.7208 -1.38687 0
M  V30 5259 H 509.71 3.16378 -0.712432 0
M  V30 5260 H 509.495 3.03528 -2.4822 0
M  V30 5261 H 510.985 3.76301 -1.81073 0
M  V30 5262 N 511.423 1.38739 0.74761 0
M  V30 5263 C 512.669 1.35475 1.50912 0
M  V30 5264 C 513.002 -0.0533093 1.94127 0
M  V30 5265 O 512.277 -1.01572 1.65871 0
M  V30 5266 C 512.56 2.31582 2.75757 0
M  V30 5267 C 512.413 3.81274 2.38642 0
M  V30 5268 C 513.732 2.25722 3.77806 0
M  V30 5269 H 510.851 0.493427 0.547447 0
M  V30 5270 H 513.493 1.69634 0.855823 0
M  V30 5271 H 511.643 2.02582 3.31501 0
M  V30 5272 H 513.315 4.20972 1.88626 0
M  V30 5273 H 511.558 3.98664 1.71025 0
M  V30 5274 H 512.229 4.4399 3.27989 0
M  V30 5275 H 514.705 2.51336 3.31616 0
M  V30 5276 H 513.581 2.95069 4.62845 0
M  V30 5277 H 513.842 1.25803 4.23823 0
M  V30 5278 N 512.901 -0.976442 1.23707 0
M  V30 5279 C 513.811 -2.10359 1.03856 0
M  V30 5280 C 514.827 -1.73991 -0.0180919 0
M  V30 5281 O 516.003 -2.0061 0.178211 0
M  V30 5282 C 513.068 -3.40809 0.636387 0
M  V30 5283 C 512.129 -3.91179 1.76854 0
M  V30 5284 C 511.362 -5.15404 1.38546 0
M  V30 5285 O 511.585 -5.69754 0.27142 0
M  V30 5286 O 510.519 -5.5994 2.20797 0
M  V30 5287 H 514.345 -2.29997 1.98331 0
M  V30 5288 H 511.93 -1.08742 1.02448 0
M  V30 5289 H 513.812 -4.19269 0.423223 0
M  V30 5290 H 512.487 -3.22493 -0.279322 0
M  V30 5291 H 511.394 -3.13819 2.03638 0
M  V30 5292 H 512.727 -4.13958 2.6627 0
M  V30 5293 N 514.379 -1.04941 -1.1758 0
M  V30 5294 C 515.604 -0.778253 -1.92245 0
M  V30 5295 C 516.029 0.659707 -1.76152 0
M  V30 5296 O 515.387 1.45803 -1.07755 0
M  V30 5297 C 515.435 -1.16051 -3.41416 0
M  V30 5298 O 514.539 -0.291153 -4.11371 0
M  V30 5299 H 513.88 -0.285619 -0.599431 0
M  V30 5300 H 516.41 -1.40159 -1.49052 0
M  V30 5301 H 516.42 -1.12619 -3.92149 0
M  V30 5302 H 515.095 -2.208 -3.52449 0
M  V30 5303 H 513.672 -0.385851 -3.70898 0
M  V30 5304 N 515.857 1.33968 -0.830081 0
M  V30 5305 C 516.767 2.33164 -0.259207 0
M  V30 5306 C 517.783 1.62951 0.610164 0
M  V30 5307 O 518.959 1.94668 0.516369 0
M  V30 5308 C 516.024 3.42088 0.563598 0
M  V30 5309 C 515.085 4.28037 -0.329014 0
M  V30 5310 C 514.318 5.3176 0.454616 0
M  V30 5311 O 514.541 5.44876 1.6872 0
M  V30 5312 O 513.475 6.01669 -0.166794 0
M  V30 5313 H 517.301 2.83832 -1.08041 0
M  V30 5314 H 514.886 1.37154 -0.59239 0
M  V30 5315 H 516.768 4.08581 1.03147 0
M  V30 5316 H 515.443 2.93651 1.36201 0
M  V30 5317 H 514.35 3.64443 -0.844538 0
M  V30 5318 H 515.683 4.79934 -1.09196 0
M  V30 5319 N 517.335 0.585699 1.46312 0
M  V30 5320 C 518.575 0.0751432 2.04262 0
M  V30 5321 C 518.939 -1.26201 1.44697 0
M  V30 5322 O 520.14 -1.86198 1.93865 0
M  V30 5323 C 518.411 0.013478 3.57397 0
M  V30 5324 S 519.97 -0.439068 4.36598 0
M  V30 5325 H 516.788 0.0389228 0.709934 0
M  V30 5326 H 519.39 0.778871 1.79315 0
M  V30 5327 H 518.094 0.990558 3.98266 0
M  V30 5328 H 517.625 -0.712927 3.86886 0
M  V30 5329 H 519.64 -1.6932 4.66417 0
M  V30 5330 N 518.813 -1.54241 0.323641 0
M  V30 5331 C 519.776 -2.22997 -0.529602 0
M  V30 5332 C 520.776 -1.22345 -1.04347 0
M  V30 5333 O 521.966 -1.46924 -0.935889 0
M  V30 5334 C 519.098 -2.93409 -1.73562 0
M  V30 5335 H 520.291 -2.99815 0.0714518 0
M  V30 5336 H 517.844 -1.56121 0.0747258 0
M  V30 5337 H 518.579 -2.20729 -2.37591 0
M  V30 5338 H 518.364 -3.67217 -1.37456 0
M  V30 5339 H 519.854 -3.45794 -2.34128 0
M  V30 5340 N 520.291 -0.0518155 -1.57515 0
M  V30 5341 C 521.537 0.622745 -1.93002 0
M  V30 5342 C 521.87 1.70456 -0.930499 0
M  V30 5343 O 521.145 1.94452 0.0434086 0
M  V30 5344 C 521.428 1.21824 -3.38867 0
M  V30 5345 C 521.281 0.144434 -4.49568 0
M  V30 5346 C 522.6 2.12968 -3.8514 0
M  V30 5347 H 519.719 0.22491 -0.701844 0
M  V30 5348 H 522.361 -0.113711 -1.89659 0
M  V30 5349 H 520.511 1.8459 -3.41846 0
M  V30 5350 H 522.183 -0.48753 -4.58717 0
M  V30 5351 H 520.426 -0.527424 -4.30582 0
M  V30 5352 H 521.097 0.601127 -5.48717 0
M  V30 5353 H 523.573 1.60163 -3.8404 0
M  V30 5354 H 522.449 2.51578 -4.87852 0
M  V30 5355 H 522.71 3.03004 -3.21934 0
M  V30 5356 N 521.769 1.56035 0.221574 0
M  V30 5357 C 522.699 1.95434 1.2778 0
M  V30 5358 C 523.68 0.822564 1.48889 0
M  V30 5359 O 524.865 1.08486 1.61072 0
M  V30 5360 C 521.995 2.27102 2.62759 0
M  V30 5361 C 520.949 3.4277 2.56306 0
M  V30 5362 C 520.275 3.60043 3.95314 0
M  V30 5363 C 521.575 4.77742 2.11093 0
M  V30 5364 H 523.269 2.83912 0.950504 0
M  V30 5365 H 520.815 1.36596 0.455791 0
M  V30 5366 H 522.768 2.53256 3.36807 0
M  V30 5367 H 521.492 1.35478 2.97176 0
M  V30 5368 H 520.151 3.16664 1.84715 0
M  V30 5369 H 519.799 2.65794 4.27039 0
M  V30 5370 H 519.499 4.37841 3.91879 0
M  V30 5371 H 521.023 3.88545 4.71025 0
M  V30 5372 H 522.437 5.03102 2.74885 0
M  V30 5373 H 520.834 5.58823 2.18716 0
M  V30 5374 H 521.904 4.731 1.06321 0
M  V30 5375 N 523.247 -0.488276 1.49845 0
M  V30 5376 C 524.21 -1.57069 1.66919 0
M  V30 5377 C 525.21 -1.51445 0.540479 0
M  V30 5378 O 526.4 -1.5437 0.807188 0
M  V30 5379 C 523.532 -2.96718 1.67844 0
M  V30 5380 H 524.725 -1.43254 2.63474 0
M  V30 5381 H 522.278 -0.713435 1.39068 0
M  V30 5382 H 523.013 -3.15996 0.7292 0
M  V30 5383 H 522.798 -3.02208 2.49826 0
M  V30 5384 H 524.288 -3.75335 1.83066 0
M  V30 5385 N 524.725 -1.39134 -0.740242 0
M  V30 5386 C 525.688 -1.37217 -1.83587 0
M  V30 5387 C 526.688 -0.270221 -1.58513 0
M  V30 5388 O 527.878 -0.527843 -1.6601 0
M  V30 5389 C 525.01 -1.13959 -3.21288 0
M  V30 5390 H 526.203 -2.34705 -1.86691 0
M  V30 5391 H 523.756 -1.24622 -0.94335 0
M  V30 5392 H 524.491 -0.17131 -3.23847 0
M  V30 5393 H 524.276 -1.93754 -3.40884 0
M  V30 5394 H 525.766 -1.15346 -4.01354 0
M  V30 5395 N 526.204 0.969867 -1.24223 0
M  V30 5396 C 527.136 2.0669 -0.99055 0
M  V30 5397 C 528.149 1.62753 0.0392222 0
M  V30 5398 O 529.338 1.77403 -0.197561 0
M  V30 5399 C 526.438 3.35589 -0.472594 0
M  V30 5400 C 525.611 4.08444 -1.56499 0
M  V30 5401 C 524.67 5.15616 -1.05007 0
M  V30 5402 O 523.696 5.41911 -1.7413 0
M  V30 5403 N 524.898 5.80383 0.116641 0
M  V30 5404 H 527.663 2.28855 -1.93508 0
M  V30 5405 H 525.224 1.13733 -1.15223 0
M  V30 5406 H 527.216 4.04542 -0.112919 0
M  V30 5407 H 525.786 3.10311 0.377617 0
M  V30 5408 H 525.006 3.33798 -2.09696 0
M  V30 5409 H 526.294 4.53882 -2.29932 0
M  V30 5410 H 525.692 5.6142 0.694589 0
M  V30 5411 H 524.249 6.50462 0.417483 0
M  V30 5412 N 527.682 1.05563 1.17022 0
M  V30 5413 C 529.093 0.793475 1.69 0
M  V30 5414 C 529.444 -0.683882 1.83895 0
M  V30 5415 O 528.569 -1.53116 1.5292 0
M  V30 5416 C 529.164 1.43376 3.06967 0
M  V30 5417 C 527.723 1.21956 3.56095 0
M  V30 5418 C 526.87 1.51494 2.3226 0
M  V30 5419 H 529.821 1.22008 1.01487 0
M  V30 5420 H 529.842 0.845068 3.70997 0
M  V30 5421 H 529.354 2.50899 2.96093 0
M  V30 5422 H 527.455 0.163749 3.7224 0
M  V30 5423 H 527.568 1.92713 4.38633 0
M  V30 5424 H 525.932 0.935175 2.3691 0
M  V30 5425 H 526.715 2.60159 2.23992 0
M  V30 5426 N 529.16 -1.33526 0.837174 0
M  V30 5427 C 530.11 -2.2672 0.241269 0
M  V30 5428 C 531.094 -1.49183 -0.602756 0
M  V30 5429 O 532.286 -1.71052 -0.455002 0
M  V30 5430 C 529.415 -3.38294 -0.584125 0
M  V30 5431 C 528.501 -4.23231 0.271315 0
M  V30 5432 N 528.892 -4.87473 1.34922 0
M  V30 5433 C 527.19 -4.45962 0.0580589 0
M  V30 5434 C 527.891 -5.50685 1.87405 0
M  V30 5435 N 526.867 -5.30732 1.17578 0
M  V30 5436 H 530.669 -2.73903 1.06558 0
M  V30 5437 H 528.183 -1.47411 0.68145 0
M  V30 5438 H 530.18 -4.04044 -1.02731 0
M  V30 5439 H 528.84 -2.9266 -1.40643 0
M  V30 5440 H 529.851 -4.88077 1.7321 0
M  V30 5441 H 526.528 -4.11052 -0.730938 0
M  V30 5442 H 527.918 -6.11845 2.77661 0
M  V30 5443 N 530.638 -0.59345 -1.46 0
M  V30 5444 C 532.054 -0.255965 -1.57534 0
M  V30 5445 C 532.254 1.24167 -1.58697 0
M  V30 5446 O 531.31 2.02398 -1.50968 0
M  V30 5447 C 532.623 -0.91466 -2.86451 0
M  V30 5448 C 534.171 -0.889253 -3.00102 0
M  V30 5449 C 534.646 -1.52769 -4.3177 0
M  V30 5450 N 536.137 -1.49253 -4.38495 0
M  V30 5451 C 536.872 -1.9558 -5.39014 0
M  V30 5452 N 536.368 -2.49929 -6.46148 0
M  V30 5453 N 538.161 -1.86432 -5.30282 0
M  V30 5454 H 530.312 -1.56604 -1.43489 0
M  V30 5455 H 532.575 -0.655207 -0.685133 0
M  V30 5456 H 532.281 -1.96861 -2.91442 0
M  V30 5457 H 532.155 -0.429356 -3.74748 0
M  V30 5458 H 534.542 0.156111 -2.94687 0
M  V30 5459 H 534.623 -1.41268 -2.13253 0
M  V30 5460 H 534.267 -2.57231 -4.37944 0
M  V30 5461 H 534.197 -0.979398 -5.17412 0
M  V30 5462 H 536.688 -1.09536 -3.61677 0
M  V30 5463 H 537.001 -2.83109 -7.19075 0
M  V30 5464 H 535.346 -2.53961 -6.46938 0
M  V30 5465 H 538.537 -1.43722 -4.4549 0
M  V30 5466 H 538.71 -2.22852 -6.08474 0
M  V30 5467 N 532.116 1.54067 -0.331816 0
M  V30 5468 C 533.393 1.92915 0.322955 0
M  V30 5469 C 533.773 1.26225 1.69205 0
M  V30 5470 O 533.121 0.408919 2.24811 0
M  V30 5471 C 533.331 3.46619 0.406946 0
M  V30 5472 C 534.679 4.19386 0.663339 0
M  V30 5473 O 535.703 3.5282 0.489536 0
M  V30 5474 O 534.562 5.37288 0.999193 0
M  V30 5475 H 531.656 0.805808 0.186016 0
M  V30 5476 H 534.202 1.65342 -0.382135 0
M  V30 5477 H 532.974 3.87354 -0.554287 0
M  V30 5478 H 532.597 3.80324 1.15929 0
M  V30 5479 N 533.594 0.0601682 1.57485 0
M  V30 5480 C 534.841 -0.611594 1.93043 0
M  V30 5481 C 535.169 -1.70317 0.939274 0
M  V30 5482 O 534.424 -1.95644 -0.046996 0
M  V30 5483 C 534.723 -1.23831 3.35262 0
M  V30 5484 C 534.389 -0.274037 4.50066 0
M  V30 5485 C 533.051 -0.00872394 4.81199 0
M  V30 5486 C 535.403 0.386308 5.19766 0
M  V30 5487 C 532.731 0.924218 5.79375 0
M  V30 5488 C 535.083 1.3075 6.1894 0
M  V30 5489 C 533.747 1.58139 6.48497 0
M  V30 5490 H 533.017 -0.223798 0.706396 0
M  V30 5491 H 535.664 0.128566 1.91068 0
M  V30 5492 H 533.969 -2.05394 3.33647 0
M  V30 5493 H 535.666 -1.76517 3.60059 0
M  V30 5494 H 532.256 -0.491008 4.25778 0
M  V30 5495 H 536.44 0.194436 4.95919 0
M  V30 5496 H 531.696 1.1438 6.00606 0
M  V30 5497 H 535.87 1.82519 6.72056 0
M  V30 5498 H 533.497 2.30593 7.24383 0
M  V30 5499 N 535.072 -1.5615 -0.213296 0
M  V30 5500 C 536.321 -1.78743 -0.93455 0
M  V30 5501 C 536.634 -0.630199 -1.8517 0
M  V30 5502 O 537.84 -0.739966 -2.61222 0
M  V30 5503 C 536.296 -3.16571 -1.71203 0
M  V30 5504 C 535.904 -4.40043 -0.840617 0
M  V30 5505 C 537.648 -3.48485 -2.42401 0
M  V30 5506 C 535.555 -5.68895 -1.61592 0
M  V30 5507 H 534.485 -0.666426 -0.352692 0
M  V30 5508 H 537.136 -1.82532 -0.188227 0
M  V30 5509 H 535.518 -3.06981 -2.50157 0
M  V30 5510 H 536.692 -4.6071 -0.0910326 0
M  V30 5511 H 535.007 -4.15706 -0.240365 0
M  V30 5512 H 537.604 -4.41983 -3.00924 0
M  V30 5513 H 537.947 -2.71371 -3.15695 0
M  V30 5514 H 538.48 -3.59442 -1.7043 0
M  V30 5515 H 535.219 -6.48925 -0.926106 0
M  V30 5516 H 534.739 -5.52275 -2.33991 0
M  V30 5517 H 536.418 -6.09365 -2.17447 0
M  V30 5518 N 536.55 0.480323 -1.50102 0
M  V30 5519 C 537.799 1.22979 -1.59872 0
M  V30 5520 C 538.112 1.93282 -0.30022 0
M  V30 5521 O 539.318 2.70086 -0.276709 0
M  V30 5522 C 537.774 2.23408 -2.82164 0
M  V30 5523 C 537.382 1.5895 -4.18854 0
M  V30 5524 C 539.126 2.99055 -3.01275 0
M  V30 5525 C 537.033 2.57611 -5.32344 0
M  V30 5526 H 535.963 0.462707 -0.59533 0
M  V30 5527 H 538.614 0.501291 -1.7652 0
M  V30 5528 H 536.996 2.99511 -2.59055 0
M  V30 5529 H 538.17 0.887 -4.52182 0
M  V30 5530 H 536.485 0.956191 -4.05273 0
M  V30 5531 H 539.082 3.72876 -3.83233 0
M  V30 5532 H 539.425 3.57897 -2.12639 0
M  V30 5533 H 539.958 2.30066 -3.24522 0
M  V30 5534 H 536.697 2.03521 -6.23105 0
M  V30 5535 H 536.217 3.26041 -5.03445 0
M  V30 5536 H 537.896 3.19627 -5.62537 0
M  V30 5537 N 538.028 1.39524 0.732853 0
M  V30 5538 C 539.256 1.40143 1.52209 0
M  V30 5539 C 539.671 -0.00348836 1.888 0
M  V30 5540 O 539.028 -0.975357 1.5425 0
M  V30 5541 C 539.079 2.27632 2.8083 0
M  V30 5542 O 538.8 3.62654 2.45792 0
M  V30 5543 C 540.301 2.36658 3.74844 0
M  V30 5544 H 537.521 0.478604 0.470297 0
M  V30 5545 H 540.065 1.83366 0.905388 0
M  V30 5546 H 538.22 1.87818 3.38826 0
M  V30 5547 H 538.634 4.08941 3.28431 0
M  V30 5548 H 540.108 3.02118 4.61984 0
M  V30 5549 H 540.585 1.38638 4.16745 0
M  V30 5550 H 541.191 2.76951 3.22766 0
M  V30 5551 N 539.506 -0.963266 1.24736 0
M  V30 5552 C 540.917 -1.52145 1.08207 0
M  V30 5553 C 541.268 -1.93142 -0.345061 0
M  V30 5554 O 540.393 -1.77769 -1.23399 0
M  V30 5555 C 540.988 -2.76486 1.95808 0
M  V30 5556 C 539.547 -3.28646 1.8349 0
M  V30 5557 C 538.694 -2.01529 1.90476 0
M  V30 5558 H 541.645 -0.781083 1.38148 0
M  V30 5559 H 541.666 -3.49986 1.49297 0
M  V30 5560 H 541.178 -2.46617 2.99669 0
M  V30 5561 H 539.279 -3.63357 0.824787 0
M  V30 5562 H 539.392 -3.97246 2.67829 0
M  V30 5563 H 537.756 -2.16442 1.34258 0
M  V30 5564 H 538.539 -1.7402 2.95926 0
M  V30 5565 N 540.985 -1.06182 -1.16461 0
M  V30 5566 C 542.233 -0.776326 -1.86595 0
M  V30 5567 C 542.554 0.69921 -1.82033 0
M  V30 5568 O 541.824 1.50579 -1.2531 0
M  V30 5569 H 540.404 -0.284184 -0.690832 0
M  V30 5570 H 543.066 -1.34308 -1.41235 0
M  V30 5571 H 542.162 -1.10022 -2.92064 0
M  V30 5572 N 542.463 1.3308 -0.844243 0
M  V30 5573 C 543.711 1.97215 -0.441676 0
M  V30 5574 C 544.032 1.67185 1.0037 0
M  V30 5575 O 543.302 0.973588 1.69994 0
M  V30 5576 H 541.882 0.72959 -0.160335 0
M  V30 5577 H 544.544 1.62348 -1.07838 0
M  V30 5578 H 543.64 3.06698 -0.57815 0
M  V30 5579 N 543.941 0.601185 1.45683 0
M  V30 5580 C 545.181 0.0968037 2.04171 0
M  V30 5581 C 545.545 -1.2466 1.46027 0
M  V30 5582 O 546.746 -1.84132 1.95829 0
M  V30 5583 C 545.017 0.051384 3.57363 0
M  V30 5584 S 546.576 -0.392737 4.37039 0
M  V30 5585 H 543.394 0.0464504 0.709481 0
M  V30 5586 H 545.996 0.797846 1.78479 0
M  V30 5587 H 544.7 1.03274 3.97193 0
M  V30 5588 H 544.231 -0.671853 3.87621 0
M  V30 5589 H 546.246 -1.64364 4.68187 0
M  V30 5590 N 545.419 -1.53889 0.339982 0
M  V30 5591 C 546.349 -2.27843 -0.510856 0
M  V30 5592 C 547.33 -1.29267 -1.10563 0
M  V30 5593 O 548.515 -1.58104 -1.12768 0
M  V30 5594 C 545.645 -3.04857 -1.66372 0
M  V30 5595 C 544.599 -4.10907 -1.19746 0
M  V30 5596 C 543.925 -4.75855 -2.43857 0
M  V30 5597 C 545.225 -5.21435 -0.300501 0
M  V30 5598 H 546.919 -2.99212 0.106067 0
M  V30 5599 H 544.465 -1.43904 0.0524533 0
M  V30 5600 H 546.418 -3.5533 -2.26537 0
M  V30 5601 H 545.142 -2.31133 -2.30749 0
M  V30 5602 H 543.801 -3.61342 -0.618654 0
M  V30 5603 H 543.449 -3.9873 -3.06633 0
M  V30 5604 H 543.149 -5.47502 -2.13343 0
M  V30 5605 H 544.673 -5.2911 -3.04754 0
M  V30 5606 H 546.087 -5.67565 -0.80889 0
M  V30 5607 H 544.484 -6.00036 -0.0874076 0
M  V30 5608 H 545.554 -4.80328 0.664321 0
M  V30 5609 N 546.897 -0.0685191 -1.57451 0
M  V30 5610 C 547.844 0.899861 -2.12535 0
M  V30 5611 C 548.814 1.29749 -1.03703 0
M  V30 5612 O 549.999 1.38392 -1.31348 0
M  V30 5613 C 547.139 2.16328 -2.6888 0
M  V30 5614 C 546.252 1.81857 -3.91857 0
M  V30 5615 C 545.387 3.02786 -4.36457 0
M  V30 5616 C 544.426 2.64317 -5.5209 0
M  V30 5617 N 543.563 3.77994 -5.91663 0
M  V30 5618 H 548.403 0.423243 -2.94979 0
M  V30 5619 H 545.94 0.197268 -1.45771 0
M  V30 5620 H 547.898 2.90281 -2.99655 0
M  V30 5621 H 546.528 2.61536 -1.89206 0
M  V30 5622 H 545.58 0.979808 -3.67565 0
M  V30 5623 H 546.892 1.49553 -4.75852 0
M  V30 5624 H 546.046 3.85021 -4.68875 0
M  V30 5625 H 544.785 3.38281 -3.51308 0
M  V30 5626 H 543.79 1.80503 -5.19325 0
M  V30 5627 H 545.015 2.29995 -6.38967 0
M  V30 5628 H 542.961 4.13258 -5.09464 0
M  V30 5629 H 542.878 3.49447 -6.7039 0
M  V30 5630 H 544.146 4.60818 -6.28703 0
M  V30 5631 N 548.375 1.56261 0.205012 0
M  V30 5632 C 549.615 1.81823 0.933806 0
M  V30 5633 C 549.979 0.644534 1.80858 0
M  V30 5634 O 551.18 0.779819 2.5724 0
M  V30 5635 C 549.451 3.12362 1.7368 0
M  V30 5636 S 551.01 3.59296 2.51897 0
M  V30 5637 H 547.828 0.638209 0.313386 0
M  V30 5638 H 550.43 1.94495 0.198001 0
M  V30 5639 H 549.134 3.95809 1.08459 0
M  V30 5640 H 548.665 3.02542 2.5146 0
M  V30 5641 H 550.68 3.23945 3.75864 0
M  V30 5642 N 549.853 -0.472356 1.50355 0
M  V30 5643 C 550.8 -1.57051 1.69126 0
M  V30 5644 C 551.77 -1.5733 0.532574 0
M  V30 5645 O 552.955 -1.7488 0.762994 0
M  V30 5646 C 550.095 -2.95033 1.79024 0
M  V30 5647 C 549.208 -3.04552 3.06386 0
M  V30 5648 C 548.343 -4.33441 3.07087 0
M  V30 5649 C 547.382 -4.36697 4.28908 0
M  V30 5650 N 546.519 -5.57056 4.27356 0
M  V30 5651 H 551.359 -1.40351 2.62879 0
M  V30 5652 H 548.896 -0.682403 1.30314 0
M  V30 5653 H 550.854 -3.75048 1.82744 0
M  V30 5654 H 549.484 -3.10371 0.887109 0
M  V30 5655 H 548.536 -2.17419 3.12143 0
M  V30 5656 H 549.848 -3.02818 3.96362 0
M  V30 5657 H 549.002 -5.21801 3.09529 0
M  V30 5658 H 547.741 -4.37782 2.14939 0
M  V30 5659 H 546.746 -3.46734 4.2668 0
M  V30 5660 H 547.971 -4.34049 5.22282 0
M  V30 5661 H 545.917 -5.62184 3.3806 0
M  V30 5662 H 545.834 -5.57058 5.111 0
M  V30 5663 H 547.102 -6.47545 4.33942 0
M  V30 5664 N 551.331 -1.39911 -0.725443 0
M  V30 5665 C 552.58 -1.36963 -1.48068 0
M  V30 5666 C 552.893 0.0284478 -1.95579 0
M  V30 5667 O 554.099 0.180535 -2.70899 0
M  V30 5668 C 552.555 -2.40664 -2.67598 0
M  V30 5669 C 552.163 -3.86234 -2.26997 0
M  V30 5670 C 553.907 -2.46807 -3.45379 0
M  V30 5671 C 551.814 -4.81554 -3.43307 0
M  V30 5672 H 550.744 -0.509223 -0.556065 0
M  V30 5673 H 553.395 -1.65602 -0.790454 0
M  V30 5674 H 551.777 -2.05109 -3.38742 0
M  V30 5675 H 552.951 -4.3088 -1.63337 0
M  V30 5676 H 551.266 -3.83475 -1.62284 0
M  V30 5677 H 553.863 -3.15213 -4.31909 0
M  V30 5678 H 554.206 -1.49552 -3.8851 0
M  V30 5679 H 554.739 -2.81303 -2.81271 0
M  V30 5680 H 551.478 -5.80106 -3.05217 0
M  V30 5681 H 550.998 -4.4158 -4.05915 0
M  V30 5682 H 552.677 -5.0091 -4.0951 0
M  V30 5683 N 552.809 0.956637 -1.25245 0
M  V30 5684 C 554.058 1.69537 -1.0927 0
M  V30 5685 C 554.371 1.92136 0.366503 0
M  V30 5686 O 555.577 2.63687 0.64665 0
M  V30 5687 C 554.033 3.05211 -1.9072 0
M  V30 5688 C 553.641 2.90416 -3.41119 0
M  V30 5689 C 555.385 3.82882 -1.83308 0
M  V30 5690 C 553.292 4.21468 -4.14872 0
M  V30 5691 H 552.222 0.635804 -0.405302 0
M  V30 5692 H 554.873 1.06513 -1.49423 0
M  V30 5693 H 553.255 3.69128 -1.43389 0
M  V30 5694 H 554.429 2.35444 -3.9611 0
M  V30 5695 H 552.744 2.26203 -3.49602 0
M  V30 5696 H 555.341 4.79944 -2.35706 0
M  V30 5697 H 555.684 4.0853 -0.800572 0
M  V30 5698 H 556.217 3.25711 -2.28379 0
M  V30 5699 H 552.956 4.01009 -5.18529 0
M  V30 5700 H 552.476 4.76213 -3.64665 0
M  V30 5701 H 554.155 4.90022 -4.22478 0
M  V30 5702 N 554.287 1.06798 1.15896 0
M  V30 5703 C 555.536 0.782796 1.8589 0
M  V30 5704 C 555.849 -0.693498 1.82893 0
M  V30 5705 O 557.055 -1.09325 2.48516 0
M  V30 5706 C 555.511 1.3502 3.33613 0
M  V30 5707 C 555.119 2.8571 3.45071 0
M  V30 5708 C 556.863 1.14278 4.08829 0
M  V30 5709 C 554.77 3.35669 4.86909 0
M  V30 5710 H 553.7 0.289149 0.696354 0
M  V30 5711 H 556.351 1.28734 1.30766 0
M  V30 5712 H 554.733 0.773407 3.88374 0
M  V30 5713 H 555.907 3.49385 3.00445 0
M  V30 5714 H 554.222 3.05178 2.83294 0
M  V30 5715 H 556.819 1.49087 5.13495 0
M  V30 5716 H 557.162 0.0814575 4.1622 0
M  V30 5717 H 557.695 1.68563 3.60321 0
M  V30 5718 H 554.434 4.41302 4.84698 0
M  V30 5719 H 553.954 2.76745 5.32139 0
M  V30 5720 H 555.633 3.31296 5.55745 0
M  V30 5721 N 555.766 -1.3263 0.851289 0
M  V30 5722 C 556.716 -2.26451 0.265302 0
M  V30 5723 C 557.7 -1.49814 -0.586899 0
M  V30 5724 O 558.892 -1.71525 -0.436834 0
M  V30 5725 C 556.021 -3.38895 -0.548212 0
M  V30 5726 C 555.107 -4.2292 0.316189 0
M  V30 5727 N 555.498 -4.86014 1.40084 0
M  V30 5728 C 553.796 -4.45876 0.105356 0
M  V30 5729 C 554.497 -5.48667 1.93235 0
M  V30 5730 N 553.473 -5.29455 1.232 0
M  V30 5731 H 557.275 -2.72757 1.09457 0
M  V30 5732 H 554.789 -1.4668 0.697047 0
M  V30 5733 H 556.786 -4.05111 -0.984402 0
M  V30 5734 H 555.446 -2.94135 -1.37531 0
M  V30 5735 H 556.457 -4.86212 1.78377 0
M  V30 5736 H 553.134 -4.11804 -0.687299 0
M  V30 5737 H 554.524 -6.08865 2.84135 0
M  V30 5738 N 557.244 -0.608902 -1.45362 0
M  V30 5739 C 558.49 -0.104762 -2.02529 0
M  V30 5740 C 558.823 1.26191 -1.47613 0
M  V30 5741 O 558.098 1.8327 -0.65134 0
M  V30 5742 C 558.381 -0.0672661 -3.60037 0
M  V30 5743 C 558.234 -1.4647 -4.25284 0
M  V30 5744 C 559.553 0.619877 -4.35713 0
M  V30 5745 H 556.672 -0.0395438 -0.735938 0
M  V30 5746 H 559.314 -0.781126 -1.73201 0
M  V30 5747 H 557.464 0.50871 -3.85155 0
M  V30 5748 H 559.136 -2.08785 -4.11347 0
M  V30 5749 H 557.379 -2.02502 -3.83634 0
M  V30 5750 H 558.05 -1.39069 -5.34195 0
M  V30 5751 H 560.526 0.130297 -4.15896 0
M  V30 5752 H 559.402 0.615224 -5.45441 0
M  V30 5753 H 559.663 1.68621 -4.0868 0
M  V30 5754 N 558.722 1.53707 -0.348139 0
M  V30 5755 C 560.133 1.86213 0.134797 0
M  V30 5756 C 560.484 1.26925 1.49614 0
M  V30 5757 O 559.609 0.584573 2.08355 0
M  V30 5758 C 560.204 3.37866 0.251371 0
M  V30 5759 C 558.763 3.70233 0.678543 0
M  V30 5760 C 557.91 2.76683 -0.184925 0
M  V30 5761 H 560.861 1.48204 -0.567571 0
M  V30 5762 H 560.882 3.64908 1.07806 0
M  V30 5763 H 560.394 3.80988 -0.739581 0
M  V30 5764 H 558.495 3.32659 1.67835 0
M  V30 5765 H 558.608 4.76836 0.465251 0
M  V30 5766 H 556.972 2.52374 0.343465 0
M  V30 5767 H 557.755 3.22635 -1.1731 0
M  V30 5768 N 560.2 0.0768682 1.57412 0
M  V30 5769 C 561.448 -0.589918 1.93299 0
M  V30 5770 C 561.769 -1.69842 0.958049 0
M  V30 5771 O 561.039 -1.95899 0.00703261 0
M  V30 5772 H 559.619 -0.220901 0.713591 0
M  V30 5773 H 562.281 0.135917 1.94425 0
M  V30 5774 H 561.377 -1.01195 2.95239 0
M  V30 5775 N 561.678 -1.56367 -0.196722 0
M  V30 5776 C 562.926 -1.80172 -0.915554 0
M  V30 5777 C 563.247 -0.649649 -1.8386 0
M  V30 5778 O 562.517 0.332111 -1.93064 0
M  V30 5779 H 561.097 -0.664592 -0.341067 0
M  V30 5780 H 563.759 -1.93844 -0.202622 0
M  V30 5781 H 562.855 -2.7327 -1.50764 0
M  V30 5782 N 563.156 0.464375 -1.50603 0
M  V30 5783 C 564.103 1.56152 -1.69956 0
M  V30 5784 C 565.073 1.57046 -0.54091 0
M  V30 5785 O 566.258 1.74473 -0.772258 0
M  V30 5786 C 563.398 2.94079 -1.80586 0
M  V30 5787 C 562.511 3.02923 -3.07996 0
M  V30 5788 C 561.646 4.31806 -3.09382 0
M  V30 5789 C 560.685 4.34417 -4.31218 0
M  V30 5790 N 559.822 5.54782 -4.30304 0
M  V30 5791 H 564.662 1.38955 -2.6362 0
M  V30 5792 H 562.199 0.675482 -1.30674 0
M  V30 5793 H 564.157 3.74073 -1.8473 0
M  V30 5794 H 562.787 3.09896 -0.903556 0
M  V30 5795 H 561.839 2.1576 -3.13292 0
M  V30 5796 H 563.151 3.00712 -3.97962 0
M  V30 5797 H 562.305 5.20153 -3.12292 0
M  V30 5798 H 561.044 4.36636 -2.17257 0
M  V30 5799 H 560.049 3.44467 -4.28512 0
M  V30 5800 H 561.274 4.31273 -5.24576 0
M  V30 5801 H 559.22 5.60384 -3.41037 0
M  V30 5802 H 559.137 5.54339 -5.14047 0
M  V30 5803 H 560.405 6.45235 -4.3737 0
M  V30 5804 N 564.634 1.40294 0.718013 0
M  V30 5805 C 565.911 1.2894 1.47084 0
M  V30 5806 C 566.291 -0.0933625 2.10893 0
M  V30 5807 O 565.639 -1.10598 1.99951 0
M  V30 5808 C 565.849 2.4264 2.50852 0
M  V30 5809 C 567.197 2.8276 3.16752 0
M  V30 5810 O 568.221 2.42215 2.61171 0
M  V30 5811 O 567.08 3.528 4.17366 0
M  V30 5812 H 564.174 0.506236 0.653952 0
M  V30 5813 H 566.72 1.52208 0.750394 0
M  V30 5814 H 565.492 3.35009 2.022 0
M  V30 5815 H 565.115 2.21129 3.30435 0
M  V30 5816 N 566.112 -0.949982 1.2575 0
M  V30 5817 C 567.358 -1.69766 1.10938 0
M  V30 5818 C 567.691 -1.91056 -0.348028 0
M  V30 5819 O 566.966 -1.48488 -1.25625 0
M  V30 5820 C 567.249 -3.07779 1.86933 0
M  V30 5821 C 567.102 -2.9387 3.4053 0
M  V30 5822 C 568.421 -4.07749 1.65616 0
M  V30 5823 H 565.54 -0.616144 0.404396 0
M  V30 5824 H 568.182 -1.10394 1.54639 0
M  V30 5825 H 566.332 -3.58462 1.4979 0
M  V30 5826 H 568.004 -2.50476 3.87375 0
M  V30 5827 H 566.247 -2.29686 3.68004 0
M  V30 5828 H 566.918 -3.91719 3.88922 0
M  V30 5829 H 569.394 -3.65994 1.97959 0
M  V30 5830 H 568.27 -5.02348 2.21218 0
M  V30 5831 H 568.531 -4.38029 0.598595 0
M  V30 5832 N 567.59 -1.07411 -1.15328 0
M  V30 5833 C 569.006 -0.799759 -1.38116 0
M  V30 5834 C 569.206 0.59572 -1.92493 0
M  V30 5835 O 568.262 1.35433 -2.13106 0
M  V30 5836 C 569.575 -1.87407 -2.35158 0
M  V30 5837 C 571.123 -1.89889 -2.48819 0
M  V30 5838 C 571.598 -2.96406 -3.49153 0
M  V30 5839 N 573.089 -2.95512 -3.56689 0
M  V30 5840 C 573.824 -3.74575 -4.34144 0
M  V30 5841 N 573.32 -4.63488 -5.14928 0
M  V30 5842 N 575.113 -3.62919 -4.29239 0
M  V30 5843 H 567.264 -1.97411 -0.78374 0
M  V30 5844 H 569.527 -0.856113 -0.407154 0
M  V30 5845 H 569.233 -2.8768 -2.0232 0
M  V30 5846 H 569.107 -1.73471 -3.34944 0
M  V30 5847 H 571.494 -0.902677 -2.80955 0
M  V30 5848 H 571.575 -2.07904 -1.49029 0
M  V30 5849 H 571.219 -3.96227 -3.17752 0
M  V30 5850 H 571.149 -2.75638 -4.48699 0
M  V30 5851 H 573.64 -2.31061 -2.99031 0
M  V30 5852 H 573.953 -5.20445 -5.71276 0
M  V30 5853 H 572.298 -4.67537 -5.14232 0
M  V30 5854 H 575.489 -2.92833 -3.65194 0
M  V30 5855 H 575.662 -4.24777 -4.89355 0
M  V30 5856 N 569.068 1.32177 -0.85831 0
M  V30 5857 C 570.015 2.28794 -0.303607 0
M  V30 5858 C 570.985 1.55213 0.591453 0
M  V30 5859 O 572.17 1.83418 0.525585 0
M  V30 5860 C 569.31 3.41475 0.49889 0
M  V30 5861 C 568.423 4.2993 -0.422373 0
M  V30 5862 C 567.558 5.29743 0.393111 0
M  V30 5863 C 566.597 6.09842 -0.525317 0
M  V30 5864 N 565.734 7.01643 0.253208 0
M  V30 5865 H 570.574 2.75631 -1.13276 0
M  V30 5866 H 568.111 1.35606 -0.570026 0
M  V30 5867 H 570.069 4.05531 0.979826 0
M  V30 5868 H 568.699 2.95779 1.29284 0
M  V30 5869 H 567.751 3.66422 -1.02171 0
M  V30 5870 H 569.063 4.85899 -1.12709 0
M  V30 5871 H 568.217 5.9942 0.937056 0
M  V30 5872 H 566.956 4.744 1.13117 0
M  V30 5873 H 565.961 5.39066 -1.08112 0
M  V30 5874 H 567.186 6.6727 -1.26205 0
M  V30 5875 H 565.132 6.48725 0.974295 0
M  V30 5876 H 565.049 7.54981 -0.392398 0
M  V30 5877 H 566.317 7.756 0.778761 0
M  V30 5878 N 570.547 0.616602 1.45037 0
M  V30 5879 C 571.775 0.121968 2.0654 0
M  V30 5880 C 572.19 -1.19743 1.45969 0
M  V30 5881 O 571.547 -1.73133 0.577168 0
M  V30 5882 C 571.598 -0.0145171 3.61497 0
M  V30 5883 O 571.319 1.25269 4.19809 0
M  V30 5884 C 572.82 -0.539555 4.40004 0
M  V30 5885 H 570.04 0.0729837 0.667019 0
M  V30 5886 H 572.584 0.846891 1.8614 0
M  V30 5887 H 570.739 -0.689809 3.81209 0
M  V30 5888 H 571.153 1.08816 5.13088 0
M  V30 5889 H 572.627 -0.584112 5.48901 0
M  V30 5890 H 573.104 -1.56368 4.10421 0
M  V30 5891 H 573.71 0.101995 4.25178 0
M  V30 5892 N 572.025 -1.5352 0.356285 0
M  V30 5893 C 573.271 -2.01414 -0.236653 0
M  V30 5894 C 573.604 -1.24339 -1.49176 0
M  V30 5895 O 572.879 -0.334496 -1.91602 0
M  V30 5896 C 573.162 -3.56059 -0.537982 0
M  V30 5897 C 573.015 -4.43835 0.730112 0
M  V30 5898 C 574.334 -4.19127 -1.34239 0
M  V30 5899 H 571.453 -0.732135 -0.0845386 0
M  V30 5900 H 574.095 -1.83854 0.479341 0
M  V30 5901 H 572.245 -3.71153 -1.14795 0
M  V30 5902 H 573.917 -4.40555 1.36782 0
M  V30 5903 H 572.16 -4.1218 1.3524 0
M  V30 5904 H 572.831 -5.49958 0.474358 0
M  V30 5905 H 575.307 -4.07809 -0.826498 0
M  V30 5906 H 574.183 -5.27378 -1.52198 0
M  V30 5907 H 574.444 -3.74581 -2.34822 0
M  V30 5908 N 573.503 -0.0852151 -1.57369 0
M  V30 5909 C 574.731 0.58946 -1.98325 0
M  V30 5910 C 575.146 1.62333 -0.96403 0
M  V30 5911 O 574.503 1.82438 0.0476395 0
M  V30 5912 C 574.554 1.24604 -3.39347 0
M  V30 5913 O 574.275 0.253532 -4.37366 0
M  V30 5914 C 575.776 2.00726 -3.95252 0
M  V30 5915 H 572.996 0.158783 -0.651942 0
M  V30 5916 H 575.54 -0.161584 -2.03861 0
M  V30 5917 H 573.695 1.94808 -3.34856 0
M  V30 5918 H 574.109 0.726207 -5.19448 0
M  V30 5919 H 575.583 2.42039 -4.96106 0
M  V30 5920 H 576.06 2.86919 -3.32527 0
M  V30 5921 H 576.666 1.3536 -4.03185 0
M  V30 5922 N 574.981 1.5647 0.188427 0
M  V30 5923 C 576.206 1.85486 0.927891 0
M  V30 5924 C 576.631 0.669575 1.75779 0
M  V30 5925 O 575.989 -0.381573 1.77239 0
M  V30 5926 C 576.037 3.12784 1.7944 0
M  V30 5927 O 575.141 2.93805 2.894 0
M  V30 5928 H 574.482 0.610585 0.260925 0
M  V30 5929 H 577.012 2.037 0.191729 0
M  V30 5930 H 577.022 3.43749 2.19774 0
M  V30 5931 H 575.697 3.98671 1.18468 0
M  V30 5932 H 574.274 2.74153 2.52774 0
M  V30 5933 N 576.459 -0.456382 1.50847 0
M  V30 5934 C 577.705 -1.20914 1.62811 0
M  V30 5935 C 578.038 -1.91301 0.334304 0
M  V30 5936 O 577.313 -1.82775 -0.665098 0
M  V30 5937 C 577.596 -2.24122 2.81853 0
M  V30 5938 C 577.449 -1.57944 4.21158 0
M  V30 5939 C 578.768 -3.25295 2.96431 0
M  V30 5940 H 575.887 -0.438233 0.592554 0
M  V30 5941 H 578.529 -0.50091 1.83278 0
M  V30 5942 H 576.679 -2.84524 2.64534 0
M  V30 5943 H 578.351 -1.01025 4.50102 0
M  V30 5944 H 576.594 -0.882185 4.24735 0
M  V30 5945 H 577.265 -2.33014 5.00408 0
M  V30 5946 H 579.741 -2.7493 3.12335 0
M  V30 5947 H 578.617 -3.94822 3.81322 0
M  V30 5948 H 578.878 -3.90286 2.07676 0
M  V30 5949 N 577.937 -1.40673 -0.710563 0
M  V30 5950 C 578.867 -1.44095 -1.83736 0
M  V30 5951 C 579.848 -0.301286 -1.67411 0
M  V30 5952 O 581.033 -0.510618 -1.87367 0
M  V30 5953 C 578.163 -1.30773 -3.21738 0
M  V30 5954 C 577.117 -2.42395 -3.52745 0
M  V30 5955 C 576.443 -2.14147 -4.89944 0
M  V30 5956 C 577.743 -3.84738 -3.53234 0
M  V30 5957 H 579.437 -2.38396 -1.81129 0
M  V30 5958 H 576.983 -1.14746 -0.870017 0
M  V30 5959 H 578.936 -1.31783 -4.00264 0
M  V30 5960 H 577.66 -0.329507 -3.24934 0
M  V30 5961 H 576.319 -2.40643 -2.76562 0
M  V30 5962 H 575.967 -1.14703 -4.89747 0
M  V30 5963 H 575.667 -2.88934 -5.11655 0
M  V30 5964 H 577.191 -2.16848 -5.70797 0
M  V30 5965 H 578.605 -3.88286 -4.2179 0
M  V30 5966 H 577.002 -4.59085 -3.86473 0
M  V30 5967 H 578.072 -4.13962 -2.52514 0
M  V30 5968 N 579.415 0.9433 -1.26252 0
M  V30 5969 C 580.325 2.07532 -1.09397 0
M  V30 5970 C 581.341 1.73977 -0.0280449 0
M  V30 5971 O 582.517 2.00067 -0.231337 0
M  V30 5972 C 579.582 3.39002 -0.726523 0
M  V30 5973 C 578.643 3.86353 -1.87163 0
M  V30 5974 C 577.876 5.11549 -1.52162 0
M  V30 5975 O 578.099 5.68834 -0.422385 0
M  V30 5976 O 577.033 5.53889 -2.35565 0
M  V30 5977 H 580.859 2.24658 -2.04359 0
M  V30 5978 H 578.444 1.05988 -1.05295 0
M  V30 5979 H 580.326 4.18 -0.534236 0
M  V30 5980 H 579.001 3.2312 0.193721 0
M  V30 5981 H 577.908 3.0831 -2.11886 0
M  V30 5982 H 579.241 4.06752 -2.77152 0
M  V30 5983 N 580.893 1.08022 1.14757 0
M  V30 5984 C 581.803 0.718292 2.23333 0
M  V30 5985 C 582.819 -0.273477 1.71837 0
M  V30 5986 O 583.995 -0.118406 2.01052 0
M  V30 5987 C 581.06 0.128855 3.4646 0
M  V30 5988 C 580.121 1.17473 4.12915 0
M  V30 5989 C 579.354 0.61333 5.30164 0
M  V30 5990 O 579.577 -0.568458 5.6756 0
M  V30 5991 O 578.511 1.3615 5.86299 0
M  V30 5992 H 582.337 1.62394 2.56636 0
M  V30 5993 H 579.922 0.853628 1.22611 0
M  V30 5994 H 581.804 -0.197249 4.20938 0
M  V30 5995 H 580.479 -0.750014 3.14891 0
M  V30 5996 H 579.386 1.5533 3.40328 0
M  V30 5997 H 580.719 2.02574 4.48581 0
M  V30 5998 N 582.371 -1.3172 0.865308 0
M  V30 5999 C 583.611 -1.98675 0.480365 0
M  V30 6000 C 583.975 -1.66929 -0.948621 0
M  V30 6001 O 585.176 -2.27059 -1.43867 0
M  V30 6002 C 583.447 -3.49972 0.724858 0
M  V30 6003 S 585.006 -4.36598 0.439078 0
M  V30 6004 H 581.824 -0.687967 0.179506 0
M  V30 6005 H 584.426 -1.60215 1.12033 0
M  V30 6006 H 583.13 -3.70567 1.76375 0
M  V30 6007 H 582.661 -3.93335 0.0717173 0
M  V30 6008 H 584.676 -4.90792 -0.730564 0
M  V30 6009 N 583.85 -0.624285 -1.44708 0
M  V30 6010 C 584.76 0.0861083 -2.34442 0
M  V30 6011 C 585.776 0.84291 -1.5222 0
M  V30 6012 O 586.952 0.796723 -1.84971 0
M  V30 6013 C 584.017 1.05999 -3.30099 0
M  V30 6014 C 583.077 0.303316 -4.28227 0
M  V30 6015 C 582.311 1.23081 -5.19314 0
M  V30 6016 O 582.534 2.46929 -5.14181 0
M  V30 6017 O 581.468 0.71883 -5.97592 0
M  V30 6018 H 585.293 -0.651756 -2.96624 0
M  V30 6019 H 582.879 -0.384493 -1.44368 0
M  V30 6020 H 584.76 1.62046 -3.88997 0
M  V30 6021 H 583.436 1.77859 -2.70459 0
M  V30 6022 H 582.343 -0.300033 -3.72895 0
M  V30 6023 H 583.676 -0.375123 -4.90768 0
M  V30 6024 N 585.328 1.53329 -0.364422 0
M  V30 6025 C 586.26 2.23286 0.517293 0
M  V30 6026 C 587.273 1.24657 1.04711 0
M  V30 6027 O 588.462 1.50887 0.95369 0
M  V30 6028 C 585.562 2.91604 1.72685 0
M  V30 6029 C 584.735 4.1673 1.32873 0
M  V30 6030 C 583.794 4.68269 2.40022 0
M  V30 6031 O 582.82 5.31976 2.02461 0
M  V30 6032 N 584.022 4.45983 3.7159 0
M  V30 6033 H 586.787 2.99588 -0.0819391 0
M  V30 6034 H 584.348 1.60787 -0.189544 0
M  V30 6035 H 586.34 3.22992 2.4384 0
M  V30 6036 H 584.91 2.18763 2.23297 0
M  V30 6037 H 584.13 3.91657 0.447069 0
M  V30 6038 H 585.418 4.98078 1.03902 0
M  V30 6039 H 584.816 3.95077 4.04883 0
M  V30 6040 H 583.373 4.81924 4.38854 0
M  V30 6041 N 586.806 0.0935595 1.57322 0
M  V30 6042 C 588.222 -0.263091 1.57417 0
M  V30 6043 C 588.422 -1.68526 1.1046 0
M  V30 6044 O 587.478 -2.40139 0.780357 0
M  V30 6045 C 588.791 -0.0529201 3.00653 0
M  V30 6046 C 590.339 -0.120788 3.12767 0
M  V30 6047 C 590.814 0.0613707 4.57959 0
M  V30 6048 N 592.305 0.00648534 4.632 0
M  V30 6049 C 593.04 0.122699 5.73269 0
M  V30 6050 N 592.536 0.29366 6.92177 0
M  V30 6051 N 594.329 0.0640787 5.62063 0
M  V30 6052 H 586.48 1.02277 1.86154 0
M  V30 6053 H 588.743 0.4007 0.859153 0
M  V30 6054 H 588.449 0.929279 3.39201 0
M  V30 6055 H 588.323 -0.795899 3.68708 0
M  V30 6056 H 590.71 -1.09349 2.74093 0
M  V30 6057 H 590.791 0.653656 2.47307 0
M  V30 6058 H 590.435 1.03093 4.97327 0
M  V30 6059 H 590.365 -0.732748 5.21477 0
M  V30 6060 H 592.856 -0.123173 3.77699 0
M  V30 6061 H 593.169 0.37389 7.71895 0
M  V30 6062 H 591.514 0.329307 6.94219 0
M  V30 6063 H 594.705 -0.0683396 4.6805 0
M  V30 6064 H 594.878 0.158097 6.47807 0
M  V30 6065 N 588.284 -1.56567 -0.180126 0
M  V30 6066 C 589.231 -1.95725 -1.22313 0
M  V30 6067 C 590.201 -0.819911 -1.44453 0
M  V30 6068 O 591.386 -1.07931 -1.57339 0
M  V30 6069 C 588.526 -2.31484 -2.55947 0
M  V30 6070 C 587.639 -3.58354 -2.4126 0
M  V30 6071 C 586.774 -3.83366 -3.67701 0
M  V30 6072 C 585.813 -5.03612 -3.47909 0
M  V30 6073 N 584.95 -5.24802 -4.66398 0
M  V30 6074 H 589.79 -2.84642 -0.882198 0
M  V30 6075 H 587.327 -1.4085 -0.42422 0
M  V30 6076 H 589.285 -2.50237 -3.33822 0
M  V30 6077 H 587.915 -1.45689 -2.88053 0
M  V30 6078 H 586.967 -3.47565 -1.54606 0
M  V30 6079 H 588.279 -4.46386 -2.22577 0
M  V30 6080 H 587.433 -4.02439 -4.54013 0
M  V30 6081 H 586.172 -2.93692 -3.89353 0
M  V30 6082 H 585.177 -4.84447 -2.59983 0
M  V30 6083 H 586.402 -5.94809 -3.27688 0
M  V30 6084 H 584.348 -4.38079 -4.88286 0
M  V30 6085 H 584.265 -6.07041 -4.50596 0
M  V30 6086 H 585.533 -5.48346 -5.54019 0
M  V30 6087 N 589.762 0.448376 -1.51087 0
M  V30 6088 C 590.992 1.21965 -1.66757 0
M  V30 6089 C 591.4 1.85748 -0.359753 0
M  V30 6090 O 590.743 1.71022 0.670604 0
M  V30 6091 C 590.805 2.35284 -2.71812 0
M  V30 6092 C 590.469 1.91957 -4.1473 0
M  V30 6093 C 591.466 1.42921 -4.9987 0
M  V30 6094 C 589.151 1.99985 -4.60772 0
M  V30 6095 C 591.145 1.02485 -6.29107 0
M  V30 6096 C 588.832 1.5916 -5.90009 0
M  V30 6097 C 589.83 1.10491 -6.74004 0
M  V30 6098 O 589.518 0.702413 -8.00825 0
M  V30 6099 H 589.25 0.374125 -0.563034 0
M  V30 6100 H 591.804 0.538927 -1.98204 0
M  V30 6101 H 590.034 3.06599 -2.35657 0
M  V30 6102 H 591.723 2.97184 -2.76472 0
M  V30 6103 H 592.489 1.36123 -4.65506 0
M  V30 6104 H 588.368 2.36814 -3.95525 0
M  V30 6105 H 591.912 0.644271 -6.94619 0
M  V30 6106 H 587.809 1.65626 -6.2389 0
M  V30 6107 H 588.577 0.829248 -8.14288 0
M  V30 6108 N 591.24 1.41047 0.703093 0
M  V30 6109 C 592.468 1.4334 1.49202 0
M  V30 6110 C 592.883 0.0365596 1.88765 0
M  V30 6111 O 592.24 -0.942419 1.56284 0
M  V30 6112 C 592.291 2.33538 2.75939 0
M  V30 6113 O 592.012 3.67786 2.38045 0
M  V30 6114 C 593.513 2.44555 3.6974 0
M  V30 6115 H 590.733 0.488472 0.460039 0
M  V30 6116 H 593.277 1.85245 0.86629 0
M  V30 6117 H 591.432 1.94962 3.34766 0
M  V30 6118 H 591.846 4.15816 3.19683 0
M  V30 6119 H 593.32 3.11849 4.55471 0
M  V30 6120 H 593.797 1.47447 4.1371 0
M  V30 6121 H 594.403 2.83735 3.16819 0
M  V30 6122 N 592.718 -0.936591 1.26751 0
M  V30 6123 C 593.943 -1.72288 1.15462 0
M  V30 6124 C 594.368 -1.85915 -0.285887 0
M  V30 6125 O 593.726 -1.35272 -1.20711 0
M  V30 6126 C 593.774 -3.10503 1.83359 0
M  V30 6127 O 592.878 -3.96745 1.1255 0
M  V30 6128 H 592.219 -0.52843 0.402067 0
M  V30 6129 H 594.749 -1.17271 1.67656 0
M  V30 6130 H 594.759 -3.60867 1.90365 0
M  V30 6131 H 593.434 -2.99901 2.88153 0
M  V30 6132 H 592.011 -3.55191 1.13551 0
M  V30 6133 N 594.196 -1.08629 -1.14182 0
M  V30 6134 C 595.442 -0.818556 -1.85546 0
M  V30 6135 C 595.775 0.654076 -1.82854 0
M  V30 6136 O 595.05 1.48099 -1.26083 0
M  V30 6137 C 595.333 -1.34397 -3.3408 0
M  V30 6138 C 595.186 -2.8821 -3.45333 0
M  V30 6139 C 596.505 -0.971069 -4.29253 0
M  V30 6140 H 593.624 -0.298821 -0.673702 0
M  V30 6141 H 596.266 -1.34629 -1.34071 0
M  V30 6142 H 594.416 -0.895064 -3.78049 0
M  V30 6143 H 596.088 -3.41488 -3.10134 0
M  V30 6144 H 594.331 -3.25756 -2.86471 0
M  V30 6145 H 595.002 -3.20047 -4.49749 0
M  V30 6146 H 597.478 -1.35809 -3.93313 0
M  V30 6147 H 596.354 -1.36586 -5.31635 0
M  V30 6148 H 596.615 0.121659 -4.41933 0
M  V30 6149 N 595.674 1.31259 -0.872281 0
M  V30 6150 C 596.899 2.0133 -0.498099 0
M  V30 6151 C 597.324 1.65031 0.902568 0
M  V30 6152 O 596.682 0.860164 1.59596 0
M  V30 6153 C 596.73 3.54411 -0.665205 0
M  V30 6154 O 595.834 4.11347 0.294473 0
M  V30 6155 H 595.175 0.633844 -0.197832 0
M  V30 6156 H 597.705 1.67402 -1.17633 0
M  V30 6157 H 597.715 4.04147 -0.559373 0
M  V30 6158 H 596.39 3.80171 -1.68651 0
M  V30 6159 H 594.967 3.72624 0.143403 0
M  V30 6160 N 597.152 0.631951 1.44375 0
M  V30 6161 C 598.082 -0.0593243 2.33425 0
M  V30 6162 C 599.063 -0.833964 1.48253 0
M  V30 6163 O 600.248 -0.799682 1.76971 0
M  V30 6164 C 597.378 -1.04096 3.31333 0
M  V30 6165 C 596.332 -0.377899 4.26328 0
M  V30 6166 C 595.658 -1.4695 5.14111 0
M  V30 6167 C 596.958 0.716371 5.17364 0
M  V30 6168 H 598.652 0.684287 2.91475 0
M  V30 6169 H 596.198 0.330518 1.40156 0
M  V30 6170 H 598.151 -1.53331 3.92514 0
M  V30 6171 H 596.875 -1.81547 2.71493 0
M  V30 6172 H 595.534 0.0938054 3.6648 0
M  V30 6173 H 595.182 -2.2349 4.50623 0
M  V30 6174 H 594.882 -1.03121 5.78481 0
M  V30 6175 H 596.406 -1.96363 5.78164 0
M  V30 6176 H 597.82 0.307089 5.72477 0
M  V30 6177 H 596.217 1.07784 5.90341 0
M  V30 6178 H 597.287 1.58316 4.58327 0
M  V30 6179 N 598.631 -1.53133 0.372548 0
M  V30 6180 C 600.042 -1.86404 -0.105155 0
M  V30 6181 C 600.393 -1.29289 -1.47576 0
M  V30 6182 O 599.518 -0.617646 -2.07398 0
M  V30 6183 C 600.113 -3.38223 -0.197588 0
M  V30 6184 C 598.672 -3.71266 -0.619556 0
M  V30 6185 C 597.819 -2.76353 0.228919 0
M  V30 6186 H 600.77 -1.47282 0.591077 0
M  V30 6187 H 600.791 -3.66577 -1.01987 0
M  V30 6188 H 600.303 -3.79763 0.800099 0
M  V30 6189 H 598.404 -3.35287 -1.62522 0
M  V30 6190 H 598.517 -4.77515 -0.389332 0
M  V30 6191 H 596.881 -2.52888 -0.303271 0
M  V30 6192 H 597.664 -3.20728 1.22428 0
M  V30 6193 N 600.109 -0.101901 -1.5727 0
M  V30 6194 C 601.072 0.840129 -2.13247 0
M  V30 6195 C 602.072 1.20625 -1.06331 0
M  V30 6196 O 603.262 1.13456 -1.32186 0
M  V30 6197 C 600.394 2.13372 -2.65867 0
M  V30 6198 H 601.587 0.353945 -2.97804 0
M  V30 6199 H 599.14 0.147167 -1.55606 0
M  V30 6200 H 599.875 2.66461 -1.84849 0
M  V30 6201 H 599.66 1.88085 -3.44044 0
M  V30 6202 H 601.15 2.80748 -3.09145 0
M  V30 6203 N 601.587 1.56661 0.17182 0
M  V30 6204 C 602.836 1.81158 0.886831 0
M  V30 6205 C 603.149 0.679072 1.83434 0
M  V30 6206 O 604.355 0.808964 2.59168 0
M  V30 6207 C 602.811 3.20999 1.6275 0
M  V30 6208 C 602.419 4.42117 0.723652 0
M  V30 6209 C 604.163 3.5479 2.33076 0
M  V30 6210 C 602.07 5.7298 1.46452 0
M  V30 6211 H 601 0.675543 0.334899 0
M  V30 6212 H 603.651 1.82967 0.139765 0
M  V30 6213 H 602.033 3.13506 2.4193 0
M  V30 6214 H 603.207 4.60789 -0.0311485 0
M  V30 6215 H 601.522 4.16197 0.130063 0
M  V30 6216 H 604.119 4.49806 2.89099 0
M  V30 6217 H 604.462 2.79646 3.08389 0
M  V30 6218 H 604.995 3.63834 1.6084 0
M  V30 6219 H 601.734 6.51152 0.753729 0
M  V30 6220 H 601.254 5.58285 2.19266 0
M  V30 6221 H 602.933 6.14916 2.01214 0
M  V30 6222 N 603.065 -0.440357 1.51323 0
M  V30 6223 C 604.313 -1.18769 1.63518 0
M  V30 6224 C 604.634 -1.91793 0.352201 0
M  V30 6225 O 603.904 -1.85432 -0.631811 0
M  V30 6226 H 602.484 -0.441408 0.602634 0
M  V30 6227 H 605.146 -0.505162 1.8824 0
M  V30 6228 H 604.242 -1.91892 2.46138 0
M  V30 6229 N 604.543 -1.41418 -0.695603 0
M  V30 6230 C 605.771 -1.4413 -1.48439 0
M  V30 6231 C 606.186 -0.0465698 -1.88743 0
M  V30 6232 O 605.543 0.934117 -1.56782 0
M  V30 6233 C 605.594 -2.34998 -2.74696 0
M  V30 6234 O 605.315 -3.69043 -2.36091 0
M  V30 6235 C 606.816 -2.46513 -3.68438 0
M  V30 6236 H 604.036 -0.490905 -0.457442 0
M  V30 6237 H 606.58 -1.85702 -0.856454 0
M  V30 6238 H 604.735 -1.96735 -3.33728 0
M  V30 6239 H 605.149 -4.17505 -3.17474 0
M  V30 6240 H 606.623 -3.1426 -4.53811 0
M  V30 6241 H 607.1 -1.49638 -4.12922 0
M  V30 6242 H 607.706 -2.85412 -3.1531 0
M  V30 6243 N 606.021 0.929856 -1.27246 0
M  V30 6244 C 607.269 1.674 -1.13233 0
M  V30 6245 C 607.59 1.92311 0.322744 0
M  V30 6246 O 606.86 1.52784 1.22612 0
M  V30 6247 H 605.44 0.620411 -0.416052 0
M  V30 6248 H 608.102 1.11663 -1.59741 0
M  V30 6249 H 607.198 2.64308 -1.65975 0
M  V30 6250 N 607.499 1.09233 1.13605 0
M  V30 6251 C 608.447 0.724572 2.21027 0
M  V30 6252 C 609.441 -0.273595 1.67176 0
M  V30 6253 O 610.647 -0.135266 1.79491 0
M  V30 6254 H 607.022 0.216319 0.720215 0
M  V30 6255 H 608.993 1.63975 2.49309 0
M  V30 6256 C 607.742 0.159126 3.47336 0
M  V30 6257 H 607.065 0.918387 3.89109 0
M  V30 6258 H 608.505 -0.0602851 4.23957 0
M  V30 6259 C 606.964 -1.10514 3.18258 0
M  V30 6260 O 607.494 -2.18869 3.36837 0
M  V30 6261 N 605.7 -1.01886 2.72154 0
M  V30 6262 H 605.247 -0.137027 2.57235 0
M  V30 6263 H 605.205 -1.8655 2.53074 0
M  V30 6264 N 608.977 -1.30795 0.87923 0
M  V30 6265 C 609.94 -2.26563 0.346676 0
M  V30 6266 C 610.94 -1.52578 -0.507597 0
M  V30 6267 O 612.13 -1.71318 -0.315575 0
M  V30 6268 C 609.262 -3.37115 -0.506611 0
M  V30 6269 H 610.455 -2.75183 1.19223 0
M  V30 6270 H 608.008 -1.41886 0.655598 0
M  V30 6271 H 608.743 -2.93802 -1.37299 0
M  V30 6272 H 608.528 -3.91959 0.105218 0
M  V30 6273 H 610.018 -4.08412 -0.871192 0
M  V30 6274 N 610.455 -0.639598 -1.44038 0
M  V30 6275 C 611.703 -0.147188 -2.01563 0
M  V30 6276 C 612.024 1.2384 -1.50628 0
M  V30 6277 O 611.294 1.82452 -0.713316 0
M  V30 6278 H 609.874 -0.0514231 -0.745228 0
M  V30 6279 H 612.536 -0.828205 -1.76428 0
M  V30 6280 H 611.632 -0.121358 -3.11864 0
M  V30 6281 N 611.933 1.52934 -0.380664 0
M  V30 6282 C 612.88 2.26197 0.458641 0
M  V30 6283 C 613.85 1.27462 1.06502 0
M  V30 6284 O 615.035 1.56274 1.09467 0
M  V30 6285 C 612.175 3.06571 1.58456 0
M  V30 6286 C 611.288 4.20222 1.00189 0
M  V30 6287 C 610.423 4.88007 2.09815 0
M  V30 6288 C 609.462 5.93665 1.49092 0
M  V30 6289 N 608.599 6.55081 2.52613 0
M  V30 6290 H 613.439 2.975 -0.172595 0
M  V30 6291 H 610.976 1.4678 -0.0969426 0
M  V30 6292 H 612.934 3.51455 2.24801 0
M  V30 6293 H 611.564 2.37494 2.18624 0
M  V30 6294 H 610.616 3.79714 0.228292 0
M  V30 6295 H 611.928 4.96102 0.518064 0
M  V30 6296 H 611.082 5.36151 2.83948 0
M  V30 6297 H 609.821 4.11632 2.61555 0
M  V30 6298 H 608.826 5.44868 0.7348 0
M  V30 6299 H 610.051 6.71969 0.981582 0
M  V30 6300 H 607.997 5.8155 3.03538 0
M  V30 6301 H 607.914 7.26548 2.08961 0
M  V30 6302 H 609.182 7.07871 3.26402 0
M  V30 6303 N 613.412 0.11024 1.57214 0
M  V30 6304 C 614.36 -0.860586 2.16094 0
M  V30 6305 C 615.354 -1.28156 1.1078 0
M  V30 6306 O 616.56 -1.25433 1.29099 0
M  V30 6307 H 612.935 -0.295606 0.691463 0
M  V30 6308 H 614.906 -0.33942 2.96463 0
M  V30 6309 C 613.655 -2.10421 2.768 0
M  V30 6310 H 612.978 -1.7892 3.5753 0
M  V30 6311 H 614.418 -2.76375 3.21547 0
M  V30 6312 C 612.877 -2.88823 1.73444 0
M  V30 6313 O 613.407 -3.839 1.18251 0
M  V30 6314 N 611.613 -2.52649 1.43586 0
M  V30 6315 H 611.16 -1.754 1.8866 0
M  V30 6316 H 611.118 -3.05403 0.746735 0
M  V30 6317 N 614.89 -1.56749 -0.16351 0
M  V30 6318 C 616.301 -1.72039 -0.725216 0
M  V30 6319 C 616.652 -0.72202 -1.82432 0
M  V30 6320 O 615.777 0.114942 -2.16095 0
M  V30 6321 C 616.372 -3.11932 -1.32227 0
M  V30 6322 C 614.931 -3.28879 -1.83072 0
M  V30 6323 C 614.078 -2.67984 -0.712716 0
M  V30 6324 H 617.029 -1.58579 0.0619772 0
M  V30 6325 H 617.05 -3.11015 -2.19202 0
M  V30 6326 H 616.562 -3.84572 -0.522103 0
M  V30 6327 H 614.663 -2.61209 -2.65708 0
M  V30 6328 H 614.776 -4.36688 -1.97079 0
M  V30 6329 H 613.14 -2.28005 -1.13515 0
M  V30 6330 H 613.923 -3.43216 0.0757361 0
M  V30 6331 N 616.368 0.432326 -1.51554 0
M  V30 6332 C 617.617 1.17831 -1.63703 0
M  V30 6333 C 617.93 1.92229 -0.36156 0
M  V30 6334 O 619.136 2.69069 -0.362495 0
M  V30 6335 C 617.592 2.14318 -2.89129 0
M  V30 6336 C 617.2 1.45544 -4.23699 0
M  V30 6337 C 618.944 2.89319 -3.10636 0
M  V30 6338 C 616.851 2.40545 -5.4027 0
M  V30 6339 H 615.781 0.443533 -0.60975 0
M  V30 6340 H 618.432 0.444878 -1.78026 0
M  V30 6341 H 616.814 2.91117 -2.68452 0
M  V30 6342 H 617.988 0.742693 -4.54775 0
M  V30 6343 H 616.303 0.826772 -4.0811 0
M  V30 6344 H 618.9 3.60495 -3.94902 0
M  V30 6345 H 619.243 3.50951 -2.23918 0
M  V30 6346 H 619.776 2.19625 -3.31677 0
M  V30 6347 H 616.515 1.83594 -6.29264 0
M  V30 6348 H 616.035 3.09859 -5.13563 0
M  V30 6349 H 617.714 3.01569 -5.72421 0
M  V30 6350 N 617.846 1.41785 0.688094 0
M  V30 6351 C 619.074 1.44915 1.47673 0
M  V30 6352 C 619.489 0.0565786 1.88715 0
M  V30 6353 O 618.846 -0.92579 1.57275 0
M  V30 6354 C 618.897 2.36452 2.73446 0
M  V30 6355 O 618.618 3.7029 2.34131 0
M  V30 6356 C 620.119 2.48463 3.67125 0
M  V30 6357 H 617.339 0.493324 0.454832 0
M  V30 6358 H 619.883 1.86153 0.846594 0
M  V30 6359 H 618.038 1.98502 3.3268 0
M  V30 6360 H 618.452 4.19183 3.15255 0
M  V30 6361 H 619.926 3.16662 4.52138 0
M  V30 6362 H 620.403 1.51826 4.12123 0
M  V30 6363 H 621.009 2.8708 3.13792 0
M  V30 6364 N 619.324 -0.923095 1.27737 0
M  V30 6365 C 620.57 -1.67375 1.14514 0
M  V30 6366 C 620.903 -1.91751 -0.307424 0
M  V30 6367 O 620.178 -1.51119 -1.22447 0
M  V30 6368 C 620.461 -3.03745 1.9342 0
M  V30 6369 C 620.314 -2.86581 3.46686 0
M  V30 6370 C 621.633 -4.04144 1.74228 0
M  V30 6371 H 618.752 -0.607427 0.417374 0
M  V30 6372 H 621.394 -1.07089 1.56946 0
M  V30 6373 H 619.544 -3.55204 1.5736 0
M  V30 6374 H 621.216 -2.42203 3.92601 0
M  V30 6375 H 619.459 -2.21829 3.72793 0
M  V30 6376 H 620.13 -3.83381 3.97143 0
M  V30 6377 H 622.606 -3.61712 2.05678 0
M  V30 6378 H 621.482 -4.97543 2.31824 0
M  V30 6379 H 621.743 -4.36661 0.691373 0
M  V30 6380 N 620.802 -1.09834 -1.13024 0
M  V30 6381 C 621.765 -0.745058 -2.16752 0
M  V30 6382 C 622.765 0.227435 -1.59183 0
M  V30 6383 O 623.955 0.0050786 -1.74199 0
M  V30 6384 C 621.087 -0.102543 -3.40746 0
M  V30 6385 H 622.28 -1.66375 -2.49518 0
M  V30 6386 H 619.833 -0.898061 -1.27924 0
M  V30 6387 H 620.568 0.827177 -3.13573 0
M  V30 6388 H 620.353 -0.80235 -3.83803 0
M  V30 6389 H 621.843 0.129082 -4.174 0
M  V30 6390 N 622.28 1.30327 -0.886154 0
M  V30 6391 C 623.557 1.90922 -0.425217 0
M  V30 6392 C 623.937 1.80533 1.09413 0
M  V30 6393 O 623.285 1.2233 1.92996 0
M  V30 6394 C 623.495 3.36529 -0.924638 0
M  V30 6395 C 624.843 4.13598 -0.960305 0
M  V30 6396 O 625.867 3.45377 -0.871382 0
M  V30 6397 O 624.726 5.35482 -1.09184 0
M  V30 6398 H 621.82 0.81668 -0.130238 0
M  V30 6399 H 624.366 1.38886 -0.975132 0
M  V30 6400 H 623.138 3.38181 -1.96849 0
M  V30 6401 H 622.761 3.96021 -0.353955 0
M  V30 6402 N 623.758 0.647228 1.43697 0
M  V30 6403 C 624.706 -0.0600105 2.32523 0
M  V30 6404 C 625.7 -0.819277 1.48271 0
M  V30 6405 O 626.906 -0.730356 1.64517 0
M  V30 6406 H 623.281 -0.0381872 0.75103 0
M  V30 6407 H 625.252 0.706978 2.89904 0
M  V30 6408 C 624.001 -1.0169 3.32497 0
M  V30 6409 H 623.324 -0.442083 3.97348 0
M  V30 6410 H 624.764 -1.48095 3.97296 0
M  V30 6411 C 623.223 -2.11002 2.6264 0
M  V30 6412 O 623.753 -3.19302 2.4374 0
M  V30 6413 N 621.959 -1.87388 2.22113 0
M  V30 6414 H 621.506 -0.993174 2.37684 0
M  V30 6415 H 621.464 -2.60723 1.75701 0
M  V30 6416 N 625.236 -1.5273 0.388769 0
M  V30 6417 C 626.485 -2.00757 -0.194833 0
M  V30 6418 C 626.798 -1.27951 -1.47946 0
M  V30 6419 O 628.004 -1.66686 -2.14308 0
M  V30 6420 C 626.46 -3.57695 -0.397762 0
M  V30 6421 C 626.068 -4.394 0.873583 0
M  V30 6422 C 627.812 -4.14012 -0.937759 0
M  V30 6423 C 625.719 -5.87938 0.638962 0
M  V30 6424 H 624.649 -0.750101 -0.0765845 0
M  V30 6425 H 627.3 -1.76239 0.511086 0
M  V30 6426 H 625.682 -3.7846 -1.16552 0
M  V30 6427 H 626.856 -4.30403 1.64591 0
M  V30 6428 H 625.171 -3.94301 1.33849 0
M  V30 6429 H 627.768 -5.22645 -1.12899 0
M  V30 6430 H 628.111 -3.7007 -1.90666 0
M  V30 6431 H 628.644 -3.97137 -0.229588 0
M  V30 6432 H 625.383 -6.36202 1.57885 0
M  V30 6433 H 624.903 -5.99726 -0.094443 0
M  V30 6434 H 626.582 -6.46423 0.273299 0
M  V30 6435 N 626.714 -0.118576 -1.57153 0
M  V30 6436 C 627.963 0.539339 -1.94355 0
M  V30 6437 C 628.276 1.67858 -1.00415 0
M  V30 6438 O 629.482 2.39922 -1.27081 0
M  V30 6439 C 627.938 1.01082 -3.45414 0
M  V30 6440 C 627.546 -0.0999402 -4.47889 0
M  V30 6441 C 629.29 1.64013 -3.91535 0
M  V30 6442 C 627.197 0.388212 -5.90124 0
M  V30 6443 H 626.127 0.205247 -0.725527 0
M  V30 6444 H 628.778 -0.19836 -1.82425 0
M  V30 6445 H 627.16 1.80292 -3.52577 0
M  V30 6446 H 628.334 -0.876189 -4.52393 0
M  V30 6447 H 626.649 -0.635885 -4.11516 0
M  V30 6448 H 629.246 2.01649 -4.95219 0
M  V30 6449 H 629.589 2.51836 -3.31488 0
M  V30 6450 H 630.122 0.913439 -3.87171 0
M  V30 6451 H 626.861 -0.453963 -6.53926 0
M  V30 6452 H 626.381 1.13095 -5.89041 0
M  V30 6453 H 628.06 0.849574 -6.41398 0
M  V30 6454 N 628.193 1.56834 0.155195 0
M  V30 6455 C 629.47 1.73799 0.897395 0
M  V30 6456 C 629.85 0.684379 1.99698 0
M  V30 6457 O 629.198 -0.298111 2.26547 0
M  V30 6458 C 629.408 3.17572 1.44737 0
M  V30 6459 C 630.756 3.79014 1.91399 0
M  V30 6460 O 631.78 3.20951 1.54496 0
M  V30 6461 O 630.639 4.80998 2.59429 0
M  V30 6462 H 627.733 0.710329 0.423511 0
M  V30 6463 H 630.279 1.69107 0.141761 0
M  V30 6464 H 629.051 3.85749 0.656741 0
M  V30 6465 H 628.674 3.26657 2.26674 0
M  V30 6466 N 629.671 -0.424282 1.51781 0
M  V30 6467 C 630.634 -1.49848 1.73431 0
M  V30 6468 C 631.634 -1.49016 0.604225 0
M  V30 6469 O 632.824 -1.50808 0.871935 0
M  V30 6470 C 629.956 -2.89332 1.80277 0
M  V30 6471 H 631.149 -1.3195 2.69312 0
M  V30 6472 H 628.702 -0.653809 1.41968 0
M  V30 6473 H 629.437 -3.12618 0.862568 0
M  V30 6474 H 629.222 -2.9134 2.62419 0
M  V30 6475 H 630.712 -3.67233 1.98821 0
M  V30 6476 N 631.149 -1.42148 -0.680565 0
M  V30 6477 C 632.398 -1.41604 -1.43636 0
M  V30 6478 C 632.711 -0.0337887 -1.95571 0
M  V30 6479 O 633.917 0.0942588 -2.71336 0
M  V30 6480 C 632.373 -2.49056 -2.59806 0
M  V30 6481 C 631.981 -3.9326 -2.14594 0
M  V30 6482 C 633.725 -2.5767 -3.37352 0
M  V30 6483 C 631.632 -4.92232 -3.27813 0
M  V30 6484 H 630.562 -0.526656 -0.539583 0
M  V30 6485 H 633.213 -1.68033 -0.737369 0
M  V30 6486 H 631.595 -2.15782 -3.32045 0
M  V30 6487 H 632.769 -4.35858 -1.49546 0
M  V30 6488 H 631.084 -3.88443 -1.50002 0
M  V30 6489 H 633.681 -3.28794 -4.21662 0
M  V30 6490 H 634.024 -1.61837 -3.83555 0
M  V30 6491 H 634.557 -2.90109 -2.72179 0
M  V30 6492 H 631.296 -5.89522 -2.86607 0
M  V30 6493 H 630.816 -4.5427 -3.91661 0
M  V30 6494 H 632.495 -5.13684 -3.93367 0
M  V30 6495 N 632.627 0.916307 -1.28225 0
M  V30 6496 C 633.873 1.66765 -1.154 0
M  V30 6497 C 634.206 1.91912 0.297251 0
M  V30 6498 O 633.481 1.51766 1.21644 0
M  V30 6499 C 633.764 3.02715 -1.95028 0
M  V30 6500 C 633.617 2.84738 -3.48201 0
M  V30 6501 C 634.936 4.03215 -1.76369 0
M  V30 6502 H 632.055 0.605205 -0.42059 0
M  V30 6503 H 634.697 1.06255 -1.57512 0
M  V30 6504 H 632.847 3.54365 -1.59242 0
M  V30 6505 H 634.519 2.40118 -3.9388 0
M  V30 6506 H 632.762 2.19848 -3.73964 0
M  V30 6507 H 633.433 3.8127 -3.99171 0
M  V30 6508 H 635.909 3.60617 -2.07593 0
M  V30 6509 H 634.785 4.96306 -2.34459 0
M  V30 6510 H 635.046 4.36288 -0.71452 0
M  V30 6511 N 634.105 1.10431 1.1244 0
M  V30 6512 C 635.382 0.758797 1.80282 0
M  V30 6513 C 635.762 -0.754727 1.97147 0
M  V30 6514 O 635.11 -1.68094 1.54779 0
M  V30 6515 C 635.32 1.50982 3.14651 0
M  V30 6516 C 636.668 1.68232 3.8985 0
M  V30 6517 O 637.692 1.47319 3.24308 0
M  V30 6518 O 636.551 2.02905 5.07437 0
M  V30 6519 H 633.645 0.273756 0.780376 0
M  V30 6520 H 636.191 1.20713 1.19275 0
M  V30 6521 H 634.963 2.53989 2.97666 0
M  V30 6522 H 634.586 1.05435 3.83366 0
M  V30 6523 N 635.583 -1.29855 0.893053 0
M  V30 6524 C 636.83 -1.95826 0.515585 0
M  V30 6525 C 637.158 -1.70451 -0.936842 0
M  V30 6526 O 636.413 -1.00657 -1.67829 0
M  V30 6527 C 636.712 -3.49515 0.746588 0
M  V30 6528 C 636.378 -3.94955 2.17535 0
M  V30 6529 C 635.04 -4.07073 2.56603 0
M  V30 6530 C 637.392 -4.18536 3.10607 0
M  V30 6531 C 634.72 -4.40138 3.87938 0
M  V30 6532 C 637.072 -4.53073 4.41484 0
M  V30 6533 C 635.736 -4.634 4.80434 0
M  V30 6534 H 635.006 -0.71658 0.188666 0
M  V30 6535 H 637.653 -1.54574 1.13045 0
M  V30 6536 H 635.958 -3.9177 0.0487551 0
M  V30 6537 H 637.655 -3.98644 0.434009 0
M  V30 6538 H 634.245 -3.86035 1.86212 0
M  V30 6539 H 638.429 -4.08646 2.81641 0
M  V30 6540 H 633.685 -4.46335 4.17846 0
M  V30 6541 H 637.859 -4.70269 5.13634 0
M  V30 6542 H 635.486 -4.88775 5.82239 0
M  V30 6543 N 637.061 -0.65484 -1.43351 0
M  V30 6544 C 638.286 -0.175046 -2.0666 0
M  V30 6545 C 638.711 1.15104 -1.4877 0
M  V30 6546 O 638.069 1.71144 -0.598279 0
M  V30 6547 C 638.117 -0.0991544 -3.60464 0
M  V30 6548 O 637.221 0.938169 -4.01587 0
M  V30 6549 H 636.562 -0.0956148 -0.65708 0
M  V30 6550 H 639.092 -0.898222 -1.83829 0
M  V30 6551 H 639.102 0.083632 -4.07914 0
M  V30 6552 H 637.777 -1.06719 -4.01975 0
M  V30 6553 H 636.354 0.72804 -3.65724 0
M  V30 6554 N 638.539 1.52521 -0.396863 0
M  V30 6555 C 639.764 2.06571 0.185258 0
M  V30 6556 C 640.189 1.26605 1.39115 0
M  V30 6557 O 639.547 0.293055 1.78916 0
M  V30 6558 C 639.595 3.5674 0.526189 0
M  V30 6559 O 638.699 3.7929 1.61903 0
M  V30 6560 H 638.04 0.663712 0.0195474 0
M  V30 6561 H 640.57 1.966 -0.566519 0
M  V30 6562 H 640.58 4.00311 0.788338 0
M  V30 6563 H 639.255 4.14379 -0.355397 0
M  V30 6564 H 637.832 3.47605 1.35 0
M  V30 6565 N 640.017 0.126909 1.57088 0
M  V30 6566 C 640.949 -0.850973 2.12817 0
M  V30 6567 C 641.962 -1.22457 1.07276 0
M  V30 6568 O 643.151 -1.17215 1.34622 0
M  V30 6569 C 640.251 -2.15039 2.61938 0
M  V30 6570 C 639.424 -1.94726 3.91664 0
M  V30 6571 C 638.483 -3.0847 4.26301 0
M  V30 6572 O 637.509 -2.81038 4.94981 0
M  V30 6573 N 638.711 -4.35116 3.84259 0
M  V30 6574 H 641.476 -0.3748 2.97347 0
M  V30 6575 H 639.037 -0.0572793 1.61799 0
M  V30 6576 H 641.029 -2.90141 2.82135 0
M  V30 6577 H 639.599 -2.5398 1.82244 0
M  V30 6578 H 638.819 -1.03772 3.80296 0
M  V30 6579 H 640.107 -1.78469 4.76473 0
M  V30 6580 H 639.505 -4.60276 3.2888 0
M  V30 6581 H 638.062 -5.07064 4.09548 0
M  V30 6582 N 641.495 -1.56914 -0.146875 0
M  V30 6583 C 642.445 -1.94693 -1.18653 0
M  V30 6584 C 643.429 -0.81821 -1.38543 0
M  V30 6585 O 644.621 -1.08167 -1.40103 0
M  V30 6586 C 641.75 -2.33117 -2.52014 0
M  V30 6587 C 640.836 -3.5256 -2.35717 0
M  V30 6588 N 641.227 -4.69091 -1.89175 0
M  V30 6589 C 639.525 -3.57647 -2.66467 0
M  V30 6590 C 640.226 -5.51187 -1.85924 0
M  V30 6591 N 639.202 -4.92899 -2.29242 0
M  V30 6592 H 643.004 -2.82264 -0.81879 0
M  V30 6593 H 640.518 -1.58474 -0.354929 0
M  V30 6594 H 642.515 -2.58387 -3.27172 0
M  V30 6595 H 641.175 -1.46898 -2.89571 0
M  V30 6596 H 642.186 -4.92844 -1.59139 0
M  V30 6597 H 638.863 -2.81967 -3.07898 0
M  V30 6598 H 640.253 -6.54613 -1.51431 0
M  V30 6599 N 642.974 0.416227 -1.52004 0
M  V30 6600 C 644.199 1.19029 -1.69843 0
M  V30 6601 C 644.624 1.83708 -0.404103 0
M  V30 6602 O 643.982 1.69711 0.637787 0
M  V30 6603 C 644.03 2.23439 -2.83032 0
M  V30 6604 O 643.134 3.29419 -2.48106 0
M  V30 6605 H 642.475 0.347785 -0.565634 0
M  V30 6606 H 645.005 0.488871 -1.98674 0
M  V30 6607 H 645.015 2.67884 -3.07737 0
M  V30 6608 H 643.69 1.75745 -3.76944 0
M  V30 6609 H 642.267 2.90303 -2.34048 0
M  V30 6610 N 644.452 1.42507 0.673017 0
M  V30 6611 C 645.68 1.46473 1.46128 0
M  V30 6612 C 646.095 0.0765912 1.88645 0
M  V30 6613 O 645.452 -0.909057 1.58248 0
M  V30 6614 C 645.503 2.39339 2.70923 0
M  V30 6615 O 645.224 3.72752 2.3019 0
M  V30 6616 C 646.725 2.52343 3.64469 0
M  V30 6617 H 643.945 0.49812 0.449575 0
M  V30 6618 H 646.489 1.87041 0.826802 0
M  V30 6619 H 644.644 2.02019 3.30556 0
M  V30 6620 H 645.058 4.22503 3.10791 0
M  V30 6621 H 646.532 3.2144 4.48754 0
M  V30 6622 H 647.009 1.56189 4.1049 0
M  V30 6623 H 647.615 2.90392 3.10729 0
M  V30 6624 N 645.93 -0.909495 1.28709 0
M  V30 6625 C 647.341 -1.47419 1.14563 0
M  V30 6626 C 647.692 -1.94432 -0.262832 0
M  V30 6627 O 646.817 -1.82842 -1.15748 0
M  V30 6628 C 647.412 -2.67933 2.07358 0
M  V30 6629 C 645.971 -3.20568 1.97264 0
M  V30 6630 C 645.118 -1.93269 1.98852 0
M  V30 6631 H 648.069 -0.721787 1.41336 0
M  V30 6632 H 648.09 -3.43339 1.64007 0
M  V30 6633 H 647.602 -2.33685 3.09859 0
M  V30 6634 H 645.703 -3.59531 0.978157 0
M  V30 6635 H 645.816 -3.85529 2.84436 0
M  V30 6636 H 644.18 -2.10553 1.43317 0
M  V30 6637 H 644.963 -1.61312 3.0304 0
M  V30 6638 N 647.408 -1.11026 -1.11852 0
M  V30 6639 C 648.633 -0.879064 -1.87849 0
M  V30 6640 C 649.058 0.565406 -1.79401 0
M  V30 6641 O 648.416 1.39886 -1.15333 0
M  V30 6642 C 648.464 -1.33985 -3.34784 0
M  V30 6643 O 647.568 -0.508803 -4.09249 0
M  V30 6644 H 646.909 -0.316992 -0.583448 0
M  V30 6645 H 649.439 -1.47863 -1.41413 0
M  V30 6646 H 649.449 -1.33248 -3.85628 0
M  V30 6647 H 648.124 -2.39172 -3.40249 0
M  V30 6648 H 646.701 -0.581913 -3.68332 0
M  V30 6649 N 648.886 1.2938 -0.899927 0
M  V30 6650 C 649.816 2.30144 -0.39446 0
M  V30 6651 C 650.797 1.61611 0.530639 0
M  V30 6652 O 651.982 1.89119 0.441319 0
M  V30 6653 C 649.112 3.45229 0.37868 0
M  V30 6654 C 648.066 4.25564 -0.456012 0
M  V30 6655 C 647.392 5.32848 0.444637 0
M  V30 6656 C 648.692 4.93651 -1.70605 0
M  V30 6657 H 650.386 2.72673 -1.23653 0
M  V30 6658 H 647.932 1.31086 -0.596034 0
M  V30 6659 H 649.885 4.14797 0.743037 0
M  V30 6660 H 648.609 3.01545 1.25453 0
M  V30 6661 H 647.268 3.57704 -0.802704 0
M  V30 6662 H 646.916 4.85408 1.31863 0
M  V30 6663 H 646.616 5.87497 -0.110154 0
M  V30 6664 H 648.14 6.05268 0.805182 0
M  V30 6665 H 649.554 5.55655 -1.41141 0
M  V30 6666 H 647.951 5.58233 -2.20217 0
M  V30 6667 H 649.021 4.18926 -2.4419 0
M  V30 6668 N 650.364 0.662433 1.43002 0
M  V30 6669 C 651.311 -0.0235324 2.30788 0
M  V30 6670 C 652.281 -0.805342 1.4527 0
M  V30 6671 O 653.466 -0.78009 1.74124 0
M  V30 6672 C 650.606 -0.977545 3.30965 0
M  V30 6673 C 649.719 -0.190865 4.31578 0
M  V30 6674 C 648.854 -1.13951 5.18834 0
M  V30 6675 C 647.893 -0.343796 6.11134 0
M  V30 6676 N 647.03 -1.2445 6.90982 0
M  V30 6677 H 651.87 0.730921 2.88897 0
M  V30 6678 H 649.407 0.372197 1.42313 0
M  V30 6679 H 651.365 -1.54437 3.87563 0
M  V30 6680 H 649.995 -1.69877 2.74484 0
M  V30 6681 H 649.047 0.492388 3.772 0
M  V30 6682 H 650.359 0.427464 4.96965 0
M  V30 6683 H 649.513 -1.77666 5.80103 0
M  V30 6684 H 648.252 -1.79174 4.53595 0
M  V30 6685 H 647.257 0.30665 5.48944 0
M  V30 6686 H 648.482 0.304161 6.78419 0
M  V30 6687 H 646.428 -1.88336 6.28383 0
M  V30 6688 H 646.345 -0.680959 7.52927 0
M  V30 6689 H 647.613 -1.86952 7.56749 0
M  V30 6690 N 651.842 -1.52309 0.404946 0
M  V30 6691 C 653.07 -2.06185 -0.171818 0
M  V30 6692 C 653.485 -1.27536 -1.39212 0
M  V30 6693 O 652.842 -0.326112 -1.79563 0
M  V30 6694 C 652.893 -3.57647 -0.526417 0
M  V30 6695 O 652.614 -4.3332 0.645417 0
M  V30 6696 C 654.115 -4.27925 -1.15736 0
M  V30 6697 H 651.335 -0.670632 -0.0222328 0
M  V30 6698 H 653.879 -1.96259 0.574692 0
M  V30 6699 H 652.034 -3.67595 -1.22282 0
M  V30 6700 H 652.448 -5.23328 0.35042 0
M  V30 6701 H 653.922 -5.35093 -1.35572 0
M  V30 6702 H 654.399 -3.84134 -2.12926 0
M  V30 6703 H 655.005 -4.22335 -0.501281 0
M  V30 6704 N 653.32 -0.135238 -1.57019 0
M  V30 6705 C 654.566 0.519563 -1.96032 0
M  V30 6706 C 654.899 1.65284 -1.01955 0
M  V30 6707 O 654.174 1.94408 -0.059727 0
M  V30 6708 C 654.457 1.0369 -3.44848 0
M  V30 6709 C 654.31 -0.0940754 -4.49702 0
M  V30 6710 C 655.629 1.92254 -3.95887 0
M  V30 6711 H 652.748 0.18739 -0.712779 0
M  V30 6712 H 655.39 -0.214086 -1.8879 0
M  V30 6713 H 653.54 1.66209 -3.5115 0
M  V30 6714 H 655.212 -0.73 -4.55487 0
M  V30 6715 H 653.455 -0.754924 -4.27181 0
M  V30 6716 H 654.126 0.309419 -5.51132 0
M  V30 6717 H 656.602 1.39581 -3.9199 0
M  V30 6718 H 655.478 2.25364 -5.00502 0
M  V30 6719 H 655.739 2.85513 -3.37543 0
M  V30 6720 N 654.798 1.5699 0.138552 0
M  V30 6721 C 655.745 1.98899 1.17081 0
M  V30 6722 C 656.715 0.857922 1.42228 0
M  V30 6723 O 657.9 1.12065 1.54422 0
M  V30 6724 C 655.04 2.38189 2.4972 0
M  V30 6725 C 654.153 3.64624 2.31674 0
M  V30 6726 C 653.288 3.9298 3.57407 0
M  V30 6727 C 652.327 5.1266 3.34435 0
M  V30 6728 N 651.464 5.36983 4.5232 0
M  V30 6729 H 656.304 2.86881 0.80642 0
M  V30 6730 H 653.841 1.41925 0.386727 0
M  V30 6731 H 655.799 2.59 3.2707 0
M  V30 6732 H 654.429 1.53275 2.84089 0
M  V30 6733 H 653.481 3.51542 1.45337 0
M  V30 6734 H 654.793 4.52131 2.10664 0
M  V30 6735 H 653.947 4.14335 4.43183 0
M  V30 6736 H 652.686 3.03912 3.8143 0
M  V30 6737 H 651.691 4.9117 2.47048 0
M  V30 6738 H 652.916 6.03288 3.11802 0
M  V30 6739 H 650.862 4.50871 4.76499 0
M  V30 6740 H 650.779 6.18775 4.34343 0
M  V30 6741 H 652.047 5.62842 5.39285 0
M  V30 6742 N 656.276 -0.40816 1.52223 0
M  V30 6743 C 657.522 -1.15673 1.66576 0
M  V30 6744 C 657.855 -1.90141 0.394996 0
M  V30 6745 O 657.13 -1.84798 -0.606613 0
M  V30 6746 C 657.413 -2.15042 2.88841 0
M  V30 6747 C 657.266 -1.44465 4.25969 0
M  V30 6748 C 658.585 -3.15699 3.0663 0
M  V30 6749 H 655.704 -0.41916 0.606196 0
M  V30 6750 H 658.346 -0.442348 1.84779 0
M  V30 6751 H 656.496 -2.75964 2.73452 0
M  V30 6752 H 658.168 -0.866544 4.53088 0
M  V30 6753 H 656.411 -0.746612 4.27327 0
M  V30 6754 H 657.082 -2.16976 5.07568 0
M  V30 6755 H 659.558 -2.64854 3.20923 0
M  V30 6756 H 658.434 -3.82491 3.9369 0
M  V30 6757 H 658.695 -3.83481 2.19987 0
M  V30 6758 N 657.755 -1.42862 -0.66545 0
M  V30 6759 C 659.001 -1.44043 -1.42757 0
M  V30 6760 C 659.334 -0.0599629 -1.94107 0
M  V30 6761 O 658.609 0.917286 -1.71511 0
M  V30 6762 C 658.892 -2.47266 -2.61786 0
M  V30 6763 C 658.745 -3.94539 -2.16007 0
M  V30 6764 C 660.064 -2.47365 -3.64003 0
M  V30 6765 H 657.183 -0.524506 -0.517748 0
M  V30 6766 H 659.825 -1.74335 -0.755466 0
M  V30 6767 H 657.975 -2.21565 -3.19126 0
M  V30 6768 H 659.647 -4.31254 -1.63762 0
M  V30 6769 H 657.89 -4.07957 -1.47491 0
M  V30 6770 H 658.561 -4.62357 -3.01546 0
M  V30 6771 H 661.037 -2.70243 -3.16399 0
M  V30 6772 H 659.913 -3.21552 -4.44854 0
M  V30 6773 H 660.174 -1.50299 -4.15767 0
M  V30 6774 N 659.233 0.902656 -1.29189 0
M  V30 6775 C 660.482 1.6475 -1.16362 0
M  V30 6776 C 660.795 1.93517 0.284682 0
M  V30 6777 O 662.001 2.66192 0.534229 0
M  V30 6778 C 660.457 2.96848 -2.03493 0
M  V30 6779 C 660.065 2.75687 -3.5313 0
M  V30 6780 C 661.809 3.74762 -1.99383 0
M  V30 6781 C 659.716 4.03492 -4.32375 0
M  V30 6782 H 658.646 0.618041 -0.431904 0
M  V30 6783 H 661.297 1.0008 -1.53806 0
M  V30 6784 H 659.679 3.62715 -1.58916 0
M  V30 6785 H 660.853 2.18431 -4.05739 0
M  V30 6786 H 659.168 2.11171 -3.58881 0
M  V30 6787 H 661.765 4.69515 -2.5585 0
M  V30 6788 H 662.108 4.04767 -0.973123 0
M  V30 6789 H 662.641 3.15732 -2.41988 0
M  V30 6790 H 659.38 3.78656 -5.3507 0
M  V30 6791 H 658.9 4.60318 -3.84535 0
M  V30 6792 H 660.579 4.71662 -4.42881 0
M  V30 6793 N 660.711 1.11618 1.11262 0
M  V30 6794 C 661.958 0.86618 1.8304 0
M  V30 6795 C 662.286 -0.608149 1.84748 0
M  V30 6796 O 661.541 -1.46508 1.29745 0
M  V30 6797 C 661.84 1.37529 3.2988 0
M  V30 6798 C 661.506 2.86317 3.4833 0
M  V30 6799 C 660.168 3.26945 3.53073 0
M  V30 6800 C 662.52 3.82136 3.54431 0
M  V30 6801 C 659.848 4.62117 3.61475 0
M  V30 6802 C 662.2 5.17128 3.64365 0
M  V30 6803 C 660.864 5.57312 3.67369 0
M  V30 6804 H 660.134 0.316958 0.66979 0
M  V30 6805 H 662.781 1.3949 1.31205 0
M  V30 6806 H 661.086 0.766842 3.84222 0
M  V30 6807 H 662.783 1.15817 3.83911 0
M  V30 6808 H 659.373 2.53889 3.45309 0
M  V30 6809 H 663.557 3.51847 3.50025 0
M  V30 6810 H 658.813 4.92655 3.62079 0
M  V30 6811 H 662.987 5.91208 3.68029 0
M  V30 6812 H 660.614 6.62045 3.73632 0
M  V30 6813 N 662.189 -1.289 0.906776 0
M  V30 6814 C 663.121 -2.26556 0.347159 0
M  V30 6815 C 664.134 -1.54589 -0.51049 0
M  V30 6816 O 665.323 -1.75489 -0.326501 0
M  V30 6817 C 662.423 -3.3484 -0.523024 0
M  V30 6818 C 661.596 -4.36296 0.310515 0
M  V30 6819 C 660.655 -5.23879 -0.493634 0
M  V30 6820 O 659.681 -5.69127 0.0913569 0
M  V30 6821 N 660.883 -5.51946 -1.7982 0
M  V30 6822 H 663.648 -2.75212 1.18652 0
M  V30 6823 H 661.209 -1.42309 0.771996 0
M  V30 6824 H 663.201 -3.90366 -1.06756 0
M  V30 6825 H 661.771 -2.85946 -1.26309 0
M  V30 6826 H 660.991 -3.80331 1.03644 0
M  V30 6827 H 662.279 -5.01113 0.881106 0
M  V30 6828 H 661.677 -5.17006 -2.2961 0
M  V30 6829 H 660.234 -6.10258 -2.28971 0
M  V30 6830 N 663.667 -0.670007 -1.42649 0
M  V30 6831 C 665.078 -0.268118 -1.84765 0
M  V30 6832 C 665.429 1.18877 -1.56086 0
M  V30 6833 O 664.554 1.90947 -1.01825 0
M  V30 6834 C 665.149 -0.47984 -3.35385 0
M  V30 6835 C 663.708 -0.132116 -3.76168 0
M  V30 6836 C 662.855 -0.774611 -2.66261 0
M  V30 6837 H 665.806 -0.872509 -1.32563 0
M  V30 6838 H 665.827 0.269522 -3.79544 0
M  V30 6839 H 665.339 -1.54026 -3.56227 0
M  V30 6840 H 663.44 0.92505 -3.60934 0
M  V30 6841 H 663.553 -0.569294 -4.75706 0
M  V30 6842 H 661.917 -0.206353 -2.53863 0
M  V30 6843 H 662.7 -1.83839 -2.89928 0
M  V30 6844 N 665.145 1.52092 -0.413018 0
M  V30 6845 C 666.055 2.30858 0.417318 0
M  V30 6846 C 667.071 1.38746 1.05003 0
M  V30 6847 O 668.247 1.71821 1.05069 0
M  V30 6848 C 665.312 3.11756 1.51687 0
M  V30 6849 C 664.373 4.19613 0.906825 0
M  V30 6850 C 663.606 4.96644 1.95399 0
M  V30 6851 O 663.829 4.7402 3.17271 0
M  V30 6852 O 662.763 5.81385 1.55805 0
M  V30 6853 H 666.589 3.02865 -0.225028 0
M  V30 6854 H 664.174 1.48358 -0.176126 0
M  V30 6855 H 666.056 3.62122 2.15512 0
M  V30 6856 H 664.731 2.42539 2.14375 0
M  V30 6857 H 663.638 3.73385 0.231183 0
M  V30 6858 H 664.971 4.91134 0.323814 0
M  V30 6859 N 666.623 0.143563 1.56945 0
M  V30 6860 C 667.553 -0.7936 2.196 0
M  V30 6861 C 668.534 -1.25955 1.14321 0
M  V30 6862 O 669.719 -1.31773 1.42651 0
M  V30 6863 C 666.849 -2.03424 2.81489 0
M  V30 6864 C 665.803 -1.70519 3.92565 0
M  V30 6865 C 665.129 -3.01817 4.41373 0
M  V30 6866 C 666.429 -0.95449 5.13504 0
M  V30 6867 H 668.123 -0.271423 2.98167 0
M  V30 6868 H 665.669 -0.12911 1.4342 0
M  V30 6869 H 667.622 -2.69463 3.23987 0
M  V30 6870 H 666.346 -2.58008 2.00248 0
M  V30 6871 H 665.005 -1.06859 3.5068 0
M  V30 6872 H 664.653 -3.54386 3.56959 0
M  V30 6873 H 664.353 -2.80565 5.16292 0
M  V30 6874 H 665.877 -3.68934 4.86539 0
M  V30 6875 H 667.291 -1.5169 5.52868 0
M  V30 6876 H 665.688 -0.842035 5.94163 0
M  V30 6877 H 666.758 0.0544033 4.84869 0
M  V30 6878 N 668.101 -1.57061 -0.130224 0
M  V30 6879 C 669.031 -2.02552 -1.16168 0
M  V30 6880 C 670.012 -0.907971 -1.4384 0
M  V30 6881 O 671.197 -1.17693 -1.54473 0
M  V30 6882 C 668.327 -2.42035 -2.49071 0
M  V30 6883 C 667.281 -3.5713 -2.35886 0
M  V30 6884 C 666.607 -3.82478 -3.7365 0
M  V30 6885 C 667.907 -4.89236 -1.8288 0
M  V30 6886 H 669.601 -2.8897 -0.783359 0
M  V30 6887 H 667.147 -1.39021 -0.375376 0
M  V30 6888 H 669.1 -2.72462 -3.21469 0
M  V30 6889 H 667.824 -1.52573 -2.88771 0
M  V30 6890 H 666.483 -3.26895 -1.65938 0
M  V30 6891 H 666.131 -2.9024 -4.10816 0
M  V30 6892 H 665.831 -4.59944 -3.65685 0
M  V30 6893 H 667.355 -4.15347 -4.47571 0
M  V30 6894 H 668.769 -5.18272 -2.45085 0
M  V30 6895 H 667.166 -5.70624 -1.85763 0
M  V30 6896 H 668.236 -4.78494 -0.785571 0
M  V30 6897 N 669.579 0.400081 -1.52437 0
M  V30 6898 C 670.527 1.50851 -1.7705 0
M  V30 6899 C 671.521 1.56928 -0.637969 0
M  V30 6900 O 672.727 1.60226 -0.820212 0
M  V30 6901 H 669.102 0.50186 -0.560036 0
M  V30 6902 H 671.073 1.27281 -2.69893 0
M  V30 6903 C 669.822 2.88117 -1.94638 0
M  V30 6904 H 669.145 2.84187 -2.81208 0
M  V30 6905 H 670.585 3.64942 -2.15855 0
M  V30 6906 C 669.044 3.29206 -0.715899 0
M  V30 6907 O 669.574 4.01544 0.111944 0
M  V30 6908 N 667.78 2.85363 -0.549191 0
M  V30 6909 H 667.327 2.26664 -1.22397 0
M  V30 6910 H 667.285 3.13214 0.27278 0
M  V30 6911 N 671.057 1.43213 0.657864 0
M  V30 6912 C 672.306 1.43871 1.41365 0
M  V30 6913 C 672.619 0.064898 1.95492 0
M  V30 6914 O 673.825 -0.0510796 2.71452 0
M  V30 6915 C 672.281 2.53158 2.55811 0
M  V30 6916 C 671.889 3.96624 2.08311 0
M  V30 6917 C 673.633 2.63004 3.3321 0
M  V30 6918 C 671.54 4.97385 3.1994 0
M  V30 6919 H 670.47 0.535174 0.531136 0
M  V30 6920 H 673.121 1.69185 0.710543 0
M  V30 6921 H 671.503 2.21037 3.2857 0
M  V30 6922 H 672.677 4.38182 1.42593 0
M  V30 6923 H 670.992 3.90781 1.43804 0
M  V30 6924 H 673.589 3.3546 4.16378 0
M  V30 6925 H 673.932 1.67918 3.80932 0
M  V30 6926 H 674.465 2.94403 2.67529 0
M  V30 6927 H 671.204 5.94007 2.77192 0
M  V30 6928 H 670.724 4.60444 3.84385 0
M  V30 6929 H 672.403 5.19877 3.85145 0
M  V30 6930 N 672.536 -0.895792 1.29666 0
M  V30 6931 C 673.783 -1.64664 1.17864 0
M  V30 6932 C 674.111 -1.92631 -0.26902 0
M  V30 6933 O 673.366 -1.53787 -1.21029 0
M  V30 6934 C 673.665 -3.00075 1.94139 0
M  V30 6935 C 673.331 -2.91702 3.43833 0
M  V30 6936 C 671.993 -2.89126 3.84656 0
M  V30 6937 C 674.345 -2.80622 4.39205 0
M  V30 6938 C 671.673 -2.73293 5.1916 0
M  V30 6939 C 674.025 -2.66329 5.73805 0
M  V30 6940 C 672.689 -2.62121 6.1388 0
M  V30 6941 H 671.959 -0.602549 0.431295 0
M  V30 6942 H 674.606 -1.04234 1.60648 0
M  V30 6943 H 672.911 -3.64394 1.43958 0
M  V30 6944 H 674.608 -3.57111 1.82408 0
M  V30 6945 H 671.198 -2.94511 3.11386 0
M  V30 6946 H 675.382 -2.81686 4.08615 0
M  V30 6947 H 670.638 -2.68443 5.49316 0
M  V30 6948 H 674.812 -2.56727 6.47352 0
M  V30 6949 H 672.439 -2.49611 7.18052 0
M  V30 6950 N 674.014 -1.12206 -1.10668 0
M  V30 6951 C 675.244 -0.897332 -1.86095 0
M  V30 6952 C 675.652 0.556778 -1.80822 0
M  V30 6953 O 674.995 1.39658 -1.19337 0
M  V30 6954 C 675.057 -1.29095 -3.35522 0
M  V30 6955 C 674.721 -2.75586 -3.64556 0
M  V30 6956 C 675.718 -3.73785 -3.6136 0
M  V30 6957 C 673.403 -3.12432 -3.93309 0
M  V30 6958 C 675.397 -5.06845 -3.86506 0
M  V30 6959 C 673.084 -4.45675 -4.18111 0
M  V30 6960 C 674.082 -5.42691 -4.147 0
M  V30 6961 O 673.77 -6.73532 -4.38873 0
M  V30 6962 H 673.502 -0.320704 -0.595084 0
M  V30 6963 H 676.056 -1.49517 -1.40833 0
M  V30 6964 H 674.286 -0.636299 -3.81429 0
M  V30 6965 H 675.975 -1.04073 -3.92331 0
M  V30 6966 H 676.741 -3.46664 -3.39189 0
M  V30 6967 H 672.62 -2.3753 -3.95096 0
M  V30 6968 H 676.164 -5.82559 -3.83758 0
M  V30 6969 H 672.061 -4.72526 -4.39761 0
M  V30 6970 H 672.829 -6.79442 -4.564 0
M  V30 6971 N 675.492 1.28418 -0.913599 0
M  V30 6972 C 676.769 1.89977 -0.465619 0
M  V30 6973 C 677.149 1.82813 1.05559 0
M  V30 6974 O 676.497 1.26397 1.90358 0
M  V30 6975 C 676.707 3.34492 -0.995813 0
M  V30 6976 C 678.055 4.11468 -1.04782 0
M  V30 6977 O 679.079 3.43451 -0.944445 0
M  V30 6978 O 677.938 5.33046 -1.20518 0
M  V30 6979 H 675.032 0.813734 -0.147532 0
M  V30 6980 H 677.578 1.36786 -1.00437 0
M  V30 6981 H 676.35 3.33929 -2.03978 0
M  V30 6982 H 675.973 3.95181 -0.437878 0
M  V30 6983 N 676.97 0.677563 1.42291 0
M  V30 6984 C 678.195 0.207901 2.06355 0
M  V30 6985 C 678.62 -1.12723 1.50583 0
M  V30 6986 O 677.978 -1.70171 0.62543 0
M  V30 6987 C 678.026 0.156489 3.6026 0
M  V30 6988 O 677.13 -0.874162 4.03029 0
M  V30 6989 H 676.471 0.106056 0.655475 0
M  V30 6990 H 679.001 0.927354 1.82377 0
M  V30 6991 H 679.011 -0.0187258 4.07996 0
M  V30 6992 H 677.686 1.13101 4.00226 0
M  V30 6993 H 676.263 -0.669764 3.66836 0
M  V30 6994 N 678.448 -1.51871 0.421078 0
M  V30 6995 C 679.381 -2.23851 -0.443369 0
M  V30 6996 C 680.359 -1.25142 -1.03818 0
M  V30 6997 O 681.543 -1.5423 -1.08377 0
M  V30 6998 C 678.67 -2.97637 -1.61648 0
M  V30 6999 C 677.716 -4.10873 -1.14391 0
M  V30 7000 S 678.549 -5.35408 -0.0992403 0
M  V30 7001 C 679.705 -6.12726 -1.27739 0
M  V30 7002 H 679.938 -2.96826 0.167786 0
M  V30 7003 H 677.471 -1.53027 0.205461 0
M  V30 7004 H 679.429 -3.40751 -2.28909 0
M  V30 7005 H 678.09 -2.24282 -2.199 0
M  V30 7006 H 677.283 -4.61718 -2.02069 0
M  V30 7007 H 676.885 -3.69937 -0.549775 0
M  V30 7008 H 679.177 -6.40827 -2.19881 0
M  V30 7009 H 680.12 -7.03461 -0.809239 0
M  V30 7010 H 680.528 -5.43968 -1.5086 0
M  V30 7011 N 679.926 -0.151884 -1.56866 0
M  V30 7012 C 680.873 0.785936 -2.17006 0
M  V30 7013 C 681.843 1.2407 -1.10435 0
M  V30 7014 O 683.028 1.31235 -1.38499 0
M  V30 7015 C 680.168 2.01771 -2.79969 0
M  V30 7016 C 679.281 1.6083 -4.00946 0
M  V30 7017 C 678.416 2.79224 -4.51893 0
M  V30 7018 C 677.455 2.3468 -5.65324 0
M  V30 7019 N 676.592 3.461 -6.10867 0
M  V30 7020 H 681.432 0.266286 -2.96808 0
M  V30 7021 H 678.969 0.11972 -1.46612 0
M  V30 7022 H 680.927 2.73989 -3.14621 0
M  V30 7023 H 679.557 2.51139 -2.02803 0
M  V30 7024 H 678.609 0.783592 -3.72242 0
M  V30 7025 H 679.921 1.24119 -4.83111 0
M  V30 7026 H 679.075 3.59625 -4.88625 0
M  V30 7027 H 677.814 3.19183 -3.68746 0
M  V30 7028 H 676.819 1.52721 -5.28163 0
M  V30 7029 H 678.044 1.95801 -6.5026 0
M  V30 7030 H 675.99 3.85671 -5.30654 0
M  V30 7031 H 675.907 3.1342 -6.87971 0
M  V30 7032 H 677.175 4.26844 -6.52246 0
M  V30 7033 N 681.404 1.57128 0.121893 0
M  V30 7034 C 682.351 2.0013 1.14964 0
M  V30 7035 C 683.321 0.872959 1.4131 0
M  V30 7036 O 684.506 1.13696 1.53225 0
M  V30 7037 C 681.646 2.40824 2.4718 0
M  V30 7038 C 680.759 3.67061 2.27794 0
M  V30 7039 C 679.894 3.96749 3.53219 0
M  V30 7040 C 678.933 5.16178 3.28978 0
M  V30 7041 N 678.07 5.41751 4.46599 0
M  V30 7042 H 682.91 2.8772 0.775947 0
M  V30 7043 H 680.447 1.42328 0.371652 0
M  V30 7044 H 682.405 2.62454 3.24305 0
M  V30 7045 H 681.035 1.56279 2.82448 0
M  V30 7046 H 680.087 3.53063 1.416 0
M  V30 7047 H 681.399 4.5434 2.05857 0
M  V30 7048 H 680.553 4.19012 4.38764 0
M  V30 7049 H 679.292 3.07941 3.78185 0
M  V30 7050 H 678.297 4.93762 2.41824 0
M  V30 7051 H 679.522 6.06561 3.05386 0
M  V30 7052 H 677.468 4.55899 4.71691 0
M  V30 7053 H 677.385 6.23347 4.27756 0
M  V30 7054 H 678.653 5.68531 5.33285 0
M  V30 7055 N 682.882 -0.391992 1.52647 0
M  V30 7056 C 684.298 -0.731848 1.41831 0
M  V30 7057 C 684.498 -1.9423 0.536361 0
M  V30 7058 O 683.554 -2.52499 0.00866571 0
M  V30 7059 C 684.867 -0.969743 2.84634 0
M  V30 7060 C 686.415 -1.0714 2.94092 0
M  V30 7061 C 686.89 -1.34195 4.37899 0
M  V30 7062 N 688.381 -1.41023 4.41211 0
M  V30 7063 C 689.116 -1.63616 5.49561 0
M  V30 7064 N 688.612 -1.83699 6.68002 0
M  V30 7065 N 690.405 -1.65771 5.371 0
M  V30 7066 H 682.556 0.404547 2.08512 0
M  V30 7067 H 684.819 0.11879 0.940528 0
M  V30 7068 H 684.525 -0.152465 3.51369 0
M  V30 7069 H 684.399 -1.88523 3.26709 0
M  V30 7070 H 686.786 -1.87925 2.27526 0
M  V30 7071 H 686.867 -0.133887 2.55449 0
M  V30 7072 H 686.511 -0.539207 5.0503 0
M  V30 7073 H 686.441 -2.29226 4.74092 0
M  V30 7074 H 688.932 -1.27223 3.55841 0
M  V30 7075 H 689.245 -2.00437 7.46354 0
M  V30 7076 H 687.59 -1.8093 6.71036 0
M  V30 7077 H 690.781 -1.4963 4.43541 0
M  V30 7078 H 690.954 -1.83038 6.21612 0
M  V30 7079 N 684.36 -1.4356 -0.65026 0
M  V30 7080 C 685.637 -1.35811 -1.40765 0
M  V30 7081 C 686.017 -0.00736379 -2.11099 0
M  V30 7082 O 685.365 1.00932 -2.05 0
M  V30 7083 C 685.575 -2.54332 -2.3899 0
M  V30 7084 C 686.923 -2.97551 -3.02901 0
M  V30 7085 O 687.947 -2.544 -2.49317 0
M  V30 7086 O 686.806 -3.72311 -4.00059 0
M  V30 7087 H 683.9 -0.536861 -0.629054 0
M  V30 7088 H 686.446 -1.55615 -0.676919 0
M  V30 7089 H 685.218 -3.44274 -1.85986 0
M  V30 7090 H 684.841 -2.36643 -3.19509 0
M  V30 7091 N 685.838 0.888903 -1.30139 0
M  V30 7092 C 686.768 2.01046 -1.18755 0
M  V30 7093 C 687.749 1.69916 -0.0791438 0
M  V30 7094 O 688.934 1.92445 -0.260498 0
M  V30 7095 C 686.064 3.36109 -0.874518 0
M  V30 7096 C 685.018 3.81486 -1.94043 0
M  V30 7097 C 684.344 5.13796 -1.48047 0
M  V30 7098 C 685.644 4.00637 -3.35093 0
M  V30 7099 H 687.338 2.10828 -2.12584 0
M  V30 7100 H 684.884 1.01298 -1.02346 0
M  V30 7101 H 686.837 4.14089 -0.781548 0
M  V30 7102 H 685.561 3.26449 0.0994519 0
M  V30 7103 H 684.22 3.05731 -2.02297 0
M  V30 7104 H 683.868 5.0056 -0.494878 0
M  V30 7105 H 683.568 5.45127 -2.19341 0
M  V30 7106 H 685.092 5.94305 -1.40121 0
M  V30 7107 H 686.506 4.69067 -3.2962 0
M  V30 7108 H 684.903 4.43339 -4.04438 0
M  V30 7109 H 685.973 3.0462 -3.77273 0
M  V30 7110 N 687.317 1.12792 1.10072 0
M  V30 7111 C 688.542 0.908838 1.86427 0
M  V30 7112 C 688.967 -0.536793 1.80278 0
M  V30 7113 O 688.325 -1.38033 1.17543 0
M  V30 7114 C 688.373 1.39295 3.3261 0
M  V30 7115 O 687.477 0.573846 4.08388 0
M  V30 7116 H 686.818 0.326234 0.578331 0
M  V30 7117 H 689.348 1.50094 1.39043 0
M  V30 7118 H 689.358 1.39366 3.83459 0
M  V30 7119 H 688.033 2.44555 3.36401 0
M  V30 7120 H 686.61 0.640438 3.67359 0
M  V30 7121 N 688.795 -1.27931 0.920396 0
M  V30 7122 C 689.758 -2.25345 0.41858 0
M  V30 7123 C 690.758 -1.54116 -0.458798 0
M  V30 7124 O 691.948 -1.72235 -0.260912 0
M  V30 7125 C 689.08 -3.38556 -0.399104 0
M  V30 7126 H 690.273 -2.71251 1.27918 0
M  V30 7127 H 687.826 -1.39728 0.700406 0
M  V30 7128 H 688.561 -2.98021 -1.27882 0
M  V30 7129 H 688.346 -3.91426 0.229863 0
M  V30 7130 H 689.836 -4.10976 -0.740817 0
M  V30 7131 N 690.273 -0.685099 -1.4193 0
M  V30 7132 C 691.498 -0.218842 -2.06242 0
M  V30 7133 C 691.923 1.11923 -1.51178 0
M  V30 7134 O 691.281 1.69837 -0.634446 0
M  V30 7135 C 691.329 -0.175592 -3.60172 0
M  V30 7136 O 690.433 0.852776 -4.03487 0
M  V30 7137 H 689.774 -0.109531 -0.654904 0
M  V30 7138 H 692.304 -0.937013 -1.81882 0
M  V30 7139 H 692.314 -0.00291151 -4.08 0
M  V30 7140 H 690.989 -1.15222 -3.99621 0
M  V30 7141 H 689.566 0.650301 -3.67186 0
M  V30 7142 N 691.751 1.51645 -0.429126 0
M  V30 7143 C 692.681 2.30434 0.377148 0
M  V30 7144 C 693.662 1.35493 1.02838 0
M  V30 7145 O 694.847 1.6441 1.03359 0
M  V30 7146 C 691.977 3.14038 1.48315 0
M  V30 7147 C 690.931 4.1719 0.955855 0
M  V30 7148 C 690.257 4.89263 2.15698 0
M  V30 7149 C 691.557 5.223 -0.00402136 0
M  V30 7150 H 693.251 2.98085 -0.280336 0
M  V30 7151 H 690.797 1.43354 -0.136265 0
M  V30 7152 H 692.75 3.67933 2.05435 0
M  V30 7153 H 691.474 2.44193 2.16881 0
M  V30 7154 H 690.133 3.64335 0.406929 0
M  V30 7155 H 689.781 4.15929 2.82864 0
M  V30 7156 H 689.481 5.59009 1.81059 0
M  V30 7157 H 691.005 5.45978 2.73387 0
M  V30 7158 H 692.419 5.71315 0.476607 0
M  V30 7159 H 690.816 5.99525 -0.26258 0
M  V30 7160 H 691.886 4.75638 -0.943236 0
M  V30 7161 N 693.229 0.160201 1.56784 0
M  V30 7162 C 694.177 -0.791402 2.18723 0
M  V30 7163 C 695.171 -1.24567 1.14801 0
M  V30 7164 O 696.377 -1.21262 1.33025 0
M  V30 7165 H 692.752 -0.273458 0.700517 0
M  V30 7166 H 694.723 -0.244931 2.97393 0
M  V30 7167 C 693.472 -2.01509 2.83354 0
M  V30 7168 H 692.795 -1.67454 3.63041 0
M  V30 7169 H 694.235 -2.66006 3.30177 0
M  V30 7170 C 692.694 -2.83159 1.82545 0
M  V30 7171 O 693.224 -3.79944 1.30405 0
M  V30 7172 N 691.43 -2.47953 1.51552 0
M  V30 7173 H 690.977 -1.69309 1.94144 0
M  V30 7174 H 690.935 -3.02873 0.843519 0
M  V30 7175 N 694.707 -1.5719 -0.113559 0
M  V30 7176 C 695.954 -1.85138 -0.820382 0
M  V30 7177 C 696.282 -0.74608 -1.79622 0
M  V30 7178 O 695.537 0.262077 -1.93937 0
M  V30 7179 C 695.836 -3.19593 -1.59984 0
M  V30 7180 C 695.502 -4.44315 -0.767809 0
M  V30 7181 C 694.164 -4.78179 -0.538379 0
M  V30 7182 C 696.516 -5.2086 -0.188203 0
M  V30 7183 C 693.844 -5.86028 0.28082 0
M  V30 7184 C 696.196 -6.29572 0.618217 0
M  V30 7185 C 694.86 -6.61964 0.857912 0
M  V30 7186 H 694.13 -0.677467 -0.300199 0
M  V30 7187 H 696.777 -1.91322 -0.0825443 0
M  V30 7188 H 695.082 -3.0901 -2.40874 0
M  V30 7189 H 696.779 -3.3844 -2.1508 0
M  V30 7190 H 693.369 -4.17786 -0.956724 0
M  V30 7191 H 697.553 -4.95045 -0.352658 0
M  V30 7192 H 692.809 -6.09547 0.475693 0
M  V30 7193 H 696.983 -6.88064 1.0743 0
M  V30 7194 H 694.61 -7.45365 1.49451 0
M  V30 7195 N 696.185 0.383891 -1.52853 0
M  V30 7196 C 697.117 1.48889 -1.74255 0
M  V30 7197 C 698.13 1.50405 -0.623063 0
M  V30 7198 O 699.319 1.54215 -0.898887 0
M  V30 7199 C 696.419 2.87721 -1.79081 0
M  V30 7200 C 695.592 3.10111 -3.08464 0
M  V30 7201 C 694.651 4.28954 -3.0477 0
M  V30 7202 O 693.677 4.25012 -3.78621 0
M  V30 7203 N 694.879 5.35411 -2.24311 0
M  V30 7204 H 697.644 1.30915 -2.69595 0
M  V30 7205 H 695.205 0.573454 -1.51404 0
M  V30 7206 H 697.197 3.65333 -1.7411 0
M  V30 7207 H 695.767 2.99029 -0.911052 0
M  V30 7208 H 694.987 2.20319 -3.26884 0
M  V30 7209 H 696.275 3.21928 -3.94005 0
M  V30 7210 H 695.673 5.41471 -1.63787 0
M  V30 7211 H 694.23 6.1167 -2.25175 0
M  V30 7212 N 697.663 1.43903 0.642637 0
M  V30 7213 C 698.888 1.49758 1.43483 0
M  V30 7214 C 699.313 0.119911 1.87717 0
M  V30 7215 O 698.671 -0.888558 1.58033 0
M  V30 7216 C 698.719 2.45744 2.63898 0
M  V30 7217 O 697.823 1.95101 3.63331 0
M  V30 7218 H 697.164 0.506138 0.429791 0
M  V30 7219 H 699.694 1.88923 0.785438 0
M  V30 7220 H 699.704 2.63399 3.11584 0
M  V30 7221 H 698.379 3.45818 2.31046 0
M  V30 7222 H 696.956 1.87158 3.22531 0
M  V30 7223 N 699.141 -0.881989 1.30609 0
M  V30 7224 C 700.369 -1.66711 1.22536 0
M  V30 7225 C 700.784 -1.87614 -0.2113 0
M  V30 7226 O 700.141 -1.42576 -1.13923 0
M  V30 7227 C 700.192 -3.04182 1.95335 0
M  V30 7228 O 699.913 -2.8422 3.33393 0
M  V30 7229 C 701.414 -3.98617 1.93956 0
M  V30 7230 H 698.634 -0.520124 0.423925 0
M  V30 7231 H 701.178 -1.10174 1.72285 0
M  V30 7232 H 699.333 -3.57442 1.49378 0
M  V30 7233 H 699.747 -3.71452 3.70302 0
M  V30 7234 H 701.221 -4.92433 2.49426 0
M  V30 7235 H 701.698 -4.29473 0.919198 0
M  V30 7236 H 702.304 -3.51292 2.39738 0
M  V30 7237 N 700.619 -1.13374 -1.09472 0
M  V30 7238 C 701.866 -0.89519 -1.81639 0
M  V30 7239 C 702.194 0.57868 -1.85692 0
M  V30 7240 O 701.449 1.44426 -1.32059 0
M  V30 7241 C 701.748 -1.42759 -3.2765 0
M  V30 7242 C 701.414 -2.91822 -3.43731 0
M  V30 7243 C 700.076 -3.32521 -3.47827 0
M  V30 7244 C 702.428 -3.87727 -3.48307 0
M  V30 7245 C 699.756 -4.6781 -3.54078 0
M  V30 7246 C 702.108 -5.22859 -3.56091 0
M  V30 7247 C 700.772 -5.63086 -3.58456 0
M  V30 7248 H 700.042 -0.327573 -0.664663 0
M  V30 7249 H 702.689 -1.4156 -1.28969 0
M  V30 7250 H 700.994 -0.827871 -3.82954 0
M  V30 7251 H 702.691 -1.2191 -3.8202 0
M  V30 7252 H 699.281 -2.5935 -3.41226 0
M  V30 7253 H 703.465 -3.57371 -3.44383 0
M  V30 7254 H 698.721 -4.98353 -3.54195 0
M  V30 7255 H 702.895 -5.96989 -3.58577 0
M  V30 7256 H 700.522 -6.67905 -3.63052 0
M  V30 7257 N 702.098 1.27442 -0.927168 0
M  V30 7258 C 703.323 1.99036 -0.583042 0
M  V30 7259 C 703.748 1.68711 0.83176 0
M  V30 7260 O 703.106 0.927081 1.55804 0
M  V30 7261 C 703.154 3.51271 -0.814925 0
M  V30 7262 O 702.258 4.12226 0.119742 0
M  V30 7263 H 701.599 0.624883 -0.224538 0
M  V30 7264 H 704.129 1.62263 -1.24628 0
M  V30 7265 H 704.139 4.01411 -0.730282 0
M  V30 7266 H 702.814 3.72676 -1.84623 0
M  V30 7267 H 701.391 3.72897 -0.0147688 0
M  V30 7268 N 703.576 0.692616 1.41565 0
M  V30 7269 C 704.509 -0.025063 2.28186 0
M  V30 7270 C 705.487 -0.790912 1.42068 0
M  V30 7271 O 706.671 -0.782344 1.71498 0
M  V30 7272 C 703.798 -1.04285 3.22246 0
M  V30 7273 C 702.844 -0.370515 4.24888 0
M  V30 7274 S 703.677 0.884942 5.28137 0
M  V30 7275 C 704.833 -0.131324 6.25762 0
M  V30 7276 H 705.066 0.709626 2.88707 0
M  V30 7277 H 702.599 0.482783 1.46658 0
M  V30 7278 H 704.557 -1.62493 3.7697 0
M  V30 7279 H 703.218 -1.7501 2.60827 0
M  V30 7280 H 702.411 -1.13911 4.90959 0
M  V30 7281 H 702.013 0.138411 3.73744 0
M  V30 7282 H 704.305 -0.985527 6.70294 0
M  V30 7283 H 705.248 0.495384 7.06365 0
M  V30 7284 H 705.656 -0.484777 5.62415 0
M  V30 7285 N 705.054 -1.51416 0.437162 0
M  V30 7286 C 706.282 -2.06503 -0.128045 0
M  V30 7287 C 706.697 -1.30461 -1.36475 0
M  V30 7288 O 706.054 -0.364127 -1.78831 0
M  V30 7289 C 706.105 -3.58683 -0.450437 0
M  V30 7290 O 705.826 -4.31853 0.737186 0
M  V30 7291 C 707.327 -4.30284 -1.06633 0
M  V30 7292 H 704.547 -0.670952 -0.00800269 0
M  V30 7293 H 707.091 -1.94996 0.616193 0
M  V30 7294 H 705.246 -3.70106 -1.14457 0
M  V30 7295 H 705.66 -5.22467 0.461347 0
M  V30 7296 H 707.134 -5.37848 -1.24191 0
M  V30 7297 H 707.611 -3.88564 -2.0473 0
M  V30 7298 H 708.217 -4.23304 -0.411585 0
M  V30 7299 N 706.532 -0.168513 -1.56696 0
M  V30 7300 C 707.76 0.483503 -2.01171 0
M  V30 7301 C 708.175 1.56994 -1.04872 0
M  V30 7302 O 707.532 1.82434 -0.0491337 0
M  V30 7303 C 707.583 1.0644 -3.45475 0
M  V30 7304 O 707.304 0.0213375 -4.38095 0
M  V30 7305 C 708.805 1.79493 -4.05336 0
M  V30 7306 H 706.025 0.124002 -0.659443 0
M  V30 7307 H 708.569 -0.269419 -2.02717 0
M  V30 7308 H 706.724 1.76784 -3.44712 0
M  V30 7309 H 707.138 0.449837 -5.22567 0
M  V30 7310 H 708.612 2.15401 -5.08238 0
M  V30 7311 H 709.089 2.68889 -3.47269 0
M  V30 7312 H 709.695 1.13798 -4.09793 0
M  V30 7313 N 708.01 1.57248 0.105221 0
M  V30 7314 C 709.25 1.87393 0.816283 0
M  V30 7315 C 709.614 0.758249 1.76393 0
M  V30 7316 O 710.815 0.941835 2.5176 0
M  V30 7317 C 709.086 3.22775 1.53463 0
M  V30 7318 S 710.645 3.74588 2.28537 0
M  V30 7319 H 707.463 0.656847 0.272164 0
M  V30 7320 H 710.065 1.9536 0.073909 0
M  V30 7321 H 708.769 4.01905 0.830674 0
M  V30 7322 H 708.3 3.17921 2.3171 0
M  V30 7323 H 710.315 3.47193 3.54502 0
M  V30 7324 N 709.488 -0.375779 1.53054 0
M  V30 7325 C 710.436 -1.48015 1.79428 0
M  V30 7326 C 711.43 -1.55893 0.662854 0
M  V30 7327 O 712.636 -1.58901 0.845599 0
M  V30 7328 H 709.011 -0.492887 0.56795 0
M  V30 7329 H 710.982 -1.22971 2.71884 0
M  V30 7330 C 709.731 -2.84984 1.99197 0
M  V30 7331 H 709.054 -2.79677 2.85693 0
M  V30 7332 H 710.494 -3.61462 2.21633 0
M  V30 7333 C 708.953 -3.28025 0.768183 0
M  V30 7334 O 709.483 -4.01671 -0.0480482 0
M  V30 7335 N 707.689 -2.84454 0.594521 0
M  V30 7336 H 707.236 -2.24688 1.25988 0
M  V30 7337 H 707.194 -3.13609 -0.222916 0
M  V30 7338 N 710.966 -1.44241 -0.634997 0
M  V30 7339 C 711.896 -1.53632 -1.7584 0
M  V30 7340 C 712.877 -0.389603 -1.65578 0
M  V30 7341 O 714.062 -0.609219 -1.84397 0
M  V30 7342 C 711.192 -1.47644 -3.14354 0
M  V30 7343 C 710.146 -2.60752 -3.394 0
M  V30 7344 C 709.472 -2.39817 -4.77904 0
M  V30 7345 C 710.772 -4.02921 -3.32343 0
M  V30 7346 H 712.466 -2.47662 -1.68238 0
M  V30 7347 H 710.012 -1.19197 -0.807969 0
M  V30 7348 H 711.965 -1.52815 -3.92716 0
M  V30 7349 H 710.689 -0.501284 -3.2273 0
M  V30 7350 H 709.348 -2.54965 -2.63417 0
M  V30 7351 H 708.996 -1.40502 -4.82978 0
M  V30 7352 H 708.696 -3.15649 -4.9562 0
M  V30 7353 H 710.22 -2.46799 -5.585 0
M  V30 7354 H 711.634 -4.10098 -4.00615 0
M  V30 7355 H 710.031 -4.78925 -3.61595 0
M  V30 7356 H 711.101 -4.26766 -2.30215 0
M  V30 7357 N 712.444 0.87505 -1.31075 0
M  V30 7358 C 713.855 1.4433 -1.18431 0
M  V30 7359 C 714.206 1.9506 0.211189 0
M  V30 7360 O 713.331 1.85847 1.10859 0
M  V30 7361 C 713.926 2.62341 -2.14389 0
M  V30 7362 C 712.485 3.15225 -2.05694 0
M  V30 7363 C 711.632 1.87929 -2.03907 0
M  V30 7364 H 714.583 0.684061 -1.432 0
M  V30 7365 H 714.604 3.3887 -1.73053 0
M  V30 7366 H 714.116 2.25388 -3.15946 0
M  V30 7367 H 712.217 3.56812 -1.07314 0
M  V30 7368 H 712.33 3.77853 -2.94558 0
M  V30 7369 H 710.694 2.06679 -1.48849 0
M  V30 7370 H 711.477 1.53221 -3.07211 0
M  V30 7371 N 713.922 1.13953 1.08869 0
M  V30 7372 C 714.832 0.835666 2.19212 0
M  V30 7373 C 715.848 -0.182005 1.73045 0
M  V30 7374 O 717.024 -0.0116661 2.01397 0
M  V30 7375 C 714.089 0.312325 3.4529 0
M  V30 7376 C 713.15 1.39196 4.06107 0
M  V30 7377 C 712.383 0.893496 5.26168 0
M  V30 7378 O 712.606 -0.266807 5.69776 0
M  V30 7379 O 711.54 1.67037 5.78258 0
M  V30 7380 H 715.366 1.75769 2.47667 0
M  V30 7381 H 712.951 0.917421 1.17914 0
M  V30 7382 H 714.833 0.0261582 4.21392 0
M  V30 7383 H 713.508 -0.582042 3.18424 0
M  V30 7384 H 712.415 1.73152 3.31616 0
M  V30 7385 H 713.748 2.26068 4.37212 0
M  V30 7386 N 715.4 -1.26948 0.933913 0
M  V30 7387 C 716.35 -2.24306 0.408779 0
M  V30 7388 C 717.334 -1.53243 -0.490435 0
M  V30 7389 O 718.526 -1.73956 -0.326866 0
M  V30 7390 C 715.655 -3.41695 -0.331578 0
M  V30 7391 C 714.741 -4.20053 0.58451 0
M  V30 7392 N 715.132 -4.76122 1.70709 0
M  V30 7393 C 713.43 -4.44303 0.388703 0
M  V30 7394 C 714.131 -5.35267 2.27737 0
M  V30 7395 N 713.107 -5.20548 1.56622 0
M  V30 7396 H 716.909 -2.65244 1.26582 0
M  V30 7397 H 714.423 -1.4195 0.788919 0
M  V30 7398 H 716.42 -4.10552 -0.724774 0
M  V30 7399 H 715.08 -3.02286 -1.18547 0
M  V30 7400 H 716.091 -4.73884 2.08937 0
M  V30 7401 H 712.768 -4.15341 -0.424016 0
M  V30 7402 H 714.158 -5.89563 3.22282 0
M  V30 7403 N 716.879 -0.700114 -1.41195 0
M  V30 7404 C 718.125 -0.242122 -2.01954 0
M  V30 7405 C 718.48 1.14697 -1.54475 0
M  V30 7406 O 717.773 1.76392 -0.748095 0
M  V30 7407 C 717.967 -0.243986 -3.56566 0
M  V30 7408 C 717.796 -1.63172 -4.19053 0
M  V30 7409 C 716.566 -2.23566 -4.53152 0
M  V30 7410 C 718.764 -2.57916 -4.44954 0
M  V30 7411 N 716.746 -3.54856 -5.00949 0
M  V30 7412 C 718.117 -3.73892 -4.94576 0
M  V30 7413 C 720.172 -2.56125 -4.26971 0
M  V30 7414 C 718.875 -4.88363 -5.28104 0
M  V30 7415 C 720.901 -3.69712 -4.61592 0
M  V30 7416 C 720.263 -4.84418 -5.11389 0
M  V30 7417 H 716.362 -0.134088 -0.770418 0
M  V30 7418 H 718.946 -0.918576 -1.71669 0
M  V30 7419 H 717.117 0.401971 -3.86314 0
M  V30 7420 H 718.849 0.229261 -4.0405 0
M  V30 7421 H 715.604 -1.75809 -4.39759 0
M  V30 7422 H 716.028 -4.22167 -5.29249 0
M  V30 7423 H 720.67 -1.68656 -3.87705 0
M  V30 7424 H 718.388 -5.76488 -5.66292 0
M  V30 7425 H 721.974 -3.69583 -4.49332 0
M  V30 7426 H 720.854 -5.70855 -5.37675 0
M  V30 7427 N 718.357 1.51182 -0.445186 0
M  V30 7428 C 719.585 2.06568 0.117091 0
M  V30 7429 C 720 1.31182 1.35781 0
M  V30 7430 O 719.357 0.373605 1.78635 0
M  V30 7431 C 719.408 3.58917 0.431408 0
M  V30 7432 O 719.129 4.31456 -0.760078 0
M  V30 7433 C 720.63 4.30843 1.0435 0
M  V30 7434 H 717.85 0.670985 0.00444436 0
M  V30 7435 H 720.394 1.94666 -0.626525 0
M  V30 7436 H 718.549 3.70708 1.12493 0
M  V30 7437 H 718.963 5.22215 -0.489048 0
M  V30 7438 H 720.437 5.38499 1.21337 0
M  V30 7439 H 720.914 3.89644 2.02667 0
M  V30 7440 H 721.52 4.23516 0.38913 0
M  V30 7441 N 719.835 0.176821 1.56605 0
M  V30 7442 C 721.112 -0.513365 1.88743 0
M  V30 7443 C 721.492 -1.80929 1.08757 0
M  V30 7444 O 720.84 -2.27765 0.183127 0
M  V30 7445 C 721.05 -0.749925 3.40848 0
M  V30 7446 C 722.398 -1.07747 4.10701 0
M  V30 7447 O 723.422 -0.838277 3.46196 0
M  V30 7448 O 722.281 -1.52901 5.24675 0
M  V30 7449 H 719.375 -0.265296 0.783292 0
M  V30 7450 H 721.921 0.215669 1.68324 0
M  V30 7451 H 720.693 0.16599 3.90948 0
M  V30 7452 H 720.316 -1.53208 3.66897 0
M  V30 7453 N 721.313 -1.57302 -0.09688 0
M  V30 7454 C 722.246 -1.97179 -1.14872 0
M  V30 7455 C 723.224 -0.844734 -1.38935 0
M  V30 7456 O 724.408 -1.10487 -1.52725 0
M  V30 7457 C 721.535 -2.28703 -2.49826 0
M  V30 7458 C 720.581 -3.51158 -2.42054 0
M  V30 7459 S 721.414 -5.0294 -1.83879 0
M  V30 7460 C 722.57 -5.37639 -3.2046 0
M  V30 7461 H 722.803 -2.86088 -0.808771 0
M  V30 7462 H 720.336 -1.51368 -0.304492 0
M  V30 7463 H 722.294 -2.47541 -3.27466 0
M  V30 7464 H 720.955 -1.40368 -2.8099 0
M  V30 7465 H 720.148 -3.70651 -3.41517 0
M  V30 7466 H 719.75 -3.31821 -1.72543 0
M  V30 7467 H 722.042 -5.34175 -4.16729 0
M  V30 7468 H 722.985 -6.38677 -3.05773 0
M  V30 7469 H 723.393 -4.651 -3.19909 0
M  V30 7470 N 722.791 0.367657 -1.53252 0
M  V30 7471 C 723.739 1.47061 -1.8021 0
M  V30 7472 C 724.733 1.55539 -0.671112 0
M  V30 7473 O 725.939 1.58451 -0.854014 0
M  V30 7474 H 722.314 0.489868 -0.570555 0
M  V30 7475 H 724.285 1.21527 -2.72532 0
M  V30 7476 C 723.034 2.83924 -2.00706 0
M  V30 7477 H 722.357 2.78158 -2.87172 0
M  V30 7478 H 723.797 3.60281 -2.23547 0
M  V30 7479 C 722.256 3.27613 -0.785568 0
M  V30 7480 O 722.786 4.01691 0.0267459 0
M  V30 7481 N 720.992 2.84134 -0.609597 0
M  V30 7482 H 720.539 2.24017 -1.27178 0
M  V30 7483 H 720.497 3.13723 0.206281 0
M  V30 7484 N 724.269 1.44576 0.627338 0
M  V30 7485 C 725.219 1.48168 1.73293 0
M  V30 7486 C 726.203 0.347045 1.57113 0
M  V30 7487 O 727.395 0.592605 1.66785 0
M  V30 7488 C 724.524 1.43236 3.11991 0
M  V30 7489 C 723.61 2.61828 3.33627 0
M  V30 7490 N 724.001 3.87053 3.25612 0
M  V30 7491 C 722.299 2.57104 3.64436 0
M  V30 7492 C 723 4.66093 3.48041 0
M  V30 7493 N 721.976 3.97228 3.71095 0
M  V30 7494 H 725.778 2.42832 1.6556 0
M  V30 7495 H 723.292 1.39592 0.829934 0
M  V30 7496 H 725.289 1.43893 3.91281 0
M  V30 7497 H 723.949 0.496133 3.20887 0
M  V30 7498 H 724.96 4.18966 3.04447 0
M  V30 7499 H 721.637 1.72295 3.8029 0
M  V30 7500 H 723.027 5.75117 3.47404 0
M  V30 7501 N 725.747 -0.868086 1.31537 0
M  V30 7502 C 726.679 -1.98165 1.15166 0
M  V30 7503 C 727.692 -1.6255 0.0902335 0
M  V30 7504 O 728.881 -1.75272 0.33791 0
M  V30 7505 C 725.981 -3.30772 0.737776 0
M  V30 7506 C 725.154 -3.94716 1.88462 0
M  V30 7507 C 724.213 -5.05641 1.45648 0
M  V30 7508 O 723.239 -5.2636 2.16642 0
M  V30 7509 N 724.441 -5.79474 0.34493 0
M  V30 7510 H 727.206 -2.12754 2.11083 0
M  V30 7511 H 724.767 -1.04217 1.23897 0
M  V30 7512 H 726.759 -4.02366 0.434032 0
M  V30 7513 H 725.329 -3.1233 -0.129834 0
M  V30 7514 H 724.549 -3.16079 2.35558 0
M  V30 7515 H 725.837 -4.34175 2.65273 0
M  V30 7516 H 725.235 -5.65164 -0.246259 0
M  V30 7517 H 723.792 -6.51722 0.100728 0
M  V30 7518 N 727.225 -1.14528 -1.08264 0
M  V30 7519 C 728.155 -0.856356 -2.1723 0
M  V30 7520 C 729.136 0.189251 -1.69044 0
M  V30 7521 O 730.321 0.0456119 -1.94146 0
M  V30 7522 C 727.451 -0.334662 -3.45684 0
M  V30 7523 C 726.405 -1.31588 -4.0727 0
M  V30 7524 C 725.731 -0.653428 -5.30692 0
M  V30 7525 C 727.031 -2.67866 -4.48381 0
M  V30 7526 H 728.725 -1.76755 -2.41657 0
M  V30 7527 H 726.271 -0.851287 -1.16143 0
M  V30 7528 H 728.224 -0.120128 -4.21229 0
M  V30 7529 H 726.948 0.611967 -3.20815 0
M  V30 7530 H 725.607 -1.51661 -3.33758 0
M  V30 7531 H 725.255 0.299054 -5.0211 0
M  V30 7532 H 724.955 -1.30817 -5.72853 0
M  V30 7533 H 726.479 -0.448453 -6.08951 0
M  V30 7534 H 727.893 -2.51692 -5.15096 0
M  V30 7535 H 726.29 -3.29627 -5.01464 0
M  V30 7536 H 727.36 -3.24632 -3.60198 0
M  V30 7537 N 728.703 1.26451 -0.940633 0
M  V30 7538 C 729.95 1.93778 -0.587909 0
M  V30 7539 C 730.278 1.73811 0.872935 0
M  V30 7540 O 729.533 1.06816 1.63978 0
M  V30 7541 C 729.832 3.46503 -0.875794 0
M  V30 7542 C 729.498 3.86609 -2.32043 0
M  V30 7543 C 728.16 3.97269 -2.71534 0
M  V30 7544 C 730.512 4.0672 -3.25927 0
M  V30 7545 C 727.84 4.25436 -4.04006 0
M  V30 7546 C 730.192 4.36375 -4.57995 0
M  V30 7547 C 728.856 4.45249 -4.97302 0
M  V30 7548 H 728.126 0.709084 -0.215131 0
M  V30 7549 H 730.773 1.50272 -1.18704 0
M  V30 7550 H 729.078 3.91319 -0.194124 0
M  V30 7551 H 730.775 3.96759 -0.581665 0
M  V30 7552 H 727.365 3.78858 -2.00411 0
M  V30 7553 H 731.549 3.97912 -2.96614 0
M  V30 7554 H 726.805 4.30519 -4.34124 0
M  V30 7555 H 730.979 4.50882 -5.30734 0
M  V30 7556 H 728.606 4.66829 -5.99979 0
M  V30 7557 N 730.181 0.707592 1.40822 0
M  V30 7558 C 731.421 0.247986 2.0289 0
M  V30 7559 C 731.785 -1.13484 1.54872 0
M  V30 7560 O 732.986 -1.69098 2.08948 0
M  V30 7561 C 731.257 0.316326 3.55997 0
M  V30 7562 S 732.816 -0.0674698 4.38748 0
M  V30 7563 H 729.634 0.09895 0.704081 0
M  V30 7564 H 732.236 0.928039 1.72069 0
M  V30 7565 H 730.94 1.32453 3.88438 0
M  V30 7566 H 730.471 -0.382474 3.91536 0
M  V30 7567 H 732.486 -1.29182 4.79089 0
M  V30 7568 N 731.66 -1.50943 0.453197 0
M  V30 7569 C 732.593 -2.24742 -0.395787 0
M  V30 7570 C 733.571 -1.27316 -1.01141 0
M  V30 7571 O 734.755 -1.56494 -1.05081 0
M  V30 7572 C 731.882 -3.00999 -1.55298 0
M  V30 7573 C 730.928 -4.13207 -1.0565 0
M  V30 7574 S 731.761 -5.35498 0.01435 0
M  V30 7575 C 732.917 -6.15298 -1.14714 0
M  V30 7576 H 733.15 -2.96403 0.23071 0
M  V30 7577 H 730.683 -1.52557 0.237874 0
M  V30 7578 H 732.641 -3.45529 -2.2163 0
M  V30 7579 H 731.302 -2.28896 -2.15094 0
M  V30 7580 H 730.495 -4.65901 -1.9223 0
M  V30 7581 H 730.097 -3.7102 -0.471182 0
M  V30 7582 H 732.389 -6.45346 -2.06239 0
M  V30 7583 H 733.332 -7.05019 -0.659842 0
M  V30 7584 H 733.74 -5.47046 -1.39288 0
M  V30 7585 N 733.138 -0.185124 -1.56509 0
M  V30 7586 C 734.384 0.456934 -1.97585 0
M  V30 7587 C 734.717 1.61957 -1.07161 0
M  V30 7588 O 733.992 1.9412 -0.121546 0
M  V30 7589 C 734.275 0.926666 -3.47973 0
M  V30 7590 C 734.128 -0.237097 -4.49175 0
M  V30 7591 C 735.447 1.79561 -4.01803 0
M  V30 7592 H 732.566 0.164619 -0.71838 0
M  V30 7593 H 735.208 -0.274039 -1.88013 0
M  V30 7594 H 733.358 1.54954 -3.56261 0
M  V30 7595 H 735.03 -0.87454 -4.52934 0
M  V30 7596 H 733.273 -0.890446 -4.24563 0
M  V30 7597 H 733.944 0.133924 -5.51838 0
M  V30 7598 H 736.42 1.27039 -3.96232 0
M  V30 7599 H 735.296 2.09327 -5.07418 0
M  V30 7600 H 735.557 2.74629 -3.46455 0
M  V30 7601 N 734.616 1.57351 0.0885366 0
M  V30 7602 C 735.548 1.99221 1.13329 0
M  V30 7603 C 736.561 0.895705 1.35945 0
M  V30 7604 O 737.75 1.17376 1.34481 0
M  V30 7605 C 734.85 2.3016 2.48756 0
M  V30 7606 C 734.023 3.61444 2.46327 0
M  V30 7607 C 733.082 3.80244 3.63732 0
M  V30 7608 O 732.108 4.52024 3.45924 0
M  V30 7609 N 733.31 3.2132 4.8346 0
M  V30 7610 H 736.075 2.89456 0.776862 0
M  V30 7611 H 733.636 1.59505 0.277428 0
M  V30 7612 H 735.628 2.39925 3.25911 0
M  V30 7613 H 734.198 1.459 2.76464 0
M  V30 7614 H 733.418 3.62588 1.54673 0
M  V30 7615 H 734.706 4.47678 2.41789 0
M  V30 7616 H 734.104 2.63028 5.00832 0
M  V30 7617 H 732.661 3.3656 5.58185 0
M  V30 7618 N 736.094 -0.359525 1.53444 0
M  V30 7619 C 737.024 -1.44662 1.8329 0
M  V30 7620 C 738.005 -1.55617 0.68683 0
M  V30 7621 O 739.19 -1.70086 0.93725 0
M  V30 7622 C 736.32 -2.81923 2.02822 0
M  V30 7623 C 735.274 -2.85787 3.18606 0
M  V30 7624 C 734.6 -4.25781 3.23442 0
M  V30 7625 C 735.9 -2.52762 4.57065 0
M  V30 7626 H 737.594 -1.19934 2.74329 0
M  V30 7627 H 735.14 -0.575517 1.31999 0
M  V30 7628 H 737.093 -3.58005 2.22285 0
M  V30 7629 H 735.817 -3.08051 1.085 0
M  V30 7630 H 734.476 -2.12157 2.98973 0
M  V30 7631 H 734.124 -4.48994 2.26745 0
M  V30 7632 H 733.824 -4.29281 4.01238 0
M  V30 7633 H 735.348 -5.03727 3.45096 0
M  V30 7634 H 736.762 -3.18557 4.76649 0
M  V30 7635 H 735.159 -2.67569 5.37147 0
M  V30 7636 H 736.229 -1.47993 4.61764 0
M  V30 7637 N 737.572 -1.44907 -0.619662 0
M  V30 7638 C 738.482 -1.55168 -1.75955 0
M  V30 7639 C 739.498 -0.43672 -1.6843 0
M  V30 7640 O 740.674 -0.695704 -1.89002 0
M  V30 7641 C 737.739 -1.50397 -3.12381 0
M  V30 7642 C 736.8 -2.72835 -3.31451 0
M  V30 7643 C 736.033 -2.68283 -4.61368 0
M  V30 7644 O 736.256 -1.74929 -5.42914 0
M  V30 7645 O 735.19 -3.59308 -4.82889 0
M  V30 7646 H 739.016 -2.51493 -1.7025 0
M  V30 7647 H 736.601 -1.27282 -0.782289 0
M  V30 7648 H 738.483 -1.50301 -3.93685 0
M  V30 7649 H 737.158 -0.572197 -3.18603 0
M  V30 7650 H 736.065 -2.78496 -2.49781 0
M  V30 7651 H 737.398 -3.65098 -3.30098 0
M  V30 7652 N 739.05 0.861098 -1.31996 0
M  V30 7653 C 740.461 1.43065 -1.19955 0
M  V30 7654 C 740.812 1.95273 0.190489 0
M  V30 7655 O 739.937 1.87012 1.08882 0
M  V30 7656 C 740.532 2.60052 -2.1716 0
M  V30 7657 C 739.091 3.13026 -2.09026 0
M  V30 7658 C 738.238 1.85756 -2.05888 0
M  V30 7659 H 741.189 0.668834 -1.43918 0
M  V30 7660 H 741.21 3.37016 -1.76637 0
M  V30 7661 H 740.722 2.22024 -3.18319 0
M  V30 7662 H 738.823 3.55653 -1.11092 0
M  V30 7663 H 738.936 3.74707 -2.98549 0
M  V30 7664 H 737.3 2.05088 -1.51033 0
M  V30 7665 H 738.083 1.49954 -3.08818 0
M  V30 7666 N 740.528 1.15101 1.07655 0
M  V30 7667 C 741.776 0.922149 1.79836 0
M  V30 7668 C 742.097 -0.552346 1.87014 0
M  V30 7669 O 741.367 -1.40145 1.3688 0
M  V30 7670 H 739.947 0.338182 0.666064 0
M  V30 7671 H 742.609 1.45107 1.30115 0
M  V30 7672 H 741.705 1.32883 2.82398 0
M  V30 7673 N 742.006 -1.2595 0.947325 0
M  V30 7674 C 742.938 -2.25336 0.41906 0
M  V30 7675 C 743.951 -1.56135 -0.461051 0
M  V30 7676 O 745.14 -1.76438 -0.270505 0
M  V30 7677 C 742.24 -3.36334 -0.416233 0
M  V30 7678 C 741.413 -4.35088 0.449162 0
M  V30 7679 C 740.472 -5.25185 -0.326716 0
M  V30 7680 O 739.498 -5.68548 0.272374 0
M  V30 7681 N 740.7 -5.57388 -1.6217 0
M  V30 7682 H 743.465 -2.71298 1.27348 0
M  V30 7683 H 741.026 -1.39781 0.81688 0
M  V30 7684 H 743.018 -3.93564 -0.942826 0
M  V30 7685 H 741.588 -2.89819 -1.17148 0
M  V30 7686 H 740.808 -3.76841 1.15692 0
M  V30 7687 H 742.096 -4.98056 1.04008 0
M  V30 7688 H 741.494 -5.2405 -2.13046 0
M  V30 7689 H 740.051 -6.17234 -2.0944 0
M  V30 7690 N 743.484 -0.715051 -1.40445 0
M  V30 7691 C 744.709 -0.26254 -2.05732 0
M  V30 7692 C 745.134 1.08691 -1.53519 0
M  V30 7693 O 744.492 1.68453 -0.670328 0
M  V30 7694 C 744.54 -0.25195 -3.59719 0
M  V30 7695 O 743.644 0.766998 -4.05205 0
M  V30 7696 H 742.985 -0.123398 -0.652433 0
M  V30 7697 H 745.515 -0.975382 -1.79854 0
M  V30 7698 H 745.525 -0.0894537 -4.07902 0
M  V30 7699 H 744.2 -1.23672 -3.97087 0
M  V30 7700 H 742.777 0.572269 -3.68483 0
M  V30 7701 N 744.962 1.50701 -0.461195 0
M  V30 7702 C 745.872 2.32069 0.343661 0
M  V30 7703 C 746.888 1.42016 1.00535 0
M  V30 7704 O 748.064 1.75077 0.995498 0
M  V30 7705 C 745.129 3.16424 1.41692 0
M  V30 7706 C 744.19 4.22286 0.772869 0
M  V30 7707 C 743.423 5.02609 1.79499 0
M  V30 7708 O 743.646 4.83874 3.0203 0
M  V30 7709 O 742.58 5.86047 1.3723 0
M  V30 7710 H 746.406 3.01996 -0.321268 0
M  V30 7711 H 743.991 1.47723 -0.223235 0
M  V30 7712 H 745.873 3.68795 2.03883 0
M  V30 7713 H 744.548 2.49236 2.0655 0
M  V30 7714 H 743.455 3.73931 0.112277 0
M  V30 7715 H 744.788 4.91915 0.167399 0
M  V30 7716 N 746.441 0.193421 1.56409 0
M  V30 7717 C 747.671 -0.450783 2.01622 0
M  V30 7718 C 748.079 -1.5585 1.07273 0
M  V30 7719 O 747.422 -1.83569 0.0694875 0
M  V30 7720 C 747.484 -1.06913 3.43235 0
M  V30 7721 C 747.148 -0.100352 4.5689 0
M  V30 7722 C 748.145 0.689633 5.15306 0
M  V30 7723 C 745.83 0.0102436 5.02299 0
M  V30 7724 C 747.824 1.5772 6.17579 0
M  V30 7725 C 745.511 0.901368 6.04416 0
M  V30 7726 C 746.509 1.68341 6.61929 0
M  V30 7727 O 746.197 2.5596 7.62063 0
M  V30 7728 H 745.929 -0.117671 0.66568 0
M  V30 7729 H 748.483 0.2989 2.03214 0
M  V30 7730 H 746.713 -1.86736 3.38624 0
M  V30 7731 H 748.402 -1.61781 3.72266 0
M  V30 7732 H 749.168 0.614485 4.81092 0
M  V30 7733 H 745.047 -0.58829 4.57231 0
M  V30 7734 H 748.591 2.18805 6.62397 0
M  V30 7735 H 744.488 0.977637 6.38054 0
M  V30 7736 H 745.256 2.49721 7.79475 0
M  V30 7737 N 747.919 -1.57396 -0.0801906 0
M  V30 7738 C 748.867 -2.04136 -1.11495 0
M  V30 7739 C 749.861 -0.945137 -1.40583 0
M  V30 7740 O 751.067 -1.13028 -1.40088 0
M  V30 7741 H 747.442 -0.65076 -0.37685 0
M  V30 7742 H 749.413 -2.90205 -0.694526 0
M  V30 7743 C 748.162 -2.49399 -2.42272 0
M  V30 7744 H 747.485 -3.33339 -2.20737 0
M  V30 7745 H 748.925 -2.85864 -3.13142 0
M  V30 7746 C 747.384 -1.37341 -3.07635 0
M  V30 7747 O 747.914 -0.710829 -3.95361 0
M  V30 7748 N 746.12 -1.12064 -2.68123 0
M  V30 7749 H 745.667 -1.66126 -1.96875 0
M  V30 7750 H 745.625 -0.372916 -3.12181 0
M  V30 7751 N 749.397 0.351382 -1.53633 0
M  V30 7752 C 750.625 1.11275 -1.74429 0
M  V30 7753 C 751.04 1.82602 -0.479798 0
M  V30 7754 O 750.397 1.74074 0.548125 0
M  V30 7755 C 750.448 2.13223 -2.91921 0
M  V30 7756 O 750.169 1.44798 -4.13479 0
M  V30 7757 C 751.67 3.01797 -3.24706 0
M  V30 7758 H 748.89 0.332153 -0.583023 0
M  V30 7759 H 751.434 0.405974 -2.0043 0
M  V30 7760 H 749.589 2.79477 -2.68274 0
M  V30 7761 H 750.003 2.12839 -4.79374 0
M  V30 7762 H 751.477 3.69282 -4.10286 0
M  V30 7763 H 751.954 3.67387 -2.40673 0
M  V30 7764 H 752.56 2.41141 -3.5033 0
M  V30 7765 N 750.875 1.45233 0.611969 0
M  V30 7766 C 752.124 1.48296 1.36716 0
M  V30 7767 C 752.437 0.12706 1.95187 0
M  V30 7768 O 753.643 0.0353066 2.71477 0
M  V30 7769 C 752.099 2.61168 2.47627 0
M  V30 7770 C 751.707 4.03051 1.95587 0
M  V30 7771 C 753.451 2.73472 3.24674 0
M  V30 7772 C 751.358 5.07312 3.03954 0
M  V30 7773 H 750.288 0.5518 0.513841 0
M  V30 7774 H 752.939 1.7136 0.656359 0
M  V30 7775 H 751.321 2.31379 3.21372 0
M  V30 7776 H 752.495 4.42497 1.2858 0
M  V30 7777 H 750.81 3.95158 1.31298 0
M  V30 7778 H 753.407 3.48537 4.05494 0
M  V30 7779 H 753.75 1.79953 3.75397 0
M  V30 7780 H 754.283 3.02765 2.58028 0
M  V30 7781 H 751.022 6.02525 2.58154 0
M  V30 7782 H 750.542 4.7244 3.69541 0
M  V30 7783 H 752.221 5.31867 3.6841 0
M  V30 7784 N 752.353 -0.854086 1.3245 0
M  V30 7785 C 753.3 -1.96271 1.21434 0
M  V30 7786 C 754.27 -1.6582 0.0963851 0
M  V30 7787 O 755.455 -1.88851 0.27203 0
M  V30 7788 C 752.595 -3.31939 0.943952 0
M  V30 7789 C 751.708 -3.74885 2.14675 0
M  V30 7790 C 750.843 -4.99347 1.81179 0
M  V30 7791 C 749.882 -5.34785 2.97777 0
M  V30 7792 N 749.019 -6.50425 2.6437 0
M  V30 7793 H 753.859 -2.05025 2.16261 0
M  V30 7794 H 751.396 -1.00348 1.07558 0
M  V30 7795 H 753.354 -4.10076 0.767675 0
M  V30 7796 H 751.984 -3.22784 0.0324763 0
M  V30 7797 H 751.036 -2.92396 2.43328 0
M  V30 7798 H 752.348 -3.97068 3.01891 0
M  V30 7799 H 751.502 -5.85193 1.60107 0
M  V30 7800 H 750.241 -4.79101 0.911777 0
M  V30 7801 H 749.246 -4.47451 3.1948 0
M  V30 7802 H 750.471 -5.56988 3.88511 0
M  V30 7803 H 748.417 -6.31695 1.7691 0
M  V30 7804 H 748.334 -6.7263 3.45116 0
M  V30 7805 H 749.602 -7.39422 2.46729 0
M  V30 7806 N 753.831 -1.1567 -1.07043 0
M  V30 7807 C 755.108 -0.843948 -1.76456 0
M  V30 7808 C 755.488 0.659806 -2.00524 0
M  V30 7809 O 754.836 1.60518 -1.62623 0
M  V30 7810 C 755.046 -1.65822 -3.0709 0
M  V30 7811 C 756.394 -1.8664 -3.8138 0
M  V30 7812 O 757.418 -1.62624 -3.1691 0
M  V30 7813 O 756.277 -2.26884 -4.97178 0
M  V30 7814 H 753.371 -0.310677 -0.766426 0
M  V30 7815 H 755.917 -1.26266 -1.1338 0
M  V30 7816 H 754.689 -2.67902 -2.85209 0
M  V30 7817 H 754.312 -1.23605 -3.77899 0
M  V30 7818 N 755.309 1.25446 -0.953992 0
M  V30 7819 C 756.256 2.25912 -0.472485 0
M  V30 7820 C 757.226 1.59173 0.47469 0
M  V30 7821 O 758.411 1.86812 0.388082 0
M  V30 7822 C 755.551 3.44235 0.244218 0
M  V30 7823 C 754.664 4.25613 -0.740121 0
M  V30 7824 C 753.799 5.312 -0.000922267 0
M  V30 7825 C 752.838 6.04265 -0.976236 0
M  V30 7826 N 751.975 7.01589 -0.267952 0
M  V30 7827 H 756.815 2.66469 -1.3341 0
M  V30 7828 H 754.352 1.31005 -0.669045 0
M  V30 7829 H 756.31 4.11682 0.676314 0
M  V30 7830 H 754.94 3.04554 1.06988 0
M  V30 7831 H 753.992 3.57834 -1.2907 0
M  V30 7832 H 755.304 4.762 -1.48441 0
M  V30 7833 H 754.458 6.04719 0.48984 0
M  V30 7834 H 753.197 4.81484 0.776159 0
M  V30 7835 H 752.202 5.29561 -1.478 0
M  V30 7836 H 753.427 6.5607 -1.75354 0
M  V30 7837 H 751.373 6.54164 0.490403 0
M  V30 7838 H 751.29 7.4999 -0.951344 0
M  V30 7839 H 752.558 7.7924 0.201294 0
M  V30 7840 N 756.787 0.722489 1.40064 0
M  V30 7841 C 758.034 0.264979 2.00759 0
M  V30 7842 C 758.362 -1.14395 1.57302 0
M  V30 7843 O 757.617 -1.79165 0.787298 0
M  V30 7844 C 757.916 0.300682 3.56133 0
M  V30 7845 C 757.582 1.66087 4.19197 0
M  V30 7846 C 756.244 2.03319 4.36136 0
M  V30 7847 C 758.596 2.55452 4.54306 0
M  V30 7848 C 755.924 3.29448 4.8547 0
M  V30 7849 C 758.276 3.8094 5.05042 0
M  V30 7850 C 756.94 4.1828 5.2019 0
M  V30 7851 H 756.21 0.0969625 0.734629 0
M  V30 7852 H 758.857 0.926877 1.67575 0
M  V30 7853 H 757.162 -0.44479 3.89267 0
M  V30 7854 H 758.859 -0.0712542 4.00937 0
M  V30 7855 H 755.449 1.36137 4.06405 0
M  V30 7856 H 759.633 2.27961 4.40849 0
M  V30 7857 H 754.889 3.58338 4.95382 0
M  V30 7858 H 759.063 4.50351 5.31184 0
M  V30 7859 H 756.69 5.16081 5.58179 0
M  V30 7860 N 758.265 -1.50454 0.469181 0
M  V30 7861 C 759.493 -2.06729 -0.0842134 0
M  V30 7862 C 759.908 -1.33326 -1.33677 0
M  V30 7863 O 759.265 -0.401977 -1.78018 0
M  V30 7864 C 759.316 -3.59557 -0.374253 0
M  V30 7865 O 759.037 -4.30192 0.828622 0
M  V30 7866 C 760.538 -4.32449 -0.974824 0
M  V30 7867 H 757.758 -0.670971 0.006231 0
M  V30 7868 H 760.302 -1.93645 0.657415 0
M  V30 7869 H 758.457 -3.7245 -1.06581 0
M  V30 7870 H 758.871 -5.21371 0.572066 0
M  V30 7871 H 760.345 -5.40361 -1.12755 0
M  V30 7872 H 760.822 -3.92819 -1.96442 0
M  V30 7873 H 761.428 -4.24082 -0.321703 0
M  V30 7874 N 759.743 -0.201713 -1.56304 0
M  V30 7875 C 761.159 0.154025 -1.58855 0
M  V30 7876 C 761.359 1.60516 -1.21807 0
M  V30 7877 O 760.415 2.34193 -0.94393 0
M  V30 7878 C 761.728 -0.154319 -3.00304 0
M  V30 7879 C 763.276 -0.0949578 -3.12856 0
M  V30 7880 C 763.751 -0.376703 -4.56448 0
M  V30 7881 N 765.242 -0.325558 -4.62054 0
M  V30 7882 C 765.977 -0.51732 -5.71062 0
M  V30 7883 N 765.473 -0.769789 -6.8851 0
M  V30 7884 N 767.266 -0.45112 -5.60287 0
M  V30 7885 H 759.417 -1.14858 -1.78666 0
M  V30 7886 H 761.68 -0.458934 -0.829508 0
M  V30 7887 H 761.386 -1.16074 -3.31994 0
M  V30 7888 H 761.26 0.540014 -3.73314 0
M  V30 7889 H 763.647 0.902075 -2.80974 0
M  V30 7890 H 763.728 -0.822468 -2.42217 0
M  V30 7891 H 763.372 -1.37108 -4.89044 0
M  V30 7892 H 763.302 0.371772 -5.25286 0
M  V30 7893 H 765.793 -0.137308 -3.7765 0
M  V30 7894 H 766.106 -0.904744 -7.67486 0
M  V30 7895 H 764.451 -0.806758 -6.90302 0
M  V30 7896 H 767.642 -0.254253 -4.67409 0
M  V30 7897 H 767.815 -0.603982 -6.45179 0
M  V30 7898 N 761.222 1.57436 0.0718424 0
M  V30 7899 C 762.45 1.91474 0.783932 0
M  V30 7900 C 762.865 0.797669 1.71122 0
M  V30 7901 O 762.222 -0.228989 1.81058 0
M  V30 7902 C 762.273 3.25259 1.57761 0
M  V30 7903 O 761.994 4.3267 0.687596 0
M  V30 7904 C 763.495 3.7331 2.3907 0
M  V30 7905 H 760.715 0.632901 0.222885 0
M  V30 7906 H 763.259 2.04457 0.0421262 0
M  V30 7907 H 761.414 3.13804 2.27169 0
M  V30 7908 H 761.828 5.09641 1.23962 0
M  V30 7909 H 763.302 4.69551 2.90216 0
M  V30 7910 H 763.779 3.02318 3.18591 0
M  V30 7911 H 764.385 3.8771 1.74818 0
M  V30 7912 N 762.7 -0.34323 1.53817 0
M  V30 7913 C 763.94 -1.09188 1.72793 0
M  V30 7914 C 764.304 -1.85876 0.481062 0
M  V30 7915 O 765.505 -2.63158 0.547851 0
M  V30 7916 C 763.776 -2.00783 2.9567 0
M  V30 7917 S 765.335 -2.82866 3.35459 0
M  V30 7918 H 762.153 -0.368926 0.607795 0
M  V30 7919 H 764.755 -0.370265 1.91962 0
M  V30 7920 H 763.459 -1.43245 3.84589 0
M  V30 7921 H 762.99 -2.77381 2.78968 0
M  V30 7922 H 765.005 -4.03196 2.89218 0
M  V30 7923 N 764.178 -1.45556 -0.604258 0
M  V30 7924 C 765.403 -1.53509 -1.39462 0
M  V30 7925 C 765.828 -0.169638 -1.87333 0
M  V30 7926 O 765.186 0.846346 -1.60333 0
M  V30 7927 C 765.234 -2.52654 -2.5729 0
M  V30 7928 O 764.338 -2.04666 -3.5803 0
M  V30 7929 H 763.679 -0.517355 -0.416221 0
M  V30 7930 H 766.209 -1.90939 -0.735072 0
M  V30 7931 H 766.219 -2.71568 -3.04491 0
M  V30 7932 H 764.894 -3.51823 -2.21797 0
M  V30 7933 H 763.471 -1.95643 -3.17456 0
M  V30 7934 N 765.656 0.84705 -1.32902 0
M  V30 7935 C 766.881 1.63925 -1.27056 0
M  V30 7936 C 767.306 1.87443 0.157136 0
M  V30 7937 O 766.664 1.43266 1.11106 0
M  V30 7938 C 766.712 2.97134 -2.04313 0
M  V30 7939 O 765.816 3.88049 -1.39614 0
M  V30 7940 H 765.157 0.499477 -0.437514 0
M  V30 7941 H 767.687 1.05443 -1.75336 0
M  V30 7942 H 767.697 3.46896 -2.14772 0
M  V30 7943 H 766.372 2.79339 -3.08128 0
M  V30 7944 H 764.949 3.46525 -1.3775 0
M  V30 7945 N 767.134 1.16236 1.06428 0
M  V30 7946 C 768.364 0.965782 1.82637 0
M  V30 7947 C 768.772 -0.489284 1.82764 0
M  V30 7948 O 768.115 -1.35133 1.24438 0
M  V30 7949 C 768.177 1.41458 3.30499 0
M  V30 7950 C 767.841 2.88926 3.54077 0
M  V30 7951 C 768.838 3.86939 3.47238 0
M  V30 7952 C 766.523 3.26814 3.81442 0
M  V30 7953 C 768.517 5.20841 3.67428 0
M  V30 7954 C 766.204 4.60886 4.01282 0
M  V30 7955 C 767.202 5.57708 3.94272 0
M  V30 7956 O 766.89 6.89357 4.13573 0
M  V30 7957 H 766.622 0.342569 0.582772 0
M  V30 7958 H 769.176 1.54641 1.35187 0
M  V30 7959 H 767.406 0.777426 3.78805 0
M  V30 7960 H 769.095 1.18563 3.88198 0
M  V30 7961 H 769.861 3.59014 3.26089 0
M  V30 7962 H 765.74 2.5203 3.86008 0
M  V30 7963 H 769.284 5.96401 3.61873 0
M  V30 7964 H 765.181 4.88522 4.21921 0
M  V30 7965 H 765.949 6.95913 4.30869 0
M  V30 7966 N 768.612 -1.24939 0.960631 0
M  V30 7967 C 769.575 -2.239 0.49006 0
M  V30 7968 C 770.575 -1.55497 -0.409535 0
M  V30 7969 O 771.765 -1.72978 -0.205984 0
M  V30 7970 C 768.897 -3.39654 -0.291193 0
M  V30 7971 H 770.09 -2.67044 1.36482 0
M  V30 7972 H 767.643 -1.37429 0.744505 0
M  V30 7973 H 768.378 -3.01939 -1.18336 0
M  V30 7974 H 768.163 -3.90496 0.354276 0
M  V30 7975 H 769.653 -4.13125 -0.609693 0
M  V30 7976 N 770.09 -0.729906 -1.39679 0
M  V30 7977 C 771.339 -0.272534 -1.9985 0
M  V30 7978 C 771.652 1.14519 -1.58571 0
M  V30 7979 O 772.858 1.70182 -2.11543 0
M  V30 7980 C 771.314 -0.436322 -3.57245 0
M  V30 7981 C 770.922 -1.86161 -4.0749 0
M  V30 7982 C 772.666 -0.0404679 -4.24481 0
M  V30 7983 C 770.573 -1.97522 -5.5744 0
M  V30 7984 H 769.503 -0.0981428 -0.747585 0
M  V30 7985 H 772.154 -0.903056 -1.59741 0
M  V30 7986 H 770.536 0.263015 -3.95126 0
M  V30 7987 H 771.71 -2.59248 -3.80955 0
M  V30 7988 H 770.025 -2.21021 -3.529 0
M  V30 7989 H 772.622 -0.104437 -5.34598 0
M  V30 7990 H 772.965 1.00357 -4.04023 0
M  V30 7991 H 773.498 -0.690774 -3.91757 0
M  V30 7992 H 770.237 -3.00096 -5.82771 0
M  V30 7993 H 769.757 -1.28864 -5.85794 0
M  V30 7994 H 771.436 -1.754 -6.22771 0
M  V30 7995 N 771.568 1.50203 -0.477153 0
M  V30 7996 C 772.478 2.32421 0.319027 0
M  V30 7997 C 773.494 1.43075 0.990233 0
M  V30 7998 O 774.67 1.76123 0.976873 0
M  V30 7999 C 771.735 3.17909 1.38328 0
M  V30 8000 C 770.796 4.23082 0.728036 0
M  V30 8001 C 770.029 5.04484 1.74158 0
M  V30 8002 O 770.252 4.8705 2.96881 0
M  V30 8003 O 769.186 5.8747 1.31006 0
M  V30 8004 H 773.012 3.01638 -0.353281 0
M  V30 8005 H 770.597 1.47478 -0.238891 0
M  V30 8006 H 772.479 3.70937 1.9996 0
M  V30 8007 H 771.154 2.51413 2.03895 0
M  V30 8008 H 770.061 3.7403 0.07261 0
M  V30 8009 H 771.394 4.92065 0.115216 0
M  V30 8010 N 773.046 0.209999 1.56195 0
M  V30 8011 C 773.993 -0.704854 2.19774 0
M  V30 8012 C 774.963 -1.19886 1.14964 0
M  V30 8013 O 776.148 -1.26005 1.43274 0
M  V30 8014 C 773.288 -1.91241 2.87265 0
M  V30 8015 C 772.401 -1.45838 4.06639 0
M  V30 8016 C 771.536 -2.6226 4.61945 0
M  V30 8017 C 770.575 -2.13537 5.73645 0
M  V30 8018 N 769.712 -3.2319 6.23292 0
M  V30 8019 H 774.552 -0.155944 2.97592 0
M  V30 8020 H 772.089 -0.0652235 1.46955 0
M  V30 8021 H 774.047 -2.62123 3.24573 0
M  V30 8022 H 772.677 -2.43439 2.11985 0
M  V30 8023 H 771.729 -0.644897 3.74894 0
M  V30 8024 H 773.041 -1.06103 4.87384 0
M  V30 8025 H 772.195 -3.41243 5.01636 0
M  V30 8026 H 770.934 -3.05278 3.80338 0
M  V30 8027 H 769.939 -1.33013 5.33468 0
M  V30 8028 H 771.164 -1.71533 6.57079 0
M  V30 8029 H 769.11 -3.65711 5.44602 0
M  V30 8030 H 769.027 -2.8767 6.99129 0
M  V30 8031 H 770.295 -4.02342 6.67639 0
M  V30 8032 N 774.524 -1.57472 -0.0634922 0
M  V30 8033 C 775.773 -1.86837 -0.759928 0
M  V30 8034 C 776.086 -0.803823 -1.7832 0
M  V30 8035 O 777.292 -0.985578 -2.52979 0
M  V30 8036 C 775.748 -3.31448 -1.4025 0
M  V30 8037 C 775.356 -4.46052 -0.417368 0
M  V30 8038 C 777.1 -3.70003 -2.08082 0
M  V30 8039 C 775.007 -5.81707 -1.06633 0
M  V30 8040 H 773.937 -0.697009 -0.287567 0
M  V30 8041 H 776.588 -1.83495 -0.0133914 0
M  V30 8042 H 774.97 -3.29427 -2.19759 0
M  V30 8043 H 776.144 -4.5948 0.348503 0
M  V30 8044 H 774.459 -4.16104 0.156955 0
M  V30 8045 H 777.056 -4.68653 -2.57426 0
M  V30 8046 H 777.399 -3.00226 -2.88393 0
M  V30 8047 H 777.932 -3.7405 -1.35394 0
M  V30 8048 H 774.671 -6.54798 -0.303374 0
M  V30 8049 H 774.191 -5.72064 -1.80286 0
M  V30 8050 H 775.87 -6.27317 -1.58376 0
M  V30 8051 N 776.003 0.335068 -1.53997 0
M  V30 8052 C 776.913 1.43511 -1.85585 0
M  V30 8053 C 777.929 1.57162 -0.746726 0
M  V30 8054 O 779.105 1.72477 -1.03988 0
M  V30 8055 C 776.17 2.78386 -2.06646 0
M  V30 8056 C 775.231 2.74007 -3.30483 0
M  V30 8057 C 774.464 4.02449 -3.50529 0
M  V30 8058 O 774.687 5.00147 -2.74242 0
M  V30 8059 O 773.621 4.06405 -4.4398 0
M  V30 8060 H 777.447 1.19731 -2.79102 0
M  V30 8061 H 775.032 0.528033 -1.39758 0
M  V30 8062 H 776.914 3.58247 -2.21894 0
M  V30 8063 H 775.589 3.0208 -1.16317 0
M  V30 8064 H 774.496 1.92736 -3.2063 0
M  V30 8065 H 775.829 2.55267 -4.20832 0
M  V30 8066 N 777.481 1.45874 0.596531 0
M  V30 8067 C 778.897 1.30524 0.918459 0
M  V30 8068 C 779.097 0.266429 1.99731 0
M  V30 8069 O 778.153 -0.335809 2.50257 0
M  V30 8070 C 779.466 2.68747 1.3489 0
M  V30 8071 C 781.014 2.7673 1.46251 0
M  V30 8072 C 781.489 4.15504 1.92667 0
M  V30 8073 N 782.98 4.17853 1.99883 0
M  V30 8074 C 783.715 5.22109 2.37044 0
M  V30 8075 N 783.211 6.36704 2.73094 0
M  V30 8076 N 785.004 5.09471 2.37479 0
M  V30 8077 H 777.155 2.12081 -0.116368 0
M  V30 8078 H 779.418 0.947941 0.0106033 0
M  V30 8079 H 779.124 3.46006 0.630288 0
M  V30 8080 H 778.998 2.97942 2.31323 0
M  V30 8081 H 781.385 1.99768 2.17202 0
M  V30 8082 H 781.466 2.51236 0.481054 0
M  V30 8083 H 781.11 4.92956 1.223 0
M  V30 8084 H 781.04 4.38396 2.91747 0
M  V30 8085 H 783.531 3.35163 1.74568 0
M  V30 8086 H 783.844 7.12041 3.00362 0
M  V30 8087 H 782.189 6.40087 2.70764 0
M  V30 8088 H 785.38 4.18987 2.08728 0
M  V30 8089 H 785.553 5.90837 2.66112 0
M  V30 8090 N 778.959 -0.83999 1.33349 0
M  V30 8091 C 780.208 -1.59011 1.2409 0
M  V30 8092 C 780.521 -1.94655 -0.192029 0
M  V30 8093 O 781.727 -2.68438 -0.406617 0
M  V30 8094 C 780.183 -2.86801 2.17425 0
M  V30 8095 C 779.791 -2.58525 3.65881 0
M  V30 8096 C 781.535 -3.64823 2.17036 0
M  V30 8097 C 779.442 -3.82404 4.51133 0
M  V30 8098 H 778.372 -0.596731 0.460899 0
M  V30 8099 H 781.023 -0.926274 1.58406 0
M  V30 8100 H 779.405 -3.54719 1.7604 0
M  V30 8101 H 780.579 -1.98824 4.15699 0
M  V30 8102 H 778.894 -1.93808 3.68548 0
M  V30 8103 H 781.491 -4.56774 2.7796 0
M  V30 8104 H 781.834 -3.99663 1.16513 0
M  V30 8105 H 782.367 -3.03826 2.56777 0
M  V30 8106 H 779.106 -3.52696 5.52527 0
M  V30 8107 H 778.626 -4.41447 4.0606 0
M  V30 8108 H 780.305 -4.49995 4.6488 0
M  V30 8109 N 780.437 -1.16799 -1.0581 0
M  V30 8110 C 781.369 -0.836774 -2.13379 0
M  V30 8111 C 782.382 0.158116 -1.6203 0
M  V30 8112 O 783.571 -0.0673211 -1.78373 0
M  V30 8113 C 780.671 -0.225959 -3.38146 0
M  V30 8114 C 779.844 -1.26217 -4.18794 0
M  V30 8115 C 778.903 -0.670257 -5.21914 0
M  V30 8116 O 777.929 -1.34042 -5.53192 0
M  V30 8117 N 779.131 0.540683 -5.77977 0
M  V30 8118 H 781.896 -1.76257 -2.42391 0
M  V30 8119 H 779.457 -1.06599 -1.21853 0
M  V30 8120 H 781.449 0.18317 -4.04285 0
M  V30 8121 H 780.019 0.603494 -3.06719 0
M  V30 8122 H 779.239 -1.84729 -3.48237 0
M  V30 8123 H 780.527 -1.9613 -4.69479 0
M  V30 8124 H 779.925 1.10322 -5.54838 0
M  V30 8125 H 778.482 0.891958 -6.45668 0
M  V30 8126 N 781.915 1.24427 -0.967243 0
M  V30 8127 C 782.863 2.27403 -0.488927 0
M  V30 8128 C 783.857 1.63388 0.447302 0
M  V30 8129 O 785.063 1.77085 0.322643 0
M  V30 8130 H 781.438 0.738921 -0.139643 0
M  V30 8131 H 783.409 2.65122 -1.36942 0
M  V30 8132 C 782.158 3.4709 0.205787 0
M  V30 8133 H 781.481 3.96591 -0.50551 0
M  V30 8134 H 782.921 4.2099 0.504296 0
M  V30 8135 C 781.38 3.04923 1.43261 0
M  V30 8136 O 781.91 3.12043 2.52967 0
M  V30 8137 N 780.116 2.59976 1.29849 0
M  V30 8138 H 779.663 2.54382 0.405876 0
M  V30 8139 H 779.621 2.32128 2.12047 0
M  V30 8140 N 783.393 0.737304 1.3929 0
M  V30 8141 C 784.356 0.10731 2.28949 0
M  V30 8142 C 785.356 -0.664716 1.46418 0
M  V30 8143 O 786.546 -0.493392 1.67067 0
M  V30 8144 C 783.678 -0.857145 3.29948 0
M  V30 8145 H 784.871 0.89725 2.86163 0
M  V30 8146 H 782.424 0.503279 1.47976 0
M  V30 8147 H 783.159 -1.67336 2.77794 0
M  V30 8148 H 782.944 -0.306167 3.90903 0
M  V30 8149 H 784.434 -1.29444 3.97031 0
M  V30 8150 N 784.871 -1.49948 0.485112 0
M  V30 8151 C 786.118 -2.02396 -0.0650059 0
M  V30 8152 C 786.446 -1.36606 -1.38452 0
M  V30 8153 O 785.701 -0.485476 -1.89583 0
M  V30 8154 C 786 -3.56282 -0.282434 0
M  V30 8155 C 785.666 -4.40625 0.957106 0
M  V30 8156 C 784.328 -4.63393 1.29692 0
M  V30 8157 C 786.68 -4.89799 1.78176 0
M  V30 8158 C 784.008 -5.3258 2.4612 0
M  V30 8159 C 786.36 -5.60266 2.93743 0
M  V30 8160 C 785.024 -5.81284 3.28124 0
M  V30 8161 H 784.294 -0.740618 -0.0237873 0
M  V30 8162 H 786.941 -1.80416 0.642044 0
M  V30 8163 H 785.246 -3.76853 -1.07186 0
M  V30 8164 H 786.943 -3.94442 -0.722276 0
M  V30 8165 H 783.533 -4.23133 0.682384 0
M  V30 8166 H 787.717 -4.7205 1.53239 0
M  V30 8167 H 782.973 -5.47059 2.73014 0
M  V30 8168 H 787.147 -5.97347 3.5798 0
M  V30 8169 H 784.774 -6.34671 4.18446 0
M  V30 8170 N 786.349 -0.21828 -1.56081 0
M  V30 8171 C 787.279 0.687922 -2.23136 0
M  V30 8172 C 788.26 1.20357 -1.202 0
M  V30 8173 O 789.445 1.24817 -1.48776 0
M  V30 8174 C 786.575 1.89762 -2.90874 0
M  V30 8175 C 785.529 1.51595 -4.00254 0
M  V30 8176 C 784.855 2.80415 -4.55271 0
M  V30 8177 C 786.155 0.708404 -5.17474 0
M  V30 8178 H 787.849 0.128854 -2.99123 0
M  V30 8179 H 785.395 0.0605354 -1.43873 0
M  V30 8180 H 787.348 2.53699 -3.36474 0
M  V30 8181 H 786.072 2.4816 -2.1233 0
M  V30 8182 H 784.731 0.900058 -3.55379 0
M  V30 8183 H 784.379 3.36951 -3.73461 0
M  V30 8184 H 784.079 2.55613 -5.2909 0
M  V30 8185 H 785.603 3.453 -5.03587 0
M  V30 8186 H 787.017 1.2514 -5.59476 0
M  V30 8187 H 785.414 0.557593 -5.97504 0
M  V30 8188 H 786.484 -0.285679 -4.84058 0
M  V30 8189 N 787.827 1.57504 0.0551401 0
M  V30 8190 C 789.073 1.89191 0.74688 0
M  V30 8191 C 789.428 0.813936 1.74335 0
M  V30 8192 O 788.721 -0.180217 1.90751 0
M  V30 8193 C 788.915 3.25311 1.48013 0
M  V30 8194 C 788.744 4.46247 0.556176 0
M  V30 8195 C 787.514 5.04954 0.186891 0
M  V30 8196 C 789.712 5.14068 -0.154295 0
M  V30 8197 N 787.694 6.09411 -0.741041 0
M  V30 8198 C 789.065 6.12851 -0.938809 0
M  V30 8199 C 791.12 4.97396 -0.224007 0
M  V30 8200 C 789.823 6.96759 -1.78658 0
M  V30 8201 C 791.849 5.81845 -1.05881 0
M  V30 8202 C 791.211 6.80178 -1.83133 0
M  V30 8203 H 787.31 0.741562 0.248213 0
M  V30 8204 H 789.894 1.94698 0.00777734 0
M  V30 8205 H 788.065 3.20781 2.18985 0
M  V30 8206 H 789.797 3.44594 2.12219 0
M  V30 8207 H 786.552 4.70472 0.543415 0
M  V30 8208 H 786.976 6.66303 -1.19874 0
M  V30 8209 H 791.618 4.21274 0.358924 0
M  V30 8210 H 789.336 7.72245 -2.38042 0
M  V30 8211 H 792.922 5.70997 -1.11595 0
M  V30 8212 H 791.802 7.44389 -2.46687 0
M  V30 8213 N 789.305 -0.326896 1.54172 0
M  V30 8214 C 790.237 -1.42319 1.79661 0
M  V30 8215 C 791.25 -1.47989 0.678456 0
M  V30 8216 O 792.439 -1.50773 0.955503 0
M  V30 8217 C 789.539 -2.80876 1.89636 0
M  V30 8218 C 788.712 -2.98449 3.19761 0
M  V30 8219 C 787.771 -4.17347 3.2048 0
M  V30 8220 O 786.797 -4.10667 3.94134 0
M  V30 8221 N 787.999 -5.26717 2.44027 0
M  V30 8222 H 790.764 -1.20819 2.74268 0
M  V30 8223 H 788.325 -0.516866 1.53428 0
M  V30 8224 H 790.317 -3.58619 1.87549 0
M  V30 8225 H 788.887 -2.95442 1.02141 0
M  V30 8226 H 788.107 -2.08035 3.34836 0
M  V30 8227 H 789.395 -3.07083 4.05681 0
M  V30 8228 H 788.793 -5.35019 1.8377 0
M  V30 8229 H 787.35 -6.02891 2.47721 0
M  V30 8230 N 790.784 -1.46188 -0.588786 0
M  V30 8231 C 792.009 -1.5498 -1.37826 0
M  V30 8232 C 792.434 -0.189498 -1.87143 0
M  V30 8233 O 791.792 0.829293 -1.61222 0
M  V30 8234 C 791.84 -2.55369 -2.54596 0
M  V30 8235 O 790.944 -2.08452 -3.55839 0
M  V30 8236 H 790.285 -0.521741 -0.41071 0
M  V30 8237 H 792.815 -1.91708 -0.714779 0
M  V30 8238 H 792.825 -2.74782 -3.01594 0
M  V30 8239 H 791.5 -3.54155 -2.18052 0
M  V30 8240 H 790.077 -1.98999 -3.15363 0
M  V30 8241 N 792.262 0.832906 -1.33792 0
M  V30 8242 C 793.492 1.61813 -1.28453 0
M  V30 8243 C 793.9 1.88639 0.145595 0
M  V30 8244 O 793.243 1.47122 1.10004 0
M  V30 8245 C 793.305 2.98929 -1.99704 0
M  V30 8246 C 792.969 2.95045 -3.48995 0
M  V30 8247 C 793.966 2.70337 -4.44088 0
M  V30 8248 C 791.651 3.14993 -3.91261 0
M  V30 8249 C 793.645 2.65612 -5.79421 0
M  V30 8250 C 791.332 3.09893 -5.26697 0
M  V30 8251 C 792.33 2.85235 -6.20588 0
M  V30 8252 O 792.018 2.8005 -7.53543 0
M  V30 8253 H 791.75 0.510013 -0.443693 0
M  V30 8254 H 794.304 1.04514 -1.76822 0
M  V30 8255 H 792.534 3.58106 -1.45935 0
M  V30 8256 H 794.223 3.59849 -1.87786 0
M  V30 8257 H 794.989 2.54671 -4.12756 0
M  V30 8258 H 790.868 3.33204 -3.18584 0
M  V30 8259 H 794.412 2.46285 -6.52679 0
M  V30 8260 H 790.309 3.2511 -5.5765 0
M  V30 8261 H 791.077 2.95849 -7.63162 0
M  V30 8262 N 793.74 1.17359 1.05189 0
M  V30 8263 C 794.672 0.848078 2.12933 0
M  V30 8264 C 795.685 -0.149521 1.62112 0
M  V30 8265 O 796.874 0.0767797 1.78335 0
M  V30 8266 C 793.974 0.243889 3.38021 0
M  V30 8267 C 793.147 1.28436 4.18118 0
M  V30 8268 C 792.206 0.697926 5.21551 0
M  V30 8269 O 791.232 1.36973 5.52473 0
M  V30 8270 N 792.434 -0.510024 5.78255 0
M  V30 8271 H 795.199 1.7754 2.41453 0
M  V30 8272 H 792.76 1.07244 1.21286 0
M  V30 8273 H 794.752 -0.161727 4.04377 0
M  V30 8274 H 793.322 -0.58722 3.07035 0
M  V30 8275 H 792.542 1.86573 3.47252 0
M  V30 8276 H 793.83 1.98617 4.68432 0
M  V30 8277 H 793.228 -1.07378 5.55416 0
M  V30 8278 H 791.785 -0.857705 6.46132 0
M  V30 8279 N 795.218 -1.23913 0.973828 0
M  V30 8280 C 796.464 -1.92436 0.640026 0
M  V30 8281 C 796.797 -1.75875 -0.823512 0
M  V30 8282 O 796.072 -1.11563 -1.59323 0
M  V30 8283 C 796.355 -3.4526 1.0231 0
M  V30 8284 C 796.208 -3.70961 2.54378 0
M  V30 8285 C 797.527 -4.36495 0.562155 0
M  V30 8286 H 794.646 -0.698868 0.233992 0
M  V30 8287 H 797.288 -1.46163 1.21393 0
M  V30 8288 H 795.438 -3.84802 0.534751 0
M  V30 8289 H 797.11 -3.40941 3.10737 0
M  V30 8290 H 795.353 -3.15899 2.97305 0
M  V30 8291 H 796.024 -4.77912 2.76232 0
M  V30 8292 H 798.5 -4.04363 0.981333 0
M  V30 8293 H 797.376 -5.42142 0.858689 0
M  V30 8294 H 797.637 -4.38818 -0.537659 0
M  V30 8295 N 796.696 -0.74468 -1.38897 0
M  V30 8296 C 797.643 -0.111064 -2.30533 0
M  V30 8297 C 798.613 0.719276 -1.49719 0
M  V30 8298 O 799.798 0.677244 -1.78376 0
M  V30 8299 C 796.938 0.78292 -3.36102 0
M  V30 8300 C 796.051 -0.0610817 -4.31957 0
M  V30 8301 C 795.186 0.835075 -5.24595 0
M  V30 8302 C 794.225 -0.0130974 -6.12099 0
M  V30 8303 N 793.362 0.839525 -6.97063 0
M  V30 8304 H 798.202 -0.898113 -2.84144 0
M  V30 8305 H 795.739 -0.454537 -1.39901 0
M  V30 8306 H 797.697 1.31578 -3.95908 0
M  V30 8307 H 796.327 1.53585 -2.83922 0
M  V30 8308 H 795.379 -0.711469 -3.73687 0
M  V30 8309 H 796.691 -0.716482 -4.93627 0
M  V30 8310 H 795.845 1.43542 -5.89475 0
M  V30 8311 H 794.584 1.52423 -4.63269 0
M  V30 8312 H 793.589 -0.626179 -5.46223 0
M  V30 8313 H 794.814 -0.699181 -6.75491 0
M  V30 8314 H 792.76 1.5138 -6.38295 0
M  V30 8315 H 792.677 0.240823 -7.55616 0
M  V30 8316 H 793.945 1.42513 -7.66362 0
M  V30 8317 N 798.174 1.49689 -0.493057 0
M  V30 8318 C 799.121 2.28976 0.28959 0
M  V30 8319 C 800.091 1.35011 0.967536 0
M  V30 8320 O 801.276 1.63964 0.975736 0
M  V30 8321 C 798.416 3.1748 1.35279 0
M  V30 8322 C 797.529 4.26496 0.687418 0
M  V30 8323 C 796.664 5.02226 1.73038 0
M  V30 8324 C 795.703 6.03089 1.04645 0
M  V30 8325 N 794.84 6.72014 2.03325 0
M  V30 8326 H 799.68 2.954 -0.392798 0
M  V30 8327 H 797.217 1.45657 -0.205554 0
M  V30 8328 H 799.175 3.67162 1.98111 0
M  V30 8329 H 797.805 2.53057 2.00405 0
M  V30 8330 H 796.857 3.80362 -0.0540001 0
M  V30 8331 H 798.169 4.98578 0.14864 0
M  V30 8332 H 797.323 5.55737 2.43395 0
M  V30 8333 H 796.062 4.29899 2.303 0
M  V30 8334 H 795.067 5.48817 0.328606 0
M  V30 8335 H 796.292 6.77398 0.480428 0
M  V30 8336 H 794.238 6.02464 2.59564 0
M  V30 8337 H 794.155 7.40046 1.54492 0
M  V30 8338 H 795.423 7.30133 2.72995 0
M  V30 8339 N 799.652 0.226554 1.55963 0
M  V30 8340 C 801.068 -0.128733 1.5908 0
M  V30 8341 C 801.268 -1.58558 1.24345 0
M  V30 8342 O 800.324 -2.32661 0.981069 0
M  V30 8343 C 801.637 0.202076 3.0002 0
M  V30 8344 C 803.185 0.144718 3.12665 0
M  V30 8345 C 803.66 0.449272 4.55791 0
M  V30 8346 N 805.151 0.399026 4.61478 0
M  V30 8347 C 805.886 0.608106 5.70166 0
M  V30 8348 N 805.382 0.879227 6.87198 0
M  V30 8349 N 807.175 0.5402 5.59498 0
M  V30 8350 H 799.326 1.17686 1.76816 0
M  V30 8351 H 801.589 0.472072 0.822102 0
M  V30 8352 H 801.295 1.21341 3.30105 0
M  V30 8353 H 801.169 -0.480554 3.74126 0
M  V30 8354 H 803.556 -0.857261 2.82374 0
M  V30 8355 H 803.637 0.860899 2.40878 0
M  V30 8356 H 803.281 1.44871 4.86801 0
M  V30 8357 H 803.211 -0.288157 5.25811 0
M  V30 8358 H 805.702 0.197372 3.77384 0
M  V30 8359 H 806.015 1.02673 7.65949 0
M  V30 8360 H 804.36 0.916477 6.88931 0
M  V30 8361 H 807.551 0.328581 4.66945 0
M  V30 8362 H 807.724 0.706548 6.44137 0
M  V30 8363 N 801.13 -1.57531 -0.0467866 0
M  V30 8364 C 802.062 -2.02156 -1.08007 0
M  V30 8365 C 803.075 -0.931434 -1.33522 0
M  V30 8366 O 804.264 -1.209 -1.31321 0
M  V30 8367 C 801.364 -2.36675 -2.42566 0
M  V30 8368 C 800.537 -3.67848 -2.36658 0
M  V30 8369 C 799.596 -3.89754 -3.53523 0
M  V30 8370 O 798.622 -4.61036 -3.33818 0
M  V30 8371 N 799.824 -3.34025 -4.74771 0
M  V30 8372 H 802.589 -2.91414 -0.699845 0
M  V30 8373 H 800.15 -1.60185 -0.235041 0
M  V30 8374 H 802.142 -2.48482 -3.19435 0
M  V30 8375 H 800.712 -1.53178 -2.72498 0
M  V30 8376 H 799.932 -3.66561 -1.45005 0
M  V30 8377 H 801.22 -4.53931 -2.29835 0
M  V30 8378 H 800.618 -2.76214 -4.93683 0
M  V30 8379 H 799.175 -3.51241 -5.49066 0
M  V30 8380 N 802.608 0.318715 -1.54344 0
M  V30 8381 C 803.541 1.41644 -1.7892 0
M  V30 8382 C 804.519 1.495 -0.639421 0
M  V30 8383 O 805.703 1.66835 -0.877404 0
M  V30 8384 C 802.83 2.79701 -1.9101 0
M  V30 8385 C 801.876 2.89354 -3.13331 0
M  V30 8386 S 802.709 2.53264 -4.71824 0
M  V30 8387 C 803.865 3.93384 -4.86826 0
M  V30 8388 H 804.098 1.20585 -2.71747 0
M  V30 8389 H 801.631 0.515828 -1.45529 0
M  V30 8390 H 803.589 3.59227 -1.98661 0
M  V30 8391 H 802.25 2.9804 -0.991516 0
M  V30 8392 H 801.443 3.90574 -3.1854 0
M  V30 8393 H 801.045 2.17805 -3.04035 0
M  V30 8394 H 803.337 4.88191 -4.69761 0
M  V30 8395 H 804.28 3.93156 -5.88926 0
M  V30 8396 H 804.688 3.82564 -4.15097 0
M  V30 8397 N 804.086 1.46499 0.581025 0
M  V30 8398 C 805.363 1.42372 1.34125 0
M  V30 8399 C 805.743 0.108073 2.10823 0
M  V30 8400 O 805.091 -0.910366 2.09582 0
M  V30 8401 C 805.301 2.65445 2.26583 0
M  V30 8402 C 806.649 3.11664 2.88359 0
M  V30 8403 O 807.673 2.66006 2.36896 0
M  V30 8404 O 806.532 3.90974 3.81839 0
M  V30 8405 H 803.626 0.566262 0.602724 0
M  V30 8406 H 806.172 1.58667 0.601903 0
M  V30 8407 H 804.944 3.52756 1.69348 0
M  V30 8408 H 804.567 2.51618 3.07854 0
M  V30 8409 N 805.565 -0.825799 1.34232 0
M  V30 8410 C 806.814 -1.57686 1.2577 0
M  V30 8411 C 807.127 -1.94848 -0.171372 0
M  V30 8412 O 808.333 -2.68854 -0.378123 0
M  V30 8413 C 806.789 -2.84478 2.20454 0
M  V30 8414 C 806.397 -2.54629 3.68603 0
M  V30 8415 C 808.141 -3.625 2.20893 0
M  V30 8416 C 806.048 -3.77597 4.55164 0
M  V30 8417 H 804.978 -0.591809 0.467203 0
M  V30 8418 H 807.629 -0.909421 1.59379 0
M  V30 8419 H 806.011 -3.52832 1.79793 0
M  V30 8420 H 807.185 -1.94404 4.17784 0
M  V30 8421 H 805.5 -1.89888 3.70582 0
M  V30 8422 H 808.097 -4.538 2.82789 0
M  V30 8423 H 808.44 -3.98404 1.20746 0
M  V30 8424 H 808.973 -3.01086 2.59985 0
M  V30 8425 H 805.712 -3.46815 5.56237 0
M  V30 8426 H 805.232 -4.37116 4.10719 0
M  V30 8427 H 806.911 -4.45039 4.69627 0
M  V30 8428 N 807.043 -1.17915 -1.04565 0
M  V30 8429 C 807.99 -0.901605 -2.12461 0
M  V30 8430 C 808.96 0.157011 -1.65356 0
M  V30 8431 O 810.145 0.0184494 -1.90791 0
M  V30 8432 C 807.285 -0.42796 -3.42436 0
M  V30 8433 C 806.398 -1.55142 -4.03181 0
M  V30 8434 C 805.533 -1.03101 -5.21098 0
M  V30 8435 C 804.572 -2.1295 -5.73863 0
M  V30 8436 N 803.709 -1.62339 -6.83074 0
M  V30 8437 H 808.549 -1.82551 -2.3554 0
M  V30 8438 H 806.086 -0.910389 -1.15544 0
M  V30 8439 H 808.044 -0.134859 -4.16982 0
M  V30 8440 H 806.674 0.458977 -3.1952 0
M  V30 8441 H 805.726 -1.96011 -3.26012 0
M  V30 8442 H 807.038 -2.37968 -4.38375 0
M  V30 8443 H 806.192 -0.692132 -6.02739 0
M  V30 8444 H 804.931 -0.17227 -4.87396 0
M  V30 8445 H 803.936 -2.47687 -4.90847 0
M  V30 8446 H 805.161 -2.9925 -6.09611 0
M  V30 8447 H 803.107 -0.787464 -6.51256 0
M  V30 8448 H 803.024 -2.38767 -7.17305 0
M  V30 8449 H 804.292 -1.31363 -7.68351 0
M  V30 8450 N 808.521 1.23394 -0.980386 0
M  V30 8451 C 809.469 2.26872 -0.513018 0
M  V30 8452 C 810.463 1.63853 0.429948 0
M  V30 8453 O 811.669 1.77417 0.303842 0
M  V30 8454 H 808.044 0.737398 -0.147473 0
M  V30 8455 H 810.015 2.63654 -1.39746 0
M  V30 8456 C 808.764 3.47289 0.168962 0
M  V30 8457 H 808.087 3.96033 -0.547546 0
M  V30 8458 H 809.527 4.21502 0.459616 0
M  V30 8459 C 807.986 3.06425 1.40019 0
M  V30 8460 O 808.516 3.14708 2.49643 0
M  V30 8461 N 806.722 2.61339 1.27084 0
M  V30 8462 H 806.269 2.54799 0.378872 0
M  V30 8463 H 806.227 2.34364 2.09573 0
M  V30 8464 N 809.999 0.752036 1.385 0
M  V30 8465 C 811.276 0.233075 1.94206 0
M  V30 8466 C 811.656 -1.26838 1.68746 0
M  V30 8467 O 811.004 -2.04214 1.02513 0
M  V30 8468 C 811.214 0.58509 3.44061 0
M  V30 8469 C 812.562 0.543871 4.21102 0
M  V30 8470 O 813.586 0.523291 3.52335 0
M  V30 8471 O 812.445 0.553436 5.4369 0
M  V30 8472 H 809.539 0.0483049 0.825588 0
M  V30 8473 H 812.085 0.832053 1.47902 0
M  V30 8474 H 810.857 1.62212 3.56094 0
M  V30 8475 H 810.48 -0.0419738 3.97578 0
M  V30 8476 N 811.477 -1.49425 0.500989 0
M  V30 8477 C 812.427 -2.26061 -0.296698 0
M  V30 8478 C 813.411 -1.30906 -0.935541 0
M  V30 8479 O 814.603 -1.55628 -0.843142 0
M  V30 8480 C 811.732 -3.15189 -1.36055 0
M  V30 8481 C 810.818 -4.17806 -0.727952 0
M  V30 8482 N 811.209 -5.05516 0.169408 0
M  V30 8483 C 809.507 -4.34907 -0.988535 0
M  V30 8484 C 810.208 -5.79267 0.531509 0
M  V30 8485 N 809.184 -5.43507 -0.100564 0
M  V30 8486 H 812.986 -2.91246 0.394103 0
M  V30 8487 H 810.5 -1.59275 0.317065 0
M  V30 8488 H 812.497 -3.68724 -1.94547 0
M  V30 8489 H 811.157 -2.51556 -2.05303 0
M  V30 8490 H 812.168 -5.15075 0.540218 0
M  V30 8491 H 808.845 -3.82481 -1.67376 0
M  V30 8492 H 810.235 -6.59872 1.26564 0
M  V30 8493 N 812.955 -0.234822 -1.55841 0
M  V30 8494 C 813.902 0.6698 -2.20867 0
M  V30 8495 C 814.872 1.18042 -1.16856 0
M  V30 8496 O 816.057 1.23709 -1.45261 0
M  V30 8497 C 813.197 1.86646 -2.90271 0
M  V30 8498 C 812.31 1.39351 -4.08908 0
M  V30 8499 C 811.445 2.54878 -4.66059 0
M  V30 8500 C 810.484 2.04384 -5.76969 0
M  V30 8501 N 809.621 3.13233 -6.28355 0
M  V30 8502 H 814.461 0.10858 -2.97802 0
M  V30 8503 H 811.998 0.041836 -1.4704 0
M  V30 8504 H 813.956 2.56926 -3.28702 0
M  V30 8505 H 812.586 2.40035 -2.15831 0
M  V30 8506 H 811.638 0.585173 -3.75872 0
M  V30 8507 H 812.95 0.983356 -4.89011 0
M  V30 8508 H 812.104 3.33219 -5.07001 0
M  V30 8509 H 810.843 2.99188 -3.85146 0
M  V30 8510 H 809.848 1.24509 -5.35516 0
M  V30 8511 H 811.073 1.61057 -6.59725 0
M  V30 8512 H 809.019 3.57 -5.50352 0
M  V30 8513 H 808.936 2.76511 -7.03618 0
M  V30 8514 H 810.204 3.91669 -6.73955 0
M  V30 8515 N 814.433 1.57553 0.0384317 0
M  V30 8516 C 815.381 2.07021 1.06043 0
M  V30 8517 C 816.375 0.982078 1.38028 0
M  V30 8518 O 817.581 1.16702 1.37042 0
M  V30 8519 H 813.956 0.660522 0.359464 0
M  V30 8520 H 815.927 2.91944 0.617339 0
M  V30 8521 C 814.676 2.55734 2.35574 0
M  V30 8522 H 813.999 3.39074 2.11822 0
M  V30 8523 H 815.439 2.94066 3.05452 0
M  V30 8524 C 813.898 1.45449 3.03885 0
M  V30 8525 O 814.428 0.815402 3.93337 0
M  V30 8526 N 812.634 1.19134 2.65058 0
M  V30 8527 H 812.181 1.71288 1.92401 0
M  V30 8528 H 812.139 0.455554 3.11082 0
M  V30 8529 N 815.911 -0.310526 1.54511 0
M  V30 8530 C 816.859 -1.40272 1.85544 0
M  V30 8531 C 817.853 -1.52941 0.728377 0
M  V30 8532 O 819.059 -1.55172 0.912234 0
M  V30 8533 H 815.434 -0.468355 0.588343 0
M  V30 8534 H 817.405 -1.11329 2.76855 0
M  V30 8535 C 816.154 -2.76279 2.11105 0
M  V30 8536 H 815.477 -2.67308 2.97298 0
M  V30 8537 H 816.917 -3.51736 2.36765 0
M  V30 8538 C 815.376 -3.24472 0.906618 0
M  V30 8539 O 815.906 -4.01514 0.122358 0
M  V30 8540 N 814.112 -2.81676 0.714632 0
M  V30 8541 H 813.659 -2.19143 1.35404 0
M  V30 8542 H 813.617 -3.14272 -0.089703 0
M  V30 8543 N 817.389 -1.46805 -0.573248 0
M  V30 8544 C 818.299 -1.60687 -1.70929 0
M  V30 8545 C 819.315 -0.490084 -1.66956 0
M  V30 8546 O 820.491 -0.755482 -1.86693 0
M  V30 8547 C 817.556 -1.60259 -3.07438 0
M  V30 8548 C 816.617 -2.83242 -3.22603 0
M  V30 8549 C 815.85 -2.82825 -4.52599 0
M  V30 8550 O 816.073 -1.92113 -5.37074 0
M  V30 8551 O 815.007 -3.74489 -4.71213 0
M  V30 8552 H 818.833 -2.56782 -1.62163 0
M  V30 8553 H 816.418 -1.29706 -0.741399 0
M  V30 8554 H 818.3 -1.6275 -3.88704 0
M  V30 8555 H 816.975 -0.673268 -3.16621 0
M  V30 8556 H 815.882 -2.86302 -2.40794 0
M  V30 8557 H 817.215 -3.75415 -3.18315 0
M  V30 8558 N 818.867 0.818669 -1.34668 0
M  V30 8559 C 820.283 1.11243 -1.14443 0
M  V30 8560 C 820.483 2.01435 0.0512212 0
M  V30 8561 O 819.539 2.41854 0.725471 0
M  V30 8562 C 820.852 1.75504 -2.4417 0
M  V30 8563 C 822.4 1.8798 -2.50265 0
M  V30 8564 C 822.875 2.55657 -3.80004 0
M  V30 8565 N 824.366 2.63153 -3.81189 0
M  V30 8566 C 825.101 3.16258 -4.78298 0
M  V30 8567 N 824.597 3.69893 -5.85791 0
M  V30 8568 N 826.39 3.14698 -4.65748 0
M  V30 8569 H 818.541 0.218848 -2.1127 0
M  V30 8570 H 820.804 0.159655 -0.934459 0
M  V30 8571 H 820.51 1.16697 -3.31775 0
M  V30 8572 H 820.384 2.75329 -2.57825 0
M  V30 8573 H 822.771 2.45934 -1.63096 0
M  V30 8574 H 822.852 0.870447 -2.40535 0
M  V30 8575 H 822.496 1.98356 -4.67565 0
M  V30 8576 H 822.426 3.57105 -3.87019 0
M  V30 8577 H 824.917 2.2514 -3.03513 0
M  V30 8578 H 825.23 4.08678 -6.55898 0
M  V30 8579 H 823.575 3.68125 -5.89499 0
M  V30 8580 H 826.766 2.72066 -3.80917 0
M  V30 8581 H 826.939 3.5578 -5.41594 0
M  V30 8582 N 820.346 1.18468 1.03938 0
M  V30 8583 C 821.276 0.936389 2.13902 0
M  V30 8584 C 822.257 -0.126381 1.6963 0
M  V30 8585 O 823.442 0.0264757 1.94182 0
M  V30 8586 C 820.572 0.462729 3.44204 0
M  V30 8587 C 819.526 1.46613 4.02105 0
M  V30 8588 C 818.852 0.84994 5.27902 0
M  V30 8589 C 820.152 2.84323 4.3813 0
M  V30 8590 H 821.846 1.85602 2.3493 0
M  V30 8591 H 819.392 0.893806 1.12903 0
M  V30 8592 H 821.345 0.276382 4.20493 0
M  V30 8593 H 820.069 -0.492477 3.22866 0
M  V30 8594 H 818.728 1.63944 3.27899 0
M  V30 8595 H 818.376 -0.112493 5.02874 0
M  V30 8596 H 818.076 1.51988 5.67603 0
M  V30 8597 H 819.6 0.674152 6.06867 0
M  V30 8598 H 821.014 2.70636 5.054 0
M  V30 8599 H 819.411 3.48012 4.88884 0
M  V30 8600 H 820.481 3.37776 3.47901 0
M  V30 8601 N 821.824 -1.22873 0.986916 0
M  V30 8602 C 822.754 -2.2688 0.552064 0
M  V30 8603 C 823.735 -1.64883 -0.418048 0
M  V30 8604 O 824.92 -1.9171 -0.30999 0
M  V30 8605 C 822.05 -3.47018 -0.139959 0
M  V30 8606 C 821.004 -4.21411 0.748091 0
M  V30 8607 C 820.33 -5.34645 -0.0765132 0
M  V30 8608 C 821.63 -4.80726 2.04206 0
M  V30 8609 H 823.324 -2.63507 1.42143 0
M  V30 8610 H 820.87 -1.26668 0.68492 0
M  V30 8611 H 822.823 -4.18931 -0.455527 0
M  V30 8612 H 821.547 -3.0947 -1.04382 0
M  V30 8613 H 820.206 -3.51325 1.04721 0
M  V30 8614 H 819.854 -4.93339 -0.981109 0
M  V30 8615 H 819.554 -5.85342 0.514606 0
M  V30 8616 H 821.078 -6.09377 -0.386313 0
M  V30 8617 H 822.492 -5.44612 1.79083 0
M  V30 8618 H 820.889 -5.41737 2.5815 0
M  V30 8619 H 821.959 -4.01109 2.72469 0
M  V30 8620 N 823.302 -0.75937 -1.38099 0
M  V30 8621 C 824.549 -0.318113 -1.99986 0
M  V30 8622 C 824.877 1.10184 -1.6028 0
M  V30 8623 O 824.132 1.77015 -0.834524 0
M  V30 8624 C 824.431 -0.394999 -3.55211 0
M  V30 8625 C 824.097 -1.77143 -4.14646 0
M  V30 8626 C 822.759 -2.14811 -4.30592 0
M  V30 8627 C 825.111 -2.67407 -4.47373 0
M  V30 8628 C 822.439 -3.42203 -4.76565 0
M  V30 8629 C 824.791 -3.94196 -4.94765 0
M  V30 8630 C 823.455 -4.31925 -5.08918 0
M  V30 8631 H 822.725 -0.116406 -0.7318 0
M  V30 8632 H 825.372 -0.97098 -1.65058 0
M  V30 8633 H 823.677 0.341426 -3.9031 0
M  V30 8634 H 825.374 -0.0350722 -4.00985 0
M  V30 8635 H 821.964 -1.46864 -4.02652 0
M  V30 8636 H 826.148 -2.39569 -4.3465 0
M  V30 8637 H 821.404 -3.71346 -4.85708 0
M  V30 8638 H 825.578 -4.64276 -5.19057 0
M  V30 8639 H 823.205 -5.30699 -5.443 0
M  V30 8640 N 824.78 1.49157 -0.508906 0
M  V30 8641 C 825.73 2.26215 0.284705 0
M  V30 8642 C 826.714 1.31401 0.928586 0
M  V30 8643 O 827.906 1.56073 0.834877 0
M  V30 8644 C 825.035 3.15906 1.34382 0
M  V30 8645 C 824.121 4.18186 0.705785 0
M  V30 8646 N 824.512 5.05419 -0.196214 0
M  V30 8647 C 822.81 4.35425 0.965457 0
M  V30 8648 C 823.511 5.78977 -0.562222 0
M  V30 8649 N 822.487 5.43553 0.0717389 0
M  V30 8650 H 826.289 2.91033 -0.409543 0
M  V30 8651 H 823.803 1.59104 -0.325508 0
M  V30 8652 H 825.8 3.6975 1.92589 0
M  V30 8653 H 824.46 2.52642 2.03966 0
M  V30 8654 H 825.471 5.14781 -0.567526 0
M  V30 8655 H 822.148 3.83363 1.65346 0
M  V30 8656 H 823.538 6.59192 -1.30062 0
M  V30 8657 N 826.258 0.243083 1.55714 0
M  V30 8658 C 827.506 -0.381964 1.98458 0
M  V30 8659 C 827.827 -1.58745 1.13247 0
M  V30 8660 O 827.097 -1.94723 0.214384 0
M  V30 8661 H 825.677 -0.144114 0.732967 0
M  V30 8662 H 828.339 0.340985 1.91894 0
M  V30 8663 H 827.435 -0.693702 3.04293 0
M  V30 8664 N 827.736 -1.57571 -0.0300757 0
M  V30 8665 C 828.964 -1.93485 -0.732891 0
M  V30 8666 C 829.379 -0.842758 -1.68947 0
M  V30 8667 O 828.736 0.180904 -1.81601 0
M  V30 8668 C 828.787 -3.29328 -1.49082 0
M  V30 8669 O 828.508 -4.34341 -0.572639 0
M  V30 8670 C 830.009 -3.79517 -2.29088 0
M  V30 8671 H 827.229 -0.638588 -0.206026 0
M  V30 8672 H 829.773 -2.04496 0.0120966 0
M  V30 8673 H 827.928 -3.19716 -2.1877 0
M  V30 8674 H 828.342 -5.12748 -1.10406 0
M  V30 8675 H 829.816 -4.77081 -2.77665 0
M  V30 8676 H 830.293 -3.10659 -3.10464 0
M  V30 8677 H 830.899 -3.92208 -1.64477 0
M  V30 8678 N 829.214 0.302327 -1.54673 0
M  V30 8679 C 830.491 1.05721 -1.64567 0
M  V30 8680 C 830.871 2.0526 -0.493108 0
M  V30 8681 O 830.219 2.22729 0.510315 0
M  V30 8682 C 830.429 1.74025 -3.02517 0
M  V30 8683 C 831.777 2.26271 -3.59286 0
M  V30 8684 O 832.801 1.8406 -3.0496 0
M  V30 8685 O 831.66 3.0361 -4.54404 0
M  V30 8686 H 828.754 0.488577 -0.667249 0
M  V30 8687 H 831.3 0.300521 -1.67018 0
M  V30 8688 H 830.072 1.0174 -3.77842 0
M  V30 8689 H 829.695 2.56454 -3.03838 0
M  V30 8690 N 830.692 1.47107 0.565454 0
M  V30 8691 C 831.655 1.58535 1.65527 0
M  V30 8692 C 832.655 0.461081 1.54048 0
M  V30 8693 O 833.845 0.725911 1.58355 0
M  V30 8694 C 830.977 1.52204 3.05036 0
M  V30 8695 H 832.17 2.55676 1.56747 0
M  V30 8696 H 829.723 1.35174 0.78471 0
M  V30 8697 H 830.458 0.564071 3.19357 0
M  V30 8698 H 830.243 2.3379 3.14777 0
M  V30 8699 H 831.733 1.63322 3.84338 0
M  V30 8700 N 832.17 -0.811516 1.35101 0
M  V30 8701 C 833.447 -1.55491 1.18667 0
M  V30 8702 C 833.827 -2.09775 -0.236189 0
M  V30 8703 O 833.175 -1.91989 -1.23905 0
M  V30 8704 C 833.385 -2.66732 2.25067 0
M  V30 8705 C 834.733 -3.35201 2.60625 0
M  V30 8706 O 835.757 -2.76998 2.23943 0
M  V30 8707 O 834.616 -4.40334 3.23679 0
M  V30 8708 H 831.71 -0.686783 0.460716 0
M  V30 8709 H 834.256 -0.851903 1.46768 0
M  V30 8710 H 833.028 -2.24457 3.20523 0
M  V30 8711 H 832.651 -3.44673 1.98208 0
M  V30 8712 N 833.648 -1.19017 -1.03309 0
M  V30 8713 C 834.873 -1.01598 -1.80811 0
M  V30 8714 C 835.298 0.430773 -1.83101 0
M  V30 8715 O 834.656 1.30946 -1.25391 0
M  V30 8716 C 834.704 -1.5845 -3.23923 0
M  V30 8717 O 833.808 -0.810972 -4.04348 0
M  V30 8718 H 833.149 -0.359398 -0.558327 0
M  V30 8719 H 835.679 -1.57945 -1.30055 0
M  V30 8720 H 835.689 -1.61486 -3.74682 0
M  V30 8721 H 834.364 -2.63752 -3.21571 0
M  V30 8722 H 832.941 -0.85353 -3.63 0
M  V30 8723 N 835.127 1.22348 -0.993418 0
M  V30 8724 C 836.373 1.91393 -0.67056 0
M  V30 8725 C 836.706 1.77163 0.795428 0
M  V30 8726 O 835.981 1.14084 1.57528 0
M  V30 8727 C 836.264 3.43589 -1.0779 0
M  V30 8728 C 836.117 3.66867 -2.60248 0
M  V30 8729 C 837.436 4.35545 -0.631527 0
M  V30 8730 H 834.555 0.695057 -0.24508 0
M  V30 8731 H 837.197 1.44213 -1.23703 0
M  V30 8732 H 835.347 3.83903 -0.595902 0
M  V30 8733 H 837.019 3.35954 -3.16121 0
M  V30 8734 H 835.262 3.1113 -3.02293 0
M  V30 8735 H 835.933 4.73457 -2.838 0
M  V30 8736 H 838.409 4.0275 -1.04554 0
M  V30 8737 H 837.285 5.40707 -0.944831 0
M  V30 8738 H 837.546 4.39618 0.467779 0
M  V30 8739 N 836.605 0.766683 1.37694 0
M  V30 8740 C 838.016 0.394761 1.82479 0
M  V30 8741 C 838.367 -1.07842 1.63904 0
M  V30 8742 O 837.492 -1.83479 1.14737 0
M  V30 8743 C 838.087 0.70974 3.31283 0
M  V30 8744 C 836.646 0.390936 3.74364 0
M  V30 8745 C 835.793 0.956192 2.60293 0
M  V30 8746 H 838.744 0.961756 1.26238 0
M  V30 8747 H 838.765 -0.00742144 3.80499 0
M  V30 8748 H 838.277 1.782 3.4477 0
M  V30 8749 H 836.378 -0.674213 3.66449 0
M  V30 8750 H 836.491 0.895645 4.70654 0
M  V30 8751 H 834.855 0.380744 2.51838 0
M  V30 8752 H 835.638 2.03375 2.76575 0
M  V30 8753 N 838.083 -1.48885 0.516809 0
M  V30 8754 C 839.313 -2.06592 -0.018375 0
M  V30 8755 C 839.721 -1.37543 -1.29917 0
M  V30 8756 O 839.064 -0.452527 -1.78039 0
M  V30 8757 C 839.126 -3.58016 -0.326315 0
M  V30 8758 C 838.79 -4.48853 0.859072 0
M  V30 8759 C 839.787 -4.89422 1.75391 0
M  V30 8760 C 837.472 -4.90937 1.06235 0
M  V30 8761 C 839.466 -5.70831 2.83604 0
M  V30 8762 C 837.153 -5.72119 2.14763 0
M  V30 8763 C 838.151 -6.11972 3.03281 0
M  V30 8764 O 837.839 -6.91527 4.09934 0
M  V30 8765 H 837.571 -0.675559 0.0244023 0
M  V30 8766 H 840.125 -1.92442 0.718005 0
M  V30 8767 H 838.355 -3.70231 -1.1165 0
M  V30 8768 H 840.044 -3.97898 -0.801999 0
M  V30 8769 H 840.81 -4.57542 1.60875 0
M  V30 8770 H 836.689 -4.59409 0.382677 0
M  V30 8771 H 840.233 -6.01857 3.52724 0
M  V30 8772 H 836.13 -6.03412 2.29268 0
M  V30 8773 H 836.898 -7.0986 4.07482 0
M  V30 8774 N 839.561 -0.251338 -1.55583 0
M  V30 8775 C 840.807 0.37272 -1.99346 0
M  V30 8776 C 841.14 1.57266 -1.13934 0
M  V30 8777 O 840.415 1.9343 -0.20377 0
M  V30 8778 C 840.698 0.778245 -3.5159 0
M  V30 8779 C 840.551 -0.427394 -4.47765 0
M  V30 8780 C 841.87 1.62358 -4.09057 0
M  V30 8781 H 838.989 0.134002 -0.724715 0
M  V30 8782 H 841.631 -0.353536 -1.86682 0
M  V30 8783 H 839.781 1.39704 -3.62512 0
M  V30 8784 H 841.453 -1.06586 -4.48818 0
M  V30 8785 H 839.696 -1.06972 -4.20404 0
M  V30 8786 H 840.367 -0.10025 -5.51909 0
M  V30 8787 H 842.843 1.1012 -4.01264 0
M  V30 8788 H 841.719 1.87617 -5.1584 0
M  V30 8789 H 841.98 2.59688 -3.57791 0
M  V30 8790 N 841.039 1.57585 0.0217189 0
M  V30 8791 C 841.987 2.08134 1.03842 0
M  V30 8792 C 842.981 0.996662 1.36978 0
M  V30 8793 O 844.187 1.18149 1.35797 0
M  V30 8794 H 840.562 0.664298 0.352438 0
M  V30 8795 H 842.533 2.92583 0.58634 0
M  V30 8796 C 841.282 2.58218 2.32849 0
M  V30 8797 H 840.605 3.41302 2.08214 0
M  V30 8798 H 842.045 2.97289 3.02316 0
M  V30 8799 C 840.504 1.48664 3.02325 0
M  V30 8800 O 841.034 0.857075 3.9245 0
M  V30 8801 N 839.24 1.21938 2.63779 0
M  V30 8802 H 838.787 1.73319 1.90574 0
M  V30 8803 H 838.745 0.488523 3.10581 0
M  V30 8804 N 842.517 -0.29412 1.54831 0
M  V30 8805 C 843.449 -1.38476 1.82639 0
M  V30 8806 C 844.462 -1.46517 0.709694 0
M  V30 8807 O 845.651 -1.48712 0.987269 0
M  V30 8808 C 842.751 -2.76791 1.95551 0
M  V30 8809 C 841.924 -2.91599 3.26019 0
M  V30 8810 C 840.983 -4.10456 3.29261 0
M  V30 8811 O 840.009 -4.02214 4.02756 0
M  V30 8812 N 841.211 -5.21422 2.55145 0
M  V30 8813 H 843.976 -1.14974 2.76769 0
M  V30 8814 H 841.537 -0.484206 1.5449 0
M  V30 8815 H 843.529 -3.5456 1.95113 0
M  V30 8816 H 842.099 -2.93209 1.08384 0
M  V30 8817 H 841.319 -2.00886 3.39173 0
M  V30 8818 H 842.607 -2.98409 4.12104 0
M  V30 8819 H 842.005 -5.31 1.95078 0
M  V30 8820 H 840.562 -5.97501 2.60454 0
M  V30 8821 N 843.995 -1.47404 -0.557645 0
M  V30 8822 C 844.945 -1.56267 -1.66026 0
M  V30 8823 C 845.929 -0.42161 -1.55278 0
M  V30 8824 O 847.121 -0.671505 -1.63768 0
M  V30 8825 C 844.25 -1.57958 -3.04802 0
M  V30 8826 C 843.336 -2.77447 -3.20755 0
M  V30 8827 N 843.727 -4.02148 -3.06775 0
M  V30 8828 C 842.025 -2.74199 -3.51754 0
M  V30 8829 C 842.726 -4.82168 -3.25406 0
M  V30 8830 N 841.702 -4.14481 -3.5172 0
M  V30 8831 H 845.504 -2.50454 -1.53785 0
M  V30 8832 H 843.018 -1.43392 -0.762388 0
M  V30 8833 H 845.015 -1.62397 -3.8397 0
M  V30 8834 H 843.675 -0.648667 -3.18155 0
M  V30 8835 H 844.686 -4.33014 -2.84111 0
M  V30 8836 H 841.363 -1.90243 -3.71637 0
M  V30 8837 H 842.753 -5.91037 -3.19569 0
M  V30 8838 N 845.473 0.80434 -1.35529 0
M  V30 8839 C 846.721 1.55845 -1.28673 0
M  V30 8840 C 847.042 1.94511 0.137976 0
M  V30 8841 O 846.312 1.63775 1.07492 0
M  V30 8842 H 844.892 0.577931 -0.473291 0
M  V30 8843 H 847.554 0.959293 -1.69657 0
M  V30 8844 H 846.65 2.47285 -1.90411 0
M  V30 8845 N 846.951 1.19563 1.02676 0
M  V30 8846 C 848.198 0.999568 1.7611 0
M  V30 8847 C 848.526 -0.469432 1.8875 0
M  V30 8848 O 847.781 -1.36481 1.40255 0
M  V30 8849 C 848.08 1.61619 3.18769 0
M  V30 8850 C 847.746 3.11366 3.26132 0
M  V30 8851 C 846.408 3.52234 3.27848 0
M  V30 8852 C 848.76 4.07374 3.25109 0
M  V30 8853 C 846.088 4.87658 3.26201 0
M  V30 8854 C 848.44 5.42731 3.25002 0
M  V30 8855 C 847.104 5.83027 3.25017 0
M  V30 8856 H 846.374 0.365768 0.644434 0
M  V30 8857 H 849.021 1.48838 1.20497 0
M  V30 8858 H 847.326 1.04974 3.77476 0
M  V30 8859 H 849.023 1.43975 3.74262 0
M  V30 8860 H 845.613 2.78804 3.25525 0
M  V30 8861 H 849.797 3.76842 3.22961 0
M  V30 8862 H 845.053 5.18156 3.24537 0
M  V30 8863 H 849.227 6.16879 3.23161 0
M  V30 8864 H 846.854 6.87936 3.23494 0
M  V30 8865 N 848.429 -1.21819 0.999893 0
M  V30 8866 C 849.377 -2.26027 0.549047 0
M  V30 8867 C 850.371 -1.64516 -0.403826 0
M  V30 8868 O 851.577 -1.77878 -0.275578 0
M  V30 8869 H 847.952 -0.734958 0.159185 0
M  V30 8870 H 849.923 -2.61398 1.43923 0
M  V30 8871 C 848.672 -3.47514 -0.11369 0
M  V30 8872 H 847.995 -3.95112 0.610482 0
M  V30 8873 H 849.435 -4.22179 -0.3925 0
M  V30 8874 C 847.894 -3.08614 -1.35126 0
M  V30 8875 O 848.424 -3.1864 -2.44605 0
M  V30 8876 N 846.63 -2.63327 -1.22911 0
M  V30 8877 H 846.177 -2.55369 -0.338288 0
M  V30 8878 H 846.135 -2.37668 -2.05818 0
M  V30 8879 N 849.908 -0.773975 -1.37286 0
M  V30 8880 C 851.324 -0.45386 -1.53011 0
M  V30 8881 C 851.524 1.03018 -1.73175 0
M  V30 8882 O 850.58 1.81597 -1.75438 0
M  V30 8883 C 851.893 -1.27087 -2.72524 0
M  V30 8884 C 853.441 -1.26299 -2.86387 0
M  V30 8885 C 853.916 -2.0634 -4.08886 0
M  V30 8886 N 855.407 -2.03706 -4.16003 0
M  V30 8887 C 856.142 -2.62418 -5.09828 0
M  V30 8888 N 855.638 -3.29926 -6.09197 0
M  V30 8889 N 857.431 -2.52236 -5.02328 0
M  V30 8890 H 849.582 -1.73551 -1.22449 0
M  V30 8891 H 851.845 -0.736874 -0.596423 0
M  V30 8892 H 851.551 -2.32263 -2.64096 0
M  V30 8893 H 851.425 -0.90157 -3.66267 0
M  V30 8894 H 853.812 -0.219213 -2.94285 0
M  V30 8895 H 853.893 -1.67195 -1.93596 0
M  V30 8896 H 853.537 -3.10741 -4.01749 0
M  V30 8897 H 853.467 -1.62825 -5.00795 0
M  V30 8898 H 855.958 -1.54559 -3.44848 0
M  V30 8899 H 856.271 -3.72095 -6.77322 0
M  V30 8900 H 854.616 -3.34026 -6.09469 0
M  V30 8901 H 857.807 -1.99108 -4.23643 0
M  V30 8902 H 857.98 -2.98286 -5.75265 0
M  V30 8903 N 851.386 1.48609 -0.524698 0
M  V30 8904 C 852.611 2.07398 0.00952139 0
M  V30 8905 C 853.036 1.37939 1.27884 0
M  V30 8906 O 852.394 0.443633 1.75788 0
M  V30 8907 C 852.442 3.59916 0.221956 0
M  V30 8908 O 851.546 3.91647 1.29175 0
M  V30 8909 H 850.887 0.662981 -0.0367729 0
M  V30 8910 H 853.417 1.91092 -0.7311 0
M  V30 8911 H 853.427 4.05552 0.446236 0
M  V30 8912 H 852.102 4.09876 -0.705306 0
M  V30 8913 H 850.679 3.57796 1.05055 0
M  V30 8914 N 852.864 0.259585 1.55447 0
M  V30 8915 C 854.104 -0.362989 2.01151 0
M  V30 8916 C 854.468 -1.54201 1.14394 0
M  V30 8917 O 855.669 -2.23318 1.49608 0
M  V30 8918 C 853.94 -0.750399 3.49434 0
M  V30 8919 S 855.499 -1.3617 4.17137 0
M  V30 8920 H 852.317 -0.11365 0.701858 0
M  V30 8921 H 854.919 0.377788 1.91815 0
M  V30 8922 H 853.623 0.116807 4.10234 0
M  V30 8923 H 853.154 -1.52303 3.62722 0
M  V30 8924 H 855.169 -2.65059 4.19474 0
M  V30 8925 N 854.342 -1.57594 -0.0133615 0
M  V30 8926 C 855.305 -2.06534 -0.993799 0
M  V30 8927 C 856.305 -0.972267 -1.28077 0
M  V30 8928 O 857.495 -1.23537 -1.22818 0
M  V30 8929 C 854.627 -2.49554 -2.3224 0
M  V30 8930 H 855.82 -2.94419 -0.570741 0
M  V30 8931 H 853.373 -1.54113 -0.260546 0
M  V30 8932 H 854.108 -1.64872 -2.79263 0
M  V30 8933 H 853.893 -3.29371 -2.12737 0
M  V30 8934 H 855.383 -2.8779 -3.026 0
M  V30 8935 N 855.82 0.285905 -1.54985 0
M  V30 8936 C 857.068 1.01718 -1.74636 0
M  V30 8937 C 857.389 1.87277 -0.543342 0
M  V30 8938 O 856.659 1.90847 0.442078 0
M  V30 8939 H 855.239 0.378549 -0.643979 0
M  V30 8940 H 857.901 0.313247 -1.92366 0
M  V30 8941 H 856.997 1.66159 -2.64192 0
M  V30 8942 N 857.298 1.47698 0.54982 0
M  V30 8943 C 858.245 1.60739 1.65625 0
M  V30 8944 C 859.215 0.450129 1.59884 0
M  V30 8945 O 860.4 0.671123 1.78607 0
M  V30 8946 C 857.54 1.63457 3.03934 0
M  V30 8947 C 856.653 2.90152 3.20056 0
M  V30 8948 C 855.788 2.84157 4.48807 0
M  V30 8949 C 854.827 4.05644 4.58387 0
M  V30 8950 N 853.964 3.97843 5.78503 0
M  V30 8951 H 858.804 2.55234 1.53817 0
M  V30 8952 H 856.341 1.26593 0.749173 0
M  V30 8953 H 858.299 1.63015 3.84034 0
M  V30 8954 H 856.929 0.724689 3.1456 0
M  V30 8955 H 855.981 3.00428 2.33339 0
M  V30 8956 H 857.293 3.80097 3.22998 0
M  V30 8957 H 856.447 2.82006 5.37175 0
M  V30 8958 H 855.186 1.91908 4.48356 0
M  V30 8959 H 854.191 4.08092 3.6843 0
M  V30 8960 H 855.416 4.9903 4.60593 0
M  V30 8961 H 853.362 3.08401 5.78986 0
M  V30 8962 H 853.279 4.81473 5.82855 0
M  V30 8963 H 854.547 3.99719 6.69212 0
M  V30 8964 N 858.776 -0.797141 1.35954 0
M  V30 8965 C 859.724 -1.93084 1.29697 0
M  V30 8966 C 860.718 -1.68329 0.190152 0
M  V30 8967 O 861.924 -1.7643 0.3567 0
M  V30 8968 H 858.299 -0.634531 0.403577 0
M  V30 8969 H 860.27 -1.95481 2.25455 0
M  V30 8970 C 859.019 -3.29996 1.09536 0
M  V30 8971 H 858.342 -3.49607 1.93946 0
M  V30 8972 H 859.782 -4.09696 1.09202 0
M  V30 8973 C 858.241 -3.36304 -0.200381 0
M  V30 8974 O 858.771 -3.83579 -1.19291 0
M  V30 8975 N 856.977 -2.89587 -0.242406 0
M  V30 8976 H 856.524 -2.51307 0.565897 0
M  V30 8977 H 856.482 -2.94189 -1.10906 0
M  V30 8978 N 860.254 -1.20106 -1.0204 0
M  V30 8979 C 861.217 -0.948261 -2.08664 0
M  V30 8980 C 862.217 0.0746753 -1.60627 0
M  V30 8981 O 863.407 -0.160981 -1.73455 0
M  V30 8982 C 860.539 -0.426854 -3.38217 0
M  V30 8983 H 861.732 -1.894 -2.32524 0
M  V30 8984 H 859.285 -1.0159 -1.18782 0
M  V30 8985 H 860.02 0.524532 -3.2003 0
M  V30 8986 H 859.805 -1.16451 -3.74408 0
M  V30 8987 H 861.295 -0.269346 -4.1673 0
M  V30 8988 N 861.732 1.21287 -1.00634 0
M  V30 8989 C 862.978 1.90671 -0.690822 0
M  V30 8990 C 863.311 1.77996 0.776592 0
M  V30 8991 O 862.586 1.15748 1.5631 0
M  V30 8992 C 862.869 3.42426 -1.11428 0
M  V30 8993 C 862.722 3.64086 -2.64124 0
M  V30 8994 C 864.041 4.34851 -0.677686 0
M  V30 8995 H 861.16 0.692419 -0.252439 0
M  V30 8996 H 863.802 1.42893 -1.25226 0
M  V30 8997 H 861.952 3.83249 -0.636586 0
M  V30 8998 H 863.624 3.32582 -3.19667 0
M  V30 8999 H 861.867 3.07906 -3.05576 0
M  V30 9000 H 862.538 4.7042 -2.88806 0
M  V30 9001 H 865.014 4.01619 -1.0882 0
M  V30 9002 H 863.89 5.39675 -1.00213 0
M  V30 9003 H 864.151 4.4009 0.421125 0
M  V30 9004 N 863.21 0.781244 1.36873 0
M  V30 9005 C 864.435 0.360398 2.04245 0
M  V30 9006 C 864.86 -1.01242 1.58529 0
M  V30 9007 O 864.218 -1.65063 0.749936 0
M  V30 9008 C 864.266 0.42329 3.58107 0
M  V30 9009 O 863.37 -0.572796 4.08403 0
M  V30 9010 H 862.711 0.154386 0.645803 0
M  V30 9011 H 865.241 1.06008 1.74996 0
M  V30 9012 H 865.251 0.283967 4.07011 0
M  V30 9013 H 863.926 1.42477 3.90734 0
M  V30 9014 H 862.503 -0.395809 3.70793 0
M  V30 9015 N 864.689 -1.48329 0.532571 0
M  V30 9016 C 865.919 -2.066 0.00353785 0
M  V30 9017 C 866.327 -1.38913 -1.28451 0
M  V30 9018 O 865.67 -0.471385 -1.77549 0
M  V30 9019 C 865.732 -3.58342 -0.288324 0
M  V30 9020 C 865.396 -4.47917 0.906631 0
M  V30 9021 C 866.393 -4.87534 1.80572 0
M  V30 9022 C 864.078 -4.89783 1.11436 0
M  V30 9023 C 866.072 -5.6779 2.89642 0
M  V30 9024 C 863.759 -5.69809 2.20819 0
M  V30 9025 C 864.757 -6.08721 3.09755 0
M  V30 9026 O 864.445 -6.8714 4.17246 0
M  V30 9027 H 864.177 -0.675263 0.0315661 0
M  V30 9028 H 866.731 -1.91669 0.738375 0
M  V30 9029 H 864.961 -3.71395 -1.07717 0
M  V30 9030 H 866.65 -3.98726 -0.759752 0
M  V30 9031 H 867.416 -4.5581 1.65719 0
M  V30 9032 H 863.295 -4.58977 0.431382 0
M  V30 9033 H 866.839 -5.98082 3.59087 0
M  V30 9034 H 862.736 -6.00947 2.35655 0
M  V30 9035 H 863.504 -7.05498 4.14988 0
M  V30 9036 N 866.167 -0.267825 -1.55308 0
M  V30 9037 C 867.415 0.350343 -1.9904 0
M  V30 9038 C 867.736 1.56924 -1.15758 0
M  V30 9039 O 867.006 1.94358 -0.245336 0
M  V30 9040 H 865.586 0.132435 -0.735167 0
M  V30 9041 H 868.248 -0.371471 -1.91327 0
M  V30 9042 H 867.344 0.645203 -3.05358 0
M  V30 9043 N 867.645 1.57599 0.00500368 0
M  V30 9044 C 868.592 2.08106 0.998025 0
M  V30 9045 C 869.562 0.975374 1.34446 0
M  V30 9046 O 870.747 1.24749 1.44369 0
M  V30 9047 C 867.887 2.58496 2.28635 0
M  V30 9048 C 867 3.82947 1.99939 0
M  V30 9049 C 866.135 4.21857 3.22816 0
M  V30 9050 C 865.174 5.39159 2.89783 0
M  V30 9051 N 864.311 5.73386 4.05183 0
M  V30 9052 H 869.151 2.92684 0.560385 0
M  V30 9053 H 866.688 1.44692 0.265053 0
M  V30 9054 H 868.646 2.85787 3.03943 0
M  V30 9055 H 867.276 1.768 2.70077 0
M  V30 9056 H 866.328 3.62594 1.1502 0
M  V30 9057 H 867.64 4.68358 1.71588 0
M  V30 9058 H 866.794 4.50404 4.06474 0
M  V30 9059 H 865.533 3.35145 3.54301 0
M  V30 9060 H 864.538 5.1034 2.04532 0
M  V30 9061 H 865.763 6.27543 2.59551 0
M  V30 9062 H 863.709 4.89632 4.36574 0
M  V30 9063 H 863.626 6.53359 3.80339 0
M  V30 9064 H 864.894 6.06522 4.89644 0
M  V30 9065 N 869.123 -0.277682 1.55134 0
M  V30 9066 C 870.371 -1.00791 1.75173 0
M  V30 9067 C 870.692 -1.86987 0.553266 0
M  V30 9068 O 869.962 -1.91079 -0.43195 0
M  V30 9069 H 868.542 -0.375129 0.645978 0
M  V30 9070 H 871.204 -0.303041 1.9253 0
M  V30 9071 H 870.3 -1.64756 2.6507 0
M  V30 9072 N 870.601 -1.47988 -0.541979 0
M  V30 9073 C 871.829 -1.59034 -1.32347 0
M  V30 9074 C 872.244 -0.246123 -1.87189 0
M  V30 9075 O 871.601 0.762889 -1.6579 0
M  V30 9076 C 871.652 -2.62759 -2.48274 0
M  V30 9077 O 871.373 -3.91963 -1.95695 0
M  V30 9078 C 872.874 -2.84133 -3.4027 0
M  V30 9079 H 870.094 -0.536574 -0.402901 0
M  V30 9080 H 872.638 -1.93725 -0.655045 0
M  V30 9081 H 870.793 -2.3096 -3.11025 0
M  V30 9082 H 871.207 -4.48769 -2.7149 0
M  V30 9083 H 872.681 -3.60538 -4.17991 0
M  V30 9084 H 873.158 -1.92512 -3.9476 0
M  V30 9085 H 873.764 -3.17188 -2.83322 0
M  V30 9086 N 872.079 0.78992 -1.36375 0
M  V30 9087 C 873.309 1.57644 -1.33536 0
M  V30 9088 C 873.717 1.89007 0.0855075 0
M  V30 9089 O 873.06 1.50547 1.05267 0
M  V30 9090 C 873.122 2.92424 -2.09113 0
M  V30 9091 C 872.786 2.83793 -3.58205 0
M  V30 9092 C 873.783 2.56072 -4.52464 0
M  V30 9093 C 871.468 3.02386 -4.01084 0
M  V30 9094 C 873.462 2.47044 -5.87578 0
M  V30 9095 C 871.149 2.9298 -5.36289 0
M  V30 9096 C 872.147 2.65347 -6.29349 0
M  V30 9097 O 871.835 2.55935 -7.62071 0
M  V30 9098 H 871.567 0.495639 -0.459694 0
M  V30 9099 H 874.121 0.988354 -1.80058 0
M  V30 9100 H 872.351 3.53282 -1.57254 0
M  V30 9101 H 874.04 3.53693 -1.99139 0
M  V30 9102 H 874.806 2.4141 -4.2065 0
M  V30 9103 H 870.685 3.229 -3.29023 0
M  V30 9104 H 874.229 2.25396 -6.60184 0
M  V30 9105 H 870.126 3.07204 -5.67711 0
M  V30 9106 H 870.894 2.7142 -7.72187 0
M  V30 9107 N 873.557 1.20646 1.01402 0
M  V30 9108 C 874.804 1.01819 1.7504 0
M  V30 9109 C 875.132 -0.449386 1.89237 0
M  V30 9110 O 874.387 -1.34985 1.41695 0
M  V30 9111 C 874.686 1.64991 3.17037 0
M  V30 9112 C 874.352 3.14808 3.22811 0
M  V30 9113 C 873.014 3.55692 3.24094 0
M  V30 9114 C 875.366 4.108 3.2077 0
M  V30 9115 C 872.694 4.9109 3.2101 0
M  V30 9116 C 875.046 5.46147 3.19227 0
M  V30 9117 C 873.71 5.86441 3.18815 0
M  V30 9118 H 872.98 0.372582 0.640518 0
M  V30 9119 H 875.627 1.50108 1.18911 0
M  V30 9120 H 873.932 1.08971 3.76341 0
M  V30 9121 H 875.629 1.47937 3.72714 0
M  V30 9122 H 872.219 2.8224 3.2255 0
M  V30 9123 H 876.403 3.80246 3.18946 0
M  V30 9124 H 871.659 5.21569 3.19023 0
M  V30 9125 H 875.833 6.20272 3.166 0
M  V30 9126 H 873.46 6.91328 3.16179 0
M  V30 9127 N 875.035 -1.20752 1.01276 0
M  V30 9128 C 875.998 -2.2162 0.584583 0
M  V30 9129 C 876.998 -1.57094 -0.343215 0
M  V30 9130 O 878.188 -1.73696 -0.132433 0
M  V30 9131 C 875.32 -3.40583 -0.146872 0
M  V30 9132 H 876.513 -2.61015 1.47686 0
M  V30 9133 H 874.066 -1.34148 0.802123 0
M  V30 9134 H 874.801 -3.06686 -1.05424 0
M  V30 9135 H 874.586 -3.88642 0.51958 0
M  V30 9136 H 876.076 -4.15339 -0.433924 0
M  V30 9137 N 876.513 -0.788492 -1.36457 0
M  V30 9138 C 877.759 -0.360995 -1.99561 0
M  V30 9139 C 878.092 1.06433 -1.62437 0
M  V30 9140 O 877.367 1.7352 -0.878705 0
M  V30 9141 C 877.65 -0.523735 -3.56271 0
M  V30 9142 C 877.503 -1.99268 -4.03252 0
M  V30 9143 C 878.822 0.0617908 -4.40057 0
M  V30 9144 H 875.941 -0.13264 -0.724966 0
M  V30 9145 H 878.583 -0.994659 -1.61884 0
M  V30 9146 H 876.733 0.0156979 -3.88497 0
M  V30 9147 H 878.405 -2.59311 -3.81518 0
M  V30 9148 H 876.648 -2.49561 -3.54826 0
M  V30 9149 H 877.319 -2.05752 -5.12221 0
M  V30 9150 H 879.795 -0.398674 -4.14186 0
M  V30 9151 H 878.671 -0.0821089 -5.48839 0
M  V30 9152 H 878.932 1.15381 -4.26778 0
M  V30 9153 N 877.991 1.48044 -0.54043 0
M  V30 9154 C 879.268 1.95523 0.0547302 0
M  V30 9155 C 879.648 1.48284 1.5025 0
M  V30 9156 O 878.996 0.714037 2.17057 0
M  V30 9157 C 879.206 3.48923 -0.0733393 0
M  V30 9158 C 880.554 4.24523 0.0806026 0
M  V30 9159 O 881.578 3.562 -5.58687e-05 0
M  V30 9160 O 880.437 5.45922 0.251216 0
M  V30 9161 H 877.531 0.823728 0.073493 0
M  V30 9162 H 880.077 1.5852 -0.605768 0
M  V30 9163 H 878.849 3.76059 -1.08144 0
M  V30 9164 H 878.472 3.92648 0.625536 0
M  V30 9165 N 879.47 0.276058 1.55163 0
M  V30 9166 C 880.433 -0.597924 2.21263 0
M  V30 9167 C 881.433 -1.0806 1.19078 0
M  V30 9168 O 882.623 -0.980626 1.43977 0
M  V30 9169 C 879.755 -1.82503 2.87933 0
M  V30 9170 H 880.948 -0.0207769 2.99893 0
M  V30 9171 H 878.501 0.0266823 1.56277 0
M  V30 9172 H 879.236 -2.44266 2.13318 0
M  V30 9173 H 879.021 -1.48683 3.62816 0
M  V30 9174 H 880.511 -2.44651 3.38431 0
M  V30 9175 N 880.948 -1.576 0.00335426 0
M  V30 9176 C 882.173 -1.95398 -0.695311 0
M  V30 9177 C 882.598 -0.878476 -1.66326 0
M  V30 9178 O 881.956 0.163086 -1.80565 0
M  V30 9179 C 882.004 -3.32293 -1.40049 0
M  V30 9180 O 881.108 -3.26834 -2.51502 0
M  V30 9181 H 880.449 -0.637796 -0.184694 0
M  V30 9182 H 882.979 -2.04519 0.057543 0
M  V30 9183 H 882.989 -3.67936 -1.76316 0
M  V30 9184 H 881.664 -4.10123 -0.690803 0
M  V30 9185 H 880.241 -3.02872 -2.17539 0
M  V30 9186 N 882.426 0.269451 -1.5528 0
M  V30 9187 C 883.656 1.01724 -1.79821 0
M  V30 9188 C 884.064 1.80298 -0.573532 0
M  V30 9189 O 883.407 1.77666 0.466963 0
M  V30 9190 C 883.469 2.02043 -2.97353 0
M  V30 9191 C 883.133 1.42375 -4.34256 0
M  V30 9192 C 884.13 0.837611 -5.13108 0
M  V30 9193 C 881.815 1.44988 -4.8092 0
M  V30 9194 C 883.809 0.285557 -6.3676 0
M  V30 9195 C 881.496 0.893969 -6.04526 0
M  V30 9196 C 882.494 0.312809 -6.82283 0
M  V30 9197 O 882.182 -0.234582 -8.03558 0
M  V30 9198 H 881.914 0.30604 -0.602757 0
M  V30 9199 H 884.468 0.30454 -2.0313 0
M  V30 9200 H 882.698 2.77082 -2.69745 0
M  V30 9201 H 884.387 2.6298 -3.09187 0
M  V30 9202 H 885.153 0.81009 -4.78187 0
M  V30 9203 H 881.032 1.89162 -4.20403 0
M  V30 9204 H 884.576 -0.168696 -6.97396 0
M  V30 9205 H 880.473 0.918742 -6.38928 0
M  V30 9206 H 881.241 -0.124282 -8.18406 0
M  V30 9207 N 883.904 1.48273 0.534124 0
M  V30 9208 C 885.129 1.59988 1.31979 0
M  V30 9209 C 885.554 0.258824 1.86311 0
M  V30 9210 O 884.912 -0.768885 1.64188 0
M  V30 9211 C 884.96 2.64642 2.44943 0
M  V30 9212 O 884.064 2.21515 3.47858 0
M  V30 9213 H 883.405 0.536625 0.391063 0
M  V30 9214 H 885.935 1.94229 0.643135 0
M  V30 9215 H 885.945 2.85786 2.91187 0
M  V30 9216 H 884.62 3.62004 2.04758 0
M  V30 9217 H 883.197 2.10567 3.0776 0
M  V30 9218 N 885.382 -0.782676 1.36792 0
M  V30 9219 C 886.345 -1.8772 1.31507 0
M  V30 9220 C 887.345 -1.59269 0.221349 0
M  V30 9221 O 888.535 -1.67555 0.476544 0
M  V30 9222 C 885.667 -3.24641 1.04025 0
M  V30 9223 H 886.86 -1.9382 2.28853 0
M  V30 9224 H 884.413 -0.981226 1.21662 0
M  V30 9225 H 885.148 -3.24221 0.0716439 0
M  V30 9226 H 884.933 -3.46681 1.8318 0
M  V30 9227 H 886.423 -4.04711 1.02949 0
M  V30 9228 N 886.86 -1.21182 -1.00761 0
M  V30 9229 C 887.807 -0.968741 -2.09485 0
M  V30 9230 C 888.777 0.104325 -1.65772 0
M  V30 9231 O 889.962 -0.0422587 -1.90753 0
M  V30 9232 C 887.102 -0.536686 -3.40901 0
M  V30 9233 C 886.215 -1.6789 -3.98041 0
M  V30 9234 C 885.35 -1.19627 -5.17555 0
M  V30 9235 C 884.389 -2.31099 -5.66798 0
M  V30 9236 N 883.526 -1.83988 -6.77564 0
M  V30 9237 H 888.366 -1.89952 -2.29613 0
M  V30 9238 H 885.903 -0.946688 -1.12589 0
M  V30 9239 H 887.861 -0.26745 -4.16342 0
M  V30 9240 H 886.491 0.357092 -3.20819 0
M  V30 9241 H 885.543 -2.06284 -3.19611 0
M  V30 9242 H 886.855 -2.51794 -4.30582 0
M  V30 9243 H 886.009 -0.883539 -6.00232 0
M  V30 9244 H 884.748 -0.327244 -4.86601 0
M  V30 9245 H 883.753 -2.63178 -4.82719 0
M  V30 9246 H 884.978 -3.18493 -5.99782 0
M  V30 9247 H 882.924 -0.994257 -6.48422 0
M  V30 9248 H 882.841 -2.61466 -7.09346 0
M  V30 9249 H 884.109 -1.55741 -7.63783 0
M  V30 9250 N 888.338 1.20213 -1.01915 0
M  V30 9251 C 889.615 1.85348 -0.62495 0
M  V30 9252 C 889.995 1.91101 0.896854 0
M  V30 9253 O 889.343 1.42075 1.78961 0
M  V30 9254 C 889.553 3.24849 -1.27571 0
M  V30 9255 C 890.901 4.01107 -1.39277 0
M  V30 9256 O 891.925 3.34211 -1.23212 0
M  V30 9257 O 890.784 5.20914 -1.6526 0
M  V30 9258 H 887.878 0.798303 -0.215965 0
M  V30 9259 H 890.424 1.27782 -1.11669 0
M  V30 9260 H 889.196 3.1544 -2.31545 0
M  V30 9261 H 888.819 3.90049 -0.77122 0
M  V30 9262 N 889.816 0.795718 1.36037 0
M  V30 9263 C 891.044 0.383153 2.03321 0
M  V30 9264 C 891.459 -1.00246 1.59988 0
M  V30 9265 O 890.816 -1.64406 0.792265 0
M  V30 9266 C 890.867 0.444467 3.58757 0
M  V30 9267 O 890.588 1.77544 4.00512 0
M  V30 9268 C 892.089 0.0233291 4.43294 0
M  V30 9269 H 889.309 0.157061 0.652359 0
M  V30 9270 H 891.853 1.07632 1.73884 0
M  V30 9271 H 890.008 -0.200341 3.86882 0
M  V30 9272 H 890.422 1.73065 4.95125 0
M  V30 9273 H 891.896 0.117361 5.51875 0
M  V30 9274 H 892.373 -1.03007 4.2695 0
M  V30 9275 H 892.979 0.64087 4.20444 0
M  V30 9276 N 891.294 -1.47756 0.548274 0
M  V30 9277 C 892.524 -2.06584 0.0254503 0
M  V30 9278 C 892.932 -1.40268 -1.26971 0
M  V30 9279 O 892.275 -0.49019 -1.77039 0
M  V30 9280 C 892.337 -3.58628 -0.250301 0
M  V30 9281 C 892.001 -4.4693 0.954087 0
M  V30 9282 C 892.998 -4.85592 1.85733 0
M  V30 9283 C 890.683 -4.88573 1.16624 0
M  V30 9284 C 892.677 -5.64686 2.95648 0
M  V30 9285 C 890.364 -5.67435 2.2685 0
M  V30 9286 C 891.362 -6.05401 3.16194 0
M  V30 9287 O 891.05 -6.82676 4.24511 0
M  V30 9288 H 890.782 -0.67489 0.0387264 0
M  V30 9289 H 893.336 -1.90876 0.758663 0
M  V30 9290 H 891.566 -3.72516 -1.03771 0
M  V30 9291 H 893.255 -3.9951 -0.717419 0
M  V30 9292 H 894.021 -4.54026 1.70544 0
M  V30 9293 H 889.9 -4.58494 0.480039 0
M  V30 9294 H 893.444 -5.9424 3.65411 0
M  V30 9295 H 889.341 -5.98413 2.42016 0
M  V30 9296 H 890.109 -7.01057 4.22447 0
M  V30 9297 N 892.772 -0.284283 -1.55015 0
M  V30 9298 C 893.997 0.335799 -2.04664 0
M  V30 9299 C 894.422 1.47999 -1.16094 0
M  V30 9300 O 893.78 1.8058 -0.161454 0
M  V30 9301 C 893.828 0.785615 -3.51938 0
M  V30 9302 O 892.932 1.89202 -3.66437 0
M  V30 9303 H 892.273 0.0680233 -0.660506 0
M  V30 9304 H 894.803 -0.421255 -2.00216 0
M  V30 9305 H 894.813 1.07892 -3.93476 0
M  V30 9306 H 893.488 -0.0514675 -4.15868 0
M  V30 9307 H 892.065 1.60055 -3.36804 0
M  V30 9308 N 894.251 1.57596 -0.0117121 0
M  V30 9309 C 895.198 2.09153 0.975897 0
M  V30 9310 C 896.168 0.989579 1.33404 0
M  V30 9311 O 897.353 1.26273 1.43038 0
M  V30 9312 C 894.493 2.60906 2.2588 0
M  V30 9313 C 893.606 3.85046 1.95866 0
M  V30 9314 C 892.741 4.25257 3.18323 0
M  V30 9315 C 891.78 5.42202 2.84049 0
M  V30 9316 N 890.917 5.77651 3.99079 0
M  V30 9317 H 895.757 2.93261 0.52931 0
M  V30 9318 H 893.294 1.44965 0.249691 0
M  V30 9319 H 895.252 2.88995 3.00895 0
M  V30 9320 H 893.882 1.79654 2.68187 0
M  V30 9321 H 892.934 3.63794 1.11168 0
M  V30 9322 H 894.246 4.70151 1.66611 0
M  V30 9323 H 893.4 4.5469 4.01674 0
M  V30 9324 H 892.139 3.38884 3.50726 0
M  V30 9325 H 891.144 5.1248 1.99107 0
M  V30 9326 H 892.369 6.3026 2.52881 0
M  V30 9327 H 890.315 4.94235 4.31356 0
M  V30 9328 H 890.232 6.57356 3.73388 0
M  V30 9329 H 891.5 6.11681 4.83183 0
M  V30 9330 N 895.729 -0.261212 1.5542 0
M  V30 9331 C 897.14 -0.83138 1.67167 0
M  V30 9332 C 897.491 -1.8659 0.606525 0
M  V30 9333 O 896.616 -2.14953 -0.24985 0
M  V30 9334 C 897.211 -1.51475 3.03052 0
M  V30 9335 C 895.77 -2.0328 3.16787 0
M  V30 9336 C 894.917 -0.878903 2.63003 0
M  V30 9337 H 897.868 -0.0373102 1.58656 0
M  V30 9338 H 897.889 -2.38222 2.96699 0
M  V30 9339 H 897.401 -0.76157 3.80554 0
M  V30 9340 H 895.502 -2.81523 2.44082 0
M  V30 9341 H 895.615 -2.24001 4.2351 0
M  V30 9342 H 893.979 -1.27551 2.2046 0
M  V30 9343 H 894.762 -0.13904 3.43018 0
M  V30 9344 N 897.207 -1.48554 -0.526253 0
M  V30 9345 C 898.484 -1.47252 -1.28748 0
M  V30 9346 C 898.864 -0.186245 -2.10277 0
M  V30 9347 O 898.212 0.831954 -2.12816 0
M  V30 9348 C 898.422 -2.73672 -2.16575 0
M  V30 9349 C 899.77 -3.22151 -2.76593 0
M  V30 9350 O 900.794 -2.74614 -2.2686 0
M  V30 9351 O 899.653 -4.04877 -3.67066 0
M  V30 9352 H 896.747 -0.588242 -0.581292 0
M  V30 9353 H 899.293 -1.60792 -0.5426 0
M  V30 9354 H 898.065 -3.58798 -1.56139 0
M  V30 9355 H 897.688 -2.6287 -2.98304 0
M  V30 9356 N 898.685 0.775411 -1.37205 0
M  V30 9357 C 899.91 1.5696 -1.35567 0
M  V30 9358 C 900.335 1.88012 0.0575554 0
M  V30 9359 O 899.693 1.48954 1.03355 0
M  V30 9360 C 899.741 2.85886 -2.19776 0
M  V30 9361 O 898.845 3.80103 -1.59987 0
M  V30 9362 H 898.186 0.475583 -0.463375 0
M  V30 9363 H 900.716 0.96001 -1.80679 0
M  V30 9364 H 900.726 3.35024 -2.32859 0
M  V30 9365 H 899.401 2.62613 -3.22502 0
M  V30 9366 H 897.978 3.38736 -1.55924 0
M  V30 9367 N 900.163 1.21714 1.00117 0
M  V30 9368 C 901.111 0.976937 2.11089 0
M  V30 9369 C 902.105 -0.0771295 1.69224 0
M  V30 9370 O 903.311 0.0745945 1.79845 0
M  V30 9371 H 899.686 0.298687 0.690138 0
M  V30 9372 H 901.657 1.91881 2.28526 0
M  V30 9373 C 900.406 0.562369 3.43122 0
M  V30 9374 H 899.729 1.36509 3.75773 0
M  V30 9375 H 901.169 0.433642 4.21777 0
M  V30 9376 C 899.628 -0.727148 3.28959 0
M  V30 9377 O 900.158 -1.78171 3.60025 0
M  V30 9378 N 898.364 -0.695129 2.82164 0
M  V30 9379 H 897.911 0.163346 2.57082 0
M  V30 9380 H 897.869 -1.55822 2.73069 0
M  V30 9381 N 901.641 -1.19671 1.02551 0
M  V30 9382 C 902.889 -1.88894 0.71858 0
M  V30 9383 C 903.21 -1.79797 -0.754856 0
M  V30 9384 O 902.48 -1.20621 -1.54362 0
M  V30 9385 H 901.06 -0.699244 0.262806 0
M  V30 9386 H 903.722 -1.45298 1.29902 0
M  V30 9387 H 902.818 -2.95309 1.00989 0
M  V30 9388 N 903.119 -0.802921 -1.35613 0
M  V30 9389 C 904.535 -0.486214 -1.52014 0
M  V30 9390 C 904.735 0.993219 -1.75321 0
M  V30 9391 O 903.791 1.77835 -1.79251 0
M  V30 9392 C 905.104 -1.32839 -2.69767 0
M  V30 9393 C 906.652 -1.32346 -2.83643 0
M  V30 9394 C 907.127 -2.14967 -4.04417 0
M  V30 9395 N 908.618 -2.12484 -4.11588 0
M  V30 9396 C 909.353 -2.73173 -5.04147 0
M  V30 9397 N 908.849 -3.42774 -6.02061 0
M  V30 9398 N 910.642 -2.62834 -4.96865 0
M  V30 9399 H 902.793 -1.76109 -1.18741 0
M  V30 9400 H 905.056 -0.74936 -0.580658 0
M  V30 9401 H 904.762 -2.37813 -2.5911 0
M  V30 9402 H 904.636 -0.979058 -3.64272 0
M  V30 9403 H 907.023 -0.281586 -2.93753 0
M  V30 9404 H 907.104 -1.71264 -1.90006 0
M  V30 9405 H 906.748 -3.19193 -3.95068 0
M  V30 9406 H 906.678 -1.73411 -4.97228 0
M  V30 9407 H 909.169 -1.61839 -3.41492 0
M  V30 9408 H 909.482 -3.86378 -6.69277 0
M  V30 9409 H 907.827 -3.46878 -6.02246 0
M  V30 9410 H 911.018 -2.08049 -4.19325 0
M  V30 9411 H 911.191 -3.10421 -5.68808 0
M  V30 9412 N 904.597 1.47463 -0.556102 0
M  V30 9413 C 905.544 2.29998 0.192213 0
M  V30 9414 C 906.514 1.38993 0.909403 0
M  V30 9415 O 907.699 1.67954 0.905316 0
M  V30 9416 C 904.839 3.22932 1.21692 0
M  V30 9417 C 903.952 4.29027 0.505908 0
M  V30 9418 C 903.087 5.09114 1.51581 0
M  V30 9419 C 902.126 6.06984 0.789714 0
M  V30 9420 N 901.263 6.80033 1.74639 0
M  V30 9421 H 906.103 2.93468 -0.517734 0
M  V30 9422 H 903.64 1.44654 -0.267147 0
M  V30 9423 H 905.598 3.75234 1.8236 0
M  V30 9424 H 904.228 2.61329 1.89491 0
M  V30 9425 H 903.28 3.7979 -0.215276 0
M  V30 9426 H 904.592 4.9876 -0.062958 0
M  V30 9427 H 903.746 5.6556 2.19606 0
M  V30 9428 H 902.485 4.3928 2.11859 0
M  V30 9429 H 901.49 5.49717 0.0955382 0
M  V30 9430 H 902.715 6.78827 0.192688 0
M  V30 9431 H 900.661 6.12931 2.33777 0
M  V30 9432 H 900.578 7.45933 1.22965 0
M  V30 9433 H 901.846 7.41054 2.41782 0
M  V30 9434 N 906.075 0.2925 1.54862 0
M  V30 9435 C 907.025 -0.60226 2.19902 0
M  V30 9436 C 908.009 -1.10535 1.16923 0
M  V30 9437 O 909.201 -1.04753 1.42674 0
M  V30 9438 C 906.33 -1.77774 2.93686 0
M  V30 9439 C 905.416 -1.29101 4.03972 0
M  V30 9440 N 905.807 -0.521671 5.03103 0
M  V30 9441 C 904.105 -1.57248 4.17359 0
M  V30 9442 C 904.806 -0.263545 5.81103 0
M  V30 9443 N 903.782 -0.840937 5.37056 0
M  V30 9444 H 907.584 -0.00682274 2.93899 0
M  V30 9445 H 905.098 0.0968604 1.62111 0
M  V30 9446 H 907.095 -2.43021 3.38743 0
M  V30 9447 H 905.755 -2.37696 2.21203 0
M  V30 9448 H 906.766 -0.167364 5.1763 0
M  V30 9449 H 903.443 -2.1798 3.56077 0
M  V30 9450 H 904.833 0.353783 6.70968 0
M  V30 9451 N 907.553 -1.57587 0.0200696 0
M  V30 9452 C 908.486 -2.05157 -0.999295 0
M  V30 9453 C 909.464 -0.945466 -1.32286 0
M  V30 9454 O 910.648 -1.21512 -1.44108 0
M  V30 9455 C 907.775 -2.46604 -2.32173 0
M  V30 9456 C 906.821 -3.68146 -2.15339 0
M  V30 9457 S 907.654 -5.15194 -1.46065 0
M  V30 9458 C 908.81 -5.59929 -2.79697 0
M  V30 9459 H 909.043 -2.91299 -0.59433 0
M  V30 9460 H 906.576 -1.53209 -0.191372 0
M  V30 9461 H 908.534 -2.7115 -3.08201 0
M  V30 9462 H 907.195 -1.60825 -2.69804 0
M  V30 9463 H 906.388 -3.94963 -3.13082 0
M  V30 9464 H 905.99 -3.43705 -1.47454 0
M  V30 9465 H 908.282 -5.63615 -3.75957 0
M  V30 9466 H 909.225 -6.59599 -2.57555 0
M  V30 9467 H 909.633 -4.87549 -2.84528 0
M  V30 9468 N 909.032 0.252966 -1.55557 0
M  V30 9469 C 910.262 0.998115 -1.8089 0
M  V30 9470 C 910.67 1.79679 -0.592623 0
M  V30 9471 O 910.013 1.78151 0.448093 0
M  V30 9472 C 910.075 1.98878 -2.99479 0
M  V30 9473 C 909.739 1.37761 -4.35742 0
M  V30 9474 C 910.736 0.783142 -5.13968 0
M  V30 9475 C 908.421 1.39879 -4.8243 0
M  V30 9476 C 910.415 0.218004 -6.37027 0
M  V30 9477 C 908.102 0.829801 -6.0544 0
M  V30 9478 C 909.1 0.240426 -6.82577 0
M  V30 9479 O 908.788 -0.319797 -8.03264 0
M  V30 9480 H 908.52 0.29963 -0.605969 0
M  V30 9481 H 911.074 0.282978 -2.03441 0
M  V30 9482 H 909.304 2.74206 -2.72669 0
M  V30 9483 H 910.993 2.59686 -3.11959 0
M  V30 9484 H 911.759 0.759326 -4.79019 0
M  V30 9485 H 907.638 1.84692 -4.22386 0
M  V30 9486 H 911.182 -0.242654 -6.97178 0
M  V30 9487 H 907.079 0.850924 -6.39867 0
M  V30 9488 H 907.847 -0.211078 -8.18228 0
M  V30 9489 N 910.51 1.48831 0.518367 0
M  V30 9490 C 911.756 1.57672 1.27543 0
M  V30 9491 C 912.089 0.254915 1.9252 0
M  V30 9492 O 911.364 -0.740107 1.79868 0
M  V30 9493 C 911.647 2.72345 2.35585 0
M  V30 9494 C 911.5 4.14267 1.75224 0
M  V30 9495 C 912.819 2.82726 3.37274 0
M  V30 9496 H 909.938 0.573926 0.462361 0
M  V30 9497 H 912.58 1.8105 0.576267 0
M  V30 9498 H 910.73 2.52543 2.95219 0
M  V30 9499 H 912.402 4.45539 1.19551 0
M  V30 9500 H 910.645 4.20724 1.05706 0
M  V30 9501 H 911.316 4.90345 2.53507 0
M  V30 9502 H 913.792 3.00699 2.8761 0
M  V30 9503 H 912.668 3.6467 4.10252 0
M  V30 9504 H 912.929 1.9136 3.9854 0
M  V30 9505 N 911.988 -0.768124 1.37614 0
M  V30 9506 C 913.234 -1.52907 1.33219 0
M  V30 9507 C 913.567 -1.94026 -0.0821218 0
M  V30 9508 O 912.842 -1.64345 -1.04023 0
M  V30 9509 C 913.125 -2.79164 2.27463 0
M  V30 9510 C 912.978 -2.44276 3.7769 0
M  V30 9511 C 914.297 -3.81115 2.20089 0
M  V30 9512 H 911.416 -0.554712 0.485246 0
M  V30 9513 H 914.058 -0.880911 1.68345 0
M  V30 9514 H 912.208 -3.34472 1.97639 0
M  V30 9515 H 913.88 -1.94855 4.18126 0
M  V30 9516 H 912.123 -1.76925 3.96081 0
M  V30 9517 H 912.794 -3.34544 4.39072 0
M  V30 9518 H 915.27 -3.35311 2.46386 0
M  V30 9519 H 914.146 -4.67174 2.88166 0
M  V30 9520 H 914.407 -4.25644 1.19498 0
M  V30 9521 N 913.466 -1.22244 -0.994698 0
M  V30 9522 C 914.882 -0.982006 -1.25813 0
M  V30 9523 C 915.082 0.325488 -1.98854 0
M  V30 9524 O 914.138 1.04857 -2.29698 0
M  V30 9525 C 915.451 -2.1795 -2.07167 0
M  V30 9526 C 916.999 -2.22287 -2.20358 0
M  V30 9527 C 917.474 -3.41583 -3.05098 0
M  V30 9528 N 918.965 -3.41734 -3.12686 0
M  V30 9529 C 919.7 -4.30692 -3.78539 0
M  V30 9530 N 919.196 -5.29865 -4.46335 0
M  V30 9531 N 920.989 -4.18473 -3.75283 0
M  V30 9532 H 913.14 -2.0631 -0.504963 0
M  V30 9533 H 915.403 -0.90395 -0.285618 0
M  V30 9534 H 915.109 -3.12758 -1.60858 0
M  V30 9535 H 914.983 -2.17862 -3.07922 0
M  V30 9536 H 917.37 -1.28028 -2.65881 0
M  V30 9537 H 917.451 -2.26414 -1.19039 0
M  V30 9538 H 917.095 -4.36141 -2.60275 0
M  V30 9539 H 917.025 -3.34695 -4.06555 0
M  V30 9540 H 919.516 -2.69969 -2.64433 0
M  V30 9541 H 919.829 -5.94027 -4.9432 0
M  V30 9542 H 918.174 -5.3378 -4.45089 0
M  V30 9543 H 921.365 -3.40249 -3.21478 0
M  V30 9544 H 921.538 -4.88007 -4.26326 0
M  V30 9545 N 914.944 1.19125 -1.03184 0
M  V30 9546 C 916.19 1.89163 -0.731111 0
M  V30 9547 C 916.523 1.79604 0.738662 0
M  V30 9548 O 915.798 1.19037 1.53819 0
M  V30 9549 C 916.081 3.39986 -1.18666 0
M  V30 9550 C 915.934 3.58401 -2.71788 0
M  V30 9551 C 917.253 4.33316 -0.769772 0
M  V30 9552 H 914.372 0.686908 -0.267069 0
M  V30 9553 H 917.014 1.40205 -1.28229 0
M  V30 9554 H 915.164 3.81813 -0.717736 0
M  V30 9555 H 916.836 3.25727 -3.26649 0
M  V30 9556 H 915.079 3.01355 -3.12038 0
M  V30 9557 H 915.75 4.64189 -2.98719 0
M  V30 9558 H 918.226 3.9922 -1.17314 0
M  V30 9559 H 917.102 5.37427 -1.11637 0
M  V30 9560 H 917.363 4.40884 0.327681 0
M  V30 9561 N 916.422 0.810101 1.35185 0
M  V30 9562 C 917.352 0.237453 2.32289 0
M  V30 9563 C 918.333 -0.639032 1.5764 0
M  V30 9564 O 919.518 -0.568575 1.8569 0
M  V30 9565 C 916.648 -0.611964 3.41866 0
M  V30 9566 C 915.602 0.166318 4.27677 0
M  V30 9567 C 914.928 -0.805024 5.28605 0
M  V30 9568 C 916.228 1.36729 5.04086 0
M  V30 9569 H 917.922 1.04874 2.80432 0
M  V30 9570 H 915.468 0.505751 1.34826 0
M  V30 9571 H 917.421 -1.02267 4.08802 0
M  V30 9572 H 916.145 -1.45617 2.92341 0
M  V30 9573 H 914.804 0.558238 3.62325 0
M  V30 9574 H 914.452 -1.64483 4.75347 0
M  V30 9575 H 914.152 -0.288577 5.86891 0
M  V30 9576 H 915.676 -1.21386 5.98413 0
M  V30 9577 H 917.09 1.03128 5.63948 0
M  V30 9578 H 915.487 1.81848 5.71884 0
M  V30 9579 H 916.557 2.15214 4.34524 0
M  V30 9580 N 917.9 -1.47166 0.563914 0
M  V30 9581 C 919.128 -2.06846 0.0474287 0
M  V30 9582 C 919.543 -1.41557 -1.24928 0
M  V30 9583 O 918.9 -0.514376 -1.75101 0
M  V30 9584 C 918.951 -3.6121 -0.144831 0
M  V30 9585 O 918.672 -4.24052 1.10053 0
M  V30 9586 C 920.173 -4.37773 -0.69783 0
M  V30 9587 H 917.393 -0.669217 0.0488896 0
M  V30 9588 H 919.937 -1.89072 0.779235 0
M  V30 9589 H 918.092 -3.78474 -0.82679 0
M  V30 9590 H 918.506 -5.16677 0.902481 0
M  V30 9591 H 919.98 -5.46438 -0.781616 0
M  V30 9592 H 920.457 -4.04517 -1.71063 0
M  V30 9593 H 921.063 -4.25269 -0.0513516 0
M  V30 9594 N 919.378 -0.300708 -1.54705 0
M  V30 9595 C 920.626 0.308044 -1.99739 0
M  V30 9596 C 920.947 1.54433 -1.19061 0
M  V30 9597 O 920.217 1.93794 -0.286507 0
M  V30 9598 H 918.797 0.116811 -0.73781 0
M  V30 9599 H 921.459 -0.41197 -1.90496 0
M  V30 9600 H 920.555 0.580287 -3.06658 0
M  V30 9601 N 920.856 1.57574 -0.0284266 0
M  V30 9602 C 922.102 1.92056 0.651327 0
M  V30 9603 C 922.435 0.905092 1.71819 0
M  V30 9604 O 921.71 -0.0722703 1.94366 0
M  V30 9605 C 921.993 3.37021 1.26841 0
M  V30 9606 C 921.846 4.49304 0.211157 0
M  V30 9607 C 923.165 3.81936 2.18662 0
M  V30 9608 H 920.284 0.698428 0.235304 0
M  V30 9609 H 922.926 1.89807 -0.0855435 0
M  V30 9610 H 921.076 3.39068 1.89644 0
M  V30 9611 H 922.748 4.5939 -0.419379 0
M  V30 9612 H 920.991 4.31317 -0.463445 0
M  V30 9613 H 921.662 5.47764 0.682518 0
M  V30 9614 H 924.138 3.8162 1.65847 0
M  V30 9615 H 923.014 4.84064 2.58792 0
M  V30 9616 H 923.275 3.174 3.07749 0
M  V30 9617 N 922.334 -0.244713 1.55689 0
M  V30 9618 C 923.581 -0.972446 1.77622 0
M  V30 9619 C 923.909 -1.85235 0.593137 0
M  V30 9620 O 923.164 -1.91064 -0.423464 0
M  V30 9621 C 923.463 -1.8617 3.05083 0
M  V30 9622 C 923.129 -1.13696 4.3633 0
M  V30 9623 C 921.791 -0.936679 4.71996 0
M  V30 9624 C 924.143 -0.623451 5.17458 0
M  V30 9625 C 921.471 -0.210612 5.86322 0
M  V30 9626 C 923.823 0.0891587 6.32537 0
M  V30 9627 C 922.487 0.300904 6.66821 0
M  V30 9628 H 921.757 -0.355843 0.649967 0
M  V30 9629 H 924.404 -0.242372 1.8996 0
M  V30 9630 H 922.709 -2.6589 2.87767 0
M  V30 9631 H 924.406 -2.4265 3.19253 0
M  V30 9632 H 920.996 -1.30301 4.08313 0
M  V30 9633 H 925.18 -0.765725 4.90357 0
M  V30 9634 H 920.436 -0.0361062 6.11389 0
M  V30 9635 H 924.61 0.494685 6.94641 0
M  V30 9636 H 922.237 0.865466 7.55257 0
M  V30 9637 N 923.813 -1.49104 -0.510467 0
M  V30 9638 C 925.041 -1.61806 -1.28944 0
M  V30 9639 C 925.456 -0.285774 -1.86625 0
M  V30 9640 O 924.813 0.727551 -1.67371 0
M  V30 9641 C 924.864 -2.67966 -2.42645 0
M  V30 9642 O 924.585 -3.96026 -1.87337 0
M  V30 9643 C 926.086 -2.91286 -3.34166 0
M  V30 9644 H 923.306 -0.544999 -0.391429 0
M  V30 9645 H 925.85 -1.95071 -0.613805 0
M  V30 9646 H 924.005 -2.37505 -3.06056 0
M  V30 9647 H 924.419 -4.54427 -2.61909 0
M  V30 9648 H 925.893 -3.69323 -4.1025 0
M  V30 9649 H 926.37 -2.00842 -3.90588 0
M  V30 9650 H 926.976 -3.23127 -2.76531 0
M  V30 9651 N 925.291 0.760815 -1.38019 0
M  V30 9652 C 926.238 1.8744 -1.34666 0
M  V30 9653 C 927.208 1.64762 -0.210386 0
M  V30 9654 O 928.393 1.86528 -0.401479 0
M  V30 9655 C 925.533 3.24648 -1.17037 0
M  V30 9656 C 924.646 3.59206 -2.3999 0
M  V30 9657 C 923.781 4.8568 -2.15148 0
M  V30 9658 C 922.82 5.13002 -3.3391 0
M  V30 9659 N 921.957 6.30668 -3.08549 0
M  V30 9660 H 926.797 1.8964 -2.29871 0
M  V30 9661 H 924.334 0.927004 -1.14215 0
M  V30 9662 H 926.292 4.03814 -1.04834 0
M  V30 9663 H 924.922 3.21793 -0.254758 0
M  V30 9664 H 923.974 2.74939 -2.62893 0
M  V30 9665 H 925.286 3.75328 -3.28527 0
M  V30 9666 H 924.44 5.72773 -2.00039 0
M  V30 9667 H 923.179 4.71682 -1.23965 0
M  V30 9668 H 922.184 4.2438 -3.49545 0
M  V30 9669 H 923.409 5.28901 -4.25958 0
M  V30 9670 H 921.355 6.18008 -2.20006 0
M  V30 9671 H 921.272 6.47257 -3.90633 0
M  V30 9672 H 922.54 7.20669 -2.9708 0
M  V30 9673 N 926.769 1.22769 0.988202 0
M  V30 9674 C 928.017 1.05301 1.725 0
M  V30 9675 C 928.338 -0.412103 1.90596 0
M  V30 9676 O 927.608 -1.29606 1.46898 0
M  V30 9677 H 926.188 0.386658 0.639144 0
M  V30 9678 H 928.85 1.54359 1.18993 0
M  V30 9679 H 927.946 1.53465 2.71763 0
M  V30 9680 N 928.247 -1.18576 1.03814 0
M  V30 9681 C 929.663 -1.4051 0.756909 0
M  V30 9682 C 929.863 -1.9057 -0.654631 0
M  V30 9683 O 928.919 -2.0884 -1.41922 0
M  V30 9684 C 930.232 -2.4081 1.80087 0
M  V30 9685 C 931.78 -2.54541 1.82148 0
M  V30 9686 C 932.255 -3.58102 2.85529 0
M  V30 9687 N 933.746 -3.65607 2.84404 0
M  V30 9688 C 934.481 -4.45458 3.61047 0
M  V30 9689 N 933.977 -5.28937 4.47434 0
M  V30 9690 N 935.77 -4.40196 3.49548 0
M  V30 9691 H 927.921 -0.844075 1.94908 0
M  V30 9692 H 930.184 -0.433287 0.843188 0
M  V30 9693 H 929.89 -2.1107 2.81322 0
M  V30 9694 H 929.764 -3.4012 1.63089 0
M  V30 9695 H 932.151 -2.83598 0.815855 0
M  V30 9696 H 932.232 -1.55352 2.03223 0
M  V30 9697 H 931.876 -3.29786 3.86269 0
M  V30 9698 H 931.806 -4.56963 2.6171 0
M  V30 9699 H 934.297 -3.05994 2.21756 0
M  V30 9700 H 934.61 -5.8701 5.02632 0
M  V30 9701 H 932.955 -5.28366 4.51503 0
M  V30 9702 H 936.146 -3.74026 2.81464 0
M  V30 9703 H 936.319 -5.02186 4.09528 0
M  V30 9704 N 929.725 -0.817259 -1.34754 0
M  V30 9705 C 930.688 -0.240611 -2.27934 0
M  V30 9706 C 931.688 0.578219 -1.50044 0
M  V30 9707 O 932.878 0.395148 -1.69659 0
M  V30 9708 C 930.01 0.663318 -3.34384 0
M  V30 9709 H 931.203 -1.06257 -2.80445 0
M  V30 9710 H 928.756 -0.588697 -1.4479 0
M  V30 9711 H 929.491 1.50855 -2.87077 0
M  V30 9712 H 929.276 0.0777388 -3.92023 0
M  V30 9713 H 930.766 1.06076 -4.03903 0
M  V30 9714 N 931.203 1.46865 -0.571711 0
M  V30 9715 C 932.451 2.0203 -0.0530022 0
M  V30 9716 C 932.772 1.44687 1.30731 0
M  V30 9717 O 932.042 0.627429 1.85581 0
M  V30 9718 H 930.622 0.746815 -0.0166035 0
M  V30 9719 H 933.284 1.80099 -0.745003 0
M  V30 9720 H 932.38 3.12091 0.0242538 0
M  V30 9721 N 932.681 0.308908 1.54543 0
M  V30 9722 C 933.611 -0.556657 2.26768 0
M  V30 9723 C 934.592 -1.13145 1.27013 0
M  V30 9724 O 935.777 -1.15931 1.558 0
M  V30 9725 C 932.907 -1.72481 3.01443 0
M  V30 9726 C 931.861 -1.28001 4.08411 0
M  V30 9727 C 931.187 -2.53395 4.70845 0
M  V30 9728 C 932.487 -0.405497 5.20724 0
M  V30 9729 H 934.181 0.0457618 2.99365 0
M  V30 9730 H 931.727 0.0234495 1.43981 0
M  V30 9731 H 933.68 -2.3365 3.50693 0
M  V30 9732 H 932.404 -2.35359 2.26437 0
M  V30 9733 H 931.063 -0.69133 3.60022 0
M  V30 9734 H 930.711 -3.14604 3.92471 0
M  V30 9735 H 930.411 -2.2433 5.43093 0
M  V30 9736 H 931.935 -3.15352 5.22863 0
M  V30 9737 H 933.349 -0.923076 5.6582 0
M  V30 9738 H 931.746 -0.208282 5.99738 0
M  V30 9739 H 932.816 0.567412 4.81569 0
M  V30 9740 N 934.159 -1.57557 0.0367827 0
M  V30 9741 C 935.405 -1.92399 -0.641133 0
M  V30 9742 C 935.738 -0.914191 -1.71336 0
M  V30 9743 O 935.013 0.0619616 -1.94401 0
M  V30 9744 C 935.296 -3.37689 -1.25052 0
M  V30 9745 C 935.149 -4.4941 -0.187326 0
M  V30 9746 C 936.468 -3.8309 -2.16634 0
M  V30 9747 H 933.587 -0.699666 -0.231597 0
M  V30 9748 H 936.229 -1.89759 0.0956083 0
M  V30 9749 H 934.379 -3.40069 -1.87843 0
M  V30 9750 H 936.051 -4.59161 0.443736 0
M  V30 9751 H 934.294 -4.31065 0.486313 0
M  V30 9752 H 934.965 -5.48119 -0.653459 0
M  V30 9753 H 937.441 -3.82494 -1.63821 0
M  V30 9754 H 936.317 -4.85429 -2.56222 0
M  V30 9755 H 936.578 -3.19028 -3.06062 0
M  V30 9756 N 935.637 0.236453 -1.55816 0
M  V30 9757 C 936.865 0.980295 -1.82203 0
M  V30 9758 C 937.28 1.7854 -0.613926 0
M  V30 9759 O 936.637 1.77661 0.417491 0
M  V30 9760 C 936.688 1.90982 -3.06933 0
M  V30 9761 O 936.409 1.13728 -4.23081 0
M  V30 9762 C 937.91 2.76879 -3.46198 0
M  V30 9763 H 935.13 0.28799 -0.606055 0
M  V30 9764 H 937.674 0.256182 -2.02889 0
M  V30 9765 H 935.829 2.58808 -2.88266 0
M  V30 9766 H 936.243 1.76694 -4.93842 0
M  V30 9767 H 937.717 3.37831 -4.36548 0
M  V30 9768 H 938.194 3.48522 -2.67262 0
M  V30 9769 H 938.8 2.1449 -3.67252 0
M  V30 9770 N 937.115 1.49373 0.502552 0
M  V30 9771 C 938.526 1.52 1.0841 0
M  V30 9772 C 938.877 0.305317 1.9381 0
M  V30 9773 O 938.002 -0.585023 2.08342 0
M  V30 9774 C 938.597 2.75437 1.97281 0
M  V30 9775 C 937.156 2.80848 2.50602 0
M  V30 9776 C 936.303 2.45894 1.28186 0
M  V30 9777 H 939.254 1.56092 0.286533 0
M  V30 9778 H 939.275 2.55511 2.81947 0
M  V30 9779 H 938.787 3.63827 1.35098 0
M  V30 9780 H 936.888 1.96735 3.16427 0
M  V30 9781 H 937.001 3.82979 2.8786 0
M  V30 9782 H 935.365 1.97639 1.60657 0
M  V30 9783 H 936.148 3.36556 0.677139 0
M  V30 9784 N 938.594 -0.753485 1.38421 0
M  V30 9785 C 940.005 -1.33081 1.30944 0
M  V30 9786 C 940.356 -1.96169 -0.0347124 0
M  V30 9787 O 939.481 -1.95073 -0.936768 0
M  V30 9788 C 940.076 -2.41973 2.37138 0
M  V30 9789 C 938.635 -2.95426 2.33239 0
M  V30 9790 C 937.782 -1.68808 2.19998 0
M  V30 9791 H 940.733 -0.552354 1.48777 0
M  V30 9792 H 940.754 -3.21913 2.02859 0
M  V30 9793 H 940.266 -1.96027 3.34956 0
M  V30 9794 H 938.367 -3.45701 1.39003 0
M  V30 9795 H 938.48 -3.49798 3.27381 0
M  V30 9796 H 936.844 -1.92438 1.66852 0
M  V30 9797 H 937.627 -1.24939 3.19758 0
M  V30 9798 N 940.072 -1.23292 -0.981677 0
M  V30 9799 C 941.483 -1.05936 -1.53735 0
M  V30 9800 C 941.834 0.373695 -1.92608 0
M  V30 9801 O 940.959 1.26024 -1.75917 0
M  V30 9802 C 941.554 -1.91682 -2.79363 0
M  V30 9803 C 940.113 -1.78591 -3.31334 0
M  V30 9804 C 939.26 -1.87463 -2.04335 0
M  V30 9805 H 942.211 -1.36973 -0.801505 0
M  V30 9806 H 942.232 -1.44085 -3.52164 0
M  V30 9807 H 941.744 -2.95975 -2.51039 0
M  V30 9808 H 939.845 -0.770755 -3.64541 0
M  V30 9809 H 939.958 -2.61902 -4.01179 0
M  V30 9810 H 938.322 -1.3103 -2.18411 0
M  V30 9811 H 939.105 -2.9331 -1.78394 0
M  V30 9812 N 941.55 1.18024 -1.04442 0
M  V30 9813 C 942.497 2.21785 -0.638759 0
M  V30 9814 C 943.467 1.62255 0.355312 0
M  V30 9815 O 944.652 1.89176 0.24844 0
M  V30 9816 C 941.792 3.45098 -0.0118002 0
M  V30 9817 C 940.905 4.1895 -1.05379 0
M  V30 9818 C 940.04 5.2973 -0.394951 0
M  V30 9819 C 939.079 5.95359 -1.42178 0
M  V30 9820 N 938.216 6.97668 -0.787635 0
M  V30 9821 H 943.056 2.55839 -1.52808 0
M  V30 9822 H 940.593 1.25681 -0.764378 0
M  V30 9823 H 942.551 4.15564 0.369075 0
M  V30 9824 H 941.181 3.11652 0.84102 0
M  V30 9825 H 940.233 3.47274 -1.55258 0
M  V30 9826 H 941.545 4.63877 -1.83355 0
M  V30 9827 H 940.699 6.06687 0.0399244 0
M  V30 9828 H 939.438 4.85915 0.416867 0
M  V30 9829 H 938.443 5.17139 -1.86675 0
M  V30 9830 H 939.668 6.41255 -2.23536 0
M  V30 9831 H 937.614 6.56 0.00380893 0
M  V30 9832 H 937.531 7.40867 -1.50505 0
M  V30 9833 H 938.799 7.78586 -0.377282 0
M  V30 9834 N 943.028 0.824394 1.34319 0
M  V30 9835 C 943.976 0.235628 2.31403 0
M  V30 9836 C 944.97 -0.624443 1.57471 0
M  V30 9837 O 946.176 -0.515618 1.72457 0
M  V30 9838 H 942.551 0.0574537 0.749802 0
M  V30 9839 H 944.522 1.06925 2.78585 0
M  V30 9840 C 943.271 -0.586617 3.42716 0
M  V30 9841 H 942.594 0.0658669 3.99746 0
M  V30 9842 H 944.034 -0.964661 4.1288 0
M  V30 9843 C 942.493 -1.75957 2.87299 0
M  V30 9844 O 943.023 -2.8578 2.82299 0
M  V30 9845 N 941.229 -1.57678 2.44102 0
M  V30 9846 H 940.776 -0.683436 2.48369 0
M  V30 9847 H 940.734 -2.36311 2.07375 0
M  V30 9848 N 944.506 -1.46559 0.579492 0
M  V30 9849 C 945.917 -1.8608 0.152052 0
M  V30 9850 C 946.268 -1.48346 -1.28405 0
M  V30 9851 O 945.393 -0.89685 -1.9694 0
M  V30 9852 C 945.988 -3.37729 0.269171 0
M  V30 9853 C 944.547 -3.76258 -0.103376 0
M  V30 9854 C 943.694 -2.70584 0.60659 0
M  V30 9855 H 946.645 -1.3776 0.787904 0
M  V30 9856 H 946.666 -3.77116 -0.506339 0
M  V30 9857 H 946.178 -3.65162 1.31448 0
M  V30 9858 H 944.279 -3.54443 -1.14895 0
M  V30 9859 H 944.392 -4.78335 0.270701 0
M  V30 9860 H 942.756 -2.54656 0.0471984 0
M  V30 9861 H 943.539 -3.00856 1.65349 0
M  V30 9862 N 945.984 -0.3171 -1.54377 0
M  V30 9863 C 946.934 0.567199 -2.20832 0
M  V30 9864 C 947.918 1.08661 -1.18666 0
M  V30 9865 O 949.11 1.0247 -1.44322 0
M  V30 9866 C 946.239 1.73079 -2.96477 0
M  V30 9867 C 945.325 1.22658 -4.05975 0
M  V30 9868 N 945.716 0.441565 -5.03869 0
M  V30 9869 C 944.014 1.50589 -4.19808 0
M  V30 9870 C 944.715 0.171063 -5.81448 0
M  V30 9871 N 943.691 0.755389 -5.38326 0
M  V30 9872 H 947.493 -0.0399349 -2.93873 0
M  V30 9873 H 945.007 -0.122639 -1.61936 0
M  V30 9874 H 947.004 2.37601 -3.42566 0
M  V30 9875 H 945.664 2.34146 -2.24957 0
M  V30 9876 H 946.675 0.0849921 -5.1783 0
M  V30 9877 H 943.352 2.12288 -3.595 0
M  V30 9878 H 944.742 -0.460484 -6.7032 0
M  V30 9879 N 947.462 1.57535 -0.0451378 0
M  V30 9880 C 948.41 2.12351 0.949205 0
M  V30 9881 C 949.404 1.05386 1.32628 0
M  V30 9882 O 950.61 1.23802 1.30664 0
M  V30 9883 H 946.985 0.678648 0.323945 0
M  V30 9884 H 948.956 2.94806 0.461718 0
M  V30 9885 C 947.705 2.67862 2.21687 0
M  V30 9886 H 947.028 3.49826 1.93551 0
M  V30 9887 H 948.468 3.09844 2.89435 0
M  V30 9888 C 946.927 1.61353 2.95748 0
M  V30 9889 O 947.457 1.02276 3.88462 0
M  V30 9890 N 945.663 1.33017 2.5837 0
M  V30 9891 H 945.21 1.81246 1.83051 0
M  V30 9892 H 945.168 0.619812 3.0823 0
M  V30 9893 N 948.94 -0.228186 1.55939 0
M  V30 9894 C 950.351 -0.795734 1.68893 0
M  V30 9895 C 950.702 -1.85261 0.645967 0
M  V30 9896 O 949.827 -2.15434 -0.2042 0
M  V30 9897 C 950.422 -1.45013 3.06197 0
M  V30 9898 C 948.981 -1.96514 3.21028 0
M  V30 9899 C 948.128 -0.822918 2.64808 0
M  V30 9900 H 951.079 -0.0036485 1.587 0
M  V30 9901 H 951.1 -2.31875 3.01685 0
M  V30 9902 H 950.612 -0.680678 3.82084 0
M  V30 9903 H 948.713 -2.76282 2.49998 0
M  V30 9904 H 948.826 -2.14967 4.28166 0
M  V30 9905 H 947.19 -1.22846 2.23116 0
M  V30 9906 H 947.973 -0.0662493 3.43236 0
M  V30 9907 N 950.418 -1.49637 -0.494624 0
M  V30 9908 C 951.646 -1.63164 -1.2722 0
M  V30 9909 C 952.061 -0.305552 -1.86311 0
M  V30 9910 O 951.418 0.709758 -1.68133 0
M  V30 9911 C 951.469 -2.70524 -2.39789 0
M  V30 9912 O 951.19 -3.97991 -1.83126 0
M  V30 9913 C 952.691 -2.94814 -3.31058 0
M  V30 9914 H 949.911 -0.54912 -0.385627 0
M  V30 9915 H 952.455 -1.95711 -0.593081 0
M  V30 9916 H 950.61 -2.40738 -3.03519 0
M  V30 9917 H 951.024 -4.57179 -2.57075 0
M  V30 9918 H 952.498 -3.73653 -4.06309 0
M  V30 9919 H 952.975 -2.04974 -3.88436 0
M  V30 9920 H 953.581 -3.26042 -2.73088 0
M  V30 9921 N 951.896 0.746133 -1.38819 0
M  V30 9922 C 953.173 1.49652 -1.25951 0
M  V30 9923 C 953.553 2.10663 0.135833 0
M  V30 9924 O 952.901 1.97682 1.14604 0
M  V30 9925 C 953.111 2.5569 -2.37537 0
M  V30 9926 C 954.459 3.22385 -2.76321 0
M  V30 9927 O 955.483 2.65998 -2.36904 0
M  V30 9928 O 954.342 4.2439 -3.44319 0
M  V30 9929 H 951.436 0.664019 -0.492958 0
M  V30 9930 H 953.982 0.780908 -1.50665 0
M  V30 9931 H 952.754 2.08908 -3.30867 0
M  V30 9932 H 952.377 3.34823 -2.14427 0
M  V30 9933 N 953.375 1.23811 0.975125 0
M  V30 9934 C 954.305 1.04846 2.08638 0
M  V30 9935 C 955.286 -0.0362859 1.70061 0
M  V30 9936 O 956.471 0.12937 1.93769 0
M  V30 9937 C 953.601 0.644534 3.41267 0
M  V30 9938 C 952.555 1.67722 3.93768 0
M  V30 9939 C 951.881 1.12857 5.22654 0
M  V30 9940 C 953.181 3.07147 4.22443 0
M  V30 9941 H 954.875 1.97795 2.24761 0
M  V30 9942 H 952.421 0.952397 1.08006 0
M  V30 9943 H 954.374 0.498887 4.18436 0
M  V30 9944 H 953.098 -0.320641 3.25022 0
M  V30 9945 H 951.757 1.81095 3.18748 0
M  V30 9946 H 951.405 0.154227 5.02764 0
M  V30 9947 H 951.105 1.81862 5.58749 0
M  V30 9948 H 952.629 0.994891 6.0244 0
M  V30 9949 H 954.043 2.97045 4.90344 0
M  V30 9950 H 952.44 3.73437 4.6975 0
M  V30 9951 H 953.51 3.55743 3.29507 0
M  V30 9952 N 954.853 -1.17469 1.05066 0
M  V30 9953 C 956.1 -1.87698 0.759987 0
M  V30 9954 C 956.428 -1.80964 -0.712902 0
M  V30 9955 O 955.683 -1.21146 -1.53695 0
M  V30 9956 C 955.982 -3.37211 1.18421 0
M  V30 9957 C 955.648 -3.64148 2.65909 0
M  V30 9958 C 954.31 -3.71209 3.06199 0
M  V30 9959 C 956.662 -3.75724 3.61222 0
M  V30 9960 C 953.99 -3.87334 4.40669 0
M  V30 9961 C 956.342 -3.93368 4.95424 0
M  V30 9962 C 955.006 -3.98667 5.3537 0
M  V30 9963 H 954.276 -0.686835 0.278099 0
M  V30 9964 H 956.923 -1.38975 1.31751 0
M  V30 9965 H 955.228 -3.87982 0.545654 0
M  V30 9966 H 956.925 -3.89911 0.936518 0
M  V30 9967 H 953.515 -3.59276 2.33707 0
M  V30 9968 H 957.699 -3.69591 3.31235 0
M  V30 9969 H 952.955 -3.89685 4.71122 0
M  V30 9970 H 957.129 -4.01267 5.69173 0
M  V30 9971 H 954.756 -4.10915 6.39572 0
M  V30 9972 N 956.331 -0.831506 -1.3388 0
M  V30 9973 C 957.608 -0.345907 -1.92517 0
M  V30 9974 C 957.988 1.16784 -1.75854 0
M  V30 9975 O 957.336 1.97889 -1.14245 0
M  V30 9976 C 957.546 -0.784692 -3.40064 0
M  V30 9977 C 958.894 -0.78846 -4.17215 0
M  V30 9978 O 959.918 -0.727823 -3.48685 0
M  V30 9979 O 958.777 -0.869481 -5.39539 0
M  V30 9980 H 955.871 -0.0963568 -0.821367 0
M  V30 9981 H 958.417 -0.916868 -1.42799 0
M  V30 9982 H 957.189 -1.82697 -3.46031 0
M  V30 9983 H 956.812 -0.189897 -3.97146 0
M  V30 9984 N 957.809 1.4625 -0.587256 0
M  V30 9985 C 959.034 2.07252 -0.0784517 0
M  V30 9986 C 959.459 1.43239 1.21919 0
M  V30 9987 O 958.817 0.517791 1.73749 0
M  V30 9988 C 958.865 3.60534 0.0691037 0
M  V30 9989 O 957.969 3.96773 1.12448 0
M  V30 9990 H 957.31 0.660825 -0.064859 0
M  V30 9991 H 959.84 1.87819 -0.811491 0
M  V30 9992 H 959.85 4.0708 0.273826 0
M  V30 9993 H 958.525 4.06516 -0.878514 0
M  V30 9994 H 957.102 3.6193 0.897852 0
M  V30 9995 N 959.287 0.325282 1.54207 0
M  V30 9996 C 960.533 -0.277185 2.00897 0
M  V30 9997 C 960.866 -1.51651 1.21308 0
M  V30 9998 O 960.141 -1.92237 0.295825 0
M  V30 9999 C 960.424 -0.60961 3.54902 0
M  V30 10000 C 960.277 0.640542 4.45216 0
M  V30 10001 C 961.596 -1.42656 4.16338 0
M  V30 10002 H 958.715 -0.0992722 0.730284 0
M  V30 10003 H 961.357 0.442201 1.84783 0
M  V30 10004 H 959.507 -1.22249 3.68765 0
M  V30 10005 H 961.179 1.27878 4.43221 0
M  V30 10006 H 959.422 1.26908 4.14821 0
M  V30 10007 H 960.093 0.363459 5.50802 0
M  V30 10008 H 962.569 -0.908494 4.06061 0
M  V30 10009 H 961.445 -1.62792 5.24204 0
M  V30 10010 H 961.706 -2.42321 3.69774 0
M  V30 10011 N 960.765 -1.57509 0.0534917 0
M  V30 10012 C 961.993 -1.97098 -0.629298 0
M  V30 10013 C 962.408 -0.931128 -1.64242 0
M  V30 10014 O 961.765 0.0843866 -1.82305 0
M  V30 10015 C 961.816 -3.36767 -1.31415 0
M  V30 10016 O 961.537 -4.36766 -0.341599 0
M  V30 10017 C 963.038 -3.91127 -2.08649 0
M  V30 10018 H 960.258 -0.648611 -0.171886 0
M  V30 10019 H 962.802 -2.04145 0.120479 0
M  V30 10020 H 960.957 -3.30863 -2.01515 0
M  V30 10021 H 961.371 -5.1788 -0.830715 0
M  V30 10022 H 962.845 -4.91129 -2.51985 0
M  V30 10023 H 963.322 -3.26679 -2.9356 0
M  V30 10024 H 963.928 -4.00376 -1.43456 0
M  V30 10025 N 962.243 0.219913 -1.56058 0
M  V30 10026 C 963.191 1.29215 -1.93407 0
M  V30 10027 C 964.185 1.48434 -0.816307 0
M  V30 10028 O 965.391 1.49589 -1.00115 0
M  V30 10029 H 961.766 0.433256 -0.614649 0
M  V30 10030 H 963.737 0.949977 -2.82875 0
M  V30 10031 C 962.486 2.63501 -2.26854 0
M  V30 10032 H 961.809 2.4952 -3.12377 0
M  V30 10033 H 963.249 3.37334 -2.56869 0
M  V30 10034 C 961.708 3.18634 -1.09425 0
M  V30 10035 O 962.238 4.00117 -0.356243 0
M  V30 10036 N 960.444 2.7703 -0.877642 0
M  V30 10037 H 959.991 2.10875 -1.47951 0
M  V30 10038 H 959.949 3.1426 -0.0936792 0
M  V30 10039 N 963.721 1.49897 0.486681 0
M  V30 10040 C 964.669 1.68125 1.60738 0
M  V30 10041 C 965.663 0.547097 1.60322 0
M  V30 10042 O 966.869 0.727153 1.64659 0
M  V30 10043 H 963.244 0.530391 0.533094 0
M  V30 10044 H 965.215 2.62165 1.42521 0
M  V30 10045 C 963.964 1.77827 2.98786 0
M  V30 10046 H 963.287 2.6448 2.99818 0
M  V30 10047 H 964.727 1.94611 3.76699 0
M  V30 10048 C 963.186 0.526287 3.32764 0
M  V30 10049 O 963.716 -0.341607 4.00245 0
M  V30 10050 N 961.922 0.384947 2.88039 0
M  V30 10051 H 961.469 1.09222 2.33299 0
M  V30 10052 H 961.427 -0.451618 3.11139 0
M  V30 10053 N 965.199 -0.738761 1.39212 0
M  V30 10054 C 966.427 -1.52801 1.39497 0
M  V30 10055 C 966.842 -1.88797 -0.0114917 0
M  V30 10056 O 966.199 -1.53835 -0.981887 0
M  V30 10057 C 966.25 -2.81793 2.2644 0
M  V30 10058 O 965.971 -2.47328 3.61608 0
M  V30 10059 C 967.472 -3.75844 2.35067 0
M  V30 10060 H 964.692 -0.472322 0.476606 0
M  V30 10061 H 967.236 -0.913153 1.8298 0
M  V30 10062 H 965.391 -3.3962 1.8638 0
M  V30 10063 H 965.805 -3.30162 4.07545 0
M  V30 10064 H 967.279 -4.6326 3.00157 0
M  V30 10065 H 967.756 -4.17329 1.3687 0
M  V30 10066 H 968.362 -3.23937 2.75581 0
M  V30 10067 N 966.677 -1.24326 -0.968545 0
M  V30 10068 C 968.093 -1.00847 -1.23701 0
M  V30 10069 C 968.293 0.283235 -1.99499 0
M  V30 10070 O 967.349 0.999607 -2.31871 0
M  V30 10071 C 968.662 -2.22295 -2.02498 0
M  V30 10072 C 970.21 -2.26911 -2.15593 0
M  V30 10073 C 970.685 -3.47978 -2.97784 0
M  V30 10074 N 972.176 -3.48289 -3.05367 0
M  V30 10075 C 972.911 -4.38625 -3.69318 0
M  V30 10076 N 972.407 -5.39213 -4.34995 0
M  V30 10077 N 974.2 -4.26339 -3.66322 0
M  V30 10078 H 966.351 -2.07335 -0.461087 0
M  V30 10079 H 968.614 -0.909805 -0.26638 0
M  V30 10080 H 968.32 -3.161 -1.54188 0
M  V30 10081 H 968.194 -2.24344 -3.03232 0
M  V30 10082 H 970.581 -1.33639 -2.63106 0
M  V30 10083 H 970.662 -2.28888 -1.14209 0
M  V30 10084 H 970.306 -4.41564 -2.50965 0
M  V30 10085 H 970.236 -3.43244 -3.99364 0
M  V30 10086 H 972.727 -2.75517 -2.58648 0
M  V30 10087 H 973.04 -6.04378 -4.81608 0
M  V30 10088 H 971.385 -5.43101 -4.33667 0
M  V30 10089 H 974.576 -3.46991 -3.14189 0
M  V30 10090 H 974.749 -4.9694 -4.15878 0
M  V30 10091 N 968.156 1.1691 -1.05688 0
M  V30 10092 C 969.381 1.91745 -0.790478 0
M  V30 10093 C 969.806 1.76568 0.648478 0
M  V30 10094 O 969.164 1.08682 1.45114 0
M  V30 10095 C 969.212 3.4067 -1.18222 0
M  V30 10096 O 968.316 4.11177 -0.317341 0
M  V30 10097 H 967.657 0.5976 -0.28943 0
M  V30 10098 H 970.187 1.48157 -1.41105 0
M  V30 10099 H 970.197 3.91424 -1.15114 0
M  V30 10100 H 968.872 3.51036 -2.2304 0
M  V30 10101 H 967.449 3.70645 -0.409459 0
M  V30 10102 N 969.634 0.838594 1.33437 0
M  V30 10103 C 971.045 0.490934 1.8013 0
M  V30 10104 C 971.396 -0.990024 1.6939 0
M  V30 10105 O 970.521 -1.77139 1.24302 0
M  V30 10106 C 971.116 0.884347 3.27055 0
M  V30 10107 C 969.675 0.588829 3.71766 0
M  V30 10108 C 968.822 1.09282 2.54858 0
M  V30 10109 H 971.773 1.02732 1.20962 0
M  V30 10110 H 971.794 0.194283 3.80004 0
M  V30 10111 H 971.306 1.96225 3.34839 0
M  V30 10112 H 969.407 -0.479018 3.69508 0
M  V30 10113 H 969.52 1.14387 4.65245 0
M  V30 10114 H 967.884 0.513702 2.49466 0
M  V30 10115 H 968.667 2.1775 2.65405 0
M  V30 10116 N 971.112 -1.45937 0.595003 0
M  V30 10117 C 972.059 -2.30427 -0.131165 0
M  V30 10118 C 973.029 -1.41355 -0.872232 0
M  V30 10119 O 974.214 -1.70296 -0.860467 0
M  V30 10120 C 971.354 -3.26045 -1.13087 0
M  V30 10121 C 970.467 -4.30218 -0.391982 0
M  V30 10122 C 969.602 -5.12953 -1.3803 0
M  V30 10123 C 968.641 -6.08865 -0.628505 0
M  V30 10124 N 967.778 -6.84425 -1.56548 0
M  V30 10125 H 972.618 -2.91992 0.595359 0
M  V30 10126 H 970.155 -1.43895 0.305405 0
M  V30 10127 H 972.113 -3.79937 -1.72348 0
M  V30 10128 H 970.743 -2.66261 -1.82496 0
M  V30 10129 H 969.795 -3.79086 0.315895 0
M  V30 10130 H 971.107 -4.98418 0.195173 0
M  V30 10131 H 970.261 -5.71184 -2.04534 0
M  V30 10132 H 969 -4.44743 -2.00138 0
M  V30 10133 H 968.005 -5.49777 0.0502431 0
M  V30 10134 H 969.23 -6.79099 -0.012641 0
M  V30 10135 H 967.176 -6.18913 -2.17444 0
M  V30 10136 H 967.093 -7.48931 -1.03145 0
M  V30 10137 H 968.361 -7.47204 -2.22049 0
M  V30 10138 N 972.59 -0.333456 -1.54032 0
M  V30 10139 C 973.52 0.52051 -2.27625 0
M  V30 10140 C 974.501 1.1111 -1.28797 0
M  V30 10141 O 975.686 1.13438 -1.57625 0
M  V30 10142 C 972.816 1.67663 -3.04149 0
M  V30 10143 C 971.77 1.21487 -4.10396 0
M  V30 10144 C 971.096 2.45872 -4.74817 0
M  V30 10145 C 972.396 0.322603 -5.21303 0
M  V30 10146 H 974.09 -0.0933823 -2.99254 0
M  V30 10147 H 971.636 -0.0463526 -1.43925 0
M  V30 10148 H 973.589 2.28041 -3.54366 0
M  V30 10149 H 972.313 2.31727 -2.30153 0
M  V30 10150 H 970.972 0.633966 -3.61077 0
M  V30 10151 H 970.62 3.0832 -3.97426 0
M  V30 10152 H 970.32 2.15662 -5.46593 0
M  V30 10153 H 971.844 3.06994 -5.27814 0
M  V30 10154 H 973.258 0.832942 -5.67217 0
M  V30 10155 H 971.655 0.112843 -5.99994 0
M  V30 10156 H 972.725 -0.643954 -4.80605 0
M  V30 10157 N 974.068 1.57479 -0.061844 0
M  V30 10158 C 975.315 1.93108 0.60954 0
M  V30 10159 C 975.643 0.941086 1.70217 0
M  V30 10160 O 974.898 -0.044914 1.95648 0
M  V30 10161 C 975.197 3.35394 1.23474 0
M  V30 10162 C 974.863 4.50095 0.269247 0
M  V30 10163 C 973.525 4.812 0.00360316 0
M  V30 10164 C 975.877 5.19725 -0.391839 0
M  V30 10165 C 973.205 5.79276 -0.930383 0
M  V30 10166 C 975.557 6.18801 -1.31408 0
M  V30 10167 C 974.221 6.48328 -1.58829 0
M  V30 10168 H 973.491 0.706634 0.223046 0
M  V30 10169 H 976.138 1.91054 -0.1306 0
M  V30 10170 H 974.443 3.33866 2.05039 0
M  V30 10171 H 976.14 3.60247 1.76134 0
M  V30 10172 H 972.73 4.2583 0.486477 0
M  V30 10173 H 976.914 4.95898 -0.199713 0
M  V30 10174 H 972.17 6.00484 -1.15019 0
M  V30 10175 H 976.344 6.71862 -1.83234 0
M  V30 10176 H 973.971 7.24137 -2.31363 0
M  V30 10177 N 975.546 -0.211634 1.56173 0
M  V30 10178 C 976.792 -0.935935 1.79911 0
M  V30 10179 C 977.125 -1.83589 0.633155 0
M  V30 10180 O 976.4 -1.91004 -0.367132 0
M  V30 10181 C 976.683 -1.76638 3.13801 0
M  V30 10182 C 976.536 -0.892259 4.40861 0
M  V30 10183 C 977.855 -2.74224 3.44223 0
M  V30 10184 H 974.974 -0.338822 0.654499 0
M  V30 10185 H 977.616 -0.20422 1.88899 0
M  V30 10186 H 975.766 -2.39021 3.0627 0
M  V30 10187 H 977.438 -0.284407 4.60422 0
M  V30 10188 H 975.681 -0.198145 4.33347 0
M  V30 10189 H 976.352 -1.50793 5.31004 0
M  V30 10190 H 978.828 -2.21975 3.51946 0
M  V30 10191 H 977.704 -3.29424 4.39057 0
M  V30 10192 H 977.965 -3.52455 2.66885 0
M  V30 10193 N 977.024 -1.50153 -0.478725 0
M  V30 10194 C 978.27 -1.60998 -1.23318 0
M  V30 10195 C 978.603 -0.305868 -1.91776 0
M  V30 10196 O 977.878 0.692158 -1.81767 0
M  V30 10197 C 978.161 -2.78495 -2.28282 0
M  V30 10198 C 978.014 -4.18767 -1.64178 0
M  V30 10199 C 979.333 -2.91569 -3.2966 0
M  V30 10200 H 976.452 -0.585983 -0.446982 0
M  V30 10201 H 979.094 -1.82514 -0.528063 0
M  V30 10202 H 977.244 -2.60281 -2.8842 0
M  V30 10203 H 978.916 -4.48552 -1.07696 0
M  V30 10204 H 977.159 -4.23379 -0.94514 0
M  V30 10205 H 977.83 -4.96894 -2.40417 0
M  V30 10206 H 980.306 -3.08219 -2.79536 0
M  V30 10207 H 979.182 -3.75419 -4.0044 0
M  V30 10208 H 979.443 -2.01859 -3.93326 0
M  V30 10209 N 978.502 0.731368 -1.39602 0
M  V30 10210 C 979.749 1.491 -1.37024 0
M  V30 10211 C 980.077 1.94473 0.0326423 0
M  V30 10212 O 979.332 1.6737 1.01418 0
M  V30 10213 C 979.631 2.74224 -2.29208 0
M  V30 10214 C 979.297 2.477 -3.7677 0
M  V30 10215 C 977.959 2.40175 -4.16976 0
M  V30 10216 C 980.311 2.25098 -4.70086 0
M  V30 10217 C 977.639 2.08095 -5.48556 0
M  V30 10218 C 979.991 1.94534 -6.01946 0
M  V30 10219 C 978.655 1.85481 -6.41212 0
M  V30 10220 H 977.925 0.545595 -0.501405 0
M  V30 10221 H 980.572 0.839127 -1.72136 0
M  V30 10222 H 978.877 3.44171 -1.87225 0
M  V30 10223 H 980.574 3.32264 -2.24504 0
M  V30 10224 H 977.164 2.54436 -3.44906 0
M  V30 10225 H 981.348 2.29876 -4.39853 0
M  V30 10226 H 976.604 1.99611 -5.77897 0
M  V30 10227 H 980.778 1.76054 -6.73779 0
M  V30 10228 H 978.405 1.60389 -7.43088 0
M  V30 10229 N 979.98 1.24838 0.961938 0
M  V30 10230 C 981.227 1.09151 1.70564 0
M  V30 10231 C 981.555 -0.368719 1.90973 0
M  V30 10232 O 980.81 -1.28854 1.47293 0
M  V30 10233 C 981.109 1.78289 3.09754 0
M  V30 10234 C 980.775 3.28216 3.09169 0
M  V30 10235 C 979.437 3.69118 3.08716 0
M  V30 10236 C 981.789 4.24035 3.03058 0
M  V30 10237 C 979.117 5.04263 2.99892 0
M  V30 10238 C 981.469 5.59195 2.95776 0
M  V30 10239 C 980.133 5.99436 2.93655 0
M  V30 10240 H 979.403 0.399414 0.624139 0
M  V30 10241 H 982.05 1.55016 1.12438 0
M  V30 10242 H 980.355 1.24835 3.7138 0
M  V30 10243 H 982.052 1.63612 3.66104 0
M  V30 10244 H 978.642 2.95667 3.10289 0
M  V30 10245 H 982.826 3.93431 3.02532 0
M  V30 10246 H 978.082 5.3463 2.96615 0
M  V30 10247 H 982.256 6.33142 2.90007 0
M  V30 10248 H 979.883 7.04116 2.86573 0
M  V30 10249 N 981.458 -1.16348 1.06306 0
M  V30 10250 C 982.735 -1.829 0.69331 0
M  V30 10251 C 983.115 -1.94298 -0.82531 0
M  V30 10252 O 982.463 -1.48619 -1.73565 0
M  V30 10253 C 982.673 -3.1989 1.3954 0
M  V30 10254 C 984.021 -3.95662 1.54068 0
M  V30 10255 O 985.045 -3.29408 1.35532 0
M  V30 10256 O 983.904 -5.14422 1.84479 0
M  V30 10257 H 980.998 -0.789738 0.245445 0
M  V30 10258 H 983.544 -1.23549 1.16334 0
M  V30 10259 H 982.316 -3.06629 2.43093 0
M  V30 10260 H 981.939 -3.86918 0.915453 0
M  V30 10261 N 982.937 -0.845659 -1.3299 0
M  V30 10262 C 983.885 -0.272412 -2.30999 0
M  V30 10263 C 984.879 0.599311 -1.58444 0
M  V30 10264 O 986.085 0.488117 -1.73255 0
M  V30 10265 H 982.46 -0.0693751 -0.748793 0
M  V30 10266 H 984.431 -1.11343 -2.76849 0
M  V30 10267 C 983.18 0.532019 -3.43606 0
M  V30 10268 H 982.503 -0.129455 -3.9959 0
M  V30 10269 H 983.943 0.898853 -4.14363 0
M  V30 10270 C 982.402 1.71364 -2.90062 0
M  V30 10271 O 982.932 2.81252 -2.8681 0
M  V30 10272 N 981.138 1.53775 -2.4658 0
M  V30 10273 H 980.685 0.643836 -2.49424 0
M  V30 10274 H 980.643 2.32982 -2.11108 0
M  V30 10275 N 984.415 1.45619 -0.602734 0
M  V30 10276 C 985.347 2.28662 0.157012 0
M  V30 10277 C 986.36 1.39672 0.836396 0
M  V30 10278 O 987.549 1.64091 0.702599 0
M  V30 10279 C 984.649 3.1528 1.24306 0
M  V30 10280 C 983.822 4.32517 0.651731 0
M  V30 10281 C 982.881 5.00381 1.62804 0
M  V30 10282 O 981.907 5.57333 1.15624 0
M  V30 10283 N 983.109 4.99221 2.96241 0
M  V30 10284 H 985.874 2.94506 -0.555535 0
M  V30 10285 H 983.435 1.55753 -0.441881 0
M  V30 10286 H 985.427 3.57544 1.8959 0
M  V30 10287 H 983.997 2.51376 1.85819 0
M  V30 10288 H 983.217 3.93793 -0.17907 0
M  V30 10289 H 984.505 5.08249 0.236802 0
M  V30 10290 H 983.903 4.54232 3.37179 0
M  V30 10291 H 982.46 5.45364 3.56961 0
M  V30 10292 N 985.893 0.34162 1.53853 0
M  V30 10293 C 986.856 -0.503541 2.236 0
M  V30 10294 C 987.856 -1.02912 1.23554 0
M  V30 10295 O 989.046 -0.918678 1.48007 0
M  V30 10296 C 986.178 -1.70126 2.95415 0
M  V30 10297 H 987.371 0.106437 2.99711 0
M  V30 10298 H 984.924 0.0929408 1.56023 0
M  V30 10299 H 985.659 -2.34999 2.23486 0
M  V30 10300 H 985.444 -1.33161 3.68796 0
M  V30 10301 H 986.934 -2.30077 3.48503 0
M  V30 10302 N 987.371 -1.57444 0.0701946 0
M  V30 10303 C 988.601 -1.97467 -0.607476 0
M  V30 10304 C 989.009 -0.947232 -1.63781 0
M  V30 10305 O 988.352 0.074652 -1.83548 0
M  V30 10306 C 988.414 -3.33795 -1.33495 0
M  V30 10307 C 988.078 -4.54697 -0.458265 0
M  V30 10308 C 989.075 -5.19127 0.283488 0
M  V30 10309 C 986.76 -5.00833 -0.383612 0
M  V30 10310 C 988.754 -6.28043 1.08813 0
M  V30 10311 C 986.441 -6.09622 0.424705 0
M  V30 10312 C 987.439 -6.7309 1.15925 0
M  V30 10313 O 987.127 -7.79785 1.95423 0
M  V30 10314 H 986.859 -0.654405 -0.169501 0
M  V30 10315 H 989.413 -2.04931 0.138651 0
M  V30 10316 H 987.643 -3.22941 -2.12711 0
M  V30 10317 H 989.332 -3.58435 -1.9047 0
M  V30 10318 H 990.098 -4.84428 0.235397 0
M  V30 10319 H 985.977 -4.51211 -0.944968 0
M  V30 10320 H 989.521 -6.77513 1.66197 0
M  V30 10321 H 985.418 -6.43755 0.474366 0
M  V30 10322 H 986.186 -7.96655 1.87838 0
M  V30 10323 N 988.849 0.203349 -1.56283 0
M  V30 10324 C 990.26 0.768764 -1.70138 0
M  V30 10325 C 990.611 1.8421 -0.675358 0
M  V30 10326 O 989.736 2.15732 0.1699 0
M  V30 10327 C 990.331 1.40123 -3.08466 0
M  V30 10328 C 988.89 1.91382 -3.24114 0
M  V30 10329 C 988.037 0.780685 -2.66084 0
M  V30 10330 H 990.988 -0.0215997 -1.58685 0
M  V30 10331 H 991.009 2.27046 -3.05336 0
M  V30 10332 H 990.521 0.619805 -3.83119 0
M  V30 10333 H 988.622 2.7227 -2.54362 0
M  V30 10334 H 988.735 2.08128 -4.31531 0
M  V30 10335 H 987.099 1.19281 -2.25042 0
M  V30 10336 H 987.882 0.0116351 -3.43298 0
M  V30 10337 N 990.327 1.50405 0.470755 0
M  V30 10338 C 991.237 1.7208 1.59454 0
M  V30 10339 C 992.253 0.603932 1.63183 0
M  V30 10340 O 993.429 0.882296 1.81046 0
M  V30 10341 C 990.494 1.81057 2.95667 0
M  V30 10342 C 989.555 3.04792 3.02324 0
M  V30 10343 C 988.788 3.13332 4.3204 0
M  V30 10344 O 989.011 2.28655 5.22564 0
M  V30 10345 O 987.945 4.0606 4.44296 0
M  V30 10346 H 991.771 2.67343 1.44089 0
M  V30 10347 H 989.356 1.34505 0.650286 0
M  V30 10348 H 991.238 1.8914 3.76569 0
M  V30 10349 H 989.913 0.889782 3.11231 0
M  V30 10350 H 988.82 3.0221 2.205 0
M  V30 10351 H 990.153 3.96451 2.91698 0
M  V30 10352 N 991.805 -0.723954 1.39988 0
M  V30 10353 C 993.035 -1.51094 1.40905 0
M  V30 10354 C 993.443 -1.89199 0.00476744 0
M  V30 10355 O 992.786 -1.55398 -0.979646 0
M  V30 10356 C 992.848 -2.82114 2.22827 0
M  V30 10357 C 992.512 -2.66379 3.71337 0
M  V30 10358 C 993.509 -2.34192 4.64166 0
M  V30 10359 C 991.194 -2.82905 4.15054 0
M  V30 10360 C 993.188 -2.18729 5.98696 0
M  V30 10361 C 990.875 -2.67059 5.49657 0
M  V30 10362 C 991.873 -2.35018 6.41292 0
M  V30 10363 O 991.561 -2.19284 7.73414 0
M  V30 10364 H 991.293 -0.473142 0.482818 0
M  V30 10365 H 993.847 -0.901321 1.84568 0
M  V30 10366 H 992.077 -3.45377 1.7393 0
M  V30 10367 H 993.766 -3.43789 2.15787 0
M  V30 10368 H 994.532 -2.21065 4.31689 0
M  V30 10369 H 990.411 -3.06834 3.44055 0
M  V30 10370 H 993.955 -1.93641 6.70186 0
M  V30 10371 H 989.852 -2.79768 5.81722 0
M  V30 10372 H 990.62 -2.34269 7.84258 0
M  V30 10373 N 993.283 -1.25346 -0.955304 0
M  V30 10374 C 994.213 -1.08152 -2.06943 0
M  V30 10375 C 995.194 0.00922598 -1.70097 0
M  V30 10376 O 996.379 -0.160181 -1.93538 0
M  V30 10377 C 993.509 -0.698745 -3.40198 0
M  V30 10378 C 992.463 -1.73965 -3.9105 0
M  V30 10379 C 991.789 -1.21158 -5.20792 0
M  V30 10380 C 993.089 -3.13829 -4.17503 0
M  V30 10381 H 994.783 -2.01345 -2.21586 0
M  V30 10382 H 992.329 -0.969459 -1.06478 0
M  V30 10383 H 994.282 -0.565394 -4.1759 0
M  V30 10384 H 993.006 0.268892 -3.25491 0
M  V30 10385 H 991.665 -1.86143 -3.15827 0
M  V30 10386 H 991.313 -0.234193 -5.02455 0
M  V30 10387 H 991.013 -1.90728 -5.55785 0
M  V30 10388 H 992.537 -1.09061 -6.00781 0
M  V30 10389 H 993.951 -3.04809 -4.85556 0
M  V30 10390 H 992.348 -3.80863 -4.63749 0
M  V30 10391 H 993.418 -3.6094 -3.23806 0
M  V30 10392 N 994.761 1.15782 -1.06922 0
M  V30 10393 C 996.01 1.85807 -0.784774 0
M  V30 10394 C 996.323 1.82967 0.691551 0
M  V30 10395 O 997.529 2.48632 1.0906 0
M  V30 10396 C 995.985 3.33469 -1.35375 0
M  V30 10397 C 995.593 3.44766 -2.86077 0
M  V30 10398 C 997.337 4.08707 -1.14713 0
M  V30 10399 C 995.244 4.86551 -3.36187 0
M  V30 10400 H 994.174 0.696046 -0.28989 0
M  V30 10401 H 996.825 1.30629 -1.28873 0
M  V30 10402 H 995.207 3.88292 -0.77754 0
M  V30 10403 H 996.381 3.00073 -3.49704 0
M  V30 10404 H 994.696 2.82969 -3.05479 0
M  V30 10405 H 997.293 5.13336 -1.49633 0
M  V30 10406 H 997.636 4.16211 -0.0858868 0
M  V30 10407 H 998.169 3.60142 -1.68946 0
M  V30 10408 H 994.908 4.84229 -4.41818 0
M  V30 10409 H 994.428 5.31844 -2.77312 0
M  V30 10410 H 996.107 5.55392 -3.31887 0
M  V30 10411 N 996.239 0.8527 1.3254 0
M  V30 10412 C 997.467 0.469044 2.01513 0
M  V30 10413 C 997.882 -0.933701 1.64096 0
M  V30 10414 O 997.239 -1.60898 0.861283 0
M  V30 10415 C 997.29 0.596228 3.56549 0
M  V30 10416 O 997.011 1.94371 3.92621 0
M  V30 10417 C 998.512 0.211324 4.42796 0
M  V30 10418 H 995.732 0.184589 0.645111 0
M  V30 10419 H 998.276 1.1491 1.69163 0
M  V30 10420 H 996.431 -0.0360712 3.87383 0
M  V30 10421 H 996.845 1.93909 4.87339 0
M  V30 10422 H 998.319 0.351324 5.50881 0
M  V30 10423 H 998.796 -0.848055 4.30935 0
M  V30 10424 H 999.402 0.818617 4.17347 0
M  V30 10425 N 997.718 -1.45297 0.610449 0
M  V30 10426 C 998.965 -2.02218 0.106759 0
M  V30 10427 C 999.293 -1.47849 -1.26376 0
M  V30 10428 O 998.548 -0.644402 -1.84786 0
M  V30 10429 C 998.847 -3.57394 0.0205329 0
M  V30 10430 C 998.513 -4.30928 1.32709 0
M  V30 10431 C 997.175 -4.50735 1.68498 0
M  V30 10432 C 999.527 -4.72936 2.19046 0
M  V30 10433 C 996.855 -5.09806 2.90371 0
M  V30 10434 C 999.207 -5.33355 3.40169 0
M  V30 10435 C 997.871 -5.51384 3.76207 0
M  V30 10436 H 997.141 -0.739969 0.039066 0
M  V30 10437 H 999.788 -1.74326 0.792638 0
M  V30 10438 H 998.093 -3.84581 -0.748623 0
M  V30 10439 H 999.79 -3.99144 -0.385386 0
M  V30 10440 H 996.38 -4.15827 1.03854 0
M  V30 10441 H 1000.56 -4.57365 1.92695 0
M  V30 10442 H 995.82 -5.21953 3.18395 0
M  V30 10443 H 999.994 -5.64859 4.07318 0
M  V30 10444 H 997.621 -5.96924 4.70729 0
M  V30 10445 N 999.196 -0.349774 -1.5367 0
M  V30 10446 C 1000.42 0.246038 -2.05432 0
M  V30 10447 C 1000.84 1.43719 -1.22435 0
M  V30 10448 O 1000.2 1.80622 -0.261166 0
M  V30 10449 C 1000.25 0.65501 -3.55516 0
M  V30 10450 O 999.968 -0.488782 -4.35365 0
M  V30 10451 C 1001.47 1.31088 -4.23475 0
M  V30 10452 H 998.689 0.0463952 -0.669394 0
M  V30 10453 H 1001.23 -0.503566 -1.98203 0
M  V30 10454 H 999.388 1.35455 -3.62947 0
M  V30 10455 H 999.802 -0.161528 -5.24251 0
M  V30 10456 H 1001.28 1.54774 -5.29857 0
M  V30 10457 H 1001.75 2.26636 -3.76208 0
M  V30 10458 H 1002.36 0.653211 -4.20254 0
M  V30 10459 N 1000.67 1.57404 -0.0785433 0
M  V30 10460 C 1001.64 2.11977 0.871693 0
M  V30 10461 C 1002.64 1.04529 1.2219 0
M  V30 10462 O 1003.83 1.30488 1.15406 0
M  V30 10463 C 1000.96 2.6267 2.17296 0
M  V30 10464 H 1002.15 2.97246 0.398115 0
M  V30 10465 H 999.705 1.5537 0.170251 0
M  V30 10466 H 1000.44 1.80873 2.69175 0
M  V30 10467 H 1000.22 3.41214 1.93171 0
M  V30 10468 H 1001.71 3.04943 2.85306 0
M  V30 10469 O 1002.19 -0.0619135 1.61381 0
M  V30 10470 H 1002.88 -0.686606 1.81123 0
M  V30 END ATOM
M  V30 BEGIN BOND
M  V30 END BOND
M  V30 END CTAB
M  END
$$$$
