drugbank_target|P07737 Profilin-1 (DB07908; DB11638)
 OpenBabel12092120473D

  0  0  0     0  0            999 V3000
M  V30 BEGIN CTAB
M  V30 COUNTS 2111 2129 0 0 0
M  V30 BEGIN ATOM
M  V30 1 H -0.908 1.98254 -0.117106 0
M  V30 2 N 0 1.576 0 0
M  V30 3 C 0.933 2.03868 1.02534 0
M  V30 4 C 1.911 0.928543 1.3348 0
M  V30 5 O 3.095 1.19667 1.45644 0
M  V30 6 C 0.222 2.43627 2.35294 0
M  V30 7 C -0.732 3.65373 2.2001 0
M  V30 8 S 0.101 5.13292 1.52614 0
M  V30 9 C 1.257 5.56322 2.86805 0
M  V30 10 H 1.49 2.90518 0.631377 0
M  V30 11 H -0.977 1.52953 0.210867 0
M  V30 12 H 0.981 2.67203 3.11629 0
M  V30 13 H -0.358 1.57376 2.7183 0
M  V30 14 H -1.165 3.90944 3.18086 0
M  V30 15 H -1.563 3.418 1.51819 0
M  V30 16 H 0.729 5.58782 3.83104 0
M  V30 17 H 1.672 6.56266 2.65933 0
M  V30 18 H 2.08 4.83886 2.90714 0
M  V30 19 N 1.4781 -0.272755 1.55222 0
M  V30 20 C 2.4411 -1.32041 1.87344 0
M  V30 21 C 3.4411 -1.42342 0.74803 0
M  V30 22 O 4.6311 -1.41488 1.0162 0
M  V30 23 C 1.7631 -2.70173 2.07893 0
M  V30 24 H 2.9561 -1.04789 2.80997 0
M  V30 25 H 0.5091 -0.51083 1.47717 0
M  V30 26 H 1.2441 -3.02605 1.16622 0
M  V30 27 H 1.0291 -2.64082 2.89833 0
M  V30 28 H 2.5191 -3.45869 2.34017 0
M  V30 29 N 2.9562 -1.48159 -0.537278 0
M  V30 30 C 4.2042 -1.55497 -1.29094 0
M  V30 31 C 4.5252 -0.227454 -1.93669 0
M  V30 32 O 3.7952 0.750386 -1.80959 0
M  V30 33 H 2.3752 -0.572832 -0.47945 0
M  V30 34 H 5.0372 -1.84579 -0.625818 0
M  V30 35 H 4.1332 -2.33216 -2.07405 0
M  V30 36 N 4.4343 0.785586 -1.36625 0
M  V30 37 C 5.6803 1.5452 -1.32269 0
M  V30 38 C 6.0353 1.92159 0.0962266 0
M  V30 39 O 5.3283 1.60158 1.05167 0
M  V30 40 C 5.5223 2.83007 -2.1827 0
M  V30 41 C 5.3513 2.57925 -3.68382 0
M  V30 42 C 4.1213 2.52752 -4.37544 0
M  V30 43 C 6.3193 2.26861 -4.61561 0
M  V30 44 N 4.3013 2.19608 -5.73276 0
M  V30 45 C 5.6723 2.03738 -5.85569 0
M  V30 46 C 7.7273 2.129 -4.50087 0
M  V30 47 C 6.4303 1.68065 -6.9939 0
M  V30 48 C 8.4563 1.78626 -5.63779 0
M  V30 49 C 7.8183 1.56353 -6.86828 0
M  V30 50 H 3.9173 0.566301 -0.539283 0
M  V30 51 H 6.5013 0.917736 -1.71714 0
M  V30 52 H 4.6723 3.43614 -1.81063 0
M  V30 53 H 6.4043 3.48775 -2.05275 0
M  V30 54 H 3.1593 2.6813 -3.90389 0
M  V30 55 H 3.5833 2.05771 -6.44971 0
M  V30 56 H 8.2253 2.28808 -3.55537 0
M  V30 57 H 5.9433 1.50895 -7.93887 0
M  V30 58 H 9.5293 1.68502 -5.56865 0
M  V30 59 H 8.4093 1.30223 -7.73312 0
M  V30 60 N 5.9124 1.20967 1.01018 0
M  V30 61 C 6.8604 0.961223 2.1181 0
M  V30 62 C 7.8544 -0.0897034 1.69162 0
M  V30 63 O 9.0604 0.0612271 1.79896 0
M  V30 64 H 5.4354 0.29355 0.692338 0
M  V30 65 H 7.4064 1.90178 2.29946 0
M  V30 66 C 6.1554 0.536854 3.4353 0
M  V30 67 H 5.4784 1.33713 3.76777 0
M  V30 68 H 6.9184 0.402286 4.22087 0
M  V30 69 C 5.3774 -0.751574 3.2841 0
M  V30 70 O 5.9074 -1.80841 3.58691 0
M  V30 71 N 4.1134 -0.716079 2.81639 0
M  V30 72 H 3.6604 0.144236 2.57196 0
M  V30 73 H 3.6184 -1.57847 2.71904 0
M  V30 74 N 7.3905 -1.2043 1.01659 0
M  V30 75 C 8.3535 -2.21433 0.591616 0
M  V30 76 C 9.3535 -1.57203 -0.338226 0
M  V30 77 O 10.5435 -1.73737 -0.126918 0
M  V30 78 C 7.6755 -3.40628 -0.136058 0
M  V30 79 H 8.8685 -2.60545 1.48514 0
M  V30 80 H 6.4215 -1.33893 0.806379 0
M  V30 81 H 7.1565 -3.07019 -1.04449 0
M  V30 82 H 6.9415 -3.88475 0.531917 0
M  V30 83 H 8.4315 -4.15475 -0.420735 0
M  V30 84 N 8.8686 -0.792821 -1.36206 0
M  V30 85 C 10.0986 -0.378275 -2.03107 0
M  V30 86 C 10.5066 1.01119 -1.59911 0
M  V30 87 O 9.8496 1.66052 -0.785658 0
M  V30 88 C 9.9116 -0.366535 -3.57627 0
M  V30 89 C 9.5756 -1.70416 -4.24037 0
M  V30 90 C 10.5726 -2.6602 -4.46687 0
M  V30 91 C 8.2576 -1.98439 -4.6144 0
M  V30 92 C 10.2516 -3.8784 -5.05825 0
M  V30 93 C 7.9386 -3.20525 -5.20295 0
M  V30 94 C 8.9366 -4.15044 -5.42427 0
M  V30 95 O 8.6246 -5.34978 -6.00045 0
M  V30 96 H 8.3566 -0.153543 -0.658332 0
M  V30 97 H 10.9106 -1.07383 -1.75094 0
M  V30 98 H 9.1406 0.385539 -3.84773 0
M  V30 99 H 10.8296 0.0238088 -4.05893 0
M  V30 100 H 11.5956 -2.45658 -4.18183 0
M  V30 101 H 7.4746 -1.25686 -4.43536 0
M  V30 102 H 11.0186 -4.61628 -5.23015 0
M  V30 103 H 6.9156 -3.40764 -5.48225 0
M  V30 104 H 7.6836 -5.36088 -6.18508 0
M  V30 105 N 10.3467 1.47872 -0.545128 0
M  V30 106 C 11.5957 2.01695 -0.0145033 0
M  V30 107 C 11.9087 1.42609 1.33873 0
M  V30 108 O 13.1147 1.88021 1.95858 0
M  V30 109 C 11.5707 3.59892 0.0245068 0
M  V30 110 C 11.1787 4.27966 -1.32475 0
M  V30 111 C 12.9227 4.21507 0.50316 0
M  V30 112 C 10.8297 5.78136 -1.2455 0
M  V30 113 H 9.7597 0.753998 -0.00165172 0
M  V30 114 H 12.4107 1.69985 -0.691175 0
M  V30 115 H 10.7927 3.88509 0.766575 0
M  V30 116 H 11.9667 4.11003 -2.08357 0
M  V30 117 H 10.2817 3.78286 -1.74036 0
M  V30 118 H 12.8787 5.31538 0.580656 0
M  V30 119 H 13.2217 3.87855 1.51243 0
M  V30 120 H 13.7547 3.97376 -0.183681 0
M  V30 121 H 10.4937 6.16388 -2.23039 0
M  V30 122 H 10.0137 5.97469 -0.528282 0
M  V30 123 H 11.6927 6.40099 -0.942488 0
M  V30 124 N 11.8248 0.280983 1.55075 0
M  V30 125 C 13.1018 -0.386207 1.91749 0
M  V30 126 C 13.4818 -1.73264 1.20594 0
M  V30 127 O 12.8298 -2.26034 0.334784 0
M  V30 128 C 13.0398 -0.520687 3.45094 0
M  V30 129 C 14.3878 -0.800865 4.16979 0
M  V30 130 O 15.4118 -0.605271 3.5102 0
M  V30 131 O 14.2708 -1.1753 5.33712 0
M  V30 132 H 11.3648 -0.212408 0.799257 0
M  V30 133 H 13.9108 0.327568 1.66509 0
M  V30 134 H 12.6828 0.426633 3.88967 0
M  V30 135 H 12.3058 -1.2837 3.76307 0
M  V30 136 N 13.3029 -1.57598 0.00835791 0
M  V30 137 C 14.2509 -2.10078 -0.998508 0
M  V30 138 C 15.2449 -1.02262 -1.35051 0
M  V30 139 O 16.4509 -1.20719 -1.33518 0
M  V30 140 H 12.8259 -0.670903 -0.339696 0
M  V30 141 H 14.7969 -2.93648 -0.530398 0
M  V30 142 C 13.5459 -2.62615 -2.27879 0
M  V30 143 H 12.8689 -3.45213 -2.01662 0
M  V30 144 H 14.3089 -3.03004 -2.96588 0
M  V30 145 C 12.7679 -1.54407 -2.99433 0
M  V30 146 O 13.2979 -0.931812 -3.90743 0
M  V30 147 N 11.5039 -1.2695 -2.61404 0
M  V30 148 H 11.0509 -1.76924 -1.87232 0
M  V30 149 H 11.0089 -0.547704 -3.09593 0
M  V30 150 N 14.781 0.264519 -1.55364 0
M  V30 151 C 15.711 1.33121 -1.91836 0
M  V30 152 C 16.692 1.51101 -0.781192 0
M  V30 153 O 17.877 1.64003 -1.04003 0
M  V30 154 C 15.007 2.68921 -2.19769 0
M  V30 155 C 13.961 2.65661 -3.35571 0
M  V30 156 C 13.287 4.05093 -3.49004 0
M  V30 157 C 14.587 2.24187 -4.71739 0
M  V30 158 H 16.281 1.02844 -2.81182 0
M  V30 159 H 13.827 0.493286 -1.35287 0
M  V30 160 H 15.78 3.43663 -2.43872 0
M  V30 161 H 14.504 3.00799 -1.27231 0
M  V30 162 H 13.163 1.93377 -3.1145 0
M  V30 163 H 12.811 4.34206 -2.53917 0
M  V30 164 H 12.511 4.03804 -4.26868 0
M  V30 165 H 14.035 4.81561 -3.75408 0
M  V30 166 H 15.449 2.88654 -4.9533 0
M  V30 167 H 13.846 2.34044 -5.52579 0
M  V30 168 H 14.916 1.19327 -4.69988 0
M  V30 169 N 16.2591 1.48442 0.529413 0
M  V30 170 C 17.1921 1.57577 1.65059 0
M  V30 171 C 18.1701 0.426198 1.56915 0
M  V30 172 O 19.3541 0.637877 1.77379 0
M  V30 173 C 16.4811 1.5043 3.03461 0
M  V30 174 C 15.5271 2.70235 3.29962 0
M  V30 175 S 16.3601 4.32198 3.16172 0
M  V30 176 C 17.5161 4.2765 4.57019 0
M  V30 177 H 17.7491 2.52427 1.5706 0
M  V30 178 H 15.2821 1.36982 0.712417 0
M  V30 179 H 17.2401 1.46992 3.8328 0
M  V30 180 H 15.9011 0.569167 3.089 0
M  V30 181 H 15.0941 2.61374 4.30929 0
M  V30 182 H 14.6961 2.70938 2.57815 0
M  V30 183 H 16.9881 3.97618 5.48549 0
M  V30 184 H 17.9311 5.28797 4.70934 0
M  V30 185 H 18.3391 3.5811 4.36368 0
M  V30 186 N 17.7372 -0.778329 1.37039 0
M  V30 187 C 18.7002 -1.87301 1.32102 0
M  V30 188 C 19.7002 -1.59198 0.226405 0
M  V30 189 O 20.8902 -1.67403 0.481861 0
M  V30 190 C 18.0222 -3.24309 1.05055 0
M  V30 191 H 19.2152 -1.93093 2.29467 0
M  V30 192 H 16.7682 -0.977358 1.21973 0
M  V30 193 H 17.5032 -3.24196 0.0819373 0
M  V30 194 H 17.2882 -3.46098 1.84279 0
M  V30 195 H 18.7782 -4.04382 1.04234 0
M  V30 196 N 19.2153 -1.21501 -1.00376 0
M  V30 197 C 20.4923 -0.941745 -1.71437 0
M  V30 198 C 20.8723 0.546114 -2.03914 0
M  V30 199 O 20.2203 1.51128 -1.71384 0
M  V30 200 C 20.4303 -1.82812 -2.97289 0
M  V30 201 C 21.7783 -2.07771 -3.70292 0
M  V30 202 O 22.8023 -1.80171 -3.07273 0
M  V30 203 O 21.6613 -2.54456 -4.83647 0
M  V30 204 H 18.7553 -0.353243 -0.747762 0
M  V30 205 H 21.3013 -1.32436 -1.06108 0
M  V30 206 H 20.0733 -2.83501 -2.69709 0
M  V30 207 H 19.6963 -1.4464 -3.70358 0
M  V30 208 N 20.6934 1.19889 -1.02296 0
M  V30 209 C 21.9414 1.89046 -0.714558 0
M  V30 210 C 22.2624 1.79636 0.758681 0
M  V30 211 O 21.5324 1.20292 1.54618 0
M  V30 212 H 20.1124 0.699802 -0.261317 0
M  V30 213 H 22.7744 1.45574 -1.29592 0
M  V30 214 H 21.8704 2.95524 -1.0036 0
M  V30 215 N 22.1715 0.800033 1.35784 0
M  V30 216 C 23.3995 0.389606 2.03199 0
M  V30 217 C 23.8145 -0.997375 1.60306 0
M  V30 218 O 23.1715 -1.64154 0.797481 0
M  V30 219 C 23.2225 0.455855 3.58614 0
M  V30 220 O 22.9435 1.78815 3.99946 0
M  V30 221 C 24.4445 0.0374032 4.43284 0
M  V30 222 H 21.6645 0.159132 0.651857 0
M  V30 223 H 24.2085 1.08183 1.73541 0
M  V30 224 H 22.3635 -0.188057 3.86943 0
M  V30 225 H 22.7775 1.74636 4.94573 0
M  V30 226 H 24.2515 0.134882 5.51835 0
M  V30 227 H 24.7285 -1.01651 4.27275 0
M  V30 228 H 25.3345 0.654215 4.20238 0
M  V30 229 N 23.6496 -1.47581 0.552962 0
M  V30 230 C 24.8896 -2.04379 0.0296245 0
M  V30 231 C 25.2536 -1.4185 -1.29393 0
M  V30 232 O 26.4546 -1.89669 -1.90471 0
M  V30 233 C 24.7256 -3.57339 -0.0661371 0
M  V30 234 S 26.2846 -4.35511 -0.536213 0
M  V30 235 H 23.1026 -0.710625 0.0230991 0
M  V30 236 H 25.7046 -1.81005 0.738734 0
M  V30 237 H 24.4086 -4.00374 0.901596 0
M  V30 238 H 23.9396 -3.85202 -0.798931 0
M  V30 239 H 25.9546 -4.6253 -1.79668 0
M  V30 240 N 25.1277 -0.289203 -1.54924 0
M  V30 241 C 26.0597 0.625583 -2.20497 0
M  V30 242 C 27.0727 1.10667 -1.19402 0
M  V30 243 O 28.2617 1.02615 -1.46056 0
M  V30 244 C 25.3617 1.86702 -2.82835 0
M  V30 245 C 24.5347 1.5304 -4.09753 0
M  V30 246 C 23.5937 2.62576 -4.56005 0
M  V30 247 O 22.6197 2.28167 -5.21468 0
M  V30 248 N 23.8217 3.92901 -4.27328 0
M  V30 249 H 26.5867 0.0642801 -2.99631 0
M  V30 250 H 24.1477 -0.110896 -1.6152 0
M  V30 251 H 26.1397 2.59304 -3.10715 0
M  V30 252 H 24.7097 2.33702 -2.07611 0
M  V30 253 H 23.9297 0.637564 -3.8901 0
M  V30 254 H 25.2177 1.28072 -4.92418 0
M  V30 255 H 24.6157 4.23671 -3.74859 0
M  V30 256 H 23.1727 4.61837 -4.59946 0
M  V30 257 N 26.6058 1.57591 -0.0167156 0
M  V30 258 C 27.8828 1.82547 0.702564 0
M  V30 259 C 28.2628 0.898018 1.91047 0
M  V30 260 O 27.6108 -0.0493456 2.28447 0
M  V30 261 C 27.8208 3.31459 1.09251 0
M  V30 262 C 29.1688 3.97622 1.48937 0
M  V30 263 O 30.1928 3.35881 1.18584 0
M  V30 264 O 29.0518 5.06415 2.05442 0
M  V30 265 H 26.1458 0.752268 0.343544 0
M  V30 266 H 28.6918 1.69644 -0.0434495 0
M  V30 267 H 27.4638 3.9061 0.23227 0
M  V30 268 H 27.0868 3.49422 1.89709 0
M  V30 269 N 28.0839 -0.256276 1.55502 0
M  V30 270 C 29.0469 -1.30047 1.88734 0
M  V30 271 C 30.0469 -1.4154 0.763086 0
M  V30 272 O 31.2369 -1.40403 1.03115 0
M  V30 273 C 28.3689 -2.67953 2.10747 0
M  V30 274 H 29.5619 -1.01802 2.82093 0
M  V30 275 H 27.1149 -0.495134 1.4825 0
M  V30 276 H 27.8499 -3.01351 1.19825 0
M  V30 277 H 27.6349 -2.60993 2.92617 0
M  V30 278 H 29.1249 -3.43368 2.37673 0
M  V30 279 N 29.562 -1.4872 -0.521534 0
M  V30 280 C 30.525 -1.63379 -1.60748 0
M  V30 281 C 31.525 -0.50661 -1.52611 0
M  V30 282 O 32.715 -0.772601 -1.5613 0
M  V30 283 C 29.847 -1.61192 -3.00383 0
M  V30 284 H 31.04 -2.60217 -1.49087 0
M  V30 285 H 28.593 -1.37444 -0.744235 0
M  V30 286 H 29.328 -0.65863 -3.17541 0
M  V30 287 H 29.113 -2.43032 -3.07698 0
M  V30 288 H 30.603 -1.7466 -3.7932 0
M  V30 289 N 31.0401 0.771051 -1.3745 0
M  V30 290 C 32.2891 1.52491 -1.3202 0
M  V30 291 C 32.6021 1.9538 0.0927347 0
M  V30 292 O 33.8081 2.70159 0.269503 0
M  V30 293 C 32.2641 2.75366 -2.31736 0
M  V30 294 C 31.8721 2.39573 -3.78562 0
M  V30 295 C 33.6161 3.53307 -2.35318 0
M  V30 296 C 31.5231 3.58954 -4.70007 0
M  V30 297 H 30.4531 0.572506 -0.490666 0
M  V30 298 H 33.1041 0.844474 -1.62914 0
M  V30 299 H 31.4861 3.45303 -1.93861 0
M  V30 300 H 32.6601 1.77415 -4.25277 0
M  V30 301 H 30.9751 1.74805 -3.77932 0
M  V30 302 H 33.5721 4.42039 -3.00842 0
M  V30 303 H 33.9151 3.93217 -1.36698 0
M  V30 304 H 34.4481 2.90367 -2.71904 0
M  V30 305 H 31.1871 3.24125 -5.69757 0
M  V30 306 H 30.7071 4.20214 -4.27996 0
M  V30 307 H 32.3861 4.25758 -4.87175 0
M  V30 308 N 32.5182 1.22032 0.997298 0
M  V30 309 C 33.7642 1.04376 1.73878 0
M  V30 310 C 34.0972 -0.420716 1.89588 0
M  V30 311 O 33.3722 -1.31202 1.43583 0
M  V30 312 C 33.6552 1.75047 3.14691 0
M  V30 313 C 33.5082 3.29062 3.06656 0
M  V30 314 C 34.8272 1.49928 4.13775 0
M  V30 315 H 31.9462 0.380578 0.631133 0
M  V30 316 H 34.5882 1.50312 1.16217 0
M  V30 317 H 32.7382 1.35996 3.63919 0
M  V30 318 H 34.4102 3.7753 2.65083 0
M  V30 319 H 32.6532 3.58967 2.43568 0
M  V30 320 H 33.3242 3.73683 4.06282 0
M  V30 321 H 35.8002 1.83842 3.73285 0
M  V30 322 H 34.6762 2.01878 5.10428 0
M  V30 323 H 34.9372 0.430929 4.39995 0
M  V30 324 N 33.9963 -1.19345 1.0293 0
M  V30 325 C 35.2443 -1.88665 0.724574 0
M  V30 326 C 35.5653 -1.80036 -0.749144 0
M  V30 327 O 34.8353 -1.2111 -1.53978 0
M  V30 328 H 33.4153 -0.698406 0.265025 0
M  V30 329 H 36.0773 -1.44885 1.30362 0
M  V30 330 H 35.1733 -2.94987 1.01926 0
M  V30 331 N 35.4744 -0.807222 -1.35358 0
M  V30 332 C 36.7044 -0.399796 -2.02695 0
M  V30 333 C 37.1124 0.994176 -1.60974 0
M  V30 334 O 36.4554 1.65209 -0.803226 0
M  V30 335 C 36.5174 -0.404445 -3.57218 0
M  V30 336 C 36.1814 -1.74904 -4.22206 0
M  V30 337 C 37.1784 -2.70743 -4.4384 0
M  V30 338 C 34.8634 -2.03322 -4.5931 0
M  V30 339 C 36.8574 -3.93183 -5.01683 0
M  V30 340 C 34.5444 -3.26026 -5.16866 0
M  V30 341 C 35.5424 -4.20774 -5.37994 0
M  V30 342 O 35.2304 -5.41312 -5.94337 0
M  V30 343 H 34.9624 -0.160517 -0.656666 0
M  V30 344 H 37.5164 -1.09235 -1.73945 0
M  V30 345 H 35.7464 0.344707 -3.85161 0
M  V30 346 H 37.4354 -0.0192429 -4.05895 0
M  V30 347 H 38.2014 -2.5008 -4.15554 0
M  V30 348 H 34.0804 -1.30384 -4.42178 0
M  V30 349 H 37.6244 -4.6715 -5.1809 0
M  V30 350 H 33.5214 -3.46559 -5.44579 0
M  V30 351 H 34.2894 -5.42618 -6.12787 0
M  V30 352 N 36.9525 1.47285 -0.560781 0
M  V30 353 C 37.8995 2.30058 0.18491 0
M  V30 354 C 38.8695 1.39281 0.904986 0
M  V30 355 O 40.0545 1.68241 0.899979 0
M  V30 356 C 37.1945 3.23317 1.20666 0
M  V30 357 C 36.3075 4.29186 0.492285 0
M  V30 358 C 35.4425 5.09592 1.49964 0
M  V30 359 C 34.4815 6.07232 0.770439 0
M  V30 360 N 33.6185 6.80584 1.72479 0
M  V30 361 H 38.4585 2.93302 -0.527048 0
M  V30 362 H 35.9955 1.44568 -0.271738 0
M  V30 363 H 37.9535 3.75811 1.81168 0
M  V30 364 H 36.5835 2.61929 1.88661 0
M  V30 365 H 35.6355 3.7972 -0.227333 0
M  V30 366 H 36.9475 4.98738 -0.0787929 0
M  V30 367 H 36.1015 5.66254 2.17809 0
M  V30 368 H 34.8405 4.3995 2.10464 0
M  V30 369 H 33.8455 5.49745 0.0780846 0
M  V30 370 H 35.0705 6.78884 0.171134 0
M  V30 371 H 33.0165 6.1367 2.3183 0
M  V30 372 H 32.9335 7.46319 1.20596 0
M  V30 373 H 34.2015 7.41818 2.39428 0
M  V30 374 N 38.4306 0.297415 1.54768 0
M  V30 375 C 39.7076 -0.365847 1.92148 0
M  V30 376 C 40.0876 -1.71975 1.22424 0
M  V30 377 O 39.4356 -2.25666 0.358739 0
M  V30 378 C 39.6456 -0.484056 3.45627 0
M  V30 379 C 40.9936 -0.756594 4.17805 0
M  V30 380 O 42.0176 -0.568007 3.51642 0
M  V30 381 O 40.8766 -1.11863 5.34929 0
M  V30 382 H 37.9706 -0.203919 0.801465 0
M  V30 383 H 40.5166 0.34521 1.66152 0
M  V30 384 H 39.2886 0.467865 3.88493 0
M  V30 385 H 38.9116 -1.24372 3.77647 0
M  V30 386 N 39.9087 -1.5758 0.0250728 0
M  V30 387 C 41.1337 -1.96337 -0.668317 0
M  V30 388 C 41.5587 -0.901314 -1.651 0
M  V30 389 O 40.9167 0.138187 -1.80773 0
M  V30 390 C 40.9647 -3.34191 -1.35457 0
M  V30 391 O 40.0687 -3.30269 -2.46974 0
M  V30 392 H 39.4097 -0.640281 -0.175887 0
M  V30 393 H 41.9397 -2.0442 0.0857224 0
M  V30 394 H 41.9497 -3.70331 -1.71228 0
M  V30 395 H 40.6247 -4.11036 -0.634218 0
M  V30 396 H 39.2017 -3.05841 -2.13344 0
M  V30 397 N 41.3868 0.248026 -1.55636 0
M  V30 398 C 42.7978 0.817177 -1.67866 0
M  V30 399 C 43.1488 1.86069 -0.622322 0
M  V30 400 O 42.2738 2.15157 0.231618 0
M  V30 401 C 42.8688 1.489 -3.04326 0
M  V30 402 C 41.4278 2.00587 -3.185 0
M  V30 403 C 40.5748 0.856573 -2.63739 0
M  V30 404 H 43.5258 0.0238579 -1.58682 0
M  V30 405 H 43.5468 2.35698 -2.98708 0
M  V30 406 H 43.0588 0.729279 -3.81186 0
M  V30 407 H 41.1598 2.79443 -2.4646 0
M  V30 408 H 41.2728 2.20402 -4.25393 0
M  V30 409 H 39.6368 1.25678 -2.21534 0
M  V30 410 H 40.4198 0.109953 -3.43124 0
M  V30 411 N 42.8649 1.48995 0.513639 0
M  V30 412 C 44.0899 1.61792 1.29762 0
M  V30 413 C 44.5149 0.284475 1.85936 0
M  V30 414 O 43.8729 -0.746185 1.65232 0
M  V30 415 C 43.9209 2.67993 2.41272 0
M  V30 416 O 43.0249 2.26287 3.44772 0
M  V30 417 H 42.3659 0.541963 0.38363 0
M  V30 418 H 44.8959 1.95097 0.616307 0
M  V30 419 H 44.9059 2.89772 2.87221 0
M  V30 420 H 43.5809 3.64791 1.9975 0
M  V30 421 H 42.1579 2.14788 3.04829 0
M  V30 422 N 44.343 -0.763751 1.37857 0
M  V30 423 C 45.589 -1.52483 1.33704 0
M  V30 424 C 45.922 -1.94051 -0.0759612 0
M  V30 425 O 45.197 -1.64675 -1.03501 0
M  V30 426 C 45.48 -2.78441 2.28348 0
M  V30 427 C 45.333 -2.43075 3.78463 0
M  V30 428 C 46.652 -3.80415 2.21298 0
M  V30 429 H 43.771 -0.553169 0.487005 0
M  V30 430 H 46.413 -0.875562 1.68624 0
M  V30 431 H 44.563 -3.33842 1.987 0
M  V30 432 H 46.235 -1.93527 4.18742 0
M  V30 433 H 44.478 -1.75666 3.96641 0
M  V30 434 H 45.149 -3.33149 4.40132 0
M  V30 435 H 47.625 -3.34527 2.47449 0
M  V30 436 H 46.501 -4.66257 2.89647 0
M  V30 437 H 46.762 -4.25262 1.20849 0
M  V30 438 N 45.8211 -1.22559 -0.990812 0
M  V30 439 C 47.0671 -1.06303 -1.73411 0
M  V30 440 C 47.4221 0.397442 -1.8825 0
M  V30 441 O 46.7151 1.29062 -1.41611 0
M  V30 442 C 46.9091 -1.71011 -3.13831 0
M  V30 443 C 46.7381 -3.232 -3.12685 0
M  V30 444 C 45.5081 -3.92314 -3.18461 0
M  V30 445 C 47.7061 -4.20107 -2.96673 0
M  V30 446 N 45.6881 -5.31571 -3.07091 0
M  V30 447 C 47.0591 -5.46208 -2.93354 0
M  V30 448 C 49.1141 -4.10973 -2.8108 0
M  V30 449 C 47.8171 -6.64225 -2.76039 0
M  V30 450 C 49.8431 -5.28642 -2.65126 0
M  V30 451 C 49.2051 -6.53663 -2.62496 0
M  V30 452 H 45.3041 -0.443441 -0.644115 0
M  V30 453 H 47.8881 -1.55131 -1.17654 0
M  V30 454 H 46.0591 -1.2473 -3.67827 0
M  V30 455 H 47.7911 -1.47828 -3.76735 0
M  V30 456 H 44.5461 -3.43326 -3.26227 0
M  V30 457 H 44.9701 -6.0455 -3.0471 0
M  V30 458 H 49.6121 -3.15098 -2.8191 0
M  V30 459 H 47.3301 -7.60246 -2.73954 0
M  V30 460 H 50.9161 -5.23407 -2.54039 0
M  V30 461 H 49.7961 -7.43182 -2.50302 0
M  V30 462 N 47.2992 1.18797 -1.03562 0
M  V30 463 C 48.2622 2.20464 -0.626769 0
M  V30 464 C 49.2622 1.57721 0.313173 0
M  V30 465 O 50.4522 1.73917 0.0992615 0
M  V30 466 C 47.5842 3.40802 0.0818498 0
M  V30 467 H 48.7772 2.58149 -1.5264 0
M  V30 468 H 46.3302 1.32593 -0.827578 0
M  V30 469 H 47.0652 3.08642 0.995518 0
M  V30 470 H 46.8502 3.8758 -0.593652 0
M  V30 471 H 48.3402 4.16092 0.354584 0
M  V30 472 N 48.7773 0.814389 1.34928 0
M  V30 473 C 49.7403 0.235759 2.27984 0
M  V30 474 C 50.7403 -0.581412 1.49921 0
M  V30 475 O 51.9303 -0.398758 1.69575 0
M  V30 476 C 49.0623 -0.670433 3.34242 0
M  V30 477 H 50.2553 1.05659 2.80671 0
M  V30 478 H 47.8083 0.585614 1.44915 0
M  V30 479 H 48.5433 -1.51466 2.86755 0
M  V30 480 H 48.3283 -0.0860822 3.92005 0
M  V30 481 H 49.8183 -1.06935 4.03676 0
M  V30 482 N 50.2554 -1.46986 0.568584 0
M  V30 483 C 51.5014 -2.02741 0.0488709 0
M  V30 484 C 51.8344 -1.44077 -1.30214 0
M  V30 485 O 51.1094 -0.600552 -1.84996 0
M  V30 486 C 51.3924 -3.60086 -0.032047 0
M  V30 487 C 51.2454 -4.29162 1.34686 0
M  V30 488 C 52.5644 -4.33838 -0.739798 0
M  V30 489 H 49.6834 -0.736749 0.0192338 0
M  V30 490 H 52.3254 -1.75289 0.733065 0
M  V30 491 H 50.4754 -3.83606 -0.61473 0
M  V30 492 H 52.1474 -4.16948 1.97362 0
M  V30 493 H 50.3904 -3.89073 1.91846 0
M  V30 494 H 51.0614 -5.37826 1.24285 0
M  V30 495 H 53.5374 -4.15378 -0.244939 0
M  V30 496 H 52.4134 -5.43537 -0.765406 0
M  V30 497 H 52.6744 -4.03875 -1.79827 0
M  V30 498 N 51.7335 -0.305618 -1.54608 0
M  V30 499 C 53.1445 0.186098 -1.8577 0
M  V30 500 C 53.4955 1.53058 -1.22751 0
M  V30 501 O 52.6205 2.09888 -0.526893 0
M  V30 502 C 53.2155 0.344449 -3.37044 0
M  V30 503 C 51.7745 0.780384 -3.68221 0
M  V30 504 C 50.9215 -0.108554 -2.77087 0
M  V30 505 H 53.8725 -0.526485 -1.49712 0
M  V30 506 H 53.8935 1.17828 -3.61796 0
M  V30 507 H 53.4055 -0.634235 -3.82883 0
M  V30 508 H 51.5065 1.76945 -3.27904 0
M  V30 509 H 51.6195 0.596572 -4.75371 0
M  V30 510 H 49.9835 0.412931 -2.5133 0
M  V30 511 H 50.7665 -1.08368 -3.25747 0
M  V30 512 N 53.2116 1.57565 -0.0334293 0
M  V30 513 C 54.4596 1.91598 0.642999 0
M  V30 514 C 54.7806 0.910847 1.7242 0
M  V30 515 O 54.0506 -0.0469931 1.95844 0
M  V30 516 H 52.6306 0.707228 0.240496 0
M  V30 517 H 55.2926 1.94726 -0.0822488 0
M  V30 518 H 54.3886 2.92336 1.09298 0
M  V30 519 N 54.6897 -0.239769 1.55765 0
M  V30 520 C 55.6367 -1.29696 1.90913 0
M  V30 521 C 56.6067 -1.47478 0.764164 0
M  V30 522 O 57.7917 -1.61345 1.01845 0
M  V30 523 C 54.9317 -2.64598 2.21544 0
M  V30 524 C 54.0447 -2.54765 3.48882 0
M  V30 525 C 53.1797 -3.82069 3.69049 0
M  V30 526 C 52.2187 -3.66883 4.89963 0
M  V30 527 N 51.3557 -4.86094 5.06614 0
M  V30 528 H 56.1957 -0.990224 2.81067 0
M  V30 529 H 53.7327 -0.477684 1.39128 0
M  V30 530 H 55.6907 -3.43132 2.3731 0
M  V30 531 H 54.3207 -2.93405 1.34585 0
M  V30 532 H 53.3727 -1.67763 3.41409 0
M  V30 533 H 54.6847 -2.39457 4.37563 0
M  V30 534 H 53.8387 -4.69046 3.84812 0
M  V30 535 H 52.5777 -4.00282 2.78614 0
M  V30 536 H 51.5827 -2.78289 4.74168 0
M  V30 537 H 52.8077 -3.50157 5.81865 0
M  V30 538 H 50.7537 -5.04655 4.19117 0
M  V30 539 H 50.6707 -4.73443 5.89396 0
M  V30 540 H 51.9387 -5.74549 5.26795 0
M  V30 541 N 56.1678 -1.49265 -0.50573 0
M  V30 542 C 57.3958 -1.62215 -1.28429 0
M  V30 543 C 57.8108 -0.291697 -1.86533 0
M  V30 544 O 57.1678 0.722233 -1.67601 0
M  V30 545 C 57.2188 -2.68735 -2.41793 0
M  V30 546 O 56.9398 -3.96619 -1.86078 0
M  V30 547 C 58.4408 -2.92346 -3.3324 0
M  V30 548 H 55.6608 -0.546239 -0.389697 0
M  V30 549 H 58.2048 -1.95265 -0.607609 0
M  V30 550 H 56.3598 -2.38476 -3.053 0
M  V30 551 H 56.7738 -4.55256 -2.60465 0
M  V30 552 H 58.2478 -3.70623 -4.09075 0
M  V30 553 H 58.7248 -2.02081 -3.89948 0
M  V30 554 H 59.3308 -3.24003 -2.75503 0
M  V30 555 N 57.6459 0.756429 -1.3826 0
M  V30 556 C 58.8929 1.51547 -1.34312 0
M  V30 557 C 59.2209 1.94382 0.0677144 0
M  V30 558 O 58.4759 1.65514 1.04421 0
M  V30 559 C 58.7749 2.78313 -2.24224 0
M  V30 560 C 58.4409 2.54455 -3.72241 0
M  V30 561 C 57.1029 2.47657 -4.12576 0
M  V30 562 C 59.4549 2.3354 -4.65949 0
M  V30 563 C 56.7829 2.17956 -5.44713 0
M  V30 564 C 59.1349 2.05359 -5.9834 0
M  V30 565 C 57.7989 1.97016 -6.37762 0
M  V30 566 H 57.0689 0.55455 -0.491482 0
M  V30 567 H 59.7159 0.870039 -1.70595 0
M  V30 568 H 58.0209 3.47492 -1.80987 0
M  V30 569 H 59.7179 3.36259 -2.18474 0
M  V30 570 H 56.3079 2.60616 -3.40261 0
M  V30 571 H 60.4919 2.37772 -4.35635 0
M  V30 572 H 55.7479 2.10003 -5.74203 0
M  V30 573 H 59.9219 1.88179 -6.70494 0
M  V30 574 H 57.5489 1.73766 -7.40074 0
M  V30 575 N 59.124 1.23083 0.984299 0
M  V30 576 C 60.37 1.06214 1.72761 0
M  V30 577 C 60.703 -0.400584 1.90024 0
M  V30 578 O 59.978 -1.29672 1.44967 0
M  V30 579 C 60.261 1.78375 3.12817 0
M  V30 580 C 60.114 3.32296 3.03149 0
M  V30 581 C 61.433 1.54309 4.12161 0
M  V30 582 H 58.552 0.387251 0.627061 0
M  V30 583 H 61.194 1.51536 1.14616 0
M  V30 584 H 59.344 1.39848 3.62457 0
M  V30 585 H 61.016 3.8032 2.61064 0
M  V30 586 H 59.259 3.6153 2.39747 0
M  V30 587 H 59.93 3.77972 4.02295 0
M  V30 588 H 62.406 1.87791 3.71314 0
M  V30 589 H 61.282 2.07281 5.08258 0
M  V30 590 H 61.543 0.477572 4.39513 0
M  V30 591 N 60.6021 -1.18246 1.0419 0
M  V30 592 C 61.5501 -2.23968 0.627792 0
M  V30 593 C 62.5441 -1.65828 -0.346019 0
M  V30 594 O 63.7501 -1.78733 -0.213175 0
M  V30 595 H 60.1251 -0.728939 0.184802 0
M  V30 596 H 62.0961 -2.56202 1.52981 0
M  V30 597 C 60.8451 -3.47699 0.00796591 0
M  V30 598 H 60.1681 -3.92734 0.748347 0
M  V30 599 H 61.6081 -4.23294 -0.24455 0
M  V30 600 C 60.0671 -3.13153 -1.24246 0
M  V30 601 O 60.5971 -3.27003 -2.33307 0
M  V30 602 N 58.8031 -2.67467 -1.13622 0
M  V30 603 H 58.3501 -2.56396 -0.248734 0
M  V30 604 H 58.3081 -2.44724 -1.97377 0
M  V30 605 N 62.0802 -0.821533 -1.34494 0
M  V30 606 C 63.3292 -0.405355 -1.97585 0
M  V30 607 C 63.6422 1.03677 -1.65863 0
M  V30 608 O 64.8482 1.55679 -2.22433 0
M  V30 609 C 63.3042 -0.673861 -3.53535 0
M  V30 610 C 62.9122 -2.12951 -3.94152 0
M  V30 611 C 64.6562 -0.32378 -4.23263 0
M  V30 612 C 62.5632 -2.34298 -5.43009 0
M  V30 613 H 61.4932 -0.147836 -0.739365 0
M  V30 614 H 64.1442 -1.00769 -1.53355 0
M  V30 615 H 62.5262 -0.00137554 -3.96 0
M  V30 616 H 63.7002 -2.84104 -3.62797 0
M  V30 617 H 62.0152 -2.44089 -3.37356 0
M  V30 618 H 64.6122 -0.461126 -5.32708 0
M  V30 619 H 64.9552 0.731586 -4.09821 0
M  V30 620 H 65.4882 -0.950786 -3.8627 0
M  V30 621 H 62.2272 -3.38335 -5.61435 0
M  V30 622 H 61.7472 -1.67687 -5.75883 0
M  V30 623 H 63.4262 -2.16588 -6.09671 0
M  V30 624 N 63.5583 1.46682 -0.576371 0
M  V30 625 C 64.7863 2.06798 -0.0649635 0
M  V30 626 C 65.2013 1.42612 1.23723 0
M  V30 627 O 64.5583 0.529203 1.74659 0
M  V30 628 C 64.6093 3.6132 0.114202 0
M  V30 629 O 64.3303 4.23104 -1.13644 0
M  V30 630 C 65.8313 4.38349 0.66069 0
M  V30 631 H 63.0513 0.668778 -0.0545616 0
M  V30 632 H 65.5953 1.88404 -0.795237 0
M  V30 633 H 63.7503 3.79162 0.794673 0
M  V30 634 H 64.1643 5.15894 -0.946253 0
M  V30 635 H 65.6383 5.47081 0.73526 0
M  V30 636 H 66.1153 4.05953 1.67627 0
M  V30 637 H 66.7213 4.25297 0.0152951 0
M  V30 638 N 65.0364 0.313813 1.54444 0
M  V30 639 C 66.4474 -0.176243 1.85866 0
M  V30 640 C 66.7984 -1.52405 1.23561 0
M  V30 641 O 65.9234 -2.09605 0.538016 0
M  V30 642 C 66.5184 -0.32657 3.37222 0
M  V30 643 C 65.0774 -0.760846 3.6863 0
M  V30 644 C 64.2244 0.123247 2.77026 0
M  V30 645 H 67.1754 0.534418 1.49431 0
M  V30 646 H 67.1964 -1.15908 3.62416 0
M  V30 647 H 66.7084 0.654531 3.82541 0
M  V30 648 H 64.8094 -1.75204 3.28838 0
M  V30 649 H 64.9224 -0.571353 4.75681 0
M  V30 650 H 63.2864 -0.399597 2.51546 0
M  V30 651 H 64.0694 1.10094 3.25168 0
M  V30 652 N 66.5145 -1.57545 0.0417849 0
M  V30 653 C 67.4775 -2.09885 -0.92093 0
M  V30 654 C 68.4775 -1.01648 -1.24596 0
M  V30 655 O 69.6675 -1.27759 -1.1842 0
M  V30 656 C 66.7995 -2.57527 -2.23367 0
M  V30 657 H 67.9925 -2.96236 -0.467382 0
M  V30 658 H 65.5455 -1.5493 -0.206467 0
M  V30 659 H 66.2805 -1.74542 -2.73323 0
M  V30 660 H 66.0655 -3.36613 -2.01083 0
M  V30 661 H 67.5555 -2.98201 -2.92346 0
M  V30 662 N 67.9926 0.231505 -1.5589 0
M  V30 663 C 68.9026 1.308 -1.94752 0
M  V30 664 C 69.9186 1.51826 -0.849989 0
M  V30 665 O 71.0946 1.6515 -1.15271 0
M  V30 666 C 68.1596 2.63968 -2.24771 0
M  V30 667 C 67.2206 2.51331 -3.48039 0
M  V30 668 C 66.4536 3.78148 -3.76616 0
M  V30 669 O 66.6766 4.80722 -3.07022 0
M  V30 670 O 65.6106 3.75857 -4.70123 0
M  V30 671 H 69.4366 1.0083 -2.86474 0
M  V30 672 H 67.0216 0.433547 -1.42971 0
M  V30 673 H 68.9036 3.42633 -2.45318 0
M  V30 674 H 67.5786 2.9364 -1.36225 0
M  V30 675 H 66.4856 1.709 -3.32782 0
M  V30 676 H 67.8186 2.26601 -4.36936 0
M  V30 677 N 69.4707 1.49531 0.497807 0
M  V30 678 C 70.7167 1.59415 1.25358 0
M  V30 679 C 71.0497 0.281422 1.9215 0
M  V30 680 O 70.3247 -0.715249 1.80871 0
M  V30 681 C 70.6077 2.75566 2.3181 0
M  V30 682 C 70.4607 4.16642 1.69498 0
M  V30 683 C 71.7797 2.87347 3.33346 0
M  V30 684 H 68.8987 0.580244 0.454408 0
M  V30 685 H 71.5407 1.81827 0.551262 0
M  V30 686 H 69.6907 2.56587 2.91711 0
M  V30 687 H 71.3627 4.47145 1.13399 0
M  V30 688 H 69.6057 4.22141 0.998978 0
M  V30 689 H 70.2767 4.93792 2.46725 0
M  V30 690 H 72.7527 3.04634 2.83438 0
M  V30 691 H 71.6287 3.70289 4.05188 0
M  V30 692 H 71.8897 1.96834 3.95865 0
M  V30 693 N 70.9488 -0.749086 1.3866 0
M  V30 694 C 72.1968 -1.50535 1.34847 0
M  V30 695 C 72.5178 -1.94909 -0.0595016 0
M  V30 696 O 71.7878 -1.67973 -1.00806 0
M  V30 697 H 70.3678 -0.558395 0.49619 0
M  V30 698 H 73.0298 -0.890165 1.73384 0
M  V30 699 H 72.1258 -2.39413 2.00219 0
M  V30 700 N 72.4269 -1.23603 -0.977757 0
M  V30 701 C 73.6729 -1.07129 -1.72195 0
M  V30 702 C 74.0059 0.390501 -1.90233 0
M  V30 703 O 73.2809 1.28902 -1.45653 0
M  V30 704 C 73.5639 -1.80031 -3.11867 0
M  V30 705 C 73.4169 -3.33899 -3.01383 0
M  V30 706 C 74.7359 -1.56492 -4.11337 0
M  V30 707 H 71.8549 -0.390571 -0.624999 0
M  V30 708 H 74.4969 -1.52142 -1.13811 0
M  V30 709 H 72.6469 -1.41768 -3.6171 0
M  V30 710 H 74.3189 -3.81699 -2.59043 0
M  V30 711 H 72.5619 -3.62796 -2.37827 0
M  V30 712 H 73.2329 -3.801 -4.00285 0
M  V30 713 H 75.7089 -1.89757 -3.70313 0
M  V30 714 H 74.5849 -2.09973 -5.07151 0
M  V30 715 H 74.8459 -0.500874 -4.39254 0
M  V30 716 N 73.905 1.17692 -1.04816 0
M  V30 717 C 74.835 2.23777 -0.666791 0
M  V30 718 C 75.816 1.66796 0.33361 0
M  V30 719 O 77.001 1.93039 0.212042 0
M  V30 720 C 74.131 3.47281 -0.0367933 0
M  V30 721 C 73.085 4.17059 -0.961546 0
M  V30 722 C 72.411 5.34342 -0.195626 0
M  V30 723 C 73.711 4.69713 -2.28402 0
M  V30 724 H 75.405 2.55933 -1.55367 0
M  V30 725 H 72.951 1.23019 -0.748484 0
M  V30 726 H 74.904 4.20706 0.241775 0
M  V30 727 H 73.628 3.14381 0.885004 0
M  V30 728 H 72.287 3.45541 -1.22462 0
M  V30 729 H 71.935 4.97692 0.728816 0
M  V30 730 H 71.635 5.81966 -0.811775 0
M  V30 731 H 73.159 6.10553 0.0757473 0
M  V30 732 H 74.573 5.34794 -2.06563 0
M  V30 733 H 72.97 5.279 -2.8538 0
M  V30 734 H 74.04 3.86726 -2.92525 0
M  V30 735 N 75.3831 0.828654 1.34056 0
M  V30 736 C 76.6291 0.42008 1.98402 0
M  V30 737 C 76.9621 -1.01564 1.65525 0
M  V30 738 O 76.2371 -1.70834 0.929831 0
M  V30 739 C 76.5201 0.62927 3.54559 0
M  V30 740 C 76.3731 2.11152 3.97159 0
M  V30 741 C 77.6921 0.0688756 4.40046 0
M  V30 742 H 74.8111 0.154104 0.720709 0
M  V30 743 H 77.4531 1.04228 1.5886 0
M  V30 744 H 75.6031 0.0996418 3.88372 0
M  V30 745 H 77.2751 2.70522 3.73651 0
M  V30 746 H 75.5181 2.59985 3.47261 0
M  V30 747 H 76.1891 2.20868 5.05887 0
M  V30 748 H 78.6651 0.521458 4.1282 0
M  V30 749 H 77.5411 0.245006 5.48353 0
M  V30 750 H 77.8021 -1.0266 4.30015 0
M  V30 751 N 76.8612 -1.46375 0.584142 0
M  V30 752 C 78.1092 -2.01978 0.0701287 0
M  V30 753 C 78.4302 -1.4579 -1.295 0
M  V30 754 O 77.7002 -0.64314 -1.85042 0
M  V30 755 H 76.2802 -0.746648 0.0229345 0
M  V30 756 H 78.9422 -1.79461 0.760245 0
M  V30 757 H 78.0382 -3.121 0.0022064 0
M  V30 758 N 78.3393 -0.321999 -1.54275 0
M  V30 759 C 79.2863 0.544664 -2.24281 0
M  V30 760 C 80.2563 1.1129 -1.23303 0
M  V30 761 O 81.4413 1.15354 -1.51981 0
M  V30 762 C 78.5813 1.70045 -3.00298 0
M  V30 763 C 77.6943 1.16159 -4.1609 0
M  V30 764 C 76.8293 2.28293 -4.79641 0
M  V30 765 C 75.8683 1.71648 -5.8754 0
M  V30 766 N 75.0053 2.77438 -6.44959 0
M  V30 767 H 79.8453 -0.0588907 -2.97942 0
M  V30 768 H 77.3823 -0.0408345 -1.47043 0
M  V30 769 H 79.3403 2.38054 -3.42616 0
M  V30 770 H 77.9703 2.27531 -2.28975 0
M  V30 771 H 77.0223 0.373092 -3.78566 0
M  V30 772 H 78.3343 0.707087 -4.93763 0
M  V30 773 H 77.4883 3.0421 -5.2492 0
M  V30 774 H 76.2273 2.77079 -4.01346 0
M  V30 775 H 75.2323 0.942282 -5.41665 0
M  V30 776 H 76.4573 1.23741 -6.67731 0
M  V30 777 H 74.4033 3.25519 -5.69538 0
M  V30 778 H 74.3203 2.36547 -7.1804 0
M  V30 779 H 75.5883 3.53189 -6.94894 0
M  V30 780 N 79.8174 1.5752 -0.0501392 0
M  V30 781 C 81.0944 1.83996 0.663685 0
M  V30 782 C 81.4744 0.938339 1.89099 0
M  V30 783 O 80.8224 -0.00087759 2.285 0
M  V30 784 C 81.0324 3.33702 1.02196 0
M  V30 785 C 82.3804 4.00691 1.40469 0
M  V30 786 O 83.4044 3.38321 1.11433 0
M  V30 787 O 82.2634 5.10658 1.94654 0
M  V30 788 H 79.3574 0.759385 0.32751 0
M  V30 789 H 81.9034 1.69514 -0.0794238 0
M  V30 790 H 80.6754 3.91015 0.149364 0
M  V30 791 H 80.2984 3.53368 1.82255 0
M  V30 792 N 81.2955 -0.223234 1.56011 0
M  V30 793 C 82.7115 -0.572856 1.48965 0
M  V30 794 C 82.9115 -1.87225 0.74492 0
M  V30 795 O 81.9675 -2.50899 0.283896 0
M  V30 796 C 83.2805 -0.653646 2.9351 0
M  V30 797 C 84.8285 -0.744386 3.0402 0
M  V30 798 C 85.3035 -0.856535 4.49919 0
M  V30 799 N 86.7945 -0.9208 4.53955 0
M  V30 800 C 87.5295 -1.02726 5.64123 0
M  V30 801 N 87.0255 -1.09777 6.84047 0
M  V30 802 N 88.8185 -1.06226 5.51971 0
M  V30 803 H 80.9695 0.629462 2.02858 0
M  V30 804 H 83.2325 0.220621 0.921971 0
M  V30 805 H 82.9385 0.231518 3.50937 0
M  V30 806 H 82.8125 -1.51781 3.45315 0
M  V30 807 H 85.1995 -1.61999 2.46658 0
M  V30 808 H 85.2805 0.14541 2.55386 0
M  V30 809 H 84.9245 0.0146069 5.07898 0
M  V30 810 H 84.8545 -1.76172 4.96257 0
M  V30 811 H 87.3455 -0.876694 3.6759 0
M  V30 812 H 87.6585 -1.17872 7.63758 0
M  V30 813 H 86.0035 -1.06693 6.86762 0
M  V30 814 H 89.1945 -1.00382 4.5721 0
M  V30 815 H 89.3675 -1.14177 6.37862 0
M  V30 816 N 82.7736 -1.49793 -0.48987 0
M  V30 817 C 83.9986 -1.63836 -1.27172 0
M  V30 818 C 84.4236 -0.31402 -1.8546 0
M  V30 819 O 83.7816 0.719803 -1.66399 0
M  V30 820 C 83.8296 -2.71797 -2.36978 0
M  V30 821 O 82.9336 -2.31744 -3.41128 0
M  V30 822 H 82.2746 -0.547997 -0.37496 0
M  V30 823 H 84.8046 -1.96053 -0.585191 0
M  V30 824 H 84.8146 -2.94305 -2.82575 0
M  V30 825 H 83.4896 -3.67923 -1.93921 0
M  V30 826 H 82.0666 -2.1961 -3.01373 0
M  V30 827 N 84.2517 0.741722 -1.39055 0
M  V30 828 C 85.4767 1.53607 -1.39354 0
M  V30 829 C 85.9017 1.88096 0.0116905 0
M  V30 830 O 85.2597 1.5143 0.996924 0
M  V30 831 C 85.3077 2.80441 -2.26682 0
M  V30 832 O 84.4117 3.76088 -1.69208 0
M  V30 833 H 83.7527 0.464142 -0.474835 0
M  V30 834 H 86.2827 0.915665 -1.82967 0
M  V30 835 H 86.2927 3.29246 -2.40959 0
M  V30 836 H 84.9677 2.5467 -3.2881 0
M  V30 837 H 83.5447 3.34833 -1.64138 0
M  V30 838 N 85.7298 1.2412 0.971189 0
M  V30 839 C 86.9768 1.07881 1.71371 0
M  V30 840 C 87.3048 -0.382901 1.90694 0
M  V30 841 O 86.5598 -1.29945 1.46331 0
M  V30 842 C 86.8588 1.75983 3.11071 0
M  V30 843 C 86.5248 3.25909 3.11599 0
M  V30 844 C 85.1868 3.66813 3.11451 0
M  V30 845 C 87.5388 4.21771 3.062 0
M  V30 846 C 84.8668 5.02021 3.03631 0
M  V30 847 C 87.2188 5.56982 2.99923 0
M  V30 848 C 85.8828 5.97237 2.98102 0
M  V30 849 H 85.1528 0.394764 0.62709 0
M  V30 850 H 87.7998 1.54176 1.13587 0
M  V30 851 H 86.1048 1.22072 3.72298 0
M  V30 852 H 87.8018 1.60887 3.6731 0
M  V30 853 H 84.3918 2.93353 3.12477 0
M  V30 854 H 88.5758 3.91172 3.05447 0
M  V30 855 H 83.8318 5.32411 3.0058 0
M  V30 856 H 88.0058 6.30969 2.94704 0
M  V30 857 H 85.6328 7.01967 2.91798 0
M  V30 858 N 87.2079 -1.17134 1.05439 0
M  V30 859 C 88.4379 -1.91094 0.785274 0
M  V30 860 C 88.8459 -1.77198 -0.663142 0
M  V30 861 O 88.1889 -1.10835 -1.46497 0
M  V30 862 C 88.2509 -3.42594 1.08949 0
M  V30 863 C 87.9149 -3.80274 2.53458 0
M  V30 864 C 88.9119 -3.82912 3.51673 0
M  V30 865 C 86.5969 -4.11162 2.88532 0
M  V30 866 C 88.5909 -4.15913 4.83006 0
M  V30 867 C 86.2779 -4.43831 4.20068 0
M  V30 868 C 87.2759 -4.46185 5.17115 0
M  V30 869 O 86.9639 -4.78083 6.46291 0
M  V30 870 H 86.6959 -0.613073 0.284811 0
M  V30 871 H 89.2499 -1.49461 1.40893 0
M  V30 872 H 87.4799 -3.84534 0.408741 0
M  V30 873 H 89.1689 -3.97817 0.805991 0
M  V30 874 H 89.9349 -3.5917 3.25917 0
M  V30 875 H 85.8139 -4.085 2.13656 0
M  V30 876 H 89.3579 -4.17665 5.5875 0
M  V30 877 H 85.2549 -4.67037 4.45586 0
M  V30 878 H 86.0229 -4.9593 6.51149 0
M  V30 879 N 88.686 -0.835752 -1.33615 0
M  V30 880 C 89.932 -0.430596 -1.98176 0
M  V30 881 C 90.265 1.00684 -1.66061 0
M  V30 882 O 89.54 1.70339 -0.938877 0
M  V30 883 C 89.823 -0.648065 -3.5422 0
M  V30 884 C 89.676 -2.13255 -3.96033 0
M  V30 885 C 90.995 -0.0922113 -4.40003 0
M  V30 886 H 88.114 -0.157924 -0.719881 0
M  V30 887 H 90.756 -1.05069 -1.58305 0
M  V30 888 H 88.906 -0.120237 -3.88314 0
M  V30 889 H 90.578 -2.725 -3.72211 0
M  V30 890 H 88.821 -2.61823 -3.45878 0
M  V30 891 H 89.492 -2.23547 -5.04708 0
M  V30 892 H 91.968 -0.543343 -4.12537 0
M  V30 893 H 90.844 -0.274083 -5.48215 0
M  V30 894 H 91.105 1.00378 -4.30554 0
M  V30 895 N 90.1641 1.46063 -0.591896 0
M  V30 896 C 91.1121 2.32124 0.148739 0
M  V30 897 C 92.1061 1.45035 0.875286 0
M  V30 898 O 93.3121 1.61609 0.792632 0
M  V30 899 H 89.6871 0.749024 0.066832 0
M  V30 900 H 91.6581 2.92392 -0.595783 0
M  V30 901 C 90.4071 3.28373 1.1431 0
M  V30 902 H 89.7301 3.95371 0.59346 0
M  V30 903 H 91.1701 3.91352 1.63155 0
M  V30 904 C 89.6291 2.54393 2.20875 0
M  V30 905 O 90.1591 2.31373 3.28374 0
M  V30 906 N 88.3651 2.14797 1.95731 0
M  V30 907 H 87.9121 2.33719 1.08319 0
M  V30 908 H 87.8701 1.65619 2.67241 0
M  V30 909 N 91.6422 0.330177 1.54103 0
M  V30 910 C 92.8902 -0.269871 2.0029 0
M  V30 911 C 93.2112 -1.52133 1.21986 0
M  V30 912 O 92.4812 -1.93212 0.323438 0
M  V30 913 H 91.0612 -0.10271 0.739905 0
M  V30 914 H 93.7232 0.448249 1.89675 0
M  V30 915 H 92.8192 -0.52166 3.07709 0
M  V30 916 N 93.1203 -1.57491 0.0584922 0
M  V30 917 C 94.0503 -2.14988 -0.911178 0
M  V30 918 C 95.0313 -1.07343 -1.31952 0
M  V30 919 O 96.2163 -1.35318 -1.39294 0
M  V30 920 C 93.3463 -2.70078 -2.18347 0
M  V30 921 C 92.3003 -3.82771 -1.91495 0
M  V30 922 C 91.6263 -4.24408 -3.25241 0
M  V30 923 C 92.9263 -5.07592 -1.23075 0
M  V30 924 H 94.6203 -2.96263 -0.432246 0
M  V30 925 H 92.1663 -1.42512 -0.206469 0
M  V30 926 H 94.1193 -3.08943 -2.86587 0
M  V30 927 H 92.8433 -1.86005 -2.68458 0
M  V30 928 H 91.5023 -3.44389 -1.25664 0
M  V30 929 H 91.1503 -3.37275 -3.73168 0
M  V30 930 H 90.8503 -5.00366 -3.08071 0
M  V30 931 H 92.3743 -4.65879 -3.94701 0
M  V30 932 H 93.7883 -5.43857 -1.81362 0
M  V30 933 H 92.1853 -5.88741 -1.16207 0
M  V30 934 H 93.2553 -4.84454 -0.207847 0
M  V30 935 N 94.5984 0.214957 -1.56127 0
M  V30 936 C 95.8264 0.955092 -1.83536 0
M  V30 937 C 96.2414 1.77677 -0.638472 0
M  V30 938 O 95.5984 1.78219 0.392968 0
M  V30 939 C 95.6494 1.86734 -3.09536 0
M  V30 940 O 95.3704 1.07887 -4.24608 0
M  V30 941 C 96.8714 2.72082 -3.4998 0
M  V30 942 H 94.0914 0.279611 -0.609966 0
M  V30 943 H 96.6354 0.228197 -2.03223 0
M  V30 944 H 94.7904 2.5481 -2.91806 0
M  V30 945 H 95.2044 1.69872 -4.9623 0
M  V30 946 H 96.6784 3.31782 -4.41163 0
M  V30 947 H 97.1554 3.44806 -2.7204 0
M  V30 948 H 97.7614 2.09409 -3.70173 0
M  V30 949 N 96.0765 1.50051 0.48192 0
M  V30 950 C 97.0065 1.71046 1.58951 0
M  V30 951 C 97.9875 0.559288 1.60642 0
M  V30 952 O 99.1725 0.797243 1.77081 0
M  V30 953 C 96.3025 1.79462 2.97339 0
M  V30 954 C 95.2565 2.94558 3.10515 0
M  V30 955 C 94.5825 2.88105 4.50444 0
M  V30 956 C 95.8825 4.35227 2.88747 0
M  V30 957 H 97.5765 2.6378 1.41635 0
M  V30 958 H 95.1225 1.26936 0.679942 0
M  V30 959 H 97.0755 1.92734 3.74742 0
M  V30 960 H 95.7995 0.833412 3.15788 0
M  V30 961 H 94.4585 2.80918 2.35543 0
M  V30 962 H 94.1065 1.89853 4.65795 0
M  V30 963 H 93.8065 3.65366 4.60197 0
M  V30 964 H 95.3305 3.03412 5.29881 0
M  V30 965 H 96.7445 4.49449 3.55905 0
M  V30 966 H 95.1415 5.13856 3.09955 0
M  V30 967 H 96.2115 4.48347 1.84696 0
M  V30 968 N 97.5546 -0.734337 1.39446 0
M  V30 969 C 98.8026 -1.49096 1.36436 0
M  V30 970 C 99.1236 -1.94961 -0.0388255 0
M  V30 971 O 98.3936 -1.69033 -0.990191 0
M  V30 972 H 96.9736 -0.5531 0.502085 0
M  V30 973 H 99.6356 -0.871725 1.74319 0
M  V30 974 H 98.7316 -2.37276 2.02747 0
M  V30 975 N 99.0327 -1.24633 -0.964593 0
M  V30 976 C 100.281 -1.08573 -1.70459 0
M  V30 977 C 100.602 0.375655 -1.91347 0
M  V30 978 O 99.8717 1.26779 -1.49345 0
M  V30 979 H 98.4517 -0.398784 -0.631649 0
M  V30 980 H 101.114 -1.56601 -1.16026 0
M  V30 981 H 100.21 -1.58623 -2.68785 0
M  V30 982 N 100.511 1.16574 -1.06058 0
M  V30 983 C 101.443 2.2045 -0.627239 0
M  V30 984 C 102.456 1.59752 0.313534 0
M  V30 985 O 103.645 1.78192 0.104896 0
M  V30 986 C 100.745 3.3875 0.100974 0
M  V30 987 C 99.9178 4.29008 -0.852687 0
M  V30 988 C 98.9768 5.25944 -0.164152 0
M  V30 989 O 98.0028 5.63535 -0.801047 0
M  V30 990 N 99.2048 5.70075 1.09518 0
M  V30 991 H 101.97 2.58249 -1.52077 0
M  V30 992 H 99.5308 1.3156 -0.943594 0
M  V30 993 H 101.523 4.00638 0.57194 0
M  V30 994 H 100.093 2.99476 0.89628 0
M  V30 995 H 99.3128 3.64419 -1.50308 0
M  V30 996 H 100.601 4.86195 -1.49972 0
M  V30 997 H 99.9988 5.41624 1.6328 0
M  V30 998 H 98.5558 6.34067 1.51006 0
M  V30 999 N 101.989 0.842826 1.3317 0
M  V30 1000 C 102.936 0.276885 2.29133 0
M  V30 1001 C 103.906 -0.609527 1.54512 0
M  V30 1002 O 105.091 -0.546955 1.82792 0
M  V30 1003 C 102.231 -0.538707 3.40869 0
M  V30 1004 C 101.344 0.372169 4.30394 0
M  V30 1005 C 100.479 -0.454908 5.29249 0
M  V30 1006 C 99.5179 0.45411 6.10413 0
M  V30 1007 N 98.6549 -0.335075 7.013 0
M  V30 1008 H 103.495 1.10052 2.76934 0
M  V30 1009 H 101.032 0.554161 1.36262 0
M  V30 1010 H 102.99 -1.02709 4.0436 0
M  V30 1011 H 101.62 -1.32727 2.9425 0
M  V30 1012 H 100.672 0.97888 3.6759 0
M  V30 1013 H 101.984 1.0703 4.87182 0
M  V30 1014 H 101.138 -1.00695 5.98285 0
M  V30 1015 H 99.8769 -1.18646 4.73048 0
M  V30 1016 H 98.8819 1.01813 5.40291 0
M  V30 1017 H 100.107 1.18409 6.68697 0
M  V30 1018 H 98.0529 -1.04994 6.47543 0
M  V30 1019 H 97.9699 0.304262 7.55387 0
M  V30 1020 H 99.2379 -0.869224 7.74638 0
M  V30 1021 N 103.467 -1.45747 0.599634 0
M  V30 1022 C 104.707 -2.04181 0.0946309 0
M  V30 1023 C 105.071 -1.45895 -1.24815 0
M  V30 1024 O 106.272 -1.95633 -1.8434 0
M  V30 1025 C 104.543 -3.57368 0.047581 0
M  V30 1026 S 106.102 -4.36997 -0.397387 0
M  V30 1027 H 102.92 -0.70953 0.0456954 0
M  V30 1028 H 105.522 -1.78564 0.795946 0
M  V30 1029 H 104.226 -3.97303 1.02852 0
M  V30 1030 H 103.757 -3.87549 -0.675977 0
M  V30 1031 H 105.772 -4.68012 -1.64862 0
M  V30 1032 N 104.945 -0.338344 -1.53925 0
M  V30 1033 C 106.17 0.263987 -2.05713 0
M  V30 1034 C 106.595 1.43847 -1.21201 0
M  V30 1035 O 105.953 1.79904 -0.224535 0
M  V30 1036 C 106.001 0.662 -3.54471 0
M  V30 1037 O 105.105 1.76265 -3.72833 0
M  V30 1038 H 104.446 0.0448722 -0.662482 0
M  V30 1039 H 106.976 -0.491048 -1.9862 0
M  V30 1040 H 106.986 0.940594 -3.9701 0
M  V30 1041 H 105.661 -0.196937 -4.15433 0
M  V30 1042 H 104.238 1.48173 -3.42198 0
M  V30 1043 N 106.423 1.57458 -0.0668435 0
M  V30 1044 C 107.669 1.93587 0.6043 0
M  V30 1045 C 108.002 0.946722 1.69561 0
M  V30 1046 O 107.277 -0.0248516 1.94484 0
M  V30 1047 C 107.56 3.40014 1.18585 0
M  V30 1048 C 107.413 4.49685 0.101529 0
M  V30 1049 C 108.732 3.87154 2.09284 0
M  V30 1050 H 105.851 0.703958 0.218202 0
M  V30 1051 H 108.493 1.89542 -0.131804 0
M  V30 1052 H 106.643 3.43592 1.81319 0
M  V30 1053 H 108.315 4.5823 -0.531279 0
M  V30 1054 H 106.558 4.30059 -0.568487 0
M  V30 1055 H 107.229 5.49266 0.54874 0
M  V30 1056 H 109.705 3.85551 1.56491 0
M  V30 1057 H 108.581 4.90231 2.46911 0
M  V30 1058 H 108.842 3.2481 2.99918 0
M  V30 1059 N 107.901 -0.206675 1.56239 0
M  V30 1060 C 109.15 -0.926964 1.79138 0
M  V30 1061 C 109.463 -1.84901 0.638043 0
M  V30 1062 O 110.669 -2.60906 0.751033 0
M  V30 1063 C 109.125 -1.6986 3.17294 0
M  V30 1064 C 108.733 -0.821956 4.40395 0
M  V30 1065 C 110.477 -2.40922 3.4951 0
M  V30 1066 C 108.384 -1.59179 5.69575 0
M  V30 1067 H 107.314 -0.349864 0.667915 0
M  V30 1068 H 109.965 -0.180487 1.8261 0
M  V30 1069 H 108.347 -2.48853 3.08039 0
M  V30 1070 H 109.521 -0.0715019 4.60745 0
M  V30 1071 H 107.836 -0.222741 4.15804 0
M  V30 1072 H 110.433 -2.99047 4.43255 0
M  V30 1073 H 110.776 -3.14542 2.72707 0
M  V30 1074 H 111.309 -1.68905 3.60161 0
M  V30 1075 H 108.048 -0.898589 6.49312 0
M  V30 1076 H 107.568 -2.31648 5.53262 0
M  V30 1077 H 109.247 -2.14862 6.10281 0
M  V30 1078 N 109.379 -1.50304 -0.473955 0
M  V30 1079 C 110.795 -1.37667 -0.807466 0
M  V30 1080 C 110.995 -0.430555 -1.96846 0
M  V30 1081 O 110.051 0.127874 -2.52176 0
M  V30 1082 C 111.364 -2.78974 -1.12223 0
M  V30 1083 C 112.912 -2.87868 -1.22885 0
M  V30 1084 C 113.387 -4.30003 -1.57676 0
M  V30 1085 N 114.878 -4.3294 -1.64673 0
M  V30 1086 C 115.613 -5.3991 -1.93091 0
M  V30 1087 N 115.109 -6.57092 -2.1955 0
M  V30 1088 N 116.902 -5.27351 -1.94569 0
M  V30 1089 H 109.053 -2.10394 0.291212 0
M  V30 1090 H 111.316 -0.945575 0.0677609 0
M  V30 1091 H 111.022 -3.50031 -0.342229 0
M  V30 1092 H 110.896 -3.16038 -2.05913 0
M  V30 1093 H 113.283 -2.17032 -1.99953 0
M  V30 1094 H 113.364 -2.54352 -0.271814 0
M  V30 1095 H 113.008 -5.01375 -0.81149 0
M  V30 1096 H 112.938 -4.61004 -2.54525 0
M  V30 1097 H 115.429 -3.48441 -1.46277 0
M  V30 1098 H 115.742 -7.34425 -2.405 0
M  V30 1099 H 114.087 -6.60272 -2.16948 0
M  V30 1100 H 117.278 -4.34801 -1.73394 0
M  V30 1101 H 117.451 -6.10805 -2.16381 0
M  V30 1102 N 110.857 0.726932 -1.39834 0
M  V30 1103 C 112.134 1.47902 -1.28001 0
M  V30 1104 C 112.514 2.1083 0.106789 0
M  V30 1105 O 111.862 1.99242 1.11869 0
M  V30 1106 C 112.072 2.52392 -2.41038 0
M  V30 1107 C 113.42 3.18546 -2.80737 0
M  V30 1108 O 114.444 2.62708 -2.40547 0
M  V30 1109 O 113.303 4.19604 -3.50135 0
M  V30 1110 H 110.397 0.657163 -0.502062 0
M  V30 1111 H 112.943 0.760071 -1.51727 0
M  V30 1112 H 111.715 2.04329 -3.33715 0
M  V30 1113 H 111.338 3.31837 -2.19021 0
M  V30 1114 N 112.336 1.25143 0.95797 0
M  V30 1115 C 113.561 1.12521 1.74223 0
M  V30 1116 C 113.986 -0.317402 1.85403 0
M  V30 1117 O 113.344 -1.2299 1.33204 0
M  V30 1118 C 113.392 1.78062 3.1357 0
M  V30 1119 O 112.496 1.058 3.98598 0
M  V30 1120 H 111.837 0.39304 0.535178 0
M  V30 1121 H 114.367 1.65641 1.201 0
M  V30 1122 H 114.377 1.84213 3.64046 0
M  V30 1123 H 113.052 2.83021 3.04749 0
M  V30 1124 H 111.629 1.07506 3.57067 0
M  V30 1125 N 113.814 -1.1601 1.06675 0
M  V30 1126 C 114.744 -2.22688 0.702307 0
M  V30 1127 C 115.725 -1.67306 -0.307032 0
M  V30 1128 O 116.91 -1.93352 -0.181305 0
M  V30 1129 C 114.04 -3.47178 0.092038 0
M  V30 1130 C 112.994 -4.15477 1.02777 0
M  V30 1131 C 112.32 -5.33963 0.28061 0
M  V30 1132 C 113.62 -4.66019 2.35846 0
M  V30 1133 H 115.314 -2.53429 1.59419 0
M  V30 1134 H 112.86 -1.21813 0.767961 0
M  V30 1135 H 114.813 -4.21037 -0.174814 0
M  V30 1136 H 113.537 -3.15749 -0.834877 0
M  V30 1137 H 112.196 -3.43549 1.27944 0
M  V30 1138 H 111.844 -4.98788 -0.649545 0
M  V30 1139 H 111.544 -5.806 0.904258 0
M  V30 1140 H 113.068 -6.10596 0.021396 0
M  V30 1141 H 114.482 -5.3144 2.15045 0
M  V30 1142 H 112.879 -5.23293 2.93743 0
M  V30 1143 H 113.949 -3.82023 2.98641 0
M  V30 1144 N 115.292 -0.849877 -1.32721 0
M  V30 1145 C 116.222 -0.306308 -2.31482 0
M  V30 1146 C 117.203 0.591952 -1.59468 0
M  V30 1147 O 118.388 0.513199 -1.87296 0
M  V30 1148 C 115.518 0.510204 -3.43532 0
M  V30 1149 C 114.472 -0.293209 -4.26994 0
M  V30 1150 C 113.798 0.647743 -5.30762 0
M  V30 1151 C 115.098 -1.51634 -4.99804 0
M  V30 1152 H 116.792 -1.13153 -2.77195 0
M  V30 1153 H 114.338 -0.545553 -1.33266 0
M  V30 1154 H 116.291 0.900856 -4.11658 0
M  V30 1155 H 115.015 1.36874 -2.96535 0
M  V30 1156 H 113.674 -0.665555 -3.60508 0
M  V30 1157 H 113.322 1.50299 -4.8002 0
M  V30 1158 H 113.022 0.11422 -5.87489 0
M  V30 1159 H 114.546 1.03567 -6.01753 0
M  V30 1160 H 115.96 -1.19824 -5.60638 0
M  V30 1161 H 114.357 -1.98745 -5.66234 0
M  V30 1162 H 115.427 -2.28018 -4.27943 0
M  V30 1163 N 116.77 1.45427 -0.607355 0
M  V30 1164 C 117.702 2.2871 0.149752 0
M  V30 1165 C 118.715 1.39937 0.831958 0
M  V30 1166 O 119.904 1.64313 0.697385 0
M  V30 1167 C 117.004 3.15673 1.23304 0
M  V30 1168 C 116.177 4.32722 0.637996 0
M  V30 1169 C 115.236 5.00895 1.61215 0
M  V30 1170 O 114.262 5.57697 1.13854 0
M  V30 1171 N 115.464 5.00159 2.94655 0
M  V30 1172 H 118.229 2.94328 -0.564882 0
M  V30 1173 H 115.79 1.55612 -0.446823 0
M  V30 1174 H 117.782 3.58144 1.88454 0
M  V30 1175 H 116.352 2.51965 1.8502 0
M  V30 1176 H 115.572 3.93734 -0.191572 0
M  V30 1177 H 116.86 5.08321 0.220665 0
M  V30 1178 H 116.258 4.553 3.35735 0
M  V30 1179 H 114.815 5.46495 3.55228 0
M  V30 1180 N 118.248 0.346503 1.53744 0
M  V30 1181 C 119.525 -0.304532 1.93215 0
M  V30 1182 C 119.905 -1.67993 1.27834 0
M  V30 1183 O 119.253 -2.24411 0.430352 0
M  V30 1184 C 119.463 -0.373852 3.46992 0
M  V30 1185 C 120.811 -0.62329 4.2 0
M  V30 1186 O 121.835 -0.455847 3.53271 0
M  V30 1187 O 120.694 -0.947879 5.38217 0
M  V30 1188 H 117.788 -0.178318 0.807547 0
M  V30 1189 H 120.334 0.397895 1.64969 0
M  V30 1190 H 119.106 0.591224 3.86808 0
M  V30 1191 H 118.729 -1.12294 3.81413 0
M  V30 1192 N 119.726 -1.57421 0.075193 0
M  V30 1193 C 120.974 -1.93236 -0.591974 0
M  V30 1194 C 121.295 -0.956241 -1.69944 0
M  V30 1195 O 120.565 -0.00494792 -1.95899 0
M  V30 1196 H 119.145 -0.713355 -0.22166 0
M  V30 1197 H 121.807 -1.9444 0.133848 0
M  V30 1198 H 120.903 -2.95131 -1.01509 0
M  V30 1199 N 121.204 0.198386 -1.56346 0
M  V30 1200 C 122.114 1.2664 -1.97483 0
M  V30 1201 C 123.13 1.49989 -0.882002 0
M  V30 1202 O 124.306 1.62668 -1.18748 0
M  V30 1203 C 121.371 2.59141 -2.30319 0
M  V30 1204 C 120.432 2.43892 -3.53292 0
M  V30 1205 C 119.665 3.70074 -3.84553 0
M  V30 1206 O 119.888 4.74101 -3.1715 0
M  V30 1207 O 118.822 3.658 -4.7799 0
M  V30 1208 H 122.648 0.947304 -2.88548 0
M  V30 1209 H 120.233 0.403123 -1.43859 0
M  V30 1210 H 122.115 3.37352 -2.5253 0
M  V30 1211 H 120.79 2.90684 -1.42423 0
M  V30 1212 H 119.697 1.63803 -3.36332 0
M  V30 1213 H 121.03 2.17282 -4.41644 0
M  V30 1214 N 122.682 1.50554 0.465978 0
M  V30 1215 C 123.929 1.61798 1.21768 0
M  V30 1216 C 124.257 0.320696 1.91838 0
M  V30 1217 O 123.512 -0.693724 1.82992 0
M  V30 1218 C 123.811 2.75152 2.28093 0
M  V30 1219 C 123.477 4.15454 1.75239 0
M  V30 1220 C 122.139 4.53628 1.60546 0
M  V30 1221 C 124.491 5.03121 1.36083 0
M  V30 1222 C 121.819 5.77204 1.05128 0
M  V30 1223 C 124.171 6.27249 0.821056 0
M  V30 1224 C 122.835 6.64221 0.660795 0
M  V30 1225 H 122.105 0.592063 0.445582 0
M  V30 1226 H 124.752 1.84503 0.512927 0
M  V30 1227 H 123.057 2.46556 3.04496 0
M  V30 1228 H 124.754 2.81055 2.86023 0
M  V30 1229 H 121.344 3.85341 1.87644 0
M  V30 1230 H 125.528 4.74257 1.46267 0
M  V30 1231 H 120.784 6.0452 0.91462 0
M  V30 1232 H 124.958 6.94537 0.509018 0
M  V30 1233 H 122.585 7.59854 0.229226 0
M  V30 1234 N 124.16 -0.719506 1.40217 0
M  V30 1235 C 125.385 -1.51371 1.4178 0
M  V30 1236 C 125.81 -1.88091 0.0182355 0
M  V30 1237 O 125.168 -1.52997 -0.972707 0
M  V30 1238 C 125.216 -2.768 2.31115 0
M  V30 1239 O 124.32 -3.73349 1.7517 0
M  V30 1240 H 123.661 -0.456529 0.482159 0
M  V30 1241 H 126.191 -0.88644 1.844 0
M  V30 1242 H 126.201 -3.25371 2.46167 0
M  V30 1243 H 124.876 -2.49407 3.3282 0
M  V30 1244 H 123.453 -3.32179 1.69444 0
M  V30 1245 N 125.638 -1.25649 -0.95132 0
M  V30 1246 C 126.571 -1.00644 -2.04807 0
M  V30 1247 C 127.549 0.0654271 -1.62468 0
M  V30 1248 O 128.733 -0.074911 -1.88351 0
M  V30 1249 C 125.86 -0.522052 -3.34653 0
M  V30 1250 C 124.906 -1.58495 -3.95957 0
M  V30 1251 S 125.739 -3.17108 -4.31512 0
M  V30 1252 C 126.895 -2.70412 -5.64471 0
M  V30 1253 H 127.128 -1.93508 -2.25703 0
M  V30 1254 H 124.661 -1.09216 -1.09139 0
M  V30 1255 H 126.619 -0.24923 -4.09743 0
M  V30 1256 H 125.28 0.386146 -3.11717 0
M  V30 1257 H 124.473 -1.1968 -4.89584 0
M  V30 1258 H 124.075 -1.80862 -3.2736 0
M  V30 1259 H 126.367 -2.14245 -6.42733 0
M  V30 1260 H 127.31 -3.62693 -6.08161 0
M  V30 1261 H 127.718 -2.10302 -5.23864 0
M  V30 1262 N 127.117 1.15442 -1.07289 0
M  V30 1263 C 128.394 1.82306 -0.708792 0
M  V30 1264 C 128.774 1.94991 0.808807 0
M  V30 1265 O 128.122 1.50085 1.72298 0
M  V30 1266 C 128.332 3.18695 -1.42247 0
M  V30 1267 C 129.68 3.94341 -1.57417 0
M  V30 1268 O 130.704 3.28247 -1.38319 0
M  V30 1269 O 129.563 5.12839 -1.88834 0
M  V30 1270 H 126.657 0.787628 -0.252132 0
M  V30 1271 H 129.203 1.22559 -1.17377 0
M  V30 1272 H 127.975 3.04557 -2.45684 0
M  V30 1273 H 127.598 3.86128 -0.948223 0
M  V30 1274 N 128.595 0.856903 1.32268 0
M  V30 1275 C 129.525 0.31858 2.31316 0
M  V30 1276 C 130.506 -0.583487 1.59779 0
M  V30 1277 O 131.691 -0.503259 1.87566 0
M  V30 1278 C 128.821 -0.491979 3.43798 0
M  V30 1279 C 127.775 0.315849 4.26833 0
M  V30 1280 C 127.101 -0.619586 5.31098 0
M  V30 1281 C 128.401 1.54282 4.98993 0
M  V30 1282 H 130.095 1.14621 2.76591 0
M  V30 1283 H 127.641 0.552613 1.32974 0
M  V30 1284 H 129.594 -0.879012 4.1213 0
M  V30 1285 H 128.318 -1.35299 2.97257 0
M  V30 1286 H 126.977 0.684664 3.6015 0
M  V30 1287 H 126.625 -1.47751 4.8081 0
M  V30 1288 H 126.325 -0.0830621 5.87541 0
M  V30 1289 H 127.849 -1.00375 6.02293 0
M  V30 1290 H 129.263 1.22796 5.59995 0
M  V30 1291 H 127.66 2.01745 5.65172 0
M  V30 1292 H 128.73 2.30285 4.26728 0
M  V30 1293 N 130.073 -1.45103 0.615059 0
M  V30 1294 C 131.489 -1.57137 0.279322 0
M  V30 1295 C 131.689 -1.60523 -1.21797 0
M  V30 1296 O 130.745 -1.53956 -2.00134 0
M  V30 1297 C 132.058 -2.85062 0.957083 0
M  V30 1298 C 133.606 -2.98749 0.933706 0
M  V30 1299 C 134.081 -4.29455 1.59162 0
M  V30 1300 N 135.572 -4.36231 1.55746 0
M  V30 1301 C 136.307 -5.36051 2.0356 0
M  V30 1302 N 135.803 -6.42367 2.59494 0
M  V30 1303 N 137.596 -5.27456 1.94284 0
M  V30 1304 H 129.747 -1.41148 1.58717 0
M  V30 1305 H 132.01 -0.675331 0.665306 0
M  V30 1306 H 131.716 -2.88488 2.01166 0
M  V30 1307 H 131.59 -3.7407 0.48494 0
M  V30 1308 H 133.977 -2.94886 -0.112347 0
M  V30 1309 H 134.058 -2.11132 1.44419 0
M  V30 1310 H 133.702 -4.34077 2.63704 0
M  V30 1311 H 133.632 -5.15901 1.0561 0
M  V30 1312 H 136.123 -3.60011 1.14893 0
M  V30 1313 H 136.436 -7.14793 2.93752 0
M  V30 1314 H 134.781 -6.43097 2.63537 0
M  V30 1315 H 137.972 -4.43308 1.5032 0
M  V30 1316 H 138.145 -6.05099 2.3186 0
M  V30 1317 N 131.551 -0.354651 -1.53558 0
M  V30 1318 C 132.779 0.239515 -2.05509 0
M  V30 1319 C 133.194 1.4333 -1.2289 0
M  V30 1320 O 132.551 1.80538 -0.266899 0
M  V30 1321 C 132.602 0.643719 -3.55723 0
M  V30 1322 O 132.323 -0.502602 -4.35207 0
M  V30 1323 C 133.824 1.29743 -4.23889 0
M  V30 1324 H 131.044 0.0442697 -0.669538 0
M  V30 1325 H 133.588 -0.509856 -1.98042 0
M  V30 1326 H 131.743 1.34302 -3.63376 0
M  V30 1327 H 132.157 -0.178172 -5.24197 0
M  V30 1328 H 133.631 1.53091 -5.30346 0
M  V30 1329 H 134.108 2.25441 -3.76926 0
M  V30 1330 H 134.714 0.639865 -4.20459 0
M  V30 1331 N 133.029 1.57378 -0.0835403 0
M  V30 1332 C 133.976 2.13384 0.879539 0
M  V30 1333 C 134.946 1.04936 1.28754 0
M  V30 1334 O 136.131 1.32662 1.37133 0
M  V30 1335 C 133.271 2.70932 2.13752 0
M  V30 1336 C 132.384 3.93575 1.7811 0
M  V30 1337 C 131.519 4.39326 2.98607 0
M  V30 1338 C 130.558 5.54587 2.59037 0
M  V30 1339 N 129.695 5.95243 3.72331 0
M  V30 1340 H 134.535 2.9537 0.395076 0
M  V30 1341 H 132.072 1.45953 0.183349 0
M  V30 1342 H 134.03 3.02411 2.87408 0
M  V30 1343 H 132.66 1.91693 2.59718 0
M  V30 1344 H 131.712 3.68483 0.94469 0
M  V30 1345 H 133.024 4.77258 1.45005 0
M  V30 1346 H 132.178 4.72528 3.80529 0
M  V30 1347 H 130.917 3.5452 3.34913 0
M  V30 1348 H 129.922 5.21024 1.75539 0
M  V30 1349 H 131.147 6.41133 2.23887 0
M  V30 1350 H 129.093 5.13385 4.08378 0
M  V30 1351 H 129.01 6.73694 3.43034 0
M  V30 1352 H 130.278 6.33072 4.54797 0
M  V30 1353 N 134.507 -0.190092 1.56449 0
M  V30 1354 C 135.732 -0.929864 1.85387 0
M  V30 1355 C 136.157 -1.7585 0.667704 0
M  V30 1356 O 135.515 -1.77198 -0.383459 0
M  V30 1357 C 135.563 -1.79773 3.12593 0
M  V30 1358 O 134.667 -2.89713 2.93496 0
M  V30 1359 H 134.008 -0.261574 0.610307 0
M  V30 1360 H 136.538 -0.193896 2.03679 0
M  V30 1361 H 136.548 -2.20139 3.43515 0
M  V30 1362 H 135.223 -1.18892 3.98544 0
M  V30 1363 H 133.8 -2.53065 2.73884 0
M  V30 1364 N 135.985 -1.50799 -0.457987 0
M  V30 1365 C 137.213 -1.66218 -1.23203 0
M  V30 1366 C 137.628 -0.350894 -1.85511 0
M  V30 1367 O 136.985 0.668546 -1.69814 0
M  V30 1368 C 137.036 -2.76291 -2.33121 0
M  V30 1369 O 136.757 -4.02338 -1.73366 0
M  V30 1370 C 138.258 -3.028 -3.2377 0
M  V30 1371 H 135.478 -0.558361 -0.372121 0
M  V30 1372 H 138.022 -1.97099 -0.545179 0
M  V30 1373 H 136.177 -2.48068 -2.97558 0
M  V30 1374 H 136.591 -4.63312 -2.4585 0
M  V30 1375 H 138.065 -3.8345 -3.97077 0
M  V30 1376 H 138.542 -2.14385 -3.83322 0
M  V30 1377 H 139.148 -3.32604 -2.65056 0
M  V30 1378 N 137.463 0.71206 -1.40597 0
M  V30 1379 C 138.711 1.46907 -1.38791 0
M  V30 1380 C 139.032 1.94998 0.00780391 0
M  V30 1381 O 138.302 1.70587 0.963174 0
M  V30 1382 H 136.882 0.545043 -0.51082 0
M  V30 1383 H 139.544 0.843882 -1.75683 0
M  V30 1384 H 138.64 2.34021 -2.06496 0
M  V30 1385 N 138.941 1.26152 0.944643 0
M  V30 1386 C 140.189 1.11271 1.6871 0
M  V30 1387 C 140.51 -0.345166 1.91921 0
M  V30 1388 O 139.78 -1.24387 1.51343 0
M  V30 1389 H 138.36 0.408783 0.625224 0
M  V30 1390 H 141.022 1.58427 1.1352 0
M  V30 1391 H 140.118 1.62879 2.66227 0
M  V30 1392 N 140.419 -1.14872 1.07899 0
M  V30 1393 C 141.382 -2.17986 0.708161 0
M  V30 1394 C 142.382 -1.58775 -0.25442 0
M  V30 1395 O 143.572 -1.74166 -0.034645 0
M  V30 1396 C 140.704 -3.40871 0.0446929 0
M  V30 1397 H 141.897 -2.52306 1.62116 0
M  V30 1398 H 139.45 -1.2943 0.876218 0
M  V30 1399 H 140.185 -3.12124 -0.880281 0
M  V30 1400 H 139.97 -3.8511 0.737091 0
M  V30 1401 H 141.46 -4.17121 -0.19991 0
M  V30 1402 N 141.898 -0.863906 -1.31812 0
M  V30 1403 C 143.309 -0.52522 -1.7916 0
M  V30 1404 C 143.66 0.957518 -1.71248 0
M  V30 1405 O 142.785 1.74734 -1.27659 0
M  V30 1406 C 143.38 -0.9466 -3.25307 0
M  V30 1407 C 141.939 -0.659668 -3.70574 0
M  V30 1408 C 141.086 -1.14126 -2.52726 0
M  V30 1409 H 144.037 -1.05022 -1.1898 0
M  V30 1410 H 144.058 -0.266766 -3.79564 0
M  V30 1411 H 143.57 -2.02579 -3.31034 0
M  V30 1412 H 141.671 0.408416 -3.70355 0
M  V30 1413 H 141.784 -1.23245 -4.62977 0
M  V30 1414 H 140.148 -0.561216 -2.4844 0
M  V30 1415 H 140.931 -2.22775 -2.61201 0
M  V30 1416 N 143.376 1.44774 -0.622745 0
M  V30 1417 C 144.604 2.06487 -0.130722 0
M  V30 1418 C 145.019 1.46476 1.19123 0
M  V30 1419 O 144.376 0.584502 1.72887 0
M  V30 1420 C 144.427 3.615 -0.000807207 0
M  V30 1421 O 144.148 4.19274 -1.27048 0
M  V30 1422 C 145.649 4.40229 0.520898 0
M  V30 1423 H 142.869 0.666704 -0.0758106 0
M  V30 1424 H 145.413 1.85779 -0.854774 0
M  V30 1425 H 143.568 3.81498 0.673643 0
M  V30 1426 H 143.982 5.12622 -1.1099 0
M  V30 1427 H 145.456 5.49144 0.560838 0
M  V30 1428 H 145.933 4.1108 1.54627 0
M  V30 1429 H 146.539 4.25131 -0.120018 0
M  V30 1430 N 144.854 0.36279 1.53368 0
M  V30 1431 C 146.101 -0.227776 2.01215 0
M  V30 1432 C 146.429 -1.49003 1.25014 0
M  V30 1433 O 145.684 -1.92876 0.331236 0
M  V30 1434 C 145.983 -0.568417 3.52851 0
M  V30 1435 C 145.649 0.59918 4.46901 0
M  V30 1436 C 144.311 0.919559 4.72332 0
M  V30 1437 C 146.663 1.38156 5.02556 0
M  V30 1438 C 143.991 2.02434 5.5067 0
M  V30 1439 C 146.343 2.47674 5.821 0
M  V30 1440 C 145.007 2.8025 6.05819 0
M  V30 1441 H 144.277 -0.083349 0.736297 0
M  V30 1442 H 146.924 0.494677 1.85001 0
M  V30 1443 H 145.229 -1.37185 3.66998 0
M  V30 1444 H 146.926 -1.03756 3.87344 0
M  V30 1445 H 143.516 0.339437 4.27254 0
M  V30 1446 H 147.7 1.14729 4.82857 0
M  V30 1447 H 142.956 2.28075 5.67267 0
M  V30 1448 H 147.13 3.08716 6.24234 0
M  V30 1449 H 144.757 3.65979 6.66306 0
M  V30 1450 N 146.332 -1.57332 0.0918853 0
M  V30 1451 C 147.28 -2.15075 -0.885747 0
M  V30 1452 C 148.274 -1.09277 -1.29441 0
M  V30 1453 O 149.48 -1.27627 -1.26931 0
M  V30 1454 H 145.855 -0.687966 -0.303656 0
M  V30 1455 H 147.826 -2.96047 -0.373995 0
M  V30 1456 C 146.575 -2.74325 -2.13638 0
M  V30 1457 H 145.898 -3.55418 -1.8308 0
M  V30 1458 H 147.338 -3.183 -2.80109 0
M  V30 1459 C 145.797 -1.70062 -2.90827 0
M  V30 1460 O 146.327 -1.13763 -3.85254 0
M  V30 1461 N 144.533 -1.40628 -2.54307 0
M  V30 1462 H 144.08 -1.866 -1.7759 0
M  V30 1463 H 144.038 -0.711043 -3.06254 0
M  V30 1464 N 147.81 0.181792 -1.56548 0
M  V30 1465 C 149.056 0.901431 -1.81665 0
M  V30 1466 C 149.389 1.82347 -0.668075 0
M  V30 1467 O 148.664 1.91669 0.330615 0
M  V30 1468 C 148.947 1.70618 -3.17115 0
M  V30 1469 C 148.8 0.807964 -4.42484 0
M  V30 1470 C 150.119 2.67605 -3.49393 0
M  V30 1471 H 147.238 0.32627 -0.660846 0
M  V30 1472 H 149.88 0.168134 -1.89255 0
M  V30 1473 H 148.03 2.33133 -3.10775 0
M  V30 1474 H 149.702 0.19649 -4.60881 0
M  V30 1475 H 147.945 0.115411 -4.33646 0
M  V30 1476 H 148.616 1.40632 -5.33785 0
M  V30 1477 H 151.092 2.15218 -3.56118 0
M  V30 1478 H 149.968 3.20985 -4.45264 0
M  V30 1479 H 150.229 3.47298 -2.73563 0
M  V30 1480 N 149.288 1.51039 0.449983 0
M  V30 1481 C 150.516 1.66869 1.2232 0
M  V30 1482 C 150.931 0.360727 1.85322 0
M  V30 1483 O 150.288 -0.659531 1.70166 0
M  V30 1484 C 150.339 2.77524 2.31652 0
M  V30 1485 O 150.06 4.03252 1.7123 0
M  V30 1486 C 151.561 3.04512 3.2216 0
M  V30 1487 H 148.781 0.560326 0.369155 0
M  V30 1488 H 151.325 1.97385 0.534719 0
M  V30 1489 H 149.48 2.49642 2.96239 0
M  V30 1490 H 149.894 4.64609 2.43389 0
M  V30 1491 H 151.368 3.85551 3.95038 0
M  V30 1492 H 151.845 2.16415 3.8218 0
M  V30 1493 H 152.451 3.34005 2.63288 0
M  V30 1494 N 150.766 -0.704594 1.40972 0
M  V30 1495 C 152.012 -1.46675 1.40051 0
M  V30 1496 C 152.345 -1.94199 0.00641102 0
M  V30 1497 O 151.62 -1.68916 -0.964235 0
M  V30 1498 C 151.903 -2.68505 2.39952 0
M  V30 1499 C 151.756 -2.26805 3.88432 0
M  V30 1500 C 153.075 -3.70686 2.37233 0
M  V30 1501 H 150.194 -0.532015 0.510028 0
M  V30 1502 H 152.836 -0.803255 1.72185 0
M  V30 1503 H 150.986 -3.25114 2.1268 0
M  V30 1504 H 152.658 -1.75592 4.26574 0
M  V30 1505 H 150.901 -1.58685 4.03734 0
M  V30 1506 H 151.572 -3.14181 4.53866 0
M  V30 1507 H 154.048 -3.23731 2.61415 0
M  V30 1508 H 152.924 -4.53553 3.09162 0
M  V30 1509 H 153.185 -4.19754 1.38777 0
M  V30 1510 N 152.244 -1.26651 -0.937939 0
M  V30 1511 C 153.472 -1.15173 -1.7188 0
M  V30 1512 C 153.887 0.292668 -1.86518 0
M  V30 1513 O 153.244 1.20014 -1.37488 0
M  V30 1514 C 153.295 -1.81925 -3.12387 0
M  V30 1515 O 153.016 -3.2072 -2.98446 0
M  V30 1516 C 154.517 -1.76442 -4.06673 0
M  V30 1517 H 151.737 -0.400911 -0.538063 0
M  V30 1518 H 154.281 -1.67332 -1.1756 0
M  V30 1519 H 152.436 -1.33696 -3.63599 0
M  V30 1520 H 152.85 -3.53802 -3.872 0
M  V30 1521 H 154.324 -2.27781 -5.02812 0
M  V30 1522 H 154.801 -0.731608 -4.33064 0
M  V30 1523 H 155.407 -2.24238 -3.61382 0
M  V30 1524 N 153.722 1.14298 -1.08507 0
M  V30 1525 C 154.669 2.19414 -0.715965 0
M  V30 1526 C 155.639 1.63399 0.298326 0
M  V30 1527 O 156.824 1.89929 0.182101 0
M  V30 1528 C 153.964 3.44845 -0.132534 0
M  V30 1529 C 153.077 4.15007 -1.19973 0
M  V30 1530 C 152.212 5.28024 -0.580048 0
M  V30 1531 C 151.251 5.9002 -1.62921 0
M  V30 1532 N 150.388 6.94485 -1.03125 0
M  V30 1533 H 155.228 2.50336 -1.61666 0
M  V30 1534 H 152.765 1.2293 -0.807882 0
M  V30 1535 H 154.723 4.16601 0.223454 0
M  V30 1536 H 153.353 3.14403 0.731467 0
M  V30 1537 H 152.405 3.41629 -1.67313 0
M  V30 1538 H 153.717 4.57178 -1.99473 0
M  V30 1539 H 152.871 6.06455 -0.172364 0
M  V30 1540 H 151.61 4.87076 0.246603 0
M  V30 1541 H 150.615 5.10291 -2.04654 0
M  V30 1542 H 151.84 6.33042 -2.45835 0
M  V30 1543 H 149.786 6.55612 -0.225711 0
M  V30 1544 H 149.703 7.35148 -1.76334 0
M  V30 1545 H 150.971 7.7679 -0.649458 0
M  V30 1546 N 155.201 0.870884 1.31352 0
M  V30 1547 C 156.429 0.49677 2.00848 0
M  V30 1548 C 156.844 -0.910998 1.65367 0
M  V30 1549 O 156.201 -1.59696 0.883374 0
M  V30 1550 C 156.252 0.645308 3.55694 0
M  V30 1551 O 155.973 1.99764 3.89905 0
M  V30 1552 C 157.474 0.272326 4.42463 0
M  V30 1553 H 154.694 0.193462 0.642506 0
M  V30 1554 H 157.238 1.1723 1.67563 0
M  V30 1555 H 155.393 0.0173176 3.87396 0
M  V30 1556 H 155.807 2.00607 4.84621 0
M  V30 1557 H 157.281 0.427208 5.50344 0
M  V30 1558 H 157.758 -0.788587 4.32062 0
M  V30 1559 H 158.364 0.876054 4.1618 0
M  V30 1560 N 156.679 -1.44442 0.630414 0
M  V30 1561 C 157.956 -1.9549 0.0655657 0
M  V30 1562 C 158.336 -1.5724 -1.40851 0
M  V30 1563 O 157.684 -0.846116 -2.12257 0
M  V30 1564 C 157.894 -3.47812 0.287691 0
M  V30 1565 C 159.242 -4.24216 0.180513 0
M  V30 1566 O 160.266 -3.55526 0.219019 0
M  V30 1567 O 159.125 -5.46434 0.0848493 0
M  V30 1568 H 156.219 -0.826688 -0.0227177 0
M  V30 1569 H 158.765 -1.54496 0.702068 0
M  V30 1570 H 157.537 -3.687 1.31056 0
M  V30 1571 H 157.16 -3.95751 -0.382984 0
M  V30 1572 N 158.157 -0.370918 -1.53173 0
M  V30 1573 C 159.104 0.473035 -2.259 0
M  V30 1574 C 160.074 1.07311 -1.26781 0
M  V30 1575 O 161.259 1.1046 -1.55574 0
M  V30 1576 C 158.399 1.60405 -3.05556 0
M  V30 1577 C 157.512 1.02863 -4.19575 0
M  V30 1578 C 156.647 2.12918 -4.86661 0
M  V30 1579 C 155.686 1.52869 -5.92704 0
M  V30 1580 N 154.823 2.56779 -6.53459 0
M  V30 1581 H 159.663 -0.153649 -2.97604 0
M  V30 1582 H 157.2 -0.0875946 -1.46839 0
M  V30 1583 H 159.158 2.27034 -3.50016 0
M  V30 1584 H 157.788 2.20131 -2.36097 0
M  V30 1585 H 156.84 0.252465 -3.79561 0
M  V30 1586 H 158.152 0.549642 -4.95762 0
M  V30 1587 H 157.306 2.87356 -5.34333 0
M  V30 1588 H 156.045 2.6417 -4.09958 0
M  V30 1589 H 155.05 0.769479 -5.44389 0
M  V30 1590 H 156.275 1.02435 -6.7133 0
M  V30 1591 H 154.221 3.07235 -5.79606 0
M  V30 1592 H 154.138 2.13583 -7.25202 0
M  V30 1593 H 155.406 3.30903 -7.05779 0
M  V30 1594 N 159.635 1.57281 -0.100228 0
M  V30 1595 C 160.863 1.98879 0.570509 0
M  V30 1596 C 161.278 0.979476 1.61405 0
M  V30 1597 O 160.635 -0.0302288 1.82475 0
M  V30 1598 C 160.686 3.4052 1.2136 0
M  V30 1599 O 160.407 4.37588 0.211786 0
M  V30 1600 C 161.908 3.97149 1.96945 0
M  V30 1601 H 159.128 0.653428 0.152555 0
M  V30 1602 H 161.672 2.03697 -0.18103 0
M  V30 1603 H 159.827 3.367 1.91603 0
M  V30 1604 H 160.241 5.20118 0.676607 0
M  V30 1605 H 161.715 4.98393 2.37294 0
M  V30 1606 H 162.192 3.3525 2.83733 0
M  V30 1607 H 162.798 4.04458 1.31506 0
M  V30 1608 N 161.113 -0.173488 1.56642 0
M  V30 1609 C 162.043 -1.2171 1.99271 0
M  V30 1610 C 163.024 -1.46289 0.867959 0
M  V30 1611 O 164.209 -1.5766 1.13388 0
M  V30 1612 C 161.339 -2.55651 2.35074 0
M  V30 1613 C 160.293 -2.45645 3.50489 0
M  V30 1614 C 159.619 -3.84056 3.72028 0
M  V30 1615 C 160.919 -1.96302 4.84007 0
M  V30 1616 H 162.613 -0.86275 2.867 0
M  V30 1617 H 160.159 -0.413571 1.37933 0
M  V30 1618 H 162.112 -3.2886 2.63494 0
M  V30 1619 H 160.836 -2.92869 1.44552 0
M  V30 1620 H 159.495 -1.7489 3.22194 0
M  V30 1621 H 159.143 -4.18664 2.788 0
M  V30 1622 H 158.843 -3.7823 4.49684 0
M  V30 1623 H 160.367 -4.58854 4.02846 0
M  V30 1624 H 161.781 -2.59284 5.11317 0
M  V30 1625 H 160.178 -2.01429 5.65284 0
M  V30 1626 H 161.248 -0.917226 4.76146 0
M  V30 1627 N 162.591 -1.51276 -0.441967 0
M  V30 1628 C 163.837 -1.63958 -1.19355 0
M  V30 1629 C 164.17 -0.352543 -1.90973 0
M  V30 1630 O 163.445 0.647627 -1.83401 0
M  V30 1631 C 163.728 -2.83979 -2.21422 0
M  V30 1632 C 163.581 -4.22646 -1.53918 0
M  V30 1633 C 164.9 -2.99521 -3.22451 0
M  V30 1634 H 162.019 -0.596709 -0.432559 0
M  V30 1635 H 164.661 -1.83748 -0.483398 0
M  V30 1636 H 162.811 -2.67237 -2.81987 0
M  V30 1637 H 164.483 -4.51045 -0.967256 0
M  V30 1638 H 162.726 -4.25558 -0.841615 0
M  V30 1639 H 163.397 -5.02609 -2.28229 0
M  V30 1640 H 165.873 -3.14944 -2.71937 0
M  V30 1641 H 164.749 -3.85072 -3.91166 0
M  V30 1642 H 165.01 -2.11391 -3.88287 0
M  V30 1643 N 164.069 0.697108 -1.41344 0
M  V30 1644 C 164.999 1.82353 -1.45841 0
M  V30 1645 C 165.98 1.67115 -0.317247 0
M  V30 1646 O 167.165 1.86871 -0.528474 0
M  V30 1647 C 164.295 3.20476 -1.33838 0
M  V30 1648 C 163.249 3.50415 -2.4575 0
M  V30 1649 C 162.575 4.87878 -2.18813 0
M  V30 1650 C 163.875 3.49546 -3.88091 0
M  V30 1651 H 165.569 1.78846 -2.40113 0
M  V30 1652 H 163.115 0.859028 -1.15571 0
M  V30 1653 H 165.068 3.98988 -1.35596 0
M  V30 1654 H 163.792 3.24604 -0.360498 0
M  V30 1655 H 162.451 2.74253 -2.43271 0
M  V30 1656 H 162.099 4.8863 -1.19371 0
M  V30 1657 H 161.799 5.08875 -2.93803 0
M  V30 1658 H 163.323 5.68702 -2.22284 0
M  V30 1659 H 164.737 4.18066 -3.92293 0
M  V30 1660 H 163.134 3.82075 -4.62751 0
M  V30 1661 H 164.204 2.48552 -4.16353 0
M  V30 1662 N 165.547 1.27147 0.931209 0
M  V30 1663 C 166.477 1.12081 2.04842 0
M  V30 1664 C 167.458 0.0232364 1.70084 0
M  V30 1665 O 168.643 0.197085 1.93197 0
M  V30 1666 C 165.773 0.76354 3.38803 0
M  V30 1667 C 164.727 1.81396 3.87659 0
M  V30 1668 C 164.053 1.31075 5.18385 0
M  V30 1669 C 165.353 3.21739 4.11438 0
M  V30 1670 H 167.047 2.05537 2.17703 0
M  V30 1671 H 164.593 0.989603 1.04608 0
M  V30 1672 H 166.546 0.644982 4.16435 0
M  V30 1673 H 165.27 -0.206727 3.25945 0
M  V30 1674 H 163.929 1.92136 3.12217 0
M  V30 1675 H 163.577 0.330037 5.01916 0
M  V30 1676 H 163.277 2.013 5.52044 0
M  V30 1677 H 164.801 1.20506 5.98591 0
M  V30 1678 H 166.215 3.14019 4.79651 0
M  V30 1679 H 164.612 3.89644 4.56397 0
M  V30 1680 H 165.682 3.67054 3.16859 0
M  V30 1681 N 167.025 -1.13721 1.09112 0
M  V30 1682 C 167.958 -2.18094 0.67158 0
M  V30 1683 C 168.936 -1.59414 -0.320299 0
M  V30 1684 O 170.12 -1.87183 -0.222444 0
M  V30 1685 C 167.247 -3.38698 -0.0111189 0
M  V30 1686 C 166.293 -4.15966 0.942055 0
M  V30 1687 S 167.126 -4.7604 2.45246 0
M  V30 1688 C 168.282 -5.99994 1.78208 0
M  V30 1689 H 168.515 -2.53344 1.55577 0
M  V30 1690 H 166.048 -1.24967 0.906789 0
M  V30 1691 H 168.006 -4.08559 -0.398716 0
M  V30 1692 H 166.667 -3.01756 -0.871905 0
M  V30 1693 H 165.86 -5.02318 0.411396 0
M  V30 1694 H 165.462 -3.51745 1.2709 0
M  V30 1695 H 167.754 -6.68441 1.10424 0
M  V30 1696 H 168.697 -6.57662 2.62463 0
M  V30 1697 H 169.105 -5.50432 1.25238 0
M  V30 1698 N 168.503 -0.877838 -1.30888 0
M  V30 1699 C 169.751 -0.491723 -1.96027 0
M  V30 1700 C 170.072 0.960827 -1.69685 0
M  V30 1701 O 169.342 1.67462 -1.01654 0
M  V30 1702 H 167.922 -0.17885 -0.725273 0
M  V30 1703 H 170.584 -1.11935 -1.59551 0
M  V30 1704 H 169.68 -0.656016 -3.05128 0
M  V30 1705 N 169.982 1.44106 -0.638065 0
M  V30 1706 C 170.929 2.30715 0.062701 0
M  V30 1707 C 171.899 1.43882 0.829883 0
M  V30 1708 O 173.084 1.72775 0.809532 0
M  V30 1709 C 170.224 3.29258 1.03358 0
M  V30 1710 C 169.337 4.31192 0.26409 0
M  V30 1711 C 168.472 5.16825 1.22741 0
M  V30 1712 C 167.511 6.10462 0.447475 0
M  V30 1713 N 166.648 6.8877 1.36161 0
M  V30 1714 H 171.488 2.90096 -0.681781 0
M  V30 1715 H 169.025 1.42925 -0.347988 0
M  V30 1716 H 170.983 3.84886 1.60992 0
M  V30 1717 H 169.613 2.71562 1.74511 0
M  V30 1718 H 168.665 3.77981 -0.428295 0
M  V30 1719 H 169.977 4.97619 -0.343052 0
M  V30 1720 H 169.131 5.77004 1.87487 0
M  V30 1721 H 167.87 4.50488 1.86847 0
M  V30 1722 H 166.875 5.49386 -0.213433 0
M  V30 1723 H 168.1 6.78837 -0.188968 0
M  V30 1724 H 166.046 6.25096 1.98975 0
M  V30 1725 H 165.963 7.51663 0.808656 0
M  V30 1726 H 167.231 7.53467 1.99769 0
M  V30 1727 N 171.46 0.379036 1.52974 0
M  V30 1728 C 172.37 -0.468639 2.29872 0
M  V30 1729 C 173.386 -1.08067 1.36373 0
M  V30 1730 O 174.562 -1.08871 1.69438 0
M  V30 1731 C 171.627 -1.58594 3.083 0
M  V30 1732 C 170.688 -1.00007 4.17489 0
M  V30 1733 C 169.921 -2.06413 4.92168 0
M  V30 1734 O 170.144 -3.27751 4.66835 0
M  V30 1735 O 169.078 -1.68717 5.7777 0
M  V30 1736 H 172.904 0.157508 3.03291 0
M  V30 1737 H 170.489 0.143035 1.48714 0
M  V30 1738 H 172.371 -2.23525 3.57232 0
M  V30 1739 H 171.046 -2.19724 2.37703 0
M  V30 1740 H 169.953 -0.314299 3.72777 0
M  V30 1741 H 171.286 -0.433135 4.90291 0
M  V30 1742 N 172.938 -1.57226 0.108567 0
M  V30 1743 C 174.186 -1.94448 -0.550853 0
M  V30 1744 C 174.507 -0.992074 -1.67878 0
M  V30 1745 O 173.777 -0.0465 -1.95845 0
M  V30 1746 H 172.357 -0.717897 -0.206479 0
M  V30 1747 H 175.019 -1.94112 0.175062 0
M  V30 1748 H 174.115 -2.97218 -0.952259 0
M  V30 1749 N 174.416 0.165178 -1.56732 0
M  V30 1750 C 175.662 0.882112 -1.82611 0
M  V30 1751 C 175.995 1.81628 -0.687378 0
M  V30 1752 O 175.27 1.92009 0.310267 0
M  V30 1753 C 175.553 1.67245 -3.18906 0
M  V30 1754 C 175.406 0.760987 -4.43316 0
M  V30 1755 C 176.725 2.63884 -3.52212 0
M  V30 1756 H 173.844 0.319242 -0.664269 0
M  V30 1757 H 176.486 0.148052 -1.89422 0
M  V30 1758 H 174.636 2.29824 -3.1323 0
M  V30 1759 H 176.308 0.147596 -4.61064 0
M  V30 1760 H 174.551 0.0694102 -4.33744 0
M  V30 1761 H 175.222 1.34962 -5.35247 0
M  V30 1762 H 177.698 2.11429 -3.58381 0
M  V30 1763 H 176.574 3.16245 -4.48643 0
M  V30 1764 H 176.835 3.44377 -2.77231 0
M  V30 1765 N 175.894 1.51508 0.433938 0
M  V30 1766 C 176.844 1.69451 1.52546 0
M  V30 1767 C 177.828 0.548474 1.51263 0
M  V30 1768 O 179.02 0.804529 1.57659 0
M  V30 1769 C 176.149 1.82604 2.90707 0
M  V30 1770 C 175.235 3.03002 2.96733 0
M  V30 1771 N 175.626 4.26121 2.72496 0
M  V30 1772 C 173.924 3.02327 3.27894 0
M  V30 1773 C 174.625 5.07407 2.84452 0
M  V30 1774 N 173.601 4.42126 3.16269 0
M  V30 1775 H 177.403 2.62305 1.32564 0
M  V30 1776 H 174.917 1.49202 0.641297 0
M  V30 1777 H 176.914 1.93569 3.69238 0
M  V30 1778 H 175.574 0.909339 3.11707 0
M  V30 1779 H 176.585 4.55009 2.4736 0
M  V30 1780 H 173.262 2.20301 3.54646 0
M  V30 1781 H 174.652 6.15422 2.69639 0
M  V30 1782 N 177.372 -0.689602 1.41712 0
M  V30 1783 C 178.62 -1.4468 1.4111 0
M  V30 1784 C 178.941 -1.94986 0.0232196 0
M  V30 1785 O 178.211 -1.72097 -0.935913 0
M  V30 1786 H 176.791 -0.536847 0.519427 0
M  V30 1787 H 179.453 -0.815825 1.77004 0
M  V30 1788 H 178.549 -2.30706 2.10193 0
M  V30 1789 N 178.85 -1.27639 -0.924453 0
M  V30 1790 C 180.098 -1.13941 -1.66918 0
M  V30 1791 C 180.419 0.314589 -1.92446 0
M  V30 1792 O 179.689 1.21964 -1.53303 0
M  V30 1793 H 178.269 -0.418678 -0.618642 0
M  V30 1794 H 180.931 -1.60213 -1.10985 0
M  V30 1795 H 180.027 -1.67094 -2.63602 0
M  V30 1796 N 180.328 1.1314 -1.09713 0
M  V30 1797 C 181.258 2.20748 -0.761102 0
M  V30 1798 C 182.239 1.68061 0.262566 0
M  V30 1799 O 183.424 1.93765 0.129977 0
M  V30 1800 C 180.554 3.46812 -0.184054 0
M  V30 1801 C 179.508 4.12606 -1.13757 0
M  V30 1802 C 178.834 5.33031 -0.422083 0
M  V30 1803 C 180.134 4.59603 -2.48118 0
M  V30 1804 H 181.828 2.49113 -1.66082 0
M  V30 1805 H 179.374 1.19734 -0.799987 0
M  V30 1806 H 181.327 4.21353 0.0631215 0
M  V30 1807 H 180.051 3.17851 0.750868 0
M  V30 1808 H 178.71 3.40036 -1.37007 0
M  V30 1809 H 178.358 5.00335 0.517072 0
M  V30 1810 H 178.058 5.77999 -1.05788 0
M  V30 1811 H 179.582 6.10325 -0.183277 0
M  V30 1812 H 180.996 5.25552 -2.29059 0
M  V30 1813 H 179.393 5.15321 -3.07514 0
M  V30 1814 H 180.463 3.73971 -3.08665 0
M  V30 1815 N 181.806 0.884767 1.30421 0
M  V30 1816 C 183.055 0.499164 1.95426 0
M  V30 1817 C 183.368 -0.95645 1.70621 0
M  V30 1818 O 184.574 -1.44889 2.29607 0
M  V30 1819 C 183.03 0.84177 3.49917 0
M  V30 1820 C 182.638 2.31514 3.83543 0
M  V30 1821 C 184.382 0.525355 4.21237 0
M  V30 1822 C 182.289 2.59939 5.31212 0
M  V30 1823 H 181.219 0.182944 0.73147 0
M  V30 1824 H 183.87 1.07971 1.48373 0
M  V30 1825 H 182.252 0.190311 3.95542 0
M  V30 1826 H 183.426 3.0109 3.48829 0
M  V30 1827 H 181.741 2.59907 3.25326 0
M  V30 1828 H 184.338 0.714762 5.29901 0
M  V30 1829 H 184.681 -0.535222 4.12845 0
M  V30 1830 H 185.214 1.134 3.81294 0
M  V30 1831 H 181.953 3.64736 5.44654 0
M  V30 1832 H 181.473 1.94972 5.67227 0
M  V30 1833 H 183.152 2.45429 5.98643 0
M  V30 1834 N 183.284 -1.43765 0.645699 0
M  V30 1835 C 184.232 -2.32516 -0.0624849 0
M  V30 1836 C 185.226 -1.48183 -0.820855 0
M  V30 1837 O 186.432 -1.64439 -0.732106 0
M  V30 1838 H 182.807 -0.750989 -0.0389864 0
M  V30 1839 H 184.778 -2.89979 0.703892 0
M  V30 1840 C 183.527 -3.32389 -1.02044 0
M  V30 1841 H 182.85 -3.97301 -0.446312 0
M  V30 1842 H 184.29 -3.97138 -1.48517 0
M  V30 1843 C 182.749 -2.62416 -2.11281 0
M  V30 1844 O 183.279 -2.434 -3.19561 0
M  V30 1845 N 181.485 -2.21913 -1.87624 0
M  V30 1846 H 181.032 -2.37578 -0.995703 0
M  V30 1847 H 180.99 -1.75424 -2.6091 0
M  V30 1848 N 184.763 -0.387143 -1.52771 0
M  V30 1849 C 185.71 0.449048 -2.26389 0
M  V30 1850 C 186.68 1.05961 -1.27912 0
M  V30 1851 O 187.865 1.08804 -1.56737 0
M  V30 1852 C 185.005 1.57155 -3.0724 0
M  V30 1853 C 184.118 0.984066 -4.20643 0
M  V30 1854 C 183.253 2.07745 -4.88892 0
M  V30 1855 C 182.292 1.46574 -5.94292 0
M  V30 1856 N 181.429 2.49834 -6.56146 0
M  V30 1857 H 186.269 -0.185205 -2.97424 0
M  V30 1858 H 183.806 -0.103164 -1.46738 0
M  V30 1859 H 185.764 2.23309 -3.52405 0
M  V30 1860 H 184.394 2.17615 -2.38419 0
M  V30 1861 H 183.446 0.212193 -3.79808 0
M  V30 1862 H 184.758 0.497029 -4.96318 0
M  V30 1863 H 183.912 2.81673 -5.3735 0
M  V30 1864 H 182.651 2.59807 -4.12737 0
M  V30 1865 H 181.656 0.711696 -5.45174 0
M  V30 1866 H 182.881 0.953088 -6.72379 0
M  V30 1867 H 180.827 3.0107 -5.82832 0
M  V30 1868 H 180.744 2.05879 -7.27427 0
M  V30 1869 H 182.012 3.23399 -7.09249 0
M  V30 1870 N 186.241 1.57166 -0.116904 0
M  V30 1871 C 187.188 2.15202 0.83408 0
M  V30 1872 C 188.158 1.07644 1.26499 0
M  V30 1873 O 189.343 1.35541 1.34288 0
M  V30 1874 C 186.483 2.75405 2.07957 0
M  V30 1875 C 185.596 3.97264 1.69721 0
M  V30 1876 C 184.731 4.45561 2.89221 0
M  V30 1877 C 183.77 5.59956 2.47215 0
M  V30 1878 N 182.907 6.03006 3.59622 0
M  V30 1879 H 187.747 2.96141 0.332335 0
M  V30 1880 H 185.284 1.46309 0.152349 0
M  V30 1881 H 187.242 3.08439 2.80929 0
M  V30 1882 H 185.872 1.97159 2.55594 0
M  V30 1883 H 184.924 3.70404 0.866316 0
M  V30 1884 H 186.236 4.80226 1.34849 0
M  V30 1885 H 185.39 4.80493 3.7042 0
M  V30 1886 H 184.129 3.61544 3.27318 0
M  V30 1887 H 183.134 5.2463 1.64448 0
M  V30 1888 H 184.359 6.45738 2.10238 0
M  V30 1889 H 182.305 5.21931 3.97396 0
M  V30 1890 H 182.222 6.80819 3.28667 0
M  V30 1891 H 183.49 6.42576 4.41267 0
M  V30 1892 N 187.719 -0.156864 1.56817 0
M  V30 1893 C 188.959 -0.877453 1.84608 0
M  V30 1894 C 189.323 -1.78791 0.699845 0
M  V30 1895 O 190.524 -2.5472 0.858553 0
M  V30 1896 C 188.795 -1.63992 3.17555 0
M  V30 1897 S 190.354 -2.40729 3.66872 0
M  V30 1898 H 187.172 -0.293612 0.647544 0
M  V30 1899 H 189.774 -0.138099 1.95012 0
M  V30 1900 H 188.478 -0.962363 3.98957 0
M  V30 1901 H 188.009 -2.42038 3.10131 0
M  V30 1902 H 190.024 -3.65725 3.3535 0
M  V30 1903 N 189.197 -1.51736 -0.425897 0
M  V30 1904 C 190.427 -1.68549 -1.19476 0
M  V30 1905 C 190.835 -0.387288 -1.85194 0
M  V30 1906 O 190.178 0.645142 -1.71999 0
M  V30 1907 C 190.24 -2.75275 -2.31223 0
M  V30 1908 C 189.904 -4.17534 -1.8578 0
M  V30 1909 C 190.901 -5.01936 -1.35485 0
M  V30 1910 C 188.586 -4.6369 -1.93123 0
M  V30 1911 C 190.58 -6.30559 -0.931347 0
M  V30 1912 C 188.267 -5.92307 -1.50384 0
M  V30 1913 C 189.265 -6.75569 -1.00473 0
M  V30 1914 O 188.953 -8.0178 -0.583452 0
M  V30 1915 H 188.685 -0.568525 -0.365725 0
M  V30 1916 H 191.239 -1.98982 -0.509444 0
M  V30 1917 H 189.469 -2.40182 -3.03067 0
M  V30 1918 H 191.158 -2.80853 -2.93047 0
M  V30 1919 H 191.924 -4.67475 -1.29197 0
M  V30 1920 H 187.803 -3.98997 -2.30916 0
M  V30 1921 H 191.347 -6.95498 -0.541084 0
M  V30 1922 H 187.244 -6.2628 -1.56346 0
M  V30 1923 H 188.012 -8.1543 -0.708275 0
M  V30 1924 N 190.675 0.682077 -1.42076 0
M  V30 1925 C 191.585 1.82535 -1.47371 0
M  V30 1926 C 192.601 1.7017 -0.363079 0
M  V30 1927 O 193.777 1.91848 -0.612875 0
M  V30 1928 C 190.842 3.18624 -1.36674 0
M  V30 1929 C 189.903 3.42999 -2.58167 0
M  V30 1930 C 189.136 4.72595 -2.4797 0
M  V30 1931 O 189.359 5.50006 -1.5116 0
M  V30 1932 O 188.293 4.98054 -3.37974 0
M  V30 1933 H 192.119 1.81023 -2.43853 0
M  V30 1934 H 189.704 0.836887 -1.2376 0
M  V30 1935 H 191.586 3.99847 -1.33043 0
M  V30 1936 H 190.261 3.20789 -0.433138 0
M  V30 1937 H 189.168 2.61653 -2.67373 0
M  V30 1938 H 190.501 3.45659 -3.50401 0
M  V30 1939 N 192.153 1.28127 0.917671 0
M  V30 1940 C 193.086 1.06039 2.02067 0
M  V30 1941 C 194.064 -0.0223285 1.62585 0
M  V30 1942 O 195.248 0.124823 1.88086 0
M  V30 1943 C 192.375 0.610596 3.33151 0
M  V30 1944 C 191.421 1.68937 3.91615 0
M  V30 1945 S 192.254 3.28437 4.22953 0
M  V30 1946 C 193.41 2.85283 5.57103 0
M  V30 1947 H 193.643 1.99425 2.20493 0
M  V30 1948 H 191.176 1.12071 1.06205 0
M  V30 1949 H 193.134 0.357778 4.08938 0
M  V30 1950 H 191.795 -0.303364 3.12632 0
M  V30 1951 H 190.988 1.32619 4.86239 0
M  V30 1952 H 190.59 1.89478 3.2245 0
M  V30 1953 H 192.882 2.3121 6.36827 0
M  V30 1954 H 193.825 3.7869 5.98331 0
M  V30 1955 H 194.233 2.24118 5.18104 0
M  V30 1956 N 193.631 -1.12557 1.10312 0
M  V30 1957 C 194.594 -2.16434 0.75424 0
M  V30 1958 C 195.594 -1.59278 -0.220685 0
M  V30 1959 O 196.784 -1.742 0.00230591 0
M  V30 1960 C 193.916 -3.40699 0.116987 0
M  V30 1961 H 195.109 -2.48811 1.67431 0
M  V30 1962 H 192.662 -1.27542 0.903475 0
M  V30 1963 H 193.397 -3.13921 -0.813877 0
M  V30 1964 H 193.182 -3.83459 0.818613 0
M  V30 1965 H 194.672 -4.17451 -0.111387 0
M  V30 1966 N 195.109 -0.891671 -1.2995 0
M  V30 1967 C 196.334 -0.527932 -2.00568 0
M  V30 1968 C 196.759 0.877969 -1.66353 0
M  V30 1969 O 196.117 1.58301 -0.883762 0
M  V30 1970 C 196.165 -0.717745 -3.53385 0
M  V30 1971 O 195.269 0.233376 -4.11739 0
M  V30 1972 H 194.61 -0.20722 -0.630837 0
M  V30 1973 H 197.14 -1.20105 -1.65638 0
M  V30 1974 H 197.15 -0.619307 -4.03272 0
M  V30 1975 H 195.825 -1.74276 -3.77625 0
M  V30 1976 H 194.402 0.0880706 -3.72796 0
M  V30 1977 N 196.587 1.43421 -0.653314 0
M  V30 1978 C 197.537 2.2792 0.060558 0
M  V30 1979 C 198.521 1.39906 0.794677 0
M  V30 1980 O 199.713 1.63536 0.677128 0
M  V30 1981 C 196.842 3.27603 1.0262 0
M  V30 1982 C 195.928 4.23104 0.290551 0
M  V30 1983 N 196.319 5.01031 -0.692967 0
M  V30 1984 C 194.617 4.42816 0.531984 0
M  V30 1985 C 195.318 5.70626 -1.12963 0
M  V30 1986 N 194.294 5.41617 -0.463867 0
M  V30 1987 H 198.096 2.85585 -0.694143 0
M  V30 1988 H 195.61 1.55126 -0.480602 0
M  V30 1989 H 197.607 3.86918 1.55242 0
M  V30 1990 H 196.267 2.71499 1.78096 0
M  V30 1991 H 197.278 5.0669 -1.07169 0
M  V30 1992 H 193.955 3.97782 1.26791 0
M  V30 1993 H 195.345 6.4318 -1.94343 0
M  V30 1994 N 198.065 0.39524 1.52563 0
M  V30 1995 C 198.995 -0.428384 2.29537 0
M  V30 1996 C 199.976 -1.05831 1.33169 0
M  V30 1997 O 201.161 -1.06995 1.62067 0
M  V30 1998 C 198.291 -1.55274 3.10656 0
M  V30 1999 C 197.245 -1.04855 4.14957 0
M  V30 2000 C 196.571 -2.26543 4.84337 0
M  V30 2001 C 197.871 -0.112324 5.22179 0
M  V30 2002 H 199.565 0.213867 2.98635 0
M  V30 2003 H 197.111 0.104298 1.43622 0
M  V30 2004 H 199.064 -2.1358 3.63265 0
M  V30 2005 H 197.788 -2.22266 2.39302 0
M  V30 2006 H 196.447 -0.487985 3.63338 0
M  V30 2007 H 196.095 -2.92059 4.09525 0
M  V30 2008 H 195.795 -1.93466 5.54837 0
M  V30 2009 H 197.319 -2.85481 5.39753 0
M  V30 2010 H 198.733 -0.603752 5.70112 0
M  V30 2011 H 197.13 0.128968 5.99961 0
M  V30 2012 H 198.2 0.837052 4.77621 0
M  V30 2013 N 199.544 -1.57102 0.125237 0
M  V30 2014 C 200.96 -1.57915 -0.231322 0
M  V30 2015 C 201.16 -1.13833 -1.66266 0
M  V30 2016 O 200.216 -0.828581 -2.38518 0
M  V30 2017 C 201.529 -3.00699 0.00766489 0
M  V30 2018 C 203.077 -3.12947 -0.0577483 0
M  V30 2019 C 203.552 -4.57742 0.153626 0
M  V30 2020 N 205.043 -4.63092 0.0998073 0
M  V30 2021 C 205.778 -5.72905 0.238174 0
M  V30 2022 N 205.274 -6.91445 0.433057 0
M  V30 2023 N 207.067 -5.6182 0.177308 0
M  V30 2024 H 199.218 -1.84055 1.06007 0
M  V30 2025 H 201.481 -0.850905 0.417929 0
M  V30 2026 H 201.187 -3.3726 0.997431 0
M  V30 2027 H 201.061 -3.70236 -0.721452 0
M  V30 2028 H 203.448 -2.7624 -1.03804 0
M  V30 2029 H 203.529 -2.4594 0.70335 0
M  V30 2030 H 203.173 -4.95149 1.13092 0
M  V30 2031 H 203.103 -5.22848 -0.627534 0
M  V30 2032 H 205.594 -3.77871 -0.047051 0
M  V30 2033 H 205.907 -7.70985 0.529332 0
M  V30 2034 H 204.252 -6.93415 0.469109 0
M  V30 2035 H 207.443 -4.68093 0.0259748 0
M  V30 2036 H 207.616 -6.47357 0.288582 0
M  V30 2037 N 201.022 0.148545 -1.56898 0
M  V30 2038 C 202.438 0.501131 -1.51528 0
M  V30 2039 C 202.638 1.83458 -0.833399 0
M  V30 2040 O 201.694 2.49259 -0.40328 0
M  V30 2041 C 203.007 0.512864 -2.96294 0
M  V30 2042 C 204.555 0.598487 -3.07225 0
M  V30 2043 C 205.03 0.640897 -4.53494 0
M  V30 2044 N 206.521 0.703163 -4.57832 0
M  V30 2045 C 207.256 0.756935 -5.68382 0
M  V30 2046 N 206.752 0.770147 -6.88506 0
M  V30 2047 N 208.545 0.797698 -5.56411 0
M  V30 2048 H 200.696 -0.725532 -1.99624 0
M  V30 2049 H 202.959 -0.264358 -0.910395 0
M  V30 2050 H 202.665 -0.398691 -3.49433 0
M  V30 2051 H 202.539 1.35133 -3.52163 0
M  V30 2052 H 204.926 1.50046 -2.54106 0
M  V30 2053 H 205.007 -0.267093 -2.54402 0
M  V30 2054 H 204.651 -0.256915 -5.0725 0
M  V30 2055 H 204.581 1.52295 -5.04097 0
M  V30 2056 H 207.072 0.700314 -3.71354 0
M  V30 2057 H 207.385 0.812983 -7.68512 0
M  V30 2058 H 205.73 0.738049 -6.9107 0
M  V30 2059 H 208.921 0.784535 -4.61479 0
M  V30 2060 H 209.094 0.83614 -6.42583 0
M  V30 2061 N 202.5 1.5196 0.417844 0
M  V30 2062 C 203.725 1.69717 1.1921 0
M  V30 2063 C 204.15 0.402148 1.83751 0
M  V30 2064 O 203.508 -0.639593 1.69643 0
M  V30 2065 C 203.556 2.82794 2.2374 0
M  V30 2066 O 202.66 2.47756 3.29683 0
M  V30 2067 H 202.001 0.565263 0.348387 0
M  V30 2068 H 204.531 1.98621 0.490985 0
M  V30 2069 H 204.541 3.07452 2.68212 0
M  V30 2070 H 203.216 3.76756 1.76146 0
M  V30 2071 H 201.793 2.33739 2.90552 0
M  V30 2072 N 203.978 -0.674533 1.42435 0
M  V30 2073 C 204.91 -1.80005 1.41883 0
M  V30 2074 C 205.923 -1.59667 0.31787 0
M  V30 2075 O 207.112 -1.68781 0.580973 0
M  V30 2076 C 204.212 -3.17114 1.19549 0
M  V30 2077 C 203.385 -3.64299 2.42084 0
M  V30 2078 C 202.444 -4.80142 2.15291 0
M  V30 2079 O 201.47 -4.90673 2.88493 0
M  V30 2080 N 202.672 -5.68869 1.1562 0
M  V30 2081 H 205.437 -1.80964 2.38898 0
M  V30 2082 H 202.998 -0.857633 1.37318 0
M  V30 2083 H 204.99 -3.92267 0.995417 0
M  V30 2084 H 203.56 -3.11053 0.310569 0
M  V30 2085 H 202.78 -2.79822 2.77657 0
M  V30 2086 H 204.068 -3.92567 3.23679 0
M  V30 2087 H 203.466 -5.63012 0.550765 0
M  V30 2088 H 202.023 -6.43833 1.016 0
M  V30 2089 N 205.456 -1.28612 -0.910864 0
M  V30 2090 C 206.686 -1.1862 -1.69153 0
M  V30 2091 C 207.094 0.257324 -1.87442 0
M  V30 2092 O 206.437 1.18543 -1.40332 0
M  V30 2093 C 206.499 -1.81606 -3.10257 0
M  V30 2094 C 206.163 -3.30864 -3.15243 0
M  V30 2095 C 207.16 -4.27256 -2.96223 0
M  V30 2096 C 204.845 -3.71871 -3.37664 0
M  V30 2097 C 206.839 -5.62631 -2.99541 0
M  V30 2098 C 204.526 -5.07371 -3.40614 0
M  V30 2099 C 205.524 -6.02561 -3.21573 0
M  V30 2100 O 205.212 -7.35589 -3.2429 0
M  V30 2101 H 204.944 -0.412633 -0.535453 0
M  V30 2102 H 207.498 -1.70306 -1.14827 0
M  V30 2103 H 205.728 -1.24418 -3.66138 0
M  V30 2104 H 207.417 -1.66092 -3.70362 0
M  V30 2105 H 208.183 -3.9691 -2.78725 0
M  V30 2106 H 204.062 -2.98241 -3.5153 0
M  V30 2107 H 207.606 -6.36907 -2.84597 0
M  V30 2108 H 203.503 -5.37366 -3.57642 0
M  V30 2109 H 204.271 -7.44252 -3.40633 0
M  V30 2110 O 206.973 1.04587 -1.2306 0
M  V30 2111 H 207.664 1.65902 -0.999811 0
M  V30 END ATOM
M  V30 BEGIN BOND
M  V30 END BOND
M  V30 END CTAB
M  END
$$$$
