drugbank_target|A0A384KMH6 Serine acetyltransferase (DB02078)
 OpenBabel12092120503D

  0  0  0     0  0            999 V3000
M  V30 BEGIN CTAB
M  V30 COUNTS 4120 4159 0 0 0
M  V30 BEGIN ATOM
M  V30 1 H -0.908 1.98254 -0.117106 0
M  V30 2 N 0 1.576 0 0
M  V30 3 C 0.933 2.03868 1.02534 0
M  V30 4 C 1.911 0.928543 1.3348 0
M  V30 5 O 3.095 1.19667 1.45644 0
M  V30 6 C 0.222 2.43627 2.35294 0
M  V30 7 C -0.732 3.65373 2.2001 0
M  V30 8 S 0.101 5.13292 1.52614 0
M  V30 9 C 1.257 5.56322 2.86805 0
M  V30 10 H 1.49 2.90518 0.631377 0
M  V30 11 H -0.977 1.52953 0.210867 0
M  V30 12 H 0.981 2.67203 3.11629 0
M  V30 13 H -0.358 1.57376 2.7183 0
M  V30 14 H -1.165 3.90944 3.18086 0
M  V30 15 H -1.563 3.418 1.51819 0
M  V30 16 H 0.729 5.58782 3.83104 0
M  V30 17 H 1.672 6.56266 2.65933 0
M  V30 18 H 2.08 4.83886 2.90714 0
M  V30 19 N 1.4781 -0.272755 1.55222 0
M  V30 20 C 2.7031 -1.02683 1.80197 0
M  V30 21 C 3.1281 -1.79142 0.573551 0
M  V30 22 O 2.4861 -1.74917 -0.476849 0
M  V30 23 C 2.5341 -1.9609 3.02624 0
M  V30 24 O 1.6381 -3.04863 2.77727 0
M  V30 25 H 0.9791 -0.293557 0.595584 0
M  V30 26 H 3.5091 -0.30159 2.02365 0
M  V30 27 H 3.5191 -2.38039 3.31363 0
M  V30 28 H 2.1941 -1.39851 3.91682 0
M  V30 29 H 0.7711 -2.67228 2.60084 0
M  V30 30 N 2.9562 -1.48159 -0.537278 0
M  V30 31 C 4.1812 -1.59707 -1.32319 0
M  V30 32 C 4.6062 -0.254859 -1.86365 0
M  V30 33 O 3.9642 0.772378 -1.64024 0
M  V30 34 C 4.0122 -2.6412 -2.45505 0
M  V30 35 O 3.1162 -2.20774 -3.48328 0
M  V30 36 H 2.4572 -0.535791 -0.392204 0
M  V30 37 H 4.9872 -1.94092 -0.647268 0
M  V30 38 H 4.9972 -2.85166 -2.91795 0
M  V30 39 H 3.6722 -3.61567 -2.05528 0
M  V30 40 H 2.2492 -2.09911 -3.08207 0
M  V30 41 N 4.4343 0.785586 -1.36625 0
M  V30 42 C 5.3443 1.92964 -1.33425 0
M  V30 43 C 6.3603 1.72394 -0.235851 0
M  V30 44 O 7.5363 1.95866 -0.468878 0
M  V30 45 C 4.6013 3.27884 -1.12662 0
M  V30 46 C 3.6623 3.61204 -2.32013 0
M  V30 47 C 2.8953 4.89687 -2.12231 0
M  V30 48 O 3.1183 5.59704 -1.09945 0
M  V30 49 O 2.0523 5.21752 -3.00098 0
M  V30 50 H 5.8783 1.98613 -2.29753 0
M  V30 51 H 3.4633 0.926384 -1.17211 0
M  V30 52 H 5.3453 4.08614 -1.03016 0
M  V30 53 H 4.0203 3.23118 -0.193991 0
M  V30 54 H 2.9273 2.80765 -2.47228 0
M  V30 55 H 4.2603 3.70698 -3.23796 0
M  V30 56 N 5.9124 1.20967 1.01018 0
M  V30 57 C 6.8224 0.980157 2.13143 0
M  V30 58 C 7.8384 -0.0660665 1.73875 0
M  V30 59 O 9.0144 0.122821 2.01025 0
M  V30 60 C 6.0794 0.54216 3.42435 0
M  V30 61 C 5.1404 1.65999 3.95908 0
M  V30 62 C 4.3734 1.2428 5.19028 0
M  V30 63 O 4.5964 0.114196 5.70286 0
M  V30 64 O 3.5304 2.05271 5.65816 0
M  V30 65 H 7.3564 1.91913 2.35379 0
M  V30 66 H 4.9414 0.994099 1.11526 0
M  V30 67 H 6.8234 0.30744 4.20277 0
M  V30 68 H 5.4984 -0.36815 3.216 0
M  V30 69 H 4.4054 1.94906 3.19316 0
M  V30 70 H 5.7384 2.54753 4.21143 0
M  V30 71 N 7.3905 -1.2043 1.01659 0
M  V30 72 C 8.3205 -2.25466 0.607226 0
M  V30 73 C 9.3015 -1.65853 -0.377716 0
M  V30 74 O 10.4865 -1.92409 -0.263149 0
M  V30 75 C 7.6165 -3.47256 -0.0552949 0
M  V30 76 C 6.5705 -4.19462 0.850632 0
M  V30 77 C 5.8965 -5.34673 0.0538859 0
M  V30 78 C 7.1965 -4.75603 2.15868 0
M  V30 79 H 8.8905 -2.59962 1.48526 0
M  V30 80 H 6.4365 -1.2496 0.715605 0
M  V30 81 H 8.3895 -4.19917 -0.353233 0
M  V30 82 H 7.1135 -3.11924 -0.968045 0
M  V30 83 H 5.7725 -3.48667 1.13257 0
M  V30 84 H 5.4205 -4.95585 -0.860514 0
M  V30 85 H 5.1205 -5.83913 0.657192 0
M  V30 86 H 6.6445 -6.10138 -0.237598 0
M  V30 87 H 8.0585 -5.40083 1.92311 0
M  V30 88 H 6.4555 -5.3528 2.71284 0
M  V30 89 H 7.5255 -3.94346 2.82169 0
M  V30 90 N 8.8686 -0.792821 -1.36206 0
M  V30 91 C 9.7786 -0.194808 -2.3379 0
M  V30 92 C 10.7946 0.654869 -1.61206 0
M  V30 93 O 11.9706 0.569856 -1.9317 0
M  V30 94 C 9.0356 0.657721 -3.40404 0
M  V30 95 C 8.0966 -0.210849 -4.28782 0
M  V30 96 C 7.3296 0.601086 -5.30304 0
M  V30 97 O 7.5526 1.83682 -5.40016 0
M  V30 98 O 6.4866 -0.000808277 -6.019 0
M  V30 99 H 10.3126 -1.00172 -2.86704 0
M  V30 100 H 7.8976 -0.554341 -1.38735 0
M  V30 101 H 9.7796 1.14375 -4.05581 0
M  V30 102 H 8.4546 1.44247 -2.89784 0
M  V30 103 H 7.3616 -0.743714 -3.66633 0
M  V30 104 H 8.6946 -0.959195 -4.82763 0
M  V30 105 N 10.3467 1.47872 -0.545128 0
M  V30 106 C 11.2787 2.27869 0.246621 0
M  V30 107 C 12.2917 1.36282 0.890561 0
M  V30 108 O 13.4807 1.61207 0.766449 0
M  V30 109 C 10.5807 3.10159 1.36582 0
M  V30 110 C 9.7537 4.29627 0.820954 0
M  V30 111 C 8.8127 4.93607 1.82314 0
M  V30 112 O 7.8387 5.52366 1.37406 0
M  V30 113 N 9.0407 4.87211 3.15603 0
M  V30 114 H 11.8057 2.96459 -0.439539 0
M  V30 115 H 9.3667 1.57367 -0.380421 0
M  V30 116 H 11.3587 3.49829 2.03474 0
M  V30 117 H 9.9287 2.43891 1.9554 0
M  V30 118 H 9.1487 3.94192 -0.0244032 0
M  V30 119 H 10.4367 5.06928 0.436063 0
M  V30 120 H 9.8347 4.40651 3.54744 0
M  V30 121 H 8.3917 5.30937 3.78087 0
M  V30 122 N 11.8248 0.280983 1.55075 0
M  V30 123 C 13.0708 -0.33461 2.00021 0
M  V30 124 C 13.4038 -1.55063 1.16915 0
M  V30 125 O 12.6788 -1.93006 0.240646 0
M  V30 126 C 12.9618 -0.711007 3.53011 0
M  V30 127 C 12.8148 0.512766 4.46868 0
M  V30 128 C 14.1338 -1.54522 4.12081 0
M  V30 129 H 11.2528 -0.120147 0.727141 0
M  V30 130 H 13.8948 0.389097 1.85973 0
M  V30 131 H 12.0448 -1.32761 3.65112 0
M  V30 132 H 13.7168 1.15131 4.46702 0
M  V30 133 H 11.9598 1.14975 4.18286 0
M  V30 134 H 12.6308 0.205556 5.51617 0
M  V30 135 H 15.1068 -1.02442 4.03293 0
M  V30 136 H 13.9828 -1.77739 5.19327 0
M  V30 137 H 14.2438 -2.52813 3.62682 0
M  V30 138 N 13.3029 -1.57598 0.00835791 0
M  V30 139 C 14.5489 -1.92046 -0.670055 0
M  V30 140 C 14.9039 -0.88351 -1.70915 0
M  V30 141 O 14.1969 0.103223 -1.91322 0
M  V30 142 C 14.3909 -3.3101 -1.34787 0
M  V30 143 C 14.2199 -4.48126 -0.375945 0
M  V30 144 C 12.9899 -5.05297 0.0166914 0
M  V30 145 C 15.1879 -5.1303 0.361272 0
M  V30 146 N 13.1699 -6.05931 0.985952 0
M  V30 147 C 14.5409 -6.08571 1.18495 0
M  V30 148 C 16.5959 -4.9609 0.42421 0
M  V30 149 C 15.2989 -6.88996 2.06584 0
M  V30 150 C 17.3249 -5.77107 1.29236 0
M  V30 151 C 16.6869 -6.72248 2.10386 0
M  V30 152 H 12.7859 -0.75096 -0.218136 0
M  V30 153 H 15.3699 -1.94572 0.0706669 0
M  V30 154 H 13.5409 -3.29342 -2.05884 0
M  V30 155 H 15.2729 -3.52864 -1.98164 0
M  V30 156 H 12.0279 -4.72279 -0.353435 0
M  V30 157 H 12.4519 -6.60932 1.4662 0
M  V30 158 H 17.0939 -4.22378 -0.188915 0
M  V30 159 H 14.8119 -7.62028 2.6896 0
M  V30 160 H 18.3979 -5.66038 1.34508 0
M  V30 161 H 17.2779 -7.33846 2.76476 0
M  V30 162 N 14.781 0.264519 -1.55364 0
M  V30 163 C 16.006 1.01726 -1.80739 0
M  V30 164 C 16.431 1.78836 -0.583044 0
M  V30 165 O 15.789 1.75167 0.467566 0
M  V30 166 C 15.837 1.94482 -3.03659 0
M  V30 167 O 14.941 3.03386 -2.7934 0
M  V30 168 H 14.282 0.290395 -0.597132 0
M  V30 169 H 16.812 0.290854 -2.02522 0
M  V30 170 H 16.822 2.36278 -3.32621 0
M  V30 171 H 15.497 1.37772 -3.92418 0
M  V30 172 H 14.074 2.65844 -2.61498 0
M  V30 173 N 16.2591 1.48442 0.529413 0
M  V30 174 C 17.2071 1.63452 1.65487 0
M  V30 175 C 18.2011 0.500955 1.61823 0
M  V30 176 O 19.4071 0.679695 1.66674 0
M  V30 177 H 15.7821 0.514905 0.548066 0
M  V30 178 H 17.7531 2.57975 1.49971 0
M  V30 179 C 16.5021 1.69196 3.03756 0
M  V30 180 H 15.8251 2.55784 3.07269 0
M  V30 181 H 17.2651 1.83743 3.82119 0
M  V30 182 C 15.7241 0.430765 3.34135 0
M  V30 183 O 16.2541 -0.4561 3.99102 0
M  V30 184 N 14.4601 0.302293 2.89023 0
M  V30 185 H 14.0071 1.02496 2.36331 0
M  V30 186 H 13.9651 -0.540546 3.09718 0
M  V30 187 N 17.7372 -0.778329 1.37039 0
M  V30 188 C 18.9862 -1.53189 1.3121 0
M  V30 189 C 19.2992 -1.95328 -0.103095 0
M  V30 190 O 20.5052 -2.70012 -0.283826 0
M  V30 191 C 18.9612 -2.76591 2.30272 0
M  V30 192 C 18.5692 -2.41577 3.77286 0
M  V30 193 C 20.3132 -3.5455 2.33441 0
M  V30 194 C 18.2202 -3.61441 4.68096 0
M  V30 195 H 17.1502 -0.5751 0.487622 0
M  V30 196 H 19.8012 -0.853101 1.62464 0
M  V30 197 H 18.1832 -3.46326 1.92027 0
M  V30 198 H 19.3572 -1.79668 4.2433 0
M  V30 199 H 17.6722 -1.76806 3.76999 0
M  V30 200 H 20.2692 -4.43628 2.98493 0
M  V30 201 H 20.6122 -3.93936 1.34611 0
M  V30 202 H 21.1452 -2.91805 2.7036 0
M  V30 203 H 17.8842 -3.27142 5.6803 0
M  V30 204 H 17.4042 -4.22478 4.25761 0
M  V30 205 H 19.0832 -4.28335 4.8491 0
M  V30 206 N 19.2153 -1.21501 -1.00376 0
M  V30 207 C 20.1623 -0.975387 -2.09177 0
M  V30 208 C 21.1323 0.0990615 -1.65804 0
M  V30 209 O 22.3173 -0.0483147 -1.90739 0
M  V30 210 C 19.4573 -0.547507 -3.40729 0
M  V30 211 C 18.5703 -1.69153 -3.97506 0
M  V30 212 C 17.7053 -1.2127 -5.17172 0
M  V30 213 C 16.7443 -2.32897 -5.66061 0
M  V30 214 N 15.8813 -1.86138 -6.76976 0
M  V30 215 H 20.7213 -1.9068 -2.29009 0
M  V30 216 H 18.2583 -0.950257 -1.12288 0
M  V30 217 H 20.2163 -0.280667 -4.16255 0
M  V30 218 H 18.8463 0.346904 -3.20931 0
M  V30 219 H 17.8983 -2.07298 -3.18954 0
M  V30 220 H 19.2103 -2.5316 -4.29781 0
M  V30 221 H 18.3643 -0.902591 -5.99948 0
M  V30 222 H 17.1033 -0.342692 -4.86495 0
M  V30 223 H 16.1083 -2.64709 -4.81881 0
M  V30 224 H 17.3333 -3.20396 -5.98768 0
M  V30 225 H 15.2793 -1.01484 -6.48103 0
M  V30 226 H 15.1963 -2.63717 -7.08512 0
M  V30 227 H 16.4643 -1.58165 -7.63285 0
M  V30 228 N 20.6934 1.19889 -1.02296 0
M  V30 229 C 21.9184 1.9393 -0.735237 0
M  V30 230 C 22.3434 1.74639 0.698782 0
M  V30 231 O 21.7014 1.04481 1.48167 0
M  V30 232 C 21.7494 3.43916 -1.08417 0
M  V30 233 O 20.8534 4.11917 -0.199446 0
M  V30 234 H 20.1944 0.605645 -0.272196 0
M  V30 235 H 22.7244 1.52137 -1.36804 0
M  V30 236 H 22.7344 3.9456 -1.03856 0
M  V30 237 H 21.4094 3.5728 -2.12894 0
M  V30 238 H 19.9864 3.71666 -0.303136 0
M  V30 239 N 22.1715 0.800033 1.35784 0
M  V30 240 C 23.0815 0.207204 2.33683 0
M  V30 241 C 24.0975 -0.64631 1.61551 0
M  V30 242 O 25.2735 -0.559604 1.93469 0
M  V30 243 C 22.3385 -0.639659 3.40748 0
M  V30 244 C 21.3995 0.233585 4.28664 0
M  V30 245 C 20.6325 -0.572954 5.30616 0
M  V30 246 O 20.8555 -1.80816 5.40982 0
M  V30 247 O 19.7895 0.0327285 6.01891 0
M  V30 248 H 23.6155 1.01692 2.86169 0
M  V30 249 H 21.2005 0.561691 1.38439 0
M  V30 250 H 23.0825 -1.12223 4.06182 0
M  V30 251 H 21.7575 -1.42708 2.90544 0
M  V30 252 H 20.6645 0.763147 3.66233 0
M  V30 253 H 21.9975 0.984784 4.82248 0
M  V30 254 N 23.6496 -1.47581 0.552962 0
M  V30 255 C 24.6126 -2.28439 -0.186605 0
M  V30 256 C 25.6126 -1.36706 -0.84665 0
M  V30 257 O 26.8026 -1.59378 -0.703164 0
M  V30 258 C 23.9346 -3.16264 -1.2724 0
M  V30 259 H 25.1276 -2.95294 0.523609 0
M  V30 260 H 22.6806 -1.532 0.309745 0
M  V30 261 H 23.4156 -2.54091 -2.01514 0
M  V30 262 H 23.2006 -3.83769 -0.803968 0
M  V30 263 H 24.6906 -3.77198 -1.79196 0
M  V30 264 N 25.1277 -0.289203 -1.54924 0
M  V30 265 C 26.5437 0.0645403 -1.59469 0
M  V30 266 C 26.7437 1.53419 -1.30632 0
M  V30 267 O 25.7997 2.2852 -1.074 0
M  V30 268 C 27.1127 -0.32278 -2.98963 0
M  V30 269 C 28.6607 -0.270564 -3.11828 0
M  V30 270 C 29.1357 -0.632532 -4.53611 0
M  V30 271 N 30.6267 -0.584617 -4.59496 0
M  V30 272 C 31.3617 -0.837314 -5.67254 0
M  V30 273 N 30.8577 -1.15536 -6.83098 0
M  V30 274 N 32.6507 -0.765166 -5.56868 0
M  V30 275 H 24.8017 -1.24714 -1.71931 0
M  V30 276 H 27.0647 -0.504809 -0.802416 0
M  V30 277 H 26.7707 -1.34541 -3.24948 0
M  V30 278 H 26.6447 0.32944 -3.75759 0
M  V30 279 H 29.0317 0.742805 -2.85598 0
M  V30 280 H 29.1127 -0.957242 -2.37214 0
M  V30 281 H 28.7567 -1.64365 -4.80569 0
M  V30 282 H 28.6867 0.07609 -5.26545 0
M  V30 283 H 31.1777 -0.349248 -3.76283 0
M  V30 284 H 31.4907 -1.33447 -7.61191 0
M  V30 285 H 29.8357 -1.19328 -6.84679 0
M  V30 286 H 33.0267 -0.516432 -4.65243 0
M  V30 287 H 33.1997 -0.965477 -6.40767 0
M  V30 288 N 26.6058 1.57591 -0.0167156 0
M  V30 289 C 27.5688 2.08393 0.954204 0
M  V30 290 C 28.5688 0.996531 1.26198 0
M  V30 291 O 29.7588 1.25858 1.20438 0
M  V30 292 C 26.8908 2.5394 2.27436 0
M  V30 293 H 28.0838 2.95455 0.514451 0
M  V30 294 H 25.6368 1.54582 0.231089 0
M  V30 295 H 26.3718 1.70171 2.76066 0
M  V30 296 H 26.1568 3.33371 2.06412 0
M  V30 297 H 27.6468 2.93512 2.97053 0
M  V30 298 N 28.0839 -0.256276 1.55502 0
M  V30 299 C 29.0139 -1.32102 1.92539 0
M  V30 300 C 29.9949 -1.50684 0.789194 0
M  V30 301 O 31.1799 -1.63449 1.04872 0
M  V30 302 C 28.3099 -2.67752 2.21192 0
M  V30 303 C 27.2639 -2.63878 3.36975 0
M  V30 304 C 26.5899 -4.03236 3.51147 0
M  V30 305 C 27.8899 -2.21682 4.72921 0
M  V30 306 H 29.5839 -1.01351 2.81724 0
M  V30 307 H 27.1299 -0.486105 1.35547 0
M  V30 308 H 29.0829 -3.42365 2.45691 0
M  V30 309 H 27.8069 -3.0012 1.28824 0
M  V30 310 H 26.4659 -1.91722 3.12471 0
M  V30 311 H 26.1139 -4.32854 2.56216 0
M  V30 312 H 25.8139 -4.01535 4.29003 0
M  V30 313 H 27.3379 -4.79563 3.77957 0
M  V30 314 H 28.7519 -2.86023 4.96854 0
M  V30 315 H 27.1489 -2.3111 5.53812 0
M  V30 316 H 28.2189 -1.16833 4.70615 0
M  V30 317 N 29.562 -1.4872 -0.521534 0
M  V30 318 C 30.525 -1.63379 -1.60748 0
M  V30 319 C 31.525 -0.50661 -1.52611 0
M  V30 320 O 32.715 -0.772601 -1.5613 0
M  V30 321 C 29.847 -1.61192 -3.00383 0
M  V30 322 H 31.04 -2.60217 -1.49087 0
M  V30 323 H 28.593 -1.37444 -0.744235 0
M  V30 324 H 29.328 -0.65863 -3.17541 0
M  V30 325 H 29.113 -2.43032 -3.07698 0
M  V30 326 H 30.603 -1.7466 -3.7932 0
M  V30 327 N 31.0401 0.771051 -1.3745 0
M  V30 328 C 31.9501 1.91538 -1.35464 0
M  V30 329 C 32.9661 1.72134 -0.254123 0
M  V30 330 O 34.1421 1.95358 -0.489626 0
M  V30 331 C 31.2071 3.26671 -1.16134 0
M  V30 332 C 30.2681 3.58723 -2.35831 0
M  V30 333 C 29.5011 4.87409 -2.17413 0
M  V30 334 O 29.7241 5.58506 -1.15876 0
M  V30 335 O 28.6581 5.18539 -3.05615 0
M  V30 336 H 32.4841 1.96165 -2.31847 0
M  V30 337 H 30.0691 0.9139 -1.18187 0
M  V30 338 H 31.9511 4.07499 -1.07345 0
M  V30 339 H 30.6261 3.22894 -0.228251 0
M  V30 340 H 29.5331 2.78127 -2.50192 0
M  V30 341 H 30.8661 3.67243 -3.27709 0
M  V30 342 N 32.5182 1.22032 0.997298 0
M  V30 343 C 33.7582 1.05375 1.75144 0
M  V30 344 C 34.1222 -0.404696 1.87686 0
M  V30 345 O 35.3232 -0.691998 2.5974 0
M  V30 346 C 33.5942 1.74046 3.12158 0
M  V30 347 S 35.1532 1.72745 4.03366 0
M  V30 348 H 31.9712 0.377449 0.602539 0
M  V30 349 H 34.5732 1.54902 1.19272 0
M  V30 350 H 33.2772 2.79332 3.00669 0
M  V30 351 H 32.8082 1.24731 3.73103 0
M  V30 352 H 34.8232 0.774015 4.90126 0
M  V30 353 N 33.9963 -1.19345 1.0293 0
M  V30 354 C 34.9063 -2.26245 0.620515 0
M  V30 355 C 35.9223 -1.70486 -0.347928 0
M  V30 356 O 37.0983 -2.00347 -0.205704 0
M  V30 357 C 34.1633 -3.46693 -0.0218957 0
M  V30 358 C 33.2243 -4.17632 0.994102 0
M  V30 359 C 32.4573 -5.32329 0.382253 0
M  V30 360 O 32.6803 -5.64552 -0.814676 0
M  V30 361 O 31.6143 -5.91664 1.10531 0
M  V30 362 H 35.4403 -2.63453 1.51083 0
M  V30 363 H 33.0253 -1.26207 0.799513 0
M  V30 364 H 34.9073 -4.19683 -0.380072 0
M  V30 365 H 33.5823 -3.11333 -0.886209 0
M  V30 366 H 32.4893 -3.4676 1.40387 0
M  V30 367 H 33.8223 -4.56964 1.8288 0
M  V30 368 N 35.4744 -0.807222 -1.35358 0
M  V30 369 C 36.8854 -0.44876 -1.81226 0
M  V30 370 C 37.2364 1.02929 -1.67033 0
M  V30 371 O 36.3614 1.79991 -1.20133 0
M  V30 372 C 36.9564 -0.807774 -3.2903 0
M  V30 373 C 35.5154 -0.501901 -3.73039 0
M  V30 374 C 34.6624 -1.03304 -2.57339 0
M  V30 375 H 37.6134 -0.998808 -1.23327 0
M  V30 376 H 37.6344 -0.10554 -3.80354 0
M  V30 377 H 37.1464 -1.88357 -3.39328 0
M  V30 378 H 35.2474 0.565128 -3.68289 0
M  V30 379 H 35.3604 -1.03497 -4.67787 0
M  V30 380 H 33.7244 -0.455339 -2.50597 0
M  V30 381 H 34.5074 -2.11496 -2.70415 0
M  V30 382 N 36.9525 1.47285 -0.560781 0
M  V30 383 C 37.8855 2.27009 0.232821 0
M  V30 384 C 38.8635 1.34273 0.917039 0
M  V30 385 O 40.0475 1.63659 0.935315 0
M  V30 386 C 37.1745 3.11406 1.33206 0
M  V30 387 C 36.2205 4.19746 0.756019 0
M  V30 388 S 37.0535 5.34003 -0.400165 0
M  V30 389 C 38.2095 6.21964 0.700805 0
M  V30 390 H 38.4425 2.93971 -0.443683 0
M  V30 391 H 35.9755 1.50446 -0.347181 0
M  V30 392 H 37.9335 3.60601 1.96156 0
M  V30 393 H 36.5945 2.438 1.98041 0
M  V30 394 H 35.7875 4.78541 1.5816 0
M  V30 395 H 35.3895 3.73451 0.202619 0
M  V30 396 H 37.6815 6.58529 1.59202 0
M  V30 397 H 38.6245 7.07941 0.150126 0
M  V30 398 H 39.0325 5.5566 0.995083 0
M  V30 399 N 38.4306 0.297415 1.54768 0
M  V30 400 C 39.3606 -0.573494 2.26348 0
M  V30 401 C 40.3416 -1.14085 1.26169 0
M  V30 402 O 41.5266 -1.17086 1.54934 0
M  V30 403 C 38.6566 -1.74716 3.00153 0
M  V30 404 C 37.6106 -1.31032 4.07449 0
M  V30 405 C 36.9366 -2.56887 4.68949 0
M  V30 406 C 38.2366 -0.444183 5.20408 0
M  V30 407 H 39.9306 0.0235131 2.99391 0
M  V30 408 H 37.4766 0.0127488 1.43994 0
M  V30 409 H 39.4296 -2.3625 3.48947 0
M  V30 410 H 38.1536 -2.37035 2.24682 0
M  V30 411 H 36.8126 -0.718066 3.59499 0
M  V30 412 H 36.4606 -3.17512 3.90122 0
M  V30 413 H 36.1606 -2.2836 5.41411 0
M  V30 414 H 37.6846 -3.19229 5.20505 0
M  V30 415 H 39.0986 -0.9651 5.65118 0
M  V30 416 H 37.4956 -0.252846 5.99567 0
M  V30 417 H 38.5656 0.531609 4.81977 0
M  V30 418 N 39.9087 -1.5758 0.0250728 0
M  V30 419 C 40.8717 -2.08896 -0.943139 0
M  V30 420 C 41.8717 -1.00321 -1.25668 0
M  V30 421 O 43.0617 -1.26495 -1.19769 0
M  V30 422 C 40.1937 -2.55143 -2.26086 0
M  V30 423 H 41.3867 -2.95723 -0.498775 0
M  V30 424 H 38.9397 -1.54703 -0.222888 0
M  V30 425 H 39.6747 -1.71633 -2.75159 0
M  V30 426 H 39.4597 -3.34461 -2.04641 0
M  V30 427 H 40.9497 -2.95083 -2.95492 0
M  V30 428 N 41.3868 0.248026 -1.55636 0
M  V30 429 C 42.6118 0.998028 -1.81808 0
M  V30 430 C 43.0368 1.78207 -0.601979 0
M  V30 431 O 42.3948 1.75653 0.448961 0
M  V30 432 C 42.4428 1.9125 -3.05705 0
M  V30 433 O 41.5468 3.00406 -2.82542 0
M  V30 434 H 40.8878 0.284045 -0.600179 0
M  V30 435 H 43.4178 0.269357 -2.02819 0
M  V30 436 H 43.4278 2.32737 -3.35108 0
M  V30 437 H 42.1028 1.33602 -3.93857 0
M  V30 438 H 40.6798 2.63056 -2.64303 0
M  V30 439 N 42.8649 1.48995 0.513639 0
M  V30 440 C 44.1119 1.57843 1.26854 0
M  V30 441 C 44.4399 0.259501 1.92761 0
M  V30 442 O 43.6949 -0.75159 1.80692 0
M  V30 443 C 43.9939 2.67756 2.36731 0
M  V30 444 C 43.6599 4.09669 1.88368 0
M  V30 445 C 42.3219 4.48291 1.74896 0
M  V30 446 C 44.6739 4.98537 1.52021 0
M  V30 447 C 42.0019 5.73568 1.23438 0
M  V30 448 C 44.3539 6.24319 1.0202 0
M  V30 449 C 43.0179 6.61783 0.871778 0
M  V30 450 H 42.2879 0.577587 0.464192 0
M  V30 451 H 44.9349 1.82778 0.571366 0
M  V30 452 H 43.2399 2.36743 3.12185 0
M  V30 453 H 44.9369 2.71813 2.9482 0
M  V30 454 H 41.5269 3.79176 1.99808 0
M  V30 455 H 45.7109 4.69363 1.61281 0
M  V30 456 H 40.9669 6.01304 1.10648 0
M  V30 457 H 45.1409 6.92566 0.729722 0
M  V30 458 H 42.7679 7.5874 0.470852 0
M  V30 459 N 44.343 -0.763751 1.37857 0
M  V30 460 C 45.59 -1.52257 1.33506 0
M  V30 461 C 45.918 -1.94343 -0.078022 0
M  V30 462 O 45.173 -1.64958 -1.05297 0
M  V30 463 C 45.472 -2.79499 2.22745 0
M  V30 464 C 45.138 -2.56426 3.70886 0
M  V30 465 C 43.8 -2.49842 4.11257 0
M  V30 466 C 46.152 -2.36008 4.64704 0
M  V30 467 C 43.48 -2.20841 5.43549 0
M  V30 468 C 45.832 -2.0853 5.97242 0
M  V30 469 C 44.496 -2.00396 6.36709 0
M  V30 470 H 43.766 -0.557149 0.488534 0
M  V30 471 H 46.413 -0.879073 1.70131 0
M  V30 472 H 44.718 -3.48447 1.79142 0
M  V30 473 H 46.415 -3.37413 2.16688 0
M  V30 474 H 43.005 -2.62416 3.38874 0
M  V30 475 H 47.189 -2.40079 4.34368 0
M  V30 476 H 42.445 -2.13045 5.73081 0
M  V30 477 H 46.619 -1.91732 6.69486 0
M  V30 478 H 44.246 -1.77688 7.39142 0
M  V30 479 N 45.8211 -1.22559 -0.990812 0
M  V30 480 C 46.7711 -0.964807 -2.0658 0
M  V30 481 C 47.7551 0.0853472 -1.60673 0
M  V30 482 O 48.9471 -0.125443 -1.76555 0
M  V30 483 C 46.0761 -0.546707 -3.38919 0
M  V30 484 C 45.1621 -1.6317 -3.91454 0
M  V30 485 N 45.5531 -2.85985 -4.17189 0
M  V30 486 C 43.8511 -1.50387 -4.19881 0
M  V30 487 C 44.5521 -3.56159 -4.59919 0
M  V30 488 N 43.5281 -2.83637 -4.63736 0
M  V30 489 H 47.3301 -1.89769 -2.24421 0
M  V30 490 H 44.8441 -1.12343 -1.17273 0
M  V30 491 H 46.8411 -0.34119 -4.15502 0
M  V30 492 H 45.5011 0.379254 -3.22478 0
M  V30 493 H 46.5121 -3.22392 -4.05319 0
M  V30 494 H 43.1891 -0.644254 -4.12499 0
M  V30 495 H 44.5791 -4.6139 -4.88435 0
M  V30 496 N 47.2992 1.18797 -1.03562 0
M  V30 497 C 48.2622 2.20464 -0.626769 0
M  V30 498 C 49.2622 1.57721 0.313173 0
M  V30 499 O 50.4522 1.73917 0.0992615 0
M  V30 500 C 47.5842 3.40802 0.0818498 0
M  V30 501 H 48.7772 2.58149 -1.5264 0
M  V30 502 H 46.3302 1.32593 -0.827578 0
M  V30 503 H 47.0652 3.08642 0.995518 0
M  V30 504 H 46.8502 3.8758 -0.593652 0
M  V30 505 H 48.3402 4.16092 0.354584 0
M  V30 506 N 48.7773 0.814389 1.34928 0
M  V30 507 C 50.0053 0.411136 2.02774 0
M  V30 508 C 50.4203 -0.980316 1.61354 0
M  V30 509 O 49.7773 -1.63299 0.814847 0
M  V30 510 C 49.8283 0.493865 3.58111 0
M  V30 511 O 49.5493 1.83047 3.98027 0
M  V30 512 C 51.0503 0.0844174 4.4322 0
M  V30 513 H 48.2703 0.166037 0.650133 0
M  V30 514 H 50.8143 1.10018 1.72384 0
M  V30 515 H 48.9693 -0.147006 3.87121 0
M  V30 516 H 49.3833 1.79872 4.92693 0
M  V30 517 H 50.8573 0.193404 5.51661 0
M  V30 518 H 51.3343 -0.97113 4.28329 0
M  V30 519 H 51.9403 0.69875 4.19521 0
M  V30 520 N 50.2554 -1.46986 0.568584 0
M  V30 521 C 51.1854 -2.32946 -0.160753 0
M  V30 522 C 52.1664 -1.44487 -0.897631 0
M  V30 523 O 53.3514 -1.73327 -0.875867 0
M  V30 524 C 50.4814 -3.26494 -1.18403 0
M  V30 525 C 49.4354 -4.24282 -0.562895 0
M  V30 526 C 48.7614 -5.07236 -1.69163 0
M  V30 527 C 50.0614 -5.19989 0.490761 0
M  V30 528 H 51.7554 -2.94175 0.556916 0
M  V30 529 H 49.3014 -1.4146 0.26927 0
M  V30 530 H 51.2544 -3.85477 -1.70251 0
M  V30 531 H 49.9784 -2.63343 -1.93179 0
M  V30 532 H 48.6374 -3.66541 -0.0656164 0
M  V30 533 H 48.2854 -4.4048 -2.42871 0
M  V30 534 H 47.9854 -5.7345 -1.28174 0
M  V30 535 H 49.5094 -5.6908 -2.21314 0
M  V30 536 H 50.9234 -5.73271 0.0579047 0
M  V30 537 H 49.3204 -5.94469 0.820165 0
M  V30 538 H 50.3904 -4.64777 1.3824 0
M  V30 539 N 51.7335 -0.305618 -1.54608 0
M  V30 540 C 52.6635 0.561482 -2.26649 0
M  V30 541 C 53.6445 1.13415 -1.26772 0
M  V30 542 O 54.8295 1.16262 -1.55553 0
M  V30 543 C 51.9595 1.73122 -3.01075 0
M  V30 544 C 50.9135 1.2887 -4.08138 0
M  V30 545 C 50.2395 2.54396 -4.70305 0
M  V30 546 C 51.5395 0.416578 -5.20636 0
M  V30 547 H 53.2335 -0.0393902 -2.99374 0
M  V30 548 H 50.7795 -0.020385 -1.43986 0
M  V30 549 H 52.7325 2.34396 -3.50195 0
M  V30 550 H 51.4565 2.3584 -2.25936 0
M  V30 551 H 50.1155 0.698991 -3.59875 0
M  V30 552 H 49.7635 3.15439 -3.918 0
M  V30 553 H 49.4635 2.25486 -5.42614 0
M  V30 554 H 50.9875 3.16464 -5.2219 0
M  V30 555 H 52.4015 0.935116 -5.65622 0
M  V30 556 H 50.7985 0.221046 -5.99693 0
M  V30 557 H 51.8685 -0.557162 -4.81688 0
M  V30 558 N 53.2116 1.57565 -0.0334293 0
M  V30 559 C 54.1586 2.10478 0.946981 0
M  V30 560 C 55.1286 1.00787 1.32027 0
M  V30 561 O 56.3136 1.28232 1.41284 0
M  V30 562 C 53.4536 2.63994 2.22263 0
M  V30 563 C 52.5666 3.87709 1.90541 0
M  V30 564 C 51.7016 4.29604 3.12433 0
M  V30 565 C 50.7406 5.46065 2.76549 0
M  V30 566 N 49.8776 5.83096 3.9108 0
M  V30 567 H 54.7176 2.93963 0.488846 0
M  V30 568 H 52.2546 1.45296 0.22969 0
M  V30 569 H 54.2126 2.93114 2.96884 0
M  V30 570 H 52.8426 1.83333 2.65685 0
M  V30 571 H 51.8946 3.65291 1.06144 0
M  V30 572 H 53.2066 4.72403 1.60116 0
M  V30 573 H 52.3606 4.60182 3.9537 0
M  V30 574 H 51.0996 3.43685 3.46023 0
M  V30 575 H 50.1046 5.15176 1.92026 0
M  V30 576 H 51.3296 6.33685 2.44171 0
M  V30 577 H 49.2756 5.00132 4.24504 0
M  V30 578 H 49.1926 6.6244 3.64293 0
M  V30 579 H 50.4606 6.18282 4.74708 0
M  V30 580 N 54.6897 -0.239769 1.55765 0
M  V30 581 C 55.6397 -1.30002 1.87306 0
M  V30 582 C 56.6237 -1.43156 0.73452 0
M  V30 583 O 57.8157 -1.46277 0.99659 0
M  V30 584 C 54.9447 -2.65409 2.17745 0
M  V30 585 C 54.0307 -2.56231 3.37945 0
M  V30 586 N 54.4217 -2.16689 4.57033 0
M  V30 587 C 52.7197 -2.87229 3.41197 0
M  V30 588 C 53.4207 -2.18318 5.39177 0
M  V30 589 N 52.3967 -2.58098 4.78421 0
M  V30 590 H 56.1987 -0.984912 2.76906 0
M  V30 591 H 53.7127 -0.448381 1.56087 0
M  V30 592 H 55.7097 -3.41934 2.38509 0
M  V30 593 H 54.3697 -2.97781 1.29448 0
M  V30 594 H 55.3807 -1.88116 4.82528 0
M  V30 595 H 52.0577 -3.24094 2.63191 0
M  V30 596 H 53.4477 -1.90025 6.44469 0
M  V30 597 N 56.1678 -1.49265 -0.50573 0
M  V30 598 C 57.0778 -1.68312 -1.63427 0
M  V30 599 C 58.0938 -0.565682 -1.64548 0
M  V30 600 O 59.2698 -0.839801 -1.83055 0
M  V30 601 C 56.3348 -1.74107 -2.99813 0
M  V30 602 C 55.3958 -2.97653 -3.09356 0
M  V30 603 C 54.6288 -3.03163 -4.39236 0
M  V30 604 O 54.8518 -2.16396 -5.27758 0
M  V30 605 O 53.7858 -3.9558 -4.53652 0
M  V30 606 H 57.6118 -2.63907 -1.50289 0
M  V30 607 H 55.1968 -1.32951 -0.681502 0
M  V30 608 H 57.0788 -1.803 -3.80881 0
M  V30 609 H 55.7538 -0.816901 -3.13223 0
M  V30 610 H 54.6608 -2.96981 -2.27493 0
M  V30 611 H 55.9938 -3.89535 -3.00871 0
M  V30 612 N 57.6459 0.756429 -1.3826 0
M  V30 613 C 58.5939 1.89149 -1.35372 0
M  V30 614 C 59.5879 1.67691 -0.24004 0
M  V30 615 O 60.7939 1.75294 -0.408919 0
M  V30 616 H 57.1689 0.622271 -0.422236 0
M  V30 617 H 59.1399 1.88701 -2.31159 0
M  V30 618 C 57.8889 3.26599 -1.19284 0
M  V30 619 H 57.2119 3.43695 -2.0424 0
M  V30 620 H 58.6519 4.06274 -1.21316 0
M  V30 621 C 57.1109 3.3675 0.100454 0
M  V30 622 O 57.6409 3.86951 1.07851 0
M  V30 623 N 55.8469 2.90179 0.15633 0
M  V30 624 H 55.3939 2.49517 -0.640253 0
M  V30 625 H 55.3519 2.97352 1.02123 0
M  V30 626 N 59.124 1.23083 0.984299 0
M  V30 627 C 60.054 1.03292 2.09411 0
M  V30 628 C 61.035 -0.048923 1.7003 0
M  V30 629 O 62.22 0.114967 1.93859 0
M  V30 630 C 59.35 0.619155 3.41736 0
M  V30 631 C 58.304 1.64791 3.95004 0
M  V30 632 C 57.63 1.0897 5.23478 0
M  V30 633 C 58.93 3.03999 4.24714 0
M  V30 634 H 60.624 1.96119 2.26225 0
M  V30 635 H 58.17 0.944344 1.08711 0
M  V30 636 H 60.123 0.467777 4.18796 0
M  V30 637 H 58.847 -0.344786 3.24775 0
M  V30 638 H 57.506 1.78721 3.20085 0
M  V30 639 H 57.154 0.11686 5.02864 0
M  V30 640 H 56.854 1.77704 5.60085 0
M  V30 641 H 58.378 0.950093 6.03163 0
M  V30 642 H 59.792 2.93393 4.92538 0
M  V30 643 H 58.189 3.69936 4.72512 0
M  V30 644 H 59.259 3.53285 3.32142 0
M  V30 645 N 60.6021 -1.18246 1.0419 0
M  V30 646 C 61.8501 -1.87886 0.744543 0
M  V30 647 C 62.1711 -1.8082 -0.730006 0
M  V30 648 O 61.4411 -1.22736 -1.52685 0
M  V30 649 H 60.0211 -0.695556 0.272417 0
M  V30 650 H 62.6831 -1.43494 1.31892 0
M  V30 651 H 61.7791 -2.9389 1.05049 0
M  V30 652 N 62.0802 -0.821533 -1.34494 0
M  V30 653 C 63.3052 -0.420873 -2.03085 0
M  V30 654 C 63.7302 0.964915 -1.61465 0
M  V30 655 O 63.0882 1.62763 -0.798607 0
M  V30 656 C 63.1362 -0.529414 -3.56693 0
M  V30 657 O 62.2402 0.451302 -4.09923 0
M  V30 658 H 61.5812 -0.173489 -0.640935 0
M  V30 659 H 64.1112 -1.11157 -1.71771 0
M  V30 660 H 64.1212 -0.404671 -4.05988 0
M  V30 661 H 62.7962 -1.54014 -3.86332 0
M  V30 662 H 61.3732 0.285558 -3.71805 0
M  V30 663 N 63.5583 1.46682 -0.576371 0
M  V30 664 C 64.5213 2.28707 0.150239 0
M  V30 665 C 65.5213 1.38035 0.824794 0
M  V30 666 O 66.7113 1.60476 0.677719 0
M  V30 667 C 63.8433 3.18248 1.22192 0
M  V30 668 H 65.0363 2.94423 -0.570521 0
M  V30 669 H 62.5893 1.52688 -0.334078 0
M  V30 670 H 63.3243 2.57265 1.97447 0
M  V30 671 H 63.1093 3.85 0.742812 0
M  V30 672 H 64.5993 3.80001 1.73172 0
M  V30 673 N 65.0364 0.313813 1.54444 0
M  V30 674 C 65.9664 -0.549454 2.26943 0
M  V30 675 C 66.9474 -1.12741 1.27372 0
M  V30 676 O 68.1324 -1.15436 1.56167 0
M  V30 677 C 65.2624 -1.71523 3.01989 0
M  V30 678 C 64.2164 -1.26703 4.08816 0
M  V30 679 C 63.5424 -2.51898 4.71647 0
M  V30 680 C 64.8424 -0.388962 5.2085 0
M  V30 681 H 66.5364 0.0552661 2.99349 0
M  V30 682 H 64.0824 0.0280207 1.43973 0
M  V30 683 H 66.0354 -2.32535 3.51433 0
M  V30 684 H 64.7594 -2.34639 2.27183 0
M  V30 685 H 63.4184 -0.679896 3.6024 0
M  V30 686 H 63.0664 -3.13356 3.93468 0
M  V30 687 H 62.7664 -2.22605 5.43802 0
M  V30 688 H 64.2904 -3.1369 5.23861 0
M  V30 689 H 65.7044 -0.905107 5.6611 0
M  V30 690 H 64.1014 -0.18924 5.99802 0
M  V30 691 H 65.1714 0.582699 4.81386 0
M  V30 692 N 66.5145 -1.57545 0.0417849 0
M  V30 693 C 67.7395 -1.97035 -0.647455 0
M  V30 694 C 68.1645 -0.918775 -1.64135 0
M  V30 695 O 67.5225 0.119006 -1.80909 0
M  V30 696 C 67.5705 -3.35609 -1.31905 0
M  V30 697 O 66.6745 -3.3287 -2.43457 0
M  V30 698 H 66.0155 -0.64211 -0.169086 0
M  V30 699 H 68.5455 -2.04318 0.107399 0
M  V30 700 H 68.5555 -3.72126 -1.67291 0
M  V30 701 H 67.2305 -4.11685 -0.590586 0
M  V30 702 H 65.8075 -3.08087 -2.10088 0
M  V30 703 N 67.9926 0.231505 -1.5589 0
M  V30 704 C 69.2226 0.973092 -1.82248 0
M  V30 705 C 69.6306 1.78845 -0.617328 0
M  V30 706 O 68.9736 1.78752 0.423499 0
M  V30 707 C 69.0356 1.94732 -3.02192 0
M  V30 708 C 68.6996 1.31743 -4.37599 0
M  V30 709 C 69.6966 0.712238 -5.14998 0
M  V30 710 C 67.3816 1.33218 -4.84312 0
M  V30 711 C 69.3756 0.130195 -6.37267 0
M  V30 712 C 67.0626 0.746286 -6.06526 0
M  V30 713 C 68.0606 0.146337 -6.82843 0
M  V30 714 O 67.7486 -0.430465 -8.02747 0
M  V30 715 H 67.4806 0.29125 -0.61004 0
M  V30 716 H 70.0346 0.254915 -2.03812 0
M  V30 717 H 68.2646 2.70422 -2.76422 0
M  V30 718 H 69.9536 2.55362 -3.15508 0
M  V30 719 H 70.7196 0.69324 -4.8002 0
M  V30 720 H 66.5986 1.78854 -4.24891 0
M  V30 721 H 70.1426 -0.33871 -6.96777 0
M  V30 722 H 66.0396 0.762663 -6.40979 0
M  V30 723 H 66.8076 -0.323818 -8.17859 0
M  V30 724 N 69.4707 1.49531 0.497807 0
M  V30 725 C 70.7197 1.58426 1.24837 0
M  V30 726 C 71.0327 0.277643 1.93619 0
M  V30 727 O 72.2387 0.24517 2.70391 0
M  V30 728 C 70.6947 2.79538 2.26686 0
M  V30 729 C 70.3027 4.16971 1.63828 0
M  V30 730 C 72.0467 2.97764 3.0255 0
M  V30 731 C 69.9537 5.29301 2.63807 0
M  V30 732 H 68.8837 0.58989 0.469623 0
M  V30 733 H 71.5347 1.75923 0.521857 0
M  V30 734 H 69.9167 2.55542 3.02514 0
M  V30 735 H 71.0907 4.51116 0.939711 0
M  V30 736 H 69.4057 4.04129 1.00342 0
M  V30 737 H 72.0027 3.78856 3.77323 0
M  V30 738 H 72.3457 2.08448 3.60354 0
M  V30 739 H 72.8787 3.21815 2.33838 0
M  V30 740 H 69.6177 6.20687 2.10779 0
M  V30 741 H 69.1377 4.99606 3.31894 0
M  V30 742 H 70.8167 5.58768 3.2617 0
M  V30 743 N 70.9488 -0.749086 1.3866 0
M  V30 744 C 71.8788 -1.8764 1.38973 0
M  V30 745 C 72.8598 -1.68178 0.255004 0
M  V30 746 O 74.0448 -1.88704 0.458754 0
M  V30 747 C 71.1748 -3.25222 1.21851 0
M  V30 748 C 70.1288 -3.59295 2.32575 0
M  V30 749 C 69.4548 -4.95663 2.00555 0
M  V30 750 C 70.7548 -3.63709 3.7485 0
M  V30 751 H 72.4488 -1.87635 2.3331 0
M  V30 752 H 69.9948 -0.901329 1.12303 0
M  V30 753 H 71.9478 -4.03746 1.20695 0
M  V30 754 H 70.6718 -3.25719 0.239775 0
M  V30 755 H 69.3308 -2.83093 2.32925 0
M  V30 756 H 68.9788 -4.92724 1.01154 0
M  V30 757 H 68.6788 -5.19429 2.74714 0
M  V30 758 H 70.2028 -5.7656 2.01024 0
M  V30 759 H 71.6168 -4.32338 3.76506 0
M  V30 760 H 70.0138 -3.98986 4.48252 0
M  V30 761 H 71.0838 -2.63834 4.06841 0
M  V30 762 N 72.4269 -1.23603 -0.977757 0
M  V30 763 C 73.3899 -1.02069 -2.05218 0
M  V30 764 C 74.3899 0.0184305 -1.60789 0
M  V30 765 O 75.5799 -0.221569 -1.72785 0
M  V30 766 C 72.7119 -0.544926 -3.36517 0
M  V30 767 H 73.9049 -1.9742 -2.25755 0
M  V30 768 H 71.4579 -1.05684 -1.15155 0
M  V30 769 H 72.1929 0.412241 -3.21669 0
M  V30 770 H 71.9779 -1.2948 -3.70105 0
M  V30 771 H 73.4679 -0.414985 -4.15533 0
M  V30 772 N 73.905 1.17692 -1.04816 0
M  V30 773 C 74.853 2.23632 -0.63966 0
M  V30 774 C 75.847 1.6601 0.337219 0
M  V30 775 O 77.053 1.78844 0.203693 0
M  V30 776 H 73.428 0.727949 -0.188665 0
M  V30 777 H 75.399 2.55387 -1.54337 0
M  V30 778 C 74.148 3.4769 -0.0264051 0
M  V30 779 H 73.471 3.92331 -0.769164 0
M  V30 780 H 74.911 4.23418 0.222098 0
M  V30 781 C 73.37 3.13807 1.22584 0
M  V30 782 O 73.9 3.28236 2.31569 0
M  V30 783 N 72.106 2.68065 1.12202 0
M  V30 784 H 71.653 2.56525 0.235133 0
M  V30 785 H 71.611 2.45767 1.96076 0
M  V30 786 N 75.3831 0.828654 1.34056 0
M  V30 787 C 76.3301 0.252567 2.29414 0
M  V30 788 C 77.3001 -0.62588 1.53857 0
M  V30 789 O 78.4851 -0.566312 1.82202 0
M  V30 790 C 75.6251 -0.574831 3.40279 0
M  V30 791 C 74.7381 0.326499 4.30764 0
M  V30 792 C 73.8731 -0.511016 5.28736 0
M  V30 793 C 72.9121 0.389342 6.1086 0
M  V30 794 N 72.0491 -0.409439 7.00905 0
M  V30 795 H 76.8891 1.07108 2.78086 0
M  V30 796 H 74.4261 0.539677 1.36843 0
M  V30 797 H 76.3841 -1.06992 4.03248 0
M  V30 798 H 75.0141 -1.35841 2.92826 0
M  V30 799 H 74.0661 0.939837 3.68607 0
M  V30 800 H 75.3781 1.01857 4.88289 0
M  V30 801 H 74.5321 -1.07035 5.97184 0
M  V30 802 H 73.2711 -1.23657 4.71763 0
M  V30 803 H 72.2761 0.960769 5.4134 0
M  V30 804 H 73.5011 1.1131 6.69916 0
M  V30 805 H 71.4471 -1.11856 6.46393 0
M  V30 806 H 71.3641 0.224126 7.55668 0
M  V30 807 H 72.6321 -0.951336 7.73673 0
M  V30 808 N 76.8612 -1.46375 0.584142 0
M  V30 809 C 77.7912 -2.33103 -0.136037 0
M  V30 810 C 78.7722 -1.45431 -0.882255 0
M  V30 811 O 79.9572 -1.74246 -0.857434 0
M  V30 812 C 77.0872 -3.27731 -1.14933 0
M  V30 813 C 76.0412 -4.24855 -0.517862 0
M  V30 814 C 75.3672 -5.09001 -1.63773 0
M  V30 815 C 76.6672 -5.19439 0.545886 0
M  V30 816 H 78.3612 -2.93568 0.588086 0
M  V30 817 H 75.9072 -1.41166 0.284259 0
M  V30 818 H 77.8602 -3.87261 -1.66153 0
M  V30 819 H 76.5842 -2.65377 -1.90375 0
M  V30 820 H 75.2432 -3.6659 -0.0267361 0
M  V30 821 H 74.8912 -4.43031 -2.38185 0
M  V30 822 H 74.5912 -5.74777 -1.22085 0
M  V30 823 H 76.1152 -5.71396 -2.15266 0
M  V30 824 H 77.5292 -5.73177 0.118704 0
M  V30 825 H 75.9262 -5.93566 0.88317 0
M  V30 826 H 76.9962 -4.63285 1.43162 0
M  V30 827 N 78.3393 -0.321999 -1.54275 0
M  V30 828 C 79.3023 0.531975 -2.22941 0
M  V30 829 C 80.3023 1.04478 -1.22234 0
M  V30 830 O 81.4923 0.937452 -1.46825 0
M  V30 831 C 78.6243 1.73874 -2.93224 0
M  V30 832 H 79.8173 -0.0682612 -2.99822 0
M  V30 833 H 77.3703 -0.0730644 -1.56129 0
M  V30 834 H 78.1053 2.37825 -2.20476 0
M  V30 835 H 77.8903 1.37847 -3.6707 0
M  V30 836 H 79.3803 2.34496 -3.45545 0
M  V30 837 N 79.8174 1.5752 -0.0501392 0
M  V30 838 C 80.7654 2.12651 0.942459 0
M  V30 839 C 81.7594 1.05807 1.32292 0
M  V30 840 O 82.9654 1.24217 1.3027 0
M  V30 841 H 79.3404 0.679673 0.321789 0
M  V30 842 H 81.3114 2.94951 0.452356 0
M  V30 843 C 80.0604 2.68565 2.20836 0
M  V30 844 H 79.3834 3.50439 1.92439 0
M  V30 845 H 80.8234 3.10761 2.8845 0
M  V30 846 C 79.2824 1.62291 2.95234 0
M  V30 847 O 79.8124 1.03508 3.88135 0
M  V30 848 N 78.0184 1.33836 2.57946 0
M  V30 849 H 77.5654 1.81826 1.82475 0
M  V30 850 H 77.5234 0.629595 3.08032 0
M  V30 851 N 81.2955 -0.223234 1.56011 0
M  V30 852 C 82.7065 -0.790368 1.69145 0
M  V30 853 C 83.0575 -1.85055 0.651845 0
M  V30 854 O 82.1825 -2.15498 -0.197359 0
M  V30 855 C 82.7775 -1.4404 3.06656 0
M  V30 856 C 81.3365 -1.95494 3.2165 0
M  V30 857 C 80.4835 -0.814506 2.65068 0
M  V30 858 H 83.4345 0.00139011 1.587 0
M  V30 859 H 83.4555 -2.30916 3.0242 0
M  V30 860 H 82.9675 -0.668543 3.82298 0
M  V30 861 H 81.0685 -2.75487 2.50874 0
M  V30 862 H 81.1815 -2.13607 4.28846 0
M  V30 863 H 79.5455 -1.22137 2.23505 0
M  V30 864 H 80.3285 -0.0553515 3.43255 0
M  V30 865 N 82.7736 -1.49793 -0.48987 0
M  V30 866 C 84.0226 -1.59085 -1.23995 0
M  V30 867 C 84.3356 -0.287907 -1.9347 0
M  V30 868 O 85.5416 -0.259506 -2.70257 0
M  V30 869 C 83.9976 -2.80736 -2.252 0
M  V30 870 C 83.6056 -4.17833 -1.61614 0
M  V30 871 C 85.3496 -2.99364 -3.00967 0
M  V30 872 C 83.2566 -5.30693 -2.60996 0
M  V30 873 H 82.1866 -0.592372 -0.466488 0
M  V30 874 H 84.8376 -1.76197 -0.51252 0
M  V30 875 H 83.2196 -2.57142 -3.01154 0
M  V30 876 H 84.3936 -4.51608 -0.915774 0
M  V30 877 H 82.7086 -4.04656 -0.981977 0
M  V30 878 H 85.3056 -3.80851 -3.75308 0
M  V30 879 H 85.6486 -2.10356 -3.59244 0
M  V30 880 H 86.1816 -3.2305 -2.32128 0
M  V30 881 H 82.9206 -6.21796 -2.07485 0
M  V30 882 H 82.4406 -5.01359 -3.2924 0
M  V30 883 H 84.1196 -5.6049 -3.23202 0
M  V30 884 N 84.2517 0.741722 -1.39055 0
M  V30 885 C 85.1847 1.86416 -1.31622 0
M  V30 886 C 86.1627 1.61473 -0.191076 0
M  V30 887 O 87.3467 1.84825 -0.370399 0
M  V30 888 C 84.4737 3.22266 -1.04221 0
M  V30 889 C 83.5197 3.66079 -2.18834 0
M  V30 890 S 84.3527 3.7623 -3.81066 0
M  V30 891 C 85.5087 5.14881 -3.55877 0
M  V30 892 H 85.7417 1.92437 -2.26617 0
M  V30 893 H 83.2747 0.905907 -1.25031 0
M  V30 894 H 85.2327 4.00714 -0.890964 0
M  V30 895 H 83.8937 3.1391 -0.109237 0
M  V30 896 H 83.0867 4.64648 -1.95238 0
M  V30 897 H 82.6887 2.94817 -2.30128 0
M  V30 898 H 84.9807 6.01006 -3.12726 0
M  V30 899 H 85.9237 5.43503 -4.53884 0
M  V30 900 H 86.3317 4.84239 -2.90126 0
M  V30 901 N 85.7298 1.2412 0.971189 0
M  V30 902 C 87.1408 1.07236 1.52831 0
M  V30 903 C 87.4918 -0.357352 1.92918 0
M  V30 904 O 86.6168 -1.24528 1.76979 0
M  V30 905 C 87.2118 1.94043 2.77728 0
M  V30 906 C 85.7708 1.81394 3.29808 0
M  V30 907 C 84.9178 1.89189 2.02738 0
M  V30 908 H 87.8688 1.37648 0.789864 0
M  V30 909 H 87.8898 1.47066 3.5093 0
M  V30 910 H 87.4018 2.98093 2.4852 0
M  V30 911 H 85.5028 0.801634 3.63874 0
M  V30 912 H 85.6158 2.65294 3.98944 0
M  V30 913 H 83.9798 1.32877 2.17292 0
M  V30 914 H 84.7628 2.94812 1.759 0
M  V30 915 N 87.2079 -1.17134 1.05439 0
M  V30 916 C 88.1709 -2.19439 0.661764 0
M  V30 917 C 89.1709 -1.58199 -0.288042 0
M  V30 918 O 90.3609 -1.74053 -0.0715803 0
M  V30 919 C 87.4929 -3.40889 -0.0276209 0
M  V30 920 H 88.6859 -2.55688 1.56728 0
M  V30 921 H 86.2389 -1.31259 0.848567 0
M  V30 922 H 86.9739 -3.10187 -0.94629 0
M  V30 923 H 86.7589 -3.86586 0.655238 0
M  V30 924 H 88.2489 -4.16603 -0.288342 0
M  V30 925 N 88.686 -0.835752 -1.33615 0
M  V30 926 C 89.935 -0.426289 -1.97144 0
M  V30 927 C 90.248 1.01912 -1.66953 0
M  V30 928 O 91.454 1.53311 -2.24072 0
M  V30 929 C 89.91 -0.711321 -3.52801 0
M  V30 930 C 89.518 -2.1712 -3.91871 0
M  V30 931 C 91.262 -0.368654 -4.22896 0
M  V30 932 C 89.169 -2.40044 -5.40493 0
M  V30 933 H 88.099 -0.15567 -0.737755 0
M  V30 934 H 90.75 -1.0239 -1.52278 0
M  V30 935 H 89.132 -0.0433766 -3.95976 0
M  V30 936 H 90.306 -2.87936 -3.59763 0
M  V30 937 H 88.621 -2.47654 -3.34749 0
M  V30 938 H 91.218 -0.517601 -5.32189 0
M  V30 939 H 91.561 0.688078 -4.10574 0
M  V30 940 H 92.094 -0.991702 -3.8524 0
M  V30 941 H 88.833 -3.44271 -5.57815 0
M  V30 942 H 88.353 -1.73785 -5.74072 0
M  V30 943 H 90.032 -2.23042 -6.0734 0
M  V30 944 N 90.1641 1.46063 -0.591896 0
M  V30 945 C 91.1271 2.28854 0.125973 0
M  V30 946 C 92.1271 1.38903 0.810107 0
M  V30 947 O 93.3171 1.61186 0.66066 0
M  V30 948 C 90.4491 3.19526 1.1881 0
M  V30 949 H 91.6421 2.93802 -0.601717 0
M  V30 950 H 89.1951 1.52325 -0.350254 0
M  V30 951 H 89.9301 2.59345 1.94707 0
M  V30 952 H 89.7151 3.85766 0.701936 0
M  V30 953 H 91.2051 3.81817 1.69132 0
M  V30 954 N 91.6422 0.330177 1.54103 0
M  V30 955 C 92.8912 -0.271336 1.99867 0
M  V30 956 C 93.2042 -1.52723 1.22209 0
M  V30 957 O 94.4102 -2.20515 1.58383 0
M  V30 958 C 92.8662 -0.534032 3.55916 0
M  V30 959 C 92.4742 0.705193 4.42415 0
M  V30 960 C 94.2182 -1.09514 4.1013 0
M  V30 961 C 92.1252 0.414035 5.89949 0
M  V30 962 H 91.0552 -0.105166 0.74663 0
M  V30 963 H 93.7062 0.443429 1.78062 0
M  V30 964 H 92.0882 -1.30915 3.73734 0
M  V30 965 H 93.2622 1.4804 4.36372 0
M  V30 966 H 91.5772 1.18698 3.99124 0
M  V30 967 H 94.1742 -1.3277 5.17954 0
M  V30 968 H 94.5172 -2.04656 3.62521 0
M  V30 969 H 95.0502 -0.381038 3.95971 0
M  V30 970 H 91.7892 1.33481 6.41766 0
M  V30 971 H 91.3092 -0.323336 5.98928 0
M  V30 972 H 92.9882 0.0263105 6.46995 0
M  V30 973 N 93.1203 -1.57491 0.0584922 0
M  V30 974 C 94.5363 -1.56792 -0.298091 0
M  V30 975 C 94.7363 -1.06679 -1.70944 0
M  V30 976 O 93.7923 -0.726672 -2.41818 0
M  V30 977 C 95.1053 -3.00461 -0.119879 0
M  V30 978 C 96.6533 -3.1242 -0.190428 0
M  V30 979 C 97.1283 -4.57982 -0.0406567 0
M  V30 980 N 98.6193 -4.63099 -0.0966958 0
M  V30 981 C 99.3543 -5.734 -0.00502943 0
M  V30 982 N 98.8503 -6.9266 0.139402 0
M  V30 983 N 100.643 -5.62067 -0.0611391 0
M  V30 984 H 92.7943 -1.88386 0.98105 0
M  V30 985 H 95.0573 -0.867865 0.381463 0
M  V30 986 H 94.7633 -3.41187 0.85349 0
M  V30 987 H 94.6373 -3.66843 -0.877833 0
M  V30 988 H 97.0243 -2.71589 -1.15427 0
M  V30 989 H 97.1053 -2.48702 0.598405 0
M  V30 990 H 96.7493 -4.995 0.919897 0
M  V30 991 H 96.6793 -5.19715 -0.848727 0
M  V30 992 H 99.1703 -3.77331 -0.207277 0
M  V30 993 H 99.4833 -7.72536 0.201855 0
M  V30 994 H 97.8283 -6.94781 0.174586 0
M  V30 995 H 101.019 -4.67782 -0.172583 0
M  V30 996 H 101.192 -6.47999 0.0137562 0
M  V30 997 N 94.5984 0.214957 -1.56127 0
M  V30 998 C 95.5084 1.28727 -1.96129 0
M  V30 999 C 96.5244 1.50916 -0.866044 0
M  V30 1000 O 97.7004 1.63918 -1.17016 0
M  V30 1001 C 94.7654 2.61569 -2.27558 0
M  V30 1002 C 93.8264 2.47625 -3.50685 0
M  V30 1003 C 93.0594 3.74132 -3.80606 0
M  V30 1004 O 93.2824 4.77438 -3.12104 0
M  V30 1005 O 92.2164 3.70849 -4.74083 0
M  V30 1006 H 96.0424 0.977855 -2.87527 0
M  V30 1007 H 93.6274 0.418358 -1.43423 0
M  V30 1008 H 95.5094 3.40012 -2.48938 0
M  V30 1009 H 94.1844 2.92178 -1.39332 0
M  V30 1010 H 93.0914 1.67361 -3.34576 0
M  V30 1011 H 94.4244 2.21954 -4.39315 0
M  V30 1012 N 96.0765 1.50051 0.48192 0
M  V30 1013 C 97.3225 1.60736 1.2366 0
M  V30 1014 C 97.6555 0.301786 1.91841 0
M  V30 1015 O 96.9305 -0.696025 1.8162 0
M  V30 1016 C 97.2135 2.78009 2.28874 0
M  V30 1017 C 97.0665 4.18416 1.65069 0
M  V30 1018 C 98.3855 2.90867 3.30279 0
M  V30 1019 H 95.5045 0.585031 0.448228 0
M  V30 1020 H 98.1465 1.82402 0.531946 0
M  V30 1021 H 96.2965 2.59667 2.88973 0
M  V30 1022 H 97.9685 4.48322 1.0865 0
M  V30 1023 H 96.2115 4.23177 0.954148 0
M  V30 1024 H 96.8825 4.96381 2.41474 0
M  V30 1025 H 99.3585 3.07623 2.80191 0
M  V30 1026 H 98.2345 3.74566 4.01238 0
M  V30 1027 H 98.4955 2.01021 3.93755 0
M  V30 1028 N 97.5546 -0.734337 1.39446 0
M  V30 1029 C 98.8006 -1.49613 1.36908 0
M  V30 1030 C 99.1336 -1.94169 -0.0347829 0
M  V30 1031 O 98.4086 -1.66833 -0.999847 0
M  V30 1032 C 98.6916 -2.73534 2.34203 0
M  V30 1033 C 98.5446 -2.34993 3.83534 0
M  V30 1034 C 99.8636 -3.75635 2.29317 0
M  V30 1035 H 96.9826 -0.542714 0.498629 0
M  V30 1036 H 99.6246 -0.839597 1.70443 0
M  V30 1037 H 97.7746 -3.29553 2.05736 0
M  V30 1038 H 99.4466 -1.84601 4.22753 0
M  V30 1039 H 97.6896 -1.67213 4.00278 0
M  V30 1040 H 98.3606 -3.23738 4.47099 0
M  V30 1041 H 100.837 -3.29203 2.54489 0
M  V30 1042 H 99.7126 -4.60008 2.99472 0
M  V30 1043 H 99.9736 -4.22603 1.29842 0
M  V30 1044 N 99.0327 -1.24633 -0.964593 0
M  V30 1045 C 99.9427 -1.05859 -2.09359 0
M  V30 1046 C 100.959 0.00148855 -1.74 0
M  V30 1047 O 102.135 -0.197346 -2.00431 0
M  V30 1048 C 99.1997 -0.668879 -3.40187 0
M  V30 1049 C 98.2607 -1.80578 -3.89474 0
M  V30 1050 C 97.4937 -1.43457 -5.14058 0
M  V30 1051 O 97.7167 -0.325775 -5.69469 0
M  V30 1052 O 96.6507 -2.2613 -5.57807 0
M  V30 1053 H 100.477 -2.00516 -2.28094 0
M  V30 1054 H 98.0617 -1.03481 -1.0776 0
M  V30 1055 H 99.9437 -0.463211 -4.18846 0
M  V30 1056 H 98.6187 0.248536 -3.22744 0
M  V30 1057 H 97.5257 -2.06623 -3.11862 0
M  V30 1058 H 98.8587 -2.70208 -4.11398 0
M  V30 1059 N 100.511 1.16574 -1.06058 0
M  V30 1060 C 101.421 2.2452 -0.680282 0
M  V30 1061 C 102.437 1.71348 0.302604 0
M  V30 1062 O 103.613 2.00822 0.152513 0
M  V30 1063 C 100.678 3.46629 -0.0700315 0
M  V30 1064 C 99.7388 4.14849 -1.10448 0
M  V30 1065 C 98.9718 5.31129 -0.523256 0
M  V30 1066 O 99.1948 5.66514 0.664709 0
M  V30 1067 O 98.1288 5.88526 -1.26179 0
M  V30 1068 H 101.955 2.59355 -1.58015 0
M  V30 1069 H 99.5398 1.24043 -0.832694 0
M  V30 1070 H 101.422 4.20543 0.268667 0
M  V30 1071 H 100.097 3.13573 0.803353 0
M  V30 1072 H 99.0038 3.42916 -1.49532 0
M  V30 1073 H 100.337 4.51954 -1.94931 0
M  V30 1074 N 101.989 0.842826 1.3317 0
M  V30 1075 C 102.952 0.284065 2.27433 0
M  V30 1076 C 103.952 -0.54948 1.5112 0
M  V30 1077 O 105.142 -0.362699 1.70382 0
M  V30 1078 C 102.274 -0.599384 3.35589 0
M  V30 1079 H 103.467 1.11589 2.78366 0
M  V30 1080 H 101.02 0.616221 1.4364 0
M  V30 1081 H 101.755 -1.45349 2.89904 0
M  V30 1082 H 101.54 -0.00291266 3.921 0
M  V30 1083 H 103.03 -0.983488 4.05854 0
M  V30 1084 N 103.467 -1.45747 0.599634 0
M  V30 1085 C 104.697 -2.06369 0.0977132 0
M  V30 1086 C 105.105 -1.44624 -1.21985 0
M  V30 1087 O 104.448 -0.551831 -1.75216 0
M  V30 1088 C 104.51 -3.59284 -0.124673 0
M  V30 1089 C 104.174 -4.43318 1.10987 0
M  V30 1090 C 105.171 -4.78796 2.02609 0
M  V30 1091 C 102.856 -4.84194 1.33647 0
M  V30 1092 C 104.85 -5.53997 3.15224 0
M  V30 1093 C 102.537 -5.5915 2.46565 0
M  V30 1094 C 103.535 -5.93968 3.37182 0
M  V30 1095 O 103.223 -6.67405 4.48136 0
M  V30 1096 H 102.955 -0.673122 0.0623153 0
M  V30 1097 H 105.509 -1.88104 0.824981 0
M  V30 1098 H 103.739 -3.75919 -0.906745 0
M  V30 1099 H 105.428 -4.01775 -0.577201 0
M  V30 1100 H 106.194 -4.47781 1.86325 0
M  V30 1101 H 102.073 -4.56534 0.64016 0
M  V30 1102 H 105.617 -5.81091 3.85978 0
M  V30 1103 H 101.514 -5.89579 2.62805 0
M  V30 1104 H 102.282 -6.85847 4.46717 0
M  V30 1105 N 104.945 -0.338344 -1.53925 0
M  V30 1106 C 106.361 0.0137736 -1.59594 0
M  V30 1107 C 106.561 1.49186 -1.35447 0
M  V30 1108 O 105.617 2.24987 -1.14616 0
M  V30 1109 C 106.93 -0.41773 -2.97784 0
M  V30 1110 C 108.478 -0.369633 -3.1081 0
M  V30 1111 C 108.953 -0.776524 -4.51369 0
M  V30 1112 N 110.444 -0.730506 -4.57403 0
M  V30 1113 C 111.179 -1.01736 -5.64303 0
M  V30 1114 N 110.675 -1.3721 -6.79077 0
M  V30 1115 N 112.468 -0.941942 -5.54151 0
M  V30 1116 H 104.619 -1.3012 -1.67876 0
M  V30 1117 H 106.882 -0.530082 -0.78595 0
M  V30 1118 H 106.588 -1.44811 -3.20504 0
M  V30 1119 H 106.462 0.209729 -3.76616 0
M  V30 1120 H 108.849 0.651568 -2.87817 0
M  V30 1121 H 108.93 -1.03223 -2.34049 0
M  V30 1122 H 108.574 -1.79571 -4.75096 0
M  V30 1123 H 108.504 -0.0914649 -5.26521 0
M  V30 1124 H 110.995 -0.468783 -3.74981 0
M  V30 1125 H 111.308 -1.57597 -7.5656 0
M  V30 1126 H 109.653 -1.4105 -6.80536 0
M  V30 1127 H 112.844 -0.664184 -4.63364 0
M  V30 1128 H 113.017 -1.16884 -6.37371 0
M  V30 1129 N 106.423 1.57458 -0.0668435 0
M  V30 1130 C 107.648 1.9804 0.616027 0
M  V30 1131 C 108.073 0.944771 1.62652 0
M  V30 1132 O 107.431 -0.0902094 1.81075 0
M  V30 1133 C 107.479 3.37665 1.26549 0
M  V30 1134 O 106.583 3.36701 2.38131 0
M  V30 1135 H 105.924 0.644719 0.158849 0
M  V30 1136 H 108.454 2.04121 -0.139891 0
M  V30 1137 H 108.464 3.7474 1.6135 0
M  V30 1138 H 107.139 4.12573 0.525016 0
M  V30 1139 H 105.716 3.1139 2.0516 0
M  V30 1140 N 107.901 -0.206675 1.56239 0
M  V30 1141 C 109.178 -0.954051 1.70755 0
M  V30 1142 C 109.558 -2.01841 0.618353 0
M  V30 1143 O 108.906 -2.25444 -0.372434 0
M  V30 1144 C 109.116 -1.551 3.12642 0
M  V30 1145 C 110.464 -2.03757 3.72516 0
M  V30 1146 O 111.488 -1.64965 3.15698 0
M  V30 1147 O 110.347 -2.75103 4.72208 0
M  V30 1148 H 107.441 -0.446636 0.696021 0
M  V30 1149 H 109.987 -0.197283 1.68549 0
M  V30 1150 H 108.759 -0.783212 3.83382 0
M  V30 1151 H 108.382 -2.37291 3.19028 0
M  V30 1152 N 109.379 -1.50304 -0.473955 0
M  V30 1153 C 110.342 -1.6841 -1.55469 0
M  V30 1154 C 111.342 -0.554905 -1.50922 0
M  V30 1155 O 112.532 -0.821882 -1.53593 0
M  V30 1156 C 109.664 -1.70667 -2.95102 0
M  V30 1157 H 110.857 -2.64828 -1.40733 0
M  V30 1158 H 108.41 -1.39742 -0.700132 0
M  V30 1159 H 109.145 -0.75932 -3.15285 0
M  V30 1160 H 108.93 -2.52698 -2.9981 0
M  V30 1161 H 110.42 -1.8664 -3.73571 0
M  V30 1162 N 110.857 0.726932 -1.39834 0
M  V30 1163 C 111.807 1.83232 -1.35683 0
M  V30 1164 C 112.791 1.59155 -0.236295 0
M  V30 1165 O 113.983 1.70522 -0.474488 0
M  V30 1166 C 111.112 3.21246 -1.21062 0
M  V30 1167 C 110.198 3.51125 -2.37849 0
M  V30 1168 N 110.589 3.51889 -3.63329 0
M  V30 1169 C 108.887 3.81527 -2.30982 0
M  V30 1170 C 109.588 3.79791 -4.40606 0
M  V30 1171 N 108.564 3.97971 -3.70297 0
M  V30 1172 H 112.366 1.8214 -2.30656 0
M  V30 1173 H 109.88 0.925545 -1.33444 0
M  V30 1174 H 111.877 4.00387 -1.16171 0
M  V30 1175 H 110.537 3.23572 -0.270458 0
M  V30 1176 H 111.548 3.33008 -3.96643 0
M  V30 1177 H 108.225 3.91411 -1.45272 0
M  V30 1178 H 109.615 3.86783 -5.49408 0
M  V30 1179 N 112.336 1.25143 0.95797 0
M  V30 1180 C 113.269 0.995565 2.05338 0
M  V30 1181 C 114.247 -0.0740423 1.62431 0
M  V30 1182 O 115.431 0.0649212 1.88388 0
M  V30 1183 C 112.558 0.504298 3.34925 0
M  V30 1184 C 111.604 1.56393 3.96792 0
M  V30 1185 S 112.437 3.14815 4.33188 0
M  V30 1186 C 113.593 2.67415 5.65898 0
M  V30 1187 H 113.826 1.92309 2.26726 0
M  V30 1188 H 111.359 1.08635 1.09716 0
M  V30 1189 H 113.317 0.227497 4.09869 0
M  V30 1190 H 111.978 -0.402671 3.11508 0
M  V30 1191 H 111.171 1.17082 4.90212 0
M  V30 1192 H 110.773 1.79124 3.28315 0
M  V30 1193 H 113.065 2.10833 6.4386 0
M  V30 1194 H 114.008 3.59463 6.10076 0
M  V30 1195 H 114.416 2.07521 5.24972 0
M  V30 1196 N 113.814 -1.1601 1.06675 0
M  V30 1197 C 115.063 -1.85973 0.780818 0
M  V30 1198 C 115.376 -1.82819 -0.695444 0
M  V30 1199 O 116.582 -2.484 -1.09589 0
M  V30 1200 C 115.038 -3.33757 1.34665 0
M  V30 1201 C 114.646 -3.45374 2.85343 0
M  V30 1202 C 116.39 -4.0895 1.13843 0
M  V30 1203 C 114.297 -4.87266 3.35151 0
M  V30 1204 H 113.227 -0.696661 0.288407 0
M  V30 1205 H 115.878 -1.30903 1.28595 0
M  V30 1206 H 114.26 -3.88456 0.769274 0
M  V30 1207 H 115.434 -3.00816 3.49065 0
M  V30 1208 H 113.749 -2.83619 3.04876 0
M  V30 1209 H 116.346 -5.13654 1.4854 0
M  V30 1210 H 116.689 -4.16229 0.0770282 0
M  V30 1211 H 117.222 -3.605 1.68179 0
M  V30 1212 H 113.961 -4.85168 4.40786 0
M  V30 1213 H 113.481 -5.32433 2.76179 0
M  V30 1214 H 115.16 -5.56097 3.30704 0
M  V30 1215 N 115.292 -0.849877 -1.32721 0
M  V30 1216 C 116.538 -0.451591 -1.97708 0
M  V30 1217 C 116.871 0.989175 -1.6712 0
M  V30 1218 O 116.146 1.69334 -0.956891 0
M  V30 1219 C 116.429 -0.685598 -3.53513 0
M  V30 1220 C 116.282 -2.17444 -3.93749 0
M  V30 1221 C 117.601 -0.138874 -4.39881 0
M  V30 1222 H 114.72 -0.16555 -0.718166 0
M  V30 1223 H 117.362 -1.06742 -1.57182 0
M  V30 1224 H 115.512 -0.161416 -3.88165 0
M  V30 1225 H 117.184 -2.76433 -3.693 0
M  V30 1226 H 115.427 -2.65476 -3.43081 0
M  V30 1227 H 116.098 -2.28888 -5.02309 0
M  V30 1228 H 118.574 -0.587068 -4.11938 0
M  V30 1229 H 117.45 -0.332213 -5.47894 0
M  V30 1230 H 117.711 0.95806 -4.31594 0
M  V30 1231 N 116.77 1.45427 -0.607355 0
M  V30 1232 C 117.995 2.07124 -0.107006 0
M  V30 1233 C 118.42 1.44906 1.19933 0
M  V30 1234 O 117.778 0.541687 1.73019 0
M  V30 1235 C 117.826 3.60595 0.0194119 0
M  V30 1236 O 116.93 3.98285 1.0697 0
M  V30 1237 H 116.271 0.659868 -0.0739597 0
M  V30 1238 H 118.801 1.86683 -0.837297 0
M  V30 1239 H 118.811 4.07419 0.2177 0
M  V30 1240 H 117.486 4.05266 -0.934453 0
M  V30 1241 H 116.063 3.63133 0.847889 0
M  V30 1242 N 118.248 0.346503 1.53744 0
M  V30 1243 C 119.211 -0.496439 2.23759 0
M  V30 1244 C 120.211 -1.0252 1.2388 0
M  V30 1245 O 121.401 -0.913974 1.48297 0
M  V30 1246 C 118.533 -1.69187 2.95954 0
M  V30 1247 H 119.726 0.115952 2.99676 0
M  V30 1248 H 117.279 0.0978939 1.55993 0
M  V30 1249 H 118.014 -2.34288 2.24231 0
M  V30 1250 H 117.799 -1.31989 3.69217 0
M  V30 1251 H 119.289 -2.28969 3.49232 0
M  V30 1252 N 119.726 -1.57421 0.075193 0
M  V30 1253 C 120.689 -2.11791 -0.876203 0
M  V30 1254 C 121.689 -1.04268 -1.22412 0
M  V30 1255 O 122.879 -1.30242 -1.15684 0
M  V30 1256 C 120.011 -2.62207 -2.17854 0
M  V30 1257 H 121.204 -2.9716 -0.40444 0
M  V30 1258 H 118.757 -1.55333 -0.173557 0
M  V30 1259 H 119.492 -1.803 -2.6956 0
M  V30 1260 H 119.277 -3.40802 -1.93897 0
M  V30 1261 H 120.767 -3.04335 -2.85955 0
M  V30 1262 N 121.204 0.198386 -1.56346 0
M  V30 1263 C 122.62 0.549085 -1.49857 0
M  V30 1264 C 122.82 1.86016 -0.774611 0
M  V30 1265 O 121.876 2.50416 -0.323776 0
M  V30 1266 C 123.189 0.606868 -2.94512 0
M  V30 1267 C 124.737 0.695925 -3.05165 0
M  V30 1268 C 125.212 0.784848 -4.51225 0
M  V30 1269 N 126.703 0.848463 -4.55363 0
M  V30 1270 C 127.438 0.937378 -5.65686 0
M  V30 1271 N 126.934 0.9888 -6.85707 0
M  V30 1272 N 128.727 0.974312 -5.53592 0
M  V30 1273 H 120.878 -0.661655 -2.01831 0
M  V30 1274 H 123.141 -0.235261 -0.918344 0
M  V30 1275 H 122.847 -0.28732 -3.50524 0
M  V30 1276 H 122.721 1.46268 -3.47686 0
M  V30 1277 H 125.108 1.58055 -2.49204 0
M  V30 1278 H 125.189 -0.186022 -2.55123 0
M  V30 1279 H 124.833 -0.0954072 -5.0781 0
M  V30 1280 H 124.763 1.68255 -4.98997 0
M  V30 1281 H 127.254 0.818103 -3.68938 0
M  V30 1282 H 127.567 1.05707 -7.65536 0
M  V30 1283 H 125.912 0.957534 -6.88372 0
M  V30 1284 H 129.103 0.930954 -4.58749 0
M  V30 1285 H 129.276 1.04015 -6.39597 0
M  V30 1286 N 122.682 1.50554 0.465978 0
M  V30 1287 C 123.959 1.5232 1.22712 0
M  V30 1288 C 124.339 0.270807 2.09356 0
M  V30 1289 O 123.687 -0.745541 2.15995 0
M  V30 1290 C 123.897 2.82175 2.05374 0
M  V30 1291 C 125.245 3.33033 2.6339 0
M  V30 1292 O 126.269 2.83531 2.15612 0
M  V30 1293 O 125.128 4.19336 3.50456 0
M  V30 1294 H 122.222 0.611183 0.557122 0
M  V30 1295 H 124.768 1.62847 0.477381 0
M  V30 1296 H 123.54 3.64797 1.41558 0
M  V30 1297 H 123.163 2.74675 2.87471 0
M  V30 1298 N 124.16 -0.719506 1.40217 0
M  V30 1299 C 125.409 -1.47486 1.37589 0
M  V30 1300 C 125.722 -1.9559 -0.0201568 0
M  V30 1301 O 126.928 -2.70973 -0.169049 0
M  V30 1302 C 125.384 -2.66575 2.41796 0
M  V30 1303 C 124.992 -2.25358 3.87192 0
M  V30 1304 C 126.736 -3.4433 2.48269 0
M  V30 1305 C 124.643 -3.41262 4.83005 0
M  V30 1306 H 123.573 -0.553901 0.511576 0
M  V30 1307 H 126.224 -0.783427 1.65936 0
M  V30 1308 H 124.606 -3.3787 2.06543 0
M  V30 1309 H 125.78 -1.61509 4.31569 0
M  V30 1310 H 124.095 -1.60657 3.84159 0
M  V30 1311 H 126.692 -4.30569 3.17041 0
M  V30 1312 H 127.035 -3.87872 1.51198 0
M  V30 1313 H 127.568 -2.80076 2.82493 0
M  V30 1314 H 124.307 -3.02755 5.81394 0
M  V30 1315 H 123.827 -4.0404 4.43297 0
M  V30 1316 H 125.506 -4.07383 5.02641 0
M  V30 1317 N 125.638 -1.25649 -0.95132 0
M  V30 1318 C 126.568 -1.08808 -2.06599 0
M  V30 1319 C 127.549 0.00382547 -1.701 0
M  V30 1320 O 128.734 -0.166325 -1.93486 0
M  V30 1321 C 125.864 -0.709542 -3.39975 0
M  V30 1322 C 124.818 -1.75206 -3.90496 0
M  V30 1323 C 124.144 -1.22811 -5.20405 0
M  V30 1324 C 125.444 -3.15153 -4.16504 0
M  V30 1325 H 127.138 -2.02048 -2.20946 0
M  V30 1326 H 124.684 -0.972835 -1.06169 0
M  V30 1327 H 126.637 -0.578649 -4.17408 0
M  V30 1328 H 125.361 0.258556 -3.25575 0
M  V30 1329 H 124.02 -1.87145 -3.15234 0
M  V30 1330 H 123.668 -0.250145 -5.02378 0
M  V30 1331 H 123.368 -1.92492 -5.55176 0
M  V30 1332 H 124.892 -1.10968 -6.00432 0
M  V30 1333 H 126.306 -3.06349 -4.84586 0
M  V30 1334 H 124.703 -3.82333 -4.62538 0
M  V30 1335 H 125.773 -3.61966 -3.22658 0
M  V30 1336 N 127.117 1.15442 -1.07289 0
M  V30 1337 C 128.08 2.18358 -0.696591 0
M  V30 1338 C 129.08 1.58637 0.262837 0
M  V30 1339 O 130.27 1.74145 0.0438809 0
M  V30 1340 C 127.402 3.4089 -0.0266151 0
M  V30 1341 H 128.595 2.53162 -1.60776 0
M  V30 1342 H 126.148 1.29893 -0.869342 0
M  V30 1343 H 126.883 3.11653 0.896822 0
M  V30 1344 H 126.668 3.85495 -0.716657 0
M  V30 1345 H 128.158 4.17009 0.222028 0
M  V30 1346 N 128.595 0.856903 1.32268 0
M  V30 1347 C 129.841 0.462069 1.97466 0
M  V30 1348 C 130.174 -0.980298 1.67642 0
M  V30 1349 O 129.449 -1.68824 0.965858 0
M  V30 1350 C 129.732 0.704336 3.53145 0
M  V30 1351 C 129.585 2.19529 3.9259 0
M  V30 1352 C 130.904 0.1622 4.39801 0
M  V30 1353 H 128.023 0.169357 0.717278 0
M  V30 1354 H 130.665 1.07574 1.56614 0
M  V30 1355 H 128.815 0.181999 3.88073 0
M  V30 1356 H 130.487 2.78387 3.67829 0
M  V30 1357 H 128.73 2.67292 3.41668 0
M  V30 1358 H 129.401 2.31549 5.01088 0
M  V30 1359 H 131.877 0.608905 4.11621 0
M  V30 1360 H 130.753 0.361265 5.4771 0
M  V30 1361 H 131.014 -0.935158 4.32096 0
M  V30 1362 N 130.073 -1.45103 0.615059 0
M  V30 1363 C 131.489 -1.57137 0.279322 0
M  V30 1364 C 131.689 -1.60523 -1.21797 0
M  V30 1365 O 130.745 -1.53956 -2.00134 0
M  V30 1366 C 132.058 -2.85062 0.957083 0
M  V30 1367 C 133.606 -2.98749 0.933706 0
M  V30 1368 C 134.081 -4.29455 1.59162 0
M  V30 1369 N 135.572 -4.36231 1.55746 0
M  V30 1370 C 136.307 -5.36051 2.0356 0
M  V30 1371 N 135.803 -6.42367 2.59494 0
M  V30 1372 N 137.596 -5.27456 1.94284 0
M  V30 1373 H 129.747 -1.41148 1.58717 0
M  V30 1374 H 132.01 -0.675331 0.665306 0
M  V30 1375 H 131.716 -2.88488 2.01166 0
M  V30 1376 H 131.59 -3.7407 0.48494 0
M  V30 1377 H 133.977 -2.94886 -0.112347 0
M  V30 1378 H 134.058 -2.11132 1.44419 0
M  V30 1379 H 133.702 -4.34077 2.63704 0
M  V30 1380 H 133.632 -5.15901 1.0561 0
M  V30 1381 H 136.123 -3.60011 1.14893 0
M  V30 1382 H 136.436 -7.14793 2.93752 0
M  V30 1383 H 134.781 -6.43097 2.63537 0
M  V30 1384 H 137.972 -4.43308 1.5032 0
M  V30 1385 H 138.145 -6.05099 2.3186 0
M  V30 1386 N 131.551 -0.354651 -1.53558 0
M  V30 1387 C 132.481 0.489091 -2.2832 0
M  V30 1388 C 133.462 1.09324 -1.30316 0
M  V30 1389 O 134.647 1.11255 -1.59173 0
M  V30 1390 C 131.777 1.63456 -3.0643 0
M  V30 1391 C 130.731 1.1582 -4.12031 0
M  V30 1392 C 130.057 2.39305 -4.7816 0
M  V30 1393 C 131.357 0.250731 -5.21698 0
M  V30 1394 H 133.051 -0.134614 -2.99097 0
M  V30 1395 H 130.597 -0.0661826 -1.43848 0
M  V30 1396 H 132.55 2.23136 -3.57475 0
M  V30 1397 H 131.274 2.28533 -2.33325 0
M  V30 1398 H 129.933 0.584146 -3.61916 0
M  V30 1399 H 129.581 3.02814 -4.01637 0
M  V30 1400 H 129.281 2.08109 -5.49513 0
M  V30 1401 H 130.805 2.99691 -5.31994 0
M  V30 1402 H 132.219 0.754695 -5.68311 0
M  V30 1403 H 130.616 0.0301468 -6.00092 0
M  V30 1404 H 131.686 -0.710125 -4.79672 0
M  V30 1405 N 133.029 1.57378 -0.0835403 0
M  V30 1406 C 134.445 1.57246 0.273109 0
M  V30 1407 C 134.645 1.09385 1.69225 0
M  V30 1408 O 133.701 0.765051 2.40631 0
M  V30 1409 C 135.014 3.00614 0.0720628 0
M  V30 1410 C 136.562 3.12684 0.1407 0
M  V30 1411 C 137.037 4.57989 -0.0322094 0
M  V30 1412 N 138.528 4.63194 0.0230085 0
M  V30 1413 C 139.263 5.73335 -0.0861941 0
M  V30 1414 N 138.759 6.9235 -0.24958 0
M  V30 1415 N 140.552 5.62093 -0.0282886 0
M  V30 1416 H 132.703 1.86801 -1.0109 0
M  V30 1417 H 134.966 0.861687 -0.395222 0
M  V30 1418 H 134.672 3.39786 -0.907662 0
M  V30 1419 H 134.546 3.68193 0.81936 0
M  V30 1420 H 136.933 2.73391 1.11092 0
M  V30 1421 H 137.014 2.47719 -0.637896 0
M  V30 1422 H 136.658 4.97973 -0.999247 0
M  V30 1423 H 136.588 5.21 0.765937 0
M  V30 1424 H 139.079 3.77613 0.14722 0
M  V30 1425 H 139.392 7.72117 -0.324733 0
M  V30 1426 H 137.737 6.94415 -0.285097 0
M  V30 1427 H 140.928 4.67997 0.0981408 0
M  V30 1428 H 141.101 6.47895 -0.116845 0
M  V30 1429 N 134.507 -0.190092 1.56449 0
M  V30 1430 C 135.784 -0.935886 1.71757 0
M  V30 1431 C 136.164 -2.01173 0.639726 0
M  V30 1432 O 135.512 -2.25827 -0.348502 0
M  V30 1433 C 135.722 -1.51775 3.1427 0
M  V30 1434 C 137.07 -1.99794 3.74656 0
M  V30 1435 O 138.094 -1.61607 3.1743 0
M  V30 1436 O 136.953 -2.70079 4.751 0
M  V30 1437 H 134.047 -0.439229 0.700719 0
M  V30 1438 H 136.593 -0.179395 1.68749 0
M  V30 1439 H 135.365 -0.742505 3.84191 0
M  V30 1440 H 134.988 -2.33894 3.21527 0
M  V30 1441 N 135.985 -1.50799 -0.457987 0
M  V30 1442 C 137.396 -1.55152 -1.0385 0
M  V30 1443 C 137.747 -0.362719 -1.92818 0
M  V30 1444 O 136.872 0.522915 -2.09987 0
M  V30 1445 C 137.467 -2.81173 -1.89017 0
M  V30 1446 C 136.026 -2.88164 -2.42154 0
M  V30 1447 C 135.173 -2.49591 -1.20829 0
M  V30 1448 H 138.124 -1.56874 -0.240068 0
M  V30 1449 H 138.145 -2.63769 -2.74238 0
M  V30 1450 H 137.657 -3.67677 -1.24238 0
M  V30 1451 H 135.758 -2.06042 -3.10447 0
M  V30 1452 H 135.871 -3.91356 -2.76364 0
M  V30 1453 H 134.235 -2.02322 -1.54719 0
M  V30 1454 H 135.018 -3.38418 -0.576927 0
M  V30 1455 N 137.463 0.71206 -1.40597 0
M  V30 1456 C 138.426 1.80785 -1.40888 0
M  V30 1457 C 139.426 1.57937 -0.302103 0
M  V30 1458 O 140.616 1.64913 -0.561182 0
M  V30 1459 C 137.748 3.18927 -1.20409 0
M  V30 1460 H 138.941 1.81924 -2.38419 0
M  V30 1461 H 136.494 0.91805 -1.26497 0
M  V30 1462 H 137.229 3.23436 -0.236522 0
M  V30 1463 H 137.014 3.36911 -2.00582 0
M  V30 1464 H 138.504 3.98949 -1.23408 0
M  V30 1465 N 138.941 1.26152 0.944643 0
M  V30 1466 C 140.187 1.11657 1.69294 0
M  V30 1467 C 140.52 -0.339926 1.91202 0
M  V30 1468 O 139.795 -1.24994 1.49019 0
M  V30 1469 C 140.078 1.88236 3.06984 0
M  V30 1470 C 139.931 3.41772 2.92424 0
M  V30 1471 C 141.25 1.67343 4.07043 0
M  V30 1472 H 138.369 0.407004 0.614424 0
M  V30 1473 H 141.011 1.55106 1.09737 0
M  V30 1474 H 139.161 1.51308 3.57824 0
M  V30 1475 H 140.833 3.88433 2.48832 0
M  V30 1476 H 139.076 3.68974 2.28124 0
M  V30 1477 H 139.747 3.90579 3.90067 0
M  V30 1478 H 142.223 1.99509 3.65151 0
M  V30 1479 H 141.099 2.23346 5.01406 0
M  V30 1480 H 141.36 0.617158 4.37771 0
M  V30 1481 N 140.419 -1.14872 1.07899 0
M  V30 1482 C 141.696 -1.81928 0.71845 0
M  V30 1483 C 142.076 -1.95417 -0.798455 0
M  V30 1484 O 141.424 -1.50997 -1.715 0
M  V30 1485 C 141.634 -3.17937 1.43935 0
M  V30 1486 C 142.982 -3.93501 1.59506 0
M  V30 1487 O 144.006 -3.27509 1.40058 0
M  V30 1488 O 142.865 -5.1183 1.91551 0
M  V30 1489 H 139.959 -0.78628 0.256305 0
M  V30 1490 H 142.505 -1.21934 1.18026 0
M  V30 1491 H 141.277 -3.0325 2.47295 0
M  V30 1492 H 140.9 -3.85619 0.968687 0
M  V30 1493 N 141.898 -0.863906 -1.31812 0
M  V30 1494 C 142.845 -0.313303 -2.28664 0
M  V30 1495 C 143.815 0.584868 -1.55462 0
M  V30 1496 O 145 0.517805 -1.83639 0
M  V30 1497 C 142.14 0.48441 -3.41683 0
M  V30 1498 C 141.253 -0.440594 -4.29747 0
M  V30 1499 C 140.388 0.370652 -5.29905 0
M  V30 1500 C 139.427 -0.551164 -6.09613 0
M  V30 1501 N 138.564 0.223462 -7.01744 0
M  V30 1502 H 143.404 -1.14444 -2.75148 0
M  V30 1503 H 140.941 -0.575769 -1.35364 0
M  V30 1504 H 142.899 0.962627 -4.05943 0
M  V30 1505 H 141.529 1.28029 -2.96325 0
M  V30 1506 H 140.581 -1.03724 -3.65986 0
M  V30 1507 H 141.893 -1.14767 -4.85417 0
M  V30 1508 H 141.047 0.911638 -5.99812 0
M  V30 1509 H 139.786 1.11105 -4.74876 0
M  V30 1510 H 138.791 -1.10396 -5.38603 0
M  V30 1511 H 140.016 -1.29032 -6.66729 0
M  V30 1512 H 137.962 0.946787 -6.49132 0
M  V30 1513 H 137.879 -0.424399 -7.54808 0
M  V30 1514 H 139.147 0.745876 -7.75923 0
M  V30 1515 N 143.376 1.44774 -0.622745 0
M  V30 1516 C 144.606 2.06187 -0.130532 0
M  V30 1517 C 145.014 1.46547 1.19669 0
M  V30 1518 O 144.357 0.579636 1.74316 0
M  V30 1519 C 144.419 3.59437 0.0674983 0
M  V30 1520 C 144.083 4.41496 -1.18026 0
M  V30 1521 C 145.08 4.75512 -2.102 0
M  V30 1522 C 142.765 4.82007 -1.41333 0
M  V30 1523 C 144.759 5.48912 -3.23998 0
M  V30 1524 C 142.446 5.55157 -2.55429 0
M  V30 1525 C 143.444 5.88528 -3.46589 0
M  V30 1526 O 143.132 6.60191 -4.58697 0
M  V30 1527 H 142.864 0.672045 -0.0730162 0
M  V30 1528 H 145.418 1.86768 -0.854802 0
M  V30 1529 H 143.648 3.77314 0.846825 0
M  V30 1530 H 145.337 4.02642 0.513209 0
M  V30 1531 H 146.103 4.4476 -1.93425 0
M  V30 1532 H 141.982 4.55457 -0.712709 0
M  V30 1533 H 145.526 5.74877 -3.95174 0
M  V30 1534 H 141.423 5.85324 -2.72151 0
M  V30 1535 H 142.191 6.78654 -4.57571 0
M  V30 1536 N 144.854 0.36279 1.53368 0
M  V30 1537 C 146.079 -0.231226 2.06107 0
M  V30 1538 C 146.504 -1.419 1.23474 0
M  V30 1539 O 145.862 -1.79524 0.253128 0
M  V30 1540 C 145.91 -0.605523 3.5548 0
M  V30 1541 O 145.014 -1.70312 3.7559 0
M  V30 1542 H 144.355 -0.034327 0.663112 0
M  V30 1543 H 146.885 0.522584 1.97814 0
M  V30 1544 H 146.895 -0.877314 3.98456 0
M  V30 1545 H 145.57 0.263004 4.15068 0
M  V30 1546 H 144.147 -1.4271 3.44512 0
M  V30 1547 N 146.332 -1.57332 0.0918853 0
M  V30 1548 C 147.56 -1.98574 -0.581048 0
M  V30 1549 C 147.975 -0.970903 -1.61923 0
M  V30 1550 O 147.332 0.0399054 -1.82456 0
M  V30 1551 C 147.383 -3.39872 -1.23164 0
M  V30 1552 O 147.104 -4.37469 -0.234989 0
M  V30 1553 C 148.605 -3.96099 -1.99049 0
M  V30 1554 H 145.825 -0.65261 -0.156018 0
M  V30 1555 H 148.369 -2.0379 0.170225 0
M  V30 1556 H 146.524 -3.35679 -1.93386 0
M  V30 1557 H 146.938 -5.19751 -0.70418 0
M  V30 1558 H 148.412 -4.97127 -2.39934 0
M  V30 1559 H 148.889 -3.3374 -2.85507 0
M  V30 1560 H 149.495 -4.03755 -1.3365 0
M  V30 1561 N 147.81 0.181792 -1.56548 0
M  V30 1562 C 149.221 0.745244 -1.71181 0
M  V30 1563 C 149.572 1.83262 -0.70068 0
M  V30 1564 O 148.697 2.15946 0.140154 0
M  V30 1565 C 149.292 1.35859 -3.10367 0
M  V30 1566 C 147.851 1.86898 -3.2672 0
M  V30 1567 C 146.998 0.743942 -2.67134 0
M  V30 1568 H 149.949 -0.0434661 -1.5864 0
M  V30 1569 H 149.97 2.22817 -3.08436 0
M  V30 1570 H 149.482 0.566948 -3.83937 0
M  V30 1571 H 147.583 2.68738 -2.5809 0
M  V30 1572 H 147.696 2.02162 -4.34359 0
M  V30 1573 H 146.06 1.16169 -2.26665 0
M  V30 1574 H 146.843 -0.035676 -3.43281 0
M  V30 1575 N 149.288 1.51039 0.449983 0
M  V30 1576 C 150.218 1.74379 1.55288 0
M  V30 1577 C 151.199 0.593236 1.5942 0
M  V30 1578 O 152.384 0.834625 1.7535 0
M  V30 1579 C 149.514 1.85728 2.93466 0
M  V30 1580 C 148.468 3.01078 3.04197 0
M  V30 1581 C 147.794 2.97595 4.44231 0
M  V30 1582 C 149.094 4.41254 2.7945 0
M  V30 1583 H 150.788 2.66725 1.36008 0
M  V30 1584 H 148.334 1.2835 0.652864 0
M  V30 1585 H 150.287 2.0064 3.70569 0
M  V30 1586 H 149.011 0.900207 3.13949 0
M  V30 1587 H 147.67 2.85851 2.29531 0
M  V30 1588 H 147.318 1.99691 4.61663 0
M  V30 1589 H 147.018 3.75046 4.52343 0
M  V30 1590 H 148.542 3.14583 5.23326 0
M  V30 1591 H 149.956 4.56897 3.46292 0
M  V30 1592 H 148.353 5.20315 2.98985 0
M  V30 1593 H 149.423 4.52164 1.75144 0
M  V30 1594 N 150.766 -0.704594 1.40972 0
M  V30 1595 C 151.696 -1.83124 1.44872 0
M  V30 1596 C 152.677 -1.67281 0.30838 0
M  V30 1597 O 153.862 -1.87149 0.518556 0
M  V30 1598 C 150.992 -3.21181 1.32136 0
M  V30 1599 C 149.946 -3.51714 2.43888 0
M  V30 1600 C 149.272 -4.89032 2.16222 0
M  V30 1601 C 150.572 -3.516 3.86232 0
M  V30 1602 H 152.266 -1.80117 2.39161 0
M  V30 1603 H 149.812 -0.865145 1.15114 0
M  V30 1604 H 151.765 -3.99702 1.33479 0
M  V30 1605 H 150.489 -3.24791 0.343279 0
M  V30 1606 H 149.148 -2.75539 2.41813 0
M  V30 1607 H 148.796 -4.89256 1.16778 0
M  V30 1608 H 148.496 -5.10426 2.911 0
M  V30 1609 H 150.02 -5.69873 2.19265 0
M  V30 1610 H 151.434 -4.2014 3.9007 0
M  V30 1611 H 149.831 -3.84523 4.60719 0
M  V30 1612 H 150.901 -2.50757 4.15029 0
M  V30 1613 N 152.244 -1.26651 -0.937939 0
M  V30 1614 C 153.474 -1.15006 -1.71631 0
M  V30 1615 C 153.882 0.297026 -1.86854 0
M  V30 1616 O 153.225 1.21493 -1.37786 0
M  V30 1617 C 153.287 -1.74984 -3.14039 0
M  V30 1618 C 152.951 -3.24103 -3.2219 0
M  V30 1619 C 153.948 -4.20877 -3.05219 0
M  V30 1620 C 151.633 -3.64625 -3.45476 0
M  V30 1621 C 153.627 -5.56151 -3.11408 0
M  V30 1622 C 151.314 -5.00032 -3.513 0
M  V30 1623 C 152.312 -5.95604 -3.34282 0
M  V30 1624 O 152 -7.28545 -3.3982 0
M  V30 1625 H 151.732 -0.401183 -0.544085 0
M  V30 1626 H 154.286 -1.67832 -1.18413 0
M  V30 1627 H 152.516 -1.16624 -3.68695 0
M  V30 1628 H 154.205 -1.58199 -3.73802 0
M  V30 1629 H 154.971 -3.90908 -2.87081 0
M  V30 1630 H 150.85 -2.90718 -3.57777 0
M  V30 1631 H 154.394 -6.30727 -2.98043 0
M  V30 1632 H 150.291 -5.29659 -3.68959 0
M  V30 1633 H 151.059 -7.3686 -3.56343 0
M  V30 1634 N 153.722 1.14298 -1.08507 0
M  V30 1635 C 154.652 2.21542 -0.737646 0
M  V30 1636 C 155.633 1.67773 0.280377 0
M  V30 1637 O 156.818 1.93616 0.150521 0
M  V30 1638 C 153.948 3.46988 -0.147259 0
M  V30 1639 C 152.902 4.13789 -1.09374 0
M  V30 1640 C 152.228 5.33449 -0.365524 0
M  V30 1641 C 153.528 4.62208 -2.4323 0
M  V30 1642 H 155.222 2.5086 -1.6343 0
M  V30 1643 H 152.768 1.20576 -0.787243 0
M  V30 1644 H 154.721 4.21262 0.107808 0
M  V30 1645 H 153.445 3.17037 0.784538 0
M  V30 1646 H 152.104 3.4147 -1.33393 0
M  V30 1647 H 151.752 4.99759 0.57011 0
M  V30 1648 H 151.452 5.79088 -0.996512 0
M  V30 1649 H 152.976 6.10485 -0.118534 0
M  V30 1650 H 154.39 5.27952 -2.23472 0
M  V30 1651 H 152.787 5.18553 -3.02031 0
M  V30 1652 H 153.857 3.77224 -3.04681 0
M  V30 1653 N 155.201 0.870884 1.31352 0
M  V30 1654 C 156.148 0.325425 2.28494 0
M  V30 1655 C 157.118 -0.576615 1.5577 0
M  V30 1656 O 158.303 -0.508059 1.83911 0
M  V30 1657 C 155.443 -0.466283 3.41935 0
M  V30 1658 C 154.556 0.463378 4.29508 0
M  V30 1659 C 153.691 -0.342544 5.30094 0
M  V30 1660 C 152.73 0.583486 6.09313 0
M  V30 1661 N 151.867 -0.186244 7.01853 0
M  V30 1662 H 156.707 1.15901 2.74538 0
M  V30 1663 H 154.244 0.58294 1.35056 0
M  V30 1664 H 156.202 -0.941085 4.06447 0
M  V30 1665 H 154.832 -1.26456 2.97 0
M  V30 1666 H 153.884 1.05663 3.65431 0
M  V30 1667 H 155.196 1.1734 4.84802 0
M  V30 1668 H 154.35 -0.879816 6.00287 0
M  V30 1669 H 153.089 -1.08585 4.75458 0
M  V30 1670 H 152.094 1.13251 5.3801 0
M  V30 1671 H 153.319 1.32566 6.66035 0
M  V30 1672 H 151.265 -0.912348 6.49625 0
M  V30 1673 H 151.182 0.464422 7.54572 0
M  V30 1674 H 152.45 -0.704716 7.76308 0
M  V30 1675 N 156.679 -1.44442 0.630414 0
M  V30 1676 C 157.927 -2.01653 0.134351 0
M  V30 1677 C 158.248 -1.49836 -1.24796 0
M  V30 1678 O 157.518 -0.701684 -1.82902 0
M  V30 1679 H 156.098 -0.74554 0.0466769 0
M  V30 1680 H 158.76 -1.76952 0.816955 0
M  V30 1681 H 157.856 -3.11935 0.101498 0
M  V30 1682 N 158.157 -0.370918 -1.53173 0
M  V30 1683 C 159.404 0.217102 -2.01333 0
M  V30 1684 C 159.732 1.48338 -1.25802 0
M  V30 1685 O 158.987 1.92698 -0.34146 0
M  V30 1686 C 159.286 0.549696 -3.53147 0
M  V30 1687 C 158.952 -0.622872 -4.46577 0
M  V30 1688 C 157.614 -0.944595 -4.71838 0
M  V30 1689 C 159.966 -1.40819 -5.01816 0
M  V30 1690 C 157.294 -2.05351 -5.49589 0
M  V30 1691 C 159.646 -2.50757 -5.80778 0
M  V30 1692 C 158.31 -2.83458 -6.04324 0
M  V30 1693 H 157.58 0.0794431 -0.736729 0
M  V30 1694 H 160.227 -0.504481 -1.84736 0
M  V30 1695 H 158.532 1.35237 -3.6772 0
M  V30 1696 H 160.229 1.017 -3.87889 0
M  V30 1697 H 156.819 -0.36209 -4.27068 0
M  V30 1698 H 161.003 -1.17289 -4.82242 0
M  V30 1699 H 156.259 -2.3108 -5.6605 0
M  V30 1700 H 160.433 -3.12022 -6.22588 0
M  V30 1701 H 158.06 -3.69508 -6.64355 0
M  V30 1702 N 159.635 1.57281 -0.100228 0
M  V30 1703 C 160.585 2.10848 0.86759 0
M  V30 1704 C 161.569 1.02473 1.24049 0
M  V30 1705 O 162.761 1.28739 1.21471 0
M  V30 1706 C 159.89 2.69648 2.12474 0
M  V30 1707 C 158.976 3.85074 1.77704 0
M  V30 1708 N 159.367 4.92897 1.13518 0
M  V30 1709 C 157.665 3.94905 2.07282 0
M  V30 1710 C 158.366 5.73475 0.974735 0
M  V30 1711 N 157.342 5.22675 1.4937 0
M  V30 1712 H 161.144 2.91594 0.367471 0
M  V30 1713 H 158.658 1.62074 0.102829 0
M  V30 1714 H 160.655 3.06356 2.82757 0
M  V30 1715 H 159.315 1.90359 2.63047 0
M  V30 1716 H 160.326 5.11662 0.801381 0
M  V30 1717 H 157.003 3.26633 2.60033 0
M  V30 1718 H 158.393 6.70238 0.472364 0
M  V30 1719 N 161.113 -0.173488 1.56642 0
M  V30 1720 C 162.076 -1.19859 1.95362 0
M  V30 1721 C 163.076 -1.37296 0.83704 0
M  V30 1722 O 164.266 -1.34739 1.10413 0
M  V30 1723 C 161.398 -2.56405 2.24654 0
M  V30 1724 H 162.591 -0.867062 2.87092 0
M  V30 1725 H 160.144 -0.415853 1.50666 0
M  V30 1726 H 160.879 -2.94576 1.35631 0
M  V30 1727 H 160.664 -2.45115 3.06041 0
M  V30 1728 H 162.154 -3.30287 2.5554 0
M  V30 1729 N 162.591 -1.51276 -0.441967 0
M  V30 1730 C 163.521 -1.752 -1.54361 0
M  V30 1731 C 164.502 -0.601682 -1.59103 0
M  V30 1732 O 165.687 -0.843913 -1.74905 0
M  V30 1733 C 162.817 -1.87282 -2.92477 0
M  V30 1734 C 161.771 -3.02687 -3.02596 0
M  V30 1735 C 161.097 -2.99947 -4.42647 0
M  V30 1736 C 162.397 -4.4273 -2.77106 0
M  V30 1737 H 164.091 -2.67442 -1.34592 0
M  V30 1738 H 161.637 -1.28694 -0.646048 0
M  V30 1739 H 163.59 -2.02602 -3.695 0
M  V30 1740 H 162.314 -0.916844 -3.13467 0
M  V30 1741 H 160.973 -2.87065 -2.28012 0
M  V30 1742 H 160.621 -2.02136 -4.60597 0
M  V30 1743 H 160.321 -3.77439 -4.50348 0
M  V30 1744 H 161.845 -3.17354 -5.2165 0
M  V30 1745 H 163.259 -4.58727 -3.43864 0
M  V30 1746 H 161.656 -5.21893 -2.96222 0
M  V30 1747 H 162.726 -4.53087 -1.72744 0
M  V30 1748 N 164.069 0.697108 -1.41344 0
M  V30 1749 C 165.001 1.8224 -1.39001 0
M  V30 1750 C 166.014 1.60152 -0.292428 0
M  V30 1751 O 167.203 1.69684 -0.554048 0
M  V30 1752 C 164.303 3.18976 -1.14489 0
M  V30 1753 C 163.476 3.68105 -2.36258 0
M  V30 1754 C 162.535 4.83506 -2.07625 0
M  V30 1755 O 161.561 4.95201 -2.8065 0
M  V30 1756 N 162.763 5.70637 -1.06555 0
M  V30 1757 H 165.528 1.84742 -2.35988 0
M  V30 1758 H 163.089 0.87937 -1.35936 0
M  V30 1759 H 165.081 3.93801 -0.932885 0
M  V30 1760 H 163.651 3.11508 -0.261043 0
M  V30 1761 H 162.871 2.84204 -2.7317 0
M  V30 1762 H 164.159 3.97667 -3.17393 0
M  V30 1763 H 163.557 5.63817 -0.461125 0
M  V30 1764 H 162.114 6.45368 -0.913444 0
M  V30 1765 N 165.547 1.27147 0.931209 0
M  V30 1766 C 166.51 1.09615 2.01289 0
M  V30 1767 C 167.51 0.0412581 1.60747 0
M  V30 1768 O 168.7 0.285545 1.71844 0
M  V30 1769 C 165.832 0.669447 3.34262 0
M  V30 1770 H 167.025 2.05662 2.18273 0
M  V30 1771 H 164.578 1.09885 1.11153 0
M  V30 1772 H 165.313 -0.292572 3.22978 0
M  V30 1773 H 165.098 1.43127 3.65044 0
M  V30 1774 H 166.588 0.568921 4.13706 0
M  V30 1775 N 167.025 -1.13721 1.09112 0
M  V30 1776 C 168.255 -1.88499 0.845671 0
M  V30 1777 C 168.663 -1.79218 -0.606432 0
M  V30 1778 O 168.006 -1.1544 -1.42896 0
M  V30 1779 C 168.068 -3.38954 1.19793 0
M  V30 1780 C 167.732 -3.72018 2.65428 0
M  V30 1781 C 168.729 -3.7153 3.63677 0
M  V30 1782 C 166.414 -4.01775 3.01467 0
M  V30 1783 C 168.408 -4.00336 4.95994 0
M  V30 1784 C 166.095 -4.30243 4.33975 0
M  V30 1785 C 167.093 -4.29508 5.31048 0
M  V30 1786 O 166.781 -4.5728 6.61173 0
M  V30 1787 H 166.513 -0.603702 0.304171 0
M  V30 1788 H 169.067 -1.44903 1.45576 0
M  V30 1789 H 167.297 -3.83039 0.530871 0
M  V30 1790 H 168.986 -3.95052 0.932146 0
M  V30 1791 H 169.752 -3.4862 3.37179 0
M  V30 1792 H 165.631 -4.01496 2.26544 0
M  V30 1793 H 169.175 -3.99678 5.71755 0
M  V30 1794 H 165.072 -4.52625 4.60219 0
M  V30 1795 H 165.84 -4.74964 6.66597 0
M  V30 1796 N 168.503 -0.877838 -1.30888 0
M  V30 1797 C 169.919 -0.570844 -1.49042 0
M  V30 1798 C 170.119 0.893159 -1.80624 0
M  V30 1799 O 169.175 1.67485 -1.88958 0
M  V30 1800 C 170.488 -1.47784 -2.61878 0
M  V30 1801 C 172.036 -1.48071 -2.75761 0
M  V30 1802 C 172.511 -2.37347 -3.91702 0
M  V30 1803 N 174.002 -2.35271 -3.99001 0
M  V30 1804 C 174.737 -3.01063 -4.88004 0
M  V30 1805 N 174.233 -3.76055 -5.81854 0
M  V30 1806 N 176.026 -2.90332 -4.81315 0
M  V30 1807 H 168.177 -1.82502 -1.0866 0
M  V30 1808 H 170.44 -0.780797 -0.537644 0
M  V30 1809 H 170.146 -2.51993 -2.45341 0
M  V30 1810 H 170.02 -1.18215 -3.58197 0
M  V30 1811 H 172.407 -0.446166 -2.91708 0
M  V30 1812 H 172.488 -1.81668 -1.80085 0
M  V30 1813 H 172.132 -3.40883 -3.76512 0
M  V30 1814 H 172.062 -2.01071 -4.86701 0
M  V30 1815 H 174.553 -1.80768 -3.3186 0
M  V30 1816 H 174.866 -4.23366 -6.46514 0
M  V30 1817 H 173.211 -3.80163 -5.81808 0
M  V30 1818 H 176.402 -2.31278 -4.06974 0
M  V30 1819 H 176.575 -3.41885 -5.50471 0
M  V30 1820 N 169.982 1.44106 -0.638065 0
M  V30 1821 C 171.231 2.01194 -0.142744 0
M  V30 1822 C 171.544 1.50835 1.24532 0
M  V30 1823 O 172.75 2.00096 1.83504 0
M  V30 1824 C 171.206 3.59319 -0.20442 0
M  V30 1825 C 170.814 4.18674 -1.59423 0
M  V30 1826 C 172.558 4.23854 0.234079 0
M  V30 1827 C 170.465 5.69045 -1.61065 0
M  V30 1828 H 169.395 0.752367 -0.0495998 0
M  V30 1829 H 172.046 1.65246 -0.797881 0
M  V30 1830 H 170.428 3.92598 0.517946 0
M  V30 1831 H 171.602 3.96921 -2.34074 0
M  V30 1832 H 169.917 3.66453 -1.97741 0
M  V30 1833 H 172.514 5.34155 0.241443 0
M  V30 1834 H 172.857 3.96688 1.2627 0
M  V30 1835 H 173.39 3.95403 -0.436025 0
M  V30 1836 H 170.129 6.00956 -2.61787 0
M  V30 1837 H 169.649 5.929 -0.90718 0
M  V30 1838 H 171.328 6.32809 -1.34766 0
M  V30 1839 N 171.46 0.379036 1.52974 0
M  V30 1840 C 172.708 -0.206014 2.01047 0
M  V30 1841 C 173.029 -1.48175 1.26765 0
M  V30 1842 O 172.299 -1.92085 0.384743 0
M  V30 1843 H 170.879 -0.0791184 0.742798 0
M  V30 1844 H 173.541 0.508366 1.88153 0
M  V30 1845 H 172.637 -0.423501 3.09213 0
M  V30 1846 N 172.938 -1.57226 0.108567 0
M  V30 1847 C 173.888 -2.11305 -0.856396 0
M  V30 1848 C 174.872 -1.03129 -1.23504 0
M  V30 1849 O 176.064 -1.29381 -1.20787 0
M  V30 1850 C 173.193 -2.70771 -2.11041 0
M  V30 1851 C 172.279 -3.86011 -1.7566 0
M  V30 1852 N 172.67 -4.93492 -1.10902 0
M  V30 1853 C 170.968 -3.95999 -2.05185 0
M  V30 1854 C 171.669 -5.73984 -0.944308 0
M  V30 1855 N 170.645 -5.2346 -1.46596 0
M  V30 1856 H 174.447 -2.91784 -0.352002 0
M  V30 1857 H 171.961 -1.62126 -0.0942324 0
M  V30 1858 H 173.958 -3.07851 -2.81128 0
M  V30 1859 H 172.618 -1.91751 -2.62034 0
M  V30 1860 H 173.629 -5.1208 -0.774235 0
M  V30 1861 H 170.306 -3.28007 -2.58298 0
M  V30 1862 H 171.696 -6.70479 -0.436813 0
M  V30 1863 N 174.416 0.165178 -1.56732 0
M  V30 1864 C 175.662 0.877389 -1.83503 0
M  V30 1865 C 176.017 1.79602 -0.689996 0
M  V30 1866 O 175.31 1.89023 0.313205 0
M  V30 1867 C 175.504 1.70405 -3.1416 0
M  V30 1868 C 175.333 0.866961 -4.41264 0
M  V30 1869 C 174.103 0.539646 -5.0241 0
M  V30 1870 C 176.301 0.205671 -5.13889 0
M  V30 1871 N 174.283 -0.312946 -6.13102 0
M  V30 1872 C 175.654 -0.507823 -6.17917 0
M  V30 1873 C 177.709 0.124468 -4.97744 0
M  V30 1874 C 176.412 -1.29483 -7.0755 0
M  V30 1875 C 178.438 -0.649222 -5.87826 0
M  V30 1876 C 177.8 -1.35106 -6.91322 0
M  V30 1877 H 173.899 0.299477 -0.722383 0
M  V30 1878 H 176.483 0.143949 -1.94167 0
M  V30 1879 H 174.654 2.40887 -3.04677 0
M  V30 1880 H 176.386 2.35804 -3.28905 0
M  V30 1881 H 173.141 0.871176 -4.65519 0
M  V30 1882 H 173.565 -0.729731 -6.73056 0
M  V30 1883 H 178.207 0.652724 -4.17731 0
M  V30 1884 H 175.925 -1.83441 -7.87004 0
M  V30 1885 H 179.511 -0.713804 -5.77405 0
M  V30 1886 H 178.391 -1.94013 -7.59821 0
M  V30 1887 N 175.894 1.51508 0.433938 0
M  V30 1888 C 176.824 1.76016 1.53429 0
M  V30 1889 C 177.805 0.610112 1.58782 0
M  V30 1890 O 178.99 0.853177 1.74455 0
M  V30 1891 C 176.12 1.88831 2.9148 0
M  V30 1892 C 175.074 3.04288 3.00987 0
M  V30 1893 C 174.4 3.0229 4.4105 0
M  V30 1894 C 175.7 4.44193 2.74754 0
M  V30 1895 H 177.394 2.68152 1.33171 0
M  V30 1896 H 174.94 1.29035 0.639214 0
M  V30 1897 H 176.893 2.04559 3.6842 0
M  V30 1898 H 175.617 0.933455 3.12976 0
M  V30 1899 H 174.276 2.8827 2.26486 0
M  V30 1900 H 173.924 2.04576 4.59519 0
M  V30 1901 H 173.624 3.79822 4.4834 0
M  V30 1902 H 175.148 3.20116 5.1996 0
M  V30 1903 H 176.562 4.60544 3.41426 0
M  V30 1904 H 174.959 5.23457 2.9345 0
M  V30 1905 H 176.029 4.53996 1.70339 0
M  V30 1906 N 177.372 -0.689602 1.41712 0
M  V30 1907 C 178.618 -1.45041 1.42599 0
M  V30 1908 C 178.973 -1.92366 0.0363764 0
M  V30 1909 O 178.266 -1.67022 -0.938844 0
M  V30 1910 C 178.46 -2.67298 2.37247 0
M  V30 1911 C 178.289 -2.31935 3.85274 0
M  V30 1912 C 177.059 -2.2201 4.53916 0
M  V30 1913 C 179.257 -1.94526 4.76093 0
M  V30 1914 N 177.239 -1.79594 5.87043 0
M  V30 1915 C 178.61 -1.62915 5.98213 0
M  V30 1916 C 180.665 -1.81388 4.63684 0
M  V30 1917 C 179.368 -1.19486 7.09306 0
M  V30 1918 C 181.394 -1.39364 5.74745 0
M  V30 1919 C 180.756 -1.08668 6.95967 0
M  V30 1920 H 176.855 -0.527806 0.577014 0
M  V30 1921 H 179.439 -0.797266 1.77628 0
M  V30 1922 H 177.61 -3.30325 2.04304 0
M  V30 1923 H 179.342 -3.33806 2.28814 0
M  V30 1924 H 176.097 -2.406 4.07932 0
M  V30 1925 H 176.521 -1.60851 6.57614 0
M  V30 1926 H 181.163 -2.03772 3.70455 0
M  V30 1927 H 178.881 -0.958477 8.02396 0
M  V30 1928 H 182.467 -1.2974 5.6715 0
M  V30 1929 H 181.347 -0.766417 7.80446 0
M  V30 1930 N 178.85 -1.27639 -0.924453 0
M  V30 1931 C 179.813 -1.10681 -2.00705 0
M  V30 1932 C 180.813 -0.0497823 -1.60723 0
M  V30 1933 O 182.003 -0.294654 -1.7169 0
M  V30 1934 C 179.135 -0.687164 -3.33902 0
M  V30 1935 H 180.328 -2.06817 -2.17179 0
M  V30 1936 H 177.881 -1.10473 -1.10569 0
M  V30 1937 H 178.616 0.275439 -3.23128 0
M  V30 1938 H 178.401 -1.45061 -3.6428 0
M  V30 1939 H 179.891 -0.590853 -4.13399 0
M  V30 1940 N 180.328 1.1314 -1.09713 0
M  V30 1941 C 181.26 2.18343 -0.697056 0
M  V30 1942 C 182.273 1.60669 0.262551 0
M  V30 1943 O 183.462 1.78435 0.0481527 0
M  V30 1944 C 180.562 3.38899 -0.00684728 0
M  V30 1945 C 179.735 4.26078 -0.988741 0
M  V30 1946 C 178.794 5.25155 -0.331394 0
M  V30 1947 O 177.82 5.60701 -0.979926 0
M  V30 1948 N 179.022 5.73271 0.913261 0
M  V30 1949 H 181.787 2.5328 -1.60216 0
M  V30 1950 H 179.348 1.28491 -0.984971 0
M  V30 1951 H 181.34 4.02255 0.444191 0
M  V30 1952 H 179.91 3.02175 0.800551 0
M  V30 1953 H 179.13 3.59453 -1.61826 0
M  V30 1954 H 180.418 4.81178 -1.65364 0
M  V30 1955 H 179.816 5.46544 1.45966 0
M  V30 1956 H 178.373 6.3855 1.30757 0
M  V30 1957 N 181.806 0.884767 1.30421 0
M  V30 1958 C 183.083 0.423185 1.90967 0
M  V30 1959 C 183.463 -1.09605 1.80416 0
M  V30 1960 O 182.811 -1.93126 1.22125 0
M  V30 1961 C 183.021 0.921056 3.36627 0
M  V30 1962 C 184.369 0.955903 4.137 0
M  V30 1963 O 185.393 0.867706 3.4547 0
M  V30 1964 O 184.252 1.08614 5.35598 0
M  V30 1965 H 181.346 0.129369 0.816819 0
M  V30 1966 H 183.892 0.973653 1.3899 0
M  V30 1967 H 182.664 1.96489 3.3839 0
M  V30 1968 H 182.287 0.349741 3.96059 0
M  V30 1969 N 183.284 -1.43765 0.645699 0
M  V30 1970 C 184.7 -1.56509 0.312591 0
M  V30 1971 C 184.9 -1.6307 -1.18365 0
M  V30 1972 O 183.956 -1.58167 -1.96824 0
M  V30 1973 C 185.269 -2.82968 1.01733 0
M  V30 1974 C 186.817 -2.96701 0.996865 0
M  V30 1975 C 187.292 -4.25982 1.68236 0
M  V30 1976 N 188.783 -4.32829 1.64964 0
M  V30 1977 C 189.518 -5.31613 2.14885 0
M  V30 1978 N 189.014 -6.36718 2.73061 0
M  V30 1979 N 190.807 -5.23217 2.05428 0
M  V30 1980 H 182.958 -1.3775 1.61675 0
M  V30 1981 H 185.221 -0.661067 0.679481 0
M  V30 1982 H 184.927 -2.84156 2.0724 0
M  V30 1983 H 184.801 -3.72957 0.564177 0
M  V30 1984 H 187.188 -2.95058 -0.0497719 0
M  V30 1985 H 187.269 -2.08022 1.48865 0
M  V30 1986 H 186.913 -4.28386 2.72852 0
M  V30 1987 H 186.843 -5.13545 1.16529 0
M  V30 1988 H 189.334 -3.57493 1.22503 0
M  V30 1989 H 189.647 -7.08401 3.08848 0
M  V30 1990 H 187.992 -6.37362 2.77118 0
M  V30 1991 H 191.183 -4.40019 1.59689 0
M  V30 1992 H 191.356 -6.00045 2.44643 0
M  V30 1993 N 184.763 -0.387143 -1.52771 0
M  V30 1994 C 185.71 0.449048 -2.26389 0
M  V30 1995 C 186.68 1.05961 -1.27912 0
M  V30 1996 O 187.865 1.08804 -1.56737 0
M  V30 1997 C 185.005 1.57155 -3.0724 0
M  V30 1998 C 184.118 0.984066 -4.20643 0
M  V30 1999 C 183.253 2.07745 -4.88892 0
M  V30 2000 C 182.292 1.46574 -5.94292 0
M  V30 2001 N 181.429 2.49834 -6.56146 0
M  V30 2002 H 186.269 -0.185205 -2.97424 0
M  V30 2003 H 183.806 -0.103164 -1.46738 0
M  V30 2004 H 185.764 2.23309 -3.52405 0
M  V30 2005 H 184.394 2.17615 -2.38419 0
M  V30 2006 H 183.446 0.212193 -3.79808 0
M  V30 2007 H 184.758 0.497029 -4.96318 0
M  V30 2008 H 183.912 2.81673 -5.3735 0
M  V30 2009 H 182.651 2.59807 -4.12737 0
M  V30 2010 H 181.656 0.711696 -5.45174 0
M  V30 2011 H 182.881 0.953088 -6.72379 0
M  V30 2012 H 180.827 3.0107 -5.82832 0
M  V30 2013 H 180.744 2.05879 -7.27427 0
M  V30 2014 H 182.012 3.23399 -7.09249 0
M  V30 2015 N 186.241 1.57166 -0.116904 0
M  V30 2016 C 187.204 2.14039 0.819742 0
M  V30 2017 C 188.204 1.07477 1.19605 0
M  V30 2018 O 189.394 1.33263 1.1219 0
M  V30 2019 C 186.526 2.67891 2.10826 0
M  V30 2020 H 187.719 2.98128 0.325511 0
M  V30 2021 H 185.272 1.55739 0.132312 0
M  V30 2022 H 186.007 1.87384 2.64685 0
M  V30 2023 H 185.792 3.45823 1.84793 0
M  V30 2024 H 187.282 3.11809 2.77785 0
M  V30 2025 N 187.719 -0.156864 1.56817 0
M  V30 2026 C 188.649 -1.19589 2.00551 0
M  V30 2027 C 189.63 -1.4536 0.883426 0
M  V30 2028 O 190.815 -1.56449 1.15054 0
M  V30 2029 C 187.945 -2.53143 2.37773 0
M  V30 2030 C 186.899 -2.41913 3.53075 0
M  V30 2031 C 186.225 -3.80088 3.76081 0
M  V30 2032 C 187.525 -1.91157 4.86062 0
M  V30 2033 H 189.219 -0.832293 2.87599 0
M  V30 2034 H 186.765 -0.398918 1.38364 0
M  V30 2035 H 188.718 -3.26047 2.66967 0
M  V30 2036 H 187.442 -2.91319 1.4765 0
M  V30 2037 H 186.101 -1.71462 3.24031 0
M  V30 2038 H 185.749 -4.15683 2.83225 0
M  V30 2039 H 185.449 -3.73439 4.53671 0
M  V30 2040 H 186.973 -4.54556 4.0769 0
M  V30 2041 H 188.387 -2.53846 5.14038 0
M  V30 2042 H 186.784 -1.95422 5.67389 0
M  V30 2043 H 187.854 -0.866673 4.77092 0
M  V30 2044 N 189.197 -1.51736 -0.425897 0
M  V30 2045 C 190.16 -1.73271 -1.50032 0
M  V30 2046 C 191.16 -0.602639 -1.4908 0
M  V30 2047 O 192.35 -0.87033 -1.509 0
M  V30 2048 C 189.482 -1.79969 -2.89523 0
M  V30 2049 H 190.675 -2.69172 -1.32237 0
M  V30 2050 H 188.228 -1.41899 -0.65532 0
M  V30 2051 H 188.963 -0.859241 -3.1271 0
M  V30 2052 H 188.748 -2.62109 -2.91619 0
M  V30 2053 H 190.238 -1.9843 -3.67444 0
M  V30 2054 N 190.675 0.682077 -1.42076 0
M  V30 2055 C 191.924 1.43786 -1.41451 0
M  V30 2056 C 192.237 1.95574 -0.0317074 0
M  V30 2057 O 193.443 2.71326 0.0971462 0
M  V30 2058 C 191.899 2.60071 -2.48779 0
M  V30 2059 C 191.507 2.15013 -3.93031 0
M  V30 2060 C 193.251 3.37626 -2.57311 0
M  V30 2061 C 191.158 3.28336 -4.91883 0
M  V30 2062 H 190.088 0.540143 -0.526082 0
M  V30 2063 H 192.739 0.739157 -1.67955 0
M  V30 2064 H 191.121 3.32275 -2.15429 0
M  V30 2065 H 192.295 1.5001 -4.35699 0
M  V30 2066 H 190.61 1.50416 -3.88284 0
M  V30 2067 H 193.207 4.22012 -3.28345 0
M  V30 2068 H 193.55 3.83727 -1.61429 0
M  V30 2069 H 194.083 2.72488 -2.89819 0
M  V30 2070 H 190.822 2.87234 -5.89217 0
M  V30 2071 H 190.342 3.92145 -4.53853 0
M  V30 2072 H 192.021 3.93913 -5.13265 0
M  V30 2073 N 192.153 1.28127 0.917671 0
M  V30 2074 C 193.383 1.17722 1.6978 0
M  V30 2075 C 193.791 -0.267261 1.87303 0
M  V30 2076 O 193.134 -1.19286 1.39702 0
M  V30 2077 C 193.196 1.79958 3.11216 0
M  V30 2078 C 192.86 3.29187 3.16993 0
M  V30 2079 C 193.857 4.25679 2.98485 0
M  V30 2080 C 191.542 3.70075 3.39632 0
M  V30 2081 C 193.536 5.61035 3.02521 0
M  V30 2082 C 191.223 5.05557 3.433 0
M  V30 2083 C 192.221 6.00847 3.24764 0
M  V30 2084 O 191.909 7.33859 3.28187 0
M  V30 2085 H 191.641 0.409788 0.537634 0
M  V30 2086 H 194.195 1.69694 1.15728 0
M  V30 2087 H 192.425 1.22475 3.66793 0
M  V30 2088 H 194.114 1.64125 3.71238 0
M  V30 2089 H 194.88 3.95426 2.80826 0
M  V30 2090 H 190.759 2.96373 3.53106 0
M  V30 2091 H 194.303 6.35388 2.87971 0
M  V30 2092 H 190.2 5.35462 3.60486 0
M  V30 2093 H 190.968 7.42436 3.44575 0
M  V30 2094 N 193.631 -1.12557 1.10312 0
M  V30 2095 C 194.561 -2.20341 0.772798 0
M  V30 2096 C 195.542 -1.68198 -0.25365 0
M  V30 2097 O 196.727 -1.93831 -0.119699 0
M  V30 2098 C 193.857 -3.46709 0.202443 0
M  V30 2099 C 192.811 -4.11996 1.15943 0
M  V30 2100 C 192.137 -5.328 0.450345 0
M  V30 2101 C 193.437 -4.5828 2.50552 0
M  V30 2102 H 195.131 -2.48229 1.674 0
M  V30 2103 H 192.677 -1.19308 0.806326 0
M  V30 2104 H 194.63 -4.2138 -0.0407752 0
M  V30 2105 H 193.354 -3.18245 -0.734001 0
M  V30 2106 H 192.013 -3.39305 1.38808 0
M  V30 2107 H 191.661 -5.00602 -0.490531 0
M  V30 2108 H 191.361 -5.7743 1.08851 0
M  V30 2109 H 192.885 -6.10219 0.215642 0
M  V30 2110 H 194.299 -5.2433 2.31843 0
M  V30 2111 H 192.696 -5.13683 3.10242 0
M  V30 2112 H 193.766 -3.72329 3.10643 0
M  V30 2113 N 195.109 -0.891671 -1.2995 0
M  V30 2114 C 196.041 -0.320695 -2.26945 0
M  V30 2115 C 197.054 0.528497 -1.53983 0
M  V30 2116 O 198.243 0.346959 -1.75096 0
M  V30 2117 C 195.343 0.562066 -3.34207 0
M  V30 2118 C 194.516 -0.259576 -4.36629 0
M  V30 2119 C 193.575 0.554739 -5.23268 0
M  V30 2120 O 192.601 -0.0249311 -5.69195 0
M  V30 2121 N 193.803 1.8625 -5.4981 0
M  V30 2122 H 196.568 -1.15432 -2.76578 0
M  V30 2123 H 194.129 -0.755336 -1.432 0
M  V30 2124 H 196.121 1.11304 -3.89093 0
M  V30 2125 H 194.691 1.29637 -2.84452 0
M  V30 2126 H 193.911 -0.991986 -3.81514 0
M  V30 2127 H 195.199 -0.822564 -5.02107 0
M  V30 2128 H 194.597 2.35628 -5.14292 0
M  V30 2129 H 193.154 2.36078 -6.07545 0
M  V30 2130 N 196.587 1.43421 -0.653314 0
M  V30 2131 C 197.535 2.32546 0.0501531 0
M  V30 2132 C 198.529 1.48617 0.812985 0
M  V30 2133 O 199.735 1.64825 0.723375 0
M  V30 2134 H 196.11 0.751185 0.0350032 0
M  V30 2135 H 198.081 2.89602 -0.719261 0
M  V30 2136 C 196.83 3.32925 1.00279 0
M  V30 2137 H 196.153 3.97532 0.425236 0
M  V30 2138 H 197.593 3.9792 1.46409 0
M  V30 2139 C 196.052 2.63532 2.09886 0
M  V30 2140 O 196.582 2.45092 3.18265 0
M  V30 2141 N 194.788 2.22905 1.86445 0
M  V30 2142 H 194.335 2.38103 0.98309 0
M  V30 2143 H 194.293 1.76805 2.59976 0
M  V30 2144 N 198.065 0.39524 1.52563 0
M  V30 2145 C 198.997 -0.472201 2.24283 0
M  V30 2146 C 200.01 -1.02178 1.26742 0
M  V30 2147 O 201.199 -0.923097 1.52778 0
M  V30 2148 C 198.299 -1.66775 2.95024 0
M  V30 2149 C 197.472 -1.2445 4.19322 0
M  V30 2150 C 196.531 -2.30539 4.7301 0
M  V30 2151 O 195.557 -1.91702 5.35947 0
M  V30 2152 N 196.759 -3.6253 4.53379 0
M  V30 2153 H 199.524 0.142282 2.99362 0
M  V30 2154 H 197.085 0.2219 1.60372 0
M  V30 2155 H 199.077 -2.37283 3.27839 0
M  V30 2156 H 197.647 -2.18845 2.23217 0
M  V30 2157 H 196.867 -0.368069 3.92478 0
M  V30 2158 H 198.155 -0.938457 5.0007 0
M  V30 2159 H 197.553 -3.96841 4.03154 0
M  V30 2160 H 196.11 -4.29055 4.90668 0
M  V30 2161 N 199.544 -1.57102 0.125237 0
M  V30 2162 C 200.79 -1.95697 -0.532035 0
M  V30 2163 C 201.123 -1.009 -1.6593 0
M  V30 2164 O 200.398 -0.047347 -1.94442 0
M  V30 2165 C 200.681 -3.44181 -1.05884 0
M  V30 2166 C 200.534 -4.49752 0.0654392 0
M  V30 2167 C 201.853 -3.94655 -1.9477 0
M  V30 2168 H 198.972 -0.711571 -0.191925 0
M  V30 2169 H 201.614 -1.88923 0.20206 0
M  V30 2170 H 199.764 -3.50085 -1.68442 0
M  V30 2171 H 201.436 -4.55943 0.700982 0
M  V30 2172 H 199.679 -4.27653 0.727709 0
M  V30 2173 H 200.35 -5.50924 -0.344505 0
M  V30 2174 H 202.826 -3.91094 -1.42074 0
M  V30 2175 H 201.702 -4.99057 -2.28546 0
M  V30 2176 H 201.963 -3.35718 -2.87656 0
M  V30 2177 N 201.022 0.148545 -1.56898 0
M  V30 2178 C 202.247 0.880385 -1.87787 0
M  V30 2179 C 202.672 1.74018 -0.714093 0
M  V30 2180 O 202.03 1.78153 0.336343 0
M  V30 2181 C 202.078 1.71422 -3.17249 0
M  V30 2182 O 201.182 2.8183 -3.01074 0
M  V30 2183 H 200.523 0.245301 -0.617028 0
M  V30 2184 H 203.053 0.139826 -2.04122 0
M  V30 2185 H 203.063 2.10954 -3.49231 0
M  V30 2186 H 201.738 1.08284 -4.01556 0
M  V30 2187 H 200.315 2.45715 -2.80497 0
M  V30 2188 N 202.5 1.5196 0.417844 0
M  V30 2189 C 203.746 1.65836 1.16732 0
M  V30 2190 C 204.079 0.382881 1.90388 0
M  V30 2191 O 203.354 -0.618368 1.84408 0
M  V30 2192 C 203.637 2.87466 2.16876 0
M  V30 2193 C 203.49 4.25041 1.47174 0
M  V30 2194 C 204.809 3.04613 3.17646 0
M  V30 2195 H 201.928 0.603515 0.423011 0
M  V30 2196 H 204.57 1.84494 0.454105 0
M  V30 2197 H 202.72 2.71689 2.777 0
M  V30 2198 H 204.392 4.52527 0.895376 0
M  V30 2199 H 202.635 4.26843 0.773806 0
M  V30 2200 H 203.306 5.06176 2.20204 0
M  V30 2201 H 205.782 3.1923 2.66892 0
M  V30 2202 H 204.658 3.91247 3.8499 0
M  V30 2203 H 204.919 2.17541 3.84874 0
M  V30 2204 N 203.978 -0.674533 1.42435 0
M  V30 2205 C 204.941 -1.76986 1.45632 0
M  V30 2206 C 205.941 -1.5708 0.343871 0
M  V30 2207 O 207.131 -1.63367 0.604709 0
M  V30 2208 C 204.263 -3.15623 1.28822 0
M  V30 2209 H 205.456 -1.75539 2.43158 0
M  V30 2210 H 203.009 -0.884189 1.28887 0
M  V30 2211 H 203.744 -3.22696 0.322193 0
M  V30 2212 H 203.529 -3.31475 2.09444 0
M  V30 2213 H 205.019 -3.95537 1.33942 0
M  V30 2214 N 205.456 -1.28612 -0.910864 0
M  V30 2215 C 206.703 -1.15934 -1.66029 0
M  V30 2216 C 207.031 0.291483 -1.92303 0
M  V30 2217 O 206.286 1.22816 -1.52364 0
M  V30 2218 C 206.585 -1.90624 -3.0232 0
M  V30 2219 C 206.251 -3.40405 -2.95695 0
M  V30 2220 C 204.913 -3.81255 -2.93595 0
M  V30 2221 C 207.265 -4.359 -2.85728 0
M  V30 2222 C 204.593 -5.15936 -2.79334 0
M  V30 2223 C 206.945 -5.70657 -2.73007 0
M  V30 2224 C 205.609 -6.10779 -2.69267 0
M  V30 2225 H 204.879 -0.424234 -0.607541 0
M  V30 2226 H 207.526 -1.5942 -1.06101 0
M  V30 2227 H 205.831 -1.39696 -3.6605 0
M  V30 2228 H 207.528 -1.78228 -3.59215 0
M  V30 2229 H 204.118 -3.07927 -2.98125 0
M  V30 2230 H 208.302 -4.053 -2.86436 0
M  V30 2231 H 203.558 -5.46146 -2.74835 0
M  V30 2232 H 207.732 -6.44311 -2.64264 0
M  V30 2233 H 205.359 -7.1509 -2.57974 0
M  V30 2234 N 206.934 1.1197 -1.10907 0
M  V30 2235 C 208.182 1.83225 -0.852819 0
M  V30 2236 C 208.503 1.84769 0.623341 0
M  V30 2237 O 207.773 1.3143 1.45269 0
M  V30 2238 H 206.353 0.67849 -0.312507 0
M  V30 2239 H 209.015 1.3556 -1.40033 0
M  V30 2240 H 208.111 2.87265 -1.22005 0
M  V30 2241 N 208.412 0.89855 1.29475 0
M  V30 2242 C 209.658 0.524658 1.95896 0
M  V30 2243 C 209.991 -0.926468 1.70676 0
M  V30 2244 O 209.266 -1.65665 1.01908 0
M  V30 2245 C 209.549 0.81633 3.50725 0
M  V30 2246 C 209.402 2.31907 3.85408 0
M  V30 2247 C 210.721 0.302038 4.39062 0
M  V30 2248 H 207.84 0.19209 0.711527 0
M  V30 2249 H 210.482 1.12502 1.53112 0
M  V30 2250 H 208.632 0.305369 3.87298 0
M  V30 2251 H 210.304 2.89949 3.58786 0
M  V30 2252 H 208.547 2.78027 3.32992 0
M  V30 2253 H 209.218 2.47373 4.93468 0
M  V30 2254 H 211.694 0.739551 4.09475 0
M  V30 2255 H 210.57 0.535331 5.46283 0
M  V30 2256 H 210.831 -0.797216 4.34853 0
M  V30 2257 N 209.89 -1.43072 0.660911 0
M  V30 2258 C 211.167 -1.95307 0.107017 0
M  V30 2259 C 211.547 -1.60192 -1.37484 0
M  V30 2260 O 210.895 -0.890949 -2.10415 0
M  V30 2261 C 211.105 -3.47124 0.361402 0
M  V30 2262 C 212.453 -4.23738 0.270455 0
M  V30 2263 O 213.477 -3.54981 0.294382 0
M  V30 2264 O 212.336 -5.46131 0.200737 0
M  V30 2265 H 209.43 -0.826984 -0.00517729 0
M  V30 2266 H 211.976 -1.52972 0.734681 0
M  V30 2267 H 210.748 -3.65837 1.38848 0
M  V30 2268 H 210.371 -3.96475 -0.298953 0
M  V30 2269 N 211.368 -0.403325 -1.52352 0
M  V30 2270 C 212.617 0.175668 -2.00934 0
M  V30 2271 C 212.93 1.46718 -1.29356 0
M  V30 2272 O 214.136 2.12708 -1.68724 0
M  V30 2273 C 212.592 0.363612 -3.58058 0
M  V30 2274 C 212.2 -0.915472 -4.38547 0
M  V30 2275 C 213.944 0.89821 -4.14888 0
M  V30 2276 C 211.851 -0.695035 -5.87302 0
M  V30 2277 H 210.781 0.0694234 -0.750797 0
M  V30 2278 H 213.432 -0.527879 -1.75743 0
M  V30 2279 H 211.814 1.12935 -3.79555 0
M  V30 2280 H 212.988 -1.68691 -4.28812 0
M  V30 2281 H 211.303 -1.37606 -3.93006 0
M  V30 2282 H 213.9 1.07907 -5.23699 0
M  V30 2283 H 214.243 1.87126 -3.71873 0
M  V30 2284 H 214.776 0.191681 -3.97338 0
M  V30 2285 H 211.515 -1.63948 -6.34666 0
M  V30 2286 H 211.035 0.0372116 -5.99788 0
M  V30 2287 H 212.714 -0.33497 -6.46132 0
M  V30 2288 N 212.846 1.57033 -0.133567 0
M  V30 2289 C 213.796 2.12641 0.822671 0
M  V30 2290 C 214.78 1.05081 1.21847 0
M  V30 2291 O 215.972 1.31287 1.18713 0
M  V30 2292 C 213.101 2.74094 2.06706 0
M  V30 2293 C 212.187 3.88757 1.69497 0
M  V30 2294 N 212.578 4.95194 1.03037 0
M  V30 2295 C 210.876 3.99213 1.98859 0
M  V30 2296 C 211.577 5.75414 0.852873 0
M  V30 2297 N 210.553 5.25726 1.3825 0
M  V30 2298 H 214.355 2.92308 0.305537 0
M  V30 2299 H 211.869 1.62256 0.0684276 0
M  V30 2300 H 213.866 3.12285 2.76195 0
M  V30 2301 H 212.526 1.95896 2.5895 0
M  V30 2302 H 213.537 5.13247 0.692669 0
M  V30 2303 H 210.214 3.32075 2.53047 0
M  V30 2304 H 211.604 6.71089 0.330091 0
M  V30 2305 N 214.325 -0.140222 1.56975 0
M  V30 2306 C 215.736 -0.699596 1.73097 0
M  V30 2307 C 216.087 -1.8134 0.749022 0
M  V30 2308 O 215.212 -2.16241 -0.0828503 0
M  V30 2309 C 215.807 -1.27582 3.1386 0
M  V30 2310 C 214.366 -1.78169 3.31561 0
M  V30 2311 C 213.513 -0.672855 2.69013 0
M  V30 2312 H 216.464 0.0855115 1.58469 0
M  V30 2313 H 216.485 -2.14561 3.14235 0
M  V30 2314 H 215.997 -0.464955 3.85305 0
M  V30 2315 H 214.098 -2.61801 2.65124 0
M  V30 2316 H 214.211 -1.90574 4.39566 0
M  V30 2317 H 212.575 -1.10118 2.29665 0
M  V30 2318 H 213.358 0.126679 3.43066 0
M  V30 2319 N 215.803 -1.52179 -0.40978 0
M  V30 2320 C 216.766 -1.74853 -1.48186 0
M  V30 2321 C 217.766 -0.618417 -1.48433 0
M  V30 2322 O 218.956 -0.886286 -1.49969 0
M  V30 2323 C 216.088 -1.8303 -2.87598 0
M  V30 2324 H 217.281 -2.70559 -1.29374 0
M  V30 2325 H 214.834 -1.42586 -0.640233 0
M  V30 2326 H 215.569 -0.89236 -3.11781 0
M  V30 2327 H 215.354 -2.65187 -2.88822 0
M  V30 2328 H 216.844 -2.02316 -3.65319 0
M  V30 2329 N 217.281 0.66697 -1.42791 0
M  V30 2330 C 218.244 1.76211 -1.46568 0
M  V30 2331 C 219.244 1.56896 -0.352196 0
M  V30 2332 O 220.434 1.63044 -0.613364 0
M  V30 2333 C 217.566 3.14935 -1.30494 0
M  V30 2334 H 218.759 1.74247 -2.44086 0
M  V30 2335 H 216.312 0.877342 -1.29354 0
M  V30 2336 H 217.047 3.2252 -0.339301 0
M  V30 2337 H 216.832 3.30359 -2.11199 0
M  V30 2338 H 218.322 3.94821 -1.36038 0
M  V30 2339 N 218.759 1.29093 0.90403 0
M  V30 2340 C 219.987 1.19689 1.68766 0
M  V30 2341 C 220.402 -0.243113 1.87228 0
M  V30 2342 O 219.759 -1.16326 1.40621 0
M  V30 2343 C 219.81 1.90144 3.07453 0
M  V30 2344 O 219.531 3.2852 2.89838 0
M  V30 2345 C 221.032 1.87162 4.01852 0
M  V30 2346 H 218.252 0.415035 0.527244 0
M  V30 2347 H 220.796 1.7039 1.13082 0
M  V30 2348 H 218.951 1.43289 3.59926 0
M  V30 2349 H 219.365 3.63944 3.77684 0
M  V30 2350 H 220.839 2.41032 4.96596 0
M  V30 2351 H 221.316 0.84617 4.30972 0
M  V30 2352 H 221.922 2.33741 3.5531 0
M  V30 2353 N 220.237 -1.11381 1.11499 0
M  V30 2354 C 221.486 -1.82494 0.858993 0
M  V30 2355 C 221.799 -1.85605 -0.617278 0
M  V30 2356 O 223.005 -2.52824 -0.989552 0
M  V30 2357 C 221.461 -3.27745 1.48699 0
M  V30 2358 C 221.069 -3.32961 2.99735 0
M  V30 2359 C 222.813 -4.03754 1.31085 0
M  V30 2360 C 220.72 -4.72612 3.55516 0
M  V30 2361 H 219.65 -0.683802 0.317696 0
M  V30 2362 H 222.301 -1.25331 1.34031 0
M  V30 2363 H 220.683 -3.84844 0.933339 0
M  V30 2364 H 221.857 -2.85741 3.61509 0
M  V30 2365 H 220.172 -2.70433 3.16631 0
M  V30 2366 H 222.769 -5.06891 1.70192 0
M  V30 2367 H 223.112 -4.15527 0.253496 0
M  V30 2368 H 223.645 -3.53043 1.83318 0
M  V30 2369 H 220.384 -4.66036 4.60967 0
M  V30 2370 H 219.904 -5.2024 2.98513 0
M  V30 2371 H 221.583 -5.4157 3.53992 0
M  V30 2372 N 221.715 -0.905404 -1.28997 0
M  V30 2373 C 222.963 -0.533192 -1.9494 0
M  V30 2374 C 223.284 0.924618 -1.71685 0
M  V30 2375 O 222.554 1.65268 -1.05183 0
M  V30 2376 H 221.134 -0.194194 -0.721317 0
M  V30 2377 H 223.796 -1.15294 -1.57141 0
M  V30 2378 H 222.892 -0.72059 -3.03667 0
M  V30 2379 N 223.193 1.4272 -0.668489 0
M  V30 2380 C 224.433 2.03497 -0.19194 0
M  V30 2381 C 224.797 1.51684 1.17712 0
M  V30 2382 O 225.998 2.04205 1.74796 0
M  V30 2383 C 224.269 3.56734 -0.218032 0
M  V30 2384 S 225.828 4.38395 0.188438 0
M  V30 2385 H 222.646 0.706542 -0.0794959 0
M  V30 2386 H 225.248 1.74563 -0.880235 0
M  V30 2387 H 223.952 3.91943 -1.2169 0
M  V30 2388 H 223.483 3.90333 0.490303 0
M  V30 2389 H 225.498 4.75345 1.42345 0
M  V30 2390 N 224.671 0.411399 1.52136 0
M  V30 2391 C 225.919 -0.163322 2.01439 0
M  V30 2392 C 226.24 -1.45453 1.29879 0
M  V30 2393 O 225.51 -1.91225 0.4254 0
M  V30 2394 H 224.09 -0.0633447 0.744309 0
M  V30 2395 H 226.752 0.548161 1.87033 0
M  V30 2396 H 225.848 -0.357817 3.10042 0
M  V30 2397 N 226.149 -1.5696 0.141893 0
M  V30 2398 C 227.398 -1.95135 -0.510427 0
M  V30 2399 C 227.711 -1.02896 -1.66348 0
M  V30 2400 O 228.917 -1.30629 -2.38009 0
M  V30 2401 C 227.373 -3.46876 -0.959427 0
M  V30 2402 C 226.981 -4.47691 0.166419 0
M  V30 2403 C 228.725 -3.93927 -1.58183 0
M  V30 2404 C 226.632 -5.90636 -0.300565 0
M  V30 2405 H 225.562 -0.728494 -0.194454 0
M  V30 2406 H 228.213 -1.8211 0.22542 0
M  V30 2407 H 226.595 -3.55215 -1.75038 0
M  V30 2408 H 227.769 -4.51043 0.94325 0
M  V30 2409 H 226.084 -4.10527 0.696905 0
M  V30 2410 H 228.681 -4.98158 -1.94275 0
M  V30 2411 H 229.024 -3.3519 -2.46888 0
M  V30 2412 H 229.557 -3.88484 -0.855863 0
M  V30 2413 H 226.296 -6.5318 0.550989 0
M  V30 2414 H 225.816 -5.90655 -1.04338 0
M  V30 2415 H 227.495 -6.42588 -0.754265 0
M  V30 2416 N 227.627 0.131896 -1.57047 0
M  V30 2417 C 228.56 1.19236 -1.94571 0
M  V30 2418 C 229.538 1.40782 -0.813576 0
M  V30 2419 O 230.722 1.55148 -1.07058 0
M  V30 2420 C 227.849 2.54858 -2.23081 0
M  V30 2421 C 226.895 2.49817 -3.45679 0
M  V30 2422 S 227.728 1.95036 -4.98719 0
M  V30 2423 C 228.884 3.32357 -5.30367 0
M  V30 2424 H 229.117 0.872297 -2.84215 0
M  V30 2425 H 226.65 0.338134 -1.50652 0
M  V30 2426 H 228.608 3.32898 -2.40185 0
M  V30 2427 H 227.269 2.84047 -1.34074 0
M  V30 2428 H 226.462 3.49688 -3.62952 0
M  V30 2429 H 226.064 1.79892 -3.27895 0
M  V30 2430 H 228.356 4.28525 -5.2476 0
M  V30 2431 H 229.299 3.19923 -6.31708 0
M  V30 2432 H 229.707 3.3019 -4.57859 0
M  V30 2433 N 229.106 1.52395 0.401703 0
M  V30 2434 C 230.036 1.79231 1.49661 0
M  V30 2435 C 231.017 0.643654 1.57452 0
M  V30 2436 O 232.202 0.889989 1.72606 0
M  V30 2437 C 229.332 1.94971 2.87409 0
M  V30 2438 C 228.286 3.10604 2.94465 0
M  V30 2439 C 227.612 3.11577 4.34538 0
M  V30 2440 C 228.912 4.49921 2.6527 0
M  V30 2441 H 230.606 2.70917 1.27454 0
M  V30 2442 H 228.152 1.30362 0.6117 0
M  V30 2443 H 230.105 2.12328 3.63999 0
M  V30 2444 H 228.829 0.999632 3.10926 0
M  V30 2445 H 227.488 2.93009 2.20321 0
M  V30 2446 H 227.136 2.14277 4.55076 0
M  V30 2447 H 226.836 3.89247 4.40183 0
M  V30 2448 H 228.36 3.31073 5.13053 0
M  V30 2449 H 229.774 4.67683 3.31581 0
M  V30 2450 H 228.171 5.29564 2.82281 0
M  V30 2451 H 229.241 4.57507 1.60671 0
M  V30 2452 N 230.584 -0.659388 1.43143 0
M  V30 2453 C 231.861 -1.41627 1.34912 0
M  V30 2454 C 232.241 -2.11099 -0.00607785 0
M  V30 2455 O 231.589 -2.04353 -1.02236 0
M  V30 2456 C 231.799 -2.40604 2.52805 0
M  V30 2457 C 233.147 -3.04789 2.95616 0
M  V30 2458 O 234.171 -2.50932 2.52807 0
M  V30 2459 O 233.03 -4.02421 3.69756 0
M  V30 2460 H 230.124 -0.63246 0.532844 0
M  V30 2461 H 232.67 -0.686814 1.5518 0
M  V30 2462 H 231.442 -1.88174 3.43083 0
M  V30 2463 H 231.065 -3.21009 2.34604 0
M  V30 2464 N 232.062 -1.29571 -0.897171 0
M  V30 2465 C 233.012 -1.11539 -1.98855 0
M  V30 2466 C 233.996 -0.0340716 -1.60864 0
M  V30 2467 O 235.188 -0.256062 -1.75138 0
M  V30 2468 C 232.317 -0.796603 -3.3393 0
M  V30 2469 C 231.403 -1.91758 -3.78272 0
M  V30 2470 N 231.794 -3.16143 -3.94826 0
M  V30 2471 C 230.092 -1.81119 -4.07568 0
M  V30 2472 C 230.793 -3.89293 -4.32233 0
M  V30 2473 N 229.769 -3.17255 -4.41419 0
M  V30 2474 H 233.571 -2.05894 -2.09726 0
M  V30 2475 H 231.085 -1.20732 -1.08616 0
M  V30 2476 H 233.082 -0.648459 -4.11826 0
M  V30 2477 H 231.742 0.139003 -3.24402 0
M  V30 2478 H 232.753 -3.5157 -3.80288 0
M  V30 2479 H 229.43 -0.948461 -4.06584 0
M  V30 2480 H 230.82 -4.9635 -4.52865 0
M  V30 2481 N 233.54 1.10788 -1.12088 0
M  V30 2482 C 234.503 2.15207 -0.788577 0
M  V30 2483 C 235.503 1.59609 0.195317 0
M  V30 2484 O 236.693 1.74174 -0.0300193 0
M  V30 2485 C 233.825 3.4047 -0.171174 0
M  V30 2486 H 235.018 2.46116 -1.71368 0
M  V30 2487 H 232.571 1.26089 -0.923652 0
M  V30 2488 H 233.306 3.15176 0.763832 0
M  V30 2489 H 233.091 3.82109 -0.879514 0
M  V30 2490 H 234.581 4.17576 0.04496 0
M  V30 2491 N 235.018 0.912232 1.28515 0
M  V30 2492 C 236.246 0.560416 1.99166 0
M  V30 2493 C 236.661 -0.857927 1.68182 0
M  V30 2494 O 236.018 -1.56805 0.933733 0
M  V30 2495 C 236.069 0.758142 3.53461 0
M  V30 2496 O 235.79 2.12067 3.83352 0
M  V30 2497 C 237.291 0.412954 4.41372 0
M  V30 2498 H 234.511 0.213805 0.636026 0
M  V30 2499 H 237.055 1.22502 1.63749 0
M  V30 2500 H 235.21 0.140556 3.87145 0
M  V30 2501 H 235.624 2.15923 4.77993 0
M  V30 2502 H 237.098 0.60208 5.48707 0
M  V30 2503 H 237.575 -0.65073 4.34353 0
M  V30 2504 H 238.181 1.00802 4.13182 0
M  V30 2505 N 236.496 -1.42363 0.676048 0
M  V30 2506 C 237.744 -2.01123 0.198437 0
M  V30 2507 C 238.065 -1.53731 -1.19966 0
M  V30 2508 O 237.335 -0.759518 -1.80577 0
M  V30 2509 H 235.915 -0.743678 0.0703721 0
M  V30 2510 H 238.577 -1.74263 0.872837 0
M  V30 2511 H 237.673 -3.11454 0.200686 0
M  V30 2512 N 237.974 -0.419461 -1.51915 0
M  V30 2513 C 239.223 0.154346 -2.01109 0
M  V30 2514 C 239.536 1.45338 -1.30905 0
M  V30 2515 O 240.742 2.10906 -1.7097 0
M  V30 2516 C 239.198 0.325615 -3.58424 0
M  V30 2517 C 238.806 -0.961934 -4.37551 0
M  V30 2518 C 240.55 0.854155 -4.15818 0
M  V30 2519 C 238.457 -0.757287 -5.86531 0
M  V30 2520 H 237.387 0.0614563 -0.751491 0
M  V30 2521 H 240.038 -0.54649 -1.75173 0
M  V30 2522 H 238.42 1.08903 -3.80731 0
M  V30 2523 H 239.594 -1.7323 -4.26999 0
M  V30 2524 H 237.909 -1.41766 -3.91524 0
M  V30 2525 H 240.506 1.02346 -5.24814 0
M  V30 2526 H 240.849 1.83172 -3.73837 0
M  V30 2527 H 241.382 0.149528 -3.97519 0
M  V30 2528 H 238.121 -1.70671 -6.32892 0
M  V30 2529 H 237.641 -0.0264061 -5.99794 0
M  V30 2530 H 239.32 -0.403482 -6.45741 0
M  V30 2531 N 239.452 1.56882 -0.150215 0
M  V30 2532 C 240.698 1.96518 0.500834 0
M  V30 2533 C 241.031 1.03527 1.64304 0
M  V30 2534 O 240.306 0.0782751 1.94342 0
M  V30 2535 C 240.589 3.45822 1.00395 0
M  V30 2536 C 240.442 4.49591 -0.136983 0
M  V30 2537 C 241.761 3.97704 1.88467 0
M  V30 2538 H 238.88 0.714535 0.18058 0
M  V30 2539 H 241.522 1.88577 -0.232091 0
M  V30 2540 H 239.672 3.5272 1.62851 0
M  V30 2541 H 241.344 4.5477 -0.77343 0
M  V30 2542 H 239.587 4.26441 -0.795652 0
M  V30 2543 H 240.258 5.51402 0.256815 0
M  V30 2544 H 242.734 3.93304 1.35834 0
M  V30 2545 H 241.61 5.0263 2.20578 0
M  V30 2546 H 241.871 3.40252 2.82279 0
M  V30 2547 N 240.93 -0.123565 1.57115 0
M  V30 2548 C 242.179 -0.830704 1.83799 0
M  V30 2549 C 242.492 -1.81259 0.735158 0
M  V30 2550 O 243.698 -2.56558 0.888278 0
M  V30 2551 C 242.154 -1.52802 3.25852 0
M  V30 2552 C 241.762 -0.587356 4.44133 0
M  V30 2553 C 243.506 -2.22056 3.61789 0
M  V30 2554 C 241.413 -1.28764 5.77212 0
M  V30 2555 H 240.343 -0.313967 0.685522 0
M  V30 2556 H 242.994 -0.0834359 1.8331 0
M  V30 2557 H 241.376 -2.32175 3.20797 0
M  V30 2558 H 242.55 0.172829 4.60476 0
M  V30 2559 H 240.865 -0.00201892 4.164 0
M  V30 2560 H 243.462 -2.75131 4.58483 0
M  V30 2561 H 243.805 -2.99644 2.88997 0
M  V30 2562 H 244.338 -1.49576 3.68608 0
M  V30 2563 H 241.077 -0.55314 6.53162 0
M  V30 2564 H 240.597 -2.01995 5.64764 0
M  V30 2565 H 242.276 -1.8221 6.20813 0
M  V30 2566 N 242.408 -1.52605 -0.393616 0
M  V30 2567 C 243.656 -1.67093 -1.13685 0
M  V30 2568 C 243.977 -0.411011 -1.90619 0
M  V30 2569 O 243.247 0.574491 -1.87287 0
M  V30 2570 H 241.827 -0.615923 -0.422668 0
M  V30 2571 H 244.489 -1.89704 -0.447039 0
M  V30 2572 H 243.585 -2.51922 -1.84232 0
M  V30 2573 N 243.887 0.651787 -1.4349 0
M  V30 2574 C 244.797 1.79368 -1.5121 0
M  V30 2575 C 245.813 1.69361 -0.399093 0
M  V30 2576 O 246.989 1.90505 -0.653431 0
M  V30 2577 C 244.054 3.15653 -1.43401 0
M  V30 2578 C 243.115 3.37446 -2.65384 0
M  V30 2579 C 242.348 4.67229 -2.57939 0
M  V30 2580 O 242.571 5.46676 -1.62792 0
M  V30 2581 O 241.505 4.90773 -3.48462 0
M  V30 2582 H 245.331 1.7581 -2.47638 0
M  V30 2583 H 242.916 0.810447 -1.25507 0
M  V30 2584 H 244.798 3.96935 -1.41494 0
M  V30 2585 H 243.473 3.19798 -0.501085 0
M  V30 2586 H 242.38 2.55923 -2.72863 0
M  V30 2587 H 243.713 3.38148 -3.57654 0
M  V30 2588 N 245.365 1.30045 0.890287 0
M  V30 2589 C 246.593 1.21472 1.67487 0
M  V30 2590 C 247.008 -0.223241 1.87476 0
M  V30 2591 O 246.365 -1.14828 1.41847 0
M  V30 2592 C 246.416 1.93394 3.05419 0
M  V30 2593 O 246.137 3.31576 2.86337 0
M  V30 2594 C 247.638 1.91414 3.99844 0
M  V30 2595 H 244.858 0.420604 0.522813 0
M  V30 2596 H 247.402 1.7158 1.11268 0
M  V30 2597 H 245.557 1.47099 3.58386 0
M  V30 2598 H 245.971 3.67929 3.73802 0
M  V30 2599 H 247.445 2.46285 4.94012 0
M  V30 2600 H 247.922 0.891833 4.3005 0
M  V30 2601 H 248.528 2.37496 3.52811 0
M  V30 2602 N 246.843 -1.10192 1.12674 0
M  V30 2603 C 247.806 -2.14786 0.799979 0
M  V30 2604 C 248.806 -1.59711 -0.18685 0
M  V30 2605 O 249.996 -1.74156 0.0392558 0
M  V30 2606 C 247.128 -3.40374 0.189228 0
M  V30 2607 H 248.321 -2.45203 1.72671 0
M  V30 2608 H 245.874 -1.25597 0.930326 0
M  V30 2609 H 246.609 -3.15577 -0.747107 0
M  V30 2610 H 246.394 -3.81637 0.899766 0
M  V30 2611 H 247.884 -4.17594 -0.0228143 0
M  V30 2612 N 248.321 -0.919034 -1.28029 0
M  V30 2613 C 249.567 -0.555757 -1.95036 0
M  V30 2614 C 249.9 0.899198 -1.72128 0
M  V30 2615 O 249.175 1.64023 -1.04531 0
M  V30 2616 C 249.458 -0.872024 -3.49382 0
M  V30 2617 C 249.311 -2.3801 -3.81669 0
M  V30 2618 C 250.63 -0.37185 -4.38526 0
M  V30 2619 H 247.749 -0.203386 -0.708381 0
M  V30 2620 H 250.391 -1.14924 -1.51303 0
M  V30 2621 H 248.541 -0.366946 -3.86763 0
M  V30 2622 H 250.213 -2.9562 -3.54128 0
M  V30 2623 H 248.456 -2.83289 -3.28526 0
M  V30 2624 H 249.127 -2.55192 -4.8947 0
M  V30 2625 H 251.603 -0.804602 -4.08247 0
M  V30 2626 H 250.479 -0.622173 -5.45362 0
M  V30 2627 H 250.74 0.727934 -4.36066 0
M  V30 2628 N 249.799 1.42003 -0.683588 0
M  V30 2629 C 251.045 2.01712 -0.209825 0
M  V30 2630 C 251.378 1.53968 1.18353 0
M  V30 2631 O 250.653 0.745661 1.79639 0
M  V30 2632 C 250.936 3.59202 -0.254197 0
M  V30 2633 C 250.789 4.17102 -1.68363 0
M  V30 2634 C 252.108 4.38344 0.392709 0
M  V30 2635 H 249.227 0.732891 -0.0777189 0
M  V30 2636 H 251.869 1.68909 -0.87004 0
M  V30 2637 H 250.019 3.87278 0.307954 0
M  V30 2638 H 251.691 3.99946 -2.29871 0
M  V30 2639 H 249.934 3.72597 -2.22157 0
M  V30 2640 H 250.605 5.26249 -1.6663 0
M  V30 2641 H 253.081 4.16011 -0.0859162 0
M  V30 2642 H 251.957 5.47901 0.331063 0
M  V30 2643 H 252.218 4.16887 1.47164 0
M  V30 2644 N 251.277 0.427512 1.51691 0
M  V30 2645 C 252.187 -0.39527 2.31246 0
M  V30 2646 C 253.203 -1.03674 1.39742 0
M  V30 2647 O 254.379 -1.03425 1.72816 0
M  V30 2648 C 251.444 -1.48706 3.13189 0
M  V30 2649 C 250.505 -0.866743 4.20459 0
M  V30 2650 C 249.738 -1.90651 4.98486 0
M  V30 2651 O 249.961 -3.12733 4.77026 0
M  V30 2652 O 248.895 -1.5025 5.82845 0
M  V30 2653 H 252.721 0.253918 3.02637 0
M  V30 2654 H 250.306 0.190274 1.48183 0
M  V30 2655 H 252.188 -2.12047 3.64162 0
M  V30 2656 H 250.863 -2.12051 2.44573 0
M  V30 2657 H 249.77 -0.195544 3.73589 0
M  V30 2658 H 251.103 -0.276934 4.9142 0
M  V30 2659 N 252.755 -1.56801 0.158532 0
M  V30 2660 C 253.703 -2.18638 -0.793729 0
M  V30 2661 C 254.697 -1.14669 -1.24689 0
M  V30 2662 O 255.903 -1.32895 -1.21403 0
M  V30 2663 H 252.278 -0.700226 -0.274204 0
M  V30 2664 H 254.249 -2.97367 -0.248095 0
M  V30 2665 C 252.998 -2.83139 -2.0181 0
M  V30 2666 H 252.321 -3.62863 -1.67841 0
M  V30 2667 H 253.761 -3.29894 -2.66357 0
M  V30 2668 C 252.22 -1.82244 -2.83353 0
M  V30 2669 O 252.75 -1.3 -3.80083 0
M  V30 2670 N 250.956 -1.51288 -2.48114 0
M  V30 2671 H 250.503 -1.93964 -1.69516 0
M  V30 2672 H 250.461 -0.840296 -3.02963 0
M  V30 2673 N 254.233 0.115231 -1.57178 0
M  V30 2674 C 255.51 0.852873 -1.76027 0
M  V30 2675 C 255.89 1.97892 -0.73498 0
M  V30 2676 O 255.238 2.27232 0.24036 0
M  V30 2677 C 255.448 1.36608 -3.21153 0
M  V30 2678 C 256.796 1.81692 -3.83762 0
M  V30 2679 O 257.82 1.46278 -3.24779 0
M  V30 2680 O 256.679 2.47104 -4.87444 0
M  V30 2681 H 253.773 0.405296 -0.720877 0
M  V30 2682 H 256.319 0.0986785 -1.69413 0
M  V30 2683 H 255.091 0.558357 -3.87296 0
M  V30 2684 H 254.714 2.18287 -3.3232 0
M  V30 2685 N 255.711 1.52812 0.385517 0
M  V30 2686 C 256.957 1.68275 1.13188 0
M  V30 2687 C 257.29 0.423179 1.89533 0
M  V30 2688 O 256.565 -0.579113 1.85679 0
M  V30 2689 C 256.848 2.92001 2.1073 0
M  V30 2690 C 256.701 4.28067 1.38125 0
M  V30 2691 C 258.02 3.11283 3.11113 0
M  V30 2692 H 255.139 0.612352 0.410115 0
M  V30 2693 H 257.781 1.85415 0.414869 0
M  V30 2694 H 255.931 2.77519 2.71874 0
M  V30 2695 H 257.603 4.54324 0.799187 0
M  V30 2696 H 255.846 4.28388 0.683092 0
M  V30 2697 H 256.517 5.10733 2.09417 0
M  V30 2698 H 258.993 3.2482 2.6006 0
M  V30 2699 H 257.869 3.99325 3.76605 0
M  V30 2700 H 258.13 2.25656 3.80173 0
M  V30 2701 N 257.189 -0.644168 1.43834 0
M  V30 2702 C 258.414 -1.43642 1.49605 0
M  V30 2703 C 258.839 -1.8773 0.117913 0
M  V30 2704 O 258.197 -1.57938 -0.890239 0
M  V30 2705 C 258.245 -2.6416 2.45463 0
M  V30 2706 O 257.349 -3.63538 1.94714 0
M  V30 2707 H 256.69 -0.430329 0.50568 0
M  V30 2708 H 259.22 -0.787448 1.8884 0
M  V30 2709 H 259.23 -3.11864 2.63068 0
M  V30 2710 H 257.905 -2.31414 3.45572 0
M  V30 2711 H 256.482 -3.2273 1.86814 0
M  V30 2712 N 258.668 -1.30515 -0.883378 0
M  V30 2713 C 259.917 -1.18795 -1.63005 0
M  V30 2714 C 260.23 0.255923 -1.93919 0
M  V30 2715 O 261.436 0.494654 -2.66956 0
M  V30 2716 C 259.892 -2.07878 -2.93794 0
M  V30 2717 C 259.5 -3.57184 -2.70414 0
M  V30 2718 C 261.244 -2.04924 -3.71761 0
M  V30 2719 C 259.151 -4.38317 -3.97029 0
M  V30 2720 H 258.081 -0.441031 -0.611562 0
M  V30 2721 H 260.732 -1.55275 -0.977854 0
M  V30 2722 H 259.114 -1.64283 -3.60315 0
M  V30 2723 H 260.288 -4.08937 -2.12384 0
M  V30 2724 H 258.603 -3.61976 -2.0582 0
M  V30 2725 H 261.2 -2.62792 -4.65665 0
M  V30 2726 H 261.543 -1.0331 -4.03277 0
M  V30 2727 H 262.076 -2.46649 -3.12104 0
M  V30 2728 H 258.815 -5.40632 -3.70671 0
M  V30 2729 H 258.335 -3.91326 -4.54559 0
M  V30 2730 H 260.014 -4.49834 -4.65036 0
M  V30 2731 N 260.146 1.09593 -1.13257 0
M  V30 2732 C 261.076 2.18214 -0.830946 0
M  V30 2733 C 262.057 1.68812 0.208966 0
M  V30 2734 O 263.242 1.9408 0.0682666 0
M  V30 2735 C 260.372 3.46051 -0.294296 0
M  V30 2736 C 259.326 4.08778 -1.26826 0
M  V30 2737 C 258.652 5.31419 -0.591449 0
M  V30 2738 C 259.952 4.51476 -2.62615 0
M  V30 2739 H 261.646 2.43703 -1.73923 0
M  V30 2740 H 259.192 1.17128 -0.837675 0
M  V30 2741 H 261.145 4.2134 -0.0709606 0
M  V30 2742 H 259.869 3.20079 0.649366 0
M  V30 2743 H 258.528 3.35505 -1.47756 0
M  V30 2744 H 258.176 5.01727 0.357633 0
M  V30 2745 H 257.876 5.74341 -1.24123 0
M  V30 2746 H 259.4 6.09433 -0.377355 0
M  V30 2747 H 260.814 5.17999 -2.45663 0
M  V30 2748 H 259.211 5.05277 -3.23752 0
M  V30 2749 H 260.281 3.63962 -3.20406 0
M  V30 2750 N 261.624 0.925811 1.2754 0
M  V30 2751 C 262.556 0.380753 2.26015 0
M  V30 2752 C 263.569 -0.487485 1.5533 0
M  V30 2753 O 264.758 -0.300413 1.75954 0
M  V30 2754 C 261.858 -0.473259 3.35579 0
M  V30 2755 C 261.031 0.375249 4.35787 0
M  V30 2756 C 260.09 -0.415809 5.24555 0
M  V30 2757 O 259.116 0.175834 5.68928 0
M  V30 2758 N 260.318 -1.71607 5.54555 0
M  V30 2759 H 263.083 1.22725 2.73421 0
M  V30 2760 H 260.644 0.793037 1.41147 0
M  V30 2761 H 262.636 -1.00949 3.91907 0
M  V30 2762 H 261.206 -1.2205 2.87789 0
M  V30 2763 H 260.426 1.09279 3.7875 0
M  V30 2764 H 261.714 0.955399 4.99749 0
M  V30 2765 H 261.112 -2.2191 5.20358 0
M  V30 2766 H 259.669 -2.19887 6.1359 0
M  V30 2767 N 263.102 -1.41638 0.69111 0
M  V30 2768 C 264.327 -2.06148 0.227583 0
M  V30 2769 C 264.752 -1.51652 -1.11281 0
M  V30 2770 O 264.11 -0.64164 -1.69566 0
M  V30 2771 C 264.158 -3.60095 0.190858 0
M  V30 2772 O 263.262 -4.03845 -0.835664 0
M  V30 2773 H 262.603 -0.654434 0.112306 0
M  V30 2774 H 265.133 -1.81484 0.944714 0
M  V30 2775 H 265.143 -4.07995 0.020207 0
M  V30 2776 H 263.818 -3.99129 1.16915 0
M  V30 2777 H 262.395 -3.67458 -0.63473 0
M  V30 2778 N 264.58 -0.43555 -1.51462 0
M  V30 2779 C 265.826 0.131709 -2.02372 0
M  V30 2780 C 266.159 1.42516 -1.3192 0
M  V30 2781 O 265.434 1.89606 -0.433573 0
M  V30 2782 C 265.717 0.352301 -3.58373 0
M  V30 2783 C 265.57 -0.959676 -4.39443 0
M  V30 2784 C 266.889 1.12286 -4.25535 0
M  V30 2785 H 264.008 0.0463936 -0.735538 0
M  V30 2786 H 266.65 -0.574197 -1.81116 0
M  V30 2787 H 264.8 0.9536 -3.76615 0
M  V30 2788 H 266.472 -1.59482 -4.32855 0
M  V30 2789 H 264.715 -1.56468 -4.04599 0
M  V30 2790 H 265.386 -0.759394 -5.46752 0
M  V30 2791 H 267.862 0.613545 -4.11552 0
M  V30 2792 H 266.738 1.24598 -5.34571 0
M  V30 2793 H 266.999 2.15048 -3.86273 0
M  V30 2794 N 266.058 1.56714 -0.166846 0
M  V30 2795 C 267.286 2.0112 0.485644 0
M  V30 2796 C 267.701 1.04705 1.57106 0
M  V30 2797 O 267.058 0.0471923 1.82439 0
M  V30 2798 C 267.109 3.45361 1.06808 0
M  V30 2799 O 266.83 4.38092 0.0259995 0
M  V30 2800 C 268.331 4.05145 1.79924 0
M  V30 2801 H 265.551 0.65931 0.124704 0
M  V30 2802 H 268.095 2.02746 -0.267262 0
M  V30 2803 H 266.25 3.44524 1.7715 0
M  V30 2804 H 266.664 5.22519 0.455398 0
M  V30 2805 H 268.138 5.08009 2.15942 0
M  V30 2806 H 268.615 3.46982 2.69258 0
M  V30 2807 H 269.221 4.09672 1.14234 0
M  V30 2808 N 267.536 -0.106894 1.57237 0
M  V30 2809 C 268.466 -1.13148 2.04254 0
M  V30 2810 C 269.447 -1.42476 0.929224 0
M  V30 2811 O 270.632 -1.52709 1.19973 0
M  V30 2812 C 267.762 -2.4545 2.45706 0
M  V30 2813 C 266.716 -2.30558 3.60592 0
M  V30 2814 C 266.042 -3.67931 3.87983 0
M  V30 2815 C 267.342 -1.75597 4.91897 0
M  V30 2816 H 269.036 -0.740374 2.90101 0
M  V30 2817 H 266.582 -0.354696 1.39563 0
M  V30 2818 H 268.535 -3.17389 2.77205 0
M  V30 2819 H 267.259 -2.86475 1.56843 0
M  V30 2820 H 265.918 -1.61067 3.29322 0
M  V30 2821 H 265.566 -4.06462 2.96306 0
M  V30 2822 H 265.266 -3.58817 4.65322 0
M  V30 2823 H 266.79 -4.41356 4.21945 0
M  V30 2824 H 268.204 -2.37364 5.21854 0
M  V30 2825 H 266.601 -1.77272 5.73319 0
M  V30 2826 H 267.671 -0.714451 4.79608 0
M  V30 2827 N 269.014 -1.53014 -0.377408 0
M  V30 2828 C 270.262 -1.6829 -1.11906 0
M  V30 2829 C 270.583 -0.431206 -1.90173 0
M  V30 2830 O 269.853 0.554595 -1.87886 0
M  V30 2831 H 268.433 -0.620371 -0.416112 0
M  V30 2832 H 271.095 -1.90167 -0.426893 0
M  V30 2833 H 270.191 -2.53862 -1.8155 0
M  V30 2834 N 270.492 0.636531 -1.44174 0
M  V30 2835 C 271.74 1.39343 -1.46383 0
M  V30 2836 C 272.061 1.94766 -0.0955715 0
M  V30 2837 O 271.331 1.75452 0.871395 0
M  V30 2838 H 269.911 0.517199 -0.538994 0
M  V30 2839 H 272.573 0.74957 -1.7991 0
M  V30 2840 H 271.669 2.22746 -2.18611 0
M  V30 2841 N 271.97 1.30982 0.876444 0
M  V30 2842 C 273.198 1.23242 1.6619 0
M  V30 2843 C 273.613 -0.203345 1.87702 0
M  V30 2844 O 272.97 -1.13317 1.43057 0
M  V30 2845 C 273.021 1.96623 3.03351 0
M  V30 2846 O 272.742 3.34594 2.82804 0
M  V30 2847 C 274.243 1.95644 3.97792 0
M  V30 2848 H 271.463 0.426126 0.518322 0
M  V30 2849 H 274.007 1.7275 1.09442 0
M  V30 2850 H 272.162 1.50892 3.56806 0
M  V30 2851 H 272.576 3.71873 3.69879 0
M  V30 2852 H 274.05 2.51511 4.91372 0
M  V30 2853 H 274.527 0.937395 4.2908 0
M  V30 2854 H 275.133 2.41225 3.50272 0
M  V30 2855 N 273.449 -1.08991 1.13837 0
M  V30 2856 C 274.697 -1.80899 0.901098 0
M  V30 2857 C 275.018 -1.86356 -0.574134 0
M  V30 2858 O 274.288 -1.35235 -1.41733 0
M  V30 2859 H 272.868 -0.669966 0.330386 0
M  V30 2860 H 275.53 -1.318 1.43578 0
M  V30 2861 H 274.626 -2.83929 1.29578 0
M  V30 2862 N 274.927 -0.932562 -1.27047 0
M  V30 2863 C 275.874 -0.434072 -2.26681 0
M  V30 2864 C 276.844 0.501639 -1.58344 0
M  V30 2865 O 278.029 0.419734 -1.86126 0
M  V30 2866 C 275.169 0.30261 -3.43771 0
M  V30 2867 C 274.282 -0.667774 -4.26808 0
M  V30 2868 C 273.417 0.0892393 -5.31125 0
M  V30 2869 C 272.456 -0.873532 -6.05835 0
M  V30 2870 N 271.593 -0.148832 -7.01942 0
M  V30 2871 H 276.433 -1.28868 -2.68695 0
M  V30 2872 H 273.97 -0.646713 -1.32121 0
M  V30 2873 H 275.928 0.746092 -4.10474 0
M  V30 2874 H 274.558 1.12142 -3.02695 0
M  V30 2875 H 273.61 -1.22978 -3.59973 0
M  V30 2876 H 274.922 -1.40337 -4.78651 0
M  V30 2877 H 274.076 0.592409 -6.03801 0
M  V30 2878 H 272.815 0.85777 -4.80097 0
M  V30 2879 H 271.82 -1.38791 -5.31994 0
M  V30 2880 H 273.045 -1.64193 -6.58952 0
M  V30 2881 H 270.991 0.601365 -6.53238 0
M  V30 2882 H 270.908 -0.82391 -7.51497 0
M  V30 2883 H 272.176 0.333527 -7.78786 0
M  V30 2884 N 276.405 1.4127 -0.698611 0
M  V30 2885 C 277.633 2.05503 -0.239992 0
M  V30 2886 C 278.048 1.52584 1.11191 0
M  V30 2887 O 277.405 0.675323 1.69545 0
M  V30 2888 C 277.456 3.60987 -0.192429 0
M  V30 2889 O 277.177 4.1195 -1.49094 0
M  V30 2890 C 278.678 4.42371 0.28681 0
M  V30 2891 H 275.898 0.661748 -0.111045 0
M  V30 2892 H 278.442 1.80987 -0.95205 0
M  V30 2893 H 276.597 3.84533 0.470472 0
M  V30 2894 H 277.011 5.06018 -1.38007 0
M  V30 2895 H 278.485 5.51344 0.26896 0
M  V30 2896 H 278.962 4.18699 1.32619 0
M  V30 2897 H 279.568 4.23897 -0.345201 0
M  V30 2898 N 277.883 0.443576 1.51229 0
M  V30 2899 C 279.108 -0.121648 2.07043 0
M  V30 2900 C 279.533 -1.35156 1.30823 0
M  V30 2901 O 278.891 -1.7793 0.347934 0
M  V30 2902 C 278.939 -0.41624 3.5819 0
M  V30 2903 O 278.043 -1.50163 3.8409 0
M  V30 2904 H 277.384 0.000871367 0.663999 0
M  V30 2905 H 279.914 0.626706 1.94765 0
M  V30 2906 H 279.924 -0.664867 4.02546 0
M  V30 2907 H 278.599 0.482653 4.1309 0
M  V30 2908 H 277.176 -1.24248 3.51592 0
M  V30 2909 N 279.361 -1.56624 0.175154 0
M  V30 2910 C 280.609 -1.96609 -0.467885 0
M  V30 2911 C 280.93 -1.06238 -1.63519 0
M  V30 2912 O 280.2 -0.129523 -1.95471 0
M  V30 2913 H 278.78 -0.726008 -0.175845 0
M  V30 2914 H 281.442 -1.93195 0.257234 0
M  V30 2915 H 280.538 -3.00989 -0.825342 0
M  V30 2916 N 280.839 0.0985539 -1.57292 0
M  V30 2917 C 282.116 0.834155 -1.76921 0
M  V30 2918 C 282.496 1.97101 -0.755928 0
M  V30 2919 O 281.844 2.27474 0.216245 0
M  V30 2920 C 282.054 1.33194 -3.22584 0
M  V30 2921 C 283.402 1.77611 -3.85668 0
M  V30 2922 O 284.426 1.42825 -3.26312 0
M  V30 2923 O 283.285 2.4192 -4.90038 0
M  V30 2924 H 280.379 0.397628 -0.725135 0
M  V30 2925 H 282.925 0.0807044 -1.69508 0
M  V30 2926 H 281.697 0.517248 -3.87866 0
M  V30 2927 H 281.32 2.1475 -3.34616 0
M  V30 2928 N 282.317 1.53212 0.369288 0
M  V30 2929 C 283.733 1.42902 0.710712 0
M  V30 2930 C 283.933 0.565135 1.93413 0
M  V30 2931 O 282.989 0.0461484 2.52458 0
M  V30 2932 C 284.302 2.86042 0.927382 0
M  V30 2933 C 285.85 2.9565 1.02762 0
M  V30 2934 C 286.325 4.39843 1.27679 0
M  V30 2935 N 287.816 4.43256 1.34457 0
M  V30 2936 C 288.551 5.51929 1.55439 0
M  V30 2937 N 288.047 6.70655 1.73762 0
M  V30 2938 N 289.84 5.39502 1.57779 0
M  V30 2939 H 281.991 2.07888 -0.435457 0
M  V30 2940 H 284.254 0.938661 -0.132739 0
M  V30 2941 H 283.96 3.51557 0.100287 0
M  V30 2942 H 283.834 3.29472 1.83653 0
M  V30 2943 H 286.221 2.30291 1.84527 0
M  V30 2944 H 286.302 2.5562 0.0959504 0
M  V30 2945 H 285.946 5.05774 0.464175 0
M  V30 2946 H 285.876 4.77443 2.22162 0
M  V30 2947 H 288.367 3.5769 1.21926 0
M  V30 2948 H 288.68 7.49248 1.89335 0
M  V30 2949 H 287.025 6.73648 1.70948 0
M  V30 2950 H 290.216 4.45713 1.43029 0
M  V30 2951 H 290.389 6.2426 1.7379 0
M  V30 2952 N 283.795 -0.628877 1.44509 0
M  V30 2953 C 284.745 -1.7345 1.47983 0
M  V30 2954 C 285.729 -1.5715 0.345373 0
M  V30 2955 O 286.921 -1.66848 0.590829 0
M  V30 2956 C 284.05 -3.12143 1.42904 0
M  V30 2957 C 283.136 -3.33906 2.61472 0
M  V30 2958 N 283.527 -3.26024 3.86706 0
M  V30 2959 C 281.825 -3.64709 2.56716 0
M  V30 2960 C 282.526 -3.48536 4.65722 0
M  V30 2961 N 281.502 -3.71517 3.96832 0
M  V30 2962 H 285.304 -1.65818 2.42655 0
M  V30 2963 H 282.818 -0.831419 1.39503 0
M  V30 2964 H 284.815 -3.91433 1.43476 0
M  V30 2965 H 283.475 -3.2094 0.492717 0
M  V30 2966 H 284.486 -3.04893 4.18641 0
M  V30 2967 H 281.163 -3.80473 1.71891 0
M  V30 2968 H 282.553 -3.48016 5.74747 0
M  V30 2969 N 285.273 -1.31445 -0.869486 0
M  V30 2970 C 286.684 -1.19042 -1.43826 0
M  V30 2971 C 287.035 0.202919 -1.95148 0
M  V30 2972 O 286.16 1.10071 -1.86315 0
M  V30 2973 C 286.755 -2.15499 -2.6143 0
M  V30 2974 C 285.314 -2.07028 -3.14351 0
M  V30 2975 C 284.461 -2.04701 -1.87063 0
M  V30 2976 H 287.412 -1.43489 -0.677984 0
M  V30 2977 H 287.433 -1.74488 -3.38134 0
M  V30 2978 H 286.945 -3.16899 -2.24046 0
M  V30 2979 H 285.046 -1.08825 -3.56354 0
M  V30 2980 H 285.159 -2.96157 -3.766 0
M  V30 2981 H 283.523 -1.49724 -2.06046 0
M  V30 2982 H 284.306 -3.07857 -1.51917 0
M  V30 2983 N 286.751 1.08385 -1.14413 0
M  V30 2984 C 287.698 2.15311 -0.831265 0
M  V30 2985 C 288.668 1.64751 0.211292 0
M  V30 2986 O 289.853 1.90627 0.0811674 0
M  V30 2987 C 286.993 3.43658 -0.315143 0
M  V30 2988 C 286.106 4.08064 -1.41802 0
M  V30 2989 C 285.241 5.24207 -0.859126 0
M  V30 2990 C 284.28 5.80554 -1.93967 0
M  V30 2991 N 283.417 6.88042 -1.39793 0
M  V30 2992 H 288.257 2.41415 -1.74708 0
M  V30 2993 H 285.794 1.18474 -0.871909 0
M  V30 2994 H 287.752 4.172 0.00230884 0
M  V30 2995 H 286.382 3.17839 0.56378 0
M  V30 2996 H 285.434 3.3228 -1.85187 0
M  V30 2997 H 286.746 4.45962 -2.23427 0
M  V30 2998 H 285.9 6.04689 -0.49359 0
M  V30 2999 H 284.639 4.87699 -0.011932 0
M  V30 3000 H 283.644 4.98725 -2.31415 0
M  V30 3001 H 284.869 6.19121 -2.79046 0
M  V30 3002 H 282.815 6.53493 -0.572919 0
M  V30 3003 H 282.732 7.24767 -2.15054 0
M  V30 3004 H 284 7.72255 -1.0603 0
M  V30 3005 N 288.23 0.939286 1.26551 0
M  V30 3006 C 289.479 0.581601 1.93133 0
M  V30 3007 C 289.792 -0.883224 1.74524 0
M  V30 3008 O 290.998 -1.3502 2.35546 0
M  V30 3009 C 289.454 0.989425 3.46032 0
M  V30 3010 C 289.062 2.47573 3.73379 0
M  V30 3011 C 290.806 0.703544 4.18629 0
M  V30 3012 C 288.713 2.82235 5.19709 0
M  V30 3013 H 287.643 0.213803 0.723052 0
M  V30 3014 H 290.294 1.14167 1.4366 0
M  V30 3015 H 288.676 0.357902 3.94379 0
M  V30 3016 H 289.85 3.15614 3.35744 0
M  V30 3017 H 288.165 2.73471 3.1401 0
M  V30 3018 H 290.762 0.938869 5.26393 0
M  V30 3019 H 291.105 -0.359639 4.14744 0
M  V30 3020 H 291.638 1.2947 3.76141 0
M  V30 3021 H 288.377 3.87509 5.28694 0
M  V30 3022 H 287.897 2.18854 5.58447 0
M  V30 3023 H 289.576 2.70599 5.87695 0
M  V30 3024 N 289.708 -1.40897 0.706093 0
M  V30 3025 C 291.124 -1.55042 0.37869 0
M  V30 3026 C 291.324 -1.67944 -1.11342 0
M  V30 3027 O 290.38 -1.66372 -1.89938 0
M  V30 3028 C 291.693 -2.78398 1.13643 0
M  V30 3029 C 293.241 -2.92206 1.12181 0
M  V30 3030 C 293.716 -4.18463 1.86152 0
M  V30 3031 N 295.207 -4.25443 1.83173 0
M  V30 3032 C 295.942 -5.2202 2.37239 0
M  V30 3033 N 295.438 -6.24563 2.99821 0
M  V30 3034 N 297.231 -5.14033 2.27435 0
M  V30 3035 H 289.382 -1.30769 1.67372 0
M  V30 3036 H 291.645 -0.631653 0.706907 0
M  V30 3037 H 291.351 -2.7511 2.19106 0
M  V30 3038 H 291.225 -3.70228 0.721853 0
M  V30 3039 H 293.612 -2.95004 0.0754171 0
M  V30 3040 H 293.693 -2.01521 1.57554 0
M  V30 3041 H 293.337 -4.16427 2.90776 0
M  V30 3042 H 293.267 -5.08141 1.38206 0
M  V30 3043 H 295.758 -3.51976 1.37556 0
M  V30 3044 H 296.071 -6.94665 3.38616 0
M  V30 3045 H 294.416 -6.25035 3.03902 0
M  V30 3046 H 297.607 -4.3285 1.78208 0
M  V30 3047 H 297.78 -5.89129 2.69873 0
M  V30 3048 N 291.186 -0.45159 -1.50991 0
M  V30 3049 C 292.096 0.358431 -2.31846 0
M  V30 3050 C 293.112 1.01438 -1.41373 0
M  V30 3051 O 294.288 1.00663 -1.74439 0
M  V30 3052 C 291.353 1.43704 -3.15515 0
M  V30 3053 C 290.414 0.799742 -4.21785 0
M  V30 3054 C 289.647 1.82696 -5.01456 0
M  V30 3055 O 289.87 3.05105 -4.81941 0
M  V30 3056 O 288.804 1.40958 -5.85162 0
M  V30 3057 H 292.63 -0.302032 -3.02194 0
M  V30 3058 H 290.215 -0.213825 -1.47862 0
M  V30 3059 H 292.097 2.06227 -3.67489 0
M  V30 3060 H 290.772 2.08133 -2.47916 0
M  V30 3061 H 289.679 0.136084 -3.73852 0
M  V30 3062 H 291.012 0.198718 -4.91799 0
M  V30 3063 N 292.664 1.56529 -0.183458 0
M  V30 3064 C 293.912 1.96855 0.457452 0
M  V30 3065 C 294.233 1.07104 1.62953 0
M  V30 3066 O 293.503 0.139887 1.954 0
M  V30 3067 H 292.083 0.72693 0.171992 0
M  V30 3068 H 294.745 1.93056 -0.267476 0
M  V30 3069 H 293.841 3.01423 0.809368 0
M  V30 3070 N 294.142 -0.090211 1.57342 0
M  V30 3071 C 295.388 -0.793982 1.86611 0
M  V30 3072 C 295.721 -1.78142 0.773252 0
M  V30 3073 O 294.996 -1.93271 -0.218304 0
M  V30 3074 C 295.279 -1.51839 3.26523 0
M  V30 3075 C 295.132 -0.548609 4.46442 0
M  V30 3076 C 296.451 -2.46779 3.64401 0
M  V30 3077 H 293.57 -0.287186 0.678744 0
M  V30 3078 H 296.212 -0.0575076 1.89913 0
M  V30 3079 H 294.362 -2.14617 3.23839 0
M  V30 3080 H 296.034 0.0725513 4.61243 0
M  V30 3081 H 294.277 0.137614 4.33582 0
M  V30 3082 H 294.948 -1.09271 5.41076 0
M  V30 3083 H 297.424 -1.94089 3.68061 0
M  V30 3084 H 296.3 -2.94479 4.63221 0
M  V30 3085 H 296.561 -3.30758 2.93346 0
M  V30 3086 N 295.62 -1.53406 -0.361157 0
M  V30 3087 C 296.553 -1.74946 -1.46524 0
M  V30 3088 C 297.531 -0.59795 -1.51206 0
M  V30 3089 O 298.715 -0.831062 -1.69191 0
M  V30 3090 C 295.842 -1.83224 -2.84863 0
M  V30 3091 C 294.888 -3.05233 -2.97885 0
M  V30 3092 S 295.721 -4.6466 -2.66179 0
M  V30 3093 C 296.877 -4.75793 -4.06659 0
M  V30 3094 H 297.11 -2.68319 -1.28033 0
M  V30 3095 H 294.643 -1.44051 -0.555764 0
M  V30 3096 H 296.601 -1.88679 -3.64569 0
M  V30 3097 H 295.262 -0.908948 -3.00661 0
M  V30 3098 H 294.455 -3.07648 -3.9921 0
M  V30 3099 H 294.057 -2.97913 -2.26106 0
M  V30 3100 H 296.349 -4.5612 -5.0096 0
M  V30 3101 H 297.292 -5.7786 -4.09247 0
M  V30 3102 H 297.7 -4.04389 -3.93865 0
M  V30 3103 N 297.098 0.621204 -1.44841 0
M  V30 3104 C 298.347 1.37658 -1.47422 0
M  V30 3105 C 298.66 1.95264 -0.114629 0
M  V30 3106 O 299.866 2.71494 -0.0180199 0
M  V30 3107 C 298.322 2.49285 -2.59586 0
M  V30 3108 C 297.93 1.98149 -4.01797 0
M  V30 3109 C 299.674 3.26409 -2.71399 0
M  V30 3110 C 297.581 3.07178 -5.05367 0
M  V30 3111 H 296.511 0.517344 -0.548517 0
M  V30 3112 H 299.162 0.667257 -1.70938 0
M  V30 3113 H 297.544 3.22839 -2.29328 0
M  V30 3114 H 298.718 1.31395 -4.41669 0
M  V30 3115 H 297.033 1.33812 -3.94314 0
M  V30 3116 H 299.63 4.07706 -3.45948 0
M  V30 3117 H 299.973 3.76535 -1.77559 0
M  V30 3118 H 300.506 2.5995 -3.01116 0
M  V30 3119 H 297.245 2.61985 -6.00869 0
M  V30 3120 H 296.765 3.72542 -4.70077 0
M  V30 3121 H 298.444 3.71789 -5.29511 0
M  V30 3122 N 298.576 1.31904 0.862503 0
M  V30 3123 C 299.824 1.21776 1.61292 0
M  V30 3124 C 300.145 -0.222413 1.93727 0
M  V30 3125 O 299.415 -1.1451 1.58947 0
M  V30 3126 H 297.995 0.447717 0.597962 0
M  V30 3127 H 300.657 1.65326 1.03215 0
M  V30 3128 H 299.753 1.7948 2.5533 0
M  V30 3129 N 300.054 -1.07777 1.14986 0
M  V30 3130 C 301.017 -2.13041 0.845358 0
M  V30 3131 C 302.017 -1.60071 -0.152931 0
M  V30 3132 O 303.207 -1.74033 0.0761879 0
M  V30 3133 C 300.339 -3.39896 0.261383 0
M  V30 3134 H 301.532 -2.41485 1.77834 0
M  V30 3135 H 299.085 -1.23595 0.956757 0
M  V30 3136 H 299.82 -3.17091 -0.68 0
M  V30 3137 H 299.605 -3.79642 0.980514 0
M  V30 3138 H 301.095 -4.17548 0.0657687 0
M  V30 3139 N 301.532 -0.945985 -1.26051 0
M  V30 3140 C 302.78 -0.594941 -1.93145 0
M  V30 3141 C 303.101 0.86953 -1.7454 0
M  V30 3142 O 302.371 1.61838 -1.10387 0
M  V30 3143 H 300.951 -0.217044 -0.714773 0
M  V30 3144 H 303.613 -1.20235 -1.53393 0
M  V30 3145 H 302.709 -0.816835 -3.01221 0
M  V30 3146 N 303.011 1.40521 -0.713556 0
M  V30 3147 C 303.974 2.29098 -0.0684347 0
M  V30 3148 C 304.974 1.45268 0.689472 0
M  V30 3149 O 306.164 1.66205 0.521677 0
M  V30 3150 C 303.296 3.28446 0.913024 0
M  V30 3151 H 304.489 2.87645 -0.84855 0
M  V30 3152 H 302.042 1.48809 -0.47809 0
M  V30 3153 H 302.777 2.74913 1.72027 0
M  V30 3154 H 302.562 3.90327 0.372472 0
M  V30 3155 H 304.052 3.94777 1.36165 0
M  V30 3156 N 304.489 0.459591 1.5075 0
M  V30 3157 C 305.436 -0.340524 2.28274 0
M  V30 3158 C 306.406 -0.997371 1.32822 0
M  V30 3159 O 307.591 -1.01202 1.61749 0
M  V30 3160 C 304.731 -1.42317 3.14388 0
M  V30 3161 C 303.844 -0.782251 4.24859 0
M  V30 3162 C 302.979 -1.84182 4.98247 0
M  V30 3163 C 302.018 -1.18053 6.00608 0
M  V30 3164 N 301.155 -2.18244 6.67319 0
M  V30 3165 H 305.995 0.326899 2.96202 0
M  V30 3166 H 303.532 0.173057 1.46078 0
M  V30 3167 H 305.49 -2.06241 3.62658 0
M  V30 3168 H 304.12 -2.05992 2.4853 0
M  V30 3169 H 303.172 -0.0307404 3.80388 0
M  V30 3170 H 304.484 -0.259663 4.98124 0
M  V30 3171 H 303.638 -2.55714 5.50177 0
M  V30 3172 H 302.377 -2.39819 4.24662 0
M  V30 3173 H 301.382 -0.450776 5.47949 0
M  V30 3174 H 302.607 -0.631202 6.7616 0
M  V30 3175 H 300.553 -2.72919 5.96533 0
M  V30 3176 H 300.47 -1.70938 7.36421 0
M  V30 3177 H 301.738 -2.89191 7.23871 0
M  V30 3178 N 305.967 -1.56429 0.191757 0
M  V30 3179 C 307.216 -1.9666 -0.448088 0
M  V30 3180 C 307.529 -1.08136 -1.62991 0
M  V30 3181 O 308.735 -1.38135 -2.33733 0
M  V30 3182 C 307.191 -3.49753 -0.848585 0
M  V30 3183 C 306.799 -4.46935 0.308764 0
M  V30 3184 C 308.543 -3.9876 -1.4557 0
M  V30 3185 C 306.45 -5.91293 -0.112506 0
M  V30 3186 H 305.38 -0.734312 -0.171179 0
M  V30 3187 H 308.031 -1.81301 0.283242 0
M  V30 3188 H 306.413 -3.60604 -1.63649 0
M  V30 3189 H 307.587 -4.47813 1.08627 0
M  V30 3190 H 305.902 -4.08102 0.827158 0
M  V30 3191 H 308.499 -5.04086 -1.78328 0
M  V30 3192 H 308.842 -3.42875 -2.36099 0
M  V30 3193 H 309.375 -3.9101 -0.731836 0
M  V30 3194 H 306.114 -6.51097 0.758514 0
M  V30 3195 H 305.634 -5.93676 -0.854941 0
M  V30 3196 H 307.313 -6.44663 -0.549448 0
M  V30 3197 N 307.445 0.0818655 -1.57387 0
M  V30 3198 C 308.375 1.09885 -2.06028 0
M  V30 3199 C 309.356 1.4098 -0.951774 0
M  V30 3200 O 310.541 1.50781 -1.22387 0
M  V30 3201 C 307.671 2.4151 -2.4958 0
M  V30 3202 C 306.625 2.24792 -3.64215 0
M  V30 3203 C 305.951 3.61712 -3.93787 0
M  V30 3204 C 307.251 1.67749 -4.94629 0
M  V30 3205 H 308.945 0.694128 -2.91243 0
M  V30 3206 H 306.491 0.332448 -1.4011 0
M  V30 3207 H 308.444 3.12939 -2.82219 0
M  V30 3208 H 307.168 2.83943 -1.61381 0
M  V30 3209 H 305.827 1.55807 -3.31843 0
M  V30 3210 H 305.475 4.01697 -3.02735 0
M  V30 3211 H 305.175 3.51368 -4.70971 0
M  V30 3212 H 306.699 4.34587 -4.28913 0
M  V30 3213 H 308.113 2.29032 -5.25564 0
M  V30 3214 H 306.51 1.68128 -5.76067 0
M  V30 3215 H 307.58 0.638059 -4.80684 0
M  V30 3216 N 308.923 1.53595 0.353017 0
M  V30 3217 C 310.171 1.70049 1.09215 0
M  V30 3218 C 310.492 0.461406 1.89463 0
M  V30 3219 O 309.762 -0.524633 1.88744 0
M  V30 3220 H 308.342 0.626912 0.40619 0
M  V30 3221 H 311.004 1.90822 0.396585 0
M  V30 3222 H 310.1 2.56718 1.77488 0
M  V30 3223 N 310.401 -0.613514 1.45168 0
M  V30 3224 C 311.349 -1.74572 1.53712 0
M  V30 3225 C 312.343 -1.64426 0.407505 0
M  V30 3226 O 313.549 -1.70291 0.583176 0
M  V30 3227 H 309.924 -0.576641 0.48269 0
M  V30 3228 H 311.895 -1.64492 2.48968 0
M  V30 3229 C 310.644 -3.12943 1.51532 0
M  V30 3230 H 309.967 -3.21407 2.37776 0
M  V30 3231 H 311.407 -3.9201 1.61569 0
M  V30 3232 C 309.866 -3.36053 0.238798 0
M  V30 3233 O 310.396 -3.95837 -0.6838 0
M  V30 3234 N 308.602 -2.9028 0.136359 0
M  V30 3235 H 308.149 -2.41811 0.887999 0
M  V30 3236 H 308.107 -3.06116 -0.716944 0
M  V30 3237 N 311.879 -1.3236 -0.855495 0
M  V30 3238 C 313.128 -1.22226 -1.60448 0
M  V30 3239 C 313.441 0.214733 -1.94418 0
M  V30 3240 O 314.647 0.437917 -2.67945 0
M  V30 3241 C 313.103 -2.14063 -2.89318 0
M  V30 3242 C 312.711 -3.62839 -2.62777 0
M  V30 3243 C 314.455 -2.12764 -3.67331 0
M  V30 3244 C 312.362 -4.4664 -3.87643 0
M  V30 3245 H 311.292 -0.453904 -0.602069 0
M  V30 3246 H 313.943 -1.57314 -0.944698 0
M  V30 3247 H 312.325 -1.71889 -3.5675 0
M  V30 3248 H 313.499 -4.1335 -2.03662 0
M  V30 3249 H 311.814 -3.66261 -1.98096 0
M  V30 3250 H 314.411 -2.72611 -4.59987 0
M  V30 3251 H 314.754 -1.11841 -4.00995 0
M  V30 3252 H 315.287 -2.53214 -3.06802 0
M  V30 3253 H 312.026 -5.48373 -3.5912 0
M  V30 3254 H 311.546 -4.0088 -4.46156 0
M  V30 3255 H 313.225 -4.59597 -4.55389 0
M  V30 3256 N 313.357 1.07166 -1.15556 0
M  V30 3257 C 314.267 2.17947 -0.868116 0
M  V30 3258 C 315.283 1.73297 0.156297 0
M  V30 3259 O 316.459 2.01392 -0.0182327 0
M  V30 3260 C 313.524 3.44789 -0.36355 0
M  V30 3261 C 312.585 4.03996 -1.45209 0
M  V30 3262 C 311.818 5.24783 -0.971508 0
M  V30 3263 O 312.041 5.70109 0.182194 0
M  V30 3264 O 310.975 5.75715 -1.75603 0
M  V30 3265 H 314.801 2.4503 -1.79427 0
M  V30 3266 H 312.386 1.16539 -0.934824 0
M  V30 3267 H 314.268 4.21307 -0.0887113 0
M  V30 3268 H 312.943 3.19253 0.534708 0
M  V30 3269 H 311.85 3.29009 -1.78056 0
M  V30 3270 H 313.183 4.33808 -2.32533 0
M  V30 3271 N 314.835 0.952656 1.25548 0
M  V30 3272 C 316.081 0.607272 1.93494 0
M  V30 3273 C 316.414 -0.853245 1.74452 0
M  V30 3274 O 315.689 -1.61194 1.08843 0
M  V30 3275 C 315.972 0.96435 3.46947 0
M  V30 3276 C 315.825 2.48045 3.75225 0
M  V30 3277 C 317.144 0.487987 4.37386 0
M  V30 3278 H 314.263 0.222096 0.702739 0
M  V30 3279 H 316.905 1.18895 1.48203 0
M  V30 3280 H 315.055 0.469361 3.85654 0
M  V30 3281 H 316.727 3.04905 3.46166 0
M  V30 3282 H 314.97 2.919 3.209 0
M  V30 3283 H 315.641 2.6808 4.82532 0
M  V30 3284 H 318.117 0.912558 4.0597 0
M  V30 3285 H 316.993 0.766547 5.43521 0
M  V30 3286 H 317.254 -0.612063 4.37843 0
M  V30 3287 N 316.313 -1.40141 0.720998 0
M  V30 3288 C 317.561 -2.0039 0.262323 0
M  V30 3289 C 317.882 -1.57469 -1.15015 0
M  V30 3290 O 317.152 -0.816582 -1.78069 0
M  V30 3291 H 315.732 -0.741063 0.093996 0
M  V30 3292 H 318.394 -1.71398 0.927835 0
M  V30 3293 H 317.49 -3.10658 0.299671 0
M  V30 3294 N 317.792 -0.46758 -1.50504 0
M  V30 3295 C 319.208 -0.121533 -1.59137 0
M  V30 3296 C 319.408 1.3717 -1.47603 0
M  V30 3297 O 318.464 2.14464 -1.33272 0
M  V30 3298 C 319.777 -0.6686 -2.93173 0
M  V30 3299 C 321.325 -0.631716 -3.06559 0
M  V30 3300 C 321.8 -1.15627 -4.43164 0
M  V30 3301 N 323.291 -1.11553 -4.49567 0
M  V30 3302 C 324.026 -1.49195 -5.5365 0
M  V30 3303 N 323.522 -1.94269 -6.65005 0
M  V30 3304 N 325.315 -1.4082 -5.44175 0
M  V30 3305 H 317.466 -1.4388 -1.56245 0
M  V30 3306 H 319.729 -0.594784 -0.738198 0
M  V30 3307 H 319.435 -1.71453 -3.07078 0
M  V30 3308 H 319.309 -0.11021 -3.77039 0
M  V30 3309 H 321.696 0.405297 -2.92304 0
M  V30 3310 H 321.777 -1.22687 -2.24458 0
M  V30 3311 H 321.421 -2.1919 -4.58168 0
M  V30 3312 H 321.351 -0.537365 -5.23851 0
M  V30 3313 H 323.842 -0.784895 -3.69659 0
M  V30 3314 H 324.155 -2.21148 -7.40482 0
M  V30 3315 H 322.5 -1.98219 -6.66134 0
M  V30 3316 H 325.691 -1.0545 -4.56068 0
M  V30 3317 H 325.864 -1.70481 -6.25172 0
M  V30 3318 N 319.27 1.56325 -0.20005 0
M  V30 3319 C 320.518 1.97329 0.436547 0
M  V30 3320 C 320.839 1.08826 1.61808 0
M  V30 3321 O 320.109 0.160604 1.95241 0
M  V30 3322 H 318.689 0.728714 0.164272 0
M  V30 3323 H 321.351 1.92761 -0.287937 0
M  V30 3324 H 320.447 3.02264 0.777353 0
M  V30 3325 N 320.748 -0.0735177 1.57428 0
M  V30 3326 C 321.711 -1.07192 2.02589 0
M  V30 3327 C 322.711 -1.31695 0.922661 0
M  V30 3328 O 323.901 -1.27445 1.18758 0
M  V30 3329 C 321.033 -2.41599 2.40506 0
M  V30 3330 H 322.226 -0.682727 2.92025 0
M  V30 3331 H 319.779 -0.319193 1.53006 0
M  V30 3332 H 320.514 -2.85354 1.5409 0
M  V30 3333 H 320.299 -2.25156 3.21009 0
M  V30 3334 H 321.789 -3.13367 2.76027 0
M  V30 3335 N 322.226 -1.5378 -0.344866 0
M  V30 3336 C 323.173 -1.81676 -1.42346 0
M  V30 3337 C 324.143 -0.662376 -1.52321 0
M  V30 3338 O 325.328 -0.906675 -1.67881 0
M  V30 3339 C 322.468 -2.03087 -2.79015 0
M  V30 3340 C 321.581 -3.30799 -2.77842 0
M  V30 3341 C 320.716 -3.42285 -4.0622 0
M  V30 3342 C 319.755 -4.6395 -3.9927 0
M  V30 3343 N 318.892 -4.72477 -5.19336 0
M  V30 3344 H 323.732 -2.73703 -1.17858 0
M  V30 3345 H 321.269 -1.35568 -0.570949 0
M  V30 3346 H 323.227 -2.1349 -3.58438 0
M  V30 3347 H 321.857 -1.14375 -3.01858 0
M  V30 3348 H 320.909 -3.29244 -1.90533 0
M  V30 3349 H 322.221 -4.20314 -2.68584 0
M  V30 3350 H 321.375 -3.52113 -4.94066 0
M  V30 3351 H 320.114 -2.50823 -4.18258 0
M  V30 3352 H 319.119 -4.54201 -3.09809 0
M  V30 3353 H 320.344 -5.56775 -3.88817 0
M  V30 3354 H 318.29 -3.83924 -5.3192 0
M  V30 3355 H 318.207 -5.55927 -5.12329 0
M  V30 3356 H 319.475 -4.86613 -6.08957 0
M  V30 3357 N 323.704 0.605807 -1.45491 0
M  V30 3358 C 324.953 1.36086 -1.48874 0
M  V30 3359 C 325.266 1.95131 -0.135333 0
M  V30 3360 O 326.472 2.7146 -0.0468144 0
M  V30 3361 C 324.928 2.46518 -2.62215 0
M  V30 3362 C 324.536 1.93877 -4.03876 0
M  V30 3363 C 326.28 3.23512 -2.74846 0
M  V30 3364 C 324.187 3.01801 -5.08596 0
M  V30 3365 H 323.117 0.511497 -0.553974 0
M  V30 3366 H 325.768 0.649089 -1.71636 0
M  V30 3367 H 324.15 3.20388 -2.32739 0
M  V30 3368 H 325.324 1.26704 -4.43038 0
M  V30 3369 H 323.639 1.29622 -3.95711 0
M  V30 3370 H 326.236 4.04013 -3.50253 0
M  V30 3371 H 326.579 3.74631 -1.81542 0
M  V30 3372 H 327.112 2.56742 -3.03856 0
M  V30 3373 H 323.851 2.55597 -6.03614 0
M  V30 3374 H 323.371 3.67535 -4.74002 0
M  V30 3375 H 325.05 3.66152 -5.33424 0
M  V30 3376 N 325.182 1.32811 0.848464 0
M  V30 3377 C 326.43 1.23479 1.59991 0
M  V30 3378 C 326.751 -0.201853 1.93952 0
M  V30 3379 O 326.021 -1.12818 1.60153 0
M  V30 3380 H 324.601 0.454034 0.593179 0
M  V30 3381 H 327.263 1.66412 1.01455 0
M  V30 3382 H 326.359 1.82178 2.53412 0
M  V30 3383 N 326.66 -1.06551 1.16123 0
M  V30 3384 C 327.623 -2.12132 0.867906 0
M  V30 3385 C 328.623 -1.60224 -0.135944 0
M  V30 3386 O 329.813 -1.73943 0.0946422 0
M  V30 3387 C 326.945 -3.396 0.297419 0
M  V30 3388 H 328.138 -2.39586 1.80385 0
M  V30 3389 H 325.691 -1.22574 0.969812 0
M  V30 3390 H 326.426 -3.17794 -0.64633 0
M  V30 3391 H 326.211 -3.78581 1.02073 0
M  V30 3392 H 327.701 -4.17455 0.110052 0
M  V30 3393 N 328.138 -0.959301 -1.25041 0
M  V30 3394 C 329.386 -0.615393 -1.92503 0
M  V30 3395 C 329.707 0.850969 -1.75452 0
M  V30 3396 O 328.977 1.60658 -1.12098 0
M  V30 3397 H 327.557 -0.224613 -0.712431 0
M  V30 3398 H 330.219 -1.21855 -1.5211 0
M  V30 3399 H 329.315 -0.848738 -3.00338 0
M  V30 3400 N 329.616 1.39756 -0.72842 0
M  V30 3401 C 330.841 2.05472 -0.282159 0
M  V30 3402 C 331.266 1.54549 1.07221 0
M  V30 3403 O 330.624 0.686372 1.67805 0
M  V30 3404 C 330.672 3.59462 -0.286264 0
M  V30 3405 O 329.776 4.05918 0.728298 0
M  V30 3406 H 329.117 0.651226 -0.129618 0
M  V30 3407 H 331.647 1.78915 -0.992499 0
M  V30 3408 H 331.657 4.07798 -0.128373 0
M  V30 3409 H 330.332 3.95889 -1.27456 0
M  V30 3410 H 328.909 3.69012 0.537081 0
M  V30 3411 N 331.094 0.475555 1.50254 0
M  V30 3412 C 332.34 -0.0780073 2.0265 0
M  V30 3413 C 332.673 -1.38968 1.35652 0
M  V30 3414 O 331.948 -1.8839 0.483691 0
M  V30 3415 C 332.231 -0.257161 3.59181 0
M  V30 3416 C 332.084 1.07585 4.36744 0
M  V30 3417 C 333.403 -1.00965 4.28362 0
M  V30 3418 H 330.522 -0.0268758 0.73651 0
M  V30 3419 H 333.164 0.622015 1.7953 0
M  V30 3420 H 331.314 -0.853412 3.79011 0
M  V30 3421 H 332.986 1.70902 4.28474 0
M  V30 3422 H 331.229 1.6714 4.00308 0
M  V30 3423 H 331.9 0.904088 5.44546 0
M  V30 3424 H 334.376 -0.504214 4.13034 0
M  V30 3425 H 333.252 -1.10381 5.37687 0
M  V30 3426 H 333.513 -2.04731 3.91839 0
M  V30 3427 N 332.573 -1.56217 0.208337 0
M  V30 3428 C 333.819 -1.98242 -0.427552 0
M  V30 3429 C 334.152 -1.09554 -1.60348 0
M  V30 3430 O 333.427 -0.15035 -1.93918 0
M  V30 3431 C 333.71 -3.4931 -0.874907 0
M  V30 3432 C 333.563 -4.48773 0.303751 0
M  V30 3433 C 334.882 -4.04424 -1.73577 0
M  V30 3434 H 332.001 -0.720744 -0.153936 0
M  V30 3435 H 334.643 -1.87586 0.30192 0
M  V30 3436 H 332.793 -3.58522 -1.49648 0
M  V30 3437 H 334.465 -4.51586 0.941682 0
M  V30 3438 H 332.708 -4.23194 0.953375 0
M  V30 3439 H 333.379 -5.51976 -0.0519883 0
M  V30 3440 H 335.855 -3.98075 -1.21143 0
M  V30 3441 H 334.731 -5.1047 -2.01771 0
M  V30 3442 H 334.992 -3.50494 -2.69456 0
M  V30 3443 N 334.051 0.0651679 -1.57465 0
M  V30 3444 C 334.981 1.07693 -2.07182 0
M  V30 3445 C 335.962 1.39962 -0.966673 0
M  V30 3446 O 337.147 1.49475 -1.2398 0
M  V30 3447 C 334.277 2.3885 -2.52127 0
M  V30 3448 C 333.231 2.20917 -3.66579 0
M  V30 3449 C 332.557 3.57515 -3.97601 0
M  V30 3450 C 333.857 1.62493 -4.9638 0
M  V30 3451 H 335.551 0.663199 -2.91962 0
M  V30 3452 H 333.097 0.317569 -1.40455 0
M  V30 3453 H 335.05 3.09928 -2.85522 0
M  V30 3454 H 333.774 2.82215 -1.64384 0
M  V30 3455 H 332.433 1.52279 -3.33477 0
M  V30 3456 H 332.081 3.98463 -3.06979 0
M  V30 3457 H 331.781 3.46353 -4.74672 0
M  V30 3458 H 333.305 4.30013 -4.33499 0
M  V30 3459 H 334.719 2.23445 -5.27963 0
M  V30 3460 H 333.116 1.62009 -5.77818 0
M  V30 3461 H 334.186 0.587041 -4.81333 0
M  V30 3462 N 335.529 1.53961 0.336706 0
M  V30 3463 C 336.461 1.78751 1.4346 0
M  V30 3464 C 337.474 0.669019 1.48418 0
M  V30 3465 O 338.663 0.945884 1.51378 0
M  V30 3466 C 335.763 1.87844 2.82078 0
M  V30 3467 C 334.936 3.17854 3.00479 0
M  V30 3468 C 333.995 3.17816 4.19379 0
M  V30 3469 O 333.021 3.91511 4.13168 0
M  V30 3470 N 334.223 2.40669 5.2826 0
M  V30 3471 H 336.988 2.73493 1.22563 0
M  V30 3472 H 334.549 1.53096 0.526625 0
M  V30 3473 H 336.541 1.85261 3.59806 0
M  V30 3474 H 335.111 1.00257 2.96086 0
M  V30 3475 H 334.331 3.33504 2.10163 0
M  V30 3476 H 335.619 4.03718 3.0966 0
M  V30 3477 H 335.017 1.8036 5.36178 0
M  V30 3478 H 333.574 2.43877 6.04456 0
M  V30 3479 N 337.007 -0.598083 1.45811 0
M  V30 3480 C 338.232 -1.3881 1.54099 0
M  V30 3481 C 338.657 -1.8726 0.177578 0
M  V30 3482 O 338.015 -1.6069 -0.839541 0
M  V30 3483 C 338.063 -2.56217 2.53743 0
M  V30 3484 O 337.167 -3.5716 2.06182 0
M  V30 3485 H 336.508 -0.414024 0.519115 0
M  V30 3486 H 339.038 -0.726971 1.91249 0
M  V30 3487 H 339.048 -3.03337 2.72856 0
M  V30 3488 H 337.723 -2.20303 3.5276 0
M  V30 3489 H 336.3 -3.16624 1.96987 0
M  V30 3490 N 338.485 -1.33259 -0.841409 0
M  V30 3491 C 339.731 -1.24757 -1.59886 0
M  V30 3492 C 340.064 0.186913 -1.93298 0
M  V30 3493 O 339.339 1.12757 -1.5848 0
M  V30 3494 C 339.622 -2.12036 -2.91055 0
M  V30 3495 C 339.475 -3.63929 -2.6434 0
M  V30 3496 C 340.794 -1.9916 -3.92458 0
M  V30 3497 H 337.913 -0.454542 -0.580138 0
M  V30 3498 H 340.555 -1.63335 -0.970647 0
M  V30 3499 H 338.705 -1.79265 -3.44669 0
M  V30 3500 H 340.377 -4.06978 -2.17178 0
M  V30 3501 H 338.62 -3.85935 -1.98082 0
M  V30 3502 H 339.291 -4.20341 -3.57796 0
M  V30 3503 H 341.767 -2.27895 -3.48143 0
M  V30 3504 H 340.643 -2.62484 -4.82072 0
M  V30 3505 H 340.904 -0.963082 -4.31482 0
M  V30 3506 N 339.963 1.05934 -1.16686 0
M  V30 3507 C 341.374 1.60263 -0.957745 0
M  V30 3508 C 341.725 1.89789 0.49745 0
M  V30 3509 O 340.85 1.67401 1.37135 0
M  V30 3510 C 341.445 2.91172 -1.73218 0
M  V30 3511 C 340.004 3.42188 -1.56794 0
M  V30 3512 C 339.151 2.16028 -1.73859 0
M  V30 3513 H 342.102 0.888392 -1.31504 0
M  V30 3514 H 342.123 3.60744 -1.21014 0
M  V30 3515 H 341.635 2.6965 -2.79124 0
M  V30 3516 H 339.736 3.68762 -0.533437 0
M  V30 3517 H 339.849 4.17273 -2.35414 0
M  V30 3518 H 338.213 2.26426 -1.16633 0
M  V30 3519 H 338.996 1.96985 -2.81161 0
M  V30 3520 N 341.441 0.965919 1.2453 0
M  V30 3521 C 342.404 0.499547 2.2369 0
M  V30 3522 C 343.404 -0.40294 1.5567 0
M  V30 3523 O 344.594 -0.19865 1.73064 0
M  V30 3524 C 341.726 -0.276792 3.39774 0
M  V30 3525 H 342.919 1.37613 2.66463 0
M  V30 3526 H 340.472 0.750324 1.37112 0
M  V30 3527 H 341.207 -1.17055 3.02438 0
M  V30 3528 H 340.992 0.370826 3.90343 0
M  V30 3529 H 342.482 -0.592175 4.1338 0
M  V30 3530 N 342.919 -1.39368 0.735821 0
M  V30 3531 C 343.869 -2.27885 0.0724287 0
M  V30 3532 C 344.853 -1.44301 -0.711756 0
M  V30 3533 O 346.045 -1.67206 -0.58063 0
M  V30 3534 C 343.174 -3.33029 -0.833454 0
M  V30 3535 C 342.26 -4.24078 -0.0433749 0
M  V30 3536 N 342.651 -4.96138 0.983903 0
M  V30 3537 C 340.949 -4.45164 -0.272905 0
M  V30 3538 C 341.65 -5.63069 1.4604 0
M  V30 3539 N 340.626 -5.37991 0.778857 0
M  V30 3540 H 344.428 -2.81052 0.859467 0
M  V30 3541 H 341.942 -1.5206 0.570227 0
M  V30 3542 H 343.939 -3.95311 -1.32419 0
M  V30 3543 H 342.599 -2.81421 -1.61964 0
M  V30 3544 H 343.61 -4.9958 1.36528 0
M  V30 3545 H 340.287 -4.04497 -1.03383 0
M  V30 3546 H 341.677 -6.30755 2.31511 0
M  V30 3547 N 344.397 -0.483516 -1.5 0
M  V30 3548 C 345.625 0.0644831 -2.06799 0
M  V30 3549 C 346.04 1.32399 -1.34596 0
M  V30 3550 O 345.397 1.77626 -0.418946 0
M  V30 3551 C 345.448 0.339927 -3.59898 0
M  V30 3552 O 345.169 -0.869635 -4.29382 0
M  V30 3553 C 346.67 0.933515 -4.33359 0
M  V30 3554 H 343.89 -0.0126333 -0.670881 0
M  V30 3555 H 346.434 -0.675864 -1.93009 0
M  V30 3556 H 344.589 1.03022 -3.7345 0
M  V30 3557 H 345.003 -0.62179 -5.20801 0
M  V30 3558 H 346.477 1.07593 -5.41413 0
M  V30 3559 H 346.954 1.92685 -3.94676 0
M  V30 3560 H 347.56 0.281221 -4.24369 0
M  V30 3561 N 345.875 1.56104 -0.216619 0
M  V30 3562 C 347.103 2.02563 0.421413 0
M  V30 3563 C 347.518 1.0965 1.53695 0
M  V30 3564 O 346.875 0.10521 1.82196 0
M  V30 3565 C 346.926 3.48584 0.957665 0
M  V30 3566 O 346.647 4.37953 -0.113389 0
M  V30 3567 C 348.148 4.10664 1.66943 0
M  V30 3568 H 345.368 0.662944 0.103665 0
M  V30 3569 H 347.912 2.01793 -0.331629 0
M  V30 3570 H 346.067 3.49985 1.661 0
M  V30 3571 H 346.481 5.23704 0.288932 0
M  V30 3572 H 347.955 5.14622 1.99671 0
M  V30 3573 H 348.432 3.55373 2.58083 0
M  V30 3574 H 349.038 4.13098 1.01142 0
M  V30 3575 N 347.353 -0.0568162 1.57498 0
M  V30 3576 C 348.316 -1.05038 2.03715 0
M  V30 3577 C 349.316 -1.30709 0.936577 0
M  V30 3578 O 350.506 -1.26178 1.20103 0
M  V30 3579 C 347.638 -2.39034 2.43055 0
M  V30 3580 H 348.831 -0.651715 2.92733 0
M  V30 3581 H 346.384 -0.302947 1.53336 0
M  V30 3582 H 347.119 -2.83703 1.57108 0
M  V30 3583 H 346.904 -2.21739 3.2338 0
M  V30 3584 H 348.394 -3.10421 2.79336 0
M  V30 3585 N 348.832 -1.54138 -0.328536 0
M  V30 3586 C 349.795 -1.82462 -1.38709 0
M  V30 3587 C 350.795 -0.696229 -1.44946 0
M  V30 3588 O 351.985 -0.964535 -1.4506 0
M  V30 3589 C 349.117 -1.98018 -2.77492 0
M  V30 3590 H 350.31 -2.77037 -1.14851 0
M  V30 3591 H 347.863 -1.45779 -0.563751 0
M  V30 3592 H 348.598 -1.05637 -3.06613 0
M  V30 3593 H 348.383 -2.80124 -2.74359 0
M  V30 3594 H 349.873 -2.21396 -3.54081 0
M  V30 3595 N 350.31 0.590341 -1.46126 0
M  V30 3596 C 351.558 1.34616 -1.50742 0
M  V30 3597 C 351.879 1.94363 -0.157486 0
M  V30 3598 O 351.149 1.78136 0.815136 0
M  V30 3599 H 349.729 0.499789 -0.555175 0
M  V30 3600 H 352.391 0.691953 -1.82203 0
M  V30 3601 H 351.487 2.15678 -2.25587 0
M  V30 3602 N 351.788 1.33704 0.83433 0
M  V30 3603 C 353.034 1.25603 1.59222 0
M  V30 3604 C 353.367 -0.176659 1.93395 0
M  V30 3605 O 352.642 -1.11915 1.59076 0
M  V30 3606 C 352.925 2.13576 2.89926 0
M  V30 3607 C 352.778 3.65326 2.62406 0
M  V30 3608 C 354.097 2.01238 3.91397 0
M  V30 3609 H 351.216 0.457613 0.577719 0
M  V30 3610 H 353.858 1.63848 0.961972 0
M  V30 3611 H 352.008 1.8109 3.43713 0
M  V30 3612 H 353.68 4.08124 2.15017 0
M  V30 3613 H 351.923 3.8698 1.96033 0
M  V30 3614 H 352.594 4.22232 3.55562 0
M  V30 3615 H 355.07 2.29738 3.46929 0
M  V30 3616 H 353.946 2.65036 4.80673 0
M  V30 3617 H 354.207 0.985951 4.30966 0
M  V30 3618 N 353.266 -1.05314 1.17247 0
M  V30 3619 C 354.677 -1.59753 0.96623 0
M  V30 3620 C 355.028 -1.9005 -0.487378 0
M  V30 3621 O 354.153 -1.68126 -1.36245 0
M  V30 3622 C 354.748 -2.90249 1.74759 0
M  V30 3623 C 353.307 -3.41352 1.58606 0
M  V30 3624 C 352.454 -2.15103 1.75002 0
M  V30 3625 H 355.405 -0.881406 1.31973 0
M  V30 3626 H 355.426 -3.60097 1.22925 0
M  V30 3627 H 354.938 -2.68166 2.8055 0
M  V30 3628 H 353.039 -3.68474 0.552985 0
M  V30 3629 H 353.152 -4.16019 2.37624 0
M  V30 3630 H 351.516 -2.25804 1.17833 0
M  V30 3631 H 352.299 -1.95491 2.82202 0
M  V30 3632 N 354.744 -0.972509 -1.24016 0
M  V30 3633 C 355.707 -0.511403 -2.23422 0
M  V30 3634 C 356.707 0.394679 -1.55881 0
M  V30 3635 O 357.897 0.189469 -1.73167 0
M  V30 3636 C 355.029 0.258769 -3.39916 0
M  V30 3637 H 356.222 -1.39024 -2.6573 0
M  V30 3638 H 353.775 -0.757585 -1.36713 0
M  V30 3639 H 354.51 1.1545 -3.03054 0
M  V30 3640 H 354.295 -0.391522 -3.9014 0
M  V30 3641 H 355.785 0.570244 -4.13688 0
M  V30 3642 N 356.222 1.38976 -0.743202 0
M  V30 3643 C 357.638 1.53984 -0.419664 0
M  V30 3644 C 357.838 1.70837 1.0685 0
M  V30 3645 O 356.894 1.7135 1.8546 0
M  V30 3646 C 358.207 2.75287 -1.20985 0
M  V30 3647 C 359.755 2.89129 -1.19889 0
M  V30 3648 C 360.23 4.13381 -1.97181 0
M  V30 3649 N 361.721 4.20437 -1.94389 0
M  V30 3650 C 362.456 5.15547 -2.50996 0
M  V30 3651 N 361.952 6.16395 -3.16274 0
M  V30 3652 N 363.745 5.07822 -2.40984 0
M  V30 3653 H 355.896 1.26285 -1.7078 0
M  V30 3654 H 358.159 0.612689 -0.723406 0
M  V30 3655 H 357.865 2.69204 -2.26323 0
M  V30 3656 H 357.739 3.68184 -0.819759 0
M  V30 3657 H 360.126 2.947 -0.153606 0
M  V30 3658 H 360.207 1.97272 -1.62841 0
M  V30 3659 H 359.851 4.08572 -3.01714 0
M  V30 3660 H 359.781 5.04298 -1.51629 0
M  V30 3661 H 362.272 3.48205 -1.46839 0
M  V30 3662 H 362.585 6.85443 -3.56915 0
M  V30 3663 H 360.93 6.16758 -3.20367 0
M  V30 3664 H 364.121 4.27973 -1.89622 0
M  V30 3665 H 364.294 5.81767 -2.85397 0
M  V30 3666 N 357.7 0.491464 1.49741 0
M  V30 3667 C 358.949 -0.0582189 2.01616 0
M  V30 3668 C 359.262 -1.38927 1.3769 0
M  V30 3669 O 360.468 -2.02509 1.80838 0
M  V30 3670 C 358.924 -0.154235 3.59569 0
M  V30 3671 C 358.532 1.1696 4.32463 0
M  V30 3672 C 360.276 -0.65479 4.1942 0
M  V30 3673 C 358.183 1.03627 5.8225 0
M  V30 3674 H 357.113 -0.0255317 0.753568 0
M  V30 3675 H 359.764 0.629445 1.72367 0
M  V30 3676 H 358.146 -0.906138 3.85493 0
M  V30 3677 H 359.32 1.93405 4.18248 0
M  V30 3678 H 357.635 1.60285 3.84315 0
M  V30 3679 H 360.232 -0.771903 5.29099 0
M  V30 3680 H 360.575 -1.65127 3.8215 0
M  V30 3681 H 361.108 0.040304 3.9778 0
M  V30 3682 H 357.847 2.00672 6.24028 0
M  V30 3683 H 357.367 0.312546 5.98985 0
M  V30 3684 H 359.046 0.711114 6.4308 0
M  V30 3685 N 359.178 -1.55987 0.224894 0
M  V30 3686 C 360.424 -1.98684 -0.406502 0
M  V30 3687 C 360.757 -1.11248 -1.59177 0
M  V30 3688 O 360.032 -0.170909 -1.93748 0
M  V30 3689 C 360.315 -3.50218 -0.837808 0
M  V30 3690 C 360.168 -4.48426 0.351332 0
M  V30 3691 C 361.487 -4.06243 -1.69278 0
M  V30 3692 H 358.606 -0.722337 -0.146283 0
M  V30 3693 H 361.248 -1.87255 0.321799 0
M  V30 3694 H 359.398 -3.60089 -1.45837 0
M  V30 3695 H 361.07 -4.50562 0.989526 0
M  V30 3696 H 359.313 -4.22159 0.998207 0
M  V30 3697 H 359.984 -5.52 0.00655905 0
M  V30 3698 H 362.46 -3.99337 -1.16914 0
M  V30 3699 H 361.336 -5.12581 -1.96346 0
M  V30 3700 H 361.597 -3.53332 -2.65723 0
M  V30 3701 N 360.656 0.0484629 -1.57525 0
M  V30 3702 C 361.904 0.741657 -1.88 0
M  V30 3703 C 362.225 1.76918 -0.820054 0
M  V30 3704 O 361.495 1.95335 0.148661 0
M  V30 3705 H 360.075 0.276908 -0.69378 0
M  V30 3706 H 362.737 0.019013 -1.94891 0
M  V30 3707 H 361.833 1.24336 -2.86264 0
M  V30 3708 N 362.134 1.5431 0.320358 0
M  V30 3709 C 363.081 1.83918 1.39438 0
M  V30 3710 C 364.051 0.686525 1.51248 0
M  V30 3711 O 365.236 0.933269 1.66417 0
M  V30 3712 C 362.376 2.075 2.75749 0
M  V30 3713 C 361.489 3.35177 2.72544 0
M  V30 3714 C 360.624 3.48704 4.00723 0
M  V30 3715 C 359.663 4.70244 3.91838 0
M  V30 3716 N 358.8 4.80679 5.11754 0
M  V30 3717 H 363.64 2.75544 1.13489 0
M  V30 3718 H 361.177 1.36459 0.549309 0
M  V30 3719 H 363.135 2.19166 3.54996 0
M  V30 3720 H 361.765 1.19163 3 0
M  V30 3721 H 360.817 3.32233 1.85271 0
M  V30 3722 H 362.129 4.24534 2.61863 0
M  V30 3723 H 361.283 3.59928 4.88402 0
M  V30 3724 H 360.022 2.57445 4.14214 0
M  V30 3725 H 359.027 4.59072 3.02544 0
M  V30 3726 H 360.252 5.6289 3.7991 0
M  V30 3727 H 358.198 3.92337 5.25745 0
M  V30 3728 H 358.115 5.64007 5.0342 0
M  V30 3729 H 359.383 4.96239 6.01138 0
M  V30 3730 N 363.613 -0.582584 1.46437 0
M  V30 3731 C 365.024 -1.1647 1.45916 0
M  V30 3732 C 365.375 -1.95177 0.200077 0
M  V30 3733 O 364.5 -2.04874 -0.696819 0
M  V30 3734 C 365.095 -2.11885 2.64367 0
M  V30 3735 C 363.654 -2.65421 2.66887 0
M  V30 3736 C 362.801 -1.41294 2.38603 0
M  V30 3737 H 365.752 -0.370514 1.54314 0
M  V30 3738 H 365.773 -2.9535 2.39892 0
M  V30 3739 H 365.285 -1.54573 3.5599 0
M  V30 3740 H 363.386 -3.26602 1.79338 0
M  V30 3741 H 363.499 -3.08147 3.66854 0
M  V30 3742 H 361.863 -1.71109 1.88663 0
M  V30 3743 H 362.646 -0.858125 3.32402 0
M  V30 3744 N 365.091 -1.34144 -0.827227 0
M  V30 3745 C 366.001 -1.27428 -1.96975 0
M  V30 3746 C 367.017 -0.182728 -1.73038 0
M  V30 3747 O 368.193 -0.408426 -1.97215 0
M  V30 3748 C 365.258 -1.02526 -3.31194 0
M  V30 3749 C 364.319 -2.20796 -3.68168 0
M  V30 3750 C 363.552 -1.97073 -4.95982 0
M  V30 3751 O 363.775 -0.926822 -5.6282 0
M  V30 3752 O 362.709 -2.83912 -5.30733 0
M  V30 3753 H 366.535 -2.23537 -2.05584 0
M  V30 3754 H 364.12 -1.14307 -0.961989 0
M  V30 3755 H 366.002 -0.904026 -4.11589 0
M  V30 3756 H 364.677 -0.0945389 -3.23562 0
M  V30 3757 H 363.584 -2.38477 -2.88235 0
M  V30 3758 H 364.917 -3.12243 -3.8048 0
M  V30 3759 N 366.569 1.04691 -1.17803 0
M  V30 3760 C 367.794 1.81984 -0.994813 0
M  V30 3761 C 368.219 1.82586 0.452112 0
M  V30 3762 O 367.577 1.23854 1.324 0
M  V30 3763 C 367.625 3.2575 -1.54659 0
M  V30 3764 O 366.729 4.05267 -0.763728 0
M  V30 3765 H 366.07 0.562483 -0.352857 0
M  V30 3766 H 368.6 1.3189 -1.56417 0
M  V30 3767 H 368.61 3.76541 -1.57102 0
M  V30 3768 H 367.285 3.24627 -2.59981 0
M  V30 3769 H 365.862 3.63972 -0.811108 0
M  V30 3770 N 368.047 0.979072 1.23499 0
M  V30 3771 C 369.324 0.563674 1.87302 0
M  V30 3772 C 369.704 -0.959199 1.88049 0
M  V30 3773 O 369.052 -1.83535 1.36114 0
M  V30 3774 C 369.262 1.16822 3.28867 0
M  V30 3775 C 370.61 1.26014 4.0547 0
M  V30 3776 O 371.634 1.12158 3.38082 0
M  V30 3777 O 370.493 1.48044 5.26066 0
M  V30 3778 H 367.587 0.189602 0.804972 0
M  V30 3779 H 370.133 1.07407 1.31384 0
M  V30 3780 H 368.905 2.21049 3.22883 0
M  V30 3781 H 368.528 0.642564 3.92373 0
M  V30 3782 N 369.525 -1.3858 0.750561 0
M  V30 3783 C 370.472 -2.30483 0.120835 0
M  V30 3784 C 371.442 -1.50022 -0.712923 0
M  V30 3785 O 372.627 -1.78662 -0.669676 0
M  V30 3786 C 369.767 -3.36431 -0.768666 0
M  V30 3787 C 368.88 -4.31927 0.0793922 0
M  V30 3788 C 368.015 -5.24944 -0.81283 0
M  V30 3789 C 367.054 -6.12088 0.0390447 0
M  V30 3790 N 366.191 -6.97412 -0.809969 0
M  V30 3791 H 371.031 -2.83761 0.91015 0
M  V30 3792 H 368.568 -1.39707 0.460463 0
M  V30 3793 H 370.526 -3.96462 -1.29898 0
M  V30 3794 H 369.156 -2.8457 -1.5238 0
M  V30 3795 H 368.208 -3.73382 0.727303 0
M  V30 3796 H 369.52 -4.93319 0.737401 0
M  V30 3797 H 368.674 -5.90078 -1.41042 0
M  V30 3798 H 367.413 -4.63911 -1.50458 0
M  V30 3799 H 366.418 -5.45952 0.649328 0
M  V30 3800 H 367.643 -6.75189 0.727809 0
M  V30 3801 H 365.589 -6.38931 -1.48672 0
M  V30 3802 H 365.506 -7.55712 -0.208789 0
M  V30 3803 H 366.774 -7.66959 -1.39263 0
M  V30 3804 N 371.003 -0.499398 -1.49478 0
M  V30 3805 C 372.414 -0.051215 -1.8663 0
M  V30 3806 C 372.765 1.36238 -1.41186 0
M  V30 3807 O 371.89 2.01502 -0.789051 0
M  V30 3808 C 372.485 -0.0861651 -3.3869 0
M  V30 3809 C 371.044 0.30667 -3.75149 0
M  V30 3810 C 370.191 -0.459397 -2.73468 0
M  V30 3811 H 373.142 -0.712264 -1.41818 0
M  V30 3812 H 373.163 0.709507 -3.73826 0
M  V30 3813 H 372.675 -1.11512 -3.71735 0
M  V30 3814 H 370.776 1.33892 -3.47712 0
M  V30 3815 H 370.889 -0.0116669 -4.79099 0
M  V30 3816 H 369.253 0.0905645 -2.54539 0
M  V30 3817 H 370.036 -1.4884 -3.09357 0
M  V30 3818 N 372.481 1.55866 -0.233164 0
M  V30 3819 C 373.706 2.03449 0.402906 0
M  V30 3820 C 374.131 1.11166 1.51736 0
M  V30 3821 O 373.489 0.101996 1.81013 0
M  V30 3822 C 373.537 3.49165 0.9009 0
M  V30 3823 O 372.641 3.60019 2.01147 0
M  V30 3824 H 371.982 0.657913 0.0897025 0
M  V30 3825 H 374.512 2.01493 -0.355201 0
M  V30 3826 H 374.522 3.89716 1.2077 0
M  V30 3827 H 373.197 4.15813 0.0852889 0
M  V30 3828 H 371.774 3.3136 1.71042 0
M  V30 3829 N 373.959 -0.0401083 1.57549 0
M  V30 3830 C 374.889 -1.04384 2.08869 0
M  V30 3831 C 375.87 -1.38407 0.988817 0
M  V30 3832 O 377.055 -1.47483 1.26342 0
M  V30 3833 C 374.185 -2.34808 2.55895 0
M  V30 3834 C 373.139 -2.15057 3.70047 0
M  V30 3835 C 372.465 -3.51145 4.03239 0
M  V30 3836 C 373.765 -1.54576 4.98902 0
M  V30 3837 H 375.459 -0.616666 2.92981 0
M  V30 3838 H 373.005 -0.295184 1.40942 0
M  V30 3839 H 374.958 -3.05346 2.90417 0
M  V30 3840 H 373.682 -2.79565 1.68853 0
M  V30 3841 H 372.341 -1.46954 3.35857 0
M  V30 3842 H 371.989 -3.93529 3.13279 0
M  V30 3843 H 371.689 -3.38758 4.80122 0
M  V30 3844 H 373.213 -4.23062 4.40285 0
M  V30 3845 H 374.627 -2.15017 5.31451 0
M  V30 3846 H 373.024 -1.52796 5.80322 0
M  V30 3847 H 374.094 -0.51039 4.82206 0
M  V30 3848 N 375.437 -1.54477 -0.31217 0
M  V30 3849 C 376.714 -1.63891 -1.06767 0
M  V30 3850 C 377.094 -0.480028 -2.0557 0
M  V30 3851 O 376.442 0.524487 -2.22399 0
M  V30 3852 C 376.652 -3.01402 -1.75948 0
M  V30 3853 C 378 -3.57838 -2.28554 0
M  V30 3854 O 379.024 -3.03782 -1.85998 0
M  V30 3855 O 377.883 -4.52462 -3.06497 0
M  V30 3856 H 374.977 -0.664125 -0.492816 0
M  V30 3857 H 377.523 -1.66823 -0.311149 0
M  V30 3858 H 376.295 -3.77187 -1.04144 0
M  V30 3859 H 375.918 -3.02199 -2.58383 0
M  V30 3860 N 376.915 0.57481 -1.46744 0
M  V30 3861 C 377.848 1.69827 -1.52427 0
M  V30 3862 C 378.826 1.58151 -0.377744 0
M  V30 3863 O 380.01 1.79257 -0.58303 0
M  V30 3864 C 377.137 3.07943 -1.41027 0
M  V30 3865 C 376.183 3.38116 -2.59961 0
M  V30 3866 S 377.016 3.29313 -4.22272 0
M  V30 3867 C 378.172 4.69953 -4.13394 0
M  V30 3868 H 378.405 1.64748 -2.47478 0
M  V30 3869 H 375.938 0.754203 -1.34726 0
M  V30 3870 H 377.896 3.87619 -1.35137 0
M  V30 3871 H 376.557 3.10504 -0.473909 0
M  V30 3872 H 375.75 4.38762 -2.47999 0
M  V30 3873 H 375.352 2.66024 -2.62882 0
M  V30 3874 H 377.644 5.60517 -3.80562 0
M  V30 3875 H 378.587 4.86972 -5.14066 0
M  V30 3876 H 378.995 4.47174 -3.44522 0
M  V30 3877 N 378.394 1.34581 0.820102 0
M  V30 3878 C 379.671 1.17675 1.56244 0
M  V30 3879 C 380.051 -0.249541 2.0962 0
M  V30 3880 O 379.399 -1.25125 1.91196 0
M  V30 3881 C 379.609 2.23364 2.6816 0
M  V30 3882 C 380.957 2.58485 3.36854 0
M  V30 3883 O 381.981 2.22175 2.78418 0
M  V30 3884 O 380.84 3.20868 4.42386 0
M  V30 3885 H 377.934 0.456333 0.689702 0
M  V30 3886 H 380.48 1.46222 0.861231 0
M  V30 3887 H 379.252 3.19087 2.26493 0
M  V30 3888 H 378.875 1.96009 3.45928 0
M  V30 3889 N 379.872 -1.04064 1.18357 0
M  V30 3890 C 380.804 -2.12114 0.868358 0
M  V30 3891 C 381.817 -1.62247 -0.134045 0
M  V30 3892 O 383.006 -1.78253 0.0937933 0
M  V30 3893 C 380.106 -3.37773 0.276132 0
M  V30 3894 C 379.279 -4.16874 1.3242 0
M  V30 3895 C 378.338 -5.20861 0.747662 0
M  V30 3896 O 377.364 -5.51141 1.42239 0
M  V30 3897 N 378.566 -5.78715 -0.454823 0
M  V30 3898 H 381.331 -2.39748 1.79836 0
M  V30 3899 H 378.892 -1.20258 1.08396 0
M  V30 3900 H 380.884 -4.04513 -0.123133 0
M  V30 3901 H 379.454 -3.07581 -0.557895 0
M  V30 3902 H 378.674 -3.45456 1.89878 0
M  V30 3903 H 379.962 -4.66516 2.03078 0
M  V30 3904 H 379.36 -5.56415 -1.02073 0
M  V30 3905 H 377.917 -6.46921 -0.79601 0
M  V30 3906 N 381.35 -0.985608 -1.22978 0
M  V30 3907 C 382.3 -0.50118 -2.22423 0
M  V30 3908 C 383.284 0.426649 -1.5514 0
M  V30 3909 O 384.476 0.254656 -1.75159 0
M  V30 3910 C 381.605 0.190003 -3.42774 0
M  V30 3911 C 380.691 -0.757703 -4.17276 0
M  V30 3912 N 381.082 -1.90251 -4.68656 0
M  V30 3913 C 379.38 -0.57209 -4.42316 0
M  V30 3914 C 380.081 -2.49676 -5.25392 0
M  V30 3915 N 379.057 -1.78013 -5.13627 0
M  V30 3916 H 382.859 -1.37441 -2.59783 0
M  V30 3917 H 380.373 -0.846941 -1.38567 0
M  V30 3918 H 382.37 0.55439 -4.13197 0
M  V30 3919 H 381.03 1.05946 -3.06929 0
M  V30 3920 H 382.041 -2.28354 -4.64839 0
M  V30 3921 H 378.718 0.251909 -4.16739 0
M  V30 3922 H 380.108 -3.46384 -5.75732 0
M  V30 3923 N 382.828 1.3818 -0.7579 0
M  V30 3924 C 384.075 2.00019 -0.315985 0
M  V30 3925 C 384.403 1.60163 1.10355 0
M  V30 3926 O 383.658 0.83264 1.77103 0
M  V30 3927 C 383.957 3.55252 -0.391218 0
M  V30 3928 C 383.623 4.14834 -1.76702 0
M  V30 3929 C 382.285 4.30821 -2.14353 0
M  V30 3930 C 384.637 4.47658 -2.66931 0
M  V30 3931 C 381.965 4.76928 -3.41696 0
M  V30 3932 C 384.317 4.95184 -3.93669 0
M  V30 3933 C 382.981 5.09377 -4.31383 0
M  V30 3934 H 382.251 0.731923 -0.115627 0
M  V30 3935 H 384.898 1.65161 -0.969223 0
M  V30 3936 H 383.203 3.90273 0.34558 0
M  V30 3937 H 384.9 4.00988 -0.030805 0
M  V30 3938 H 381.49 4.02808 -1.46435 0
M  V30 3939 H 385.674 4.34904 -2.39106 0
M  V30 3940 H 380.93 4.86103 -3.70829 0
M  V30 3941 H 385.104 5.19551 -4.63724 0
M  V30 3942 H 382.731 5.44865 -5.30119 0
M  V30 3943 N 384.306 0.507319 1.49211 0
M  V30 3944 C 385.254 -0.281364 2.30892 0
M  V30 3945 C 386.248 -0.95687 1.39787 0
M  V30 3946 O 387.454 -0.883838 1.56807 0
M  V30 3947 H 383.829 -0.109597 0.743971 0
M  V30 3948 H 385.8 0.42744 2.95323 0
M  V30 3949 C 384.549 -1.32918 3.21291 0
M  V30 3950 H 383.872 -0.818799 3.91326 0
M  V30 3951 H 385.312 -1.85288 3.81372 0
M  V30 3952 C 383.771 -2.35074 2.41333 0
M  V30 3953 O 384.301 -3.4108 2.12197 0
M  V30 3954 N 382.507 -2.07705 2.03241 0
M  V30 3955 H 382.054 -1.2152 2.27136 0
M  V30 3956 H 382.012 -2.76283 1.50051 0
M  V30 3957 N 385.784 -1.5574 0.241426 0
M  V30 3958 C 387.032 -1.98417 -0.384075 0
M  V30 3959 C 387.353 -1.13078 -1.58866 0
M  V30 3960 O 386.623 -0.212312 -1.94746 0
M  V30 3961 H 385.203 -0.732813 -0.144894 0
M  V30 3962 H 387.865 -1.9193 0.338943 0
M  V30 3963 H 386.961 -3.04219 -0.696939 0
M  V30 3964 N 387.262 0.0317525 -1.57568 0
M  V30 3965 C 388.487 0.738664 -1.938 0
M  V30 3966 C 388.912 1.68242 -0.841208 0
M  V30 3967 O 388.27 1.80157 0.203267 0
M  V30 3968 C 388.318 1.47417 -3.29091 0
M  V30 3969 O 387.422 2.5872 -3.2115 0
M  V30 3970 H 386.763 0.198856 -0.633524 0
M  V30 3971 H 389.293 -0.0119713 -2.04596 0
M  V30 3972 H 389.303 1.84468 -3.63917 0
M  V30 3973 H 387.978 0.781988 -4.08482 0
M  V30 3974 H 386.555 2.24231 -2.97951 0
M  V30 3975 N 388.74 1.54641 0.303973 0
M  V30 3976 C 389.989 1.7299 1.03717 0
M  V30 3977 C 390.302 0.521168 1.88529 0
M  V30 3978 O 391.508 0.586408 2.65092 0
M  V30 3979 C 389.964 3.06051 1.89369 0
M  V30 3980 C 389.572 4.34393 1.09574 0
M  V30 3981 C 391.316 3.3376 2.62306 0
M  V30 3982 C 389.223 5.58506 1.94486 0
M  V30 3983 H 388.153 0.64473 0.390947 0
M  V30 3984 H 390.804 1.81124 0.294328 0
M  V30 3985 H 389.186 2.91874 2.67629 0
M  V30 3986 H 390.36 4.59396 0.359485 0
M  V30 3987 H 388.675 4.13597 0.482324 0
M  V30 3988 H 391.272 4.23687 3.26181 0
M  V30 3989 H 391.615 2.52503 3.3098 0
M  V30 3990 H 392.148 3.48894 1.91097 0
M  V30 3991 H 388.887 6.42422 1.30287 0
M  V30 3992 H 388.407 5.37694 2.65792 0
M  V30 3993 H 390.086 5.95651 2.52605 0
M  V30 3994 N 390.218 -0.567019 1.47046 0
M  V30 3995 C 391.15 -1.68985 1.54844 0
M  V30 3996 C 392.163 -1.56869 0.435431 0
M  V30 3997 O 393.352 -1.64006 0.70457 0
M  V30 3998 C 390.452 -3.07373 1.42742 0
M  V30 3999 C 389.625 -3.45339 2.6844 0
M  V30 4000 C 388.684 -4.62849 2.50314 0
M  V30 4001 O 387.71 -4.67922 3.24095 0
M  V30 4002 N 388.912 -5.58726 1.57499 0
M  V30 4003 H 391.677 -1.62745 2.51663 0
M  V30 4004 H 389.238 -0.753411 1.43302 0
M  V30 4005 H 391.23 -3.83803 1.28365 0
M  V30 4006 H 389.8 -3.07893 0.540445 0
M  V30 4007 H 389.02 -2.58455 2.97648 0
M  V30 4008 H 390.308 -3.67476 3.51907 0
M  V30 4009 H 389.706 -5.57376 0.966876 0
M  V30 4010 H 388.263 -6.34523 1.49078 0
M  V30 4011 N 391.696 -1.35014 -0.812953 0
M  V30 4012 C 392.944 -1.27678 -1.56661 0
M  V30 4013 C 393.265 0.150359 -1.94419 0
M  V30 4014 O 392.535 1.08532 -1.63088 0
M  V30 4015 H 391.115 -0.469602 -0.580933 0
M  V30 4016 H 393.777 -1.69043 -0.970076 0
M  V30 4017 H 392.873 -1.88833 -2.48492 0
M  V30 4018 N 393.175 1.03435 -1.18907 0
M  V30 4019 C 394.422 1.76743 -0.988334 0
M  V30 4020 C 394.75 1.88447 0.481441 0
M  V30 4021 O 394.005 1.39383 1.37371 0
M  V30 4022 C 394.304 3.19792 -1.59586 0
M  V30 4023 C 393.97 3.28108 -3.09283 0
M  V30 4024 C 392.632 3.30084 -3.5014 0
M  V30 4025 C 394.984 3.27696 -4.05296 0
M  V30 4026 C 392.312 3.29299 -4.85571 0
M  V30 4027 C 394.664 3.28451 -5.4065 0
M  V30 4028 C 393.328 3.28723 -5.80946 0
M  V30 4029 H 392.598 0.64675 -0.361657 0
M  V30 4030 H 395.245 1.21442 -1.48068 0
M  V30 4031 H 393.55 3.78136 -1.02568 0
M  V30 4032 H 395.247 3.75171 -1.41589 0
M  V30 4033 H 391.837 3.27294 -2.76725 0
M  V30 4034 H 396.021 3.25354 -3.74778 0
M  V30 4035 H 391.277 3.2783 -5.16079 0
M  V30 4036 H 395.451 3.27082 -6.14809 0
M  V30 4037 H 393.078 3.27868 -6.85862 0
M  V30 4038 N 394.653 0.992116 1.22453 0
M  V30 4039 C 395.563 0.55065 2.28046 0
M  V30 4040 C 396.579 -0.400189 1.69335 0
M  V30 4041 O 397.755 -0.267215 1.99619 0
M  V30 4042 C 394.82 -0.128496 3.46462 0
M  V30 4043 C 393.881 0.865208 4.20491 0
M  V30 4044 C 393.114 0.218377 5.33253 0
M  V30 4045 O 393.337 -0.987894 5.6178 0
M  V30 4046 O 392.271 0.922845 5.94783 0
M  V30 4047 H 396.097 1.4291 2.67975 0
M  V30 4048 H 393.682 0.760326 1.28606 0
M  V30 4049 H 395.564 -0.508947 4.18315 0
M  V30 4050 H 394.239 -0.981526 3.0846 0
M  V30 4051 H 393.146 1.29658 3.50913 0
M  V30 4052 H 394.479 1.68741 4.62371 0
M  V30 4053 N 396.131 -1.37776 0.765217 0
M  V30 4054 C 397.361 -2.03828 0.337277 0
M  V30 4055 C 397.769 -1.57841 -1.04321 0
M  V30 4056 O 397.112 -0.752043 -1.67601 0
M  V30 4057 C 397.174 -3.58292 0.294407 0
M  V30 4058 C 396.838 -4.27384 1.61838 0
M  V30 4059 C 397.835 -4.51956 2.56967 0
M  V30 4060 C 395.52 -4.65345 1.89102 0
M  V30 4061 C 397.514 -5.13536 3.77571 0
M  V30 4062 C 395.201 -5.26647 3.09978 0
M  V30 4063 C 396.199 -5.50679 4.04032 0
M  V30 4064 O 395.887 -6.10702 5.2278 0
M  V30 4065 H 395.619 -0.661292 0.140248 0
M  V30 4066 H 398.173 -1.77222 1.03834 0
M  V30 4067 H 396.403 -3.83918 -0.462983 0
M  V30 4068 H 398.092 -4.05763 -0.105581 0
M  V30 4069 H 398.858 -4.23048 2.37183 0
M  V30 4070 H 394.737 -4.45978 1.16725 0
M  V30 4071 H 398.281 -5.3221 4.50997 0
M  V30 4072 H 394.178 -5.54979 3.29649 0
M  V30 4073 H 394.946 -6.29183 5.23517 0
M  V30 4074 N 397.609 -0.515225 -1.4894 0
M  V30 4075 C 398.857 0.0241671 -2.02086 0
M  V30 4076 C 399.178 1.3616 -1.3959 0
M  V30 4077 O 398.448 1.87841 -0.556121 0
M  V30 4078 H 397.028 0.0119203 -0.746905 0
M  V30 4079 H 399.69 -0.675702 -1.82812 0
M  V30 4080 H 398.786 0.143385 -3.1177 0
M  V30 4081 N 399.087 1.5561 -0.249682 0
M  V30 4082 C 400.364 1.90932 0.424761 0
M  V30 4083 C 400.744 1.17078 1.75658 0
M  V30 4084 O 400.092 0.289176 2.26663 0
M  V30 4085 C 400.302 3.43975 0.590109 0
M  V30 4086 C 401.65 4.15281 0.884714 0
M  V30 4087 O 402.674 3.49729 0.67587 0
M  V30 4088 O 401.533 5.31236 1.28259 0
M  V30 4089 H 398.627 0.794815 0.228468 0
M  V30 4090 H 401.173 1.67135 -0.293954 0
M  V30 4091 H 399.945 3.89748 -0.34818 0
M  V30 4092 H 399.568 3.73644 1.35926 0
M  V30 4093 N 400.565 -0.0233959 1.57583 0
M  V30 4094 C 401.813 -0.711654 1.89156 0
M  V30 4095 C 402.134 -1.75591 0.848096 0
M  V30 4096 O 401.404 -1.95547 -0.117566 0
M  V30 4097 H 399.984 -0.265835 0.698098 0
M  V30 4098 H 402.646 0.0119948 1.94896 0
M  V30 4099 H 401.742 -1.19766 2.88206 0
M  V30 4100 N 402.043 -1.548 -0.295768 0
M  V30 4101 C 403.292 -1.73538 -1.02798 0
M  V30 4102 C 403.605 -0.531159 -1.8825 0
M  V30 4103 O 404.811 -0.600458 -2.64777 0
M  V30 4104 C 403.267 -3.07051 -1.87744 0
M  V30 4105 C 402.875 -4.34968 -1.07269 0
M  V30 4106 C 404.619 -3.35146 -2.60533 0
M  V30 4107 C 402.526 -5.5953 -1.91521 0
M  V30 4108 H 401.456 -0.646794 -0.387522 0
M  V30 4109 H 404.107 -1.81278 -0.284718 0
M  V30 4110 H 402.489 -2.93289 -2.66078 0
M  V30 4111 H 403.663 -4.5958 -0.335117 0
M  V30 4112 H 401.978 -4.13847 -0.460384 0
M  V30 4113 H 404.575 -4.2541 -3.23929 0
M  V30 4114 H 404.918 -2.54255 -3.29636 0
M  V30 4115 H 405.451 -3.49902 -1.89244 0
M  V30 4116 H 402.19 -6.43103 -1.26878 0
M  V30 4117 H 401.71 -5.39096 -2.62937 0
M  V30 4118 H 403.389 -5.96982 -2.49442 0
M  V30 4119 O 403.56 0.441645 -1.55344 0
M  V30 4120 H 404.251 1.0953 -1.59759 0
M  V30 END ATOM
M  V30 BEGIN BOND
M  V30 END BOND
M  V30 END CTAB
M  END
$$$$
