drugbank_target|P31327 Carbamoyl-phosphate synthase [ammonia], mitochondrial (DB06775)
 OpenBabel12092120573D

  0  0  0     0  0            999 V3000
M  V30 BEGIN CTAB
M  V30 COUNTS 23288 23517 0 0 0
M  V30 BEGIN ATOM
M  V30 1 H -0.908 1.98254 -0.117106 0
M  V30 2 N 0 1.576 0 0
M  V30 3 C 0.933 2.03868 1.02534 0
M  V30 4 C 1.911 0.928543 1.3348 0
M  V30 5 O 3.095 1.19667 1.45644 0
M  V30 6 C 0.222 2.43627 2.35294 0
M  V30 7 C -0.732 3.65373 2.2001 0
M  V30 8 S 0.101 5.13292 1.52614 0
M  V30 9 C 1.257 5.56322 2.86805 0
M  V30 10 H 1.49 2.90518 0.631377 0
M  V30 11 H -0.977 1.52953 0.210867 0
M  V30 12 H 0.981 2.67203 3.11629 0
M  V30 13 H -0.358 1.57376 2.7183 0
M  V30 14 H -1.165 3.90944 3.18086 0
M  V30 15 H -1.563 3.418 1.51819 0
M  V30 16 H 0.729 5.58782 3.83104 0
M  V30 17 H 1.672 6.56266 2.65933 0
M  V30 18 H 2.08 4.83886 2.90714 0
M  V30 19 N 1.4781 -0.272755 1.55222 0
M  V30 20 C 2.7061 -1.02255 1.79865 0
M  V30 21 C 3.1211 -1.79924 0.572088 0
M  V30 22 O 2.4781 -1.76638 -0.458842 0
M  V30 23 C 2.5291 -1.98094 3.02392 0
M  V30 24 O 2.2501 -1.23572 4.20311 0
M  V30 25 C 3.7511 -2.84884 3.39641 0
M  V30 26 H 0.9711 -0.302057 0.599168 0
M  V30 27 H 3.5151 -0.303465 2.02236 0
M  V30 28 H 1.6701 -2.65465 2.82147 0
M  V30 29 H 2.0841 -1.88172 4.89583 0
M  V30 30 H 3.5581 -3.47927 4.28545 0
M  V30 31 H 4.0351 -3.54665 2.59055 0
M  V30 32 H 4.6411 -2.23003 3.62146 0
M  V30 33 N 2.9562 -1.48159 -0.537278 0
M  V30 34 C 4.3722 -1.34118 -0.865129 0
M  V30 35 C 4.5722 -0.346678 -1.98495 0
M  V30 36 O 3.6282 0.234715 -2.51407 0
M  V30 37 C 4.9412 -2.73963 -1.23954 0
M  V30 38 C 6.4892 -2.82397 -1.34984 0
M  V30 39 C 6.9642 -4.22928 -1.75772 0
M  V30 40 N 8.4552 -4.25566 -1.82887 0
M  V30 41 C 9.1902 -5.31235 -2.15817 0
M  V30 42 N 8.6862 -6.47189 -2.47222 0
M  V30 43 N 10.4792 -5.18624 -2.16761 0
M  V30 44 H 2.6302 -2.1144 0.201715 0
M  V30 45 H 4.8932 -0.947598 0.0275949 0
M  V30 46 H 4.5992 -3.48264 -0.490381 0
M  V30 47 H 4.4732 -3.0702 -2.19132 0
M  V30 48 H 6.8602 -2.08356 -2.08978 0
M  V30 49 H 6.9412 -2.5297 -0.379448 0
M  V30 50 H 6.5852 -4.97482 -1.02341 0
M  V30 51 H 6.5152 -4.49794 -2.73848 0
M  V30 52 H 9.0062 -3.41924 -1.60924 0
M  V30 53 H 9.3192 -7.23564 -2.71433 0
M  V30 54 H 7.6642 -6.50476 -2.44757 0
M  V30 55 H 10.8552 -4.27056 -1.91679 0
M  V30 56 H 11.0282 -6.01078 -2.42093 0
M  V30 57 N 4.4343 0.785586 -1.36625 0
M  V30 58 C 5.6833 1.53883 -1.30396 0
M  V30 59 C 5.9963 1.95271 0.113452 0
M  V30 60 O 7.2023 2.69858 0.298142 0
M  V30 61 C 5.6583 2.77808 -2.28802 0
M  V30 62 C 5.2663 2.43574 -3.75999 0
M  V30 63 C 7.0103 3.55783 -2.31558 0
M  V30 64 C 4.9173 3.63919 -4.66173 0
M  V30 65 H 3.8473 0.577678 -0.484566 0
M  V30 66 H 6.4983 0.861705 -1.62009 0
M  V30 67 H 4.8803 3.47339 -1.90188 0
M  V30 68 H 6.0543 1.81916 -4.23371 0
M  V30 69 H 4.3693 1.78803 -3.76056 0
M  V30 70 H 6.9663 4.45205 -2.96137 0
M  V30 71 H 7.3093 3.94644 -1.3252 0
M  V30 72 H 7.8423 2.93235 -2.68809 0
M  V30 73 H 4.5813 3.3015 -5.66287 0
M  V30 74 H 4.1013 4.2473 -4.23515 0
M  V30 75 H 5.7803 4.30901 -4.82632 0
M  V30 76 N 5.9124 1.20967 1.01018 0
M  V30 77 C 6.8424 0.988272 2.11555 0
M  V30 78 C 7.8234 -0.0849778 1.69888 0
M  V30 79 O 9.0084 0.0738202 1.9406 0
M  V30 80 C 6.1384 0.546528 3.42973 0
M  V30 81 C 5.0924 1.56375 3.9841 0
M  V30 82 C 4.4184 0.97842 5.25672 0
M  V30 83 C 5.7184 2.94922 4.31066 0
M  V30 84 H 7.4124 1.91276 2.30334 0
M  V30 85 H 4.9584 0.921073 1.1069 0
M  V30 86 H 6.9114 0.378839 4.19694 0
M  V30 87 H 5.6354 -0.413598 3.23971 0
M  V30 88 H 4.2944 1.71891 3.23804 0
M  V30 89 H 3.9424 0.0101688 5.02999 0
M  V30 90 H 3.6424 1.65784 5.63728 0
M  V30 91 H 5.1664 0.821939 6.05043 0
M  V30 92 H 6.5804 2.8288 4.9865 0
M  V30 93 H 4.9774 3.5983 4.80253 0
M  V30 94 H 6.0474 3.4616 3.39561 0
M  V30 95 N 7.3905 -1.2043 1.01659 0
M  V30 96 C 8.6185 -1.93777 0.725132 0
M  V30 97 C 9.0335 -1.74772 -0.714166 0
M  V30 98 O 8.3905 -1.06169 -1.4844 0
M  V30 99 C 8.4415 -3.45876 1.05129 0
M  V30 100 O 8.1625 -3.6426 2.43406 0
M  V30 101 C 9.6635 -4.36368 0.780891 0
M  V30 102 H 6.8835 -0.615901 0.266284 0
M  V30 103 H 9.4275 -1.52922 1.35776 0
M  V30 104 H 7.5825 -3.8461 0.464065 0
M  V30 105 H 7.9965 -4.58246 2.55169 0
M  V30 106 H 9.4705 -5.41743 1.05918 0
M  V30 107 H 9.9475 -4.38275 -0.284937 0
M  V30 108 H 10.5535 -4.03296 1.35027 0
M  V30 109 N 8.8686 -0.792821 -1.36206 0
M  V30 110 C 9.8316 -0.199459 -2.2833 0
M  V30 111 C 10.8316 0.605189 -1.48977 0
M  V30 112 O 12.0216 0.425685 -1.68919 0
M  V30 113 C 9.1536 0.723523 -3.33134 0
M  V30 114 H 10.3466 -1.01181 -2.82316 0
M  V30 115 H 7.8996 -0.562485 -1.45828 0
M  V30 116 H 8.6346 1.56008 -2.84309 0
M  V30 117 H 8.4196 0.148436 -3.91819 0
M  V30 118 H 9.9096 1.13344 -4.01924 0
M  V30 119 N 10.3467 1.47872 -0.545128 0
M  V30 120 C 11.5937 2.02493 -0.0165858 0
M  V30 121 C 11.9217 1.42073 1.32836 0
M  V30 122 O 11.1767 0.561459 1.87473 0
M  V30 123 C 11.4757 3.57131 0.13867 0
M  V30 124 C 11.1417 4.36411 -1.13384 0
M  V30 125 C 9.8037 4.57792 -1.48256 0
M  V30 126 C 12.1557 4.82223 -1.97764 0
M  V30 127 C 9.4837 5.22233 -2.67376 0
M  V30 128 C 11.8357 5.47977 -3.16076 0
M  V30 129 C 10.4997 5.67593 -3.51275 0
M  V30 130 H 9.7697 0.740975 -0.00606918 0
M  V30 131 H 12.4167 1.77683 -0.714207 0
M  V30 132 H 10.7217 3.80865 0.919172 0
M  V30 133 H 12.4187 3.97031 0.562782 0
M  V30 134 H 9.0087 4.2004 -0.852297 0
M  V30 135 H 13.1927 4.65493 -1.72132 0
M  V30 136 H 8.4487 5.35616 -2.94831 0
M  V30 137 H 12.6227 5.8244 -3.81755 0
M  V30 138 H 10.2497 6.17298 -4.43675 0
M  V30 139 N 11.8248 0.280983 1.55075 0
M  V30 140 C 12.7718 -0.603937 2.22758 0
M  V30 141 C 13.7418 -1.1452 1.20309 0
M  V30 142 O 14.9268 -1.19343 1.48869 0
M  V30 143 C 12.0668 -1.77947 2.95684 0
M  V30 144 C 11.1798 -1.2715 4.12864 0
M  V30 145 C 10.3148 -2.4093 4.7342 0
M  V30 146 C 9.3538 -1.87165 5.82783 0
M  V30 147 N 8.4908 -2.94441 6.37377 0
M  V30 148 H 13.3308 -0.020124 2.97993 0
M  V30 149 H 10.8678 0.00183425 1.471 0
M  V30 150 H 12.8258 -2.47055 3.36184 0
M  V30 151 H 11.4558 -2.33522 2.22861 0
M  V30 152 H 10.5078 -0.473331 3.77444 0
M  V30 153 H 11.8198 -0.837751 4.91715 0
M  V30 154 H 10.9738 -3.18021 5.1667 0
M  V30 155 H 9.7128 -2.87623 3.93859 0
M  V30 156 H 8.7178 -1.08556 5.38976 0
M  V30 157 H 9.9428 -1.41401 6.64216 0
M  V30 158 H 7.8888 -3.40505 5.60707 0
M  V30 159 H 7.8058 -2.55501 7.11516 0
M  V30 160 H 9.0738 -3.71489 6.85285 0
M  V30 161 N 13.3029 -1.57598 0.00835791 0
M  V30 162 C 14.5489 -1.91211 -0.675732 0
M  V30 163 C 14.8819 -0.883139 -1.72958 0
M  V30 164 O 14.1569 0.097016 -1.94258 0
M  V30 165 C 14.4399 -3.35379 -1.31123 0
M  V30 166 C 14.2929 -4.48999 -0.268356 0
M  V30 167 C 15.6119 -3.7912 -2.23508 0
M  V30 168 H 12.7309 -0.695374 -0.244179 0
M  V30 169 H 15.3729 -1.89901 0.0613655 0
M  V30 170 H 13.5229 -3.36626 -1.93946 0
M  V30 171 H 15.1949 -4.59887 0.360844 0
M  V30 172 H 13.4379 -4.31873 0.408482 0
M  V30 173 H 14.1089 -5.46851 -0.752218 0
M  V30 174 H 16.5849 -3.79477 -1.70693 0
M  V30 175 H 15.4609 -4.80729 -2.64936 0
M  V30 176 H 15.7219 -3.13455 -3.11766 0
M  V30 177 N 14.781 0.264519 -1.55364 0
M  V30 178 C 16.027 0.99646 -1.76631 0
M  V30 179 C 16.36 1.85632 -0.570478 0
M  V30 180 O 15.635 1.89647 0.43175 0
M  V30 181 C 15.918 1.87187 -3.07625 0
M  V30 182 C 15.771 1.04138 -4.37579 0
M  V30 183 C 17.09 2.85749 -3.34717 0
M  V30 184 H 14.209 0.360841 -0.642622 0
M  V30 185 H 16.851 0.268218 -1.88097 0
M  V30 186 H 15.001 2.49279 -2.9798 0
M  V30 187 H 16.673 0.440517 -4.59192 0
M  V30 188 H 14.916 0.345115 -4.32425 0
M  V30 189 H 15.587 1.68729 -5.2558 0
M  V30 190 H 18.063 2.33793 -3.4421 0
M  V30 191 H 16.939 3.44136 -4.27623 0
M  V30 192 H 17.2 3.61311 -2.54768 0
M  V30 193 N 16.2591 1.48442 0.529413 0
M  V30 194 C 17.6751 1.34575 0.858004 0
M  V30 195 C 17.8751 0.3572 1.98309 0
M  V30 196 O 16.9311 -0.221379 2.51528 0
M  V30 197 C 18.2441 2.74617 1.22499 0
M  V30 198 C 19.7921 2.83109 1.33484 0
M  V30 199 C 20.2671 4.23854 1.73526 0
M  V30 200 N 21.7581 4.2653 1.80628 0
M  V30 201 C 22.4931 5.32372 2.12997 0
M  V30 202 N 21.9891 6.48491 2.43786 0
M  V30 203 N 23.7821 5.19766 2.14008 0
M  V30 204 H 15.9331 2.1133 -0.212925 0
M  V30 205 H 18.1961 0.947439 -0.0326199 0
M  V30 206 H 17.9021 3.4852 0.471905 0
M  V30 207 H 17.7761 3.08177 2.17501 0
M  V30 208 H 20.1631 2.09462 2.0787 0
M  V30 209 H 20.2441 2.53168 0.366027 0
M  V30 210 H 19.8881 4.98018 0.997013 0
M  V30 211 H 19.8181 4.5124 2.71459 0
M  V30 212 H 22.3091 3.42772 1.59108 0
M  V30 213 H 22.6221 7.24993 2.67592 0
M  V30 214 H 20.9671 6.51765 2.41304 0
M  V30 215 H 24.1581 4.28066 1.89412 0
M  V30 216 H 24.3311 6.02354 2.38902 0
M  V30 217 N 17.7372 -0.778329 1.37039 0
M  V30 218 C 18.9652 -1.56734 1.35063 0
M  V30 219 C 19.3802 -1.88686 -0.0655597 0
M  V30 220 O 18.7372 -1.5096 -1.02554 0
M  V30 221 C 18.7882 -2.88163 2.18276 0
M  V30 222 O 18.5092 -2.57583 3.54376 0
M  V30 223 C 20.0102 -3.82422 2.24206 0
M  V30 224 H 17.2302 -0.485778 0.462883 0
M  V30 225 H 19.7742 -0.965185 1.8029 0
M  V30 226 H 17.9292 -3.44818 1.76576 0
M  V30 227 H 18.3432 -3.41699 3.97922 0
M  V30 228 H 19.8172 -4.71667 2.86765 0
M  V30 229 H 20.2942 -4.21078 1.24861 0
M  V30 230 H 20.9002 -3.31697 2.6619 0
M  V30 231 N 19.2153 -1.21501 -1.00376 0
M  V30 232 C 20.1453 -0.999478 -2.11028 0
M  V30 233 C 21.1263 0.0759671 -1.6993 0
M  V30 234 O 22.3113 -0.0841106 -1.94018 0
M  V30 235 C 19.4413 -0.564709 -3.42678 0
M  V30 236 C 18.3953 -1.58486 -3.97576 0
M  V30 237 C 17.7213 -1.00628 -5.25146 0
M  V30 238 C 19.0213 -2.97204 -4.29496 0
M  V30 239 H 20.7153 -1.92495 -2.29317 0
M  V30 240 H 18.2613 -0.92693 -1.102 0
M  V30 241 H 20.2143 -0.401091 -4.19487 0
M  V30 242 H 18.9383 0.396411 -3.24185 0
M  V30 243 H 17.5973 -1.73606 -3.22888 0
M  V30 244 H 17.2453 -0.0368439 -5.02987 0
M  V30 245 H 16.9453 -1.68771 -5.62841 0
M  V30 246 H 18.4693 -0.854015 -6.04598 0
M  V30 247 H 19.8833 -2.8552 -4.97143 0
M  V30 248 H 18.2803 -3.62372 -4.78338 0
M  V30 249 H 19.3503 -3.47956 -3.3772 0
M  V30 250 N 20.6934 1.19889 -1.02296 0
M  V30 251 C 21.6404 2.22901 -0.598651 0
M  V30 252 C 22.6104 1.61588 0.384521 0
M  V30 253 O 23.7954 1.88697 0.282522 0
M  V30 254 C 20.9354 3.45063 0.0504476 0
M  V30 255 C 20.0484 4.20783 -0.978053 0
M  V30 256 C 19.1834 5.30356 -0.299338 0
M  V30 257 C 18.2224 5.97826 -1.31416 0
M  V30 258 N 17.3594 6.98975 -0.661667 0
M  V30 259 H 22.1994 2.58554 -1.48169 0
M  V30 260 H 19.7364 1.27039 -0.741584 0
M  V30 261 H 21.6944 4.14831 0.443971 0
M  V30 262 H 20.3244 3.10084 0.897097 0
M  V30 263 H 19.3764 3.50018 -1.48969 0
M  V30 264 H 20.6884 4.67109 -1.74958 0
M  V30 265 H 19.8424 6.06516 0.149347 0
M  V30 266 H 18.5814 4.85084 0.504445 0
M  V30 267 H 17.5864 5.20422 -1.77317 0
M  V30 268 H 18.8114 6.45183 -2.11933 0
M  V30 269 H 16.7574 6.55886 0.122132 0
M  V30 270 H 16.6744 7.43461 -1.37117 0
M  V30 271 H 17.9424 7.7914 -0.236785 0
M  V30 272 N 22.1715 0.800033 1.35784 0
M  V30 273 C 23.3995 0.389606 2.03199 0
M  V30 274 C 23.8145 -0.997375 1.60306 0
M  V30 275 O 23.1715 -1.64154 0.797481 0
M  V30 276 C 23.2225 0.455855 3.58614 0
M  V30 277 O 22.9435 1.78815 3.99946 0
M  V30 278 C 24.4445 0.0374032 4.43284 0
M  V30 279 H 21.6645 0.159132 0.651857 0
M  V30 280 H 24.2085 1.08183 1.73541 0
M  V30 281 H 22.3635 -0.188057 3.86943 0
M  V30 282 H 22.7775 1.74636 4.94573 0
M  V30 283 H 24.2515 0.134882 5.51835 0
M  V30 284 H 24.7285 -1.01651 4.27275 0
M  V30 285 H 25.3345 0.654215 4.20238 0
M  V30 286 N 23.6496 -1.47581 0.552962 0
M  V30 287 C 24.8976 -2.02082 0.0272703 0
M  V30 288 C 25.2186 -1.4301 -1.32563 0
M  V30 289 O 24.4886 -0.603745 -1.86365 0
M  V30 290 H 23.0686 -0.746966 0.00709182 0
M  V30 291 H 25.7306 -1.81033 0.722008 0
M  V30 292 H 24.8266 -3.12034 -0.0639951 0
M  V30 293 N 25.1277 -0.289203 -1.54924 0
M  V30 294 C 26.3747 0.323519 -1.99899 0
M  V30 295 C 26.7027 1.54797 -1.17762 0
M  V30 296 O 25.9577 1.94237 -0.238835 0
M  V30 297 C 26.2567 0.736119 -3.49737 0
M  V30 298 C 25.9227 -0.385276 -4.49251 0
M  V30 299 C 24.5847 -0.693156 -4.76181 0
M  V30 300 C 26.9367 -1.14021 -5.08575 0
M  V30 301 C 24.2647 -1.7593 -5.59701 0
M  V30 302 C 26.6167 -2.19619 -5.93254 0
M  V30 303 C 25.2807 -2.51026 -6.185 0
M  V30 304 H 24.5507 0.118384 -0.731482 0
M  V30 305 H 27.1977 -0.405847 -1.8715 0
M  V30 306 H 25.5027 1.54539 -3.60035 0
M  V30 307 H 27.1997 1.22118 -3.81953 0
M  V30 308 H 23.7897 -0.135202 -4.28387 0
M  V30 309 H 27.9737 -0.915611 -4.87781 0
M  V30 310 H 23.2297 -2.0075 -5.77503 0
M  V30 311 H 27.4037 -2.78581 -6.38252 0
M  V30 312 H 25.0307 -3.33772 -6.83008 0
M  V30 313 N 26.6058 1.57591 -0.0167156 0
M  V30 314 C 27.8538 1.90906 0.663285 0
M  V30 315 C 28.1748 0.892509 1.73376 0
M  V30 316 O 27.4448 -0.0677623 1.95783 0
M  V30 317 H 26.0248 0.704637 0.247983 0
M  V30 318 H 28.6868 1.94803 -0.0615909 0
M  V30 319 H 27.7828 2.9116 1.12393 0
M  V30 320 N 28.0839 -0.256276 1.55502 0
M  V30 321 C 29.3309 -0.985619 1.76895 0
M  V30 322 C 29.6589 -1.85671 0.579355 0
M  V30 323 O 28.9139 -1.90744 -0.437651 0
M  V30 324 C 29.2129 -1.88432 3.03691 0
M  V30 325 C 28.8789 -1.16936 4.35473 0
M  V30 326 C 27.5409 -0.97173 4.71286 0
M  V30 327 C 29.8929 -0.661889 5.1698 0
M  V30 328 C 27.2209 -0.254179 5.86149 0
M  V30 329 C 29.5729 0.042149 6.32586 0
M  V30 330 C 28.2369 0.25134 6.67027 0
M  V30 331 H 27.5069 -0.360663 0.647304 0
M  V30 332 H 30.1539 -0.256483 1.89775 0
M  V30 333 H 28.4589 -2.68021 2.85783 0
M  V30 334 H 30.1559 -2.45015 3.1744 0
M  V30 335 H 26.7459 -1.33332 4.07333 0
M  V30 336 H 30.9299 -0.802145 4.89775 0
M  V30 337 H 26.1859 -0.0815408 6.11346 0
M  V30 338 H 30.3599 0.443049 6.94989 0
M  V30 339 H 27.9869 0.809314 7.5588 0
M  V30 340 N 29.562 -1.4872 -0.521534 0
M  V30 341 C 30.79 -1.60843 -1.30142 0
M  V30 342 C 31.205 -0.271897 -1.86832 0
M  V30 343 O 30.562 0.739969 -1.66825 0
M  V30 344 C 30.613 -2.66155 -2.4463 0
M  V30 345 O 30.334 -3.94623 -1.90275 0
M  V30 346 C 31.835 -2.88795 -3.36322 0
M  V30 347 H 29.055 -0.542075 -0.395468 0
M  V30 348 H 31.599 -1.94609 -0.628285 0
M  V30 349 H 29.754 -2.35224 -3.07812 0
M  V30 350 H 30.168 -4.52468 -2.65279 0
M  V30 351 H 31.642 -3.66264 -4.12983 0
M  V30 352 H 32.119 -1.97934 -3.9207 0
M  V30 353 H 32.725 -3.21063 -2.78924 0
M  V30 354 N 31.0401 0.771051 -1.3745 0
M  V30 355 C 31.9881 1.90574 -1.33358 0
M  V30 356 C 32.9821 1.67936 -0.22224 0
M  V30 357 O 34.1881 1.75717 -0.390304 0
M  V30 358 H 30.5631 0.626714 -0.415612 0
M  V30 359 H 32.5341 1.91142 -2.29144 0
M  V30 360 C 31.2831 3.27845 -1.15813 0
M  V30 361 H 30.6061 3.45842 -2.00583 0
M  V30 362 H 32.0461 4.07538 -1.17 0
M  V30 363 C 30.5051 3.36625 0.136165 0
M  V30 364 O 31.0351 3.85785 1.11949 0
M  V30 365 N 29.2411 2.89997 0.187099 0
M  V30 366 H 28.7881 2.50182 -0.613753 0
M  V30 367 H 28.7461 2.96252 1.05272 0
M  V30 368 N 32.5182 1.22032 0.997298 0
M  V30 369 C 33.7642 1.04376 1.73878 0
M  V30 370 C 34.0972 -0.420716 1.89588 0
M  V30 371 O 33.3722 -1.31202 1.43583 0
M  V30 372 C 33.6552 1.75047 3.14691 0
M  V30 373 C 33.5082 3.29062 3.06656 0
M  V30 374 C 34.8272 1.49928 4.13775 0
M  V30 375 H 31.9462 0.380578 0.631133 0
M  V30 376 H 34.5882 1.50312 1.16217 0
M  V30 377 H 32.7382 1.35996 3.63919 0
M  V30 378 H 34.4102 3.7753 2.65083 0
M  V30 379 H 32.6532 3.58967 2.43568 0
M  V30 380 H 33.3242 3.73683 4.06282 0
M  V30 381 H 35.8002 1.83842 3.73285 0
M  V30 382 H 34.6762 2.01878 5.10428 0
M  V30 383 H 34.9372 0.430929 4.39995 0
M  V30 384 N 33.9963 -1.19345 1.0293 0
M  V30 385 C 35.2243 -1.92997 0.745644 0
M  V30 386 C 35.6393 -1.75519 -0.695589 0
M  V30 387 O 34.9963 -1.07737 -1.47306 0
M  V30 388 C 35.0473 -3.44741 1.08792 0
M  V30 389 O 34.7683 -3.61658 2.47256 0
M  V30 390 C 36.2693 -4.35515 0.827129 0
M  V30 391 H 33.4893 -0.613042 0.272801 0
M  V30 392 H 36.0333 -1.51473 1.3739 0
M  V30 393 H 34.1883 -3.84097 0.504832 0
M  V30 394 H 34.6023 -4.55514 2.60015 0
M  V30 395 H 36.0763 -5.40589 1.11658 0
M  V30 396 H 36.5533 -4.38552 -0.238436 0
M  V30 397 H 37.1593 -4.01841 1.39297 0
M  V30 398 N 35.4744 -0.807222 -1.35358 0
M  V30 399 C 36.4374 -0.223665 -2.28106 0
M  V30 400 C 37.4374 0.589354 -1.4961 0
M  V30 401 O 38.6274 0.407745 -1.69361 0
M  V30 402 C 35.7594 0.688149 -3.33882 0
M  V30 403 H 36.9524 -1.04169 -2.81227 0
M  V30 404 H 34.5054 -0.577921 -1.45223 0
M  V30 405 H 35.2404 1.52984 -2.85948 0
M  V30 406 H 35.0254 0.10687 -3.91954 0
M  V30 407 H 36.5154 1.09075 -4.03104 0
M  V30 408 N 36.9525 1.47285 -0.560781 0
M  V30 409 C 37.9025 2.27073 0.205384 0
M  V30 410 C 38.8865 1.34569 0.882044 0
M  V30 411 O 40.0785 1.58899 0.77976 0
M  V30 412 C 37.2075 3.20414 1.23247 0
M  V30 413 C 36.2935 4.20399 0.559041 0
M  V30 414 N 36.6845 5.04423 -0.372927 0
M  V30 415 C 34.9825 4.38536 0.812522 0
M  V30 416 C 35.6835 5.76655 -0.764446 0
M  V30 417 N 34.6595 5.43471 -0.11848 0
M  V30 418 H 38.4615 2.89422 -0.511117 0
M  V30 419 H 35.9755 1.57868 -0.380975 0
M  V30 420 H 37.9725 3.76262 1.79534 0
M  V30 421 H 36.6325 2.59623 1.95002 0
M  V30 422 H 37.6435 5.1248 -0.747287 0
M  V30 423 H 34.3205 3.88913 1.51832 0
M  V30 424 H 35.7105 6.54238 -1.53045 0
M  V30 425 N 38.4306 0.297415 1.54768 0
M  V30 426 C 39.3626 -0.613881 2.20826 0
M  V30 427 C 40.3756 -1.10032 1.19987 0
M  V30 428 O 41.5646 -1.01839 1.46598 0
M  V30 429 C 38.6646 -1.852 2.83821 0
M  V30 430 C 37.8376 -1.50865 4.10559 0
M  V30 431 C 36.8966 -2.60154 4.57391 0
M  V30 432 O 35.9226 -2.25398 5.2267 0
M  V30 433 N 37.1246 -3.90629 4.29406 0
M  V30 434 H 39.8896 -0.048389 2.99661 0
M  V30 435 H 37.4506 0.11946 1.61459 0
M  V30 436 H 39.4426 -2.57652 3.12086 0
M  V30 437 H 38.0126 -2.32597 2.08847 0
M  V30 438 H 37.2326 -0.616925 3.89343 0
M  V30 439 H 38.5206 -1.25458 4.9309 0
M  V30 440 H 37.9186 -4.21677 3.77101 0
M  V30 441 H 36.4756 -4.59391 4.62388 0
M  V30 442 N 39.9087 -1.5758 0.0250728 0
M  V30 443 C 40.8557 -2.09973 -0.958129 0
M  V30 444 C 41.8257 -1.00085 -1.3256 0
M  V30 445 O 43.0107 -1.27481 -1.41962 0
M  V30 446 C 40.1507 -2.62812 -2.2366 0
M  V30 447 C 39.2637 -3.86693 -1.92594 0
M  V30 448 C 38.3987 -4.27941 -3.14707 0
M  V30 449 C 37.4377 -5.44591 -2.79442 0
M  V30 450 N 36.5747 -5.81014 -3.94167 0
M  V30 451 H 41.4147 -2.937 -0.504428 0
M  V30 452 H 38.9517 -1.45172 -0.237392 0
M  V30 453 H 40.9097 -2.91536 -2.98434 0
M  V30 454 H 39.5397 -1.81922 -2.66654 0
M  V30 455 H 38.5917 -3.64723 -1.0808 0
M  V30 456 H 39.9037 -4.71547 -1.62619 0
M  V30 457 H 39.0577 -4.58079 -3.97804 0
M  V30 458 H 37.7967 -3.41845 -3.4784 0
M  V30 459 H 36.8017 -5.1415 -1.94755 0
M  V30 460 H 38.0267 -6.32382 -2.47528 0
M  V30 461 H 35.9727 -4.97874 -4.2715 0
M  V30 462 H 35.8897 -6.60498 -3.67801 0
M  V30 463 H 37.1577 -6.15756 -4.7798 0
M  V30 464 N 41.3868 0.248026 -1.55636 0
M  V30 465 C 42.6328 0.973427 -1.78594 0
M  V30 466 C 42.9878 1.83007 -0.593823 0
M  V30 467 O 42.2808 1.87097 0.412961 0
M  V30 468 C 42.4748 1.86819 -3.04686 0
M  V30 469 C 42.3038 1.09965 -4.36048 0
M  V30 470 C 41.0738 0.805204 -4.98843 0
M  V30 471 C 43.2718 0.477783 -5.12076 0
M  V30 472 N 41.2538 0.0124859 -6.13899 0
M  V30 473 C 42.6248 -0.179565 -6.1974 0
M  V30 474 C 44.6798 0.388136 -4.96385 0
M  V30 475 C 43.3828 -0.91795 -7.13419 0
M  V30 476 C 45.4088 -0.336716 -5.90441 0
M  V30 477 C 44.7708 -0.982705 -6.97511 0
M  V30 478 H 40.8698 0.337348 -0.705493 0
M  V30 479 H 43.4538 0.24667 -1.93131 0
M  V30 480 H 41.6248 2.56698 -2.9148 0
M  V30 481 H 43.3568 2.52907 -3.15944 0
M  V30 482 H 40.1118 1.11671 -4.60246 0
M  V30 483 H 40.5358 -0.371933 -6.75978 0
M  V30 484 H 45.1778 0.873237 -4.13684 0
M  V30 485 H 42.8958 -1.41466 -7.95621 0
M  V30 486 H 46.4818 -0.406731 -5.80377 0
M  V30 487 H 45.3618 -1.53464 -7.69037 0
M  V30 488 N 42.8649 1.48995 0.513639 0
M  V30 489 C 43.8119 1.6473 1.61656 0
M  V30 490 C 44.7819 0.488984 1.58739 0
M  V30 491 O 45.9669 0.714478 1.76918 0
M  V30 492 C 43.1069 1.7082 2.99858 0
M  V30 493 C 42.2199 2.9787 3.12885 0
M  V30 494 C 41.3549 2.95017 4.41744 0
M  V30 495 C 40.3939 4.16702 4.48359 0
M  V30 496 N 39.5309 4.11832 5.68629 0
M  V30 497 H 44.3709 2.58909 1.47547 0
M  V30 498 H 41.9079 1.28382 0.71808 0
M  V30 499 H 43.8659 1.72331 3.79944 0
M  V30 500 H 42.4959 0.801181 3.12699 0
M  V30 501 H 41.5479 3.06029 2.25944 0
M  V30 502 H 42.8599 3.8786 3.13633 0
M  V30 503 H 42.0139 2.95021 5.30139 0
M  V30 504 H 40.7529 2.02784 4.43542 0
M  V30 505 H 39.7579 4.16955 3.58369 0
M  V30 506 H 40.9829 5.10113 4.48287 0
M  V30 507 H 38.9289 3.22428 5.71293 0
M  V30 508 H 38.8459 4.95543 5.7094 0
M  V30 509 H 40.1139 4.1592 6.59266 0
M  V30 510 N 44.343 -0.763751 1.37857 0
M  V30 511 C 45.59 -1.52257 1.33506 0
M  V30 512 C 45.918 -1.94343 -0.078022 0
M  V30 513 O 45.173 -1.64958 -1.05297 0
M  V30 514 C 45.472 -2.79499 2.22745 0
M  V30 515 C 45.138 -2.56426 3.70886 0
M  V30 516 C 43.8 -2.49842 4.11257 0
M  V30 517 C 46.152 -2.36008 4.64704 0
M  V30 518 C 43.48 -2.20841 5.43549 0
M  V30 519 C 45.832 -2.0853 5.97242 0
M  V30 520 C 44.496 -2.00396 6.36709 0
M  V30 521 H 43.766 -0.557149 0.488534 0
M  V30 522 H 46.413 -0.879073 1.70131 0
M  V30 523 H 44.718 -3.48447 1.79142 0
M  V30 524 H 46.415 -3.37413 2.16688 0
M  V30 525 H 43.005 -2.62416 3.38874 0
M  V30 526 H 47.189 -2.40079 4.34368 0
M  V30 527 H 42.445 -2.13045 5.73081 0
M  V30 528 H 46.619 -1.91732 6.69486 0
M  V30 529 H 44.246 -1.77688 7.39142 0
M  V30 530 N 45.8211 -1.22559 -0.990812 0
M  V30 531 C 47.0461 -1.07862 -1.77145 0
M  V30 532 C 47.4711 0.366447 -1.84496 0
M  V30 533 O 46.8291 1.26478 -1.29896 0
M  V30 534 C 46.8771 -1.69686 -3.18181 0
M  V30 535 O 45.9811 -0.951946 -4.01263 0
M  V30 536 H 45.3221 -0.378712 -0.545411 0
M  V30 537 H 47.8521 -1.62399 -1.2445 0
M  V30 538 H 47.8621 -1.74496 -3.68802 0
M  V30 539 H 46.5371 -2.74841 -3.12146 0
M  V30 540 H 45.1141 -0.980011 -3.59792 0
M  V30 541 N 47.2992 1.18797 -1.03562 0
M  V30 542 C 48.7152 1.40671 -0.753917 0
M  V30 543 C 48.9152 1.9043 0.658686 0
M  V30 544 O 47.9712 2.08538 1.42366 0
M  V30 545 C 49.2842 2.41192 -1.79574 0
M  V30 546 C 50.8322 2.54928 -1.81606 0
M  V30 547 C 51.3072 3.58709 -2.84766 0
M  V30 548 N 52.7982 3.66212 -2.83625 0
M  V30 549 C 53.5332 4.46225 -3.60098 0
M  V30 550 N 53.0292 5.29888 -4.46308 0
M  V30 551 N 54.8222 4.40939 -3.4861 0
M  V30 552 H 46.9732 0.848221 -1.94728 0
M  V30 553 H 49.2362 0.435081 -0.842264 0
M  V30 554 H 48.9422 2.11669 -2.80872 0
M  V30 555 H 48.8162 3.40467 -1.62365 0
M  V30 556 H 51.2032 2.83771 -0.809817 0
M  V30 557 H 51.2842 1.55784 -2.02891 0
M  V30 558 H 50.9282 3.30607 -3.85566 0
M  V30 559 H 50.8582 4.57519 -2.60737 0
M  V30 560 H 53.3492 3.06466 -2.21105 0
M  V30 561 H 53.6622 5.88078 -5.01382 0
M  V30 562 H 52.0072 5.29326 -4.50377 0
M  V30 563 H 55.1982 3.74624 -2.80668 0
M  V30 564 H 55.3712 5.03056 -4.08459 0
M  V30 565 N 48.7773 0.814389 1.34928 0
M  V30 566 C 50.1883 0.458364 1.80986 0
M  V30 567 C 50.5393 -1.02042 1.67577 0
M  V30 568 O 49.6643 -1.79352 1.21086 0
M  V30 569 C 50.2593 0.825212 3.28597 0
M  V30 570 C 48.8183 0.521677 3.72767 0
M  V30 571 C 47.9653 1.04668 2.56788 0
M  V30 572 H 50.9163 1.00533 1.22795 0
M  V30 573 H 50.9373 0.12571 3.80292 0
M  V30 574 H 50.4493 1.90154 3.38324 0
M  V30 575 H 48.5503 -0.545589 3.68584 0
M  V30 576 H 48.6633 1.05977 4.67232 0
M  V30 577 H 47.0273 0.468622 2.50352 0
M  V30 578 H 47.8103 2.12927 2.6929 0
M  V30 579 N 50.2554 -1.46986 0.568584 0
M  V30 580 C 51.5034 -2.02041 0.0487022 0
M  V30 581 C 51.8244 -1.44408 -1.31039 0
M  V30 582 O 51.0944 -0.623477 -1.85714 0
M  V30 583 H 49.6744 -0.746849 0.015014 0
M  V30 584 H 52.3364 -1.80257 0.741168 0
M  V30 585 H 51.4324 -3.12085 -0.0308961 0
M  V30 586 N 51.7335 -0.305618 -1.54608 0
M  V30 587 C 52.9825 0.303098 -1.9941 0
M  V30 588 C 53.2955 1.54648 -1.19764 0
M  V30 589 O 54.5015 2.23007 -1.54855 0
M  V30 590 C 52.9575 0.590588 -3.55021 0
M  V30 591 C 52.5655 -0.634719 -4.43481 0
M  V30 592 C 54.3095 1.16025 -4.08336 0
M  V30 593 C 52.2165 -0.320126 -5.90533 0
M  V30 594 H 51.1465 0.117031 -0.744862 0
M  V30 595 H 53.7975 -0.415045 -1.78745 0
M  V30 596 H 52.1795 1.36845 -3.71604 0
M  V30 597 H 53.3535 -1.41079 -4.38672 0
M  V30 598 H 51.6685 -1.12333 -4.00962 0
M  V30 599 H 54.2655 1.40994 -5.15776 0
M  V30 600 H 54.6085 2.10397 -3.5922 0
M  V30 601 H 55.1415 0.443985 -3.95315 0
M  V30 602 H 51.8805 -1.23254 -6.43808 0
M  V30 603 H 51.4005 0.418579 -5.98338 0
M  V30 604 H 53.0795 0.0766241 -6.46955 0
M  V30 605 N 53.2116 1.57565 -0.0334293 0
M  V30 606 C 54.6276 1.56297 0.322997 0
M  V30 607 C 54.8276 1.03945 1.7262 0
M  V30 608 O 53.8836 0.688109 2.42943 0
M  V30 609 C 55.1966 3.00232 0.167664 0
M  V30 610 C 56.7446 3.12078 0.240107 0
M  V30 611 C 57.2196 4.57859 0.113513 0
M  V30 612 N 58.7106 4.62887 0.170359 0
M  V30 613 C 59.4456 5.73319 0.0962517 0
M  V30 614 N 58.9416 6.92794 -0.0291881 0
M  V30 615 N 60.7346 5.61898 0.150551 0
M  V30 616 H 52.8856 1.89923 -0.950956 0
M  V30 617 H 55.1486 0.873824 -0.367608 0
M  V30 618 H 54.8546 3.42501 -0.799102 0
M  V30 619 H 54.7286 3.654 0.936083 0
M  V30 620 H 57.1156 2.69718 1.19733 0
M  V30 621 H 57.1966 2.49623 -0.558763 0
M  V30 622 H 56.8406 5.009 -0.840314 0
M  V30 623 H 56.7706 5.18299 0.931302 0
M  V30 624 H 59.2616 3.76954 0.26728 0
M  V30 625 H 59.5746 7.7276 -0.0789252 0
M  V30 626 H 57.9196 6.94971 -0.0640299 0
M  V30 627 H 61.1106 4.67448 0.246981 0
M  V30 628 H 61.2836 6.47938 0.0893365 0
M  V30 629 N 54.6897 -0.239769 1.55765 0
M  V30 630 C 55.6197 -1.30052 1.9393 0
M  V30 631 C 56.6007 -1.49839 0.805132 0
M  V30 632 O 57.7857 -1.62328 1.06599 0
M  V30 633 C 54.9157 -2.65391 2.2402 0
M  V30 634 C 53.8697 -2.60289 3.39755 0
M  V30 635 C 53.1957 -3.99489 3.55405 0
M  V30 636 C 54.4957 -2.16654 4.75246 0
M  V30 637 H 56.1897 -0.983573 2.82783 0
M  V30 638 H 53.7357 -0.471701 1.36055 0
M  V30 639 H 55.6887 -3.3974 2.49308 0
M  V30 640 H 54.4127 -2.98736 1.32 0
M  V30 641 H 53.0717 -1.88398 3.14487 0
M  V30 642 H 52.7197 -4.30112 2.60793 0
M  V30 643 H 52.4197 -3.96962 4.33238 0
M  V30 644 H 53.9437 -4.75528 3.83022 0
M  V30 645 H 55.3577 -2.80737 4.99859 0
M  V30 646 H 53.7547 -2.25223 5.56232 0
M  V30 647 H 54.8247 -1.11835 4.71827 0
M  V30 648 N 56.1678 -1.49265 -0.50573 0
M  V30 649 C 57.0978 -1.68495 -1.61653 0
M  V30 650 C 58.0788 -0.53366 -1.61512 0
M  V30 651 O 59.2638 -0.76897 -1.78327 0
M  V30 652 C 56.3938 -1.74709 -3.00157 0
M  V30 653 C 55.3478 -2.89581 -3.15162 0
M  V30 654 C 54.6738 -2.80903 -4.5497 0
M  V30 655 C 55.9738 -4.30578 -2.95634 0
M  V30 656 H 57.6678 -2.61493 -1.45814 0
M  V30 657 H 55.2138 -1.25838 -0.70005 0
M  V30 658 H 57.1668 -1.86748 -3.77761 0
M  V30 659 H 55.8908 -0.783067 -3.17074 0
M  V30 660 H 54.5498 -2.77136 -2.39982 0
M  V30 661 H 54.1978 -1.82419 -4.68756 0
M  V30 662 H 53.8978 -3.57999 -4.65951 0
M  V30 663 H 55.4218 -2.94944 -5.34641 0
M  V30 664 H 56.8358 -4.4373 -3.63011 0
M  V30 665 H 55.2328 -5.0886 -3.18091 0
M  V30 666 H 56.3028 -4.45352 -1.91806 0
M  V30 667 N 57.6459 0.756429 -1.3826 0
M  V30 668 C 58.8709 1.55077 -1.37717 0
M  V30 669 C 59.2959 1.88073 0.03164 0
M  V30 670 O 58.6539 1.50364 1.01293 0
M  V30 671 C 58.7019 2.8283 -2.23695 0
M  V30 672 O 57.8059 3.77862 -1.6521 0
M  V30 673 H 57.1469 0.469152 -0.469885 0
M  V30 674 H 59.6769 0.935019 -1.81985 0
M  V30 675 H 59.6869 3.31783 -2.37453 0
M  V30 676 H 58.3619 2.58144 -3.2609 0
M  V30 677 H 56.9389 3.36555 -1.60578 0
M  V30 678 N 59.124 1.23083 0.984299 0
M  V30 679 C 60.37 1.06214 1.72761 0
M  V30 680 C 60.703 -0.400584 1.90024 0
M  V30 681 O 59.978 -1.29672 1.44967 0
M  V30 682 C 60.261 1.78375 3.12817 0
M  V30 683 C 60.114 3.32296 3.03149 0
M  V30 684 C 61.433 1.54309 4.12161 0
M  V30 685 H 58.552 0.387251 0.627061 0
M  V30 686 H 61.194 1.51536 1.14616 0
M  V30 687 H 59.344 1.39848 3.62457 0
M  V30 688 H 61.016 3.8032 2.61064 0
M  V30 689 H 59.259 3.6153 2.39747 0
M  V30 690 H 59.93 3.77972 4.02295 0
M  V30 691 H 62.406 1.87791 3.71314 0
M  V30 692 H 61.282 2.07281 5.08258 0
M  V30 693 H 61.543 0.477572 4.39513 0
M  V30 694 N 60.6021 -1.18246 1.0419 0
M  V30 695 C 61.5491 -2.2192 0.634037 0
M  V30 696 C 62.5191 -1.62179 -0.358765 0
M  V30 697 O 63.7041 -1.89122 -0.252466 0
M  V30 698 C 60.8441 -3.451 0.00445535 0
M  V30 699 C 59.9571 -4.19174 1.04487 0
M  V30 700 C 59.0921 -5.29813 0.383676 0
M  V30 701 C 58.1311 -5.9566 1.4091 0
M  V30 702 N 57.2681 -6.97834 0.772784 0
M  V30 703 H 62.1081 -2.56164 1.52263 0
M  V30 704 H 59.6451 -1.25843 0.761701 0
M  V30 705 H 61.6031 -4.15485 -0.377919 0
M  V30 706 H 60.2331 -3.11472 -0.847652 0
M  V30 707 H 59.2851 -3.47604 1.54518 0
M  V30 708 H 60.5971 -4.64267 1.82368 0
M  V30 709 H 59.7511 -6.06677 -0.0528366 0
M  V30 710 H 58.4901 -4.85825 -0.427208 0
M  V30 711 H 57.4951 -5.17535 1.85574 0
M  V30 712 H 58.7201 -6.4173 2.22171 0
M  V30 713 H 56.6661 -6.55998 -0.0177708 0
M  V30 714 H 56.5831 -7.41186 1.48928 0
M  V30 715 H 57.8511 -7.78665 0.36071 0
M  V30 716 N 62.0802 -0.821533 -1.34494 0
M  V30 717 C 63.0432 -0.247847 -2.27856 0
M  V30 718 C 64.0432 0.573453 -1.50227 0
M  V30 719 O 65.2332 0.389759 -1.69784 0
M  V30 720 C 62.3652 0.652698 -3.34593 0
M  V30 721 H 63.5582 -1.07146 -2.80107 0
M  V30 722 H 61.1112 -0.593291 -1.44602 0
M  V30 723 H 61.8462 1.49943 -2.87555 0
M  V30 724 H 61.6312 0.065292 -3.92046 0
M  V30 725 H 63.1212 1.04793 -4.04238 0
M  V30 726 N 63.5583 1.46682 -0.576371 0
M  V30 727 C 64.4903 2.28341 0.198231 0
M  V30 728 C 65.5033 1.38141 0.861453 0
M  V30 729 O 66.6923 1.62797 0.732082 0
M  V30 730 C 63.7923 3.12986 1.29972 0
M  V30 731 C 62.9653 4.31271 0.729639 0
M  V30 732 C 62.0243 4.97363 1.71803 0
M  V30 733 O 61.0503 5.55156 1.25658 0
M  V30 734 N 62.2523 4.93796 3.05198 0
M  V30 735 H 65.0173 2.9546 -0.502324 0
M  V30 736 H 62.5783 1.56525 -0.413715 0
M  V30 737 H 64.5703 3.54066 1.96008 0
M  V30 738 H 63.1403 2.47984 1.90323 0
M  V30 739 H 62.3603 3.94052 -0.108012 0
M  V30 740 H 63.6483 5.07739 0.328438 0
M  V30 741 H 63.0463 4.48077 3.45317 0
M  V30 742 H 61.6033 5.38837 3.6674 0
M  V30 743 N 65.0364 0.313813 1.54444 0
M  V30 744 C 66.2644 -0.293918 2.04802 0
M  V30 745 C 66.6794 -1.46537 1.19047 0
M  V30 746 O 66.0364 -1.81182 0.218939 0
M  V30 747 C 66.0874 -0.737806 3.53891 0
M  V30 748 O 65.8084 0.387038 4.36387 0
M  V30 749 C 67.3094 -1.40936 4.203 0
M  V30 750 H 64.5294 -0.0620057 0.668129 0
M  V30 751 H 67.0734 0.457169 1.99324 0
M  V30 752 H 65.2284 -1.43889 3.59687 0
M  V30 753 H 65.6424 0.0391274 5.24485 0
M  V30 754 H 67.1164 -1.67099 5.26101 0
M  V30 755 H 67.5934 -2.35355 3.70816 0
M  V30 756 H 68.1994 -0.751117 4.18615 0
M  V30 757 N 66.5145 -1.57545 0.0417849 0
M  V30 758 C 67.4775 -2.09885 -0.92093 0
M  V30 759 C 68.4775 -1.01648 -1.24596 0
M  V30 760 O 69.6675 -1.27759 -1.1842 0
M  V30 761 C 66.7995 -2.57527 -2.23367 0
M  V30 762 H 67.9925 -2.96236 -0.467382 0
M  V30 763 H 65.5455 -1.5493 -0.206467 0
M  V30 764 H 66.2805 -1.74542 -2.73323 0
M  V30 765 H 66.0655 -3.36613 -2.01083 0
M  V30 766 H 67.5555 -2.98201 -2.92346 0
M  V30 767 N 67.9926 0.231505 -1.5589 0
M  V30 768 C 68.9426 1.29007 -1.87993 0
M  V30 769 C 69.9266 1.42764 -0.742102 0
M  V30 770 O 71.1186 1.45747 -1.00433 0
M  V30 771 C 68.2476 2.6425 -2.1915 0
M  V30 772 C 67.3336 2.54435 -3.39299 0
M  V30 773 N 67.7246 2.14262 -4.58176 0
M  V30 774 C 66.0226 2.85416 -3.42715 0
M  V30 775 C 66.7236 2.15455 -5.40328 0
M  V30 776 N 65.6996 2.55558 -4.79783 0
M  V30 777 H 69.5016 0.970213 -2.77424 0
M  V30 778 H 67.0156 0.440097 -1.56323 0
M  V30 779 H 69.0126 3.40665 -2.40319 0
M  V30 780 H 67.6726 2.9709 -1.31025 0
M  V30 781 H 68.6836 1.85554 -4.83518 0
M  V30 782 H 65.3606 3.22693 -2.64906 0
M  V30 783 H 66.7506 1.86605 -6.45467 0
M  V30 784 N 69.4707 1.49531 0.497807 0
M  V30 785 C 70.7197 1.58426 1.24837 0
M  V30 786 C 71.0327 0.277643 1.93619 0
M  V30 787 O 72.2387 0.24517 2.70391 0
M  V30 788 C 70.6947 2.79538 2.26686 0
M  V30 789 C 70.3027 4.16971 1.63828 0
M  V30 790 C 72.0467 2.97764 3.0255 0
M  V30 791 C 69.9537 5.29301 2.63807 0
M  V30 792 H 68.8837 0.58989 0.469623 0
M  V30 793 H 71.5347 1.75923 0.521857 0
M  V30 794 H 69.9167 2.55542 3.02514 0
M  V30 795 H 71.0907 4.51116 0.939711 0
M  V30 796 H 69.4057 4.04129 1.00342 0
M  V30 797 H 72.0027 3.78856 3.77323 0
M  V30 798 H 72.3457 2.08448 3.60354 0
M  V30 799 H 72.8787 3.21815 2.33838 0
M  V30 800 H 69.6177 6.20687 2.10779 0
M  V30 801 H 69.1377 4.99606 3.31894 0
M  V30 802 H 70.8167 5.58768 3.2617 0
M  V30 803 N 70.9488 -0.749086 1.3866 0
M  V30 804 C 72.1948 -1.51056 1.35314 0
M  V30 805 C 72.5278 -1.94121 -0.0553751 0
M  V30 806 O 71.8028 -1.65763 -1.01749 0
M  V30 807 C 72.0858 -2.76003 2.31288 0
M  V30 808 C 71.9388 -2.39047 3.8102 0
M  V30 809 C 73.2578 -3.78046 2.2532 0
M  V30 810 H 70.3768 -0.547972 0.492844 0
M  V30 811 H 73.0188 -0.857628 1.69543 0
M  V30 812 H 71.1688 -3.31716 2.02229 0
M  V30 813 H 72.8408 -1.89074 4.20771 0
M  V30 814 H 71.0838 -1.71449 3.98482 0
M  V30 815 H 71.7548 -3.28462 4.4364 0
M  V30 816 H 74.2308 -3.31884 2.50983 0
M  V30 817 H 73.1068 -4.63159 2.94576 0
M  V30 818 H 73.3678 -4.23957 1.25352 0
M  V30 819 N 72.4269 -1.23603 -0.977757 0
M  V30 820 C 73.3569 -1.04401 -2.0886 0
M  V30 821 C 74.3379 0.0399052 -1.70053 0
M  V30 822 O 75.5229 -0.125246 -1.93796 0
M  V30 823 C 72.6529 -0.637269 -3.41403 0
M  V30 824 C 71.6069 -1.66883 -3.94124 0
M  V30 825 C 70.9329 -1.11745 -5.22893 0
M  V30 826 C 72.2329 -3.06247 -4.23096 0
M  V30 827 H 73.9269 -1.97316 -2.25182 0
M  V30 828 H 71.4729 -0.950096 -1.08209 0
M  V30 829 H 73.4259 -0.48998 -4.18542 0
M  V30 830 H 72.1499 0.327557 -3.24953 0
M  V30 831 H 70.8089 -1.80416 -3.19133 0
M  V30 832 H 70.4569 -0.143527 -5.02795 0
M  V30 833 H 70.1569 -1.80672 -5.59134 0
M  V30 834 H 71.6809 -0.982067 -6.02651 0
M  V30 835 H 73.0949 -2.96001 -4.90975 0
M  V30 836 H 71.4919 -3.72436 -4.70544 0
M  V30 837 H 72.5619 -3.55041 -3.30263 0
M  V30 838 N 73.905 1.17692 -1.04816 0
M  V30 839 C 74.815 2.25229 -0.65643 0
M  V30 840 C 75.831 1.71018 0.320761 0
M  V30 841 O 77.007 2.00649 0.173805 0
M  V30 842 C 74.072 3.46684 -0.0332629 0
M  V30 843 C 73.133 4.15997 -1.06042 0
M  V30 844 C 72.366 5.31654 -0.466893 0
M  V30 845 O 72.589 5.65777 0.724758 0
M  V30 846 O 71.523 5.89831 -1.1993 0
M  V30 847 H 75.349 2.61016 -1.55255 0
M  V30 848 H 72.934 1.24919 -0.81949 0
M  V30 849 H 74.816 4.20234 0.313256 0
M  V30 850 H 73.491 3.12703 0.836566 0
M  V30 851 H 72.398 3.44482 -1.45886 0
M  V30 852 H 73.731 4.53996 -1.90127 0
M  V30 853 N 75.3831 0.828654 1.34056 0
M  V30 854 C 76.6601 0.341809 1.9259 0
M  V30 855 C 77.0401 -1.17158 1.75605 0
M  V30 856 O 76.3881 -1.98132 1.13824 0
M  V30 857 C 76.5981 0.777453 3.4023 0
M  V30 858 C 77.9461 0.779579 4.17382 0
M  V30 859 O 78.9701 0.7204 3.48839 0
M  V30 860 O 77.8291 0.857996 5.39723 0
M  V30 861 H 74.9231 0.0946085 0.821571 0
M  V30 862 H 77.4691 0.913827 1.42994 0
M  V30 863 H 76.2411 1.8196 3.46419 0
M  V30 864 H 75.8641 0.181444 3.97186 0
M  V30 865 N 76.8612 -1.46375 0.584142 0
M  V30 866 C 78.1092 -2.01978 0.0701287 0
M  V30 867 C 78.4302 -1.4579 -1.295 0
M  V30 868 O 77.7002 -0.64314 -1.85042 0
M  V30 869 H 76.2802 -0.746648 0.0229345 0
M  V30 870 H 78.9422 -1.79461 0.760245 0
M  V30 871 H 78.0382 -3.121 0.0022064 0
M  V30 872 N 78.3393 -0.321999 -1.54275 0
M  V30 873 C 79.5673 0.283052 -2.04955 0
M  V30 874 C 79.9823 1.45904 -1.19823 0
M  V30 875 O 79.3393 1.81063 -0.228545 0
M  V30 876 C 79.3903 0.719028 -3.54277 0
M  V30 877 O 79.1113 -0.410175 -4.36176 0
M  V30 878 C 80.6123 1.38705 -4.21041 0
M  V30 879 H 77.8323 0.0584616 -0.668448 0
M  V30 880 H 80.3763 -0.467734 -1.99079 0
M  V30 881 H 78.5313 1.41979 -3.60445 0
M  V30 882 H 78.9453 -0.0669416 -5.24457 0
M  V30 883 H 80.4193 1.64306 -5.2698 0
M  V30 884 H 80.8963 2.33385 -3.72059 0
M  V30 885 H 81.5023 0.728906 -4.19007 0
M  V30 886 N 79.8174 1.5752 -0.0501392 0
M  V30 887 C 80.7644 2.1147 0.924603 0
M  V30 888 C 81.7344 1.02182 1.30951 0
M  V30 889 O 82.9194 1.29723 1.39916 0
M  V30 890 C 80.0594 2.66337 2.19451 0
M  V30 891 C 79.1724 3.89708 1.86418 0
M  V30 892 C 78.3074 4.32893 3.07859 0
M  V30 893 C 77.3464 5.48967 2.70742 0
M  V30 894 N 76.4834 5.87211 3.84874 0
M  V30 895 H 81.3234 2.94465 0.457639 0
M  V30 896 H 78.8604 1.45531 0.214266 0
M  V30 897 H 80.8184 2.96247 2.93758 0
M  V30 898 H 79.4484 1.86141 2.63726 0
M  V30 899 H 78.5004 3.66396 1.02264 0
M  V30 900 H 79.8124 4.74074 1.55096 0
M  V30 901 H 78.9664 4.6435 3.90466 0
M  V30 902 H 77.7054 3.47336 3.42358 0
M  V30 903 H 76.7104 5.17183 1.86551 0
M  V30 904 H 77.9354 6.3624 2.37436 0
M  V30 905 H 75.8814 5.04607 4.19175 0
M  V30 906 H 75.7984 6.66266 3.57247 0
M  V30 907 H 77.0664 6.23282 4.68123 0
M  V30 908 N 81.2955 -0.223234 1.56011 0
M  V30 909 C 82.2285 -1.30377 1.87289 0
M  V30 910 C 83.2065 -1.45286 0.730112 0
M  V30 911 O 84.3905 -1.61126 0.978302 0
M  V30 912 C 81.5175 -2.67431 2.07843 0
M  V30 913 C 80.5635 -2.69546 3.30526 0
M  V30 914 S 81.3965 -2.23781 4.865 0
M  V30 915 C 82.5525 -3.62714 5.10088 0
M  V30 916 H 82.7855 -1.03652 2.78646 0
M  V30 917 H 80.3185 -0.425393 1.48424 0
M  V30 918 H 82.2765 -3.46336 2.20368 0
M  V30 919 H 80.9375 -2.91381 1.17285 0
M  V30 920 H 80.1305 -3.70255 3.41947 0
M  V30 921 H 79.7325 -1.98703 3.16849 0
M  V30 922 H 82.0245 -4.58391 4.98883 0
M  V30 923 H 82.9675 -3.5621 6.11981 0
M  V30 924 H 83.3755 -3.56323 4.37829 0
M  V30 925 N 82.7736 -1.49793 -0.48987 0
M  V30 926 C 83.7206 -1.67281 -1.59014 0
M  V30 927 C 84.6906 -0.514177 -1.57941 0
M  V30 928 O 85.8756 -0.742533 -1.75759 0
M  V30 929 C 83.0156 -1.75569 -2.97102 0
M  V30 930 C 82.1286 -3.0281 -3.08107 0
M  V30 931 C 81.2636 -3.02008 -4.36995 0
M  V30 932 C 80.3026 -4.23782 -4.41673 0
M  V30 933 N 79.4396 -4.20826 -5.62005 0
M  V30 934 H 84.2796 -2.61224 -1.43409 0
M  V30 935 H 81.8166 -1.29508 -0.697565 0
M  V30 936 H 83.7746 -1.78354 -3.77155 0
M  V30 937 H 82.4046 -0.850827 -3.11385 0
M  V30 938 H 81.4566 -3.09584 -2.21047 0
M  V30 939 H 82.7686 -3.92801 -3.07423 0
M  V30 940 H 81.9226 -3.03418 -5.25378 0
M  V30 941 H 80.6616 -2.09815 -4.4026 0
M  V30 942 H 79.6666 -4.22604 -3.5169 0
M  V30 943 H 80.8916 -5.17181 -4.40115 0
M  V30 944 H 78.8376 -3.31476 -5.66091 0
M  V30 945 H 78.7546 -5.04564 -5.62984 0
M  V30 946 H 80.0226 -4.26355 -6.52565 0
M  V30 947 N 84.2517 0.741722 -1.39055 0
M  V30 948 C 85.4997 1.49818 -1.35643 0
M  V30 949 C 85.8207 1.94938 0.0491642 0
M  V30 950 O 85.0907 1.68505 0.999141 0
M  V30 951 H 83.6707 0.555755 -0.499144 0
M  V30 952 H 86.3327 0.880957 -1.73854 0
M  V30 953 H 85.4287 2.38348 -2.01486 0
M  V30 954 N 85.7298 1.2412 0.971189 0
M  V30 955 C 86.9598 1.10415 1.7462 0
M  V30 956 C 87.3678 -0.346462 1.86001 0
M  V30 957 O 86.7108 -1.25104 1.34517 0
M  V30 958 C 86.7728 1.66596 3.18568 0
M  V30 959 C 86.4368 3.15446 3.3067 0
M  V30 960 C 87.4338 4.12636 3.16271 0
M  V30 961 C 85.1188 3.55337 3.55022 0
M  V30 962 C 87.1128 5.47699 3.26044 0
M  V30 963 C 84.7998 4.90542 3.64434 0
M  V30 964 C 85.7978 5.86532 3.49956 0
M  V30 965 O 85.4858 7.19279 3.59017 0
M  V30 966 H 85.2178 0.386616 0.55453 0
M  V30 967 H 87.7718 1.64633 1.22821 0
M  V30 968 H 86.0018 1.06808 3.71657 0
M  V30 969 H 87.6908 1.48232 3.77865 0
M  V30 970 H 88.4568 3.8316 2.97344 0
M  V30 971 H 84.3358 2.8113 3.65359 0
M  V30 972 H 87.8798 6.22603 3.14661 0
M  V30 973 H 83.7768 5.19691 3.82873 0
M  V30 974 H 84.5448 7.27153 3.75754 0
M  V30 975 N 87.2079 -1.17134 1.05439 0
M  V30 976 C 88.4329 -1.91913 0.786396 0
M  V30 977 C 88.8579 -1.7643 -0.652234 0
M  V30 978 O 88.2159 -1.08372 -1.45345 0
M  V30 979 C 88.2639 -3.40921 1.17497 0
M  V30 980 O 87.3679 -4.11244 0.308589 0
M  V30 981 H 86.7089 -0.598215 0.288158 0
M  V30 982 H 89.2389 -1.48457 1.4079 0
M  V30 983 H 89.2489 -3.91668 1.14281 0
M  V30 984 H 87.9239 -3.5151 2.22292 0
M  V30 985 H 86.5009 -3.70731 0.40157 0
M  V30 986 N 88.686 -0.835752 -1.33615 0
M  V30 987 C 89.933 -0.429959 -1.97883 0
M  V30 988 C 90.261 1.01006 -1.66217 0
M  V30 989 O 89.516 1.72047 -0.93265 0
M  V30 990 C 89.815 -0.593925 -3.52431 0
M  V30 991 C 89.481 -2.00158 -4.04039 0
M  V30 992 C 88.143 -2.38662 -4.17844 0
M  V30 993 C 90.495 -2.92117 -4.31644 0
M  V30 994 C 87.823 -3.68435 -4.56588 0
M  V30 995 C 90.175 -4.21368 -4.71838 0
M  V30 996 C 88.839 -4.59833 -4.83849 0
M  V30 997 H 88.109 -0.157333 -0.724104 0
M  V30 998 H 90.756 -1.06217 -1.59343 0
M  V30 999 H 89.061 0.121619 -3.91611 0
M  V30 1000 H 90.758 -0.260282 -4.00154 0
M  V30 1001 H 87.348 -1.69252 -3.93766 0
M  V30 1002 H 91.532 -2.63608 -4.20505 0
M  V30 1003 H 86.788 -3.98046 -4.64079 0
M  V30 1004 H 90.962 -4.92703 -4.92155 0
M  V30 1005 H 88.589 -5.60438 -5.13627 0
M  V30 1006 N 90.1641 1.46063 -0.591896 0
M  V30 1007 C 91.4121 2.01938 -0.0808391 0
M  V30 1008 C 91.7331 1.46475 1.28725 0
M  V30 1009 O 91.0031 0.652944 1.84698 0
M  V30 1010 H 89.5831 0.746516 -0.0268938 0
M  V30 1011 H 92.2451 1.79055 -0.769752 0
M  V30 1012 H 91.3411 3.12094 -0.0187578 0
M  V30 1013 N 91.6422 0.330177 1.54103 0
M  V30 1014 C 92.5922 -0.548456 2.21305 0
M  V30 1015 C 93.5762 -1.07651 1.19583 0
M  V30 1016 O 94.7682 -1.01243 1.45186 0
M  V30 1017 C 91.8972 -1.70559 2.97934 0
M  V30 1018 C 90.9832 -1.19212 4.07 0
M  V30 1019 N 91.3742 -0.398831 5.04225 0
M  V30 1020 C 89.6722 -1.47024 4.2107 0
M  V30 1021 C 90.3732 -0.121761 5.81573 0
M  V30 1022 N 89.3492 -0.709722 5.38947 0
M  V30 1023 H 93.1512 0.0648483 2.93828 0
M  V30 1024 H 90.6652 0.136363 1.61826 0
M  V30 1025 H 92.6622 -2.34688 3.44568 0
M  V30 1026 H 91.3222 -2.32231 2.26934 0
M  V30 1027 H 92.3332 -0.0410869 5.17884 0
M  V30 1028 H 89.0102 -2.09232 3.61287 0
M  V30 1029 H 90.4002 0.517298 6.69906 0
M  V30 1030 N 93.1203 -1.57491 0.0584922 0
M  V30 1031 C 94.5313 -1.80526 -0.476138 0
M  V30 1032 C 94.8823 -0.971334 -1.70469 0
M  V30 1033 O 94.0073 -0.190012 -2.15564 0
M  V30 1034 C 94.6023 -3.27424 -0.870587 0
M  V30 1035 C 93.1613 -3.51351 -1.35015 0
M  V30 1036 C 92.3083 -2.75343 -0.32887 0
M  V30 1037 H 95.2593 -1.56133 0.284312 0
M  V30 1038 H 95.2803 -3.38745 -1.73299 0
M  V30 1039 H 94.7923 -3.88093 0.0237627 0
M  V30 1040 H 92.8933 -2.95971 -2.26345 0
M  V30 1041 H 93.0063 -4.60059 -1.33726 0
M  V30 1042 H 91.3703 -2.417 -0.803321 0
M  V30 1043 H 92.1533 -3.38743 0.557521 0
M  V30 1044 N 94.5984 0.214957 -1.56127 0
M  V30 1045 C 95.8234 0.95924 -1.83884 0
M  V30 1046 C 96.2484 1.7689 -0.639644 0
M  V30 1047 O 95.6064 1.76566 0.411601 0
M  V30 1048 C 95.6544 1.84723 -3.09693 0
M  V30 1049 O 94.7584 2.94346 -2.8885 0
M  V30 1050 H 94.0994 0.27125 -0.606069 0
M  V30 1051 H 96.6294 0.226276 -2.03345 0
M  V30 1052 H 96.6394 2.25576 -3.39969 0
M  V30 1053 H 95.3144 1.25218 -3.96602 0
M  V30 1054 H 93.8914 2.57391 -2.69823 0
M  V30 1055 N 96.0765 1.50051 0.48192 0
M  V30 1056 C 97.3015 1.64508 1.26301 0
M  V30 1057 C 97.7265 0.323851 1.85291 0
M  V30 1058 O 97.0845 -0.710969 1.66778 0
M  V30 1059 C 97.1325 2.7305 2.35533 0
M  V30 1060 O 96.2365 2.3355 3.39895 0
M  V30 1061 H 95.5775 0.549978 0.372048 0
M  V30 1062 H 98.1075 1.9636 0.574786 0
M  V30 1063 H 98.1175 2.95799 2.8101 0
M  V30 1064 H 96.7925 3.68946 1.91967 0
M  V30 1065 H 95.3695 2.21205 3.00204 0
M  V30 1066 N 97.5546 -0.734337 1.39446 0
M  V30 1067 C 98.8006 -1.49613 1.36908 0
M  V30 1068 C 99.1336 -1.94169 -0.0347829 0
M  V30 1069 O 98.4086 -1.66833 -0.999847 0
M  V30 1070 C 98.6916 -2.73534 2.34203 0
M  V30 1071 C 98.5446 -2.34993 3.83534 0
M  V30 1072 C 99.8636 -3.75635 2.29317 0
M  V30 1073 H 96.9826 -0.542714 0.498629 0
M  V30 1074 H 99.6246 -0.839597 1.70443 0
M  V30 1075 H 97.7746 -3.29553 2.05736 0
M  V30 1076 H 99.4466 -1.84601 4.22753 0
M  V30 1077 H 97.6896 -1.67213 4.00278 0
M  V30 1078 H 98.3606 -3.23738 4.47099 0
M  V30 1079 H 100.837 -3.29203 2.54489 0
M  V30 1080 H 99.7126 -4.60008 2.99472 0
M  V30 1081 H 99.9736 -4.22603 1.29842 0
M  V30 1082 N 99.0327 -1.24633 -0.964593 0
M  V30 1083 C 99.9957 -1.0424 -2.04124 0
M  V30 1084 C 100.996 0.00137563 -1.608 0
M  V30 1085 O 102.186 -0.239883 -1.7254 0
M  V30 1086 C 99.3177 -0.580588 -3.3592 0
M  V30 1087 H 100.511 -1.99803 -2.23649 0
M  V30 1088 H 98.0637 -1.06899 -1.14027 0
M  V30 1089 H 98.7987 0.3781 -3.22088 0
M  V30 1090 H 98.5837 -1.33398 -3.6871 0
M  V30 1091 H 100.074 -0.459034 -4.15069 0
M  V30 1092 N 100.511 1.16574 -1.06058 0
M  V30 1093 C 101.759 1.86677 -0.77434 0
M  V30 1094 C 102.08 1.81959 0.701147 0
M  V30 1095 O 101.35 1.2515 1.50713 0
M  V30 1096 H 99.9298 0.691134 -0.283449 0
M  V30 1097 H 102.592 1.41378 -1.34158 0
M  V30 1098 H 101.688 2.92181 -1.09711 0
M  V30 1099 N 101.989 0.842826 1.3317 0
M  V30 1100 C 102.899 0.281444 2.32906 0
M  V30 1101 C 103.915 -0.594587 1.63526 0
M  V30 1102 O 105.091 -0.49777 1.95152 0
M  V30 1103 C 102.156 -0.530929 3.42611 0
M  V30 1104 C 101.217 0.369843 4.27704 0
M  V30 1105 C 100.45 -0.403853 5.3217 0
M  V30 1106 O 100.673 -1.63513 5.46461 0
M  V30 1107 O 99.6069 0.224199 6.01482 0
M  V30 1108 H 103.433 1.10744 2.82789 0
M  V30 1109 H 101.018 0.60545 1.36582 0
M  V30 1110 H 102.9 -0.992437 4.09547 0
M  V30 1111 H 101.575 -1.33392 2.94938 0
M  V30 1112 H 100.482 0.879275 3.6362 0
M  V30 1113 H 101.815 1.13771 4.78871 0
M  V30 1114 N 103.467 -1.45747 0.599634 0
M  V30 1115 C 104.713 -2.02592 0.0918643 0
M  V30 1116 C 105.046 -1.46806 -1.27128 0
M  V30 1117 O 104.321 -0.639658 -1.83681 0
M  V30 1118 C 104.604 -3.60073 0.0443398 0
M  V30 1119 C 104.457 -4.26208 1.43759 0
M  V30 1120 C 105.776 -4.35309 -0.647608 0
M  V30 1121 H 102.895 -0.736175 0.034857 0
M  V30 1122 H 105.537 -1.73694 0.770081 0
M  V30 1123 H 103.687 -3.84823 -0.533224 0
M  V30 1124 H 105.359 -4.12668 2.06162 0
M  V30 1125 H 103.602 -3.84916 2.00056 0
M  V30 1126 H 104.273 -5.35069 1.35665 0
M  V30 1127 H 106.749 -4.15805 -0.156776 0
M  V30 1128 H 105.625 -5.45038 -0.649942 0
M  V30 1129 H 105.886 -4.07598 -1.71219 0
M  V30 1130 N 104.945 -0.338344 -1.53925 0
M  V30 1131 C 106.191 0.260143 -2.01125 0
M  V30 1132 C 106.524 1.50617 -1.22589 0
M  V30 1133 O 105.799 1.91979 -0.312113 0
M  V30 1134 C 106.082 0.579499 -3.55407 0
M  V30 1135 C 105.935 -0.678264 -4.44657 0
M  V30 1136 C 107.254 1.39122 -4.17532 0
M  V30 1137 H 104.373 0.0930772 -0.731099 0
M  V30 1138 H 107.015 -0.457852 -1.84401 0
M  V30 1139 H 105.165 1.19118 -3.69788 0
M  V30 1140 H 106.837 -1.31631 -4.42121 0
M  V30 1141 H 105.08 -1.3042 -4.13731 0
M  V30 1142 H 105.751 -0.410143 -5.50474 0
M  V30 1143 H 108.227 0.874035 -4.06817 0
M  V30 1144 H 107.103 1.58342 -5.25565 0
M  V30 1145 H 107.364 2.39178 -3.71815 0
M  V30 1146 N 106.423 1.57458 -0.0668435 0
M  V30 1147 C 107.67 1.93301 0.603406 0
M  V30 1148 C 107.998 0.946486 1.69917 0
M  V30 1149 O 107.253 -0.0387021 1.95662 0
M  V30 1150 C 107.552 3.35784 1.22409 0
M  V30 1151 C 107.218 4.50179 0.254955 0
M  V30 1152 C 105.88 4.81199 -0.0116746 0
M  V30 1153 C 108.232 5.19598 -0.408338 0
M  V30 1154 C 105.56 5.78978 -0.94877 0
M  V30 1155 C 107.912 6.18381 -1.33372 0
M  V30 1156 C 106.576 6.47821 -1.60887 0
M  V30 1157 H 105.846 0.707338 0.220802 0
M  V30 1158 H 108.493 1.91012 -0.136665 0
M  V30 1159 H 106.798 3.34515 2.03978 0
M  V30 1160 H 108.495 3.60804 1.74989 0
M  V30 1161 H 105.085 4.25983 0.472954 0
M  V30 1162 H 109.269 4.95832 -0.215456 0
M  V30 1163 H 104.525 6.00115 -1.16925 0
M  V30 1164 H 108.699 6.71277 -1.85367 0
M  V30 1165 H 106.326 7.23399 -2.33661 0
M  V30 1166 N 107.901 -0.206675 1.56239 0
M  V30 1167 C 108.849 -1.27571 1.94495 0
M  V30 1168 C 109.843 -1.47737 0.828862 0
M  V30 1169 O 111.049 -1.48735 1.0138 0
M  V30 1170 H 107.424 -0.428029 0.6183 0
M  V30 1171 H 109.395 -0.925961 2.8367 0
M  V30 1172 C 108.144 -2.61568 2.29079 0
M  V30 1173 H 107.467 -2.46863 3.14482 0
M  V30 1174 H 108.907 -3.35144 2.5972 0
M  V30 1175 C 107.366 -3.17695 1.12123 0
M  V30 1176 O 107.896 -3.99801 0.390153 0
M  V30 1177 N 106.102 -2.76276 0.901097 0
M  V30 1178 H 105.649 -2.09613 1.49733 0
M  V30 1179 H 105.607 -3.1417 0.120319 0
M  V30 1180 N 109.379 -1.50304 -0.473955 0
M  V30 1181 C 110.607 -1.64902 -1.24959 0
M  V30 1182 C 111.022 -0.331198 -1.85872 0
M  V30 1183 O 110.379 0.68652 -1.69095 0
M  V30 1184 C 110.43 -2.73803 -2.36038 0
M  V30 1185 O 110.151 -4.00477 -1.77624 0
M  V30 1186 C 111.652 -2.99349 -3.26964 0
M  V30 1187 H 108.872 -0.554383 -0.378022 0
M  V30 1188 H 111.416 -1.9651 -0.566054 0
M  V30 1189 H 109.571 -2.44898 -3.00173 0
M  V30 1190 H 109.985 -4.60678 -2.5075 0
M  V30 1191 H 111.459 -3.79217 -4.01121 0
M  V30 1192 H 111.936 -2.10307 -3.85574 0
M  V30 1193 H 112.542 -3.29774 -2.68569 0
M  V30 1194 N 110.857 0.726932 -1.39834 0
M  V30 1195 C 112.105 1.4837 -1.37225 0
M  V30 1196 C 112.426 1.94979 0.0284857 0
M  V30 1197 O 111.696 1.69555 0.981213 0
M  V30 1198 H 110.276 0.55043 -0.505011 0
M  V30 1199 H 112.938 0.862468 -1.74778 0
M  V30 1200 H 112.034 2.36198 -2.04003 0
M  V30 1201 N 112.336 1.25143 0.95797 0
M  V30 1202 C 113.266 1.07711 2.07173 0
M  V30 1203 C 114.247 -0.0128462 1.70095 0
M  V30 1204 O 115.432 0.156061 1.93572 0
M  V30 1205 C 112.562 0.691503 3.40346 0
M  V30 1206 C 111.516 1.73132 3.9142 0
M  V30 1207 C 110.842 1.20049 5.21049 0
M  V30 1208 C 112.142 3.1294 4.1817 0
M  V30 1209 H 113.836 2.00873 2.22014 0
M  V30 1210 H 111.382 0.967191 1.06684 0
M  V30 1211 H 113.335 0.556505 4.17709 0
M  V30 1212 H 112.059 -0.275819 3.25433 0
M  V30 1213 H 110.718 1.8547 3.16222 0
M  V30 1214 H 110.366 0.223499 5.02503 0
M  V30 1215 H 110.066 1.89545 5.56189 0
M  V30 1216 H 111.59 1.07782 6.01012 0
M  V30 1217 H 113.004 3.03775 4.86203 0
M  V30 1218 H 111.401 3.79875 4.64559 0
M  V30 1219 H 112.471 3.6025 3.24573 0
M  V30 1220 N 113.814 -1.1601 1.06675 0
M  V30 1221 C 115.062 -1.86264 0.784229 0
M  V30 1222 C 115.383 -1.82328 -0.691488 0
M  V30 1223 O 114.653 -1.25947 -1.50047 0
M  V30 1224 H 113.233 -0.689621 0.28711 0
M  V30 1225 H 115.895 -1.40664 1.34906 0
M  V30 1226 H 114.991 -2.91595 1.11259 0
M  V30 1227 N 115.292 -0.849877 -1.32721 0
M  V30 1228 C 116.54 -0.450032 -1.97026 0
M  V30 1229 C 116.861 0.996604 -1.67609 0
M  V30 1230 O 116.131 1.6958 -0.980786 0
M  V30 1231 H 114.711 -0.163426 -0.728904 0
M  V30 1232 H 117.373 -1.08526 -1.6189 0
M  V30 1233 H 116.469 -0.591146 -3.0645 0
M  V30 1234 N 116.77 1.45427 -0.607355 0
M  V30 1235 C 118 2.06314 -0.108656 0
M  V30 1236 C 118.408 1.45269 1.21217 0
M  V30 1237 O 117.751 0.561115 1.74921 0
M  V30 1238 C 117.813 3.59345 0.105618 0
M  V30 1239 C 117.477 4.42723 -1.13337 0
M  V30 1240 C 118.474 4.77715 -2.05145 0
M  V30 1241 C 116.159 4.83478 -1.36213 0
M  V30 1242 C 118.153 5.52317 -3.18158 0
M  V30 1243 C 115.84 5.57835 -2.49527 0
M  V30 1244 C 116.838 5.92171 -3.40327 0
M  V30 1245 O 116.526 6.65019 -4.51669 0
M  V30 1246 H 116.258 0.672782 -0.0658842 0
M  V30 1247 H 118.812 1.87664 -0.834945 0
M  V30 1248 H 117.042 3.76394 0.886796 0
M  V30 1249 H 118.731 4.02076 0.555886 0
M  V30 1250 H 119.497 4.46787 -1.88697 0
M  V30 1251 H 115.376 4.56188 -0.664362 0
M  V30 1252 H 118.92 5.79036 -3.89054 0
M  V30 1253 H 114.817 5.88177 -2.65928 0
M  V30 1254 H 115.585 6.83469 -4.50348 0
M  V30 1255 N 118.248 0.346503 1.53744 0
M  V30 1256 C 119.659 -0.136779 1.86198 0
M  V30 1257 C 120.01 -1.49749 1.26766 0
M  V30 1258 O 119.135 -2.08417 0.582355 0
M  V30 1259 C 119.73 -0.254966 3.37839 0
M  V30 1260 C 118.289 -0.682482 3.70161 0
M  V30 1261 C 117.436 0.181981 2.76702 0
M  V30 1262 H 120.387 0.565994 1.48264 0
M  V30 1263 H 120.408 -1.08195 3.64793 0
M  V30 1264 H 119.92 0.735526 3.81066 0
M  V30 1265 H 118.021 -1.68189 3.3248 0
M  V30 1266 H 118.134 -0.470326 4.76786 0
M  V30 1267 H 116.498 -0.34615 2.52337 0
M  V30 1268 H 117.281 1.16966 3.2276 0
M  V30 1269 N 119.726 -1.57421 0.075193 0
M  V30 1270 C 120.636 -2.1642 -0.905511 0
M  V30 1271 C 121.652 -1.12828 -1.32461 0
M  V30 1272 O 122.828 -1.45109 -1.39661 0
M  V30 1273 C 119.893 -2.71693 -2.15369 0
M  V30 1274 C 118.954 -3.90171 -1.79068 0
M  V30 1275 C 118.187 -4.42798 -2.97936 0
M  V30 1276 O 118.41 -3.94416 -4.12058 0
M  V30 1277 O 117.344 -5.34085 -2.77555 0
M  V30 1278 H 121.17 -3.00588 -0.433626 0
M  V30 1279 H 118.755 -1.48664 -0.148067 0
M  V30 1280 H 120.637 -3.07104 -2.88557 0
M  V30 1281 H 119.312 -1.90582 -2.61649 0
M  V30 1282 H 118.219 -3.59606 -1.03122 0
M  V30 1283 H 119.552 -4.72584 -1.37569 0
M  V30 1284 N 121.204 0.198386 -1.56346 0
M  V30 1285 C 122.167 1.22952 -1.93431 0
M  V30 1286 C 123.167 1.38611 -0.815092 0
M  V30 1287 O 124.357 1.36479 -1.08255 0
M  V30 1288 C 121.489 2.59946 -2.20546 0
M  V30 1289 H 122.682 0.912626 -2.85677 0
M  V30 1290 H 120.235 0.43977 -1.49986 0
M  V30 1291 H 120.97 2.96696 -1.30927 0
M  V30 1292 H 120.755 2.49953 -3.02102 0
M  V30 1293 H 122.245 3.3431 -2.50253 0
M  V30 1294 N 122.682 1.50554 0.465978 0
M  V30 1295 C 123.931 1.61038 1.21448 0
M  V30 1296 C 124.244 0.31865 1.92987 0
M  V30 1297 O 125.45 0.302469 2.6981 0
M  V30 1298 C 123.906 2.84283 2.20706 0
M  V30 1299 C 123.514 4.20352 1.54946 0
M  V30 1300 C 125.258 3.04115 2.96166 0
M  V30 1301 C 123.165 5.34778 2.5252 0
M  V30 1302 H 122.095 0.599718 0.457005 0
M  V30 1303 H 124.746 1.7699 0.484424 0
M  V30 1304 H 123.128 2.61901 2.97025 0
M  V30 1305 H 124.302 4.53008 0.843811 0
M  V30 1306 H 122.617 4.06167 0.917475 0
M  V30 1307 H 125.214 3.86774 3.69202 0
M  V30 1308 H 125.557 2.16045 3.55852 0
M  V30 1309 H 126.09 3.26702 2.26959 0
M  V30 1310 H 122.829 6.25018 1.97566 0
M  V30 1311 H 122.349 5.06534 3.21222 0
M  V30 1312 H 124.028 5.65561 3.14245 0
M  V30 1313 N 124.16 -0.719506 1.40217 0
M  V30 1314 C 125.388 -1.50864 1.41589 0
M  V30 1315 C 125.803 -1.88794 0.0145275 0
M  V30 1316 O 125.16 -1.55174 -0.960594 0
M  V30 1317 C 125.211 -2.78646 2.30302 0
M  V30 1318 O 124.932 -2.42321 3.64983 0
M  V30 1319 C 126.433 -3.72569 2.40224 0
M  V30 1320 H 123.653 -0.465709 0.48307 0
M  V30 1321 H 126.197 -0.88785 1.84221 0
M  V30 1322 H 124.352 -3.37019 1.91042 0
M  V30 1323 H 124.766 -3.24514 4.12057 0
M  V30 1324 H 126.24 -4.5908 3.06512 0
M  V30 1325 H 126.717 -4.15403 1.42608 0
M  V30 1326 H 127.323 -3.20109 2.80019 0
M  V30 1327 N 125.638 -1.25649 -0.95132 0
M  V30 1328 C 126.915 -1.01361 -1.67288 0
M  V30 1329 C 127.295 0.459135 -2.06046 0
M  V30 1330 O 126.643 1.43723 -1.7764 0
M  V30 1331 C 126.853 -1.95256 -2.89268 0
M  V30 1332 C 128.201 -2.23289 -3.61147 0
M  V30 1333 O 129.225 -1.93041 -2.99355 0
M  V30 1334 O 128.084 -2.74741 -4.72419 0
M  V30 1335 H 125.178 -0.38464 -0.732107 0
M  V30 1336 H 127.724 -1.36817 -1.00395 0
M  V30 1337 H 126.496 -2.94685 -2.57442 0
M  V30 1338 H 126.119 -1.60218 -3.6389 0
M  V30 1339 N 127.117 1.15442 -1.07289 0
M  V30 1340 C 128.528 1.67803 -0.818475 0
M  V30 1341 C 128.879 1.8489 0.656507 0
M  V30 1342 O 128.004 1.55176 1.50829 0
M  V30 1343 C 128.599 3.04805 -1.47917 0
M  V30 1344 C 127.158 3.54245 -1.27229 0
M  V30 1345 C 126.305 2.29986 -1.54925 0
M  V30 1346 H 129.256 0.996646 -1.23502 0
M  V30 1347 H 129.277 3.69702 -0.90005 0
M  V30 1348 H 128.789 2.92336 -2.55267 0
M  V30 1349 H 126.89 3.71956 -0.21899 0
M  V30 1350 H 127.003 4.35723 -1.99203 0
M  V30 1351 H 125.367 2.35496 -0.970242 0
M  V30 1352 H 126.15 2.20105 -2.63455 0
M  V30 1353 N 128.595 0.856903 1.32268 0
M  V30 1354 C 129.558 0.308171 2.27119 0
M  V30 1355 C 130.558 -0.533421 1.51695 0
M  V30 1356 O 131.748 -0.344607 1.70757 0
M  V30 1357 C 128.88 -0.563757 3.36206 0
M  V30 1358 H 130.073 1.14535 2.77167 0
M  V30 1359 H 127.626 0.631421 1.42978 0
M  V30 1360 H 128.361 -1.42266 2.91429 0
M  V30 1361 H 128.146 0.0386749 3.92081 0
M  V30 1362 H 129.636 -0.940386 4.06874 0
M  V30 1363 N 130.073 -1.45103 0.615059 0
M  V30 1364 C 131.303 -2.06254 0.119596 0
M  V30 1365 C 131.711 -1.4591 -1.20445 0
M  V30 1366 O 131.054 -0.570384 -1.7462 0
M  V30 1367 C 131.116 -3.59396 -0.0865591 0
M  V30 1368 C 130.78 -4.42116 1.15683 0
M  V30 1369 C 131.777 -4.7662 2.07676 0
M  V30 1370 C 129.462 -4.82749 1.38775 0
M  V30 1371 C 131.456 -5.50622 3.21082 0
M  V30 1372 C 129.143 -5.56504 2.52481 0
M  V30 1373 C 130.141 -5.90358 3.43463 0
M  V30 1374 O 129.829 -6.62615 4.55189 0
M  V30 1375 H 129.561 -0.672423 0.0694512 0
M  V30 1376 H 132.115 -1.87219 0.844885 0
M  V30 1377 H 130.345 -3.76859 -0.866823 0
M  V30 1378 H 132.034 -4.02365 -0.534555 0
M  V30 1379 H 132.8 -4.4578 1.91063 0
M  V30 1380 H 128.679 -4.55829 0.688545 0
M  V30 1381 H 132.223 -5.76965 3.92119 0
M  V30 1382 H 128.12 -5.86759 2.69043 0
M  V30 1383 H 128.888 -6.81071 4.53966 0
M  V30 1384 N 131.551 -0.354651 -1.53558 0
M  V30 1385 C 132.498 0.496968 -2.25386 0
M  V30 1386 C 133.468 1.0865 -1.25636 0
M  V30 1387 O 134.653 1.12104 -1.54394 0
M  V30 1388 C 131.793 1.63637 -3.03837 0
M  V30 1389 C 130.906 1.07307 -4.18461 0
M  V30 1390 C 130.041 2.18068 -4.84376 0
M  V30 1391 C 129.08 1.59147 -5.91049 0
M  V30 1392 N 128.217 2.63695 -6.50699 0
M  V30 1393 H 133.057 -0.122075 -2.9775 0
M  V30 1394 H 130.594 -0.0720154 -1.46924 0
M  V30 1395 H 132.552 2.30734 -3.47589 0
M  V30 1396 H 131.182 2.22623 -2.33749 0
M  V30 1397 H 130.234 0.292708 -3.79272 0
M  V30 1398 H 131.546 0.602193 -4.95152 0
M  V30 1399 H 130.7 2.93007 -5.31255 0
M  V30 1400 H 129.439 2.68504 -4.07133 0
M  V30 1401 H 128.444 0.827175 -5.43542 0
M  V30 1402 H 129.669 1.09549 -6.70206 0
M  V30 1403 H 127.615 3.13365 -5.76315 0
M  V30 1404 H 127.532 2.21263 -7.22896 0
M  V30 1405 H 128.8 3.3837 -7.02229 0
M  V30 1406 N 133.029 1.57378 -0.0835403 0
M  V30 1407 C 134.277 1.93547 0.581718 0
M  V30 1408 C 134.598 0.96524 1.69435 0
M  V30 1409 O 133.868 0.0153369 1.95894 0
M  V30 1410 H 132.448 0.714521 0.217874 0
M  V30 1411 H 135.11 1.94366 -0.144158 0
M  V30 1412 H 134.206 2.95665 0.999423 0
M  V30 1413 N 134.507 -0.190092 1.56449 0
M  V30 1414 C 135.439 -1.25973 1.91477 0
M  V30 1415 C 136.452 -1.41452 0.805931 0
M  V30 1416 O 137.641 -1.41789 1.08435 0
M  V30 1417 C 134.741 -2.63117 2.13594 0
M  V30 1418 C 133.914 -2.69182 3.4476 0
M  V30 1419 C 132.973 -3.87557 3.5593 0
M  V30 1420 O 131.999 -3.74427 4.28711 0
M  V30 1421 N 133.201 -5.03224 2.89388 0
M  V30 1422 H 135.966 -0.962394 2.83828 0
M  V30 1423 H 133.527 -0.379981 1.57378 0
M  V30 1424 H 135.519 -3.40742 2.1835 0
M  V30 1425 H 134.089 -2.85319 1.27719 0
M  V30 1426 H 133.309 -1.77793 3.51828 0
M  V30 1427 H 134.597 -2.70229 4.31107 0
M  V30 1428 H 133.995 -5.16791 2.30094 0
M  V30 1429 H 132.552 -5.78778 2.99764 0
M  V30 1430 N 135.985 -1.50799 -0.457987 0
M  V30 1431 C 137.234 -1.6168 -1.20593 0
M  V30 1432 C 137.547 -0.32888 -1.92815 0
M  V30 1433 O 138.753 -0.316773 -2.69646 0
M  V30 1434 C 137.209 -2.8545 -2.19195 0
M  V30 1435 C 136.817 -4.21168 -1.52715 0
M  V30 1436 C 138.561 -3.05681 -2.94549 0
M  V30 1437 C 136.468 -5.3611 -2.4968 0
M  V30 1438 H 135.398 -0.602134 -0.453818 0
M  V30 1439 H 138.049 -1.77245 -0.475031 0
M  V30 1440 H 136.431 -2.63472 -2.95632 0
M  V30 1441 H 137.605 -4.53449 -0.819775 0
M  V30 1442 H 135.92 -4.06648 -0.895922 0
M  V30 1443 H 138.517 -3.88727 -3.67145 0
M  V30 1444 H 138.86 -2.17929 -3.54701 0
M  V30 1445 H 139.393 -3.27901 -2.25223 0
M  V30 1446 H 136.132 -6.26057 -1.94249 0
M  V30 1447 H 135.652 -5.0823 -3.18532 0
M  V30 1448 H 137.331 -5.6722 -3.11241 0
M  V30 1449 N 137.463 0.71206 -1.40597 0
M  V30 1450 C 138.393 1.83889 -1.43899 0
M  V30 1451 C 139.374 1.67442 -0.299504 0
M  V30 1452 O 140.559 1.87421 -0.508624 0
M  V30 1453 C 137.689 3.21877 -1.30431 0
M  V30 1454 C 136.643 3.53002 -2.42019 0
M  V30 1455 C 135.969 4.90172 -2.13626 0
M  V30 1456 C 137.269 3.53643 -3.84362 0
M  V30 1457 H 138.963 1.81383 -2.38203 0
M  V30 1458 H 136.509 0.871237 -1.14654 0
M  V30 1459 H 138.462 4.00404 -1.31357 0
M  V30 1460 H 137.186 3.24968 -0.326049 0
M  V30 1461 H 135.845 2.76818 -2.40349 0
M  V30 1462 H 135.493 4.89869 -1.14182 0
M  V30 1463 H 135.193 5.11962 -2.88389 0
M  V30 1464 H 136.717 5.71028 -2.1624 0
M  V30 1465 H 138.131 4.22203 -3.87837 0
M  V30 1466 H 136.528 3.86961 -4.58673 0
M  V30 1467 H 137.598 2.52954 -4.13693 0
M  V30 1468 N 138.941 1.26152 0.944643 0
M  V30 1469 C 140.169 1.14259 1.72489 0
M  V30 1470 C 140.584 -0.302555 1.8636 0
M  V30 1471 O 139.941 -1.20741 1.36849 0
M  V30 1472 C 139.992 1.80266 3.13347 0
M  V30 1473 O 139.713 3.19133 3.00143 0
M  V30 1474 C 141.214 1.74283 4.07603 0
M  V30 1475 H 138.434 0.398051 0.540181 0
M  V30 1476 H 140.978 1.66706 1.18446 0
M  V30 1477 H 139.133 1.31766 3.64303 0
M  V30 1478 H 139.547 3.51744 3.89071 0
M  V30 1479 H 141.021 2.25111 5.04013 0
M  V30 1480 H 141.498 0.708631 4.33446 0
M  V30 1481 H 142.104 2.22319 3.62567 0
M  V30 1482 N 140.419 -1.14872 1.07899 0
M  V30 1483 C 141.352 -2.18794 0.64841 0
M  V30 1484 C 142.33 -1.59065 -0.337189 0
M  V30 1485 O 143.514 -1.86936 -0.242284 0
M  V30 1486 C 140.641 -3.38667 -0.0470417 0
M  V30 1487 C 139.687 -4.16942 0.897884 0
M  V30 1488 S 140.52 -4.78615 2.40183 0
M  V30 1489 C 141.676 -6.0185 1.71834 0
M  V30 1490 H 141.909 -2.5498 1.52881 0
M  V30 1491 H 139.442 -1.25922 0.893484 0
M  V30 1492 H 141.4 -4.08113 -0.442027 0
M  V30 1493 H 140.061 -3.00814 -0.903861 0
M  V30 1494 H 139.254 -5.02726 0.358096 0
M  V30 1495 H 138.856 -3.53073 1.23352 0
M  V30 1496 H 141.148 -6.69574 1.03328 0
M  V30 1497 H 142.091 -6.60408 2.55473 0
M  V30 1498 H 142.499 -5.5173 1.19392 0
M  V30 1499 N 141.898 -0.863906 -1.31812 0
M  V30 1500 C 142.861 -0.320212 -2.26952 0
M  V30 1501 C 143.861 0.525369 -1.51975 0
M  V30 1502 O 145.051 0.335547 -1.70938 0
M  V30 1503 C 142.183 0.545919 -3.365 0
M  V30 1504 H 143.376 -1.16004 -2.76556 0
M  V30 1505 H 140.929 -0.638995 -1.42641 0
M  V30 1506 H 141.664 1.40718 -2.92179 0
M  V30 1507 H 141.449 -0.0594674 -3.92055 0
M  V30 1508 H 142.939 0.918796 -4.07367 0
M  V30 1509 N 143.376 1.44774 -0.622745 0
M  V30 1510 C 144.324 2.32387 0.0994683 0
M  V30 1511 C 145.318 1.46859 0.844326 0
M  V30 1512 O 146.524 1.63254 0.758174 0
M  V30 1513 H 142.899 0.750273 0.0509291 0
M  V30 1514 H 144.87 2.91062 -0.65767 0
M  V30 1515 C 143.619 3.30723 1.07319 0
M  V30 1516 H 142.942 3.96541 0.509462 0
M  V30 1517 H 144.382 3.94725 1.54817 0
M  V30 1518 C 142.841 2.59021 2.15429 0
M  V30 1519 O 143.371 2.38286 3.23393 0
M  V30 1520 N 141.577 2.189 1.91131 0
M  V30 1521 H 141.124 2.35964 1.03337 0
M  V30 1522 H 141.082 1.71251 2.63668 0
M  V30 1523 N 144.854 0.36279 1.53368 0
M  V30 1524 C 146.265 -0.117022 1.86333 0
M  V30 1525 C 146.616 -1.48397 1.28347 0
M  V30 1526 O 145.741 -2.07787 0.604428 0
M  V30 1527 C 146.336 -0.21912 3.38091 0
M  V30 1528 C 144.895 -0.643184 3.70864 0
M  V30 1529 C 144.042 0.211318 2.76494 0
M  V30 1530 H 146.993 0.581687 1.47655 0
M  V30 1531 H 147.014 -1.04319 3.6592 0
M  V30 1532 H 146.526 0.775902 3.80265 0
M  V30 1533 H 144.627 -1.64654 3.34245 0
M  V30 1534 H 144.74 -0.41973 4.77258 0
M  V30 1535 H 143.104 -0.319367 2.5269 0
M  V30 1536 H 143.887 1.20383 3.21501 0
M  V30 1537 N 146.332 -1.57332 0.0918853 0
M  V30 1538 C 147.581 -1.93412 -0.572249 0
M  V30 1539 C 147.894 -0.975515 -1.69538 0
M  V30 1540 O 149.1 -1.22991 -2.42045 0
M  V30 1541 C 147.556 -3.43648 -1.0693 0
M  V30 1542 C 147.164 -4.47994 0.0239049 0
M  V30 1543 C 148.908 -3.88695 -1.70635 0
M  V30 1544 C 146.815 -5.89381 -0.488319 0
M  V30 1545 H 145.745 -0.721939 -0.217532 0
M  V30 1546 H 148.396 -1.82735 0.167369 0
M  V30 1547 H 146.778 -3.49466 -1.8625 0
M  V30 1548 H 147.952 -4.53815 0.799277 0
M  V30 1549 H 146.267 -4.12536 0.565946 0
M  V30 1550 H 148.864 -4.91725 -2.10025 0
M  V30 1551 H 149.207 -3.27166 -2.57426 0
M  V30 1552 H 149.74 -3.85564 -0.979023 0
M  V30 1553 H 146.479 -6.54602 0.342906 0
M  V30 1554 H 145.999 -5.87037 -1.23077 0
M  V30 1555 H 147.678 -6.39863 -0.958317 0
M  V30 1556 N 147.81 0.181792 -1.56548 0
M  V30 1557 C 149.059 0.898348 -1.8059 0
M  V30 1558 C 149.372 1.83862 -0.667379 0
M  V30 1559 O 150.578 2.59678 -0.792446 0
M  V30 1560 C 149.034 1.64791 -3.19956 0
M  V30 1561 C 148.642 0.751789 -4.41647 0
M  V30 1562 C 150.386 2.35331 -3.53298 0
M  V30 1563 C 148.293 1.50098 -5.72035 0
M  V30 1564 H 147.223 0.339194 -0.673397 0
M  V30 1565 H 149.874 0.151413 -1.82874 0
M  V30 1566 H 148.256 2.43921 -3.11959 0
M  V30 1567 H 149.43 -0.0018076 -4.608 0
M  V30 1568 H 147.745 0.156562 -4.16106 0
M  V30 1569 H 150.342 2.91958 -4.47956 0
M  V30 1570 H 150.685 3.10164 -2.77676 0
M  V30 1571 H 151.218 1.63154 -3.62803 0
M  V30 1572 H 147.957 0.795175 -6.50659 0
M  V30 1573 H 147.477 2.22817 -5.56878 0
M  V30 1574 H 149.156 2.05125 -6.13622 0
M  V30 1575 N 149.288 1.51039 0.449983 0
M  V30 1576 C 150.536 1.62759 1.19808 0
M  V30 1577 C 150.857 0.339981 1.92013 0
M  V30 1578 O 150.127 -0.643606 1.85026 0
M  V30 1579 H 148.707 0.599811 0.445237 0
M  V30 1580 H 151.369 1.87914 0.517138 0
M  V30 1581 H 150.465 2.44911 1.93455 0
M  V30 1582 N 150.766 -0.704594 1.40972 0
M  V30 1583 C 151.714 -1.83994 1.42299 0
M  V30 1584 C 152.708 -1.66684 0.302111 0
M  V30 1585 O 153.914 -1.73655 0.473697 0
M  V30 1586 H 150.289 -0.606171 0.44504 0
M  V30 1587 H 152.26 -1.79992 2.38003 0
M  V30 1588 C 151.009 -3.21946 1.31323 0
M  V30 1589 H 150.332 -3.35878 2.16855 0
M  V30 1590 H 151.772 -4.01491 1.36311 0
M  V30 1591 C 150.231 -3.36891 0.0245977 0
M  V30 1592 O 150.761 -3.90687 -0.934153 0
M  V30 1593 N 148.967 -2.90559 -0.0485243 0
M  V30 1594 H 148.514 -2.46968 0.732419 0
M  V30 1595 H 148.472 -3.00937 -0.910171 0
M  V30 1596 N 152.244 -1.26651 -0.937939 0
M  V30 1597 C 153.492 -1.12165 -1.68118 0
M  V30 1598 C 153.813 0.334983 -1.92101 0
M  V30 1599 O 153.083 1.23583 -1.52 0
M  V30 1600 H 151.663 -0.412093 -0.623048 0
M  V30 1601 H 154.325 -1.59027 -1.12678 0
M  V30 1602 H 153.421 -1.64289 -2.6536 0
M  V30 1603 N 153.722 1.14298 -1.08507 0
M  V30 1604 C 154.97 1.84993 -0.813763 0
M  V30 1605 C 155.291 1.83405 0.662393 0
M  V30 1606 O 154.561 1.28319 1.48024 0
M  V30 1607 H 153.141 0.684966 -0.298045 0
M  V30 1608 H 155.803 1.385 -1.37126 0
M  V30 1609 H 154.899 2.89788 -1.15884 0
M  V30 1610 N 155.201 0.870884 1.31352 0
M  V30 1611 C 156.164 0.332243 2.26779 0
M  V30 1612 C 157.164 -0.517302 1.52252 0
M  V30 1613 O 158.354 -0.326477 1.71113 0
M  V30 1614 C 155.486 -0.528066 3.36785 0
M  V30 1615 H 156.679 1.17469 2.75937 0
M  V30 1616 H 154.232 0.64655 1.423 0
M  V30 1617 H 154.967 -1.39167 2.92922 0
M  V30 1618 H 154.752 0.0802582 3.92018 0
M  V30 1619 H 156.242 -0.897179 4.07849 0
M  V30 1620 N 156.679 -1.44442 0.630414 0
M  V30 1621 C 158.09 -1.85434 0.217063 0
M  V30 1622 C 158.441 -1.52748 -1.23136 0
M  V30 1623 O 157.566 -0.965205 -1.93682 0
M  V30 1624 C 158.161 -3.36581 0.387168 0
M  V30 1625 C 156.72 -3.76389 0.0283297 0
M  V30 1626 C 155.867 -2.68296 0.700889 0
M  V30 1627 H 158.818 -1.34919 0.83562 0
M  V30 1628 H 158.839 -3.78657 -0.374086 0
M  V30 1629 H 158.351 -3.60339 1.44144 0
M  V30 1630 H 156.452 -3.58246 -1.02423 0
M  V30 1631 H 156.565 -4.77095 0.437892 0
M  V30 1632 H 154.929 -2.54335 0.136267 0
M  V30 1633 H 155.712 -2.94887 1.75774 0
M  V30 1634 N 158.157 -0.370918 -1.53173 0
M  V30 1635 C 159.434 0.273754 -1.93675 0
M  V30 1636 C 159.814 1.65938 -1.3049 0
M  V30 1637 O 159.162 2.23698 -0.465999 0
M  V30 1638 C 159.372 0.318602 -3.47543 0
M  V30 1639 C 160.72 0.556392 -4.20939 0
M  V30 1640 O 161.744 0.399587 -3.53952 0
M  V30 1641 O 160.603 0.862133 -5.39657 0
M  V30 1642 H 157.697 0.165448 -0.810281 0
M  V30 1643 H 160.243 -0.42409 -1.64315 0
M  V30 1644 H 159.015 -0.652687 -3.85818 0
M  V30 1645 H 158.638 1.06212 -3.83151 0
M  V30 1646 N 159.635 1.57281 -0.100228 0
M  V30 1647 C 160.863 1.98879 0.570509 0
M  V30 1648 C 161.278 0.979476 1.61405 0
M  V30 1649 O 160.635 -0.0302288 1.82475 0
M  V30 1650 C 160.686 3.4052 1.2136 0
M  V30 1651 O 160.407 4.37588 0.211786 0
M  V30 1652 C 161.908 3.97149 1.96945 0
M  V30 1653 H 159.128 0.653428 0.152555 0
M  V30 1654 H 161.672 2.03697 -0.18103 0
M  V30 1655 H 159.827 3.367 1.91603 0
M  V30 1656 H 160.241 5.20118 0.676607 0
M  V30 1657 H 161.715 4.98393 2.37294 0
M  V30 1658 H 162.192 3.3525 2.83733 0
M  V30 1659 H 162.798 4.04458 1.31506 0
M  V30 1660 N 161.113 -0.173488 1.56642 0
M  V30 1661 C 162.341 -0.906095 1.86004 0
M  V30 1662 C 162.756 -1.75921 0.685355 0
M  V30 1663 O 162.113 -1.79198 -0.345578 0
M  V30 1664 C 162.164 -1.78462 3.14378 0
M  V30 1665 O 161.885 -0.965914 4.27319 0
M  V30 1666 C 163.386 -2.62707 3.57071 0
M  V30 1667 H 160.606 -0.263341 0.617165 0
M  V30 1668 H 163.15 -0.174236 2.03756 0
M  V30 1669 H 161.305 -2.46984 2.98459 0
M  V30 1670 H 161.719 -1.56655 5.00559 0
M  V30 1671 H 163.193 -3.19969 4.49804 0
M  V30 1672 H 163.67 -3.37472 2.81086 0
M  V30 1673 H 164.276 -1.99521 3.75595 0
M  V30 1674 N 162.591 -1.51276 -0.441967 0
M  V30 1675 C 163.554 -1.7167 -1.51862 0
M  V30 1676 C 164.554 -0.586793 -1.49711 0
M  V30 1677 O 165.744 -0.854276 -1.51815 0
M  V30 1678 C 162.876 -1.76889 -2.91416 0
M  V30 1679 H 164.069 -2.67754 -1.35084 0
M  V30 1680 H 161.622 -1.41196 -0.670333 0
M  V30 1681 H 162.357 -0.826026 -3.13604 0
M  V30 1682 H 162.142 -2.59001 -2.94382 0
M  V30 1683 H 163.632 -1.94522 -3.69528 0
M  V30 1684 N 164.069 0.697108 -1.41344 0
M  V30 1685 C 164.999 1.82353 -1.45841 0
M  V30 1686 C 165.98 1.67115 -0.317247 0
M  V30 1687 O 167.165 1.86871 -0.528474 0
M  V30 1688 C 164.295 3.20476 -1.33838 0
M  V30 1689 C 163.249 3.50415 -2.4575 0
M  V30 1690 C 162.575 4.87878 -2.18813 0
M  V30 1691 C 163.875 3.49546 -3.88091 0
M  V30 1692 H 165.569 1.78846 -2.40113 0
M  V30 1693 H 163.115 0.859028 -1.15571 0
M  V30 1694 H 165.068 3.98988 -1.35596 0
M  V30 1695 H 163.792 3.24604 -0.360498 0
M  V30 1696 H 162.451 2.74253 -2.43271 0
M  V30 1697 H 162.099 4.8863 -1.19371 0
M  V30 1698 H 161.799 5.08875 -2.93803 0
M  V30 1699 H 163.323 5.68702 -2.22284 0
M  V30 1700 H 164.737 4.18066 -3.92293 0
M  V30 1701 H 163.134 3.82075 -4.62751 0
M  V30 1702 H 164.204 2.48552 -4.16353 0
M  V30 1703 N 165.547 1.27147 0.931209 0
M  V30 1704 C 166.824 1.0401 1.65654 0
M  V30 1705 C 167.204 -0.426297 2.06751 0
M  V30 1706 O 166.552 -1.40879 1.79904 0
M  V30 1707 C 166.762 1.99834 2.86125 0
M  V30 1708 C 168.11 2.29007 3.57549 0
M  V30 1709 O 169.134 1.97779 2.96246 0
M  V30 1710 O 167.993 2.82222 4.67989 0
M  V30 1711 H 165.087 0.396239 0.725895 0
M  V30 1712 H 167.633 1.38397 0.982056 0
M  V30 1713 H 166.405 2.98744 2.52721 0
M  V30 1714 H 166.028 1.65987 3.61295 0
M  V30 1715 N 167.025 -1.13721 1.09112 0
M  V30 1716 C 167.935 -2.22638 0.73957 0
M  V30 1717 C 168.951 -1.72091 -0.257068 0
M  V30 1718 O 170.127 -2.01155 -0.0992154 0
M  V30 1719 C 167.192 -3.46322 0.16191 0
M  V30 1720 C 166.253 -4.11775 1.21408 0
M  V30 1721 C 165.486 -5.29555 0.663891 0
M  V30 1722 O 165.709 -5.68077 -0.514274 0
M  V30 1723 O 164.643 -5.84973 1.41738 0
M  V30 1724 H 168.469 -2.55074 1.64836 0
M  V30 1725 H 166.054 -1.21791 0.865289 0
M  V30 1726 H 167.936 -4.21107 -0.157073 0
M  V30 1727 H 166.611 -3.15593 -0.719932 0
M  V30 1728 H 165.518 -3.3883 1.58571 0
M  V30 1729 H 166.851 -4.46627 2.06845 0
M  V30 1730 N 168.503 -0.877838 -1.30888 0
M  V30 1731 C 169.433 -0.35534 -2.3078 0
M  V30 1732 C 170.414 0.557994 -1.60687 0
M  V30 1733 O 171.599 0.473355 -1.88343 0
M  V30 1734 C 168.729 0.437221 -3.44537 0
M  V30 1735 C 167.683 -0.383715 -4.26276 0
M  V30 1736 C 167.009 0.535014 -5.32017 0
M  V30 1737 C 168.309 -1.62201 -4.96476 0
M  V30 1738 H 170.003 -1.19007 -2.74732 0
M  V30 1739 H 167.549 -0.573698 -1.32078 0
M  V30 1740 H 169.502 0.813334 -4.13477 0
M  V30 1741 H 168.226 1.30553 -2.99372 0
M  V30 1742 H 166.885 -0.741874 -3.59015 0
M  V30 1743 H 166.533 1.40083 -4.831 0
M  V30 1744 H 166.233 -0.0104211 -5.87599 0
M  V30 1745 H 167.757 0.907799 -6.03814 0
M  V30 1746 H 169.171 -1.31689 -5.5797 0
M  V30 1747 H 167.568 -2.10711 -5.61891 0
M  V30 1748 H 168.638 -2.37044 -4.23011 0
M  V30 1749 N 169.982 1.44106 -0.638065 0
M  V30 1750 C 171.23 2.01579 -0.145043 0
M  V30 1751 C 171.551 1.50496 1.24 0
M  V30 1752 O 170.821 0.711374 1.82527 0
M  V30 1753 H 169.401 0.745282 -0.05063 0
M  V30 1754 H 172.063 1.76516 -0.826327 0
M  V30 1755 H 171.159 3.11877 -0.118039 0
M  V30 1756 N 171.46 0.379036 1.52974 0
M  V30 1757 C 172.39 -0.452706 2.29069 0
M  V30 1758 C 173.371 -1.07237 1.32039 0
M  V30 1759 O 174.556 -1.08708 1.60923 0
M  V30 1760 C 171.686 -1.5856 3.08992 0
M  V30 1761 C 170.64 -1.0925 4.13822 0
M  V30 1762 C 169.966 -2.31668 4.81907 0
M  V30 1763 C 171.266 -0.167702 5.22031 0
M  V30 1764 H 172.96 0.182181 2.98845 0
M  V30 1765 H 170.506 0.0890592 1.43724 0
M  V30 1766 H 172.459 -2.1742 3.6098 0
M  V30 1767 H 171.183 -2.24792 2.36931 0
M  V30 1768 H 169.842 -0.526494 3.628 0
M  V30 1769 H 169.49 -2.96386 4.06404 0
M  V30 1770 H 169.19 -1.9934 5.52754 0
M  V30 1771 H 170.714 -2.91189 5.36695 0
M  V30 1772 H 172.128 -0.664186 5.6944 0
M  V30 1773 H 170.525 0.0653265 6.00064 0
M  V30 1774 H 171.595 0.786347 4.78482 0
M  V30 1775 N 172.938 -1.57226 0.108567 0
M  V30 1776 C 174.163 -1.99604 -0.563303 0
M  V30 1777 C 174.588 -0.987563 -1.6009 0
M  V30 1778 O 173.946 0.0421687 -1.81251 0
M  V30 1779 C 173.994 -3.40902 -1.17552 0
M  V30 1780 O 173.098 -3.42896 -2.2912 0
M  V30 1781 H 172.439 -0.648704 -0.1417 0
M  V30 1782 H 174.969 -2.03679 0.193961 0
M  V30 1783 H 174.979 -3.78886 -1.51357 0
M  V30 1784 H 173.654 -4.1382 -0.415445 0
M  V30 1785 H 172.231 -3.1672 -1.96832 0
M  V30 1786 N 174.416 0.165178 -1.56732 0
M  V30 1787 C 175.363 1.2044 -1.96883 0
M  V30 1788 C 176.333 1.43664 -0.833657 0
M  V30 1789 O 177.518 1.56302 -1.09427 0
M  V30 1790 C 174.658 2.53727 -2.33916 0
M  V30 1791 C 173.771 2.3783 -3.6064 0
M  V30 1792 C 172.906 3.64026 -3.86857 0
M  V30 1793 C 171.945 3.43088 -5.06909 0
M  V30 1794 N 171.082 4.61369 -5.29229 0
M  V30 1795 H 175.922 0.854996 -2.85471 0
M  V30 1796 H 173.459 0.41076 -1.41249 0
M  V30 1797 H 175.417 3.31419 -2.53411 0
M  V30 1798 H 174.047 2.8665 -1.48431 0
M  V30 1799 H 173.099 1.51282 -3.49024 0
M  V30 1800 H 174.411 2.18308 -4.4849 0
M  V30 1801 H 173.565 4.50152 -4.06753 0
M  V30 1802 H 172.304 3.86533 -2.97394 0
M  V30 1803 H 171.309 2.55349 -4.86906 0
M  V30 1804 H 172.534 3.21997 -5.97909 0
M  V30 1805 H 170.48 4.84084 -4.42718 0
M  V30 1806 H 170.397 4.44783 -6.11313 0
M  V30 1807 H 171.665 5.48761 -5.53608 0
M  V30 1808 N 175.894 1.51508 0.433938 0
M  V30 1809 C 177.124 1.67914 1.20369 0
M  V30 1810 C 177.532 0.377461 1.85397 0
M  V30 1811 O 176.875 -0.654255 1.71654 0
M  V30 1812 C 176.937 2.74045 2.32679 0
M  V30 1813 C 176.601 4.16543 1.87991 0
M  V30 1814 C 177.598 5.01211 1.38145 0
M  V30 1815 C 175.283 4.6266 1.95579 0
M  V30 1816 C 177.277 6.30056 0.964774 0
M  V30 1817 C 174.964 5.91501 1.53523 0
M  V30 1818 C 175.962 6.75027 1.04055 0
M  V30 1819 O 175.65 8.01459 0.625964 0
M  V30 1820 H 175.382 0.566578 0.368735 0
M  V30 1821 H 177.936 1.98709 0.51999 0
M  V30 1822 H 176.166 2.38572 3.04336 0
M  V30 1823 H 177.855 2.79295 2.94532 0
M  V30 1824 H 178.621 4.66783 1.31675 0
M  V30 1825 H 174.5 3.97767 2.33029 0
M  V30 1826 H 178.044 6.95202 0.57796 0
M  V30 1827 H 173.941 6.25442 1.59665 0
M  V30 1828 H 174.709 8.15043 0.751509 0
M  V30 1829 N 177.372 -0.689602 1.41712 0
M  V30 1830 C 178.302 -1.81577 1.46806 0
M  V30 1831 C 179.283 -1.66945 0.326105 0
M  V30 1832 O 180.468 -1.86588 0.538377 0
M  V30 1833 C 177.598 -3.19762 1.35535 0
M  V30 1834 C 176.552 -3.49107 2.47605 0
M  V30 1835 C 175.878 -4.86711 2.21397 0
M  V30 1836 C 177.178 -3.47483 3.89939 0
M  V30 1837 H 178.872 -1.7757 2.41058 0
M  V30 1838 H 176.418 -0.852887 1.16025 0
M  V30 1839 H 178.371 -3.98263 1.3771 0
M  V30 1840 H 177.095 -3.24409 0.377708 0
M  V30 1841 H 175.754 -2.72959 2.44722 0
M  V30 1842 H 175.402 -4.8799 1.21961 0
M  V30 1843 H 175.102 -5.0731 2.96497 0
M  V30 1844 H 176.626 -5.67515 2.25297 0
M  V30 1845 H 178.04 -4.1598 3.94505 0
M  V30 1846 H 176.437 -3.79615 4.64771 0
M  V30 1847 H 177.507 -2.46341 4.17665 0
M  V30 1848 N 178.85 -1.27639 -0.924453 0
M  V30 1849 C 179.76 -1.12466 -2.05885 0
M  V30 1850 C 180.776 -0.053869 -1.73917 0
M  V30 1851 O 181.952 -0.261012 -1.99702 0
M  V30 1852 C 179.017 -0.776768 -3.37886 0
M  V30 1853 C 178.078 -1.92878 -3.83532 0
M  V30 1854 C 177.311 -1.59739 -5.09234 0
M  V30 1855 O 177.534 -0.506782 -5.68144 0
M  V30 1856 O 176.468 -2.43761 -5.50331 0
M  V30 1857 H 180.294 -2.07671 -2.21599 0
M  V30 1858 H 177.879 -1.06857 -1.04413 0
M  V30 1859 H 179.761 -0.596229 -4.17161 0
M  V30 1860 H 178.436 0.145732 -3.23372 0
M  V30 1861 H 177.343 -2.1644 -3.0513 0
M  V30 1862 H 178.676 -2.8316 -4.02593 0
M  V30 1863 N 180.328 1.1314 -1.09713 0
M  V30 1864 C 181.553 1.88862 -0.857081 0
M  V30 1865 C 181.978 1.78729 0.586304 0
M  V30 1866 O 181.336 1.13692 1.41222 0
M  V30 1867 C 181.384 3.36325 -1.30069 0
M  V30 1868 O 180.488 4.09815 -0.461007 0
M  V30 1869 H 179.829 0.587108 -0.310162 0
M  V30 1870 H 182.359 1.43129 -1.46203 0
M  V30 1871 H 182.369 3.87157 -1.28738 0
M  V30 1872 H 181.044 3.43017 -2.35185 0
M  V30 1873 H 179.621 3.68986 -0.538888 0
M  V30 1874 N 181.806 0.884767 1.30421 0
M  V30 1875 C 182.754 0.340869 2.30089 0
M  V30 1876 C 183.748 -0.55201 1.60154 0
M  V30 1877 O 184.954 -0.436467 1.74628 0
M  V30 1878 H 181.329 0.0915739 0.746404 0
M  V30 1879 H 183.3 1.19513 2.73421 0
M  V30 1880 C 182.049 -0.429779 3.45034 0
M  V30 1881 H 181.372 0.248024 3.9903 0
M  V30 1882 H 182.812 -0.775445 4.16849 0
M  V30 1883 C 181.271 -1.62677 2.95022 0
M  V30 1884 O 181.801 -2.72614 2.95033 0
M  V30 1885 N 180.007 -1.46387 2.51036 0
M  V30 1886 H 179.554 -0.569506 2.51226 0
M  V30 1887 H 179.512 -2.26612 2.17932 0
M  V30 1888 N 183.284 -1.43765 0.645699 0
M  V30 1889 C 184.532 -2.01499 0.155731 0
M  V30 1890 C 184.853 -1.51151 -1.232 0
M  V30 1891 O 184.123 -0.721044 -1.82148 0
M  V30 1892 H 182.703 -0.745003 0.0545817 0
M  V30 1893 H 185.365 -1.76075 0.835677 0
M  V30 1894 H 184.461 -3.1181 0.134577 0
M  V30 1895 N 184.763 -0.387143 -1.52771 0
M  V30 1896 C 186.012 0.19697 -2.00736 0
M  V30 1897 C 186.325 1.48082 -1.27793 0
M  V30 1898 O 187.531 2.14485 -1.66458 0
M  V30 1899 C 185.987 0.401568 -3.57653 0
M  V30 1900 C 185.595 -0.868907 -4.39493 0
M  V30 1901 C 187.339 0.942164 -4.13912 0
M  V30 1902 C 185.246 -0.632705 -5.88006 0
M  V30 1903 H 184.176 0.0773827 -0.750019 0
M  V30 1904 H 186.827 -0.50921 -1.76293 0
M  V30 1905 H 185.209 1.16954 -3.78335 0
M  V30 1906 H 186.383 -1.64133 -4.30577 0
M  V30 1907 H 184.698 -1.33429 -3.94443 0
M  V30 1908 H 187.295 1.13455 -5.22525 0
M  V30 1909 H 187.638 1.9106 -3.69867 0
M  V30 1910 H 188.171 0.233814 -3.97112 0
M  V30 1911 H 184.91 -1.57208 -6.36369 0
M  V30 1912 H 184.43 0.100825 -5.99715 0
M  V30 1913 H 186.109 -0.26642 -6.46451 0
M  V30 1914 N 186.241 1.57166 -0.116904 0
M  V30 1915 C 187.188 2.15202 0.83408 0
M  V30 1916 C 188.158 1.07644 1.26499 0
M  V30 1917 O 189.343 1.35541 1.34288 0
M  V30 1918 C 186.483 2.75405 2.07957 0
M  V30 1919 C 185.596 3.97264 1.69721 0
M  V30 1920 C 184.731 4.45561 2.89221 0
M  V30 1921 C 183.77 5.59956 2.47215 0
M  V30 1922 N 182.907 6.03006 3.59622 0
M  V30 1923 H 187.747 2.96141 0.332335 0
M  V30 1924 H 185.284 1.46309 0.152349 0
M  V30 1925 H 187.242 3.08439 2.80929 0
M  V30 1926 H 185.872 1.97159 2.55594 0
M  V30 1927 H 184.924 3.70404 0.866316 0
M  V30 1928 H 186.236 4.80226 1.34849 0
M  V30 1929 H 185.39 4.80493 3.7042 0
M  V30 1930 H 184.129 3.61544 3.27318 0
M  V30 1931 H 183.134 5.2463 1.64448 0
M  V30 1932 H 184.359 6.45738 2.10238 0
M  V30 1933 H 182.305 5.21931 3.97396 0
M  V30 1934 H 182.222 6.80819 3.28667 0
M  V30 1935 H 183.49 6.42576 4.41267 0
M  V30 1936 N 187.719 -0.156864 1.56817 0
M  V30 1937 C 188.965 -0.872416 1.83076 0
M  V30 1938 C 189.298 -1.81261 0.697001 0
M  V30 1939 O 188.573 -1.92171 -0.30008 0
M  V30 1940 C 188.856 -1.65551 3.19789 0
M  V30 1941 C 188.709 -0.737467 4.43713 0
M  V30 1942 C 190.028 -2.62012 3.53606 0
M  V30 1943 H 187.147 -0.315715 0.665953 0
M  V30 1944 H 189.789 -0.138004 1.89498 0
M  V30 1945 H 187.939 -2.28159 3.14445 0
M  V30 1946 H 189.611 -0.123143 4.61136 0
M  V30 1947 H 187.854 -0.0464067 4.33775 0
M  V30 1948 H 188.525 -1.32122 5.35955 0
M  V30 1949 H 191.001 -2.09525 3.59497 0
M  V30 1950 H 189.877 -3.13861 4.50314 0
M  V30 1951 H 190.138 -3.42902 2.79053 0
M  V30 1952 N 189.197 -1.51736 -0.425897 0
M  V30 1953 C 190.422 -1.69082 -1.20108 0
M  V30 1954 C 190.847 -0.392398 -1.83962 0
M  V30 1955 O 190.205 0.64858 -1.69302 0
M  V30 1956 C 190.253 -2.81604 -2.25237 0
M  V30 1957 O 189.357 -2.46004 -3.30992 0
M  V30 1958 H 188.698 -0.563408 -0.35138 0
M  V30 1959 H 191.228 -1.98358 -0.501512 0
M  V30 1960 H 191.238 -3.06025 -2.69838 0
M  V30 1961 H 189.913 -3.75817 -1.78142 0
M  V30 1962 H 188.49 -2.32195 -2.91787 0
M  V30 1963 N 190.675 0.682077 -1.42076 0
M  V30 1964 C 191.923 1.4393 -1.41876 0
M  V30 1965 C 192.244 1.94971 -0.0335599 0
M  V30 1966 O 191.514 1.72591 0.926773 0
M  V30 1967 H 190.094 0.534085 -0.522267 0
M  V30 1968 H 192.756 0.806427 -1.77434 0
M  V30 1969 H 191.852 2.29588 -2.11414 0
M  V30 1970 N 192.153 1.28127 0.917671 0
M  V30 1971 C 193.083 1.14248 2.03641 0
M  V30 1972 C 194.064 0.0412748 1.7005 0
M  V30 1973 O 195.249 0.217566 1.92977 0
M  V30 1974 C 192.379 0.799431 3.37974 0
M  V30 1975 C 191.333 1.85497 3.85713 0
M  V30 1976 C 190.659 1.36565 5.16966 0
M  V30 1977 C 191.959 3.26085 4.08002 0
M  V30 1978 H 193.653 2.07835 2.15511 0
M  V30 1979 H 191.199 1.00064 1.03553 0
M  V30 1980 H 193.152 0.689114 4.15727 0
M  V30 1981 H 191.876 -0.172145 3.26146 0
M  V30 1982 H 190.535 1.95437 3.10161 0
M  V30 1983 H 190.183 0.383253 5.01538 0
M  V30 1984 H 189.883 2.07143 5.49878 0
M  V30 1985 H 191.407 1.26848 5.97279 0
M  V30 1986 H 192.821 3.19089 4.76293 0
M  V30 1987 H 191.218 3.94462 4.52238 0
M  V30 1988 H 192.288 3.70394 3.12948 0
M  V30 1989 N 193.631 -1.12557 1.10312 0
M  V30 1990 C 194.561 -2.20341 0.772798 0
M  V30 1991 C 195.542 -1.68198 -0.25365 0
M  V30 1992 O 196.727 -1.93831 -0.119699 0
M  V30 1993 C 193.857 -3.46709 0.202443 0
M  V30 1994 C 192.811 -4.11996 1.15943 0
M  V30 1995 C 192.137 -5.328 0.450345 0
M  V30 1996 C 193.437 -4.5828 2.50552 0
M  V30 1997 H 195.131 -2.48229 1.674 0
M  V30 1998 H 192.677 -1.19308 0.806326 0
M  V30 1999 H 194.63 -4.2138 -0.0407752 0
M  V30 2000 H 193.354 -3.18245 -0.734001 0
M  V30 2001 H 192.013 -3.39305 1.38808 0
M  V30 2002 H 191.661 -5.00602 -0.490531 0
M  V30 2003 H 191.361 -5.7743 1.08851 0
M  V30 2004 H 192.885 -6.10219 0.215642 0
M  V30 2005 H 194.299 -5.2433 2.31843 0
M  V30 2006 H 192.696 -5.13683 3.10242 0
M  V30 2007 H 193.766 -3.72329 3.10643 0
M  V30 2008 N 195.109 -0.891671 -1.2995 0
M  V30 2009 C 196.355 -0.514261 -1.96171 0
M  V30 2010 C 196.688 0.935506 -1.70182 0
M  V30 2011 O 195.963 1.66204 -1.01028 0
M  V30 2012 C 196.246 -0.797719 -3.51153 0
M  V30 2013 C 196.099 -2.2986 -3.86632 0
M  V30 2014 C 197.418 -0.278749 -4.39216 0
M  V30 2015 H 194.537 -0.188314 -0.712535 0
M  V30 2016 H 197.179 -1.11689 -1.53706 0
M  V30 2017 H 195.329 -0.284826 -3.87455 0
M  V30 2018 H 197.001 -2.88042 -3.60319 0
M  V30 2019 H 195.244 -2.76257 -3.34462 0
M  V30 2020 H 195.915 -2.44753 -4.94773 0
M  V30 2021 H 198.391 -0.717825 -4.09862 0
M  V30 2022 H 197.267 -0.506353 -5.46559 0
M  V30 2023 H 197.528 0.820266 -4.34424 0
M  V30 2024 N 196.587 1.43421 -0.653314 0
M  V30 2025 C 197.517 2.33487 0.0246656 0
M  V30 2026 C 198.498 1.49475 0.811863 0
M  V30 2027 O 199.683 1.78139 0.773322 0
M  V30 2028 C 196.813 3.32841 0.99166 0
M  V30 2029 C 195.767 4.26842 0.314568 0
M  V30 2030 C 195.093 5.16236 1.39302 0
M  V30 2031 C 196.393 5.16243 -0.793095 0
M  V30 2032 H 198.087 2.90427 -0.727481 0
M  V30 2033 H 195.633 1.39649 -0.351287 0
M  V30 2034 H 197.586 3.94747 1.47487 0
M  V30 2035 H 196.31 2.74158 1.77497 0
M  V30 2036 H 194.969 3.663 -0.148199 0
M  V30 2037 H 194.617 4.53891 2.16776 0
M  V30 2038 H 194.317 5.79948 0.945223 0
M  V30 2039 H 195.841 5.81015 1.87759 0
M  V30 2040 H 197.255 5.71958 -0.392039 0
M  V30 2041 H 195.652 5.88676 -1.16536 0
M  V30 2042 H 196.722 4.55927 -1.65103 0
M  V30 2043 N 198.065 0.39524 1.52563 0
M  V30 2044 C 199.342 -0.242908 1.94086 0
M  V30 2045 C 199.722 -1.63841 1.33114 0
M  V30 2046 O 199.07 -2.22928 0.501529 0
M  V30 2047 C 199.28 -0.26327 3.48006 0
M  V30 2048 C 200.628 -0.489354 4.21771 0
M  V30 2049 O 201.652 -0.343226 3.54543 0
M  V30 2050 O 200.511 -0.776169 5.4096 0
M  V30 2051 H 197.605 -0.152536 0.812811 0
M  V30 2052 H 200.151 0.450178 1.6362 0
M  V30 2053 H 198.923 0.713985 3.84731 0
M  V30 2054 H 198.546 -1.00103 3.84792 0
M  V30 2055 N 199.544 -1.57102 0.125237 0
M  V30 2056 C 200.774 -1.99472 -0.538015 0
M  V30 2057 C 201.182 -1.00395 -1.60366 0
M  V30 2058 O 200.525 0.0103875 -1.83697 0
M  V30 2059 C 200.587 -3.38262 -1.21734 0
M  V30 2060 C 200.251 -4.56021 -0.298897 0
M  V30 2061 C 201.248 -5.17817 0.464943 0
M  V30 2062 C 198.933 -5.01869 -0.208149 0
M  V30 2063 C 200.927 -6.23852 1.3072 0
M  V30 2064 C 198.614 -6.07763 0.637736 0
M  V30 2065 C 199.612 -6.68622 1.39403 0
M  V30 2066 O 199.3 -7.7247 2.22586 0
M  V30 2067 H 199.032 -0.659934 -0.146501 0
M  V30 2068 H 201.586 -2.04321 0.210267 0
M  V30 2069 H 199.816 -3.30185 -2.01282 0
M  V30 2070 H 201.505 -3.6488 -1.77813 0
M  V30 2071 H 202.271 -4.83308 0.404741 0
M  V30 2072 H 198.15 -4.54241 -0.786522 0
M  V30 2073 H 201.694 -6.71284 1.898 0
M  V30 2074 H 197.591 -6.41701 0.699309 0
M  V30 2075 H 198.359 -7.89595 2.15596 0
M  V30 2076 N 201.022 0.148545 -1.56898 0
M  V30 2077 C 202.247 0.880385 -1.87787 0
M  V30 2078 C 202.672 1.74018 -0.714093 0
M  V30 2079 O 202.03 1.78153 0.336343 0
M  V30 2080 C 202.078 1.71422 -3.17249 0
M  V30 2081 O 201.182 2.8183 -3.01074 0
M  V30 2082 H 200.523 0.245301 -0.617028 0
M  V30 2083 H 203.053 0.139826 -2.04122 0
M  V30 2084 H 203.063 2.10954 -3.49231 0
M  V30 2085 H 201.738 1.08284 -4.01556 0
M  V30 2086 H 200.315 2.45715 -2.80497 0
M  V30 2087 N 202.5 1.5196 0.417844 0
M  V30 2088 C 203.447 1.74678 1.50852 0
M  V30 2089 C 204.417 0.588947 1.55308 0
M  V30 2090 O 205.602 0.825544 1.72016 0
M  V30 2091 C 202.742 1.89544 2.88387 0
M  V30 2092 C 201.855 3.17166 2.93309 0
M  V30 2093 C 200.99 3.22513 4.22088 0
M  V30 2094 C 200.029 4.44372 4.20951 0
M  V30 2095 N 199.166 4.47161 5.41287 0
M  V30 2096 H 204.006 2.67768 1.30783 0
M  V30 2097 H 201.543 1.32689 0.63498 0
M  V30 2098 H 203.501 1.96146 3.68216 0
M  V30 2099 H 202.131 0.998424 3.06971 0
M  V30 2100 H 201.183 3.19778 2.06024 0
M  V30 2101 H 202.495 4.07021 2.88332 0
M  V30 2102 H 201.649 3.28139 5.10303 0
M  V30 2103 H 200.388 2.30581 4.29748 0
M  V30 2104 H 199.393 4.38902 3.31127 0
M  V30 2105 H 200.618 5.3759 4.14938 0
M  V30 2106 H 198.564 3.58108 5.49632 0
M  V30 2107 H 198.481 5.3085 5.3827 0
M  V30 2108 H 199.749 4.57005 6.3148 0
M  V30 2109 N 203.978 -0.674533 1.42435 0
M  V30 2110 C 205.255 -1.4305 1.33402 0
M  V30 2111 C 205.635 -2.11081 -0.0284674 0
M  V30 2112 O 204.983 -2.03257 -1.04397 0
M  V30 2113 C 205.193 -2.43272 2.50239 0
M  V30 2114 C 206.541 -3.07907 2.92367 0
M  V30 2115 O 207.565 -2.53599 2.50132 0
M  V30 2116 O 206.424 -4.0632 3.65467 0
M  V30 2117 H 203.518 -0.638076 0.526106 0
M  V30 2118 H 206.064 -0.703235 1.54443 0
M  V30 2119 H 204.836 -1.91803 3.41068 0
M  V30 2120 H 204.459 -3.23479 2.31186 0
M  V30 2121 N 205.456 -1.28612 -0.910864 0
M  V30 2122 C 206.686 -1.1862 -1.69153 0
M  V30 2123 C 207.094 0.257324 -1.87442 0
M  V30 2124 O 206.437 1.18543 -1.40332 0
M  V30 2125 C 206.499 -1.81606 -3.10257 0
M  V30 2126 C 206.163 -3.30864 -3.15243 0
M  V30 2127 C 207.16 -4.27256 -2.96223 0
M  V30 2128 C 204.845 -3.71871 -3.37664 0
M  V30 2129 C 206.839 -5.62631 -2.99541 0
M  V30 2130 C 204.526 -5.07371 -3.40614 0
M  V30 2131 C 205.524 -6.02561 -3.21573 0
M  V30 2132 O 205.212 -7.35589 -3.2429 0
M  V30 2133 H 204.944 -0.412633 -0.535453 0
M  V30 2134 H 207.498 -1.70306 -1.14827 0
M  V30 2135 H 205.728 -1.24418 -3.66138 0
M  V30 2136 H 207.417 -1.66092 -3.70362 0
M  V30 2137 H 208.183 -3.9691 -2.78725 0
M  V30 2138 H 204.062 -2.98241 -3.5153 0
M  V30 2139 H 207.606 -6.36907 -2.84597 0
M  V30 2140 H 203.503 -5.37366 -3.57642 0
M  V30 2141 H 204.271 -7.44252 -3.40633 0
M  V30 2142 N 206.934 1.1197 -1.10907 0
M  V30 2143 C 207.882 2.19927 -0.757303 0
M  V30 2144 C 208.876 1.67564 0.248747 0
M  V30 2145 O 210.082 1.79672 0.108605 0
M  V30 2146 H 206.457 0.716925 -0.226987 0
M  V30 2147 H 208.428 2.46847 -1.67658 0
M  V30 2148 C 207.177 3.47061 -0.210671 0
M  V30 2149 H 206.5 3.87703 -0.976049 0
M  V30 2150 H 207.94 4.24 -0.0026584 0
M  V30 2151 C 206.399 3.19864 1.05777 0
M  V30 2152 O 206.929 3.40049 2.13845 0
M  V30 2153 N 205.135 2.73636 0.978349 0
M  V30 2154 H 204.682 2.5741 0.0988246 0
M  V30 2155 H 204.64 2.55815 1.82773 0
M  V30 2156 N 208.412 0.89855 1.29475 0
M  V30 2157 C 209.362 0.346767 2.25348 0
M  V30 2158 C 210.346 -0.532509 1.51833 0
M  V30 2159 O 211.538 -0.374714 1.72988 0
M  V30 2160 C 208.667 -0.425681 3.40651 0
M  V30 2161 C 207.753 0.46845 4.21505 0
M  V30 2162 N 208.144 1.57514 4.80648 0
M  V30 2163 C 206.442 0.26603 4.45206 0
M  V30 2164 C 207.143 2.12889 5.41344 0
M  V30 2165 N 206.119 1.42208 5.24669 0
M  V30 2166 H 209.921 1.19219 2.68634 0
M  V30 2167 H 207.435 0.749473 1.44072 0
M  V30 2168 H 209.432 -0.837716 4.08397 0
M  V30 2169 H 208.092 -1.26838 2.98902 0
M  V30 2170 H 209.103 1.95789 4.79465 0
M  V30 2171 H 205.78 -0.538394 4.14014 0
M  V30 2172 H 207.17 3.05901 5.98226 0
M  V30 2173 N 209.89 -1.43072 0.660911 0
M  V30 2174 C 211.136 -2.02545 0.186337 0
M  V30 2175 C 211.491 -1.51253 -1.18913 0
M  V30 2176 O 210.784 -0.699167 -1.78388 0
M  V30 2177 C 210.978 -3.57103 0.145563 0
M  V30 2178 C 210.807 -4.23393 1.51554 0
M  V30 2179 C 209.577 -4.59144 2.10984 0
M  V30 2180 C 211.775 -4.51897 2.45548 0
M  V30 2181 N 209.757 -5.10545 3.40907 0
M  V30 2182 C 211.128 -5.04698 3.6011 0
M  V30 2183 C 213.183 -4.33872 2.44253 0
M  V30 2184 C 211.886 -5.41371 4.73613 0
M  V30 2185 C 213.912 -4.71612 3.56842 0
M  V30 2186 C 213.274 -5.24553 4.70131 0
M  V30 2187 H 209.373 -0.773823 0.112792 0
M  V30 2188 H 211.957 -1.74137 0.870885 0
M  V30 2189 H 210.128 -3.85059 -0.508353 0
M  V30 2190 H 211.86 -4.03264 -0.340598 0
M  V30 2191 H 208.615 -4.4444 1.63615 0
M  V30 2192 H 209.039 -5.40689 4.07411 0
M  V30 2193 H 213.681 -3.92208 1.579 0
M  V30 2194 H 211.399 -5.81975 5.60652 0
M  V30 2195 H 214.985 -4.59354 3.57051 0
M  V30 2196 H 213.865 -5.53213 5.5581 0
M  V30 2197 N 211.368 -0.403325 -1.52352 0
M  V30 2198 C 212.298 0.416205 -2.29761 0
M  V30 2199 C 213.279 1.05123 -1.33728 0
M  V30 2200 O 214.464 1.06134 -1.62632 0
M  V30 2201 C 211.594 1.53624 -3.11475 0
M  V30 2202 C 210.548 1.02653 -4.15507 0
M  V30 2203 C 209.874 2.23971 -4.85532 0
M  V30 2204 C 211.174 0.08463 -5.22231 0
M  V30 2205 H 212.868 -0.229701 -2.98518 0
M  V30 2206 H 210.414 -0.111913 -1.43564 0
M  V30 2207 H 212.367 2.1165 -3.64393 0
M  V30 2208 H 211.091 2.20994 -2.40477 0
M  V30 2209 H 209.75 0.46871 -3.63591 0
M  V30 2210 H 209.398 2.89883 -4.11068 0
M  V30 2211 H 209.098 1.90521 -5.55856 0
M  V30 2212 H 210.622 2.82614 -5.41259 0
M  V30 2213 H 212.036 0.573509 -5.70424 0
M  V30 2214 H 210.433 -0.160783 -5.99885 0
M  V30 2215 H 211.503 -0.86237 -4.7717 0
M  V30 2216 N 212.846 1.57033 -0.133567 0
M  V30 2217 C 213.809 2.14897 0.796995 0
M  V30 2218 C 214.809 1.0874 1.18458 0
M  V30 2219 O 215.999 1.34446 1.1077 0
M  V30 2220 C 213.131 2.70112 2.07973 0
M  V30 2221 H 214.324 2.98457 0.293873 0
M  V30 2222 H 211.877 1.55871 0.115787 0
M  V30 2223 H 212.612 1.9018 2.62682 0
M  V30 2224 H 212.397 3.47764 1.81115 0
M  V30 2225 H 213.887 3.14738 2.74462 0
M  V30 2226 N 214.325 -0.140222 1.56975 0
M  V30 2227 C 215.553 -0.866437 1.87884 0
M  V30 2228 C 215.968 -1.74428 0.722517 0
M  V30 2229 O 215.325 -1.79891 -0.30749 0
M  V30 2230 C 215.376 -1.71753 3.18093 0
M  V30 2231 O 215.097 -0.875056 4.29272 0
M  V30 2232 C 216.598 -2.55074 3.62563 0
M  V30 2233 H 213.818 -0.25019 0.622612 0
M  V30 2234 H 216.362 -0.130977 2.0408 0
M  V30 2235 H 214.517 -2.40598 3.03631 0
M  V30 2236 H 214.931 -1.46002 5.03769 0
M  V30 2237 H 216.405 -3.10356 4.5649 0
M  V30 2238 H 216.882 -3.31434 2.88181 0
M  V30 2239 H 217.488 -1.91509 3.79743 0
M  V30 2240 N 215.803 -1.52179 -0.40978 0
M  V30 2241 C 216.75 -1.75475 -1.49924 0
M  V30 2242 C 217.72 -0.597175 -1.54994 0
M  V30 2243 O 218.905 -0.834655 -1.71575 0
M  V30 2244 C 216.045 -1.9107 -2.87378 0
M  V30 2245 C 215.158 -3.18717 -2.91622 0
M  V30 2246 C 214.293 -3.24747 -4.20372 0
M  V30 2247 C 213.332 -4.46598 -4.18588 0
M  V30 2248 N 212.469 -4.50025 -5.38908 0
M  V30 2249 H 217.309 -2.68458 -1.29361 0
M  V30 2250 H 214.846 -1.33024 -0.627934 0
M  V30 2251 H 216.804 -1.98096 -3.6717 0
M  V30 2252 H 215.434 -1.01469 -3.06437 0
M  V30 2253 H 214.486 -3.20866 -2.04326 0
M  V30 2254 H 215.798 -4.08544 -2.86169 0
M  V30 2255 H 214.952 -3.30841 -5.08556 0
M  V30 2256 H 213.691 -2.32857 -4.28519 0
M  V30 2257 H 212.696 -4.40652 -3.28794 0
M  V30 2258 H 213.921 -5.39783 -4.12081 0
M  V30 2259 H 211.867 -3.61017 -5.47725 0
M  V30 2260 H 211.784 -5.33697 -5.35447 0
M  V30 2261 H 213.052 -4.60347 -6.29048 0
M  V30 2262 N 217.281 0.66697 -1.42791 0
M  V30 2263 C 218.506 1.46004 -1.47301 0
M  V30 2264 C 218.931 1.87894 -0.0880317 0
M  V30 2265 O 218.289 1.56502 0.915253 0
M  V30 2266 C 218.337 2.68031 -2.41229 0
M  V30 2267 O 217.441 3.6659 -1.88906 0
M  V30 2268 H 216.782 0.43832 -0.49877 0
M  V30 2269 H 219.312 0.817391 -1.87563 0
M  V30 2270 H 219.322 3.1601 -2.58073 0
M  V30 2271 H 217.997 2.36883 -3.41847 0
M  V30 2272 H 216.574 3.25661 -1.81656 0
M  V30 2273 N 218.759 1.29093 0.90403 0
M  V30 2274 C 219.689 1.16401 2.02418 0
M  V30 2275 C 220.67 0.0593085 1.69997 0
M  V30 2276 O 221.855 0.238021 1.92736 0
M  V30 2277 C 218.985 0.835233 3.37107 0
M  V30 2278 C 217.939 1.89578 3.83724 0
M  V30 2279 C 217.265 1.42041 5.15489 0
M  V30 2280 C 218.565 3.30394 4.04521 0
M  V30 2281 H 220.259 2.10109 2.13295 0
M  V30 2282 H 217.805 1.01157 1.02486 0
M  V30 2283 H 219.758 0.733169 4.14973 0
M  V30 2284 H 218.482 -0.137543 3.2631 0
M  V30 2285 H 217.141 1.98715 3.08071 0
M  V30 2286 H 216.789 0.436426 5.01103 0
M  V30 2287 H 216.489 2.12964 5.4765 0
M  V30 2288 H 218.013 1.33176 5.959 0
M  V30 2289 H 219.427 3.24123 4.72882 0
M  V30 2290 H 217.824 3.99237 4.48029 0
M  V30 2291 H 218.894 3.73692 3.09002 0
M  V30 2292 N 220.237 -1.11381 1.11499 0
M  V30 2293 C 221.485 -1.8277 0.862524 0
M  V30 2294 C 221.806 -1.85097 -0.613534 0
M  V30 2295 O 221.076 -1.32198 -1.4457 0
M  V30 2296 H 219.656 -0.676823 0.316101 0
M  V30 2297 H 222.318 -1.34816 1.4075 0
M  V30 2298 H 221.414 -2.86614 1.23527 0
M  V30 2299 N 221.715 -0.905404 -1.28997 0
M  V30 2300 C 222.647 -0.344748 -2.26592 0
M  V30 2301 C 223.66 0.512135 -1.54535 0
M  V30 2302 O 224.849 0.328368 -1.75454 0
M  V30 2303 C 221.949 0.526587 -3.34784 0
M  V30 2304 C 221.122 -0.305871 -4.36329 0
M  V30 2305 C 220.181 0.499209 -5.23827 0
M  V30 2306 O 219.207 -0.0853004 -5.69136 0
M  V30 2307 N 220.409 1.80408 -5.51755 0
M  V30 2308 H 223.174 -1.18359 -2.75338 0
M  V30 2309 H 220.735 -0.770481 -1.42391 0
M  V30 2310 H 222.727 1.07171 -3.90252 0
M  V30 2311 H 221.297 1.26613 -2.85811 0
M  V30 2312 H 220.517 -1.0324 -3.80441 0
M  V30 2313 H 221.805 -0.875773 -5.01206 0
M  V30 2314 H 221.203 2.3016 -5.16762 0
M  V30 2315 H 219.76 2.29621 -6.10014 0
M  V30 2316 N 223.193 1.4272 -0.668489 0
M  V30 2317 C 224.439 2.02443 -0.197076 0
M  V30 2318 C 224.794 1.51882 1.18109 0
M  V30 2319 O 224.087 0.708618 1.78015 0
M  V30 2320 C 224.281 3.57021 -0.164499 0
M  V30 2321 C 224.11 4.22583 -1.53797 0
M  V30 2322 C 222.88 4.58019 -2.13416 0
M  V30 2323 C 225.078 4.50588 -2.47941 0
M  V30 2324 N 223.06 5.08729 -3.4361 0
M  V30 2325 C 224.431 5.02782 -3.62782 0
M  V30 2326 C 226.486 4.32571 -2.46551 0
M  V30 2327 C 225.189 5.38852 -4.76478 0
M  V30 2328 C 227.215 4.69713 -3.59338 0
M  V30 2329 C 226.577 5.22053 -4.72906 0
M  V30 2330 H 222.676 0.773214 -0.116894 0
M  V30 2331 H 225.26 1.73673 -0.880108 0
M  V30 2332 H 223.431 3.85323 0.487925 0
M  V30 2333 H 225.163 4.03439 0.319207 0
M  V30 2334 H 221.918 4.43566 -1.65969 0
M  V30 2335 H 222.342 5.38521 -4.10273 0
M  V30 2336 H 226.984 3.91365 -1.59978 0
M  V30 2337 H 224.702 5.78993 -5.63731 0
M  V30 2338 H 228.288 4.57454 -3.59482 0
M  V30 2339 H 227.168 5.50258 -5.58736 0
M  V30 2340 N 224.671 0.411399 1.52136 0
M  V30 2341 C 225.601 -0.404015 2.29978 0
M  V30 2342 C 226.582 -1.04412 1.34284 0
M  V30 2343 O 227.767 -1.0527 1.63192 0
M  V30 2344 C 224.897 -1.5197 3.12286 0
M  V30 2345 C 223.851 -1.00448 4.16046 0
M  V30 2346 C 223.177 -2.21393 4.86712 0
M  V30 2347 C 224.477 -0.0569336 5.22269 0
M  V30 2348 H 226.171 0.245529 2.98392 0
M  V30 2349 H 223.717 0.119525 1.43503 0
M  V30 2350 H 225.67 -2.09715 3.6551 0
M  V30 2351 H 224.394 -2.19716 2.41646 0
M  V30 2352 H 223.053 -0.449421 3.63835 0
M  V30 2353 H 222.701 -2.87699 4.12599 0
M  V30 2354 H 222.401 -1.87571 5.56858 0
M  V30 2355 H 223.925 -2.7974 5.4275 0
M  V30 2356 H 225.339 -0.54325 5.7072 0
M  V30 2357 H 223.736 0.192594 5.99791 0
M  V30 2358 H 224.806 0.887663 4.76706 0
M  V30 2359 N 226.149 -1.5696 0.141893 0
M  V30 2360 C 227.081 -2.13619 -0.830627 0
M  V30 2361 C 228.094 -1.08439 -1.21428 0
M  V30 2362 O 229.283 -1.35734 -1.15925 0
M  V30 2363 C 226.383 -2.63978 -2.12529 0
M  V30 2364 C 225.556 -3.93504 -1.9098 0
M  V30 2365 C 224.615 -4.29225 -3.04388 0
M  V30 2366 O 223.641 -4.97641 -2.76302 0
M  V30 2367 N 224.843 -3.88393 -4.31429 0
M  V30 2368 H 227.608 -2.97691 -0.34641 0
M  V30 2369 H 225.169 -1.61846 -0.0418375 0
M  V30 2370 H 227.161 -2.84891 -2.87436 0
M  V30 2371 H 225.731 -1.84659 -2.52229 0
M  V30 2372 H 224.951 -3.81269 -1.00139 0
M  V30 2373 H 226.239 -4.78154 -1.73914 0
M  V30 2374 H 225.637 -3.33257 -4.57117 0
M  V30 2375 H 224.194 -4.14368 -5.03133 0
M  V30 2376 N 227.627 0.131896 -1.57047 0
M  V30 2377 C 228.537 1.1815 -2.02676 0
M  V30 2378 C 229.553 1.46113 -0.944824 0
M  V30 2379 O 230.729 1.57485 -1.25541 0
M  V30 2380 C 227.794 2.49139 -2.41103 0
M  V30 2381 C 226.855 2.28688 -3.63318 0
M  V30 2382 C 226.088 3.53431 -3.99903 0
M  V30 2383 O 226.311 4.60223 -3.36973 0
M  V30 2384 O 225.245 3.45198 -4.93074 0
M  V30 2385 H 229.071 0.824069 -2.92306 0
M  V30 2386 H 226.656 0.341745 -1.45439 0
M  V30 2387 H 228.538 3.26338 -2.66611 0
M  V30 2388 H 227.213 2.84382 -1.54624 0
M  V30 2389 H 226.12 1.4939 -3.42977 0
M  V30 2390 H 227.453 1.98355 -4.50462 0
M  V30 2391 N 229.106 1.52395 0.401703 0
M  V30 2392 C 230.016 1.7917 1.51444 0
M  V30 2393 C 231.032 0.677691 1.6026 0
M  V30 2394 O 232.208 0.963909 1.76835 0
M  V30 2395 C 229.273 1.94347 2.87107 0
M  V30 2396 C 228.334 3.18257 2.88116 0
M  V30 2397 C 227.567 3.32701 4.17308 0
M  V30 2398 O 227.79 2.52238 5.11598 0
M  V30 2399 O 226.724 4.25891 4.25324 0
M  V30 2400 H 230.55 2.73633 1.31752 0
M  V30 2401 H 228.135 1.3733 0.588296 0
M  V30 2402 H 230.017 2.06109 3.67555 0
M  V30 2403 H 228.692 1.03073 3.06851 0
M  V30 2404 H 227.599 3.11947 2.06494 0
M  V30 2405 H 228.932 4.09336 2.73322 0
M  V30 2406 N 230.584 -0.659388 1.43143 0
M  V30 2407 C 231.531 -1.77249 1.47822 0
M  V30 2408 C 232.501 -1.62818 0.328558 0
M  V30 2409 O 233.686 -1.83151 0.534838 0
M  V30 2410 C 230.826 -3.15371 1.40126 0
M  V30 2411 C 229.939 -3.4098 2.65249 0
M  V30 2412 C 229.074 -4.68915 2.49584 0
M  V30 2413 C 228.113 -4.87608 3.70006 0
M  V30 2414 N 227.25 -6.06796 3.53189 0
M  V30 2415 H 232.09 -1.72584 2.42938 0
M  V30 2416 H 229.627 -0.842297 1.20598 0
M  V30 2417 H 231.585 -3.9521 1.33659 0
M  V30 2418 H 230.215 -3.19121 0.485964 0
M  V30 2419 H 229.267 -2.55282 2.8202 0
M  V30 2420 H 230.579 -3.50681 3.54717 0
M  V30 2421 H 229.733 -5.56871 2.4079 0
M  V30 2422 H 228.472 -4.61524 1.5763 0
M  V30 2423 H 227.477 -3.9809 3.79215 0
M  V30 2424 H 228.702 -4.96834 4.62961 0
M  V30 2425 H 226.648 -6.00549 2.63965 0
M  V30 2426 H 226.565 -6.17428 4.36255 0
M  V30 2427 H 227.833 -6.9739 3.48236 0
M  V30 2428 N 232.062 -1.29571 -0.897171 0
M  V30 2429 C 233.308 -1.17863 -1.65034 0
M  V30 2430 C 233.641 0.268729 -1.92332 0
M  V30 2431 O 232.916 1.19378 -1.53555 0
M  V30 2432 C 233.199 -1.995 -2.99786 0
M  V30 2433 C 233.052 -3.5239 -2.79538 0
M  V30 2434 C 234.371 -1.82335 -4.00552 0
M  V30 2435 H 231.49 -0.429528 -0.598895 0
M  V30 2436 H 234.132 -1.59072 -1.03905 0
M  V30 2437 H 232.282 -1.64485 -3.51962 0
M  V30 2438 H 233.954 -3.97401 -2.34244 0
M  V30 2439 H 232.197 -3.77187 -2.14273 0
M  V30 2440 H 232.868 -4.04787 -3.75302 0
M  V30 2441 H 235.344 -2.12924 -3.57495 0
M  V30 2442 H 234.22 -2.41801 -4.92771 0
M  V30 2443 H 234.481 -0.779209 -4.35179 0
M  V30 2444 N 233.54 1.10788 -1.12088 0
M  V30 2445 C 234.951 1.64181 -0.88891 0
M  V30 2446 C 235.302 1.87508 0.577498 0
M  V30 2447 O 234.427 1.61434 1.44112 0
M  V30 2448 C 235.022 2.98257 -1.60712 0
M  V30 2449 C 233.581 3.4853 -1.42139 0
M  V30 2450 C 232.728 2.23208 -1.6454 0
M  V30 2451 H 235.679 0.943368 -1.27618 0
M  V30 2452 H 235.7 3.65552 -1.05604 0
M  V30 2453 H 235.212 2.81246 -2.67436 0
M  V30 2454 H 233.313 3.70692 -0.376552 0
M  V30 2455 H 233.426 4.26882 -2.17505 0
M  V30 2456 H 231.79 2.31169 -1.06925 0
M  V30 2457 H 232.573 2.08733 -2.72554 0
M  V30 2458 N 235.018 0.912232 1.28515 0
M  V30 2459 C 235.981 0.404223 2.25607 0
M  V30 2460 C 236.981 -0.468602 1.53821 0
M  V30 2461 O 238.171 -0.271873 1.72065 0
M  V30 2462 C 235.303 -0.420653 3.38295 0
M  V30 2463 H 236.496 1.26188 2.7206 0
M  V30 2464 H 234.049 0.691495 1.40171 0
M  V30 2465 H 234.784 -1.29777 2.97201 0
M  V30 2466 H 234.569 0.204935 3.91564 0
M  V30 2467 H 236.059 -0.766971 4.10496 0
M  V30 2468 N 236.496 -1.42363 0.676048 0
M  V30 2469 C 237.745 -2.00745 0.196037 0
M  V30 2470 C 238.058 -1.54083 -1.20489 0
M  V30 2471 O 239.264 -2.04891 -1.78134 0
M  V30 2472 C 237.72 -3.58651 0.299616 0
M  V30 2473 C 237.328 -4.143 1.70468 0
M  V30 2474 C 239.072 -4.24326 -0.121619 0
M  V30 2475 C 236.979 -5.64574 1.76096 0
M  V30 2476 H 235.909 -0.750787 0.0695301 0
M  V30 2477 H 238.56 -1.63072 0.841412 0
M  V30 2478 H 236.942 -3.93833 -0.413673 0
M  V30 2479 H 238.116 -3.90575 2.44515 0
M  V30 2480 H 236.431 -3.61081 2.07387 0
M  V30 2481 H 239.028 -5.34607 -0.0997362 0
M  V30 2482 H 239.371 -3.99897 -1.15708 0
M  V30 2483 H 239.904 -3.94108 0.540706 0
M  V30 2484 H 236.643 -5.93804 2.77628 0
M  V30 2485 H 236.163 -5.90286 1.06406 0
M  V30 2486 H 237.842 -6.29013 1.51496 0
M  V30 2487 N 237.974 -0.419461 -1.51915 0
M  V30 2488 C 239.204 0.151915 -2.06041 0
M  V30 2489 C 239.612 1.38539 -1.28855 0
M  V30 2490 O 238.955 1.80592 -0.336463 0
M  V30 2491 C 239.017 0.557119 -3.55157 0
M  V30 2492 C 238.681 -0.567054 -4.53468 0
M  V30 2493 C 239.678 -1.43379 -4.99738 0
M  V30 2494 C 237.363 -0.742693 -4.96779 0
M  V30 2495 C 239.357 -2.46102 -5.87973 0
M  V30 2496 C 237.044 -1.77322 -5.84808 0
M  V30 2497 C 238.042 -2.63078 -6.30301 0
M  V30 2498 O 237.73 -3.64364 -7.16585 0
M  V30 2499 H 237.462 0.0193293 -0.675724 0
M  V30 2500 H 240.016 -0.592073 -1.96682 0
M  V30 2501 H 238.246 1.35355 -3.62238 0
M  V30 2502 H 239.935 1.05759 -3.9188 0
M  V30 2503 H 240.701 -1.30954 -4.66986 0
M  V30 2504 H 236.58 -0.0848307 -4.60922 0
M  V30 2505 H 240.124 -3.13071 -6.23404 0
M  V30 2506 H 236.021 -1.89773 -6.16974 0
M  V30 2507 H 236.789 -3.60731 -7.34721 0
M  V30 2508 N 239.452 1.56882 -0.150215 0
M  V30 2509 C 240.7 1.9584 0.499105 0
M  V30 2510 C 241.021 1.03623 1.65188 0
M  V30 2511 O 240.291 0.0984084 1.95653 0
M  V30 2512 H 238.871 0.723119 0.187373 0
M  V30 2513 H 241.533 1.9358 -0.226466 0
M  V30 2514 H 240.629 2.99638 0.873122 0
M  V30 2515 N 240.93 -0.123565 1.57115 0
M  V30 2516 C 242.176 -0.833386 1.84885 0
M  V30 2517 C 242.509 -1.79742 0.735292 0
M  V30 2518 O 241.784 -1.92764 -0.25925 0
M  V30 2519 C 242.067 -1.5873 3.23228 0
M  V30 2520 C 241.92 -0.643183 4.45178 0
M  V30 2521 C 243.239 -2.54453 3.59085 0
M  V30 2522 H 240.358 -0.301518 0.6725 0
M  V30 2523 H 243 -0.097778 1.89748 0
M  V30 2524 H 241.15 -2.21438 3.19214 0
M  V30 2525 H 242.822 -0.0253015 4.61293 0
M  V30 2526 H 241.065 0.0456139 4.33776 0
M  V30 2527 H 241.736 -1.20724 5.38637 0
M  V30 2528 H 244.212 -2.01853 3.63861 0
M  V30 2529 H 243.088 -3.04238 4.5687 0
M  V30 2530 H 243.349 -3.36906 2.86264 0
M  V30 2531 N 242.408 -1.52605 -0.393616 0
M  V30 2532 C 243.685 -1.58001 -1.15304 0
M  V30 2533 C 244.065 -0.370385 -2.07825 0
M  V30 2534 O 243.413 0.641638 -2.19306 0
M  V30 2535 C 243.623 -2.91652 -1.91677 0
M  V30 2536 C 244.971 -3.4522 -2.47201 0
M  V30 2537 O 245.995 -2.93495 -2.01839 0
M  V30 2538 O 244.854 -4.35579 -3.3005 0
M  V30 2539 H 241.948 -0.637068 -0.527327 0
M  V30 2540 H 244.494 -1.64939 -0.399141 0
M  V30 2541 H 243.266 -3.71136 -1.23992 0
M  V30 2542 H 242.889 -2.88077 -2.74039 0
M  V30 2543 N 243.887 0.651787 -1.4349 0
M  V30 2544 C 245.115 1.43937 -1.48626 0
M  V30 2545 C 245.53 1.8851 -0.104587 0
M  V30 2546 O 244.887 1.5958 0.885464 0
M  V30 2547 C 244.938 2.6734 -2.43334 0
M  V30 2548 O 244.659 2.24631 -3.76128 0
M  V30 2549 C 246.16 3.60683 -2.57726 0
M  V30 2550 H 243.38 0.44213 -0.504739 0
M  V30 2551 H 245.924 0.798944 -1.88248 0
M  V30 2552 H 244.079 3.2752 -2.06904 0
M  V30 2553 H 244.493 3.04485 -4.2707 0
M  V30 2554 H 245.967 4.43933 -3.28067 0
M  V30 2555 H 246.444 4.08126 -1.62265 0
M  V30 2556 H 247.05 3.06384 -2.94973 0
M  V30 2557 N 245.365 1.30045 0.890287 0
M  V30 2558 C 246.781 1.08261 1.17268 0
M  V30 2559 C 246.981 -0.160063 2.00863 0
M  V30 2560 O 246.037 -0.855181 2.37577 0
M  V30 2561 C 247.35 2.34323 1.8845 0
M  V30 2562 C 248.898 2.39735 2.01237 0
M  V30 2563 C 249.373 3.65625 2.7583 0
M  V30 2564 N 250.864 3.66402 2.83379 0
M  V30 2565 C 251.599 4.60498 3.41657 0
M  V30 2566 N 251.095 5.64933 4.01026 0
M  V30 2567 N 252.888 4.48051 3.39421 0
M  V30 2568 H 245.039 2.09777 0.332762 0
M  V30 2569 H 247.302 0.92446 0.209948 0
M  V30 2570 H 247.008 3.2498 1.34465 0
M  V30 2571 H 246.882 2.4256 2.88867 0
M  V30 2572 H 249.269 1.4956 2.54393 0
M  V30 2573 H 249.35 2.35476 0.999232 0
M  V30 2574 H 248.994 4.56156 2.23347 0
M  V30 2575 H 248.924 3.67144 3.77509 0
M  V30 2576 H 251.415 2.90896 2.41222 0
M  V30 2577 H 251.728 6.32841 4.43545 0
M  V30 2578 H 250.073 5.68732 3.99461 0
M  V30 2579 H 253.264 3.65649 2.92264 0
M  V30 2580 H 253.437 5.21565 3.84544 0
M  V30 2581 N 246.843 -1.10192 1.12674 0
M  V30 2582 C 247.776 -2.15847 0.740625 0
M  V30 2583 C 248.754 -1.60352 -0.269421 0
M  V30 2584 O 249.938 -1.87796 -0.16278 0
M  V30 2585 C 247.065 -3.38562 0.096641 0
M  V30 2586 C 246.111 -4.12758 1.07391 0
M  V30 2587 S 246.944 -4.67997 2.60267 0
M  V30 2588 C 248.1 -5.94021 1.97206 0
M  V30 2589 H 248.333 -2.48266 1.63558 0
M  V30 2590 H 245.866 -1.22019 0.946087 0
M  V30 2591 H 247.824 -4.09621 -0.268535 0
M  V30 2592 H 246.485 -3.04377 -0.775462 0
M  V30 2593 H 245.678 -5.00755 0.570997 0
M  V30 2594 H 245.28 -3.47523 1.38216 0
M  V30 2595 H 247.572 -6.64589 1.31634 0
M  V30 2596 H 248.515 -6.48979 2.83253 0
M  V30 2597 H 248.923 -5.46169 1.42686 0
M  V30 2598 N 248.321 -0.919034 -1.28029 0
M  V30 2599 C 249.251 -0.428581 -2.29533 0
M  V30 2600 C 250.232 0.50659 -1.62381 0
M  V30 2601 O 251.417 0.413195 -1.89753 0
M  V30 2602 C 248.547 0.327388 -3.45753 0
M  V30 2603 C 247.501 -0.519137 -4.2484 0
M  V30 2604 C 246.827 0.365486 -5.33449 0
M  V30 2605 C 248.127 -1.77914 -4.91064 0
M  V30 2606 H 249.821 -1.27687 -2.70807 0
M  V30 2607 H 247.367 -0.615428 -1.30186 0
M  V30 2608 H 249.32 0.681378 -4.15855 0
M  V30 2609 H 248.044 1.20963 -3.03374 0
M  V30 2610 H 246.703 -0.855717 -3.56473 0
M  V30 2611 H 246.351 1.24642 -4.87312 0
M  V30 2612 H 246.051 -0.197356 -5.87268 0
M  V30 2613 H 247.575 0.715241 -6.06396 0
M  V30 2614 H 248.989 -1.49374 -5.53498 0
M  V30 2615 H 247.386 -2.2848 -5.54903 0
M  V30 2616 H 248.456 -2.50382 -4.15255 0
M  V30 2617 N 249.799 1.42003 -0.683588 0
M  V30 2618 C 251.027 2.05746 -0.218182 0
M  V30 2619 C 251.442 1.51396 1.12804 0
M  V30 2620 O 250.799 0.657303 1.70252 0
M  V30 2621 C 250.85 3.61171 -0.154131 0
M  V30 2622 O 250.571 4.13508 -1.44716 0
M  V30 2623 C 252.072 4.42042 0.333713 0
M  V30 2624 H 249.292 0.662888 -0.10402 0
M  V30 2625 H 251.836 1.81987 -0.9328 0
M  V30 2626 H 249.991 3.84012 0.511231 0
M  V30 2627 H 250.405 5.07453 -1.32632 0
M  V30 2628 H 251.879 5.51028 0.327423 0
M  V30 2629 H 252.356 4.17269 1.37053 0
M  V30 2630 H 252.962 4.24239 -0.300222 0
M  V30 2631 N 251.277 0.427512 1.51691 0
M  V30 2632 C 252.224 -0.388867 2.275 0
M  V30 2633 C 253.194 -1.02532 1.30677 0
M  V30 2634 O 254.379 -1.0461 1.59566 0
M  V30 2635 C 251.519 -1.48954 3.11298 0
M  V30 2636 C 250.632 -0.872194 4.23104 0
M  V30 2637 C 249.767 -1.94709 4.94228 0
M  V30 2638 C 248.806 -1.30766 5.97969 0
M  V30 2639 N 247.943 -2.32349 6.62539 0
M  V30 2640 H 252.783 0.263997 2.96828 0
M  V30 2641 H 250.32 0.142033 1.46413 0
M  V30 2642 H 252.278 -2.13887 3.58201 0
M  V30 2643 H 250.908 -2.11217 2.44105 0
M  V30 2644 H 249.96 -0.111419 3.80237 0
M  V30 2645 H 251.272 -0.365264 4.97461 0
M  V30 2646 H 250.426 -2.67327 5.44629 0
M  V30 2647 H 249.165 -2.48773 4.1948 0
M  V30 2648 H 248.17 -0.566902 5.4687 0
M  V30 2649 H 249.395 -0.774483 6.74669 0
M  V30 2650 H 247.341 -2.85511 5.90609 0
M  V30 2651 H 247.258 -1.8652 7.3263 0
M  V30 2652 H 248.526 -3.04481 7.17574 0
M  V30 2653 N 252.755 -1.56801 0.158532 0
M  V30 2654 C 254.004 -1.95665 -0.489702 0
M  V30 2655 C 254.317 -1.04654 -1.65248 0
M  V30 2656 O 255.523 -1.33146 -2.3661 0
M  V30 2657 C 253.979 -3.47874 -0.922582 0
M  V30 2658 C 253.587 -4.47489 0.213893 0
M  V30 2659 C 255.331 -3.95583 -1.53996 0
M  V30 2660 C 253.238 -5.90921 -0.237903 0
M  V30 2661 H 252.168 -0.730516 -0.186716 0
M  V30 2662 H 254.819 -1.81861 0.244722 0
M  V30 2663 H 253.201 -3.57051 -1.71261 0
M  V30 2664 H 254.375 -4.50017 0.991036 0
M  V30 2665 H 252.69 -4.09764 0.740407 0
M  V30 2666 H 255.287 -5.0019 -1.8898 0
M  V30 2667 H 255.63 -3.37789 -2.43319 0
M  V30 2668 H 256.163 -3.8937 -0.814611 0
M  V30 2669 H 252.902 -6.52559 0.620236 0
M  V30 2670 H 252.422 -5.91729 -0.980676 0
M  V30 2671 H 254.101 -6.43352 -0.686067 0
M  V30 2672 N 254.233 0.115231 -1.57178 0
M  V30 2673 C 255.482 0.820945 -1.84237 0
M  V30 2674 C 255.795 1.80866 -0.744761 0
M  V30 2675 O 257.001 2.56083 -0.901871 0
M  V30 2676 C 255.457 1.51072 -3.26658 0
M  V30 2677 C 255.065 0.563795 -4.44438 0
M  V30 2678 C 256.809 2.20134 -3.62962 0
M  V30 2679 C 254.716 1.25701 -5.77887 0
M  V30 2680 H 253.646 0.310328 -0.687177 0
M  V30 2681 H 256.297 0.0737134 -1.83352 0
M  V30 2682 H 254.679 2.30471 -3.22024 0
M  V30 2683 H 255.853 -0.197247 -4.60378 0
M  V30 2684 H 254.168 -0.0200638 -4.16395 0
M  V30 2685 H 256.765 2.72696 -4.59936 0
M  V30 2686 H 257.108 2.98107 -2.90582 0
M  V30 2687 H 257.641 1.47619 -3.69396 0
M  V30 2688 H 254.38 0.518493 -6.53446 0
M  V30 2689 H 253.9 1.98997 -5.65827 0
M  V30 2690 H 255.579 1.78915 -6.2177 0
M  V30 2691 N 255.711 1.52812 0.385517 0
M  V30 2692 C 257.127 1.4214 0.725829 0
M  V30 2693 C 257.327 0.544589 1.94001 0
M  V30 2694 O 256.383 0.0193693 2.52493 0
M  V30 2695 C 257.696 2.85042 0.957668 0
M  V30 2696 C 259.244 2.94543 1.05892 0
M  V30 2697 C 259.719 4.38464 1.32337 0
M  V30 2698 N 261.21 4.41804 1.39151 0
M  V30 2699 C 261.945 5.5025 1.61285 0
M  V30 2700 N 261.441 6.68775 1.80866 0
M  V30 2701 N 263.234 5.37798 1.63492 0
M  V30 2702 H 255.385 2.08338 -0.413383 0
M  V30 2703 H 257.648 0.940016 -0.122775 0
M  V30 2704 H 257.354 3.51431 0.137568 0
M  V30 2705 H 257.228 3.27505 1.87137 0
M  V30 2706 H 259.615 2.28321 1.86959 0
M  V30 2707 H 259.696 2.55504 0.123057 0
M  V30 2708 H 259.34 5.05254 0.517793 0
M  V30 2709 H 259.27 4.75059 2.27214 0
M  V30 2710 H 261.761 3.56377 1.25713 0
M  V30 2711 H 262.074 7.47197 1.97271 0
M  V30 2712 H 260.419 6.71797 1.78083 0
M  V30 2713 H 263.61 4.44171 1.47749 0
M  V30 2714 H 263.783 6.22382 1.80402 0
M  V30 2715 N 257.189 -0.644168 1.43834 0
M  V30 2716 C 258.466 -1.40188 1.36406 0
M  V30 2717 C 258.846 -2.11094 0.0163124 0
M  V30 2718 O 258.194 -2.05426 -1.00062 0
M  V30 2719 C 258.404 -2.3791 2.55343 0
M  V30 2720 C 259.752 -3.01637 2.98832 0
M  V30 2721 O 260.776 -2.48237 2.55455 0
M  V30 2722 O 259.635 -3.98477 3.74003 0
M  V30 2723 H 256.729 -0.626773 0.539523 0
M  V30 2724 H 259.275 -0.670317 1.559 0
M  V30 2725 H 258.047 -1.84525 3.4506 0
M  V30 2726 H 257.67 -3.18503 2.37995 0
M  V30 2727 N 258.668 -1.30515 -0.883378 0
M  V30 2728 C 259.615 -1.17032 -1.98927 0
M  V30 2729 C 260.585 -0.0594241 -1.65994 0
M  V30 2730 O 261.77 -0.229895 -1.8941 0
M  V30 2731 C 258.91 -0.869777 -3.33959 0
M  V30 2732 C 258.023 -2.06271 -3.79574 0
M  V30 2733 C 257.158 -1.70011 -5.03259 0
M  V30 2734 C 256.197 -2.8579 -5.41286 0
M  V30 2735 N 255.334 -2.49816 -6.56153 0
M  V30 2736 H 260.174 -2.1164 -2.09792 0
M  V30 2737 H 257.711 -1.05296 -1.02719 0
M  V30 2738 H 259.669 -0.676138 -4.11685 0
M  V30 2739 H 258.299 0.0394332 -3.22776 0
M  V30 2740 H 257.351 -2.36755 -2.97744 0
M  V30 2741 H 258.663 -2.92971 -4.03694 0
M  V30 2742 H 257.817 -1.47032 -5.88614 0
M  V30 2743 H 256.556 -0.804829 -4.81013 0
M  V30 2744 H 255.561 -3.09434 -4.54456 0
M  V30 2745 H 256.786 -3.76008 -5.65504 0
M  V30 2746 H 254.732 -1.62795 -6.35479 0
M  V30 2747 H 254.649 -3.30048 -6.8015 0
M  V30 2748 H 255.917 -2.30197 -7.44735 0
M  V30 2749 N 260.146 1.09593 -1.13257 0
M  V30 2750 C 261.394 1.81375 -0.891492 0
M  V30 2751 C 261.715 1.86049 0.584009 0
M  V30 2752 O 260.985 1.34481 1.42449 0
M  V30 2753 H 259.565 0.671708 -0.326828 0
M  V30 2754 H 262.227 1.3256 -1.42877 0
M  V30 2755 H 261.323 2.84612 -1.28071 0
M  V30 2756 N 261.624 0.925811 1.2754 0
M  V30 2757 C 262.852 0.581509 1.9856 0
M  V30 2758 C 263.267 -0.840041 1.69082 0
M  V30 2759 O 262.624 -1.55805 0.950312 0
M  V30 2760 C 262.675 0.795589 3.52637 0
M  V30 2761 O 262.396 2.16121 3.81082 0
M  V30 2762 C 263.897 0.459744 4.4091 0
M  V30 2763 H 261.117 0.220538 0.633722 0
M  V30 2764 H 263.661 1.24232 1.6244 0
M  V30 2765 H 261.816 0.18161 3.86974 0
M  V30 2766 H 262.23 2.2098 4.75676 0
M  V30 2767 H 263.704 0.660244 5.48037 0
M  V30 2768 H 264.181 -0.604625 4.35018 0
M  V30 2769 H 264.787 1.05178 4.12089 0
M  V30 2770 N 263.102 -1.41638 0.69111 0
M  V30 2771 C 264.035 -2.28183 -0.0274913 0
M  V30 2772 C 265.013 -1.41984 -0.792424 0
M  V30 2773 O 266.197 -1.71415 -0.784169 0
M  V30 2774 C 263.324 -3.22135 -1.04628 0
M  V30 2775 C 262.37 -4.24848 -0.375037 0
M  V30 2776 S 263.203 -5.28231 0.879321 0
M  V30 2777 C 264.359 -6.25748 -0.137983 0
M  V30 2778 H 264.592 -2.88782 0.706553 0
M  V30 2779 H 262.125 -1.46709 0.481222 0
M  V30 2780 H 264.083 -3.76797 -1.62894 0
M  V30 2781 H 262.744 -2.6064 -1.75287 0
M  V30 2782 H 261.937 -4.90837 -1.14433 0
M  V30 2783 H 261.539 -3.73758 0.134434 0
M  V30 2784 H 263.831 -6.70188 -0.992659 0
M  V30 2785 H 264.774 -7.06417 0.487867 0
M  V30 2786 H 265.182 -5.62363 -0.490762 0
M  V30 2787 N 264.58 -0.43555 -1.51462 0
M  V30 2788 C 265.51 0.367376 -2.30592 0
M  V30 2789 C 266.491 1.02263 -1.35928 0
M  V30 2790 O 267.676 1.02661 -1.64847 0
M  V30 2791 C 264.806 1.46983 -3.14664 0
M  V30 2792 C 263.76 0.938161 -4.17591 0
M  V30 2793 C 263.086 2.13622 -4.90173 0
M  V30 2794 C 264.386 -0.0261621 -5.22293 0
M  V30 2795 H 266.08 -0.292969 -2.97963 0
M  V30 2796 H 263.626 -0.14234 -1.43295 0
M  V30 2797 H 265.579 2.03873 -3.688 0
M  V30 2798 H 264.303 2.15843 -2.4511 0
M  V30 2799 H 262.962 0.391481 -3.64504 0
M  V30 2800 H 262.61 2.81098 -4.17124 0
M  V30 2801 H 262.31 1.78688 -5.59772 0
M  V30 2802 H 263.834 2.7107 -5.47132 0
M  V30 2803 H 265.248 0.452384 -5.71512 0
M  V30 2804 H 263.645 -0.287992 -5.99409 0
M  V30 2805 H 264.715 -0.963391 -4.75233 0
M  V30 2806 N 266.058 1.56714 -0.166846 0
M  V30 2807 C 267.306 1.96358 0.478305 0
M  V30 2808 C 267.627 1.0537 1.6408 0
M  V30 2809 O 266.897 0.119154 1.95537 0
M  V30 2810 H 265.477 0.725065 0.179692 0
M  V30 2811 H 268.139 1.93329 -0.246985 0
M  V30 2812 H 267.235 3.00547 0.841292 0
M  V30 2813 N 267.536 -0.106894 1.57237 0
M  V30 2814 C 268.483 -1.13049 2.01217 0
M  V30 2815 C 269.453 -1.40471 0.886403 0
M  V30 2816 O 270.638 -1.52133 1.15153 0
M  V30 2817 C 267.778 -2.4487 2.43172 0
M  V30 2818 C 266.891 -2.24281 3.69218 0
M  V30 2819 C 266.026 -3.49417 4.00101 0
M  V30 2820 C 265.065 -3.24038 5.19294 0
M  V30 2821 N 264.202 -4.41409 5.45988 0
M  V30 2822 H 269.042 -0.748456 2.88448 0
M  V30 2823 H 266.579 -0.358054 1.42676 0
M  V30 2824 H 268.537 -3.21786 2.65537 0
M  V30 2825 H 267.167 -2.80944 1.58967 0
M  V30 2826 H 266.219 -1.38224 3.54398 0
M  V30 2827 H 267.531 -2.01512 4.56283 0
M  V30 2828 H 266.685 -4.34746 4.2318 0
M  V30 2829 H 265.424 -3.75229 3.11535 0
M  V30 2830 H 264.429 -2.37102 4.96047 0
M  V30 2831 H 265.654 -2.99584 6.09447 0
M  V30 2832 H 263.6 -4.67319 4.60379 0
M  V30 2833 H 263.517 -4.21788 6.274 0
M  V30 2834 H 264.785 -5.27836 5.73593 0
M  V30 2835 N 269.014 -1.53014 -0.377408 0
M  V30 2836 C 270.263 -1.67845 -1.11853 0
M  V30 2837 C 270.576 -0.430625 -1.90801 0
M  V30 2838 O 271.782 -0.459261 -2.67587 0
M  V30 2839 C 270.238 -2.96668 -2.03756 0
M  V30 2840 C 269.846 -4.28671 -1.30175 0
M  V30 2841 C 271.59 -3.20865 -2.77932 0
M  V30 2842 C 269.497 -5.48591 -2.20911 0
M  V30 2843 H 268.427 -0.625343 -0.421263 0
M  V30 2844 H 271.078 -1.79514 -0.380409 0
M  V30 2845 H 269.46 -2.78773 -2.8125 0
M  V30 2846 H 270.634 -4.57157 -0.578259 0
M  V30 2847 H 268.949 -4.10825 -0.679108 0
M  V30 2848 H 271.546 -4.07642 -3.46024 0
M  V30 2849 H 271.889 -2.36424 -3.4265 0
M  V30 2850 H 272.422 -3.39379 -2.07525 0
M  V30 2851 H 269.161 -6.35474 -1.6079 0
M  V30 2852 H 268.681 -5.244 -2.91144 0
M  V30 2853 H 270.36 -5.8292 -2.80736 0
M  V30 2854 N 270.492 0.636531 -1.44174 0
M  V30 2855 C 271.402 1.77754 -1.53103 0
M  V30 2856 C 272.418 1.68928 -0.417034 0
M  V30 2857 O 273.594 1.89801 -0.6736 0
M  V30 2858 C 270.659 3.14115 -1.46741 0
M  V30 2859 C 269.72 3.34612 -2.68948 0
M  V30 2860 C 268.953 4.64467 -2.6288 0
M  V30 2861 O 269.176 5.44919 -1.68581 0
M  V30 2862 O 268.11 4.87049 -3.53648 0
M  V30 2863 H 271.936 1.73174 -2.49489 0
M  V30 2864 H 269.521 0.79709 -1.2636 0
M  V30 2865 H 271.403 3.95412 -1.45696 0
M  V30 2866 H 270.078 3.19249 -0.534975 0
M  V30 2867 H 268.985 2.53014 -2.75562 0
M  V30 2868 H 270.318 3.34336 -3.61221 0
M  V30 2869 N 271.97 1.30982 0.876444 0
M  V30 2870 C 273.217 1.20296 1.62896 0
M  V30 2871 C 273.545 -0.240395 1.93009 0
M  V30 2872 O 272.8 -1.18733 1.55567 0
M  V30 2873 C 273.099 1.98572 2.9716 0
M  V30 2874 C 272.765 3.48125 2.86566 0
M  V30 2875 C 271.427 3.88905 2.83383 0
M  V30 2876 C 273.779 4.43322 2.74071 0
M  V30 2877 C 271.107 5.2316 2.65556 0
M  V30 2878 C 273.459 5.77695 2.57781 0
M  V30 2879 C 272.123 6.17704 2.52979 0
M  V30 2880 H 271.393 0.440193 0.59608 0
M  V30 2881 H 274.04 1.62177 1.01837 0
M  V30 2882 H 272.345 1.49352 3.62217 0
M  V30 2883 H 274.042 1.8769 3.54364 0
M  V30 2884 H 270.632 3.15723 2.89856 0
M  V30 2885 H 274.816 4.12752 2.75589 0
M  V30 2886 H 270.072 5.53241 2.60259 0
M  V30 2887 H 274.246 6.51091 2.47089 0
M  V30 2888 H 271.873 7.21678 2.38924 0
M  V30 2889 N 273.449 -1.08991 1.13837 0
M  V30 2890 C 274.359 -2.19301 0.833333 0
M  V30 2891 C 275.375 -1.73026 -0.183847 0
M  V30 2892 O 276.551 -2.01395 -0.0138092 0
M  V30 2893 C 273.616 -3.45323 0.308651 0
M  V30 2894 C 272.677 -4.06255 1.38764 0
M  V30 2895 C 271.91 -5.26262 0.887896 0
M  V30 2896 O 272.133 -5.69747 -0.27287 0
M  V30 2897 O 271.067 -5.78435 1.66421 0
M  V30 2898 H 274.893 -2.47854 1.75506 0
M  V30 2899 H 272.478 -1.18012 0.916166 0
M  V30 2900 H 274.36 -4.21394 0.0216739 0
M  V30 2901 H 273.035 -3.18362 -0.585431 0
M  V30 2902 H 271.942 -3.318 1.72799 0
M  V30 2903 H 273.275 -4.37452 2.25602 0
M  V30 2904 N 274.927 -0.932562 -1.27047 0
M  V30 2905 C 276.175 -0.574422 -1.93765 0
M  V30 2906 C 276.496 0.887993 -1.73608 0
M  V30 2907 O 275.766 1.62999 -1.08665 0
M  V30 2908 H 274.346 -0.209451 -0.717035 0
M  V30 2909 H 277.008 -1.18601 -1.5466 0
M  V30 2910 H 276.104 -0.784841 -3.02071 0
M  V30 2911 N 276.405 1.4127 -0.698611 0
M  V30 2912 C 277.337 2.292 0.00399731 0
M  V30 2913 C 278.35 1.44944 0.741279 0
M  V30 2914 O 279.539 1.68416 0.591477 0
M  V30 2915 C 276.639 3.22875 1.02979 0
M  V30 2916 C 275.812 4.35904 0.36151 0
M  V30 2917 C 274.871 5.10134 1.29033 0
M  V30 2918 O 273.897 5.63809 0.781562 0
M  V30 2919 N 275.099 5.17885 2.6225 0
M  V30 2920 H 277.864 2.9014 -0.750921 0
M  V30 2921 H 275.425 1.52455 -0.544882 0
M  V30 2922 H 277.417 3.69404 1.65296 0
M  V30 2923 H 275.987 2.63221 1.68622 0
M  V30 2924 H 275.207 3.91719 -0.441584 0
M  V30 2925 H 276.495 5.08696 -0.103055 0
M  V30 2926 H 275.893 4.7573 3.061 0
M  V30 2927 H 274.45 5.6798 3.19754 0
M  V30 2928 N 277.883 0.443576 1.51229 0
M  V30 2929 C 279.294 -0.0180867 1.86691 0
M  V30 2930 C 279.645 -1.41384 1.36033 0
M  V30 2931 O 278.77 -2.04291 0.713722 0
M  V30 2932 C 279.365 -0.039597 3.38777 0
M  V30 2933 C 277.924 -0.445692 3.73752 0
M  V30 2934 C 277.071 0.357584 2.74985 0
M  V30 2935 H 280.022 0.659138 1.44364 0
M  V30 2936 H 280.043 -0.847761 3.70936 0
M  V30 2937 H 279.555 0.976382 3.75617 0
M  V30 2938 H 277.656 -1.46704 3.42503 0
M  V30 2939 H 277.769 -0.166155 4.78812 0
M  V30 2940 H 276.133 -0.184973 2.54027 0
M  V30 2941 H 276.916 1.37256 3.14668 0
M  V30 2942 N 279.361 -1.56624 0.175154 0
M  V30 2943 C 280.607 -1.9729 -0.469506 0
M  V30 2944 C 280.94 -1.06128 -1.62636 0
M  V30 2945 O 280.215 -0.109183 -1.94193 0
M  V30 2946 C 280.498 -3.47375 -0.948804 0
M  V30 2947 C 280.351 -4.49317 0.208491 0
M  V30 2948 C 281.67 -4.00652 -1.82116 0
M  V30 2949 H 278.789 -0.717317 -0.16919 0
M  V30 2950 H 281.431 -1.88184 0.262062 0
M  V30 2951 H 279.581 -3.55267 -1.57219 0
M  V30 2952 H 281.253 -4.53482 0.845682 0
M  V30 2953 H 279.496 -4.25121 0.863395 0
M  V30 2954 H 280.167 -5.51741 -0.169059 0
M  V30 2955 H 282.643 -3.95416 -1.2956 0
M  V30 2956 H 281.519 -5.06075 -2.12554 0
M  V30 2957 H 281.78 -3.44699 -2.7683 0
M  V30 2958 N 280.839 0.0985539 -1.57292 0
M  V30 2959 C 282.116 0.834155 -1.76921 0
M  V30 2960 C 282.496 1.97101 -0.755928 0
M  V30 2961 O 281.844 2.27474 0.216245 0
M  V30 2962 C 282.054 1.33194 -3.22584 0
M  V30 2963 C 283.402 1.77611 -3.85668 0
M  V30 2964 O 284.426 1.42825 -3.26312 0
M  V30 2965 O 283.285 2.4192 -4.90038 0
M  V30 2966 H 280.379 0.397628 -0.725135 0
M  V30 2967 H 282.925 0.0807044 -1.69508 0
M  V30 2968 H 281.697 0.517248 -3.87866 0
M  V30 2969 H 281.32 2.1475 -3.34616 0
M  V30 2970 N 282.317 1.53212 0.369288 0
M  V30 2971 C 283.564 1.69215 1.11232 0
M  V30 2972 C 283.892 0.442048 1.8941 0
M  V30 2973 O 283.147 -0.575944 1.87033 0
M  V30 2974 C 283.446 2.89101 2.10132 0
M  V30 2975 C 283.112 4.25758 1.48463 0
M  V30 2976 C 281.774 4.6292 1.31372 0
M  V30 2977 C 284.126 5.10757 1.03811 0
M  V30 2978 C 281.454 5.82722 0.68207 0
M  V30 2979 C 283.806 6.31201 0.420487 0
M  V30 2980 C 282.47 6.67079 0.237038 0
M  V30 2981 H 281.74 0.619201 0.407027 0
M  V30 2982 H 284.387 1.87391 0.394552 0
M  V30 2983 H 282.692 2.65421 2.88199 0
M  V30 2984 H 284.389 2.98676 2.6757 0
M  V30 2985 H 280.979 3.96494 1.62758 0
M  V30 2986 H 285.163 4.82599 1.1581 0
M  V30 2987 H 280.419 6.09113 0.528316 0
M  V30 2988 H 284.593 6.96368 0.0662874 0
M  V30 2989 H 282.22 7.59774 -0.254477 0
M  V30 2990 N 283.795 -0.628877 1.44509 0
M  V30 2991 C 285.041 -1.39045 1.47629 0
M  V30 2992 C 285.374 -1.93892 0.109343 0
M  V30 2993 O 284.649 -1.7379 -0.87334 0
M  V30 2994 C 284.932 -2.55408 2.53848 0
M  V30 2995 C 284.785 -2.05896 3.99909 0
M  V30 2996 C 286.104 -3.5759 2.56549 0
M  V30 2997 H 283.223 -0.504232 0.537512 0
M  V30 2998 H 285.865 -0.710854 1.76201 0
M  V30 2999 H 284.015 -3.13384 2.29615 0
M  V30 3000 H 285.687 -1.52734 4.35282 0
M  V30 3001 H 283.93 -1.37061 4.11578 0
M  V30 3002 H 284.601 -2.89681 4.69882 0
M  V30 3003 H 287.077 -3.09419 2.78207 0
M  V30 3004 H 285.953 -4.36527 3.32769 0
M  V30 3005 H 286.214 -4.11808 1.60832 0
M  V30 3006 N 285.273 -1.31445 -0.869486 0
M  V30 3007 C 286.55 -1.11795 -1.60503 0
M  V30 3008 C 286.93 0.327168 -2.08549 0
M  V30 3009 O 286.278 1.32135 -1.8642 0
M  V30 3010 C 286.488 -2.13258 -2.76265 0
M  V30 3011 C 287.836 -2.45805 -3.46215 0
M  V30 3012 O 288.86 -2.11688 -2.86473 0
M  V30 3013 O 287.719 -3.04228 -4.5399 0
M  V30 3014 H 284.813 -0.430421 -0.706163 0
M  V30 3015 H 287.359 -1.42925 -0.914907 0
M  V30 3016 H 286.131 -3.10461 -2.3818 0
M  V30 3017 H 285.754 -1.83035 -3.52964 0
M  V30 3018 N 286.751 1.08385 -1.14413 0
M  V30 3019 C 288.162 1.62258 -0.923535 0
M  V30 3020 C 288.513 1.88691 0.537595 0
M  V30 3021 O 287.638 1.64454 1.40655 0
M  V30 3022 C 288.233 2.94781 -1.67002 0
M  V30 3023 C 286.792 3.45437 -1.495 0
M  V30 3024 C 285.939 2.19668 -1.69238 0
M  V30 3025 H 288.89 0.916086 -1.2959 0
M  V30 3026 H 288.911 3.63229 -1.13334 0
M  V30 3027 H 288.423 2.7551 -2.73342 0
M  V30 3028 H 286.524 3.6981 -0.455097 0
M  V30 3029 H 286.637 4.22173 -2.2651 0
M  V30 3030 H 285.001 2.28849 -1.11804 0
M  V30 3031 H 285.784 2.02905 -2.7692 0
M  V30 3032 N 288.23 0.939286 1.26551 0
M  V30 3033 C 289.178 0.43815 2.28436 0
M  V30 3034 C 290.172 -0.483587 1.62351 0
M  V30 3035 O 291.378 -0.362009 1.76322 0
M  V30 3036 H 287.753 0.123149 0.741848 0
M  V30 3037 H 289.724 1.31002 2.68106 0
M  V30 3038 C 288.473 -0.283052 3.46546 0
M  V30 3039 H 287.796 0.417043 3.97619 0
M  V30 3040 H 289.236 -0.597948 4.19763 0
M  V30 3041 C 287.695 -1.50018 3.01656 0
M  V30 3042 O 288.225 -2.59855 3.0633 0
M  V30 3043 N 286.431 -1.35608 2.57019 0
M  V30 3044 H 285.978 -0.46244 2.53415 0
M  V30 3045 H 285.936 -2.17165 2.27347 0
M  V30 3046 N 289.708 -1.40897 0.706093 0
M  V30 3047 C 290.655 -2.30751 0.0474474 0
M  V30 3048 C 291.625 -1.47678 -0.76029 0
M  V30 3049 O 292.81 -1.76441 -0.726177 0
M  V30 3050 C 289.95 -3.33815 -0.875309 0
M  V30 3051 C 289.063 -4.31961 -0.0580623 0
M  V30 3052 C 288.198 -5.22093 -0.979425 0
M  V30 3053 C 287.237 -6.11902 -0.155706 0
M  V30 3054 N 286.374 -6.94482 -1.03144 0
M  V30 3055 H 291.214 -2.86513 0.819413 0
M  V30 3056 H 288.751 -1.41102 0.415783 0
M  V30 3057 H 290.709 -3.92129 -1.42446 0
M  V30 3058 H 289.339 -2.79579 -1.61356 0
M  V30 3059 H 288.391 -3.75507 0.608147 0
M  V30 3060 H 289.703 -4.95415 0.580082 0
M  V30 3061 H 288.857 -5.85292 -1.59744 0
M  V30 3062 H 287.596 -4.5889 -1.65141 0
M  V30 3063 H 286.601 -5.47742 0.475309 0
M  V30 3064 H 287.826 -6.77162 0.512635 0
M  V30 3065 H 285.772 -6.33877 -1.68924 0
M  V30 3066 H 285.689 -7.54665 -0.449108 0
M  V30 3067 H 286.957 -7.6214 -1.63593 0
M  V30 3068 N 291.186 -0.45159 -1.50991 0
M  V30 3069 C 292.118 0.388634 -2.25881 0
M  V30 3070 C 293.131 0.974041 -1.30446 0
M  V30 3071 O 294.32 0.865758 -1.56099 0
M  V30 3072 C 291.42 1.5571 -3.01011 0
M  V30 3073 C 290.593 1.08801 -4.23652 0
M  V30 3074 C 289.652 2.12825 -4.8124 0
M  V30 3075 O 288.678 1.71678 -5.42693 0
M  V30 3076 N 289.88 3.45453 -4.66522 0
M  V30 3077 H 292.645 -0.25329 -2.98628 0
M  V30 3078 H 290.206 -0.281268 -1.59438 0
M  V30 3079 H 292.198 2.24952 -3.3642 0
M  V30 3080 H 290.768 2.10409 -2.31186 0
M  V30 3081 H 289.988 0.22215 -3.93574 0
M  V30 3082 H 291.276 0.752213 -5.03209 0
M  V30 3083 H 290.674 3.81605 -4.17605 0
M  V30 3084 H 289.231 4.10549 -5.06254 0
M  V30 3085 N 292.664 1.56529 -0.183458 0
M  V30 3086 C 293.612 2.19873 0.758845 0
M  V30 3087 C 294.606 1.16638 1.22849 0
M  V30 3088 O 295.812 1.3481 1.19274 0
M  V30 3089 H 292.187 0.7045 0.263029 0
M  V30 3090 H 294.158 2.97724 0.200755 0
M  V30 3091 C 292.907 2.86314 1.9728 0
M  V30 3092 H 292.23 3.65487 1.62047 0
M  V30 3093 H 293.67 3.3409 2.61075 0
M  V30 3094 C 292.129 1.86729 2.80418 0
M  V30 3095 O 292.659 1.36031 3.77966 0
M  V30 3096 N 290.865 1.55216 2.45675 0
M  V30 3097 H 290.412 1.96636 1.66409 0
M  V30 3098 H 290.37 0.888388 3.01588 0
M  V30 3099 N 294.142 -0.090211 1.57342 0
M  V30 3100 C 295.072 -1.10976 2.05443 0
M  V30 3101 C 296.053 -1.41482 0.944284 0
M  V30 3102 O 297.238 -1.51428 1.21586 0
M  V30 3103 C 294.368 -2.42831 2.48295 0
M  V30 3104 C 293.322 -2.26721 3.63018 0
M  V30 3105 C 292.648 -3.63796 3.91863 0
M  V30 3106 C 293.948 -1.7037 4.93732 0
M  V30 3107 H 295.642 -0.709564 2.9087 0
M  V30 3108 H 293.188 -0.339874 1.39932 0
M  V30 3109 H 295.141 -3.14431 2.80555 0
M  V30 3110 H 293.865 -2.84795 1.59873 0
M  V30 3111 H 292.524 -1.57565 3.31012 0
M  V30 3112 H 292.172 -4.03297 3.00601 0
M  V30 3113 H 291.872 -3.53861 4.69101 0
M  V30 3114 H 293.396 -4.36855 4.26603 0
M  V30 3115 H 294.81 -2.31816 5.24342 0
M  V30 3116 H 293.207 -1.71181 5.75167 0
M  V30 3117 H 294.277 -0.663542 4.80339 0
M  V30 3118 N 295.62 -1.53406 -0.361157 0
M  V30 3119 C 296.869 -1.69022 -1.10066 0
M  V30 3120 C 297.182 -0.450838 -1.90333 0
M  V30 3121 O 298.388 -0.487617 -2.67085 0
M  V30 3122 C 296.844 -2.98812 -2.00598 0
M  V30 3123 C 296.452 -4.30027 -1.25621 0
M  V30 3124 C 298.196 -3.23795 -2.74513 0
M  V30 3125 C 296.103 -5.50903 -2.1508 0
M  V30 3126 H 295.033 -0.629776 -0.414606 0
M  V30 3127 H 297.684 -1.79907 -0.361348 0
M  V30 3128 H 296.066 -2.8174 -2.78278 0
M  V30 3129 H 297.24 -4.57745 -0.529739 0
M  V30 3130 H 295.555 -4.11522 -0.635496 0
M  V30 3131 H 298.152 -4.11289 -3.41681 0
M  V30 3132 H 298.495 -2.40045 -3.40123 0
M  V30 3133 H 299.028 -3.41561 -2.03914 0
M  V30 3134 H 295.767 -6.37143 -1.54041 0
M  V30 3135 H 295.287 -5.27459 -2.85565 0
M  V30 3136 H 296.966 -5.85865 -2.74538 0
M  V30 3137 N 297.098 0.621204 -1.44841 0
M  V30 3138 C 298.061 1.71459 -1.521 0
M  V30 3139 C 299.061 1.55696 -0.401933 0
M  V30 3140 O 300.251 1.61011 -0.664925 0
M  V30 3141 C 297.383 3.10624 -1.40447 0
M  V30 3142 H 298.576 1.66394 -2.49506 0
M  V30 3143 H 296.129 0.835745 -1.3208 0
M  V30 3144 H 296.864 3.21277 -0.441737 0
M  V30 3145 H 296.649 3.23473 -2.21602 0
M  V30 3146 H 298.139 3.90293 -1.4853 0
M  V30 3147 N 298.576 1.31904 0.862503 0
M  V30 3148 C 299.486 1.22161 2.00285 0
M  V30 3149 C 300.502 0.136785 1.73462 0
M  V30 3150 O 301.678 0.355994 1.98229 0
M  V30 3151 C 298.743 0.937093 3.33796 0
M  V30 3152 C 297.804 2.10957 3.73893 0
M  V30 3153 C 297.037 1.83853 5.01033 0
M  V30 3154 O 297.26 0.777274 5.65079 0
M  V30 3155 O 296.194 2.69741 5.38074 0
M  V30 3156 H 300.02 2.18008 2.11439 0
M  V30 3157 H 297.605 1.11716 0.991957 0
M  V30 3158 H 299.487 0.794583 4.13841 0
M  V30 3159 H 298.162 0.00871894 3.23699 0
M  V30 3160 H 297.069 2.30752 2.94456 0
M  V30 3161 H 298.402 3.02046 3.88625 0
M  V30 3162 N 300.054 -1.07777 1.14986 0
M  V30 3163 C 301.3 -1.80557 0.923422 0
M  V30 3164 C 301.633 -1.86298 -0.548337 0
M  V30 3165 O 300.908 -1.34354 -1.40639 0
M  V30 3166 C 301.191 -3.25839 1.53299 0
M  V30 3167 C 301.044 -3.28269 3.07505 0
M  V30 3168 C 302.363 -4.22991 1.21518 0
M  V30 3169 H 299.482 -0.655493 0.336894 0
M  V30 3170 H 302.124 -1.26144 1.42083 0
M  V30 3171 H 300.274 -3.72306 1.10999 0
M  V30 3172 H 301.946 -2.90079 3.58681 0
M  V30 3173 H 300.189 -2.67355 3.4162 0
M  V30 3174 H 300.86 -4.30691 3.45266 0
M  V30 3175 H 303.336 -3.84894 1.581 0
M  V30 3176 H 302.212 -5.22945 1.66793 0
M  V30 3177 H 302.473 -4.41904 0.131505 0
M  V30 3178 N 301.532 -0.945985 -1.26051 0
M  V30 3179 C 302.757 -0.612525 -1.98149 0
M  V30 3180 C 303.182 0.806623 -1.69927 0
M  V30 3181 O 302.54 1.54411 -0.950108 0
M  V30 3182 C 302.588 -0.866981 -3.50023 0
M  V30 3183 O 301.692 0.0585333 -4.12358 0
M  V30 3184 H 301.033 -0.23379 -0.621481 0
M  V30 3185 H 303.563 -1.27023 -1.60395 0
M  V30 3186 H 303.573 -0.789792 -4.00283 0
M  V30 3187 H 302.248 -1.90135 -3.69894 0
M  V30 3188 H 300.825 -0.0701241 -3.72834 0
M  V30 3189 N 303.011 1.40521 -0.713556 0
M  V30 3190 C 304.239 2.05237 -0.261775 0
M  V30 3191 C 304.654 1.53755 1.09567 0
M  V30 3192 O 304.011 0.693268 1.6882 0
M  V30 3193 C 304.062 3.60763 -0.230706 0
M  V30 3194 O 303.783 4.10345 -1.53455 0
M  V30 3195 C 305.284 4.42651 0.239874 0
M  V30 3196 H 302.504 0.660533 -0.118057 0
M  V30 3197 H 305.048 1.79967 -0.971192 0
M  V30 3198 H 303.203 3.8501 0.429661 0
M  V30 3199 H 303.617 5.04526 -1.43366 0
M  V30 3200 H 305.091 5.51599 0.210468 0
M  V30 3201 H 305.568 4.20082 1.28171 0
M  V30 3202 H 306.174 4.23507 -0.390142 0
M  V30 3203 N 304.489 0.459591 1.5075 0
M  V30 3204 C 305.436 -0.340524 2.28274 0
M  V30 3205 C 306.406 -0.997371 1.32822 0
M  V30 3206 O 307.591 -1.01202 1.61749 0
M  V30 3207 C 304.731 -1.42317 3.14388 0
M  V30 3208 C 303.844 -0.782251 4.24859 0
M  V30 3209 C 302.979 -1.84182 4.98247 0
M  V30 3210 C 302.018 -1.18053 6.00608 0
M  V30 3211 N 301.155 -2.18244 6.67319 0
M  V30 3212 H 305.995 0.326899 2.96202 0
M  V30 3213 H 303.532 0.173057 1.46078 0
M  V30 3214 H 305.49 -2.06241 3.62658 0
M  V30 3215 H 304.12 -2.05992 2.4853 0
M  V30 3216 H 303.172 -0.0307404 3.80388 0
M  V30 3217 H 304.484 -0.259663 4.98124 0
M  V30 3218 H 303.638 -2.55714 5.50177 0
M  V30 3219 H 302.377 -2.39819 4.24662 0
M  V30 3220 H 301.382 -0.450776 5.47949 0
M  V30 3221 H 302.607 -0.631202 6.7616 0
M  V30 3222 H 300.553 -2.72919 5.96533 0
M  V30 3223 H 300.47 -1.70938 7.36421 0
M  V30 3224 H 301.738 -2.89191 7.23871 0
M  V30 3225 N 305.967 -1.56429 0.191757 0
M  V30 3226 C 307.244 -1.89224 -0.495332 0
M  V30 3227 C 307.624 -1.10478 -1.79883 0
M  V30 3228 O 306.972 -0.204852 -2.2758 0
M  V30 3229 C 307.182 -3.41548 -0.717367 0
M  V30 3230 C 308.53 -4.11711 -1.03823 0
M  V30 3231 O 309.554 -3.4698 -0.805204 0
M  V30 3232 O 308.413 -5.2611 -1.47887 0
M  V30 3233 H 305.507 -0.785788 -0.25781 0
M  V30 3234 H 308.053 -1.68111 0.231721 0
M  V30 3235 H 306.825 -3.90772 0.203287 0
M  V30 3236 H 306.448 -3.68342 -1.497 0
M  V30 3237 N 307.445 0.0818655 -1.57387 0
M  V30 3238 C 308.691 0.784074 -1.8703 0
M  V30 3239 C 309.024 1.77729 -0.782689 0
M  V30 3240 O 308.299 1.93384 0.208051 0
M  V30 3241 C 308.582 1.50105 -3.27323 0
M  V30 3242 C 308.435 0.524925 -4.46727 0
M  V30 3243 C 309.754 2.44843 -3.65705 0
M  V30 3244 H 306.873 0.283582 -0.680257 0
M  V30 3245 H 309.515 0.0474352 -1.89941 0
M  V30 3246 H 307.665 2.12897 -3.24972 0
M  V30 3247 H 309.337 -0.0970111 -4.61198 0
M  V30 3248 H 307.58 -0.160606 -4.33503 0
M  V30 3249 H 308.251 1.064 -5.41648 0
M  V30 3250 H 310.727 1.92135 -3.69085 0
M  V30 3251 H 309.603 2.92018 -4.64776 0
M  V30 3252 H 309.864 3.29197 -2.95096 0
M  V30 3253 N 308.923 1.53595 0.353017 0
M  V30 3254 C 309.87 1.80919 1.43308 0
M  V30 3255 C 310.84 0.654288 1.5267 0
M  V30 3256 O 312.025 0.897759 1.6836 0
M  V30 3257 C 309.165 2.01605 2.80089 0
M  V30 3258 C 308.278 3.29321 2.79593 0
M  V30 3259 C 307.413 3.40125 4.0803 0
M  V30 3260 C 306.452 4.61826 4.01725 0
M  V30 3261 N 305.589 4.69716 5.21834 0
M  V30 3262 H 310.429 2.73074 1.19308 0
M  V30 3263 H 307.966 1.35263 0.578131 0
M  V30 3264 H 309.924 2.11586 3.59565 0
M  V30 3265 H 308.554 1.12772 3.0246 0
M  V30 3266 H 307.606 3.28229 1.92276 0
M  V30 3267 H 308.918 4.18884 2.70809 0
M  V30 3268 H 308.072 3.49488 4.95927 0
M  V30 3269 H 306.811 2.48601 4.19582 0
M  V30 3270 H 305.816 4.52552 3.12213 0
M  V30 3271 H 307.041 5.54705 3.91764 0
M  V30 3272 H 304.987 3.81097 5.33948 0
M  V30 3273 H 304.904 5.53202 5.1527 0
M  V30 3274 H 306.172 4.83376 6.11529 0
M  V30 3275 N 310.401 -0.613514 1.45168 0
M  V30 3276 C 311.647 -1.37471 1.49096 0
M  V30 3277 C 311.98 -1.93765 0.129901 0
M  V30 3278 O 311.255 -1.74707 -0.854858 0
M  V30 3279 C 311.538 -2.52701 2.56542 0
M  V30 3280 C 311.391 -2.01643 4.0207 0
M  V30 3281 C 312.71 -3.54849 2.60327 0
M  V30 3282 H 309.829 -0.498502 0.54283 0
M  V30 3283 H 312.471 -0.692125 1.76945 0
M  V30 3284 H 310.621 -3.10931 2.32926 0
M  V30 3285 H 312.293 -1.48108 4.36877 0
M  V30 3286 H 310.536 -1.32688 4.13009 0
M  V30 3287 H 311.207 -2.84681 4.72928 0
M  V30 3288 H 313.683 -3.0645 2.81474 0
M  V30 3289 H 312.559 -4.32973 3.37381 0
M  V30 3290 H 312.82 -4.10079 1.6519 0
M  V30 3291 N 311.879 -1.3236 -0.855495 0
M  V30 3292 C 313.109 -1.25688 -1.6397 0
M  V30 3293 C 313.517 0.177592 -1.88365 0
M  V30 3294 O 312.86 1.12485 -1.45234 0
M  V30 3295 C 312.922 -1.94602 -3.02275 0
M  V30 3296 C 312.586 -3.43937 -3.00926 0
M  V30 3297 C 313.583 -4.39435 -2.77835 0
M  V30 3298 C 311.268 -3.85858 -3.21588 0
M  V30 3299 C 313.262 -5.74829 -2.75409 0
M  V30 3300 C 310.949 -5.21361 -3.18789 0
M  V30 3301 C 311.947 -6.15658 -2.95727 0
M  V30 3302 O 311.635 -7.48681 -2.928 0
M  V30 3303 H 311.367 -0.434972 -0.51747 0
M  V30 3304 H 313.921 -1.75023 -1.075 0
M  V30 3305 H 312.151 -1.39836 -3.60531 0
M  V30 3306 H 313.84 -1.81651 -3.62985 0
M  V30 3307 H 314.606 -4.08374 -2.6164 0
M  V30 3308 H 310.485 -3.12883 -3.38564 0
M  V30 3309 H 314.029 -6.48404 -2.57328 0
M  V30 3310 H 309.926 -5.52052 -3.34528 0
M  V30 3311 H 310.694 -7.5803 -3.0876 0
M  V30 3312 N 313.357 1.07166 -1.15556 0
M  V30 3313 C 314.605 1.79443 -0.929764 0
M  V30 3314 C 314.926 1.87246 0.544414 0
M  V30 3315 O 314.196 1.37473 1.39564 0
M  V30 3316 H 312.776 0.664625 -0.341003 0
M  V30 3317 H 315.438 1.29499 -1.45657 0
M  V30 3318 H 314.534 2.81832 -1.34079 0
M  V30 3319 N 314.835 0.952656 1.25548 0
M  V30 3320 C 315.782 0.47008 2.25962 0
M  V30 3321 C 316.752 -0.476384 1.59122 0
M  V30 3322 O 317.937 -0.39007 1.8677 0
M  V30 3323 C 315.077 -0.247881 3.44209 0
M  V30 3324 C 314.19 0.735591 4.25691 0
M  V30 3325 C 313.325 -0.0047306 5.312 0
M  V30 3326 C 312.364 0.969805 6.04368 0
M  V30 3327 N 311.501 0.260486 7.01617 0
M  V30 3328 H 316.341 1.33126 2.66611 0
M  V30 3329 H 313.878 0.66765 1.31076 0
M  V30 3330 H 315.836 -0.680695 4.1161 0
M  V30 3331 H 314.466 -1.07312 3.0444 0
M  V30 3332 H 313.518 1.28689 3.57971 0
M  V30 3333 H 314.83 1.47934 4.76358 0
M  V30 3334 H 313.984 -0.496275 6.04667 0
M  V30 3335 H 312.723 -0.781282 4.81401 0
M  V30 3336 H 311.728 1.47237 5.29718 0
M  V30 3337 H 312.953 1.74655 6.56256 0
M  V30 3338 H 310.899 -0.497364 6.54112 0
M  V30 3339 H 310.816 0.943362 7.50091 0
M  V30 3340 H 312.084 -0.209587 7.79218 0
M  V30 3341 N 316.313 -1.40141 0.720998 0
M  V30 3342 C 317.561 -2.0039 0.262323 0
M  V30 3343 C 317.882 -1.57469 -1.15015 0
M  V30 3344 O 317.152 -0.816582 -1.78069 0
M  V30 3345 H 315.732 -0.741063 0.093996 0
M  V30 3346 H 318.394 -1.71398 0.927835 0
M  V30 3347 H 317.49 -3.10658 0.299671 0
M  V30 3348 N 317.792 -0.46758 -1.50504 0
M  V30 3349 C 318.74 0.342482 -2.30065 0
M  V30 3350 C 319.734 0.993596 -1.37201 0
M  V30 3351 O 320.94 0.925102 -1.54408 0
M  V30 3352 H 317.315 0.129283 -0.740803 0
M  V30 3353 H 319.286 -0.34899 -2.96352 0
M  V30 3354 C 318.035 1.4139 -3.17654 0
M  V30 3355 H 317.358 0.922264 -3.89017 0
M  V30 3356 H 318.798 1.95335 -3.76325 0
M  V30 3357 C 317.257 2.4139 -2.35016 0
M  V30 3358 O 317.787 3.46586 -2.03079 0
M  V30 3359 N 315.993 2.13021 -1.97662 0
M  V30 3360 H 315.54 1.27499 -2.23834 0
M  V30 3361 H 315.498 2.80164 -1.42673 0
M  V30 3362 N 319.27 1.56325 -0.20005 0
M  V30 3363 C 320.681 1.8408 0.31167 0
M  V30 3364 C 321.032 1.12087 1.61031 0
M  V30 3365 O 320.157 0.38332 2.12978 0
M  V30 3366 C 320.752 3.33932 0.57226 0
M  V30 3367 C 319.311 3.6208 1.02834 0
M  V30 3368 C 318.458 2.77186 0.079634 0
M  V30 3369 H 321.409 1.52939 -0.423729 0
M  V30 3370 H 321.43 3.52971 1.42096 0
M  V30 3371 H 320.942 3.86303 -0.37308 0
M  V30 3372 H 319.043 3.15147 1.98778 0
M  V30 3373 H 319.156 4.7023 0.917624 0
M  V30 3374 H 317.52 2.47951 0.582448 0
M  V30 3375 H 318.303 3.32347 -0.860238 0
M  V30 3376 N 320.748 -0.0735177 1.57428 0
M  V30 3377 C 321.976 -0.785969 1.9139 0
M  V30 3378 C 322.391 -1.71207 0.795847 0
M  V30 3379 O 321.748 -1.81033 -0.230915 0
M  V30 3380 C 321.799 -1.58107 3.25091 0
M  V30 3381 O 321.52 -0.6922 4.32597 0
M  V30 3382 C 323.021 -2.39467 3.73055 0
M  V30 3383 H 320.241 -0.223558 0.632663 0
M  V30 3384 H 322.785 -0.044302 2.04452 0
M  V30 3385 H 320.94 -2.27503 3.13562 0
M  V30 3386 H 321.354 -1.24504 5.09508 0
M  V30 3387 H 322.828 -2.90716 4.69242 0
M  V30 3388 H 323.305 -3.18913 3.01979 0
M  V30 3389 H 323.911 -1.7523 3.87523 0
M  V30 3390 N 322.226 -1.5378 -0.344866 0
M  V30 3391 C 323.173 -1.81676 -1.42346 0
M  V30 3392 C 324.143 -0.662376 -1.52321 0
M  V30 3393 O 325.328 -0.906675 -1.67881 0
M  V30 3394 C 322.468 -2.03087 -2.79015 0
M  V30 3395 C 321.581 -3.30799 -2.77842 0
M  V30 3396 C 320.716 -3.42285 -4.0622 0
M  V30 3397 C 319.755 -4.6395 -3.9927 0
M  V30 3398 N 318.892 -4.72477 -5.19336 0
M  V30 3399 H 323.732 -2.73703 -1.17858 0
M  V30 3400 H 321.269 -1.35568 -0.570949 0
M  V30 3401 H 323.227 -2.1349 -3.58438 0
M  V30 3402 H 321.857 -1.14375 -3.01858 0
M  V30 3403 H 320.909 -3.29244 -1.90533 0
M  V30 3404 H 322.221 -4.20314 -2.68584 0
M  V30 3405 H 321.375 -3.52113 -4.94066 0
M  V30 3406 H 320.114 -2.50823 -4.18258 0
M  V30 3407 H 319.119 -4.54201 -3.09809 0
M  V30 3408 H 320.344 -5.56775 -3.88817 0
M  V30 3409 H 318.29 -3.83924 -5.3192 0
M  V30 3410 H 318.207 -5.55927 -5.12329 0
M  V30 3411 H 319.475 -4.86613 -6.08957 0
M  V30 3412 N 323.704 0.605807 -1.45491 0
M  V30 3413 C 324.95 1.36679 -1.49823 0
M  V30 3414 C 325.283 1.93693 -0.140175 0
M  V30 3415 O 324.558 1.75158 0.845581 0
M  V30 3416 C 324.841 2.51337 -2.57879 0
M  V30 3417 C 324.694 1.99508 -4.03134 0
M  V30 3418 C 326.013 3.53463 -2.62205 0
M  V30 3419 H 323.132 0.495617 -0.545466 0
M  V30 3420 H 325.774 0.682732 -1.7731 0
M  V30 3421 H 323.924 3.09691 -2.34571 0
M  V30 3422 H 325.596 1.45789 -4.37656 0
M  V30 3423 H 323.839 1.30496 -4.13707 0
M  V30 3424 H 324.51 2.82169 -4.74431 0
M  V30 3425 H 326.986 3.04953 -2.83095 0
M  V30 3426 H 325.862 4.31178 -3.39672 0
M  V30 3427 H 326.123 4.09197 -1.67363 0
M  V30 3428 N 325.182 1.32811 0.848464 0
M  V30 3429 C 326.428 1.23907 1.60546 0
M  V30 3430 C 326.761 -0.197161 1.93197 0
M  V30 3431 O 326.036 -1.13596 1.5788 0
M  V30 3432 C 326.319 2.10489 2.92175 0
M  V30 3433 C 326.172 3.62522 2.66266 0
M  V30 3434 C 327.491 1.97075 3.93509 0
M  V30 3435 H 324.61 0.451459 0.58254 0
M  V30 3436 H 327.252 1.62818 0.979296 0
M  V30 3437 H 325.402 1.77434 3.45614 0
M  V30 3438 H 327.074 4.05821 2.19334 0
M  V30 3439 H 325.317 3.84879 2.00126 0
M  V30 3440 H 325.988 4.18437 3.6002 0
M  V30 3441 H 328.464 2.26045 3.49346 0
M  V30 3442 H 327.34 2.59923 4.83457 0
M  V30 3443 H 327.601 0.940186 4.31987 0
M  V30 3444 N 326.66 -1.06551 1.16123 0
M  V30 3445 C 327.623 -2.12132 0.867906 0
M  V30 3446 C 328.623 -1.60224 -0.135944 0
M  V30 3447 O 329.813 -1.73943 0.0946422 0
M  V30 3448 C 326.945 -3.396 0.297419 0
M  V30 3449 H 328.138 -2.39586 1.80385 0
M  V30 3450 H 325.691 -1.22574 0.969812 0
M  V30 3451 H 326.426 -3.17794 -0.64633 0
M  V30 3452 H 326.211 -3.78581 1.02073 0
M  V30 3453 H 327.701 -4.17455 0.110052 0
M  V30 3454 N 328.138 -0.959301 -1.25041 0
M  V30 3455 C 329.384 -0.617525 -1.9317 0
M  V30 3456 C 329.717 0.843981 -1.74902 0
M  V30 3457 O 328.992 1.60615 -1.09696 0
M  V30 3458 C 329.275 -0.982736 -3.46431 0
M  V30 3459 C 329.128 -2.50032 -3.73904 0
M  V30 3460 C 330.447 -0.511176 -4.37121 0
M  V30 3461 H 327.566 -0.22582 -0.701552 0
M  V30 3462 H 330.208 -1.19679 -1.4757 0
M  V30 3463 H 328.358 -0.489806 -3.854 0
M  V30 3464 H 330.03 -3.06737 -3.44544 0
M  V30 3465 H 328.273 -2.93598 -3.19348 0
M  V30 3466 H 328.944 -2.70635 -4.81103 0
M  V30 3467 H 331.42 -0.934075 -4.0548 0
M  V30 3468 H 330.296 -0.795361 -5.43107 0
M  V30 3469 H 330.557 0.588834 -4.38161 0
M  V30 3470 N 329.616 1.39756 -0.72842 0
M  V30 3471 C 330.893 1.94574 -0.200079 0
M  V30 3472 C 331.273 1.66569 1.29684 0
M  V30 3473 O 330.621 0.990326 2.05924 0
M  V30 3474 C 330.831 3.45004 -0.526608 0
M  V30 3475 C 332.179 4.21965 -0.472318 0
M  V30 3476 O 333.203 3.53173 -0.463413 0
M  V30 3477 O 332.062 5.44552 -0.461075 0
M  V30 3478 H 329.156 0.826289 -0.0342851 0
M  V30 3479 H 331.702 1.49293 -0.806829 0
M  V30 3480 H 330.474 3.58796 -1.56144 0
M  V30 3481 H 330.097 3.97449 0.109449 0
M  V30 3482 N 331.094 0.475555 1.50254 0
M  V30 3483 C 332.334 -0.0765802 2.04256 0
M  V30 3484 C 332.698 -1.36587 1.34937 0
M  V30 3485 O 333.899 -2.00066 1.79519 0
M  V30 3486 C 332.17 -0.251668 3.56513 0
M  V30 3487 S 333.729 -0.761716 4.32138 0
M  V30 3488 H 330.547 -0.0138456 0.710865 0
M  V30 3489 H 333.149 0.643714 1.84598 0
M  V30 3490 H 331.853 0.692404 4.04517 0
M  V30 3491 H 331.384 -0.997946 3.80532 0
M  V30 3492 H 333.399 -2.03451 4.52573 0
M  V30 3493 N 332.573 -1.56217 0.208337 0
M  V30 3494 C 333.821 -1.97558 -0.426076 0
M  V30 3495 C 334.142 -1.09683 -1.61229 0
M  V30 3496 O 333.412 -0.170956 -1.95153 0
M  V30 3497 H 331.992 -0.729575 -0.160405 0
M  V30 3498 H 334.654 -1.92606 0.298155 0
M  V30 3499 H 333.75 -3.02672 -0.761312 0
M  V30 3500 N 334.051 0.0651679 -1.57465 0
M  V30 3501 C 335.3 0.761916 -1.86756 0
M  V30 3502 C 335.613 1.78406 -0.801925 0
M  V30 3503 O 336.819 2.53084 -0.982885 0
M  V30 3504 C 335.275 1.40603 -3.31299 0
M  V30 3505 C 334.883 0.422115 -4.46007 0
M  V30 3506 C 336.627 2.08476 -3.69781 0
M  V30 3507 C 334.534 1.07252 -5.81593 0
M  V30 3508 H 333.464 0.288308 -0.696702 0
M  V30 3509 H 336.115 0.015344 -1.83494 0
M  V30 3510 H 334.497 2.20109 -3.29193 0
M  V30 3511 H 335.671 -0.343613 -4.59517 0
M  V30 3512 H 333.986 -0.152527 -4.16121 0
M  V30 3513 H 336.583 2.57925 -4.68379 0
M  V30 3514 H 336.926 2.88712 -2.99919 0
M  V30 3515 H 337.459 1.35792 -3.73905 0
M  V30 3516 H 334.198 0.310342 -6.54765 0
M  V30 3517 H 333.718 1.80895 -5.71872 0
M  V30 3518 H 335.397 1.59043 -6.27148 0
M  V30 3519 N 335.529 1.53961 0.336706 0
M  V30 3520 C 336.476 1.82428 1.41381 0
M  V30 3521 C 337.446 0.670444 1.51968 0
M  V30 3522 O 338.631 0.915565 1.67398 0
M  V30 3523 C 335.771 2.04564 2.77934 0
M  V30 3524 C 334.884 3.32267 2.76084 0
M  V30 3525 C 334.019 3.44434 4.04399 0
M  V30 3526 C 333.058 4.66061 3.96804 0
M  V30 3527 N 332.195 4.75224 5.16823 0
M  V30 3528 H 337.035 2.74324 1.16405 0
M  V30 3529 H 334.572 1.35869 0.563752 0
M  V30 3530 H 336.53 2.15388 3.57301 0
M  V30 3531 H 335.16 1.15974 3.01247 0
M  V30 3532 H 334.212 3.3025 1.88784 0
M  V30 3533 H 335.524 4.21733 2.66351 0
M  V30 3534 H 334.678 3.54728 4.92192 0
M  V30 3535 H 333.417 2.53037 4.16921 0
M  V30 3536 H 332.422 4.55838 3.07396 0
M  V30 3537 H 333.647 5.58829 3.85858 0
M  V30 3538 H 331.593 3.86739 5.29876 0
M  V30 3539 H 331.51 5.58636 5.09374 0
M  V30 3540 H 332.778 4.89835 6.06367 0
M  V30 3541 N 337.007 -0.598083 1.45811 0
M  V30 3542 C 337.955 -1.72932 1.55555 0
M  V30 3543 C 338.949 -1.63984 0.424921 0
M  V30 3544 O 340.155 -1.69663 0.601205 0
M  V30 3545 H 336.53 -0.571489 0.488779 0
M  V30 3546 H 338.501 -1.61842 2.50699 0
M  V30 3547 C 337.25 -3.11318 1.54843 0
M  V30 3548 H 336.573 -3.18867 2.41172 0
M  V30 3549 H 338.013 -3.90274 1.65717 0
M  V30 3550 C 336.472 -3.3578 0.274427 0
M  V30 3551 O 337.002 -3.9654 -0.641778 0
M  V30 3552 N 335.208 -2.90119 0.167139 0
M  V30 3553 H 334.755 -2.40855 0.913596 0
M  V30 3554 H 334.713 -3.0686 -0.684435 0
M  V30 3555 N 338.485 -1.33259 -0.841409 0
M  V30 3556 C 339.433 -1.23279 -1.97244 0
M  V30 3557 C 340.427 -0.134706 -1.68864 0
M  V30 3558 O 341.633 -0.298501 -1.77508 0
M  V30 3559 H 338.008 -0.382497 -0.647457 0
M  V30 3560 H 339.979 -2.18906 -2.02787 0
M  V30 3561 C 338.728 -0.986268 -3.33419 0
M  V30 3562 H 338.051 -1.82347 -3.55794 0
M  V30 3563 H 339.491 -0.956728 -4.13065 0
M  V30 3564 C 337.95 0.310842 -3.35463 0
M  V30 3565 O 338.48 1.31838 -3.79449 0
M  V30 3566 N 336.686 0.337485 -2.88634 0
M  V30 3567 H 336.233 -0.482967 -2.53032 0
M  V30 3568 H 336.191 1.20518 -2.90384 0
M  V30 3569 N 339.963 1.05934 -1.16686 0
M  V30 3570 C 341.209 1.79065 -0.95203 0
M  V30 3571 C 341.542 1.87147 0.518629 0
M  V30 3572 O 340.817 1.36574 1.38484 0
M  V30 3573 C 341.1 3.23359 -1.58464 0
M  V30 3574 C 340.953 3.23336 -3.12689 0
M  V30 3575 C 342.272 4.21004 -1.28232 0
M  V30 3576 H 339.391 0.65005 -0.34728 0
M  V30 3577 H 342.033 1.23868 -1.44072 0
M  V30 3578 H 340.183 3.70493 -1.16908 0
M  V30 3579 H 341.855 2.84336 -3.6325 0
M  V30 3580 H 340.098 2.61886 -3.4583 0
M  V30 3581 H 340.769 4.25144 -3.52075 0
M  V30 3582 H 343.245 3.8233 -1.64203 0
M  V30 3583 H 342.121 5.20225 -1.75092 0
M  V30 3584 H 342.382 4.41639 -0.201791 0
M  V30 3585 N 341.441 0.965919 1.2453 0
M  V30 3586 C 342.69 0.622437 1.91856 0
M  V30 3587 C 343.003 -0.846006 1.76358 0
M  V30 3588 O 344.209 -1.29993 2.38357 0
M  V30 3589 C 342.665 1.0626 3.43856 0
M  V30 3590 C 342.273 2.55437 3.68043 0
M  V30 3591 C 344.017 0.792183 4.17043 0
M  V30 3592 C 341.924 2.93196 5.13605 0
M  V30 3593 H 340.854 0.229092 0.718354 0
M  V30 3594 H 343.505 1.17189 1.41206 0
M  V30 3595 H 341.887 0.441476 3.93531 0
M  V30 3596 H 343.061 3.22665 3.28974 0
M  V30 3597 H 341.376 2.8007 3.08139 0
M  V30 3598 H 343.973 1.05031 5.24283 0
M  V30 3599 H 344.316 -0.271584 4.15413 0
M  V30 3600 H 344.849 1.37419 3.73311 0
M  V30 3601 H 341.588 3.98636 5.20355 0
M  V30 3602 H 341.108 2.30651 5.53679 0
M  V30 3603 H 342.787 2.83004 5.81823 0
M  V30 3604 N 342.919 -1.39368 0.735821 0
M  V30 3605 C 344.335 -1.54204 0.411492 0
M  V30 3606 C 344.535 -1.70268 -1.07755 0
M  V30 3607 O 343.591 -1.70364 -1.86366 0
M  V30 3608 C 344.904 -2.75925 1.19523 0
M  V30 3609 C 346.452 -2.89761 1.18354 0
M  V30 3610 C 346.927 -4.14421 1.94986 0
M  V30 3611 N 348.418 -4.21462 1.92156 0
M  V30 3612 C 349.153 -5.16871 2.48258 0
M  V30 3613 N 348.649 -6.18063 3.13001 0
M  V30 3614 N 350.442 -5.09093 2.38287 0
M  V30 3615 H 342.593 -1.27189 1.70108 0
M  V30 3616 H 344.856 -0.616517 0.720147 0
M  V30 3617 H 344.562 -2.70401 2.24892 0
M  V30 3618 H 344.436 -3.68614 0.800222 0
M  V30 3619 H 346.823 -2.94777 0.137975 0
M  V30 3620 H 346.904 -1.98133 1.61793 0
M  V30 3621 H 346.548 -4.10166 2.99543 0
M  V30 3622 H 346.478 -5.05095 1.48953 0
M  V30 3623 H 348.969 -3.48979 1.44991 0
M  V30 3624 H 349.282 -6.87326 3.53275 0
M  V30 3625 H 347.627 -6.18448 3.17091 0
M  V30 3626 H 350.818 -4.28973 1.8735 0
M  V30 3627 H 350.991 -5.83272 2.82308 0
M  V30 3628 N 344.397 -0.483516 -1.5 0
M  V30 3629 C 345.327 0.293829 -2.31644 0
M  V30 3630 C 346.308 0.978864 -1.39112 0
M  V30 3631 O 347.493 0.973644 -1.68029 0
M  V30 3632 C 344.623 1.36897 -3.19181 0
M  V30 3633 C 343.577 0.804833 -4.20365 0
M  V30 3634 C 342.903 1.9792 -4.96721 0
M  V30 3635 C 344.203 -0.192313 -5.21946 0
M  V30 3636 H 345.897 -0.387616 -2.9688 0
M  V30 3637 H 343.443 -0.187856 -1.42769 0
M  V30 3638 H 345.396 1.92037 -3.751 0
M  V30 3639 H 344.12 2.07936 -2.51853 0
M  V30 3640 H 342.779 0.275319 -3.65565 0
M  V30 3641 H 342.427 2.67686 -4.25856 0
M  V30 3642 H 342.127 1.60789 -5.65173 0
M  V30 3643 H 343.651 2.53526 -5.55479 0
M  V30 3644 H 345.065 0.270333 -5.72662 0
M  V30 3645 H 343.462 -0.478543 -5.98189 0
M  V30 3646 H 344.532 -1.11409 -4.71928 0
M  V30 3647 N 345.875 1.56104 -0.216619 0
M  V30 3648 C 346.805 2.23063 0.690296 0
M  V30 3649 C 347.786 1.20072 1.20485 0
M  V30 3650 O 348.971 1.48643 1.24976 0
M  V30 3651 C 346.101 2.90672 1.90072 0
M  V30 3652 C 345.055 4.00092 1.5202 0
M  V30 3653 C 344.381 4.54972 2.80899 0
M  V30 3654 C 345.681 5.17398 0.71391 0
M  V30 3655 H 347.375 2.99109 0.132038 0
M  V30 3656 H 344.921 1.43866 0.0620664 0
M  V30 3657 H 346.874 3.36204 2.54057 0
M  V30 3658 H 345.598 2.12066 2.48386 0
M  V30 3659 H 344.257 3.55283 0.903839 0
M  V30 3660 H 343.905 3.73102 3.37348 0
M  V30 3661 H 343.605 5.28817 2.56176 0
M  V30 3662 H 345.129 5.0322 3.45836 0
M  V30 3663 H 346.543 5.59342 1.25735 0
M  V30 3664 H 344.94 5.97444 0.563951 0
M  V30 3665 H 346.01 4.84088 -0.280527 0
M  V30 3666 N 347.353 -0.0568162 1.57498 0
M  V30 3667 C 348.599 -0.75422 1.88253 0
M  V30 3668 C 348.932 -1.76461 0.810865 0
M  V30 3669 O 348.207 -1.93691 -0.177259 0
M  V30 3670 C 348.49 -1.44878 3.2967 0
M  V30 3671 C 348.343 -0.453789 4.47505 0
M  V30 3672 C 349.662 -2.38994 3.69554 0
M  V30 3673 H 346.781 -0.272724 0.684683 0
M  V30 3674 H 349.423 -0.0172113 1.89992 0
M  V30 3675 H 347.573 -2.077 3.28318 0
M  V30 3676 H 349.245 0.170371 4.60985 0
M  V30 3677 H 347.488 0.229552 4.33192 0
M  V30 3678 H 348.159 -0.977699 5.43273 0
M  V30 3679 H 350.635 -1.86239 3.72095 0
M  V30 3680 H 349.511 -2.84587 4.69363 0
M  V30 3681 H 349.772 -3.24461 3.00296 0
M  V30 3682 N 348.832 -1.54138 -0.328536 0
M  V30 3683 C 349.779 -1.83176 -1.40411 0
M  V30 3684 C 350.749 -0.678494 -1.5161 0
M  V30 3685 O 351.934 -0.92443 -1.6691 0
M  V30 3686 C 349.074 -2.06035 -2.76846 0
M  V30 3687 C 348.187 -3.33727 -2.74318 0
M  V30 3688 C 347.322 -3.46574 -4.02567 0
M  V30 3689 C 346.361 -4.68159 -3.94327 0
M  V30 3690 N 345.498 -4.77959 -5.14296 0
M  V30 3691 H 350.338 -2.74938 -1.14948 0
M  V30 3692 H 347.875 -1.36166 -0.556538 0
M  V30 3693 H 349.833 -2.1728 -3.56153 0
M  V30 3694 H 348.463 -1.1757 -3.00628 0
M  V30 3695 H 347.515 -3.31246 -1.8703 0
M  V30 3696 H 348.827 -4.23139 -2.64111 0
M  V30 3697 H 347.981 -3.57333 -4.90304 0
M  V30 3698 H 346.72 -2.55245 -4.15574 0
M  V30 3699 H 345.725 -4.57461 -3.04974 0
M  V30 3700 H 346.95 -5.60868 -3.82889 0
M  V30 3701 H 344.896 -3.89544 -5.27818 0
M  V30 3702 H 344.813 -5.6133 -5.06404 0
M  V30 3703 H 346.081 -4.93044 -6.03761 0
M  V30 3704 N 350.31 0.590341 -1.46126 0
M  V30 3705 C 351.726 0.912917 -1.30912 0
M  V30 3706 C 351.926 1.99616 -0.274893 0
M  V30 3707 O 350.982 2.50397 0.325197 0
M  V30 3708 C 352.295 1.3375 -2.69317 0
M  V30 3709 C 353.843 1.45077 -2.77348 0
M  V30 3710 C 354.318 1.90904 -4.16317 0
M  V30 3711 N 355.809 1.9811 -4.18696 0
M  V30 3712 C 356.544 2.34828 -5.23109 0
M  V30 3713 N 356.04 2.70393 -6.37856 0
M  V30 3714 N 357.833 2.35317 -5.10473 0
M  V30 3715 H 349.984 -0.125358 -2.1203 0
M  V30 3716 H 352.247 0.00658481 -0.947977 0
M  V30 3717 H 351.953 0.615614 -3.4627 0
M  V30 3718 H 351.827 2.30058 -2.9892 0
M  V30 3719 H 354.214 2.16353 -2.00687 0
M  V30 3720 H 354.295 0.4704 -2.51438 0
M  V30 3721 H 353.939 1.20209 -4.9347 0
M  V30 3722 H 353.869 2.89886 -4.39629 0
M  V30 3723 H 356.36 1.73146 -3.359 0
M  V30 3724 H 356.673 2.97341 -7.13308 0
M  V30 3725 H 355.018 2.68048 -6.41229 0
M  V30 3726 H 358.209 2.0695 -4.19868 0
M  V30 3727 H 358.382 2.63605 -5.9196 0
M  V30 3728 N 351.788 1.33704 0.83433 0
M  V30 3729 C 353.036 1.25169 1.58673 0
M  V30 3730 C 353.357 -0.18127 1.94156 0
M  V30 3731 O 352.627 -1.11113 1.6134 0
M  V30 3732 H 351.207 0.4603 0.58833 0
M  V30 3733 H 353.869 1.67478 0.996847 0
M  V30 3734 H 352.965 1.84856 2.51465 0
M  V30 3735 N 353.266 -1.05314 1.17247 0
M  V30 3736 C 354.229 -2.112 0.890357 0
M  V30 3737 C 355.229 -1.60359 -0.118943 0
M  V30 3738 O 356.419 -1.73833 0.113086 0
M  V30 3739 C 353.551 -3.39266 0.333422 0
M  V30 3740 H 354.744 -2.37659 1.82916 0
M  V30 3741 H 352.297 -1.21538 0.982758 0
M  V30 3742 H 353.032 -3.18462 -0.612587 0
M  V30 3743 H 352.817 -3.77477 1.06082 0
M  V30 3744 H 354.307 -4.17315 0.154322 0
M  V30 3745 N 354.744 -0.972509 -1.24016 0
M  V30 3746 C 355.654 -0.5143 -2.28893 0
M  V30 3747 C 356.67 0.427078 -1.68677 0
M  V30 3748 O 357.846 0.298939 -1.99169 0
M  V30 3749 C 354.911 0.183598 -3.46214 0
M  V30 3750 C 353.972 -0.798202 -4.21814 0
M  V30 3751 C 353.205 -0.133514 -5.33533 0
M  V30 3752 O 353.428 1.07714 -5.60137 0
M  V30 3753 O 352.362 -0.828103 -5.96176 0
M  V30 3754 H 356.188 -1.38629 -2.70214 0
M  V30 3755 H 353.773 -0.739769 -1.29799 0
M  V30 3756 H 355.655 0.575433 -4.17453 0
M  V30 3757 H 354.33 1.03048 -3.0686 0
M  V30 3758 H 353.237 -1.24059 -3.52931 0
M  V30 3759 H 354.57 -1.61364 -4.64997 0
M  V30 3760 N 356.222 1.38976 -0.743202 0
M  V30 3761 C 357.468 2.0064 -0.295189 0
M  V30 3762 C 357.801 1.5885 1.11716 0
M  V30 3763 O 357.076 0.821181 1.76315 0
M  V30 3764 C 357.359 3.578 -0.406318 0
M  V30 3765 C 357.212 4.09586 -1.85903 0
M  V30 3766 C 358.531 4.39616 0.206439 0
M  V30 3767 H 355.65 0.728935 -0.108733 0
M  V30 3768 H 358.292 1.65067 -0.940897 0
M  V30 3769 H 356.442 3.88235 0.143419 0
M  V30 3770 H 358.114 3.89837 -2.46627 0
M  V30 3771 H 356.357 3.6284 -2.3776 0
M  V30 3772 H 357.028 5.18708 -1.888 0
M  V30 3773 H 359.504 4.15273 -0.262283 0
M  V30 3774 H 358.38 5.48812 0.0983819 0
M  V30 3775 H 358.641 4.22754 1.2935 0
M  V30 3776 N 357.7 0.491464 1.49741 0
M  V30 3777 C 358.65 -0.311086 2.25868 0
M  V30 3778 C 359.634 -0.943857 1.30308 0
M  V30 3779 O 360.826 -0.853035 1.55088 0
M  V30 3780 C 357.955 -1.38059 3.14316 0
M  V30 3781 C 357.041 -0.754541 4.17334 0
M  V30 3782 N 357.432 0.137216 5.05614 0
M  V30 3783 C 355.73 -1.01621 4.34269 0
M  V30 3784 C 356.431 0.494614 5.79593 0
M  V30 3785 N 355.407 -0.135169 5.43432 0
M  V30 3786 H 359.209 0.37555 2.91491 0
M  V30 3787 H 356.723 0.306917 1.59473 0
M  V30 3788 H 358.72 -1.96891 3.67477 0
M  V30 3789 H 357.38 -2.06901 2.50244 0
M  V30 3790 H 358.391 0.50741 5.15408 0
M  V30 3791 H 355.068 -1.69808 3.81407 0
M  V30 3792 H 356.458 1.2236 6.60665 0
M  V30 3793 N 359.178 -1.55987 0.224894 0
M  V30 3794 C 360.108 -2.23426 -0.678457 0
M  V30 3795 C 361.089 -1.20709 -1.19847 0
M  V30 3796 O 362.274 -1.49304 -1.24186 0
M  V30 3797 C 359.404 -2.91676 -1.88527 0
M  V30 3798 C 358.358 -4.00893 -1.49896 0
M  V30 3799 C 357.684 -4.56455 -2.78483 0
M  V30 3800 C 358.984 -5.17769 -0.686461 0
M  V30 3801 H 360.678 -2.99175 -0.116173 0
M  V30 3802 H 358.224 -1.43897 -0.054436 0
M  V30 3803 H 360.177 -3.37547 -2.5227 0
M  V30 3804 H 358.901 -2.1338 -2.47258 0
M  V30 3805 H 357.56 -3.55758 -0.884985 0
M  V30 3806 H 357.208 -3.74886 -3.35365 0
M  V30 3807 H 356.908 -5.30169 -2.53368 0
M  V30 3808 H 358.432 -5.05047 -3.43162 0
M  V30 3809 H 359.846 -5.60001 -1.22767 0
M  V30 3810 H 358.243 -5.97735 -0.532259 0
M  V30 3811 H 359.313 -4.83932 0.306196 0
M  V30 3812 N 360.656 0.0484629 -1.57525 0
M  V30 3813 C 361.902 0.744226 -1.88651 0
M  V30 3814 C 362.235 1.76029 -0.820212 0
M  V30 3815 O 361.51 1.93782 0.166985 0
M  V30 3816 C 361.793 1.43128 -3.30434 0
M  V30 3817 C 361.646 0.43005 -4.47739 0
M  V30 3818 C 362.965 2.37031 -3.70816 0
M  V30 3819 H 360.084 0.269089 -0.68612 0
M  V30 3820 H 362.726 0.00713532 -1.89999 0
M  V30 3821 H 360.876 2.05956 -3.29415 0
M  V30 3822 H 362.548 -0.194816 -4.60888 0
M  V30 3823 H 360.791 -0.252522 -4.33064 0
M  V30 3824 H 361.462 0.948874 -5.43783 0
M  V30 3825 H 363.938 1.84263 -3.73077 0
M  V30 3826 H 362.814 2.82094 -4.70865 0
M  V30 3827 H 363.075 3.22864 -3.02012 0
M  V30 3828 N 362.134 1.5431 0.320358 0
M  V30 3829 C 363.545 1.63872 0.894594 0
M  V30 3830 C 363.896 0.534847 1.88769 0
M  V30 3831 O 363.021 -0.331732 2.13842 0
M  V30 3832 C 363.616 2.97049 1.62934 0
M  V30 3833 C 362.175 3.08796 2.15226 0
M  V30 3834 C 361.322 2.59456 0.978671 0
M  V30 3835 H 364.273 1.58398 0.0978544 0
M  V30 3836 H 364.294 2.87388 2.49376 0
M  V30 3837 H 363.806 3.7737 0.906302 0
M  V30 3838 H 361.907 2.33156 2.90636 0
M  V30 3839 H 362.02 4.14649 2.40006 0
M  V30 3840 H 360.384 2.1543 1.35875 0
M  V30 3841 H 361.167 3.42237 0.269895 0
M  V30 3842 N 363.613 -0.582584 1.46437 0
M  V30 3843 C 364.859 -1.34064 1.52965 0
M  V30 3844 C 365.214 -1.91566 0.178968 0
M  V30 3845 O 364.507 -1.73526 -0.812365 0
M  V30 3846 C 364.701 -2.48964 2.56421 0
M  V30 3847 C 364.53 -2.02717 4.01417 0
M  V30 3848 C 363.3 -1.87728 4.69134 0
M  V30 3849 C 365.498 -1.58675 4.8921 0
M  V30 3850 N 363.48 -1.35554 5.98747 0
M  V30 3851 C 364.851 -1.18093 6.08649 0
M  V30 3852 C 366.906 -1.46494 4.75861 0
M  V30 3853 C 365.609 -0.665427 7.16215 0
M  V30 3854 C 367.635 -0.96347 5.83499 0
M  V30 3855 C 366.997 -0.567432 7.02111 0
M  V30 3856 H 363.096 -0.483551 0.614575 0
M  V30 3857 H 365.68 -0.663309 1.83053 0
M  V30 3858 H 363.851 -3.1426 2.28244 0
M  V30 3859 H 365.583 -3.15913 2.52944 0
M  V30 3860 H 362.338 -2.09678 4.24655 0
M  V30 3861 H 362.762 -1.11628 6.67734 0
M  V30 3862 H 367.404 -1.75731 3.8455 0
M  V30 3863 H 365.122 -0.360639 8.07295 0
M  V30 3864 H 368.708 -0.873129 5.75211 0
M  V30 3865 H 367.588 -0.185389 7.83981 0
M  V30 3866 N 365.091 -1.34144 -0.827227 0
M  V30 3867 C 366.039 -1.25364 -1.95925 0
M  V30 3868 C 367.033 -0.152608 -1.68711 0
M  V30 3869 O 368.239 -0.317311 -1.77181 0
M  V30 3870 H 364.614 -0.389342 -0.643364 0
M  V30 3871 H 366.585 -2.21045 -2.00454 0
M  V30 3872 C 365.334 -1.02158 -3.32354 0
M  V30 3873 H 364.657 -1.86111 -3.5384 0
M  V30 3874 H 366.097 -1.00048 -4.12027 0
M  V30 3875 C 364.556 0.275244 -3.35774 0
M  V30 3876 O 365.086 1.27806 -3.80826 0
M  V30 3877 N 363.292 0.306853 -2.88975 0
M  V30 3878 H 362.839 -0.509777 -2.52506 0
M  V30 3879 H 362.797 1.17432 -2.91646 0
M  V30 3880 N 366.569 1.04691 -1.17803 0
M  V30 3881 C 367.519 2.10856 -0.867391 0
M  V30 3882 C 368.503 1.601 0.160206 0
M  V30 3883 O 369.695 1.76948 -0.042947 0
M  V30 3884 C 366.824 3.411 -0.388012 0
M  V30 3885 C 365.91 3.9864 -1.44732 0
M  V30 3886 N 366.301 4.30075 -2.66212 0
M  V30 3887 C 364.599 4.26439 -1.30637 0
M  V30 3888 C 365.3 4.76033 -3.34317 0
M  V30 3889 N 364.276 4.76462 -2.61696 0
M  V30 3890 H 368.078 2.33029 -1.79094 0
M  V30 3891 H 365.592 1.22386 -1.0675 0
M  V30 3892 H 367.589 4.16641 -0.146994 0
M  V30 3893 H 366.249 3.20357 0.529271 0
M  V30 3894 H 367.26 4.19917 -3.03134 0
M  V30 3895 H 363.937 4.15056 -0.451129 0
M  V30 3896 H 365.327 5.09427 -4.38103 0
M  V30 3897 N 368.047 0.979072 1.23499 0
M  V30 3898 C 369.324 0.563674 1.87302 0
M  V30 3899 C 369.704 -0.959199 1.88049 0
M  V30 3900 O 369.052 -1.83535 1.36114 0
M  V30 3901 C 369.262 1.16822 3.28867 0
M  V30 3902 C 370.61 1.26014 4.0547 0
M  V30 3903 O 371.634 1.12158 3.38082 0
M  V30 3904 O 370.493 1.48044 5.26066 0
M  V30 3905 H 367.587 0.189602 0.804972 0
M  V30 3906 H 370.133 1.07407 1.31384 0
M  V30 3907 H 368.905 2.21049 3.22883 0
M  V30 3908 H 368.528 0.642564 3.92373 0
M  V30 3909 N 369.525 -1.3858 0.750561 0
M  V30 3910 C 370.772 -2.00184 0.305373 0
M  V30 3911 C 371.1 -1.59575 -1.11203 0
M  V30 3912 O 370.355 -0.823236 -1.77542 0
M  V30 3913 C 370.654 -3.55455 0.372373 0
M  V30 3914 C 370.32 -4.15765 1.745 0
M  V30 3915 C 368.982 -4.31951 2.12065 0
M  V30 3916 C 371.334 -4.49067 2.64553 0
M  V30 3917 C 368.662 -4.78734 3.39162 0
M  V30 3918 C 371.014 -4.97265 3.91038 0
M  V30 3919 C 369.678 -5.11658 4.28676 0
M  V30 3920 H 368.948 -0.732526 0.111744 0
M  V30 3921 H 371.595 -1.65673 0.960451 0
M  V30 3922 H 369.9 -3.90084 -0.366272 0
M  V30 3923 H 371.597 -4.00999 0.00953918 0
M  V30 3924 H 368.187 -4.03579 1.44297 0
M  V30 3925 H 372.371 -4.36166 2.36796 0
M  V30 3926 H 367.627 -4.88062 3.68246 0
M  V30 3927 H 371.801 -5.22003 4.60962 0
M  V30 3928 H 369.428 -5.47668 5.27222 0
M  V30 3929 N 371.003 -0.499398 -1.49478 0
M  V30 3930 C 372.231 0.0425456 -2.06856 0
M  V30 3931 C 372.646 1.30964 -1.35992 0
M  V30 3932 O 372.003 1.77172 -0.437762 0
M  V30 3933 C 372.054 0.301735 -3.60239 0
M  V30 3934 O 371.775 -0.915127 -4.28436 0
M  V30 3935 C 373.276 0.887499 -4.34325 0
M  V30 3936 H 370.496 -0.0197482 -0.670709 0
M  V30 3937 H 373.04 -0.696297 -1.92281 0
M  V30 3938 H 371.195 0.990556 -3.74522 0
M  V30 3939 H 371.609 -0.676993 -5.20113 0
M  V30 3940 H 373.083 1.01845 -5.42523 0
M  V30 3941 H 373.56 1.88488 -3.96698 0
M  V30 3942 H 374.166 0.236196 -4.24644 0
M  V30 3943 N 372.481 1.55866 -0.233164 0
M  V30 3944 C 373.428 2.20796 0.67215 0
M  V30 3945 C 374.398 1.16731 1.18166 0
M  V30 3946 O 375.583 1.45129 1.23864 0
M  V30 3947 C 372.723 2.90072 1.86955 0
M  V30 3948 C 371.836 4.08759 1.39786 0
M  V30 3949 C 370.971 4.65787 2.55374 0
M  V30 3950 C 370.01 5.76752 2.04998 0
M  V30 3951 N 369.147 6.28021 3.13901 0
M  V30 3952 H 373.987 2.9779 0.111749 0
M  V30 3953 H 371.524 1.47036 0.0434007 0
M  V30 3954 H 373.482 3.28428 2.57276 0
M  V30 3955 H 372.112 2.15575 2.40265 0
M  V30 3956 H 371.164 3.7581 0.589173 0
M  V30 3957 H 372.476 4.88906 0.98856 0
M  V30 3958 H 371.63 5.06646 3.33758 0
M  V30 3959 H 370.369 3.84828 2.99598 0
M  V30 3960 H 369.374 5.35383 1.25079 0
M  V30 3961 H 370.599 6.59553 1.61759 0
M  V30 3962 H 368.545 5.49971 3.57586 0
M  V30 3963 H 368.462 7.03323 2.7726 0
M  V30 3964 H 369.73 6.73538 3.92386 0
M  V30 3965 N 373.959 -0.0401083 1.57549 0
M  V30 3966 C 374.892 -1.07689 2.01192 0
M  V30 3967 C 375.87 -1.358 0.894273 0
M  V30 3968 O 377.054 -1.48642 1.15921 0
M  V30 3969 C 374.181 -2.41418 2.3756 0
M  V30 3970 C 373.227 -2.29237 3.59656 0
M  V30 3971 S 374.06 -1.65628 5.09242 0
M  V30 3972 C 375.216 -3.0087 5.48843 0
M  V30 3973 H 375.449 -0.705108 2.88817 0
M  V30 3974 H 372.982 -0.249724 1.52367 0
M  V30 3975 H 374.94 -3.18329 2.59186 0
M  V30 3976 H 373.601 -2.75747 1.50407 0
M  V30 3977 H 372.794 -3.27932 3.82722 0
M  V30 3978 H 372.396 -1.60469 3.37825 0
M  V30 3979 H 374.688 -3.97201 5.48851 0
M  V30 3980 H 375.631 -2.82549 6.49286 0
M  V30 3981 H 376.039 -3.02934 4.76331 0
M  V30 3982 N 375.437 -1.54477 -0.31217 0
M  V30 3983 C 376.347 -1.87695 -1.4074 0
M  V30 3984 C 377.363 -0.769975 -1.56036 0
M  V30 3985 O 378.539 -1.06537 -1.70915 0
M  V30 3986 C 375.604 -2.10755 -2.75287 0
M  V30 3987 C 374.665 -3.34514 -2.69071 0
M  V30 3988 C 373.898 -3.56465 -3.97201 0
M  V30 3989 O 374.121 -2.81637 -4.96021 0
M  V30 3990 O 373.055 -4.49964 -3.9977 0
M  V30 3991 H 376.881 -2.80849 -1.15574 0
M  V30 3992 H 374.466 -1.40526 -0.507228 0
M  V30 3993 H 376.348 -2.27188 -3.54913 0
M  V30 3994 H 375.023 -1.20788 -3.0032 0
M  V30 3995 H 373.93 -3.23456 -1.87955 0
M  V30 3996 H 375.263 -4.24575 -2.48992 0
M  V30 3997 N 376.915 0.57481 -1.46744 0
M  V30 3998 C 378.145 1.35659 -1.55821 0
M  V30 3999 C 378.553 1.88129 -0.201036 0
M  V30 4000 O 377.896 1.64723 0.813134 0
M  V30 4001 C 377.958 2.57473 -2.50894 0
M  V30 4002 C 377.622 2.26415 -3.9697 0
M  V30 4003 C 378.619 1.84771 -4.85958 0
M  V30 4004 C 376.304 2.38316 -4.42166 0
M  V30 4005 C 378.298 1.55434 -6.18158 0
M  V30 4006 C 375.985 2.08591 -5.74398 0
M  V30 4007 C 376.983 1.67216 -6.62214 0
M  V30 4008 O 376.671 1.37859 -7.91991 0
M  V30 4009 H 376.403 0.420496 -0.529301 0
M  V30 4010 H 378.957 0.704967 -1.92923 0
M  V30 4011 H 377.187 3.25468 -2.08824 0
M  V30 4012 H 378.876 3.19546 -2.50291 0
M  V30 4013 H 379.642 1.75085 -4.52295 0
M  V30 4014 H 375.521 2.69483 -3.74032 0
M  V30 4015 H 379.065 1.23065 -6.86659 0
M  V30 4016 H 374.962 2.17905 -6.07608 0
M  V30 4017 H 375.73 1.51638 -8.04331 0
M  V30 4018 N 378.394 1.34581 0.820102 0
M  V30 4019 C 379.671 1.17675 1.56244 0
M  V30 4020 C 380.051 -0.249541 2.0962 0
M  V30 4021 O 379.399 -1.25125 1.91196 0
M  V30 4022 C 379.609 2.23364 2.6816 0
M  V30 4023 C 380.957 2.58485 3.36854 0
M  V30 4024 O 381.981 2.22175 2.78418 0
M  V30 4025 O 380.84 3.20868 4.42386 0
M  V30 4026 H 377.934 0.456333 0.689702 0
M  V30 4027 H 380.48 1.46222 0.861231 0
M  V30 4028 H 379.252 3.19087 2.26493 0
M  V30 4029 H 378.875 1.96009 3.45928 0
M  V30 4030 N 379.872 -1.04064 1.18357 0
M  V30 4031 C 381.12 -1.76915 0.977013 0
M  V30 4032 C 381.441 -1.88624 -0.494577 0
M  V30 4033 O 380.711 -1.41125 -1.3587 0
M  V30 4034 H 379.291 -0.65535 0.358504 0
M  V30 4035 H 381.953 -1.25592 1.49039 0
M  V30 4036 H 381.049 -2.78178 1.41504 0
M  V30 4037 N 381.35 -0.985608 -1.22978 0
M  V30 4038 C 382.599 -0.652881 -1.90841 0
M  V30 4039 C 382.912 0.817842 -1.77681 0
M  V30 4040 O 384.118 1.26185 -2.40395 0
M  V30 4041 C 382.574 -1.11717 -3.42122 0
M  V30 4042 C 382.182 -2.6126 -3.63933 0
M  V30 4043 C 383.926 -0.85843 -4.1573 0
M  V30 4044 C 381.833 -3.0133 -5.08876 0
M  V30 4045 H 380.763 -0.240491 -0.714619 0
M  V30 4046 H 383.414 -1.1942 -1.39324 0
M  V30 4047 H 381.796 -0.504027 -3.92779 0
M  V30 4048 H 382.97 -3.27858 -3.23799 0
M  V30 4049 H 381.285 -2.84937 -3.03644 0
M  V30 4050 H 383.882 -1.13359 -5.22546 0
M  V30 4051 H 384.225 0.205461 -4.15793 0
M  V30 4052 H 384.758 -1.43341 -3.71077 0
M  V30 4053 H 381.497 -4.06864 -5.13947 0
M  V30 4054 H 381.017 -2.3943 -5.49939 0
M  V30 4055 H 382.696 -2.92224 -5.77247 0
M  V30 4056 N 382.828 1.3818 -0.7579 0
M  V30 4057 C 383.758 2.33027 -0.148597 0
M  V30 4058 C 384.739 1.55085 0.69875 0
M  V30 4059 O 385.924 1.83384 0.639053 0
M  V30 4060 C 383.054 3.3928 0.742034 0
M  V30 4061 C 382.008 4.28 -0.00291946 0
M  V30 4062 C 381.334 5.25146 1.00625 0
M  V30 4063 C 382.634 5.08938 -1.17385 0
M  V30 4064 H 384.328 2.84231 -0.940909 0
M  V30 4065 H 381.874 1.36659 -0.453908 0
M  V30 4066 H 383.827 4.046 1.17799 0
M  V30 4067 H 382.551 2.86569 1.56671 0
M  V30 4068 H 381.21 3.64192 -0.419504 0
M  V30 4069 H 380.858 4.68721 1.8251 0
M  V30 4070 H 380.558 5.85361 0.512428 0
M  V30 4071 H 382.082 5.93342 1.44143 0
M  V30 4072 H 383.496 5.67474 -0.815224 0
M  V30 4073 H 381.893 5.7841 -1.59882 0
M  V30 4074 H 382.963 4.42424 -1.98468 0
M  V30 4075 N 384.306 0.507319 1.49211 0
M  V30 4076 C 385.555 -0.0368315 2.01666 0
M  V30 4077 C 385.868 -1.37459 1.39156 0
M  V30 4078 O 387.074 -2.00579 1.82976 0
M  V30 4079 C 385.53 -0.116089 3.59713 0
M  V30 4080 C 385.138 1.2154 4.31198 0
M  V30 4081 C 386.882 -0.610268 4.2009 0
M  V30 4082 C 384.789 1.09796 5.81119 0
M  V30 4083 H 383.719 -0.0175376 0.753796 0
M  V30 4084 H 386.37 0.647691 1.71689 0
M  V30 4085 H 384.752 -0.8652 3.86433 0
M  V30 4086 H 385.926 1.9783 4.16173 0
M  V30 4087 H 384.241 1.64352 3.82593 0
M  V30 4088 H 386.838 -0.715742 5.29888 0
M  V30 4089 H 387.181 -1.61064 3.8388 0
M  V30 4090 H 387.714 0.0824916 3.97714 0
M  V30 4091 H 384.453 2.0728 6.21864 0
M  V30 4092 H 383.973 0.376058 5.9862 0
M  V30 4093 H 385.652 0.779281 6.4229 0
M  V30 4094 N 385.784 -1.5574 0.241426 0
M  V30 4095 C 386.747 -2.19877 -0.647063 0
M  V30 4096 C 387.747 -1.16642 -1.10686 0
M  V30 4097 O 388.937 -1.41757 -1.01245 0
M  V30 4098 C 386.069 -2.83797 -1.88871 0
M  V30 4099 H 387.262 -2.99772 -0.087574 0
M  V30 4100 H 384.815 -1.56298 -0.00813574 0
M  V30 4101 H 385.55 -2.07824 -2.48957 0
M  V30 4102 H 385.335 -3.59414 -1.56728 0
M  V30 4103 H 386.825 -3.32898 -2.52129 0
M  V30 4104 N 387.262 0.0317525 -1.57568 0
M  V30 4105 C 388.51 0.721676 -1.88776 0
M  V30 4106 C 388.831 1.76039 -0.838772 0
M  V30 4107 O 388.101 1.95482 0.127935 0
M  V30 4108 H 386.681 0.269534 -0.696678 0
M  V30 4109 H 389.343 -0.00165879 -1.949 0
M  V30 4110 H 388.439 1.21293 -2.87566 0
M  V30 4111 N 388.74 1.54641 0.303973 0
M  V30 4112 C 389.988 1.73437 1.0375 0
M  V30 4113 C 390.309 0.521449 1.87899 0
M  V30 4114 O 389.579 -0.46432 1.90318 0
M  V30 4115 H 388.159 0.639518 0.386039 0
M  V30 4116 H 390.821 1.91988 0.335675 0
M  V30 4117 H 389.917 2.62235 1.69231 0
M  V30 4118 N 390.218 -0.567019 1.47046 0
M  V30 4119 C 391.629 -1.14916 1.47143 0
M  V30 4120 C 391.98 -1.94954 0.220767 0
M  V30 4121 O 391.105 -2.05602 -0.67505 0
M  V30 4122 C 391.7 -2.09069 2.666 0
M  V30 4123 C 390.259 -2.62575 2.69687 0
M  V30 4124 C 389.406 -1.38755 2.40088 0
M  V30 4125 H 392.357 -0.354126 1.54699 0
M  V30 4126 H 392.378 -2.92789 2.43011 0
M  V30 4127 H 391.89 -1.50789 3.57609 0
M  V30 4128 H 389.991 -3.24681 1.82792 0
M  V30 4129 H 390.104 -3.04239 3.70102 0
M  V30 4130 H 388.468 -1.69098 1.90468 0
M  V30 4131 H 389.251 -0.822822 3.33293 0
M  V30 4132 N 391.696 -1.35014 -0.812953 0
M  V30 4133 C 392.944 -1.27678 -1.56661 0
M  V30 4134 C 393.265 0.150359 -1.94419 0
M  V30 4135 O 392.535 1.08532 -1.63088 0
M  V30 4136 H 391.115 -0.469602 -0.580933 0
M  V30 4137 H 393.777 -1.69043 -0.970076 0
M  V30 4138 H 392.873 -1.88833 -2.48492 0
M  V30 4139 N 393.175 1.03435 -1.18907 0
M  V30 4140 C 394.123 2.13703 -0.918353 0
M  V30 4141 C 395.117 1.68947 0.123767 0
M  V30 4142 O 396.323 1.79983 -0.0249701 0
M  V30 4143 H 392.698 0.698112 -0.279542 0
M  V30 4144 H 394.669 2.33731 -1.85506 0
M  V30 4145 C 393.418 3.44542 -0.467532 0
M  V30 4146 H 392.741 3.79394 -1.26095 0
M  V30 4147 H 394.181 4.22812 -0.317164 0
M  V30 4148 C 392.64 3.26829 0.817588 0
M  V30 4149 O 393.17 3.54975 1.88031 0
M  V30 4150 N 391.376 2.80139 0.772677 0
M  V30 4151 H 390.923 2.57434 -0.0923883 0
M  V30 4152 H 390.881 2.68668 1.63294 0
M  V30 4153 N 394.653 0.992116 1.22453 0
M  V30 4154 C 396.064 0.702776 1.72968 0
M  V30 4155 C 396.415 -0.780399 1.80012 0
M  V30 4156 O 395.54 -1.61007 1.44589 0
M  V30 4157 C 396.135 1.26903 3.14135 0
M  V30 4158 C 394.694 1.02909 3.62059 0
M  V30 4159 C 393.841 1.38969 2.39964 0
M  V30 4160 H 396.792 1.16457 1.07812 0
M  V30 4161 H 396.813 0.647223 3.74955 0
M  V30 4162 H 396.325 2.34851 3.08977 0
M  V30 4163 H 394.426 -0.0337979 3.72585 0
M  V30 4164 H 394.539 1.69191 4.48231 0
M  V30 4165 H 392.903 0.808279 2.41535 0
M  V30 4166 H 393.686 2.4792 2.37467 0
M  V30 4167 N 396.131 -1.37776 0.765217 0
M  V30 4168 C 397.094 -2.28686 0.153416 0
M  V30 4169 C 398.094 -1.47727 -0.635081 0
M  V30 4170 O 399.284 -1.68027 -0.459632 0
M  V30 4171 C 396.416 -3.31608 -0.790495 0
M  V30 4172 H 397.609 -2.84297 0.954723 0
M  V30 4173 H 395.162 -1.46932 0.53299 0
M  V30 4174 H 395.897 -2.81109 -1.61705 0
M  V30 4175 H 395.682 -3.9144 -0.227348 0
M  V30 4176 H 397.172 -3.99559 -1.21419 0
M  V30 4177 N 397.609 -0.515225 -1.4894 0
M  V30 4178 C 398.539 0.244628 -2.32215 0
M  V30 4179 C 399.52 0.949136 -1.41157 0
M  V30 4180 O 400.705 0.937783 -1.70057 0
M  V30 4181 C 397.835 1.30096 -3.22013 0
M  V30 4182 C 396.789 0.715486 -4.21977 0
M  V30 4183 C 396.115 1.87339 -5.00808 0
M  V30 4184 C 397.415 -0.302982 -5.2142 0
M  V30 4185 H 399.109 -0.450501 -2.95991 0
M  V30 4186 H 396.655 -0.218098 -1.42339 0
M  V30 4187 H 398.608 1.84037 -3.79089 0
M  V30 4188 H 397.332 2.02547 -2.56207 0
M  V30 4189 H 395.991 0.197715 -3.66066 0
M  V30 4190 H 395.639 2.58592 -4.31438 0
M  V30 4191 H 395.339 1.48764 -5.68457 0
M  V30 4192 H 396.863 2.41686 -5.60732 0
M  V30 4193 H 398.277 0.148802 -5.73107 0
M  V30 4194 H 396.674 -0.60532 -5.97039 0
M  V30 4195 H 397.744 -1.21395 -4.69459 0
M  V30 4196 N 399.087 1.5561 -0.249682 0
M  V30 4197 C 400.05 2.20217 0.635394 0
M  V30 4198 C 401.05 1.17227 1.10066 0
M  V30 4199 O 402.24 1.42292 1.00492 0
M  V30 4200 C 399.372 2.84794 1.87363 0
M  V30 4201 H 400.565 2.99814 0.0716752 0
M  V30 4202 H 398.118 1.563 -0.000153234 0
M  V30 4203 H 398.853 2.09142 2.47851 0
M  V30 4204 H 398.638 3.60241 1.5482 0
M  V30 4205 H 400.128 3.3423 2.5036 0
M  V30 4206 N 400.565 -0.0233959 1.57583 0
M  V30 4207 C 401.475 -1.03907 2.10334 0
M  V30 4208 C 402.491 -1.39257 1.04323 0
M  V30 4209 O 403.667 -1.48462 1.36091 0
M  V30 4210 C 400.732 -2.31938 2.57693 0
M  V30 4211 C 399.793 -2.03117 3.78209 0
M  V30 4212 C 399.026 -3.25043 4.233 0
M  V30 4213 O 399.249 -4.35916 3.67876 0
M  V30 4214 O 398.183 -3.10411 5.15683 0
M  V30 4215 H 402.009 -0.620748 2.97288 0
M  V30 4216 H 399.594 -0.240743 1.47448 0
M  V30 4217 H 401.476 -3.07196 2.88458 0
M  V30 4218 H 400.151 -2.73055 1.73847 0
M  V30 4219 H 399.058 -1.25408 3.52454 0
M  V30 4220 H 400.391 -1.66852 4.63056 0
M  V30 4221 N 402.043 -1.548 -0.295768 0
M  V30 4222 C 403.454 -1.65274 -0.868411 0
M  V30 4223 C 403.805 -0.56481 -1.87894 0
M  V30 4224 O 402.93 0.29767 -2.14343 0
M  V30 4225 C 403.525 -2.99603 -1.58188 0
M  V30 4226 C 402.084 -3.12181 -2.10286 0
M  V30 4227 C 401.231 -2.6098 -0.93727 0
M  V30 4228 H 404.182 -1.58534 -0.0726422 0
M  V30 4229 H 404.203 -2.91319 -2.44772 0
M  V30 4230 H 403.715 -3.78764 -0.846151 0
M  V30 4231 H 401.816 -2.3775 -2.8689 0
M  V30 4232 H 401.929 -4.18415 -2.33379 0
M  V30 4233 H 400.293 -2.17564 -1.32431 0
M  V30 4234 H 401.076 -3.42623 -0.215414 0
M  V30 4235 N 403.521 0.559213 -1.47345 0
M  V30 4236 C 404.451 1.67622 -1.62558 0
M  V30 4237 C 405.432 1.63331 -0.475087 0
M  V30 4238 O 406.617 1.80983 -0.704182 0
M  V30 4239 C 403.747 3.0626 -1.63774 0
M  V30 4240 C 402.701 3.25397 -2.7803 0
M  V30 4241 C 402.027 4.64801 -2.64318 0
M  V30 4242 C 403.327 3.10965 -4.19641 0
M  V30 4243 H 405.021 1.55146 -2.56067 0
M  V30 4244 H 402.567 0.744961 -1.23233 0
M  V30 4245 H 404.52 3.84247 -1.73008 0
M  V30 4246 H 403.244 3.1969 -0.66825 0
M  V30 4247 H 401.903 2.49817 -2.68304 0
M  V30 4248 H 401.551 4.75028 -1.65401 0
M  V30 4249 H 401.251 4.78555 -3.40968 0
M  V30 4250 H 402.775 5.44926 -2.75478 0
M  V30 4251 H 404.189 3.78772 -4.30354 0
M  V30 4252 H 402.586 3.36229 -4.97062 0
M  V30 4253 H 403.656 2.07736 -4.38148 0
M  V30 4254 N 404.999 1.35443 0.805782 0
M  V30 4255 C 406.248 1.28097 1.55801 0
M  V30 4256 C 406.561 -0.142428 1.95081 0
M  V30 4257 O 407.767 -0.33817 2.69386 0
M  V30 4258 C 406.223 2.24653 2.81174 0
M  V30 4259 C 405.831 3.72342 2.49129 0
M  V30 4260 C 407.575 2.2625 3.59181 0
M  V30 4261 C 405.482 4.60719 3.70799 0
M  V30 4262 H 404.412 0.475937 0.584808 0
M  V30 4263 H 407.063 1.60712 0.885661 0
M  V30 4264 H 405.445 1.85011 3.50124 0
M  V30 4265 H 406.619 4.20624 1.88181 0
M  V30 4266 H 404.934 3.73361 1.84366 0
M  V30 4267 H 407.531 2.89495 4.49552 0
M  V30 4268 H 407.874 1.26647 3.96568 0
M  V30 4269 H 408.407 2.64426 2.97193 0
M  V30 4270 H 405.146 5.61324 3.3852 0
M  V30 4271 H 404.666 4.17163 4.3097 0
M  V30 4272 H 406.345 4.76182 4.38018 0
M  V30 4273 N 406.477 -1.02803 1.19454 0
M  V30 4274 C 407.409 -2.11181 0.890807 0
M  V30 4275 C 408.422 -1.6238 -0.116829 0
M  V30 4276 O 409.611 -1.78144 0.112694 0
M  V30 4277 C 406.711 -3.37461 0.311942 0
M  V30 4278 C 405.884 -4.15446 1.36834 0
M  V30 4279 C 404.943 -5.20039 0.802864 0
M  V30 4280 O 403.969 -5.49602 1.48077 0
M  V30 4281 N 405.171 -5.79165 -0.393417 0
M  V30 4282 H 407.936 -2.37827 1.82369 0
M  V30 4283 H 405.497 -1.19101 1.09666 0
M  V30 4284 H 407.489 -4.0462 -0.0802225 0
M  V30 4285 H 406.059 -3.08156 -0.52524 0
M  V30 4286 H 405.279 -3.43423 1.93531 0
M  V30 4287 H 406.567 -4.64335 2.08015 0
M  V30 4288 H 405.965 -5.57466 -0.961658 0
M  V30 4289 H 404.522 -6.47729 -0.727351 0
M  V30 4290 N 407.956 -0.998596 -1.21925 0
M  V30 4291 C 408.904 -0.546641 -2.26085 0
M  V30 4292 C 409.898 0.405576 -1.64473 0
M  V30 4293 O 411.104 0.277471 -1.77849 0
M  V30 4294 H 407.479 -0.158403 -0.735127 0
M  V30 4295 H 409.45 -1.43645 -2.61551 0
M  V30 4296 C 408.199 0.117388 -3.47502 0
M  V30 4297 H 407.522 -0.606277 -3.95176 0
M  V30 4298 H 408.962 0.396993 -4.22137 0
M  V30 4299 C 407.421 1.35455 -3.0847 0
M  V30 4300 O 407.951 2.44944 -3.18379 0
M  V30 4301 N 406.157 1.23191 -2.63196 0
M  V30 4302 H 405.704 0.341006 -2.55333 0
M  V30 4303 H 405.662 2.06071 -2.37449 0
M  V30 4304 N 409.434 1.37368 -0.772513 0
M  V30 4305 C 410.68 1.99969 -0.337681 0
M  V30 4306 C 411.013 1.61184 1.08321 0
M  V30 4307 O 410.288 0.858395 1.74533 0
M  V30 4308 C 410.571 3.56858 -0.482121 0
M  V30 4309 C 410.424 4.0555 -1.94549 0
M  V30 4310 C 411.743 4.39955 0.113143 0
M  V30 4311 H 408.862 0.726464 -0.124171 0
M  V30 4312 H 411.504 1.63034 -0.975699 0
M  V30 4313 H 409.654 3.88452 0.0610361 0
M  V30 4314 H 411.326 3.84518 -2.54841 0
M  V30 4315 H 409.569 3.57715 -2.45403 0
M  V30 4316 H 410.24 5.14587 -1.9976 0
M  V30 4317 H 412.716 4.14623 -0.35031 0
M  V30 4318 H 411.592 5.48897 -0.0180514 0
M  V30 4319 H 411.853 4.25403 1.20354 0
M  V30 4320 N 410.912 0.523116 1.48665 0
M  V30 4321 C 412.328 0.180511 1.58576 0
M  V30 4322 C 412.528 -1.31597 1.52592 0
M  V30 4323 O 411.584 -2.0937 1.4114 0
M  V30 4324 C 412.897 0.776949 2.90489 0
M  V30 4325 C 414.445 0.745058 3.04003 0
M  V30 4326 C 414.92 1.31995 4.38567 0
M  V30 4327 N 416.411 1.28162 4.45117 0
M  V30 4328 C 417.146 1.6964 5.47731 0
M  V30 4329 N 416.642 2.18816 6.57337 0
M  V30 4330 N 418.435 1.6092 5.38573 0
M  V30 4331 H 410.586 1.4958 1.50797 0
M  V30 4332 H 412.849 0.621772 0.715614 0
M  V30 4333 H 412.555 1.82732 3.00503 0
M  V30 4334 H 412.429 0.25007 3.7637 0
M  V30 4335 H 414.816 -0.296532 2.93606 0
M  V30 4336 H 414.897 1.30933 2.1975 0
M  V30 4337 H 414.541 2.36043 4.49718 0
M  V30 4338 H 414.471 0.731418 5.21496 0
M  V30 4339 H 416.962 0.92155 3.66491 0
M  V30 4340 H 417.275 2.48478 7.31764 0
M  V30 4341 H 415.62 2.22805 6.58318 0
M  V30 4342 H 418.811 1.22304 4.5184 0
M  V30 4343 H 418.984 1.93567 6.18414 0
M  V30 4344 N 412.39 -1.55475 0.257931 0
M  V30 4345 C 413.337 -2.21837 -0.636939 0
M  V30 4346 C 414.307 -1.18596 -1.16294 0
M  V30 4347 O 415.492 -1.47081 -1.21539 0
M  V30 4348 C 412.632 -2.9301 -1.82317 0
M  V30 4349 C 411.745 -4.10931 -1.33265 0
M  V30 4350 C 410.88 -4.69791 -2.47931 0
M  V30 4351 C 409.919 -5.7994 -1.95796 0
M  V30 4352 N 409.056 -6.32935 -3.0387 0
M  V30 4353 H 413.896 -2.9793 -0.0643591 0
M  V30 4354 H 411.433 -1.47086 -0.0200031 0
M  V30 4355 H 413.391 -3.3248 -2.52018 0
M  V30 4356 H 412.021 -2.1937 -2.36805 0
M  V30 4357 H 411.073 -3.76699 -0.52931 0
M  V30 4358 H 412.385 -4.90417 -0.910654 0
M  V30 4359 H 411.539 -5.11892 -3.25656 0
M  V30 4360 H 410.278 -3.89545 -2.93438 0
M  V30 4361 H 409.283 -5.37305 -1.16546 0
M  V30 4362 H 410.508 -6.62043 -1.51246 0
M  V30 4363 H 408.454 -5.55591 -3.48791 0
M  V30 4364 H 408.371 -7.07645 -2.66035 0
M  V30 4365 H 409.639 -6.79695 -3.81621 0
M  V30 4366 N 413.868 0.0150385 -1.57593 0
M  V30 4367 C 415.117 0.702115 -1.89085 0
M  V30 4368 C 415.43 1.75764 -0.858277 0
M  V30 4369 O 416.636 2.49829 -1.0629 0
M  V30 4370 C 415.092 1.29992 -3.35604 0
M  V30 4371 C 414.7 0.280007 -4.47124 0
M  V30 4372 C 416.444 1.96606 -3.76227 0
M  V30 4373 C 414.351 0.886949 -5.84711 0
M  V30 4374 H 413.281 0.265997 -0.705522 0
M  V30 4375 H 415.932 -0.0430408 -1.8345 0
M  V30 4376 H 414.314 2.09525 -3.36029 0
M  V30 4377 H 415.488 -0.489631 -4.58191 0
M  V30 4378 H 413.803 -0.284835 -4.15425 0
M  V30 4379 H 416.4 2.42893 -4.76347 0
M  V30 4380 H 416.743 2.79024 -3.08952 0
M  V30 4381 H 417.276 1.23828 -3.78036 0
M  V30 4382 H 414.015 0.101876 -6.55421 0
M  V30 4383 H 413.535 1.6261 -5.77337 0
M  V30 4384 H 415.214 1.39011 -6.3189 0
M  V30 4385 N 415.346 1.54954 0.287554 0
M  V30 4386 C 416.276 1.89839 1.35954 0
M  V30 4387 C 417.257 0.758675 1.52244 0
M  V30 4388 O 418.442 1.01557 1.65529 0
M  V30 4389 C 415.572 2.15753 2.72154 0
M  V30 4390 C 414.526 3.3159 2.70614 0
M  V30 4391 C 413.852 3.42952 4.10229 0
M  V30 4392 C 415.152 4.68359 2.31165 0
M  V30 4393 H 416.846 2.79625 1.07007 0
M  V30 4394 H 414.392 1.3454 0.513316 0
M  V30 4395 H 416.345 2.38743 3.47246 0
M  V30 4396 H 415.069 1.22752 3.02654 0
M  V30 4397 H 413.728 3.08545 1.97979 0
M  V30 4398 H 413.376 2.47443 4.37928 0
M  V30 4399 H 413.076 4.20826 4.10097 0
M  V30 4400 H 414.6 3.68218 4.87081 0
M  V30 4401 H 416.014 4.9099 2.95976 0
M  V30 4402 H 414.411 5.49044 2.42221 0
M  V30 4403 H 415.481 4.68165 1.26291 0
M  V30 4404 N 416.824 -0.551391 1.4764 0
M  V30 4405 C 417.734 -1.68525 1.63207 0
M  V30 4406 C 418.75 -1.6621 0.514815 0
M  V30 4407 O 419.926 -1.85551 0.783113 0
M  V30 4408 C 416.991 -3.05025 1.64805 0
M  V30 4409 C 416.052 -3.18362 2.88 0
M  V30 4410 C 415.285 -4.4835 2.89513 0
M  V30 4411 O 415.508 -5.34163 2.00065 0
M  V30 4412 O 414.442 -4.65602 3.81443 0
M  V30 4413 H 418.268 -1.58333 2.59161 0
M  V30 4414 H 415.853 -0.722063 1.30792 0
M  V30 4415 H 417.735 -3.86245 1.68502 0
M  V30 4416 H 416.41 -3.15587 0.720197 0
M  V30 4417 H 415.317 -2.36518 2.89845 0
M  V30 4418 H 416.65 -3.12707 3.80099 0
M  V30 4419 N 418.302 -1.35869 -0.798587 0
M  V30 4420 C 419.527 -1.32883 -1.59238 0
M  V30 4421 C 419.952 0.0894587 -1.87887 0
M  V30 4422 O 419.31 1.05869 -1.47178 0
M  V30 4423 C 419.358 -2.14892 -2.89575 0
M  V30 4424 O 418.462 -1.53512 -3.82763 0
M  V30 4425 H 417.803 -0.455236 -0.48338 0
M  V30 4426 H 420.333 -1.79024 -0.990539 0
M  V30 4427 H 420.343 -2.27139 -3.38928 0
M  V30 4428 H 419.018 -3.17998 -2.68049 0
M  V30 4429 H 417.595 -1.50153 -3.41334 0
M  V30 4430 N 419.78 1.02168 -1.19998 0
M  V30 4431 C 421.057 1.72816 -0.916191 0
M  V30 4432 C 421.437 2.03081 0.576325 0
M  V30 4433 O 420.785 1.69122 1.53656 0
M  V30 4434 C 420.995 2.9997 -1.78378 0
M  V30 4435 C 422.343 3.73336 -2.02251 0
M  V30 4436 O 423.367 3.09914 -1.75589 0
M  V30 4437 O 422.226 4.87371 -2.47249 0
M  V30 4438 H 419.32 0.752924 -0.342103 0
M  V30 4439 H 421.866 1.08062 -1.30846 0
M  V30 4440 H 420.638 2.73888 -2.79466 0
M  V30 4441 H 420.261 3.72464 -1.39126 0
M  V30 4442 N 421.258 1.00505 1.21394 0
M  V30 4443 C 422.674 0.717873 1.42544 0
M  V30 4444 C 422.874 -0.706936 1.88692 0
M  V30 4445 O 421.93 -1.47627 2.04847 0
M  V30 4446 C 423.243 1.73377 2.45684 0
M  V30 4447 C 424.791 1.75059 2.59467 0
M  V30 4448 C 425.266 2.75545 3.6584 0
M  V30 4449 N 426.757 2.74213 3.73311 0
M  V30 4450 C 427.492 3.48626 4.55245 0
M  V30 4451 N 426.988 4.32678 5.41075 0
M  V30 4452 N 428.781 3.37276 4.49668 0
M  V30 4453 H 420.932 1.92506 0.897503 0
M  V30 4454 H 423.195 0.830919 0.456375 0
M  V30 4455 H 422.901 2.75395 2.18748 0
M  V30 4456 H 422.775 1.53647 3.44489 0
M  V30 4457 H 425.162 0.737337 2.8574 0
M  V30 4458 H 425.243 1.98861 1.60897 0
M  V30 4459 H 424.887 3.77028 3.40313 0
M  V30 4460 H 424.817 2.49009 4.64007 0
M  V30 4461 H 427.308 2.13234 3.11993 0
M  V30 4462 H 427.621 4.86253 6.00648 0
M  V30 4463 H 425.966 4.3676 5.40616 0
M  V30 4464 H 429.157 2.71043 3.81646 0
M  V30 4465 H 429.33 3.95524 5.13288 0
M  V30 4466 N 422.737 -1.36956 0.779787 0
M  V30 4467 C 423.684 -2.30175 0.169697 0
M  V30 4468 C 424.654 -1.51501 -0.68094 0
M  V30 4469 O 425.839 -1.80042 -0.631629 0
M  V30 4470 C 422.979 -3.37985 -0.697131 0
M  V30 4471 C 422.092 -4.31661 0.170992 0
M  V30 4472 C 421.227 -5.2655 -0.701298 0
M  V30 4473 C 420.266 -6.11867 0.168869 0
M  V30 4474 N 419.403 -6.98973 -0.661855 0
M  V30 4475 H 424.243 -2.81767 0.970135 0
M  V30 4476 H 421.78 -1.38699 0.489994 0
M  V30 4477 H 423.738 -3.99128 -1.2146 0
M  V30 4478 H 422.368 -2.87739 -1.46309 0
M  V30 4479 H 421.42 -3.71756 0.80634 0
M  V30 4480 H 422.732 -4.91644 0.841875 0
M  V30 4481 H 421.886 -5.92937 -1.28494 0
M  V30 4482 H 420.625 -4.66998 -1.40584 0
M  V30 4483 H 419.63 -5.44452 0.764986 0
M  V30 4484 H 420.855 -6.73493 0.870863 0
M  V30 4485 H 418.801 -6.41941 -1.35086 0
M  V30 4486 H 418.718 -7.55984 -0.0484447 0
M  V30 4487 H 419.986 -7.6974 -1.22963 0
M  V30 4488 N 424.215 -0.530993 -1.48385 0
M  V30 4489 C 425.125 0.23503 -2.3342 0
M  V30 4490 C 426.141 0.93801 -1.46552 0
M  V30 4491 O 427.317 0.912745 -1.7953 0
M  V30 4492 C 424.382 1.26778 -3.22689 0
M  V30 4493 C 423.443 0.575038 -4.25431 0
M  V30 4494 C 422.676 1.55858 -5.10435 0
M  V30 4495 O 422.899 2.79129 -4.97437 0
M  V30 4496 O 421.833 1.09742 -5.91811 0
M  V30 4497 H 425.659 -0.461794 -3.00169 0
M  V30 4498 H 423.244 -0.291903 -1.46521 0
M  V30 4499 H 425.126 1.86457 -3.77904 0
M  V30 4500 H 423.801 1.94699 -2.586 0
M  V30 4501 H 422.708 -0.0622782 -3.74048 0
M  V30 4502 H 424.041 -0.062253 -4.92161 0
M  V30 4503 N 425.693 1.55336 -0.266172 0
M  V30 4504 C 427.104 1.85236 0.233315 0
M  V30 4505 C 427.455 1.18816 1.56132 0
M  V30 4506 O 426.58 0.473307 2.11161 0
M  V30 4507 C 427.175 3.36059 0.430113 0
M  V30 4508 C 425.734 3.66116 0.873842 0
M  V30 4509 C 424.881 2.77274 -0.0380016 0
M  V30 4510 H 427.832 1.51004 -0.488214 0
M  V30 4511 H 427.853 3.58681 1.26998 0
M  V30 4512 H 427.365 3.84373 -0.536588 0
M  V30 4513 H 425.466 3.23295 1.85233 0
M  V30 4514 H 425.579 4.73699 0.717358 0
M  V30 4515 H 423.943 2.50198 0.476759 0
M  V30 4516 H 424.726 3.284 -1.00042 0
M  V30 4517 N 427.171 -0.0066808 1.57599 0
M  V30 4518 C 428.101 -0.999296 2.11036 0
M  V30 4519 C 429.082 -1.36278 1.01795 0
M  V30 4520 O 430.267 -1.4477 1.29442 0
M  V30 4521 C 427.397 -2.29328 2.60818 0
M  V30 4522 C 426.351 -2.07159 3.74525 0
M  V30 4523 C 425.677 -3.42512 4.10596 0
M  V30 4524 C 426.977 -1.43959 5.02069 0
M  V30 4525 H 428.671 -0.554382 2.94223 0
M  V30 4526 H 426.217 -0.265221 1.41536 0
M  V30 4527 H 428.17 -2.99117 2.96828 0
M  V30 4528 H 426.894 -2.7592 1.74745 0
M  V30 4529 H 425.553 -1.39797 3.38899 0
M  V30 4530 H 425.201 -3.86795 3.21556 0
M  V30 4531 H 424.901 -3.28498 4.87199 0
M  V30 4532 H 426.425 -4.13628 4.4916 0
M  V30 4533 H 427.839 -2.03696 5.35893 0
M  V30 4534 H 426.236 -1.40452 5.83432 0
M  V30 4535 H 427.306 -0.407992 4.83181 0
M  V30 4536 N 428.649 -1.55105 -0.279332 0
M  V30 4537 C 429.896 -1.75412 -1.01177 0
M  V30 4538 C 430.224 -0.551728 -1.86511 0
M  V30 4539 O 429.479 0.465919 -1.90073 0
M  V30 4540 C 429.778 -3.0086 -1.92919 0
M  V30 4541 C 429.444 -4.33689 -1.23387 0
M  V30 4542 C 428.106 -4.69792 -1.04159 0
M  V30 4543 C 430.458 -5.15941 -0.738562 0
M  V30 4544 C 427.786 -5.85707 -0.341166 0
M  V30 4545 C 430.138 -6.32579 -0.0517636 0
M  V30 4546 C 428.802 -6.67326 0.152292 0
M  V30 4547 H 428.072 -0.641879 -0.370233 0
M  V30 4548 H 430.719 -1.89373 -0.284627 0
M  V30 4549 H 429.024 -2.81773 -2.72234 0
M  V30 4550 H 430.721 -3.13768 -2.49701 0
M  V30 4551 H 427.311 -4.05309 -1.39364 0
M  V30 4552 H 431.495 -4.8853 -0.874764 0
M  V30 4553 H 426.751 -6.11157 -0.172287 0
M  V30 4554 H 430.925 -6.9557 0.339828 0
M  V30 4555 H 428.552 -7.56998 0.697014 0
M  V30 4556 N 430.127 0.543554 -1.4793 0
M  V30 4557 C 431.375 1.29752 -1.54948 0
M  V30 4558 C 431.696 1.93764 -0.219242 0
M  V30 4559 O 430.966 1.80639 0.75805 0
M  V30 4560 H 429.546 0.481874 -0.570795 0
M  V30 4561 H 432.208 0.633636 -1.84312 0
M  V30 4562 H 431.304 2.08392 -2.32334 0
M  V30 4563 N 431.605 1.3629 0.791371 0
M  V30 4564 C 432.854 1.29742 1.54434 0
M  V30 4565 C 433.167 -0.121729 1.95221 0
M  V30 4566 O 434.373 -0.309579 2.69729 0
M  V30 4567 C 432.829 2.27623 2.78776 0
M  V30 4568 C 432.437 3.74963 2.45166 0
M  V30 4569 C 434.181 2.30047 3.56761 0
M  V30 4570 C 432.088 4.64626 3.65891 0
M  V30 4571 H 431.018 0.482113 0.579727 0
M  V30 4572 H 433.669 1.61642 0.868565 0
M  V30 4573 H 432.051 1.88714 3.48142 0
M  V30 4574 H 433.225 4.22596 1.83709 0
M  V30 4575 H 431.54 3.75295 1.80396 0
M  V30 4576 H 434.137 2.94247 4.46456 0
M  V30 4577 H 434.48 1.30846 3.95203 0
M  V30 4578 H 435.013 2.67563 2.94372 0
M  V30 4579 H 431.752 5.64883 3.32547 0
M  V30 4580 H 431.272 4.2171 4.26521 0
M  V30 4581 H 432.951 4.80801 4.32943 0
M  V30 4582 N 433.083 -1.0153 1.20538 0
M  V30 4583 C 434.308 -1.79283 1.04271 0
M  V30 4584 C 434.733 -1.8372 -0.403544 0
M  V30 4585 O 434.091 -1.27321 -1.2907 0
M  V30 4586 C 434.139 -3.21535 1.63241 0
M  V30 4587 O 433.243 -4.03099 0.870908 0
M  V30 4588 H 432.584 -0.55293 0.367647 0
M  V30 4589 H 435.114 -1.27696 1.59859 0
M  V30 4590 H 435.124 -3.72243 1.6703 0
M  V30 4591 H 433.799 -3.1762 2.68497 0
M  V30 4592 H 432.376 -3.61693 0.907323 0
M  V30 4593 N 434.561 -1.01147 -1.20859 0
M  V30 4594 C 435.789 -0.716911 -1.94082 0
M  V30 4595 C 436.204 0.721568 -1.74467 0
M  V30 4596 O 435.561 1.48889 -1.05539 0
M  V30 4597 C 435.612 -1.03662 -3.46318 0
M  V30 4598 O 435.333 -2.4186 -3.65288 0
M  V30 4599 C 436.834 -0.762386 -4.36695 0
M  V30 4600 H 434.054 -0.26367 -0.617024 0
M  V30 4601 H 436.598 -1.35127 -1.53496 0
M  V30 4602 H 434.753 -0.447757 -3.84804 0
M  V30 4603 H 435.167 -2.53224 -4.59323 0
M  V30 4604 H 436.641 -1.03621 -5.42187 0
M  V30 4605 H 437.118 0.303514 -4.3815 0
M  V30 4606 H 437.724 -1.33316 -4.03865 0
M  V30 4607 N 436.039 1.36541 -0.78704 0
M  V30 4608 C 437.287 1.98911 -0.357633 0
M  V30 4609 C 437.608 1.62778 1.07371 0
M  V30 4610 O 436.878 0.900612 1.73971 0
M  V30 4611 H 435.458 0.735734 -0.129246 0
M  V30 4612 H 438.12 1.66776 -1.00855 0
M  V30 4613 H 437.216 3.08874 -0.447549 0
M  V30 4614 N 437.518 0.538854 1.48102 0
M  V30 4615 C 438.466 -0.232325 2.31437 0
M  V30 4616 C 439.46 -0.927004 1.41785 0
M  V30 4617 O 440.666 -0.850378 1.58646 0
M  V30 4618 H 437.041 -0.0937916 0.746128 0
M  V30 4619 H 439.012 0.489986 2.9435 0
M  V30 4620 C 437.761 -1.26074 3.24038 0
M  V30 4621 H 437.084 -0.735609 3.92974 0
M  V30 4622 H 438.524 -1.77157 3.85216 0
M  V30 4623 C 436.983 -2.29902 2.46265 0
M  V30 4624 O 437.513 -3.36502 2.19384 0
M  V30 4625 N 435.719 -2.03348 2.07601 0
M  V30 4626 H 435.266 -1.16675 2.29662 0
M  V30 4627 H 435.224 -2.73038 1.55877 0
M  V30 4628 N 438.996 -1.55193 0.274407 0
M  V30 4629 C 439.926 -2.25471 -0.607032 0
M  V30 4630 C 440.907 -1.24461 -1.15946 0
M  V30 4631 O 442.092 -1.53179 -1.19373 0
M  V30 4632 C 439.222 -2.97526 -1.79153 0
M  V30 4633 C 438.176 -4.05459 -1.37067 0
M  V30 4634 C 437.502 -4.65084 -2.6382 0
M  V30 4635 C 438.802 -5.19691 -0.521389 0
M  V30 4636 H 440.496 -2.99393 -0.0209343 0
M  V30 4637 H 438.042 -1.43997 -0.00862866 0
M  V30 4638 H 439.995 -3.45402 -2.41404 0
M  V30 4639 H 438.719 -2.21138 -2.40344 0
M  V30 4640 H 437.378 -3.58393 -0.771355 0
M  V30 4641 H 437.026 -3.85365 -3.23268 0
M  V30 4642 H 436.726 -5.37961 -2.36372 0
M  V30 4643 H 438.25 -5.15708 -3.26921 0
M  V30 4644 H 439.664 -5.63623 -1.04889 0
M  V30 4645 H 438.061 -5.99126 -0.341825 0
M  V30 4646 H 439.131 -4.82713 0.46 0
M  V30 4647 N 440.474 -0.00167713 -1.576 0
M  V30 4648 C 441.723 0.682021 -1.89819 0
M  V30 4649 C 442.036 1.74844 -0.876871 0
M  V30 4650 O 443.242 2.48688 -1.08934 0
M  V30 4651 C 441.698 1.26425 -3.36964 0
M  V30 4652 C 441.306 0.232568 -4.47396 0
M  V30 4653 C 443.05 1.92604 -3.78291 0
M  V30 4654 C 440.957 0.824882 -5.85619 0
M  V30 4655 H 439.887 0.258499 -0.708304 0
M  V30 4656 H 442.538 -0.0624957 -1.83394 0
M  V30 4657 H 440.92 2.05949 -3.38232 0
M  V30 4658 H 442.094 -0.5382 -4.57646 0
M  V30 4659 H 440.409 -0.32888 -4.15099 0
M  V30 4660 H 443.006 2.37827 -4.78897 0
M  V30 4661 H 443.349 2.75732 -3.11894 0
M  V30 4662 H 443.882 1.19812 -3.79328 0
M  V30 4663 H 440.621 0.0323542 -6.55492 0
M  V30 4664 H 440.141 1.56477 -5.79029 0
M  V30 4665 H 441.82 1.32301 -6.33329 0
M  V30 4666 N 441.952 1.55251 0.271103 0
M  V30 4667 C 443.18 1.79974 1.02064 0
M  V30 4668 C 443.595 0.574003 1.79863 0
M  V30 4669 O 442.952 -0.456962 1.76686 0
M  V30 4670 C 443.003 3.02603 1.97772 0
M  V30 4671 O 442.724 4.20443 1.23124 0
M  V30 4672 C 444.225 3.39944 2.84522 0
M  V30 4673 H 441.445 0.599489 0.301419 0
M  V30 4674 H 443.989 2.02268 0.301313 0
M  V30 4675 H 442.144 2.8243 2.65165 0
M  V30 4676 H 442.558 4.89783 1.87651 0
M  V30 4677 H 444.032 4.28915 3.47471 0
M  V30 4678 H 444.509 2.59432 3.54389 0
M  V30 4679 H 445.115 3.62383 2.22618 0
M  V30 4680 N 443.43 -0.535701 1.48216 0
M  V30 4681 C 444.678 -1.28928 1.55634 0
M  V30 4682 C 444.999 -1.93645 0.229514 0
M  V30 4683 O 444.269 -1.81038 -0.74846 0
M  V30 4684 H 442.849 -0.47884 0.573342 0
M  V30 4685 H 445.511 -0.623853 1.84646 0
M  V30 4686 H 444.607 -2.07157 2.33436 0
M  V30 4687 N 444.908 -1.36708 -0.784132 0
M  V30 4688 C 445.838 -1.34153 -1.91116 0
M  V30 4689 C 446.819 -0.212121 -1.68772 0
M  V30 4690 O 448.004 -0.410581 -1.8981 0
M  V30 4691 C 445.134 -1.13535 -3.28218 0
M  V30 4692 C 444.088 -2.23356 -3.65097 0
M  V30 4693 C 443.414 -1.87875 -5.00607 0
M  V30 4694 C 444.714 -3.65473 -3.73131 0
M  V30 4695 H 446.408 -2.28459 -1.93512 0
M  V30 4696 H 443.954 -1.09973 -0.929618 0
M  V30 4697 H 445.907 -1.10381 -4.06687 0
M  V30 4698 H 444.631 -0.156804 -3.26223 0
M  V30 4699 H 443.29 -2.25645 -2.88929 0
M  V30 4700 H 442.938 -0.885814 -4.95139 0
M  V30 4701 H 442.638 -2.61406 -5.26252 0
M  V30 4702 H 444.162 -1.86286 -5.81489 0
M  V30 4703 H 445.576 -3.65382 -4.41779 0
M  V30 4704 H 443.973 -4.37953 -4.10265 0
M  V30 4705 H 445.043 -3.99995 -2.74102 0
M  V30 4706 N 446.386 1.0089 -1.21074 0
M  V30 4707 C 447.349 2.0775 -0.968129 0
M  V30 4708 C 448.349 1.6069 0.0593445 0
M  V30 4709 O 449.539 1.73293 -0.177525 0
M  V30 4710 C 446.671 3.37794 -0.459108 0
M  V30 4711 H 447.864 2.30707 -1.9161 0
M  V30 4712 H 445.417 1.17807 -1.02719 0
M  V30 4713 H 446.152 3.20516 0.49397 0
M  V30 4714 H 445.937 3.7328 -1.20019 0
M  V30 4715 H 447.427 4.16454 -0.309099 0
M  V30 4716 N 447.864 1.01787 1.20321 0
M  V30 4717 C 448.827 0.593972 2.2137 0
M  V30 4718 C 449.827 -0.336553 1.57239 0
M  V30 4719 O 451.017 -0.125069 1.7375 0
M  V30 4720 C 448.149 -0.132433 3.40643 0
M  V30 4721 H 449.342 1.48791 2.60387 0
M  V30 4722 H 446.895 0.807803 1.33807 0
M  V30 4723 H 447.63 -1.04123 3.0713 0
M  V30 4724 H 447.415 0.53605 3.88418 0
M  V30 4725 H 448.905 -0.416314 4.1552 0
M  V30 4726 N 449.342 -1.36122 0.79427 0
M  V30 4727 C 450.59 -1.98718 0.368177 0
M  V30 4728 C 450.911 -1.63345 -1.06506 0
M  V30 4729 O 450.181 -0.909825 -1.73491 0
M  V30 4730 H 448.761 -0.735038 0.133146 0
M  V30 4731 H 451.423 -1.66239 1.01739 0
M  V30 4732 H 450.519 -3.08633 0.463923 0
M  V30 4733 N 450.82 -0.546701 -1.47814 0
M  V30 4734 C 451.783 0.196287 -2.28358 0
M  V30 4735 C 452.783 0.852437 -1.36346 0
M  V30 4736 O 453.973 0.709913 -1.59078 0
M  V30 4737 C 451.105 1.28579 -3.15722 0
M  V30 4738 H 452.298 -0.511086 -2.95513 0
M  V30 4739 H 449.851 -0.303248 -1.5333 0
M  V30 4740 H 450.586 2.0259 -2.53235 0
M  V30 4741 H 450.371 0.820229 -3.83425 0
M  V30 4742 H 451.861 1.80793 -3.76435 0
M  V30 4743 N 452.299 1.55045 -0.282633 0
M  V30 4744 C 453.246 2.22822 0.601566 0
M  V30 4745 C 454.216 1.20431 1.14392 0
M  V30 4746 O 455.401 1.48996 1.19184 0
M  V30 4747 C 452.541 2.95873 1.77632 0
M  V30 4748 C 451.654 4.12999 1.26711 0
M  V30 4749 C 450.789 4.73676 2.40426 0
M  V30 4750 C 449.828 5.82981 1.86545 0
M  V30 4751 N 448.965 6.3769 2.93762 0
M  V30 4752 H 453.805 2.97995 0.0169528 0
M  V30 4753 H 451.342 1.471 -0.00339964 0
M  V30 4754 H 453.3 3.36447 2.46697 0
M  V30 4755 H 451.93 2.2311 2.33285 0
M  V30 4756 H 450.982 3.77494 0.469314 0
M  V30 4757 H 452.294 4.91803 0.832518 0
M  V30 4758 H 451.448 5.17008 3.17471 0
M  V30 4759 H 450.187 3.94164 2.87203 0
M  V30 4760 H 449.192 5.39092 1.07983 0
M  V30 4761 H 450.417 6.64366 1.40694 0
M  V30 4762 H 448.363 5.61069 3.39908 0
M  V30 4763 H 448.28 7.11788 2.54744 0
M  V30 4764 H 449.548 6.8568 3.7076 0
M  V30 4765 N 453.777 0.010035 1.57597 0
M  V30 4766 C 455.005 -0.683413 1.95287 0
M  V30 4767 C 455.42 -1.66747 0.885481 0
M  V30 4768 O 454.777 -1.82003 -0.134629 0
M  V30 4769 C 454.828 -1.40652 3.33015 0
M  V30 4770 O 454.549 -0.461916 4.35658 0
M  V30 4771 C 456.05 -2.19356 3.85225 0
M  V30 4772 H 453.27 -0.189708 0.643624 0
M  V30 4773 H 455.814 0.0641359 2.04399 0
M  V30 4774 H 453.969 -2.10562 3.2518 0
M  V30 4775 H 454.383 -0.973215 5.15392 0
M  V30 4776 H 455.857 -2.65433 4.83993 0
M  V30 4777 H 456.334 -3.02457 3.18459 0
M  V30 4778 H 456.94 -1.54442 3.96267 0
M  V30 4779 N 455.255 -1.55392 -0.262866 0
M  V30 4780 C 456.485 -1.80251 -1.00961 0
M  V30 4781 C 456.893 -0.58117 -1.80053 0
M  V30 4782 O 456.236 0.459427 -1.77862 0
M  V30 4783 C 456.298 -2.98207 -2.00781 0
M  V30 4784 C 455.962 -4.34856 -1.40533 0
M  V30 4785 C 456.959 -5.13459 -0.815853 0
M  V30 4786 C 454.644 -4.8153 -1.42948 0
M  V30 4787 C 456.638 -6.36875 -0.258562 0
M  V30 4788 C 454.325 -6.04899 -0.868334 0
M  V30 4789 C 455.323 -6.8241 -0.283884 0
M  V30 4790 O 455.011 -8.03451 0.268644 0
M  V30 4791 H 454.743 -0.604049 -0.303482 0
M  V30 4792 H 457.297 -2.03257 -0.295926 0
M  V30 4793 H 455.527 -2.70917 -2.75936 0
M  V30 4794 H 457.216 -3.10299 -2.61667 0
M  V30 4795 H 457.982 -4.78526 -0.789812 0
M  V30 4796 H 453.861 -4.21201 -1.87378 0
M  V30 4797 H 457.405 -6.97318 0.198257 0
M  V30 4798 H 453.302 -6.39312 -0.891649 0
M  V30 4799 H 454.07 -8.18346 0.158974 0
M  V30 4800 N 456.733 0.527833 -1.48498 0
M  V30 4801 C 457.68 1.6322 -1.6318 0
M  V30 4802 C 458.65 1.59199 -0.473815 0
M  V30 4803 O 459.835 1.77591 -0.697563 0
M  V30 4804 C 456.975 3.01474 -1.67951 0
M  V30 4805 C 456.088 3.15713 -2.94871 0
M  V30 4806 C 455.223 4.44539 -2.90789 0
M  V30 4807 C 454.262 4.52315 -4.12404 0
M  V30 4808 N 453.399 5.72533 -4.06387 0
M  V30 4809 H 458.239 1.50011 -2.57489 0
M  V30 4810 H 455.776 0.730298 -1.27691 0
M  V30 4811 H 457.734 3.81572 -1.68698 0
M  V30 4812 H 456.364 3.1345 -0.771306 0
M  V30 4813 H 455.416 2.28854 -3.03859 0
M  V30 4814 H 456.728 3.1732 -3.8485 0
M  V30 4815 H 455.882 5.3293 -2.89949 0
M  V30 4816 H 454.621 4.45457 -1.98542 0
M  V30 4817 H 453.626 3.62331 -4.13517 0
M  V30 4818 H 454.851 4.53134 -5.05812 0
M  V30 4819 H 452.797 5.74344 -3.16962 0
M  V30 4820 H 452.714 5.75643 -4.90073 0
M  V30 4821 H 453.982 6.63204 -4.0961 0
M  V30 4822 N 458.211 1.37122 0.776871 0
M  V30 4823 C 459.144 1.26835 1.89705 0
M  V30 4824 C 460.122 0.14992 1.61907 0
M  V30 4825 O 461.306 0.323242 1.85708 0
M  V30 4826 C 458.433 0.95986 3.24814 0
M  V30 4827 C 457.479 2.09447 3.7153 0
M  V30 4828 S 458.312 3.71368 3.85806 0
M  V30 4829 C 459.468 3.42659 5.23771 0
M  V30 4830 H 459.701 2.21647 1.98141 0
M  V30 4831 H 457.234 1.22685 0.937433 0
M  V30 4832 H 459.192 0.788696 4.02852 0
M  V30 4833 H 457.853 0.0293137 3.14086 0
M  V30 4834 H 457.046 1.8335 4.69467 0
M  V30 4835 H 456.648 2.2255 3.00578 0
M  V30 4836 H 458.94 2.9733 6.0877 0
M  V30 4837 H 459.883 4.39905 5.54878 0
M  V30 4838 H 460.291 2.77708 4.91466 0
M  V30 4839 N 459.689 -1.00246 1.21608 0
M  V30 4840 C 460.914 -1.78167 1.06167 0
M  V30 4841 C 461.339 -1.84138 -0.384035 0
M  V30 4842 O 460.697 -1.28683 -1.27712 0
M  V30 4843 C 460.745 -3.19786 1.66642 0
M  V30 4844 O 459.849 -4.02153 0.913613 0
M  V30 4845 H 459.19 -0.549 0.37349 0
M  V30 4846 H 461.72 -1.25994 1.61204 0
M  V30 4847 H 461.73 -3.70451 1.70969 0
M  V30 4848 H 460.405 -3.14754 2.7185 0
M  V30 4849 H 458.982 -3.60711 0.945635 0
M  V30 4850 N 461.167 -1.02423 -1.1978 0
M  V30 4851 C 462.1 -0.545641 -2.21581 0
M  V30 4852 C 463.078 0.411024 -1.57319 0
M  V30 4853 O 464.262 0.329223 -1.85603 0
M  V30 4854 C 461.389 0.204973 -3.38079 0
M  V30 4855 C 460.435 -0.70241 -4.20676 0
M  V30 4856 S 461.268 -2.17595 -4.89298 0
M  V30 4857 C 462.424 -1.43572 -6.09211 0
M  V30 4858 H 462.657 -1.4082 -2.61834 0
M  V30 4859 H 460.19 -0.833771 -1.29952 0
M  V30 4860 H 462.148 0.631924 -4.05607 0
M  V30 4861 H 460.809 1.0432 -2.9627 0
M  V30 4862 H 460.002 -0.123193 -5.03849 0
M  V30 4863 H 459.604 -1.06747 -3.58442 0
M  V30 4864 H 461.896 -0.719806 -6.73665 0
M  V30 4865 H 462.839 -2.24388 -6.71607 0
M  V30 4866 H 463.247 -0.935252 -5.56699 0
M  V30 4867 N 462.645 1.35699 -0.801477 0
M  V30 4868 C 463.608 2.28199 -0.213994 0
M  V30 4869 C 464.608 1.49359 0.595691 0
M  V30 4870 O 465.798 1.69186 0.414921 0
M  V30 4871 C 462.93 3.33587 0.702297 0
M  V30 4872 H 464.123 2.81666 -1.02976 0
M  V30 4873 H 461.676 1.45467 -0.571759 0
M  V30 4874 H 462.411 2.85297 1.54195 0
M  V30 4875 H 462.196 3.91906 0.123484 0
M  V30 4876 H 463.686 4.02638 1.10783 0
M  V30 4877 N 464.123 0.554532 1.47522 0
M  V30 4878 C 465.071 -0.207765 2.3167 0
M  V30 4879 C 466.065 -0.911914 1.4276 0
M  V30 4880 O 467.271 -0.833504 1.59539 0
M  V30 4881 H 463.646 -0.0858726 0.747081 0
M  V30 4882 H 465.617 0.521178 2.93813 0
M  V30 4883 C 464.366 -1.2263 3.25357 0
M  V30 4884 H 463.689 -0.693887 3.93732 0
M  V30 4885 H 465.129 -1.73062 3.87073 0
M  V30 4886 C 463.588 -2.27278 2.4869 0
M  V30 4887 O 464.118 -3.34156 2.22941 0
M  V30 4888 N 462.324 -2.01134 2.09746 0
M  V30 4889 H 461.871 -1.14232 2.30887 0
M  V30 4890 H 461.829 -2.71369 1.58765 0
M  V30 4891 N 465.601 -1.54893 0.290851 0
M  V30 4892 C 467.017 -1.59476 -0.0628432 0
M  V30 4893 C 467.217 -1.30795 -1.5328 0
M  V30 4894 O 466.273 -1.07644 -2.28406 0
M  V30 4895 C 467.586 -2.98928 0.325962 0
M  V30 4896 C 469.134 -3.11799 0.273882 0
M  V30 4897 C 469.609 -4.53544 0.637359 0
M  V30 4898 N 471.1 -4.59433 0.589507 0
M  V30 4899 C 471.835 -5.67164 0.84335 0
M  V30 4900 N 471.331 -6.82975 1.16263 0
M  V30 4901 N 473.124 -5.56786 0.771091 0
M  V30 4902 H 465.275 -1.71798 1.24896 0
M  V30 4903 H 467.538 -0.801879 0.505663 0
M  V30 4904 H 467.244 -3.24805 1.34887 0
M  V30 4905 H 467.118 -3.75793 -0.325441 0
M  V30 4906 H 469.505 -2.85677 -0.739765 0
M  V30 4907 H 469.586 -2.37112 0.959766 0
M  V30 4908 H 469.23 -4.80394 1.64877 0
M  V30 4909 H 469.16 -5.26553 -0.0704866 0
M  V30 4910 H 471.651 -3.76245 0.353252 0
M  V30 4911 H 471.964 -7.61048 1.34257 0
M  V30 4912 H 470.309 -6.84552 1.20057 0
M  V30 4913 H 473.5 -4.65187 0.521383 0
M  V30 4914 H 473.673 -6.40664 0.972295 0
M  V30 4915 N 467.08 -0.0183926 -1.57589 0
M  V30 4916 C 468.328 0.661253 -1.90976 0
M  V30 4917 C 468.649 1.73281 -0.894353 0
M  V30 4918 O 467.919 1.9579 0.0656788 0
M  V30 4919 H 466.499 0.247233 -0.704901 0
M  V30 4920 H 469.161 -0.0636639 -1.94796 0
M  V30 4921 H 468.257 1.12083 -2.9128 0
M  V30 4922 N 468.558 1.5553 0.254621 0
M  V30 4923 C 469.49 1.86104 1.33783 0
M  V30 4924 C 470.503 0.746752 1.44663 0
M  V30 4925 O 471.692 1.0248 1.46151 0
M  V30 4926 C 468.792 2.02532 2.71724 0
M  V30 4927 C 467.965 3.33335 2.83208 0
M  V30 4928 C 467.024 3.396 4.01943 0
M  V30 4929 O 466.05 4.12862 3.91834 0
M  V30 4930 N 467.252 2.68332 5.1476 0
M  V30 4931 H 470.017 2.79605 1.07893 0
M  V30 4932 H 467.578 1.55672 0.444732 0
M  V30 4933 H 469.57 2.04074 3.4948 0
M  V30 4934 H 468.14 1.15811 2.90356 0
M  V30 4935 H 467.36 3.44176 1.92189 0
M  V30 4936 H 468.648 4.19565 2.87824 0
M  V30 4937 H 468.046 2.08528 5.25864 0
M  V30 4938 H 466.603 2.75575 5.90679 0
M  V30 4939 N 470.036 -0.519951 1.48776 0
M  V30 4940 C 470.984 -1.64443 1.64503 0
M  V30 4941 C 471.978 -1.61501 0.511248 0
M  V30 4942 O 473.184 -1.66238 0.690294 0
M  V30 4943 H 469.559 -0.544776 0.518385 0
M  V30 4944 H 471.53 -1.48325 2.58925 0
M  V30 4945 C 470.279 -3.02673 1.71127 0
M  V30 4946 H 469.602 -3.05635 2.57735 0
M  V30 4947 H 471.042 -3.80941 1.86172 0
M  V30 4948 C 469.501 -3.33854 0.452032 0
M  V30 4949 O 470.031 -3.99385 -0.430678 0
M  V30 4950 N 468.237 -2.88825 0.32069 0
M  V30 4951 H 467.784 -2.35674 1.03998 0
M  V30 4952 H 467.742 -3.10056 -0.520814 0
M  V30 4953 N 471.514 -1.37532 -0.769588 0
M  V30 4954 C 472.446 -1.29347 -1.89214 0
M  V30 4955 C 473.459 -0.208842 -1.61455 0
M  V30 4956 O 474.648 -0.465158 -1.72333 0
M  V30 4957 C 471.748 -0.977649 -3.24492 0
M  V30 4958 C 470.921 -2.16817 -3.7988 0
M  V30 4959 C 469.98 -1.82229 -4.93639 0
M  V30 4960 O 469.006 -2.54548 -5.09111 0
M  V30 4961 N 470.208 -0.767696 -5.75401 0
M  V30 4962 H 472.973 -2.26073 -1.96751 0
M  V30 4963 H 470.534 -1.31185 -0.948795 0
M  V30 4964 H 472.526 -0.727065 -3.98115 0
M  V30 4965 H 471.096 -0.0988777 -3.12444 0
M  V30 4966 H 470.316 -2.58038 -2.9801 0
M  V30 4967 H 471.604 -2.96308 -4.13617 0
M  V30 4968 H 471.002 -0.167626 -5.65452 0
M  V30 4969 H 469.559 -0.576973 -6.49241 0
M  V30 4970 N 472.992 0.995999 -1.22138 0
M  V30 4971 C 474.403 1.54961 -1.04135 0
M  V30 4972 C 474.754 1.92159 0.396147 0
M  V30 4973 O 473.879 1.74435 1.28069 0
M  V30 4974 C 474.474 2.81581 -1.88408 0
M  V30 4975 C 473.033 3.33396 -1.74712 0
M  V30 4976 C 472.18 2.06509 -1.85066 0
M  V30 4977 H 475.131 0.817436 -1.36028 0
M  V30 4978 H 475.152 3.53822 -1.39966 0
M  V30 4979 H 474.664 2.54476 -2.93025 0
M  V30 4980 H 472.765 3.65416 -0.728159 0
M  V30 4981 H 472.878 4.04208 -2.57202 0
M  V30 4982 H 471.242 2.19925 -1.28472 0
M  V30 4983 H 472.025 1.81804 -2.91208 0
M  V30 4984 N 474.47 1.03057 1.19235 0
M  V30 4985 C 475.716 0.729098 1.89241 0
M  V30 4986 C 476.049 -0.740573 1.79525 0
M  V30 4987 O 475.324 -1.53946 1.18874 0
M  V30 4988 C 475.607 1.18304 3.40112 0
M  V30 4989 C 475.46 2.71406 3.5869 0
M  V30 4990 C 476.779 0.765161 4.33397 0
M  V30 4991 H 473.898 0.266338 0.687192 0
M  V30 4992 H 476.54 1.28079 1.40341 0
M  V30 4993 H 474.69 0.713672 3.81889 0
M  V30 4994 H 476.362 3.26303 3.26074 0
M  V30 4995 H 474.605 3.11717 3.01687 0
M  V30 4996 H 475.276 2.98225 4.64506 0
M  V30 4997 H 477.752 1.16889 3.99345 0
M  V30 4998 H 476.628 1.11065 5.37546 0
M  V30 4999 H 476.889 -0.332372 4.40849 0
M  V30 5000 N 475.948 -1.35272 0.808662 0
M  V30 5001 C 476.878 -2.32315 0.234981 0
M  V30 5002 C 477.859 -1.57572 -0.64071 0
M  V30 5003 O 479.044 -1.8563 -0.570551 0
M  V30 5004 C 476.174 -3.41801 -0.615601 0
M  V30 5005 C 475.128 -4.27694 0.161767 0
M  V30 5006 C 474.454 -5.28519 -0.810649 0
M  V30 5007 C 475.754 -5.04231 1.36193 0
M  V30 5008 H 477.448 -2.80543 1.04575 0
M  V30 5009 H 474.994 -1.3488 0.504315 0
M  V30 5010 H 476.947 -4.08693 -1.02702 0
M  V30 5011 H 475.671 -2.92186 -1.45928 0
M  V30 5012 H 474.33 -3.62384 0.554382 0
M  V30 5013 H 473.978 -4.75171 -1.64988 0
M  V30 5014 H 473.678 -5.8686 -0.294822 0
M  V30 5015 H 475.202 -5.98283 -1.22023 0
M  V30 5016 H 476.616 -5.64058 1.02528 0
M  V30 5017 H 475.013 -5.72077 1.81239 0
M  V30 5018 H 476.083 -4.34753 2.14751 0
M  V30 5019 N 477.426 -0.562348 -1.47226 0
M  V30 5020 C 478.374 0.195476 -2.31777 0
M  V30 5021 C 479.368 0.90433 -1.43242 0
M  V30 5022 O 480.574 0.825031 -1.59979 0
M  V30 5023 H 476.949 0.0819095 -0.747526 0
M  V30 5024 H 478.92 -0.536753 -2.93533 0
M  V30 5025 C 477.669 1.20902 -3.26003 0
M  V30 5026 H 476.992 0.672997 -3.94095 0
M  V30 5027 H 478.432 1.71006 -3.87986 0
M  V30 5028 C 476.891 2.25955 -2.49891 0
M  V30 5029 O 477.421 3.32969 -2.2471 0
M  V30 5030 N 475.627 2.00019 -2.1081 0
M  V30 5031 H 475.174 1.13006 -2.31489 0
M  V30 5032 H 475.132 2.70523 -1.60201 0
M  V30 5033 N 478.904 1.54736 -0.299062 0
M  V30 5034 C 480.153 1.99279 0.311549 0
M  V30 5035 C 480.466 1.19107 1.55154 0
M  V30 5036 O 481.672 1.53908 2.23662 0
M  V30 5037 C 480.128 3.54768 0.605632 0
M  V30 5038 C 479.736 4.43746 -0.615914 0
M  V30 5039 C 481.48 4.07841 1.17754 0
M  V30 5040 C 479.387 5.90663 -0.29509 0
M  V30 5041 H 478.317 0.744359 0.120187 0
M  V30 5042 H 480.968 1.78919 -0.407464 0
M  V30 5043 H 479.35 3.71021 1.38419 0
M  V30 5044 H 480.524 4.39267 -1.39218 0
M  V30 5045 H 478.839 4.01434 -1.10633 0
M  V30 5046 H 481.436 5.15174 1.43179 0
M  V30 5047 H 481.779 3.58324 2.11918 0
M  V30 5048 H 482.312 3.95123 0.460739 0
M  V30 5049 H 479.051 6.44325 -1.20524 0
M  V30 5050 H 478.571 5.98155 0.44394 0
M  V30 5051 H 480.25 6.46916 0.104048 0
M  V30 5052 N 480.382 0.0267497 1.57577 0
M  V30 5053 C 481.61 -0.662661 1.96001 0
M  V30 5054 C 482.025 -1.65799 0.903117 0
M  V30 5055 O 481.382 -1.82135 -0.115317 0
M  V30 5056 C 481.433 -1.37112 3.34488 0
M  V30 5057 O 481.154 -0.415683 4.36123 0
M  V30 5058 C 482.655 -2.15257 3.8753 0
M  V30 5059 H 479.875 -0.18287 0.6456 0
M  V30 5060 H 482.419 0.0858116 2.0432 0
M  V30 5061 H 480.574 -2.07101 3.27395 0
M  V30 5062 H 480.988 -0.918496 5.16395 0
M  V30 5063 H 482.462 -2.60285 4.86781 0
M  V30 5064 H 482.939 -2.99063 3.21649 0
M  V30 5065 H 483.545 -1.50231 3.97883 0
M  V30 5066 N 481.861 -1.55662 -0.24637 0
M  V30 5067 C 482.809 -1.91186 -1.3248 0
M  V30 5068 C 483.803 -0.790996 -1.49799 0
M  V30 5069 O 485.009 -0.975617 -1.51267 0
M  V30 5070 H 481.384 -0.607207 -0.443626 0
M  V30 5071 H 483.355 -2.81221 -0.997853 0
M  V30 5072 C 482.104 -2.22349 -2.67313 0
M  V30 5073 H 481.427 -3.08097 -2.54786 0
M  V30 5074 H 482.867 -2.51107 -3.41645 0
M  V30 5075 C 481.326 -1.04001 -3.20446 0
M  V30 5076 O 481.856 -0.28828 -4.00664 0
M  V30 5077 N 480.062 -0.830494 -2.7848 0
M  V30 5078 H 479.609 -1.4435 -2.13356 0
M  V30 5079 H 479.567 -0.0403258 -3.14374 0
M  V30 5080 N 483.339 0.512053 -1.4905 0
M  V30 5081 C 484.286 1.6148 -1.64902 0
M  V30 5082 C 485.256 1.58687 -0.490673 0
M  V30 5083 O 486.441 1.76842 -0.71636 0
M  V30 5084 C 483.581 2.99676 -1.71139 0
M  V30 5085 C 482.694 3.12568 -2.98203 0
M  V30 5086 C 481.829 4.4143 -2.95487 0
M  V30 5087 C 480.868 4.47916 -4.17179 0
M  V30 5088 N 480.005 5.68191 -4.12437 0
M  V30 5089 H 484.845 1.47271 -2.59066 0
M  V30 5090 H 482.382 0.716713 -1.28459 0
M  V30 5091 H 484.34 3.79761 -1.72736 0
M  V30 5092 H 482.97 3.12614 -0.804508 0
M  V30 5093 H 482.022 2.25618 -3.06269 0
M  V30 5094 H 483.334 3.1322 -3.88194 0
M  V30 5095 H 482.488 5.29825 -2.95585 0
M  V30 5096 H 481.227 4.43326 -2.03256 0
M  V30 5097 H 480.232 3.57925 -4.17337 0
M  V30 5098 H 481.457 4.47744 -5.1059 0
M  V30 5099 H 479.403 5.7095 -3.23036 0
M  V30 5100 H 479.32 5.70413 -4.96151 0
M  V30 5101 H 480.588 6.58823 -4.16621 0
M  V30 5102 N 484.817 1.37938 0.762283 0
M  V30 5103 C 485.749 1.30349 1.88525 0
M  V30 5104 C 486.762 0.217402 1.61342 0
M  V30 5105 O 487.951 0.474291 1.72084 0
M  V30 5106 C 485.051 0.994844 3.23969 0
M  V30 5107 C 484.224 2.18829 3.78725 0
M  V30 5108 C 483.283 1.84844 4.92665 0
M  V30 5109 O 482.309 2.57244 5.07754 0
M  V30 5110 N 483.511 0.798201 5.74986 0
M  V30 5111 H 486.276 2.27114 1.95549 0
M  V30 5112 H 483.837 1.31686 0.941825 0
M  V30 5113 H 485.829 0.748168 3.97724 0
M  V30 5114 H 484.399 0.115446 3.12387 0
M  V30 5115 H 483.619 2.59615 2.96637 0
M  V30 5116 H 484.907 2.98497 4.1204 0
M  V30 5117 H 484.305 0.197611 5.65355 0
M  V30 5118 H 482.862 0.611396 6.48926 0
M  V30 5119 N 486.295 -0.989507 1.22664 0
M  V30 5120 C 487.258 -2.06183 1.00106 0
M  V30 5121 C 488.258 -1.60765 -0.0337726 0
M  V30 5122 O 489.448 -1.72989 0.205072 0
M  V30 5123 C 486.58 -3.37021 0.51279 0
M  V30 5124 H 487.773 -2.27629 1.95256 0
M  V30 5125 H 485.326 -1.16158 1.0458 0
M  V30 5126 H 486.061 -3.21261 -0.442917 0
M  V30 5127 H 485.846 -3.71323 1.25942 0
M  V30 5128 H 487.336 -4.1591 0.375315 0
M  V30 5129 N 487.773 -1.03688 -1.18687 0
M  V30 5130 C 489.02 -0.73803 -1.88572 0
M  V30 5131 C 489.348 0.733973 -1.8012 0
M  V30 5132 O 488.603 1.55098 -1.19344 0
M  V30 5133 C 488.902 -1.14477 -3.3857 0
M  V30 5134 C 488.568 -2.61641 -3.67226 0
M  V30 5135 C 487.23 -3.01846 -3.74757 0
M  V30 5136 C 489.582 -3.56812 -3.79914 0
M  V30 5137 C 486.91 -4.36118 -3.92451 0
M  V30 5138 C 489.262 -4.90799 -3.99123 0
M  V30 5139 C 487.926 -5.3068 -4.04888 0
M  V30 5140 H 487.196 -0.270064 -0.690034 0
M  V30 5141 H 489.843 -1.3012 -1.40503 0
M  V30 5142 H 488.148 -0.500337 -3.88592 0
M  V30 5143 H 489.845 -0.89095 -3.90977 0
M  V30 5144 H 486.435 -2.29498 -3.61979 0
M  V30 5145 H 490.619 -3.26899 -3.73431 0
M  V30 5146 H 485.875 -4.66542 -3.95157 0
M  V30 5147 H 490.049 -5.64451 -4.07882 0
M  V30 5148 H 487.676 -6.34733 -4.18351 0
M  V30 5149 N 489.251 1.34841 -0.815825 0
M  V30 5150 C 490.5 1.97755 -0.396976 0
M  V30 5151 C 490.813 1.65422 1.04379 0
M  V30 5152 O 492.019 2.21771 1.5662 0
M  V30 5153 C 490.475 3.53818 -0.658869 0
M  V30 5154 C 490.083 3.95051 -2.11278 0
M  V30 5155 C 491.827 4.23397 -0.305834 0
M  V30 5156 C 489.734 5.43997 -2.31994 0
M  V30 5157 H 488.664 0.739985 -0.1447 0
M  V30 5158 H 491.315 1.53781 -1.00118 0
M  V30 5159 H 489.697 3.95997 0.0154112 0
M  V30 5160 H 490.871 3.63998 -2.82564 0
M  V30 5161 H 489.186 3.38388 -2.42657 0
M  V30 5162 H 491.783 5.32899 -0.43854 0
M  V30 5163 H 492.126 4.09508 0.748952 0
M  V30 5164 H 492.659 3.8667 -0.934403 0
M  V30 5165 H 489.398 5.62865 -3.35952 0
M  V30 5166 H 488.918 5.76589 -1.65244 0
M  V30 5167 H 490.597 6.10584 -2.14001 0
M  V30 5168 N 490.729 0.570148 1.46925 0
M  V30 5169 C 491.957 0.0561966 2.06824 0
M  V30 5170 C 492.372 -1.24326 1.42086 0
M  V30 5171 O 491.729 -1.74882 0.521794 0
M  V30 5172 C 491.78 -0.129517 3.61268 0
M  V30 5173 O 491.501 1.1185 4.23581 0
M  V30 5174 C 493.002 -0.679266 4.38065 0
M  V30 5175 H 490.222 0.0517261 0.669003 0
M  V30 5176 H 492.766 0.787243 1.8874 0
M  V30 5177 H 490.921 -0.810739 3.78822 0
M  V30 5178 H 491.335 0.924375 5.1629 0
M  V30 5179 H 492.809 -0.758445 5.46765 0
M  V30 5180 H 493.286 -1.69346 4.05239 0
M  V30 5181 H 493.892 -0.0333237 4.25287 0
M  V30 5182 N 492.207 -1.54576 0.307264 0
M  V30 5183 C 493.17 -2.22423 -0.553224 0
M  V30 5184 C 494.17 -1.21231 -1.05639 0
M  V30 5185 O 495.36 -1.45923 -0.951419 0
M  V30 5186 C 492.492 -2.91552 -1.76664 0
M  V30 5187 H 493.685 -2.99874 0.0396484 0
M  V30 5188 H 491.238 -1.56192 0.0581629 0
M  V30 5189 H 491.973 -2.18196 -2.39918 0
M  V30 5190 H 491.758 -3.65738 -1.41343 0
M  V30 5191 H 493.248 -3.43292 -2.37783 0
M  V30 5192 N 493.685 -0.035106 -1.57561 0
M  V30 5193 C 494.617 0.973604 -2.07494 0
M  V30 5194 C 495.63 1.28504 -0.999534 0
M  V30 5195 O 496.819 1.24864 -1.27559 0
M  V30 5196 C 493.919 2.29945 -2.48955 0
M  V30 5197 C 493.092 2.1723 -3.79644 0
M  V30 5198 C 492.151 3.328 -4.07592 0
M  V30 5199 O 491.177 3.09418 -4.77754 0
M  V30 5200 N 492.379 4.56779 -3.58236 0
M  V30 5201 H 495.144 0.547525 -2.94656 0
M  V30 5202 H 492.705 0.151515 -1.61189 0
M  V30 5203 H 494.697 3.06097 -2.64739 0
M  V30 5204 H 493.267 2.64173 -1.67126 0
M  V30 5205 H 492.487 1.25768 -3.73599 0
M  V30 5206 H 493.775 2.05945 -4.65257 0
M  V30 5207 H 493.173 4.78668 -3.01485 0
M  V30 5208 H 491.73 5.30079 -3.79288 0
M  V30 5209 N 495.163 1.55791 0.238111 0
M  V30 5210 C 496.111 1.91885 1.31464 0
M  V30 5211 C 497.105 0.798929 1.49377 0
M  V30 5212 O 498.311 0.983626 1.50747 0
M  V30 5213 H 494.686 0.609551 0.440399 0
M  V30 5214 H 496.657 2.81747 0.982925 0
M  V30 5215 C 495.406 2.23763 2.6613 0
M  V30 5216 H 494.729 3.09444 2.53149 0
M  V30 5217 H 496.169 2.52915 3.40309 0
M  V30 5218 C 494.628 1.05699 3.1989 0
M  V30 5219 O 495.158 0.309524 4.00506 0
M  V30 5220 N 493.364 0.845251 2.78036 0
M  V30 5221 H 492.911 1.4548 2.12588 0
M  V30 5222 H 492.869 0.0569973 3.14348 0
M  V30 5223 N 496.642 -0.504142 1.49319 0
M  V30 5224 C 497.592 -1.60284 1.62151 0
M  V30 5225 C 498.576 -1.53657 0.477315 0
M  V30 5226 O 499.768 -1.6124 0.730108 0
M  V30 5227 C 496.897 -2.98909 1.68844 0
M  V30 5228 C 495.983 -3.10544 2.8883 0
M  V30 5229 N 496.374 -2.92078 4.12946 0
M  V30 5230 C 494.672 -3.4164 2.86702 0
M  V30 5231 C 495.373 -3.07812 4.93585 0
M  V30 5232 N 494.349 -3.36549 4.26891 0
M  V30 5233 H 498.151 -1.44656 2.55835 0
M  V30 5234 H 495.665 -0.710198 1.46048 0
M  V30 5235 H 497.662 -3.77865 1.76134 0
M  V30 5236 H 496.322 -3.15609 0.762943 0
M  V30 5237 H 497.333 -2.68316 4.42975 0
M  V30 5238 H 494.01 -3.64537 2.03517 0
M  V30 5239 H 495.4 -2.98054 6.02174 0
M  V30 5240 N 498.12 -1.38341 -0.754957 0
M  V30 5241 C 499.368 -1.34208 -1.51105 0
M  V30 5242 C 499.689 0.0677634 -1.94882 0
M  V30 5243 O 498.959 1.01517 -1.67544 0
M  V30 5244 H 497.539 -0.493819 -0.560493 0
M  V30 5245 H 500.201 -1.73005 -0.897507 0
M  V30 5246 H 499.297 -1.99203 -2.4026 0
M  V30 5247 N 499.598 0.982988 -1.23187 0
M  V30 5248 C 500.828 1.75666 -1.08743 0
M  V30 5249 C 501.236 1.85662 0.364195 0
M  V30 5250 O 500.579 1.33317 1.26382 0
M  V30 5251 C 500.641 3.20144 -1.63549 0
M  V30 5252 C 500.305 3.33665 -3.12277 0
M  V30 5253 C 501.302 3.20194 -4.096 0
M  V30 5254 C 498.987 3.58397 -3.51933 0
M  V30 5255 C 500.981 3.31256 -5.44563 0
M  V30 5256 C 498.668 3.69098 -4.87042 0
M  V30 5257 C 499.666 3.55537 -5.83166 0
M  V30 5258 O 499.354 3.65864 -7.1582 0
M  V30 5259 H 499.086 0.558194 -0.381307 0
M  V30 5260 H 501.64 1.24387 -1.63454 0
M  V30 5261 H 499.87 3.72659 -1.03256 0
M  V30 5262 H 501.559 3.79262 -1.4462 0
M  V30 5263 H 502.325 3.00987 -3.80305 0
M  V30 5264 H 498.204 3.68025 -2.77631 0
M  V30 5265 H 501.748 3.20588 -6.19572 0
M  V30 5266 H 497.645 3.87814 -5.16014 0
M  V30 5267 H 498.413 3.82675 -7.23534 0
M  V30 5268 N 501.076 1.04316 1.18135 0
M  V30 5269 C 502.039 0.640794 2.2006 0
M  V30 5270 C 503.039 -0.303124 1.57917 0
M  V30 5271 O 504.229 -0.0881855 1.73977 0
M  V30 5272 C 501.361 -0.060148 3.40847 0
M  V30 5273 H 502.554 1.54281 2.57172 0
M  V30 5274 H 500.107 0.836004 1.32063 0
M  V30 5275 H 500.842 -0.975845 3.0927 0
M  V30 5276 H 500.627 0.618319 3.87194 0
M  V30 5277 H 502.117 -0.328082 4.16309 0
M  V30 5278 N 502.554 -1.34406 0.822964 0
M  V30 5279 C 503.484 -2.32052 0.259608 0
M  V30 5280 C 504.465 -1.58243 -0.623961 0
M  V30 5281 O 505.65 -1.86224 -0.55083 0
M  V30 5282 C 502.78 -3.42434 -0.579314 0
M  V30 5283 C 501.734 -4.27499 0.20712 0
M  V30 5284 C 501.06 -5.29349 -0.754547 0
M  V30 5285 C 502.36 -5.02758 1.41533 0
M  V30 5286 H 504.054 -2.79418 1.07545 0
M  V30 5287 H 501.6 -1.34338 0.518593 0
M  V30 5288 H 503.553 -4.0976 -0.983612 0
M  V30 5289 H 502.277 -2.93717 -1.4282 0
M  V30 5290 H 500.936 -3.61776 0.592787 0
M  V30 5291 H 500.584 -4.76895 -1.59939 0
M  V30 5292 H 500.284 -5.8714 -0.232561 0
M  V30 5293 H 501.808 -5.99544 -1.1567 0
M  V30 5294 H 503.222 -5.62938 1.08504 0
M  V30 5295 H 501.619 -5.70123 1.87296 0
M  V30 5296 H 502.689 -4.32451 2.1935 0
M  V30 5297 N 504.032 -0.577932 -1.46621 0
M  V30 5298 C 505.309 0.00495287 -1.95599 0
M  V30 5299 C 505.689 1.46428 -1.5206 0
M  V30 5300 O 505.037 2.1517 -0.769046 0
M  V30 5301 C 505.247 -0.162114 -3.48623 0
M  V30 5302 C 506.595 -0.0274623 -4.24591 0
M  V30 5303 O 507.619 -0.0907067 -3.56084 0
M  V30 5304 O 506.478 0.1122 -5.46385 0
M  V30 5305 H 503.572 0.0525057 -0.825332 0
M  V30 5306 H 506.118 -0.645914 -1.56927 0
M  V30 5307 H 504.89 -1.17679 -3.73185 0
M  V30 5308 H 504.513 0.525407 -3.94113 0
M  V30 5309 N 505.51 1.54411 -0.315457 0
M  V30 5310 C 506.458 2.25514 0.569771 0
M  V30 5311 C 507.452 1.2663 1.12522 0
M  V30 5312 O 508.658 1.44434 1.07419 0
M  V30 5313 H 505.033 0.724257 0.202376 0
M  V30 5314 H 507.004 2.98354 -0.0522895 0
M  V30 5315 C 505.753 3.02004 1.72305 0
M  V30 5316 H 505.076 3.77906 1.30488 0
M  V30 5317 H 506.516 3.55014 2.31821 0
M  V30 5318 C 504.975 2.09822 2.63583 0
M  V30 5319 O 505.505 1.67574 3.65078 0
M  V30 5320 N 503.711 1.75478 2.31637 0
M  V30 5321 H 503.258 2.10032 1.49145 0
M  V30 5322 H 503.216 1.14079 2.92973 0
M  V30 5323 N 506.988 0.0434614 1.5754 0
M  V30 5324 C 508.216 -0.641835 1.96693 0
M  V30 5325 C 508.631 -1.64832 0.920652 0
M  V30 5326 O 507.988 -1.82247 -0.095993 0
M  V30 5327 C 508.039 -1.33557 3.35924 0
M  V30 5328 O 507.76 -0.369403 4.3654 0
M  V30 5329 C 509.261 -2.11135 3.89791 0
M  V30 5330 H 506.481 -0.176013 0.647503 0
M  V30 5331 H 509.025 0.107478 2.04217 0
M  V30 5332 H 507.18 -2.03617 3.29574 0
M  V30 5333 H 507.594 -0.863674 5.1734 0
M  V30 5334 H 509.068 -2.55107 4.89514 0
M  V30 5335 H 509.545 -2.95634 3.24803 0
M  V30 5336 H 510.151 -1.46002 3.99454 0
M  V30 5337 N 508.466 -1.55915 -0.229846 0
M  V30 5338 C 509.396 -1.94754 -1.28815 0
M  V30 5339 C 510.377 -0.814657 -1.49323 0
M  V30 5340 O 511.562 -1.07631 -1.61645 0
M  V30 5341 C 508.692 -2.25705 -2.63959 0
M  V30 5342 C 507.646 -3.41406 -2.5812 0
M  V30 5343 C 506.972 -3.57941 -3.97218 0
M  V30 5344 C 508.272 -4.76616 -2.13623 0
M  V30 5345 H 509.966 -2.83404 -0.965547 0
M  V30 5346 H 507.512 -1.36353 -0.463028 0
M  V30 5347 H 509.465 -2.51467 -3.38146 0
M  V30 5348 H 508.189 -1.339 -2.9789 0
M  V30 5349 H 506.848 -3.1568 -1.86391 0
M  V30 5350 H 506.496 -2.63526 -4.28443 0
M  V30 5351 H 506.196 -4.35757 -3.94195 0
M  V30 5352 H 507.72 -3.86042 -4.73079 0
M  V30 5353 H 509.134 -5.01637 -2.77549 0
M  V30 5354 H 507.531 -5.57655 -2.21677 0
M  V30 5355 H 508.601 -4.7253 -1.08829 0
M  V30 5356 N 509.944 0.496216 -1.49584 0
M  V30 5357 C 511.355 1.07765 -1.52459 0
M  V30 5358 C 511.706 1.93679 -0.31353 0
M  V30 5359 O 510.831 2.08588 0.576186 0
M  V30 5360 C 511.426 1.96111 -2.76271 0
M  V30 5361 C 509.985 2.49409 -2.81908 0
M  V30 5362 C 509.132 1.27142 -2.46435 0
M  V30 5363 H 512.083 0.279914 -1.56212 0
M  V30 5364 H 512.104 2.80862 -2.56704 0
M  V30 5365 H 511.616 1.33555 -3.64396 0
M  V30 5366 H 509.717 3.1559 -1.98074 0
M  V30 5367 H 509.83 2.86234 -3.84196 0
M  V30 5368 H 508.194 1.59818 -1.98319 0
M  V30 5369 H 508.977 0.662866 -3.3684 0
M  V30 5370 N 511.423 1.38739 0.74761 0
M  V30 5371 C 512.386 1.36241 1.84312 0
M  V30 5372 C 513.386 0.261811 1.58654 0
M  V30 5373 O 514.576 0.519031 1.66288 0
M  V30 5374 C 511.708 1.12253 3.21888 0
M  V30 5375 H 512.901 2.33712 1.87933 0
M  V30 5376 H 510.454 1.2412 0.949946 0
M  V30 5377 H 511.189 0.154133 3.23934 0
M  V30 5378 H 510.974 1.91943 3.41907 0
M  V30 5379 H 512.464 1.13215 4.0196 0
M  V30 5380 N 512.901 -0.976442 1.23707 0
M  V30 5381 C 514.149 -1.71487 1.06942 0
M  V30 5382 C 514.47 -1.9098 -0.393897 0
M  V30 5383 O 513.74 -1.48128 -1.28198 0
M  V30 5384 H 512.32 -0.635425 0.392739 0
M  V30 5385 H 514.982 -1.17515 1.55487 0
M  V30 5386 H 514.078 -2.70286 1.56051 0
M  V30 5387 N 514.379 -1.04941 -1.1758 0
M  V30 5388 C 515.625 -0.768896 -1.88307 0
M  V30 5389 C 515.98 0.696361 -1.79356 0
M  V30 5390 O 515.273 1.50245 -1.18899 0
M  V30 5391 C 515.467 -1.18062 -3.37337 0
M  V30 5392 C 515.296 -2.68436 -3.60794 0
M  V30 5393 C 514.066 -3.35709 -3.77661 0
M  V30 5394 C 516.264 -3.66657 -3.60649 0
M  V30 5395 N 514.246 -4.74974 -3.88939 0
M  V30 5396 C 515.617 -4.91638 -3.77747 0
M  V30 5397 C 517.672 -3.60162 -3.43785 0
M  V30 5398 C 516.375 -6.10902 -3.79726 0
M  V30 5399 C 518.401 -4.78863 -3.47051 0
M  V30 5400 C 517.763 -6.02666 -3.64654 0
M  V30 5401 H 513.862 -0.33355 -0.707296 0
M  V30 5402 H 516.446 -1.34085 -1.41171 0
M  V30 5403 H 514.617 -0.636648 -3.83147 0
M  V30 5404 H 516.349 -0.8502 -3.95669 0
M  V30 5405 H 513.104 -2.8611 -3.77409 0
M  V30 5406 H 513.528 -5.47378 -3.98379 0
M  V30 5407 H 518.17 -2.65412 -3.29114 0
M  V30 5408 H 515.888 -7.05998 -3.93182 0
M  V30 5409 H 519.474 -4.75488 -3.35265 0
M  V30 5410 H 518.354 -6.92979 -3.67083 0
M  V30 5411 N 515.857 1.33968 -0.830081 0
M  V30 5412 C 516.804 2.29387 -0.255008 0
M  V30 5413 C 517.774 1.53923 0.624243 0
M  V30 5414 O 518.959 1.82262 0.564372 0
M  V30 5415 C 516.099 3.4034 0.571209 0
M  V30 5416 C 515.212 4.30729 -0.331083 0
M  V30 5417 C 514.347 5.2879 0.505389 0
M  V30 5418 C 513.386 6.10819 -0.395843 0
M  V30 5419 N 512.523 7.00948 0.401979 0
M  V30 5420 H 517.363 2.77972 -1.07404 0
M  V30 5421 H 514.9 1.36785 -0.541133 0
M  V30 5422 H 516.858 4.03361 1.06562 0
M  V30 5423 H 515.488 2.9297 1.35529 0
M  V30 5424 H 514.54 3.68507 -0.943759 0
M  V30 5425 H 515.852 4.88181 -1.02377 0
M  V30 5426 H 515.006 5.97297 1.06399 0
M  V30 5427 H 513.745 4.71894 1.23155 0
M  V30 5428 H 512.75 5.41238 -0.966529 0
M  V30 5429 H 513.975 6.69797 -1.12023 0
M  V30 5430 H 511.921 6.46512 1.11168 0
M  V30 5431 H 511.838 7.55643 -0.232167 0
M  V30 5432 H 513.106 7.73774 0.943102 0
M  V30 5433 N 517.335 0.585699 1.46312 0
M  V30 5434 C 518.746 0.159938 1.86014 0
M  V30 5435 C 519.097 -1.27775 1.48889 0
M  V30 5436 O 518.222 -1.96559 0.90519 0
M  V30 5437 C 518.817 0.283485 3.37612 0
M  V30 5438 C 517.376 -0.0874256 3.76298 0
M  V30 5439 C 516.523 0.618055 2.70325 0
M  V30 5440 H 519.474 0.793737 1.37425 0
M  V30 5441 H 519.495 -0.490348 3.77327 0
M  V30 5442 H 519.007 1.32995 3.64601 0
M  V30 5443 H 517.108 -1.13391 3.54927 0
M  V30 5444 H 517.221 0.290975 4.78216 0
M  V30 5445 H 515.585 0.057993 2.54634 0
M  V30 5446 H 516.368 1.66623 3.00153 0
M  V30 5447 N 518.813 -1.54241 0.323641 0
M  V30 5448 C 519.743 -2.27289 -0.534993 0
M  V30 5449 C 520.724 -1.28087 -1.11927 0
M  V30 5450 O 521.909 -1.56899 -1.14439 0
M  V30 5451 C 519.039 -3.03075 -1.69596 0
M  V30 5452 C 517.993 -4.09614 -1.24098 0
M  V30 5453 C 517.319 -4.73242 -2.4889 0
M  V30 5454 C 518.619 -5.21087 -0.355789 0
M  V30 5455 H 520.313 -2.99308 0.0743257 0
M  V30 5456 H 517.859 -1.43952 0.0371874 0
M  V30 5457 H 519.812 -3.52907 -2.30293 0
M  V30 5458 H 518.536 -2.28673 -2.33187 0
M  V30 5459 H 517.195 -3.60666 -0.656945 0
M  V30 5460 H 516.843 -3.95455 -3.10845 0
M  V30 5461 H 516.543 -5.45209 -2.19138 0
M  V30 5462 H 518.067 -5.25848 -3.10348 0
M  V30 5463 H 519.481 -5.66675 -0.869042 0
M  V30 5464 H 517.878 -5.9991 -0.151045 0
M  V30 5465 H 518.948 -4.81005 0.613339 0
M  V30 5466 N 520.291 -0.0518155 -1.57515 0
M  V30 5467 C 521.538 0.621823 -1.92716 0
M  V30 5468 C 521.866 1.70813 -0.930229 0
M  V30 5469 O 521.121 1.95616 0.0573708 0
M  V30 5470 C 521.42 1.25607 -3.34601 0
M  V30 5471 C 521.086 0.297901 -4.49915 0
M  V30 5472 C 519.748 0.034243 -4.81188 0
M  V30 5473 C 522.1 -0.358738 -5.19964 0
M  V30 5474 C 519.428 -0.893479 -5.79857 0
M  V30 5475 C 521.78 -1.27466 -6.19625 0
M  V30 5476 C 520.444 -1.54698 -6.49326 0
M  V30 5477 H 519.714 0.227541 -0.705199 0
M  V30 5478 H 522.361 -0.118432 -1.91133 0
M  V30 5479 H 520.666 2.07161 -3.32553 0
M  V30 5480 H 522.363 1.78424 -3.59118 0
M  V30 5481 H 518.953 0.513581 -4.25512 0
M  V30 5482 H 523.137 -0.168133 -4.96015 0
M  V30 5483 H 518.393 -1.11193 -6.01204 0
M  V30 5484 H 522.567 -1.78953 -6.73015 0
M  V30 5485 H 520.194 -2.26748 -7.25596 0
M  V30 5486 N 521.769 1.56035 0.221574 0
M  V30 5487 C 523.015 1.79312 0.947372 0
M  V30 5488 C 523.348 0.621453 1.83988 0
M  V30 5489 O 522.623 -0.379287 1.90766 0
M  V30 5490 C 522.906 3.1267 1.78633 0
M  V30 5491 C 522.759 4.40284 0.920312 0
M  V30 5492 C 524.078 3.4247 2.7641 0
M  V30 5493 H 521.197 0.652328 0.342982 0
M  V30 5494 H 523.839 1.88765 0.216244 0
M  V30 5495 H 521.989 3.04741 2.40967 0
M  V30 5496 H 523.661 4.60232 0.313718 0
M  V30 5497 H 521.904 4.33212 0.225734 0
M  V30 5498 H 522.575 5.30033 1.54171 0
M  V30 5499 H 525.051 3.50526 2.24211 0
M  V30 5500 H 523.927 4.3695 3.32213 0
M  V30 5501 H 524.188 2.64635 3.54148 0
M  V30 5502 N 523.247 -0.488276 1.49845 0
M  V30 5503 C 524.195 -1.60917 1.67954 0
M  V30 5504 C 525.189 -1.6038 0.54539 0
M  V30 5505 O 526.395 -1.64736 0.7254 0
M  V30 5506 H 522.77 -0.533658 0.529824 0
M  V30 5507 H 524.741 -1.428 2.62013 0
M  V30 5508 C 523.49 -2.98975 1.77509 0
M  V30 5509 H 522.813 -3.00099 2.6416 0
M  V30 5510 H 524.253 -3.76906 1.9421 0
M  V30 5511 C 522.712 -3.3282 0.522745 0
M  V30 5512 O 523.242 -4.00208 -0.345866 0
M  V30 5513 N 521.448 -2.8808 0.381882 0
M  V30 5514 H 520.995 -2.33415 1.08974 0
M  V30 5515 H 520.953 -3.11091 -0.454929 0
M  V30 5516 N 524.725 -1.39134 -0.740242 0
M  V30 5517 C 525.971 -1.36273 -1.50192 0
M  V30 5518 C 526.304 0.0430136 -1.94152 0
M  V30 5519 O 525.579 1.00691 -1.66408 0
M  V30 5520 C 525.862 -2.33041 -2.74525 0
M  V30 5521 C 525.715 -3.82535 -2.36617 0
M  V30 5522 C 527.034 -2.27723 -3.76604 0
M  V30 5523 H 524.153 -0.496323 -0.544823 0
M  V30 5524 H 526.795 -1.70085 -0.846815 0
M  V30 5525 H 524.945 -2.04337 -3.30422 0
M  V30 5526 H 526.617 -4.21967 -1.86391 0
M  V30 5527 H 524.86 -3.99565 -1.68909 0
M  V30 5528 H 525.531 -4.45723 -3.2563 0
M  V30 5529 H 528.007 -2.53091 -3.30279 0
M  V30 5530 H 526.883 -2.97519 -4.61274 0
M  V30 5531 H 527.144 -1.28049 -4.2315 0
M  V30 5532 N 526.204 0.969867 -1.24223 0
M  V30 5533 C 527.152 2.08535 -1.03034 0
M  V30 5534 C 528.146 1.69366 0.0340379 0
M  V30 5535 O 529.352 1.79597 -0.12034 0
M  V30 5536 H 525.727 0.682313 -0.316154 0
M  V30 5537 H 527.698 2.23569 -1.97635 0
M  V30 5538 C 526.447 3.4158 -0.649509 0
M  V30 5539 H 525.77 3.72177 -1.46028 0
M  V30 5540 H 527.21 4.20536 -0.540841 0
M  V30 5541 C 525.669 3.30703 0.643194 0
M  V30 5542 O 526.199 3.64443 1.68951 0
M  V30 5543 N 524.405 2.83841 0.623095 0
M  V30 5544 H 523.952 2.56583 -0.228719 0
M  V30 5545 H 523.91 2.76946 1.48823 0
M  V30 5546 N 527.682 1.05563 1.17022 0
M  V30 5547 C 528.959 0.68165 1.83338 0
M  V30 5548 C 529.339 -0.837665 1.93769 0
M  V30 5549 O 528.687 -1.74507 1.47511 0
M  V30 5550 C 528.897 1.375 3.20772 0
M  V30 5551 C 530.245 1.51545 3.96635 0
M  V30 5552 O 531.269 1.33431 3.30264 0
M  V30 5553 O 530.128 1.812 5.15586 0
M  V30 5554 H 527.222 0.240412 0.791285 0
M  V30 5555 H 529.768 1.15545 1.24288 0
M  V30 5556 H 528.54 2.41135 3.08171 0
M  V30 5557 H 528.163 0.890798 3.87493 0
M  V30 5558 N 529.16 -1.33526 0.837174 0
M  V30 5559 C 530.092 -2.28077 0.226579 0
M  V30 5560 C 531.105 -1.51666 -0.591717 0
M  V30 5561 O 532.294 -1.73511 -0.419064 0
M  V30 5562 C 529.394 -3.31597 -0.69978 0
M  V30 5563 C 528.567 -4.37329 0.0788067 0
M  V30 5564 C 527.626 -5.20526 -0.770637 0
M  V30 5565 O 526.652 -5.68811 -0.210453 0
M  V30 5566 N 527.854 -5.41639 -2.08825 0
M  V30 5567 H 530.619 -2.81115 1.03897 0
M  V30 5568 H 528.18 -1.46201 0.695476 0
M  V30 5569 H 530.172 -3.84158 -1.27298 0
M  V30 5570 H 528.742 -2.78848 -1.41288 0
M  V30 5571 H 527.962 -3.8529 0.833381 0
M  V30 5572 H 529.25 -5.05079 0.614238 0
M  V30 5573 H 528.648 -5.04108 -2.56693 0
M  V30 5574 H 527.205 -5.97263 -2.60998 0
M  V30 5575 N 530.638 -0.59345 -1.46 0
M  V30 5576 C 531.866 -0.0890934 -2.06708 0
M  V30 5577 C 532.281 1.2205 -1.44046 0
M  V30 5578 O 531.638 1.74029 -0.549551 0
M  V30 5579 C 531.689 0.0720263 -3.61428 0
M  V30 5580 O 531.41 -1.18574 -4.21748 0
M  V30 5581 C 532.911 0.609487 -4.3909 0
M  V30 5582 H 530.131 -0.0623628 -0.668096 0
M  V30 5583 H 532.675 -0.817171 -1.87464 0
M  V30 5584 H 530.83 0.750369 -3.80063 0
M  V30 5585 H 531.244 -1.0064 -5.14754 0
M  V30 5586 H 532.718 0.671363 -5.47902 0
M  V30 5587 H 533.195 1.62878 -4.07882 0
M  V30 5588 H 533.801 -0.03434 -4.25286 0
M  V30 5589 N 532.116 1.54067 -0.331816 0
M  V30 5590 C 533.064 2.26105 0.54582 0
M  V30 5591 C 534.058 1.27816 1.11173 0
M  V30 5592 O 535.264 1.45565 1.05882 0
M  V30 5593 H 531.639 0.726363 0.194683 0
M  V30 5594 H 533.61 2.98282 -0.083931 0
M  V30 5595 C 532.359 3.03814 1.69092 0
M  V30 5596 H 531.682 3.79269 1.26473 0
M  V30 5597 H 533.122 3.57453 2.28043 0
M  V30 5598 C 531.581 2.12606 2.61343 0
M  V30 5599 O 532.111 1.71437 3.6328 0
M  V30 5600 N 530.317 1.77925 2.29763 0
M  V30 5601 H 529.864 2.11602 1.46909 0
M  V30 5602 H 529.822 1.1718 2.91747 0
M  V30 5603 N 533.594 0.0601682 1.57485 0
M  V30 5604 C 534.504 -0.926121 2.15546 0
M  V30 5605 C 535.52 -1.33532 1.11558 0
M  V30 5606 O 536.696 -1.4104 1.4377 0
M  V30 5607 C 533.761 -2.17952 2.69625 0
M  V30 5608 C 532.822 -1.82783 3.88444 0
M  V30 5609 C 532.055 -3.02148 4.39935 0
M  V30 5610 O 532.278 -4.15803 3.90466 0
M  V30 5611 O 531.212 -2.82639 5.31412 0
M  V30 5612 H 535.038 -0.462289 3.00161 0
M  V30 5613 H 532.623 -0.162246 1.48516 0
M  V30 5614 H 534.505 -2.91474 3.04337 0
M  V30 5615 H 533.18 -2.63456 1.88077 0
M  V30 5616 H 532.087 -1.06549 3.58606 0
M  V30 5617 H 533.42 -1.42072 4.7125 0
M  V30 5618 N 535.072 -1.5615 -0.213296 0
M  V30 5619 C 536.32 -1.79191 -0.934612 0
M  V30 5620 C 536.641 -0.630112 -1.84539 0
M  V30 5621 O 535.911 0.35257 -1.92701 0
M  V30 5622 H 534.491 -0.660937 -0.348097 0
M  V30 5623 H 537.153 -1.93618 -0.22317 0
M  V30 5624 H 536.249 -2.71656 -1.53654 0
M  V30 5625 N 536.55 0.480323 -1.50102 0
M  V30 5626 C 537.799 1.22979 -1.59872 0
M  V30 5627 C 538.112 1.93282 -0.30022 0
M  V30 5628 O 539.318 2.70086 -0.276709 0
M  V30 5629 C 537.774 2.23408 -2.82164 0
M  V30 5630 C 537.382 1.5895 -4.18854 0
M  V30 5631 C 539.126 2.99055 -3.01275 0
M  V30 5632 C 537.033 2.57611 -5.32344 0
M  V30 5633 H 535.963 0.462707 -0.59533 0
M  V30 5634 H 538.614 0.501291 -1.7652 0
M  V30 5635 H 536.996 2.99511 -2.59055 0
M  V30 5636 H 538.17 0.887 -4.52182 0
M  V30 5637 H 536.485 0.956191 -4.05273 0
M  V30 5638 H 539.082 3.72876 -3.83233 0
M  V30 5639 H 539.425 3.57897 -2.12639 0
M  V30 5640 H 539.958 2.30066 -3.24522 0
M  V30 5641 H 536.697 2.03521 -6.23105 0
M  V30 5642 H 536.217 3.26041 -5.03445 0
M  V30 5643 H 537.896 3.19627 -5.62537 0
M  V30 5644 N 538.028 1.39524 0.732853 0
M  V30 5645 C 538.961 1.32806 1.85574 0
M  V30 5646 C 539.939 0.201354 1.61348 0
M  V30 5647 O 541.123 0.38216 1.84585 0
M  V30 5648 C 538.25 1.06271 3.21596 0
M  V30 5649 C 537.296 2.21161 3.64678 0
M  V30 5650 S 538.129 3.83454 3.73796 0
M  V30 5651 C 539.285 3.59149 5.12604 0
M  V30 5652 H 539.518 2.27838 1.9099 0
M  V30 5653 H 537.051 1.25605 0.897927 0
M  V30 5654 H 539.009 0.916461 4.00139 0
M  V30 5655 H 537.67 0.129223 3.13834 0
M  V30 5656 H 536.863 1.98193 4.63396 0
M  V30 5657 H 536.465 2.32 2.93346 0
M  V30 5658 H 538.757 3.16547 5.99003 0
M  V30 5659 H 539.7 4.57335 5.40602 0
M  V30 5660 H 540.108 2.93203 4.82382 0
M  V30 5661 N 539.506 -0.963266 1.24736 0
M  V30 5662 C 540.456 -2.0438 1.01058 0
M  V30 5663 C 541.44 -1.60824 -0.0495354 0
M  V30 5664 O 542.632 -1.76232 0.164741 0
M  V30 5665 C 539.761 -3.37617 0.622067 0
M  V30 5666 C 538.847 -3.87722 1.7185 0
M  V30 5667 N 539.238 -4.10715 2.95207 0
M  V30 5668 C 537.536 -4.16426 1.59703 0
M  V30 5669 C 538.237 -4.51872 3.66315 0
M  V30 5670 N 537.213 -4.57302 2.93897 0
M  V30 5671 H 541.015 -2.20138 1.94721 0
M  V30 5672 H 538.529 -1.14741 1.14927 0
M  V30 5673 H 540.526 -4.14638 0.43366 0
M  V30 5674 H 539.186 -3.23242 -0.307327 0
M  V30 5675 H 540.197 -3.98037 3.31341 0
M  V30 5676 H 536.874 -4.10962 0.73598 0
M  V30 5677 H 538.264 -4.78037 4.72155 0
M  V30 5678 N 540.985 -1.06182 -1.16461 0
M  V30 5679 C 541.895 -0.682671 -2.24448 0
M  V30 5680 C 542.911 0.30078 -1.71381 0
M  V30 5681 O 544.087 0.150376 -2.00838 0
M  V30 5682 C 541.152 -0.0737202 -3.46622 0
M  V30 5683 C 540.213 -1.10889 -4.14731 0
M  V30 5684 C 539.446 -0.528908 -5.31073 0
M  V30 5685 O 539.669 0.65868 -5.66584 0
M  V30 5686 O 538.603 -1.26805 -5.88391 0
M  V30 5687 H 542.429 -1.58291 -2.59187 0
M  V30 5688 H 540.014 -0.834013 -1.23954 0
M  V30 5689 H 541.896 0.264192 -4.20571 0
M  V30 5690 H 540.571 0.800015 -3.13658 0
M  V30 5691 H 539.478 -1.49896 -3.42756 0
M  V30 5692 H 540.811 -1.95412 -4.51747 0
M  V30 5693 N 542.463 1.3308 -0.844243 0
M  V30 5694 C 543.688 2.02341 -0.455282 0
M  V30 5695 C 544.113 1.6308 0.93737 0
M  V30 5696 O 543.471 0.826118 1.61385 0
M  V30 5697 C 543.519 3.55743 -0.58988 0
M  V30 5698 O 542.623 4.1063 0.38166 0
M  V30 5699 H 541.964 0.637898 -0.184343 0
M  V30 5700 H 544.494 1.6986 -1.14056 0
M  V30 5701 H 544.504 4.05243 -0.473522 0
M  V30 5702 H 543.179 3.83662 -1.60549 0
M  V30 5703 H 541.756 3.72236 0.22241 0
M  V30 5704 N 543.941 0.601185 1.45683 0
M  V30 5705 C 544.888 -0.121396 2.30481 0
M  V30 5706 C 545.858 -0.866232 1.41724 0
M  V30 5707 O 547.043 -0.85324 1.70659 0
M  V30 5708 C 544.183 -1.11704 3.26521 0
M  V30 5709 C 543.296 -0.373741 4.3038 0
M  V30 5710 C 542.431 -1.35854 5.13534 0
M  V30 5711 C 541.47 -0.602689 6.09126 0
M  V30 5712 N 540.607 -1.53645 6.85082 0
M  V30 5713 H 545.447 0.607732 2.91737 0
M  V30 5714 H 542.984 0.311502 1.43764 0
M  V30 5715 H 544.942 -1.70735 3.80664 0
M  V30 5716 H 543.572 -1.81366 2.67032 0
M  V30 5717 H 542.624 0.331962 3.78949 0
M  V30 5718 H 543.936 0.2163 4.98331 0
M  V30 5719 H 543.09 -2.02111 5.72046 0
M  V30 5720 H 541.829 -1.98251 4.45587 0
M  V30 5721 H 540.834 0.0735482 5.49751 0
M  V30 5722 H 542.059 0.0161467 6.79098 0
M  V30 5723 H 540.005 -2.14819 6.1983 0
M  V30 5724 H 539.922 -0.999688 7.49361 0
M  V30 5725 H 541.19 -2.1888 7.48139 0
M  V30 5726 N 545.419 -1.53889 0.339982 0
M  V30 5727 C 546.83 -1.86139 -0.144671 0
M  V30 5728 C 547.181 -1.2613 -1.50285 0
M  V30 5729 O 546.306 -0.573515 -2.08662 0
M  V30 5730 C 546.901 -3.37728 -0.269285 0
M  V30 5731 C 545.46 -3.69868 -0.698168 0
M  V30 5732 C 544.607 -2.76777 0.170249 0
M  V30 5733 H 547.558 -1.48503 0.559704 0
M  V30 5734 H 547.579 -3.64331 -1.0974 0
M  V30 5735 H 547.091 -3.81375 0.719366 0
M  V30 5736 H 545.192 -3.31764 -1.69597 0
M  V30 5737 H 545.305 -4.76582 -0.490533 0
M  V30 5738 H 543.669 -2.52188 -0.356844 0
M  V30 5739 H 544.452 -3.23253 1.15597 0
M  V30 5740 N 546.897 -0.0685191 -1.57451 0
M  V30 5741 C 548.144 0.601348 -1.93365 0
M  V30 5742 C 548.472 1.69816 -0.948294 0
M  V30 5743 O 547.727 1.95666 0.0366199 0
M  V30 5744 C 548.026 1.22051 -3.35914 0
M  V30 5745 C 547.692 0.250165 -4.50205 0
M  V30 5746 C 546.354 -0.0167954 -4.81197 0
M  V30 5747 C 548.706 -0.413867 -5.19554 0
M  V30 5748 C 546.034 -0.95493 -5.78876 0
M  V30 5749 C 548.386 -1.3403 -6.18238 0
M  V30 5750 C 547.05 -1.61576 -6.47649 0
M  V30 5751 H 546.32 0.220049 -0.707573 0
M  V30 5752 H 548.967 -0.138697 -1.90997 0
M  V30 5753 H 547.272 2.03622 -3.34732 0
M  V30 5754 H 548.969 1.74605 -3.6099 0
M  V30 5755 H 545.559 0.468421 -4.26033 0
M  V30 5756 H 549.743 -0.220733 -4.95809 0
M  V30 5757 H 544.999 -1.17563 -5.99991 0
M  V30 5758 H 549.173 -1.86081 -6.71079 0
M  V30 5759 H 546.8 -2.34431 -7.2315 0
M  V30 5760 N 548.375 1.56261 0.205012 0
M  V30 5761 C 549.622 1.8004 0.926927 0
M  V30 5762 C 549.95 0.640086 1.83666 0
M  V30 5763 O 549.205 -0.374702 1.92079 0
M  V30 5764 C 549.504 3.09722 1.78345 0
M  V30 5765 C 549.17 4.39082 1.02555 0
M  V30 5766 C 547.832 4.74226 0.816256 0
M  V30 5767 C 550.184 5.18877 0.491559 0
M  V30 5768 C 547.512 5.86668 0.0613287 0
M  V30 5769 C 549.864 6.32105 -0.250107 0
M  V30 5770 C 548.528 6.6584 -0.470508 0
M  V30 5771 H 547.798 0.658812 0.339187 0
M  V30 5772 H 550.445 1.90515 0.19395 0
M  V30 5773 H 548.75 2.9444 2.5848 0
M  V30 5774 H 550.447 3.25324 2.34446 0
M  V30 5775 H 547.037 4.11497 1.19868 0
M  V30 5776 H 551.221 4.92147 0.640684 0
M  V30 5777 H 546.477 6.11283 -0.119501 0
M  V30 5778 H 550.651 6.93157 -0.671307 0
M  V30 5779 H 548.278 7.5281 -1.05739 0
M  V30 5780 N 549.853 -0.472356 1.50355 0
M  V30 5781 C 550.816 -1.5529 1.68576 0
M  V30 5782 C 551.816 -1.50863 0.556511 0
M  V30 5783 O 553.006 -1.53505 0.823516 0
M  V30 5784 C 550.138 -2.94921 1.70981 0
M  V30 5785 H 551.331 -1.40451 2.64978 0
M  V30 5786 H 548.884 -0.698645 1.39816 0
M  V30 5787 H 549.619 -3.15204 0.762675 0
M  V30 5788 H 549.404 -2.99541 2.53017 0
M  V30 5789 H 550.894 -3.73372 1.87037 0
M  V30 5790 N 551.331 -1.39911 -0.725443 0
M  V30 5791 C 552.577 -1.37858 -1.48738 0
M  V30 5792 C 552.91 0.0224187 -1.94187 0
M  V30 5793 O 552.185 0.989204 -1.67466 0
M  V30 5794 C 552.468 -2.3594 -2.72038 0
M  V30 5795 C 552.321 -3.85023 -2.32546 0
M  V30 5796 C 553.64 -2.31704 -3.74167 0
M  V30 5797 H 550.759 -0.502074 -0.539528 0
M  V30 5798 H 553.401 -1.70974 -0.828728 0
M  V30 5799 H 551.551 -2.0783 -3.28236 0
M  V30 5800 H 553.223 -4.2392 -1.81905 0
M  V30 5801 H 551.466 -4.01334 -1.64661 0
M  V30 5802 H 552.137 -4.49152 -3.20884 0
M  V30 5803 H 554.613 -2.5658 -3.27576 0
M  V30 5804 H 553.489 -3.02395 -4.58092 0
M  V30 5805 H 553.75 -1.3253 -4.21768 0
M  V30 5806 N 552.809 0.956637 -1.25245 0
M  V30 5807 C 553.741 2.05628 -1.01242 0
M  V30 5808 C 554.754 1.62785 0.0219579 0
M  V30 5809 O 555.943 1.77184 -0.216365 0
M  V30 5810 C 553.043 3.35069 -0.508161 0
M  V30 5811 C 552.216 4.06761 -1.60823 0
M  V30 5812 C 551.275 5.14473 -1.1047 0
M  V30 5813 O 550.301 5.40033 -1.79868 0
M  V30 5814 N 551.503 5.80474 0.0550773 0
M  V30 5815 H 554.268 2.2679 -1.95925 0
M  V30 5816 H 551.829 1.12505 -1.16423 0
M  V30 5817 H 553.821 4.044 -0.155819 0
M  V30 5818 H 552.391 3.10694 0.344683 0
M  V30 5819 H 551.611 3.31555 -2.13224 0
M  V30 5820 H 552.899 4.51418 -2.34733 0
M  V30 5821 H 552.297 5.62125 0.635004 0
M  V30 5822 H 550.854 6.50868 0.348469 0
M  V30 5823 N 554.287 1.06798 1.15896 0
M  V30 5824 C 555.534 0.787767 1.86549 0
M  V30 5825 C 555.862 -0.685959 1.82002 0
M  V30 5826 O 555.117 -1.5188 1.23414 0
M  V30 5827 C 555.416 1.23414 3.35416 0
M  V30 5828 C 555.082 2.71285 3.6016 0
M  V30 5829 C 553.744 3.11676 3.66622 0
M  V30 5830 C 556.096 3.6676 3.7032 0
M  V30 5831 C 553.424 4.4637 3.8075 0
M  V30 5832 C 555.776 5.01209 3.8597 0
M  V30 5833 C 554.44 5.41229 3.90676 0
M  V30 5834 H 553.71 0.288264 0.682631 0
M  V30 5835 H 556.357 1.338 1.37003 0
M  V30 5836 H 554.662 0.60319 3.87129 0
M  V30 5837 H 556.359 0.994298 3.88477 0
M  V30 5838 H 552.949 2.39015 3.55767 0
M  V30 5839 H 557.133 3.36685 3.64633 0
M  V30 5840 H 552.389 4.76855 3.82648 0
M  V30 5841 H 556.563 5.75067 3.92773 0
M  V30 5842 H 554.19 6.45602 4.01375 0
M  V30 5843 N 555.766 -1.3263 0.851289 0
M  V30 5844 C 556.716 -2.26451 0.265302 0
M  V30 5845 C 557.7 -1.49814 -0.586899 0
M  V30 5846 O 558.892 -1.71525 -0.436834 0
M  V30 5847 C 556.021 -3.38895 -0.548212 0
M  V30 5848 C 555.107 -4.2292 0.316189 0
M  V30 5849 N 555.498 -4.86014 1.40084 0
M  V30 5850 C 553.796 -4.45876 0.105356 0
M  V30 5851 C 554.497 -5.48667 1.93235 0
M  V30 5852 N 553.473 -5.29455 1.232 0
M  V30 5853 H 557.275 -2.72757 1.09457 0
M  V30 5854 H 554.789 -1.4668 0.697047 0
M  V30 5855 H 556.786 -4.05111 -0.984402 0
M  V30 5856 H 555.446 -2.94135 -1.37531 0
M  V30 5857 H 556.457 -4.86212 1.78377 0
M  V30 5858 H 553.134 -4.11804 -0.687299 0
M  V30 5859 H 554.524 -6.08865 2.84135 0
M  V30 5860 N 557.244 -0.608902 -1.45362 0
M  V30 5861 C 558.655 -0.189511 -1.85736 0
M  V30 5862 C 559.006 1.2539 -1.50903 0
M  V30 5863 O 558.131 1.95094 -0.936347 0
M  V30 5864 C 558.726 -0.33716 -3.37118 0
M  V30 5865 C 557.285 0.0275487 -3.7639 0
M  V30 5866 C 556.432 -0.660983 -2.69307 0
M  V30 5867 H 559.383 -0.815499 -1.36144 0
M  V30 5868 H 559.404 0.430257 -3.7806 0
M  V30 5869 H 558.916 -1.38779 -3.62439 0
M  V30 5870 H 557.017 1.0773 -3.56686 0
M  V30 5871 H 557.13 -0.367018 -4.77692 0
M  V30 5872 H 555.494 -0.0984958 -2.54509 0
M  V30 5873 H 556.277 -1.71377 -2.97464 0
M  V30 5874 N 558.722 1.53707 -0.348139 0
M  V30 5875 C 559.632 2.28881 0.514857 0
M  V30 5876 C 560.648 1.34168 1.10793 0
M  V30 5877 O 561.824 1.6721 1.12262 0
M  V30 5878 C 558.889 3.05042 1.64774 0
M  V30 5879 C 557.95 4.15389 1.08398 0
M  V30 5880 C 557.183 4.87909 2.16287 0
M  V30 5881 O 557.406 4.60137 3.3709 0
M  V30 5882 O 556.34 5.74254 1.80323 0
M  V30 5883 H 560.166 3.03547 -0.0963699 0
M  V30 5884 H 557.751 1.48972 -0.113043 0
M  V30 5885 H 559.633 3.52656 2.30677 0
M  V30 5886 H 558.308 2.33228 2.24469 0
M  V30 5887 H 557.215 3.72068 0.389341 0
M  V30 5888 H 558.548 4.89318 0.531829 0
M  V30 5889 N 560.2 0.0768682 1.57412 0
M  V30 5890 C 561.446 -0.591961 1.93968 0
M  V30 5891 C 561.779 -1.68954 0.9575 0
M  V30 5892 O 561.054 -1.94496 -0.0124675 0
M  V30 5893 C 561.337 -1.16418 3.40762 0
M  V30 5894 C 561.19 -0.0728933 4.49741 0
M  V30 5895 C 562.509 -2.06814 3.88479 0
M  V30 5896 H 559.628 -0.213716 0.705333 0
M  V30 5897 H 562.27 0.14387 1.89455 0
M  V30 5898 H 560.42 -1.79128 3.4474 0
M  V30 5899 H 562.092 0.560446 4.57883 0
M  V30 5900 H 560.335 0.595859 4.29688 0
M  V30 5901 H 561.006 -0.513755 5.49604 0
M  V30 5902 H 563.482 -1.54033 3.8654 0
M  V30 5903 H 562.358 -2.43785 4.91793 0
M  V30 5904 H 562.619 -2.97844 3.26713 0
M  V30 5905 N 561.678 -1.56367 -0.196722 0
M  V30 5906 C 562.906 -1.84639 -0.933608 0
M  V30 5907 C 563.321 -0.659164 -1.76919 0
M  V30 5908 O 562.678 0.372142 -1.78665 0
M  V30 5909 C 562.729 -3.11694 -1.83109 0
M  V30 5910 O 562.45 -4.25838 -1.02924 0
M  V30 5911 C 563.951 -3.53132 -2.67979 0
M  V30 5912 H 561.171 -0.613188 -0.272473 0
M  V30 5913 H 563.715 -2.03475 -0.204465 0
M  V30 5914 H 561.87 -2.94759 -2.51387 0
M  V30 5915 H 562.284 -4.98178 -1.64069 0
M  V30 5916 H 563.758 -4.45005 -3.26611 0
M  V30 5917 H 564.235 -2.76045 -3.41608 0
M  V30 5918 H 564.841 -3.72592 -2.05074 0
M  V30 5919 N 563.156 0.464375 -1.50603 0
M  V30 5920 C 564.567 1.04507 -1.5471 0
M  V30 5921 C 564.918 1.9297 -0.354542 0
M  V30 5922 O 564.043 2.09763 0.531812 0
M  V30 5923 C 564.638 1.90207 -2.80369 0
M  V30 5924 C 563.197 2.43373 -2.87135 0
M  V30 5925 C 562.344 1.21886 -2.49076 0
M  V30 5926 H 565.295 0.246716 -1.56771 0
M  V30 5927 H 565.316 2.75353 -2.62604 0
M  V30 5928 H 564.828 1.25796 -3.67147 0
M  V30 5929 H 562.929 3.11318 -2.04724 0
M  V30 5930 H 563.042 2.7802 -3.90181 0
M  V30 5931 H 561.406 1.55575 -2.01664 0
M  V30 5932 H 562.189 0.591268 -3.3817 0
M  V30 5933 N 564.634 1.40294 0.718013 0
M  V30 5934 C 565.882 1.38167 1.47494 0
M  V30 5935 C 566.203 -0.01607 1.94993 0
M  V30 5936 O 565.473 -0.970396 1.70177 0
M  V30 5937 H 564.053 0.508505 0.547203 0
M  V30 5938 H 566.715 1.75324 0.851322 0
M  V30 5939 H 565.811 2.05503 2.34894 0
M  V30 5940 N 566.112 -0.949982 1.2575 0
M  V30 5941 C 567.523 -1.50989 1.09815 0
M  V30 5942 C 567.874 -1.93497 -0.324556 0
M  V30 5943 O 566.999 -1.79068 -1.21506 0
M  V30 5944 C 567.594 -2.74394 1.98729 0
M  V30 5945 C 566.153 -3.26682 1.86965 0
M  V30 5946 C 565.3 -1.99498 1.92603 0
M  V30 5947 H 568.251 -0.766387 1.38968 0
M  V30 5948 H 568.272 -3.48383 1.53001 0
M  V30 5949 H 567.784 -2.43425 3.02268 0
M  V30 5950 H 565.885 -3.62461 0.863279 0
M  V30 5951 H 565.998 -3.94383 2.72027 0
M  V30 5952 H 564.362 -2.15005 1.36546 0
M  V30 5953 H 565.145 -1.70871 2.97755 0
M  V30 5954 N 567.59 -1.07411 -1.15328 0
M  V30 5955 C 568.839 -0.792643 -1.85473 0
M  V30 5956 C 569.152 0.683789 -1.83259 0
M  V30 5957 O 570.358 1.08005 -2.49093 0
M  V30 5958 C 568.814 -1.36787 -3.32892 0
M  V30 5959 C 568.422 -2.87536 -3.43551 0
M  V30 5960 C 570.166 -1.16444 -4.08217 0
M  V30 5961 C 568.073 -3.38247 -4.85122 0
M  V30 5962 H 567.003 -0.292838 -0.694811 0
M  V30 5963 H 569.654 -1.29426 -1.30082 0
M  V30 5964 H 568.036 -0.793993 -3.87958 0
M  V30 5965 H 569.21 -3.50973 -2.98588 0
M  V30 5966 H 567.525 -3.06676 -2.81672 0
M  V30 5967 H 570.122 -1.51808 -5.12697 0
M  V30 5968 H 570.465 -0.10353 -4.16171 0
M  V30 5969 H 570.998 -1.70472 -3.59422 0
M  V30 5970 H 567.737 -4.43866 -4.82351 0
M  V30 5971 H 567.257 -2.79564 -5.30664 0
M  V30 5972 H 568.936 -3.34238 -5.5398 0
M  V30 5973 N 569.068 1.32177 -0.85831 0
M  V30 5974 C 570.345 1.91781 -0.384624 0
M  V30 5975 C 570.725 1.78171 1.13217 0
M  V30 5976 O 570.073 1.18209 1.95548 0
M  V30 5977 C 570.283 3.38414 -0.853047 0
M  V30 5978 C 571.631 4.15542 -0.872359 0
M  V30 5979 O 572.655 3.47148 -0.797926 0
M  V30 5980 O 571.514 5.37678 -0.978009 0
M  V30 5981 H 568.608 0.819259 -0.112886 0
M  V30 5982 H 571.154 1.40923 -0.945453 0
M  V30 5983 H 569.926 3.4228 -1.89632 0
M  V30 5984 H 569.549 3.96683 -0.269874 0
M  V30 5985 N 570.547 0.616602 1.45037 0
M  V30 5986 C 571.775 0.121968 2.0654 0
M  V30 5987 C 572.19 -1.19743 1.45969 0
M  V30 5988 O 571.547 -1.73133 0.577168 0
M  V30 5989 C 571.598 -0.0145171 3.61497 0
M  V30 5990 O 571.319 1.25269 4.19809 0
M  V30 5991 C 572.82 -0.539555 4.40004 0
M  V30 5992 H 570.04 0.0729837 0.667019 0
M  V30 5993 H 572.584 0.846891 1.8614 0
M  V30 5994 H 570.739 -0.689809 3.81209 0
M  V30 5995 H 571.153 1.08816 5.13088 0
M  V30 5996 H 572.627 -0.584112 5.48901 0
M  V30 5997 H 573.104 -1.56368 4.10421 0
M  V30 5998 H 573.71 0.101995 4.25178 0
M  V30 5999 N 572.025 -1.5352 0.356285 0
M  V30 6000 C 572.935 -2.29151 -0.502712 0
M  V30 6001 C 573.951 -1.34753 -1.1008 0
M  V30 6002 O 575.127 -1.67803 -1.11374 0
M  V30 6003 C 572.192 -3.05911 -1.63154 0
M  V30 6004 C 571.253 -4.15958 -1.06194 0
M  V30 6005 C 570.486 -4.8905 -2.13696 0
M  V30 6006 O 570.709 -4.61919 -3.34645 0
M  V30 6007 O 569.643 -5.75202 -1.77275 0
M  V30 6008 H 573.469 -3.03492 0.112466 0
M  V30 6009 H 571.054 -1.4891 0.120942 0
M  V30 6010 H 572.936 -3.53874 -2.28804 0
M  V30 6011 H 571.611 -2.34415 -2.23229 0
M  V30 6012 H 570.518 -3.7227 -0.369603 0
M  V30 6013 H 571.851 -4.89593 -0.505872 0
M  V30 6014 N 573.503 -0.0852151 -1.57369 0
M  V30 6015 C 574.733 0.588605 -1.98038 0
M  V30 6016 C 575.141 1.62869 -0.962817 0
M  V30 6017 O 574.484 1.83611 0.057134 0
M  V30 6018 C 574.546 1.30303 -3.35054 0
M  V30 6019 C 574.21 0.414855 -4.55113 0
M  V30 6020 C 575.207 -0.333011 -5.18832 0
M  V30 6021 C 572.892 0.335804 -5.01176 0
M  V30 6022 C 574.886 -1.14801 -6.26976 0
M  V30 6023 C 572.573 -0.482857 -6.09189 0
M  V30 6024 C 573.571 -1.22342 -6.71953 0
M  V30 6025 O 573.259 -2.02855 -7.77885 0
M  V30 6026 H 572.991 0.163249 -0.655992 0
M  V30 6027 H 575.545 -0.1582 -2.0479 0
M  V30 6028 H 573.775 2.0962 -3.24956 0
M  V30 6029 H 575.464 1.87041 -3.60237 0
M  V30 6030 H 576.23 -0.281611 -4.84182 0
M  V30 6031 H 572.109 0.901869 -4.52092 0
M  V30 6032 H 575.653 -1.72654 -6.75897 0
M  V30 6033 H 571.55 -0.535773 -6.43273 0
M  V30 6034 H 572.318 -1.95432 -7.94826 0
M  V30 6035 N 574.981 1.5647 0.188427 0
M  V30 6036 C 575.911 1.98101 1.23606 0
M  V30 6037 C 576.892 0.853961 1.47111 0
M  V30 6038 O 578.077 1.11879 1.58735 0
M  V30 6039 C 575.207 2.32624 2.57882 0
M  V30 6040 C 574.161 3.48129 2.48978 0
M  V30 6041 C 573.487 3.68347 3.87588 0
M  V30 6042 C 574.787 4.82112 2.00911 0
M  V30 6043 H 576.481 2.85864 0.890068 0
M  V30 6044 H 574.027 1.37532 0.426714 0
M  V30 6045 H 575.98 2.60343 3.3136 0
M  V30 6046 H 574.704 1.41751 2.94235 0
M  V30 6047 H 573.363 3.20511 1.77956 0
M  V30 6048 H 573.011 2.74793 4.21305 0
M  V30 6049 H 572.711 4.46055 3.82503 0
M  V30 6050 H 574.235 3.98449 4.62678 0
M  V30 6051 H 575.649 5.08819 2.64151 0
M  V30 6052 H 574.046 5.63337 2.06814 0
M  V30 6053 H 575.116 4.75249 0.96262 0
M  V30 6054 N 576.459 -0.456382 1.50847 0
M  V30 6055 C 577.706 -1.20736 1.62571 0
M  V30 6056 C 578.034 -1.9163 0.332904 0
M  V30 6057 O 577.289 -1.8343 -0.682058 0
M  V30 6058 C 577.588 -2.26336 2.76599 0
M  V30 6059 C 577.254 -1.7259 4.16562 0
M  V30 6060 C 575.916 -1.57654 4.54641 0
M  V30 6061 C 578.268 -1.32877 5.03977 0
M  V30 6062 C 575.596 -1.0145 5.77862 0
M  V30 6063 C 577.948 -0.7811 6.27759 0
M  V30 6064 C 576.612 -0.618488 6.64628 0
M  V30 6065 H 575.882 -0.441803 0.594888 0
M  V30 6066 H 578.529 -0.501169 1.84826 0
M  V30 6067 H 576.834 -3.0292 2.48489 0
M  V30 6068 H 578.531 -2.84227 2.82871 0
M  V30 6069 H 575.121 -1.85187 3.86528 0
M  V30 6070 H 579.305 -1.43245 4.75179 0
M  V30 6071 H 574.561 -0.876109 6.0509 0
M  V30 6072 H 578.735 -0.464783 6.94847 0
M  V30 6073 H 576.362 -0.180838 7.59985 0
M  V30 6074 N 577.937 -1.40673 -0.710563 0
M  V30 6075 C 579.214 -1.29718 -1.46398 0
M  V30 6076 C 579.594 0.082177 -2.1094 0
M  V30 6077 O 578.942 1.09536 -2.00534 0
M  V30 6078 C 579.152 -2.43967 -2.49562 0
M  V30 6079 C 580.5 -2.84436 -3.15248 0
M  V30 6080 O 581.524 -2.43597 -2.59883 0
M  V30 6081 O 580.383 -3.55008 -4.1549 0
M  V30 6082 H 577.477 -0.509697 -0.651258 0
M  V30 6083 H 580.023 -1.52603 -0.742312 0
M  V30 6084 H 578.795 -3.36076 -2.0042 0
M  V30 6085 H 578.418 -2.22879 -3.29258 0
M  V30 6086 N 579.415 0.9433 -1.26252 0
M  V30 6087 C 580.64 1.72898 -1.14547 0
M  V30 6088 C 581.065 1.85761 0.295743 0
M  V30 6089 O 580.423 1.3463 1.21427 0
M  V30 6090 C 580.471 3.11471 -1.8171 0
M  V30 6091 O 579.575 3.97336 -1.10445 0
M  V30 6092 H 578.916 0.530555 -0.399259 0
M  V30 6093 H 581.446 1.18159 -1.67032 0
M  V30 6094 H 581.456 3.61872 -1.88449 0
M  V30 6095 H 580.131 3.01425 -2.86558 0
M  V30 6096 H 578.708 3.55788 -1.11666 0
M  V30 6097 N 580.893 1.08022 1.14757 0
M  V30 6098 C 582.14 0.807509 1.85703 0
M  V30 6099 C 582.468 -0.666617 1.8272 0
M  V30 6100 O 581.723 -1.50562 1.25018 0
M  V30 6101 C 582.022 1.26964 3.34088 0
M  V30 6102 C 581.688 2.7509 3.57262 0
M  V30 6103 C 580.35 3.15547 3.63296 0
M  V30 6104 C 582.702 3.70667 3.66409 0
M  V30 6105 C 580.03 4.50384 3.75994 0
M  V30 6106 C 582.382 5.05274 3.80632 0
M  V30 6107 C 581.046 5.45342 3.84913 0
M  V30 6108 H 580.316 0.295488 0.679535 0
M  V30 6109 H 582.963 1.35245 1.35577 0
M  V30 6110 H 581.268 0.644216 3.86467 0
M  V30 6111 H 582.965 1.03544 3.87401 0
M  V30 6112 H 579.555 2.42775 3.53212 0
M  V30 6113 H 583.739 3.40533 3.61041 0
M  V30 6114 H 578.995 4.80886 3.77569 0
M  V30 6115 H 583.169 5.79201 3.86652 0
M  V30 6116 H 580.796 6.49823 3.94505 0
M  V30 6117 N 582.371 -1.3172 0.865308 0
M  V30 6118 C 583.618 -1.96876 0.473931 0
M  V30 6119 C 583.946 -1.68425 -0.972786 0
M  V30 6120 O 583.201 -0.970742 -1.69927 0
M  V30 6121 C 583.5 -3.5102 0.672283 0
M  V30 6122 C 583.166 -3.9948 2.09108 0
M  V30 6123 C 581.828 -4.12425 2.4791 0
M  V30 6124 C 584.18 -4.2503 3.0166 0
M  V30 6125 C 581.508 -4.48267 3.78515 0
M  V30 6126 C 583.86 -4.62335 4.31774 0
M  V30 6127 C 582.524 -4.73486 4.70497 0
M  V30 6128 H 581.794 -0.72042 0.173424 0
M  V30 6129 H 584.441 -1.56937 1.0974 0
M  V30 6130 H 582.746 -3.91785 -0.034356 0
M  V30 6131 H 584.443 -3.99475 0.349353 0
M  V30 6132 H 581.033 -3.89898 1.77981 0
M  V30 6133 H 585.217 -4.14529 2.7291 0
M  V30 6134 H 580.473 -4.55097 4.08285 0
M  V30 6135 H 584.647 -4.81058 5.03543 0
M  V30 6136 H 582.274 -5.01016 5.71741 0
M  V30 6137 N 583.85 -0.624285 -1.44708 0
M  V30 6138 C 585.075 -0.131171 -2.06985 0
M  V30 6139 C 585.5 1.18234 -1.46295 0
M  V30 6140 O 584.858 1.72375 -0.561842 0
M  V30 6141 C 584.906 -0.0226724 -3.60593 0
M  V30 6142 O 584.01 1.02314 -3.99507 0
M  V30 6143 H 583.351 -0.0816556 -0.65896 0
M  V30 6144 H 585.88 -0.859027 -1.85693 0
M  V30 6145 H 585.891 0.170138 -4.07645 0
M  V30 6146 H 584.566 -0.981685 -4.04148 0
M  V30 6147 H 583.143 0.805452 -3.64097 0
M  V30 6148 N 585.328 1.53329 -0.364422 0
M  V30 6149 C 586.258 2.28627 0.474543 0
M  V30 6150 C 587.239 1.31009 1.08492 0
M  V30 6151 O 588.424 1.59878 1.10239 0
M  V30 6152 C 585.554 3.07465 1.61501 0
M  V30 6153 C 584.508 4.1276 1.13194 0
M  V30 6154 C 583.834 4.79674 2.36255 0
M  V30 6155 C 585.134 5.21847 0.217507 0
M  V30 6156 H 586.828 2.99005 -0.153656 0
M  V30 6157 H 584.374 1.43803 -0.0753406 0
M  V30 6158 H 586.327 3.58889 2.20855 0
M  V30 6159 H 585.051 2.34775 2.27042 0
M  V30 6160 H 583.71 3.62281 0.56109 0
M  V30 6161 H 583.358 4.03557 3.00251 0
M  V30 6162 H 583.058 5.50827 2.04606 0
M  V30 6163 H 584.582 5.33892 2.96297 0
M  V30 6164 H 585.996 5.6878 0.718493 0
M  V30 6165 H 584.393 6.00099 -0.00806408 0
M  V30 6166 H 585.463 4.7921 -0.740653 0
M  V30 6167 N 586.806 0.0935595 1.57322 0
M  V30 6168 C 588.055 -0.570191 1.93473 0
M  V30 6169 C 588.368 -1.69434 0.977318 0
M  V30 6170 O 589.574 -2.41914 1.23248 0
M  V30 6171 C 588.03 -1.06564 3.43762 0
M  V30 6172 C 587.638 0.0286723 4.47991 0
M  V30 6173 C 589.382 -1.70221 3.88877 0
M  V30 6174 C 587.289 -0.482046 5.89432 0
M  V30 6175 H 586.219 -0.216764 0.72217 0
M  V30 6176 H 588.87 0.169313 1.82717 0
M  V30 6177 H 587.252 -1.85878 3.49664 0
M  V30 6178 H 588.426 0.804106 4.5373 0
M  V30 6179 H 586.741 0.570336 4.12476 0
M  V30 6180 H 589.338 -2.09502 4.91948 0
M  V30 6181 H 589.681 -2.57078 3.27439 0
M  V30 6182 H 590.214 -0.974919 3.85668 0
M  V30 6183 H 586.953 0.349871 6.54566 0
M  V30 6184 H 586.473 -1.22452 5.87167 0
M  V30 6185 H 588.152 -0.951508 6.39965 0
M  V30 6186 N 588.284 -1.56567 -0.180126 0
M  V30 6187 C 589.231 -1.95725 -1.22313 0
M  V30 6188 C 590.201 -0.819911 -1.44453 0
M  V30 6189 O 591.386 -1.07931 -1.57339 0
M  V30 6190 C 588.526 -2.31484 -2.55947 0
M  V30 6191 C 587.639 -3.58354 -2.4126 0
M  V30 6192 C 586.774 -3.83366 -3.67701 0
M  V30 6193 C 585.813 -5.03612 -3.47909 0
M  V30 6194 N 584.95 -5.24802 -4.66398 0
M  V30 6195 H 589.79 -2.84642 -0.882198 0
M  V30 6196 H 587.327 -1.4085 -0.42422 0
M  V30 6197 H 589.285 -2.50237 -3.33822 0
M  V30 6198 H 587.915 -1.45689 -2.88053 0
M  V30 6199 H 586.967 -3.47565 -1.54606 0
M  V30 6200 H 588.279 -4.46386 -2.22577 0
M  V30 6201 H 587.433 -4.02439 -4.54013 0
M  V30 6202 H 586.172 -2.93692 -3.89353 0
M  V30 6203 H 585.177 -4.84447 -2.59983 0
M  V30 6204 H 586.402 -5.94809 -3.27688 0
M  V30 6205 H 584.348 -4.38079 -4.88286 0
M  V30 6206 H 584.265 -6.07041 -4.50596 0
M  V30 6207 H 585.533 -5.48346 -5.54019 0
M  V30 6208 N 589.762 0.448376 -1.51087 0
M  V30 6209 C 590.709 1.54341 -1.71603 0
M  V30 6210 C 591.679 1.56463 -0.557536 0
M  V30 6211 O 592.864 1.73644 -0.79072 0
M  V30 6212 C 590.004 2.92148 -1.83695 0
M  V30 6213 C 589.117 2.99639 -3.11192 0
M  V30 6214 C 588.252 4.285 -3.13944 0
M  V30 6215 C 587.291 4.29819 -4.35801 0
M  V30 6216 N 586.428 5.50186 -4.36164 0
M  V30 6217 H 591.268 1.36151 -2.65079 0
M  V30 6218 H 588.805 0.661585 -1.31383 0
M  V30 6219 H 590.763 3.72093 -1.88687 0
M  V30 6220 H 589.393 3.0892 -0.936374 0
M  V30 6221 H 588.445 2.12425 -3.15562 0
M  V30 6222 H 589.757 2.96474 -4.01129 0
M  V30 6223 H 588.911 5.16811 -3.17791 0
M  V30 6224 H 587.65 4.34307 -2.21876 0
M  V30 6225 H 586.655 3.39902 -4.32142 0
M  V30 6226 H 587.88 4.25685 -5.29121 0
M  V30 6227 H 585.826 5.56735 -3.46961 0
M  V30 6228 H 585.743 5.48856 -5.19897 0
M  V30 6229 H 587.011 6.40559 -4.44189 0
M  V30 6230 N 591.24 1.41047 0.703093 0
M  V30 6231 C 592.488 1.39723 1.4602 0
M  V30 6232 C 592.809 0.00461257 1.94999 0
M  V30 6233 O 592.079 -0.952292 1.71196 0
M  V30 6234 H 590.659 0.514281 0.541779 0
M  V30 6235 H 593.321 1.76217 0.832678 0
M  V30 6236 H 592.417 2.07982 2.32701 0
M  V30 6237 N 592.718 -0.936591 1.26751 0
M  V30 6238 C 593.665 -2.03597 1.08706 0
M  V30 6239 C 594.635 -1.66097 -0.00926542 0
M  V30 6240 O 595.82 -1.90199 0.151377 0
M  V30 6241 C 592.96 -3.3727 0.73094 0
M  V30 6242 C 592.073 -3.87778 1.90399 0
M  V30 6243 C 591.208 -5.09859 1.49056 0
M  V30 6244 C 590.247 -5.5264 2.63164 0
M  V30 6245 N 589.384 -6.65921 2.22471 0
M  V30 6246 H 594.224 -2.18364 2.02784 0
M  V30 6247 H 591.761 -1.06985 1.00958 0
M  V30 6248 H 593.719 -4.14128 0.505328 0
M  V30 6249 H 592.349 -3.22337 -0.172868 0
M  V30 6250 H 591.401 -3.07279 2.2424 0
M  V30 6251 H 592.713 -4.15464 2.76028 0
M  V30 6252 H 591.867 -5.9419 1.22567 0
M  V30 6253 H 590.606 -4.8393 0.60524 0
M  V30 6254 H 589.611 -4.66863 2.90377 0
M  V30 6255 H 590.836 -5.80568 3.52303 0
M  V30 6256 H 588.782 -6.41667 1.36379 0
M  V30 6257 H 588.699 -6.93216 3.01641 0
M  V30 6258 H 589.967 -7.53616 1.99205 0
M  V30 6259 N 594.196 -1.08629 -1.14182 0
M  V30 6260 C 595.159 -0.722027 -2.1753 0
M  V30 6261 C 596.159 0.244305 -1.58933 0
M  V30 6262 O 597.349 0.0235545 -1.74184 0
M  V30 6263 C 594.481 -0.0663966 -3.40835 0
M  V30 6264 H 595.674 -1.63719 -2.51269 0
M  V30 6265 H 593.227 -0.884442 -1.28869 0
M  V30 6266 H 593.962 0.860389 -3.12678 0
M  V30 6267 H 593.747 -0.761598 -3.84632 0
M  V30 6268 H 595.237 0.173346 -4.1724 0
M  V30 6269 N 595.674 1.31259 -0.872281 0
M  V30 6270 C 596.902 2.00795 -0.498907 0
M  V30 6271 C 597.317 1.65464 0.909238 0
M  V30 6272 O 596.674 0.885073 1.59602 0
M  V30 6273 C 596.725 3.55625 -0.649092 0
M  V30 6274 O 596.446 3.89692 -2.00179 0
M  V30 6275 C 597.947 4.42434 -0.277034 0
M  V30 6276 H 595.167 0.642299 -0.194145 0
M  V30 6277 H 597.711 1.67438 -1.17408 0
M  V30 6278 H 595.866 3.87394 -0.0214402 0
M  V30 6279 H 596.28 4.84407 -2.01122 0
M  V30 6280 H 597.754 5.50299 -0.433064 0
M  V30 6281 H 598.231 4.32146 0.783989 0
M  V30 6282 H 598.837 4.16086 -0.880483 0
M  V30 6283 N 597.152 0.631951 1.44375 0
M  V30 6284 C 598.38 0.143867 2.06399 0
M  V30 6285 C 598.795 -1.18188 1.47231 0
M  V30 6286 O 598.152 -1.72511 0.595498 0
M  V30 6287 C 598.203 0.0238253 3.61492 0
M  V30 6288 O 597.924 1.29715 4.18456 0
M  V30 6289 C 599.425 -0.492856 4.40552 0
M  V30 6290 H 596.645 0.0800542 0.666207 0
M  V30 6291 H 599.189 0.866586 1.85231 0
M  V30 6292 H 597.344 -0.649338 3.81919 0
M  V30 6293 H 597.758 1.14252 5.11905 0
M  V30 6294 H 599.232 -0.525861 5.49489 0
M  V30 6295 H 599.709 -1.52006 4.12057 0
M  V30 6296 H 600.315 0.147085 4.25046 0
M  V30 6297 N 598.631 -1.53133 0.372548 0
M  V30 6298 C 599.88 -2.00539 -0.216115 0
M  V30 6299 C 600.193 -1.26374 -1.49295 0
M  V30 6300 O 601.399 -1.64404 -2.16064 0
M  V30 6301 C 599.855 -3.57253 -0.435678 0
M  V30 6302 C 599.463 -4.40302 0.82693 0
M  V30 6303 C 601.207 -4.12995 -0.981618 0
M  V30 6304 C 599.114 -5.88583 0.576567 0
M  V30 6305 H 598.044 -0.749246 -0.084536 0
M  V30 6306 H 600.695 -1.76771 0.492364 0
M  V30 6307 H 599.077 -3.77202 -1.20559 0
M  V30 6308 H 600.251 -4.32124 1.60017 0
M  V30 6309 H 598.566 -3.95699 1.29659 0
M  V30 6310 H 601.163 -5.21418 -1.18436 0
M  V30 6311 H 601.506 -3.68027 -1.94581 0
M  V30 6312 H 602.039 -3.96871 -0.271696 0
M  V30 6313 H 598.778 -6.37841 1.51128 0
M  V30 6314 H 598.298 -5.99592 -0.158047 0
M  V30 6315 H 599.977 -6.46676 0.204722 0
M  V30 6316 N 600.109 -0.101901 -1.5727 0
M  V30 6317 C 601.337 0.568392 -1.98939 0
M  V30 6318 C 601.752 1.61301 -0.981194 0
M  V30 6319 O 601.109 1.82478 0.0282869 0
M  V30 6320 C 601.16 1.20997 -3.40649 0
M  V30 6321 O 600.881 0.207129 -4.3761 0
M  V30 6322 C 602.382 1.96523 -3.97358 0
M  V30 6323 H 599.602 0.15186 -0.65359 0
M  V30 6324 H 602.146 -0.183198 -2.03678 0
M  V30 6325 H 600.301 1.91245 -3.36904 0
M  V30 6326 H 600.715 0.671071 -5.20189 0
M  V30 6327 H 602.189 2.36764 -4.98645 0
M  V30 6328 H 602.666 2.83376 -3.35552 0
M  V30 6329 H 603.272 1.31076 -4.04598 0
M  V30 6330 N 601.587 1.56661 0.17182 0
M  V30 6331 C 602.812 1.86459 0.908165 0
M  V30 6332 C 603.237 0.688181 1.75059 0
M  V30 6333 O 602.595 -0.362753 1.77634 0
M  V30 6334 C 602.643 3.14669 1.76112 0
M  V30 6335 O 601.747 2.96858 2.86268 0
M  V30 6336 H 601.088 0.613318 0.254434 0
M  V30 6337 H 603.618 2.03892 0.170113 0
M  V30 6338 H 603.628 3.46061 2.16115 0
M  V30 6339 H 602.303 3.99905 1.14233 0
M  V30 6340 H 600.88 2.76819 2.49852 0
M  V30 6341 N 603.065 -0.440357 1.51323 0
M  V30 6342 C 604.311 -1.19181 1.64085 0
M  V30 6343 C 604.644 -1.90936 0.354575 0
M  V30 6344 O 603.919 -1.8347 -0.645675 0
M  V30 6345 C 604.202 -2.2112 2.84215 0
M  V30 6346 C 604.055 -1.53468 4.22809 0
M  V30 6347 C 605.374 -3.22133 2.99864 0
M  V30 6348 H 602.493 -0.431924 0.597169 0
M  V30 6349 H 605.135 -0.481443 1.83799 0
M  V30 6350 H 603.285 -2.81703 2.67537 0
M  V30 6351 H 604.957 -0.962455 4.51148 0
M  V30 6352 H 603.2 -0.837086 4.25647 0
M  V30 6353 H 603.871 -2.27694 5.02852 0
M  V30 6354 H 606.347 -2.71601 3.15233 0
M  V30 6355 H 605.223 -3.90756 3.85488 0
M  V30 6356 H 605.484 -3.88061 2.11804 0
M  V30 6357 N 604.543 -1.41418 -0.695603 0
M  V30 6358 C 605.473 -1.46035 -1.82197 0
M  V30 6359 C 606.454 -0.319025 -1.67082 0
M  V30 6360 O 607.639 -0.530462 -1.86815 0
M  V30 6361 C 604.769 -1.34179 -3.20333 0
M  V30 6362 C 603.723 -2.46123 -3.50154 0
M  V30 6363 C 603.049 -2.19332 -4.87645 0
M  V30 6364 C 604.349 -3.88463 -3.49133 0
M  V30 6365 H 606.043 -2.40303 -1.78591 0
M  V30 6366 H 603.589 -1.15663 -0.857797 0
M  V30 6367 H 605.542 -1.36021 -3.98844 0
M  V30 6368 H 604.266 -0.363952 -3.24566 0
M  V30 6369 H 602.925 -2.43563 -2.73994 0
M  V30 6370 H 602.573 -1.19891 -4.88503 0
M  V30 6371 H 602.273 -2.94344 -5.08562 0
M  V30 6372 H 603.797 -2.22889 -5.68465 0
M  V30 6373 H 605.211 -3.92738 -4.17648 0
M  V30 6374 H 603.608 -4.63158 -3.81582 0
M  V30 6375 H 604.678 -4.16617 -2.48109 0
M  V30 6376 N 606.021 0.929856 -1.27246 0
M  V30 6377 C 607.432 1.49223 -1.12203 0
M  V30 6378 C 607.783 1.93989 0.293731 0
M  V30 6379 O 606.908 1.80978 1.18642 0
M  V30 6380 C 607.503 2.71198 -2.0307 0
M  V30 6381 C 606.062 3.23666 -1.92139 0
M  V30 6382 C 605.209 1.96409 -1.95752 0
M  V30 6383 H 608.16 0.744181 -1.4017 0
M  V30 6384 H 608.181 3.45905 -1.58524 0
M  V30 6385 H 607.693 2.38585 -3.06102 0
M  V30 6386 H 605.794 3.61042 -0.920834 0
M  V30 6387 H 605.907 3.90006 -2.78267 0
M  V30 6388 H 604.271 2.12806 -1.39949 0
M  V30 6389 H 605.054 1.66113 -3.00436 0
M  V30 6390 N 607.499 1.09233 1.13605 0
M  V30 6391 C 608.446 0.729921 2.18954 0
M  V30 6392 C 609.416 -0.287916 1.63586 0
M  V30 6393 O 610.601 -0.170003 1.90041 0
M  V30 6394 C 607.741 0.154489 3.44754 0
M  V30 6395 C 606.854 1.22613 4.14234 0
M  V30 6396 C 605.989 0.613657 5.27644 0
M  V30 6397 C 605.028 1.66674 5.8897 0
M  V30 6398 N 604.165 1.07545 6.93814 0
M  V30 6399 H 609.005 1.63257 2.49302 0
M  V30 6400 H 606.542 0.815693 1.22413 0
M  V30 6401 H 608.5 -0.196923 4.16735 0
M  V30 6402 H 607.13 -0.711433 3.14863 0
M  V30 6403 H 606.182 1.69485 3.40557 0
M  V30 6404 H 607.494 2.0238 4.55899 0
M  V30 6405 H 606.648 0.210976 6.06333 0
M  V30 6406 H 605.387 -0.215584 4.87223 0
M  V30 6407 H 604.392 2.07899 5.08978 0
M  V30 6408 H 605.617 2.49861 6.31464 0
M  V30 6409 H 603.563 0.267451 6.55455 0
M  V30 6410 H 603.48 1.81011 7.3401 0
M  V30 6411 H 604.748 0.698906 7.7636 0
M  V30 6412 N 608.977 -1.30795 0.87923 0
M  V30 6413 C 610.388 -1.78535 0.546093 0
M  V30 6414 C 610.739 -1.72354 -0.937467 0
M  V30 6415 O 609.864 -1.2969 -1.73233 0
M  V30 6416 C 610.459 -3.24181 0.9845 0
M  V30 6417 C 609.018 -3.69779 0.702871 0
M  V30 6418 C 608.165 -2.51377 1.17068 0
M  V30 6419 H 611.116 -1.17746 1.06403 0
M  V30 6420 H 611.137 -3.79227 0.311045 0
M  V30 6421 H 610.649 -3.28647 2.06429 0
M  V30 6422 H 608.75 -3.70806 -0.365166 0
M  V30 6423 H 608.863 -4.61507 1.28639 0
M  V30 6424 H 607.227 -2.47768 0.590172 0
M  V30 6425 H 608.01 -2.58584 2.25808 0
M  V30 6426 N 610.455 -0.639598 -1.44038 0
M  V30 6427 C 611.418 0.0506628 -2.29144 0
M  V30 6428 C 612.418 0.764001 -1.41491 0
M  V30 6429 O 613.608 0.607309 -1.63271 0
M  V30 6430 C 610.74 1.0824 -3.2326 0
M  V30 6431 H 611.933 -0.697987 -2.91664 0
M  V30 6432 H 609.486 -0.400146 -1.51091 0
M  V30 6433 H 610.221 1.86075 -2.65606 0
M  V30 6434 H 610.006 0.574725 -3.87865 0
M  V30 6435 H 611.496 1.56487 -3.87171 0
M  V30 6436 N 611.933 1.52934 -0.380664 0
M  V30 6437 C 612.863 2.29118 0.450268 0
M  V30 6438 C 613.844 1.32153 1.07096 0
M  V30 6439 O 615.029 1.61038 1.08537 0
M  V30 6440 C 612.159 3.09161 1.58231 0
M  V30 6441 C 611.113 4.13938 1.0881 0
M  V30 6442 C 610.439 4.82153 2.31155 0
M  V30 6443 C 611.739 5.22048 0.162146 0
M  V30 6444 H 613.433 2.98826 -0.185361 0
M  V30 6445 H 610.979 1.43715 -0.0905886 0
M  V30 6446 H 612.932 3.61211 2.17036 0
M  V30 6447 H 611.656 2.3717 2.2454 0
M  V30 6448 H 610.315 3.62855 0.522633 0
M  V30 6449 H 609.963 4.06719 2.95953 0
M  V30 6450 H 609.663 5.52966 1.98752 0
M  V30 6451 H 611.187 5.37004 2.90618 0
M  V30 6452 H 612.601 5.6951 0.658126 0
M  V30 6453 H 610.998 6.00057 -0.0717122 0
M  V30 6454 H 612.068 4.78398 -0.791438 0
M  V30 6455 N 613.412 0.11024 1.57214 0
M  V30 6456 C 614.658 -0.550684 1.9518 0
M  V30 6457 C 614.991 -1.66885 0.993122 0
M  V30 6458 O 614.266 -1.94479 0.0287907 0
M  V30 6459 C 614.549 -1.09163 3.43155 0
M  V30 6460 C 614.402 0.0225198 4.49794 0
M  V30 6461 C 615.721 -1.98527 3.92778 0
M  V30 6462 H 612.84 -0.198706 0.709708 0
M  V30 6463 H 615.482 0.184024 1.89107 0
M  V30 6464 H 613.632 -1.71775 3.48462 0
M  V30 6465 H 615.304 0.657443 4.56591 0
M  V30 6466 H 613.547 0.686868 4.28328 0
M  V30 6467 H 614.218 -0.39706 5.5057 0
M  V30 6468 H 616.694 -1.458 3.8972 0
M  V30 6469 H 615.57 -2.33298 4.96853 0
M  V30 6470 H 615.831 -2.90846 3.32958 0
M  V30 6471 N 614.89 -1.56749 -0.16351 0
M  V30 6472 C 615.853 -1.96121 -1.18613 0
M  V30 6473 C 616.853 -0.845765 -1.36761 0
M  V30 6474 O 618.043 -1.11268 -1.34033 0
M  V30 6475 C 615.175 -2.26282 -2.54969 0
M  V30 6476 H 616.368 -2.87639 -0.848764 0
M  V30 6477 H 613.921 -1.50928 -0.406251 0
M  V30 6478 H 614.656 -1.37504 -2.93706 0
M  V30 6479 H 614.441 -3.07595 -2.43162 0
M  V30 6480 H 615.931 -2.57638 -3.28653 0
M  V30 6481 N 616.368 0.432326 -1.51554 0
M  V30 6482 C 617.593 1.20824 -1.68571 0
M  V30 6483 C 618.018 1.84126 -0.384596 0
M  V30 6484 O 617.376 1.69025 0.655751 0
M  V30 6485 C 617.424 2.26429 -2.80646 0
M  V30 6486 O 616.528 3.32032 -2.44598 0
M  V30 6487 H 615.869 0.353765 -0.561913 0
M  V30 6488 H 618.399 0.509916 -1.98144 0
M  V30 6489 H 618.409 2.71133 -3.04878 0
M  V30 6490 H 617.084 1.79733 -3.75058 0
M  V30 6491 H 615.661 2.92769 -2.30956 0
M  V30 6492 N 617.846 1.41785 0.688094 0
M  V30 6493 C 619.262 1.24419 0.999608 0
M  V30 6494 C 619.462 0.138868 2.01021 0
M  V30 6495 O 618.518 -0.494283 2.47615 0
M  V30 6496 C 619.831 2.59625 1.51709 0
M  V30 6497 C 621.379 2.66869 1.63554 0
M  V30 6498 C 621.854 4.0241 2.18702 0
M  V30 6499 N 623.345 4.04295 2.26053 0
M  V30 6500 C 624.08 5.05977 2.69768 0
M  V30 6501 N 623.576 6.18047 3.13033 0
M  V30 6502 N 625.369 4.93336 2.69398 0
M  V30 6503 H 617.52 2.12392 0.0187427 0
M  V30 6504 H 619.783 0.945347 0.0708673 0
M  V30 6505 H 619.489 3.41297 0.849059 0
M  V30 6506 H 619.363 2.82628 2.49803 0
M  V30 6507 H 621.75 1.8555 2.29467 0
M  V30 6508 H 621.831 2.47668 0.639857 0
M  V30 6509 H 621.475 4.8418 1.53402 0
M  V30 6510 H 621.405 4.18955 3.19037 0
M  V30 6511 H 623.896 3.23383 1.9553 0
M  V30 6512 H 624.209 6.91498 3.45038 0
M  V30 6513 H 622.554 6.21572 3.10923 0
M  V30 6514 H 625.745 4.04865 2.34952 0
M  V30 6515 H 625.918 5.72717 3.03148 0
M  V30 6516 N 619.324 -0.923095 1.27737 0
M  V30 6517 C 620.57 -1.67375 1.14514 0
M  V30 6518 C 620.903 -1.91751 -0.307424 0
M  V30 6519 O 620.178 -1.51119 -1.22447 0
M  V30 6520 C 620.461 -3.03745 1.9342 0
M  V30 6521 C 620.314 -2.86581 3.46686 0
M  V30 6522 C 621.633 -4.04144 1.74228 0
M  V30 6523 H 618.752 -0.607427 0.417374 0
M  V30 6524 H 621.394 -1.07089 1.56946 0
M  V30 6525 H 619.544 -3.55204 1.5736 0
M  V30 6526 H 621.216 -2.42203 3.92601 0
M  V30 6527 H 619.459 -2.21829 3.72793 0
M  V30 6528 H 620.13 -3.83381 3.97143 0
M  V30 6529 H 622.606 -3.61712 2.05678 0
M  V30 6530 H 621.482 -4.97543 2.31824 0
M  V30 6531 H 621.743 -4.36661 0.691373 0
M  V30 6532 N 620.802 -1.09834 -1.13024 0
M  V30 6533 C 621.712 -0.753731 -2.22162 0
M  V30 6534 C 622.728 0.246105 -1.72251 0
M  V30 6535 O 623.904 0.0864051 -2.01215 0
M  V30 6536 C 620.969 -0.183958 -3.46212 0
M  V30 6537 C 620.03 -1.24028 -4.10993 0
M  V30 6538 C 619.263 -0.697597 -5.29121 0
M  V30 6539 O 619.486 0.478092 -5.68393 0
M  V30 6540 O 618.42 -1.4546 -5.84059 0
M  V30 6541 H 622.246 -1.66456 -2.5402 0
M  V30 6542 H 619.831 -0.873026 -1.21238 0
M  V30 6543 H 621.713 0.130257 -4.21199 0
M  V30 6544 H 620.388 0.699823 -3.16045 0
M  V30 6545 H 619.295 -1.60725 -3.37814 0
M  V30 6546 H 620.628 -2.09685 -4.45301 0
M  V30 6547 N 622.28 1.30327 -0.886154 0
M  V30 6548 C 623.526 1.96388 -0.505941 0
M  V30 6549 C 623.859 1.69784 0.942712 0
M  V30 6550 O 623.134 1.00322 1.6663 0
M  V30 6551 C 623.417 3.51488 -0.782826 0
M  V30 6552 C 623.27 3.87603 -2.28219 0
M  V30 6553 C 624.589 4.39331 -0.260128 0
M  V30 6554 H 621.708 0.713327 -0.185292 0
M  V30 6555 H 624.35 1.54178 -1.11036 0
M  V30 6556 H 622.5 3.87572 -0.268399 0
M  V30 6557 H 624.172 3.61537 -2.86512 0
M  V30 6558 H 622.415 3.3563 -2.74837 0
M  V30 6559 H 623.086 4.95806 -2.42653 0
M  V30 6560 H 625.562 4.10162 -0.700444 0
M  V30 6561 H 624.438 5.46769 -0.483179 0
M  V30 6562 H 624.699 4.34072 0.838674 0
M  V30 6563 N 623.758 0.647228 1.43697 0
M  V30 6564 C 624.983 0.164083 2.0675 0
M  V30 6565 C 625.408 -1.15892 1.48158 0
M  V30 6566 O 624.766 -1.71459 0.589194 0
M  V30 6567 C 624.814 0.0800368 3.60511 0
M  V30 6568 O 623.918 -0.959453 4.01084 0
M  V30 6569 H 623.259 0.0921288 0.657578 0
M  V30 6570 H 625.789 0.88846 1.84303 0
M  V30 6571 H 625.799 -0.105263 4.07864 0
M  V30 6572 H 624.474 1.04586 4.02535 0
M  V30 6573 H 623.051 -0.747425 3.65333 0
M  V30 6574 N 625.236 -1.5273 0.388769 0
M  V30 6575 C 626.183 -2.26437 -0.446639 0
M  V30 6576 C 627.153 -1.28025 -1.05824 0
M  V30 6577 O 628.338 -1.56852 -1.08637 0
M  V30 6578 C 625.478 -3.07407 -1.56828 0
M  V30 6579 C 624.591 -4.20747 -0.979589 0
M  V30 6580 C 623.726 -4.89113 -2.07224 0
M  V30 6581 C 622.765 -5.94447 -1.45942 0
M  V30 6582 N 621.902 -6.56411 -2.49135 0
M  V30 6583 H 626.742 -2.97404 0.18837 0
M  V30 6584 H 624.279 -1.46727 0.104725 0
M  V30 6585 H 626.237 -3.52642 -2.22934 0
M  V30 6586 H 624.867 -2.3865 -2.17361 0
M  V30 6587 H 623.919 -3.7983 -0.208151 0
M  V30 6588 H 625.231 -4.9637 -0.491747 0
M  V30 6589 H 624.385 -5.3765 -2.81101 0
M  V30 6590 H 623.124 -4.13013 -2.59368 0
M  V30 6591 H 622.129 -5.4525 -0.705894 0
M  V30 6592 H 623.354 -6.7248 -0.945932 0
M  V30 6593 H 621.3 -5.83152 -3.00449 0
M  V30 6594 H 621.217 -7.27645 -2.05105 0
M  V30 6595 H 622.485 -7.09592 -3.22644 0
M  V30 6596 N 626.714 -0.118576 -1.57153 0
M  V30 6597 C 627.96 0.540326 -1.95469 0
M  V30 6598 C 628.293 1.66356 -1.00196 0
M  V30 6599 O 627.568 1.94461 -0.039104 0
M  V30 6600 C 627.851 1.07342 -3.43729 0
M  V30 6601 C 627.704 -0.0463732 -4.49776 0
M  V30 6602 C 629.023 1.96442 -3.93826 0
M  V30 6603 H 626.142 0.19494 -0.710751 0
M  V30 6604 H 628.784 -0.19405 -1.89006 0
M  V30 6605 H 626.934 1.69925 -3.49368 0
M  V30 6606 H 628.606 -0.681648 -4.56236 0
M  V30 6607 H 626.849 -0.709574 -4.27957 0
M  V30 6608 H 627.52 0.367856 -5.50773 0
M  V30 6609 H 629.996 1.43731 -3.90488 0
M  V30 6610 H 628.872 2.3066 -4.98084 0
M  V30 6611 H 629.133 2.89077 -3.34495 0
M  V30 6612 N 628.193 1.56834 0.155195 0
M  V30 6613 C 629.123 2.00678 1.19376 0
M  V30 6614 C 630.104 0.884973 1.45266 0
M  V30 6615 O 631.289 1.1522 1.56326 0
M  V30 6616 C 628.419 2.38042 2.5289 0
M  V30 6617 C 627.373 3.53332 2.41538 0
M  V30 6618 C 626.699 3.76485 3.79688 0
M  V30 6619 C 627.999 4.86265 1.9064 0
M  V30 6620 H 629.693 2.87688 0.829232 0
M  V30 6621 H 627.239 1.38407 0.397445 0
M  V30 6622 H 629.192 2.67314 3.25763 0
M  V30 6623 H 627.916 1.4796 2.91162 0
M  V30 6624 H 626.575 3.24213 1.71117 0
M  V30 6625 H 626.223 2.83667 4.15382 0
M  V30 6626 H 625.923 4.54068 3.72956 0
M  V30 6627 H 627.447 4.08174 4.54122 0
M  V30 6628 H 628.861 5.14308 2.53299 0
M  V30 6629 H 627.258 5.67597 1.94818 0
M  V30 6630 H 628.328 4.77184 0.861596 0
M  V30 6631 N 629.671 -0.424282 1.51781 0
M  V30 6632 C 630.92 -1.16961 1.64326 0
M  V30 6633 C 631.233 -1.92035 0.371749 0
M  V30 6634 O 632.439 -2.68873 0.37676 0
M  V30 6635 C 630.895 -2.12782 2.90262 0
M  V30 6636 C 630.503 -1.43295 4.24465 0
M  V30 6637 C 632.247 -2.87667 3.12166 0
M  V30 6638 C 630.154 -2.37676 5.41538 0
M  V30 6639 H 629.084 -0.440293 0.612093 0
M  V30 6640 H 631.735 -0.435431 1.78259 0
M  V30 6641 H 630.117 -2.8969 2.69992 0
M  V30 6642 H 631.291 -0.718564 4.55163 0
M  V30 6643 H 629.606 -0.805118 4.08542 0
M  V30 6644 H 632.203 -3.58395 3.96808 0
M  V30 6645 H 632.546 -3.49758 2.25776 0
M  V30 6646 H 633.079 -2.17863 3.32837 0
M  V30 6647 H 629.818 -1.80255 6.30229 0
M  V30 6648 H 629.338 -3.07132 5.15199 0
M  V30 6649 H 631.017 -2.98529 5.74012 0
M  V30 6650 N 631.149 -1.42148 -0.680565 0
M  V30 6651 C 632.079 -1.4796 -1.80638 0
M  V30 6652 C 633.06 -0.336728 -1.66734 0
M  V30 6653 O 634.245 -0.550247 -1.86242 0
M  V30 6654 C 631.375 -1.37569 -3.18892 0
M  V30 6655 C 630.329 -2.49823 -3.47524 0
M  V30 6656 C 629.655 -2.24491 -4.85291 0
M  V30 6657 C 630.955 -3.92144 -3.44994 0
M  V30 6658 H 632.649 -2.42184 -1.76032 0
M  V30 6659 H 630.195 -1.16566 -0.845481 0
M  V30 6660 H 632.148 -1.40243 -3.97379 0
M  V30 6661 H 630.872 -0.398357 -3.24162 0
M  V30 6662 H 629.531 -2.46455 -2.71395 0
M  V30 6663 H 629.179 -1.25066 -4.87204 0
M  V30 6664 H 628.879 -2.99722 -5.05411 0
M  V30 6665 H 630.403 -2.28906 -5.66069 0
M  V30 6666 H 631.817 -3.97145 -4.13459 0
M  V30 6667 H 630.214 -4.67179 -3.76648 0
M  V30 6668 H 631.284 -4.19225 -2.43676 0
M  V30 6669 N 632.627 0.916307 -1.28225 0
M  V30 6670 C 633.875 1.6619 -1.15002 0
M  V30 6671 C 634.196 1.92642 0.302329 0
M  V30 6672 O 633.466 1.54076 1.20985 0
M  V30 6673 H 632.046 0.615964 -0.422608 0
M  V30 6674 H 634.708 1.09963 -1.60917 0
M  V30 6675 H 633.804 2.62533 -1.68769 0
M  V30 6676 N 634.105 1.10431 1.1244 0
M  V30 6677 C 635.33 0.869089 1.88313 0
M  V30 6678 C 635.755 -0.574912 1.79099 0
M  V30 6679 O 635.113 -1.40496 1.14589 0
M  V30 6680 C 635.161 1.32208 3.3549 0
M  V30 6681 O 634.265 0.487092 4.09513 0
M  V30 6682 H 633.606 0.313894 0.585121 0
M  V30 6683 H 636.136 1.47111 1.42195 0
M  V30 6684 H 636.146 1.31201 3.86329 0
M  V30 6685 H 634.821 2.37364 3.41513 0
M  V30 6686 H 633.398 0.562372 3.68635 0
M  V30 6687 N 635.583 -1.29855 0.893053 0
M  V30 6688 C 636.831 -1.9544 0.514566 0
M  V30 6689 C 637.152 -1.70795 -0.940959 0
M  V30 6690 O 636.422 -1.03601 -1.66264 0
M  V30 6691 H 635.002 -0.723137 0.187302 0
M  V30 6692 H 637.664 -1.58234 1.13789 0
M  V30 6693 H 636.76 -3.04341 0.691581 0
M  V30 6694 N 637.061 -0.65484 -1.43351 0
M  V30 6695 C 638.309 -0.168559 -2.01396 0
M  V30 6696 C 638.63 1.22235 -1.51933 0
M  V30 6697 O 637.9 1.81685 -0.732627 0
M  V30 6698 H 636.48 -0.0593244 -0.744641 0
M  V30 6699 H 639.142 -0.846871 -1.75539 0
M  V30 6700 H 638.238 -0.154428 -3.11718 0
M  V30 6701 N 638.539 1.52521 -0.396863 0
M  V30 6702 C 639.469 2.29582 0.425941 0
M  V30 6703 C 640.45 1.33281 1.05689 0
M  V30 6704 O 641.635 1.62181 1.06823 0
M  V30 6705 C 638.765 3.10821 1.54943 0
M  V30 6706 C 637.719 4.15069 1.04413 0
M  V30 6707 C 637.045 4.84578 2.26028 0
M  V30 6708 C 638.345 5.22191 0.106767 0
M  V30 6709 H 640.039 2.98612 -0.217045 0
M  V30 6710 H 637.585 1.43611 -0.105826 0
M  V30 6711 H 639.538 3.63492 2.13193 0
M  V30 6712 H 638.262 2.39538 2.22011 0
M  V30 6713 H 636.921 3.63389 0.484118 0
M  V30 6714 H 636.569 4.09835 2.91623 0
M  V30 6715 H 636.269 5.55043 1.92876 0
M  V30 6716 H 637.793 5.40056 2.84906 0
M  V30 6717 H 639.207 5.70176 0.597685 0
M  V30 6718 H 637.604 5.99947 -0.135352 0
M  V30 6719 H 638.674 4.77531 -0.842134 0
M  V30 6720 N 640.017 0.126909 1.57088 0
M  V30 6721 C 641.242 -0.53997 2.00248 0
M  V30 6722 C 641.667 -1.58927 1.00618 0
M  V30 6723 O 641.025 -1.81288 -0.0210131 0
M  V30 6724 C 641.073 -1.13565 3.4225 0
M  V30 6725 O 640.177 -2.25103 3.45547 0
M  V30 6726 H 639.518 -0.13412 0.650314 0
M  V30 6727 H 642.048 0.217718 2.03438 0
M  V30 6728 H 642.058 -1.46925 3.80627 0
M  V30 6729 H 640.733 -0.367122 4.14277 0
M  V30 6730 H 639.31 -1.93123 3.18995 0
M  V30 6731 N 641.495 -1.56914 -0.146875 0
M  V30 6732 C 642.744 -1.82546 -0.857898 0
M  V30 6733 C 643.057 -0.708169 -1.8233 0
M  V30 6734 O 644.263 -0.850093 -2.57848 0
M  V30 6735 C 642.719 -3.23548 -1.57623 0
M  V30 6736 C 642.327 -4.43212 -0.653224 0
M  V30 6737 C 644.071 -3.58453 -2.27402 0
M  V30 6738 C 641.978 -5.75237 -1.37318 0
M  V30 6739 H 640.908 -0.680786 -0.32411 0
M  V30 6740 H 643.559 -1.83166 -0.110639 0
M  V30 6741 H 641.941 -3.17315 -2.36912 0
M  V30 6742 H 643.115 -4.60682 0.104452 0
M  V30 6743 H 641.43 -4.16351 -0.0638336 0
M  V30 6744 H 644.027 -4.54349 -2.81907 0
M  V30 6745 H 644.37 -2.84516 -3.03901 0
M  V30 6746 H 644.903 -3.66347 -1.55032 0
M  V30 6747 H 641.642 -6.52269 -0.650041 0
M  V30 6748 H 641.162 -5.61703 -2.10357 0
M  V30 6749 H 642.841 -6.18039 -1.91406 0
M  V30 6750 N 642.974 0.416227 -1.52004 0
M  V30 6751 C 644.222 1.16153 -1.65387 0
M  V30 6752 C 644.543 1.91208 -0.382669 0
M  V30 6753 O 643.813 1.86413 0.602231 0
M  V30 6754 H 642.393 0.431765 -0.60958 0
M  V30 6755 H 645.055 0.475151 -1.89019 0
M  V30 6756 H 644.151 1.87952 -2.4916 0
M  V30 6757 N 644.452 1.42507 0.673017 0
M  V30 6758 C 645.384 1.42074 1.79854 0
M  V30 6759 C 646.397 0.319569 1.59633 0
M  V30 6760 O 647.586 0.582769 1.68719 0
M  V30 6761 C 644.686 1.19886 3.16987 0
M  V30 6762 C 643.859 2.42471 3.64042 0
M  V30 6763 C 642.918 2.15802 4.79913 0
M  V30 6764 O 641.944 2.89015 4.90366 0
M  V30 6765 N 643.146 1.16225 5.68746 0
M  V30 6766 H 645.911 2.3909 1.8071 0
M  V30 6767 H 643.472 1.37409 0.856171 0
M  V30 6768 H 645.464 0.999591 3.92161 0
M  V30 6769 H 644.034 0.313879 3.1102 0
M  V30 6770 H 643.254 2.77954 2.79526 0
M  V30 6771 H 644.542 3.24097 3.92223 0
M  V30 6772 H 643.94 0.556756 5.62954 0
M  V30 6773 H 642.497 1.02285 6.43724 0
M  V30 6774 N 645.93 -0.909495 1.28709 0
M  V30 6775 C 646.893 -1.99399 1.13016 0
M  V30 6776 C 647.893 -1.60654 0.068536 0
M  V30 6777 O 649.083 -1.71334 0.314671 0
M  V30 6778 C 646.215 -3.33078 0.726085 0
M  V30 6779 H 647.408 -2.14751 2.09338 0
M  V30 6780 H 644.961 -1.09272 1.11756 0
M  V30 6781 H 645.696 -3.23428 -0.23771 0
M  V30 6782 H 645.481 -3.62562 1.49302 0
M  V30 6783 H 646.971 -4.12681 0.639058 0
M  V30 6784 N 647.408 -1.11026 -1.11852 0
M  V30 6785 C 648.656 -0.854769 -1.83134 0
M  V30 6786 C 648.977 0.621375 -1.84835 0
M  V30 6787 O 648.247 1.45129 -1.31584 0
M  V30 6788 H 646.827 -0.313229 -0.678157 0
M  V30 6789 H 649.489 -1.40178 -1.35411 0
M  V30 6790 H 648.585 -1.22311 -2.87135 0
M  V30 6791 N 648.886 1.2938 -0.899927 0
M  V30 6792 C 649.796 2.31462 -0.382437 0
M  V30 6793 C 650.812 1.65956 0.522929 0
M  V30 6794 O 651.988 1.97131 0.412454 0
M  V30 6795 C 649.053 3.44595 0.381472 0
M  V30 6796 C 648.114 4.25692 -0.555444 0
M  V30 6797 C 647.347 5.33422 0.172102 0
M  V30 6798 O 647.57 5.53053 1.396 0
M  V30 6799 O 646.504 5.99939 -0.485491 0
M  V30 6800 H 650.33 2.77706 -1.22934 0
M  V30 6801 H 647.915 1.33821 -0.664259 0
M  V30 6802 H 649.797 4.13474 0.813442 0
M  V30 6803 H 648.472 3.00458 1.20443 0
M  V30 6804 H 647.379 3.59453 -1.03653 0
M  V30 6805 H 648.712 4.73471 -1.34483 0
M  V30 6806 N 650.364 0.662433 1.43002 0
M  V30 6807 C 651.611 0.179591 2.01702 0
M  V30 6808 C 651.939 -1.20964 1.52309 0
M  V30 6809 O 651.194 -1.82343 0.7106 0
M  V30 6810 C 651.493 0.149363 3.57088 0
M  V30 6811 C 651.159 1.48158 4.25864 0
M  V30 6812 C 649.821 1.84638 4.44367 0
M  V30 6813 C 652.173 2.35953 4.64732 0
M  V30 6814 C 649.501 3.08561 4.99006 0
M  V30 6815 C 651.853 3.59176 5.20745 0
M  V30 6816 C 650.517 3.95841 5.37463 0
M  V30 6817 H 649.787 0.0657172 0.73808 0
M  V30 6818 H 652.434 0.854968 1.71355 0
M  V30 6819 H 650.739 -0.609491 3.8703 0
M  V30 6820 H 652.436 -0.241241 4.00274 0
M  V30 6821 H 649.026 1.18777 4.11813 0
M  V30 6822 H 653.21 2.09058 4.50121 0
M  V30 6823 H 648.466 3.37005 5.10135 0
M  V30 6824 H 652.64 4.27417 5.49807 0
M  V30 6825 H 650.267 4.91942 5.79566 0
M  V30 6826 N 651.842 -1.52309 0.404946 0
M  V30 6827 C 653.119 -1.94237 -0.230544 0
M  V30 6828 C 653.499 -1.34154 -1.6299 0
M  V30 6829 O 652.847 -0.515713 -2.22604 0
M  V30 6830 C 653.057 -3.48166 -0.241106 0
M  V30 6831 C 654.405 -4.22074 -0.462488 0
M  V30 6832 O 655.429 -3.54754 -0.320644 0
M  V30 6833 O 654.288 -5.41443 -0.741708 0
M  V30 6834 H 651.382 -0.813766 -0.147358 0
M  V30 6835 H 653.928 -1.6333 0.460587 0
M  V30 6836 H 652.7 -3.84269 0.738467 0
M  V30 6837 H 652.323 -3.85422 -0.97651 0
M  V30 6838 N 653.32 -0.135238 -1.57019 0
M  V30 6839 C 654.55 0.525303 -1.9981 0
M  V30 6840 C 654.958 1.59724 -1.01415 0
M  V30 6841 O 654.301 1.837 -0.00130938 0
M  V30 6842 C 654.363 1.19578 -3.3903 0
M  V30 6843 C 654.027 0.269855 -4.56203 0
M  V30 6844 C 655.024 -0.497905 -5.1751 0
M  V30 6845 C 652.709 0.176188 -5.01991 0
M  V30 6846 C 654.703 -1.3469 -6.23007 0
M  V30 6847 C 652.39 -0.676422 -6.07345 0
M  V30 6848 C 653.388 -1.43658 -6.67721 0
M  V30 6849 O 653.076 -2.27501 -7.71037 0
M  V30 6850 H 652.808 0.142296 -0.660854 0
M  V30 6851 H 655.362 -0.223272 -2.04183 0
M  V30 6852 H 653.592 1.99176 -3.3146 0
M  V30 6853 H 655.281 1.75486 -3.66005 0
M  V30 6854 H 656.047 -0.435507 -4.83041 0
M  V30 6855 H 651.926 0.757583 -4.54733 0
M  V30 6856 H 655.47 -1.9407 -6.70062 0
M  V30 6857 H 651.367 -0.740154 -6.41243 0
M  V30 6858 H 652.135 -2.20619 -7.88206 0
M  V30 6859 N 654.798 1.5699 0.138552 0
M  V30 6860 C 656.023 1.88344 0.86841 0
M  V30 6861 C 656.448 0.725159 1.7356 0
M  V30 6862 O 655.806 -0.324992 1.78363 0
M  V30 6863 C 655.854 3.18334 1.69398 0
M  V30 6864 O 654.958 3.02863 2.79907 0
M  V30 6865 H 654.299 0.618577 0.241367 0
M  V30 6866 H 656.829 2.04207 0.126826 0
M  V30 6867 H 656.839 3.50567 2.08726 0
M  V30 6868 H 655.514 4.02238 1.05725 0
M  V30 6869 H 654.091 2.82056 2.43924 0
M  V30 6870 N 656.276 -0.40816 1.52223 0
M  V30 6871 C 657.524 -1.15274 1.66001 0
M  V30 6872 C 657.845 -1.91003 0.392803 0
M  V30 6873 O 657.115 -1.8673 -0.592336 0
M  V30 6874 H 655.695 -0.428526 0.611861 0
M  V30 6875 H 658.357 -0.46512 1.89269 0
M  V30 6876 H 657.453 -1.86628 2.50153 0
M  V30 6877 N 657.755 -1.42862 -0.66545 0
M  V30 6878 C 658.98 -1.47456 -1.45848 0
M  V30 6879 C 659.405 -0.0900312 -1.87884 0
M  V30 6880 O 658.763 0.913587 -1.56599 0
M  V30 6881 C 658.811 -2.41514 -2.67774 0
M  V30 6882 O 657.915 -1.89296 -3.66389 0
M  V30 6883 H 657.256 -0.499236 -0.437789 0
M  V30 6884 H 659.786 -1.8765 -0.815394 0
M  V30 6885 H 659.796 -2.58409 -3.15735 0
M  V30 6886 H 658.471 -3.42099 -2.36519 0
M  V30 6887 H 657.048 -1.82003 -3.25468 0
M  V30 6888 N 659.233 0.902656 -1.29189 0
M  V30 6889 C 660.165 2.01149 -1.09872 0
M  V30 6890 C 661.178 1.62732 -0.0471046 0
M  V30 6891 O 662.367 1.76107 -0.29132 0
M  V30 6892 C 659.467 3.32612 -0.649818 0
M  V30 6893 C 658.64 3.99574 -1.7793 0
M  V30 6894 C 657.699 5.09325 -1.32191 0
M  V30 6895 O 656.725 5.31919 -2.02611 0
M  V30 6896 N 657.927 5.80185 -0.191171 0
M  V30 6897 H 660.692 2.18276 -2.05368 0
M  V30 6898 H 658.253 1.07466 -1.2109 0
M  V30 6899 H 660.245 4.03375 -0.327199 0
M  V30 6900 H 658.815 3.11876 0.212597 0
M  V30 6901 H 658.035 3.22213 -2.27095 0
M  V30 6902 H 659.323 4.41056 -2.53668 0
M  V30 6903 H 658.721 5.64312 0.396016 0
M  V30 6904 H 657.278 6.5176 0.0721001 0
M  V30 6905 N 660.711 1.11618 1.11262 0
M  V30 6906 C 661.674 0.779447 2.15539 0
M  V30 6907 C 662.674 -0.202081 1.59525 0
M  V30 6908 O 663.864 0.0226356 1.74185 0
M  V30 6909 C 660.996 0.15674 3.40539 0
M  V30 6910 H 662.189 1.70324 2.4684 0
M  V30 6911 H 659.742 0.918298 1.26479 0
M  V30 6912 H 660.477 -0.777186 3.1485 0
M  V30 6913 H 660.262 0.863308 3.82478 0
M  V30 6914 H 661.752 -0.062661 4.17553 0
M  V30 6915 N 662.189 -1.289 0.906776 0
M  V30 6916 C 663.435 -1.95558 0.53712 0
M  V30 6917 C 663.768 -1.71262 -0.915582 0
M  V30 6918 O 663.043 -1.02961 -1.65013 0
M  V30 6919 C 663.326 -3.50198 0.838645 0
M  V30 6920 C 663.179 -3.83923 2.34357 0
M  V30 6921 C 664.498 -4.38861 0.329988 0
M  V30 6922 H 661.617 -0.710289 0.196617 0
M  V30 6923 H 664.259 -1.52392 1.13475 0
M  V30 6924 H 662.409 -3.87096 0.330024 0
M  V30 6925 H 664.081 -3.56933 2.92227 0
M  V30 6926 H 662.324 -3.31215 2.80141 0
M  V30 6927 H 662.995 -4.91883 2.5051 0
M  V30 6928 H 665.471 -4.08996 0.765609 0
M  V30 6929 H 664.347 -5.45931 0.570105 0
M  V30 6930 H 664.608 -4.35352 -0.769511 0
M  V30 6931 N 663.667 -0.670007 -1.42649 0
M  V30 6932 C 664.614 0.0112928 -2.30797 0
M  V30 6933 C 665.584 0.797627 -1.45695 0
M  V30 6934 O 666.769 0.770845 -1.74535 0
M  V30 6935 C 663.909 0.95998 -3.31479 0
M  V30 6936 C 663.022 0.167975 -4.31673 0
M  V30 6937 C 662.157 1.11198 -5.19431 0
M  V30 6938 C 661.196 0.311381 -6.11307 0
M  V30 6939 N 660.333 1.20784 -6.91633 0
M  V30 6940 H 665.173 -0.746231 -2.88505 0
M  V30 6941 H 662.71 -0.379739 -1.42114 0
M  V30 6942 H 664.668 1.52379 -3.88377 0
M  V30 6943 H 663.298 1.68419 -2.75382 0
M  V30 6944 H 662.35 -0.512385 -3.76933 0
M  V30 6945 H 663.662 -0.453814 -4.96731 0
M  V30 6946 H 662.816 1.74587 -5.81037 0
M  V30 6947 H 661.555 1.76766 -4.54538 0
M  V30 6948 H 660.56 -0.335758 -5.48774 0
M  V30 6949 H 661.785 -0.340135 -6.78248 0
M  V30 6950 H 659.731 1.85001 -6.29373 0
M  V30 6951 H 659.648 0.64102 -7.53277 0
M  V30 6952 H 660.916 1.82936 -7.5773 0
M  V30 6953 N 665.145 1.52092 -0.413018 0
M  V30 6954 C 666.108 2.25706 0.398687 0
M  V30 6955 C 667.108 1.28221 0.970368 0
M  V30 6956 O 668.298 1.52131 0.848635 0
M  V30 6957 C 665.43 3.03029 1.5616 0
M  V30 6958 H 666.623 2.98888 -0.246131 0
M  V30 6959 H 664.176 1.5542 -0.165622 0
M  V30 6960 H 664.911 2.34205 2.24317 0
M  V30 6961 H 664.696 3.74606 1.15812 0
M  V30 6962 H 666.186 3.58857 2.13569 0
M  V30 6963 N 666.623 0.143563 1.56945 0
M  V30 6964 C 667.556 -0.835367 2.1236 0
M  V30 6965 C 668.534 -1.24466 1.04627 0
M  V30 6966 O 669.718 -1.34138 1.32436 0
M  V30 6967 C 666.845 -2.12123 2.64048 0
M  V30 6968 C 665.891 -1.85812 3.83896 0
M  V30 6969 S 666.724 -1.05222 5.25061 0
M  V30 6970 C 667.88 -2.34935 5.80135 0
M  V30 6971 H 668.113 -0.364109 2.95062 0
M  V30 6972 H 665.646 -0.0706601 1.54238 0
M  V30 6973 H 667.604 -2.85993 2.94479 0
M  V30 6974 H 666.265 -2.56364 1.81483 0
M  V30 6975 H 665.458 -2.81151 4.18294 0
M  V30 6976 H 665.06 -1.20052 3.54208 0
M  V30 6977 H 667.352 -3.3061 5.91357 0
M  V30 6978 H 668.295 -2.05046 6.77762 0
M  V30 6979 H 668.703 -2.45426 5.08356 0
M  V30 6980 N 668.101 -1.57061 -0.130224 0
M  V30 6981 C 669.048 -1.99517 -1.16024 0
M  V30 6982 C 670.018 -0.865452 -1.41771 0
M  V30 6983 O 671.203 -1.12882 -1.53826 0
M  V30 6984 C 668.343 -2.3951 -2.48453 0
M  V30 6985 C 667.456 -3.65848 -2.29737 0
M  V30 6986 C 666.591 -3.9487 -3.55318 0
M  V30 6987 C 665.63 -5.14426 -3.31711 0
M  V30 6988 N 664.767 -5.39375 -4.49466 0
M  V30 6989 H 669.607 -2.87305 -0.791194 0
M  V30 6990 H 667.144 -1.42129 -0.379195 0
M  V30 6991 H 669.102 -2.60731 -3.25692 0
M  V30 6992 H 667.732 -1.54779 -2.83272 0
M  V30 6993 H 666.784 -3.52307 -1.4347 0
M  V30 6994 H 668.096 -4.53241 -2.08263 0
M  V30 6995 H 667.25 -4.16679 -4.4098 0
M  V30 6996 H 665.989 -3.05931 -3.79813 0
M  V30 6997 H 664.994 -4.92473 -2.44439 0
M  V30 6998 H 666.219 -6.04933 -3.08598 0
M  V30 6999 H 664.165 -4.53391 -4.74102 0
M  V30 7000 H 664.082 -6.21069 -4.31055 0
M  V30 7001 H 665.35 -5.65694 -5.36293 0
M  V30 7002 N 669.579 0.400081 -1.52437 0
M  V30 7003 C 670.489 1.51253 -1.79331 0
M  V30 7004 C 671.505 1.60188 -0.679396 0
M  V30 7005 O 672.681 1.76733 -0.965791 0
M  V30 7006 C 669.746 2.869 -1.94652 0
M  V30 7007 C 668.807 2.87777 -3.18564 0
M  V30 7008 C 668.04 4.16954 -3.33145 0
M  V30 7009 O 668.263 5.11329 -2.52783 0
M  V30 7010 O 667.197 4.2487 -4.26343 0
M  V30 7011 H 671.023 1.31461 -2.73773 0
M  V30 7012 H 668.608 0.586834 -1.37392 0
M  V30 7013 H 670.49 3.67336 -2.065 0
M  V30 7014 H 669.165 3.06741 -1.034 0
M  V30 7015 H 668.072 2.06162 -3.12167 0
M  V30 7016 H 669.405 2.72886 -4.09627 0
M  V30 7017 N 671.057 1.43213 0.657864 0
M  V30 7018 C 671.967 1.50448 1.80007 0
M  V30 7019 C 672.983 0.39191 1.69529 0
M  V30 7020 O 674.159 0.645349 1.90781 0
M  V30 7021 C 671.224 1.42062 3.16258 0
M  V30 7022 C 670.285 2.63951 3.38568 0
M  V30 7023 C 669.518 2.55956 4.68318 0
M  V30 7024 O 669.741 1.60473 5.47361 0
M  V30 7025 O 668.675 3.46378 4.92245 0
M  V30 7026 H 672.501 2.4689 1.76858 0
M  V30 7027 H 670.086 1.25163 0.81576 0
M  V30 7028 H 671.968 1.3981 3.97531 0
M  V30 7029 H 670.643 0.487524 3.20008 0
M  V30 7030 H 669.55 2.71776 2.57077 0
M  V30 7031 H 670.883 3.56217 3.39662 0
M  V30 7032 N 672.536 -0.895792 1.29666 0
M  V30 7033 C 673.484 -2.02173 1.15017 0
M  V30 7034 C 674.478 -1.69276 0.0647651 0
M  V30 7035 O 675.684 -1.7859 0.224846 0
M  V30 7036 H 672.059 -0.662719 0.355397 0
M  V30 7037 H 674.03 -2.11666 2.10334 0
M  V30 7038 C 672.779 -3.37212 0.847555 0
M  V30 7039 H 672.102 -3.6303 1.67479 0
M  V30 7040 H 673.542 -4.16668 0.785106 0
M  V30 7041 C 672.001 -3.33891 -0.44929 0
M  V30 7042 O 672.531 -3.73673 -1.47415 0
M  V30 7043 N 670.737 -2.86991 -0.456547 0
M  V30 7044 H 670.284 -2.54813 0.377925 0
M  V30 7045 H 670.242 -2.85152 -1.32423 0
M  V30 7046 N 674.014 -1.12206 -1.10668 0
M  V30 7047 C 675.26 -0.877172 -1.82848 0
M  V30 7048 C 675.593 0.595571 -1.84842 0
M  V30 7049 O 674.868 1.44013 -1.30731 0
M  V30 7050 C 675.151 -1.44957 -3.29635 0
M  V30 7051 C 675.004 -2.99051 -3.35989 0
M  V30 7052 C 676.323 -1.10714 -4.25946 0
M  V30 7053 H 673.442 -0.320103 -0.663854 0
M  V30 7054 H 676.084 -1.38827 -1.2972 0
M  V30 7055 H 674.234 -1.01488 -3.7501 0
M  V30 7056 H 675.906 -3.51182 -2.99113 0
M  V30 7057 H 674.149 -3.34705 -2.75962 0
M  V30 7058 H 674.82 -3.34194 -4.39339 0
M  V30 7059 H 677.296 -1.48254 -3.88793 0
M  V30 7060 H 676.172 -1.5343 -5.2702 0
M  V30 7061 H 676.433 -0.019 -4.42096 0
M  V30 7062 N 675.492 1.28418 -0.913599 0
M  V30 7063 C 676.439 2.27301 -0.400373 0
M  V30 7064 C 677.409 1.57582 0.52509 0
M  V30 7065 O 678.594 1.85482 0.447318 0
M  V30 7066 C 675.734 3.43284 0.35361 0
M  V30 7067 C 674.847 4.27752 -0.604341 0
M  V30 7068 C 673.982 5.30934 0.168075 0
M  V30 7069 C 673.021 6.07065 -0.783499 0
M  V30 7070 N 672.158 7.02086 -0.0446112 0
M  V30 7071 H 676.998 2.70579 -1.24865 0
M  V30 7072 H 674.535 1.33067 -0.627028 0
M  V30 7073 H 676.493 4.09322 0.806945 0
M  V30 7074 H 675.123 3.00997 1.16623 0
M  V30 7075 H 674.175 3.61759 -1.17621 0
M  V30 7076 H 675.487 4.80682 -1.33216 0
M  V30 7077 H 674.641 6.02855 0.681979 0
M  V30 7078 H 673.38 4.78771 0.928947 0
M  V30 7079 H 672.385 5.33995 -1.30878 0
M  V30 7080 H 673.61 6.61317 -1.54392 0
M  V30 7081 H 671.556 6.52273 0.698272 0
M  V30 7082 H 671.473 7.52637 -0.712258 0
M  V30 7083 H 672.741 7.78205 0.449102 0
M  V30 7084 N 676.97 0.677563 1.42291 0
M  V30 7085 C 678.198 0.209459 2.05837 0
M  V30 7086 C 678.613 -1.13444 1.50917 0
M  V30 7087 O 677.97 -1.70529 0.65008 0
M  V30 7088 C 678.021 0.138819 3.61233 0
M  V30 7089 O 677.742 1.42962 4.14118 0
M  V30 7090 C 679.243 -0.352449 4.41897 0
M  V30 7091 H 676.463 0.101209 0.663323 0
M  V30 7092 H 679.007 0.925077 1.8238 0
M  V30 7093 H 677.162 -0.527505 3.83792 0
M  V30 7094 H 677.576 1.3048 5.08011 0
M  V30 7095 H 679.05 -0.350778 5.50884 0
M  V30 7096 H 679.527 -1.3882 4.16684 0
M  V30 7097 H 680.133 0.282236 4.24362 0
M  V30 7098 N 678.448 -1.51871 0.421078 0
M  V30 7099 C 679.694 -2.02237 -0.151014 0
M  V30 7100 C 680.027 -1.30554 -1.43768 0
M  V30 7101 O 679.302 -0.41546 -1.90011 0
M  V30 7102 C 679.585 -3.5802 -0.386482 0
M  V30 7103 C 679.438 -4.40339 0.9177 0
M  V30 7104 C 680.757 -4.24444 -1.16342 0
M  V30 7105 H 677.876 -0.735062 -0.0534102 0
M  V30 7106 H 680.518 -1.81656 0.556888 0
M  V30 7107 H 678.668 -3.75688 -0.989494 0
M  V30 7108 H 680.34 -4.34357 1.55344 0
M  V30 7109 H 678.583 -4.06073 1.526 0
M  V30 7110 H 679.254 -5.47451 0.707187 0
M  V30 7111 H 681.73 -4.10948 -0.652788 0
M  V30 7112 H 680.606 -5.33358 -1.29693 0
M  V30 7113 H 680.867 -3.84204 -2.18724 0
M  V30 7114 N 679.926 -0.151884 -1.56866 0
M  V30 7115 C 680.856 0.781943 -2.20018 0
M  V30 7116 C 681.837 1.25347 -1.14987 0
M  V30 7117 O 683.022 1.31015 -1.43348 0
M  V30 7118 C 680.152 2.01928 -2.82564 0
M  V30 7119 C 679.106 1.68434 -3.93464 0
M  V30 7120 C 678.432 2.99472 -4.42968 0
M  V30 7121 C 679.732 0.927244 -5.14003 0
M  V30 7122 H 681.426 0.255607 -2.98307 0
M  V30 7123 H 678.972 0.121502 -1.43486 0
M  V30 7124 H 680.925 2.67741 -3.25411 0
M  V30 7125 H 679.649 2.56943 -2.01614 0
M  V30 7126 H 678.308 1.04998 -3.51242 0
M  V30 7127 H 677.956 3.52488 -3.58834 0
M  V30 7128 H 677.656 2.77823 -5.17772 0
M  V30 7129 H 679.18 3.66348 -4.88489 0
M  V30 7130 H 680.594 1.48756 -5.53665 0
M  V30 7131 H 678.991 0.810513 -5.94601 0
M  V30 7132 H 680.061 -0.0801163 -4.84834 0
M  V30 7133 N 681.404 1.57128 0.121893 0
M  V30 7134 C 682.337 1.95327 1.17995 0
M  V30 7135 C 683.315 0.822524 1.40262 0
M  V30 7136 O 684.499 1.08044 1.54463 0
M  V30 7137 C 681.626 2.24699 2.53432 0
M  V30 7138 C 680.672 3.47263 2.4761 0
M  V30 7139 S 681.505 4.99951 1.91857 0
M  V30 7140 C 682.661 5.32473 3.28973 0
M  V30 7141 H 682.894 2.84765 0.854182 0
M  V30 7142 H 680.427 1.50864 0.328534 0
M  V30 7143 H 682.385 2.423 3.31362 0
M  V30 7144 H 681.046 1.3588 2.83188 0
M  V30 7145 H 680.239 3.65171 3.4737 0
M  V30 7146 H 679.841 3.29034 1.778 0
M  V30 7147 H 682.133 5.27478 4.25175 0
M  V30 7148 H 683.076 6.33732 3.15895 0
M  V30 7149 H 683.484 4.59952 3.27268 0
M  V30 7150 N 682.882 -0.391992 1.52647 0
M  V30 7151 C 683.83 -1.4991 1.77848 0
M  V30 7152 C 684.824 -1.56587 0.646282 0
M  V30 7153 O 686.03 -1.59789 0.828698 0
M  V30 7154 H 682.405 -0.498883 0.56269 0
M  V30 7155 H 684.376 -1.25847 2.70564 0
M  V30 7156 C 683.125 -2.87081 1.96163 0
M  V30 7157 H 682.448 -2.82692 2.82711 0
M  V30 7158 H 683.888 -3.63792 2.17787 0
M  V30 7159 C 682.347 -3.28822 0.733348 0
M  V30 7160 O 682.877 -4.01598 -0.0906481 0
M  V30 7161 N 681.083 -2.85068 0.564317 0
M  V30 7162 H 680.63 -2.26012 1.23598 0
M  V30 7163 H 680.588 -3.13355 -0.256166 0
M  V30 7164 N 684.36 -1.4356 -0.65026 0
M  V30 7165 C 685.771 -1.40324 -1.2315 0
M  V30 7166 C 686.122 -0.108812 -1.95898 0
M  V30 7167 O 685.247 0.79163 -2.01401 0
M  V30 7168 C 685.842 -2.54195 -2.23987 0
M  V30 7169 C 684.401 -2.54215 -2.77582 0
M  V30 7170 C 683.548 -2.31752 -1.5227 0
M  V30 7171 H 686.499 -1.52418 -0.442095 0
M  V30 7172 H 686.52 -2.25854 -3.0622 0
M  V30 7173 H 686.032 -3.48392 -1.71011 0
M  V30 7174 H 684.133 -1.63907 -3.34612 0
M  V30 7175 H 684.246 -3.52081 -3.24925 0
M  V30 7176 H 682.61 -1.80476 -1.79723 0
M  V30 7177 H 683.393 -3.28037 -1.01225 0
M  V30 7178 N 685.838 0.888903 -1.30139 0
M  V30 7179 C 686.786 2.0156 -1.16088 0
M  V30 7180 C 687.78 1.69239 -0.0737413 0
M  V30 7181 O 688.986 1.78468 -0.234313 0
M  V30 7182 H 685.361 0.660825 -0.358907 0
M  V30 7183 H 687.332 2.10547 -2.11453 0
M  V30 7184 C 686.081 3.36758 -0.865426 0
M  V30 7185 H 685.404 3.62137 -1.69402 0
M  V30 7186 H 686.844 4.16246 -0.807192 0
M  V30 7187 C 685.303 3.34124 0.431577 0
M  V30 7188 O 685.833 3.7445 1.45431 0
M  V30 7189 N 684.039 2.87229 0.441321 0
M  V30 7190 H 683.586 2.54609 -0.391433 0
M  V30 7191 H 683.544 2.8585 1.30909 0
M  V30 7192 N 687.317 1.12792 1.10072 0
M  V30 7193 C 688.566 0.880232 1.81479 0
M  V30 7194 C 688.879 -0.595575 1.86312 0
M  V30 7195 O 690.085 -0.959979 2.53962 0
M  V30 7196 C 688.541 1.52514 3.25987 0
M  V30 7197 C 688.149 3.036 3.29441 0
M  V30 7198 C 689.893 1.35788 4.02196 0
M  V30 7199 C 687.8 3.61007 4.68431 0
M  V30 7200 H 686.73 0.325654 0.680048 0
M  V30 7201 H 689.381 1.35485 1.23758 0
M  V30 7202 H 687.763 0.978188 3.83728 0
M  V30 7203 H 688.937 3.64819 2.81502 0
M  V30 7204 H 687.252 3.19765 2.66719 0
M  V30 7205 H 689.849 1.76096 5.0487 0
M  V30 7206 H 690.192 0.301972 4.15203 0
M  V30 7207 H 690.725 1.87426 3.50879 0
M  V30 7208 H 687.464 4.66375 4.60625 0
M  V30 7209 H 686.984 3.04564 5.16721 0
M  V30 7210 H 688.663 3.60289 5.37402 0
M  V30 7211 N 688.795 -1.27931 0.920396 0
M  V30 7212 C 689.758 -2.25345 0.41858 0
M  V30 7213 C 690.758 -1.54116 -0.458798 0
M  V30 7214 O 691.948 -1.72235 -0.260912 0
M  V30 7215 C 689.08 -3.38556 -0.399104 0
M  V30 7216 H 690.273 -2.71251 1.27918 0
M  V30 7217 H 687.826 -1.39728 0.700406 0
M  V30 7218 H 688.561 -2.98021 -1.27882 0
M  V30 7219 H 688.346 -3.91426 0.229863 0
M  V30 7220 H 689.836 -4.10976 -0.740817 0
M  V30 7221 N 690.273 -0.685099 -1.4193 0
M  V30 7222 C 691.498 -0.218842 -2.06242 0
M  V30 7223 C 691.923 1.11923 -1.51178 0
M  V30 7224 O 691.281 1.69837 -0.634446 0
M  V30 7225 C 691.329 -0.175592 -3.60172 0
M  V30 7226 O 690.433 0.852776 -4.03487 0
M  V30 7227 H 689.774 -0.109531 -0.654904 0
M  V30 7228 H 692.304 -0.937013 -1.81882 0
M  V30 7229 H 692.314 -0.00291151 -4.08 0
M  V30 7230 H 690.989 -1.15222 -3.99621 0
M  V30 7231 H 689.566 0.650301 -3.67186 0
M  V30 7232 N 691.751 1.51645 -0.429126 0
M  V30 7233 C 692.997 2.02314 0.140286 0
M  V30 7234 C 693.33 1.31314 1.43074 0
M  V30 7235 O 692.605 0.425531 1.89788 0
M  V30 7236 C 692.888 3.5822 0.36749 0
M  V30 7237 C 692.741 4.39846 -0.941039 0
M  V30 7238 C 694.06 4.25055 1.14089 0
M  V30 7239 H 691.179 0.735335 0.0495112 0
M  V30 7240 H 693.821 1.81358 -0.566514 0
M  V30 7241 H 691.971 3.76207 0.969556 0
M  V30 7242 H 693.643 4.33527 -1.57646 0
M  V30 7243 H 691.886 4.05259 -1.54751 0
M  V30 7244 H 692.557 5.47069 -0.73621 0
M  V30 7245 H 695.033 4.11288 0.630986 0
M  V30 7246 H 693.909 5.34038 1.26863 0
M  V30 7247 H 694.17 3.85358 2.16683 0
M  V30 7248 N 693.229 0.160201 1.56784 0
M  V30 7249 C 694.161 -0.80564 2.14574 0
M  V30 7250 C 695.174 -1.20154 1.09849 0
M  V30 7251 O 696.363 -1.14333 1.37078 0
M  V30 7252 C 693.463 -2.09434 2.6644 0
M  V30 7253 C 692.636 -1.86375 3.95706 0
M  V30 7254 C 691.695 -2.99358 4.32749 0
M  V30 7255 O 690.721 -2.70475 5.00831 0
M  V30 7256 N 691.923 -4.26867 3.93402 0
M  V30 7257 H 694.688 -0.311644 2.98075 0
M  V30 7258 H 692.249 -0.0229465 1.61884 0
M  V30 7259 H 694.241 -2.84091 2.88226 0
M  V30 7260 H 692.811 -2.50057 1.8759 0
M  V30 7261 H 692.031 -0.956821 3.82412 0
M  V30 7262 H 693.319 -1.68322 4.80151 0
M  V30 7263 H 692.717 -4.53197 3.38569 0
M  V30 7264 H 691.274 -4.98263 4.20211 0
M  V30 7265 N 694.707 -1.5719 -0.113559 0
M  V30 7266 C 695.935 -1.89328 -0.834422 0
M  V30 7267 C 696.35 -0.752018 -1.73177 0
M  V30 7268 O 695.707 0.276912 -1.80387 0
M  V30 7269 C 695.758 -3.20962 -1.66329 0
M  V30 7270 O 695.479 -4.30695 -0.802069 0
M  V30 7271 C 696.98 -3.6684 -2.48884 0
M  V30 7272 H 694.2 -0.626769 -0.239587 0
M  V30 7273 H 696.744 -2.04273 -0.0963195 0
M  V30 7274 H 694.899 -3.0767 -2.35409 0
M  V30 7275 H 695.313 -5.06175 -1.37431 0
M  V30 7276 H 696.787 -4.61692 -3.02563 0
M  V30 7277 H 697.264 -2.93765 -3.26495 0
M  V30 7278 H 697.87 -3.82938 -1.85036 0
M  V30 7279 N 696.185 0.383891 -1.52853 0
M  V30 7280 C 697.133 1.48965 -1.7864 0
M  V30 7281 C 698.127 1.56242 -0.654577 0
M  V30 7282 O 699.333 1.59347 -0.83716 0
M  V30 7283 H 695.708 0.495892 -0.565328 0
M  V30 7284 H 697.679 1.24411 -2.71228 0
M  V30 7285 C 696.428 2.86036 -1.97683 0
M  V30 7286 H 695.751 2.81188 -2.84206 0
M  V30 7287 H 697.191 3.62632 -2.19713 0
M  V30 7288 C 695.65 3.28428 -0.750776 0
M  V30 7289 O 696.18 4.0164 0.0693491 0
M  V30 7290 N 694.386 2.84765 -0.579427 0
M  V30 7291 H 693.933 2.25353 -1.24795 0
M  V30 7292 H 693.891 3.13486 0.239544 0
M  V30 7293 N 697.663 1.43903 0.642637 0
M  V30 7294 C 698.573 1.52349 1.78401 0
M  V30 7295 C 699.589 0.409869 1.69104 0
M  V30 7296 O 700.765 0.665548 1.90085 0
M  V30 7297 C 697.83 1.45408 3.14734 0
M  V30 7298 C 696.891 2.67528 3.35749 0
M  V30 7299 C 696.124 2.60909 4.65577 0
M  V30 7300 O 696.347 1.6627 5.45628 0
M  V30 7301 O 695.281 3.5158 4.88544 0
M  V30 7302 H 699.107 2.48752 1.7423 0
M  V30 7303 H 696.692 1.26021 0.802439 0
M  V30 7304 H 698.574 1.44019 3.96026 0
M  V30 7305 H 697.249 0.521437 3.19473 0
M  V30 7306 H 696.156 2.74487 2.5418 0
M  V30 7307 H 697.489 3.598 3.35864 0
M  V30 7308 N 699.141 -0.881989 1.30609 0
M  V30 7309 C 700.387 -1.63647 1.19781 0
M  V30 7310 C 700.72 -1.92632 -0.246265 0
M  V30 7311 O 699.995 -1.54938 -1.17577 0
M  V30 7312 C 700.278 -2.97437 2.02985 0
M  V30 7313 C 700.131 -2.75406 3.55628 0
M  V30 7314 C 701.45 -3.98397 1.86997 0
M  V30 7315 H 698.569 -0.593841 0.436488 0
M  V30 7316 H 701.211 -1.02041 1.60273 0
M  V30 7317 H 699.361 -3.50018 1.68581 0
M  V30 7318 H 701.033 -2.2959 4.00107 0
M  V30 7319 H 699.276 -2.09856 3.79662 0
M  V30 7320 H 699.947 -3.70552 4.09139 0
M  V30 7321 H 702.423 -3.54986 2.17081 0
M  V30 7322 H 701.299 -4.89916 2.47536 0
M  V30 7323 H 701.56 -4.3424 0.829943 0
M  V30 7324 N 700.619 -1.13374 -1.09472 0
M  V30 7325 C 701.867 -0.893422 -1.8128 0
M  V30 7326 C 702.188 0.582029 -1.86111 0
M  V30 7327 O 701.458 1.42305 -1.34633 0
M  V30 7328 H 700.038 -0.327543 -0.67136 0
M  V30 7329 H 702.7 -1.43018 -1.32408 0
M  V30 7330 H 701.796 -1.28374 -2.84476 0
M  V30 7331 N 702.098 1.27442 -0.927168 0
M  V30 7332 C 703.028 2.29256 -0.443188 0
M  V30 7333 C 704.009 1.62701 0.49624 0
M  V30 7334 O 705.194 1.90013 0.401105 0
M  V30 7335 C 702.324 3.45955 0.305366 0
M  V30 7336 C 701.278 4.24501 -0.546178 0
M  V30 7337 C 700.604 5.33671 0.331512 0
M  V30 7338 C 701.904 4.89921 -1.81037 0
M  V30 7339 H 703.598 2.69988 -1.29409 0
M  V30 7340 H 701.144 1.29792 -0.623705 0
M  V30 7341 H 703.097 4.1628 0.654885 0
M  V30 7342 H 701.821 3.04138 1.19029 0
M  V30 7343 H 700.48 3.55921 -0.878398 0
M  V30 7344 H 700.128 4.88096 1.21537 0
M  V30 7345 H 699.828 5.87131 -0.234746 0
M  V30 7346 H 701.352 6.0684 0.676614 0
M  V30 7347 H 702.766 5.52536 -1.52895 0
M  V30 7348 H 701.163 5.53436 -2.32009 0
M  V30 7349 H 702.233 4.13652 -2.53021 0
M  V30 7350 N 703.576 0.692616 1.41565 0
M  V30 7351 C 704.523 0.0254264 2.30786 0
M  V30 7352 C 705.493 -0.774347 1.46946 0
M  V30 7353 O 706.678 -0.742981 1.7574 0
M  V30 7354 C 703.818 -0.907123 3.32964 0
M  V30 7355 C 702.931 -0.0992784 4.31886 0
M  V30 7356 C 702.066 -1.0292 5.21134 0
M  V30 7357 C 701.105 -0.214088 6.11725 0
M  V30 7358 N 700.242 -1.09766 6.93467 0
M  V30 7359 H 705.082 0.792036 2.87282 0
M  V30 7360 H 702.619 0.4023 1.41492 0
M  V30 7361 H 704.577 -1.46181 3.90752 0
M  V30 7362 H 703.207 -1.64016 2.78026 0
M  V30 7363 H 702.259 0.572287 3.76071 0
M  V30 7364 H 703.571 0.532782 4.95946 0
M  V30 7365 H 702.725 -1.65321 5.83741 0
M  V30 7366 H 701.464 -1.69512 4.57293 0
M  V30 7367 H 700.469 0.42302 5.4817 0
M  V30 7368 H 701.694 0.447995 6.77621 0
M  V30 7369 H 699.64 -1.74965 6.32237 0
M  V30 7370 H 699.557 -0.521099 7.54202 0
M  V30 7371 H 700.825 -1.70858 7.60544 0
M  V30 7372 N 705.054 -1.51416 0.437162 0
M  V30 7373 C 705.986 -2.255 -0.410171 0
M  V30 7374 C 706.999 -1.29511 -0.986444 0
M  V30 7375 O 708.188 -1.55266 -0.880614 0
M  V30 7376 C 705.288 -2.99511 -1.58575 0
M  V30 7377 C 704.461 -4.22595 -1.12839 0
M  V30 7378 C 703.52 -4.79187 -2.17407 0
M  V30 7379 O 702.546 -5.4103 -1.76849 0
M  V30 7380 N 703.748 -4.63204 -3.49889 0
M  V30 7381 H 706.513 -2.98856 0.224783 0
M  V30 7382 H 704.074 -1.59699 0.266041 0
M  V30 7383 H 706.066 -3.34258 -2.28152 0
M  V30 7384 H 704.636 -2.29167 -2.12606 0
M  V30 7385 H 703.856 -3.93344 -0.259695 0
M  V30 7386 H 705.144 -5.02468 -0.800196 0
M  V30 7387 H 704.542 -4.13945 -3.85573 0
M  V30 7388 H 703.099 -5.02313 -4.15361 0
M  V30 7389 N 706.532 -0.168513 -1.56696 0
M  V30 7390 C 707.495 0.748928 -2.16619 0
M  V30 7391 C 708.495 1.16007 -1.11351 0
M  V30 7392 O 709.685 1.07748 -1.3688 0
M  V30 7393 C 706.817 2.01904 -2.74677 0
M  V30 7394 H 708.01 0.227317 -2.99037 0
M  V30 7395 H 705.563 0.0810372 -1.5609 0
M  V30 7396 H 706.298 2.58381 -1.95985 0
M  V30 7397 H 706.083 1.73323 -3.51712 0
M  V30 7398 H 707.573 2.67383 -3.20774 0
M  V30 7399 N 708.01 1.57248 0.105221 0
M  V30 7400 C 709.287 1.76566 0.841647 0
M  V30 7401 C 709.667 0.747566 1.9742 0
M  V30 7402 O 709.015 -0.225886 2.27381 0
M  V30 7403 C 709.225 3.22016 1.3456 0
M  V30 7404 C 710.573 3.84911 1.79244 0
M  V30 7405 O 711.597 3.25703 1.44207 0
M  V30 7406 O 710.456 4.89008 2.43995 0
M  V30 7407 H 707.55 0.723443 0.400698 0
M  V30 7408 H 710.096 1.69472 0.0878893 0
M  V30 7409 H 708.868 3.87644 0.533685 0
M  V30 7410 H 708.491 3.33703 2.16167 0
M  V30 7411 N 709.488 -0.375779 1.53054 0
M  V30 7412 C 710.716 -1.14036 1.72637 0
M  V30 7413 C 711.131 -1.83342 0.450687 0
M  V30 7414 O 710.488 -1.7318 -0.575749 0
M  V30 7415 C 710.539 -2.17841 2.88492 0
M  V30 7416 O 710.26 -1.51358 4.11123 0
M  V30 7417 C 711.761 -3.06924 3.19863 0
M  V30 7418 H 708.981 -0.341386 0.577665 0
M  V30 7419 H 711.525 -0.437809 1.99759 0
M  V30 7420 H 709.68 -2.8371 2.63794 0
M  V30 7421 H 710.094 -2.20439 4.75928 0
M  V30 7422 H 711.568 -3.75763 4.04359 0
M  V30 7423 H 712.045 -3.71169 2.34798 0
M  V30 7424 H 712.651 -2.46684 3.46449 0
M  V30 7425 N 710.966 -1.44241 -0.634997 0
M  V30 7426 C 712.212 -1.47038 -1.39669 0
M  V30 7427 C 712.545 -0.101122 -1.93937 0
M  V30 7428 O 711.82 0.880699 -1.73418 0
M  V30 7429 C 712.103 -2.52763 -2.56482 0
M  V30 7430 C 711.956 -3.99032 -2.07589 0
M  V30 7431 C 713.275 -2.55031 -3.58674 0
M  V30 7432 H 710.394 -0.53537 -0.506506 0
M  V30 7433 H 713.036 -1.75898 -0.718317 0
M  V30 7434 H 711.186 -2.28284 -3.14354 0
M  V30 7435 H 712.858 -4.3463 -1.54577 0
M  V30 7436 H 711.101 -4.10994 -1.38804 0
M  V30 7437 H 711.772 -4.68649 -2.91671 0
M  V30 7438 H 714.248 -2.76893 -3.10595 0
M  V30 7439 H 713.124 -3.30916 -4.37934 0
M  V30 7440 H 713.385 -1.59085 -4.12486 0
M  V30 7441 N 712.444 0.87505 -1.31075 0
M  V30 7442 C 713.674 1.65818 -1.2324 0
M  V30 7443 C 714.082 1.8808 0.205536 0
M  V30 7444 O 713.425 1.43548 1.14628 0
M  V30 7445 C 713.487 3.05131 -1.90093 0
M  V30 7446 C 713.151 3.05999 -3.39432 0
M  V30 7447 C 714.148 2.84328 -4.35263 0
M  V30 7448 C 711.833 3.27281 -3.81041 0
M  V30 7449 C 713.827 2.83912 -5.70678 0
M  V30 7450 C 711.514 3.26493 -5.16571 0
M  V30 7451 C 712.512 3.04834 -6.112 0
M  V30 7452 O 712.2 3.03882 -7.44252 0
M  V30 7453 H 711.932 0.52387 -0.427242 0
M  V30 7454 H 714.486 1.10086 -1.73408 0
M  V30 7455 H 712.716 3.62568 -1.34468 0
M  V30 7456 H 714.405 3.65641 -1.76242 0
M  V30 7457 H 715.171 2.67673 -4.04445 0
M  V30 7458 H 711.05 3.43171 -3.07822 0
M  V30 7459 H 714.594 2.66925 -6.44513 0
M  V30 7460 H 710.491 3.42687 -5.47025 0
M  V30 7461 H 711.259 3.19979 -7.53363 0
M  V30 7462 N 713.922 1.13953 1.08869 0
M  V30 7463 C 715.169 0.90481 1.81161 0
M  V30 7464 C 715.497 -0.568824 1.85996 0
M  V30 7465 O 714.752 -1.43723 1.32823 0
M  V30 7466 C 715.051 1.44495 3.26888 0
M  V30 7467 C 714.717 2.93641 3.42178 0
M  V30 7468 C 713.379 3.34361 3.46059 0
M  V30 7469 C 715.731 3.89568 3.46246 0
M  V30 7470 C 713.059 4.69681 3.51592 0
M  V30 7471 C 715.411 5.2474 3.53314 0
M  V30 7472 C 714.075 5.64979 3.55465 0
M  V30 7473 H 713.345 0.331094 0.662916 0
M  V30 7474 H 715.992 1.42242 1.28217 0
M  V30 7475 H 714.297 0.848169 3.82509 0
M  V30 7476 H 715.994 1.23934 3.81368 0
M  V30 7477 H 712.584 2.61156 3.39846 0
M  V30 7478 H 716.768 3.59192 3.42483 0
M  V30 7479 H 712.024 5.00224 3.51547 0
M  V30 7480 H 716.198 5.98882 3.55406 0
M  V30 7481 H 713.825 6.69821 3.59505 0
M  V30 7482 N 715.4 -1.26948 0.933913 0
M  V30 7483 C 716.33 -2.29017 0.45534 0
M  V30 7484 C 717.311 -1.62961 -0.487605 0
M  V30 7485 O 718.496 -1.90223 -0.391022 0
M  V30 7486 C 715.626 -3.46112 -0.287015 0
M  V30 7487 C 714.58 -4.24205 0.568682 0
M  V30 7488 C 713.906 -5.3384 -0.303206 0
M  V30 7489 C 715.206 -4.88954 1.83633 0
M  V30 7490 H 716.9 -2.69298 1.30839 0
M  V30 7491 H 714.446 -1.29459 0.630579 0
M  V30 7492 H 716.399 -4.16622 -0.6328 0
M  V30 7493 H 715.123 -3.04765 -1.17414 0
M  V30 7494 H 713.782 -3.5545 0.897261 0
M  V30 7495 H 713.43 -4.88734 -1.18947 0
M  V30 7496 H 713.13 -5.86998 0.265879 0
M  V30 7497 H 714.654 -6.0719 -0.644423 0
M  V30 7498 H 716.068 -5.51717 1.55823 0
M  V30 7499 H 714.465 -5.52198 2.34941 0
M  V30 7500 H 715.535 -4.12305 2.55211 0
M  V30 7501 N 716.879 -0.700114 -1.41195 0
M  V30 7502 C 718.29 -0.307249 -1.84154 0
M  V30 7503 C 718.641 1.15539 -1.58572 0
M  V30 7504 O 717.766 1.88744 -1.05852 0
M  V30 7505 C 718.361 -0.550872 -3.34292 0
M  V30 7506 C 716.92 -0.211877 -3.75803 0
M  V30 7507 C 716.067 -0.830915 -2.64558 0
M  V30 7508 H 719.018 -0.900431 -1.30683 0
M  V30 7509 H 719.039 0.188954 -3.80031 0
M  V30 7510 H 718.551 -1.61548 -3.5288 0
M  V30 7511 H 716.652 0.848283 -3.62815 0
M  V30 7512 H 716.765 -0.67007 -4.74391 0
M  V30 7513 H 715.129 -0.260155 -2.53368 0
M  V30 7514 H 715.912 -1.89948 -2.85963 0
M  V30 7515 N 718.357 1.51182 -0.445186 0
M  V30 7516 C 719.606 2.01342 0.120189 0
M  V30 7517 C 719.919 1.33353 1.43095 0
M  V30 7518 O 721.125 1.74525 2.07974 0
M  V30 7519 C 719.581 3.58925 0.264732 0
M  V30 7520 C 719.189 4.35855 -1.03606 0
M  V30 7521 C 720.933 4.17208 0.783455 0
M  V30 7522 C 718.84 5.85162 -0.856731 0
M  V30 7523 H 717.77 0.752426 0.0486922 0
M  V30 7524 H 720.421 1.74221 -0.576143 0
M  V30 7525 H 718.803 3.82525 1.02425 0
M  V30 7526 H 719.977 4.23997 -1.80452 0
M  V30 7527 H 718.292 3.89062 -1.48391 0
M  V30 7528 H 720.889 5.26475 0.934239 0
M  V30 7529 H 721.232 3.76892 1.768 0
M  V30 7530 H 721.765 3.97715 0.0820346 0
M  V30 7531 H 718.504 6.29904 -1.81388 0
M  V30 7532 H 718.024 5.99663 -0.128206 0
M  V30 7533 H 719.703 6.44963 -0.513027 0
M  V30 7534 N 719.835 0.176821 1.56605 0
M  V30 7535 C 721.063 -0.472828 2.01425 0
M  V30 7536 C 721.478 -1.56436 1.05703 0
M  V30 7537 O 720.835 -1.82405 0.058808 0
M  V30 7538 C 720.886 -1.04607 3.46034 0
M  V30 7539 O 720.607 0.00189608 4.381 0
M  V30 7540 C 722.108 -1.7734 4.06282 0
M  V30 7541 H 719.328 -0.120503 0.660091 0
M  V30 7542 H 721.872 0.280166 2.02572 0
M  V30 7543 H 720.027 -1.74953 3.45645 0
M  V30 7544 H 720.441 -0.422118 5.22799 0
M  V30 7545 H 721.915 -2.12703 5.09374 0
M  V30 7546 H 722.392 -2.67043 3.4869 0
M  V30 7547 H 722.998 -1.11623 4.10391 0
M  V30 7548 N 721.313 -1.57302 -0.09688 0
M  V30 7549 C 722.724 -1.7496 -0.651595 0
M  V30 7550 C 723.075 -0.798746 -1.79205 0
M  V30 7551 O 722.2 0.0231858 -2.16388 0
M  V30 7552 C 722.795 -3.17259 -1.18878 0
M  V30 7553 C 721.354 -3.36348 -1.68958 0
M  V30 7554 C 720.501 -2.70766 -0.598413 0
M  V30 7555 H 723.452 -1.58173 0.12918 0
M  V30 7556 H 723.473 -3.20033 -2.05814 0
M  V30 7557 H 722.985 -3.8644 -0.358523 0
M  V30 7558 H 721.086 -2.72243 -2.5439 0
M  V30 7559 H 721.199 -4.44654 -1.7838 0
M  V30 7560 H 719.563 -2.32615 -1.03743 0
M  V30 7561 H 720.346 -3.42586 0.221238 0
M  V30 7562 N 722.791 0.367657 -1.53252 0
M  V30 7563 C 723.723 1.47032 -1.75824 0
M  V30 7564 C 724.736 1.49736 -0.63898 0
M  V30 7565 O 725.925 1.53253 -0.915193 0
M  V30 7566 C 723.025 2.85805 -1.82122 0
M  V30 7567 C 722.198 3.06822 -3.11736 0
M  V30 7568 C 721.257 4.25698 -3.09302 0
M  V30 7569 O 720.283 4.20972 -3.83107 0
M  V30 7570 N 721.485 5.33002 -2.29977 0
M  V30 7571 H 724.25 1.28048 -2.70968 0
M  V30 7572 H 721.811 0.557363 -1.52004 0
M  V30 7573 H 723.803 3.63465 -1.77975 0
M  V30 7574 H 722.373 2.98046 -0.942716 0
M  V30 7575 H 721.593 2.1684 -3.29202 0
M  V30 7576 H 722.881 3.17731 -3.97397 0
M  V30 7577 H 722.279 5.39703 -1.69521 0
M  V30 7578 H 720.836 6.09247 -2.3165 0
M  V30 7579 N 724.269 1.44576 0.627338 0
M  V30 7580 C 725.516 1.47558 1.38682 0
M  V30 7581 C 725.844 0.109636 1.94191 0
M  V30 7582 O 725.099 -0.889092 1.74338 0
M  V30 7583 C 725.398 2.48644 2.56731 0
M  V30 7584 C 725.064 3.93873 2.19489 0
M  V30 7585 C 723.726 4.33421 2.09045 0
M  V30 7586 C 726.078 4.85286 1.90124 0
M  V30 7587 C 723.406 5.62303 1.6743 0
M  V30 7588 C 725.758 6.14559 1.50001 0
M  V30 7589 C 724.422 6.53058 1.38101 0
M  V30 7590 H 723.692 0.539955 0.507474 0
M  V30 7591 H 726.339 1.77811 0.711021 0
M  V30 7592 H 724.644 2.11889 3.29561 0
M  V30 7593 H 726.341 2.48197 3.14959 0
M  V30 7594 H 722.931 3.62587 2.28537 0
M  V30 7595 H 727.115 4.55483 1.971 0
M  V30 7596 H 722.371 5.90945 1.56823 0
M  V30 7597 H 726.545 6.84848 1.26319 0
M  V30 7598 H 724.172 7.52826 1.05628 0
M  V30 7599 N 725.747 -0.868086 1.31537 0
M  V30 7600 C 726.993 -1.62367 1.2151 0
M  V30 7601 C 727.326 -1.92883 -0.225819 0
M  V30 7602 O 726.601 -1.56176 -1.15927 0
M  V30 7603 C 726.884 -2.95268 2.06129 0
M  V30 7604 C 726.737 -2.71619 3.58529 0
M  V30 7605 C 728.056 -3.96391 1.91212 0
M  V30 7606 H 725.175 -0.589178 0.442762 0
M  V30 7607 H 727.817 -1.00336 1.61347 0
M  V30 7608 H 725.967 -3.4821 1.72284 0
M  V30 7609 H 727.639 -2.25334 4.0252 0
M  V30 7610 H 725.882 -2.05817 3.81866 0
M  V30 7611 H 726.553 -3.66192 4.13047 0
M  V30 7612 H 729.029 -3.52663 2.20834 0
M  V30 7613 H 727.905 -4.87263 2.52718 0
M  V30 7614 H 728.166 -4.33335 0.875953 0
M  V30 7615 N 727.225 -1.14528 -1.08264 0
M  V30 7616 C 728.453 -0.937964 -1.84418 0
M  V30 7617 C 728.868 0.51357 -1.81681 0
M  V30 7618 O 728.225 1.35591 -1.22153 0
M  V30 7619 C 728.276 -1.43272 -3.31897 0
M  V30 7620 O 727.997 -2.82738 -3.34651 0
M  V30 7621 C 729.498 -1.26555 -4.24851 0
M  V30 7622 H 726.718 -0.333704 -0.582136 0
M  V30 7623 H 729.262 -1.52076 -1.36723 0
M  V30 7624 H 727.417 -0.892653 -3.76975 0
M  V30 7625 H 727.831 -3.04971 -4.26724 0
M  V30 7626 H 729.305 -1.66031 -5.26439 0
M  V30 7627 H 729.782 -0.208589 -4.38704 0
M  V30 7628 H 730.388 -1.79423 -3.856 0
M  V30 7629 N 728.703 1.26451 -0.940633 0
M  V30 7630 C 729.613 2.30128 -0.455881 0
M  V30 7631 C 730.629 1.67536 0.469867 0
M  V30 7632 O 731.805 1.98344 0.349529 0
M  V30 7633 C 728.87 3.45634 0.271648 0
M  V30 7634 C 727.931 4.23709 -0.690594 0
M  V30 7635 C 727.164 5.337 0.00231047 0
M  V30 7636 O 727.387 5.57215 1.21935 0
M  V30 7637 O 726.321 5.98091 -0.676111 0
M  V30 7638 H 730.147 2.73655 -1.31707 0
M  V30 7639 H 727.732 1.3164 -0.706497 0
M  V30 7640 H 729.614 4.15853 0.681486 0
M  V30 7641 H 728.289 3.04138 1.10824 0
M  V30 7642 H 727.196 3.55974 -1.15037 0
M  V30 7643 H 728.529 4.68953 -1.49478 0
M  V30 7644 N 730.181 0.707592 1.40822 0
M  V30 7645 C 731.427 0.244031 2.01326 0
M  V30 7646 C 731.76 -1.15722 1.55955 0
M  V30 7647 O 731.035 -1.78347 0.776044 0
M  V30 7648 C 731.318 0.315128 3.58718 0
M  V30 7649 C 731.171 1.75419 4.14184 0
M  V30 7650 C 732.49 -0.318251 4.38948 0
M  V30 7651 H 729.609 0.0901471 0.731466 0
M  V30 7652 H 732.251 0.898584 1.67408 0
M  V30 7653 H 730.401 -0.242176 3.87744 0
M  V30 7654 H 732.073 2.36626 3.95987 0
M  V30 7655 H 730.316 2.28449 3.68773 0
M  V30 7656 H 730.987 1.75538 5.23345 0
M  V30 7657 H 733.463 0.156514 4.15806 0
M  V30 7658 H 732.339 -0.238019 5.48384 0
M  V30 7659 H 732.6 -1.40067 4.19325 0
M  V30 7660 N 731.66 -1.50943 0.453197 0
M  V30 7661 C 732.909 -2.01402 -0.10951 0
M  V30 7662 C 733.222 -1.3411 -1.42386 0
M  V30 7663 O 734.428 -1.75626 -2.07045 0
M  V30 7664 C 732.884 -3.5906 -0.245693 0
M  V30 7665 C 732.492 -4.353 1.05916 0
M  V30 7666 C 734.236 -4.17617 -0.761318 0
M  V30 7667 C 732.143 -5.84699 0.887752 0
M  V30 7668 H 731.073 -0.752674 -0.0447013 0
M  V30 7669 H 733.724 -1.73913 0.585375 0
M  V30 7670 H 732.106 -3.83062 -1.00395 0
M  V30 7671 H 733.28 -4.23034 1.82698 0
M  V30 7672 H 731.595 -3.88269 1.50452 0
M  V30 7673 H 734.192 -5.26963 -0.906306 0
M  V30 7674 H 734.535 -3.77824 -1.74799 0
M  V30 7675 H 735.068 -3.97753 -0.0609416 0
M  V30 7676 H 731.807 -6.28933 1.84726 0
M  V30 7677 H 731.327 -5.99587 0.160006 0
M  V30 7678 H 733.006 -6.44682 0.547223 0
M  V30 7679 N 733.138 -0.185124 -1.56509 0
M  V30 7680 C 734.085 0.739729 -2.18624 0
M  V30 7681 C 735.055 1.217 -1.13042 0
M  V30 7682 O 736.24 1.28268 -1.41251 0
M  V30 7683 C 733.38 1.95787 -2.84186 0
M  V30 7684 C 732.493 1.52289 -4.04267 0
M  V30 7685 C 731.628 2.69576 -4.57714 0
M  V30 7686 C 730.667 2.22636 -5.70175 0
M  V30 7687 N 729.804 3.33065 -6.18071 0
M  V30 7688 H 734.644 0.203269 -2.97306 0
M  V30 7689 H 732.181 0.0885946 -1.46833 0
M  V30 7690 H 734.139 2.67253 -3.20361 0
M  V30 7691 H 732.769 2.4678 -2.08085 0
M  V30 7692 H 731.821 0.704458 -3.7382 0
M  V30 7693 H 733.133 1.13843 -4.85635 0
M  V30 7694 H 732.287 3.4918 -4.96143 0
M  V30 7695 H 731.026 3.1129 -3.75433 0
M  V30 7696 H 730.031 1.41483 -5.31284 0
M  V30 7697 H 731.256 1.81964 -6.54267 0
M  V30 7698 H 729.202 3.74328 -5.38715 0
M  V30 7699 H 729.119 2.98756 -6.94464 0
M  V30 7700 H 730.387 4.12912 -6.61153 0
M  V30 7701 N 734.616 1.57351 0.0885366 0
M  V30 7702 C 735.579 2.01557 1.09121 0
M  V30 7703 C 736.579 0.910052 1.3257 0
M  V30 7704 O 737.769 1.17537 1.28572 0
M  V30 7705 C 734.901 2.38189 2.43883 0
M  V30 7706 H 736.094 2.91361 0.710562 0
M  V30 7707 H 733.647 1.52694 0.333779 0
M  V30 7708 H 734.382 1.5136 2.86811 0
M  V30 7709 H 734.167 3.18846 2.28209 0
M  V30 7710 H 735.657 2.73025 3.15986 0
M  V30 7711 N 736.094 -0.359525 1.53444 0
M  V30 7712 C 737.004 -1.46445 1.83278 0
M  V30 7713 C 738.02 -1.5833 0.721629 0
M  V30 7714 O 739.196 -1.7411 1.01231 0
M  V30 7715 C 736.261 -2.81638 2.02191 0
M  V30 7716 C 735.322 -2.7923 3.26082 0
M  V30 7717 C 734.555 -4.07974 3.44082 0
M  V30 7718 O 734.778 -5.04447 2.66251 0
M  V30 7719 O 733.712 -4.13417 4.37458 0
M  V30 7720 H 737.538 -1.24156 2.77162 0
M  V30 7721 H 735.123 -0.550201 1.389 0
M  V30 7722 H 737.005 -3.61732 2.16167 0
M  V30 7723 H 735.68 -3.03892 1.11496 0
M  V30 7724 H 734.587 -1.97813 3.17523 0
M  V30 7725 H 735.92 -2.6193 4.16718 0
M  V30 7726 N 737.572 -1.44907 -0.619662 0
M  V30 7727 C 738.504 -1.48652 -1.74457 0
M  V30 7728 C 739.517 -0.378596 -1.58337 0
M  V30 7729 O 740.706 -0.644987 -1.6644 0
M  V30 7730 C 737.806 -1.31568 -3.12319 0
M  V30 7731 C 736.979 -2.55816 -3.54792 0
M  V30 7732 C 736.038 -2.33465 -4.71573 0
M  V30 7733 O 735.064 -3.07015 -4.79302 0
M  V30 7734 N 736.266 -1.37254 -5.6404 0
M  V30 7735 H 739.031 -2.45632 -1.71712 0
M  V30 7736 H 736.592 -1.40492 -0.804582 0
M  V30 7737 H 738.584 -1.14445 -3.88181 0
M  V30 7738 H 737.154 -0.429095 -3.09641 0
M  V30 7739 H 736.374 -2.88137 -2.69018 0
M  V30 7740 H 737.662 -3.38431 -3.79924 0
M  V30 7741 H 737.06 -0.765309 -5.60499 0
M  V30 7742 H 735.617 -1.26106 -6.39485 0
M  V30 7743 N 739.05 0.861098 -1.31996 0
M  V30 7744 C 740.461 1.43065 -1.19955 0
M  V30 7745 C 740.812 1.95273 0.190489 0
M  V30 7746 O 739.937 1.87012 1.08882 0
M  V30 7747 C 740.532 2.60052 -2.1716 0
M  V30 7748 C 739.091 3.13026 -2.09026 0
M  V30 7749 C 738.238 1.85756 -2.05888 0
M  V30 7750 H 741.189 0.668834 -1.43918 0
M  V30 7751 H 741.21 3.37016 -1.76637 0
M  V30 7752 H 740.722 2.22024 -3.18319 0
M  V30 7753 H 738.823 3.55653 -1.11092 0
M  V30 7754 H 738.936 3.74707 -2.98549 0
M  V30 7755 H 737.3 2.05088 -1.51033 0
M  V30 7756 H 738.083 1.49954 -3.08818 0
M  V30 7757 N 740.528 1.15101 1.07655 0
M  V30 7758 C 741.805 0.834578 1.76902 0
M  V30 7759 C 742.185 -0.670431 2.00171 0
M  V30 7760 O 741.533 -1.61378 1.6177 0
M  V30 7761 C 741.743 1.64191 3.07965 0
M  V30 7762 C 743.091 1.84615 3.82364 0
M  V30 7763 O 744.115 1.60941 3.17768 0
M  V30 7764 O 742.974 2.24244 4.98374 0
M  V30 7765 H 740.068 0.306608 0.768063 0
M  V30 7766 H 742.614 1.25663 1.14048 0
M  V30 7767 H 741.386 2.66386 2.86626 0
M  V30 7768 H 741.009 1.216 3.78549 0
M  V30 7769 N 742.006 -1.2595 0.947325 0
M  V30 7770 C 743.254 -1.93081 0.596996 0
M  V30 7771 C 743.575 -1.74632 -0.867672 0
M  V30 7772 O 742.845 -1.1056 -1.6172 0
M  V30 7773 H 741.425 -0.714542 0.217805 0
M  V30 7774 H 744.087 -1.53265 1.20398 0
M  V30 7775 H 743.183 -3.01134 0.82004 0
M  V30 7776 N 743.484 -0.715051 -1.40445 0
M  V30 7777 C 744.414 -0.0768699 -2.33373 0
M  V30 7778 C 745.395 0.746109 -1.52863 0
M  V30 7779 O 746.58 0.695142 -1.81332 0
M  V30 7780 C 743.71 0.846014 -3.36838 0
M  V30 7781 C 742.664 0.128694 -4.27806 0
M  V30 7782 C 741.99 1.16726 -5.21804 0
M  V30 7783 C 743.29 -1.01679 -5.12307 0
M  V30 7784 H 744.984 -0.853061 -2.8699 0
M  V30 7785 H 742.53 -0.41167 -1.3799 0
M  V30 7786 H 744.483 1.30185 -4.00786 0
M  V30 7787 H 743.207 1.6541 -2.81615 0
M  V30 7788 H 741.866 -0.307314 -3.6531 0
M  V30 7789 H 741.514 1.96838 -4.62887 0
M  V30 7790 H 741.214 0.692188 -5.83509 0
M  V30 7791 H 742.738 1.62321 -5.88629 0
M  V30 7792 H 744.152 -0.640337 -5.69713 0
M  V30 7793 H 742.549 -1.4202 -5.83053 0
M  V30 7794 H 743.619 -1.84769 -4.48317 0
M  V30 7795 N 744.962 1.50701 -0.461195 0
M  V30 7796 C 746.211 2.01458 0.0988277 0
M  V30 7797 C 746.524 1.34863 1.41673 0
M  V30 7798 O 747.73 1.76721 2.06111 0
M  V30 7799 C 746.186 3.59186 0.226648 0
M  V30 7800 C 745.794 4.34732 -1.08223 0
M  V30 7801 C 747.538 4.18015 0.73916 0
M  V30 7802 C 745.445 5.8422 -0.918747 0
M  V30 7803 H 744.375 0.7529 0.040709 0
M  V30 7804 H 747.026 1.736 -0.594589 0
M  V30 7805 H 745.408 3.83589 0.983621 0
M  V30 7806 H 746.582 4.22059 -1.84939 0
M  V30 7807 H 744.897 3.87466 -1.52509 0
M  V30 7808 H 747.494 5.27436 0.878347 0
M  V30 7809 H 747.837 3.78746 1.72793 0
M  V30 7810 H 748.37 3.9778 0.0398469 0
M  V30 7811 H 745.109 6.27944 -1.88059 0
M  V30 7812 H 744.629 5.99493 -0.191801 0
M  V30 7813 H 746.308 6.44382 -0.581405 0
M  V30 7814 N 746.441 0.193421 1.56409 0
M  V30 7815 C 747.371 -0.723334 2.22014 0
M  V30 7816 C 748.352 -1.22254 1.1827 0
M  V30 7817 O 749.537 -1.27168 1.46771 0
M  V30 7818 C 746.667 -1.94366 2.87818 0
M  V30 7819 C 745.621 -1.57943 3.97791 0
M  V30 7820 C 744.947 -2.87623 4.50752 0
M  V30 7821 C 746.247 -0.790639 5.16281 0
M  V30 7822 H 747.941 -0.176426 2.9888 0
M  V30 7823 H 745.487 -0.0834166 1.43758 0
M  V30 7824 H 747.44 -2.5902 3.32396 0
M  V30 7825 H 746.164 -2.51507 2.08355 0
M  V30 7826 H 744.823 -0.956482 3.53903 0
M  V30 7827 H 744.471 -3.4285 3.68053 0
M  V30 7828 H 744.171 -2.63998 5.24956 0
M  V30 7829 H 745.695 -3.53268 4.9803 0
M  V30 7830 H 747.109 -1.34024 5.57414 0
M  V30 7831 H 745.506 -0.65258 5.96541 0
M  V30 7832 H 746.576 0.208633 4.84451 0
M  V30 7833 N 747.919 -1.57396 -0.0801906 0
M  V30 7834 C 749.167 -1.86467 -0.779384 0
M  V30 7835 C 749.488 -0.784243 -1.78535 0
M  V30 7836 O 748.758 0.187986 -1.94996 0
M  V30 7837 H 747.338 -0.68806 -0.29083 0
M  V30 7838 H 750 -1.94813 -0.0582749 0
M  V30 7839 H 749.096 -2.83701 -1.30078 0
M  V30 7840 N 749.397 0.351382 -1.53633 0
M  V30 7841 C 750.33 1.45407 -1.75875 0
M  V30 7842 C 751.308 1.50822 -0.607566 0
M  V30 7843 O 752.492 1.68658 -0.841818 0
M  V30 7844 C 749.619 2.8369 -1.85034 0
M  V30 7845 C 748.665 2.95935 -3.07123 0
M  V30 7846 S 749.498 2.63215 -4.66345 0
M  V30 7847 C 750.654 4.03622 -4.78373 0
M  V30 7848 H 750.887 1.26322 -2.69128 0
M  V30 7849 H 748.42 0.546581 -1.44402 0
M  V30 7850 H 750.378 3.6336 -1.90996 0
M  V30 7851 H 749.039 3.00076 -0.928074 0
M  V30 7852 H 748.232 3.97243 -3.10183 0
M  V30 7853 H 747.834 2.24205 -2.99346 0
M  V30 7854 H 750.126 4.98046 -4.593 0
M  V30 7855 H 751.069 4.05559 -5.80454 0
M  V30 7856 H 751.477 3.91282 -4.06889 0
M  V30 7857 N 750.875 1.45233 0.611969 0
M  V30 7858 C 752.123 1.48727 1.36838 0
M  V30 7859 C 752.444 0.128616 1.94575 0
M  V30 7860 O 751.714 -0.84149 1.76906 0
M  V30 7861 H 750.294 0.547695 0.507976 0
M  V30 7862 H 752.956 1.81156 0.718925 0
M  V30 7863 H 752.052 2.2236 2.19003 0
M  V30 7864 N 752.353 -0.854086 1.3245 0
M  V30 7865 C 753.601 -1.60513 1.228 0
M  V30 7866 C 753.922 -1.93865 -0.210073 0
M  V30 7867 O 753.192 -1.59673 -1.13496 0
M  V30 7868 H 751.772 -0.595099 0.451516 0
M  V30 7869 H 754.434 -1.0216 1.6598 0
M  V30 7870 H 753.53 -2.54182 1.81102 0
M  V30 7871 N 753.831 -1.1567 -1.07043 0
M  V30 7872 C 754.763 -0.814095 -2.14255 0
M  V30 7873 C 755.776 0.175293 -1.61854 0
M  V30 7874 O 756.965 -0.0483984 -1.78434 0
M  V30 7875 C 754.065 -0.190082 -3.38367 0
M  V30 7876 C 753.238 -1.21768 -4.20109 0
M  V30 7877 C 752.297 -0.614863 -5.22595 0
M  V30 7878 O 751.323 -1.28167 -5.54583 0
M  V30 7879 N 752.525 0.601955 -5.77371 0
M  V30 7880 H 755.29 -1.73677 -2.44247 0
M  V30 7881 H 752.851 -1.05301 -1.22977 0
M  V30 7882 H 754.843 0.22604 -4.04068 0
M  V30 7883 H 753.413 0.635992 -3.06062 0
M  V30 7884 H 752.633 -1.81025 -3.50177 0
M  V30 7885 H 753.921 -1.9114 -4.71533 0
M  V30 7886 H 753.319 1.162 -5.53637 0
M  V30 7887 H 751.876 0.96039 -6.44686 0
M  V30 7888 N 755.309 1.25446 -0.953992 0
M  V30 7889 C 756.537 1.97215 -0.625595 0
M  V30 7890 C 756.952 1.70911 0.802168 0
M  V30 7891 O 756.309 0.984782 1.5365 0
M  V30 7892 C 756.36 3.50777 -0.873943 0
M  V30 7893 O 756.081 3.76173 -2.24556 0
M  V30 7894 C 757.582 4.39776 -0.557845 0
M  V30 7895 H 754.802 0.628652 -0.2346 0
M  V30 7896 H 757.346 1.59632 -1.27819 0
M  V30 7897 H 755.501 3.86474 -0.267765 0
M  V30 7898 H 755.915 4.70636 -2.31522 0
M  V30 7899 H 757.389 5.46431 -0.782157 0
M  V30 7900 H 757.866 4.36257 0.507573 0
M  V30 7901 H 758.472 4.09644 -1.14332 0
M  V30 7902 N 756.787 0.722489 1.40064 0
M  V30 7903 C 757.75 0.0830209 2.2905 0
M  V30 7904 C 758.75 -0.680208 1.45705 0
M  V30 7905 O 759.94 -0.511084 1.66534 0
M  V30 7906 C 757.072 -0.892092 3.29021 0
M  V30 7907 H 758.265 0.866848 2.87099 0
M  V30 7908 H 755.818 0.487556 1.48501 0
M  V30 7909 H 756.553 -1.70273 2.76003 0
M  V30 7910 H 756.338 -0.34761 3.90556 0
M  V30 7911 H 757.828 -1.33648 3.95636 0
M  V30 7912 N 758.265 -1.50454 0.469181 0
M  V30 7913 C 759.195 -2.31353 -0.31592 0
M  V30 7914 C 760.176 -1.38172 -0.992094 0
M  V30 7915 O 761.361 -1.67093 -0.989633 0
M  V30 7916 C 758.491 -3.1786 -1.39937 0
M  V30 7917 C 757.445 -4.19578 -0.844909 0
M  V30 7918 C 756.771 -4.9481 -2.0265 0
M  V30 7919 C 758.071 -5.22106 0.142499 0
M  V30 7920 H 759.765 -2.97237 0.359269 0
M  V30 7921 H 757.311 -1.42942 0.174224 0
M  V30 7922 H 759.264 -3.7325 -1.95607 0
M  V30 7923 H 757.988 -2.49858 -2.1033 0
M  V30 7924 H 756.647 -3.65285 -0.310189 0
M  V30 7925 H 756.295 -4.23282 -2.71737 0
M  V30 7926 H 755.995 -5.63613 -1.66174 0
M  V30 7927 H 757.519 -5.53035 -2.58815 0
M  V30 7928 H 758.933 -5.72378 -0.324966 0
M  V30 7929 H 757.33 -5.98618 0.421441 0
M  V30 7930 H 758.4 -4.7297 1.06901 0
M  V30 7931 N 759.743 -0.201713 -1.56304 0
M  V30 7932 C 760.691 0.733133 -2.20744 0
M  V30 7933 C 761.685 1.2148 -1.18064 0
M  V30 7934 O 762.891 1.17692 -1.36193 0
M  V30 7935 H 759.266 0.254789 -0.707521 0
M  V30 7936 H 761.237 0.165996 -2.97938 0
M  V30 7937 C 759.986 1.93925 -2.88597 0
M  V30 7938 H 759.309 1.5777 -3.67353 0
M  V30 7939 H 760.749 2.57158 -3.37114 0
M  V30 7940 C 759.208 2.78219 -1.89989 0
M  V30 7941 O 759.738 3.76353 -1.40432 0
M  V30 7942 N 757.944 2.43847 -1.58072 0
M  V30 7943 H 757.491 1.64103 -1.98565 0
M  V30 7944 H 757.449 3.0053 -0.923524 0
M  V30 7945 N 761.222 1.57436 0.0718424 0
M  V30 7946 C 762.462 1.89082 0.776351 0
M  V30 7947 C 762.826 0.795494 1.74745 0
M  V30 7948 O 764.027 0.995025 2.49705 0
M  V30 7949 C 762.298 3.25958 1.46582 0
M  V30 7950 S 763.857 3.79352 2.2054 0
M  V30 7951 H 760.675 0.662472 0.25817 0
M  V30 7952 H 763.277 1.95473 0.0324536 0
M  V30 7953 H 761.981 4.03577 0.745237 0
M  V30 7954 H 761.512 3.22764 2.24915 0
M  V30 7955 H 763.527 3.54634 3.47058 0
M  V30 7956 N 762.7 -0.34323 1.53817 0
M  V30 7957 C 763.948 -1.0813 1.70741 0
M  V30 7958 C 764.269 -1.89165 0.473461 0
M  V30 7959 O 763.539 -1.89075 -0.512605 0
M  V30 7960 H 762.119 -0.40219 0.629486 0
M  V30 7961 H 764.781 -0.384426 1.91071 0
M  V30 7962 H 763.877 -1.7585 2.57843 0
M  V30 7963 N 764.178 -1.45556 -0.604258 0
M  V30 7964 C 765.424 -1.49968 -1.36519 0
M  V30 7965 C 765.757 -0.142236 -1.93678 0
M  V30 7966 O 765.032 0.843717 -1.75247 0
M  V30 7967 C 765.315 -2.58146 -2.51063 0
M  V30 7968 C 765.168 -4.03346 -1.99078 0
M  V30 7969 C 766.487 -2.62581 -3.53184 0
M  V30 7970 H 763.606 -0.545993 -0.495036 0
M  V30 7971 H 766.248 -1.77382 -0.680845 0
M  V30 7972 H 764.398 -2.34901 -3.09441 0
M  V30 7973 H 766.07 -4.37811 -1.45323 0
M  V30 7974 H 764.313 -4.13845 -1.30055 0
M  V30 7975 H 764.984 -4.74731 -2.81664 0
M  V30 7976 H 767.46 -2.83419 -3.04652 0
M  V30 7977 H 766.336 -3.40131 -4.30816 0
M  V30 7978 H 766.597 -1.67798 -4.09019 0
M  V30 7979 N 765.656 0.84705 -1.32902 0
M  V30 7980 C 766.566 1.98845 -1.2449 0
M  V30 7981 C 767.582 1.7329 -0.15702 0
M  V30 7982 O 768.758 1.978 -0.379104 0
M  V30 7983 C 765.823 3.32679 -0.975985 0
M  V30 7984 C 764.884 3.71405 -2.15306 0
M  V30 7985 C 764.117 4.98853 -1.89688 0
M  V30 7986 O 764.34 5.64134 -0.843168 0
M  V30 7987 O 763.274 5.34889 -2.76002 0
M  V30 7988 H 767.1 2.0888 -2.2046 0
M  V30 7989 H 764.685 0.978852 -1.12867 0
M  V30 7990 H 766.567 4.12885 -0.842826 0
M  V30 7991 H 765.242 3.23667 -0.0464954 0
M  V30 7992 H 764.149 2.91743 -2.34172 0
M  V30 7993 H 765.482 3.85073 -3.06561 0
M  V30 7994 N 767.134 1.16236 1.06428 0
M  V30 7995 C 768.064 0.890807 2.1584 0
M  V30 7996 C 769.045 -0.162333 1.69324 0
M  V30 7997 O 770.23 -0.0147191 1.94194 0
M  V30 7998 C 767.36 0.389615 3.45108 0
M  V30 7999 C 766.314 1.38051 4.05125 0
M  V30 8000 C 765.64 0.737773 5.29586 0
M  V30 8001 C 766.94 2.74965 4.44062 0
M  V30 8002 H 768.634 1.80577 2.38814 0
M  V30 8003 H 766.18 0.869657 1.14774 0
M  V30 8004 H 768.133 0.187127 4.20984 0
M  V30 8005 H 766.857 -0.560851 3.21748 0
M  V30 8006 H 765.516 1.56952 3.31303 0
M  V30 8007 H 765.164 -0.219135 5.02522 0
M  V30 8008 H 764.864 1.39914 5.70699 0
M  V30 8009 H 766.388 0.545275 6.0816 0
M  V30 8010 H 767.802 2.59855 5.11027 0
M  V30 8011 H 766.199 3.37563 4.96156 0
M  V30 8012 H 767.269 3.30321 3.54987 0
M  V30 8013 N 768.612 -1.24939 0.960631 0
M  V30 8014 C 769.859 -1.92818 0.618663 0
M  V30 8015 C 770.187 -1.75177 -0.845173 0
M  V30 8016 O 769.442 -1.09412 -1.62258 0
M  V30 8017 C 769.741 -3.45066 0.930809 0
M  V30 8018 C 769.407 -3.82869 2.38164 0
M  V30 8019 C 768.069 -3.92899 2.7782 0
M  V30 8020 C 770.421 -4.01483 3.32356 0
M  V30 8021 C 767.749 -4.18955 4.10723 0
M  V30 8022 C 770.101 -4.29033 4.6488 0
M  V30 8023 C 768.765 -4.37282 5.04322 0
M  V30 8024 H 768.035 -0.705571 0.226385 0
M  V30 8025 H 770.682 -1.48365 1.21079 0
M  V30 8026 H 768.987 -3.9096 0.256355 0
M  V30 8027 H 770.684 -3.95783 0.644712 0
M  V30 8028 H 767.274 -3.75622 2.06413 0
M  V30 8029 H 771.458 -3.93143 3.02907 0
M  V30 8030 H 766.714 -4.23558 4.40918 0
M  V30 8031 H 770.888 -4.42381 5.3784 0
M  V30 8032 H 768.515 -4.57225 6.0733 0
M  V30 8033 N 770.09 -0.729906 -1.39679 0
M  V30 8034 C 771.037 -0.0866063 -2.30637 0
M  V30 8035 C 772.007 0.735115 -1.48947 0
M  V30 8036 O 773.192 0.696125 -1.77648 0
M  V30 8037 C 770.332 0.818524 -3.35252 0
M  V30 8038 C 769.445 -0.0152635 -4.31997 0
M  V30 8039 C 768.58 0.890669 -5.2368 0
M  V30 8040 C 767.619 0.0518246 -6.12078 0
M  V30 8041 N 766.756 0.913411 -6.96133 0
M  V30 8042 H 771.596 -0.867925 -2.85081 0
M  V30 8043 H 769.133 -0.439673 -1.40376 0
M  V30 8044 H 771.091 1.3577 -3.9449 0
M  V30 8045 H 769.721 1.56587 -2.82277 0
M  V30 8046 H 768.773 -0.671794 -3.74421 0
M  V30 8047 H 770.085 -0.664086 -4.9436 0
M  V30 8048 H 769.239 1.49787 -5.87919 0
M  V30 8049 H 767.978 1.57328 -4.61627 0
M  V30 8050 H 766.983 -0.568209 -5.46856 0
M  V30 8051 H 768.208 -0.627497 -6.76195 0
M  V30 8052 H 766.154 1.58141 -6.36653 0
M  V30 8053 H 766.071 0.320952 -7.55318 0
M  V30 8054 H 767.339 1.50633 -7.64807 0
M  V30 8055 N 771.568 1.50203 -0.477153 0
M  V30 8056 C 772.984 1.59056 -0.131663 0
M  V30 8057 C 773.184 1.48473 1.36227 0
M  V30 8058 O 772.24 1.34635 2.13611 0
M  V30 8059 C 773.553 2.92741 -0.687254 0
M  V30 8060 C 775.101 3.0615 -0.651223 0
M  V30 8061 C 775.576 4.42419 -1.18446 0
M  V30 8062 N 777.067 4.48847 -1.14413 0
M  V30 8063 C 777.802 5.52689 -1.52717 0
M  V30 8064 N 777.298 6.63754 -1.98499 0
M  V30 8065 N 779.091 5.43267 -1.44282 0
M  V30 8066 H 771.242 1.55325 -1.44872 0
M  V30 8067 H 773.505 0.734395 -0.599473 0
M  V30 8068 H 773.211 3.0598 -1.73405 0
M  V30 8069 H 773.085 3.76961 -0.134215 0
M  V30 8070 H 775.472 2.92556 0.386677 0
M  V30 8071 H 775.553 2.23673 -1.24114 0
M  V30 8072 H 775.197 4.56763 -2.22103 0
M  V30 8073 H 775.127 5.23498 -0.570709 0
M  V30 8074 H 777.618 3.69152 -0.808416 0
M  V30 8075 H 777.931 7.39059 -2.25859 0
M  V30 8076 H 776.276 6.64858 -2.02456 0
M  V30 8077 H 779.467 4.55387 -1.08352 0
M  V30 8078 H 779.64 6.24074 -1.74459 0
M  V30 8079 N 773.046 0.209999 1.56195 0
M  V30 8080 C 774.294 -0.423974 1.97603 0
M  V30 8081 C 774.615 -1.61112 1.09854 0
M  V30 8082 O 773.885 -1.95134 0.173032 0
M  V30 8083 H 772.465 -0.159629 0.729745 0
M  V30 8084 H 775.127 0.300205 1.92574 0
M  V30 8085 H 774.223 -0.75809 3.02753 0
M  V30 8086 N 774.524 -1.57472 -0.0634922 0
M  V30 8087 C 775.77 -1.87932 -0.762194 0
M  V30 8088 C 776.103 -0.803377 -1.76804 0
M  V30 8089 O 775.378 0.185468 -1.93614 0
M  V30 8090 C 775.661 -3.29053 -1.46275 0
M  V30 8091 C 775.514 -4.47309 -0.472755 0
M  V30 8092 C 776.833 -3.68537 -2.40558 0
M  V30 8093 H 773.952 -0.683521 -0.275624 0
M  V30 8094 H 776.594 -1.89983 -0.0252651 0
M  V30 8095 H 774.744 -3.27435 -2.0909 0
M  V30 8096 H 776.416 -4.61053 0.150828 0
M  V30 8097 H 774.659 -4.33286 0.211187 0
M  V30 8098 H 775.33 -5.42853 -1.00072 0
M  V30 8099 H 777.806 -3.71302 -1.87814 0
M  V30 8100 H 776.682 -4.68152 -2.86574 0
M  V30 8101 H 776.943 -2.98917 -3.25731 0
M  V30 8102 N 776.003 0.335068 -1.53997 0
M  V30 8103 C 776.933 1.41727 -1.85568 0
M  V30 8104 C 777.914 1.54505 -0.7115 0
M  V30 8105 O 779.099 1.68573 -0.964191 0
M  V30 8106 C 776.229 2.7866 -2.07282 0
M  V30 8107 C 775.183 2.80682 -3.23112 0
M  V30 8108 C 774.509 4.20581 -3.30175 0
M  V30 8109 C 775.809 2.45458 -4.61029 0
M  V30 8110 H 777.503 1.15555 -2.76202 0
M  V30 8111 H 775.049 0.554445 -1.32898 0
M  V30 8112 H 777.002 3.54423 -2.27952 0
M  V30 8113 H 775.726 3.06286 -1.13387 0
M  V30 8114 H 774.385 2.07373 -3.02311 0
M  V30 8115 H 774.033 4.4533 -2.33859 0
M  V30 8116 H 773.733 4.22843 -4.08016 0
M  V30 8117 H 775.257 4.98174 -3.53066 0
M  V30 8118 H 776.671 3.10934 -4.81656 0
M  V30 8119 H 775.068 2.5899 -5.41336 0
M  V30 8120 H 776.138 1.40628 -4.6406 0
M  V30 8121 N 777.481 1.45874 0.596531 0
M  V30 8122 C 778.428 1.55389 1.70655 0
M  V30 8123 C 779.398 0.399036 1.61236 0
M  V30 8124 O 780.583 0.61396 1.80652 0
M  V30 8125 C 777.723 1.53705 3.0898 0
M  V30 8126 C 776.836 2.79823 3.29125 0
M  V30 8127 C 775.971 2.69735 4.5762 0
M  V30 8128 C 775.01 3.90856 4.71061 0
M  V30 8129 N 774.147 3.79237 5.90867 0
M  V30 8130 H 778.987 2.50211 1.61859 0
M  V30 8131 H 776.524 1.24146 0.789069 0
M  V30 8132 H 778.482 1.50715 3.89026 0
M  V30 8133 H 777.112 0.624247 3.16706 0
M  V30 8134 H 776.164 2.92852 2.42779 0
M  V30 8135 H 777.476 3.69628 3.34927 0
M  V30 8136 H 776.63 2.64773 5.45875 0
M  V30 8137 H 775.369 1.77547 4.54234 0
M  V30 8138 H 774.374 3.96164 3.81227 0
M  V30 8139 H 775.599 4.84124 4.76236 0
M  V30 8140 H 773.545 2.89825 5.88504 0
M  V30 8141 H 773.462 4.62686 5.97877 0
M  V30 8142 H 774.73 3.78227 6.8159 0
M  V30 8143 N 778.959 -0.83999 1.33349 0
M  V30 8144 C 779.869 -1.98182 1.25543 0
M  V30 8145 C 780.885 -1.73204 0.166208 0
M  V30 8146 O 782.061 -1.97596 0.389589 0
M  V30 8147 C 779.126 -3.32157 0.993614 0
M  V30 8148 C 778.187 -3.70258 2.17273 0
M  V30 8149 C 777.42 -4.9784 1.92331 0
M  V30 8150 O 777.643 -5.63679 0.873074 0
M  V30 8151 O 776.577 -5.33418 2.78835 0
M  V30 8152 H 780.403 -2.07708 2.21565 0
M  V30 8153 H 777.988 -0.972852 1.13384 0
M  V30 8154 H 779.87 -4.12433 0.864711 0
M  V30 8155 H 778.545 -3.23637 0.0636596 0
M  V30 8156 H 777.452 -2.90497 2.35716 0
M  V30 8157 H 778.785 -3.83442 3.08598 0
M  V30 8158 N 780.437 -1.16799 -1.0581 0
M  V30 8159 C 781.667 -0.975454 -1.82122 0
M  V30 8160 C 782.075 0.479584 -1.83021 0
M  V30 8161 O 781.418 1.34471 -1.25153 0
M  V30 8162 C 781.48 -1.43209 -3.29744 0
M  V30 8163 C 781.144 -2.908 -3.5254 0
M  V30 8164 C 782.141 -3.88775 -3.45181 0
M  V30 8165 C 779.826 -3.28832 -3.79703 0
M  V30 8166 C 781.82 -5.22782 -3.64661 0
M  V30 8167 C 779.507 -4.63007 -3.98832 0
M  V30 8168 C 780.505 -5.59791 -3.91309 0
M  V30 8169 O 780.193 -6.9154 -4.09911 0
M  V30 8170 H 779.925 -0.345655 -0.580947 0
M  V30 8171 H 782.479 -1.55355 -1.34365 0
M  V30 8172 H 780.709 -0.797504 -3.78387 0
M  V30 8173 H 782.398 -1.2062 -3.87564 0
M  V30 8174 H 783.164 -3.60738 -3.2418 0
M  V30 8175 H 779.043 -2.54073 -3.84666 0
M  V30 8176 H 782.587 -5.98312 -3.58705 0
M  V30 8177 H 778.484 -4.90752 -4.19324 0
M  V30 8178 H 779.252 -6.98188 -4.27172 0
M  V30 8179 N 781.915 1.24427 -0.967243 0
M  V30 8180 C 783.163 1.92107 -0.627638 0
M  V30 8181 C 783.484 1.75991 0.83978 0
M  V30 8182 O 782.754 1.13118 1.59941 0
M  V30 8183 H 781.334 0.710986 -0.229145 0
M  V30 8184 H 783.996 1.51331 -1.22821 0
M  V30 8185 H 783.092 2.99791 -0.867844 0
M  V30 8186 N 783.393 0.737304 1.3929 0
M  V30 8187 C 784.639 0.286681 2.00763 0
M  V30 8188 C 784.972 -1.12388 1.58375 0
M  V30 8189 O 784.247 -1.76661 0.813699 0
M  V30 8190 C 784.53 0.391147 3.57969 0
M  V30 8191 C 784.383 1.84165 4.1037 0
M  V30 8192 C 785.702 -0.225072 4.39524 0
M  V30 8193 H 782.821 0.105642 0.729389 0
M  V30 8194 H 785.463 0.933892 1.65464 0
M  V30 8195 H 783.613 -0.159875 3.88171 0
M  V30 8196 H 785.285 2.44972 3.90879 0
M  V30 8197 H 783.528 2.3622 3.63844 0
M  V30 8198 H 784.199 1.866 5.19504 0
M  V30 8199 H 786.675 0.244677 4.1538 0
M  V30 8200 H 785.551 -0.121646 5.48765 0
M  V30 8201 H 785.812 -1.31141 4.22202 0
M  V30 8202 N 784.871 -1.49948 0.485112 0
M  V30 8203 C 785.818 -2.28819 -0.301729 0
M  V30 8204 C 786.788 -1.34496 -0.974683 0
M  V30 8205 O 787.973 -1.63444 -0.984418 0
M  V30 8206 C 785.113 -3.16758 -1.36961 0
M  V30 8207 C 784.226 -4.26125 -0.710027 0
M  V30 8208 C 783.361 -5.01302 -1.75699 0
M  V30 8209 C 782.4 -6.02525 -1.07841 0
M  V30 8210 N 781.537 -6.70927 -2.06886 0
M  V30 8211 H 786.377 -2.95604 0.377127 0
M  V30 8212 H 783.914 -1.45764 0.197826 0
M  V30 8213 H 785.872 -3.66106 -2.00056 0
M  V30 8214 H 784.502 -2.51991 -2.01744 0
M  V30 8215 H 783.554 -3.80385 0.0338278 0
M  V30 8216 H 784.866 -4.98493 -0.175079 0
M  V30 8217 H 784.02 -5.54438 -2.46339 0
M  V30 8218 H 782.759 -4.28672 -2.32577 0
M  V30 8219 H 781.764 -5.48635 -0.357706 0
M  V30 8220 H 782.989 -6.77134 -0.516345 0
M  V30 8221 H 780.935 -6.01079 -2.62755 0
M  V30 8222 H 780.852 -7.39216 -1.58414 0
M  V30 8223 H 782.12 -7.28675 -2.76863 0
M  V30 8224 N 786.349 -0.21828 -1.56081 0
M  V30 8225 C 787.595 0.414921 -1.9851 0
M  V30 8226 C 787.928 1.59648 -1.10573 0
M  V30 8227 O 787.203 1.93818 -0.162695 0
M  V30 8228 C 787.486 0.852647 -3.4986 0
M  V30 8229 C 787.339 -0.33232 -4.48571 0
M  V30 8230 C 788.658 1.70998 -4.05521 0
M  V30 8231 H 785.777 0.149344 -0.72171 0
M  V30 8232 H 788.419 -0.313858 -1.8739 0
M  V30 8233 H 786.569 1.47362 -3.59467 0
M  V30 8234 H 788.241 -0.970418 -4.50977 0
M  V30 8235 H 786.484 -0.980302 -4.22578 0
M  V30 8236 H 787.155 0.0168407 -5.51997 0
M  V30 8237 H 789.631 1.18606 -3.98838 0
M  V30 8238 H 788.507 1.98517 -5.11744 0
M  V30 8239 H 788.768 2.67219 -3.52202 0
M  V30 8240 N 787.827 1.57504 0.0551401 0
M  V30 8241 C 788.757 2.07864 1.06372 0
M  V30 8242 C 789.738 0.975565 1.39344 0
M  V30 8243 O 790.923 1.24929 1.48682 0
M  V30 8244 C 788.053 2.53643 2.3724 0
M  V30 8245 C 787.007 3.67978 2.18578 0
M  V30 8246 C 786.333 3.9987 3.54976 0
M  V30 8247 C 787.633 4.97405 1.59329 0
M  V30 8248 H 789.327 2.92379 0.644595 0
M  V30 8249 H 786.873 1.40654 0.308619 0
M  V30 8250 H 788.826 2.8749 3.08103 0
M  V30 8251 H 787.55 1.66177 2.81163 0
M  V30 8252 H 786.209 3.3444 1.50152 0
M  V30 8253 H 785.857 3.0951 3.965 0
M  V30 8254 H 785.557 4.76867 3.43324 0
M  V30 8255 H 787.081 4.36228 4.27244 0
M  V30 8256 H 788.495 5.29375 2.20078 0
M  V30 8257 H 786.892 5.78837 1.58327 0
M  V30 8258 H 787.962 4.81697 0.55638 0
M  V30 8259 N 789.305 -0.326896 1.54172 0
M  V30 8260 C 790.553 -1.06313 1.71878 0
M  V30 8261 C 790.874 -1.88652 0.493498 0
M  V30 8262 O 790.144 -1.89608 -0.492522 0
M  V30 8263 H 788.724 -0.39549 0.633716 0
M  V30 8264 H 791.386 -0.364139 1.91468 0
M  V30 8265 H 790.482 -1.73105 2.59694 0
M  V30 8266 N 790.784 -1.46188 -0.588786 0
M  V30 8267 C 792.012 -1.54743 -1.37339 0
M  V30 8268 C 792.427 -0.186446 -1.87877 0
M  V30 8269 O 791.784 0.815247 -1.63279 0
M  V30 8270 C 791.835 -2.54727 -2.56508 0
M  V30 8271 O 791.556 -3.85539 -2.08066 0
M  V30 8272 C 793.057 -2.73163 -3.49137 0
M  V30 8273 H 790.277 -0.523484 -0.419768 0
M  V30 8274 H 792.821 -1.91543 -0.716345 0
M  V30 8275 H 790.976 -2.20948 -3.18215 0
M  V30 8276 H 791.39 -4.39905 -2.85629 0
M  V30 8277 H 792.864 -3.47057 -4.2925 0
M  V30 8278 H 793.341 -1.79856 -4.00685 0
M  V30 8279 H 793.947 -3.08014 -2.9327 0
M  V30 8280 N 792.262 0.832906 -1.33792 0
M  V30 8281 C 793.487 1.62568 -1.28788 0
M  V30 8282 C 793.912 1.87599 0.137246 0
M  V30 8283 O 793.27 1.44436 1.0958 0
M  V30 8284 C 793.318 2.9495 -2.07453 0
M  V30 8285 O 792.422 3.86546 -1.43722 0
M  V30 8286 H 791.763 0.494809 -0.442787 0
M  V30 8287 H 794.293 1.03578 -1.76445 0
M  V30 8288 H 794.303 3.44599 -2.1844 0
M  V30 8289 H 792.978 2.76055 -3.11073 0
M  V30 8290 H 791.555 3.45044 -1.41417 0
M  V30 8291 N 793.74 1.17359 1.05189 0
M  V30 8292 C 794.986 0.963413 1.78455 0
M  V30 8293 C 795.319 -0.506703 1.87473 0
M  V30 8294 O 794.594 -1.37611 1.37453 0
M  V30 8295 C 794.877 1.60519 3.22344 0
M  V30 8296 C 794.73 3.14741 3.21338 0
M  V30 8297 C 796.049 1.3091 4.20179 0
M  V30 8298 H 793.168 0.351412 0.647826 0
M  V30 8299 H 795.81 1.44858 1.22948 0
M  V30 8300 H 793.96 1.19265 3.69741 0
M  V30 8301 H 795.632 3.65053 2.82017 0
M  V30 8302 H 793.875 3.4749 2.59679 0
M  V30 8303 H 794.546 3.54775 4.22894 0
M  V30 8304 H 797.022 1.66635 3.81277 0
M  V30 8305 H 795.898 1.784 5.191 0
M  V30 8306 H 796.159 0.229908 4.41502 0
M  V30 8307 N 795.218 -1.23913 0.973828 0
M  V30 8308 C 796.128 -2.28838 0.516735 0
M  V30 8309 C 797.144 -1.68723 -0.425282 0
M  V30 8310 O 798.32 -1.99201 -0.296819 0
M  V30 8311 C 795.385 -3.46233 -0.179914 0
M  V30 8312 C 794.446 -4.21729 0.80269 0
M  V30 8313 C 793.679 -5.33518 0.139191 0
M  V30 8314 O 793.902 -5.60252 -1.07118 0
M  V30 8315 O 792.836 -5.96088 0.834447 0
M  V30 8316 H 796.662 -2.70067 1.38916 0
M  V30 8317 H 794.247 -1.2972 0.74115 0
M  V30 8318 H 796.129 -4.17514 -0.570991 0
M  V30 8319 H 794.804 -3.06969 -1.02721 0
M  V30 8320 H 793.711 -3.52799 1.24434 0
M  V30 8321 H 795.044 -4.64825 1.61859 0
M  V30 8322 N 796.696 -0.74468 -1.38897 0
M  V30 8323 C 797.921 -0.306119 -2.05128 0
M  V30 8324 C 798.346 1.0541 -1.55789 0
M  V30 8325 O 797.704 1.66993 -0.705909 0
M  V30 8326 C 797.752 -0.328195 -3.59103 0
M  V30 8327 O 796.856 0.680876 -4.06741 0
M  V30 8328 H 796.197 -0.137209 -0.649669 0
M  V30 8329 H 798.727 -1.01331 -1.77745 0
M  V30 8330 H 798.737 -0.175956 -4.0762 0
M  V30 8331 H 797.412 -1.32067 -3.94374 0
M  V30 8332 H 795.989 0.49398 -3.69614 0
M  V30 8333 N 798.174 1.49689 -0.493057 0
M  V30 8334 C 799.423 2.01622 0.0560733 0
M  V30 8335 C 799.736 1.37838 1.3878 0
M  V30 8336 O 800.942 1.81054 2.02316 0
M  V30 8337 C 799.398 3.59586 0.150409 0
M  V30 8338 C 799.006 4.32338 -1.1742 0
M  V30 8339 C 800.75 4.19489 0.650327 0
M  V30 8340 C 798.657 5.8214 -1.04246 0
M  V30 8341 H 797.587 0.753594 0.0247297 0
M  V30 8342 H 800.238 1.723 -0.631279 0
M  V30 8343 H 798.62 3.8559 0.902035 0
M  V30 8344 H 799.794 4.18042 -1.9385 0
M  V30 8345 H 798.109 3.84144 -1.60694 0
M  V30 8346 H 800.706 5.29181 0.766272 0
M  V30 8347 H 801.049 3.82326 1.6472 0
M  V30 8348 H 801.582 3.97775 -0.0445371 0
M  V30 8349 H 798.321 6.23814 -2.01336 0
M  V30 8350 H 797.841 5.98952 -0.31892 0
M  V30 8351 H 799.52 6.43004 -0.717957 0
M  V30 8352 N 799.652 0.226554 1.55963 0
M  V30 8353 C 800.585 -0.721625 2.1649 0
M  V30 8354 C 801.563 -1.18745 1.11078 0
M  V30 8355 O 802.747 -1.26929 1.3936 0
M  V30 8356 C 799.874 -1.97828 2.74921 0
M  V30 8357 C 798.92 -1.65202 3.93206 0
M  V30 8358 S 799.753 -0.772419 5.299 0
M  V30 8359 C 800.909 -2.03853 5.91773 0
M  V30 8360 H 801.142 -0.207192 2.96577 0
M  V30 8361 H 798.675 0.0111976 1.54396 0
M  V30 8362 H 800.633 -2.69982 3.09225 0
M  V30 8363 H 799.294 -2.46384 1.94817 0
M  V30 8364 H 798.487 -2.58583 4.32609 0
M  V30 8365 H 798.089 -1.01108 3.60074 0
M  V30 8366 H 800.381 -2.98799 6.08051 0
M  V30 8367 H 801.324 -1.68831 6.87678 0
M  V30 8368 H 801.732 -2.18134 5.20651 0
M  V30 8369 N 801.13 -1.57531 -0.0467866 0
M  V30 8370 C 802.093 -2.04379 -1.03738 0
M  V30 8371 C 803.093 -0.944881 -1.3011 0
M  V30 8372 O 804.283 -1.20904 -1.25411 0
M  V30 8373 C 801.415 -2.44572 -2.37482 0
M  V30 8374 H 802.608 -2.93142 -0.633063 0
M  V30 8375 H 800.161 -1.53526 -0.293177 0
M  V30 8376 H 800.896 -1.58911 -2.82697 0
M  V30 8377 H 800.681 -3.24785 -2.19675 0
M  V30 8378 H 802.171 -2.81307 -3.08636 0
M  V30 8379 N 802.608 0.318715 -1.54344 0
M  V30 8380 C 803.836 1.0755 -1.7675 0
M  V30 8381 C 804.251 1.81543 -0.518422 0
M  V30 8382 O 803.608 1.75198 0.511078 0
M  V30 8383 C 803.659 2.06983 -2.96378 0
M  V30 8384 O 803.38 1.35995 -4.16458 0
M  V30 8385 C 804.881 2.94841 -3.31034 0
M  V30 8386 H 802.101 0.319711 -0.589937 0
M  V30 8387 H 804.645 0.363369 -2.01246 0
M  V30 8388 H 802.8 2.73724 -2.74142 0
M  V30 8389 H 803.214 2.02623 -4.83781 0
M  V30 8390 H 804.688 3.60496 -4.18027 0
M  V30 8391 H 805.165 3.62199 -2.48412 0
M  V30 8392 H 805.771 2.33656 -3.55366 0
M  V30 8393 N 804.086 1.46499 0.581025 0
M  V30 8394 C 804.996 1.59778 1.71779 0
M  V30 8395 C 806.012 0.481223 1.67213 0
M  V30 8396 O 807.188 0.74557 1.87091 0
M  V30 8397 C 804.253 1.58626 3.08283 0
M  V30 8398 C 803.314 2.81527 3.241 0
M  V30 8399 C 802.547 2.80421 4.54092 0
M  V30 8400 O 802.77 1.89262 5.38085 0
M  V30 8401 O 801.704 3.71984 4.73193 0
M  V30 8402 H 805.53 2.55918 1.63523 0
M  V30 8403 H 803.115 1.29311 0.748267 0
M  V30 8404 H 804.997 1.60686 3.89561 0
M  V30 8405 H 803.672 0.656467 3.16973 0
M  V30 8406 H 802.579 2.85021 2.42309 0
M  V30 8407 H 803.912 3.73721 3.20302 0
M  V30 8408 N 805.565 -0.825799 1.34232 0
M  V30 8409 C 806.842 -1.56741 1.17011 0
M  V30 8410 C 807.222 -2.09512 -0.258425 0
M  V30 8411 O 806.57 -1.90664 -1.25935 0
M  V30 8412 C 806.78 -2.69104 2.22225 0
M  V30 8413 C 808.128 -3.37947 2.57055 0
M  V30 8414 O 809.152 -2.79358 2.20992 0
M  V30 8415 O 808.011 -4.43743 3.1899 0
M  V30 8416 H 805.105 -0.69163 0.453405 0
M  V30 8417 H 807.651 -0.867422 1.45856 0
M  V30 8418 H 806.423 -2.27844 3.18124 0
M  V30 8419 H 806.046 -3.46756 1.94541 0
M  V30 8420 N 807.043 -1.17915 -1.04565 0
M  V30 8421 C 808.459 -0.927761 -1.29864 0
M  V30 8422 C 808.659 0.409536 -1.97294 0
M  V30 8423 O 807.715 1.14505 -2.25044 0
M  V30 8424 C 809.028 -2.08967 -2.16225 0
M  V30 8425 C 810.576 -2.12741 -2.29587 0
M  V30 8426 C 811.051 -3.28335 -3.19312 0
M  V30 8427 N 812.542 -3.28164 -3.26898 0
M  V30 8428 C 813.277 -4.14249 -3.96466 0
M  V30 8429 N 812.773 -5.10457 -4.68407 0
M  V30 8430 N 814.566 -4.02179 -3.92694 0
M  V30 8431 H 806.717 -2.03983 -0.592011 0
M  V30 8432 H 808.98 -0.891023 -0.323701 0
M  V30 8433 H 808.686 -3.05654 -1.73979 0
M  V30 8434 H 808.56 -2.04606 -3.16885 0
M  V30 8435 H 810.947 -1.16636 -2.71072 0
M  V30 8436 H 811.028 -2.21162 -1.28535 0
M  V30 8437 H 810.672 -4.2471 -2.78539 0
M  V30 8438 H 810.602 -3.17151 -4.20384 0
M  V30 8439 H 813.093 -2.58511 -2.75646 0
M  V30 8440 H 813.406 -5.72526 -5.1907 0
M  V30 8441 H 811.751 -5.14422 -4.67328 0
M  V30 8442 H 814.942 -3.26308 -3.3562 0
M  V30 8443 H 815.115 -4.69486 -4.4664 0
M  V30 8444 N 808.521 1.23394 -0.980386 0
M  V30 8445 C 809.453 2.24146 -0.478657 0
M  V30 8446 C 810.466 1.57303 0.419492 0
M  V30 8447 O 811.655 1.77094 0.223631 0
M  V30 8448 C 808.755 3.3732 0.326913 0
M  V30 8449 C 807.928 4.33744 -0.56436 0
M  V30 8450 C 806.987 5.25866 0.187358 0
M  V30 8451 O 806.013 5.67626 -0.423019 0
M  V30 8452 N 807.215 5.61492 1.47335 0
M  V30 8453 H 809.98 2.67826 -1.34496 0
M  V30 8454 H 807.541 1.37566 -0.853653 0
M  V30 8455 H 809.533 3.95926 0.838148 0
M  V30 8456 H 808.103 2.92823 1.09422 0
M  V30 8457 H 807.323 3.73641 -1.25642 0
M  V30 8458 H 808.611 4.95123 -1.17177 0
M  V30 8459 H 808.009 5.29514 1.99077 0
M  V30 8460 H 806.566 6.2257 1.93002 0
M  V30 8461 N 809.999 0.752036 1.385 0
M  V30 8462 C 810.929 0.138718 2.33088 0
M  V30 8463 C 811.91 -0.705318 1.54788 0
M  V30 8464 O 813.095 -0.646821 1.83112 0
M  V30 8465 C 810.225 -0.75641 3.38963 0
M  V30 8466 C 809.179 -0.0152239 4.27997 0
M  V30 8467 C 808.505 -1.0285 5.24715 0
M  V30 8468 C 809.805 1.15226 5.09431 0
M  V30 8469 H 811.499 0.928852 2.84627 0
M  V30 8470 H 809.045 0.448111 1.3685 0
M  V30 8471 H 810.998 -1.19513 4.04097 0
M  V30 8472 H 809.722 -1.57885 2.85902 0
M  V30 8473 H 808.381 0.404061 3.64366 0
M  V30 8474 H 808.029 -1.84496 4.67943 0
M  V30 8475 H 807.729 -0.537238 5.85139 0
M  V30 8476 H 809.253 -1.46657 5.92726 0
M  V30 8477 H 810.667 0.791161 5.67815 0
M  V30 8478 H 809.064 1.57428 5.79082 0
M  V30 8479 H 810.134 1.9659 4.43261 0
M  V30 8480 N 811.477 -1.49425 0.500989 0
M  V30 8481 C 812.724 -2.02453 -0.0435355 0
M  V30 8482 C 813.052 -1.38067 -1.36995 0
M  V30 8483 O 812.307 -0.505557 -1.89057 0
M  V30 8484 C 812.606 -3.56562 -0.24463 0
M  V30 8485 C 812.272 -4.39585 1.00379 0
M  V30 8486 C 810.934 -4.61992 1.346 0
M  V30 8487 C 813.286 -4.87881 1.83361 0
M  V30 8488 C 810.614 -5.2994 2.51755 0
M  V30 8489 C 812.966 -5.57119 2.99669 0
M  V30 8490 C 811.63 -5.77771 3.3427 0
M  V30 8491 H 810.9 -0.740829 -0.0159308 0
M  V30 8492 H 813.547 -1.79725 0.661143 0
M  V30 8493 H 811.852 -3.77969 -1.03183 0
M  V30 8494 H 813.549 -3.95185 -0.6804 0
M  V30 8495 H 810.139 -4.22385 0.727225 0
M  V30 8496 H 814.323 -4.70398 1.58237 0
M  V30 8497 H 809.579 -5.44133 2.788 0
M  V30 8498 H 813.753 -5.93516 3.64296 0
M  V30 8499 H 811.38 -6.30197 4.25154 0
M  V30 8500 N 812.955 -0.234822 -1.55841 0
M  V30 8501 C 814.18 0.400741 -2.03492 0
M  V30 8502 C 814.605 1.51618 -1.11327 0
M  V30 8503 O 813.963 1.81002 -0.103922 0
M  V30 8504 C 814.011 0.897184 -3.49261 0
M  V30 8505 O 813.115 2.00764 -3.60233 0
M  V30 8506 H 812.456 0.0890023 -0.658008 0
M  V30 8507 H 814.986 -0.357345 -2.01455 0
M  V30 8508 H 814.996 1.20356 -3.89844 0
M  V30 8509 H 813.671 0.0808639 -4.15821 0
M  V30 8510 H 812.248 1.70689 -3.31541 0
M  V30 8511 N 814.433 1.57553 0.0384317 0
M  V30 8512 C 815.71 1.79977 0.766002 0
M  V30 8513 C 816.09 0.830625 1.94072 0
M  V30 8514 O 815.438 -0.129243 2.28134 0
M  V30 8515 C 815.648 3.27434 1.20781 0
M  V30 8516 C 816.996 3.92167 1.62758 0
M  V30 8517 O 818.02 3.31527 1.30263 0
M  V30 8518 O 816.879 4.98917 2.23035 0
M  V30 8519 H 813.973 0.739787 0.369654 0
M  V30 8520 H 816.519 1.69693 0.0159312 0
M  V30 8521 H 815.291 3.89558 0.368792 0
M  V30 8522 H 814.914 3.42571 2.01819 0
M  V30 8523 N 815.911 -0.310526 1.54511 0
M  V30 8524 C 816.858 -1.38264 1.84802 0
M  V30 8525 C 817.828 -1.50808 0.696141 0
M  V30 8526 O 819.013 -1.6582 0.943846 0
M  V30 8527 C 816.153 -2.74422 2.09252 0
M  V30 8528 C 815.266 -2.70405 3.36906 0
M  V30 8529 C 814.401 -3.98495 3.51248 0
M  V30 8530 C 813.44 -3.88836 4.72729 0
M  V30 8531 N 812.577 -5.08683 4.83928 0
M  V30 8532 H 817.417 -1.11732 2.76261 0
M  V30 8533 H 814.954 -0.540609 1.36806 0
M  V30 8534 H 816.912 -3.53593 2.21422 0
M  V30 8535 H 815.542 -2.99235 1.2107 0
M  V30 8536 H 814.594 -1.83151 3.33406 0
M  V30 8537 H 815.906 -2.59155 4.26193 0
M  V30 8538 H 815.06 -4.861 3.63031 0
M  V30 8539 H 813.799 -4.12567 2.60077 0
M  V30 8540 H 812.804 -2.99615 4.60989 0
M  V30 8541 H 814.029 -3.76318 5.65298 0
M  V30 8542 H 811.975 -5.23236 3.95677 0
M  V30 8543 H 811.892 -4.99819 5.67201 0
M  V30 8544 H 813.16 -5.97966 5.00057 0
M  V30 8545 N 817.389 -1.46805 -0.573248 0
M  V30 8546 C 818.319 -1.60951 -1.69165 0
M  V30 8547 C 819.3 -0.45948 -1.63777 0
M  V30 8548 O 820.485 -0.68688 -1.81647 0
M  V30 8549 C 817.615 -1.60844 -3.07809 0
M  V30 8550 C 816.569 -2.74913 -3.28035 0
M  V30 8551 C 815.895 -2.59871 -4.67302 0
M  V30 8552 C 817.195 -4.16654 -3.14955 0
M  V30 8553 H 818.889 -2.54574 -1.57582 0
M  V30 8554 H 816.435 -1.22516 -0.756686 0
M  V30 8555 H 818.388 -1.69334 -3.85881 0
M  V30 8556 H 817.112 -0.637714 -3.20314 0
M  V30 8557 H 815.771 -2.65908 -2.52366 0
M  V30 8558 H 815.419 -1.60861 -4.76585 0
M  V30 8559 H 815.119 -3.36386 -4.81786 0
M  V30 8560 H 816.643 -2.70265 -5.4753 0
M  V30 8561 H 818.057 -4.26721 -3.82861 0
M  V30 8562 H 816.454 -4.93831 -3.40956 0
M  V30 8563 H 817.524 -4.36146 -2.11908 0
M  V30 8564 N 818.867 0.818669 -1.34668 0
M  V30 8565 C 819.815 1.95123 -1.26609 0
M  V30 8566 C 820.809 1.68611 -0.163348 0
M  V30 8567 O 822.015 1.76975 -0.328586 0
M  V30 8568 H 818.39 0.640871 -0.393431 0
M  V30 8569 H 820.361 1.99043 -2.22316 0
M  V30 8570 C 819.11 3.31697 -1.04272 0
M  V30 8571 H 818.433 3.52648 -1.8836 0
M  V30 8572 H 819.873 4.11382 -1.0267 0
M  V30 8573 C 818.332 3.35942 0.253858 0
M  V30 8574 O 818.862 3.81632 1.25378 0
M  V30 8575 N 817.068 2.89165 0.288447 0
M  V30 8576 H 816.615 2.52176 -0.525845 0
M  V30 8577 H 816.573 2.92387 1.15572 0
M  V30 8578 N 820.346 1.18468 1.03938 0
M  V30 8579 C 821.256 0.927889 2.1547 0
M  V30 8580 C 822.272 -0.108447 1.73662 0
M  V30 8581 O 823.448 0.0737636 2.01265 0
M  V30 8582 C 820.513 0.458494 3.43655 0
M  V30 8583 C 819.574 1.56295 3.99838 0
M  V30 8584 C 818.807 1.11586 5.21904 0
M  V30 8585 O 819.03 -0.0249057 5.70395 0
M  V30 8586 O 817.964 1.91412 5.70653 0
M  V30 8587 H 821.79 1.86116 2.39989 0
M  V30 8588 H 819.375 0.966607 1.13917 0
M  V30 8589 H 821.257 0.204861 4.20902 0
M  V30 8590 H 819.932 -0.446464 3.20606 0
M  V30 8591 H 818.839 1.87061 3.23974 0
M  V30 8592 H 820.172 2.44408 4.2723 0
M  V30 8593 N 821.824 -1.22873 0.986916 0
M  V30 8594 C 823.073 -1.90772 0.654911 0
M  V30 8595 C 823.386 -1.77768 -0.81595 0
M  V30 8596 O 824.592 -2.40529 -1.25929 0
M  V30 8597 C 823.048 -3.42003 1.12081 0
M  V30 8598 C 822.656 -3.63655 2.61647 0
M  V30 8599 C 824.4 -4.15638 0.862854 0
M  V30 8600 C 822.307 -5.08555 3.01871 0
M  V30 8601 H 821.237 -0.714362 0.241252 0
M  V30 8602 H 823.888 -1.39196 1.19568 0
M  V30 8603 H 822.27 -3.92725 0.508207 0
M  V30 8604 H 823.444 -3.2345 3.28202 0
M  V30 8605 H 821.759 -3.03341 2.8526 0
M  V30 8606 H 824.356 -5.22425 1.13915 0
M  V30 8607 H 824.699 -4.15814 -0.201036 0
M  V30 8608 H 825.232 -3.70924 1.43736 0
M  V30 8609 H 821.971 -5.13514 4.07411 0
M  V30 8610 H 821.491 -5.49684 2.40015 0
M  V30 8611 H 823.17 -5.76936 2.92839 0
M  V30 8612 N 823.302 -0.75937 -1.38099 0
M  V30 8613 C 824.25 -0.124954 -2.32264 0
M  V30 8614 C 825.244 0.698863 -1.54312 0
M  V30 8615 O 826.45 0.597312 -1.698 0
M  V30 8616 H 822.825 -0.0216142 -0.751689 0
M  V30 8617 H 824.796 -0.935115 -2.83369 0
M  V30 8618 C 823.545 0.749463 -3.39527 0
M  V30 8619 H 822.868 0.124932 -3.99605 0
M  V30 8620 H 824.308 1.16055 -4.07808 0
M  V30 8621 C 822.767 1.89464 -2.78577 0
M  V30 8622 O 823.297 2.98923 -2.68343 0
M  V30 8623 N 821.503 1.69145 -2.36301 0
M  V30 8624 H 821.05 0.801157 -2.44825 0
M  V30 8625 H 821.008 2.45936 -1.95864 0
M  V30 8626 N 824.78 1.49157 -0.508906 0
M  V30 8627 C 825.69 2.33045 0.269656 0
M  V30 8628 C 826.706 1.45143 0.959662 0
M  V30 8629 O 827.882 1.78155 0.939295 0
M  V30 8630 C 824.947 3.20772 1.31554 0
M  V30 8631 C 824.008 4.24531 0.638131 0
M  V30 8632 C 823.241 5.08065 1.63418 0
M  V30 8633 O 823.464 4.93238 2.86483 0
M  V30 8634 O 822.398 5.90117 1.18516 0
M  V30 8635 H 826.224 3.00821 -0.417183 0
M  V30 8636 H 823.809 1.46938 -0.270119 0
M  V30 8637 H 825.691 3.75095 1.92047 0
M  V30 8638 H 824.366 2.55681 1.98516 0
M  V30 8639 H 823.273 3.74099 -0.00674357 0
M  V30 8640 H 824.606 4.92199 0.0108155 0
M  V30 8641 N 826.258 0.243083 1.55714 0
M  V30 8642 C 827.205 -0.658078 2.21219 0
M  V30 8643 C 828.175 -1.1742 1.17481 0
M  V30 8644 O 829.36 -1.22937 1.45915 0
M  V30 8645 C 826.5 -1.85104 2.91257 0
M  V30 8646 C 825.613 -1.3718 4.09641 0
M  V30 8647 C 824.748 -2.52403 4.67404 0
M  V30 8648 C 823.787 -2.01321 5.78045 0
M  V30 8649 N 822.924 -3.09896 6.30007 0
M  V30 8650 H 827.764 -0.0927854 2.97856 0
M  V30 8651 H 825.301 -0.0340375 1.47061 0
M  V30 8652 H 827.259 -2.55179 3.3006 0
M  V30 8653 H 825.889 -2.38887 2.17101 0
M  V30 8654 H 824.941 -0.565232 3.76177 0
M  V30 8655 H 826.253 -0.957409 4.89525 0
M  V30 8656 H 825.407 -3.30525 5.08761 0
M  V30 8657 H 824.146 -2.97142 3.86728 0
M  V30 8658 H 823.151 -1.21667 5.36169 0
M  V30 8659 H 824.376 -1.57556 6.6057 0
M  V30 8660 H 822.322 -3.54077 5.52237 0
M  V30 8661 H 822.239 -2.72776 7.05074 0
M  V30 8662 H 823.507 -3.8809 6.76023 0
M  V30 8663 N 827.736 -1.57571 -0.0300757 0
M  V30 8664 C 828.985 -1.88407 -0.720126 0
M  V30 8665 C 829.298 -0.841466 -1.76575 0
M  V30 8666 O 830.504 -1.03902 -2.50832 0
M  V30 8667 C 828.96 -3.34348 -1.33188 0
M  V30 8668 C 828.568 -4.46837 -0.32266 0
M  V30 8669 C 830.312 -3.74333 -2.00187 0
M  V30 8670 C 828.219 -5.83838 -0.942703 0
M  V30 8671 H 827.149 -0.702952 -0.272718 0
M  V30 8672 H 829.8 -1.83482 0.0255337 0
M  V30 8673 H 828.182 -3.34014 -2.12721 0
M  V30 8674 H 829.356 -4.58638 0.445887 0
M  V30 8675 H 827.671 -4.15678 0.245181 0
M  V30 8676 H 830.268 -4.74008 -2.47428 0
M  V30 8677 H 830.611 -3.06275 -2.81959 0
M  V30 8678 H 831.144 -3.76837 -1.2743 0
M  V30 8679 H 827.883 -6.55294 -0.164413 0
M  V30 8680 H 827.403 -5.75759 -1.68111 0
M  V30 8681 H 829.082 -6.30535 -1.45034 0
M  V30 8682 N 829.214 0.302327 -1.54673 0
M  V30 8683 C 830.177 1.35592 -1.8479 0
M  V30 8684 C 831.177 1.43743 -0.72073 0
M  V30 8685 O 832.367 1.43402 -0.989017 0
M  V30 8686 C 829.499 2.74091 -2.02699 0
M  V30 8687 H 830.692 1.10132 -2.78946 0
M  V30 8688 H 828.245 0.538926 -1.46715 0
M  V30 8689 H 828.98 3.04775 -1.10826 0
M  V30 8690 H 828.765 2.69565 -2.8474 0
M  V30 8691 H 830.255 3.50272 -2.27374 0
M  V30 8692 N 830.692 1.47107 0.565454 0
M  V30 8693 C 832.103 1.47266 1.1476 0
M  V30 8694 C 832.454 0.222841 1.9493 0
M  V30 8695 O 831.579 -0.672862 2.05673 0
M  V30 8696 C 832.174 2.66822 2.08785 0
M  V30 8697 C 830.733 2.69967 2.62288 0
M  V30 8698 C 829.88 2.40236 1.38499 0
M  V30 8699 H 832.831 1.54736 0.352479 0
M  V30 8700 H 832.852 2.43323 2.92531 0
M  V30 8701 H 832.364 3.5777 1.50408 0
M  V30 8702 H 830.465 1.83137 3.24487 0
M  V30 8703 H 830.578 3.70426 3.03845 0
M  V30 8704 H 828.942 1.90648 1.68895 0
M  V30 8705 H 829.725 3.33381 0.819274 0
M  V30 8706 N 832.17 -0.811516 1.35101 0
M  V30 8707 C 833.395 -1.60499 1.31358 0
M  V30 8708 C 833.82 -1.87793 -0.107383 0
M  V30 8709 O 833.178 -1.46161 -1.07268 0
M  V30 8710 C 833.226 -2.91612 2.12119 0
M  V30 8711 O 832.33 -3.84211 1.49853 0
M  V30 8712 H 831.671 -0.487702 0.450603 0
M  V30 8713 H 834.201 -1.00758 1.7807 0
M  V30 8714 H 834.211 -3.4108 2.23894 0
M  V30 8715 H 832.886 -2.71071 3.15426 0
M  V30 8716 H 831.463 -3.42751 1.46889 0
M  V30 8717 N 833.648 -1.19017 -1.03309 0
M  V30 8718 C 834.895 -0.990214 -1.76638 0
M  V30 8719 C 835.223 0.479435 -1.88498 0
M  V30 8720 O 834.478 1.37223 -1.39529 0
M  V30 8721 C 834.777 -1.59927 -3.19622 0
M  V30 8722 C 834.443 -3.09632 -3.27779 0
M  V30 8723 C 833.105 -3.50491 -3.29712 0
M  V30 8724 C 835.457 -4.05644 -3.27264 0
M  V30 8725 C 832.785 -4.85921 -3.28782 0
M  V30 8726 C 835.137 -5.41 -3.27875 0
M  V30 8727 C 833.801 -5.81295 -3.28104 0
M  V30 8728 H 833.071 -0.362345 -0.646364 0
M  V30 8729 H 835.718 -1.48197 -1.21284 0
M  V30 8730 H 834.023 -1.0297 -3.78027 0
M  V30 8731 H 835.72 -1.41989 -3.7502 0
M  V30 8732 H 832.31 -2.77073 -3.26999 0
M  V30 8733 H 836.494 -3.75124 -3.24955 0
M  V30 8734 H 831.75 -5.16427 -3.27281 0
M  V30 8735 H 835.924 -6.15157 -3.26428 0
M  V30 8736 H 833.551 -6.86211 -3.27138 0
M  V30 8737 N 835.127 1.22348 -0.993418 0
M  V30 8738 C 836.09 2.22522 -0.549251 0
M  V30 8739 C 837.09 1.56529 0.368164 0
M  V30 8740 O 838.28 1.73463 0.16005 0
M  V30 8741 C 835.412 3.40307 0.201037 0
M  V30 8742 H 836.605 2.63332 -1.43515 0
M  V30 8743 H 834.158 1.35407 -0.78068 0
M  V30 8744 H 834.893 3.0497 1.10289 0
M  V30 8745 H 834.678 3.8942 -0.457685 0
M  V30 8746 H 836.168 4.14597 0.499946 0
M  V30 8747 N 836.605 0.766683 1.37694 0
M  V30 8748 C 837.851 0.329201 2.0011 0
M  V30 8749 C 838.184 -1.09004 1.60723 0
M  V30 8750 O 837.459 -1.74895 0.850989 0
M  V30 8751 C 837.742 0.466989 3.57059 0
M  V30 8752 C 837.595 1.92828 4.06371 0
M  V30 8753 C 838.914 -0.131792 4.39903 0
M  V30 8754 H 836.033 0.12109 0.726984 0
M  V30 8755 H 838.675 0.968779 1.63446 0
M  V30 8756 H 836.825 -0.0775023 3.88423 0
M  V30 8757 H 838.497 2.53208 3.85595 0
M  V30 8758 H 836.74 2.43884 3.58752 0
M  V30 8759 H 837.411 1.97577 5.15429 0
M  V30 8760 H 839.887 0.332731 4.14768 0
M  V30 8761 H 838.763 -0.005217 5.489 0
M  V30 8762 H 839.024 -1.22156 4.24889 0
M  V30 8763 N 838.083 -1.48885 0.516809 0
M  V30 8764 C 838.993 -2.33185 -0.257293 0
M  V30 8765 C 840.009 -1.4565 -0.951952 0
M  V30 8766 O 841.185 -1.78651 -0.929834 0
M  V30 8767 C 838.25 -3.21465 -1.29851 0
M  V30 8768 C 837.311 -4.24863 -0.615608 0
M  V30 8769 C 836.544 -5.08925 -1.60722 0
M  V30 8770 O 836.767 -4.9475 -2.83863 0
M  V30 8771 O 835.701 -5.90737 -1.15384 0
M  V30 8772 H 839.527 -3.00596 0.433131 0
M  V30 8773 H 837.112 -1.46792 0.277908 0
M  V30 8774 H 838.994 -3.76108 -1.90055 0
M  V30 8775 H 837.669 -2.5673 -1.97158 0
M  V30 8776 H 836.576 -3.74091 0.0265829 0
M  V30 8777 H 837.909 -4.92198 0.0152871 0
M  V30 8778 N 839.561 -0.251338 -1.55583 0
M  V30 8779 C 840.786 0.379136 -2.03905 0
M  V30 8780 C 841.211 1.50428 -1.12929 0
M  V30 8781 O 840.569 1.80882 -0.123114 0
M  V30 8782 C 840.617 0.86009 -3.50193 0
M  V30 8783 O 839.721 1.96932 -3.62342 0
M  V30 8784 H 839.062 0.0820183 -0.658915 0
M  V30 8785 H 841.592 -0.378692 -2.01065 0
M  V30 8786 H 841.602 1.16214 -3.91099 0
M  V30 8787 H 840.277 0.0367559 -4.15884 0
M  V30 8788 H 838.854 1.67163 -3.33333 0
M  V30 8789 N 841.039 1.57585 0.0217189 0
M  V30 8790 C 842.288 1.88786 0.710125 0
M  V30 8791 C 842.601 0.850819 1.76126 0
M  V30 8792 O 843.807 1.0523 2.50277 0
M  V30 8793 C 842.263 3.3505 1.31413 0
M  V30 8794 C 841.871 4.47001 0.298959 0
M  V30 8795 C 843.615 3.7539 1.98199 0
M  V30 8796 C 841.522 5.8433 0.911727 0
M  V30 8797 H 840.452 0.704388 0.268986 0
M  V30 8798 H 843.103 1.83466 -0.0352638 0
M  V30 8799 H 841.485 3.35138 2.10947 0
M  V30 8800 H 842.659 4.58395 -0.470203 0
M  V30 8801 H 840.974 4.15542 -0.267222 0
M  V30 8802 H 843.571 4.75314 2.4491 0
M  V30 8803 H 843.914 3.07766 2.80331 0
M  V30 8804 H 844.447 3.77508 1.2543 0
M  V30 8805 H 841.186 6.55372 0.129659 0
M  V30 8806 H 840.706 5.76643 1.65056 0
M  V30 8807 H 842.385 6.31295 1.41688 0
M  V30 8808 N 842.517 -0.29412 1.54831 0
M  V30 8809 C 843.427 -1.3854 1.89325 0
M  V30 8810 C 844.443 -1.55127 0.788133 0
M  V30 8811 O 845.619 -1.6966 1.08524 0
M  V30 8812 C 842.684 -2.72809 2.13954 0
M  V30 8813 C 841.745 -2.65148 3.37631 0
M  V30 8814 C 840.978 -3.93014 3.61076 0
M  V30 8815 O 841.201 -4.927 2.87406 0
M  V30 8816 O 840.135 -3.94491 4.54599 0
M  V30 8817 H 843.961 -1.12289 2.82179 0
M  V30 8818 H 841.546 -0.490793 1.41108 0
M  V30 8819 H 843.428 -3.52238 2.31315 0
M  V30 8820 H 842.103 -2.9889 1.24285 0
M  V30 8821 H 841.01 -1.84168 3.25627 0
M  V30 8822 H 842.343 -2.4402 4.27452 0
M  V30 8823 N 843.995 -1.47404 -0.557645 0
M  V30 8824 C 845.272 -1.44488 -1.31843 0
M  V30 8825 C 845.652 -0.1416 -2.10625 0
M  V30 8826 O 845 0.876908 -2.11004 0
M  V30 8827 C 845.21 -2.69016 -2.22331 0
M  V30 8828 C 846.558 -3.16212 -2.83364 0
M  V30 8829 O 847.582 -2.69741 -2.32634 0
M  V30 8830 O 846.441 -3.96999 -3.75571 0
M  V30 8831 H 843.535 -0.57578 -0.593639 0
M  V30 8832 H 846.081 -1.59605 -0.576584 0
M  V30 8833 H 844.853 -3.55406 -1.63715 0
M  V30 8834 H 844.476 -2.56484 -3.03812 0
M  V30 8835 N 845.473 0.80434 -1.35529 0
M  V30 8836 C 846.436 1.89788 -1.28503 0
M  V30 8837 C 847.436 1.59601 -0.195983 0
M  V30 8838 O 848.626 1.68292 -0.449827 0
M  V30 8839 C 845.758 3.26255 -0.98847 0
M  V30 8840 H 846.951 1.97436 -2.25741 0
M  V30 8841 H 844.504 1.00046 -1.20086 0
M  V30 8842 H 845.239 3.24294 -0.0200541 0
M  V30 8843 H 845.024 3.49551 -1.77641 0
M  V30 8844 H 846.514 4.06298 -0.964975 0
M  V30 8845 N 846.951 1.19563 1.02676 0
M  V30 8846 C 847.881 0.959024 2.12897 0
M  V30 8847 C 848.862 -0.108382 1.69754 0
M  V30 8848 O 850.047 0.0470698 1.94143 0
M  V30 8849 C 847.177 0.499211 3.43693 0
M  V30 8850 C 846.131 1.5087 4.00528 0
M  V30 8851 C 845.457 0.905884 5.2697 0
M  V30 8852 C 846.757 2.88954 4.3509 0
M  V30 8853 H 848.451 1.88084 2.32948 0
M  V30 8854 H 845.997 0.905731 1.11949 0
M  V30 8855 H 847.95 0.320965 4.20176 0
M  V30 8856 H 846.674 -0.458205 3.2337 0
M  V30 8857 H 845.333 1.67413 3.26142 0
M  V30 8858 H 844.981 -0.0591506 5.02965 0
M  V30 8859 H 844.681 1.58 5.65959 0
M  V30 8860 H 846.205 0.73848 6.06118 0
M  V30 8861 H 847.619 2.75981 5.02501 0
M  V30 8862 H 846.016 3.53177 4.85166 0
M  V30 8863 H 847.086 3.41447 3.44299 0
M  V30 8864 N 848.429 -1.21819 0.999893 0
M  V30 8865 C 849.376 -2.24003 0.556005 0
M  V30 8866 C 850.346 -1.60825 -0.415287 0
M  V30 8867 O 851.531 -1.88123 -0.318481 0
M  V30 8868 C 848.671 -3.44904 -0.116289 0
M  V30 8869 C 847.784 -4.22573 0.897574 0
M  V30 8870 C 846.919 -5.30831 0.198073 0
M  V30 8871 C 845.958 -6.00225 1.19983 0
M  V30 8872 N 845.095 -7.00111 0.528157 0
M  V30 8873 H 849.935 -2.61334 1.43208 0
M  V30 8874 H 847.472 -1.28431 0.717205 0
M  V30 8875 H 849.43 -4.13908 -0.523055 0
M  V30 8876 H 848.06 -3.08315 -0.956108 0
M  V30 8877 H 847.112 -3.52797 1.42262 0
M  V30 8878 H 848.424 -4.70363 1.66013 0
M  V30 8879 H 847.578 -6.06121 -0.265065 0
M  V30 8880 H 846.317 -4.84033 -0.596924 0
M  V30 8881 H 845.322 -5.23711 1.67353 0
M  V30 8882 H 846.547 -6.4911 1.99582 0
M  V30 8883 H 844.493 -6.55534 -0.247276 0
M  V30 8884 H 844.41 -7.45943 1.22904 0
M  V30 8885 H 845.678 -7.7945 0.0880543 0
M  V30 8886 N 849.908 -0.773975 -1.37286 0
M  V30 8887 C 850.871 -0.167974 -2.28584 0
M  V30 8888 C 851.871 0.625662 -1.48129 0
M  V30 8889 O 853.061 0.448924 -1.68316 0
M  V30 8890 C 850.193 0.769364 -3.32105 0
M  V30 8891 H 851.386 -0.972806 -2.83684 0
M  V30 8892 H 848.939 -0.542335 -1.46589 0
M  V30 8893 H 849.674 1.59912 -2.82132 0
M  V30 8894 H 849.459 0.202419 -3.91577 0
M  V30 8895 H 850.949 1.18872 -4.00324 0
M  V30 8896 N 851.386 1.48609 -0.524698 0
M  V30 8897 C 852.349 2.28041 0.230166 0
M  V30 8898 C 853.349 1.35065 0.872584 0
M  V30 8899 O 854.539 1.58007 0.73345 0
M  V30 8900 C 851.671 3.13778 1.33252 0
M  V30 8901 H 852.864 2.96239 -0.467161 0
M  V30 8902 H 850.417 1.53763 -0.280452 0
M  V30 8903 H 851.152 2.502 2.06327 0
M  V30 8904 H 850.937 3.82165 0.877058 0
M  V30 8905 H 852.427 3.7371 1.86362 0
M  V30 8906 N 852.864 0.259585 1.55447 0
M  V30 8907 C 854.141 -0.412595 1.91199 0
M  V30 8908 C 854.521 -1.74909 1.18194 0
M  V30 8909 O 853.869 -2.26474 0.303603 0
M  V30 8910 C 854.079 -0.568195 3.44344 0
M  V30 8911 C 855.427 -0.858253 4.15836 0
M  V30 8912 O 856.451 -0.653588 3.50152 0
M  V30 8913 O 855.31 -1.24874 5.32042 0
M  V30 8914 H 852.404 -0.223403 0.796254 0
M  V30 8915 H 854.95 0.30459 1.66944 0
M  V30 8916 H 853.722 0.372989 3.89518 0
M  V30 8917 H 853.345 -1.33544 3.74502 0
M  V30 8918 N 854.342 -1.57594 -0.0133615 0
M  V30 8919 C 855.57 -1.94251 -0.712328 0
M  V30 8920 C 855.985 -0.86063 -1.68043 0
M  V30 8921 O 855.342 0.161632 -1.81783 0
M  V30 8922 C 855.393 -3.30891 -1.45581 0
M  V30 8923 O 855.114 -4.34924 -0.526539 0
M  V30 8924 C 856.615 -3.81926 -2.2505 0
M  V30 8925 H 853.835 -0.640737 -0.199241 0
M  V30 8926 H 856.379 -2.04472 0.0337855 0
M  V30 8927 H 854.534 -3.22019 -2.15366 0
M  V30 8928 H 854.948 -5.1389 -1.04962 0
M  V30 8929 H 856.422 -4.79999 -2.72589 0
M  V30 8930 H 856.899 -3.13934 -3.07152 0
M  V30 8931 H 857.505 -3.93931 -1.60308 0
M  V30 8932 N 855.82 0.285905 -1.54985 0
M  V30 8933 C 857.069 1.01691 -1.74189 0
M  V30 8934 C 857.382 1.87908 -0.543135 0
M  V30 8935 O 858.588 2.64389 -0.617305 0
M  V30 8936 C 857.044 1.85785 -3.0824 0
M  V30 8937 C 856.652 1.04497 -4.35642 0
M  V30 8938 C 858.396 2.58393 -3.36798 0
M  V30 8939 C 856.303 1.87955 -5.60738 0
M  V30 8940 H 855.233 0.383396 -0.649248 0
M  V30 8941 H 857.884 0.27317 -1.81455 0
M  V30 8942 H 856.266 2.64205 -2.94978 0
M  V30 8943 H 857.44 0.305847 -4.59784 0
M  V30 8944 H 855.755 0.434023 -4.14132 0
M  V30 8945 H 858.352 3.21214 -4.27464 0
M  V30 8946 H 858.695 3.28011 -2.56349 0
M  V30 8947 H 859.228 1.87012 -3.511 0
M  V30 8948 H 855.967 1.22781 -6.43898 0
M  V30 8949 H 855.487 2.59499 -5.40759 0
M  V30 8950 H 857.166 2.45636 -5.98558 0
M  V30 8951 N 857.298 1.47698 0.54982 0
M  V30 8952 C 858.546 1.54397 1.30407 0
M  V30 8953 C 858.867 0.211026 1.93855 0
M  V30 8954 O 858.137 -0.765701 1.80316 0
M  V30 8955 H 856.717 0.568747 0.484289 0
M  V30 8956 H 859.379 1.84042 0.641444 0
M  V30 8957 H 858.475 2.31449 2.09375 0
M  V30 8958 N 858.776 -0.797141 1.35954 0
M  V30 8959 C 860.006 -1.5835 1.32698 0
M  V30 8960 C 860.414 -1.88959 -0.0955298 0
M  V30 8961 O 859.757 -1.49987 -1.06064 0
M  V30 8962 C 859.819 -2.93529 2.0756 0
M  V30 8963 C 859.483 -2.85688 3.56695 0
M  V30 8964 C 860.48 -2.58467 4.51099 0
M  V30 8965 C 858.165 -3.04508 3.99475 0
M  V30 8966 C 860.159 -2.50157 5.8626 0
M  V30 8967 C 857.846 -2.9582 5.34728 0
M  V30 8968 C 858.844 -2.68681 6.27933 0
M  V30 8969 O 858.532 -2.59973 7.60703 0
M  V30 8970 H 858.264 -0.49807 0.457059 0
M  V30 8971 H 860.818 -0.997889 1.79531 0
M  V30 8972 H 859.048 -3.54111 1.55378 0
M  V30 8973 H 860.737 -3.54744 1.9726 0
M  V30 8974 H 861.503 -2.43638 4.19363 0
M  V30 8975 H 857.382 -3.24641 3.27306 0
M  V30 8976 H 860.926 -2.28894 6.58979 0
M  V30 8977 H 856.823 -3.10211 5.66074 0
M  V30 8978 H 857.591 -2.75511 7.70737 0
M  V30 8979 N 860.254 -1.20106 -1.0204 0
M  V30 8980 C 861.665 -1.00992 -1.57027 0
M  V30 8981 C 862.016 0.434782 -1.91322 0
M  V30 8982 O 861.141 1.31557 -1.71819 0
M  V30 8983 C 861.736 -1.82697 -2.85319 0
M  V30 8984 C 860.295 -1.67959 -3.36848 0
M  V30 8985 C 859.442 -1.80868 -2.10195 0
M  V30 8986 H 862.393 -1.34354 -0.844676 0
M  V30 8987 H 862.414 -1.32809 -3.5657 0
M  V30 8988 H 861.926 -2.87839 -2.60328 0
M  V30 8989 H 860.027 -0.654389 -3.66809 0
M  V30 8990 H 860.14 -2.49006 -4.09308 0
M  V30 8991 H 858.504 -1.24015 -2.22469 0
M  V30 8992 H 859.287 -2.87486 -1.87635 0
M  V30 8993 N 861.732 1.21287 -1.00634 0
M  V30 8994 C 862.978 1.90671 -0.690822 0
M  V30 8995 C 863.311 1.77996 0.776592 0
M  V30 8996 O 862.586 1.15748 1.5631 0
M  V30 8997 C 862.869 3.42426 -1.11428 0
M  V30 8998 C 862.722 3.64086 -2.64124 0
M  V30 8999 C 864.041 4.34851 -0.677686 0
M  V30 9000 H 861.16 0.692419 -0.252439 0
M  V30 9001 H 863.802 1.42893 -1.25226 0
M  V30 9002 H 861.952 3.83249 -0.636586 0
M  V30 9003 H 863.624 3.32582 -3.19667 0
M  V30 9004 H 861.867 3.07906 -3.05576 0
M  V30 9005 H 862.538 4.7042 -2.88806 0
M  V30 9006 H 865.014 4.01619 -1.0882 0
M  V30 9007 H 863.89 5.39675 -1.00213 0
M  V30 9008 H 864.151 4.4009 0.421125 0
M  V30 9009 N 863.21 0.781244 1.36873 0
M  V30 9010 C 864.143 0.120106 2.27884 0
M  V30 9011 C 865.121 -0.698961 1.4681 0
M  V30 9012 O 866.305 -0.671694 1.76126 0
M  V30 9013 C 863.432 -0.835804 3.28226 0
M  V30 9014 C 862.478 -0.0995527 4.26384 0
M  V30 9015 S 863.311 1.21903 5.2144 0
M  V30 9016 C 864.467 0.266904 6.25331 0
M  V30 9017 H 864.7 0.891796 2.83609 0
M  V30 9018 H 862.233 0.575075 1.43291 0
M  V30 9019 H 864.191 -1.3819 3.86541 0
M  V30 9020 H 862.852 -1.58068 2.71428 0
M  V30 9021 H 862.045 -0.82457 4.97209 0
M  V30 9022 H 861.647 0.375818 3.72107 0
M  V30 9023 H 863.939 -0.55725 6.75204 0
M  V30 9024 H 864.882 0.943603 7.01785 0
M  V30 9025 H 865.29 -0.126121 5.64359 0
M  V30 9026 N 864.689 -1.48329 0.532571 0
M  V30 9027 C 865.938 -2.017 -0.00259705 0
M  V30 9028 C 866.251 -1.41469 -1.35077 0
M  V30 9029 O 867.457 -1.86354 -1.97445 0
M  V30 9030 C 865.913 -3.59858 -0.0550179 0
M  V30 9031 C 865.521 -4.29073 1.28842 0
M  V30 9032 C 867.265 -4.21066 -0.538878 0
M  V30 9033 C 865.172 -5.79171 1.19644 0
M  V30 9034 H 864.102 -0.753985 -0.00474081 0
M  V30 9035 H 866.753 -1.70565 0.676739 0
M  V30 9036 H 865.135 -3.87846 -0.799486 0
M  V30 9037 H 866.309 -4.12755 2.04865 0
M  V30 9038 H 864.624 -3.79748 1.70822 0
M  V30 9039 H 867.221 -5.31026 -0.6257 0
M  V30 9040 H 867.564 -3.86559 -1.54525 0
M  V30 9041 H 868.097 -3.97517 0.149984 0
M  V30 9042 H 864.836 -6.18257 2.17805 0
M  V30 9043 H 864.356 -5.97895 0.477609 0
M  V30 9044 H 866.035 -6.40875 0.888186 0
M  V30 9045 N 866.167 -0.267825 -1.55308 0
M  V30 9046 C 867.583 0.0865107 -1.59365 0
M  V30 9047 C 867.783 1.55205 -1.28505 0
M  V30 9048 O 866.839 2.29978 -1.04241 0
M  V30 9049 C 868.152 -0.28155 -2.99379 0
M  V30 9050 C 869.7 -0.227565 -3.12172 0
M  V30 9051 C 870.175 -0.569959 -4.5444 0
M  V30 9052 N 871.666 -0.521238 -4.60258 0
M  V30 9053 C 872.401 -0.759061 -5.68354 0
M  V30 9054 N 871.897 -1.06112 -6.84626 0
M  V30 9055 N 873.69 -0.688351 -5.57869 0
M  V30 9056 H 865.841 -1.22332 -1.73633 0
M  V30 9057 H 868.104 -0.493703 -0.809297 0
M  V30 9058 H 867.81 -1.3005 -3.26772 0
M  V30 9059 H 867.684 0.381192 -3.75269 0
M  V30 9060 H 870.071 0.782093 -2.84548 0
M  V30 9061 H 870.152 -0.924461 -2.38511 0
M  V30 9062 H 869.796 -1.57727 -4.82788 0
M  V30 9063 H 869.726 0.148646 -5.2639 0
M  V30 9064 H 872.217 -0.297359 -3.76728 0
M  V30 9065 H 872.53 -1.22945 -7.62958 0
M  V30 9066 H 870.875 -1.09881 -6.86259 0
M  V30 9067 H 874.066 -0.452268 -4.6591 0
M  V30 9068 H 874.239 -0.877081 -6.42037 0
M  V30 9069 N 867.645 1.57599 0.00500368 0
M  V30 9070 C 868.87 1.95026 0.705663 0
M  V30 9071 C 869.295 0.869643 1.6679 0
M  V30 9072 O 868.653 -0.172659 1.80476 0
M  V30 9073 C 868.701 3.31545 1.4181 0
M  V30 9074 O 867.805 3.25495 2.53232 0
M  V30 9075 H 867.146 0.636808 0.188074 0
M  V30 9076 H 869.676 2.04547 -0.046696 0
M  V30 9077 H 869.686 3.66996 1.78265 0
M  V30 9078 H 868.361 4.09751 0.712543 0
M  V30 9079 H 866.938 3.01714 2.19142 0
M  V30 9080 N 869.123 -0.277682 1.55134 0
M  V30 9081 C 870.086 -1.32635 1.86924 0
M  V30 9082 C 871.086 -1.42578 0.743507 0
M  V30 9083 O 872.276 -1.4181 1.01171 0
M  V30 9084 C 869.408 -2.70832 2.07034 0
M  V30 9085 H 870.601 -1.0568 2.80663 0
M  V30 9086 H 868.154 -0.515517 1.47554 0
M  V30 9087 H 868.889 -3.02974 1.15661 0
M  V30 9088 H 868.674 -2.65001 2.88993 0
M  V30 9089 H 870.164 -3.46611 2.32918 0
M  V30 9090 N 870.601 -1.47988 -0.541979 0
M  V30 9091 C 871.831 -1.58804 -1.32155 0
M  V30 9092 C 872.239 -0.242893 -1.87634 0
M  V30 9093 O 871.582 0.776239 -1.66494 0
M  V30 9094 C 871.644 -2.56567 -2.51821 0
M  V30 9095 C 871.308 -4.01915 -2.17517 0
M  V30 9096 C 872.305 -4.89954 -1.73901 0
M  V30 9097 C 869.99 -4.47365 -2.28408 0
M  V30 9098 C 871.984 -6.21467 -1.41625 0
M  V30 9099 C 869.671 -5.78902 -1.95745 0
M  V30 9100 C 870.669 -6.65775 -1.52423 0
M  V30 9101 O 870.357 -7.94866 -1.20183 0
M  V30 9102 H 870.089 -0.538536 -0.408601 0
M  V30 9103 H 872.643 -1.94446 -0.661818 0
M  V30 9104 H 870.873 -2.16023 -3.20735 0
M  V30 9105 H 872.562 -2.57347 -3.13891 0
M  V30 9106 H 873.328 -4.56082 -1.64966 0
M  V30 9107 H 869.207 -3.79942 -2.61084 0
M  V30 9108 H 872.751 -6.8923 -1.07738 0
M  V30 9109 H 868.648 -6.12311 -2.04316 0
M  V30 9110 H 869.416 -8.07509 -1.33683 0
M  V30 9111 N 872.079 0.78992 -1.36375 0
M  V30 9112 C 873.042 1.88414 -1.30509 0
M  V30 9113 C 874.042 1.59384 -0.2129 0
M  V30 9114 O 875.232 1.67805 -0.467651 0
M  V30 9115 C 872.364 3.25188 -1.02302 0
M  V30 9116 H 873.557 1.95031 -2.27822 0
M  V30 9117 H 871.11 0.987664 -1.2114 0
M  V30 9118 H 871.845 3.24254 -0.0544486 0
M  V30 9119 H 871.63 3.47647 -1.81338 0
M  V30 9120 H 873.12 4.05252 -1.00801 0
M  V30 9121 N 873.557 1.20646 1.01402 0
M  V30 9122 C 874.487 0.98155 2.11867 0
M  V30 9123 C 875.468 -0.0903712 1.6986 0
M  V30 9124 O 876.653 0.0676586 1.94082 0
M  V30 9125 C 873.783 0.535636 3.43145 0
M  V30 9126 C 872.737 1.55109 3.98905 0
M  V30 9127 C 872.063 0.961725 5.2598 0
M  V30 9128 C 873.363 2.93552 4.32001 0
M  V30 9129 H 875.057 1.90544 2.3094 0
M  V30 9130 H 872.603 0.917554 1.10982 0
M  V30 9131 H 874.556 0.365512 4.19812 0
M  V30 9132 H 873.28 -0.423882 3.23838 0
M  V30 9133 H 871.939 1.70862 3.24348 0
M  V30 9134 H 871.587 -0.00580108 5.03 0
M  V30 9135 H 871.287 1.63993 5.64252 0
M  V30 9136 H 872.811 0.802726 6.053 0
M  V30 9137 H 874.225 2.81295 4.99546 0
M  V30 9138 H 872.622 3.58303 4.81393 0
M  V30 9139 H 873.692 3.4508 3.40658 0
M  V30 9140 N 875.035 -1.20752 1.01276 0
M  V30 9141 C 876.283 -1.89645 0.698505 0
M  V30 9142 C 876.604 -1.78986 -0.773883 0
M  V30 9143 O 875.874 -1.18977 -1.55632 0
M  V30 9144 H 874.454 -0.701992 0.255375 0
M  V30 9145 H 877.116 -1.46668 1.28353 0
M  V30 9146 H 876.212 -2.96364 0.978512 0
M  V30 9147 N 876.513 -0.788492 -1.36457 0
M  V30 9148 C 877.761 -0.359749 -1.98872 0
M  V30 9149 C 878.082 1.07197 -1.62892 0
M  V30 9150 O 877.352 1.73875 -0.902463 0
M  V30 9151 H 875.932 -0.130029 -0.735596 0
M  V30 9152 H 878.594 -1.01033 -1.66668 0
M  V30 9153 H 877.69 -0.450835 -3.08827 0
M  V30 9154 N 877.991 1.48044 -0.54043 0
M  V30 9155 C 878.921 2.32597 0.205178 0
M  V30 9156 C 879.902 1.42748 0.925041 0
M  V30 9157 O 881.087 1.71624 0.908784 0
M  V30 9158 C 878.217 3.24175 1.24612 0
M  V30 9159 C 877.171 4.23131 0.64376 0
M  V30 9160 C 876.497 5.03915 1.78812 0
M  V30 9161 C 877.797 5.20831 -0.39144 0
M  V30 9162 H 879.491 2.95184 -0.500676 0
M  V30 9163 H 877.037 1.41948 -0.242225 0
M  V30 9164 H 878.99 3.82158 1.77576 0
M  V30 9165 H 877.714 2.59608 1.98169 0
M  V30 9166 H 876.373 3.66349 0.135554 0
M  V30 9167 H 876.021 4.35765 2.51232 0
M  V30 9168 H 875.721 5.709 1.39094 0
M  V30 9169 H 877.245 5.64753 2.32134 0
M  V30 9170 H 878.659 5.73277 0.0515064 0
M  V30 9171 H 877.056 5.95926 -0.706569 0
M  V30 9172 H 878.126 4.6733 -1.29345 0
M  V30 9173 N 879.47 0.276058 1.55163 0
M  V30 9174 C 880.718 -0.339782 1.99223 0
M  V30 9175 C 881.039 -1.56307 1.16589 0
M  V30 9176 O 880.309 -1.94225 0.25564 0
M  V30 9177 H 878.889 -0.128534 0.735859 0
M  V30 9178 H 881.551 0.381612 1.91128 0
M  V30 9179 H 880.647 -0.629 3.05696 0
M  V30 9180 N 880.948 -1.576 0.00335426 0
M  V30 9181 C 882.173 -1.95398 -0.695311 0
M  V30 9182 C 882.598 -0.878476 -1.66326 0
M  V30 9183 O 881.956 0.163086 -1.80565 0
M  V30 9184 C 882.004 -3.32293 -1.40049 0
M  V30 9185 O 881.108 -3.26834 -2.51502 0
M  V30 9186 H 880.449 -0.637796 -0.184694 0
M  V30 9187 H 882.979 -2.04519 0.057543 0
M  V30 9188 H 882.989 -3.67936 -1.76316 0
M  V30 9189 H 881.664 -4.10123 -0.690803 0
M  V30 9190 H 880.241 -3.02872 -2.17539 0
M  V30 9191 N 882.426 0.269451 -1.5528 0
M  V30 9192 C 883.674 0.998604 -1.75705 0
M  V30 9193 C 883.995 1.86691 -0.563175 0
M  V30 9194 O 883.265 1.91305 0.421811 0
M  V30 9195 H 881.845 0.371698 -0.647958 0
M  V30 9196 H 884.507 0.292826 -1.92688 0
M  V30 9197 H 883.603 1.63348 -2.6594 0
M  V30 9198 N 883.904 1.48273 0.534124 0
M  V30 9199 C 885.153 1.55334 1.28663 0
M  V30 9200 C 885.466 0.230345 1.94239 0
M  V30 9201 O 886.672 0.179161 2.70908 0
M  V30 9202 C 885.128 2.73927 2.33435 0
M  V30 9203 C 884.736 4.12852 1.73947 0
M  V30 9204 C 886.48 2.90298 3.09722 0
M  V30 9205 C 884.387 5.22711 2.76636 0
M  V30 9206 H 883.317 0.578262 0.483869 0
M  V30 9207 H 885.968 1.74598 0.564602 0
M  V30 9208 H 884.35 2.48089 3.08655 0
M  V30 9209 H 885.524 4.48691 1.04944 0
M  V30 9210 H 883.839 4.01562 1.10167 0
M  V30 9211 H 886.436 3.69542 3.86449 0
M  V30 9212 H 886.779 1.99598 3.6533 0
M  V30 9213 H 887.312 3.16017 2.41616 0
M  V30 9214 H 884.051 6.15362 2.25852 0
M  V30 9215 H 883.571 4.91364 3.43979 0
M  V30 9216 H 885.25 5.50648 3.39699 0
M  V30 9217 N 885.382 -0.782676 1.36792 0
M  V30 9218 C 886.622 -1.55396 1.32784 0
M  V30 9219 C 886.986 -1.91789 -0.0900272 0
M  V30 9220 O 888.187 -2.6759 -0.254725 0
M  V30 9221 C 886.458 -2.79227 2.23085 0
M  V30 9222 S 888.017 -3.69404 2.36825 0
M  V30 9223 H 884.835 -0.532139 0.471539 0
M  V30 9224 H 887.437 -0.921285 1.72431 0
M  V30 9225 H 886.141 -2.50553 3.25041 0
M  V30 9226 H 885.672 -3.47462 1.84482 0
M  V30 9227 H 887.687 -4.70683 1.57074 0
M  V30 9228 N 886.86 -1.21182 -1.00761 0
M  V30 9229 C 888.271 -1.02652 -1.55947 0
M  V30 9230 C 888.622 0.414466 -1.91772 0
M  V30 9231 O 887.747 1.29727 -1.73204 0
M  V30 9232 C 888.342 -1.85713 -2.83366 0
M  V30 9233 C 886.901 -1.71523 -3.35048 0
M  V30 9234 C 886.048 -1.83087 -2.08265 0
M  V30 9235 H 888.999 -1.35242 -0.830379 0
M  V30 9236 H 889.02 -1.36583 -3.55141 0
M  V30 9237 H 888.532 -2.90584 -2.5726 0
M  V30 9238 H 886.633 -0.693257 -3.66094 0
M  V30 9239 H 886.746 -2.53333 -4.06644 0
M  V30 9240 H 885.11 -1.26367 -2.21141 0
M  V30 9241 H 885.893 -2.8946 -1.84575 0
M  V30 9242 N 888.338 1.20213 -1.01915 0
M  V30 9243 C 889.286 2.25125 -0.584936 0
M  V30 9244 C 890.28 1.65138 0.377602 0
M  V30 9245 O 891.486 1.78294 0.247245 0
M  V30 9246 H 887.861 0.732333 -0.170858 0
M  V30 9247 H 889.832 2.59075 -1.48063 0
M  V30 9248 C 888.581 3.47651 0.058389 0
M  V30 9249 H 887.904 3.9409 -0.673263 0
M  V30 9250 H 889.344 4.2275 0.325285 0
M  V30 9251 C 887.803 3.10725 1.30199 0
M  V30 9252 O 888.333 3.22491 2.39505 0
M  V30 9253 N 886.539 2.6525 1.18706 0
M  V30 9254 H 886.086 2.55875 0.297618 0
M  V30 9255 H 886.044 2.40913 2.02011 0
M  V30 9256 N 889.816 0.795718 1.36037 0
M  V30 9257 C 891.232 0.478145 1.52269 0
M  V30 9258 C 891.432 -1.0025 1.74792 0
M  V30 9259 O 890.488 -1.78783 1.78305 0
M  V30 9260 C 891.801 1.31406 2.70468 0
M  V30 9261 C 893.349 1.3084 2.84341 0
M  V30 9262 C 893.824 2.12819 4.05551 0
M  V30 9263 N 895.315 2.10298 4.12709 0
M  V30 9264 C 896.05 2.70495 5.05589 0
M  V30 9265 N 895.546 3.39576 6.03871 0
M  V30 9266 N 897.339 2.60195 4.98252 0
M  V30 9267 H 889.49 1.75477 1.19673 0
M  V30 9268 H 891.753 0.74627 0.584624 0
M  V30 9269 H 891.459 2.36435 2.60368 0
M  V30 9270 H 891.333 0.959726 3.64786 0
M  V30 9271 H 893.72 0.266003 2.93899 0
M  V30 9272 H 893.801 1.70254 1.90912 0
M  V30 9273 H 893.445 3.17093 3.96755 0
M  V30 9274 H 893.375 1.70772 4.98141 0
M  V30 9275 H 895.866 1.60026 3.42345 0
M  V30 9276 H 896.179 3.82823 6.71317 0
M  V30 9277 H 894.524 3.43679 6.04077 0
M  V30 9278 H 897.715 2.05823 4.20422 0
M  V30 9279 H 897.888 3.074 5.70447 0
M  V30 9280 N 891.294 -1.47756 0.548274 0
M  V30 9281 C 892.204 -2.33678 -0.207773 0
M  V30 9282 C 893.22 -1.47636 -0.920843 0
M  V30 9283 O 894.396 -1.80583 -0.89173 0
M  V30 9284 C 891.461 -3.24147 -1.23003 0
M  V30 9285 C 890.522 -4.26073 -0.52535 0
M  V30 9286 C 889.755 -5.12219 -1.4989 0
M  V30 9287 O 889.978 -5.0066 -2.73305 0
M  V30 9288 O 888.912 -5.93051 -1.02828 0
M  V30 9289 H 892.738 -2.99609 0.496794 0
M  V30 9290 H 890.323 -1.4617 0.308982 0
M  V30 9291 H 892.205 -3.80055 -1.82034 0
M  V30 9292 H 890.88 -2.60855 -1.91668 0
M  V30 9293 H 889.787 -3.7395 0.105927 0
M  V30 9294 H 891.12 -4.92054 0.119686 0
M  V30 9295 N 892.772 -0.284283 -1.55015 0
M  V30 9296 C 894 0.332948 -2.04203 0
M  V30 9297 C 894.415 1.48783 -1.16229 0
M  V30 9298 O 893.772 1.81567 -0.184323 0
M  V30 9299 C 893.823 0.805207 -3.52418 0
M  V30 9300 O 893.544 -0.303689 -4.37046 0
M  V30 9301 C 895.045 1.48931 -4.17534 0
M  V30 9302 H 892.265 0.0747447 -0.666824 0
M  V30 9303 H 894.809 -0.419048 -2.00161 0
M  V30 9304 H 892.964 1.50727 -3.56876 0
M  V30 9305 H 893.378 0.0609703 -5.24465 0
M  V30 9306 H 894.852 1.77108 -5.22816 0
M  V30 9307 H 895.329 2.42389 -3.66257 0
M  V30 9308 H 895.935 0.830867 -4.17105 0
M  V30 9309 N 894.251 1.57596 -0.0117121 0
M  V30 9310 C 895.181 2.12188 0.9746 0
M  V30 9311 C 896.162 1.03379 1.35081 0
M  V30 9312 O 897.347 1.31123 1.4325 0
M  V30 9313 C 894.477 2.63477 2.26268 0
M  V30 9314 C 893.431 3.76917 2.02774 0
M  V30 9315 C 892.757 4.14566 3.37697 0
M  V30 9316 C 894.057 5.03715 1.38089 0
M  V30 9317 H 895.751 2.9485 0.520007 0
M  V30 9318 H 893.297 1.41836 0.248685 0
M  V30 9319 H 895.25 3.00299 2.95633 0
M  V30 9320 H 893.974 1.77953 2.73862 0
M  V30 9321 H 892.633 3.40507 1.35832 0
M  V30 9322 H 892.281 3.26048 3.83016 0
M  V30 9323 H 891.981 4.91 3.22789 0
M  V30 9324 H 893.505 4.53956 4.08358 0
M  V30 9325 H 894.919 5.38233 1.97428 0
M  V30 9326 H 893.316 5.85032 1.33634 0
M  V30 9327 H 894.386 4.83624 0.351575 0
M  V30 9328 N 895.729 -0.261212 1.5542 0
M  V30 9329 C 896.662 -1.34906 1.84054 0
M  V30 9330 C 897.64 -1.47024 0.694466 0
M  V30 9331 O 898.824 -1.63463 0.938719 0
M  V30 9332 C 895.951 -2.7242 2.01259 0
M  V30 9333 C 894.997 -2.77526 3.23855 0
M  V30 9334 S 895.83 -2.35578 4.80898 0
M  V30 9335 C 896.986 -3.75045 5.01091 0
M  V30 9336 H 897.219 -1.10416 2.76035 0
M  V30 9337 H 894.752 -0.461461 1.47343 0
M  V30 9338 H 896.71 -3.51606 2.11857 0
M  V30 9339 H 895.371 -2.94155 1.10145 0
M  V30 9340 H 894.564 -3.78483 3.32816 0
M  V30 9341 H 894.166 -2.0637 3.11909 0
M  V30 9342 H 896.458 -4.7042 4.87556 0
M  V30 9343 H 897.401 -3.71027 6.03112 0
M  V30 9344 H 897.809 -3.66894 4.29009 0
M  V30 9345 N 897.207 -1.48554 -0.526253 0
M  V30 9346 C 898.484 -1.47252 -1.28748 0
M  V30 9347 C 898.864 -0.186245 -2.10277 0
M  V30 9348 O 898.212 0.831954 -2.12816 0
M  V30 9349 C 898.422 -2.73672 -2.16575 0
M  V30 9350 C 899.77 -3.22151 -2.76593 0
M  V30 9351 O 900.794 -2.74614 -2.2686 0
M  V30 9352 O 899.653 -4.04877 -3.67066 0
M  V30 9353 H 896.747 -0.588242 -0.581292 0
M  V30 9354 H 899.293 -1.60792 -0.5426 0
M  V30 9355 H 898.065 -3.58798 -1.56139 0
M  V30 9356 H 897.688 -2.6287 -2.98304 0
M  V30 9357 N 898.685 0.775411 -1.37205 0
M  V30 9358 C 899.615 1.90258 -1.35367 0
M  V30 9359 C 900.596 1.68634 -0.222864 0
M  V30 9360 O 901.781 1.89545 -0.422659 0
M  V30 9361 C 898.911 3.27488 -1.15623 0
M  V30 9362 C 897.865 3.63668 -2.25676 0
M  V30 9363 C 897.191 4.994 -1.91059 0
M  V30 9364 C 898.491 3.70797 -3.67841 0
M  V30 9365 H 900.185 1.92053 -2.29687 0
M  V30 9366 H 897.731 0.922597 -1.10563 0
M  V30 9367 H 899.684 4.05976 -1.12968 0
M  V30 9368 H 898.408 3.26117 -0.177573 0
M  V30 9369 H 897.067 2.87486 -2.2748 0
M  V30 9370 H 896.715 4.94565 -0.917324 0
M  V30 9371 H 896.415 5.24576 -2.64751 0
M  V30 9372 H 897.939 5.80291 -1.89985 0
M  V30 9373 H 899.353 4.39444 -3.68187 0
M  V30 9374 H 897.75 4.07468 -4.40556 0
M  V30 9375 H 898.82 2.71549 -4.01732 0
M  V30 9376 N 900.163 1.21714 1.00117 0
M  V30 9377 C 901.388 1.06357 1.78054 0
M  V30 9378 C 901.813 -0.382075 1.84179 0
M  V30 9379 O 901.171 -1.27575 1.28819 0
M  V30 9380 C 901.219 1.66982 3.19608 0
M  V30 9381 O 900.323 0.917892 4.02055 0
M  V30 9382 H 899.664 0.374074 0.548602 0
M  V30 9383 H 902.194 1.61338 1.25822 0
M  V30 9384 H 902.204 1.71363 3.70268 0
M  V30 9385 H 900.879 2.72185 3.14465 0
M  V30 9386 H 899.456 0.949473 3.6061 0
M  V30 9387 N 901.641 -1.19671 1.02551 0
M  V30 9388 C 902.869 -1.93233 0.739513 0
M  V30 9389 C 903.284 -1.75298 -0.701158 0
M  V30 9390 O 902.641 -1.07269 -1.47647 0
M  V30 9391 C 902.692 -3.45085 1.07697 0
M  V30 9392 O 902.413 -3.62441 2.46106 0
M  V30 9393 C 903.914 -4.35776 0.813298 0
M  V30 9394 H 901.134 -0.613905 0.270853 0
M  V30 9395 H 903.678 -1.51909 1.36909 0
M  V30 9396 H 901.833 -3.84255 0.492635 0
M  V30 9397 H 902.247 -4.56337 2.58567 0
M  V30 9398 H 903.721 -5.40941 1.09941 0
M  V30 9399 H 904.198 -4.38474 -0.252359 0
M  V30 9400 H 904.804 -4.02282 1.38021 0
M  V30 9401 N 903.119 -0.802921 -1.35613 0
M  V30 9402 C 904.066 -0.20874 -2.29854 0
M  V30 9403 C 905.036 0.655128 -1.52634 0
M  V30 9404 O 906.221 0.600979 -1.81088 0
M  V30 9405 C 903.361 0.639663 -3.3912 0
M  V30 9406 C 902.474 -0.244234 -4.31309 0
M  V30 9407 C 901.609 0.611825 -5.27665 0
M  V30 9408 C 900.648 -0.272698 -6.11492 0
M  V30 9409 N 899.785 0.543122 -6.99996 0
M  V30 9410 H 904.625 -1.01782 -2.80079 0
M  V30 9411 H 902.162 -0.513465 -1.37848 0
M  V30 9412 H 904.12 1.14668 -4.01132 0
M  V30 9413 H 902.75 1.41404 -2.9018 0
M  V30 9414 H 901.802 -0.869322 -3.70334 0
M  V30 9415 H 903.114 -0.925202 -4.90144 0
M  V30 9416 H 902.268 1.18412 -5.95032 0
M  V30 9417 H 901.007 1.32637 -4.69317 0
M  V30 9418 H 900.012 -0.857287 -5.43075 0
M  V30 9419 H 901.237 -0.985051 -6.71918 0
M  V30 9420 H 899.183 1.24171 -6.44141 0
M  V30 9421 H 899.1 -0.0798767 -7.55958 0
M  V30 9422 H 900.368 1.09881 -7.71717 0
M  V30 9423 N 904.597 1.47463 -0.556102 0
M  V30 9424 C 905.56 2.28478 0.181743 0
M  V30 9425 C 906.56 1.36886 0.843738 0
M  V30 9426 O 907.75 1.59527 0.69977 0
M  V30 9427 C 904.882 3.16534 1.26566 0
M  V30 9428 H 906.075 2.95182 -0.529892 0
M  V30 9429 H 903.628 1.53134 -0.313005 0
M  V30 9430 H 904.363 2.5452 2.00973 0
M  V30 9431 H 904.148 3.83939 0.795798 0
M  V30 9432 H 905.638 3.77579 1.78393 0
M  V30 9433 N 906.075 0.2925 1.54862 0
M  V30 9434 C 907.322 -0.319263 1.99967 0
M  V30 9435 C 907.65 -1.54547 1.18092 0
M  V30 9436 O 906.905 -1.94186 0.242969 0
M  V30 9437 C 907.204 -0.728674 3.49893 0
M  V30 9438 C 906.87 0.394836 4.49168 0
M  V30 9439 C 905.532 0.703289 4.76033 0
M  V30 9440 C 907.884 1.15103 5.08331 0
M  V30 9441 C 905.212 1.77121 5.59325 0
M  V30 9442 C 907.564 2.20881 5.92785 0
M  V30 9443 C 906.228 2.52342 6.17964 0
M  V30 9444 H 905.498 -0.116827 0.731733 0
M  V30 9445 H 908.145 0.40983 1.87063 0
M  V30 9446 H 906.45 -1.53772 3.60363 0
M  V30 9447 H 908.147 -1.21305 3.82212 0
M  V30 9448 H 904.737 0.144319 4.28357 0
M  V30 9449 H 908.921 0.92599 4.87585 0
M  V30 9450 H 904.177 2.01978 5.77074 0
M  V30 9451 H 908.351 2.79939 6.37657 0
M  V30 9452 H 905.978 3.35225 6.82296 0
M  V30 9453 N 907.553 -1.57587 0.0200696 0
M  V30 9454 C 908.516 -2.08595 -0.949767 0
M  V30 9455 C 909.516 -0.999215 -1.25985 0
M  V30 9456 O 910.706 -1.26115 -1.2017 0
M  V30 9457 C 907.838 -2.54424 -2.26895 0
M  V30 9458 H 909.031 -2.95563 -0.508161 0
M  V30 9459 H 906.584 -1.54631 -0.227798 0
M  V30 9460 H 907.319 -1.70758 -2.75703 0
M  V30 9461 H 907.104 -3.3381 -2.05702 0
M  V30 9462 H 908.594 -2.94144 -2.96427 0
M  V30 9463 N 909.032 0.252966 -1.55557 0
M  V30 9464 C 909.965 1.33928 -1.84766 0
M  V30 9465 C 910.943 1.46653 -0.702254 0
M  V30 9466 O 912.127 1.62963 -0.947375 0
M  V30 9467 C 909.254 2.71348 -2.02701 0
M  V30 9468 C 908.3 2.75804 -3.25322 0
M  V30 9469 S 909.133 2.33025 -4.82141 0
M  V30 9470 C 910.289 3.72382 -5.03073 0
M  V30 9471 H 910.522 1.08951 -2.76617 0
M  V30 9472 H 908.055 0.45364 -1.47585 0
M  V30 9473 H 910.013 3.50478 -2.13718 0
M  V30 9474 H 908.674 2.93566 -1.11703 0
M  V30 9475 H 907.867 3.76713 -3.34819 0
M  V30 9476 H 907.469 2.04713 -3.12999 0
M  V30 9477 H 909.761 4.67828 -4.90044 0
M  V30 9478 H 910.704 3.67824 -6.05071 0
M  V30 9479 H 911.112 3.64614 -4.30949 0
M  V30 9480 N 910.51 1.48831 0.518367 0
M  V30 9481 C 911.738 1.6112 1.298 0
M  V30 9482 C 912.153 0.275872 1.86774 0
M  V30 9483 O 911.51 -0.736416 1.66983 0
M  V30 9484 C 911.561 2.66675 2.44063 0
M  V30 9485 O 911.282 3.95027 1.89434 0
M  V30 9486 C 912.783 2.8951 3.35706 0
M  V30 9487 H 910.003 0.542916 0.394314 0
M  V30 9488 H 912.547 1.94743 0.624142 0
M  V30 9489 H 910.702 2.35879 3.07311 0
M  V30 9490 H 911.116 4.53031 2.64316 0
M  V30 9491 H 912.59 3.67142 4.12202 0
M  V30 9492 H 913.067 1.98768 3.91648 0
M  V30 9493 H 913.673 3.21656 2.7824 0
M  V30 9494 N 911.988 -0.768124 1.37614 0
M  V30 9495 C 912.936 -1.9029 1.33763 0
M  V30 9496 C 913.93 -1.67888 0.225814 0
M  V30 9497 O 915.136 -1.75634 0.394043 0
M  V30 9498 H 911.511 -0.625828 0.416945 0
M  V30 9499 H 913.482 -1.90654 2.29551 0
M  V30 9500 C 912.231 -3.27598 1.16511 0
M  V30 9501 H 911.554 -3.45414 2.01318 0
M  V30 9502 H 912.994 -4.07288 1.17867 0
M  V30 9503 C 911.453 -3.36653 -0.129001 0
M  V30 9504 O 911.983 -3.86023 -1.11128 0
M  V30 9505 N 910.189 -2.90036 -0.180926 0
M  V30 9506 H 909.736 -2.5005 0.619076 0
M  V30 9507 H 909.694 -2.96475 -1.04641 0
M  V30 9508 N 913.466 -1.22244 -0.994698 0
M  V30 9509 C 914.398 -0.948706 -2.08644 0
M  V30 9510 C 915.411 0.0720049 -1.62641 0
M  V30 9511 O 916.6 -0.161778 -1.77765 0
M  V30 9512 C 913.7 -0.404885 -3.36473 0
M  V30 9513 C 912.873 -1.48239 -4.11514 0
M  V30 9514 C 911.932 -0.94597 -5.17627 0
M  V30 9515 O 910.958 -1.63177 -5.45309 0
M  V30 9516 N 912.16 0.23355 -5.8003 0
M  V30 9517 H 914.925 -1.88858 -2.32707 0
M  V30 9518 H 912.486 -1.12908 -1.16032 0
M  V30 9519 H 914.478 -0.0313903 -4.04688 0
M  V30 9520 H 913.048 0.440061 -3.09487 0
M  V30 9521 H 912.268 -2.02928 -3.37955 0
M  V30 9522 H 913.556 -2.20741 -4.58422 0
M  V30 9523 H 912.954 0.80756 -5.59906 0
M  V30 9524 H 911.511 0.54845 -6.49488 0
M  V30 9525 N 914.944 1.19125 -1.03184 0
M  V30 9526 C 916.193 1.8821 -0.725264 0
M  V30 9527 C 916.506 1.80674 0.749411 0
M  V30 9528 O 917.712 2.45037 1.16915 0
M  V30 9529 C 916.168 3.37607 -1.24697 0
M  V30 9530 C 915.776 3.53693 -2.74964 0
M  V30 9531 C 917.52 4.12149 -1.01652 0
M  V30 9532 C 915.427 4.97001 -3.20538 0
M  V30 9533 H 914.357 0.704916 -0.267599 0
M  V30 9534 H 917.008 1.34663 -1.24652 0
M  V30 9535 H 915.39 3.90569 -0.653614 0
M  V30 9536 H 916.564 3.11046 -3.39981 0
M  V30 9537 H 914.879 2.92544 -2.96322 0
M  V30 9538 H 917.476 5.17837 -1.33226 0
M  V30 9539 H 917.819 4.16274 0.0465712 0
M  V30 9540 H 918.352 3.65334 -1.57403 0
M  V30 9541 H 915.091 4.9804 -4.26189 0
M  V30 9542 H 914.611 5.40398 -2.60251 0
M  V30 9543 H 916.29 5.65669 -3.14049 0
M  V30 9544 N 916.422 0.810101 1.35185 0
M  V30 9545 C 917.352 0.237453 2.32289 0
M  V30 9546 C 918.333 -0.639032 1.5764 0
M  V30 9547 O 919.518 -0.568575 1.8569 0
M  V30 9548 C 916.648 -0.611964 3.41866 0
M  V30 9549 C 915.602 0.166318 4.27677 0
M  V30 9550 C 914.928 -0.805024 5.28605 0
M  V30 9551 C 916.228 1.36729 5.04086 0
M  V30 9552 H 917.922 1.04874 2.80432 0
M  V30 9553 H 915.468 0.505751 1.34826 0
M  V30 9554 H 917.421 -1.02267 4.08802 0
M  V30 9555 H 916.145 -1.45617 2.92341 0
M  V30 9556 H 914.804 0.558238 3.62325 0
M  V30 9557 H 914.452 -1.64483 4.75347 0
M  V30 9558 H 914.152 -0.288577 5.86891 0
M  V30 9559 H 915.676 -1.21386 5.98413 0
M  V30 9560 H 917.09 1.03128 5.63948 0
M  V30 9561 H 915.487 1.81848 5.71884 0
M  V30 9562 H 916.557 2.15214 4.34524 0
M  V30 9563 N 917.9 -1.47166 0.563914 0
M  V30 9564 C 919.146 -2.02756 0.0424338 0
M  V30 9565 C 919.479 -1.43662 -1.3067 0
M  V30 9566 O 918.754 -0.594676 -1.85186 0
M  V30 9567 C 919.037 -3.60074 -0.0434793 0
M  V30 9568 C 918.89 -4.29587 1.33323 0
M  V30 9569 C 920.209 -4.336 -0.753568 0
M  V30 9570 H 917.328 -0.736806 0.0168946 0
M  V30 9571 H 919.97 -1.75521 0.727496 0
M  V30 9572 H 918.12 -3.83409 -0.626906 0
M  V30 9573 H 919.792 -4.17573 1.96037 0
M  V30 9574 H 918.035 -3.8968 1.9061 0
M  V30 9575 H 918.706 -5.38218 1.22576 0
M  V30 9576 H 921.182 -4.15299 -0.258126 0
M  V30 9577 H 920.058 -5.43291 -0.782659 0
M  V30 9578 H 920.319 -4.03302 -1.81108 0
M  V30 9579 N 919.378 -0.300708 -1.54705 0
M  V30 9580 C 920.288 0.584996 -2.27189 0
M  V30 9581 C 921.304 1.14866 -1.30697 0
M  V30 9582 O 922.48 1.17351 -1.63679 0
M  V30 9583 C 919.545 1.74076 -2.99831 0
M  V30 9584 C 918.606 1.2112 -4.1186 0
M  V30 9585 C 917.839 2.31188 -4.81028 0
M  V30 9586 O 918.062 3.5108 -4.49554 0
M  V30 9587 O 916.996 1.97897 -5.68437 0
M  V30 9588 H 920.822 -0.00298177 -3.037 0
M  V30 9589 H 918.407 -0.0671802 -1.49249 0
M  V30 9590 H 920.289 2.41413 -3.45395 0
M  V30 9591 H 918.964 2.31535 -2.26215 0
M  V30 9592 H 917.871 0.50357 -3.70695 0
M  V30 9593 H 919.204 0.682046 -4.87452 0
M  V30 9594 N 920.856 1.57574 -0.0284266 0
M  V30 9595 C 921.803 2.10176 0.953658 0
M  V30 9596 C 922.773 1.00367 1.32347 0
M  V30 9597 O 923.958 1.27783 1.4169 0
M  V30 9598 C 921.098 2.63287 2.231 0
M  V30 9599 C 920.211 3.87102 1.91771 0
M  V30 9600 C 919.346 4.28609 3.13795 0
M  V30 9601 C 918.385 5.45184 2.78282 0
M  V30 9602 N 917.522 5.81851 3.92929 0
M  V30 9603 H 922.362 2.93806 0.498176 0
M  V30 9604 H 919.899 1.45222 0.234302 0
M  V30 9605 H 921.857 2.9217 2.97813 0
M  V30 9606 H 920.487 1.82489 2.66266 0
M  V30 9607 H 919.539 3.64952 1.07303 0
M  V30 9608 H 920.851 4.71892 1.61615 0
M  V30 9609 H 920.005 4.58925 3.96829 0
M  V30 9610 H 918.744 3.42585 3.47112 0
M  V30 9611 H 917.749 5.14563 1.93661 0
M  V30 9612 H 918.974 6.32907 2.46182 0
M  V30 9613 H 916.92 4.98782 4.2609 0
M  V30 9614 H 916.837 6.6128 3.66395 0
M  V30 9615 H 918.105 6.16772 4.76669 0
M  V30 9616 N 922.334 -0.244713 1.55689 0
M  V30 9617 C 923.559 -0.994157 1.8202 0
M  V30 9618 C 923.984 -1.78079 0.60577 0
M  V30 9619 O 923.342 -1.75748 -0.445221 0
M  V30 9620 C 923.39 -1.90599 3.06111 0
M  V30 9621 O 922.494 -2.99804 2.8318 0
M  V30 9622 H 921.835 -0.282767 0.600782 0
M  V30 9623 H 924.365 -0.26504 2.02876 0
M  V30 9624 H 924.375 -2.32023 3.35603 0
M  V30 9625 H 923.05 -1.32763 3.9414 0
M  V30 9626 H 921.627 -2.62493 2.64862 0
M  V30 9627 N 923.813 -1.49104 -0.510467 0
M  V30 9628 C 925.059 -1.58346 -1.26705 0
M  V30 9629 C 925.392 -0.265121 -1.92382 0
M  V30 9630 O 924.667 0.730558 -1.80258 0
M  V30 9631 C 924.95 -2.7359 -2.34137 0
M  V30 9632 C 924.803 -4.1519 -1.73024 0
M  V30 9633 C 926.122 -2.84511 -3.3577 0
M  V30 9634 H 923.241 -0.57637 -0.459311 0
M  V30 9635 H 925.883 -1.81353 -0.566658 0
M  V30 9636 H 924.033 -2.54105 -2.93876 0
M  V30 9637 H 925.705 -4.46167 -1.17186 0
M  V30 9638 H 923.948 -4.21279 -1.03473 0
M  V30 9639 H 924.619 -4.91683 -2.50903 0
M  V30 9640 H 927.095 -3.0222 -2.86011 0
M  V30 9641 H 925.971 -3.6684 -4.08313 0
M  V30 9642 H 926.232 -1.93471 -3.97519 0
M  V30 9643 N 925.291 0.760815 -1.38019 0
M  V30 9644 C 926.519 1.55001 -1.37048 0
M  V30 9645 C 926.934 1.88754 0.0415261 0
M  V30 9646 O 926.291 1.52254 1.00624 0
M  V30 9647 C 926.342 2.8536 -2.21928 0
M  V30 9648 O 926.063 2.53049 -3.57628 0
M  V30 9649 C 927.564 3.79536 -2.29057 0
M  V30 9650 H 924.784 0.479844 -0.469032 0
M  V30 9651 H 927.328 0.942148 -1.81504 0
M  V30 9652 H 925.483 3.42542 -1.80953 0
M  V30 9653 H 925.897 3.36604 -4.02241 0
M  V30 9654 H 927.371 4.67977 -2.92749 0
M  V30 9655 H 927.848 4.19453 -1.30213 0
M  V30 9656 H 928.454 3.28281 -2.70392 0
M  V30 9657 N 926.769 1.22769 0.988202 0
M  V30 9658 C 928.017 1.05301 1.725 0
M  V30 9659 C 928.338 -0.412103 1.90596 0
M  V30 9660 O 927.608 -1.29606 1.46898 0
M  V30 9661 H 926.188 0.386658 0.639144 0
M  V30 9662 H 928.85 1.54359 1.18993 0
M  V30 9663 H 927.946 1.53465 2.71763 0
M  V30 9664 N 928.247 -1.18576 1.03814 0
M  V30 9665 C 929.493 -1.89032 0.750892 0
M  V30 9666 C 929.848 -1.78683 -0.713444 0
M  V30 9667 O 929.141 -1.1746 -1.51373 0
M  V30 9668 C 929.335 -3.38448 1.14837 0
M  V30 9669 C 929.164 -3.63339 2.64981 0
M  V30 9670 C 927.934 -3.80847 3.3209 0
M  V30 9671 C 930.132 -3.64131 3.63198 0
M  V30 9672 N 928.114 -3.93453 4.71241 0
M  V30 9673 C 929.485 -3.82421 4.88011 0
M  V30 9674 C 931.54 -3.47206 3.56865 0
M  V30 9675 C 930.243 -3.85538 6.0725 0
M  V30 9676 C 932.269 -3.51605 4.75529 0
M  V30 9677 C 931.631 -3.70388 5.99159 0
M  V30 9678 H 927.73 -0.710447 0.326786 0
M  V30 9679 H 930.314 -1.42444 1.32732 0
M  V30 9680 H 928.485 -3.83737 0.600058 0
M  V30 9681 H 930.217 -3.96462 0.812406 0
M  V30 9682 H 926.972 -3.80122 2.82496 0
M  V30 9683 H 927.396 -4.03584 5.43552 0
M  V30 9684 H 932.038 -3.31632 2.6226 0
M  V30 9685 H 929.756 -3.99901 7.02214 0
M  V30 9686 H 933.342 -3.39787 4.72267 0
M  V30 9687 H 932.222 -3.73679 6.89445 0
M  V30 9688 N 929.725 -0.817259 -1.34754 0
M  V30 9689 C 930.672 -0.233108 -2.2962 0
M  V30 9690 C 931.642 0.638902 -1.53321 0
M  V30 9691 O 932.827 0.581739 -1.81715 0
M  V30 9692 C 929.967 0.603659 -3.39779 0
M  V30 9693 C 929.08 -0.289967 -4.31026 0
M  V30 9694 C 928.215 0.555825 -5.28284 0
M  V30 9695 C 927.254 -0.337539 -6.11169 0
M  V30 9696 N 926.391 0.468847 -7.00533 0
M  V30 9697 H 931.231 -1.04747 -2.78984 0
M  V30 9698 H 928.768 -0.528056 -1.37295 0
M  V30 9699 H 930.726 1.10407 -4.02326 0
M  V30 9700 H 929.356 1.38319 -2.91664 0
M  V30 9701 H 928.408 -0.908552 -3.69391 0
M  V30 9702 H 929.72 -0.977136 -4.89135 0
M  V30 9703 H 928.874 1.12094 -5.96255 0
M  V30 9704 H 927.613 1.27652 -4.70698 0
M  V30 9705 H 926.618 -0.914839 -5.42135 0
M  V30 9706 H 927.843 -1.05626 -6.70835 0
M  V30 9707 H 925.789 1.17332 -6.45422 0
M  V30 9708 H 925.706 -0.160052 -7.55831 0
M  V30 9709 H 926.974 1.01689 -7.72839 0
M  V30 9710 N 931.203 1.46865 -0.571711 0
M  V30 9711 C 932.113 2.33979 0.170571 0
M  V30 9712 C 933.129 1.49083 0.897239 0
M  V30 9713 O 934.305 1.81979 0.862888 0
M  V30 9714 C 931.37 3.26063 1.17831 0
M  V30 9715 C 930.431 4.26855 0.457499 0
M  V30 9716 C 929.664 5.14539 1.41722 0
M  V30 9717 O 929.887 5.04945 2.65305 0
M  V30 9718 O 928.821 5.94612 0.9338 0
M  V30 9719 H 932.647 2.98781 -0.544396 0
M  V30 9720 H 930.232 1.4566 -0.332198 0
M  V30 9721 H 932.114 3.82903 1.75965 0
M  V30 9722 H 930.789 2.63871 1.87493 0
M  V30 9723 H 929.696 3.73734 -0.165406 0
M  V30 9724 H 931.029 4.91802 -0.197953 0
M  V30 9725 N 932.681 0.308908 1.54543 0
M  V30 9726 C 933.93 -0.298854 1.99474 0
M  V30 9727 C 934.243 -1.54393 1.20093 0
M  V30 9728 O 935.449 -2.22677 1.55329 0
M  V30 9729 C 933.905 -0.58303 3.55146 0
M  V30 9730 C 933.513 0.644157 4.43345 0
M  V30 9731 C 935.257 -1.15155 4.08582 0
M  V30 9732 C 933.164 0.332694 5.90463 0
M  V30 9733 H 932.094 -0.115445 0.74511 0
M  V30 9734 H 934.745 0.418848 1.78656 0
M  V30 9735 H 933.127 -1.36053 3.71894 0
M  V30 9736 H 934.301 1.42012 4.38371 0
M  V30 9737 H 932.616 1.13186 4.00722 0
M  V30 9738 H 935.213 -1.39896 5.16075 0
M  V30 9739 H 935.556 -2.09632 3.59667 0
M  V30 9740 H 936.089 -0.435571 3.95408 0
M  V30 9741 H 932.828 1.24624 6.43544 0
M  V30 9742 H 932.348 -0.405844 5.98425 0
M  V30 9743 H 934.027 -0.0628545 6.46969 0
M  V30 9744 N 934.159 -1.57557 0.0367827 0
M  V30 9745 C 935.069 -2.14148 -0.958017 0
M  V30 9746 C 936.085 -1.09564 -1.35173 0
M  V30 9747 O 937.261 -1.4166 -1.43158 0
M  V30 9748 C 934.326 -2.6636 -2.21931 0
M  V30 9749 C 933.387 -3.85688 -1.8853 0
M  V30 9750 C 932.62 -4.35401 -3.08645 0
M  V30 9751 O 932.843 -3.8425 -4.21554 0
M  V30 9752 O 931.777 -5.27158 -2.90497 0
M  V30 9753 H 935.603 -2.99442 -0.506797 0
M  V30 9754 H 933.188 -1.48259 -0.184275 0
M  V30 9755 H 935.07 -2.99976 -2.9596 0
M  V30 9756 H 933.745 -1.84145 -2.66219 0
M  V30 9757 H 932.652 -3.56985 -1.11861 0
M  V30 9758 H 933.985 -4.69089 -1.49052 0
M  V30 9759 N 935.637 0.236453 -1.55816 0
M  V30 9760 C 936.867 0.978873 -1.81939 0
M  V30 9761 C 937.275 1.79041 -0.611647 0
M  V30 9762 O 936.618 1.78616 0.429172 0
M  V30 9763 C 936.68 1.9569 -3.01572 0
M  V30 9764 C 936.344 1.33131 -4.37178 0
M  V30 9765 C 937.341 0.728585 -5.1477 0
M  V30 9766 C 935.026 1.34755 -4.83887 0
M  V30 9767 C 937.02 0.150427 -6.37222 0
M  V30 9768 C 934.707 0.765539 -6.06286 0
M  V30 9769 C 935.705 0.168017 -6.82793 0
M  V30 9770 O 935.393 -0.404976 -8.02879 0
M  V30 9771 H 935.125 0.293186 -0.609113 0
M  V30 9772 H 937.679 0.261384 -2.0373 0
M  V30 9773 H 935.909 2.71298 -2.75562 0
M  V30 9774 H 937.598 2.56362 -3.14695 0
M  V30 9775 H 938.364 0.708477 -4.79797 0
M  V30 9776 H 934.243 1.80202 -4.24321 0
M  V30 9777 H 937.787 -0.316586 -6.96881 0
M  V30 9778 H 933.684 0.78301 -6.40733 0
M  V30 9779 H 934.452 -0.29785 -8.17958 0
M  V30 9780 N 937.115 1.49373 0.502552 0
M  V30 9781 C 938.025 1.68659 1.63068 0
M  V30 9782 C 939.041 0.569182 1.64427 0
M  V30 9783 O 940.217 0.843695 1.82876 0
M  V30 9784 C 937.282 1.74745 2.99441 0
M  V30 9785 C 936.343 2.98311 3.08721 0
M  V30 9786 C 935.576 3.04097 4.38589 0
M  V30 9787 O 935.799 2.17519 5.27297 0
M  V30 9788 O 934.733 3.96544 4.52809 0
M  V30 9789 H 938.559 2.64226 1.49727 0
M  V30 9790 H 936.144 1.33096 0.67867 0
M  V30 9791 H 938.026 1.8111 3.80496 0
M  V30 9792 H 936.701 0.823565 3.13048 0
M  V30 9793 H 935.608 2.97465 2.2686 0
M  V30 9794 H 936.941 3.90174 3.00041 0
M  V30 9795 N 938.594 -0.753485 1.38421 0
M  V30 9796 C 939.84 -1.51485 1.34834 0
M  V30 9797 C 940.173 -1.94102 -0.0615381 0
M  V30 9798 O 939.448 -1.65439 -1.02274 0
M  V30 9799 C 939.731 -2.76736 2.30411 0
M  V30 9800 C 939.584 -2.40256 3.80259 0
M  V30 9801 C 940.903 -3.7876 2.24119 0
M  V30 9802 H 938.022 -0.549534 0.491102 0
M  V30 9803 H 940.664 -0.863006 1.6927 0
M  V30 9804 H 938.814 -3.32357 2.01175 0
M  V30 9805 H 940.486 -1.90409 4.20169 0
M  V30 9806 H 938.729 -1.72714 3.97935 0
M  V30 9807 H 939.4 -3.29869 4.42595 0
M  V30 9808 H 941.876 -3.32679 2.49928 0
M  V30 9809 H 940.752 -4.64092 2.93104 0
M  V30 9810 H 941.013 -4.24352 1.24006 0
M  V30 9811 N 940.072 -1.23292 -0.981677 0
M  V30 9812 C 941.318 -1.06582 -1.72535 0
M  V30 9813 C 941.651 0.396538 -1.90108 0
M  V30 9814 O 940.926 1.29363 -1.45243 0
M  V30 9815 C 941.209 -1.7904 -3.12437 0
M  V30 9816 C 941.062 -3.32941 -3.02441 0
M  V30 9817 C 942.381 -1.55185 -4.11832 0
M  V30 9818 H 939.5 -0.388585 -0.626236 0
M  V30 9819 H 942.142 -1.51779 -1.14293 0
M  V30 9820 H 940.292 -1.40619 -3.62158 0
M  V30 9821 H 941.964 -3.80875 -2.60254 0
M  V30 9822 H 940.207 -3.62039 -2.38977 0
M  V30 9823 H 940.878 -3.78827 -4.0149 0
M  V30 9824 H 943.354 -1.88581 -3.70913 0
M  V30 9825 H 942.23 -2.08362 -5.07815 0
M  V30 9826 H 942.491 -0.486925 -4.3941 0
M  V30 9827 N 941.55 1.18024 -1.04442 0
M  V30 9828 C 942.966 1.40107 -0.76435 0
M  V30 9829 C 943.166 1.90914 0.644516 0
M  V30 9830 O 942.222 2.0959 1.40813 0
M  V30 9831 C 943.535 2.39851 -1.81361 0
M  V30 9832 C 945.083 2.53571 -1.83496 0
M  V30 9833 C 945.558 3.56583 -2.87424 0
M  V30 9834 N 947.049 3.64094 -2.86339 0
M  V30 9835 C 947.784 4.43537 -3.63405 0
M  V30 9836 N 947.28 5.26557 -4.50233 0
M  V30 9837 N 949.073 4.38336 -3.51877 0
M  V30 9838 H 941.224 0.833726 -1.95353 0
M  V30 9839 H 943.487 0.42881 -0.845474 0
M  V30 9840 H 943.193 2.09576 -2.82438 0
M  V30 9841 H 943.067 3.39251 -1.6489 0
M  V30 9842 H 945.454 2.83161 -0.830883 0
M  V30 9843 H 945.535 1.54272 -2.04044 0
M  V30 9844 H 945.179 3.27733 -3.88012 0
M  V30 9845 H 945.109 4.55569 -2.6413 0
M  V30 9846 H 947.6 3.04814 -2.23376 0
M  V30 9847 H 947.913 5.84336 -5.05738 0
M  V30 9848 H 946.258 5.25964 -4.54298 0
M  V30 9849 H 949.449 3.72528 -2.83444 0
M  V30 9850 H 949.622 5.00007 -4.12186 0
M  V30 9851 N 943.028 0.824394 1.34319 0
M  V30 9852 C 944.305 0.335692 1.92698 0
M  V30 9853 C 944.685 -1.17715 1.75232 0
M  V30 9854 O 944.033 -1.98493 1.13194 0
M  V30 9855 C 944.243 0.766647 3.40475 0
M  V30 9856 C 945.591 0.766323 4.17627 0
M  V30 9857 O 946.615 0.709321 3.49066 0
M  V30 9858 O 945.474 0.840856 5.39992 0
M  V30 9859 H 942.568 0.0919996 0.821867 0
M  V30 9860 H 945.114 0.909282 1.43283 0
M  V30 9861 H 943.886 1.80859 3.46995 0
M  V30 9862 H 943.509 0.168833 3.97241 0
M  V30 9863 N 944.506 -1.46559 0.579492 0
M  V30 9864 C 945.469 -2.28739 -0.145371 0
M  V30 9865 C 946.469 -1.38211 -0.821854 0
M  V30 9866 O 947.659 -1.6062 -0.674302 0
M  V30 9867 C 944.791 -3.18507 -1.21515 0
M  V30 9868 H 945.984 -2.94301 0.576786 0
M  V30 9869 H 943.537 -1.52616 0.337327 0
M  V30 9870 H 944.272 -2.57685 -1.96899 0
M  V30 9871 H 944.057 -3.85157 -0.734616 0
M  V30 9872 H 945.547 -3.80369 -1.72363 0
M  V30 9873 N 945.984 -0.3171 -1.54377 0
M  V30 9874 C 947.261 0.341348 -1.92598 0
M  V30 9875 C 947.641 1.70402 -1.24605 0
M  V30 9876 O 946.989 2.25191 -0.387448 0
M  V30 9877 C 947.199 0.440003 -3.46215 0
M  V30 9878 C 948.547 0.703327 -4.18734 0
M  V30 9879 O 949.571 0.523181 -3.52337 0
M  V30 9880 O 948.43 1.05042 -5.3631 0
M  V30 9881 H 945.524 0.193696 -0.803997 0
M  V30 9882 H 948.07 -0.366341 -1.65699 0
M  V30 9883 H 946.842 -0.517299 -3.87866 0
M  V30 9884 H 946.465 1.19553 -3.792 0
M  V30 9885 N 947.462 1.57535 -0.0451378 0
M  V30 9886 C 948.739 1.83785 0.669523 0
M  V30 9887 C 949.119 0.932331 1.89396 0
M  V30 9888 O 948.467 -0.00813229 2.28499 0
M  V30 9889 C 948.677 3.33376 1.03255 0
M  V30 9890 C 950.025 4.00243 1.41741 0
M  V30 9891 O 951.049 3.37965 1.12507 0
M  V30 9892 O 949.908 5.10038 1.96275 0
M  V30 9893 H 947.002 0.758342 0.329919 0
M  V30 9894 H 949.548 1.69538 -0.0740415 0
M  V30 9895 H 948.32 3.90965 0.161777 0
M  V30 9896 H 947.943 3.52787 1.83376 0
M  V30 9897 N 948.94 -0.228186 1.55939 0
M  V30 9898 C 949.888 -1.30239 1.92719 0
M  V30 9899 C 950.882 -1.48865 0.808424 0
M  V30 9900 O 952.088 -1.50118 0.993204 0
M  V30 9901 H 948.463 -0.436509 0.612343 0
M  V30 9902 H 950.434 -0.964965 2.82367 0
M  V30 9903 C 949.183 -2.647 2.25453 0
M  V30 9904 H 948.506 -2.51173 3.1105 0
M  V30 9905 H 949.946 -3.38691 2.55077 0
M  V30 9906 C 948.405 -3.1921 1.07734 0
M  V30 9907 O 948.935 -4.00301 0.335019 0
M  V30 9908 N 947.141 -2.77492 0.862938 0
M  V30 9909 H 946.688 -2.11657 1.4683 0
M  V30 9910 H 946.646 -3.14306 0.0770119 0
M  V30 9911 N 950.418 -1.49637 -0.494624 0
M  V30 9912 C 951.658 -1.61067 -1.25844 0
M  V30 9913 C 952.022 -0.293666 -1.89741 0
M  V30 9914 O 953.223 -0.283202 -2.67304 0
M  V30 9915 C 951.494 -2.74218 -2.29215 0
M  V30 9916 S 953.053 -3.05639 -3.1485 0
M  V30 9917 H 949.871 -0.568056 -0.42759 0
M  V30 9918 H 952.473 -1.87323 -0.559491 0
M  V30 9919 H 951.177 -3.68422 -1.80813 0
M  V30 9920 H 950.708 -2.49975 -3.0377 0
M  V30 9921 H 952.723 -2.47651 -4.29981 0
M  V30 9922 N 951.896 0.746133 -1.38819 0
M  V30 9923 C 953.142 1.50768 -1.35635 0
M  V30 9924 C 953.475 1.94132 0.0512435 0
M  V30 9925 O 952.75 1.65979 1.01396 0
M  V30 9926 C 953.033 2.7551 -2.31875 0
M  V30 9927 C 952.886 2.38236 -3.81528 0
M  V30 9928 C 954.205 3.77566 -2.26124 0
M  V30 9929 H 951.324 0.546922 -0.494009 0
M  V30 9930 H 953.966 0.854017 -1.69725 0
M  V30 9931 H 952.116 3.31285 -2.02935 0
M  V30 9932 H 953.788 1.88178 -4.21173 0
M  V30 9933 H 952.031 1.70601 -3.98846 0
M  V30 9934 H 952.702 3.27517 -4.44339 0
M  V30 9935 H 955.178 3.31349 -2.51689 0
M  V30 9936 H 954.054 4.62531 -2.95561 0
M  V30 9937 H 954.315 4.23689 -1.26254 0
M  V30 9938 N 953.375 1.23811 0.975125 0
M  V30 9939 C 954.603 1.10019 1.75224 0
M  V30 9940 C 955.018 -0.34791 1.85567 0
M  V30 9941 O 954.375 -1.24043 1.33864 0
M  V30 9942 C 954.426 1.72572 3.1765 0
M  V30 9943 O 954.147 3.11719 3.07836 0
M  V30 9944 C 955.648 1.64292 4.11732 0
M  V30 9945 H 952.868 0.38476 0.549728 0
M  V30 9946 H 955.412 1.63768 1.22476 0
M  V30 9947 H 953.567 1.22843 3.67408 0
M  V30 9948 H 953.981 3.42152 3.97533 0
M  V30 9949 H 955.455 2.12754 5.09352 0
M  V30 9950 H 955.932 0.602722 4.35045 0
M  V30 9951 H 956.538 2.13411 3.6788 0
M  V30 9952 N 954.853 -1.17469 1.05066 0
M  V30 9953 C 956.099 -1.87976 0.761113 0
M  V30 9954 C 956.432 -1.80756 -0.709995 0
M  V30 9955 O 955.707 -1.21469 -1.51906 0
M  V30 9956 C 955.99 -3.38055 1.2406 0
M  V30 9957 C 955.843 -3.54032 2.77455 0
M  V30 9958 C 957.162 -4.32036 0.838612 0
M  V30 9959 H 954.281 -0.682573 0.277963 0
M  V30 9960 H 956.923 -1.38147 1.30443 0
M  V30 9961 H 955.073 -3.80622 0.778388 0
M  V30 9962 H 956.745 -3.20489 3.3179 0
M  V30 9963 H 954.988 -2.96352 3.16793 0
M  V30 9964 H 955.659 -4.59377 3.06066 0
M  V30 9965 H 958.135 -3.97303 1.23651 0
M  V30 9966 H 957.011 -5.35583 1.20173 0
M  V30 9967 H 957.272 -4.41349 -0.257498 0
M  V30 9968 N 956.331 -0.831506 -1.3388 0
M  V30 9969 C 957.571 -0.429648 -1.99833 0
M  V30 9970 C 957.935 0.990796 -1.6446 0
M  V30 9971 O 959.136 1.49599 -2.23324 0
M  V30 9972 C 957.407 -0.635558 -3.51704 0
M  V30 9973 S 958.966 -0.327824 -4.37574 0
M  V30 9974 H 955.784 -0.161939 -0.692313 0
M  V30 9975 H 958.386 -1.07919 -1.63015 0
M  V30 9976 H 957.09 -1.66887 -3.74936 0
M  V30 9977 H 956.621 0.0284073 -3.9339 0
M  V30 9978 H 958.636 0.855231 -4.88774 0
M  V30 9979 N 957.809 1.4625 -0.587256 0
M  V30 9980 C 958.757 2.32076 0.156108 0
M  V30 9981 C 959.751 1.44756 0.879887 0
M  V30 9982 O 960.957 1.61356 0.797759 0
M  V30 9983 H 957.332 0.748808 0.0692098 0
M  V30 9984 H 959.303 2.9258 -0.586497 0
M  V30 9985 C 958.052 3.28008 1.15352 0
M  V30 9986 H 957.375 3.9518 0.60601 0
M  V30 9987 H 958.815 3.90832 1.64396 0
M  V30 9988 C 957.274 2.53691 2.21681 0
M  V30 9989 O 957.804 2.30329 3.29107 0
M  V30 9990 N 956.01 2.14174 1.96412 0
M  V30 9991 H 955.557 2.33374 1.09061 0
M  V30 9992 H 955.515 1.6477 2.67765 0
M  V30 9993 N 959.287 0.325282 1.54207 0
M  V30 9994 C 960.22 -0.582485 2.20641 0
M  V30 9995 C 961.198 -1.11441 1.18405 0
M  V30 9996 O 962.382 -1.17809 1.4715 0
M  V30 9997 C 959.509 -1.79944 2.86946 0
M  V30 9998 C 958.555 -1.39861 4.02916 0
M  V30 9999 S 959.388 -0.433859 5.3374 0
M  V30 10000 C 960.544 -1.65806 6.03539 0
M  V30 10001 H 960.777 -0.0181601 2.97294 0
M  V30 10002 H 958.31 0.109365 1.54012 0
M  V30 10003 H 960.268 -2.4977 3.25769 0
M  V30 10004 H 958.929 -2.33495 2.10092 0
M  V30 10005 H 958.122 -2.30547 4.48179 0
M  V30 10006 H 957.724 -0.780036 3.65775 0
M  V30 10007 H 960.016 -2.59524 6.25822 0
M  V30 10008 H 960.959 -1.24756 6.97023 0
M  V30 10009 H 961.367 -1.84581 5.3347 0
M  V30 10010 N 960.765 -1.57509 0.0534917 0
M  V30 10011 C 961.675 -2.15152 -0.935249 0
M  V30 10012 C 962.691 -1.10991 -1.34003 0
M  V30 10013 O 963.867 -1.43171 -1.41648 0
M  V30 10014 C 960.932 -2.68699 -2.19093 0
M  V30 10015 C 959.993 -3.87666 -1.84428 0
M  V30 10016 C 959.226 -4.3865 -3.0401 0
M  V30 10017 O 959.449 -3.887 -4.17455 0
M  V30 10018 O 958.383 -5.30209 -2.84889 0
M  V30 10019 H 962.209 -2.99962 -0.475009 0
M  V30 10020 H 959.794 -1.48446 -0.16854 0
M  V30 10021 H 961.676 -3.03098 -2.92762 0
M  V30 10022 H 960.351 -1.86958 -2.6425 0
M  V30 10023 H 959.258 -3.58151 -1.08068 0
M  V30 10024 H 960.591 -4.70643 -1.44068 0
M  V30 10025 N 962.243 0.219913 -1.56058 0
M  V30 10026 C 963.191 1.29215 -1.93407 0
M  V30 10027 C 964.185 1.48434 -0.816307 0
M  V30 10028 O 965.391 1.49589 -1.00115 0
M  V30 10029 H 961.766 0.433256 -0.614649 0
M  V30 10030 H 963.737 0.949977 -2.82875 0
M  V30 10031 C 962.486 2.63501 -2.26854 0
M  V30 10032 H 961.809 2.4952 -3.12377 0
M  V30 10033 H 963.249 3.37334 -2.56869 0
M  V30 10034 C 961.708 3.18634 -1.09425 0
M  V30 10035 O 962.238 4.00117 -0.356243 0
M  V30 10036 N 960.444 2.7703 -0.877642 0
M  V30 10037 H 959.991 2.10875 -1.47951 0
M  V30 10038 H 959.949 3.1426 -0.0936792 0
M  V30 10039 N 963.721 1.49897 0.486681 0
M  V30 10040 C 964.967 1.60342 1.2417 0
M  V30 10041 C 965.3 0.295694 1.91936 0
M  V30 10042 O 964.575 -0.701788 1.81398 0
M  V30 10043 C 964.858 2.77281 2.29755 0
M  V30 10044 C 964.711 4.1789 1.66397 0
M  V30 10045 C 966.03 2.89817 3.31201 0
M  V30 10046 H 963.149 0.583605 0.450083 0
M  V30 10047 H 965.791 1.82232 0.537734 0
M  V30 10048 H 963.941 2.58748 2.89796 0
M  V30 10049 H 965.613 4.47975 1.10073 0
M  V30 10050 H 963.856 4.22872 0.967579 0
M  V30 10051 H 964.527 4.95612 2.43049 0
M  V30 10052 H 967.003 3.06732 2.81167 0
M  V30 10053 H 965.879 3.7329 4.02425 0
M  V30 10054 H 966.14 1.9977 3.94391 0
M  V30 10055 N 965.199 -0.738761 1.39212 0
M  V30 10056 C 966.476 -1.48982 1.26742 0
M  V30 10057 C 966.856 -2.10732 -0.12466 0
M  V30 10058 O 966.204 -1.98287 -1.13554 0
M  V30 10059 C 966.414 -2.54427 2.38889 0
M  V30 10060 C 967.762 -3.20915 2.78027 0
M  V30 10061 O 968.786 -2.64738 2.38311 0
M  V30 10062 O 967.645 -4.22558 3.46565 0
M  V30 10063 H 964.739 -0.661395 0.496473 0
M  V30 10064 H 967.285 -0.772907 1.51077 0
M  V30 10065 H 966.057 -2.07151 3.3197 0
M  V30 10066 H 965.68 -3.33682 2.162 0
M  V30 10067 N 966.677 -1.24326 -0.968545 0
M  V30 10068 C 967.64 -1.03591 -2.04454 0
M  V30 10069 C 968.64 0.0064809 -1.60799 0
M  V30 10070 O 969.83 -0.234404 -1.72616 0
M  V30 10071 C 966.962 -0.56992 -3.36102 0
M  V30 10072 H 968.155 -1.99092 -2.24282 0
M  V30 10073 H 965.708 -1.06537 -1.14366 0
M  V30 10074 H 966.443 0.388325 -3.21967 0
M  V30 10075 H 966.228 -1.32227 -3.69132 0
M  V30 10076 H 967.718 -0.445854 -4.15213 0
M  V30 10077 N 968.156 1.1691 -1.05688 0
M  V30 10078 C 969.089 2.19992 -0.606539 0
M  V30 10079 C 970.067 1.58393 0.367483 0
M  V30 10080 O 971.251 1.8644 0.277914 0
M  V30 10081 C 968.378 3.38516 0.111663 0
M  V30 10082 C 967.424 4.18579 -0.818153 0
M  V30 10083 S 968.257 4.83111 -2.31006 0
M  V30 10084 C 969.413 6.0502 -1.60317 0
M  V30 10085 H 969.646 2.57851 -1.47987 0
M  V30 10086 H 967.179 1.27604 -0.869291 0
M  V30 10087 H 969.137 4.07195 0.519829 0
M  V30 10088 H 967.798 2.99034 0.961103 0
M  V30 10089 H 966.991 5.03318 -0.262092 0
M  V30 10090 H 966.593 3.55362 -1.16592 0
M  V30 10091 H 968.885 6.71424 -0.905309 0
M  V30 10092 H 969.828 6.65164 -2.42823 0
M  V30 10093 H 970.236 5.53908 -1.08842 0
M  V30 10094 N 969.634 0.838594 1.33437 0
M  V30 10095 C 970.882 0.433312 1.974 0
M  V30 10096 C 971.203 -1.01078 1.66758 0
M  V30 10097 O 970.473 -1.70406 0.966373 0
M  V30 10098 H 969.053 0.15724 0.730263 0
M  V30 10099 H 971.715 1.07149 1.62804 0
M  V30 10100 H 970.811 0.565144 3.06941 0
M  V30 10101 N 971.112 -1.45937 0.595003 0
M  V30 10102 C 972.358 -2.0262 0.0854317 0
M  V30 10103 C 972.691 -1.46402 -1.27594 0
M  V30 10104 O 971.966 -0.633823 -1.83883 0
M  V30 10105 C 972.249 -3.60085 0.0329075 0
M  V30 10106 C 972.102 -4.26663 1.42405 0
M  V30 10107 C 973.421 -4.35101 -0.661426 0
M  V30 10108 H 970.54 -0.736282 0.0325196 0
M  V30 10109 H 973.182 -1.73938 0.764563 0
M  V30 10110 H 971.332 -3.84652 -0.545439 0
M  V30 10111 H 973.004 -4.13321 2.04851 0
M  V30 10112 H 971.247 -3.85549 1.98833 0
M  V30 10113 H 971.918 -5.35497 1.33965 0
M  V30 10114 H 974.394 -4.15753 -0.169977 0
M  V30 10115 H 973.27 -5.44829 -0.667243 0
M  V30 10116 H 973.531 -4.07053 -1.72513 0
M  V30 10117 N 972.59 -0.333456 -1.54032 0
M  V30 10118 C 973.54 0.543745 -2.21421 0
M  V30 10119 C 974.524 1.07396 -1.19812 0
M  V30 10120 O 975.716 1.00934 -1.45401 0
M  V30 10121 C 972.845 1.69925 -2.98296 0
M  V30 10122 C 971.931 1.18345 -4.07253 0
M  V30 10123 N 972.322 0.388098 -5.04309 0
M  V30 10124 C 970.62 1.46128 -4.21382 0
M  V30 10125 C 971.321 0.109383 -5.81597 0
M  V30 10126 N 970.297 0.69825 -5.39097 0
M  V30 10127 H 974.099 -0.0711018 -2.93814 0
M  V30 10128 H 971.613 -0.139807 -1.61797 0
M  V30 10129 H 973.61 2.33954 -3.45067 0
M  V30 10130 H 972.27 2.31747 -2.27428 0
M  V30 10131 H 973.281 0.0300645 -5.17891 0
M  V30 10132 H 969.958 2.08463 -3.61731 0
M  V30 10133 H 971.348 -0.531554 -6.69794 0
M  V30 10134 N 974.068 1.57479 -0.061844 0
M  V30 10135 C 975.296 1.97429 0.618837 0
M  V30 10136 C 975.711 0.939826 1.63746 0
M  V30 10137 O 975.068 -0.0747173 1.82347 0
M  V30 10138 C 975.119 3.3746 1.29628 0
M  V30 10139 O 974.84 4.36941 0.318431 0
M  V30 10140 C 976.341 3.92228 2.06572 0
M  V30 10141 H 973.561 0.649513 0.168444 0
M  V30 10142 H 976.105 2.04078 -0.131303 0
M  V30 10143 H 974.26 3.31928 1.99757 0
M  V30 10144 H 974.674 5.18313 0.803239 0
M  V30 10145 H 976.148 4.92458 2.49377 0
M  V30 10146 H 976.625 3.28231 2.91824 0
M  V30 10147 H 977.231 4.01131 1.4133 0
M  V30 10148 N 975.546 -0.211634 1.56173 0
M  V30 10149 C 976.794 -0.932704 1.7929 0
M  V30 10150 C 977.115 -1.84472 0.632076 0
M  V30 10151 O 976.385 -1.92739 -0.350519 0
M  V30 10152 H 974.965 -0.347393 0.661307 0
M  V30 10153 H 977.627 -0.22111 1.93642 0
M  V30 10154 H 976.723 -1.53365 2.71819 0
M  V30 10155 N 977.024 -1.50153 -0.478725 0
M  V30 10156 C 978.301 -1.51274 -1.23999 0
M  V30 10157 C 978.681 -0.253048 -2.09578 0
M  V30 10158 O 978.029 0.763827 -2.15355 0
M  V30 10159 C 978.239 -2.80423 -2.07759 0
M  V30 10160 C 979.587 -3.30788 -2.66204 0
M  V30 10161 O 980.611 -2.81693 -2.18008 0
M  V30 10162 O 979.47 -4.1635 -3.53999 0
M  V30 10163 H 976.564 -0.606438 -0.562283 0
M  V30 10164 H 979.11 -1.62436 -0.491171 0
M  V30 10165 H 977.882 -3.63584 -1.44645 0
M  V30 10166 H 977.505 -2.72228 -2.89789 0
M  V30 10167 N 978.502 0.731368 -1.39602 0
M  V30 10168 C 979.727 1.52567 -1.40492 0
M  V30 10169 C 980.152 1.881 -0.00228828 0
M  V30 10170 O 979.51 1.52167 0.985643 0
M  V30 10171 C 979.558 2.78749 -2.2876 0
M  V30 10172 O 978.662 3.7482 -1.71999 0
M  V30 10173 H 978.003 0.460601 -0.478271 0
M  V30 10174 H 980.533 0.902042 -1.83642 0
M  V30 10175 H 980.543 3.27446 -2.43399 0
M  V30 10176 H 979.218 2.5222 -3.30693 0
M  V30 10177 H 977.795 3.33604 -1.66622 0
M  V30 10178 N 979.98 1.24838 0.961938 0
M  V30 10179 C 981.226 1.09313 1.70817 0
M  V30 10180 C 981.559 -0.366244 1.90715 0
M  V30 10181 O 980.834 -1.27036 1.47282 0
M  V30 10182 C 981.117 1.83988 3.09549 0
M  V30 10183 C 980.97 3.3771 2.97106 0
M  V30 10184 C 982.289 1.61718 4.09311 0
M  V30 10185 H 979.408 0.398498 0.619974 0
M  V30 10186 H 982.05 1.53579 1.11864 0
M  V30 10187 H 980.2 1.46363 3.59875 0
M  V30 10188 H 981.872 3.84967 2.54161 0
M  V30 10189 H 980.115 3.65795 2.33187 0
M  V30 10190 H 980.786 3.85166 3.95412 0
M  V30 10191 H 983.262 1.94458 3.67866 0
M  V30 10192 H 982.138 2.16415 5.04436 0
M  V30 10193 H 982.399 0.55677 4.3858 0
M  V30 10194 N 981.458 -1.16348 1.06306 0
M  V30 10195 C 982.704 -1.87158 0.781007 0
M  V30 10196 C 983.037 -1.81499 -0.690784 0
M  V30 10197 O 982.312 -1.23074 -1.50609 0
M  V30 10198 C 982.595 -3.3672 1.27639 0
M  V30 10199 C 982.448 -3.51069 2.81194 0
M  V30 10200 C 983.767 -4.31122 0.884388 0
M  V30 10201 H 980.886 -0.679586 0.285187 0
M  V30 10202 H 983.528 -1.36756 1.31901 0
M  V30 10203 H 981.678 -3.79775 0.818715 0
M  V30 10204 H 983.35 -3.16952 3.35171 0
M  V30 10205 H 981.593 -2.92976 3.19918 0
M  V30 10206 H 982.264 -4.56105 3.10921 0
M  V30 10207 H 984.74 -3.95969 1.27858 0
M  V30 10208 H 983.616 -5.34279 1.25847 0
M  V30 10209 H 983.877 -4.41598 -0.210673 0
M  V30 10210 N 982.937 -0.845659 -1.3299 0
M  V30 10211 C 984.183 -0.445311 -1.9785 0
M  V30 10212 C 984.516 0.994476 -1.66805 0
M  V30 10213 O 983.791 1.69636 -0.95151 0
M  V30 10214 C 984.074 -0.674371 -3.53729 0
M  V30 10215 C 983.927 -2.16192 -3.94437 0
M  V30 10216 C 985.246 -0.124908 -4.39923 0
M  V30 10217 H 982.365 -0.163269 -0.718688 0
M  V30 10218 H 985.007 -1.06242 -1.5752 0
M  V30 10219 H 983.157 -0.149091 -3.88214 0
M  V30 10220 H 984.829 -2.75259 -3.70176 0
M  V30 10221 H 983.072 -2.64386 -3.43922 0
M  V30 10222 H 983.743 -2.27292 -5.03033 0
M  V30 10223 H 986.219 -0.573986 -4.12122 0
M  V30 10224 H 985.095 -0.314816 -5.47996 0
M  V30 10225 H 985.356 0.971758 -4.31288 0
M  V30 10226 N 984.415 1.45619 -0.602734 0
M  V30 10227 C 985.378 2.28941 0.108962 0
M  V30 10228 C 986.378 1.39501 0.799762 0
M  V30 10229 O 987.568 1.61673 0.648663 0
M  V30 10230 C 984.7 3.204 1.16432 0
M  V30 10231 H 985.893 2.93346 -0.623534 0
M  V30 10232 H 983.446 1.52061 -0.361565 0
M  V30 10233 H 984.181 2.60785 1.92774 0
M  V30 10234 H 983.966 3.86277 0.673248 0
M  V30 10235 H 985.456 3.83063 1.6629 0
M  V30 10236 N 985.893 0.34162 1.53853 0
M  V30 10237 C 987.304 -0.14269 1.86154 0
M  V30 10238 C 987.655 -1.50151 1.2629 0
M  V30 10239 O 986.78 -2.08601 0.575735 0
M  V30 10240 C 987.375 -0.265691 3.37757 0
M  V30 10241 C 985.934 -0.694231 3.69942 0
M  V30 10242 C 985.081 0.173195 2.76759 0
M  V30 10243 H 988.032 0.561284 1.48443 0
M  V30 10244 H 988.053 -1.09352 3.64448 0
M  V30 10245 H 987.565 0.723424 3.81298 0
M  V30 10246 H 985.666 -1.69244 3.31945 0
M  V30 10247 H 985.779 -0.485461 4.76634 0
M  V30 10248 H 984.143 -0.35416 2.52226 0
M  V30 10249 H 984.926 1.15941 3.23129 0
M  V30 10250 N 987.371 -1.57444 0.0701946 0
M  V30 10251 C 988.334 -2.11511 -0.882923 0
M  V30 10252 C 989.334 -1.03879 -1.22743 0
M  V30 10253 O 990.524 -1.29874 -1.16097 0
M  V30 10254 C 987.656 -2.61514 -2.18686 0
M  V30 10255 H 988.849 -2.9703 -0.413873 0
M  V30 10256 H 986.402 -1.55278 -0.178488 0
M  V30 10257 H 987.137 -1.79443 -2.70131 0
M  V30 10258 H 986.922 -3.40185 -1.94978 0
M  V30 10259 H 988.412 -3.03425 -2.86919 0
M  V30 10260 N 988.849 0.203349 -1.56283 0
M  V30 10261 C 989.781 1.27592 -1.90402 0
M  V30 10262 C 990.794 1.4213 -0.79391 0
M  V30 10263 O 991.983 1.42703 -1.07229 0
M  V30 10264 C 989.083 2.64919 -2.11356 0
M  V30 10265 C 988.256 2.72095 -3.42466 0
M  V30 10266 C 987.315 3.9056 -3.52631 0
M  V30 10267 O 986.341 3.78048 -4.25521 0
M  V30 10268 N 987.543 5.0566 -2.85111 0
M  V30 10269 H 990.308 0.986423 -2.83001 0
M  V30 10270 H 987.869 0.39331 -1.5705 0
M  V30 10271 H 989.861 3.42581 -2.15453 0
M  V30 10272 H 988.431 2.86391 -1.25295 0
M  V30 10273 H 987.651 1.8077 -3.50308 0
M  V30 10274 H 988.939 2.73874 -4.28801 0
M  V30 10275 H 988.337 5.18723 -2.25705 0
M  V30 10276 H 986.894 5.81299 -2.94847 0
M  V30 10277 N 990.327 1.50405 0.470755 0
M  V30 10278 C 991.555 1.65168 1.24608 0
M  V30 10279 C 991.97 0.335153 1.85801 0
M  V30 10280 O 991.327 -0.682919 1.69241 0
M  V30 10281 C 991.378 2.74305 2.35455 0
M  V30 10282 O 991.099 4.00854 1.76771 0
M  V30 10283 C 992.6 3.00044 3.26326 0
M  V30 10284 H 989.82 0.555186 0.376842 0
M  V30 10285 H 992.364 1.9663 0.56187 0
M  V30 10286 H 990.519 2.45536 2.99651 0
M  V30 10287 H 990.933 4.61211 2.49769 0
M  V30 10288 H 992.407 3.8007 4.00313 0
M  V30 10289 H 992.884 2.11128 3.85126 0
M  V30 10290 H 993.49 3.30345 2.67866 0
M  V30 10291 N 991.805 -0.723954 1.39988 0
M  V30 10292 C 992.735 -1.85103 1.42335 0
M  V30 10293 C 993.716 -1.6769 0.285297 0
M  V30 10294 O 994.901 -1.87846 0.492716 0
M  V30 10295 C 992.031 -3.22972 1.27697 0
M  V30 10296 C 990.985 -3.55041 2.39018 0
M  V30 10297 C 990.311 -4.91965 2.09462 0
M  V30 10298 C 991.611 -3.56889 3.8135 0
M  V30 10299 H 993.305 -1.83396 2.36656 0
M  V30 10300 H 990.851 -0.880926 1.13911 0
M  V30 10301 H 992.804 -4.01503 1.27958 0
M  V30 10302 H 991.528 -3.25233 0.298487 0
M  V30 10303 H 990.187 -2.78845 2.37993 0
M  V30 10304 H 989.835 -4.90819 1.10025 0
M  V30 10305 H 989.535 -5.14389 2.84038 0
M  V30 10306 H 991.059 -5.7284 2.11391 0
M  V30 10307 H 992.473 -4.25476 3.84243 0
M  V30 10308 H 990.87 -3.90836 4.55376 0
M  V30 10309 H 991.94 -2.56452 4.11534 0
M  V30 10310 N 993.283 -1.25346 -0.955304 0
M  V30 10311 C 994.508 -1.12892 -1.73983 0
M  V30 10312 C 994.933 0.313455 -1.8547 0
M  V30 10313 O 994.291 1.22706 -1.33465 0
M  V30 10314 C 994.339 -1.78729 -3.1319 0
M  V30 10315 O 993.443 -1.06648 -3.98372 0
M  V30 10316 H 992.784 -0.394178 -0.534341 0
M  V30 10317 H 995.314 -1.65897 -1.19747 0
M  V30 10318 H 995.324 -1.84987 -3.63653 0
M  V30 10319 H 993.999 -2.83669 -3.04146 0
M  V30 10320 H 992.576 -1.08266 -3.56837 0
M  V30 10321 N 994.761 1.15782 -1.06922 0
M  V30 10322 C 995.709 2.22441 -0.679893 0
M  V30 10323 C 996.703 1.66591 0.307221 0
M  V30 10324 O 997.909 1.79182 0.171402 0
M  V30 10325 H 994.284 0.724427 -0.201765 0
M  V30 10326 H 996.255 2.52562 -1.58918 0
M  V30 10327 C 995.004 3.47586 -0.0891142 0
M  V30 10328 H 994.327 3.9088 -0.839805 0
M  V30 10329 H 995.767 4.2375 0.14569 0
M  V30 10330 C 994.226 3.15967 1.16903 0
M  V30 10331 O 994.756 3.32359 2.25611 0
M  V30 10332 N 992.962 2.70046 1.07349 0
M  V30 10333 H 992.509 2.56907 0.188825 0
M  V30 10334 H 992.467 2.49264 1.91611 0
M  V30 10335 N 996.239 0.8527 1.3254 0
M  V30 10336 C 997.202 0.300959 2.27215 0
M  V30 10337 C 998.202 -0.538235 1.51525 0
M  V30 10338 O 999.392 -0.350027 1.70647 0
M  V30 10339 C 996.524 -0.574428 3.36025 0
M  V30 10340 H 997.717 1.13655 2.77529 0
M  V30 10341 H 995.27 0.626878 1.43178 0
M  V30 10342 H 996.005 -1.43191 2.90976 0
M  V30 10343 H 995.79 0.0262265 3.92091 0
M  V30 10344 H 997.28 -0.9533 4.06573 0
M  V30 10345 N 997.718 -1.45297 0.610449 0
M  V30 10346 C 998.628 -2.34349 -0.108475 0
M  V30 10347 C 999.644 -1.51409 -0.857397 0
M  V30 10348 O 1000.82 -1.84202 -0.814337 0
M  V30 10349 C 997.885 -3.29072 -1.09144 0
M  V30 10350 C 996.946 -4.27918 -0.344165 0
M  V30 10351 C 996.179 -5.18116 -1.28031 0
M  V30 10352 O 996.402 -5.11802 -2.51824 0
M  V30 10353 O 995.336 -5.96879 -0.775821 0
M  V30 10354 H 999.162 -2.97232 0.623421 0
M  V30 10355 H 996.747 -1.44728 0.3707 0
M  V30 10356 H 998.629 -3.87433 -1.65751 0
M  V30 10357 H 997.304 -2.68749 -1.80431 0
M  V30 10358 H 996.211 -3.73164 0.264437 0
M  V30 10359 H 997.544 -4.91104 0.328275 0
M  V30 10360 N 999.196 -0.349774 -1.5367 0
M  V30 10361 C 1000.44 0.244827 -2.01015 0
M  V30 10362 C 1000.77 1.50057 -1.23746 0
M  V30 10363 O 1000.03 1.9315 -0.314872 0
M  V30 10364 C 1000.32 0.598311 -3.52356 0
M  V30 10365 C 999.991 -0.56127 -4.47393 0
M  V30 10366 C 998.653 -0.879481 -4.73095 0
M  V30 10367 C 1001 -1.3389 -5.03709 0
M  V30 10368 C 998.333 -1.97758 -5.52366 0
M  V30 10369 C 1000.68 -2.4273 -5.84179 0
M  V30 10370 C 999.349 -2.75103 -6.08173 0
M  V30 10371 H 998.619 0.0895884 -0.735564 0
M  V30 10372 H 1001.27 -0.478975 -1.85413 0
M  V30 10373 H 999.571 1.40291 -3.65822 0
M  V30 10374 H 1001.27 1.07036 -3.86451 0
M  V30 10375 H 997.858 -0.303201 -4.27526 0
M  V30 10376 H 1002.04 -1.10632 -4.83812 0
M  V30 10377 H 997.298 -2.23257 -5.6918 0
M  V30 10378 H 1001.47 -3.03412 -6.26828 0
M  V30 10379 H 999.099 -3.60317 -6.69385 0
M  V30 10380 N 1000.67 1.57404 -0.0785433 0
M  V30 10381 C 1001.61 2.101 0.916013 0
M  V30 10382 C 1002.62 1.03459 1.25698 0
M  V30 10383 O 1003.81 1.30954 1.21299 0
M  V30 10384 C 1000.91 2.55202 2.22992 0
M  V30 10385 C 1000.08 3.85491 2.06678 0
M  V30 10386 C 999.14 4.16614 3.21433 0
M  V30 10387 O 998.166 4.86105 2.96126 0
M  V30 10388 N 999.368 3.70697 4.46726 0
M  V30 10389 H 1002.13 2.96054 0.466059 0
M  V30 10390 H 999.694 1.61546 0.107006 0
M  V30 10391 H 1001.69 2.7308 2.9868 0
M  V30 10392 H 1000.26 1.74348 2.59464 0
M  V30 10393 H 999.476 3.76925 1.15417 0
M  V30 10394 H 1000.76 4.70759 1.93036 0
M  V30 10395 H 1000.16 3.14571 4.70172 0
M  V30 10396 H 998.719 3.93762 5.19418 0
M  V30 10397 N 1002.15 -0.195058 1.56388 0
M  V30 10398 C 1003.08 -1.26978 1.8961 0
M  V30 10399 C 1004.06 -1.43946 0.756199 0
M  V30 10400 O 1005.25 -1.59335 1.0072 0
M  V30 10401 C 1002.37 -2.63638 2.12632 0
M  V30 10402 C 1001.42 -2.6354 3.35334 0
M  V30 10403 S 1002.25 -2.1497 4.90457 0
M  V30 10404 C 1003.41 -3.53454 5.16547 0
M  V30 10405 H 1003.64 -0.986091 2.8047 0
M  V30 10406 H 1001.17 -0.398552 1.49167 0
M  V30 10407 H 1003.13 -3.42304 2.26579 0
M  V30 10408 H 1001.79 -2.89218 1.22522 0
M  V30 10409 H 1000.99 -3.64027 3.48569 0
M  V30 10410 H 1000.59 -1.92956 3.20381 0
M  V30 10411 H 1002.88 -4.49318 5.0707 0
M  V30 10412 H 1003.82 -3.45113 6.18306 0
M  V30 10413 H 1004.23 -3.48368 4.44185 0
M  V30 10414 N 1003.63 -1.50653 -0.462772 0
M  V30 10415 C 1004.56 -1.73056 -1.5676 0
M  V30 10416 C 1005.54 -0.579699 -1.59917 0
M  V30 10417 O 1006.73 -0.819729 -1.76051 0
M  V30 10418 C 1003.86 -1.83234 -2.9503 0
M  V30 10419 C 1002.81 -2.98488 -3.06739 0
M  V30 10420 C 1002.14 -2.93818 -4.46738 0
M  V30 10421 C 1003.44 -4.38869 -2.83181 0
M  V30 10422 H 1005.13 -2.65562 -1.38265 0
M  V30 10423 H 1002.68 -1.27792 -0.663722 0
M  V30 10424 H 1004.63 -1.97491 -3.72257 0
M  V30 10425 H 1003.35 -0.873558 -3.14701 0
M  V30 10426 H 1002.01 -2.83895 -2.31946 0
M  V30 10427 H 1001.66 -1.95769 -4.63339 0
M  V30 10428 H 1001.36 -3.71197 -4.55507 0
M  V30 10429 H 1002.88 -3.10135 -5.25974 0
M  V30 10430 H 1004.3 -4.53945 -3.50153 0
M  V30 10431 H 1002.69 -5.17762 -3.03386 0
M  V30 10432 H 1003.76 -4.50663 -1.78972 0
M  V30 10433 N 1005.11 0.71652 -1.4037 0
M  V30 10434 C 1006.52 1.02447 -1.22379 0
M  V30 10435 C 1006.72 2.0126 -0.0983394 0
M  V30 10436 O 1005.78 2.46569 0.544071 0
M  V30 10437 C 1007.09 1.56909 -2.56515 0
M  V30 10438 C 1008.64 1.68898 -2.6352 0
M  V30 10439 C 1009.12 2.26765 -3.97922 0
M  V30 10440 N 1010.61 2.34152 -3.99658 0
M  V30 10441 C 1011.34 2.79907 -5.00439 0
M  V30 10442 N 1010.84 3.25422 -6.11615 0
M  V30 10443 N 1012.63 2.79283 -4.87809 0
M  V30 10444 H 1004.78 0.0615306 -2.12311 0
M  V30 10445 H 1007.05 0.0898994 -0.943728 0
M  V30 10446 H 1006.75 0.917649 -3.39517 0
M  V30 10447 H 1006.63 2.55446 -2.77538 0
M  V30 10448 H 1009.01 2.33159 -1.8089 0
M  V30 10449 H 1009.09 0.689626 -2.46329 0
M  V30 10450 H 1008.74 1.63126 -4.80991 0
M  V30 10451 H 1008.67 3.27413 -4.12442 0
M  V30 10452 H 1011.16 2.02006 -3.19378 0
M  V30 10453 H 1011.47 3.58899 -6.84406 0
M  V30 10454 H 1009.82 3.23383 -6.15181 0
M  V30 10455 H 1013.01 2.43061 -4.00049 0
M  V30 10456 H 1013.18 3.14626 -5.66493 0
M  V30 10457 N 1006.59 1.25851 0.948643 0
M  V30 10458 C 1008 1.02802 1.22081 0
M  V30 10459 C 1008.2 -0.251461 1.99925 0
M  V30 10460 O 1007.26 -0.962592 2.33432 0
M  V30 10461 C 1008.57 2.25489 1.98936 0
M  V30 10462 C 1010.12 2.30312 2.11956 0
M  V30 10463 C 1010.59 3.52671 2.92211 0
M  V30 10464 N 1012.09 3.53103 2.99787 0
M  V30 10465 C 1012.82 4.44445 3.62294 0
M  V30 10466 N 1012.32 5.46065 4.26362 0
M  V30 10467 N 1014.11 4.32113 3.59493 0
M  V30 10468 H 1006.26 2.08042 0.428044 0
M  V30 10469 H 1008.52 0.913928 0.251872 0
M  V30 10470 H 1008.23 3.18513 1.4914 0
M  V30 10471 H 1008.1 2.2914 2.99624 0
M  V30 10472 H 1010.49 1.37808 2.60946 0
M  V30 10473 H 1010.57 2.30676 1.10554 0
M  V30 10474 H 1010.22 4.45501 2.43909 0
M  V30 10475 H 1010.15 3.49554 3.93853 0
M  V30 10476 H 1012.64 2.79597 2.54232 0
M  V30 10477 H 1012.95 6.11964 4.71932 0
M  V30 10478 H 1011.29 5.49931 4.24972 0
M  V30 10479 H 1014.49 3.51946 3.08629 0
M  V30 10480 H 1014.66 5.03493 4.0792 0
M  V30 10481 N 1008.06 -1.15214 1.07534 0
M  V30 10482 C 1009.29 -1.89922 0.820804 0
M  V30 10483 C 1009.71 -1.78114 -0.626177 0
M  V30 10484 O 1009.06 -1.13435 -1.42964 0
M  V30 10485 C 1009.12 -3.40207 1.22236 0
M  V30 10486 O 1008.84 -3.51676 2.61257 0
M  V30 10487 C 1010.34 -4.31934 0.997393 0
M  V30 10488 H 1007.56 -0.601865 0.296647 0
M  V30 10489 H 1010.1 -1.45965 1.43229 0
M  V30 10490 H 1008.26 -3.8182 0.655167 0
M  V30 10491 H 1008.67 -4.44959 2.77689 0
M  V30 10492 H 1010.14 -5.35791 1.32785 0
M  V30 10493 H 1010.62 -4.3915 -0.0661599 0
M  V30 10494 H 1011.23 -3.96066 1.54958 0
M  V30 10495 N 1009.54 -0.859717 -1.32086 0
M  V30 10496 C 1010.77 -0.478865 -2.01796 0
M  V30 10497 C 1011.19 0.918274 -1.64163 0
M  V30 10498 O 1010.55 1.60409 -0.844896 0
M  V30 10499 C 1010.6 -0.631356 -3.5503 0
M  V30 10500 O 1009.7 0.333712 -4.11048 0
M  V30 10501 H 1009.04 -0.191775 -0.635703 0
M  V30 10502 H 1011.57 -1.16031 -1.68517 0
M  V30 10503 H 1011.58 -0.520783 -4.04663 0
M  V30 10504 H 1010.26 -1.65015 -3.81763 0
M  V30 10505 H 1008.84 0.178953 -3.7247 0
M  V30 10506 N 1011.02 1.44971 -0.618145 0
M  V30 10507 C 1012.27 2.01372 -0.115004 0
M  V30 10508 C 1012.58 1.49104 1.26599 0
M  V30 10509 O 1013.79 1.97549 1.86244 0
M  V30 10510 C 1012.24 3.59567 -0.154883 0
M  V30 10511 C 1011.85 4.20832 -1.53639 0
M  V30 10512 C 1013.6 4.23491 0.292468 0
M  V30 10513 C 1011.5 5.7121 -1.53208 0
M  V30 10514 H 1010.43 0.752979 -0.0392267 0
M  V30 10515 H 1013.08 1.66329 -0.775032 0
M  V30 10516 H 1011.47 3.91847 0.572001 0
M  V30 10517 H 1012.64 4.00109 -2.28582 0
M  V30 10518 H 1010.96 3.69143 -1.92672 0
M  V30 10519 H 1013.55 5.33771 0.315032 0
M  V30 10520 H 1013.9 3.9491 1.31725 0
M  V30 10521 H 1014.43 3.95967 -0.381493 0
M  V30 10522 H 1011.17 6.04506 -2.53481 0
M  V30 10523 H 1010.69 5.94094 -0.825387 0
M  V30 10524 H 1012.37 6.34606 -1.26032 0
M  V30 10525 N 1012.5 0.357919 1.53482 0
M  V30 10526 C 1013.45 -0.507364 2.26999 0
M  V30 10527 C 1014.44 -1.08987 1.29685 0
M  V30 10528 O 1015.65 -1.03396 1.47341 0
M  V30 10529 H 1012.02 -0.182326 0.729562 0
M  V30 10530 H 1013.99 0.134547 2.98097 0
M  V30 10531 C 1012.74 -1.63911 3.06641 0
M  V30 10532 H 1012.06 -1.20017 3.81361 0
M  V30 10533 H 1013.5 -2.21943 3.61272 0
M  V30 10534 C 1011.96 -2.57697 2.17011 0
M  V30 10535 O 1012.49 -3.60318 1.77578 0
M  V30 10536 N 1010.7 -2.2671 1.818 0
M  V30 10537 H 1010.25 -1.43296 2.14065 0
M  V30 10538 H 1010.2 -2.89716 1.22115 0
M  V30 10539 N 1013.98 -1.5736 0.0868897 0
M  V30 10540 C 1015.22 -1.94341 -0.579598 0
M  V30 10541 C 1015.56 -0.968238 -1.68341 0
M  V30 10542 O 1014.83 8.29649e-05 -1.945 0
M  V30 10543 C 1015.11 -3.41497 -1.14245 0
M  V30 10544 C 1014.97 -4.49778 -0.044255 0
M  V30 10545 C 1016.29 -3.89788 -2.04336 0
M  V30 10546 H 1013.4 -0.70668 -0.20922 0
M  V30 10547 H 1016.05 -1.89359 0.15593 0
M  V30 10548 H 1014.2 -3.45873 -1.76929 0
M  V30 10549 H 1015.87 -4.57517 0.58959 0
M  V30 10550 H 1014.11 -4.293 0.623207 0
M  V30 10551 H 1014.78 -5.4992 -0.478749 0
M  V30 10552 H 1017.26 -3.87513 -1.51569 0
M  V30 10553 H 1016.13 -4.93335 -2.40648 0
M  V30 10554 H 1016.4 -3.28603 -2.95757 0
M  V30 10555 N 1015.45 0.186762 -1.56489 0
M  V30 10556 C 1016.7 0.907194 -1.81378 0
M  V30 10557 C 1017.03 1.82558 -0.662283 0
M  V30 10558 O 1016.31 1.91564 0.336699 0
M  V30 10559 C 1016.59 1.71624 -3.16571 0
M  V30 10560 C 1016.44 0.822009 -4.42225 0
M  V30 10561 C 1017.76 2.68713 -3.48542 0
M  V30 10562 H 1014.88 0.328366 -0.659806 0
M  V30 10563 H 1017.52 0.174142 -1.892 0
M  V30 10564 H 1015.67 2.34119 -3.10033 0
M  V30 10565 H 1017.35 0.211122 -4.60817 0
M  V30 10566 H 1015.59 0.129178 -4.33608 0
M  V30 10567 H 1016.26 1.42326 -5.33336 0
M  V30 10568 H 1018.74 2.16348 -3.55433 0
M  V30 10569 H 1017.61 3.22397 -4.44242 0
M  V30 10570 H 1017.87 3.48165 -2.72459 0
M  V30 10571 N 1016.93 1.50896 0.454776 0
M  V30 10572 C 1018.35 1.38684 0.78987 0
M  V30 10573 C 1018.55 0.455587 1.96282 0
M  V30 10574 O 1017.6 -0.0957503 2.52318 0
M  V30 10575 C 1018.92 2.80381 1.08661 0
M  V30 10576 C 1020.47 2.8941 1.19209 0
M  V30 10577 C 1020.94 4.31976 1.52187 0
M  V30 10578 N 1022.43 4.35002 1.59146 0
M  V30 10579 C 1023.17 5.42326 1.862 0
M  V30 10580 N 1022.66 6.59835 2.11164 0
M  V30 10581 N 1024.46 5.29786 1.87838 0
M  V30 10582 H 1016.61 2.10006 -0.317981 0
M  V30 10583 H 1018.87 0.944636 -0.0797969 0
M  V30 10584 H 1018.58 3.50438 0.297626 0
M  V30 10585 H 1018.45 3.18634 2.01872 0
M  V30 10586 H 1020.84 2.19561 1.97173 0
M  V30 10587 H 1020.92 2.54677 0.239401 0
M  V30 10588 H 1020.56 5.02368 0.747576 0
M  V30 10589 H 1020.49 4.64208 2.48633 0
M  V30 10590 H 1022.98 3.50276 1.41828 0
M  V30 10591 H 1023.3 7.37428 2.31128 0
M  V30 10592 H 1021.64 6.62981 2.08522 0
M  V30 10593 H 1024.83 4.36974 1.67843 0
M  V30 10594 H 1025 6.13511 2.08585 0
M  V30 10595 N 1018.41 -0.709066 1.40748 0
M  V30 10596 C 1019.36 -1.8149 1.38005 0
M  V30 10597 C 1020.34 -1.58842 0.256544 0
M  V30 10598 O 1021.54 -1.69904 0.496164 0
M  V30 10599 C 1018.67 -3.19678 1.25143 0
M  V30 10600 C 1017.75 -3.48067 2.42301 0
M  V30 10601 N 1018.14 -3.47234 3.6778 0
M  V30 10602 C 1016.44 -3.78555 2.35822 0
M  V30 10603 C 1017.14 -3.74149 4.45407 0
M  V30 10604 N 1016.12 -3.93224 3.75335 0
M  V30 10605 H 1019.92 -1.79188 2.32957 0
M  V30 10606 H 1017.43 -0.908477 1.34612 0
M  V30 10607 H 1019.43 -3.98875 1.2126 0
M  V30 10608 H 1018.09 -3.23201 0.311642 0
M  V30 10609 H 1019.1 -3.2793 4.00852 0
M  V30 10610 H 1015.78 -3.89529 1.50245 0
M  V30 10611 H 1017.17 -3.79755 5.54289 0
M  V30 10612 N 1019.89 -1.26353 -0.941956 0
M  V30 10613 C 1020.82 -1.10341 -2.05784 0
M  V30 10614 C 1021.8 -0.00881565 -1.70098 0
M  V30 10615 O 1022.99 -0.180699 -1.93357 0
M  V30 10616 C 1020.12 -0.734788 -3.39438 0
M  V30 10617 C 1019.07 -1.78103 -3.89183 0
M  V30 10618 C 1018.4 -1.26675 -5.19478 0
M  V30 10619 C 1019.7 -3.1824 -4.14151 0
M  V30 10620 H 1021.39 -2.03684 -2.19438 0
M  V30 10621 H 1018.94 -0.980698 -1.05443 0
M  V30 10622 H 1020.89 -0.609653 -4.16967 0
M  V30 10623 H 1019.61 0.234354 -3.25758 0
M  V30 10624 H 1018.27 -1.89482 -3.13835 0
M  V30 10625 H 1017.92 -0.287472 -5.02178 0
M  V30 10626 H 1017.62 -1.96612 -5.53731 0
M  V30 10627 H 1019.14 -1.15427 -5.99591 0
M  V30 10628 H 1020.56 -3.09942 -4.82296 0
M  V30 10629 H 1018.95 -3.8576 -4.59684 0
M  V30 10630 H 1020.02 -3.64354 -3.19959 0
M  V30 10631 N 1021.37 1.14642 -1.08144 0
M  V30 10632 C 1022.62 1.8525 -0.807885 0
M  V30 10633 C 1022.94 1.83194 0.668213 0
M  V30 10634 O 1022.21 1.27848 1.48431 0
M  V30 10635 H 1020.79 0.685909 -0.295868 0
M  V30 10636 H 1023.45 1.38935 -1.36686 0
M  V30 10637 H 1022.54 2.90155 -1.14964 0
M  V30 10638 N 1022.85 0.866709 1.31628 0
M  V30 10639 C 1024.09 0.472185 1.96095 0
M  V30 10640 C 1024.41 -0.979873 1.69286 0
M  V30 10641 O 1025.61 -1.48039 2.27589 0
M  V30 10642 C 1024.07 0.793468 3.51044 0
M  V30 10643 C 1023.68 2.26206 3.86697 0
M  V30 10644 C 1025.42 0.467255 4.21921 0
M  V30 10645 C 1023.33 2.52593 5.34743 0
M  V30 10646 H 1022.26 0.172846 0.733921 0
M  V30 10647 H 1024.91 1.05916 1.49847 0
M  V30 10648 H 1023.29 0.135783 3.95767 0
M  V30 10649 H 1024.47 2.96254 3.52945 0
M  V30 10650 H 1022.78 2.55399 3.28877 0
M  V30 10651 H 1025.38 0.641669 5.30836 0
M  V30 10652 H 1025.72 -0.592065 4.12068 0
M  V30 10653 H 1026.25 1.08134 3.82821 0
M  V30 10654 H 1022.99 3.57196 5.49628 0
M  V30 10655 H 1022.51 1.87136 5.6986 0
M  V30 10656 H 1024.19 2.37156 6.01968 0
M  V30 10657 N 1024.32 -1.44642 0.625825 0
M  V30 10658 C 1025.57 -2.02393 0.128391 0
M  V30 10659 C 1025.9 -1.49075 -1.2446 0
M  V30 10660 O 1025.18 -0.672684 -1.82497 0
M  V30 10661 C 1025.46 -3.59934 0.109279 0
M  V30 10662 C 1025.31 -4.23546 1.51423 0
M  V30 10663 C 1026.63 -4.36406 -0.568985 0
M  V30 10664 H 1023.75 -0.735427 0.0481299 0
M  V30 10665 H 1026.39 -1.72277 0.801286 0
M  V30 10666 H 1024.54 -3.85722 -0.463726 0
M  V30 10667 H 1026.22 -4.08882 2.13572 0
M  V30 10668 H 1024.46 -3.81245 2.06966 0
M  V30 10669 H 1025.13 -5.32535 1.45294 0
M  V30 10670 H 1027.61 -4.1602 -0.0817516 0
M  V30 10671 H 1026.48 -5.46122 -0.551527 0
M  V30 10672 H 1026.74 -4.1062 -1.6384 0
M  V30 10673 N 1025.8 -0.366053 -1.5329 0
M  V30 10674 C 1027.05 0.223051 -2.00865 0
M  V30 10675 C 1027.37 1.49244 -1.25504 0
M  V30 10676 O 1026.64 1.92404 -0.368444 0
M  V30 10677 H 1025.22 0.085413 -0.742101 0
M  V30 10678 H 1027.88 -0.492396 -1.88578 0
M  V30 10679 H 1026.98 0.449701 -3.08843 0
M  V30 10680 N 1027.28 1.57312 -0.0952337 0
M  V30 10681 C 1028.19 2.17556 0.877877 0
M  V30 10682 C 1029.21 1.14505 1.31014 0
M  V30 10683 O 1030.38 1.46876 1.37802 0
M  V30 10684 C 1027.45 2.74413 2.11892 0
M  V30 10685 C 1026.51 3.92419 1.74085 0
M  V30 10686 C 1025.74 4.46556 2.92273 0
M  V30 10687 O 1025.96 3.99631 4.07002 0
M  V30 10688 O 1024.9 5.37576 2.70732 0
M  V30 10689 H 1028.72 3.01116 0.395312 0
M  V30 10690 H 1026.31 1.48841 0.129123 0
M  V30 10691 H 1028.19 3.10754 2.84622 0
M  V30 10692 H 1026.87 1.93899 2.59201 0
M  V30 10693 H 1025.77 3.6089 0.985346 0
M  V30 10694 H 1027.11 4.74298 1.31539 0
M  V30 10695 N 1028.76 -0.17846 1.56586 0
M  V30 10696 C 1030 -0.90281 1.83381 0
M  V30 10697 C 1030.36 -1.79738 0.675139 0
M  V30 10698 O 1031.56 -2.55879 0.823368 0
M  V30 10699 C 1029.83 -1.68353 3.15265 0
M  V30 10700 S 1031.39 -2.45762 3.6352 0
M  V30 10701 H 1028.21 -0.302508 0.643436 0
M  V30 10702 H 1030.81 -0.164961 1.94803 0
M  V30 10703 H 1029.52 -1.01725 3.97593 0
M  V30 10704 H 1029.05 -2.46289 3.06766 0
M  V30 10705 H 1031.06 -3.70312 3.30278 0
M  V30 10706 N 1030.24 -1.51135 -0.446768 0
M  V30 10707 C 1031.18 -1.72328 -1.56224 0
M  V30 10708 C 1032.18 -0.589411 -1.58815 0
M  V30 10709 O 1033.38 -0.770554 -1.62673 0
M  V30 10710 H 1029.76 -0.544339 -0.518844 0
M  V30 10711 H 1031.73 -2.65851 -1.3552 0
M  V30 10712 C 1030.48 -1.85686 -2.93966 0
M  V30 10713 H 1029.8 -2.72336 -2.927 0
M  V30 10714 H 1031.24 -2.0453 -3.71407 0
M  V30 10715 C 1029.7 -0.614328 -3.31252 0
M  V30 10716 O 1030.23 0.235369 -4.0101 0
M  V30 10717 N 1028.44 -0.461181 -2.86917 0
M  V30 10718 H 1027.98 -1.15369 -2.30321 0
M  V30 10719 H 1027.94 0.368966 -3.12227 0
M  V30 10720 N 1031.71 0.701592 -1.41122 0
M  V30 10721 C 1032.96 1.45722 -1.39456 0
M  V30 10722 C 1033.28 1.95599 -0.00475228 0
M  V30 10723 O 1034.48 2.71166 0.134529 0
M  V30 10724 C 1032.94 2.63475 -2.45172 0
M  V30 10725 C 1032.55 2.20409 -3.90031 0
M  V30 10726 C 1034.29 3.4114 -2.52633 0
M  V30 10727 C 1032.2 3.35084 -4.87312 0
M  V30 10728 H 1031.13 0.547341 -0.518588 0
M  V30 10729 H 1033.78 0.762233 -1.6692 0
M  V30 10730 H 1032.16 3.35212 -2.10829 0
M  V30 10731 H 1033.33 1.56 -4.3359 0
M  V30 10732 H 1031.65 1.55752 -3.86174 0
M  V30 10733 H 1034.25 4.26496 -3.22498 0
M  V30 10734 H 1034.59 3.85915 -1.56125 0
M  V30 10735 H 1035.12 2.76456 -2.86037 0
M  V30 10736 H 1031.86 2.95327 -5.85203 0
M  V30 10737 H 1031.38 3.98362 -4.48406 0
M  V30 10738 H 1033.06 4.00949 -5.07788 0
M  V30 10739 N 1033.19 1.2685 0.935242 0
M  V30 10740 C 1034.12 1.04717 2.0388 0
M  V30 10741 C 1035.14 0.00567507 1.62799 0
M  V30 10742 O 1036.33 0.246408 1.76791 0
M  V30 10743 C 1033.43 0.56496 3.34158 0
M  V30 10744 C 1032.6 1.67704 4.03973 0
M  V30 10745 C 1031.66 1.19186 5.12524 0
M  V30 10746 O 1030.68 1.89008 5.36903 0
M  V30 10747 N 1031.89 0.0434554 5.80484 0
M  V30 10748 H 1034.65 1.99746 2.23431 0
M  V30 10749 H 1032.21 1.18316 1.10512 0
M  V30 10750 H 1034.2 0.224436 4.04077 0
M  V30 10751 H 1032.77 -0.291899 3.11234 0
M  V30 10752 H 1031.99 2.18821 3.27889 0
M  V30 10753 H 1033.28 2.42361 4.47368 0
M  V30 10754 H 1032.68 -0.539502 5.63122 0
M  V30 10755 H 1031.24 -0.237946 6.51366 0
M  V30 10756 N 1034.67 -1.14067 1.0875 0
M  V30 10757 C 1035.92 -1.85185 0.819317 0
M  V30 10758 C 1036.25 -1.8314 -0.654969 0
M  V30 10759 O 1035.5 -1.25974 -1.49763 0
M  V30 10760 C 1035.8 -3.33273 1.29089 0
M  V30 10761 C 1035.47 -3.55504 2.77359 0
M  V30 10762 C 1034.13 -3.61279 3.17853 0
M  V30 10763 C 1036.48 -3.64041 3.72992 0
M  V30 10764 C 1033.81 -3.73119 4.52768 0
M  V30 10765 C 1036.16 -3.77407 5.07687 0
M  V30 10766 C 1034.82 -3.81433 5.47782 0
M  V30 10767 H 1034.09 -0.67764 0.299809 0
M  V30 10768 H 1036.74 -1.34713 1.36106 0
M  V30 10769 H 1035.05 -3.86049 0.668811 0
M  V30 10770 H 1036.74 -3.86734 1.06009 0
M  V30 10771 H 1033.33 -3.51659 2.45019 0
M  V30 10772 H 1037.52 -3.58866 3.42825 0
M  V30 10773 H 1032.77 -3.74499 4.83281 0
M  V30 10774 H 1036.95 -3.82956 5.81651 0
M  V30 10775 H 1034.57 -3.9036 6.52321 0
M  V30 10776 N 1036.15 -0.873678 -1.31166 0
M  V30 10777 C 1037.11 -0.337069 -2.26708 0
M  V30 10778 C 1038.11 0.51406 -1.52362 0
M  V30 10779 O 1039.3 0.322834 -1.71182 0
M  V30 10780 C 1036.43 0.520897 -3.36897 0
M  V30 10781 H 1037.63 -1.18056 -2.75686 0
M  V30 10782 H 1035.18 -0.649577 -1.42163 0
M  V30 10783 H 1035.91 1.38543 -2.93217 0
M  V30 10784 H 1035.7 -0.0886015 -3.92 0
M  V30 10785 H 1037.19 0.888497 -4.08039 0
M  V30 10786 N 1037.63 1.44308 -0.633487 0
M  V30 10787 C 1038.56 2.33431 0.0568402 0
M  V30 10788 C 1039.54 1.48342 0.832386 0
M  V30 10789 O 1040.72 1.77056 0.797798 0
M  V30 10790 C 1037.85 3.31443 1.03743 0
M  V30 10791 C 1036.81 4.26368 0.373362 0
M  V30 10792 C 1036.13 5.14267 1.46403 0
M  V30 10793 C 1037.43 5.17287 -0.721876 0
M  V30 10794 H 1039.13 2.91402 -0.687388 0
M  V30 10795 H 1036.67 1.4012 -0.332009 0
M  V30 10796 H 1038.63 3.92677 1.52913 0
M  V30 10797 H 1037.35 2.71686 1.81258 0
M  V30 10798 H 1036.01 3.6647 -0.0977053 0
M  V30 10799 H 1035.66 4.50861 2.23011 0
M  V30 10800 H 1035.36 5.7859 1.02506 0
M  V30 10801 H 1036.88 5.78373 1.95748 0
M  V30 10802 H 1038.29 5.72444 -0.313181 0
M  V30 10803 H 1036.69 5.90226 -1.08413 0
M  V30 10804 H 1037.76 4.58159 -1.58804 0
M  V30 10805 N 1039.1 0.374177 1.53094 0
M  V30 10806 C 1040.05 -0.484848 2.22785 0
M  V30 10807 C 1041.04 -1.04181 1.22617 0
M  V30 10808 O 1042.23 -0.97043 1.48026 0
M  V30 10809 C 1039.36 -1.61956 3.02696 0
M  V30 10810 C 1038.45 -1.07506 4.10248 0
M  V30 10811 N 1038.84 -0.254253 5.05161 0
M  V30 10812 C 1037.13 -1.34904 4.25108 0
M  V30 10813 C 1037.84 0.0448558 5.81683 0
M  V30 10814 N 1036.81 -0.555073 5.40759 0
M  V30 10815 H 1040.61 0.148976 2.93522 0
M  V30 10816 H 1038.13 0.182656 1.6137 0
M  V30 10817 H 1040.12 -2.24723 3.51148 0
M  V30 10818 H 1038.78 -2.25636 2.33492 0
M  V30 10819 H 1039.8 0.107256 5.17789 0
M  V30 10820 H 1036.47 -1.98799 3.67131 0
M  V30 10821 H 1037.86 0.708952 6.68149 0
M  V30 10822 N 1040.58 -1.57259 0.103575 0
M  V30 10823 C 1041.99 -1.81816 -0.424239 0
M  V30 10824 C 1042.34 -1.01976 -1.67617 0
M  V30 10825 O 1041.47 -0.251673 -2.14932 0
M  V30 10826 C 1042.06 -3.29783 -0.776453 0
M  V30 10827 C 1040.62 -3.55074 -1.24897 0
M  V30 10828 C 1039.77 -2.76172 -0.249875 0
M  V30 10829 H 1042.72 -1.55254 0.328913 0
M  V30 10830 H 1042.74 -3.43569 -1.63526 0
M  V30 10831 H 1042.25 -3.87865 0.134906 0
M  V30 10832 H 1040.36 -3.02332 -2.17775 0
M  V30 10833 H 1040.47 -4.637 -1.20495 0
M  V30 10834 H 1038.83 -2.43902 -0.733767 0
M  V30 10835 H 1039.62 -3.37007 0.65431 0
M  V30 10836 N 1042.06 0.170153 -1.56679 0
M  V30 10837 C 1043.29 0.902134 -1.86197 0
M  V30 10838 C 1043.7 1.75775 -0.689098 0
M  V30 10839 O 1043.06 1.79271 0.341763 0
M  V30 10840 C 1043.11 1.77792 -3.14757 0
M  V30 10841 O 1042.83 0.956817 -4.27524 0
M  V30 10842 C 1044.33 2.61947 -3.57629 0
M  V30 10843 H 1041.55 0.262026 -0.617724 0
M  V30 10844 H 1044.1 0.169899 -2.03793 0
M  V30 10845 H 1042.25 2.46348 -2.98984 0
M  V30 10846 H 1042.67 1.5559 -5.00891 0
M  V30 10847 H 1044.14 3.19011 -4.50484 0
M  V30 10848 H 1044.62 3.36873 -2.81803 0
M  V30 10849 H 1045.22 1.98721 -3.76019 0
M  V30 10850 N 1043.54 1.5137 0.438746 0
M  V30 10851 C 1044.76 1.68058 1.21537 0
M  V30 10852 C 1045.19 0.376787 1.84288 0
M  V30 10853 O 1044.55 -0.662911 1.68746 0
M  V30 10854 C 1044.59 2.79684 2.27616 0
M  V30 10855 O 1043.7 2.43189 3.33066 0
M  V30 10856 H 1043.04 0.560408 0.356144 0
M  V30 10857 H 1045.57 1.97926 0.518311 0
M  V30 10858 H 1045.58 3.03726 2.72423 0
M  V30 10859 H 1044.25 3.74293 1.81321 0
M  V30 10860 H 1042.83 2.29713 2.93746 0
M  V30 10861 N 1045.02 -0.694098 1.41492 0
M  V30 10862 C 1045.95 -1.81841 1.37873 0
M  V30 10863 C 1046.93 -1.60732 0.245772 0
M  V30 10864 O 1048.11 -1.83461 0.432917 0
M  V30 10865 C 1045.24 -3.18543 1.15099 0
M  V30 10866 C 1044.28 -3.5844 2.31133 0
M  V30 10867 S 1045.12 -3.63079 3.93617 0
M  V30 10868 C 1046.27 -5.02505 3.73148 0
M  V30 10869 H 1046.51 -1.84634 2.33018 0
M  V30 10870 H 1044.04 -0.862948 1.28033 0
M  V30 10871 H 1046 -3.9746 1.02646 0
M  V30 10872 H 1044.66 -3.13358 0.21572 0
M  V30 10873 H 1043.85 -4.57754 2.10896 0
M  V30 10874 H 1043.45 -2.86837 2.40002 0
M  V30 10875 H 1045.75 -5.90046 3.32945 0
M  V30 10876 H 1046.69 -5.27784 4.72069 0
M  V30 10877 H 1047.1 -4.74113 3.06394 0
M  V30 10878 N 1046.49 -1.27344 -0.928501 0
M  V30 10879 C 1047.4 -1.11812 -2.06241 0
M  V30 10880 C 1048.42 -0.048347 -1.73933 0
M  V30 10881 O 1049.6 -0.25467 -1.99783 0
M  V30 10882 C 1046.66 -0.766036 -3.38131 0
M  V30 10883 C 1045.72 -1.91659 -3.84142 0
M  V30 10884 C 1044.96 -1.58121 -5.09738 0
M  V30 10885 O 1045.18 -0.488742 -5.68302 0
M  V30 10886 O 1044.11 -2.42013 -5.51102 0
M  V30 10887 H 1047.94 -2.06967 -2.22258 0
M  V30 10888 H 1045.52 -1.06524 -1.04752 0
M  V30 10889 H 1047.41 -0.582982 -4.17348 0
M  V30 10890 H 1046.08 0.155998 -3.23324 0
M  V30 10891 H 1044.99 -2.1547 -3.05816 0
M  V30 10892 H 1046.32 -2.8188 -4.0349 0
M  V30 10893 N 1047.97 1.13488 -1.09353 0
M  V30 10894 C 1049.2 1.88319 -0.849681 0
M  V30 10895 C 1049.61 1.79347 0.602616 0
M  V30 10896 O 1048.95 1.15744 1.4265 0
M  V30 10897 C 1049.02 3.38698 -1.20514 0
M  V30 10898 C 1048.68 3.71452 -2.66219 0
M  V30 10899 C 1049.68 3.70755 -3.64467 0
M  V30 10900 C 1047.36 4.01132 -3.02321 0
M  V30 10901 C 1049.36 3.9928 -4.96845 0
M  V30 10902 C 1047.04 4.29318 -4.3489 0
M  V30 10903 C 1048.04 4.28376 -5.31961 0
M  V30 10904 O 1047.73 4.55872 -6.62145 0
M  V30 10905 H 1047.46 0.603053 -0.305455 0
M  V30 10906 H 1050.01 1.44592 -1.45884 0
M  V30 10907 H 1048.24 3.82925 -0.539022 0
M  V30 10908 H 1049.93 3.94852 -0.940552 0
M  V30 10909 H 1050.7 3.47901 -3.3792 0
M  V30 10910 H 1046.58 4.01013 -2.27398 0
M  V30 10911 H 1050.12 3.9846 -5.72604 0
M  V30 10912 H 1046.02 4.51644 -4.61181 0
M  V30 10913 H 1046.79 4.73544 -6.67607 0
M  V30 10914 N 1049.45 0.880621 1.30701 0
M  V30 10915 C 1050.69 0.503519 1.98101 0
M  V30 10916 C 1051.06 -0.929075 1.68024 0
M  V30 10917 O 1052.26 -1.41208 2.28722 0
M  V30 10918 C 1050.53 0.765652 3.49102 0
M  V30 10919 S 1052.09 0.490001 4.36056 0
M  V30 10920 H 1048.9 0.187522 0.685825 0
M  V30 10921 H 1051.51 1.13895 1.58897 0
M  V30 10922 H 1050.21 1.80688 3.68484 0
M  V30 10923 H 1049.74 0.117616 3.93224 0
M  V30 10924 H 1051.76 -0.673236 4.91612 0
M  V30 10925 N 1050.93 -1.4397 0.641131 0
M  V30 10926 C 1052.18 -2.01163 0.147026 0
M  V30 10927 C 1052.49 -1.51099 -1.24211 0
M  V30 10928 O 1053.7 -2.00487 -1.83078 0
M  V30 10929 C 1052.15 -3.59275 0.212068 0
M  V30 10930 C 1051.76 -4.18334 1.60314 0
M  V30 10931 C 1053.51 -4.23903 -0.225057 0
M  V30 10932 C 1051.41 -5.68701 1.62276 0
M  V30 10933 H 1050.34 -0.75226 0.051201 0
M  V30 10934 H 1052.99 -1.65075 0.801396 0
M  V30 10935 H 1051.38 -3.92708 -0.509589 0
M  V30 10936 H 1052.55 -3.96422 2.34918 0
M  V30 10937 H 1050.86 -3.66031 1.9852 0
M  V30 10938 H 1053.46 -5.34205 -0.230074 0
M  V30 10939 H 1053.8 -3.96956 -1.25426 0
M  V30 10940 H 1054.34 -3.95309 0.44444 0
M  V30 10941 H 1051.08 -6.00397 2.63066 0
M  V30 10942 H 1050.6 -5.92705 0.919797 0
M  V30 10943 H 1052.28 -6.32521 1.36112 0
M  V30 10944 N 1052.41 -0.382291 -1.52893 0
M  V30 10945 C 1053.66 0.203342 -2.00672 0
M  V30 10946 C 1053.97 1.48487 -1.27322 0
M  V30 10947 O 1055.18 2.15013 -1.65776 0
M  V30 10948 C 1053.63 0.412922 -3.57523 0
M  V30 10949 C 1053.24 -0.854949 -4.39767 0
M  V30 10950 C 1054.98 0.955301 -4.13611 0
M  V30 10951 C 1052.89 -0.614033 -5.88204 0
M  V30 10952 H 1051.82 0.0797635 -0.749769 0
M  V30 10953 H 1054.47 -0.50361 -1.76454 0
M  V30 10954 H 1052.85 1.18155 -3.77962 0
M  V30 10955 H 1054.03 -1.62765 -4.31096 0
M  V30 10956 H 1052.34 -1.32176 -3.94865 0
M  V30 10957 H 1054.94 1.15114 -5.22162 0
M  V30 10958 H 1055.28 1.92233 -3.69259 0
M  V30 10959 H 1055.82 0.24642 -3.97036 0
M  V30 10960 H 1052.55 -1.55187 -6.36865 0
M  V30 10961 H 1052.07 0.119865 -5.9968 0
M  V30 10962 H 1053.75 -0.245895 -6.46533 0
M  V30 10963 N 1053.89 1.57202 -0.111913 0
M  V30 10964 C 1054.8 2.18475 0.854753 0
M  V30 10965 C 1055.81 1.15888 1.29792 0
M  V30 10966 O 1056.99 1.48329 1.36237 0
M  V30 10967 C 1054.05 2.76645 2.0897 0
M  V30 10968 C 1053.11 3.94244 1.69913 0
M  V30 10969 C 1052.35 4.49631 2.8752 0
M  V30 10970 O 1052.57 4.03926 4.02741 0
M  V30 10971 O 1051.5 5.40417 2.65015 0
M  V30 10972 H 1055.33 3.01519 0.363352 0
M  V30 10973 H 1052.91 1.4897 0.113329 0
M  V30 10974 H 1054.8 3.13755 2.81311 0
M  V30 10975 H 1053.47 1.96637 2.5713 0
M  V30 10976 H 1052.38 3.61915 0.947013 0
M  V30 10977 H 1053.71 4.75666 1.26501 0
M  V30 10978 N 1055.36 -0.161842 1.56767 0
M  V30 10979 C 1056.61 -0.878224 1.82798 0
M  V30 10980 C 1056.94 -1.81481 0.691242 0
M  V30 10981 O 1056.22 -1.92075 -0.30618 0
M  V30 10982 C 1056.5 -1.66565 3.19262 0
M  V30 10983 C 1056.35 -0.751551 4.43477 0
M  V30 10984 C 1057.67 -2.63134 3.52773 0
M  V30 10985 H 1054.79 -0.317828 0.664947 0
M  V30 10986 H 1057.43 -0.14402 1.89453 0
M  V30 10987 H 1055.58 -2.29157 3.13719 0
M  V30 10988 H 1057.26 -0.137783 4.61094 0
M  V30 10989 H 1055.5 -0.0601785 4.33758 0
M  V30 10990 H 1056.17 -1.33823 5.35533 0
M  V30 10991 H 1058.65 -2.10666 3.5883 0
M  V30 10992 H 1057.52 -3.15289 4.49315 0
M  V30 10993 H 1057.78 -3.43786 2.77963 0
M  V30 10994 N 1056.84 -1.516 -0.430713 0
M  V30 10995 C 1057.79 -1.73975 -1.54387 0
M  V30 10996 C 1058.78 -0.606222 -1.58181 0
M  V30 10997 O 1059.99 -0.787764 -1.61846 0
M  V30 10998 H 1056.36 -0.549811 -0.513041 0
M  V30 10999 H 1058.34 -2.67274 -1.32692 0
M  V30 11000 C 1057.08 -1.88794 -2.9198 0
M  V30 11001 H 1056.41 -2.75425 -2.89795 0
M  V30 11002 H 1057.85 -2.08458 -3.69217 0
M  V30 11003 C 1056.31 -0.649427 -3.30581 0
M  V30 11004 O 1056.84 0.192823 -4.01237 0
M  V30 11005 N 1055.04 -0.491586 -2.86412 0
M  V30 11006 H 1054.59 -1.17806 -2.29084 0
M  V30 11007 H 1054.55 0.33583 -3.12601 0
M  V30 11008 N 1058.32 0.686584 -1.41858 0
M  V30 11009 C 1059.28 1.78214 -1.44126 0
M  V30 11010 C 1060.28 1.57366 -0.330541 0
M  V30 11011 O 1061.47 1.63874 -0.590837 0
M  V30 11012 C 1058.6 3.16704 -1.26142 0
M  V30 11013 H 1059.8 1.77594 -2.41661 0
M  V30 11014 H 1057.35 0.895085 -1.28132 0
M  V30 11015 H 1058.09 3.22957 -0.294823 0
M  V30 11016 H 1057.87 3.33238 -2.06627 0
M  V30 11017 H 1059.36 3.96658 -1.30584 0
M  V30 11018 N 1059.8 1.27835 0.921735 0
M  V30 11019 C 1061.21 1.05369 1.19873 0
M  V30 11020 C 1061.41 -0.208997 2.00413 0
M  V30 11021 O 1060.47 -0.912861 2.35421 0
M  V30 11022 C 1061.78 2.29658 1.94108 0
M  V30 11023 C 1063.33 2.34756 2.07023 0
M  V30 11024 C 1063.81 3.5879 2.84664 0
M  V30 11025 N 1065.3 3.59383 2.9223 0
M  V30 11026 C 1066.03 4.52029 3.52785 0
M  V30 11027 N 1065.53 5.54986 4.14683 0
M  V30 11028 N 1067.32 4.39641 3.50246 0
M  V30 11029 H 1059.47 2.08903 0.383819 0
M  V30 11030 H 1061.73 0.919065 0.232429 0
M  V30 11031 H 1061.44 3.21604 1.4235 0
M  V30 11032 H 1061.31 2.35444 2.94696 0
M  V30 11033 H 1063.7 1.43312 2.57965 0
M  V30 11034 H 1063.78 2.32969 1.05636 0
M  V30 11035 H 1063.43 4.50574 2.34404 0
M  V30 11036 H 1063.36 3.57829 3.86349 0
M  V30 11037 H 1065.85 2.84927 2.48244 0
M  V30 11038 H 1066.16 6.21837 4.58845 0
M  V30 11039 H 1064.51 5.58822 4.13211 0
M  V30 11040 H 1067.7 3.58413 3.01094 0
M  V30 11041 H 1067.87 5.12033 3.97148 0
M  V30 11042 N 1061.28 -1.12907 1.09954 0
M  V30 11043 C 1062.21 -2.20585 0.765799 0
M  V30 11044 C 1063.19 -1.68117 -0.258989 0
M  V30 11045 O 1064.37 -1.93792 -0.125853 0
M  V30 11046 C 1061.5 -3.46772 0.191435 0
M  V30 11047 C 1060.46 -4.12363 1.14635 0
M  V30 11048 C 1059.78 -5.3294 0.433426 0
M  V30 11049 C 1061.08 -4.59073 2.49096 0
M  V30 11050 H 1062.78 -2.48759 1.66612 0
M  V30 11051 H 1060.32 -1.19563 0.802534 0
M  V30 11052 H 1062.27 -4.21365 -0.0541535 0
M  V30 11053 H 1061 -3.18011 -0.744101 0
M  V30 11054 H 1059.66 -3.39744 1.37731 0
M  V30 11055 H 1059.31 -5.00444 -0.506422 0
M  V30 11056 H 1059.01 -5.77772 1.07018 0
M  V30 11057 H 1060.53 -6.10284 0.196267 0
M  V30 11058 H 1061.94 -5.25063 2.30177 0
M  V30 11059 H 1060.34 -5.14665 3.0861 0
M  V30 11060 H 1061.41 -3.73313 3.0946 0
M  V30 11061 N 1062.75 -0.88754 -1.30232 0
M  V30 11062 C 1063.98 -0.521562 -2.00735 0
M  V30 11063 C 1064.4 0.883247 -1.66073 0
M  V30 11064 O 1063.76 1.58581 -0.878731 0
M  V30 11065 C 1063.81 -0.706521 -3.53611 0
M  V30 11066 O 1062.91 0.246447 -4.11663 0
M  V30 11067 H 1062.25 -0.205216 -0.631492 0
M  V30 11068 H 1064.78 -1.19579 -1.66018 0
M  V30 11069 H 1064.79 -0.606501 -4.03467 0
M  V30 11070 H 1063.47 -1.73076 -3.78177 0
M  V30 11071 H 1062.05 0.0999062 -3.72766 0
M  V30 11072 N 1064.23 1.43628 -0.648757 0
M  V30 11073 C 1065.65 1.56442 -0.315921 0
M  V30 11074 C 1065.85 1.63322 1.18018 0
M  V30 11075 O 1064.9 1.58585 1.96487 0
M  V30 11076 C 1066.22 2.82751 -1.02335 0
M  V30 11077 C 1067.77 2.96488 -1.00318 0
M  V30 11078 C 1068.24 4.25623 -1.69142 0
M  V30 11079 N 1069.73 4.32477 -1.65885 0
M  V30 11080 C 1070.47 5.31154 -2.16016 0
M  V30 11081 N 1069.96 6.36135 -2.74415 0
M  V30 11082 N 1071.76 5.22778 -2.06541 0
M  V30 11083 H 1063.91 1.37405 -1.61968 0
M  V30 11084 H 1066.17 0.65962 -0.680886 0
M  V30 11085 H 1065.88 2.83714 -2.07844 0
M  V30 11086 H 1065.75 3.72836 -0.572114 0
M  V30 11087 H 1068.14 2.95068 0.0434919 0
M  V30 11088 H 1068.22 2.07704 -1.49307 0
M  V30 11089 H 1067.86 4.27804 -2.73763 0
M  V30 11090 H 1067.79 5.13296 -1.17622 0
M  V30 11091 H 1070.28 3.57232 -1.23264 0
M  V30 11092 H 1070.6 7.07743 -3.10355 0
M  V30 11093 H 1068.94 6.36771 -2.78474 0
M  V30 11094 H 1072.13 4.39678 -1.60625 0
M  V30 11095 H 1072.3 5.99523 -2.45919 0
M  V30 11096 N 1065.71 0.390394 1.52688 0
M  V30 11097 C 1066.94 -0.194013 2.06491 0
M  V30 11098 C 1067.36 -1.3965 1.26014 0
M  V30 11099 O 1066.72 -1.79038 0.285468 0
M  V30 11100 C 1066.77 -0.541306 3.56514 0
M  V30 11101 O 1065.87 -1.63509 3.78601 0
M  V30 11102 H 1065.21 -0.0223608 0.663623 0
M  V30 11103 H 1067.74 0.558179 1.96839 0
M  V30 11104 H 1067.75 -0.805301 3.99974 0
M  V30 11105 H 1066.43 0.337828 4.14526 0
M  V30 11106 H 1065 -1.36473 3.4703 0
M  V30 11107 N 1067.19 -1.57141 0.120249 0
M  V30 11108 C 1068.41 -2.00017 -0.548454 0
M  V30 11109 C 1068.84 -0.999433 -1.59352 0
M  V30 11110 O 1068.2 0.0286978 -1.81277 0
M  V30 11111 C 1068.24 -3.41766 -1.15015 0
M  V30 11112 O 1067.35 -3.44589 -2.26566 0
M  V30 11113 H 1066.69 -0.649739 -0.136875 0
M  V30 11114 H 1069.22 -2.03529 0.209092 0
M  V30 11115 H 1069.23 -3.80001 -1.48537 0
M  V30 11116 H 1067.9 -4.14117 -0.384681 0
M  V30 11117 H 1066.48 -3.18174 -1.94473 0
M  V30 11118 N 1068.67 0.153526 -1.5685 0
M  V30 11119 C 1069.63 1.17362 -1.96873 0
M  V30 11120 C 1070.63 1.36219 -0.854456 0
M  V30 11121 O 1071.82 1.33322 -1.1212 0
M  V30 11122 C 1068.95 2.53523 -2.27901 0
M  V30 11123 H 1070.14 0.830432 -2.88173 0
M  V30 11124 H 1067.7 0.396633 -1.51184 0
M  V30 11125 H 1068.43 2.92824 -1.39371 0
M  V30 11126 H 1068.22 2.41198 -3.09137 0
M  V30 11127 H 1069.71 3.27006 -2.59725 0
M  V30 11128 N 1070.14 1.51827 0.422667 0
M  V30 11129 C 1071.07 1.77152 1.52117 0
M  V30 11130 C 1072.06 0.621895 1.58324 0
M  V30 11131 O 1073.24 0.866118 1.73816 0
M  V30 11132 C 1070.37 1.90991 2.90068 0
M  V30 11133 C 1069.32 3.06516 2.98717 0
M  V30 11134 C 1068.65 3.05559 4.38791 0
M  V30 11135 C 1069.95 4.46223 2.71445 0
M  V30 11136 H 1071.64 2.69135 1.31175 0
M  V30 11137 H 1069.19 1.29507 0.629607 0
M  V30 11138 H 1071.14 2.07291 3.6689 0
M  V30 11139 H 1069.87 0.956688 3.12274 0
M  V30 11140 H 1068.53 2.89945 2.24338 0
M  V30 11141 H 1068.17 2.07985 4.57986 0
M  V30 11142 H 1067.87 3.83144 4.45505 0
M  V30 11143 H 1069.4 3.23971 5.17566 0
M  V30 11144 H 1070.81 4.63069 3.37994 0
M  V30 11145 H 1069.21 5.25623 2.89552 0
M  V30 11146 H 1070.28 4.5525 1.6696 0
M  V30 11147 N 1071.62 -0.679052 1.4222 0
M  V30 11148 C 1072.59 -1.77448 1.45069 0
M  V30 11149 C 1073.59 -1.57189 0.338882 0
M  V30 11150 O 1074.78 -1.63559 0.599519 0
M  V30 11151 C 1071.91 -3.1603 1.27819 0
M  V30 11152 H 1073.1 -1.7631 2.426 0
M  V30 11153 H 1070.65 -0.888277 1.28605 0
M  V30 11154 H 1071.39 -3.22796 0.311946 0
M  V30 11155 H 1071.17 -3.32138 2.08391 0
M  V30 11156 H 1072.66 -3.9596 1.32686 0
M  V30 11157 N 1073.1 -1.28322 -0.914942 0
M  V30 11158 C 1074.33 -1.1837 -1.70304 0
M  V30 11159 C 1074.75 0.254291 -1.86373 0
M  V30 11160 O 1074.11 1.18398 -1.37301 0
M  V30 11161 C 1074.16 -1.88603 -3.07346 0
M  V30 11162 O 1073.26 -1.19268 -3.94777 0
M  V30 11163 H 1072.6 -0.410978 -0.52153 0
M  V30 11164 H 1075.13 -1.69622 -1.14409 0
M  V30 11165 H 1075.14 -1.96463 -3.57584 0
M  V30 11166 H 1073.82 -2.93201 -2.94967 0
M  V30 11167 H 1072.39 -1.19563 -3.53212 0
M  V30 11168 N 1074.58 1.12322 -1.10551 0
M  V30 11169 C 1075.53 2.18087 -0.755424 0
M  V30 11170 C 1076.5 1.6391 0.268805 0
M  V30 11171 O 1077.68 1.90227 0.147813 0
M  V30 11172 C 1074.82 3.4455 -0.194713 0
M  V30 11173 C 1073.93 4.12775 -1.27439 0
M  V30 11174 C 1073.07 5.26891 -0.675194 0
M  V30 11175 C 1072.11 5.86985 -1.73536 0
M  V30 11176 N 1071.24 6.92512 -1.15635 0
M  V30 11177 H 1076.08 2.47379 -1.66155 0
M  V30 11178 H 1073.62 1.21452 -0.829924 0
M  V30 11179 H 1075.58 4.16936 0.148275 0
M  V30 11180 H 1074.21 3.15671 0.674638 0
M  V30 11181 H 1073.26 3.38556 -1.73448 0
M  V30 11182 H 1074.57 4.53506 -2.07687 0
M  V30 11183 H 1073.73 6.06046 -0.281723 0
M  V30 11184 H 1072.47 4.87442 0.158708 0
M  V30 11185 H 1071.47 5.06517 -2.13825 0
M  V30 11186 H 1072.7 6.28505 -2.57213 0
M  V30 11187 H 1070.64 6.55098 -0.343928 0
M  V30 11188 H 1070.56 7.31848 -1.89565 0
M  V30 11189 H 1071.83 7.75492 -0.789463 0
M  V30 11190 N 1076.06 0.894434 1.2976 0
M  V30 11191 C 1077.02 0.373094 2.26143 0
M  V30 11192 C 1078.02 -0.489756 1.5316 0
M  V30 11193 O 1079.21 -0.29556 1.71674 0
M  V30 11194 C 1076.34 -0.467234 3.37683 0
M  V30 11195 H 1077.53 1.22427 2.73773 0
M  V30 11196 H 1075.09 0.672112 1.41111 0
M  V30 11197 H 1075.82 -1.33861 2.95384 0
M  V30 11198 H 1075.61 0.150954 3.91809 0
M  V30 11199 H 1077.1 -0.823469 4.094 0
M  V30 11200 N 1077.53 -1.43282 0.656365 0
M  V30 11201 C 1078.76 -2.06125 0.178879 0
M  V30 11202 C 1079.18 -1.49216 -1.15672 0
M  V30 11203 O 1078.53 -0.624693 -1.71475 0
M  V30 11204 C 1078.59 -3.614 0.0851785 0
M  V30 11205 O 1078.31 -4.16194 1.36798 0
M  V30 11206 C 1079.81 -4.41325 -0.41801 0
M  V30 11207 H 1077.03 -0.664753 0.0913504 0
M  V30 11208 H 1079.57 -1.83733 0.897901 0
M  V30 11209 H 1077.73 -3.82966 -0.584421 0
M  V30 11210 H 1078.14 -5.09892 1.22924 0
M  V30 11211 H 1079.61 -5.50303 -0.432519 0
M  V30 11212 H 1080.09 -4.14577 -1.44991 0
M  V30 11213 H 1080.7 -4.24735 0.219208 0
M  V30 11214 N 1079.01 -0.398486 -1.52479 0
M  V30 11215 C 1080.26 0.180394 -2.01293 0
M  V30 11216 C 1080.58 1.46548 -1.28641 0
M  V30 11217 O 1079.85 1.91579 -0.409173 0
M  V30 11218 H 1078.43 0.0696528 -0.743746 0
M  V30 11219 H 1081.09 -0.532285 -1.87491 0
M  V30 11220 H 1080.19 0.38409 -3.09728 0
M  V30 11221 N 1080.49 1.57075 -0.12858 0
M  V30 11222 C 1081.72 1.99586 0.533769 0
M  V30 11223 C 1082.13 1.00737 1.60152 0
M  V30 11224 O 1081.47 -0.00647783 1.83699 0
M  V30 11225 C 1081.53 3.3852 1.21014 0
M  V30 11226 C 1081.2 4.56084 0.289191 0
M  V30 11227 C 1082.2 5.17717 -0.475963 0
M  V30 11228 C 1079.88 5.01912 0.197467 0
M  V30 11229 C 1081.87 6.23572 -1.32048 0
M  V30 11230 C 1079.56 6.07626 -0.65067 0
M  V30 11231 C 1080.56 6.68324 -1.40826 0
M  V30 11232 O 1080.25 7.71995 -2.2423 0
M  V30 11233 H 1079.98 0.660245 0.145096 0
M  V30 11234 H 1082.53 2.04276 -0.214615 0
M  V30 11235 H 1080.76 3.30613 2.00579 0
M  V30 11236 H 1082.45 3.65258 1.77036 0
M  V30 11237 H 1083.22 4.83221 -0.415027 0
M  V30 11238 H 1079.1 4.54407 0.776853 0
M  V30 11239 H 1082.64 6.70878 -1.91228 0
M  V30 11240 H 1078.54 6.41551 -0.712965 0
M  V30 11241 H 1079.31 7.89135 -2.17276 0
M  V30 11242 N 1081.97 -0.145205 1.5693 0
M  V30 11243 C 1083.38 -0.705089 1.72874 0
M  V30 11244 C 1083.73 -1.81577 0.743261 0
M  V30 11245 O 1082.86 -2.16214 -0.0897153 0
M  V30 11246 C 1083.45 -1.28578 3.13454 0
M  V30 11247 C 1082.01 -1.79221 3.30994 0
M  V30 11248 C 1081.16 -0.681392 2.68798 0
M  V30 11249 H 1084.11 0.0804798 1.58496 0
M  V30 11250 H 1084.13 -2.15558 3.13552 0
M  V30 11251 H 1083.64 -0.477186 3.85155 0
M  V30 11252 H 1081.74 -2.62642 2.64292 0
M  V30 11253 H 1081.86 -1.91969 4.38959 0
M  V30 11254 H 1080.22 -1.10847 2.29314 0
M  V30 11255 H 1081 0.115786 3.43105 0
M  V30 11256 N 1083.45 -1.52049 -0.414609 0
M  V30 11257 C 1084.38 -1.77956 -1.51175 0
M  V30 11258 C 1085.36 -0.630282 -1.57992 0
M  V30 11259 O 1086.54 -0.875324 -1.73354 0
M  V30 11260 C 1083.67 -1.92527 -2.89051 0
M  V30 11261 C 1082.63 -3.08096 -2.97087 0
M  V30 11262 C 1081.95 -3.07882 -4.37164 0
M  V30 11263 C 1083.25 -4.47656 -2.69075 0
M  V30 11264 H 1084.95 -2.69827 -1.29746 0
M  V30 11265 H 1082.49 -1.29839 -0.62273 0
M  V30 11266 H 1084.45 -2.09234 -3.65786 0
M  V30 11267 H 1083.17 -0.973235 -3.11762 0
M  V30 11268 H 1081.83 -2.91131 -2.22797 0
M  V30 11269 H 1081.48 -2.10411 -4.56877 0
M  V30 11270 H 1081.18 -3.85501 -4.43467 0
M  V30 11271 H 1082.7 -3.26712 -5.15841 0
M  V30 11272 H 1084.12 -4.64855 -3.35534 0
M  V30 11273 H 1082.51 -5.27151 -2.8676 0
M  V30 11274 H 1083.58 -4.56129 -1.64544 0
M  V30 11275 N 1084.93 0.6715 -1.42579 0
M  V30 11276 C 1085.89 1.76676 -1.46008 0
M  V30 11277 C 1086.89 1.57007 -0.347213 0
M  V30 11278 O 1088.08 1.63238 -0.608185 0
M  V30 11279 C 1085.21 3.15348 -1.29494 0
M  V30 11280 H 1086.4 1.75021 -2.43531 0
M  V30 11281 H 1083.96 0.881444 -1.29075 0
M  V30 11282 H 1084.69 3.22626 -0.32906 0
M  V30 11283 H 1084.48 3.31028 -2.10149 0
M  V30 11284 H 1085.97 3.95251 -1.34784 0
M  V30 11285 N 1086.4 1.28806 0.908124 0
M  V30 11286 C 1087.65 1.16287 1.65781 0
M  V30 11287 C 1087.98 -0.287389 1.92365 0
M  V30 11288 O 1087.23 -1.22491 1.52625 0
M  V30 11289 C 1087.53 1.91267 3.01914 0
M  V30 11290 C 1087.2 3.41033 2.9497 0
M  V30 11291 C 1085.86 3.81879 2.92783 0
M  V30 11292 C 1088.21 4.36507 2.848 0
M  V30 11293 C 1085.54 5.16529 2.78235 0
M  V30 11294 C 1087.89 5.71237 2.71792 0
M  V30 11295 C 1086.56 6.11351 2.67967 0
M  V30 11296 H 1085.83 0.425526 0.606637 0
M  V30 11297 H 1088.47 1.59646 1.05762 0
M  V30 11298 H 1086.78 1.40474 3.65752 0
M  V30 11299 H 1088.48 1.78992 3.58835 0
M  V30 11300 H 1085.07 3.08561 2.97469 0
M  V30 11301 H 1089.25 4.05909 2.85573 0
M  V30 11302 H 1084.51 5.4673 2.73672 0
M  V30 11303 H 1088.68 6.44872 2.62892 0
M  V30 11304 H 1086.31 7.15637 2.56451 0
M  V30 11305 N 1087.88 -1.11734 1.11145 0
M  V30 11306 C 1089.13 -1.82766 0.853194 0
M  V30 11307 C 1089.44 -1.85408 -0.623168 0
M  V30 11308 O 1090.65 -2.52509 -0.997574 0
M  V30 11309 C 1089.11 -3.28215 1.47658 0
M  V30 11310 C 1088.71 -3.33911 2.98676 0
M  V30 11311 C 1090.46 -4.04168 1.29803 0
M  V30 11312 C 1088.36 -4.73739 3.54013 0
M  V30 11313 H 1087.29 -0.684807 0.315523 0
M  V30 11314 H 1089.95 -1.25756 1.33633 0
M  V30 11315 H 1088.33 -3.85138 0.921116 0
M  V30 11316 H 1089.5 -2.86887 3.606 0
M  V30 11317 H 1087.82 -2.71437 3.15771 0
M  V30 11318 H 1090.41 -5.07429 1.68582 0
M  V30 11319 H 1090.76 -4.15606 0.240302 0
M  V30 11320 H 1091.29 -3.53623 1.82196 0
M  V30 11321 H 1088.03 -4.67497 4.59485 0
M  V30 11322 H 1087.55 -5.21186 2.9686 0
M  V30 11323 H 1089.23 -5.42691 3.52271 0
M  V30 11324 N 1089.36 -0.901303 -1.29284 0
M  V30 11325 C 1090.32 -0.385081 -2.25942 0
M  V30 11326 C 1091.32 0.481626 -1.53418 0
M  V30 11327 O 1092.51 0.286451 -1.71829 0
M  V30 11328 C 1089.64 0.449319 -3.37926 0
M  V30 11329 H 1090.84 -1.23877 -2.7312 0
M  V30 11330 H 1088.39 -0.679586 -1.40753 0
M  V30 11331 H 1089.13 1.32292 -2.9609 0
M  V30 11332 H 1088.91 -0.171731 -3.91724 0
M  V30 11333 H 1090.4 0.801746 -4.09831 0
M  V30 11334 N 1090.84 1.42931 -0.663954 0
M  V30 11335 C 1091.8 2.29197 0.0117626 0
M  V30 11336 C 1092.8 1.42767 0.739875 0
M  V30 11337 O 1093.99 1.64278 0.579509 0
M  V30 11338 C 1091.12 3.2505 1.02738 0
M  V30 11339 H 1092.32 2.90438 -0.747391 0
M  V30 11340 H 1089.87 1.5039 -0.425733 0
M  V30 11341 H 1090.6 2.68726 1.8154 0
M  V30 11342 H 1090.39 3.88785 0.508809 0
M  V30 11343 H 1091.88 3.89771 1.49893 0
M  V30 11344 N 1092.32 0.406567 1.52266 0
M  V30 11345 C 1093.26 -0.420182 2.26943 0
M  V30 11346 C 1094.23 -1.04323 1.29251 0
M  V30 11347 O 1095.42 -1.06799 1.5811 0
M  V30 11348 C 1092.56 -1.5323 3.09216 0
M  V30 11349 C 1091.67 -0.930419 4.21862 0
M  V30 11350 C 1090.81 -2.01502 4.91498 0
M  V30 11351 C 1089.84 -1.38994 5.9611 0
M  V30 11352 N 1088.98 -2.41458 6.59274 0
M  V30 11353 H 1093.82 0.223066 2.97164 0
M  V30 11354 H 1091.36 0.121842 1.46595 0
M  V30 11355 H 1093.32 -2.18803 3.5522 0
M  V30 11356 H 1091.95 -2.14561 2.41171 0
M  V30 11357 H 1091 -0.163809 3.80047 0
M  V30 11358 H 1092.31 -0.433785 4.9691 0
M  V30 11359 H 1091.46 -2.74807 5.40894 0
M  V30 11360 H 1090.2 -2.5453 4.16012 0
M  V30 11361 H 1089.21 -0.642213 5.46036 0
M  V30 11362 H 1090.43 -0.867386 6.73538 0
M  V30 11363 H 1088.38 -2.93623 5.86619 0
M  V30 11364 H 1088.3 -1.96599 7.2999 0
M  V30 11365 H 1089.56 -3.14341 7.13309 0
M  V30 11366 N 1093.79 -1.57004 0.136909 0
M  V30 11367 C 1095.04 -1.94972 -0.51662 0
M  V30 11368 C 1095.36 -1.02367 -1.66674 0
M  V30 11369 O 1096.56 -1.29873 -2.38423 0
M  V30 11370 C 1095.02 -3.4657 -0.970435 0
M  V30 11371 C 1094.63 -4.47741 0.152204 0
M  V30 11372 C 1096.37 -3.93423 -1.59432 0
M  V30 11373 C 1094.28 -5.90537 -0.319315 0
M  V30 11374 H 1093.21 -0.727873 -0.196766 0
M  V30 11375 H 1095.86 -1.82181 0.219637 0
M  V30 11376 H 1094.24 -3.54657 -1.76165 0
M  V30 11377 H 1095.41 -4.5134 0.928925 0
M  V30 11378 H 1093.73 -4.10746 0.683867 0
M  V30 11379 H 1096.33 -4.97539 -1.95856 0
M  V30 11380 H 1096.67 -3.34404 -2.47951 0
M  V30 11381 H 1097.2 -3.8821 -0.868193 0
M  V30 11382 H 1093.94 -6.53352 0.530248 0
M  V30 11383 H 1093.46 -5.90321 -1.06213 0
M  V30 11384 H 1095.14 -6.42346 -0.774662 0
M  V30 11385 N 1095.27 0.136881 -1.57004 0
M  V30 11386 C 1096.24 1.15267 -1.98106 0
M  V30 11387 C 1097.24 1.35305 -0.868856 0
M  V30 11388 O 1098.43 1.32126 -1.13527 0
M  V30 11389 C 1095.56 2.51092 -2.30577 0
M  V30 11390 H 1096.75 0.799821 -2.89038 0
M  V30 11391 H 1094.3 0.380576 -1.51596 0
M  V30 11392 H 1095.04 2.9133 -1.42469 0
M  V30 11393 H 1094.82 2.37906 -3.11678 0
M  V30 11394 H 1096.31 3.24232 -2.63179 0
M  V30 11395 N 1096.75 1.52266 0.40654 0
M  V30 11396 C 1097.68 1.78755 1.50229 0
M  V30 11397 C 1098.66 0.638652 1.57655 0
M  V30 11398 O 1099.85 0.884505 1.72888 0
M  V30 11399 C 1096.98 1.94057 2.88026 0
M  V30 11400 C 1095.93 3.09667 2.95449 0
M  V30 11401 C 1095.26 3.10196 4.35526 0
M  V30 11402 C 1096.56 4.49077 2.66697 0
M  V30 11403 H 1098.25 2.70511 1.28313 0
M  V30 11404 H 1095.8 1.30167 0.615836 0
M  V30 11405 H 1097.75 2.11171 3.64671 0
M  V30 11406 H 1096.47 0.989755 3.11242 0
M  V30 11407 H 1095.13 2.92308 2.2125 0
M  V30 11408 H 1094.78 2.12831 4.55754 0
M  V30 11409 H 1094.48 3.87847 4.41416 0
M  V30 11410 H 1096 3.29443 5.14101 0
M  V30 11411 H 1097.42 4.66628 3.33064 0
M  V30 11412 H 1095.82 5.28665 2.8396 0
M  V30 11413 H 1096.89 4.56995 1.62122 0
M  V30 11414 N 1098.23 -0.663929 1.42933 0
M  V30 11415 C 1099.48 -1.42111 1.43697 0
M  V30 11416 C 1099.8 -1.94913 0.0583858 0
M  V30 11417 O 1099.07 -1.73757 -0.904719 0
M  V30 11418 H 1097.65 -0.527391 0.529026 0
M  V30 11419 H 1100.31 -0.783766 1.78446 0
M  V30 11420 H 1099.41 -2.26877 2.1432 0
M  V30 11421 N 1099.71 -1.29285 -0.901281 0
M  V30 11422 C 1100.96 -1.16538 -1.64626 0
M  V30 11423 C 1101.27 0.282623 -1.93547 0
M  V30 11424 O 1102.47 0.531396 -2.66249 0
M  V30 11425 C 1100.93 -2.03809 -2.96631 0
M  V30 11426 C 1100.54 -3.53423 -2.75311 0
M  V30 11427 C 1102.28 -1.99782 -3.7455 0
M  V30 11428 C 1100.19 -4.32804 -4.03032 0
M  V30 11429 H 1099.12 -0.432561 -0.617581 0
M  V30 11430 H 1101.77 -1.53912 -0.999159 0
M  V30 11431 H 1100.15 -1.59302 -3.62545 0
M  V30 11432 H 1101.33 -4.05971 -2.18 0
M  V30 11433 H 1099.64 -3.59106 -2.10789 0
M  V30 11434 H 1102.24 -2.5635 -4.69243 0
M  V30 11435 H 1102.58 -0.97743 -4.04663 0
M  V30 11436 H 1103.11 -2.42324 -3.15474 0
M  V30 11437 H 1099.85 -5.35473 -3.78086 0
M  V30 11438 H 1099.37 -3.85025 -4.59909 0
M  V30 11439 H 1101.05 -4.43383 -4.71191 0
M  V30 11440 N 1101.18 1.11143 -1.11736 0
M  V30 11441 C 1102.6 1.64462 -0.883693 0
M  V30 11442 C 1102.95 1.87324 0.583448 0
M  V30 11443 O 1102.07 1.60975 1.44623 0
M  V30 11444 C 1102.67 2.98765 -1.59764 0
M  V30 11445 C 1101.23 3.4898 -1.41032 0
M  V30 11446 C 1100.37 2.23729 -1.63831 0
M  V30 11447 H 1103.32 0.947415 -1.27317 0
M  V30 11448 H 1103.34 3.65885 -1.04443 0
M  V30 11449 H 1102.86 2.82094 -2.66542 0
M  V30 11450 H 1100.96 3.7081 -0.364781 0
M  V30 11451 H 1101.07 4.27571 -2.16148 0
M  V30 11452 H 1099.43 2.31507 -1.06191 0
M  V30 11453 H 1100.22 2.09597 -2.7189 0
M  V30 11454 N 1102.66 0.908147 1.28804 0
M  V30 11455 C 1103.59 0.409106 2.29888 0
M  V30 11456 C 1104.57 -0.520338 1.61946 0
M  V30 11457 O 1105.76 -0.429268 1.89396 0
M  V30 11458 C 1102.89 -0.35669 3.45463 0
M  V30 11459 C 1101.84 0.4831 4.25265 0
M  V30 11460 C 1101.17 -0.4107 5.3312 0
M  V30 11461 C 1102.47 1.73744 4.92555 0
M  V30 11462 H 1104.16 1.25386 2.7188 0
M  V30 11463 H 1101.71 0.604368 1.30703 0
M  V30 11464 H 1103.66 -0.71661 4.15262 0
M  V30 11465 H 1102.39 -1.2353 3.02337 0
M  V30 11466 H 1101.04 0.825464 3.57186 0
M  V30 11467 H 1100.69 -1.28769 4.86238 0
M  V30 11468 H 1100.39 0.14756 5.87415 0
M  V30 11469 H 1101.92 -0.766626 6.05768 0
M  V30 11470 H 1103.33 1.44676 5.54745 0
M  V30 11471 H 1101.73 2.23767 5.5682 0
M  V30 11472 H 1102.8 2.46853 4.17363 0
M  V30 11473 N 1104.14 -1.42577 0.671525 0
M  V30 11474 C 1105.55 -1.84736 0.270084 0
M  V30 11475 C 1105.9 -1.56212 -1.18711 0
M  V30 11476 O 1105.03 -1.02028 -1.90838 0
M  V30 11477 C 1105.62 -3.35334 0.483409 0
M  V30 11478 C 1104.18 -3.76154 0.136119 0
M  V30 11479 C 1103.33 -2.66179 0.777444 0
M  V30 11480 H 1106.28 -1.3247 0.873919 0
M  V30 11481 H 1106.3 -3.79573 -0.265483 0
M  V30 11482 H 1105.81 -3.56063 1.54405 0
M  V30 11483 H 1103.91 -3.61033 -0.921209 0
M  V30 11484 H 1104.03 -4.75645 0.574356 0
M  V30 11485 H 1102.39 -2.53841 0.209055 0
M  V30 11486 H 1103.17 -2.89732 1.84148 0
M  V30 11487 N 1105.62 -0.414636 -1.52048 0
M  V30 11488 C 1106.53 0.414861 -2.30903 0
M  V30 11489 C 1107.54 1.04855 -1.38858 0
M  V30 11490 O 1108.72 1.04886 -1.71933 0
M  V30 11491 C 1105.79 1.51356 -3.11917 0
M  V30 11492 C 1104.85 0.902359 -4.19709 0
M  V30 11493 C 1104.08 1.9487 -4.96852 0
M  V30 11494 O 1104.3 3.16766 -4.74358 0
M  V30 11495 O 1103.24 1.55186 -5.8155 0
M  V30 11496 H 1107.06 -0.228251 -3.02841 0
M  V30 11497 H 1104.65 -0.177704 -1.48339 0
M  V30 11498 H 1106.53 2.15127 -3.62351 0
M  V30 11499 H 1105.2 2.14117 -2.42767 0
M  V30 11500 H 1104.11 0.22721 -3.73409 0
M  V30 11501 H 1105.44 0.318587 -4.91168 0
M  V30 11502 N 1107.1 1.56929 -0.145233 0
M  V30 11503 C 1108.35 1.95243 0.506273 0
M  V30 11504 C 1108.66 1.0325 1.66129 0
M  V30 11505 O 1109.86 1.31135 2.37731 0
M  V30 11506 C 1108.32 3.47079 0.952042 0
M  V30 11507 C 1107.93 4.47654 -0.175947 0
M  V30 11508 C 1109.67 3.94263 1.57344 0
M  V30 11509 C 1107.58 5.90698 0.287993 0
M  V30 11510 H 1106.51 0.728906 0.192903 0
M  V30 11511 H 1109.16 1.82062 -0.229295 0
M  V30 11512 H 1107.54 3.55587 1.74282 0
M  V30 11513 H 1108.72 4.50841 -0.952848 0
M  V30 11514 H 1107.03 4.10377 -0.70564 0
M  V30 11515 H 1109.63 4.9857 1.93214 0
M  V30 11516 H 1109.97 3.35714 2.46174 0
M  V30 11517 H 1110.5 3.88665 0.847593 0
M  V30 11518 H 1107.24 6.53061 -0.564889 0
M  V30 11519 H 1106.76 5.90876 1.03081 0
M  V30 11520 H 1108.44 6.42747 0.740586 0
M  V30 11521 N 1108.58 -0.128553 1.57075 0
M  V30 11522 C 1109.52 -1.15812 1.9964 0
M  V30 11523 C 1110.49 -1.41679 0.86696 0
M  V30 11524 O 1111.68 -1.53705 1.13046 0
M  V30 11525 C 1108.82 -2.48198 2.39774 0
M  V30 11526 C 1107.93 -2.29348 3.66092 0
M  V30 11527 C 1107.07 -3.54898 3.95248 0
M  V30 11528 C 1106.1 -3.31164 5.14779 0
M  V30 11529 N 1105.24 -4.48891 5.39853 0
M  V30 11530 H 1110.08 -0.788136 2.87389 0
M  V30 11531 H 1107.62 -0.377682 1.42169 0
M  V30 11532 H 1109.58 -3.25414 2.61077 0
M  V30 11533 H 1108.21 -2.83108 1.5508 0
M  V30 11534 H 1107.26 -1.43095 3.5246 0
M  V30 11535 H 1108.57 -2.07781 4.53463 0
M  V30 11536 H 1107.72 -4.40536 4.17148 0
M  V30 11537 H 1106.46 -3.79487 3.06335 0
M  V30 11538 H 1105.47 -2.43915 4.92733 0
M  V30 11539 H 1106.69 -3.07954 6.05261 0
M  V30 11540 H 1104.64 -4.73619 4.53895 0
M  V30 11541 H 1104.56 -4.30394 6.21528 0
M  V30 11542 H 1105.82 -5.35691 5.66265 0
M  V30 11543 N 1110.05 -1.5248 -0.398459 0
M  V30 11544 C 1111 -1.77211 -1.50662 0
M  V30 11545 C 1112 -0.639638 -1.5686 0
M  V30 11546 O 1113.2 -0.821917 -1.60139 0
M  V30 11547 H 1109.58 -0.56057 -0.501264 0
M  V30 11548 H 1111.55 -2.70028 -1.26993 0
M  V30 11549 C 1110.3 -1.94944 -2.8791 0
M  V30 11550 H 1109.62 -2.8151 -2.83888 0
M  V30 11551 H 1111.06 -2.16243 -3.64712 0
M  V30 11552 C 1109.52 -0.719402 -3.29129 0
M  V30 11553 O 1110.05 0.107671 -4.01556 0
M  V30 11554 N 1108.25 -0.552228 -2.85305 0
M  V30 11555 H 1107.8 -1.22638 -2.26534 0
M  V30 11556 H 1107.76 0.269447 -3.13243 0
M  V30 11557 N 1111.53 0.65634 -1.43283 0
M  V30 11558 C 1112.78 1.41837 -1.44949 0
M  V30 11559 C 1113.11 1.94065 -0.0723212 0
M  V30 11560 O 1112.39 1.72092 0.906346 0
M  V30 11561 C 1112.67 2.60206 -2.48927 0
M  V30 11562 C 1112.52 2.1349 -3.95907 0
M  V30 11563 C 1113.84 3.62421 -2.49678 0
M  V30 11564 H 1110.96 0.514398 -0.527792 0
M  V30 11565 H 1113.6 0.74435 -1.74813 0
M  V30 11566 H 1111.75 3.17708 -2.23592 0
M  V30 11567 H 1113.42 1.61012 -4.32288 0
M  V30 11568 H 1111.67 1.4489 -4.08888 0
M  V30 11569 H 1112.34 2.98596 -4.64268 0
M  V30 11570 H 1114.81 3.14671 -2.72252 0
M  V30 11571 H 1113.69 4.42798 -3.24378 0
M  V30 11572 H 1113.95 4.14802 -1.52944 0
M  V30 11573 N 1113.01 1.29761 0.894412 0
M  V30 11574 C 1114.26 1.18214 1.64782 0
M  V30 11575 C 1114.59 -0.264635 1.92388 0
M  V30 11576 O 1113.86 -1.19051 1.53809 0
M  V30 11577 C 1114.15 2.00138 2.99361 0
M  V30 11578 C 1114 3.52984 2.78787 0
M  V30 11579 C 1115.32 1.83187 4.00163 0
M  V30 11580 H 1112.44 0.430802 0.597979 0
M  V30 11581 H 1115.08 1.59292 1.03566 0
M  V30 11582 H 1113.23 1.65233 3.51611 0
M  V30 11583 H 1114.9 3.97898 2.33398 0
M  V30 11584 H 1113.14 3.77642 2.13469 0
M  V30 11585 H 1113.82 4.05585 3.7444 0
M  V30 11586 H 1116.29 2.13684 3.57041 0
M  V30 11587 H 1115.17 2.42849 4.92255 0
M  V30 11588 H 1115.43 0.788469 4.35012 0
M  V30 11589 N 1114.49 -1.10549 1.12324 0
M  V30 11590 C 1115.71 -1.8681 0.900927 0
M  V30 11591 C 1116.14 -1.80049 -0.54443 0
M  V30 11592 O 1115.5 -1.16957 -1.38531 0
M  V30 11593 C 1115.54 -3.33197 1.37883 0
M  V30 11594 O 1114.65 -4.08628 0.556529 0
M  V30 11595 H 1113.99 -0.579709 0.32378 0
M  V30 11596 H 1116.52 -1.39678 1.49503 0
M  V30 11597 H 1116.53 -3.84047 1.37739 0
M  V30 11598 H 1115.2 -3.37435 2.43127 0
M  V30 11599 H 1113.78 -3.67627 0.62486 0
M  V30 11600 N 1115.97 -0.914965 -1.28321 0
M  V30 11601 C 1117.21 -0.547665 -1.94538 0
M  V30 11602 C 1117.53 0.911834 -1.72368 0
M  V30 11603 O 1116.8 1.64481 -1.06408 0
M  V30 11604 H 1115.38 -0.199549 -0.719853 0
M  V30 11605 H 1118.05 -1.16459 -1.5628 0
M  V30 11606 H 1117.14 -0.743138 -3.03124 0
M  V30 11607 N 1117.44 1.42219 -0.679077 0
M  V30 11608 C 1118.39 2.308 -0.00340316 0
M  V30 11609 C 1119.36 1.462 0.788334 0
M  V30 11610 O 1120.55 1.75023 0.759716 0
M  V30 11611 C 1117.69 3.32084 0.938854 0
M  V30 11612 C 1116.8 4.31772 0.140485 0
M  V30 11613 C 1115.93 5.20128 1.07888 0
M  V30 11614 C 1114.97 6.11493 0.27245 0
M  V30 11615 N 1114.11 6.92388 1.16378 0
M  V30 11616 H 1118.95 2.88024 -0.764587 0
M  V30 11617 H 1116.49 1.41869 -0.38878 0
M  V30 11618 H 1118.44 3.89339 1.49903 0
M  V30 11619 H 1117.07 2.76448 1.66662 0
M  V30 11620 H 1116.13 3.76599 -0.536376 0
M  V30 11621 H 1117.44 4.96432 -0.485433 0
M  V30 11622 H 1116.59 5.82137 1.70884 0
M  V30 11623 H 1115.33 4.55655 1.73868 0
M  V30 11624 H 1114.34 5.48549 -0.370693 0
M  V30 11625 H 1115.56 6.78017 -0.383315 0
M  V30 11626 H 1113.51 6.30538 1.8099 0
M  V30 11627 H 1113.42 7.5367 0.593043 0
M  V30 11628 H 1114.69 7.58879 1.78107 0
M  V30 11629 N 1118.92 0.422693 1.51826 0
M  V30 11630 C 1120.15 -0.147744 2.06372 0
M  V30 11631 C 1120.56 -1.37714 1.29152 0
M  V30 11632 O 1119.92 -1.7917 0.347046 0
M  V30 11633 C 1119.97 -0.484642 3.58237 0
M  V30 11634 O 1119.69 0.695944 4.32537 0
M  V30 11635 C 1121.19 -1.10734 4.29247 0
M  V30 11636 H 1118.41 -0.0144047 0.670845 0
M  V30 11637 H 1120.96 0.597558 1.95575 0
M  V30 11638 H 1119.11 -1.17984 3.68997 0
M  V30 11639 H 1119.53 0.411471 5.22884 0
M  V30 11640 H 1121 -1.29318 5.36639 0
M  V30 11641 H 1121.48 -2.08429 3.86593 0
M  V30 11642 H 1122.08 -0.451958 4.22892 0
M  V30 11643 N 1120.4 -1.5685 0.153553 0
M  V30 11644 C 1121.62 -2.01135 -0.505904 0
M  V30 11645 C 1122.05 -1.03301 -1.57196 0
M  V30 11646 O 1121.41 -0.00976022 -1.81297 0
M  V30 11647 C 1121.46 -3.44129 -1.0774 0
M  V30 11648 O 1120.56 -3.49318 -2.19205 0
M  V30 11649 H 1119.9 -0.652496 -0.123062 0
M  V30 11650 H 1122.43 -2.03039 0.252216 0
M  V30 11651 H 1122.44 -3.83066 -1.40444 0
M  V30 11652 H 1121.12 -4.1484 -0.296754 0
M  V30 11653 H 1119.69 -3.22227 -1.8768 0
M  V30 11654 N 1121.88 0.120221 -1.57141 0
M  V30 11655 C 1122.84 1.13159 -1.99318 0
M  V30 11656 C 1123.84 1.34376 -0.883158 0
M  V30 11657 O 1125.03 1.30914 -1.14922 0
M  V30 11658 C 1122.16 2.48632 -2.33227 0
M  V30 11659 H 1123.36 0.769119 -2.8987 0
M  V30 11660 H 1120.91 0.364475 -1.51991 0
M  V30 11661 H 1121.64 2.89802 -1.45551 0
M  V30 11662 H 1121.43 2.34587 -3.14184 0
M  V30 11663 H 1122.92 3.21423 -2.66603 0
M  V30 11664 N 1123.36 1.52689 0.390367 0
M  V30 11665 C 1124.6 1.69354 1.1445 0
M  V30 11666 C 1124.96 0.423677 1.87267 0
M  V30 11667 O 1126.16 0.466669 2.64718 0
M  V30 11668 C 1124.43 2.89356 2.0978 0
M  V30 11669 S 1125.99 3.26602 2.93047 0
M  V30 11670 H 1122.81 0.596162 0.387442 0
M  V30 11671 H 1125.41 1.90732 0.429119 0
M  V30 11672 H 1124.12 3.80003 1.55004 0
M  V30 11673 H 1123.65 2.70307 2.85828 0
M  V30 11674 H 1125.66 2.76683 4.11899 0
M  V30 11675 N 1124.83 -0.648732 1.43629 0
M  V30 11676 C 1126.08 -1.40857 1.45483 0
M  V30 11677 C 1126.41 -1.94332 0.0807963 0
M  V30 11678 O 1125.66 -1.72999 -0.914875 0
M  V30 11679 C 1125.96 -2.60394 2.44806 0
M  V30 11680 C 1125.63 -2.25311 3.90571 0
M  V30 11681 C 1124.29 -2.15456 4.3027 0
M  V30 11682 C 1126.64 -1.97307 4.8241 0
M  V30 11683 C 1123.97 -1.75759 5.59755 0
M  V30 11684 C 1126.32 -1.59108 6.12264 0
M  V30 11685 C 1124.99 -1.47781 6.50936 0
M  V30 11686 H 1124.26 -0.515434 0.532362 0
M  V30 11687 H 1126.9 -0.737339 1.76736 0
M  V30 11688 H 1125.21 -3.3267 2.06973 0
M  V30 11689 H 1126.91 -3.18609 2.43494 0
M  V30 11690 H 1123.5 -2.33894 3.59154 0
M  V30 11691 H 1127.68 -2.0384 4.52507 0
M  V30 11692 H 1122.94 -1.65579 5.88552 0
M  V30 11693 H 1127.11 -1.36472 6.82897 0
M  V30 11694 H 1124.74 -1.16792 7.51175 0
M  V30 11695 N 1126.31 -1.30234 -0.887518 0
M  V30 11696 C 1127.22 -1.18316 -2.02579 0
M  V30 11697 C 1128.24 -0.103658 -1.73691 0
M  V30 11698 O 1129.41 -0.3181 -1.98872 0
M  V30 11699 C 1126.48 -0.873222 -3.35523 0
M  V30 11700 C 1125.54 -2.03783 -3.7785 0
M  V30 11701 C 1124.77 -1.74258 -5.0445 0
M  V30 11702 O 1125 -0.669295 -5.6646 0
M  V30 11703 O 1123.93 -2.59423 -5.43124 0
M  V30 11704 H 1127.76 -2.13933 -2.15561 0
M  V30 11705 H 1125.34 -1.09803 -1.0131 0
M  V30 11706 H 1127.22 -0.715463 -4.15282 0
M  V30 11707 H 1125.9 0.053056 -3.23657 0
M  V30 11708 H 1124.81 -2.2509 -2.98806 0
M  V30 11709 H 1126.14 -2.94574 -3.94318 0
M  V30 11710 N 1127.79 1.09952 -1.12909 0
M  V30 11711 C 1129.2 1.63516 -0.901087 0
M  V30 11712 C 1129.55 1.87932 0.563547 0
M  V30 11713 O 1128.68 1.625 1.42908 0
M  V30 11714 C 1129.27 2.97054 -1.62924 0
M  V30 11715 C 1127.83 3.47464 -1.44725 0
M  V30 11716 C 1126.98 2.21979 -1.66194 0
M  V30 11717 H 1129.93 0.933858 -1.28315 0
M  V30 11718 H 1129.95 3.64757 -1.08318 0
M  V30 11719 H 1129.46 2.79251 -2.69519 0
M  V30 11720 H 1127.56 3.70402 -0.40409 0
M  V30 11721 H 1127.68 4.25254 -2.20671 0
M  V30 11722 H 1126.04 2.30368 -1.0864 0
M  V30 11723 H 1126.82 2.06702 -2.74097 0
M  V30 11724 N 1129.27 0.921757 1.27833 0
M  V30 11725 C 1130.49 0.574599 1.99281 0
M  V30 11726 C 1130.92 -0.838905 1.68357 0
M  V30 11727 O 1130.28 -1.56196 0.920468 0
M  V30 11728 C 1130.32 0.800027 3.51613 0
M  V30 11729 O 1129.43 -0.137215 4.12172 0
M  V30 11730 H 1128.77 0.221887 0.625829 0
M  V30 11731 H 1131.3 1.23939 1.62789 0
M  V30 11732 H 1131.31 0.71326 4.01717 0
M  V30 11733 H 1129.98 1.83042 3.73455 0
M  V30 11734 H 1128.56 -0.00103872 3.729 0
M  V30 11735 N 1130.75 -1.41857 0.686609 0
M  V30 11736 C 1131.68 -2.33481 0.0298353 0
M  V30 11737 C 1132.66 -1.51329 -0.776756 0
M  V30 11738 O 1133.84 -1.79895 -0.731535 0
M  V30 11739 C 1130.97 -3.35065 -0.913707 0
M  V30 11740 C 1129.93 -4.2746 -0.214861 0
M  V30 11741 C 1129.25 -5.19346 -1.27215 0
M  V30 11742 C 1130.55 -5.14252 0.913367 0
M  V30 11743 H 1132.25 -2.8865 0.795067 0
M  V30 11744 H 1129.79 -1.38792 0.383785 0
M  V30 11745 H 1131.75 -3.98082 -1.38234 0
M  V30 11746 H 1130.47 -2.78226 -1.7105 0
M  V30 11747 H 1129.13 -3.65855 0.233651 0
M  V30 11748 H 1128.78 -4.58827 -2.06124 0
M  V30 11749 H 1128.48 -5.81996 -0.80961 0
M  V30 11750 H 1130 -5.85239 -1.74147 0
M  V30 11751 H 1131.41 -5.70887 0.525424 0
M  V30 11752 H 1129.81 -5.85796 1.30244 0
M  V30 11753 H 1130.88 -4.51949 1.75699 0
M  V30 11754 N 1132.22 -0.430739 -1.51599 0
M  V30 11755 C 1133.5 0.197543 -1.946 0
M  V30 11756 C 1133.88 1.6069 -1.36901 0
M  V30 11757 O 1133.23 2.21697 -0.553422 0
M  V30 11758 C 1133.44 0.181976 -3.48525 0
M  V30 11759 C 1134.79 0.390783 -4.22798 0
M  V30 11760 O 1135.81 0.260384 -3.55247 0
M  V30 11761 O 1134.67 0.649701 -5.42624 0
M  V30 11762 H 1131.76 0.133524 -0.81615 0
M  V30 11763 H 1134.31 -0.488243 -1.62525 0
M  V30 11764 H 1133.08 -0.803584 -3.8296 0
M  V30 11765 H 1132.71 0.910952 -3.87024 0
M  V30 11766 N 1133.7 1.56767 -0.161869 0
M  V30 11767 C 1134.93 2.00673 0.491314 0
M  V30 11768 C 1135.34 1.04111 1.5798 0
M  V30 11769 O 1134.68 0.0324889 1.83671 0
M  V30 11770 C 1134.75 3.41011 1.13806 0
M  V30 11771 C 1134.41 4.56595 0.192384 0
M  V30 11772 C 1135.41 5.16591 -0.585671 0
M  V30 11773 C 1133.09 5.02218 0.0909594 0
M  V30 11774 C 1135.09 6.20631 -1.45245 0
M  V30 11775 C 1132.77 6.06109 -0.77941 0
M  V30 11776 C 1133.77 6.65187 -1.54971 0
M  V30 11777 O 1133.46 7.67065 -2.40555 0
M  V30 11778 H 1133.19 0.663174 0.131059 0
M  V30 11779 H 1135.74 2.03775 -0.257896 0
M  V30 11780 H 1133.97 3.34793 1.93521 0
M  V30 11781 H 1135.66 3.68931 1.69248 0
M  V30 11782 H 1136.43 4.82232 -0.517432 0
M  V30 11783 H 1132.31 4.55953 0.680292 0
M  V30 11784 H 1135.85 6.66671 -2.05415 0
M  V30 11785 H 1131.75 6.39894 -0.848887 0
M  V30 11786 H 1132.52 7.84348 -2.33966 0
M  V30 11787 N 1135.18 -0.111886 1.57202 0
M  V30 11788 C 1136.11 -1.16749 1.96074 0
M  V30 11789 C 1137.09 -1.39735 0.831438 0
M  V30 11790 O 1138.28 -1.53772 1.09025 0
M  V30 11791 C 1135.4 -2.51996 2.26308 0
M  V30 11792 C 1134.45 -2.45394 3.48832 0
M  V30 11793 S 1135.28 -1.8867 5.01163 0
M  V30 11794 C 1136.44 -3.25576 5.34557 0
M  V30 11795 H 1136.67 -0.836033 2.85303 0
M  V30 11796 H 1134.2 -0.318922 1.5107 0
M  V30 11797 H 1136.16 -3.29813 2.44405 0
M  V30 11798 H 1134.82 -2.82317 1.3768 0
M  V30 11799 H 1134.02 -3.45038 3.67376 0
M  V30 11800 H 1133.62 -1.75702 3.30159 0
M  V30 11801 H 1135.91 -4.21807 5.30174 0
M  V30 11802 H 1136.85 -3.11853 6.35731 0
M  V30 11803 H 1137.26 -3.24333 4.62026 0
M  V30 11804 N 1136.66 -1.52894 -0.382264 0
M  V30 11805 C 1137.9 -1.68515 -1.12829 0
M  V30 11806 C 1138.24 -0.427211 -1.89443 0
M  V30 11807 O 1137.51 0.57516 -1.85801 0
M  V30 11808 C 1137.8 -2.92449 -2.10108 0
M  V30 11809 C 1137.65 -4.2836 -1.37214 0
M  V30 11810 C 1138.97 -3.11944 -3.1045 0
M  V30 11811 H 1136.09 -0.613223 -0.408811 0
M  V30 11812 H 1138.73 -1.85503 -0.410921 0
M  V30 11813 H 1136.88 -2.78097 -2.71283 0
M  V30 11814 H 1138.55 -4.54493 -0.789516 0
M  V30 11815 H 1136.79 -4.28532 -0.673973 0
M  V30 11816 H 1137.46 -5.11178 -2.0833 0
M  V30 11817 H 1139.94 -3.25372 -2.59369 0
M  V30 11818 H 1138.82 -4.00125 -3.75754 0
M  V30 11819 H 1139.08 -2.26465 -3.79692 0
M  V30 11820 N 1138.14 0.641106 -1.43971 0
M  V30 11821 C 1139.37 1.42829 -1.49692 0
M  V30 11822 C 1139.78 1.88427 -0.118594 0
M  V30 11823 O 1139.14 1.60234 0.873581 0
M  V30 11824 C 1139.19 2.65524 -2.45314 0
M  V30 11825 O 1138.91 2.2183 -3.77787 0
M  V30 11826 C 1140.41 3.58758 -2.60399 0
M  V30 11827 H 1137.63 0.438367 -0.508011 0
M  V30 11828 H 1140.17 0.784933 -1.88836 0
M  V30 11829 H 1138.33 3.25973 -2.09332 0
M  V30 11830 H 1138.74 3.01303 -4.29321 0
M  V30 11831 H 1140.22 4.41483 -3.31357 0
M  V30 11832 H 1140.69 4.06909 -1.65294 0
M  V30 11833 H 1141.3 3.04184 -2.97241 0
M  V30 11834 N 1139.62 1.30703 0.880598 0
M  V30 11835 C 1140.56 1.17455 1.98678 0
M  V30 11836 C 1141.53 0.0629569 1.65981 0
M  V30 11837 O 1142.72 0.233926 1.89361 0
M  V30 11838 C 1139.86 0.876882 3.33774 0
M  V30 11839 C 1138.97 2.07078 3.79134 0
M  V30 11840 C 1138.11 1.71082 5.02896 0
M  V30 11841 C 1137.14 2.86942 5.40676 0
M  V30 11842 N 1136.28 2.51212 6.55619 0
M  V30 11843 H 1141.12 2.12086 2.09341 0
M  V30 11844 H 1138.66 1.05514 1.02495 0
M  V30 11845 H 1140.62 0.684899 4.1154 0
M  V30 11846 H 1139.25 -0.0325633 3.22784 0
M  V30 11847 H 1138.3 2.37388 2.97239 0
M  V30 11848 H 1139.61 2.9383 4.0307 0
M  V30 11849 H 1138.76 1.48284 5.883 0
M  V30 11850 H 1137.5 0.815064 4.80841 0
M  V30 11851 H 1136.51 3.10401 4.53797 0
M  V30 11852 H 1137.73 3.77211 5.64703 0
M  V30 11853 H 1135.68 1.64147 6.35131 0
M  V30 11854 H 1135.6 3.31495 6.79446 0
M  V30 11855 H 1136.86 2.31781 7.44243 0
M  V30 11856 N 1141.09 -1.09351 1.1349 0
M  V30 11857 C 1142.34 -1.80915 0.89177 0
M  V30 11858 C 1142.66 -1.86688 -0.5837 0
M  V30 11859 O 1143.86 -2.54568 -0.943788 0
M  V30 11860 C 1142.32 -3.25009 1.54587 0
M  V30 11861 C 1141.93 -3.27501 3.05691 0
M  V30 11862 C 1143.67 -4.01323 1.38346 0
M  V30 11863 C 1141.58 -4.66123 3.63983 0
M  V30 11864 H 1140.51 -0.677961 0.329978 0
M  V30 11865 H 1143.16 -1.22893 1.3627 0
M  V30 11866 H 1141.54 -3.83098 1.0026 0
M  V30 11867 H 1142.71 -2.79174 3.66604 0
M  V30 11868 H 1141.03 -2.64677 3.21457 0
M  V30 11869 H 1143.63 -5.03739 1.79307 0
M  V30 11870 H 1143.97 -4.15003 0.328404 0
M  V30 11871 H 1144.5 -3.49679 1.89656 0
M  V30 11872 H 1141.24 -4.57646 4.69298 0
M  V30 11873 H 1140.76 -5.14772 3.07848 0
M  V30 11874 H 1142.44 -5.35097 3.63703 0
M  V30 11875 N 1142.57 -0.928524 -1.27343 0
M  V30 11876 C 1143.98 -0.613856 -1.7632 0
M  V30 11877 C 1144.33 0.870983 -1.75808 0
M  V30 11878 O 1143.46 1.68155 -1.36209 0
M  V30 11879 C 1144.05 -1.10755 -3.20186 0
M  V30 11880 C 1142.61 -0.843532 -3.66826 0
M  V30 11881 C 1141.76 -1.26579 -2.46724 0
M  V30 11882 H 1144.71 -1.10821 -1.13598 0
M  V30 11883 H 1144.73 -0.455598 -3.77763 0
M  V30 11884 H 1144.24 -2.18825 -3.20526 0
M  V30 11885 H 1142.34 0.223334 -3.7193 0
M  V30 11886 H 1142.46 -1.46165 -4.56259 0
M  V30 11887 H 1140.82 -0.684334 -2.45334 0
M  V30 11888 H 1141.6 -2.35516 -2.49774 0
M  V30 11889 N 1144.05 1.41491 -0.694123 0
M  V30 11890 C 1145.47 1.55358 -0.365532 0
M  V30 11891 C 1145.67 1.66994 1.12762 0
M  V30 11892 O 1144.72 1.64756 1.91342 0
M  V30 11893 C 1146.03 2.79352 -1.11279 0
M  V30 11894 C 1147.58 2.93147 -1.097 0
M  V30 11895 C 1148.06 4.20027 -1.82597 0
M  V30 11896 N 1149.55 4.26981 -1.7956 0
M  V30 11897 C 1150.28 5.24013 -2.32805 0
M  V30 11898 N 1149.78 6.27083 -2.94515 0
M  V30 11899 N 1151.57 5.15943 -2.23069 0
M  V30 11900 H 1143.72 1.32183 -1.66257 0
M  V30 11901 H 1145.99 0.637624 -0.701527 0
M  V30 11902 H 1145.69 2.76958 -2.16765 0
M  V30 11903 H 1145.57 3.70827 -0.690439 0
M  V30 11904 H 1147.95 2.95057 -0.0504037 0
M  V30 11905 H 1148.03 2.02849 -1.55839 0
M  V30 11906 H 1147.68 4.18878 -2.87235 0
M  V30 11907 H 1147.61 5.09294 -1.33893 0
M  V30 11908 H 1150.1 3.53129 -1.34567 0
M  V30 11909 H 1150.41 6.97511 -3.32714 0
M  V30 11910 H 1148.76 6.27589 -2.98592 0
M  V30 11911 H 1151.95 4.34346 -1.74532 0
M  V30 11912 H 1152.12 5.91396 -2.64868 0
M  V30 11913 N 1145.53 0.438773 1.51369 0
M  V30 11914 C 1146.77 -0.119657 2.03048 0
M  V30 11915 C 1147.13 -1.4026 1.317 0
M  V30 11916 O 1146.42 -1.86858 0.423612 0
M  V30 11917 C 1146.62 -0.39186 3.55245 0
M  V30 11918 C 1146.44 0.863149 4.41339 0
M  V30 11919 C 1145.21 1.39709 4.85602 0
M  V30 11920 C 1147.41 1.74969 4.83622 0
M  V30 11921 N 1145.39 2.60449 5.55913 0
M  V30 11922 C 1146.77 2.80313 5.53014 0
M  V30 11923 C 1148.82 1.76393 4.65607 0
M  V30 11924 C 1147.52 3.87029 6.06301 0
M  V30 11925 C 1149.55 2.82045 5.19812 0
M  V30 11926 C 1148.91 3.86109 5.89151 0
M  V30 11927 H 1145.01 -0.00458455 0.781987 0
M  V30 11928 H 1147.59 0.599764 1.85232 0
M  V30 11929 H 1145.77 -1.08032 3.73073 0
M  V30 11930 H 1147.5 -0.941775 3.93589 0
M  V30 11931 H 1144.25 0.950817 4.63957 0
M  V30 11932 H 1144.68 3.21678 5.95695 0
M  V30 11933 H 1149.32 0.972686 4.11459 0
M  V30 11934 H 1147.04 4.66991 6.59504 0
M  V30 11935 H 1150.62 2.84091 5.07724 0
M  V30 11936 H 1149.5 4.66518 6.30342 0
M  V30 11937 N 1147.01 -1.56678 0.170181 0
M  V30 11938 C 1148.28 -1.88524 -0.521362 0
M  V30 11939 C 1148.66 -1.07989 -1.81388 0
M  V30 11940 O 1148.01 -0.17347 -2.27841 0
M  V30 11941 C 1148.22 -3.40527 -0.764367 0
M  V30 11942 C 1149.57 -4.10241 -1.09487 0
M  V30 11943 O 1150.59 -3.45837 -0.852945 0
M  V30 11944 O 1149.45 -5.24022 -1.55124 0
M  V30 11945 H 1146.55 -0.782161 -0.268614 0
M  V30 11946 H 1149.09 -1.68414 0.208531 0
M  V30 11947 H 1147.86 -3.91015 0.149416 0
M  V30 11948 H 1147.49 -3.66244 -1.54762 0
M  V30 11949 N 1148.48 0.103547 -1.57259 0
M  V30 11950 C 1149.41 1.12714 -2.04494 0
M  V30 11951 C 1150.39 1.42278 -0.932255 0
M  V30 11952 O 1151.58 1.52453 -1.20298 0
M  V30 11953 C 1148.71 2.44927 -2.46228 0
M  V30 11954 C 1147.66 2.2979 -3.61082 0
M  V30 11955 C 1146.99 3.67105 -3.88765 0
M  V30 11956 C 1148.29 1.7455 -4.9227 0
M  V30 11957 H 1149.98 0.734198 -2.90258 0
M  V30 11958 H 1147.53 0.351725 -1.39638 0
M  V30 11959 H 1149.48 3.16798 -2.77879 0
M  V30 11960 H 1148.21 2.8614 -1.57453 0
M  V30 11961 H 1146.87 1.60366 -3.29664 0
M  V30 11962 H 1146.51 4.05831 -2.97171 0
M  V30 11963 H 1146.21 3.57825 -4.66084 0
M  V30 11964 H 1147.74 4.40456 -4.22884 0
M  V30 11965 H 1149.15 2.36253 -5.22358 0
M  V30 11966 H 1147.55 1.76051 -5.73695 0
M  V30 11967 H 1148.62 0.704242 -4.79759 0
M  V30 11968 N 1149.96 1.53094 0.37415 0
M  V30 11969 C 1151.24 1.59456 1.13283 0
M  V30 11970 C 1151.62 0.396821 2.07337 0
M  V30 11971 O 1150.97 -0.613659 2.20106 0
M  V30 11972 C 1151.18 2.94069 1.87948 0
M  V30 11973 C 1152.52 3.4834 2.42785 0
M  V30 11974 O 1153.55 2.96042 1.98085 0
M  V30 11975 O 1152.41 4.39747 3.24477 0
M  V30 11976 H 1149.5 0.643731 0.519171 0
M  V30 11977 H 1152.05 1.65434 0.378105 0
M  V30 11978 H 1150.82 3.72685 1.19255 0
M  V30 11979 H 1150.44 2.91544 2.70348 0
M  V30 11980 N 1151.44 -0.633461 1.44309 0
M  V30 11981 C 1152.86 -0.951379 1.28144 0
M  V30 11982 C 1153.06 -2.00344 0.215512 0
M  V30 11983 O 1152.11 -2.49321 -0.399389 0
M  V30 11984 C 1153.42 -1.41686 2.65227 0
M  V30 11985 C 1154.97 -1.53247 2.72918 0
M  V30 11986 C 1155.45 -2.03179 4.10466 0
M  V30 11987 N 1156.94 -2.10453 4.1263 0
M  V30 11988 C 1157.67 -2.50254 5.15907 0
M  V30 11989 N 1157.17 -2.89209 6.29547 0
M  V30 11990 N 1158.96 -2.50368 5.03262 0
M  V30 11991 H 1151.11 0.0623574 2.12308 0
M  V30 11992 H 1153.38 -0.0347244 0.947364 0
M  V30 11993 H 1153.08 -0.71814 3.4429 0
M  V30 11994 H 1152.96 -2.3883 2.91959 0
M  V30 11995 H 1155.34 -2.22216 1.94176 0
M  V30 11996 H 1155.42 -0.544836 2.4993 0
M  V30 11997 H 1155.07 -1.34806 4.89683 0
M  V30 11998 H 1155 -3.02809 4.3083 0
M  V30 11999 H 1157.49 -1.83042 3.30612 0
M  V30 12000 H 1157.8 -3.18386 7.04166 0
M  V30 12001 H 1156.15 -2.86966 6.32989 0
M  V30 12002 H 1159.34 -2.19324 4.13539 0
M  V30 12003 H 1159.51 -2.81062 5.83873 0
M  V30 12004 N 1152.92 -1.31168 -0.873655 0
M  V30 12005 C 1154.17 -1.20642 -1.6264 0
M  V30 12006 C 1154.49 0.236286 -1.93059 0
M  V30 12007 O 1153.75 1.18401 -1.55819 0
M  V30 12008 C 1154.05 -1.99204 -2.96736 0
M  V30 12009 C 1153.71 -3.48734 -2.85824 0
M  V30 12010 C 1152.38 -3.89507 -2.82555 0
M  V30 12011 C 1154.73 -4.43905 -2.73127 0
M  V30 12012 C 1152.06 -5.23724 -2.64442 0
M  V30 12013 C 1154.41 -5.78242 -2.56551 0
M  V30 12014 C 1153.07 -6.18241 -2.51663 0
M  V30 12015 H 1152.34 -0.44146 -0.595142 0
M  V30 12016 H 1154.99 -1.62394 -1.01492 0
M  V30 12017 H 1153.29 -1.50122 -3.61899 0
M  V30 12018 H 1154.99 -1.88443 -3.53963 0
M  V30 12019 H 1151.58 -3.1634 -2.89184 0
M  V30 12020 H 1155.76 -4.13338 -2.7471 0
M  V30 12021 H 1151.02 -5.53794 -2.59081 0
M  V30 12022 H 1155.19 -6.51616 -2.45702 0
M  V30 12023 H 1152.82 -7.22185 -2.37387 0
M  V30 12024 N 1154.4 1.08748 -1.14068 0
M  V30 12025 C 1155.35 2.13762 -0.793087 0
M  V30 12026 C 1156.33 1.59442 0.216123 0
M  V30 12027 O 1157.52 1.7699 0.0189888 0
M  V30 12028 C 1154.65 3.42249 -0.268432 0
M  V30 12029 C 1153.74 4.03459 -1.30696 0
M  V30 12030 N 1154.13 4.39126 -2.51002 0
M  V30 12031 C 1152.43 4.30748 -1.15637 0
M  V30 12032 C 1153.13 4.87438 -3.17457 0
M  V30 12033 N 1152.1 4.85326 -2.44866 0
M  V30 12034 H 1155.91 2.39152 -1.70831 0
M  V30 12035 H 1153.42 1.26046 -1.02403 0
M  V30 12036 H 1155.42 4.169 -0.00113254 0
M  V30 12037 H 1154.08 3.18309 0.641032 0
M  V30 12038 H 1155.09 4.30266 -2.88256 0
M  V30 12039 H 1151.76 4.1638 -0.305636 0
M  V30 12040 H 1153.15 5.24443 -4.20011 0
M  V30 12041 N 1155.87 0.935264 1.26849 0
M  V30 12042 C 1157.12 0.578545 1.93642 0
M  V30 12043 C 1157.44 -0.884296 1.73796 0
M  V30 12044 O 1156.71 -1.62768 1.09011 0
M  V30 12045 H 1155.29 0.210976 0.716588 0
M  V30 12046 H 1157.96 1.1893 1.54407 0
M  V30 12047 H 1157.05 0.791268 3.01903 0
M  V30 12048 N 1157.35 -1.41121 0.701616 0
M  V30 12049 C 1158.58 -2.05452 0.244365 0
M  V30 12050 C 1159 -1.5282 -1.10866 0
M  V30 12051 O 1158.35 -0.67893 -1.69401 0
M  V30 12052 C 1158.4 -3.60946 0.200112 0
M  V30 12053 O 1158.12 -4.11632 1.4997 0
M  V30 12054 C 1159.63 -4.42431 -0.277394 0
M  V30 12055 H 1156.85 -0.66151 0.112453 0
M  V30 12056 H 1159.39 -1.80784 0.9559 0
M  V30 12057 H 1157.54 -3.84632 -0.462287 0
M  V30 12058 H 1157.96 -5.05723 1.39084 0
M  V30 12059 H 1159.43 -5.514 -0.257225 0
M  V30 12060 H 1159.91 -4.1898 -1.31728 0
M  V30 12061 H 1160.52 -4.23822 0.354223 0
M  V30 12062 N 1158.83 -0.446794 -1.51134 0
M  V30 12063 C 1160.06 0.117242 -2.07068 0
M  V30 12064 C 1160.48 1.34877 -1.3111 0
M  V30 12065 O 1159.84 1.77856 -0.35172 0
M  V30 12066 C 1159.89 0.408616 -3.58277 0
M  V30 12067 O 1158.99 1.49345 -3.84408 0
M  V30 12068 H 1158.33 -0.00228458 -0.663996 0
M  V30 12069 H 1160.86 -0.63085 -1.94632 0
M  V30 12070 H 1160.87 0.656298 -4.02687 0
M  V30 12071 H 1159.55 -0.491444 -4.12986 0
M  V30 12072 H 1158.12 1.23499 -3.51856 0
M  V30 12073 N 1160.31 1.56586 -0.178487 0
M  V30 12074 C 1161.53 2.01915 0.473841 0
M  V30 12075 C 1161.96 1.05789 1.55533 0
M  V30 12076 O 1161.32 0.0386018 1.81259 0
M  V30 12077 C 1161.36 3.45799 1.02251 0
M  V30 12078 O 1160.47 3.52761 2.1362 0
M  V30 12079 H 1159.81 0.654372 0.112666 0
M  V30 12080 H 1162.34 2.02613 -0.284486 0
M  V30 12081 H 1162.35 3.85252 1.34332 0
M  V30 12082 H 1161.02 4.1526 0.230719 0
M  V30 12083 H 1159.6 3.25172 1.8253 0
M  V30 12084 N 1161.79 -0.095206 1.57312 0
M  V30 12085 C 1163.2 -0.449411 1.53142 0
M  V30 12086 C 1163.4 -1.80523 0.895187 0
M  V30 12087 O 1162.46 -2.47746 0.487649 0
M  V30 12088 C 1163.77 -0.412002 2.97864 0
M  V30 12089 C 1165.32 -0.493866 3.09079 0
M  V30 12090 C 1165.79 -0.486606 4.55408 0
M  V30 12091 N 1167.29 -0.547363 4.59955 0
M  V30 12092 C 1168.02 -0.563582 5.70624 0
M  V30 12093 N 1167.52 -0.536015 6.90723 0
M  V30 12094 N 1169.31 -0.608385 5.58798 0
M  V30 12095 H 1161.46 0.792869 1.97047 0
M  V30 12096 H 1163.72 0.295106 0.900898 0
M  V30 12097 H 1163.43 0.517064 3.47878 0
M  V30 12098 H 1163.3 -1.23102 3.56547 0
M  V30 12099 H 1165.69 -1.41335 2.59053 0
M  V30 12100 H 1165.77 0.353286 2.53349 0
M  V30 12101 H 1165.42 0.428935 5.06086 0
M  V30 12102 H 1165.35 -1.35097 5.08976 0
M  V30 12103 H 1167.84 -0.573867 3.73517 0
M  V30 12104 H 1168.15 -0.551671 7.70828 0
M  V30 12105 H 1166.49 -0.503064 6.93177 0
M  V30 12106 H 1169.69 -0.627451 4.63876 0
M  V30 12107 H 1169.86 -0.617556 6.45051 0
M  V30 12108 N 1163.26 -1.53291 -0.366026 0
M  V30 12109 C 1164.51 -1.68671 -1.10602 0
M  V30 12110 C 1164.83 -0.444793 -1.90476 0
M  V30 12111 O 1166.03 -0.479135 -2.67239 0
M  V30 12112 C 1164.49 -2.98174 -2.01545 0
M  V30 12113 C 1164.1 -4.29626 -1.26986 0
M  V30 12114 C 1165.84 -3.22921 -2.7554 0
M  V30 12115 C 1163.75 -5.50218 -2.16828 0
M  V30 12116 H 1162.68 -0.628456 -0.416604 0
M  V30 12117 H 1165.33 -1.79791 -0.367058 0
M  V30 12118 H 1163.71 -2.80855 -2.79171 0
M  V30 12119 H 1164.88 -4.57574 -0.544269 0
M  V30 12120 H 1163.2 -4.11318 -0.648558 0
M  V30 12121 H 1165.8 -4.10202 -3.42985 0
M  V30 12122 H 1166.14 -2.38964 -3.40884 0
M  V30 12123 H 1166.67 -3.40912 -2.04997 0
M  V30 12124 H 1163.41 -6.36651 -1.56063 0
M  V30 12125 H 1162.93 -5.26549 -2.87238 0
M  V30 12126 H 1164.61 -5.84991 -2.76396 0
M  V30 12127 N 1164.74 0.6258 -1.44643 0
M  V30 12128 C 1165.99 1.38251 -1.47414 0
M  V30 12129 C 1166.31 1.94689 -0.110043 0
M  V30 12130 O 1165.58 1.76095 0.858333 0
M  V30 12131 H 1164.16 0.513179 -0.542823 0
M  V30 12132 H 1166.82 0.736179 -1.80462 0
M  V30 12133 H 1165.92 2.21115 -2.2026 0
M  V30 12134 N 1166.22 1.31629 0.866686 0
M  V30 12135 C 1167.45 1.24609 1.65793 0
M  V30 12136 C 1167.87 -0.184944 1.87189 0
M  V30 12137 O 1167.23 -1.1322 1.41601 0
M  V30 12138 C 1167.28 1.9988 3.00134 0
M  V30 12139 O 1166.38 1.33838 3.90079 0
M  V30 12140 H 1165.72 0.430051 0.505917 0
M  V30 12141 H 1168.25 1.73752 1.08035 0
M  V30 12142 H 1168.26 2.09599 3.50046 0
M  V30 12143 H 1166.94 3.03947 2.83882 0
M  V30 12144 H 1165.51 1.3259 3.48532 0
M  V30 12145 N 1167.7 -1.08142 1.14644 0
M  V30 12146 C 1168.92 -1.84857 0.940349 0
M  V30 12147 C 1169.35 -1.81163 -0.506117 0
M  V30 12148 O 1168.71 -1.19869 -1.36019 0
M  V30 12149 C 1168.76 -3.30198 1.4492 0
M  V30 12150 O 1167.86 -4.07355 0.64308 0
M  V30 12151 H 1167.2 -0.572711 0.336003 0
M  V30 12152 H 1169.73 -1.36475 1.52432 0
M  V30 12153 H 1169.74 -3.81039 1.45854 0
M  V30 12154 H 1168.42 -3.32202 2.50229 0
M  V30 12155 H 1166.99 -3.66219 0.702698 0
M  V30 12156 N 1169.18 -0.941978 -1.26351 0
M  V30 12157 C 1170.11 -0.396486 -2.24729 0
M  V30 12158 C 1171.09 0.51514 -1.54224 0
M  V30 12159 O 1172.27 0.452405 -1.82991 0
M  V30 12160 C 1169.4 0.430232 -3.35956 0
M  V30 12161 C 1168.45 -0.419981 -4.24427 0
M  V30 12162 S 1169.28 -1.84442 -5.02734 0
M  V30 12163 C 1170.43 -1.02578 -6.17437 0
M  V30 12164 H 1170.67 -1.23025 -2.70651 0
M  V30 12165 H 1168.2 -0.745148 -1.35229 0
M  V30 12166 H 1170.16 0.901315 -4.00483 0
M  V30 12167 H 1168.82 1.23868 -2.88644 0
M  V30 12168 H 1168.01 0.213475 -5.03548 0
M  V30 12169 H 1167.61 -0.82578 -3.6477 0
M  V30 12170 H 1169.91 -0.268431 -6.76968 0
M  V30 12171 H 1170.85 -1.79047 -6.85089 0
M  V30 12172 H 1171.26 -0.561488 -5.61701 0
M  V30 12173 N 1170.66 1.40747 -0.709091 0
M  V30 12174 C 1171.6 2.30741 -0.0523584 0
M  V30 12175 C 1172.57 1.4784 0.757145 0
M  V30 12176 O 1173.76 1.76595 0.72242 0
M  V30 12177 C 1170.9 3.34 0.868203 0
M  V30 12178 C 1170.01 4.31972 0.0488686 0
M  V30 12179 C 1169.15 5.223 0.968311 0
M  V30 12180 C 1168.18 6.11934 0.142682 0
M  V30 12181 N 1167.32 6.947 1.01665 0
M  V30 12182 H 1172.16 2.86338 -0.825509 0
M  V30 12183 H 1169.7 1.41013 -0.418785 0
M  V30 12184 H 1171.66 3.92431 1.41611 0
M  V30 12185 H 1170.29 2.79921 1.6076 0
M  V30 12186 H 1169.34 3.75377 -0.616137 0
M  V30 12187 H 1170.65 4.95291 -0.590625 0
M  V30 12188 H 1169.8 5.85631 1.58498 0
M  V30 12189 H 1168.54 4.5924 1.64164 0
M  V30 12190 H 1167.55 5.47639 -0.486965 0
M  V30 12191 H 1168.77 6.77052 -0.527046 0
M  V30 12192 H 1166.72 6.34236 1.67575 0
M  V30 12193 H 1166.64 7.54759 0.433045 0
M  V30 12194 H 1167.9 7.62487 1.6197 0
M  V30 12195 N 1172.13 0.454803 1.50895 0
M  V30 12196 C 1173.36 -0.106259 2.07128 0
M  V30 12197 C 1173.78 -1.3418 1.31823 0
M  V30 12198 O 1173.14 -1.77667 0.361147 0
M  V30 12199 C 1173.19 -0.389609 3.58489 0
M  V30 12200 O 1172.29 -1.47305 3.85195 0
M  V30 12201 H 1171.63 0.00580588 0.663975 0
M  V30 12202 H 1174.16 0.641163 1.94294 0
M  V30 12203 H 1174.17 -0.634934 4.03029 0
M  V30 12204 H 1172.85 0.513338 4.1272 0
M  V30 12205 H 1171.43 -1.21631 3.52506 0
M  V30 12206 N 1173.61 -1.56489 0.186789 0
M  V30 12207 C 1174.86 -1.97634 -0.454831 0
M  V30 12208 C 1175.19 -1.07334 -1.61843 0
M  V30 12209 O 1174.47 -0.123612 -1.94107 0
M  V30 12210 C 1174.75 -3.48071 -0.922962 0
M  V30 12211 C 1174.6 -4.49149 0.241877 0
M  V30 12212 C 1175.92 -4.01994 -1.79134 0
M  V30 12213 H 1173.04 -0.718555 -0.163854 0
M  V30 12214 H 1175.68 -1.87984 0.27604 0
M  V30 12215 H 1173.83 -3.56425 -1.54575 0
M  V30 12216 H 1175.5 -4.52841 0.87936 0
M  V30 12217 H 1173.75 -4.24468 0.894964 0
M  V30 12218 H 1174.42 -5.51851 -0.128051 0
M  V30 12219 H 1176.89 -3.96367 -1.26618 0
M  V30 12220 H 1175.77 -5.07641 -2.08787 0
M  V30 12221 H 1176.03 -3.46747 -2.74261 0
M  V30 12222 N 1175.09 0.086862 -1.5736 0
M  V30 12223 C 1176.34 0.787281 -1.86135 0
M  V30 12224 C 1176.66 1.78866 -0.776667 0
M  V30 12225 O 1175.93 1.94915 0.19625 0
M  V30 12226 H 1174.51 0.293744 -0.686821 0
M  V30 12227 H 1177.17 0.0665326 -1.94786 0
M  V30 12228 H 1176.27 1.3128 -2.83147 0
M  V30 12229 N 1176.57 1.53483 0.357892 0
M  V30 12230 C 1177.48 1.83434 1.4625 0
M  V30 12231 C 1178.49 0.723313 1.58254 0
M  V30 12232 O 1179.67 1.01416 1.74002 0
M  V30 12233 C 1176.73 2.0249 2.81423 0
M  V30 12234 C 1175.8 3.26378 2.78883 0
M  V30 12235 C 1175.03 3.44516 4.07608 0
M  V30 12236 O 1175.25 2.66787 5.04163 0
M  V30 12237 O 1174.19 4.37898 4.12952 0
M  V30 12238 H 1178.01 2.77294 1.23861 0
M  V30 12239 H 1175.6 1.38958 0.548722 0
M  V30 12240 H 1177.48 2.16552 3.61501 0
M  V30 12241 H 1176.15 1.11819 3.03773 0
M  V30 12242 H 1175.06 3.17733 1.97475 0
M  V30 12243 H 1176.39 4.16996 2.61486 0
M  V30 12244 N 1178.05 -0.61812 1.44973 0
M  V30 12245 C 1179.29 -1.37944 1.48658 0
M  V30 12246 C 1179.62 -1.93805 0.123749 0
M  V30 12247 O 1178.9 -1.74434 -0.860401 0
M  V30 12248 C 1179.18 -2.53515 2.55739 0
M  V30 12249 C 1179.04 -2.02918 4.01428 0
M  V30 12250 C 1180.35 -3.55674 2.59199 0
M  V30 12251 H 1177.47 -0.500223 0.541244 0
M  V30 12252 H 1180.12 -0.69774 1.76725 0
M  V30 12253 H 1178.27 -3.11669 2.31937 0
M  V30 12254 H 1179.94 -1.49494 4.36405 0
M  V30 12255 H 1178.18 -1.33999 4.12586 0
M  V30 12256 H 1178.85 -2.86181 4.72021 0
M  V30 12257 H 1181.33 -3.07343 2.80499 0
M  V30 12258 H 1180.2 -4.34042 3.36004 0
M  V30 12259 H 1180.46 -4.10601 1.63888 0
M  V30 12260 N 1179.52 -1.32087 -0.859693 0
M  V30 12261 C 1180.46 -1.14934 -1.97143 0
M  V30 12262 C 1181.43 -0.0501084 -1.62523 0
M  V30 12263 O 1182.62 -0.208472 -1.87344 0
M  V30 12264 C 1179.75 -0.758374 -3.30101 0
M  V30 12265 C 1178.79 -1.86212 -3.83702 0
M  V30 12266 S 1179.62 -3.46949 -4.07905 0
M  V30 12267 C 1180.78 -3.09813 -5.43844 0
M  V30 12268 H 1181.01 -2.09047 -2.11392 0
M  V30 12269 H 1178.55 -1.1669 -1.01108 0
M  V30 12270 H 1180.5 -0.539563 -4.06939 0
M  V30 12271 H 1179.17 0.163817 -3.13673 0
M  V30 12272 H 1178.36 -1.54144 -4.7985 0
M  V30 12273 H 1177.96 -2.03652 -3.13691 0
M  V30 12274 H 1180.25 -2.59345 -6.25897 0
M  V30 12275 H 1181.2 -4.04963 -5.8087 0
M  V30 12276 H 1181.6 -2.46971 -5.07607 0
M  V30 12277 N 1181 1.07532 -1.15215 0
M  V30 12278 C 1181.96 2.1286 -0.84989 0
M  V30 12279 C 1182.96 1.60103 0.149524 0
M  V30 12280 O 1184.15 1.74017 -0.0798918 0
M  V30 12281 C 1181.29 3.3984 -0.268617 0
M  V30 12282 H 1182.48 2.41106 -1.78347 0
M  V30 12283 H 1180.03 1.23392 -0.959386 0
M  V30 12284 H 1180.77 3.17235 0.67325 0
M  V30 12285 H 1180.55 3.79433 -0.988592 0
M  V30 12286 H 1182.04 4.17533 -0.0746554 0
M  V30 12287 N 1182.48 0.948665 1.2585 0
M  V30 12288 C 1183.73 0.595938 1.92695 0
M  V30 12289 C 1184.04 -0.870229 1.75175 0
M  V30 12290 O 1185.25 -1.33266 2.36543 0
M  V30 12291 C 1183.7 1.01511 3.45288 0
M  V30 12292 C 1183.31 2.50341 3.71528 0
M  V30 12293 C 1185.06 0.734635 4.18095 0
M  V30 12294 C 1182.96 2.8609 5.17597 0
M  V30 12295 H 1181.89 0.219171 0.721443 0
M  V30 12296 H 1184.54 1.15231 1.42807 0
M  V30 12297 H 1182.93 0.387201 3.94102 0
M  V30 12298 H 1184.1 3.18101 3.3339 0
M  V30 12299 H 1182.42 2.75797 3.11969 0
M  V30 12300 H 1185.01 0.977962 5.25681 0
M  V30 12301 H 1185.36 -0.328807 4.14999 0
M  V30 12302 H 1185.89 1.32262 3.75169 0
M  V30 12303 H 1182.63 3.91427 5.25799 0
M  V30 12304 H 1182.15 2.22999 5.56805 0
M  V30 12305 H 1183.83 2.74959 5.85668 0
M  V30 12306 N 1183.96 -1.40369 0.716545 0
M  V30 12307 C 1185.21 -2.00473 0.255959 0
M  V30 12308 C 1185.53 -1.57104 -1.15514 0
M  V30 12309 O 1184.8 -0.810925 -1.78328 0
M  V30 12310 H 1183.38 -0.741357 0.0916427 0
M  V30 12311 H 1186.04 -1.71692 0.922389 0
M  V30 12312 H 1185.14 -3.10752 0.289806 0
M  V30 12313 N 1185.44 -0.462799 -1.50652 0
M  V30 12314 C 1186.85 -0.11648 -1.59174 0
M  V30 12315 C 1187.05 1.37638 -1.47167 0
M  V30 12316 O 1186.11 2.14886 -1.3259 0
M  V30 12317 C 1187.42 -0.659289 -2.93383 0
M  V30 12318 C 1188.97 -0.62198 -3.06758 0
M  V30 12319 C 1189.44 -1.14219 -4.43529 0
M  V30 12320 N 1190.94 -1.10125 -4.49919 0
M  V30 12321 C 1191.67 -1.47436 -5.54121 0
M  V30 12322 N 1191.17 -1.92156 -6.65618 0
M  V30 12323 N 1192.96 -1.39091 -5.44619 0
M  V30 12324 H 1185.11 -1.43383 -1.56701 0
M  V30 12325 H 1187.37 -0.592438 -0.740082 0
M  V30 12326 H 1187.08 -1.70477 -3.07621 0
M  V30 12327 H 1186.95 -0.0982388 -3.77072 0
M  V30 12328 H 1189.34 0.414576 -2.92173 0
M  V30 12329 H 1189.42 -1.21974 -2.24847 0
M  V30 12330 H 1189.07 -2.17734 -4.58862 0
M  V30 12331 H 1189 -0.52073 -5.24019 0
M  V30 12332 H 1191.49 -0.773154 -3.69906 0
M  V30 12333 H 1191.8 -2.18796 -7.4118 0
M  V30 12334 H 1190.14 -1.96103 -6.6676 0
M  V30 12335 H 1193.34 -1.04001 -4.564 0
M  V30 12336 H 1193.51 -1.68496 -6.2571 0
M  V30 12337 N 1186.91 1.56388 -0.195085 0
M  V30 12338 C 1188.14 2.01963 0.449289 0
M  V30 12339 C 1188.56 1.07522 1.55192 0
M  V30 12340 O 1187.91 0.0800915 1.82324 0
M  V30 12341 C 1187.97 3.47231 1.00561 0
M  V30 12342 O 1187.69 4.38068 -0.0530241 0
M  V30 12343 C 1189.19 4.08324 1.72587 0
M  V30 12344 H 1186.41 0.661452 0.112792 0
M  V30 12345 H 1188.95 2.02231 -0.303788 0
M  V30 12346 H 1187.11 3.47663 1.70907 0
M  V30 12347 H 1187.52 5.23256 0.361076 0
M  V30 12348 H 1188.99 5.11821 2.06744 0
M  V30 12349 H 1189.47 3.51782 2.62956 0
M  V30 12350 H 1190.08 4.11665 1.06826 0
M  V30 12351 N 1188.39 -0.0785156 1.57404 0
M  V30 12352 C 1189.64 -0.778938 1.86919 0
M  V30 12353 C 1189.97 -1.77915 0.785906 0
M  V30 12354 O 1189.22 -1.94473 -0.218811 0
M  V30 12355 C 1189.52 -1.52826 3.23078 0
M  V30 12356 C 1189.19 -0.668645 4.45915 0
M  V30 12357 C 1187.85 -0.43173 4.79259 0
M  V30 12358 C 1190.2 -0.0721327 5.2115 0
M  V30 12359 C 1187.53 0.41129 5.85257 0
M  V30 12360 C 1189.88 0.758303 6.28039 0
M  V30 12361 C 1188.55 1.00515 6.59889 0
M  V30 12362 H 1187.82 -0.285034 0.683986 0
M  V30 12363 H 1190.46 -0.039906 1.91458 0
M  V30 12364 H 1188.77 -2.33931 3.14299 0
M  V30 12365 H 1190.46 -2.07488 3.43147 0
M  V30 12366 H 1187.05 -0.863424 4.19813 0
M  V30 12367 H 1191.24 -0.242297 4.95708 0
M  V30 12368 H 1186.49 0.611354 6.08336 0
M  V30 12369 H 1190.67 1.2273 6.855 0
M  V30 12370 H 1188.3 1.66017 7.41851 0
M  V30 12371 N 1189.87 -1.5367 -0.349747 0
M  V30 12372 C 1190.78 -1.84207 -1.45275 0
M  V30 12373 C 1191.8 -0.731695 -1.57868 0
M  V30 12374 O 1192.97 -1.02337 -1.73462 0
M  V30 12375 C 1190.04 -2.0398 -2.80345 0
M  V30 12376 C 1189.1 -3.27853 -2.77148 0
M  V30 12377 C 1188.33 -3.46673 -4.05775 0
M  V30 12378 O 1188.55 -2.69457 -5.02741 0
M  V30 12379 O 1187.49 -4.40082 -4.10623 0
M  V30 12380 H 1191.31 -2.77947 -1.22389 0
M  V30 12381 H 1188.9 -1.39247 -0.541345 0
M  V30 12382 H 1190.78 -2.18466 -3.60348 0
M  V30 12383 H 1189.46 -1.13429 -3.03176 0
M  V30 12384 H 1188.36 -3.18776 -1.95787 0
M  V30 12385 H 1189.7 -4.18377 -2.59271 0
M  V30 12386 N 1191.35 0.610423 -1.45298 0
M  V30 12387 C 1192.26 1.74964 -1.56285 0
M  V30 12388 C 1193.27 1.68149 -0.447436 0
M  V30 12389 O 1194.45 1.88556 -0.707725 0
M  V30 12390 C 1191.52 3.11417 -1.52383 0
M  V30 12391 C 1190.58 3.29707 -2.7494 0
M  V30 12392 C 1189.81 4.5965 -2.71215 0
M  V30 12393 O 1190.03 5.41789 -1.78383 0
M  V30 12394 O 1188.97 4.80591 -3.62375 0
M  V30 12395 H 1192.79 1.68646 -2.52571 0
M  V30 12396 H 1190.38 0.774168 -1.27777 0
M  V30 12397 H 1192.26 3.9272 -1.52805 0
M  V30 12398 H 1190.93 3.18232 -0.592472 0
M  V30 12399 H 1189.84 2.48003 -2.80081 0
M  V30 12400 H 1191.17 3.27766 -3.67192 0
M  V30 12401 N 1192.83 1.32541 0.852676 0
M  V30 12402 C 1194.05 1.2636 1.64462 0
M  V30 12403 C 1194.48 -0.16508 1.87374 0
M  V30 12404 O 1193.83 -1.11712 1.42794 0
M  V30 12405 C 1193.88 2.03052 2.97997 0
M  V30 12406 O 1192.99 1.37967 3.88637 0
M  V30 12407 H 1192.33 0.435393 0.501327 0
M  V30 12408 H 1194.86 1.74888 1.06186 0
M  V30 12409 H 1194.87 2.133 3.47803 0
M  V30 12410 H 1193.54 3.06941 2.80642 0
M  V30 12411 H 1192.12 1.36279 3.47106 0
M  V30 12412 N 1194.3 -1.0692 1.15784 0
M  V30 12413 C 1195.55 -1.796 0.935429 0
M  V30 12414 C 1195.88 -1.86935 -0.537173 0
M  V30 12415 O 1195.13 -1.35244 -1.41448 0
M  V30 12416 C 1195.43 -3.24389 1.50022 0
M  V30 12417 C 1195.1 -3.37145 2.99406 0
M  V30 12418 C 1193.76 -3.40334 3.40186 0
M  V30 12419 C 1196.11 -3.39584 3.95389 0
M  V30 12420 C 1193.44 -3.43569 4.75581 0
M  V30 12421 C 1195.79 -3.44356 5.30661 0
M  V30 12422 C 1194.46 -3.45824 5.70931 0
M  V30 12423 H 1193.73 -0.657201 0.342298 0
M  V30 12424 H 1196.37 -1.25784 1.44397 0
M  V30 12425 H 1194.68 -3.81015 0.91297 0
M  V30 12426 H 1196.38 -3.79209 1.30389 0
M  V30 12427 H 1192.97 -3.35365 2.66887 0
M  V30 12428 H 1197.15 -3.36337 3.64954 0
M  V30 12429 H 1192.41 -3.43006 5.06119 0
M  V30 12430 H 1196.58 -3.4519 6.04828 0
M  V30 12431 H 1194.21 -3.48084 6.75826 0
M  V30 12432 N 1195.78 -0.955326 -1.25345 0
M  V30 12433 C 1196.71 -0.4334 -2.25065 0
M  V30 12434 C 1197.73 0.451099 -1.56425 0
M  V30 12435 O 1198.92 0.259265 -1.76607 0
M  V30 12436 C 1196.02 0.394809 -3.36592 0
M  V30 12437 C 1195.19 -0.476856 -4.34793 0
M  V30 12438 C 1194.25 0.293269 -5.25382 0
M  V30 12439 O 1193.27 -0.30857 -5.68363 0
M  V30 12440 N 1194.48 1.58617 -5.58409 0
M  V30 12441 H 1197.24 -1.29073 -2.70482 0
M  V30 12442 H 1194.8 -0.825764 -1.39258 0
M  V30 12443 H 1196.79 0.917747 -3.94157 0
M  V30 12444 H 1195.36 1.153 -2.90559 0
M  V30 12445 H 1194.58 -1.18089 -3.76097 0
M  V30 12446 H 1195.87 -1.07178 -4.97384 0
M  V30 12447 H 1195.27 2.09705 -5.25395 0
M  V30 12448 H 1193.83 2.05506 -6.18555 0
M  V30 12449 N 1197.26 1.39987 -0.723979 0
M  V30 12450 C 1198.21 2.30672 -0.0768286 0
M  V30 12451 C 1199.18 1.48634 0.741422 0
M  V30 12452 O 1200.36 1.77351 0.703649 0
M  V30 12453 C 1197.5 3.34902 0.832729 0
M  V30 12454 C 1196.62 4.32 0.00304942 0
M  V30 12455 C 1195.75 5.23298 0.91286 0
M  V30 12456 C 1194.79 6.12051 0.0777706 0
M  V30 12457 N 1193.93 6.9574 0.942912 0
M  V30 12458 H 1198.77 2.85446 -0.855832 0
M  V30 12459 H 1196.3 1.40561 -0.433718 0
M  V30 12460 H 1198.26 3.93911 1.37441 0
M  V30 12461 H 1196.89 2.81611 1.57782 0
M  V30 12462 H 1195.94 3.74702 -0.655916 0
M  V30 12463 H 1197.26 4.94637 -0.643124 0
M  V30 12464 H 1196.41 5.87279 1.52277 0
M  V30 12465 H 1195.15 4.60956 1.59284 0
M  V30 12466 H 1194.15 5.47092 -0.545022 0
M  V30 12467 H 1195.38 6.76455 -0.598827 0
M  V30 12468 H 1193.33 6.35977 1.60838 0
M  V30 12469 H 1193.24 7.55176 0.352968 0
M  V30 12470 H 1194.51 7.64162 1.53874 0
M  V30 12471 N 1198.74 0.470782 1.50404 0
M  V30 12472 C 1199.7 -0.312227 2.27063 0
M  V30 12473 C 1200.7 -0.920709 1.31832 0
M  V30 12474 O 1201.89 -0.789937 1.5526 0
M  V30 12475 C 1199.02 -1.44477 3.0877 0
M  V30 12476 H 1200.22 0.36006 2.97731 0
M  V30 12477 H 1197.77 0.224837 1.54674 0
M  V30 12478 H 1198.51 -2.15212 2.42599 0
M  V30 12479 H 1198.29 -1.01426 3.78755 0
M  V30 12480 H 1199.78 -1.99713 3.66749 0
M  V30 12481 N 1200.22 -1.56282 0.203376 0
M  V30 12482 C 1201.15 -2.2247 -0.709183 0
M  V30 12483 C 1202.13 -1.19046 -1.21499 0
M  V30 12484 O 1203.31 -1.47578 -1.26231 0
M  V30 12485 C 1200.44 -2.8905 -1.92529 0
M  V30 12486 C 1199.4 -3.98789 -1.55407 0
M  V30 12487 C 1198.72 -4.52574 -2.84747 0
M  V30 12488 C 1200.02 -5.16774 -0.75775 0
M  V30 12489 H 1201.72 -2.98986 -0.157392 0
M  V30 12490 H 1199.26 -1.43808 -0.0742613 0
M  V30 12491 H 1201.22 -3.34038 -2.56898 0
M  V30 12492 H 1199.94 -2.09952 -2.50175 0
M  V30 12493 H 1198.6 -3.54504 -0.933928 0
M  V30 12494 H 1198.25 -3.70229 -3.40499 0
M  V30 12495 H 1197.95 -5.26627 -2.6065 0
M  V30 12496 H 1199.47 -5.00269 -3.5009 0
M  V30 12497 H 1200.89 -5.58256 -1.30472 0
M  V30 12498 H 1199.28 -5.96945 -0.614583 0
M  V30 12499 H 1200.35 -4.84308 0.239476 0
M  V30 12500 N 1201.7 0.070167 -1.57444 0
M  V30 12501 C 1203.11 0.424991 -1.53838 0
M  V30 12502 C 1203.31 1.79076 -0.923793 0
M  V30 12503 O 1202.37 2.46939 -0.527002 0
M  V30 12504 C 1203.68 0.364562 -2.98482 0
M  V30 12505 C 1205.23 0.444631 -3.09826 0
M  V30 12506 C 1205.7 0.414093 -4.56124 0
M  V30 12507 N 1207.19 0.474119 -4.60767 0
M  V30 12508 C 1207.93 0.472729 -5.71448 0
M  V30 12509 N 1207.43 0.426059 -6.91489 0
M  V30 12510 N 1209.22 0.519408 -5.59695 0
M  V30 12511 H 1201.37 -0.824117 -1.9576 0
M  V30 12512 H 1203.63 -0.309401 -0.896089 0
M  V30 12513 H 1203.34 -0.572343 -3.47012 0
M  V30 12514 H 1203.21 1.17414 -3.5846 0
M  V30 12515 H 1205.6 1.37196 -2.61269 0
M  V30 12516 H 1205.68 -0.393547 -2.52755 0
M  V30 12517 H 1205.32 -0.509394 -5.05339 0
M  V30 12518 H 1205.25 1.26983 -5.11061 0
M  V30 12519 H 1207.75 0.514371 -3.74383 0
M  V30 12520 H 1208.06 0.428969 -7.71609 0
M  V30 12521 H 1206.4 0.392722 -6.9389 0
M  V30 12522 H 1209.59 0.553573 -4.64815 0
M  V30 12523 H 1209.77 0.514856 -6.45951 0
M  V30 12524 N 1203.17 1.53854 0.341593 0
M  V30 12525 C 1204.11 1.76797 1.44284 0
M  V30 12526 C 1205.08 0.617157 1.50432 0
M  V30 12527 O 1206.27 0.85254 1.68119 0
M  V30 12528 C 1203.4 1.86837 2.82506 0
M  V30 12529 C 1202.44 3.09001 2.93974 0
M  V30 12530 S 1203.27 4.68012 2.60241 0
M  V30 12531 C 1204.43 4.80933 4.00567 0
M  V30 12532 H 1204.66 2.69927 1.24606 0
M  V30 12533 H 1202.2 1.44747 0.537375 0
M  V30 12534 H 1204.15 1.93306 3.62137 0
M  V30 12535 H 1202.82 0.947162 2.99479 0
M  V30 12536 H 1202.01 3.12707 3.9526 0
M  V30 12537 H 1201.61 3.00768 2.22294 0
M  V30 12538 H 1203.9 4.62462 4.95111 0
M  V30 12539 H 1204.85 5.83025 4.01855 0
M  V30 12540 H 1205.25 4.09372 3.88684 0
M  V30 12541 N 1204.65 -0.602709 1.4562 0
M  V30 12542 C 1205.89 -1.37284 1.51435 0
M  V30 12543 C 1206.26 -1.9138 0.154148 0
M  V30 12544 O 1207.46 -2.68659 0.0870009 0
M  V30 12545 C 1205.73 -2.48651 2.56724 0
M  V30 12546 S 1207.29 -3.36354 2.818 0
M  V30 12547 H 1204.1 -0.46798 0.535272 0
M  V30 12548 H 1206.71 -0.694957 1.82731 0
M  V30 12549 H 1205.41 -2.07267 3.54215 0
M  V30 12550 H 1204.94 -3.21234 2.27095 0
M  V30 12551 H 1206.96 -4.46937 2.15549 0
M  V30 12552 N 1206.13 -1.32992 -0.845635 0
M  V30 12553 C 1207.08 -1.19256 -1.94325 0
M  V30 12554 C 1208.06 -0.0971701 -1.60606 0
M  V30 12555 O 1209.26 -0.324591 -1.73998 0
M  V30 12556 C 1206.38 -0.927027 -3.30547 0
M  V30 12557 C 1205.47 -2.06454 -3.70456 0
M  V30 12558 N 1205.86 -3.31393 -3.82116 0
M  V30 12559 C 1204.16 -1.96972 -4.00147 0
M  V30 12560 C 1204.86 -4.05955 -4.16624 0
M  V30 12561 N 1203.84 -3.34332 -4.28629 0
M  V30 12562 H 1207.64 -2.13965 -2.01485 0
M  V30 12563 H 1205.15 -1.24901 -1.03795 0
M  V30 12564 H 1207.15 -0.809565 -4.08964 0
M  V30 12565 H 1205.81 0.011597 -3.24698 0
M  V30 12566 H 1206.82 -3.66222 -3.662 0
M  V30 12567 H 1203.5 -1.10728 -4.02549 0
M  V30 12568 H 1204.89 -5.13738 -4.33039 0
M  V30 12569 N 1207.61 1.06304 -1.1635 0
M  V30 12570 C 1209.02 1.60566 -0.952652 0
M  V30 12571 C 1209.37 1.8963 0.503473 0
M  V30 12572 O 1208.49 1.66964 1.37666 0
M  V30 12573 C 1209.09 2.9172 -1.72292 0
M  V30 12574 C 1207.65 3.42684 -1.55707 0
M  V30 12575 C 1206.8 2.16579 -1.73172 0
M  V30 12576 H 1209.75 0.892563 -1.31221 0
M  V30 12577 H 1209.77 3.61126 -1.19868 0
M  V30 12578 H 1209.28 2.70535 -2.78267 0
M  V30 12579 H 1207.38 3.68929 -0.521726 0
M  V30 12580 H 1207.49 4.18018 -2.34088 0
M  V30 12581 H 1205.86 2.26795 -1.15914 0
M  V30 12582 H 1206.64 1.97877 -2.80535 0
M  V30 12583 N 1209.09 0.96196 1.24836 0
M  V30 12584 C 1210.31 0.637709 1.97353 0
M  V30 12585 C 1210.74 -0.784919 1.7094 0
M  V30 12586 O 1210.09 -1.53188 0.969694 0
M  V30 12587 C 1210.14 0.911485 3.4889 0
M  V30 12588 O 1209.25 -0.00601668 4.124 0
M  V30 12589 H 1208.59 0.241685 0.618453 0
M  V30 12590 H 1211.12 1.29055 1.58764 0
M  V30 12591 H 1211.13 0.840702 3.99245 0
M  V30 12592 H 1209.8 1.9483 3.67442 0
M  V30 12593 H 1208.38 0.117597 3.72715 0
M  V30 12594 N 1210.56 -1.39601 0.731392 0
M  V30 12595 C 1211.81 -1.99821 0.274661 0
M  V30 12596 C 1212.13 -1.58693 -1.1435 0
M  V30 12597 O 1213.33 -2.11724 -1.69957 0
M  V30 12598 C 1211.79 -3.57199 0.440124 0
M  V30 12599 C 1211.4 -4.07292 1.86594 0
M  V30 12600 C 1213.14 -4.24476 0.0449851 0
M  V30 12601 C 1211.05 -5.57229 1.98115 0
M  V30 12602 H 1209.98 -0.747481 0.0989383 0
M  V30 12603 H 1212.63 -1.59645 0.904755 0
M  V30 12604 H 1211.01 -3.95153 -0.25881 0
M  V30 12605 H 1212.18 -3.80679 2.59654 0
M  V30 12606 H 1210.5 -3.52665 2.21397 0
M  V30 12607 H 1213.1 -5.34587 0.110126 0
M  V30 12608 H 1213.44 -4.04129 -0.999269 0
M  V30 12609 H 1213.97 -3.91683 0.694942 0
M  V30 12610 H 1210.71 -5.82452 3.00716 0
M  V30 12611 H 1210.23 -5.85656 1.29487 0
M  V30 12612 H 1211.91 -6.22584 1.76063 0
M  V30 12613 N 1212.04 -0.478751 -1.50152 0
M  V30 12614 C 1212.95 0.316554 -2.32455 0
M  V30 12615 C 1213.97 0.98871 -1.4318 0
M  V30 12616 O 1215.14 0.974998 -1.76226 0
M  V30 12617 C 1212.21 1.3799 -3.18056 0
M  V30 12618 C 1211.27 0.723534 -4.23159 0
M  V30 12619 C 1210.5 1.73621 -5.0467 0
M  V30 12620 O 1210.73 2.96362 -4.87366 0
M  V30 12621 O 1209.66 1.30381 -5.87609 0
M  V30 12622 H 1213.49 -0.356491 -3.016 0
M  V30 12623 H 1211.07 -0.24046 -1.47452 0
M  V30 12624 H 1212.95 1.99565 -3.71149 0
M  V30 12625 H 1211.63 2.03627 -2.5163 0
M  V30 12626 H 1210.54 0.0686296 -3.74037 0
M  V30 12627 H 1211.87 0.109979 -4.92077 0
M  V30 12628 N 1213.52 1.56172 -0.211661 0
M  V30 12629 C 1214.77 1.97648 0.421871 0
M  V30 12630 C 1215.09 1.10026 1.60995 0
M  V30 12631 O 1214.36 0.175109 1.95116 0
M  V30 12632 H 1212.94 0.729914 0.158852 0
M  V30 12633 H 1215.6 1.92542 -0.302254 0
M  V30 12634 H 1214.7 3.02834 0.754868 0
M  V30 12635 N 1215 -0.0618163 1.57479 0
M  V30 12636 C 1216.25 -0.759069 1.87735 0
M  V30 12637 C 1216.57 -1.77071 0.804732 0
M  V30 12638 O 1215.83 -1.94694 -0.198173 0
M  V30 12639 C 1216.13 -1.4939 3.2468 0
M  V30 12640 C 1215.79 -0.621312 4.46599 0
M  V30 12641 C 1214.46 -0.380873 4.7969 0
M  V30 12642 C 1216.81 -0.0168537 5.21197 0
M  V30 12643 C 1214.14 0.473341 5.84787 0
M  V30 12644 C 1216.49 0.824872 6.27199 0
M  V30 12645 C 1215.15 1.07509 6.58785 0
M  V30 12646 H 1214.42 -0.277763 0.686971 0
M  V30 12647 H 1217.07 -0.0195971 1.9149 0
M  V30 12648 H 1215.37 -2.30584 3.16762 0
M  V30 12649 H 1217.07 -2.03837 3.45328 0
M  V30 12650 H 1213.66 -0.818848 4.20705 0
M  V30 12651 H 1217.84 -0.189707 4.95937 0
M  V30 12652 H 1213.1 0.675842 6.07653 0
M  V30 12653 H 1217.27 1.29993 6.8416 0
M  V30 12654 H 1214.9 1.73876 7.40048 0
M  V30 12655 N 1216.48 -1.54033 -0.333429 0
M  V30 12656 C 1217.7 -1.75716 -1.09232 0
M  V30 12657 C 1218.12 -0.501076 -1.82029 0
M  V30 12658 O 1217.48 0.527772 -1.74702 0
M  V30 12659 C 1217.53 -2.9439 -2.09802 0
M  V30 12660 O 1217.25 -4.15141 -1.39963 0
M  V30 12661 C 1218.75 -3.28206 -2.97987 0
M  V30 12662 H 1215.97 -0.586859 -0.325326 0
M  V30 12663 H 1218.51 -2.0089 -0.382555 0
M  V30 12664 H 1216.67 -2.71518 -2.76327 0
M  V30 12665 H 1217.08 -4.81826 -2.0723 0
M  V30 12666 H 1218.56 -4.14568 -3.64469 0
M  V30 12667 H 1219.03 -2.44944 -3.64553 0
M  V30 12668 H 1219.64 -3.5312 -2.37036 0
M  V30 12669 N 1217.95 0.594978 -1.45938 0
M  V30 12670 C 1219.37 1.17703 -1.44924 0
M  V30 12671 C 1219.72 1.9534 -0.183522 0
M  V30 12672 O 1218.84 2.04276 0.714163 0
M  V30 12673 C 1219.44 2.14119 -2.62561 0
M  V30 12674 C 1218 2.67674 -2.64627 0
M  V30 12675 C 1217.14 1.43312 -2.37397 0
M  V30 12676 H 1220.09 0.383583 -1.53995 0
M  V30 12677 H 1220.11 2.97374 -2.3738 0
M  V30 12678 H 1219.63 1.57586 -3.54667 0
M  V30 12679 H 1217.73 3.28111 -1.76562 0
M  V30 12680 H 1217.84 3.11246 -3.64229 0
M  V30 12681 H 1216.2 1.72702 -1.87206 0
M  V30 12682 H 1216.99 0.886276 -3.31663 0
M  V30 12683 N 1219.43 1.33438 0.838571 0
M  V30 12684 C 1220.85 1.12779 1.12929 0
M  V30 12685 C 1221.05 -0.0811188 2.01337 0
M  V30 12686 O 1220.1 -0.761294 2.4075 0
M  V30 12687 C 1221.42 2.41537 1.7911 0
M  V30 12688 C 1222.97 2.47447 1.91674 0
M  V30 12689 C 1223.44 3.76167 2.6127 0
M  V30 12690 N 1224.93 3.7724 2.68783 0
M  V30 12691 C 1225.67 4.7355 3.23323 0
M  V30 12692 N 1225.16 5.80235 3.78549 0
M  V30 12693 N 1226.96 4.61025 3.21578 0
M  V30 12694 H 1219.11 2.10921 0.250187 0
M  V30 12695 H 1221.37 0.931986 0.17351 0
M  V30 12696 H 1221.08 3.30006 1.21609 0
M  V30 12697 H 1220.95 2.53709 2.79127 0
M  V30 12698 H 1223.34 1.59427 2.48328 0
M  V30 12699 H 1223.42 2.39216 0.906058 0
M  V30 12700 H 1223.06 4.64569 2.05275 0
M  V30 12701 H 1222.99 3.81675 3.62811 0
M  V30 12702 H 1225.48 3.00138 2.29621 0
M  V30 12703 H 1225.8 6.49759 4.1837 0
M  V30 12704 H 1224.14 5.83969 3.76836 0
M  V30 12705 H 1227.33 3.76836 2.77691 0
M  V30 12706 H 1227.5 5.36253 3.63781 0
M  V30 12707 N 1220.91 -1.05686 1.16912 0
M  V30 12708 C 1221.84 -2.15268 0.904532 0
M  V30 12709 C 1222.82 -1.69424 -0.151548 0
M  V30 12710 O 1224.01 -1.942 -0.00235371 0
M  V30 12711 C 1221.14 -3.44853 0.411581 0
M  V30 12712 C 1220.09 -4.04237 1.40628 0
M  V30 12713 C 1219.42 -5.29105 0.771479 0
M  V30 12714 C 1220.72 -4.42303 2.77787 0
M  V30 12715 H 1222.41 -2.37659 1.82094 0
M  V30 12716 H 1219.96 -1.14217 0.876947 0
M  V30 12717 H 1221.91 -4.20857 0.213929 0
M  V30 12718 H 1220.63 -3.22099 -0.540352 0
M  V30 12719 H 1219.29 -3.30297 1.59058 0
M  V30 12720 H 1218.94 -5.02652 -0.187133 0
M  V30 12721 H 1218.64 -5.69797 1.43545 0
M  V30 12722 H 1220.16 -6.07801 0.583988 0
M  V30 12723 H 1221.58 -5.09362 2.63103 0
M  V30 12724 H 1219.98 -4.93997 3.40716 0
M  V30 12725 H 1221.05 -3.52877 3.32575 0
M  V30 12726 N 1222.39 -0.968567 -1.24324 0
M  V30 12727 C 1223.8 -0.66964 -1.74278 0
M  V30 12728 C 1224.15 0.81461 -1.7849 0
M  V30 12729 O 1223.28 1.63736 -1.4149 0
M  V30 12730 C 1223.87 -1.20885 -3.165 0
M  V30 12731 C 1222.43 -0.959808 -3.63957 0
M  V30 12732 C 1221.58 -1.34365 -2.42573 0
M  V30 12733 H 1224.53 -1.14379 -1.10015 0
M  V30 12734 H 1224.55 -0.57555 -3.76122 0
M  V30 12735 H 1224.06 -2.28912 -3.13402 0
M  V30 12736 H 1222.16 0.104894 -3.72452 0
M  V30 12737 H 1222.27 -1.60606 -4.51378 0
M  V30 12738 H 1220.64 -0.762039 -2.43033 0
M  V30 12739 H 1221.42 -2.43343 -2.42155 0
M  V30 12740 N 1223.87 1.39211 -0.738786 0
M  V30 12741 C 1224.8 2.28145 -0.0499733 0
M  V30 12742 C 1225.78 1.44592 0.743776 0
M  V30 12743 O 1226.96 1.73978 0.725536 0
M  V30 12744 C 1224.09 3.255 0.93634 0
M  V30 12745 C 1223.13 4.25876 0.230621 0
M  V30 12746 S 1223.97 5.24942 -1.0581 0
M  V30 12747 C 1225.12 6.25856 -0.0744844 0
M  V30 12748 H 1225.36 2.86218 -0.804163 0
M  V30 12749 H 1222.89 1.44991 -0.53074 0
M  V30 12750 H 1224.85 3.82109 1.50011 0
M  V30 12751 H 1223.51 2.66439 1.66339 0
M  V30 12752 H 1222.7 4.94438 0.977075 0
M  V30 12753 H 1222.3 3.73087 -0.261216 0
M  V30 12754 H 1224.6 6.73172 0.764616 0
M  V30 12755 H 1225.54 7.04354 -0.727354 0
M  V30 12756 H 1225.95 5.63704 0.299605 0
M  V30 12757 N 1225.34 0.486708 1.49896 0
M  V30 12758 C 1226.29 -0.313156 2.30482 0
M  V30 12759 C 1227.29 -0.976043 1.38455 0
M  V30 12760 O 1228.49 -0.905364 1.55574 0
M  V30 12761 H 1224.87 -0.119839 0.74239 0
M  V30 12762 H 1226.84 0.386701 2.95884 0
M  V30 12763 C 1225.59 -1.37334 3.19429 0
M  V30 12764 H 1224.91 -0.87265 3.9016 0
M  V30 12765 H 1226.35 -1.90526 3.78782 0
M  V30 12766 C 1224.81 -2.38378 2.38071 0
M  V30 12767 O 1225.34 -3.43972 2.07476 0
M  V30 12768 N 1223.55 -2.10486 2.00359 0
M  V30 12769 H 1223.09 -1.24638 2.2544 0
M  V30 12770 H 1223.05 -2.78324 1.46229 0
M  V30 12771 N 1226.82 -1.56058 0.219941 0
M  V30 12772 C 1227.77 -2.20218 -0.690846 0
M  V30 12773 C 1228.74 -1.15725 -1.19151 0
M  V30 12774 O 1229.93 -1.44073 -1.2509 0
M  V30 12775 C 1227.07 -2.88477 -1.89408 0
M  V30 12776 C 1226.18 -4.07559 -1.43246 0
M  V30 12777 C 1225.31 -4.63605 -2.59314 0
M  V30 12778 C 1224.35 -5.74993 -2.0988 0
M  V30 12779 N 1223.49 -6.25337 -3.19214 0
M  V30 12780 H 1228.33 -2.97685 -0.136992 0
M  V30 12781 H 1225.87 -1.46994 -0.055865 0
M  V30 12782 H 1227.82 -3.26235 -2.60051 0
M  V30 12783 H 1226.45 -2.1353 -2.42084 0
M  V30 12784 H 1225.51 -3.75297 -0.621013 0
M  V30 12785 H 1226.82 -4.8805 -1.02997 0
M  V30 12786 H 1225.97 -5.03798 -3.38041 0
M  V30 12787 H 1224.71 -3.82274 -3.0285 0
M  V30 12788 H 1223.72 -5.34304 -1.29613 0
M  V30 12789 H 1224.94 -6.58158 -1.67345 0
M  V30 12790 H 1222.89 -5.4692 -3.62236 0
M  V30 12791 H 1222.8 -7.00947 -2.83213 0
M  V30 12792 H 1224.07 -6.70187 -3.98083 0
M  V30 12793 N 1228.3 0.053464 -1.57509 0
M  V30 12794 C 1229.21 1.07902 -2.08313 0
M  V30 12795 C 1230.23 1.41223 -1.01647 0
M  V30 12796 O 1231.4 1.51032 -1.33233 0
M  V30 12797 C 1228.47 2.36813 -2.5322 0
M  V30 12798 C 1227.53 2.10297 -3.74264 0
M  V30 12799 C 1226.76 3.33062 -4.1702 0
M  V30 12800 O 1226.99 4.42857 -3.59491 0
M  V30 12801 O 1225.92 3.20195 -5.09665 0
M  V30 12802 H 1229.75 0.677368 -2.9605 0
M  V30 12803 H 1227.33 0.268838 -1.46961 0
M  V30 12804 H 1229.21 3.12645 -2.82544 0
M  V30 12805 H 1227.89 2.76323 -1.68605 0
M  V30 12806 H 1226.79 1.32111 -3.49996 0
M  V30 12807 H 1228.13 1.75658 -4.59788 0
M  V30 12808 N 1229.78 1.54207 0.325255 0
M  V30 12809 C 1231.03 1.73523 1.06119 0
M  V30 12810 C 1231.38 0.501912 1.85738 0
M  V30 12811 O 1230.67 -0.505659 1.84807 0
M  V30 12812 C 1230.87 2.95 2.01766 0
M  V30 12813 C 1230.7 4.30028 1.31552 0
M  V30 12814 C 1229.47 4.94212 1.05273 0
M  V30 12815 C 1231.66 5.0906 0.732304 0
M  V30 12816 N 1229.65 6.13074 0.318312 0
M  V30 12817 C 1231.02 6.19865 0.12941 0
M  V30 12818 C 1233.07 4.93835 0.634951 0
M  V30 12819 C 1231.78 7.17106 -0.561389 0
M  V30 12820 C 1233.8 5.91385 -0.0421426 0
M  V30 12821 C 1233.16 7.01541 -0.633988 0
M  V30 12822 H 1229.26 0.687811 0.372076 0
M  V30 12823 H 1231.85 1.91662 0.342581 0
M  V30 12824 H 1230.02 2.78329 2.70901 0
M  V30 12825 H 1231.75 3.02952 2.68333 0
M  V30 12826 H 1228.5 4.54111 1.34462 0
M  V30 12827 H 1228.93 6.76991 -0.0347026 0
M  V30 12828 H 1233.57 4.0882 1.07825 0
M  V30 12829 H 1231.29 8.01681 -1.01652 0
M  V30 12830 H 1234.87 5.81682 -0.117085 0
M  V30 12831 H 1233.75 7.75728 -1.1496 0
M  V30 12832 N 1231.26 -0.58723 1.46251 0
M  V30 12833 C 1232.67 -1.16933 1.45546 0
M  V30 12834 C 1233.02 -1.9524 0.193879 0
M  V30 12835 O 1232.14 -2.04652 -0.70332 0
M  V30 12836 C 1232.74 -2.12723 2.63693 0
M  V30 12837 C 1231.3 -2.66267 2.66043 0
M  V30 12838 C 1230.45 -1.42051 2.38153 0
M  V30 12839 H 1233.4 -0.375411 1.54196 0
M  V30 12840 H 1233.42 -2.96111 2.38953 0
M  V30 12841 H 1232.93 -1.55703 3.55497 0
M  V30 12842 H 1231.03 -3.2717 1.783 0
M  V30 12843 H 1231.14 -3.0931 3.65874 0
M  V30 12844 H 1229.51 -1.71707 1.88119 0
M  V30 12845 H 1230.29 -0.868675 3.32128 0
M  V30 12846 N 1232.74 -1.33881 -0.831482 0
M  V30 12847 C 1233.96 -1.28961 -1.62431 0
M  V30 12848 C 1234.39 0.135249 -1.87613 0
M  V30 12849 O 1233.74 1.09426 -1.44553 0
M  V30 12850 C 1233.79 -2.07767 -2.94729 0
M  V30 12851 O 1232.9 -1.44133 -3.86393 0
M  V30 12852 H 1232.24 -0.443313 -0.494337 0
M  V30 12853 H 1234.77 -1.76555 -1.0339 0
M  V30 12854 H 1234.78 -2.18806 -3.44366 0
M  V30 12855 H 1233.45 -3.11367 -2.75724 0
M  V30 12856 H 1232.03 -1.41784 -3.44894 0
M  V30 12857 N 1234.21 1.05064 -1.1747 0
M  V30 12858 C 1235.16 2.14948 -0.888815 0
M  V30 12859 C 1236.16 1.68761 0.147038 0
M  V30 12860 O 1237.36 1.8 -0.000164278 0
M  V30 12861 H 1233.74 0.701898 -0.269894 0
M  V30 12862 H 1235.71 2.36265 -1.82268 0
M  V30 12863 C 1234.46 3.45154 -0.420006 0
M  V30 12864 H 1233.78 3.81096 -1.20854 0
M  V30 12865 H 1235.22 4.23209 -0.258866 0
M  V30 12866 C 1233.68 3.25671 0.862551 0
M  V30 12867 O 1234.21 3.5235 1.92906 0
M  V30 12868 N 1232.41 2.79048 0.81121 0
M  V30 12869 H 1231.96 2.57537 -0.0569025 0
M  V30 12870 H 1231.92 2.66392 1.66981 0
M  V30 12871 N 1235.69 0.975146 1.23809 0
M  V30 12872 C 1236.62 0.530389 2.27396 0
M  V30 12873 C 1237.6 -0.433763 1.64476 0
M  V30 12874 O 1238.79 -0.32827 1.91405 0
M  V30 12875 C 1235.92 -0.173066 3.46869 0
M  V30 12876 C 1234.87 0.707844 4.22106 0
M  V30 12877 C 1234.2 -0.127527 5.34548 0
M  V30 12878 C 1235.5 1.99609 4.82652 0
M  V30 12879 H 1237.19 1.39622 2.64851 0
M  V30 12880 H 1234.74 0.672802 1.27316 0
M  V30 12881 H 1236.69 -0.495481 4.18477 0
M  V30 12882 H 1235.41 -1.0733 3.0846 0
M  V30 12883 H 1234.07 1.01364 3.52308 0
M  V30 12884 H 1233.72 -1.02814 4.9238 0
M  V30 12885 H 1233.42 0.458728 5.85807 0
M  V30 12886 H 1234.95 -0.444443 6.0898 0
M  V30 12887 H 1236.36 1.73878 5.46296 0
M  V30 12888 H 1234.76 2.52969 5.44175 0
M  V30 12889 H 1235.83 2.68629 4.03691 0
M  V30 12890 N 1237.17 -1.38817 0.746158 0
M  V30 12891 C 1238.45 -1.94303 0.224841 0
M  V30 12892 C 1238.83 -1.68207 -1.27552 0
M  V30 12893 O 1238.17 -1.01647 -2.04646 0
M  V30 12894 C 1238.38 -3.44306 0.5705 0
M  V30 12895 C 1239.73 -4.21329 0.526015 0
M  V30 12896 O 1240.76 -3.52554 0.508351 0
M  V30 12897 O 1239.62 -5.4392 0.530383 0
M  V30 12898 H 1236.71 -0.825785 0.0448047 0
M  V30 12899 H 1239.26 -1.48253 0.825775 0
M  V30 12900 H 1238.03 -3.56779 1.60701 0
M  V30 12901 H 1237.65 -3.97556 -0.0588271 0
M  V30 12902 N 1238.65 -0.49465 -1.49636 0
M  V30 12903 C 1239.58 0.276606 -2.31856 0
M  V30 12904 C 1240.56 0.968499 -1.39836 0
M  V30 12905 O 1241.74 0.96113 -1.68748 0
M  V30 12906 C 1238.87 1.34522 -3.20189 0
M  V30 12907 C 1237.83 0.773571 -4.20951 0
M  V30 12908 C 1237.15 1.94223 -4.98178 0
M  V30 12909 C 1238.45 -0.231096 -5.21788 0
M  V30 12910 H 1240.15 -0.409668 -2.96584 0
M  V30 12911 H 1237.69 -0.198461 -1.42626 0
M  V30 12912 H 1239.65 1.89244 -3.76517 0
M  V30 12913 H 1238.37 2.06059 -2.53392 0
M  V30 12914 H 1237.03 0.248144 -3.65759 0
M  V30 12915 H 1236.68 2.64514 -4.27834 0
M  V30 12916 H 1236.38 1.56584 -5.66353 0
M  V30 12917 H 1237.9 2.49391 -5.57348 0
M  V30 12918 H 1239.32 0.227768 -5.72847 0
M  V30 12919 H 1237.71 -0.522984 -5.97817 0
M  V30 12920 H 1238.78 -1.14914 -4.71087 0
M  V30 12921 N 1240.13 1.55939 -0.228214 0
M  V30 12922 C 1241.54 1.59094 0.12704 0
M  V30 12923 C 1241.74 1.24514 1.58425 0
M  V30 12924 O 1240.8 0.983544 2.32557 0
M  V30 12925 C 1242.11 2.99999 -0.205268 0
M  V30 12926 C 1243.66 3.1265 -0.148046 0
M  V30 12927 C 1244.13 4.55743 -0.454122 0
M  V30 12928 N 1245.62 4.61435 -0.403937 0
M  V30 12929 C 1246.36 5.70101 -0.614173 0
M  V30 12930 N 1245.86 6.87104 -0.88654 0
M  V30 12931 N 1247.65 5.5944 -0.546153 0
M  V30 12932 H 1239.8 1.7669 -1.17874 0
M  V30 12933 H 1242.06 0.821599 -0.472947 0
M  V30 12934 H 1241.77 3.29976 -1.21692 0
M  V30 12935 H 1241.64 3.74177 0.476573 0
M  V30 12936 H 1244.03 2.82465 0.854255 0
M  V30 12937 H 1244.11 2.40786 -0.863462 0
M  V30 12938 H 1243.75 4.86646 -1.45389 0
M  V30 12939 H 1243.68 5.25841 0.282561 0
M  V30 12940 H 1246.18 3.77363 -0.201388 0
M  V30 12941 H 1246.49 7.65839 -1.03488 0
M  V30 12942 H 1244.83 6.88833 -0.923808 0
M  V30 12943 H 1248.02 4.6691 -0.33355 0
M  V30 12944 H 1248.2 6.44061 -0.713402 0
M  V30 12945 N 1241.6 -0.0451101 1.57535 0
M  V30 12946 C 1242.55 -1.05066 2.05499 0
M  V30 12947 C 1243.52 -1.36884 0.940843 0
M  V30 12948 O 1244.71 -1.47497 1.21034 0
M  V30 12949 C 1241.85 -2.35139 2.52594 0
M  V30 12950 C 1240.96 -2.0962 3.77735 0
M  V30 12951 C 1240.09 -3.33447 4.13505 0
M  V30 12952 C 1239.13 -3.03411 5.31609 0
M  V30 12953 N 1238.27 -4.19644 5.62888 0
M  V30 12954 H 1243.11 -0.63469 2.91163 0
M  V30 12955 H 1240.65 -0.30179 1.43971 0
M  V30 12956 H 1242.61 -3.11118 2.7796 0
M  V30 12957 H 1241.24 -2.74489 1.69869 0
M  V30 12958 H 1240.29 -1.24211 3.59549 0
M  V30 12959 H 1241.6 -1.83452 4.63839 0
M  V30 12960 H 1240.75 -4.17805 4.39914 0
M  V30 12961 H 1239.49 -3.62715 3.2602 0
M  V30 12962 H 1238.5 -2.17453 5.04969 0
M  V30 12963 H 1239.72 -2.75438 6.20734 0
M  V30 12964 H 1237.67 -4.48893 4.78363 0
M  V30 12965 H 1237.59 -3.96843 6.43468 0
M  V30 12966 H 1238.85 -5.04921 5.93865 0
M  V30 12967 N 1243.08 -1.54377 -0.317073 0
M  V30 12968 C 1243.99 -1.87247 -1.41335 0
M  V30 12969 C 1245.01 -0.765017 -1.5628 0
M  V30 12970 O 1246.18 -1.05994 -1.71252 0
M  V30 12971 C 1243.25 -2.0988 -2.75955 0
M  V30 12972 C 1242.31 -3.33658 -2.70131 0
M  V30 12973 C 1241.54 -3.55202 -3.9833 0
M  V30 12974 O 1241.77 -2.80061 -4.96913 0
M  V30 12975 O 1240.7 -4.48693 -4.01196 0
M  V30 12976 H 1244.53 -2.80481 -1.16465 0
M  V30 12977 H 1242.11 -1.40364 -0.511687 0
M  V30 12978 H 1243.99 -2.2606 -3.55633 0
M  V30 12979 H 1242.67 -1.19834 -3.00702 0
M  V30 12980 H 1241.58 -3.22857 -1.88981 0
M  V30 12981 H 1242.91 -4.23782 -2.50338 0
M  V30 12982 N 1244.56 0.579466 -1.4656 0
M  V30 12983 C 1245.49 1.69846 -1.60233 0
M  V30 12984 C 1246.47 1.6397 -0.452533 0
M  V30 12985 O 1247.66 1.81936 -0.679174 0
M  V30 12986 C 1244.79 3.08488 -1.59538 0
M  V30 12987 C 1243.74 3.29197 -2.7352 0
M  V30 12988 C 1243.07 4.684 -2.57887 0
M  V30 12989 C 1244.37 3.16718 -4.15315 0
M  V30 12990 H 1246.06 1.5866 -2.53904 0
M  V30 12991 H 1243.61 0.761873 -1.22194 0
M  V30 12992 H 1245.56 3.86595 -1.67696 0
M  V30 12993 H 1244.28 3.20581 -0.62413 0
M  V30 12994 H 1242.94 2.53491 -2.64836 0
M  V30 12995 H 1242.59 4.77262 -1.58839 0
M  V30 12996 H 1242.29 4.83208 -3.34341 0
M  V30 12997 H 1243.81 5.48671 -2.67942 0
M  V30 12998 H 1245.23 3.84666 -4.25094 0
M  V30 12999 H 1243.63 3.43047 -4.92381 0
M  V30 13000 H 1244.7 2.13755 -4.35244 0
M  V30 13001 N 1246.04 1.3432 0.824371 0
M  V30 13002 C 1247.26 1.2982 1.61745 0
M  V30 13003 C 1247.69 -0.125298 1.87682 0
M  V30 13004 O 1247.05 -1.08658 1.45131 0
M  V30 13005 C 1247.09 2.09327 2.93623 0
M  V30 13006 O 1246.2 1.4618 3.85623 0
M  V30 13007 H 1245.54 0.445929 0.491979 0
M  V30 13008 H 1248.07 1.77101 1.02452 0
M  V30 13009 H 1248.08 2.20629 3.43201 0
M  V30 13010 H 1246.75 3.12825 2.74069 0
M  V30 13011 H 1245.33 1.43611 3.44137 0
M  V30 13012 N 1247.52 -1.0444 1.18026 0
M  V30 13013 C 1248.43 -2.15862 0.918747 0
M  V30 13014 C 1249.44 -1.73614 -0.115808 0
M  V30 13015 O 1250.62 -2.01294 0.0652312 0
M  V30 13016 C 1247.68 -3.43846 0.443922 0
M  V30 13017 C 1246.74 -4.00497 1.54599 0
M  V30 13018 C 1245.98 -5.22373 1.09372 0
M  V30 13019 O 1246.2 -5.70379 -0.049085 0
M  V30 13020 O 1245.13 -5.71459 1.88992 0
M  V30 13021 H 1248.96 -2.40776 1.85097 0
M  V30 13022 H 1246.55 -1.14326 0.961769 0
M  V30 13023 H 1248.43 -4.20985 0.187017 0
M  V30 13024 H 1247.1 -3.20414 -0.460051 0
M  V30 13025 H 1246.01 -3.24764 1.85686 0
M  V30 13026 H 1247.34 -4.28262 2.42595 0
M  V30 13027 N 1248.99 -0.981699 -1.2329 0
M  V30 13028 C 1250.41 -0.688087 -1.73558 0
M  V30 13029 C 1250.76 0.795633 -1.79344 0
M  V30 13030 O 1249.88 1.62227 -1.43218 0
M  V30 13031 C 1250.48 -1.24235 -3.152 0
M  V30 13032 C 1249.04 -0.998356 -3.62918 0
M  V30 13033 C 1248.18 -1.3693 -2.41134 0
M  V30 13034 H 1251.13 -1.15539 -1.08795 0
M  V30 13035 H 1251.15 -0.61541 -3.7549 0
M  V30 13036 H 1250.67 -2.32223 -3.10957 0
M  V30 13037 H 1248.77 0.0653847 -3.72543 0
M  V30 13038 H 1248.88 -1.65385 -4.49649 0
M  V30 13039 H 1247.24 -0.787773 -2.42211 0
M  V30 13040 H 1248.03 -2.45898 -2.39561 0
M  V30 13041 N 1250.47 1.3842 -0.753509 0
M  V30 13042 C 1251.7 2.04929 -0.319174 0
M  V30 13043 C 1252.12 1.56457 1.04416 0
M  V30 13044 O 1251.48 0.716527 1.6654 0
M  V30 13045 C 1251.53 3.58887 -0.351054 0
M  V30 13046 O 1250.63 4.07166 0.654963 0
M  V30 13047 H 1249.97 0.648782 -0.141343 0
M  V30 13048 H 1252.5 1.77096 -1.02461 0
M  V30 13049 H 1252.51 4.075 -0.201907 0
M  V30 13050 H 1251.19 3.93525 -1.34576 0
M  V30 13051 H 1249.77 3.69921 0.470435 0
M  V30 13052 N 1251.95 0.502579 1.49372 0
M  V30 13053 C 1253.18 -0.0403087 2.07361 0
M  V30 13054 C 1253.6 -1.29918 1.36026 0
M  V30 13055 O 1252.96 -1.76428 0.417488 0
M  V30 13056 C 1253.01 -0.275362 3.59547 0
M  V30 13057 O 1252.11 -1.34975 3.89686 0
M  V30 13058 H 1251.45 0.0269268 0.663454 0
M  V30 13059 H 1253.98 0.702652 1.92156 0
M  V30 13060 H 1253.99 -0.506392 4.04845 0
M  V30 13061 H 1252.67 0.644382 4.10878 0
M  V30 13062 H 1251.24 -1.10355 3.56197 0
M  V30 13063 N 1253.43 -1.55816 0.23648 0
M  V30 13064 C 1254.66 -2.03083 -0.395584 0
M  V30 13065 C 1255.07 -1.11599 -1.52286 0
M  V30 13066 O 1254.43 -0.128403 -1.82048 0
M  V30 13067 C 1254.48 -3.49776 -0.913197 0
M  V30 13068 O 1254.2 -4.37773 0.169151 0
M  V30 13069 C 1255.7 -4.12756 -1.617 0
M  V30 13070 H 1252.92 -0.66421 -0.0952146 0
M  V30 13071 H 1255.47 -2.01354 0.357299 0
M  V30 13072 H 1253.62 -3.52072 -1.6163 0
M  V30 13073 H 1254.03 -5.24029 -0.222217 0
M  V30 13074 H 1255.51 -5.17123 -1.93101 0
M  V30 13075 H 1255.99 -3.58631 -2.53537 0
M  V30 13076 H 1256.59 -4.14353 -0.958736 0
M  V30 13077 N 1254.91 0.036755 -1.57557 0
M  V30 13078 C 1256.32 0.392264 -1.54704 0
M  V30 13079 C 1256.52 1.77076 -0.96157 0
M  V30 13080 O 1255.58 2.45766 -0.579263 0
M  V30 13081 C 1256.89 0.301168 -2.99188 0
M  V30 13082 C 1258.44 0.378813 -3.10699 0
M  V30 13083 C 1258.91 0.317249 -4.569 0
M  V30 13084 N 1260.41 0.376277 -4.61669 0
M  V30 13085 C 1261.14 0.351411 -5.72322 0
M  V30 13086 N 1260.64 0.279288 -6.92237 0
M  V30 13087 N 1262.43 0.400571 -5.60671 0
M  V30 13088 H 1254.58 -0.865455 -1.93968 0
M  V30 13089 H 1256.84 -0.328339 -0.889324 0
M  V30 13090 H 1256.55 -0.64582 -3.4572 0
M  V30 13091 H 1256.42 1.09784 -3.6087 0
M  V30 13092 H 1258.81 1.31623 -2.6412 0
M  V30 13093 H 1258.89 -0.447072 -2.51863 0
M  V30 13094 H 1258.54 -0.616469 -5.04145 0
M  V30 13095 H 1258.47 1.16114 -5.13639 0
M  V30 13096 H 1260.96 0.434843 -3.7539 0
M  V30 13097 H 1261.27 0.265202 -7.72345 0
M  V30 13098 H 1259.61 0.24545 -6.94566 0
M  V30 13099 H 1262.81 0.454854 -4.65885 0
M  V30 13100 H 1262.98 0.377724 -6.46898 0
M  V30 13101 N 1256.39 1.54543 0.308881 0
M  V30 13102 C 1257.63 1.7266 1.04266 0
M  V30 13103 C 1257.95 0.51518 1.88694 0
M  V30 13104 O 1259.15 0.577988 2.65276 0
M  V30 13105 C 1257.61 3.05448 1.9034 0
M  V30 13106 C 1257.22 4.34043 1.10953 0
M  V30 13107 C 1258.96 3.32925 2.63365 0
M  V30 13108 C 1256.87 5.57886 1.96258 0
M  V30 13109 H 1255.8 0.643485 0.392992 0
M  V30 13110 H 1258.45 1.8103 0.300077 0
M  V30 13111 H 1256.83 2.91023 2.68555 0
M  V30 13112 H 1258.01 4.59279 0.374069 0
M  V30 13113 H 1256.32 4.13442 0.495453 0
M  V30 13114 H 1258.92 4.22649 3.27524 0
M  V30 13115 H 1259.26 2.51451 3.3178 0
M  V30 13116 H 1259.79 3.48285 1.92204 0
M  V30 13117 H 1256.53 6.42005 1.32326 0
M  V30 13118 H 1256.05 5.36847 2.67498 0
M  V30 13119 H 1257.73 5.94846 2.54494 0
M  V30 13120 N 1257.86 -0.571685 1.46866 0
M  V30 13121 C 1259.09 -1.35327 1.56109 0
M  V30 13122 C 1259.5 -1.88086 0.20504 0
M  V30 13123 O 1258.84 -1.64896 -0.809626 0
M  V30 13124 C 1258.91 -2.56939 2.51441 0
M  V30 13125 C 1258.57 -2.2557 3.97451 0
M  V30 13126 C 1259.57 -1.83737 4.86351 0
M  V30 13127 C 1257.25 -2.37375 4.42672 0
M  V30 13128 C 1259.25 -1.54118 6.18487 0
M  V30 13129 C 1256.93 -2.07368 5.7484 0
M  V30 13130 C 1257.93 -1.65806 6.62569 0
M  V30 13131 O 1257.62 -1.36173 7.92283 0
M  V30 13132 H 1257.35 -0.419368 0.530194 0
M  V30 13133 H 1259.91 -0.700859 1.93073 0
M  V30 13134 H 1258.14 -3.25023 2.09517 0
M  V30 13135 H 1259.82 -3.19012 2.5097 0
M  V30 13136 H 1260.59 -1.74122 4.52666 0
M  V30 13137 H 1256.47 -2.68686 3.74605 0
M  V30 13138 H 1260.01 -1.21603 6.8692 0
M  V30 13139 H 1255.91 -2.16611 6.08071 0
M  V30 13140 H 1256.68 -1.49926 8.04652 0
M  V30 13141 N 1259.34 -1.34755 -0.817236 0
M  V30 13142 C 1260.3 -1.26687 -1.91006 0
M  V30 13143 C 1261.3 -0.180745 -1.59781 0
M  V30 13144 O 1262.49 -0.433748 -1.68714 0
M  V30 13145 C 1259.63 -0.957293 -3.27183 0
M  V30 13146 H 1260.82 -2.23846 -1.99582 0
M  V30 13147 H 1258.37 -1.19125 -1.01187 0
M  V30 13148 H 1259.11 0.0108917 -3.24298 0
M  V30 13149 H 1258.89 -1.74297 -3.5123 0
M  V30 13150 H 1260.38 -0.926161 -4.072 0
M  V30 13151 N 1260.82 1.03812 -1.18578 0
M  V30 13152 C 1262.07 1.76455 -0.977071 0
M  V30 13153 C 1262.38 1.8926 0.493964 0
M  V30 13154 O 1263.59 2.58781 0.821256 0
M  V30 13155 C 1262.04 3.17264 -1.69917 0
M  V30 13156 C 1261.65 3.12543 -3.20969 0
M  V30 13157 C 1263.4 3.94266 -1.57337 0
M  V30 13158 C 1261.3 4.48226 -3.85807 0
M  V30 13159 H 1260.23 0.661445 -0.361949 0
M  V30 13160 H 1262.88 1.16252 -1.41978 0
M  V30 13161 H 1261.27 3.77878 -1.18424 0
M  V30 13162 H 1262.44 2.61364 -3.79507 0
M  V30 13163 H 1260.75 2.49039 -3.33719 0
M  V30 13164 H 1263.35 4.9461 -2.03137 0
M  V30 13165 H 1263.69 4.12963 -0.526033 0
M  V30 13166 H 1264.23 3.40232 -2.06124 0
M  V30 13167 H 1260.97 4.34734 -4.90599 0
M  V30 13168 H 1260.49 4.99497 -3.32058 0
M  V30 13169 H 1262.17 5.17135 -3.88819 0
M  V30 13170 N 1262.3 0.988223 1.22768 0
M  V30 13171 C 1263.26 0.539813 2.22752 0
M  V30 13172 C 1264.26 -0.374796 1.56371 0
M  V30 13173 O 1265.45 -0.167402 1.73394 0
M  V30 13174 C 1262.58 -0.215461 3.40218 0
M  V30 13175 H 1263.78 1.42397 2.63938 0
M  V30 13176 H 1261.33 0.774933 1.35737 0
M  V30 13177 H 1262.06 -1.11581 3.045 0
M  V30 13178 H 1261.85 0.441173 3.8961 0
M  V30 13179 H 1263.34 -0.517517 4.14381 0
M  V30 13180 N 1263.78 -1.38018 0.760839 0
M  V30 13181 C 1264.72 -2.30387 0.13796 0
M  V30 13182 C 1265.69 -1.50548 -0.701754 0
M  V30 13183 O 1266.88 -1.79154 -0.656381 0
M  V30 13184 C 1264.02 -3.36993 -0.743642 0
M  V30 13185 C 1263.13 -4.31856 0.111489 0
M  V30 13186 C 1262.27 -5.25534 -0.773796 0
M  V30 13187 C 1261.3 -6.12042 0.0845311 0
M  V30 13188 N 1260.44 -6.97995 -0.758118 0
M  V30 13189 H 1265.28 -2.83077 0.931212 0
M  V30 13190 H 1262.82 -1.39361 0.470833 0
M  V30 13191 H 1264.78 -3.97417 -1.26948 0
M  V30 13192 H 1263.41 -2.85695 -1.50261 0
M  V30 13193 H 1262.46 -3.72832 0.755031 0
M  V30 13194 H 1263.77 -4.92758 0.774042 0
M  V30 13195 H 1262.92 -5.9111 -1.36653 0
M  V30 13196 H 1261.66 -4.65017 -1.47006 0
M  V30 13197 H 1260.67 -5.45455 0.689883 0
M  V30 13198 H 1261.89 -6.74629 0.777966 0
M  V30 13199 H 1259.84 -6.40018 -1.4392 0
M  V30 13200 H 1259.76 -7.55846 -0.152623 0
M  V30 13201 H 1261.02 -7.67973 -1.33559 0
M  V30 13202 N 1265.25 -0.510493 -1.49103 0
M  V30 13203 C 1266.22 0.251915 -2.27811 0
M  V30 13204 C 1267.22 0.885432 -1.34226 0
M  V30 13205 O 1268.41 0.748494 -1.573 0
M  V30 13206 C 1265.54 1.3624 -3.12492 0
M  V30 13207 H 1266.73 -0.438872 -2.96671 0
M  V30 13208 H 1264.28 -0.265767 -1.54024 0
M  V30 13209 H 1265.02 2.08705 -2.48219 0
M  V30 13210 H 1264.8 0.913485 -3.81311 0
M  V30 13211 H 1266.29 1.89919 -3.71915 0
M  V30 13212 N 1266.73 1.55688 -0.24474 0
M  V30 13213 C 1267.98 1.98067 0.381081 0
M  V30 13214 C 1268.29 1.13606 1.59227 0
M  V30 13215 O 1269.5 1.45988 2.2891 0
M  V30 13216 C 1267.96 3.52432 0.729385 0
M  V30 13217 C 1267.56 4.45629 -0.460282 0
M  V30 13218 C 1269.31 4.03471 1.31952 0
M  V30 13219 C 1267.21 5.91334 -0.088252 0
M  V30 13220 H 1266.14 0.739699 0.146157 0
M  V30 13221 H 1268.8 1.80235 -0.344615 0
M  V30 13222 H 1267.18 3.65951 1.51315 0
M  V30 13223 H 1268.35 4.43868 -1.23764 0
M  V30 13224 H 1266.67 4.05059 -0.965197 0
M  V30 13225 H 1269.26 5.09849 1.61116 0
M  V30 13226 H 1269.61 3.50691 2.24325 0
M  V30 13227 H 1270.14 3.93269 0.5987 0
M  V30 13228 H 1266.88 6.48147 -0.979069 0
M  V30 13229 H 1266.4 5.96235 0.652947 0
M  V30 13230 H 1268.08 6.46156 0.330324 0
M  V30 13231 N 1268.21 -0.0283989 1.57574 0
M  V30 13232 C 1269.49 -0.754527 1.80461 0
M  V30 13233 C 1269.87 -1.93539 0.842966 0
M  V30 13234 O 1269.21 -2.28212 -0.114714 0
M  V30 13235 C 1269.42 -1.18694 3.28196 0
M  V30 13236 C 1270.77 -1.60257 3.93196 0
M  V30 13237 O 1271.8 -1.2815 3.32349 0
M  V30 13238 O 1270.66 -2.19853 5.00327 0
M  V30 13239 H 1267.75 -0.364936 0.742126 0
M  V30 13240 H 1270.3 -0.00512589 1.69699 0
M  V30 13241 H 1269.07 -0.34398 3.89785 0
M  V30 13242 H 1268.69 -1.99633 3.43849 0
M  V30 13243 N 1269.69 -1.54705 -0.300681 0
M  V30 13244 C 1270.96 -1.6468 -1.05546 0
M  V30 13245 C 1271.34 -0.495292 -2.05207 0
M  V30 13246 O 1270.69 0.507944 -2.22783 0
M  V30 13247 C 1270.9 -3.02702 -1.73703 0
M  V30 13248 C 1272.25 -3.59527 -2.25888 0
M  V30 13249 O 1273.27 -3.05156 -1.83735 0
M  V30 13250 O 1272.13 -4.54727 -3.03126 0
M  V30 13251 H 1269.23 -0.667769 -0.487867 0
M  V30 13252 H 1271.77 -1.6705 -0.298743 0
M  V30 13253 H 1270.55 -3.7795 -1.01338 0
M  V30 13254 H 1270.17 -3.0411 -2.5613 0
M  V30 13255 N 1271.17 0.563888 -1.47167 0
M  V30 13256 C 1272.11 1.69254 -1.59549 0
M  V30 13257 C 1273.11 1.62948 -0.463078 0
M  V30 13258 O 1274.31 1.68214 -0.640639 0
M  V30 13259 H 1270.69 0.559925 -0.501984 0
M  V30 13260 H 1272.66 1.55946 -2.54408 0
M  V30 13261 C 1271.41 3.0762 -1.62066 0
M  V30 13262 H 1270.73 3.13151 -2.48549 0
M  V30 13263 H 1272.17 3.863 -1.74781 0
M  V30 13264 C 1270.63 3.35048 -0.352721 0
M  V30 13265 O 1271.16 3.9793 0.549053 0
M  V30 13266 N 1269.37 2.8965 -0.234805 0
M  V30 13267 H 1268.91 2.38657 -0.969561 0
M  V30 13268 H 1268.87 3.08373 0.61263 0
M  V30 13269 N 1272.64 1.35187 0.810078 0
M  V30 13270 C 1273.58 1.22171 1.92742 0
M  V30 13271 C 1274.56 0.110393 1.62225 0
M  V30 13272 O 1275.74 0.27786 1.86441 0
M  V30 13273 C 1272.87 0.880367 3.27058 0
M  V30 13274 C 1271.91 2.00325 3.76527 0
M  V30 13275 S 1272.75 3.6185 3.94747 0
M  V30 13276 C 1273.9 3.29784 5.31971 0
M  V30 13277 H 1274.13 2.16749 2.03488 0
M  V30 13278 H 1271.67 1.20362 0.967072 0
M  V30 13279 H 1273.63 0.690224 4.04656 0
M  V30 13280 H 1272.29 -0.0472868 3.14064 0
M  V30 13281 H 1271.48 1.71847 4.73798 0
M  V30 13282 H 1271.08 2.15154 3.05916 0
M  V30 13283 H 1273.37 2.82396 6.1584 0
M  V30 13284 H 1274.32 4.26243 5.6544 0
M  V30 13285 H 1274.72 2.65641 4.98092 0
M  V30 13286 N 1274.12 -1.03182 1.19127 0
M  V30 13287 C 1275.35 -1.80703 1.01791 0
M  V30 13288 C 1275.77 -1.83147 -0.428824 0
M  V30 13289 O 1275.13 -1.2553 -1.30812 0
M  V30 13290 C 1275.18 -3.23754 1.58794 0
M  V30 13291 O 1274.28 -4.04261 0.815274 0
M  V30 13292 H 1273.62 -0.557944 0.359992 0
M  V30 13293 H 1276.15 -1.29887 1.58084 0
M  V30 13294 H 1276.16 -3.7451 1.61884 0
M  V30 13295 H 1274.84 -3.2129 2.64094 0
M  V30 13296 H 1273.42 -3.62909 0.857392 0
M  V30 13297 N 1275.6 -0.99472 -1.22242 0
M  V30 13298 C 1276.53 -0.566499 -2.26524 0
M  V30 13299 C 1277.51 0.407541 -1.65146 0
M  V30 13300 O 1278.7 0.297777 -1.91903 0
M  V30 13301 C 1275.83 0.11786 -3.471 0
M  V30 13302 C 1274.78 -0.774908 -4.20927 0
M  V30 13303 C 1274.11 0.0424687 -5.34683 0
M  V30 13304 C 1275.41 -2.07263 -4.79416 0
M  V30 13305 H 1277.1 -1.43818 -2.62596 0
M  V30 13306 H 1274.65 -0.692971 -1.2623 0
M  V30 13307 H 1276.6 0.428842 -4.19212 0
M  V30 13308 H 1275.32 1.0241 -3.10129 0
M  V30 13309 H 1273.98 -1.06956 -3.50651 0
M  V30 13310 H 1273.63 0.949677 -4.93954 0
M  V30 13311 H 1273.33 -0.551867 -5.85003 0
M  V30 13312 H 1274.85 0.347504 -6.0961 0
M  V30 13313 H 1276.27 -1.82548 -5.4346 0
M  V30 13314 H 1274.67 -2.61594 -5.40082 0
M  V30 13315 H 1275.74 -2.75017 -3.99366 0
M  V30 13316 N 1277.08 1.37613 -0.768148 0
M  V30 13317 C 1278.36 1.93921 -0.255724 0
M  V30 13318 C 1278.74 1.70215 1.2486 0
M  V30 13319 O 1278.08 1.0489 2.03003 0
M  V30 13320 C 1278.29 3.43354 -0.625204 0
M  V30 13321 C 1279.64 4.20439 -0.592978 0
M  V30 13322 O 1280.67 3.51701 -0.564375 0
M  V30 13323 O 1279.52 5.43008 -0.616849 0
M  V30 13324 H 1276.62 0.824968 -0.0579366 0
M  V30 13325 H 1279.16 1.46921 -0.849257 0
M  V30 13326 H 1277.94 3.54177 -1.66356 0
M  V30 13327 H 1277.56 3.976 -0.00442816 0
M  V30 13328 N 1278.56 0.518393 1.4883 0
M  V30 13329 C 1279.47 -0.254811 2.33212 0
M  V30 13330 C 1280.48 -0.950401 1.45751 0
M  V30 13331 O 1281.66 -0.927932 1.78749 0
M  V30 13332 C 1278.72 -1.29509 3.21603 0
M  V30 13333 C 1277.78 -0.611086 4.24928 0
M  V30 13334 C 1277.02 -1.6018 5.09095 0
M  V30 13335 O 1277.24 -2.83336 4.95052 0
M  V30 13336 O 1276.17 -1.14756 5.90859 0
M  V30 13337 H 1280 0.436329 3.00549 0
M  V30 13338 H 1277.59 0.27947 1.46763 0
M  V30 13339 H 1279.47 -1.89654 3.7631 0
M  V30 13340 H 1278.14 -1.96884 2.5694 0
M  V30 13341 H 1277.05 0.0305638 3.74088 0
M  V30 13342 H 1278.38 0.0205249 4.92196 0
M  V30 13343 N 1280.03 -1.55556 0.252993 0
M  V30 13344 C 1281.28 -1.98267 -0.370571 0
M  V30 13345 C 1281.6 -1.14449 -1.58622 0
M  V30 13346 O 1282.8 -1.472 -2.28132 0
M  V30 13347 C 1281.26 -3.52813 -0.710685 0
M  V30 13348 C 1280.87 -4.45379 0.483908 0
M  V30 13349 C 1282.61 -4.04165 -1.2981 0
M  V30 13350 C 1280.52 -5.91279 0.119611 0
M  V30 13351 H 1279.45 -0.740463 -0.142232 0
M  V30 13352 H 1282.1 -1.8005 0.354169 0
M  V30 13353 H 1280.48 -3.66748 -1.49372 0
M  V30 13354 H 1281.65 -4.43206 1.26116 0
M  V30 13355 H 1279.97 -4.04542 0.986664 0
M  V30 13356 H 1282.57 -5.10696 -1.5841 0
M  V30 13357 H 1282.91 -3.51875 -2.22462 0
M  V30 13358 H 1283.44 -3.93581 -0.577836 0
M  V30 13359 H 1280.18 -6.47619 1.01343 0
M  V30 13360 H 1279.7 -5.96573 -0.621318 0
M  V30 13361 H 1281.38 -6.46322 -0.296052 0
M  V30 13362 N 1281.51 0.0200419 -1.57587 0
M  V30 13363 C 1282.42 1.0346 -2.10555 0
M  V30 13364 C 1283.44 1.39035 -1.0462 0
M  V30 13365 O 1284.61 1.48172 -1.36407 0
M  V30 13366 C 1281.68 2.31389 -2.58186 0
M  V30 13367 C 1280.74 2.02311 -3.7864 0
M  V30 13368 C 1279.97 3.24141 -4.23991 0
M  V30 13369 O 1280.2 4.35132 -3.68803 0
M  V30 13370 O 1279.13 3.09312 -5.16342 0
M  V30 13371 H 1282.96 0.614419 -2.9742 0
M  V30 13372 H 1280.54 0.237604 -1.47498 0
M  V30 13373 H 1282.42 3.06582 -2.89112 0
M  V30 13374 H 1281.1 2.72684 -1.74428 0
M  V30 13375 H 1280.01 1.24658 -3.5272 0
M  V30 13376 H 1281.34 1.65866 -4.6341 0
M  V30 13377 N 1282.99 1.54862 0.292472 0
M  V30 13378 C 1283.94 1.86403 1.36098 0
M  V30 13379 C 1284.91 0.713694 1.49985 0
M  V30 13380 O 1286.09 0.963134 1.64707 0
M  V30 13381 C 1283.23 2.1244 2.71962 0
M  V30 13382 C 1282.35 3.40038 2.66454 0
M  V30 13383 C 1281.48 3.55875 3.94368 0
M  V30 13384 C 1280.52 4.77235 3.83293 0
M  V30 13385 N 1279.66 4.89832 5.03 0
M  V30 13386 H 1284.5 2.77546 1.085 0
M  V30 13387 H 1282.03 1.37427 0.524607 0
M  V30 13388 H 1283.99 2.25533 3.50985 0
M  V30 13389 H 1282.62 1.24554 2.97802 0
M  V30 13390 H 1281.67 3.35521 1.79248 0
M  V30 13391 H 1282.99 4.29188 2.54163 0
M  V30 13392 H 1282.14 3.68679 4.8183 0
M  V30 13393 H 1280.88 2.64874 4.09503 0
M  V30 13394 H 1279.88 4.64455 2.94214 0
M  V30 13395 H 1281.11 5.69651 3.69695 0
M  V30 13396 H 1279.05 4.01756 5.18582 0
M  V30 13397 H 1278.97 5.72996 4.93165 0
M  V30 13398 H 1280.24 5.07001 5.92089 0
M  V30 13399 N 1284.47 -0.556076 1.47464 0
M  V30 13400 C 1285.4 -1.67275 1.62915 0
M  V30 13401 C 1286.38 -1.63229 0.478562 0
M  V30 13402 O 1287.56 -1.80833 0.708032 0
M  V30 13403 C 1284.69 -3.05911 1.64426 0
M  V30 13404 C 1283.65 -3.24804 2.78722 0
M  V30 13405 C 1282.97 -4.64238 2.65307 0
M  V30 13406 C 1284.27 -3.10071 4.20302 0
M  V30 13407 H 1285.97 -1.54601 2.56396 0
M  V30 13408 H 1283.51 -0.742337 1.23391 0
M  V30 13409 H 1285.47 -3.83878 1.73826 0
M  V30 13410 H 1284.19 -3.19547 0.675053 0
M  V30 13411 H 1282.85 -2.49246 2.68835 0
M  V30 13412 H 1282.5 -4.74675 1.66412 0
M  V30 13413 H 1282.2 -4.77828 3.41986 0
M  V30 13414 H 1283.72 -5.44339 2.76637 0
M  V30 13415 H 1285.14 -3.77855 4.3116 0
M  V30 13416 H 1283.53 -3.3517 4.97776 0
M  V30 13417 H 1284.6 -2.06803 4.38589 0
M  V30 13418 N 1285.95 -1.35615 -0.802897 0
M  V30 13419 C 1287.18 -1.32217 -1.59142 0
M  V30 13420 C 1287.59 0.0995496 -1.88537 0
M  V30 13421 O 1286.95 1.05258 -1.49087 0
M  V30 13422 C 1287 -2.13048 -2.92049 0
M  V30 13423 O 1286.72 -3.49677 -2.63927 0
M  V30 13424 C 1288.22 -2.17278 -3.864 0
M  V30 13425 H 1285.44 -0.454054 -0.49404 0
M  V30 13426 H 1287.98 -1.78521 -0.997516 0
M  V30 13427 H 1286.14 -1.70334 -3.47944 0
M  V30 13428 H 1286.55 -3.917 -3.48814 0
M  V30 13429 H 1288.03 -2.7822 -4.76758 0
M  V30 13430 H 1288.5 -1.17253 -4.23259 0
M  V30 13431 H 1289.11 -2.6017 -3.3644 0
M  V30 13432 N 1287.43 1.02549 -1.19673 0
M  V30 13433 C 1288.66 1.79363 -1.02531 0
M  V30 13434 C 1289.06 1.84274 0.42893 0
M  V30 13435 O 1288.41 1.28813 1.30969 0
M  V30 13436 C 1288.47 3.2567 -1.52248 0
M  V30 13437 C 1288.13 3.44386 -3.00412 0
M  V30 13438 C 1289.13 3.34329 -3.98146 0
M  V30 13439 C 1286.81 3.70491 -3.39178 0
M  V30 13440 C 1288.81 3.50106 -5.3264 0
M  V30 13441 C 1286.5 3.85912 -4.7383 0
M  V30 13442 C 1287.49 3.75723 -5.70369 0
M  V30 13443 O 1287.18 3.90685 -7.02581 0
M  V30 13444 H 1286.91 0.571194 -0.361544 0
M  V30 13445 H 1289.47 1.30029 -1.59002 0
M  V30 13446 H 1287.7 3.76044 -0.901548 0
M  V30 13447 H 1289.39 3.8409 -1.31262 0
M  V30 13448 H 1290.15 3.14109 -3.69541 0
M  V30 13449 H 1286.03 3.77513 -2.64585 0
M  V30 13450 H 1289.58 3.42069 -6.07976 0
M  V30 13451 H 1285.47 4.05631 -5.02129 0
M  V30 13452 H 1286.24 4.07756 -7.09702 0
M  V30 13453 N 1288.9 1.00119 1.21713 0
M  V30 13454 C 1290.15 0.67713 1.89994 0
M  V30 13455 C 1290.47 -0.795149 1.78709 0
M  V30 13456 O 1291.67 -1.23113 2.41982 0
M  V30 13457 C 1290.13 1.16065 3.40671 0
M  V30 13458 C 1289.74 2.65874 3.60576 0
M  V30 13459 C 1291.48 0.911302 4.14603 0
M  V30 13460 C 1289.39 3.07785 5.04997 0
M  V30 13461 H 1288.32 0.249572 0.711498 0
M  V30 13462 H 1290.97 1.21185 1.37792 0
M  V30 13463 H 1289.35 0.554005 3.92106 0
M  V30 13464 H 1290.52 3.31954 3.19598 0
M  V30 13465 H 1288.84 2.88781 2.99991 0
M  V30 13466 H 1291.44 1.20004 5.2106 0
M  V30 13467 H 1291.78 -0.152495 4.16021 0
M  V30 13468 H 1292.31 1.48055 3.69222 0
M  V30 13469 H 1289.05 4.13376 5.08724 0
M  V30 13470 H 1288.57 2.46414 5.46846 0
M  V30 13471 H 1290.25 2.99552 5.73479 0
M  V30 13472 N 1290.38 -1.37203 0.775435 0
M  V30 13473 C 1291.66 -1.93783 0.266005 0
M  V30 13474 C 1292.04 -1.70875 -1.23956 0
M  V30 13475 O 1291.39 -1.05965 -2.02444 0
M  V30 13476 C 1291.6 -3.43018 0.643404 0
M  V30 13477 C 1292.94 -4.20119 0.615267 0
M  V30 13478 O 1293.97 -3.51396 0.583018 0
M  V30 13479 O 1292.83 -5.42673 0.645637 0
M  V30 13480 H 1289.92 -0.824649 0.0623107 0
M  V30 13481 H 1292.47 -1.46468 0.857036 0
M  V30 13482 H 1291.24 -3.5329 1.68232 0
M  V30 13483 H 1290.86 -3.97592 0.0255138 0
M  V30 13484 N 1291.86 -0.526279 -1.48553 0
M  V30 13485 C 1292.81 0.238513 -2.29564 0
M  V30 13486 C 1293.78 0.937222 -1.37133 0
M  V30 13487 O 1294.96 0.93897 -1.66096 0
M  V30 13488 C 1292.1 1.28173 -3.20415 0
M  V30 13489 C 1291.21 0.592244 -4.27921 0
M  V30 13490 C 1290.35 1.61808 -5.05956 0
M  V30 13491 C 1289.39 0.911846 -6.0527 0
M  V30 13492 N 1288.53 1.88305 -6.76377 0
M  V30 13493 H 1293.37 -0.458502 -2.94452 0
M  V30 13494 H 1290.9 -0.237948 -1.45163 0
M  V30 13495 H 1292.86 1.89883 -3.71484 0
M  V30 13496 H 1291.49 1.94718 -2.57458 0
M  V30 13497 H 1290.54 -0.138714 -3.80147 0
M  V30 13498 H 1291.85 0.0375427 -4.98786 0
M  V30 13499 H 1291.01 2.30956 -5.61021 0
M  V30 13500 H 1289.75 2.20667 -4.34922 0
M  V30 13501 H 1288.75 0.206273 -5.49413 0
M  V30 13502 H 1289.98 0.329415 -6.78301 0
M  V30 13503 H 1287.92 2.46079 -6.08096 0
M  V30 13504 H 1287.84 1.37969 -7.43304 0
M  V30 13505 H 1289.11 2.56663 -7.36033 0
M  V30 13506 N 1293.34 1.5542 -0.261239 0
M  V30 13507 C 1294.58 2.00312 0.353075 0
M  V30 13508 C 1294.94 1.14642 1.54515 0
M  V30 13509 O 1294.23 0.205242 1.90498 0
M  V30 13510 C 1294.43 3.48354 0.799021 0
M  V30 13511 C 1294.25 4.48349 -0.348302 0
M  V30 13512 C 1293.02 4.98476 -0.827623 0
M  V30 13513 C 1295.22 5.00577 -1.18015 0
M  V30 13514 N 1293.2 5.82245 -1.94586 0
M  V30 13515 C 1294.58 5.81657 -2.14651 0
M  V30 13516 C 1296.63 4.82846 -1.21508 0
M  V30 13517 C 1295.33 6.46898 -3.14508 0
M  V30 13518 C 1297.36 5.48876 -2.20202 0
M  V30 13519 C 1296.72 6.29756 -3.15573 0
M  V30 13520 H 1292.82 0.776238 0.0947564 0
M  V30 13521 H 1295.4 1.90914 -0.382094 0
M  V30 13522 H 1293.58 3.58122 1.50345 0
M  V30 13523 H 1295.31 3.80099 1.3895 0
M  V30 13524 H 1292.06 4.71828 -0.409293 0
M  V30 13525 H 1292.49 6.28824 -2.50817 0
M  V30 13526 H 1297.13 4.19933 -0.491573 0
M  V30 13527 H 1294.85 7.08969 -3.87799 0
M  V30 13528 H 1298.43 5.37105 -2.23629 0
M  V30 13529 H 1297.31 6.79947 -3.90694 0
M  V30 13530 N 1294.82 -0.0116844 1.57596 0
M  V30 13531 C 1296.06 -0.698958 1.90055 0
M  V30 13532 C 1296.39 -1.74422 0.860659 0
M  V30 13533 O 1295.65 -1.95226 -0.136132 0
M  V30 13534 C 1295.94 -1.38985 3.29269 0
M  V30 13535 C 1295.61 -0.478916 4.48349 0
M  V30 13536 C 1294.27 -0.228071 4.80659 0
M  V30 13537 C 1296.62 0.14897 5.20987 0
M  V30 13538 C 1293.95 0.659147 5.82986 0
M  V30 13539 C 1296.3 1.02399 6.24257 0
M  V30 13540 C 1294.97 1.28413 6.55032 0
M  V30 13541 H 1294.24 -0.255767 0.69546 0
M  V30 13542 H 1296.89 0.0413339 1.91455 0
M  V30 13543 H 1295.19 -2.2039 3.23937 0
M  V30 13544 H 1296.89 -1.92747 3.51638 0
M  V30 13545 H 1293.48 -0.68459 4.23097 0
M  V30 13546 H 1297.66 -0.0318326 4.9629 0
M  V30 13547 H 1292.92 0.86882 6.05195 0
M  V30 13548 H 1297.09 1.51694 6.79678 0
M  V30 13549 H 1294.72 1.97332 7.34142 0
M  V30 13550 N 1296.29 -1.55015 -0.284256 0
M  V30 13551 C 1297.22 -1.90128 -1.3555 0
M  V30 13552 C 1298.2 -0.761914 -1.52082 0
M  V30 13553 O 1299.39 -1.01909 -1.65312 0
M  V30 13554 C 1296.52 -2.16332 -2.71695 0
M  V30 13555 C 1295.47 -3.32166 -2.69907 0
M  V30 13556 C 1294.8 -3.43824 -4.09498 0
M  V30 13557 C 1296.1 -4.6885 -2.30168 0
M  V30 13558 H 1297.79 -2.79852 -1.06411 0
M  V30 13559 H 1295.34 -1.34649 -0.510451 0
M  V30 13560 H 1297.29 -2.39482 -3.46737 0
M  V30 13561 H 1296.02 -1.23395 -3.02392 0
M  V30 13562 H 1294.68 -3.08965 -1.97322 0
M  V30 13563 H 1294.32 -2.48375 -4.374 0
M  V30 13564 H 1294.02 -4.21698 -4.092 0
M  V30 13565 H 1295.55 -3.69254 -4.86296 0
M  V30 13566 H 1296.96 -4.91619 -2.9493 0
M  V30 13567 H 1295.36 -5.49558 -2.41052 0
M  V30 13568 H 1296.43 -4.68433 -1.25294 0
M  V30 13569 N 1297.77 0.548248 -1.47757 0
M  V30 13570 C 1299 1.32827 -1.58242 0
M  V30 13571 C 1299.41 1.87736 -0.234936 0
M  V30 13572 O 1298.75 1.66163 0.78329 0
M  V30 13573 C 1298.81 2.52906 -2.55497 0
M  V30 13574 C 1298.48 2.19218 -4.00989 0
M  V30 13575 C 1299.48 1.75976 -4.89212 0
M  V30 13576 C 1297.16 2.30302 -4.46392 0
M  V30 13577 C 1299.15 1.44258 -6.20861 0
M  V30 13578 C 1296.84 1.98197 -5.78067 0
M  V30 13579 C 1297.84 1.55244 -6.65123 0
M  V30 13580 O 1297.53 1.23551 -7.94349 0
M  V30 13581 H 1297.26 0.41088 -0.536799 0
M  V30 13582 H 1299.81 0.670055 -1.94163 0
M  V30 13583 H 1298.04 3.21648 -2.14661 0
M  V30 13584 H 1299.73 3.14979 -2.56014 0
M  V30 13585 H 1300.5 1.66898 -4.55379 0
M  V30 13586 H 1296.38 2.62693 -3.78832 0
M  V30 13587 H 1299.92 1.10659 -6.88767 0
M  V30 13588 H 1295.82 2.0691 -6.1144 0
M  V30 13589 H 1296.59 1.37105 -8.06935 0
M  V30 13590 N 1299.25 1.36039 0.795694 0
M  V30 13591 C 1300.2 1.29853 1.90806 0
M  V30 13592 C 1301.17 0.168387 1.65244 0
M  V30 13593 O 1302.35 0.353879 1.8749 0
M  V30 13594 C 1299.49 1.08737 3.27521 0
M  V30 13595 C 1298.6 2.30771 3.65197 0
M  V30 13596 C 1297.74 2.02718 4.90998 0
M  V30 13597 C 1296.78 3.20746 5.21333 0
M  V30 13598 N 1295.92 2.92399 6.38316 0
M  V30 13599 H 1300.76 2.2497 1.95429 0
M  V30 13600 H 1298.29 1.11819 0.955771 0
M  V30 13601 H 1300.25 0.945236 4.06351 0
M  V30 13602 H 1298.88 0.172781 3.22337 0
M  V30 13603 H 1297.93 2.5581 2.81541 0
M  V30 13604 H 1299.24 3.18869 3.83568 0
M  V30 13605 H 1298.4 1.85398 5.77679 0
M  V30 13606 H 1297.14 1.11921 4.74684 0
M  V30 13607 H 1296.14 3.38632 4.33138 0
M  V30 13608 H 1297.37 4.1236 5.3957 0
M  V30 13609 H 1295.31 2.04207 6.23406 0
M  V30 13610 H 1295.23 3.74034 6.56989 0
M  V30 13611 H 1296.5 2.78643 7.27996 0
M  V30 13612 N 1300.73 -1.01913 1.20215 0
M  V30 13613 C 1301.66 -2.10043 0.89203 0
M  V30 13614 C 1302.64 -1.61861 -0.154873 0
M  V30 13615 O 1303.82 -1.88478 -0.0290135 0
M  V30 13616 C 1300.95 -3.37021 0.336813 0
M  V30 13617 C 1300 -4.0409 1.36431 0
M  V30 13618 S 1300.83 -4.48334 2.92843 0
M  V30 13619 C 1301.99 -5.78517 2.3889 0
M  V30 13620 H 1302.22 -2.36025 1.80775 0
M  V30 13621 H 1299.75 -1.14992 1.03035 0
M  V30 13622 H 1301.71 -4.10494 0.0230191 0
M  V30 13623 H 1300.37 -3.09115 -0.557363 0
M  V30 13624 H 1299.56 -4.95436 0.925147 0
M  V30 13625 H 1299.17 -3.36831 1.62545 0
M  V30 13626 H 1301.46 -6.53564 1.78494 0
M  V30 13627 H 1302.4 -6.27226 3.28623 0
M  V30 13628 H 1302.81 -5.34658 1.8111 0
M  V30 13629 N 1302.21 -1.00763 -1.2118 0
M  V30 13630 C 1303.62 -0.720905 -1.42391 0
M  V30 13631 C 1303.82 0.702918 -1.88842 0
M  V30 13632 O 1302.88 1.47191 -2.05161 0
M  V30 13633 C 1304.19 -1.739 -2.45315 0
M  V30 13634 C 1305.74 -1.75611 -2.59094 0
M  V30 13635 C 1306.21 -2.76323 -3.65253 0
M  V30 13636 N 1307.71 -2.75007 -3.72727 0
M  V30 13637 C 1308.44 -3.49594 -4.54502 0
M  V30 13638 N 1307.94 -4.33828 -5.40153 0
M  V30 13639 N 1309.73 -3.38232 -4.4895 0
M  V30 13640 H 1301.88 -1.92697 -0.893404 0
M  V30 13641 H 1304.14 -0.831888 -0.454606 0
M  V30 13642 H 1303.85 -2.75859 -2.18162 0
M  V30 13643 H 1303.72 -1.5438 -3.44161 0
M  V30 13644 H 1306.11 -0.743416 -2.85582 0
M  V30 13645 H 1306.19 -1.99203 -1.60474 0
M  V30 13646 H 1305.84 -3.77751 -3.39509 0
M  V30 13647 H 1305.77 -2.49996 -4.63476 0
M  V30 13648 H 1308.26 -2.13897 -3.11539 0
M  V30 13649 H 1308.57 -4.8753 -5.99612 0
M  V30 13650 H 1306.91 -4.3791 -5.39685 0
M  V30 13651 H 1310.11 -2.71855 -3.81068 0
M  V30 13652 H 1310.28 -3.96615 -5.12445 0
M  V30 13653 N 1303.68 1.3679 -0.7827 0
M  V30 13654 C 1304.96 1.93639 -0.276278 0
M  V30 13655 C 1305.34 1.7153 1.23048 0
M  V30 13656 O 1304.69 1.07037 2.01879 0
M  V30 13657 C 1304.9 3.42672 -0.661586 0
M  V30 13658 C 1306.25 4.19786 -0.637538 0
M  V30 13659 O 1307.27 3.51082 -0.601645 0
M  V30 13660 O 1306.13 5.42323 -0.674408 0
M  V30 13661 H 1303.22 0.824307 -0.0666832 0
M  V30 13662 H 1305.77 1.46012 -0.864792 0
M  V30 13663 H 1304.54 3.52393 -1.70103 0
M  V30 13664 H 1304.17 3.97573 -0.0465987 0
M  V30 13665 N 1305.16 0.53415 1.48272 0
M  V30 13666 C 1306.41 -0.000450626 2.017 0
M  V30 13667 C 1306.72 -1.34926 1.41613 0
M  V30 13668 O 1307.93 -1.97246 1.86564 0
M  V30 13669 C 1306.39 -0.0511883 3.59864 0
M  V30 13670 C 1305.99 1.29298 4.28936 0
M  V30 13671 C 1307.74 -0.534397 4.21123 0
M  V30 13672 C 1305.65 1.2026 5.79044 0
M  V30 13673 H 1304.58 -0.00393844 0.75399 0
M  V30 13674 H 1307.23 0.678554 1.70493 0
M  V30 13675 H 1305.61 -0.795358 3.8793 0
M  V30 13676 H 1306.78 2.05305 4.12537 0
M  V30 13677 H 1305.1 1.71226 3.79566 0
M  V30 13678 H 1307.69 -0.620048 5.31093 0
M  V30 13679 H 1308.04 -1.54114 3.86723 0
M  V30 13680 H 1308.57 0.154215 3.97501 0
M  V30 13681 H 1305.31 2.18463 6.18025 0
M  V30 13682 H 1304.83 0.483971 5.97844 0
M  V30 13683 H 1306.51 0.895005 6.4078 0
M  V30 13684 N 1306.64 -1.55279 0.269478 0
M  V30 13685 C 1307.57 -2.25278 -0.614188 0
M  V30 13686 C 1308.55 -1.24092 -1.1634 0
M  V30 13687 O 1309.74 -1.52799 -1.19858 0
M  V30 13688 C 1306.87 -2.96956 -1.80096 0
M  V30 13689 C 1305.82 -4.05021 -1.38353 0
M  V30 13690 C 1305.15 -4.64244 -2.65295 0
M  V30 13691 C 1306.45 -5.19523 -0.537886 0
M  V30 13692 H 1308.14 -2.99385 -0.0304397 0
M  V30 13693 H 1305.69 -1.43994 -0.0132004 0
M  V30 13694 H 1307.64 -3.44633 -2.42499 0
M  V30 13695 H 1306.36 -2.20374 -2.41045 0
M  V30 13696 H 1305.02 -3.58146 -0.78273 0
M  V30 13697 H 1304.67 -3.84337 -3.2449 0
M  V30 13698 H 1304.37 -5.37208 -2.38079 0
M  V30 13699 H 1305.89 -5.14668 -3.28557 0
M  V30 13700 H 1307.31 -5.63287 -1.06677 0
M  V30 13701 H 1305.71 -5.99014 -0.360845 0
M  V30 13702 H 1306.78 -4.82857 0.444672 0
M  V30 13703 N 1308.12 0.00332656 -1.576 0
M  V30 13704 C 1309.07 1.01406 -2.09331 0
M  V30 13705 C 1310.06 1.35806 -1.01258 0
M  V30 13706 O 1311.27 1.34409 -1.19726 0
M  V30 13707 H 1307.64 0.344661 -0.668366 0
M  V30 13708 H 1309.61 0.552154 -2.93247 0
M  V30 13709 C 1308.36 2.29819 -2.60918 0
M  V30 13710 H 1307.68 2.04216 -3.43709 0
M  V30 13711 H 1309.12 2.98826 -3.00797 0
M  V30 13712 C 1307.58 3.0057 -1.52182 0
M  V30 13713 O 1308.11 3.91423 -0.902817 0
M  V30 13714 N 1306.32 2.62338 -1.25009 0
M  V30 13715 H 1305.87 1.88538 -1.75531 0
M  V30 13716 H 1305.82 3.0999 -0.524736 0
M  V30 13717 N 1309.6 1.55164 0.276031 0
M  V30 13718 C 1310.53 1.82758 1.36656 0
M  V30 13719 C 1311.51 0.680405 1.4768 0
M  V30 13720 O 1312.69 0.923078 1.64352 0
M  V30 13721 C 1309.82 1.98651 2.74328 0
M  V30 13722 C 1308.86 3.21192 2.80603 0
M  V30 13723 S 1309.7 4.78628 2.40156 0
M  V30 13724 C 1310.85 4.9749 3.79809 0
M  V30 13725 H 1311.09 2.74969 1.13045 0
M  V30 13726 H 1308.62 1.46896 0.4755 0
M  V30 13727 H 1310.58 2.08492 3.53612 0
M  V30 13728 H 1309.24 1.07333 2.95192 0
M  V30 13729 H 1308.43 3.29189 3.81642 0
M  V30 13730 H 1308.03 3.09926 2.09337 0
M  V30 13731 H 1310.33 4.83045 4.75051 0
M  V30 13732 H 1311.27 5.99544 3.76765 0
M  V30 13733 H 1311.68 4.25489 3.70971 0
M  V30 13734 N 1311.07 -0.540404 1.48045 0
M  V30 13735 C 1311.98 -1.67308 1.64455 0
M  V30 13736 C 1313 -1.65823 0.527152 0
M  V30 13737 O 1314.18 -1.84964 0.796881 0
M  V30 13738 C 1311.24 -3.03792 1.67068 0
M  V30 13739 C 1310.3 -3.16213 2.90358 0
M  V30 13740 C 1309.54 -4.46187 2.92837 0
M  V30 13741 O 1309.76 -5.32662 2.04029 0
M  V30 13742 O 1308.69 -4.62754 3.84892 0
M  V30 13743 H 1312.52 -1.56403 2.6033 0
M  V30 13744 H 1310.1 -0.712323 1.31325 0
M  V30 13745 H 1311.99 -3.84982 1.71368 0
M  V30 13746 H 1310.66 -3.15043 0.74363 0
M  V30 13747 H 1309.57 -2.34357 2.91595 0
M  V30 13748 H 1310.9 -3.09874 3.82412 0
M  V30 13749 N 1312.55 -1.36459 -0.788468 0
M  V30 13750 C 1313.5 -1.30863 -1.90115 0
M  V30 13751 C 1314.47 -0.177148 -1.65153 0
M  V30 13752 O 1315.65 -0.363817 -1.87299 0
M  V30 13753 C 1312.79 -1.10473 -3.2694 0
M  V30 13754 C 1311.91 -2.32704 -3.63968 0
M  V30 13755 C 1311.04 -2.05319 -4.89916 0
M  V30 13756 C 1310.08 -3.23506 -5.19625 0
M  V30 13757 N 1309.22 -2.9578 -6.36756 0
M  V30 13758 H 1314.06 -2.26003 -1.94233 0
M  V30 13759 H 1311.6 -1.12324 -0.949827 0
M  V30 13760 H 1313.55 -0.966773 -4.05844 0
M  V30 13761 H 1312.18 -0.189873 -3.22241 0
M  V30 13762 H 1311.24 -2.573 -2.8018 0
M  V30 13763 H 1312.55 -3.20899 -3.81871 0
M  V30 13764 H 1311.7 -1.88459 -5.76687 0
M  V30 13765 H 1310.44 -1.14437 -4.74084 0
M  V30 13766 H 1309.45 -3.40924 -4.31336 0
M  V30 13767 H 1310.67 -4.15216 -5.37376 0
M  V30 13768 H 1308.62 -2.0751 -6.22315 0
M  V30 13769 H 1308.53 -3.77513 -6.54996 0
M  V30 13770 H 1309.8 -2.825 -7.26508 0
M  V30 13771 N 1314.03 1.01274 -1.20754 0
M  V30 13772 C 1315.26 1.78524 -1.04579 0
M  V30 13773 C 1315.67 1.84409 0.404809 0
M  V30 13774 O 1315.03 1.29987 1.281 0
M  V30 13775 C 1315.08 3.22806 -1.62722 0
M  V30 13776 O 1314.8 3.17276 -3.02106 0
M  V30 13777 C 1316.3 4.16589 -1.51553 0
M  V30 13778 H 1313.52 0.561299 -0.367674 0
M  V30 13779 H 1316.07 1.27454 -1.59924 0
M  V30 13780 H 1314.22 3.71011 -1.11487 0
M  V30 13781 H 1314.64 4.07866 -3.29766 0
M  V30 13782 H 1316.11 5.15654 -1.9699 0
M  V30 13783 H 1316.59 4.36692 -0.468659 0
M  V30 13784 H 1317.19 3.74269 -2.01998 0
M  V30 13785 N 1315.51 1.01404 1.20644 0
M  V30 13786 C 1316.44 0.602465 2.25594 0
M  V30 13787 C 1317.42 -0.381216 1.65773 0
M  V30 13788 O 1318.61 -0.267209 1.92353 0
M  V30 13789 C 1315.74 -0.0626245 3.47244 0
M  V30 13790 C 1314.69 0.841776 4.1964 0
M  V30 13791 C 1314.02 0.0426002 5.34683 0
M  V30 13792 C 1315.32 2.14864 4.76058 0
M  V30 13793 H 1317.01 1.47977 2.60275 0
M  V30 13794 H 1314.56 0.712966 1.25111 0
M  V30 13795 H 1316.51 -0.362095 4.19841 0
M  V30 13796 H 1315.23 -0.974627 3.11719 0
M  V30 13797 H 1313.89 1.12521 3.48905 0
M  V30 13798 H 1313.54 -0.870973 4.95402 0
M  V30 13799 H 1313.24 0.644866 5.84051 0
M  V30 13800 H 1314.76 -0.250476 6.10086 0
M  V30 13801 H 1316.18 1.9117 5.40488 0
M  V30 13802 H 1314.57 2.70153 5.35852 0
M  V30 13803 H 1315.64 2.81336 3.9494 0
M  V30 13804 N 1316.99 -1.36373 0.789944 0
M  V30 13805 C 1317.93 -2.30043 0.186798 0
M  V30 13806 C 1318.9 -1.52002 -0.669663 0
M  V30 13807 O 1320.09 -1.80506 -0.618232 0
M  V30 13808 C 1317.23 -3.38494 -0.671994 0
M  V30 13809 C 1316.34 -4.31522 0.203067 0
M  V30 13810 C 1315.48 -5.27057 -0.662148 0
M  V30 13811 C 1314.52 -6.11725 0.214335 0
M  V30 13812 N 1313.65 -6.99446 -0.609892 0
M  V30 13813 H 1318.49 -2.81038 0.991048 0
M  V30 13814 H 1316.03 -1.38331 0.500288 0
M  V30 13815 H 1317.99 -4.0002 -1.1849 0
M  V30 13816 H 1316.62 -2.88818 -1.44167 0
M  V30 13817 H 1315.67 -3.71146 0.833945 0
M  V30 13818 H 1316.98 -4.91005 0.878389 0
M  V30 13819 H 1316.14 -5.93875 -1.24084 0
M  V30 13820 H 1314.88 -4.6803 -1.37109 0
M  V30 13821 H 1313.88 -5.43868 0.805426 0
M  V30 13822 H 1315.11 -6.72827 0.92089 0
M  V30 13823 H 1313.05 -6.42927 -1.30312 0
M  V30 13824 H 1312.97 -7.56 0.00773786 0
M  V30 13825 H 1314.24 -7.70633 -1.1724 0
M  V30 13826 N 1318.47 -0.542005 -1.47987 0
M  V30 13827 C 1319.71 -0.0122873 -2.02096 0
M  V30 13828 C 1320.03 1.3362 -1.42024 0
M  V30 13829 O 1319.3 1.86807 -0.589911 0
M  V30 13830 H 1317.88 -0.00155365 -0.746998 0
M  V30 13831 H 1320.55 -0.708566 -1.81564 0
M  V30 13832 H 1319.64 0.0871275 -3.11978 0
M  V30 13833 N 1319.94 1.55134 -0.277709 0
M  V30 13834 C 1320.87 2.256 0.602232 0
M  V30 13835 C 1321.85 1.24708 1.15681 0
M  V30 13836 O 1323.04 1.53433 1.19046 0
M  V30 13837 C 1320.17 2.97907 1.78519 0
M  V30 13838 C 1319.12 4.0575 1.36203 0
M  V30 13839 C 1318.45 4.65644 2.62829 0
M  V30 13840 C 1319.75 5.19801 0.510327 0
M  V30 13841 H 1321.44 2.99396 0.0145622 0
M  V30 13842 H 1318.99 1.43999 0.00556389 0
M  V30 13843 H 1320.94 3.45915 2.40668 0
M  V30 13844 H 1319.67 2.21649 2.39873 0
M  V30 13845 H 1318.33 3.58557 0.763726 0
M  V30 13846 H 1317.97 3.86053 3.22447 0
M  V30 13847 H 1317.67 5.38463 2.35227 0
M  V30 13848 H 1319.2 5.16403 3.25823 0
M  V30 13849 H 1320.61 5.63845 1.03689 0
M  V30 13850 H 1319.01 5.99197 0.329073 0
M  V30 13851 H 1320.08 4.82614 -0.470273 0
M  V30 13852 N 1321.42 0.00503138 1.57599 0
M  V30 13853 C 1322.37 -1.00294 2.09866 0
M  V30 13854 C 1323.36 -1.35267 1.01977 0
M  V30 13855 O 1324.57 -1.33772 1.20437 0
M  V30 13856 H 1320.94 -0.341112 0.670184 0
M  V30 13857 H 1322.92 -0.536595 2.93536 0
M  V30 13858 C 1321.66 -2.28432 2.62133 0
M  V30 13859 H 1320.99 -2.02391 3.44787 0
M  V30 13860 H 1322.43 -2.97227 3.02378 0
M  V30 13861 C 1320.89 -2.99758 1.53774 0
M  V30 13862 O 1321.42 -3.90939 0.923563 0
M  V30 13863 N 1319.62 -2.61671 1.26398 0
M  V30 13864 H 1319.17 -1.87605 1.76528 0
M  V30 13865 H 1319.13 -3.09707 0.541168 0
M  V30 13866 N 1322.9 -1.55308 -0.267798 0
M  V30 13867 C 1324.12 -1.80524 -1.02107 0
M  V30 13868 C 1324.55 -0.579268 -1.78958 0
M  V30 13869 O 1323.91 0.471262 -1.75068 0
M  V30 13870 C 1323.96 -3.03248 -1.95123 0
M  V30 13871 O 1323.06 -2.78699 -3.03975 0
M  V30 13872 H 1322.4 -0.596518 -0.291655 0
M  V30 13873 H 1324.93 -2.0246 -0.295128 0
M  V30 13874 H 1324.94 -3.32121 -2.3698 0
M  V30 13875 H 1323.62 -3.92126 -1.386 0
M  V30 13876 H 1322.19 -2.60936 -2.66396 0
M  V30 13877 N 1324.38 0.532545 -1.4833 0
M  V30 13878 C 1325.29 1.66433 -1.65339 0
M  V30 13879 C 1326.3 1.65541 -0.535939 0
M  V30 13880 O 1327.48 1.84539 -0.806679 0
M  V30 13881 C 1324.54 3.02901 -1.68676 0
M  V30 13882 C 1323.61 3.14669 -2.92031 0
M  V30 13883 C 1322.84 4.44627 -2.95199 0
M  V30 13884 O 1323.06 5.31572 -2.06851 0
M  V30 13885 O 1322 4.60707 -3.87341 0
M  V30 13886 H 1325.82 1.5502 -2.61156 0
M  V30 13887 H 1323.41 0.705348 -1.31701 0
M  V30 13888 H 1325.29 3.84068 -1.73407 0
M  V30 13889 H 1323.96 3.14644 -0.760327 0
M  V30 13890 H 1322.87 2.32807 -2.92834 0
M  V30 13891 H 1324.2 3.07841 -3.8405 0
M  V30 13892 N 1325.86 1.36875 0.78122 0
M  V30 13893 C 1327.08 1.349 1.57533 0
M  V30 13894 C 1327.51 -0.0655249 1.87986 0
M  V30 13895 O 1326.86 -1.03986 1.48515 0
M  V30 13896 C 1326.91 2.18562 2.86815 0
M  V30 13897 O 1326.02 1.58374 3.80777 0
M  V30 13898 H 1325.36 0.461355 0.477543 0
M  V30 13899 H 1327.89 1.80271 0.96766 0
M  V30 13900 H 1327.9 2.31436 3.36008 0
M  V30 13901 H 1326.57 3.21385 2.63978 0
M  V30 13902 H 1325.15 1.54487 3.39394 0
M  V30 13903 N 1327.33 -1.00632 1.21289 0
M  V30 13904 C 1328.27 -2.09085 0.914258 0
M  V30 13905 C 1329.24 -1.62016 -0.137697 0
M  V30 13906 O 1330.43 -1.88498 -0.00902131 0
M  V30 13907 C 1327.56 -3.36645 0.37254 0
M  V30 13908 C 1326.6 -4.0262 1.40709 0
M  V30 13909 S 1327.43 -4.45203 2.97582 0
M  V30 13910 C 1328.59 -5.75951 2.45013 0
M  V30 13911 H 1328.82 -2.34094 1.83268 0
M  V30 13912 H 1326.36 -1.13893 1.04248 0
M  V30 13913 H 1328.31 -4.10446 0.0665561 0
M  V30 13914 H 1326.98 -3.09689 -0.524546 0
M  V30 13915 H 1326.17 -4.94427 0.977642 0
M  V30 13916 H 1325.77 -3.35088 1.66108 0
M  V30 13917 H 1328.06 -6.51634 1.85416 0
M  V30 13918 H 1329.01 -6.23706 3.35257 0
M  V30 13919 H 1329.41 -5.32707 1.8677 0
M  V30 13920 N 1328.81 -1.02043 -1.20104 0
M  V30 13921 C 1330.04 -0.731315 -1.93544 0
M  V30 13922 C 1330.45 0.708582 -1.74999 0
M  V30 13923 O 1329.81 1.481 -1.06642 0
M  V30 13924 C 1329.86 -1.06233 -3.45538 0
M  V30 13925 O 1329.58 -2.44568 -3.63481 0
M  V30 13926 C 1331.08 -0.794818 -4.36116 0
M  V30 13927 H 1328.3 -0.268248 -0.615048 0
M  V30 13928 H 1330.85 -1.36264 -1.52488 0
M  V30 13929 H 1329 -0.476341 -3.8446 0
M  V30 13930 H 1329.42 -2.5663 -4.57429 0
M  V30 13931 H 1330.89 -1.07647 -5.41402 0
M  V30 13932 H 1331.37 0.270944 -4.38363 0
M  V30 13933 H 1331.97 -1.36314 -4.02863 0
M  V30 13934 N 1330.29 1.35952 -0.797165 0
M  V30 13935 C 1331.2 2.33726 -0.202271 0
M  V30 13936 C 1332.22 1.61415 0.649719 0
M  V30 13937 O 1333.39 1.93351 0.563686 0
M  V30 13938 C 1330.46 3.40612 0.64685 0
M  V30 13939 C 1329.52 4.28712 -0.224536 0
M  V30 13940 C 1328.75 5.30493 0.584153 0
M  V30 13941 O 1328.97 5.40599 1.81957 0
M  V30 13942 O 1327.91 6.01897 -0.0200239 0
M  V30 13943 H 1331.73 2.86383 -1.01087 0
M  V30 13944 H 1329.32 1.38557 -0.558768 0
M  V30 13945 H 1331.2 4.05944 1.1308 0
M  V30 13946 H 1329.88 2.90243 1.43321 0
M  V30 13947 H 1328.78 3.66394 -0.755415 0
M  V30 13948 H 1330.12 4.82454 -0.974603 0
M  V30 13949 N 1331.77 0.549846 1.47697 0
M  V30 13950 C 1332.68 -0.205286 2.337 0
M  V30 13951 C 1333.69 -0.919271 1.47734 0
M  V30 13952 O 1334.87 -0.889808 1.80678 0
M  V30 13953 C 1331.94 -1.22658 3.24278 0
M  V30 13954 C 1331 -0.520815 4.26129 0
M  V30 13955 C 1330.23 -1.49345 5.12378 0
M  V30 13956 O 1330.45 -2.72772 5.00951 0
M  V30 13957 O 1329.39 -1.02197 5.93161 0
M  V30 13958 H 1333.21 0.499982 2.99556 0
M  V30 13959 H 1330.8 0.310538 1.46137 0
M  V30 13960 H 1332.68 -1.8163 3.80248 0
M  V30 13961 H 1331.35 -1.9139 2.61059 0
M  V30 13962 H 1330.26 0.109906 3.73939 0
M  V30 13963 H 1331.59 0.124922 4.92041 0
M  V30 13964 N 1333.25 -1.54984 0.285932 0
M  V30 13965 C 1334.47 -2.04239 -0.330774 0
M  V30 13966 C 1334.89 -1.16387 -1.48659 0
M  V30 13967 O 1334.25 -0.186255 -1.81547 0
M  V30 13968 C 1334.3 -3.52504 -0.801456 0
M  V30 13969 O 1334.02 -4.37014 0.30834 0
M  V30 13970 C 1335.52 -4.17692 -1.48487 0
M  V30 13971 H 1332.74 -0.666903 -0.0740351 0
M  V30 13972 H 1335.28 -2.00116 0.421178 0
M  V30 13973 H 1333.44 -3.57036 -1.50347 0
M  V30 13974 H 1333.85 -5.24471 -0.0553891 0
M  V30 13975 H 1335.33 -5.23004 -1.76552 0
M  V30 13976 H 1335.8 -3.66515 -2.41999 0
M  V30 13977 H 1336.41 -4.17193 -0.826428 0
M  V30 13978 N 1334.72 -0.0133892 -1.57594 0
M  V30 13979 C 1335.65 0.972341 -2.12292 0
M  V30 13980 C 1336.64 1.34971 -1.03522 0
M  V30 13981 O 1337.82 1.4311 -1.31275 0
M  V30 13982 C 1334.95 2.25988 -2.63717 0
M  V30 13983 C 1333.9 2.02373 -3.77133 0
M  V30 13984 C 1333.23 3.37256 -4.14925 0
M  V30 13985 C 1334.53 1.37553 -5.03861 0
M  V30 13986 H 1336.22 0.516869 -2.94905 0
M  V30 13987 H 1333.77 0.247176 -1.41863 0
M  V30 13988 H 1335.72 2.95313 -3.00613 0
M  V30 13989 H 1334.45 2.73672 -1.78244 0
M  V30 13990 H 1333.11 1.3547 -3.40651 0
M  V30 13991 H 1332.75 3.82669 -3.26456 0
M  V30 13992 H 1332.45 3.22267 -4.91343 0
M  V30 13993 H 1333.98 4.07875 -4.5439 0
M  V30 13994 H 1335.39 1.96855 -5.38443 0
M  V30 13995 H 1333.79 1.33011 -5.85174 0
M  V30 13996 H 1334.86 0.346429 -4.83661 0
M  V30 13997 N 1336.2 1.55448 0.259558 0
M  V30 13998 C 1337.15 1.89248 1.32113 0
M  V30 13999 C 1338.12 0.745348 1.48438 0
M  V30 14000 O 1339.3 0.997854 1.62627 0
M  V30 14001 C 1336.44 2.18161 2.67394 0
M  V30 14002 C 1335.56 3.45614 2.59182 0
M  V30 14003 C 1334.69 3.6416 3.86731 0
M  V30 14004 C 1333.73 4.85258 3.73084 0
M  V30 14005 N 1332.87 5.00391 4.92497 0
M  V30 14006 H 1337.71 2.79785 1.02589 0
M  V30 14007 H 1335.25 1.38509 0.495338 0
M  V30 14008 H 1337.2 2.32927 3.46122 0
M  V30 14009 H 1335.83 1.30843 2.95093 0
M  V30 14010 H 1334.89 3.39248 1.72091 0
M  V30 14011 H 1336.2 4.34483 2.45002 0
M  V30 14012 H 1335.35 3.78817 4.73902 0
M  V30 14013 H 1334.09 2.73501 4.03793 0
M  V30 14014 H 1333.1 4.70591 2.84296 0
M  V30 14015 H 1334.32 5.77365 3.57528 0
M  V30 14016 H 1332.27 4.12666 5.09944 0
M  V30 14017 H 1332.18 5.83328 4.809 0
M  V30 14018 H 1333.45 5.19446 5.81202 0
M  V30 14019 N 1337.68 -0.524672 1.4861 0
M  V30 14020 C 1339.1 -0.853703 1.34848 0
M  V30 14021 C 1339.3 -1.98194 0.363529 0
M  V30 14022 O 1338.35 -2.51597 -0.213348 0
M  V30 14023 C 1339.67 -1.21622 2.75006 0
M  V30 14024 C 1341.21 -1.3258 2.83534 0
M  V30 14025 C 1341.69 -1.72172 4.24406 0
M  V30 14026 N 1343.18 -1.79265 4.27105 0
M  V30 14027 C 1343.91 -2.11296 5.33049 0
M  V30 14028 N 1343.41 -2.41714 6.49266 0
M  V30 14029 N 1345.2 -2.12347 5.20447 0
M  V30 14030 H 1337.35 0.219671 2.11261 0
M  V30 14031 H 1339.62 0.0356444 0.94733 0
M  V30 14032 H 1339.32 -0.460776 3.48669 0
M  V30 14033 H 1339.2 -2.16516 3.0887 0
M  V30 14034 H 1341.58 -2.072 2.10124 0
M  V30 14035 H 1341.67 -0.357943 2.53283 0
M  V30 14036 H 1341.31 -0.981108 4.98334 0
M  V30 14037 H 1341.24 -2.70017 4.52104 0
M  V30 14038 H 1343.73 -1.58013 3.43279 0
M  V30 14039 H 1344.04 -2.65276 7.25843 0
M  V30 14040 H 1342.39 -2.39222 6.52532 0
M  V30 14041 H 1345.58 -1.88044 4.28669 0
M  V30 14042 H 1345.75 -2.36978 6.03113 0
M  V30 14043 N 1339.16 -1.37287 -0.77395 0
M  V30 14044 C 1340.12 -1.32699 -1.86878 0
M  V30 14045 C 1341.12 -0.231486 -1.59125 0
M  V30 14046 O 1342.31 -0.487203 -1.67248 0
M  V30 14047 C 1339.44 -1.0609 -3.23972 0
M  V30 14048 H 1340.64 -2.30083 -1.92359 0
M  V30 14049 H 1338.19 -1.22284 -0.973459 0
M  V30 14050 H 1338.92 -0.0922868 -3.24169 0
M  V30 14051 H 1338.71 -1.85383 -3.45508 0
M  V30 14052 H 1340.2 -1.05524 -4.04048 0
M  V30 14053 N 1340.64 0.999871 -1.21821 0
M  V30 14054 C 1341.58 2.08864 -0.98206 0
M  V30 14055 C 1342.55 1.65835 0.0937677 0
M  V30 14056 O 1343.74 1.90722 -0.0544038 0
M  V30 14057 C 1340.88 3.40553 -0.558382 0
M  V30 14058 C 1339.99 3.96964 -1.70422 0
M  V30 14059 C 1339.13 5.16782 -1.2292 0
M  V30 14060 C 1338.17 5.65315 -2.34703 0
M  V30 14061 N 1337.3 6.76379 -1.88299 0
M  V30 14062 H 1342.14 2.28399 -1.9141 0
M  V30 14063 H 1339.68 1.11984 -0.953837 0
M  V30 14064 H 1341.64 4.16163 -0.293955 0
M  V30 14065 H 1340.27 3.2104 0.336656 0
M  V30 14066 H 1339.32 3.18291 -2.08315 0
M  V30 14067 H 1340.63 4.2897 -2.54531 0
M  V30 14068 H 1339.79 5.99657 -0.92174 0
M  V30 14069 H 1338.52 4.86383 -0.358222 0
M  V30 14070 H 1337.53 4.81033 -2.66246 0
M  V30 14071 H 1338.75 5.97742 -3.22306 0
M  V30 14072 H 1336.7 6.47775 -1.03552 0
M  V30 14073 H 1336.62 7.07666 -2.65978 0
M  V30 14074 H 1337.89 7.62776 -1.60601 0
M  V30 14075 N 1342.11 1.02678 1.19562 0
M  V30 14076 C 1343.02 0.615738 2.26375 0
M  V30 14077 C 1344.04 -0.351525 1.70412 0
M  V30 14078 O 1345.22 -0.209932 2.00303 0
M  V30 14079 C 1342.28 -0.0292135 3.46688 0
M  V30 14080 C 1341.34 0.985284 4.1784 0
M  V30 14081 C 1340.58 0.371016 5.32409 0
M  V30 14082 O 1340.8 -0.826591 5.64379 0
M  V30 14083 O 1339.73 1.09282 5.91896 0
M  V30 14084 H 1343.56 1.50526 2.63772 0
M  V30 14085 H 1341.14 0.796847 1.26375 0
M  V30 14086 H 1343.03 -0.38893 4.19601 0
M  V30 14087 H 1341.7 -0.892778 3.11145 0
M  V30 14088 H 1340.61 1.39655 3.47055 0
M  V30 14089 H 1341.94 1.81915 4.57349 0
M  V30 14090 N 1343.59 -1.35528 0.804364 0
M  V30 14091 C 1344.84 -1.98084 0.380196 0
M  V30 14092 C 1345.15 -1.64531 -1.05778 0
M  V30 14093 O 1346.36 -2.20435 -1.58495 0
M  V30 14094 C 1344.82 -3.54364 0.628848 0
M  V30 14095 C 1344.42 -3.96828 2.07921 0
M  V30 14096 C 1346.17 -4.23641 0.269927 0
M  V30 14097 C 1344.08 -5.45944 2.27374 0
M  V30 14098 H 1343.01 -0.741185 0.138422 0
M  V30 14099 H 1345.66 -1.54624 0.988107 0
M  V30 14100 H 1344.04 -3.9597 -0.0489837 0
M  V30 14101 H 1345.21 -3.6638 2.79467 0
M  V30 14102 H 1343.53 -3.40433 2.39779 0
M  V30 14103 H 1346.12 -5.33251 0.393344 0
M  V30 14104 H 1346.47 -4.08858 -0.783644 0
M  V30 14105 H 1347 -3.87448 0.901588 0
M  V30 14106 H 1343.74 -5.65693 3.31168 0
M  V30 14107 H 1343.26 -5.77969 1.6035 0
M  V30 14108 H 1344.94 -6.12376 2.08817 0
M  V30 14109 N 1345.07 -0.557671 -1.47404 0
M  V30 14110 C 1346.32 -0.0337216 -2.02072 0
M  V30 14111 C 1346.64 1.32106 -1.43433 0
M  V30 14112 O 1345.91 1.86171 -0.609692 0
M  V30 14113 H 1344.49 -0.00947648 -0.74694 0
M  V30 14114 H 1347.15 -0.727784 -1.80802 0
M  V30 14115 H 1346.25 0.0540331 -3.12053 0
M  V30 14116 N 1346.55 1.54831 -0.294147 0
M  V30 14117 C 1347.8 2.00001 0.317135 0
M  V30 14118 C 1348.12 1.18256 1.54421 0
M  V30 14119 O 1347.38 0.245035 1.9416 0
M  V30 14120 C 1347.68 3.4997 0.72495 0
M  V30 14121 C 1347.34 4.49126 -0.399616 0
M  V30 14122 C 1346.01 4.75958 -0.708354 0
M  V30 14123 C 1348.36 5.08208 -1.15644 0
M  V30 14124 C 1345.69 5.59137 -1.77716 0
M  V30 14125 C 1348.04 5.9255 -2.21512 0
M  V30 14126 C 1346.7 6.17695 -2.52999 0
M  V30 14127 H 1345.97 0.731856 0.116048 0
M  V30 14128 H 1348.62 1.87019 -0.41182 0
M  V30 14129 H 1346.92 3.60526 1.53388 0
M  V30 14130 H 1348.62 3.82341 1.20898 0
M  V30 14131 H 1345.21 4.28341 -0.148877 0
M  V30 14132 H 1349.4 4.87486 -0.931178 0
M  V30 14133 H 1344.65 5.76859 -2.02592 0
M  V30 14134 H 1348.83 6.37359 -2.80617 0
M  V30 14135 H 1346.45 6.81939 -3.35951 0
M  V30 14136 N 1348.03 0.0217466 1.57585 0
M  V30 14137 C 1349.25 -0.67246 1.96196 0
M  V30 14138 C 1349.68 -1.6529 0.897827 0
M  V30 14139 O 1349.04 -1.80743 -0.142002 0
M  V30 14140 C 1349.08 -1.36162 3.33905 0
M  V30 14141 O 1348.19 -2.47671 3.29747 0
M  V30 14142 H 1347.53 -0.177238 0.639908 0
M  V30 14143 H 1350.06 0.0814073 2.04438 0
M  V30 14144 H 1350.07 -1.7201 3.69968 0
M  V30 14145 H 1348.74 -0.642893 4.10901 0
M  V30 14146 H 1347.32 -2.13989 3.0539 0
M  V30 14147 N 1349.51 -1.55583 -0.251311 0
M  V30 14148 C 1350.78 -1.67954 -1.00254 0
M  V30 14149 C 1351.16 -0.560326 -2.03528 0
M  V30 14150 O 1350.51 0.436811 -2.24286 0
M  V30 14151 C 1350.72 -3.08075 -1.63985 0
M  V30 14152 C 1352.07 -3.66531 -2.14336 0
M  V30 14153 O 1353.09 -3.10846 -1.73934 0
M  V30 14154 O 1351.95 -4.64141 -2.88506 0
M  V30 14155 H 1349.05 -0.682952 -0.466375 0
M  V30 14156 H 1351.59 -1.67916 -0.245447 0
M  V30 14157 H 1350.36 -3.80983 -0.892627 0
M  V30 14158 H 1349.99 -3.12105 -2.46325 0
M  V30 14159 N 1350.98 0.516783 -1.48886 0
M  V30 14160 C 1351.93 1.62003 -1.64389 0
M  V30 14161 C 1352.9 1.58842 -0.485633 0
M  V30 14162 O 1354.09 1.77068 -0.710742 0
M  V30 14163 C 1351.23 3.00218 -1.70186 0
M  V30 14164 C 1350.34 3.13513 -2.97209 0
M  V30 14165 C 1349.47 4.42366 -2.94084 0
M  V30 14166 C 1348.51 4.49238 -4.15754 0
M  V30 14167 N 1347.65 5.69497 -4.10631 0
M  V30 14168 H 1352.49 1.48093 -2.58597 0
M  V30 14169 H 1350.03 0.720788 -1.2823 0
M  V30 14170 H 1351.98 3.80307 -1.71529 0
M  V30 14171 H 1350.61 3.12868 -0.794578 0
M  V30 14172 H 1349.67 2.26589 -3.05551 0
M  V30 14173 H 1350.98 3.14451 -3.87197 0
M  V30 14174 H 1350.13 5.3076 -2.93902 0
M  V30 14175 H 1348.87 4.43969 -2.01847 0
M  V30 14176 H 1347.88 3.59248 -4.16198 0
M  V30 14177 H 1349.1 4.49363 -5.09166 0
M  V30 14178 H 1347.05 5.71973 -3.21222 0
M  V30 14179 H 1346.96 5.71985 -4.94337 0
M  V30 14180 H 1348.23 6.60142 -4.14527 0
M  V30 14181 N 1352.46 1.37696 0.766659 0
M  V30 14182 C 1353.39 1.2975 1.88938 0
M  V30 14183 C 1354.41 0.212278 1.6141 0
M  V30 14184 O 1355.6 0.468825 1.72233 0
M  V30 14185 C 1352.7 0.984553 3.24283 0
M  V30 14186 C 1351.87 2.17625 3.79418 0
M  V30 14187 C 1350.93 1.83279 4.9325 0
M  V30 14188 O 1349.95 2.55631 5.08568 0
M  V30 14189 N 1351.16 0.779941 5.75237 0
M  V30 14190 H 1353.92 2.26492 1.96269 0
M  V30 14191 H 1351.48 1.31387 0.946001 0
M  V30 14192 H 1353.47 0.735536 3.9796 0
M  V30 14193 H 1352.04 0.105527 3.12422 0
M  V30 14194 H 1351.26 2.58672 2.9746 0
M  V30 14195 H 1352.55 2.97187 4.12986 0
M  V30 14196 H 1351.95 0.179661 5.65415 0
M  V30 14197 H 1350.51 0.59079 6.49117 0
M  V30 14198 N 1353.94 -0.993397 1.22349 0
M  V30 14199 C 1355.19 -1.72707 1.04189 0
M  V30 14200 C 1355.5 -1.90963 -0.423381 0
M  V30 14201 O 1356.71 -2.61651 -0.724645 0
M  V30 14202 C 1355.16 -3.10739 1.81575 0
M  V30 14203 C 1354.77 -3.00415 3.32347 0
M  V30 14204 C 1356.52 -3.88155 1.71861 0
M  V30 14205 C 1354.42 -4.33598 4.02177 0
M  V30 14206 H 1353.35 -0.647556 0.386248 0
M  V30 14207 H 1356 -1.10902 1.46195 0
M  V30 14208 H 1354.39 -3.73222 1.32367 0
M  V30 14209 H 1355.56 -2.47099 3.88946 0
M  V30 14210 H 1353.87 -2.36482 3.42732 0
M  V30 14211 H 1356.47 -4.8673 2.21354 0
M  V30 14212 H 1356.81 -4.10726 0.678939 0
M  V30 14213 H 1357.35 -3.32347 2.18609 0
M  V30 14214 H 1354.09 -4.16226 5.06395 0
M  V30 14215 H 1353.61 -4.86829 3.50367 0
M  V30 14216 H 1355.29 -5.02348 4.07744 0
M  V30 14217 N 1355.42 -1.03311 -1.19015 0
M  V30 14218 C 1356.64 -0.751686 -1.93299 0
M  V30 14219 C 1357.07 0.68392 -1.75226 0
M  V30 14220 O 1356.43 1.47274 -1.05736 0
M  V30 14221 C 1356.47 -1.11335 -3.42982 0
M  V30 14222 O 1355.58 -0.234434 -4.11733 0
M  V30 14223 H 1354.92 -0.277331 -0.60331 0
M  V30 14224 H 1357.45 -1.38092 -1.5097 0
M  V30 14225 H 1357.46 -1.07204 -3.93664 0
M  V30 14226 H 1356.13 -2.15922 -3.55458 0
M  V30 14227 H 1354.71 -0.3347 -3.71395 0
M  V30 14228 N 1356.9 1.35099 -0.81154 0
M  V30 14229 C 1357.84 2.29717 -0.223372 0
M  V30 14230 C 1358.81 1.53049 0.645396 0
M  V30 14231 O 1360 1.81467 0.589436 0
M  V30 14232 C 1357.14 3.3952 0.618057 0
M  V30 14233 C 1356.25 4.31145 -0.271693 0
M  V30 14234 C 1355.39 5.28044 0.578214 0
M  V30 14235 C 1354.42 6.11306 -0.311628 0
M  V30 14236 N 1353.56 7.00328 0.498539 0
M  V30 14237 H 1358.4 2.79426 -1.03563 0
M  V30 14238 H 1355.94 1.37518 -0.522231 0
M  V30 14239 H 1357.9 4.01854 1.12111 0
M  V30 14240 H 1356.53 2.91075 1.39554 0
M  V30 14241 H 1355.58 3.69773 -0.892885 0
M  V30 14242 H 1356.89 4.89545 -0.956392 0
M  V30 14243 H 1356.04 5.95774 1.1462 0
M  V30 14244 H 1354.78 4.70152 1.29646 0
M  V30 14245 H 1353.79 5.42518 -0.891849 0
M  V30 14246 H 1355.01 6.71277 -1.02781 0
M  V30 14247 H 1352.96 6.44919 1.20067 0
M  V30 14248 H 1352.88 7.55892 -0.12801 0
M  V30 14249 H 1354.14 7.72401 1.04965 0
M  V30 14250 N 1358.37 0.56548 1.47106 0
M  V30 14251 C 1359.61 0.0469867 2.04346 0
M  V30 14252 C 1359.98 -1.28183 1.42944 0
M  V30 14253 O 1361.18 -1.88852 1.91281 0
M  V30 14254 C 1359.45 -0.0357764 3.57382 0
M  V30 14255 S 1361.01 -0.499194 4.35951 0
M  V30 14256 H 1357.83 0.0291355 0.710403 0
M  V30 14257 H 1360.43 0.754085 1.80371 0
M  V30 14258 H 1359.13 0.935578 3.99594 0
M  V30 14259 H 1358.66 -0.766177 3.85867 0
M  V30 14260 H 1360.68 -1.75732 4.6404 0
M  V30 14261 N 1359.85 -1.54672 0.302354 0
M  V30 14262 C 1360.78 -2.2653 -0.566265 0
M  V30 14263 C 1361.76 -1.26532 -1.13682 0
M  V30 14264 O 1362.95 -1.55307 -1.1659 0
M  V30 14265 C 1360.08 -3.00709 -1.73757 0
M  V30 14266 C 1359.03 -4.07865 -1.29731 0
M  V30 14267 C 1358.36 -4.69767 -2.55388 0
M  V30 14268 C 1359.66 -5.20547 -0.427567 0
M  V30 14269 H 1361.35 -2.99382 0.033071 0
M  V30 14270 H 1358.9 -1.4399 0.0173458 0
M  V30 14271 H 1360.85 -3.497 -2.35134 0
M  V30 14272 H 1359.58 -2.25437 -2.36317 0
M  V30 14273 H 1358.23 -3.59726 -0.706586 0
M  V30 14274 H 1357.88 -3.91134 -3.16265 0
M  V30 14275 H 1357.58 -5.42137 -2.26631 0
M  V30 14276 H 1359.11 -5.21521 -3.17566 0
M  V30 14277 H 1360.52 -5.65424 -0.947053 0
M  V30 14278 H 1358.92 -5.99645 -0.233704 0
M  V30 14279 H 1359.99 -4.81805 0.546993 0
M  V30 14280 N 1361.33 -0.0301034 -1.57571 0
M  V30 14281 C 1362.58 0.647042 -1.91462 0
M  V30 14282 C 1362.9 1.72612 -0.907206 0
M  V30 14283 O 1362.17 1.95833 0.0511268 0
M  V30 14284 H 1360.75 0.241988 -0.706718 0
M  V30 14285 H 1363.41 -0.0781385 -1.94743 0
M  V30 14286 H 1362.51 1.09915 -2.92105 0
M  V30 14287 N 1362.81 1.55714 0.243056 0
M  V30 14288 C 1363.74 1.93655 1.30461 0
M  V30 14289 C 1364.72 0.801968 1.50008 0
M  V30 14290 O 1365.9 1.06256 1.62552 0
M  V30 14291 C 1363.03 2.23459 2.65863 0
M  V30 14292 C 1361.99 3.39205 2.61006 0
M  V30 14293 C 1361.31 3.5456 4.00239 0
M  V30 14294 C 1362.61 4.74787 2.17656 0
M  V30 14295 H 1364.31 2.82575 0.98954 0
M  V30 14296 H 1361.85 1.35955 0.474572 0
M  V30 14297 H 1363.81 2.48591 3.40266 0
M  V30 14298 H 1362.53 1.31369 2.99014 0
M  V30 14299 H 1361.19 3.14088 1.89061 0
M  V30 14300 H 1360.84 2.59884 4.30661 0
M  V30 14301 H 1360.54 4.32399 3.97876 0
M  V30 14302 H 1362.06 3.82017 4.76335 0
M  V30 14303 H 1363.48 4.99266 2.81792 0
M  V30 14304 H 1361.87 5.55756 2.26397 0
M  V30 14305 H 1362.94 4.7159 1.12831 0
M  V30 14306 N 1364.29 -0.50888 1.49158 0
M  V30 14307 C 1365.51 -1.28771 1.61943 0
M  V30 14308 C 1365.93 -1.86594 0.287759 0
M  V30 14309 O 1365.29 -1.67448 -0.725769 0
M  V30 14310 C 1365.34 -2.4236 2.68224 0
M  V30 14311 O 1365.06 -1.86915 3.96225 0
M  V30 14312 C 1366.56 -3.33856 2.91642 0
M  V30 14313 H 1363.78 -0.390849 0.545416 0
M  V30 14314 H 1366.32 -0.611729 1.95136 0
M  V30 14315 H 1364.48 -3.05803 2.37831 0
M  V30 14316 H 1364.89 -2.61426 4.54705 0
M  V30 14317 H 1366.37 -4.09856 3.69759 0
M  V30 14318 H 1366.84 -3.90374 2.01258 0
M  V30 14319 H 1367.45 -2.76187 3.23421 0
M  V30 14320 N 1365.76 -1.381 -0.759346 0
M  V30 14321 C 1366.67 -1.37086 -1.9038 0
M  V30 14322 C 1367.69 -0.268738 -1.71912 0
M  V30 14323 O 1368.87 -0.506205 -1.94935 0
M  V30 14324 C 1365.93 -1.18905 -3.25672 0
M  V30 14325 C 1364.99 -2.3887 -3.56707 0
M  V30 14326 C 1364.23 -2.21546 -4.85544 0
M  V30 14327 O 1364.45 -1.20616 -5.57501 0
M  V30 14328 O 1363.38 -3.10009 -5.15924 0
M  V30 14329 H 1367.21 -2.33505 -1.94188 0
M  V30 14330 H 1364.79 -1.18959 -0.903826 0
M  V30 14331 H 1366.68 -1.10803 -4.06572 0
M  V30 14332 H 1365.35 -0.255675 -3.22689 0
M  V30 14333 H 1364.26 -2.52546 -2.75992 0
M  V30 14334 H 1365.59 -3.30817 -3.64446 0
M  V30 14335 N 1367.24 0.986894 -1.22875 0
M  V30 14336 C 1368.21 2.0597 -1.00544 0
M  V30 14337 C 1369.21 1.60771 0.0303509 0
M  V30 14338 O 1370.4 1.72945 -0.208753 0
M  V30 14339 C 1367.53 3.36911 -0.519962 0
M  V30 14340 H 1368.72 2.27213 -1.9574 0
M  V30 14341 H 1366.27 1.15935 -1.04827 0
M  V30 14342 H 1367.01 3.21355 0.436078 0
M  V30 14343 H 1366.79 3.71054 -1.26732 0
M  V30 14344 H 1368.28 4.15829 -0.384166 0
M  V30 14345 N 1368.72 1.0394 1.18466 0
M  V30 14346 C 1369.65 0.587413 2.21545 0
M  V30 14347 C 1370.67 -0.34227 1.59161 0
M  V30 14348 O 1371.85 -0.136988 1.77974 0
M  V30 14349 C 1368.95 -0.161999 3.38513 0
M  V30 14350 C 1368.13 0.775243 4.30475 0
M  V30 14351 C 1367.19 0.0693526 5.26154 0
M  V30 14352 O 1366.21 0.69937 5.64887 0
M  V30 14353 N 1367.41 -1.19773 5.68009 0
M  V30 14354 H 1370.18 1.47399 2.60948 0
M  V30 14355 H 1367.74 0.919734 1.33239 0
M  V30 14356 H 1369.73 -0.644041 3.99542 0
M  V30 14357 H 1368.3 -0.950099 2.97812 0
M  V30 14358 H 1367.52 1.43717 3.67068 0
M  V30 14359 H 1368.81 1.41187 4.88819 0
M  V30 14360 H 1368.21 -1.73013 5.38593 0
M  V30 14361 H 1366.77 -1.62407 6.31243 0
M  V30 14362 N 1370.2 -1.34667 0.818693 0
M  V30 14363 C 1371.43 -2.02642 0.417608 0
M  V30 14364 C 1371.84 -1.61667 -0.97516 0
M  V30 14365 O 1371.2 -0.820056 -1.63038 0
M  V30 14366 C 1371.25 -3.57951 0.505295 0
M  V30 14367 O 1370.97 -3.97441 1.84317 0
M  V30 14368 C 1372.47 -4.4319 0.0985667 0
M  V30 14369 H 1369.69 -0.6496 0.168111 0
M  V30 14370 H 1372.24 -1.72032 1.10568 0
M  V30 14371 H 1370.39 -3.87166 -0.134646 0
M  V30 14372 H 1370.8 -4.92116 1.81444 0
M  V30 14373 H 1372.28 -5.51597 0.211015 0
M  V30 14374 H 1372.76 -4.28637 -0.95745 0
M  V30 14375 H 1373.36 -4.19295 0.71214 0
M  V30 14376 N 1371.68 -0.573274 -1.46804 0
M  V30 14377 C 1373.09 -0.23423 -1.57872 0
M  V30 14378 C 1373.29 1.26342 -1.56971 0
M  V30 14379 O 1372.35 2.04459 -1.48165 0
M  V30 14380 C 1373.66 -0.875097 -2.87685 0
M  V30 14381 C 1375.21 -0.847812 -3.01299 0
M  V30 14382 C 1375.68 -1.46804 -4.33835 0
M  V30 14383 N 1377.18 -1.43196 -4.4051 0
M  V30 14384 C 1377.91 -1.88133 -5.41658 0
M  V30 14385 N 1377.41 -2.41001 -6.49531 0
M  V30 14386 N 1379.2 -1.79107 -5.32801 0
M  V30 14387 H 1371.35 -1.54612 -1.45633 0
M  V30 14388 H 1373.61 -0.645703 -0.694098 0
M  V30 14389 H 1373.32 -1.92826 -2.94127 0
M  V30 14390 H 1373.19 -0.377671 -3.75305 0
M  V30 14391 H 1375.58 0.196707 -2.94444 0
M  V30 14392 H 1375.66 -1.38316 -2.1518 0
M  V30 14393 H 1375.31 -2.51171 -4.41447 0
M  V30 14394 H 1375.24 -0.908 -5.18713 0
M  V30 14395 H 1377.73 -1.04541 -3.63152 0
M  V30 14396 H 1378.04 -2.73172 -7.22908 0
M  V30 14397 H 1376.38 -2.45021 -6.50377 0
M  V30 14398 H 1379.58 -1.37569 -4.47429 0
M  V30 14399 H 1379.75 -2.14445 -6.11488 0
M  V30 14400 N 1373.15 1.5451 -0.310553 0
M  V30 14401 C 1374.06 2.27557 0.570518 0
M  V30 14402 C 1375.08 1.31426 1.14032 0
M  V30 14403 O 1376.26 1.64423 1.16306 0
M  V30 14404 C 1373.32 3.00933 1.72163 0
M  V30 14405 C 1372.38 4.12623 1.18495 0
M  V30 14406 C 1371.62 4.8249 2.28121 0
M  V30 14407 O 1371.84 4.5178 3.48211 0
M  V30 14408 O 1370.77 5.69686 1.94273 0
M  V30 14409 H 1374.6 3.03692 -0.0223195 0
M  V30 14410 H 1372.18 1.49203 -0.0766821 0
M  V30 14411 H 1374.07 3.46925 2.39208 0
M  V30 14412 H 1372.74 2.27685 2.3009 0
M  V30 14413 H 1371.65 3.71008 0.479956 0
M  V30 14414 H 1372.98 4.87876 0.650994 0
M  V30 14415 N 1374.63 0.0384594 1.57553 0
M  V30 14416 C 1375.56 -0.938444 2.13812 0
M  V30 14417 C 1376.54 -1.33307 1.05657 0
M  V30 14418 O 1377.73 -1.41003 1.33535 0
M  V30 14419 C 1374.86 -2.21764 2.67279 0
M  V30 14420 C 1373.81 -1.96347 3.80305 0
M  V30 14421 C 1373.14 -3.30612 4.20238 0
M  V30 14422 C 1374.44 -1.2952 5.05986 0
M  V30 14423 H 1376.13 -0.469887 2.9569 0
M  V30 14424 H 1373.68 -0.224576 1.42238 0
M  V30 14425 H 1375.63 -2.90493 3.05273 0
M  V30 14426 H 1374.36 -2.70802 1.82576 0
M  V30 14427 H 1373.02 -1.30033 3.42764 0
M  V30 14428 H 1372.66 -3.77427 3.32502 0
M  V30 14429 H 1372.36 -3.14409 4.96408 0
M  V30 14430 H 1373.89 -4.00594 4.60822 0
M  V30 14431 H 1375.3 -1.88264 5.41507 0
M  V30 14432 H 1373.7 -1.23685 5.87216 0
M  V30 14433 H 1374.77 -0.269439 4.84151 0
M  V30 14434 N 1376.11 -1.55841 -0.234795 0
M  V30 14435 C 1377.53 -1.48536 -0.583885 0
M  V30 14436 C 1377.73 -0.731018 -1.87772 0
M  V30 14437 O 1376.78 -0.265287 -2.51103 0
M  V30 14438 C 1378.1 -2.93017 -0.675389 0
M  V30 14439 C 1379.64 -3.03459 -0.766906 0
M  V30 14440 C 1380.12 -4.49272 -0.889868 0
M  V30 14441 N 1381.61 -4.5326 -0.95443 0
M  V30 14442 C 1382.35 -5.63346 -1.06905 0
M  V30 14443 N 1381.84 -6.83215 -1.14845 0
M  V30 14444 N 1383.63 -5.51169 -1.10315 0
M  V30 14445 H 1375.79 -2.0332 0.614405 0
M  V30 14446 H 1378.05 -0.923581 0.213779 0
M  V30 14447 H 1377.75 -3.51099 0.205493 0
M  V30 14448 H 1377.63 -3.4418 -1.54337 0
M  V30 14449 H 1380.02 -2.4545 -1.63823 0
M  V30 14450 H 1380.1 -2.55487 0.126472 0
M  V30 14451 H 1379.74 -5.07895 -0.0230489 0
M  V30 14452 H 1379.67 -4.94937 -1.79847 0
M  V30 14453 H 1382.16 -3.6693 -0.903923 0
M  V30 14454 H 1382.47 -7.62863 -1.23532 0
M  V30 14455 H 1380.82 -6.85952 -1.11781 0
M  V30 14456 H 1384.01 -4.56453 -1.03769 0
M  V30 14457 H 1384.18 -6.36998 -1.18903 0
M  V30 14458 N 1377.59 0.500963 -1.49426 0
M  V30 14459 C 1378.52 1.61114 -1.69011 0
M  V30 14460 C 1379.5 1.61341 -0.538813 0
M  V30 14461 O 1380.69 1.78081 -0.77466 0
M  V30 14462 C 1377.82 2.99598 -1.75666 0
M  V30 14463 C 1376.77 3.14236 -2.90585 0
M  V30 14464 C 1376.1 4.54071 -2.82354 0
M  V30 14465 C 1377.4 2.94258 -4.3152 0
M  V30 14466 H 1379.09 1.44978 -2.61957 0
M  V30 14467 H 1376.64 0.69603 -1.26061 0
M  V30 14468 H 1378.59 3.77163 -1.87953 0
M  V30 14469 H 1377.31 3.16822 -0.793186 0
M  V30 14470 H 1375.97 2.39096 -2.779 0
M  V30 14471 H 1375.62 4.68172 -1.83914 0
M  V30 14472 H 1375.32 4.64806 -3.59485 0
M  V30 14473 H 1376.84 5.33696 -2.96649 0
M  V30 14474 H 1378.26 3.61592 -4.44886 0
M  V30 14475 H 1376.65 3.16464 -5.09873 0
M  V30 14476 H 1377.72 1.90383 -4.45962 0
M  V30 14477 N 1379.07 1.38501 0.752011 0
M  V30 14478 C 1380.01 1.35857 1.86578 0
M  V30 14479 C 1380.98 0.220873 1.64625 0
M  V30 14480 O 1382.17 0.413348 1.86269 0
M  V30 14481 C 1379.31 1.19102 3.23896 0
M  V30 14482 C 1378.42 2.42272 3.5767 0
M  V30 14483 C 1377.56 2.18236 4.843 0
M  V30 14484 C 1376.6 3.37169 5.10865 0
M  V30 14485 N 1375.73 3.12558 6.28691 0
M  V30 14486 H 1380.57 2.31073 1.88173 0
M  V30 14487 H 1378.11 1.14803 0.919712 0
M  V30 14488 H 1380.07 1.07404 4.03138 0
M  V30 14489 H 1378.7 0.275243 3.21624 0
M  V30 14490 H 1377.75 2.64638 2.7326 0
M  V30 14491 H 1379.06 3.3091 3.73229 0
M  V30 14492 H 1378.22 2.03682 5.71488 0
M  V30 14493 H 1376.96 1.26966 4.70883 0
M  V30 14494 H 1375.96 3.52241 4.22145 0
M  V30 14495 H 1377.19 4.29317 5.26178 0
M  V30 14496 H 1375.13 2.23937 6.16594 0
M  V30 14497 H 1375.05 3.94746 6.44757 0
M  V30 14498 H 1376.32 3.01663 7.18763 0
M  V30 14499 N 1380.55 -0.980364 1.23396 0
M  V30 14500 C 1381.49 -2.07275 1.01516 0
M  V30 14501 C 1382.46 -1.65963 -0.0673729 0
M  V30 14502 O 1383.65 -1.90612 0.0847392 0
M  V30 14503 C 1380.79 -3.39621 0.61249 0
M  V30 14504 C 1379.9 -3.94203 1.76715 0
M  V30 14505 C 1379.04 -5.14761 1.31126 0
M  V30 14506 C 1378.07 -5.61509 2.43667 0
M  V30 14507 N 1377.21 -6.73297 1.99035 0
M  V30 14508 H 1382.05 -2.25325 1.9502 0
M  V30 14509 H 1379.59 -1.10452 0.971532 0
M  V30 14510 H 1381.55 -4.15643 0.360126 0
M  V30 14511 H 1380.18 -3.21535 -0.285539 0
M  V30 14512 H 1379.23 -3.14937 2.13352 0
M  V30 14513 H 1380.54 -4.24867 2.61323 0
M  V30 14514 H 1379.69 -5.98115 1.01702 0
M  V30 14515 H 1378.43 -4.85751 0.435555 0
M  V30 14516 H 1377.44 -4.76737 2.73865 0
M  V30 14517 H 1378.66 -5.92539 3.31774 0
M  V30 14518 H 1376.61 -6.46046 1.13845 0
M  V30 14519 H 1376.53 -7.03345 2.77203 0
M  V30 14520 H 1377.79 -7.60125 1.72716 0
M  V30 14521 N 1382.02 -1.04567 -1.17913 0
M  V30 14522 C 1382.97 -0.634939 -2.23766 0
M  V30 14523 C 1383.97 0.340723 -1.65938 0
M  V30 14524 O 1385.17 0.207467 -1.788 0
M  V30 14525 H 1381.55 -0.187129 -0.728345 0
M  V30 14526 H 1383.52 -1.53798 -2.55712 0
M  V30 14527 C 1382.27 -0.0190662 -3.47695 0
M  V30 14528 H 1381.59 -0.760881 -3.92493 0
M  V30 14529 H 1383.03 0.231035 -4.2337 0
M  V30 14530 C 1381.49 1.23246 -3.13548 0
M  V30 14531 O 1382.02 2.32262 -3.27746 0
M  V30 14532 N 1380.22 1.12768 -2.67828 0
M  V30 14533 H 1379.77 0.240547 -2.56474 0
M  V30 14534 H 1379.73 1.96594 -2.45353 0
M  V30 14535 N 1383.5 1.34231 -0.825823 0
M  V30 14536 C 1384.75 1.97454 -0.411661 0
M  V30 14537 C 1385.06 1.66193 1.03147 0
M  V30 14538 O 1386.27 2.22929 1.54968 0
M  V30 14539 C 1384.73 3.53318 -0.685145 0
M  V30 14540 C 1384.33 3.9347 -2.14208 0
M  V30 14541 C 1386.08 4.23158 -0.337291 0
M  V30 14542 C 1383.98 5.42258 -2.3603 0
M  V30 14543 H 1382.91 0.738889 -0.150196 0
M  V30 14544 H 1385.57 1.53033 -1.01258 0
M  V30 14545 H 1383.95 3.95998 -0.0140178 0
M  V30 14546 H 1385.12 3.61888 -2.85261 0
M  V30 14547 H 1383.44 3.36575 -2.45165 0
M  V30 14548 H 1386.03 5.32558 -0.47813 0
M  V30 14549 H 1386.38 4.10053 0.718499 0
M  V30 14550 H 1386.91 3.85965 -0.963113 0
M  V30 14551 H 1383.65 5.60352 -3.40126 0
M  V30 14552 H 1383.17 5.75345 -1.69524 0
M  V30 14553 H 1384.85 6.08976 -2.18533 0
M  V30 14554 N 1384.98 0.581051 1.46498 0
M  V30 14555 C 1385.93 -0.174031 2.27335 0
M  V30 14556 C 1386.91 -0.863391 1.35773 0
M  V30 14557 O 1388.11 -0.75776 1.59959 0
M  V30 14558 C 1385.23 -1.18814 3.22084 0
M  V30 14559 C 1384.32 -0.500978 4.21131 0
M  V30 14560 N 1384.71 0.442495 5.03861 0
M  V30 14561 C 1383.01 -0.751932 4.39616 0
M  V30 14562 C 1383.71 0.843944 5.75545 0
M  V30 14563 N 1382.69 0.19346 5.43256 0
M  V30 14564 H 1386.49 0.551004 2.88689 0
M  V30 14565 H 1384 0.402722 1.57327 0
M  V30 14566 H 1386 -1.74325 3.78703 0
M  V30 14567 H 1384.66 -1.91401 2.62289 0
M  V30 14568 H 1385.67 0.817931 5.114 0
M  V30 14569 H 1382.35 -1.46451 3.90971 0
M  V30 14570 H 1383.74 1.62058 6.52063 0
M  V30 14571 N 1386.46 -1.54343 0.318742 0
M  V30 14572 C 1387.87 -1.85922 -0.170309 0
M  V30 14573 C 1388.22 -1.24047 -1.52009 0
M  V30 14574 O 1387.34 -0.544705 -2.09432 0
M  V30 14575 C 1387.94 -3.37325 -0.315802 0
M  V30 14576 C 1386.5 -3.68871 -0.749073 0
M  V30 14577 C 1385.65 -2.76985 0.13209 0
M  V30 14578 H 1388.6 -1.4926 0.539185 0
M  V30 14579 H 1388.62 -3.62784 -1.14751 0
M  V30 14580 H 1388.13 -3.8233 0.66674 0
M  V30 14581 H 1386.23 -3.29396 -1.74153 0
M  V30 14582 H 1386.34 -4.75861 -0.556164 0
M  V30 14583 H 1384.71 -2.51672 -0.391564 0
M  V30 14584 H 1385.49 -3.24815 1.11131 0
M  V30 14585 N 1387.94 -0.0468143 -1.5753 0
M  V30 14586 C 1389.18 0.62299 -1.93624 0
M  V30 14587 C 1389.54 1.68708 -0.924955 0
M  V30 14588 O 1388.83 1.91517 0.0565039 0
M  V30 14589 C 1389.02 1.26669 -3.342 0
M  V30 14590 C 1388.85 0.266476 -4.4891 0
M  V30 14591 C 1387.62 -0.139995 -5.05106 0
M  V30 14592 C 1389.82 -0.48636 -5.11995 0
M  V30 14593 N 1387.8 -1.13352 -6.03344 0
M  V30 14594 C 1389.17 -1.3331 -6.05498 0
M  V30 14595 C 1391.23 -0.545145 -4.94907 0
M  V30 14596 C 1389.93 -2.23336 -6.8375 0
M  V30 14597 C 1391.96 -1.43281 -5.73781 0
M  V30 14598 C 1391.32 -2.26729 -6.66913 0
M  V30 14599 H 1387.42 0.199745 -0.756059 0
M  V30 14600 H 1390 -0.118128 -1.94341 0
M  V30 14601 H 1388.17 1.97785 -3.34269 0
M  V30 14602 H 1389.91 1.89494 -3.57595 0
M  V30 14603 H 1386.66 0.238079 -4.73001 0
M  V30 14604 H 1387.08 -1.62705 -6.57157 0
M  V30 14605 H 1391.73 0.0857851 -4.22713 0
M  V30 14606 H 1389.44 -2.87476 -7.55237 0
M  V30 14607 H 1393.03 -1.48281 -5.62587 0
M  V30 14608 H 1391.91 -2.94302 -7.26881 0
M  V30 14609 N 1389.41 1.55964 0.226527 0
M  V30 14610 C 1390.66 1.7901 0.95306 0
M  V30 14611 C 1390.99 0.615608 1.84184 0
M  V30 14612 O 1390.27 -0.385341 1.90645 0
M  V30 14613 C 1390.55 3.12101 1.79624 0
M  V30 14614 C 1390.4 4.3999 0.934286 0
M  V30 14615 C 1391.72 3.4159 2.77496 0
M  V30 14616 H 1388.84 0.651236 0.345052 0
M  V30 14617 H 1391.48 1.88696 0.222236 0
M  V30 14618 H 1389.63 3.03975 2.41933 0
M  V30 14619 H 1391.31 4.6013 0.328328 0
M  V30 14620 H 1389.55 4.33138 0.239487 0
M  V30 14621 H 1390.22 5.29541 1.55853 0
M  V30 14622 H 1392.7 3.49812 2.25323 0
M  V30 14623 H 1391.57 4.35894 3.33599 0
M  V30 14624 H 1391.83 2.6351 3.54986 0
M  V30 14625 N 1390.89 -0.493031 1.4969 0
M  V30 14626 C 1391.84 -1.59367 1.66945 0
M  V30 14627 C 1392.81 -1.58049 0.510842 0
M  V30 14628 O 1393.99 -1.75915 0.738822 0
M  V30 14629 C 1391.13 -2.97472 1.74941 0
M  V30 14630 C 1390.25 -3.08745 3.02159 0
M  V30 14631 C 1389.38 -4.37632 3.01085 0
M  V30 14632 C 1388.42 -4.42567 4.22849 0
M  V30 14633 N 1387.56 -5.62892 4.19639 0
M  V30 14634 H 1392.4 -1.4396 2.6092 0
M  V30 14635 H 1389.94 -0.700297 1.29361 0
M  V30 14636 H 1391.89 -3.7753 1.77558 0
M  V30 14637 H 1390.52 -3.11564 0.844252 0
M  V30 14638 H 1389.58 -2.217 3.09117 0
M  V30 14639 H 1390.89 -3.08251 3.92151 0
M  V30 14640 H 1390.04 -5.26018 3.02309 0
M  V30 14641 H 1388.78 -4.40702 2.08885 0
M  V30 14642 H 1387.79 -3.52581 4.21861 0
M  V30 14643 H 1389.01 -4.41205 5.1625 0
M  V30 14644 H 1386.96 -5.6679 3.30281 0
M  V30 14645 H 1386.87 -5.64048 5.03374 0
M  V30 14646 H 1388.14 -6.53464 4.24977 0
M  V30 14647 N 1392.37 -1.38898 -0.744656 0
M  V30 14648 C 1393.3 -1.32739 -1.8685 0
M  V30 14649 C 1394.32 -0.23793 -1.61052 0
M  V30 14650 O 1395.5 -0.496166 -1.71466 0
M  V30 14651 C 1392.6 -1.03602 -3.22676 0
M  V30 14652 C 1391.78 -2.23634 -3.75908 0
M  V30 14653 C 1390.84 -1.91103 -4.90271 0
M  V30 14654 O 1389.86 -2.6369 -5.04437 0
M  V30 14655 N 1391.06 -0.871358 -5.73923 0
M  V30 14656 H 1393.83 -2.29585 -1.92641 0
M  V30 14657 H 1391.39 -1.32875 -0.924979 0
M  V30 14658 H 1393.38 -0.798755 -3.96739 0
M  V30 14659 H 1391.95 -0.155218 -3.12214 0
M  V30 14660 H 1391.17 -2.63371 -2.93307 0
M  V30 14661 H 1392.46 -3.0372 -4.08205 0
M  V30 14662 H 1391.86 -0.269591 -5.65057 0
M  V30 14663 H 1390.42 -0.693984 -6.48095 0
M  V30 14664 N 1393.85 0.973806 -1.23914 0
M  V30 14665 C 1395.1 1.71027 -1.06923 0
M  V30 14666 C 1395.41 1.91612 0.392947 0
M  V30 14667 O 1396.62 2.62771 0.682927 0
M  V30 14668 C 1395.07 3.07811 -1.86496 0
M  V30 14669 C 1394.68 2.9509 -3.37085 0
M  V30 14670 C 1396.42 3.85371 -1.78015 0
M  V30 14671 C 1394.33 4.27145 -4.09024 0
M  V30 14672 H 1393.26 0.641329 -0.396501 0
M  V30 14673 H 1395.91 1.08562 -1.47941 0
M  V30 14674 H 1394.29 3.71069 -1.38288 0
M  V30 14675 H 1395.47 2.4088 -3.92827 0
M  V30 14676 H 1393.78 2.30999 -3.46451 0
M  V30 14677 H 1396.38 4.83147 -2.2907 0
M  V30 14678 H 1396.72 4.09594 -0.744196 0
M  V30 14679 H 1397.26 3.28827 -2.23869 0
M  V30 14680 H 1394 4.08117 -5.12953 0
M  V30 14681 H 1393.52 4.81194 -3.58068 0
M  V30 14682 H 1395.19 4.95798 -4.15685 0
M  V30 14683 N 1395.33 1.05191 1.17357 0
M  V30 14684 C 1396.6 0.675826 1.83554 0
M  V30 14685 C 1396.98 -0.843812 1.93502 0
M  V30 14686 O 1396.33 -1.74975 1.46956 0
M  V30 14687 C 1396.54 1.36481 3.21207 0
M  V30 14688 C 1397.89 1.50285 3.97114 0
M  V30 14689 O 1398.91 1.32382 3.30686 0
M  V30 14690 O 1397.77 1.79562 5.16159 0
M  V30 14691 H 1394.87 0.237898 0.792044 0
M  V30 14692 H 1397.41 1.1515 1.24654 0
M  V30 14693 H 1396.18 2.40156 3.08935 0
M  V30 14694 H 1395.81 0.878491 3.87774 0
M  V30 14695 N 1396.8 -1.33791 0.83293 0
M  V30 14696 C 1398.03 -2.02187 0.439077 0
M  V30 14697 C 1398.45 -1.62692 -0.957958 0
M  V30 14698 O 1397.8 -0.837302 -1.62159 0
M  V30 14699 C 1397.86 -3.57395 0.543232 0
M  V30 14700 O 1397.58 -3.95463 1.88522 0
M  V30 14701 C 1399.08 -4.43061 0.145567 0
M  V30 14702 H 1396.3 -0.64778 0.174992 0
M  V30 14703 H 1398.84 -1.7085 1.12386 0
M  V30 14704 H 1397 -3.87287 -0.0935746 0
M  V30 14705 H 1397.41 -4.90164 1.86653 0
M  V30 14706 H 1398.88 -5.51342 0.269507 0
M  V30 14707 H 1399.36 -4.29628 -0.911934 0
M  V30 14708 H 1399.97 -4.18517 0.756572 0
M  V30 14709 N 1398.28 -0.588812 -1.46187 0
M  V30 14710 C 1399.21 0.128595 -2.33146 0
M  V30 14711 C 1400.19 0.877608 -1.45712 0
M  V30 14712 O 1401.38 0.851866 -1.74519 0
M  V30 14713 C 1398.51 1.13886 -3.28096 0
M  V30 14714 C 1397.46 0.504296 -4.25019 0
M  V30 14715 C 1396.79 1.62147 -5.09522 0
M  V30 14716 C 1398.09 -0.562466 -5.19263 0
M  V30 14717 H 1399.78 -0.597455 -2.93378 0
M  V30 14718 H 1397.33 -0.288764 -1.41075 0
M  V30 14719 H 1399.28 1.64916 -3.8779 0
M  V30 14720 H 1398.01 1.89527 -2.65983 0
M  V30 14721 H 1396.66 0.0150325 -3.66597 0
M  V30 14722 H 1396.31 2.36769 -4.4379 0
M  V30 14723 H 1396.01 1.20249 -5.75164 0
M  V30 14724 H 1397.54 2.13441 -5.7208 0
M  V30 14725 H 1398.95 -0.137003 -5.73136 0
M  V30 14726 H 1397.35 -0.902115 -5.93281 0
M  V30 14727 H 1398.42 -1.4464 -4.62825 0
M  V30 14728 N 1399.76 1.54172 -0.326923 0
M  V30 14729 C 1400.72 2.2311 0.524855 0
M  V30 14730 C 1401.72 1.22567 1.04087 0
M  V30 14731 O 1402.91 1.47123 0.932759 0
M  V30 14732 C 1400.05 2.93778 1.72937 0
M  V30 14733 H 1401.24 2.99799 -0.0778327 0
M  V30 14734 H 1398.79 1.56105 -0.0780484 0
M  V30 14735 H 1399.53 2.21234 2.3712 0
M  V30 14736 H 1399.31 3.67509 1.36674 0
M  V30 14737 H 1400.8 3.46292 2.33392 0
M  V30 14738 N 1401.24 0.0551678 1.57503 0
M  V30 14739 C 1402.2 -0.903065 2.10659 0
M  V30 14740 C 1403.2 -1.23728 1.02703 0
M  V30 14741 O 1404.39 -1.17331 1.2876 0
M  V30 14742 C 1401.52 -2.21171 2.59415 0
M  V30 14743 H 1402.72 -0.442197 2.96622 0
M  V30 14744 H 1400.27 -0.193297 1.551 0
M  V30 14745 H 1401 -2.71831 1.76858 0
M  V30 14746 H 1400.79 -1.98216 3.38309 0
M  V30 14747 H 1402.28 -2.89802 3.00674 0
M  V30 14748 N 1402.72 -1.56081 -0.218252 0
M  V30 14749 C 1403.63 -1.95856 -1.29141 0
M  V30 14750 C 1404.64 -0.862857 -1.51099 0
M  V30 14751 O 1405.82 -1.1667 -1.64165 0
M  V30 14752 C 1402.88 -2.27005 -2.62049 0
M  V30 14753 C 1401.94 -3.50162 -2.48365 0
M  V30 14754 C 1401.18 -3.79815 -3.74935 0
M  V30 14755 O 1401.4 -3.11095 -4.78096 0
M  V30 14756 O 1400.33 -4.73299 -3.71849 0
M  V30 14757 H 1404.16 -2.8732 -0.983922 0
M  V30 14758 H 1401.75 -1.43334 -0.421385 0
M  V30 14759 H 1403.63 -2.4822 -3.40536 0
M  V30 14760 H 1402.3 -1.38715 -2.92472 0
M  V30 14761 H 1401.21 -3.34222 -1.68066 0
M  V30 14762 H 1402.54 -4.38845 -2.22881 0
M  V30 14763 N 1404.2 0.485086 -1.49949 0
M  V30 14764 C 1405.43 1.25996 -1.63733 0
M  V30 14765 C 1405.83 1.8657 -0.31435 0
M  V30 14766 O 1405.18 1.69336 0.71211 0
M  V30 14767 C 1405.24 2.41842 -2.65994 0
M  V30 14768 C 1404.9 2.02014 -4.09926 0
M  V30 14769 C 1405.9 1.55068 -4.96236 0
M  V30 14770 C 1403.58 2.11162 -4.55759 0
M  V30 14771 C 1405.58 1.17796 -6.26421 0
M  V30 14772 C 1403.27 1.73501 -5.85953 0
M  V30 14773 C 1404.26 1.26894 -6.71109 0
M  V30 14774 O 1403.95 0.89749 -7.98874 0
M  V30 14775 H 1403.68 0.387743 -0.553743 0
M  V30 14776 H 1406.24 0.5871 -1.96831 0
M  V30 14777 H 1404.47 3.12254 -2.2811 0
M  V30 14778 H 1406.16 3.03837 -2.69143 0
M  V30 14779 H 1406.92 1.47434 -4.62048 0
M  V30 14780 H 1402.8 2.46389 -3.89633 0
M  V30 14781 H 1406.35 0.813467 -6.92841 0
M  V30 14782 H 1402.24 1.8079 -6.19665 0
M  V30 14783 H 1403.01 1.02757 -8.12024 0
M  V30 14784 N 1405.67 1.39291 0.737279 0
M  V30 14785 C 1407.08 1.32489 1.31543 0
M  V30 14786 C 1407.44 -0.0118162 1.96196 0
M  V30 14787 O 1406.56 -0.913938 1.96153 0
M  V30 14788 C 1407.16 2.39946 2.39189 0
M  V30 14789 C 1405.71 2.36671 2.92684 0
M  V30 14790 C 1404.86 2.21953 1.66229 0
M  V30 14791 H 1407.81 1.49412 0.534954 0
M  V30 14792 H 1407.83 2.06603 3.19524 0
M  V30 14793 H 1407.35 3.3722 1.92104 0
M  V30 14794 H 1405.45 1.43028 3.44055 0
M  V30 14795 H 1405.56 3.31441 3.45953 0
M  V30 14796 H 1403.92 1.69087 1.90478 0
M  V30 14797 H 1404.71 3.21194 1.21199 0
M  V30 14798 N 1407.15 -0.967221 1.24429 0
M  V30 14799 C 1408.38 -1.75053 1.11226 0
M  V30 14800 C 1408.8 -1.85162 -0.331139 0
M  V30 14801 O 1408.16 -1.32288 -1.23974 0
M  V30 14802 C 1408.21 -3.14882 1.75733 0
M  V30 14803 O 1407.31 -3.99371 1.02842 0
M  V30 14804 H 1406.65 -0.538078 0.389061 0
M  V30 14805 H 1409.18 -1.21325 1.64746 0
M  V30 14806 H 1409.19 -3.65402 1.81509 0
M  V30 14807 H 1407.87 -3.06839 2.80754 0
M  V30 14808 H 1406.44 -3.57854 1.04856 0
M  V30 14809 N 1408.63 -1.05812 -1.16797 0
M  V30 14810 C 1409.88 -0.773066 -1.87487 0
M  V30 14811 C 1410.21 0.698471 -1.81204 0
M  V30 14812 O 1409.48 1.51129 -1.22434 0
M  V30 14813 C 1409.77 -1.2621 -3.37258 0
M  V30 14814 C 1409.62 -2.79704 -3.52258 0
M  V30 14815 C 1410.94 -0.866104 -4.31494 0
M  V30 14816 H 1408.06 -0.282304 -0.680789 0
M  V30 14817 H 1410.7 -1.3132 -1.37314 0
M  V30 14818 H 1408.85 -0.802608 -3.80119 0
M  V30 14819 H 1410.52 -3.33824 -3.1837 0
M  V30 14820 H 1408.76 -3.18673 -2.94329 0
M  V30 14821 H 1409.44 -3.08985 -4.57419 0
M  V30 14822 H 1411.91 -1.26178 -3.96508 0
M  V30 14823 H 1410.79 -1.23581 -5.34807 0
M  V30 14824 H 1411.05 0.229391 -4.41504 0
M  V30 14825 N 1410.11 1.33347 -0.840014 0
M  V30 14826 C 1411.34 2.01952 -0.449793 0
M  V30 14827 C 1411.75 1.63197 0.949317 0
M  V30 14828 O 1411.11 0.84589 1.61713 0
M  V30 14829 C 1411.16 3.57102 -0.562178 0
M  V30 14830 O 1410.88 3.94458 -1.90616 0
M  V30 14831 C 1412.38 4.42978 -0.169062 0
M  V30 14832 H 1409.6 0.646843 -0.178425 0
M  V30 14833 H 1412.14 1.70251 -1.1329 0
M  V30 14834 H 1410.3 3.87331 0.0730345 0
M  V30 14835 H 1410.71 4.89167 -1.8925 0
M  V30 14836 H 1412.19 5.51191 -0.298742 0
M  V30 14837 H 1412.66 4.30106 0.889137 0
M  V30 14838 H 1413.27 4.18109 -0.778756 0
M  V30 14839 N 1411.59 0.596556 1.45873 0
M  V30 14840 C 1412.53 -0.141327 2.3217 0
M  V30 14841 C 1413.53 -0.870652 1.45314 0
M  V30 14842 O 1414.73 -0.787469 1.61861 0
M  V30 14843 H 1411.11 -0.0644404 0.749234 0
M  V30 14844 H 1413.08 0.605115 2.922 0
M  V30 14845 C 1411.83 -1.13261 3.28736 0
M  V30 14846 H 1411.15 -0.580835 3.95558 0
M  V30 14847 H 1412.59 -1.61904 3.91871 0
M  V30 14848 C 1411.05 -2.20062 2.55097 0
M  V30 14849 O 1411.58 -3.27634 2.3242 0
M  V30 14850 N 1409.79 -1.95044 2.15421 0
M  V30 14851 H 1409.33 -1.07573 2.34064 0
M  V30 14852 H 1409.29 -2.66711 1.66472 0
M  V30 14853 N 1413.06 -1.53996 0.335095 0
M  V30 14854 C 1414.29 -2.0489 -0.265245 0
M  V30 14855 C 1414.7 -1.21024 -1.4543 0
M  V30 14856 O 1414.04 -0.236417 -1.82172 0
M  V30 14857 C 1414.11 -3.51546 -0.752018 0
M  V30 14858 C 1413.77 -4.55904 0.316261 0
M  V30 14859 C 1414.77 -5.06881 1.15617 0
M  V30 14860 C 1412.45 -5.00117 0.467762 0
M  V30 14861 C 1414.45 -6.00644 2.13321 0
M  V30 14862 C 1412.13 -5.93692 1.4482 0
M  V30 14863 C 1413.13 -6.43842 2.27938 0
M  V30 14864 O 1412.82 -7.35578 3.24315 0
M  V30 14865 H 1412.55 -0.673631 -0.0565427 0
M  V30 14866 H 1415.11 -1.99646 0.482771 0
M  V30 14867 H 1413.34 -3.54227 -1.55114 0
M  V30 14868 H 1415.02 -3.85455 -1.27197 0
M  V30 14869 H 1415.79 -4.73494 1.05017 0
M  V30 14870 H 1411.67 -4.60689 -0.169338 0
M  V30 14871 H 1415.21 -6.39711 2.78236 0
M  V30 14872 H 1411.11 -6.26495 1.5548 0
M  V30 14873 H 1411.88 -7.53487 3.19688 0
M  V30 14874 N 1414.54 -0.0635198 -1.57472 0
M  V30 14875 C 1415.47 0.90431 -2.15278 0
M  V30 14876 C 1416.45 1.31609 -1.07764 0
M  V30 14877 O 1417.64 1.38861 -1.35762 0
M  V30 14878 C 1414.77 2.17483 -2.70774 0
M  V30 14879 C 1413.72 1.90272 -3.8338 0
M  V30 14880 C 1413.05 3.23885 -4.25444 0
M  V30 14881 C 1414.35 1.21454 -5.07983 0
M  V30 14882 H 1416.04 0.422786 -2.964 0
M  V30 14883 H 1413.59 0.201918 -1.42577 0
M  V30 14884 H 1415.54 2.856 -3.09856 0
M  V30 14885 H 1414.26 2.67863 -1.86861 0
M  V30 14886 H 1412.92 1.24564 -3.44789 0
M  V30 14887 H 1412.57 3.72089 -3.38465 0
M  V30 14888 H 1412.27 3.06472 -5.01347 0
M  V30 14889 H 1413.8 3.93212 -4.67137 0
M  V30 14890 H 1415.21 1.79625 -5.44433 0
M  V30 14891 H 1413.61 1.14327 -5.89109 0
M  V30 14892 H 1414.68 0.19238 -4.84518 0
M  V30 14893 N 1416.02 1.56195 0.209972 0
M  V30 14894 C 1417.25 1.83574 0.947852 0
M  V30 14895 C 1417.66 0.641947 1.77977 0
M  V30 14896 O 1417 -0.398794 1.79319 0
M  V30 14897 C 1417.06 3.0485 1.90543 0
M  V30 14898 C 1416.73 4.39375 1.25692 0
M  V30 14899 C 1417.72 5.15932 0.641107 0
M  V30 14900 C 1415.41 4.86104 1.26522 0
M  V30 14901 C 1417.4 6.37386 0.0422484 0
M  V30 14902 C 1415.09 6.07498 0.662523 0
M  V30 14903 C 1416.09 6.8298 0.0521007 0
M  V30 14904 O 1415.78 8.02076 -0.541192 0
M  V30 14905 H 1415.51 0.614001 0.282805 0
M  V30 14906 H 1418.06 2.04144 0.226767 0
M  V30 14907 H 1416.29 2.80127 2.66582 0
M  V30 14908 H 1417.98 3.19001 2.50984 0
M  V30 14909 H 1418.75 4.80931 0.626938 0
M  V30 14910 H 1414.63 4.27318 1.72974 0
M  V30 14911 H 1418.17 6.96244 -0.434823 0
M  V30 14912 H 1414.07 6.4197 0.674144 0
M  V30 14913 H 1414.83 8.17335 -0.43664 0
M  V30 14914 N 1417.5 -0.477127 1.50204 0
M  V30 14915 C 1418.74 -1.23147 1.6113 0
M  V30 14916 C 1419.08 -1.91743 0.307909 0
M  V30 14917 O 1418.35 -1.81841 -0.690223 0
M  V30 14918 C 1418.63 -2.27985 2.78738 0
M  V30 14919 C 1418.49 -1.63733 4.18941 0
M  V30 14920 C 1419.81 -3.29349 2.9192 0
M  V30 14921 H 1416.93 -0.446358 0.586459 0
M  V30 14922 H 1419.57 -0.52612 1.8257 0
M  V30 14923 H 1417.72 -2.88143 2.60588 0
M  V30 14924 H 1419.39 -1.07218 4.48667 0
M  V30 14925 H 1417.63 -0.940634 4.23479 0
M  V30 14926 H 1418.3 -2.39888 4.9715 0
M  V30 14927 H 1420.78 -2.79208 3.08516 0
M  V30 14928 H 1419.66 -4.0004 3.75845 0
M  V30 14929 H 1419.92 -3.93111 2.02278 0
M  V30 14930 N 1418.98 -1.3968 -0.729882 0
M  V30 14931 C 1420.2 -1.40467 -1.5191 0
M  V30 14932 C 1420.62 -0.000529943 -1.888 0
M  V30 14933 O 1419.98 0.972072 -1.54457 0
M  V30 14934 C 1420.03 -2.2823 -2.80345 0
M  V30 14935 O 1419.75 -3.63176 -2.4502 0
M  V30 14936 C 1421.25 -2.37455 -3.74339 0
M  V30 14937 H 1418.47 -0.479604 -0.469277 0
M  V30 14938 H 1421.01 -1.83558 -0.901484 0
M  V30 14939 H 1419.17 -1.88538 -3.38426 0
M  V30 14940 H 1419.58 -4.0964 -3.2756 0
M  V30 14941 H 1421.06 -3.031 -4.6134 0
M  V30 14942 H 1421.53 -1.39525 -4.16449 0
M  V30 14943 H 1422.14 -2.77638 -3.22176 0
M  V30 14944 N 1420.45 0.960609 -1.2494 0
M  V30 14945 C 1421.68 1.73676 -1.11894 0
M  V30 14946 C 1422.09 1.86288 0.330648 0
M  V30 14947 O 1421.44 1.35575 1.23957 0
M  V30 14948 C 1421.5 3.17142 -1.69297 0
M  V30 14949 C 1421.16 3.27978 -3.18244 0
M  V30 14950 C 1422.16 3.12754 -4.15308 0
M  V30 14951 C 1419.84 3.51991 -3.5834 0
M  V30 14952 C 1421.84 3.21379 -5.50449 0
M  V30 14953 C 1419.52 3.60253 -4.9362 0
M  V30 14954 C 1420.52 3.44961 -5.89484 0
M  V30 14955 O 1420.21 3.52893 -7.22303 0
M  V30 14956 H 1419.94 0.551226 -0.391313 0
M  V30 14957 H 1422.5 1.21418 -1.65671 0
M  V30 14958 H 1420.73 3.70736 -1.09961 0
M  V30 14959 H 1422.42 3.76592 -1.51437 0
M  V30 14960 H 1423.18 2.94079 -3.85672 0
M  V30 14961 H 1419.06 3.62957 -2.84224 0
M  V30 14962 H 1422.6 3.0936 -6.25254 0
M  V30 14963 H 1418.5 3.78444 -5.22925 0
M  V30 14964 H 1419.27 3.69563 -7.30319 0
M  V30 14965 N 1421.93 1.0643 1.16234 0
M  V30 14966 C 1422.88 0.670457 2.22728 0
M  V30 14967 C 1423.87 -0.31428 1.66459 0
M  V30 14968 O 1425.08 -0.178996 1.79108 0
M  V30 14969 H 1421.46 0.198692 0.725276 0
M  V30 14970 H 1423.43 1.57846 2.53233 0
M  V30 14971 C 1422.18 0.074379 3.4762 0
M  V30 14972 H 1421.5 0.823227 3.91233 0
M  V30 14973 H 1422.94 -0.163652 4.23684 0
M  V30 14974 C 1421.4 -1.18242 3.15469 0
M  V30 14975 O 1421.93 -2.27018 3.314 0
M  V30 14976 N 1420.13 -1.08493 2.69588 0
M  V30 14977 H 1419.68 -0.199714 2.56825 0
M  V30 14978 H 1419.64 -1.92666 2.48449 0
M  V30 14979 N 1423.41 -1.329 0.847073 0
M  V30 14980 C 1424.66 -1.9712 0.445872 0
M  V30 14981 C 1424.98 -1.67398 -1.00014 0
M  V30 14982 O 1424.25 -0.977204 -1.69787 0
M  V30 14983 H 1422.83 -0.729247 0.161887 0
M  V30 14984 H 1425.49 -1.62118 1.08184 0
M  V30 14985 H 1424.59 -3.06575 0.584676 0
M  V30 14986 N 1424.89 -0.604284 -1.45555 0
M  V30 14987 C 1425.82 0.154579 -2.28678 0
M  V30 14988 C 1426.83 0.83491 -1.39761 0
M  V30 14989 O 1428.02 0.700852 -1.64166 0
M  V30 14990 C 1425.12 1.2397 -3.15412 0
M  V30 14991 C 1424.3 0.647128 -4.32586 0
M  V30 14992 C 1423.35 1.62272 -5.00554 0
M  V30 14993 O 1422.38 1.15031 -5.57455 0
M  V30 14994 N 1423.58 2.9571 -4.99536 0
M  V30 14995 H 1426.35 -0.558668 -2.94447 0
M  V30 14996 H 1423.91 -0.443538 -1.55706 0
M  V30 14997 H 1425.9 1.89209 -3.57746 0
M  V30 14998 H 1424.47 1.85552 -2.51574 0
M  V30 14999 H 1423.69 -0.183261 -3.93774 0
M  V30 15000 H 1424.98 0.231394 -5.08274 0
M  V30 15001 H 1424.38 3.36695 -4.54591 0
M  V30 15002 H 1422.93 3.56381 -5.45744 0
M  V30 15003 N 1426.37 1.53816 -0.343257 0
M  V30 15004 C 1427.28 2.28716 0.522121 0
M  V30 15005 C 1428.29 1.33815 1.11218 0
M  V30 15006 O 1429.47 1.66853 1.12793 0
M  V30 15007 C 1426.53 3.04517 1.65741 0
M  V30 15008 C 1425.59 4.15043 1.09716 0
M  V30 15009 C 1424.83 4.8722 2.17835 0
M  V30 15010 O 1425.05 4.59065 3.38549 0
M  V30 15011 O 1423.98 5.73678 1.82145 0
M  V30 15012 H 1427.81 3.03576 -0.086732 0
M  V30 15013 H 1425.4 1.49007 -0.108313 0
M  V30 15014 H 1427.28 3.51921 2.31796 0
M  V30 15015 H 1425.95 2.32514 2.25208 0
M  V30 15016 H 1424.86 3.71943 0.401152 0
M  V30 15017 H 1426.19 4.89147 0.547362 0
M  V30 15018 N 1427.84 0.0718701 1.57436 0
M  V30 15019 C 1428.79 -0.905443 2.0925 0
M  V30 15020 C 1429.78 -1.25875 1.00221 0
M  V30 15021 O 1430.97 -1.23771 1.26529 0
M  V30 15022 C 1428.1 -2.17298 2.65775 0
M  V30 15023 C 1427.19 -1.84614 3.81809 0
M  V30 15024 N 1427.58 -1.22381 4.90771 0
M  V30 15025 C 1425.87 -2.14364 3.91106 0
M  V30 15026 C 1426.58 -1.07791 5.71626 0
M  V30 15027 N 1425.55 -1.58764 5.19899 0
M  V30 15028 H 1429.35 -0.419955 2.90884 0
M  V30 15029 H 1426.87 -0.132017 1.61863 0
M  V30 15030 H 1428.86 -2.88231 3.01211 0
M  V30 15031 H 1427.52 -2.66434 1.85588 0
M  V30 15032 H 1428.54 -0.89345 5.10135 0
M  V30 15033 H 1425.21 -2.65877 3.21894 0
M  V30 15034 H 1426.6 -0.593061 6.69278 0
M  V30 15035 N 1429.32 -1.56304 -0.201686 0
M  V30 15036 C 1430.6 -1.71059 -0.948595 0
M  V30 15037 C 1430.98 -0.624794 -2.01642 0
M  V30 15038 O 1430.33 0.365235 -2.25562 0
M  V30 15039 C 1430.54 -3.13136 -1.54101 0
M  V30 15040 C 1431.89 -3.73165 -2.02567 0
M  V30 15041 O 1432.91 -3.16223 -1.63956 0
M  V30 15042 O 1431.77 -4.73084 -2.73594 0
M  V30 15043 H 1428.86 -0.697443 -0.444412 0
M  V30 15044 H 1431.41 -1.68611 -0.191901 0
M  V30 15045 H 1430.18 -3.8363 -0.770968 0
M  V30 15046 H 1429.8 -3.19784 -2.36271 0
M  V30 15047 N 1430.8 0.469154 -1.50455 0
M  V30 15048 C 1432.05 1.2229 -1.6178 0
M  V30 15049 C 1432.38 1.91577 -0.318073 0
M  V30 15050 O 1431.65 1.82205 0.68057 0
M  V30 15051 C 1431.94 2.26504 -2.79943 0
M  V30 15052 C 1431.79 1.61509 -4.19804 0
M  V30 15053 C 1433.11 3.27796 -2.93662 0
M  V30 15054 H 1430.23 0.443241 -0.588817 0
M  V30 15055 H 1432.87 0.516431 -1.82847 0
M  V30 15056 H 1431.02 2.86757 -2.62112 0
M  V30 15057 H 1432.69 1.04838 -4.49229 0
M  V30 15058 H 1430.94 0.918162 -4.23972 0
M  V30 15059 H 1431.61 2.37248 -4.98415 0
M  V30 15060 H 1434.08 2.77568 -3.09992 0
M  V30 15061 H 1432.96 3.98041 -3.77961 0
M  V30 15062 H 1433.22 3.92033 -2.04359 0
M  V30 15063 N 1432.28 1.40065 0.722464 0
M  V30 15064 C 1433.23 1.39947 1.85789 0
M  V30 15065 C 1434.22 0.28089 1.67055 0
M  V30 15066 O 1435.43 0.451575 1.74244 0
M  V30 15067 H 1431.8 0.437296 0.611781 0
M  V30 15068 H 1433.77 2.35695 1.83004 0
M  V30 15069 C 1432.52 1.27218 3.2359 0
M  V30 15070 H 1431.84 2.12566 3.38609 0
M  V30 15071 H 1433.28 1.31194 4.03192 0
M  V30 15072 C 1431.74 -0.0182466 3.36895 0
M  V30 15073 O 1432.27 -0.983761 3.89468 0
M  V30 15074 N 1430.48 -0.0854707 2.90474 0
M  V30 15075 H 1430.03 0.700953 2.4788 0
M  V30 15076 H 1429.98 -0.948367 2.99755 0
M  V30 15077 N 1433.76 -0.95397 1.25448 0
M  V30 15078 C 1435 -1.69866 1.10235 0
M  V30 15079 C 1435.33 -1.91204 -0.356552 0
M  V30 15080 O 1434.59 -1.4811 -1.27914 0
M  V30 15081 C 1434.89 -3.08613 1.80258 0
M  V30 15082 C 1434.55 -3.07072 3.30178 0
M  V30 15083 C 1433.21 -3.0636 3.71076 0
M  V30 15084 C 1435.57 -3.00351 4.25956 0
M  V30 15085 C 1432.89 -2.96675 5.06163 0
M  V30 15086 C 1435.25 -2.92209 5.61067 0
M  V30 15087 C 1433.91 -2.89832 6.01293 0
M  V30 15088 H 1433.18 -0.621583 0.40338 0
M  V30 15089 H 1435.83 -1.11448 1.55729 0
M  V30 15090 H 1434.13 -3.70578 1.27197 0
M  V30 15091 H 1435.83 -3.65055 1.6594 0
M  V30 15092 H 1432.42 -3.084 2.97637 0
M  V30 15093 H 1436.6 -3.0002 3.9535 0
M  V30 15094 H 1431.86 -2.93204 5.36508 0
M  V30 15095 H 1436.03 -2.8597 6.34976 0
M  V30 15096 H 1433.66 -2.82084 7.05927 0
M  V30 15097 N 1435.24 -1.07045 -1.15668 0
M  V30 15098 C 1436.51 -0.704942 -1.82455 0
M  V30 15099 C 1436.89 0.812921 -1.9482 0
M  V30 15100 O 1436.24 1.72615 -1.49721 0
M  V30 15101 C 1436.45 -1.41574 -3.18995 0
M  V30 15102 C 1437.8 -1.56584 -3.94673 0
M  V30 15103 O 1438.82 -1.37626 -3.28538 0
M  V30 15104 O 1437.68 -1.87751 -5.13237 0
M  V30 15105 H 1434.78 -0.250469 -0.788159 0
M  V30 15106 H 1437.32 -1.17118 -1.22806 0
M  V30 15107 H 1436.09 -2.4504 -3.05075 0
M  V30 15108 H 1435.72 -0.940071 -3.86327 0
M  V30 15109 N 1436.71 1.32449 -0.85411 0
M  V30 15110 C 1437.99 1.91902 -0.378533 0
M  V30 15111 C 1438.37 1.77811 1.13782 0
M  V30 15112 O 1437.72 1.17588 1.95922 0
M  V30 15113 C 1437.93 3.38683 -0.842299 0
M  V30 15114 C 1439.28 4.15817 -0.859161 0
M  V30 15115 O 1440.3 3.47399 -0.786901 0
M  V30 15116 O 1439.16 5.37985 -0.960933 0
M  V30 15117 H 1436.25 0.819614 -0.110284 0
M  V30 15118 H 1438.8 1.41222 -0.940974 0
M  V30 15119 H 1437.57 3.4288 -1.88544 0
M  V30 15120 H 1437.19 3.96767 -0.257278 0
M  V30 15121 N 1438.19 0.611994 1.45232 0
M  V30 15122 C 1439.14 -0.125771 2.27653 0
M  V30 15123 C 1440.13 -0.834397 1.37574 0
M  V30 15124 O 1441.32 -0.72366 1.61531 0
M  V30 15125 C 1438.45 -1.11955 3.24532 0
M  V30 15126 C 1437.53 -0.411537 4.22099 0
M  V30 15127 N 1437.92 0.549272 5.02809 0
M  V30 15128 C 1436.22 -0.658514 4.41112 0
M  V30 15129 C 1436.92 0.965836 5.73626 0
M  V30 15130 N 1435.9 0.308649 5.42723 0
M  V30 15131 H 1439.7 0.612115 2.87455 0
M  V30 15132 H 1437.21 0.436003 1.56438 0
M  V30 15133 H 1439.21 -1.66253 3.82316 0
M  V30 15134 H 1437.87 -1.85795 2.6629 0
M  V30 15135 H 1438.88 0.926222 5.0955 0
M  V30 15136 H 1435.56 -1.38125 3.9399 0
M  V30 15137 H 1436.95 1.75853 6.48479 0
M  V30 15138 N 1439.67 -1.53632 0.351409 0
M  V30 15139 C 1440.92 -2.00643 -0.242208 0
M  V30 15140 C 1441.24 -1.24074 -1.50435 0
M  V30 15141 O 1440.51 -0.350067 -1.92747 0
M  V30 15142 H 1439.09 -0.741252 -0.0924904 0
M  V30 15143 H 1441.75 -1.89039 0.474379 0
M  V30 15144 H 1440.85 -3.084 -0.479151 0
M  V30 15145 N 1441.15 -0.0802183 -1.57396 0
M  V30 15146 C 1442.08 0.920242 -2.08822 0
M  V30 15147 C 1443.06 1.2858 -0.995281 0
M  V30 15148 O 1444.24 1.39364 -1.26925 0
M  V30 15149 C 1441.37 2.22589 -2.55288 0
M  V30 15150 C 1440.42 2.01128 -3.76098 0
M  V30 15151 S 1441.25 1.2629 -5.20395 0
M  V30 15152 C 1442.4 2.58116 -5.70199 0
M  V30 15153 H 1442.64 0.482685 -2.93355 0
M  V30 15154 H 1440.17 0.13274 -1.53828 0
M  V30 15155 H 1442.13 2.97625 -2.82718 0
M  V30 15156 H 1440.79 2.63468 -1.71008 0
M  V30 15157 H 1439.98 2.97775 -4.06628 0
M  V30 15158 H 1439.58 1.34225 -3.49084 0
M  V30 15159 H 1441.88 3.54166 -5.77558 0
M  V30 15160 H 1442.82 2.32185 -6.68951 0
M  V30 15161 H 1443.23 2.65707 -4.98056 0
M  V30 15162 N 1442.63 1.56409 0.193394 0
M  V30 15163 C 1443.56 1.89745 1.26776 0
M  V30 15164 C 1444.54 0.75773 1.43865 0
M  V30 15165 O 1445.72 1.0089 1.59228 0
M  V30 15166 C 1442.85 2.12913 2.63412 0
M  V30 15167 C 1441.89 3.35614 2.63183 0
M  V30 15168 S 1442.73 4.90686 2.14448 0
M  V30 15169 C 1443.88 5.16923 3.52904 0
M  V30 15170 H 1444.12 2.80575 0.983105 0
M  V30 15171 H 1441.65 1.4921 0.396965 0
M  V30 15172 H 1443.61 2.26943 3.42063 0
M  V30 15173 H 1442.27 1.2283 2.89088 0
M  V30 15174 H 1441.46 3.48957 3.63655 0
M  V30 15175 H 1441.06 3.20586 1.92615 0
M  V30 15176 H 1443.35 5.07548 4.48778 0
M  V30 15177 H 1444.3 6.18673 3.44455 0
M  V30 15178 H 1444.71 4.44555 3.47895 0
M  V30 15179 N 1444.1 -0.461169 1.50702 0
M  V30 15180 C 1445.35 -1.21431 1.62427 0
M  V30 15181 C 1445.68 -1.91406 0.328228 0
M  V30 15182 O 1444.96 -1.82563 -0.670898 0
M  V30 15183 C 1445.24 -2.25016 2.8114 0
M  V30 15184 C 1445.09 -1.5928 4.20654 0
M  V30 15185 C 1446.41 -3.26234 2.95397 0
M  V30 15186 H 1443.53 -0.440113 0.59116 0
M  V30 15187 H 1446.17 -0.506726 1.83118 0
M  V30 15188 H 1444.32 -2.85363 2.63629 0
M  V30 15189 H 1446 -1.02454 4.49779 0
M  V30 15190 H 1444.24 -0.895665 4.24453 0
M  V30 15191 H 1444.91 -2.34602 4.99666 0
M  V30 15192 H 1447.39 -2.7592 3.1146 0
M  V30 15193 H 1446.26 -3.96031 3.80067 0
M  V30 15194 H 1446.52 -3.90943 2.06436 0
M  V30 15195 N 1445.58 -1.40446 -0.715026 0
M  V30 15196 C 1446.51 -1.43511 -1.84193 0
M  V30 15197 C 1447.49 -0.295969 -1.67505 0
M  V30 15198 O 1448.68 -0.504667 -1.87528 0
M  V30 15199 C 1445.81 -1.29751 -3.22152 0
M  V30 15200 C 1444.76 -2.41274 -3.53512 0
M  V30 15201 C 1444.09 -2.12591 -4.90621 0
M  V30 15202 C 1445.39 -3.83614 -3.54454 0
M  V30 15203 H 1447.08 -2.37819 -1.81885 0
M  V30 15204 H 1444.63 -1.14469 -0.873655 0
M  V30 15205 H 1446.58 -1.30511 -4.0068 0
M  V30 15206 H 1445.3 -0.319189 -3.25037 0
M  V30 15207 H 1443.96 -2.39764 -2.77324 0
M  V30 15208 H 1443.61 -1.13148 -4.90109 0
M  V30 15209 H 1443.31 -2.87308 -5.1257 0
M  V30 15210 H 1444.84 -2.15034 -5.71483 0
M  V30 15211 H 1446.25 -3.86945 -4.23021 0
M  V30 15212 H 1444.65 -4.57855 -3.87929 0
M  V30 15213 H 1445.72 -4.13159 -2.53827 0
M  V30 15214 N 1447.06 0.947303 -1.25952 0
M  V30 15215 C 1448.31 1.68945 -1.10915 0
M  V30 15216 C 1448.63 1.91848 0.349216 0
M  V30 15217 O 1447.9 1.5108 1.24706 0
M  V30 15218 H 1446.48 0.626086 -0.407462 0
M  V30 15219 H 1449.14 1.13854 -1.58187 0
M  V30 15220 H 1448.24 2.6657 -1.62317 0
M  V30 15221 N 1448.54 1.07657 1.15099 0
M  V30 15222 C 1449.78 0.811006 1.87622 0
M  V30 15223 C 1450.14 -0.651144 1.80621 0
M  V30 15224 O 1451.34 -1.03188 2.48205 0
M  V30 15225 C 1449.61 1.30906 3.32563 0
M  V30 15226 S 1451.17 1.17465 4.22785 0
M  V30 15227 H 1447.99 0.293808 0.647455 0
M  V30 15228 H 1450.59 1.3763 1.38846 0
M  V30 15229 H 1449.3 2.36784 3.35204 0
M  V30 15230 H 1448.83 0.739107 3.86395 0
M  V30 15231 H 1450.84 0.114115 4.96069 0
M  V30 15232 N 1450.02 -1.31994 0.861122 0
M  V30 15233 C 1451.26 -1.96636 0.466754 0
M  V30 15234 C 1451.59 -1.6845 -0.982328 0
M  V30 15235 O 1450.86 -0.995157 -1.68741 0
M  V30 15236 H 1449.44 -0.727489 0.169613 0
M  V30 15237 H 1452.1 -1.60962 1.09897 0
M  V30 15238 H 1451.19 -3.05937 0.61716 0
M  V30 15239 N 1451.49 -0.619688 -1.44906 0
M  V30 15240 C 1452.91 -0.203309 -1.8559 0
M  V30 15241 C 1453.26 1.24265 -1.51831 0
M  V30 15242 O 1452.38 1.94392 -0.950819 0
M  V30 15243 C 1452.98 -0.362204 -3.36858 0
M  V30 15244 C 1451.54 -0.000423575 -3.764 0
M  V30 15245 C 1450.68 -0.680979 -2.68808 0
M  V30 15246 H 1453.63 -0.825595 -1.35535 0
M  V30 15247 H 1453.65 0.402149 -3.78369 0
M  V30 15248 H 1453.17 -1.41468 -3.61398 0
M  V30 15249 H 1451.27 1.05077 -3.57477 0
M  V30 15250 H 1451.38 -0.402508 -4.77406 0
M  V30 15251 H 1449.74 -0.117407 -2.54429 0
M  V30 15252 H 1450.53 -1.73583 -2.96182 0
M  V30 15253 N 1452.97 1.53444 -0.359552 0
M  V30 15254 C 1454.2 2.05286 0.232615 0
M  V30 15255 C 1454.61 1.23322 1.43486 0
M  V30 15256 O 1453.95 0.265369 1.81773 0
M  V30 15257 C 1454.02 3.52698 0.695995 0
M  V30 15258 C 1453.68 4.55344 -0.388751 0
M  V30 15259 C 1454.68 5.04978 -1.23667 0
M  V30 15260 C 1452.36 4.9931 -0.547267 0
M  V30 15261 C 1454.36 5.97174 -2.2285 0
M  V30 15262 C 1452.04 5.91313 -1.54247 0
M  V30 15263 C 1453.04 6.40135 -2.38153 0
M  V30 15264 O 1452.73 7.30325 -3.35976 0
M  V30 15265 H 1452.46 0.674445 0.0458187 0
M  V30 15266 H 1455.01 1.98853 -0.514472 0
M  V30 15267 H 1453.24 3.5665 1.49459 0
M  V30 15268 H 1454.93 3.8743 1.21049 0
M  V30 15269 H 1455.7 4.71763 -1.12537 0
M  V30 15270 H 1451.58 4.609 0.0960246 0
M  V30 15271 H 1455.12 6.35204 -2.88378 0
M  V30 15272 H 1451.02 6.23942 -1.65427 0
M  V30 15273 H 1451.79 7.48305 -3.31635 0
M  V30 15274 N 1454.45 0.0885642 1.57351 0
M  V30 15275 C 1455.4 -0.883199 2.10199 0
M  V30 15276 C 1456.38 -1.24805 1.0155 0
M  V30 15277 O 1457.58 -1.22423 1.27835 0
M  V30 15278 C 1454.71 -2.14467 2.68065 0
M  V30 15279 C 1453.79 -1.80555 3.83746 0
M  V30 15280 N 1454.18 -1.17169 4.92042 0
M  V30 15281 C 1452.48 -2.10204 3.93358 0
M  V30 15282 C 1453.18 -1.01722 5.72737 0
M  V30 15283 N 1452.16 -1.53241 5.21553 0
M  V30 15284 H 1455.96 -0.38908 2.91313 0
M  V30 15285 H 1453.47 -0.114842 1.61993 0
M  V30 15286 H 1455.47 -2.85021 3.04251 0
M  V30 15287 H 1454.13 -2.64451 1.88403 0
M  V30 15288 H 1455.14 -0.839293 5.11054 0
M  V30 15289 H 1451.82 -2.62448 3.24696 0
M  V30 15290 H 1453.21 -0.522042 6.69869 0
M  V30 15291 N 1455.93 -1.56509 -0.185096 0
M  V30 15292 C 1457.18 -1.804 -0.902158 0
M  V30 15293 C 1457.49 -0.663496 -1.84003 0
M  V30 15294 O 1458.7 -0.786963 -2.59844 0
M  V30 15295 C 1457.15 -3.19608 -1.65466 0
M  V30 15296 C 1456.76 -4.41487 -0.761109 0
M  V30 15297 C 1458.5 -3.52801 -2.36076 0
M  V30 15298 C 1456.41 -5.71717 -1.51305 0
M  V30 15299 H 1455.34 -0.67268 -0.340614 0
M  V30 15300 H 1457.99 -1.82842 -0.155273 0
M  V30 15301 H 1456.37 -3.11443 -2.44579 0
M  V30 15302 H 1457.55 -4.60799 -0.00791878 0
M  V30 15303 H 1455.86 -4.16072 -0.165344 0
M  V30 15304 H 1458.46 -4.47339 -2.92902 0
M  V30 15305 H 1458.8 -2.77021 -3.10749 0
M  V30 15306 H 1459.34 -3.62457 -1.63919 0
M  V30 15307 H 1456.08 -6.5049 -0.808907 0
M  V30 15308 H 1455.6 -5.56406 -2.23992 0
M  V30 15309 H 1457.27 -6.13188 -2.0642 0
M  V30 15310 N 1457.41 0.45317 -1.50944 0
M  V30 15311 C 1458.65 1.20151 -1.62506 0
M  V30 15312 C 1458.98 1.92085 -0.335927 0
M  V30 15313 O 1458.25 1.84889 0.64751 0
M  V30 15314 H 1456.83 0.446502 -0.59887 0
M  V30 15315 H 1459.49 0.521103 -1.87804 0
M  V30 15316 H 1458.58 1.93972 -2.44502 0
M  V30 15317 N 1458.88 1.40823 0.707568 0
M  V30 15318 C 1460.11 1.43061 1.50161 0
M  V30 15319 C 1460.53 0.0342144 1.88069 0
M  V30 15320 O 1459.89 -0.959674 1.53818 0
M  V30 15321 C 1459.94 2.33459 2.74826 0
M  V30 15322 O 1459.04 1.78336 3.71847 0
M  V30 15323 H 1458.39 0.48602 0.452417 0
M  V30 15324 H 1460.92 1.85147 0.870742 0
M  V30 15325 H 1460.93 2.48922 3.23267 0
M  V30 15326 H 1459.6 3.34927 2.46571 0
M  V30 15327 H 1458.18 1.7226 3.30728 0
M  V30 15328 N 1460.36 -0.94061 1.26453 0
M  V30 15329 C 1461.59 -1.72654 1.14914 0
M  V30 15330 C 1462.01 -1.85823 -0.291789 0
M  V30 15331 O 1461.37 -1.34888 -1.2114 0
M  V30 15332 C 1461.42 -3.11083 1.82372 0
M  V30 15333 O 1460.52 -3.971 1.1129 0
M  V30 15334 H 1459.86 -0.529704 0.400387 0
M  V30 15335 H 1462.39 -1.17803 1.67283 0
M  V30 15336 H 1462.4 -3.6147 1.89219 0
M  V30 15337 H 1461.08 -3.00815 2.87199 0
M  V30 15338 H 1459.66 -3.5555 1.12423 0
M  V30 15339 N 1461.84 -1.08266 -1.14527 0
M  V30 15340 C 1463.09 -0.812661 -1.85805 0
M  V30 15341 C 1463.42 0.659878 -1.82645 0
M  V30 15342 O 1462.69 1.48498 -1.25612 0
M  V30 15343 C 1462.98 -1.33335 -3.34505 0
M  V30 15344 C 1462.83 -2.87113 -3.46246 0
M  V30 15345 C 1464.15 -0.957435 -4.29559 0
M  V30 15346 H 1461.27 -0.296681 -0.674648 0
M  V30 15347 H 1463.91 -1.34203 -1.34497 0
M  V30 15348 H 1462.06 -0.883056 -3.78331 0
M  V30 15349 H 1463.73 -3.40502 -3.11217 0
M  V30 15350 H 1461.98 -3.24845 -2.87504 0
M  V30 15351 H 1462.65 -3.18618 -4.50762 0
M  V30 15352 H 1465.12 -1.3456 -3.93742 0
M  V30 15353 H 1464 -1.34897 -5.32066 0
M  V30 15354 H 1464.26 0.135689 -4.41892 0
M  V30 15355 N 1463.32 1.31536 -0.86811 0
M  V30 15356 C 1464.23 2.32326 -0.32588 0
M  V30 15357 C 1465.25 1.64632 0.563243 0
M  V30 15358 O 1466.42 1.96067 0.460403 0
M  V30 15359 C 1463.49 3.43562 0.46539 0
M  V30 15360 C 1462.55 4.26919 -0.451472 0
M  V30 15361 C 1461.78 5.32844 0.302129 0
M  V30 15362 O 1462 5.49485 1.53045 0
M  V30 15363 O 1460.94 6.00944 -0.339048 0
M  V30 15364 H 1464.76 2.80622 -1.16126 0
M  V30 15365 H 1462.35 1.35401 -0.631428 0
M  V30 15366 H 1464.23 4.11368 0.914028 0
M  V30 15367 H 1462.91 2.97432 1.27734 0
M  V30 15368 H 1461.81 3.61874 -0.948571 0
M  V30 15369 H 1463.15 4.7661 -1.22897 0
M  V30 15370 N 1464.8 0.627364 1.44575 0
M  V30 15371 C 1466.04 0.130352 2.0208 0
M  V30 15372 C 1466.37 -1.24642 1.49314 0
M  V30 15373 O 1465.63 -1.84022 0.665923 0
M  V30 15374 C 1465.93 0.0622409 3.57346 0
M  V30 15375 C 1465.59 1.37729 4.2935 0
M  V30 15376 C 1464.25 1.73747 4.48737 0
M  V30 15377 C 1466.61 2.2455 4.70347 0
M  V30 15378 C 1463.93 2.96301 5.06382 0
M  V30 15379 C 1466.29 3.46371 5.29349 0
M  V30 15380 C 1464.95 3.82616 5.46956 0
M  V30 15381 H 1464.22 0.0476991 0.739463 0
M  V30 15382 H 1466.87 0.812928 1.73389 0
M  V30 15383 H 1465.17 -0.70369 3.85429 0
M  V30 15384 H 1466.87 -0.338778 3.99566 0
M  V30 15385 H 1463.46 1.08699 4.14587 0
M  V30 15386 H 1467.64 1.98019 4.55085 0
M  V30 15387 H 1462.9 3.24465 5.18201 0
M  V30 15388 H 1467.07 4.13882 5.60067 0
M  V30 15389 H 1464.7 4.77663 5.9139 0
M  V30 15390 N 1466.28 -1.53251 0.367684 0
M  V30 15391 C 1467.55 -1.93617 -0.277842 0
M  V30 15392 C 1467.93 -1.3014 -1.66213 0
M  V30 15393 O 1467.28 -0.461277 -2.23796 0
M  V30 15394 C 1467.49 -3.47475 -0.325937 0
M  V30 15395 C 1468.84 -4.2082 -0.565276 0
M  V30 15396 O 1469.86 -3.53866 -0.407057 0
M  V30 15397 O 1468.72 -5.39474 -0.873522 0
M  V30 15398 H 1465.82 -0.80993 -0.167158 0
M  V30 15399 H 1468.36 -1.64405 0.420621 0
M  V30 15400 H 1467.13 -3.85955 0.644542 0
M  V30 15401 H 1466.76 -3.82926 -1.07021 0
M  V30 15402 N 1467.75 -0.0969077 -1.57302 0
M  V30 15403 C 1469 0.561074 -1.95508 0
M  V30 15404 C 1469.35 1.6568 -0.97816 0
M  V30 15405 O 1468.65 1.91599 -0.00445428 0
M  V30 15406 C 1468.84 1.15972 -3.38061 0
M  V30 15407 C 1468.67 0.123524 -4.4953 0
M  V30 15408 C 1467.44 -0.30062 -5.04405 0
M  V30 15409 C 1469.64 -0.649001 -5.10189 0
M  V30 15410 N 1467.62 -1.3249 -5.99433 0
M  V30 15411 C 1468.99 -1.52506 -6.00951 0
M  V30 15412 C 1471.05 -0.70232 -4.92922 0
M  V30 15413 C 1469.75 -2.44976 -6.76298 0
M  V30 15414 C 1471.78 -1.61463 -5.68932 0
M  V30 15415 C 1471.14 -2.47831 -6.59363 0
M  V30 15416 H 1467.24 0.175591 -0.762031 0
M  V30 15417 H 1469.82 -0.179896 -1.93867 0
M  V30 15418 H 1467.99 1.87051 -3.40392 0
M  V30 15419 H 1469.72 1.78022 -3.63442 0
M  V30 15420 H 1466.48 0.0874763 -4.73519 0
M  V30 15421 H 1466.9 -1.8353 -6.51648 0
M  V30 15422 H 1471.54 -0.0487412 -4.22772 0
M  V30 15423 H 1469.26 -3.11358 -7.45709 0
M  V30 15424 H 1472.85 -1.66104 -5.57585 0
M  V30 15425 H 1471.73 -3.17278 -7.1715 0
M  V30 15426 N 1469.23 1.56605 0.176793 0
M  V30 15427 C 1470.47 1.83477 0.900858 0
M  V30 15428 C 1470.84 0.677051 1.79666 0
M  V30 15429 O 1472.04 0.826091 2.55791 0
M  V30 15430 C 1470.31 3.15444 1.68017 0
M  V30 15431 S 1471.87 3.63781 2.45375 0
M  V30 15432 H 1468.68 0.643758 0.301823 0
M  V30 15433 H 1471.29 1.9482 0.162888 0
M  V30 15434 H 1469.99 3.97701 1.01302 0
M  V30 15435 H 1469.52 3.07028 2.45962 0
M  V30 15436 H 1471.54 3.30672 3.6996 0
M  V30 15437 N 1470.71 -0.445159 1.51182 0
M  V30 15438 C 1471.67 -1.52224 1.71349 0
M  V30 15439 C 1472.67 -1.49834 0.583632 0
M  V30 15440 O 1473.86 -1.51995 0.85107 0
M  V30 15441 C 1470.99 -2.91789 1.76273 0
M  V30 15442 H 1472.19 -1.35649 2.67468 0
M  V30 15443 H 1469.74 -0.673312 1.41054 0
M  V30 15444 H 1470.48 -3.13777 0.819405 0
M  V30 15445 H 1470.26 -2.94928 2.58379 0
M  V30 15446 H 1471.75 -3.69938 1.93741 0
M  V30 15447 N 1472.19 -1.41197 -0.700089 0
M  V30 15448 C 1473.43 -1.40519 -1.46227 0
M  V30 15449 C 1473.77 -0.0126108 -1.94196 0
M  V30 15450 O 1473.04 0.958837 -1.69223 0
M  V30 15451 C 1473.32 -2.40808 -2.67738 0
M  V30 15452 C 1473.18 -3.89154 -2.25563 0
M  V30 15453 C 1474.5 -2.38415 -3.69927 0
M  V30 15454 H 1471.62 -0.511724 -0.530384 0
M  V30 15455 H 1474.26 -1.72441 -0.797754 0
M  V30 15456 H 1472.41 -2.13717 -3.24434 0
M  V30 15457 H 1474.08 -4.27132 -1.74229 0
M  V30 15458 H 1472.32 -4.04239 -1.57395 0
M  V30 15459 H 1472.99 -4.54866 -3.12731 0
M  V30 15460 H 1475.47 -2.62447 -3.22895 0
M  V30 15461 H 1474.35 -3.10609 -4.52563 0
M  V30 15462 H 1474.61 -1.40116 -4.19309 0
M  V30 15463 N 1473.67 0.933891 -1.2695 0
M  V30 15464 C 1474.89 1.72042 -1.15828 0
M  V30 15465 C 1475.32 1.85975 0.28193 0
M  V30 15466 O 1474.67 1.35528 1.20423 0
M  V30 15467 C 1474.72 3.10112 -1.84019 0
M  V30 15468 O 1473.83 3.96504 -1.13394 0
M  V30 15469 H 1473.17 0.527573 -0.40319 0
M  V30 15470 H 1475.7 1.16914 -1.67905 0
M  V30 15471 H 1475.71 3.60461 -1.91133 0
M  V30 15472 H 1474.38 2.99287 -2.8879 0
M  V30 15473 H 1472.96 3.54948 -1.14307 0
M  V30 15474 N 1475.14 1.08871 1.13951 0
M  V30 15475 C 1476.37 0.843055 1.89492 0
M  V30 15476 C 1476.79 -0.599539 1.78289 0
M  V30 15477 O 1476.15 -1.42062 1.12642 0
M  V30 15478 C 1476.2 1.27572 3.3728 0
M  V30 15479 O 1475.3 0.430611 4.10146 0
M  V30 15480 H 1474.64 0.3058 0.589391 0
M  V30 15481 H 1477.17 1.45137 1.44209 0
M  V30 15482 H 1477.18 1.25864 3.88101 0
M  V30 15483 H 1475.86 2.32635 3.44751 0
M  V30 15484 H 1474.44 0.511516 3.69375 0
M  V30 15485 N 1476.62 -1.31073 0.875073 0
M  V30 15486 C 1477.87 -1.95791 0.484661 0
M  V30 15487 C 1478.18 -1.69907 -0.969074 0
M  V30 15488 O 1479.39 -2.28527 -1.46587 0
M  V30 15489 C 1477.85 -3.50532 0.815804 0
M  V30 15490 C 1477.45 -3.85249 2.28664 0
M  V30 15491 C 1479.2 -4.21615 0.494111 0
M  V30 15492 C 1477.1 -5.33124 2.55993 0
M  V30 15493 H 1476.03 -0.732806 0.177516 0
M  V30 15494 H 1478.69 -1.49169 1.06868 0
M  V30 15495 H 1477.07 -3.95673 0.16098 0
M  V30 15496 H 1478.24 -3.51051 2.98496 0
M  V30 15497 H 1476.56 -3.27244 2.57488 0
M  V30 15498 H 1479.15 -5.30417 0.675456 0
M  V30 15499 H 1479.5 -4.12437 -0.565815 0
M  V30 15500 H 1480.03 -3.82125 1.1057 0
M  V30 15501 H 1476.77 -5.47343 3.60688 0
M  V30 15502 H 1476.29 -5.68657 1.90761 0
M  V30 15503 H 1477.97 -6.00446 2.40984 0
M  V30 15504 N 1478.1 -0.635022 -1.4424 0
M  V30 15505 C 1479.52 -0.300978 -1.56736 0
M  V30 15506 C 1479.72 1.19571 -1.62188 0
M  V30 15507 O 1478.77 1.97991 -1.56703 0
M  V30 15508 C 1480.09 -0.996327 -2.83714 0
M  V30 15509 C 1481.63 -0.97484 -2.97432 0
M  V30 15510 C 1482.11 -1.65073 -4.27218 0
M  V30 15511 N 1483.6 -1.6175 -4.3404 0
M  V30 15512 C 1484.33 -2.10938 -5.33191 0
M  V30 15513 N 1483.83 -2.68333 -6.38725 0
M  V30 15514 N 1485.62 -2.01544 -5.24725 0
M  V30 15515 H 1477.77 -1.60649 -1.38945 0
M  V30 15516 H 1480.04 -0.674561 -0.666087 0
M  V30 15517 H 1479.74 -2.05128 -2.85684 0
M  V30 15518 H 1479.62 -0.536511 -3.73365 0
M  V30 15519 H 1482 0.071646 -2.95013 0
M  V30 15520 H 1482.09 -1.47318 -2.0912 0
M  V30 15521 H 1481.73 -2.69669 -4.30397 0
M  V30 15522 H 1481.66 -1.12719 -5.14395 0
M  V30 15523 H 1484.15 -1.1985 -3.58392 0
M  V30 15524 H 1484.46 -3.03588 -7.10672 0
M  V30 15525 H 1482.81 -2.72385 -6.39399 0
M  V30 15526 H 1486 -1.56423 -4.41191 0
M  V30 15527 H 1486.17 -2.40187 -6.01842 0
M  V30 15528 N 1479.58 1.53054 -0.375806 0
M  V30 15529 C 1480.81 2.0582 0.211135 0
M  V30 15530 C 1481.22 1.24856 1.4162 0
M  V30 15531 O 1480.58 0.291786 1.80152 0
M  V30 15532 C 1480.63 3.56577 0.594573 0
M  V30 15533 O 1480.35 4.34472 -0.562607 0
M  V30 15534 C 1481.85 4.25639 1.23882 0
M  V30 15535 H 1479.07 0.670085 0.0350268 0
M  V30 15536 H 1481.62 1.9732 -0.537135 0
M  V30 15537 H 1479.77 3.65194 1.29275 0
M  V30 15538 H 1480.18 5.23902 -0.250487 0
M  V30 15539 H 1481.66 5.32408 1.45759 0
M  V30 15540 H 1482.14 3.80001 2.20218 0
M  V30 15541 H 1482.74 4.21302 0.581786 0
M  V30 15542 N 1481.06 0.105248 1.57248 0
M  V30 15543 C 1481.99 -0.846915 2.176 0
M  V30 15544 C 1482.97 -1.28706 1.11216 0
M  V30 15545 O 1484.15 -1.35213 1.39396 0
M  V30 15546 C 1481.28 -2.10228 2.76445 0
M  V30 15547 C 1480.24 -1.80041 3.8829 0
M  V30 15548 C 1479.56 -3.12491 4.33882 0
M  V30 15549 C 1480.86 -1.07943 5.11024 0
M  V30 15550 H 1482.56 -0.344052 2.97417 0
M  V30 15551 H 1480.1 -0.164045 1.43063 0
M  V30 15552 H 1482.06 -2.77284 3.17319 0
M  V30 15553 H 1480.78 -2.62815 1.93897 0
M  V30 15554 H 1479.44 -1.15379 3.4797 0
M  V30 15555 H 1479.09 -3.62985 3.48211 0
M  V30 15556 H 1478.79 -2.93072 5.09296 0
M  V30 15557 H 1480.31 -3.80688 4.77398 0
M  V30 15558 H 1481.72 -1.65127 5.49004 0
M  V30 15559 H 1480.12 -0.986674 5.91933 0
M  V30 15560 H 1481.19 -0.0638511 4.84858 0
M  V30 15561 N 1482.53 -1.56697 -0.168486 0
M  V30 15562 C 1483.95 -1.50879 -0.52036 0
M  V30 15563 C 1484.15 -0.810001 -1.84503 0
M  V30 15564 O 1483.21 -0.371549 -2.49751 0
M  V30 15565 C 1484.52 -2.95618 -0.550502 0
M  V30 15566 C 1486.07 -3.06439 -0.637508 0
M  V30 15567 C 1486.54 -4.52642 -0.698516 0
M  V30 15568 N 1488.03 -4.569 -0.761328 0
M  V30 15569 C 1488.77 -5.67373 -0.829155 0
M  V30 15570 N 1488.26 -6.87471 -0.857642 0
M  V30 15571 N 1490.06 -5.55352 -0.868392 0
M  V30 15572 H 1482.21 -2.00531 0.700087 0
M  V30 15573 H 1484.47 -0.913683 0.252759 0
M  V30 15574 H 1484.18 -3.49912 0.354222 0
M  V30 15575 H 1484.05 -3.50416 -1.396 0
M  V30 15576 H 1486.44 -2.52178 -1.53266 0
M  V30 15577 H 1486.52 -2.54721 0.234719 0
M  V30 15578 H 1486.16 -5.07535 0.192387 0
M  V30 15579 H 1486.09 -5.0212 -1.58693 0
M  V30 15580 H 1488.58 -3.70434 -0.747482 0
M  V30 15581 H 1488.9 -7.67416 -0.910648 0
M  V30 15582 H 1487.24 -6.90076 -0.825872 0
M  V30 15583 H 1490.43 -4.60444 -0.843158 0
M  V30 15584 H 1490.61 -6.41468 -0.917789 0
M  V30 15585 N 1484.01 0.437135 -1.51416 0
M  V30 15586 C 1484.94 1.54894 -1.68939 0
M  V30 15587 C 1485.96 1.52493 -0.570059 0
M  V30 15588 O 1487.15 1.57266 -0.844381 0
M  V30 15589 C 1484.25 2.9381 -1.68904 0
M  V30 15590 C 1483.42 3.20714 -2.97425 0
M  V30 15591 C 1482.48 4.39355 -2.89575 0
M  V30 15592 O 1481.5 4.37999 -3.63519 0
M  V30 15593 N 1482.71 5.42931 -2.05441 0
M  V30 15594 H 1485.47 1.40267 -2.64849 0
M  V30 15595 H 1483.03 0.626075 -1.49305 0
M  V30 15596 H 1485.02 3.71201 -1.61221 0
M  V30 15597 H 1483.59 3.02034 -0.805871 0
M  V30 15598 H 1482.81 2.31621 -3.18975 0
M  V30 15599 H 1484.1 3.35516 -3.825 0
M  V30 15600 H 1483.5 5.4687 -1.44742 0
M  V30 15601 H 1482.06 6.19173 -2.03636 0
M  V30 15602 N 1485.49 1.41566 0.692592 0
M  V30 15603 C 1486.42 1.46423 1.81886 0
M  V30 15604 C 1487.4 0.32258 1.67013 0
M  V30 15605 O 1488.59 0.534437 1.86701 0
M  V30 15606 C 1485.72 1.3486 3.20047 0
M  V30 15607 C 1484.67 2.46867 3.49629 0
M  V30 15608 C 1484 2.20369 4.87177 0
M  V30 15609 C 1485.3 3.89205 3.48306 0
M  V30 15610 H 1486.99 2.40683 1.78079 0
M  V30 15611 H 1484.54 1.15845 0.855334 0
M  V30 15612 H 1486.49 1.36869 3.98553 0
M  V30 15613 H 1485.21 0.370859 3.24488 0
M  V30 15614 H 1483.87 2.44146 2.73475 0
M  V30 15615 H 1483.52 1.20931 4.88247 0
M  V30 15616 H 1483.22 2.95426 5.07934 0
M  V30 15617 H 1484.74 2.24099 5.6799 0
M  V30 15618 H 1486.16 3.93626 4.16811 0
M  V30 15619 H 1484.56 4.63969 3.80595 0
M  V30 15620 H 1485.63 4.17144 2.47222 0
M  V30 15621 N 1486.97 -0.927146 1.27443 0
M  V30 15622 C 1488.22 -1.67159 1.13589 0
M  V30 15623 C 1488.54 -1.92379 -0.31865 0
M  V30 15624 O 1487.81 -1.53045 -1.22287 0
M  V30 15625 H 1486.39 -0.619524 0.417371 0
M  V30 15626 H 1489.05 -1.11323 1.59979 0
M  V30 15627 H 1488.15 -2.63954 1.66537 0
M  V30 15628 N 1488.45 -1.09474 -1.13372 0
M  V30 15629 C 1489.39 -0.73458 -2.18798 0
M  V30 15630 C 1490.36 0.284433 -1.63647 0
M  V30 15631 O 1491.55 0.165958 -1.90077 0
M  V30 15632 C 1488.69 -0.161826 -3.4472 0
M  V30 15633 C 1487.8 -1.23494 -4.13973 0
M  V30 15634 C 1486.94 -0.624886 -5.27512 0
M  V30 15635 C 1485.98 -1.67927 -5.88614 0
M  V30 15636 N 1485.11 -1.09021 -6.93584 0
M  V30 15637 H 1489.95 -1.63787 -2.48954 0
M  V30 15638 H 1487.49 -0.818297 -1.22239 0
M  V30 15639 H 1489.45 0.188053 -4.16776 0
M  V30 15640 H 1488.08 0.70473 -3.15013 0
M  V30 15641 H 1487.13 -1.70209 -3.40196 0
M  V30 15642 H 1488.44 -2.0335 -4.55467 0
M  V30 15643 H 1487.6 -0.22388 -6.06287 0
M  V30 15644 H 1486.33 0.205214 -4.87268 0
M  V30 15645 H 1485.34 -2.08982 -5.08534 0
M  V30 15646 H 1486.56 -2.51204 -6.3093 0
M  V30 15647 H 1484.51 -0.281401 -6.55396 0
M  V30 15648 H 1484.43 -1.82573 -7.33623 0
M  V30 15649 H 1485.7 -0.715428 -7.7621 0
M  V30 15650 N 1489.92 1.30607 -0.882012 0
M  V30 15651 C 1490.87 2.2821 -0.344826 0
M  V30 15652 C 1491.84 1.56254 0.563361 0
M  V30 15653 O 1493.03 1.84336 0.492416 0
M  V30 15654 C 1490.17 3.42319 0.437216 0
M  V30 15655 C 1489.28 4.29098 -0.499851 0
M  V30 15656 C 1488.41 5.30366 0.297497 0
M  V30 15657 C 1487.45 6.08795 -0.63523 0
M  V30 15658 N 1486.59 7.01986 0.12661 0
M  V30 15659 H 1491.43 2.73543 -1.18229 0
M  V30 15660 H 1488.97 1.34556 -0.594392 0
M  V30 15661 H 1490.93 4.07232 0.906521 0
M  V30 15662 H 1489.56 2.98063 1.23928 0
M  V30 15663 H 1488.61 3.6452 -1.08764 0
M  V30 15664 H 1489.92 4.83787 -1.21454 0
M  V30 15665 H 1489.07 6.01013 0.828786 0
M  V30 15666 H 1487.81 4.76364 1.04542 0
M  V30 15667 H 1486.82 5.37028 -1.17817 0
M  V30 15668 H 1488.04 6.64885 -1.3822 0
M  V30 15669 H 1485.99 6.50376 0.857125 0
M  V30 15670 H 1485.91 7.5415 -0.528512 0
M  V30 15671 H 1487.17 7.76879 0.638738 0
M  V30 15672 N 1491.4 0.642663 1.43901 0
M  V30 15673 C 1492.63 0.159202 2.06287 0
M  V30 15674 C 1493.05 -1.17091 1.48105 0
M  V30 15675 O 1492.4 -1.72064 0.608302 0
M  V30 15676 C 1492.45 0.0506891 3.61464 0
M  V30 15677 O 1492.17 1.32821 4.17481 0
M  V30 15678 C 1493.68 -0.460103 4.40906 0
M  V30 15679 H 1490.9 0.085003 0.665594 0
M  V30 15680 H 1493.44 0.880328 1.84582 0
M  V30 15681 H 1491.59 -0.620938 3.82391 0
M  V30 15682 H 1492.01 1.18053 5.11042 0
M  V30 15683 H 1493.48 -0.48501 5.49865 0
M  V30 15684 H 1493.96 -1.4894 4.13175 0
M  V30 15685 H 1494.57 0.178668 4.24925 0
M  V30 15686 N 1492.88 -1.52852 0.383918 0
M  V30 15687 C 1494.13 -2.01809 -0.200285 0
M  V30 15688 C 1494.46 -1.27009 -1.46909 0
M  V30 15689 O 1493.74 -0.369002 -1.90968 0
M  V30 15690 C 1494.02 -3.56971 -0.473672 0
M  V30 15691 C 1493.87 -4.42446 0.810048 0
M  V30 15692 C 1495.19 -4.21481 -1.26658 0
M  V30 15693 H 1492.31 -0.733541 -0.0713192 0
M  V30 15694 H 1494.95 -1.8296 0.512425 0
M  V30 15695 H 1493.1 -3.73163 -1.08081 0
M  V30 15696 H 1494.77 -4.38016 1.44706 0
M  V30 15697 H 1493.02 -4.09674 1.42652 0
M  V30 15698 H 1493.69 -5.49013 0.573478 0
M  V30 15699 H 1496.16 -4.09233 -0.752806 0
M  V30 15700 H 1495.04 -5.30037 -1.42661 0
M  V30 15701 H 1495.3 -3.78756 -2.28028 0
M  V30 15702 N 1494.36 -0.113586 -1.5719 0
M  V30 15703 C 1495.61 0.546529 -1.95297 0
M  V30 15704 C 1495.94 1.66674 -0.996671 0
M  V30 15705 O 1495.21 1.94472 -0.0329298 0
M  V30 15706 C 1495.5 1.08433 -3.43387 0
M  V30 15707 C 1495.35 -0.0320929 -4.49789 0
M  V30 15708 C 1496.67 1.97691 -3.932 0
M  V30 15709 H 1493.79 0.197195 -0.710129 0
M  V30 15710 H 1496.43 -0.188048 -1.89067 0
M  V30 15711 H 1494.58 1.71033 -3.48827 0
M  V30 15712 H 1496.25 -0.66716 -4.5645 0
M  V30 15713 H 1494.49 -0.695983 -4.2818 0
M  V30 15714 H 1495.17 0.385341 -5.50653 0
M  V30 15715 H 1497.64 1.4497 -3.90029 0
M  V30 15716 H 1496.52 2.3224 -4.97349 0
M  V30 15717 H 1496.78 2.90137 -3.33576 0
M  V30 15718 N 1495.84 1.56784 0.160173 0
M  V30 15719 C 1497.08 1.82891 0.876278 0
M  V30 15720 C 1497.42 0.693173 1.81408 0
M  V30 15721 O 1496.69 -0.304136 1.92107 0
M  V30 15722 C 1496.97 3.19439 1.66226 0
M  V30 15723 C 1496.83 4.43557 0.746831 0
M  V30 15724 C 1498.15 3.53053 2.62758 0
M  V30 15725 H 1495.27 0.665285 0.31712 0
M  V30 15726 H 1497.91 1.89469 0.142004 0
M  V30 15727 H 1496.06 3.13962 2.28823 0
M  V30 15728 H 1497.73 4.61109 0.132876 0
M  V30 15729 H 1495.97 4.33764 0.0555625 0
M  V30 15730 H 1496.64 5.35675 1.33253 0
M  V30 15731 H 1499.12 3.59054 2.10284 0
M  V30 15732 H 1498 4.4965 3.14811 0
M  V30 15733 H 1498.26 2.78329 3.4349 0
M  V30 15734 N 1497.32 -0.429099 1.51646 0
M  V30 15735 C 1498.26 -1.54202 1.74139 0
M  V30 15736 C 1499.26 -1.58117 0.607905 0
M  V30 15737 O 1500.46 -1.61763 0.789486 0
M  V30 15738 H 1496.84 -0.512456 0.550357 0
M  V30 15739 H 1498.81 -1.32408 2.67415 0
M  V30 15740 C 1497.56 -2.91779 1.89104 0
M  V30 15741 H 1496.88 -2.89502 2.75733 0
M  V30 15742 H 1498.32 -3.68995 2.08851 0
M  V30 15743 C 1496.78 -3.30512 0.652945 0
M  V30 15744 O 1497.31 -4.01257 -0.188553 0
M  V30 15745 N 1495.52 -2.86359 0.494634 0
M  V30 15746 H 1495.06 -2.28959 1.18049 0
M  V30 15747 H 1495.02 -3.12637 -0.332503 0
M  V30 15748 N 1498.79 -1.41931 -0.685074 0
M  V30 15749 C 1500.03 -1.43328 -1.45727 0
M  V30 15750 C 1500.4 -0.0443486 -1.91949 0
M  V30 15751 O 1501.6 0.0669235 -2.68717 0
M  V30 15752 C 1499.87 -2.42071 -2.62938 0
M  V30 15753 S 1501.43 -2.62085 -3.51933 0
M  V30 15754 H 1498.25 -0.507607 -0.497852 0
M  V30 15755 H 1500.85 -1.78453 -0.798414 0
M  V30 15756 H 1499.55 -3.41771 -2.27203 0
M  V30 15757 H 1499.08 -2.08335 -3.33707 0
M  V30 15758 H 1501.1 -1.89613 -4.58543 0
M  V30 15759 N 1500.27 0.920374 -1.27933 0
M  V30 15760 C 1501.22 2.04331 -1.11138 0
M  V30 15761 C 1502.21 1.69369 -0.0324493 0
M  V30 15762 O 1503.42 1.78987 -0.190723 0
M  V30 15763 H 1499.79 0.669381 -0.342685 0
M  V30 15764 H 1501.77 2.15641 -2.06256 0
M  V30 15765 C 1500.51 3.38768 -0.783049 0
M  V30 15766 H 1499.84 3.6616 -1.60521 0
M  V30 15767 H 1501.28 4.1809 -0.705448 0
M  V30 15768 C 1499.74 3.32972 0.512927 0
M  V30 15769 O 1500.27 3.70792 1.54519 0
M  V30 15770 N 1498.47 2.86068 0.511232 0
M  V30 15771 H 1498.02 2.55487 -0.329229 0
M  V30 15772 H 1497.98 2.82573 1.3784 0
M  V30 15773 N 1501.75 1.10074 1.1279 0
M  V30 15774 C 1503.16 0.859181 1.65756 0
M  V30 15775 C 1503.51 -0.611193 1.86437 0
M  V30 15776 O 1502.64 -1.46997 1.58811 0
M  V30 15777 C 1503.23 1.55312 3.01104 0
M  V30 15778 C 1501.79 1.35836 3.51035 0
M  V30 15779 C 1500.94 1.60491 2.26137 0
M  V30 15780 H 1503.89 1.25897 0.966211 0
M  V30 15781 H 1503.91 0.990001 3.67395 0
M  V30 15782 H 1503.42 2.62325 2.8602 0
M  V30 15783 H 1501.52 0.309694 3.71311 0
M  V30 15784 H 1501.64 2.09777 4.30732 0
M  V30 15785 H 1500 1.02742 2.33058 0
M  V30 15786 H 1500.78 2.68748 2.1361 0
M  V30 15787 N 1503.23 -1.30138 0.888926 0
M  V30 15788 C 1504.14 -2.31778 0.3628 0
M  V30 15789 C 1505.15 -1.65507 -0.53698 0
M  V30 15790 O 1506.33 -1.96775 -0.429152 0
M  V30 15791 C 1503.39 -3.44259 -0.410673 0
M  V30 15792 C 1502.46 -4.26147 0.519334 0
M  V30 15793 C 1501.69 -5.33257 -0.21732 0
M  V30 15794 O 1501.91 -5.5185 -1.44284 0
M  V30 15795 O 1500.85 -6.00329 0.43461 0
M  V30 15796 H 1504.67 -2.78739 1.20575 0
M  V30 15797 H 1502.26 -1.34379 0.65289 0
M  V30 15798 H 1504.14 -4.1277 -0.848467 0
M  V30 15799 H 1502.81 -2.99426 -1.22986 0
M  V30 15800 H 1501.72 -3.60319 1.00602 0
M  V30 15801 H 1503.05 -4.74595 1.30464 0
M  V30 15802 N 1504.71 -0.650285 -1.43559 0
M  V30 15803 C 1505.93 -0.170139 -2.06199 0
M  V30 15804 C 1506.35 1.16304 -1.48724 0
M  V30 15805 O 1505.71 1.71739 -0.617418 0
M  V30 15806 C 1505.76 -0.0698577 -3.61432 0
M  V30 15807 O 1505.48 -1.35033 -4.16771 0
M  V30 15808 C 1506.98 0.436714 -4.41144 0
M  V30 15809 H 1504.2 -0.0885316 -0.665134 0
M  V30 15810 H 1506.74 -0.890104 -1.84112 0
M  V30 15811 H 1504.9 0.60065 -3.82715 0
M  V30 15812 H 1505.31 -1.20762 -5.10409 0
M  V30 15813 H 1506.79 0.455843 -5.50115 0
M  V30 15814 H 1507.26 1.46747 -4.13959 0
M  V30 15815 H 1507.87 -0.201201 -4.24824 0
M  V30 15816 N 1506.18 1.52647 -0.392018 0
M  V30 15817 C 1507.43 2.01912 0.18958 0
M  V30 15818 C 1507.76 1.27786 1.46234 0
M  V30 15819 O 1507.04 0.379124 1.90769 0
M  V30 15820 C 1507.32 3.57217 0.454734 0
M  V30 15821 C 1507.17 4.4201 -0.833501 0
M  V30 15822 C 1508.49 4.22146 1.24421 0
M  V30 15823 H 1505.61 0.733909 0.0674281 0
M  V30 15824 H 1508.25 1.82685 -0.52212 0
M  V30 15825 H 1506.4 3.73731 1.06101 0
M  V30 15826 H 1508.08 4.37242 -1.47027 0
M  V30 15827 H 1506.32 4.08912 -1.44823 0
M  V30 15828 H 1506.99 5.48701 -0.602585 0
M  V30 15829 H 1509.47 4.09627 0.731093 0
M  V30 15830 H 1508.34 5.30786 1.39848 0
M  V30 15831 H 1508.6 3.7996 2.26016 0
M  V30 15832 N 1507.66 0.121921 1.57128 0
M  V30 15833 C 1508.89 -0.546325 2.00075 0
M  V30 15834 C 1509.31 -1.59245 1.00113 0
M  V30 15835 O 1508.67 -1.8128 -0.0267687 0
M  V30 15836 C 1508.72 -1.14651 3.41888 0
M  V30 15837 O 1507.82 -2.26199 3.4483 0
M  V30 15838 H 1507.16 -0.136184 0.649885 0
M  V30 15839 H 1509.69 0.211257 2.03506 0
M  V30 15840 H 1509.7 -1.48133 3.80159 0
M  V30 15841 H 1508.38 -0.380273 4.14158 0
M  V30 15842 H 1506.96 -1.94134 3.18381 0
M  V30 15843 N 1509.14 -1.56867 -0.151857 0
M  V30 15844 C 1510.37 -1.87237 -0.880343 0
M  V30 15845 C 1510.78 -0.709565 -1.74959 0
M  V30 15846 O 1510.14 0.320818 -1.79658 0
M  V30 15847 C 1510.19 -3.16811 -1.74107 0
M  V30 15848 O 1509.91 -4.28611 -0.906858 0
M  V30 15849 C 1511.41 -3.60662 -2.57755 0
M  V30 15850 H 1508.63 -0.62074 -0.254799 0
M  V30 15851 H 1511.18 -2.03977 -0.146104 0
M  V30 15852 H 1509.33 -3.01838 -2.42842 0
M  V30 15853 H 1509.75 -5.02673 -1.49733 0
M  V30 15854 H 1511.22 -4.54176 -3.13732 0
M  V30 15855 H 1511.7 -2.85716 -3.33561 0
M  V30 15856 H 1512.3 -3.78312 -1.94319 0
M  V30 15857 N 1510.62 0.421051 -1.51871 0
M  V30 15858 C 1511.9 1.18133 -1.55897 0
M  V30 15859 C 1512.28 2.08459 -0.332876 0
M  V30 15860 O 1511.62 2.18114 0.681052 0
M  V30 15861 C 1511.83 1.96902 -2.88151 0
M  V30 15862 C 1513.18 2.53382 -3.4071 0
M  V30 15863 O 1514.21 2.07095 -2.89811 0
M  V30 15864 O 1513.06 3.37846 -4.29561 0
M  V30 15865 H 1510.16 0.538721 -0.627462 0
M  V30 15866 H 1512.7 0.428798 -1.64193 0
M  V30 15867 H 1511.48 1.30659 -3.68841 0
M  V30 15868 H 1511.1 2.79185 -2.83093 0
M  V30 15869 N 1512.1 1.42293 0.677538 0
M  V30 15870 C 1513.34 1.42616 1.4376 0
M  V30 15871 C 1513.67 0.0416268 1.94455 0
M  V30 15872 O 1512.93 -0.949544 1.7112 0
M  V30 15873 C 1513.23 2.3951 2.65273 0
M  V30 15874 C 1512.89 3.85952 2.33135 0
M  V30 15875 C 1511.55 4.25842 2.24081 0
M  V30 15876 C 1513.91 4.78337 2.06987 0
M  V30 15877 C 1511.23 5.561 1.87001 0
M  V30 15878 C 1513.59 6.08934 1.71411 0
M  V30 15879 C 1512.25 6.47826 1.60865 0
M  V30 15880 H 1511.52 0.521869 0.526055 0
M  V30 15881 H 1514.17 1.75214 0.772797 0
M  V30 15882 H 1512.47 2.00229 3.36773 0
M  V30 15883 H 1514.17 2.37025 3.2345 0
M  V30 15884 H 1510.76 3.54369 2.41083 0
M  V30 15885 H 1514.94 4.48308 2.12916 0
M  V30 15886 H 1510.2 5.85097 1.77403 0
M  V30 15887 H 1514.37 6.80009 1.50203 0
M  V30 15888 H 1512 7.48669 1.31902 0
M  V30 15889 N 1513.57 -0.913576 1.28419 0
M  V30 15890 C 1514.85 -1.64203 1.06285 0
M  V30 15891 C 1515.23 -2.07319 -0.397728 0
M  V30 15892 O 1514.58 -1.8183 -1.38383 0
M  V30 15893 C 1514.79 -2.8334 2.03763 0
M  V30 15894 C 1516.14 -3.54355 2.33918 0
M  V30 15895 O 1517.16 -2.93489 2.01848 0
M  V30 15896 O 1516.02 -4.6405 2.88652 0
M  V30 15897 H 1513.11 -0.720359 0.406217 0
M  V30 15898 H 1515.66 -0.962866 1.39739 0
M  V30 15899 H 1514.43 -2.48575 3.02203 0
M  V30 15900 H 1514.06 -3.5897 1.70956 0
M  V30 15901 N 1515.05 -1.1067 -1.12204 0
M  V30 15902 C 1515.96 -0.770221 -2.21596 0
M  V30 15903 C 1516.98 0.233297 -1.72429 0
M  V30 15904 O 1518.15 0.0714493 -2.01273 0
M  V30 15905 C 1515.22 -0.209682 -3.46065 0
M  V30 15906 C 1514.28 -1.27079 -4.1006 0
M  V30 15907 C 1513.51 -0.736899 -5.28588 0
M  V30 15908 O 1513.74 0.435838 -5.68732 0
M  V30 15909 O 1512.67 -1.49797 -5.82962 0
M  V30 15910 H 1516.5 -1.6834 -2.52776 0
M  V30 15911 H 1514.08 -0.882012 -1.20586 0
M  V30 15912 H 1515.96 0.0989516 -4.21284 0
M  V30 15913 H 1514.64 0.676316 -3.16556 0
M  V30 15914 H 1513.55 -1.63231 -3.3661 0
M  V30 15915 H 1514.88 -2.12989 -4.4373 0
M  V30 15916 N 1516.53 1.29665 -0.895815 0
M  V30 15917 C 1517.77 1.975 -0.526604 0
M  V30 15918 C 1518.13 1.69097 0.909403 0
M  V30 15919 O 1519.34 2.30355 1.38529 0
M  V30 15920 C 1517.61 3.48185 -0.806342 0
M  V30 15921 S 1519.17 4.35454 -0.540857 0
M  V30 15922 H 1515.98 0.68359 -0.195513 0
M  V30 15923 H 1518.59 1.57557 -1.15741 0
M  V30 15924 H 1517.29 3.6635 -1.84976 0
M  V30 15925 H 1516.82 3.9306 -0.163499 0
M  V30 15926 H 1518.84 4.92364 0.615817 0
M  V30 15927 N 1518.01 0.657889 1.43212 0
M  V30 15928 C 1519.29 0.102895 1.95329 0
M  V30 15929 C 1519.67 -1.37821 1.59901 0
M  V30 15930 O 1519.01 -2.10602 0.886505 0
M  V30 15931 C 1519.22 0.354075 3.47199 0
M  V30 15932 C 1520.57 0.261511 4.23794 0
M  V30 15933 O 1521.6 0.286889 3.55043 0
M  V30 15934 O 1520.45 0.189209 5.46172 0
M  V30 15935 H 1517.55 -0.00692284 0.826971 0
M  V30 15936 H 1520.09 0.73145 1.53127 0
M  V30 15937 H 1518.87 1.38075 3.6613 0
M  V30 15938 H 1518.49 -0.307321 3.96411 0
M  V30 15939 N 1519.49 -1.52437 0.400108 0
M  V30 15940 C 1520.43 -2.26763 -0.429799 0
M  V30 15941 C 1521.4 -1.28808 -1.0487 0
M  V30 15942 O 1522.59 -1.57655 -1.07468 0
M  V30 15943 C 1519.73 -3.08564 -1.54539 0
M  V30 15944 C 1518.84 -4.21463 -0.948294 0
M  V30 15945 C 1517.98 -4.9064 -2.03584 0
M  V30 15946 C 1517.02 -5.95515 -1.4152 0
M  V30 15947 N 1516.15 -6.58245 -2.4425 0
M  V30 15948 H 1520.99 -2.97256 0.210467 0
M  V30 15949 H 1518.53 -1.46645 0.115627 0
M  V30 15950 H 1520.49 -3.54289 -2.20307 0
M  V30 15951 H 1519.12 -2.40259 -2.15582 0
M  V30 15952 H 1518.17 -3.79974 -0.179918 0
M  V30 15953 H 1519.48 -4.96722 -0.454845 0
M  V30 15954 H 1518.64 -5.39724 -2.77097 0
M  V30 15955 H 1517.37 -4.14929 -2.56291 0
M  V30 15956 H 1516.38 -5.45759 -0.665354 0
M  V30 15957 H 1517.6 -6.73164 -0.89593 0
M  V30 15958 H 1515.55 -5.85369 -2.96107 0
M  V30 15959 H 1515.47 -7.2915 -1.99692 0
M  V30 15960 H 1516.74 -7.1197 -3.17362 0
M  V30 15961 N 1520.96 -0.130252 -1.57061 0
M  V30 15962 C 1521.89 0.812189 -2.18919 0
M  V30 15963 C 1522.88 1.2692 -1.13249 0
M  V30 15964 O 1524.06 1.32978 -1.41529 0
M  V30 15965 C 1521.19 2.05803 -2.79754 0
M  V30 15966 C 1520.14 1.73841 -3.91105 0
M  V30 15967 C 1519.47 3.05549 -4.38799 0
M  V30 15968 C 1520.77 0.997991 -5.12677 0
M  V30 15969 H 1522.46 0.296692 -2.97926 0
M  V30 15970 H 1520.01 0.141265 -1.43305 0
M  V30 15971 H 1521.96 2.72201 -3.21691 0
M  V30 15972 H 1520.69 2.59697 -1.98053 0
M  V30 15973 H 1519.35 1.09828 -3.49762 0
M  V30 15974 H 1518.99 3.57399 -3.53942 0
M  V30 15975 H 1518.69 2.84932 -5.13894 0
M  V30 15976 H 1520.22 3.73045 -4.83394 0
M  V30 15977 H 1521.63 1.56372 -5.51562 0
M  V30 15978 H 1520.03 0.892378 -5.93428 0
M  V30 15979 H 1521.1 -0.0132936 -4.84898 0
M  V30 15980 N 1522.44 1.56945 0.143535 0
M  V30 15981 C 1523.67 1.87429 0.869139 0
M  V30 15982 C 1524.08 0.716856 1.75094 0
M  V30 15983 O 1523.42 -0.322379 1.80849 0
M  V30 15984 C 1523.49 3.12657 1.77442 0
M  V30 15985 C 1523.15 4.44311 1.06943 0
M  V30 15986 C 1524.15 5.18187 0.421706 0
M  V30 15987 C 1521.83 4.91033 1.05791 0
M  V30 15988 C 1523.83 6.36992 -0.228127 0
M  V30 15989 C 1521.51 6.09761 0.404266 0
M  V30 15990 C 1522.51 6.82587 -0.237621 0
M  V30 15991 O 1522.2 7.99059 -0.880893 0
M  V30 15992 H 1521.93 0.625443 0.256508 0
M  V30 15993 H 1524.49 2.04922 0.139979 0
M  V30 15994 H 1522.72 2.91181 2.54461 0
M  V30 15995 H 1524.4 3.29359 2.37228 0
M  V30 15996 H 1525.17 4.83157 0.422395 0
M  V30 15997 H 1521.05 4.3427 1.54694 0
M  V30 15998 H 1524.59 6.93773 -0.729732 0
M  V30 15999 H 1520.49 6.44252 0.401256 0
M  V30 16000 H 1521.26 8.14747 -0.782907 0
M  V30 16001 N 1523.92 -0.412991 1.52093 0
M  V30 16002 C 1525.17 -1.1603 1.65962 0
M  V30 16003 C 1525.5 -1.90598 0.387652 0
M  V30 16004 O 1524.75 -1.85308 -0.629243 0
M  V30 16005 C 1525.05 -2.18321 2.82968 0
M  V30 16006 C 1524.72 -1.60589 4.21334 0
M  V30 16007 C 1523.38 -1.44568 4.5897 0
M  V30 16008 C 1525.73 -1.18388 5.07576 0
M  V30 16009 C 1523.06 -0.848584 5.80531 0
M  V30 16010 C 1525.41 -0.600985 6.29739 0
M  V30 16011 C 1524.07 -0.42788 6.66127 0
M  V30 16012 H 1523.34 -0.424583 0.607297 0
M  V30 16013 H 1525.99 -0.448028 1.86185 0
M  V30 16014 H 1524.3 -2.95678 2.57063 0
M  V30 16015 H 1525.99 -2.76009 2.90895 0
M  V30 16016 H 1522.58 -1.7404 3.91673 0
M  V30 16017 H 1526.77 -1.29576 4.79086 0
M  V30 16018 H 1522.02 -0.702447 6.07351 0
M  V30 16019 H 1526.2 -0.265583 6.95893 0
M  V30 16020 H 1523.82 0.0369013 7.60191 0
M  V30 16021 N 1525.4 -1.4265 -0.669982 0
M  V30 16022 C 1526.31 -1.48916 -1.81276 0
M  V30 16023 C 1527.33 -0.377523 -1.69855 0
M  V30 16024 O 1528.5 -0.629151 -1.91321 0
M  V30 16025 C 1525.57 -1.39376 -3.17451 0
M  V30 16026 C 1524.63 -2.61072 -3.40793 0
M  V30 16027 C 1523.86 -2.51976 -4.70472 0
M  V30 16028 O 1524.08 -1.55827 -5.48702 0
M  V30 16029 O 1523.02 -3.42193 -4.95164 0
M  V30 16030 H 1526.84 -2.45382 -1.78945 0
M  V30 16031 H 1524.43 -1.24467 -0.826342 0
M  V30 16032 H 1526.31 -1.36435 -3.98702 0
M  V30 16033 H 1524.99 -0.460376 -3.20409 0
M  V30 16034 H 1523.89 -2.69587 -2.59372 0
M  V30 16035 H 1525.23 -3.53325 -3.42669 0
M  V30 16036 N 1526.88 0.906753 -1.28902 0
M  V30 16037 C 1527.79 2.04313 -1.15296 0
M  V30 16038 C 1528.8 1.73826 -0.0778619 0
M  V30 16039 O 1529.98 1.99322 -0.288543 0
M  V30 16040 C 1527.04 3.36782 -0.823317 0
M  V30 16041 C 1526.11 3.80834 -1.98152 0
M  V30 16042 C 1525.34 5.06981 -1.66751 0
M  V30 16043 O 1525.56 5.67391 -0.58513 0
M  V30 16044 O 1524.5 5.46915 -2.51332 0
M  V30 16045 H 1528.32 2.18713 -2.10709 0
M  V30 16046 H 1525.91 1.02928 -1.08287 0
M  V30 16047 H 1527.79 4.16298 -0.653735 0
M  V30 16048 H 1526.46 3.23542 0.101097 0
M  V30 16049 H 1525.37 3.02115 -2.2063 0
M  V30 16050 H 1526.7 3.98648 -2.88688 0
M  V30 16051 N 1528.36 1.11264 1.11616 0
M  V30 16052 C 1529.29 0.79149 2.19676 0
M  V30 16053 C 1530.27 -0.239351 1.68408 0
M  V30 16054 O 1531.45 -0.103228 1.93925 0
M  V30 16055 C 1528.58 0.231891 3.46525 0
M  V30 16056 C 1527.54 1.19439 4.10997 0
M  V30 16057 C 1526.86 0.495593 5.32398 0
M  V30 16058 C 1528.16 2.54437 4.56135 0
M  V30 16059 H 1529.86 1.69503 2.46797 0
M  V30 16060 H 1527.4 0.816433 1.18619 0
M  V30 16061 H 1529.35 -0.00497468 4.214 0
M  V30 16062 H 1528.08 -0.706938 3.18857 0
M  V30 16063 H 1526.74 1.41686 3.38113 0
M  V30 16064 H 1526.39 -0.447984 5.01001 0
M  V30 16065 H 1526.09 1.13753 5.76484 0
M  V30 16066 H 1527.61 0.267476 6.10014 0
M  V30 16067 H 1529.02 2.36289 5.22341 0
M  V30 16068 H 1527.42 3.14595 5.11028 0
M  V30 16069 H 1528.49 3.13795 3.69676 0
M  V30 16070 N 1529.83 -1.29188 0.902679 0
M  V30 16071 C 1531.06 -2.00113 0.544953 0
M  V30 16072 C 1531.48 -1.67093 -0.863805 0
M  V30 16073 O 1530.84 -0.897179 -1.57545 0
M  V30 16074 C 1530.89 -3.52762 0.747741 0
M  V30 16075 O 1529.99 -4.11923 -0.198388 0
M  V30 16076 H 1529.33 -0.629054 0.212572 0
M  V30 16077 H 1531.86 -1.64611 1.21508 0
M  V30 16078 H 1531.87 -4.02732 0.653546 0
M  V30 16079 H 1530.55 -3.76131 1.77478 0
M  V30 16080 H 1529.13 -3.72857 -0.0563959 0
M  V30 16081 N 1531.31 -0.665475 -1.42861 0
M  V30 16082 C 1532.24 0.00482845 -2.335 0
M  V30 16083 C 1533.22 0.799135 -1.50159 0
M  V30 16084 O 1534.41 0.75816 -1.78789 0
M  V30 16085 C 1531.54 0.963347 -3.33672 0
M  V30 16086 C 1530.49 0.278294 -4.27094 0
M  V30 16087 C 1529.82 1.34911 -5.174 0
M  V30 16088 C 1531.12 -0.836925 -5.15551 0
M  V30 16089 H 1532.81 -0.752129 -2.89799 0
M  V30 16090 H 1530.36 -0.363139 -1.39346 0
M  V30 16091 H 1532.31 1.44128 -3.95986 0
M  V30 16092 H 1531.03 1.75161 -2.75656 0
M  V30 16093 H 1529.69 -0.179314 -3.66161 0
M  V30 16094 H 1529.34 2.12912 -4.55716 0
M  V30 16095 H 1529.04 0.895919 -5.8073 0
M  V30 16096 H 1530.57 1.82816 -5.8259 0
M  V30 16097 H 1531.98 -0.440617 -5.71604 0
M  V30 16098 H 1530.38 -1.21533 -5.87665 0
M  V30 16099 H 1531.45 -1.6897 -4.54507 0
M  V30 16100 N 1532.79 1.52222 -0.408187 0
M  V30 16101 C 1533.7 2.30725 0.424645 0
M  V30 16102 C 1534.72 1.38412 1.05442 0
M  V30 16103 O 1535.89 1.71486 1.05614 0
M  V30 16104 C 1532.96 3.11273 1.52677 0
M  V30 16105 C 1532.02 4.19323 0.920143 0
M  V30 16106 C 1531.25 4.96021 1.96974 0
M  V30 16107 O 1531.47 4.73011 3.18774 0
M  V30 16108 O 1530.41 5.80887 1.5765 0
M  V30 16109 H 1534.23 3.02935 -0.215411 0
M  V30 16110 H 1531.82 1.48413 -0.171414 0
M  V30 16111 H 1533.7 3.61436 2.16661 0
M  V30 16112 H 1532.38 2.41857 2.15144 0
M  V30 16113 H 1531.28 3.7331 0.243037 0
M  V30 16114 H 1532.62 4.91028 0.339405 0
M  V30 16115 N 1534.27 0.138579 1.5699 0
M  V30 16116 C 1535.68 -0.217898 1.58106 0
M  V30 16117 C 1535.88 -1.65293 1.15241 0
M  V30 16118 O 1534.94 -2.37805 0.848815 0
M  V30 16119 C 1536.25 0.033211 3.00682 0
M  V30 16120 C 1537.8 -0.0311593 3.12984 0
M  V30 16121 C 1538.28 0.192508 4.57595 0
M  V30 16122 N 1539.77 0.139147 4.62991 0
M  V30 16123 C 1540.5 0.286837 5.72682 0
M  V30 16124 N 1540 0.491784 6.91052 0
M  V30 16125 N 1541.79 0.225032 5.61649 0
M  V30 16126 H 1533.94 1.07567 1.83148 0
M  V30 16127 H 1536.2 0.425143 0.847324 0
M  V30 16128 H 1535.91 1.02605 3.364 0
M  V30 16129 H 1535.78 -0.689972 3.70836 0
M  V30 16130 H 1538.17 -1.01454 2.77112 0
M  V30 16131 H 1538.25 0.724219 2.45334 0
M  V30 16132 H 1537.9 1.17295 4.9417 0
M  V30 16133 H 1537.83 -0.583092 5.23362 0
M  V30 16134 H 1540.32 -0.0149467 3.77897 0
M  V30 16135 H 1540.63 0.594813 7.70508 0
M  V30 16136 H 1538.98 0.528002 6.92991 0
M  V30 16137 H 1542.17 0.0657415 4.68054 0
M  V30 16138 H 1542.34 0.343569 6.47089 0
M  V30 16139 N 1535.75 -1.57019 -0.13521 0
M  V30 16140 C 1536.99 -1.83178 -0.844308 0
M  V30 16141 C 1537.31 -0.7217 -1.81799 0
M  V30 16142 O 1538.51 -0.869232 -2.57209 0
M  V30 16143 C 1536.97 -3.2471 -1.55214 0
M  V30 16144 C 1536.58 -4.43685 -0.620268 0
M  V30 16145 C 1538.32 -3.60133 -2.24732 0
M  V30 16146 C 1536.23 -5.76242 -1.3304 0
M  V30 16147 H 1535.16 -0.683175 -0.319041 0
M  V30 16148 H 1537.81 -1.83243 -0.0970242 0
M  V30 16149 H 1536.19 -3.19067 -2.34547 0
M  V30 16150 H 1537.37 -4.60591 0.138685 0
M  V30 16151 H 1535.68 -4.16387 -0.0328906 0
M  V30 16152 H 1538.28 -4.56431 -2.78522 0
M  V30 16153 H 1538.62 -2.86767 -3.01779 0
M  V30 16154 H 1539.15 -3.67489 -1.52305 0
M  V30 16155 H 1535.89 -6.52734 -0.60155 0
M  V30 16156 H 1535.41 -5.63251 -2.06176 0
M  V30 16157 H 1537.09 -6.19445 -1.86808 0
M  V30 16158 N 1537.22 0.404919 -1.52309 0
M  V30 16159 C 1538.15 1.50039 -1.78915 0
M  V30 16160 C 1539.14 1.57587 -0.640329 0
M  V30 16161 O 1540.32 1.72793 -0.886344 0
M  V30 16162 C 1537.45 2.87819 -1.94364 0
M  V30 16163 C 1536.4 2.9512 -3.09981 0
M  V30 16164 C 1535.73 4.35195 -3.10659 0
M  V30 16165 C 1537.03 2.66219 -4.4936 0
M  V30 16166 H 1538.72 1.28025 -2.70647 0
M  V30 16167 H 1536.27 0.61445 -1.30233 0
M  V30 16168 H 1538.22 3.64446 -2.11559 0
M  V30 16169 H 1536.95 3.11136 -0.993067 0
M  V30 16170 H 1535.61 2.20939 -2.92543 0
M  V30 16171 H 1535.25 4.55528 -2.13316 0
M  V30 16172 H 1534.95 4.41003 -3.88317 0
M  V30 16173 H 1536.48 5.1375 -3.29989 0
M  V30 16174 H 1537.89 3.32567 -4.66982 0
M  V30 16175 H 1536.29 2.83398 -5.28967 0
M  V30 16176 H 1537.36 1.61636 -4.57167 0
M  V30 16177 N 1538.7 1.43003 0.662408 0
M  V30 16178 C 1539.98 1.34613 1.41911 0
M  V30 16179 C 1540.36 -0.0105336 2.11097 0
M  V30 16180 O 1539.71 -1.02667 2.04137 0
M  V30 16181 C 1539.92 2.52297 2.41137 0
M  V30 16182 C 1541.27 2.94972 3.05412 0
M  V30 16183 O 1542.29 2.52277 2.51465 0
M  V30 16184 O 1541.15 3.68906 4.03201 0
M  V30 16185 H 1538.24 0.531508 0.633583 0
M  V30 16186 H 1540.79 1.55035 0.690088 0
M  V30 16187 H 1539.56 3.42685 1.88898 0
M  V30 16188 H 1539.18 2.33926 3.21503 0
M  V30 16189 N 1540.18 -0.899904 1.29381 0
M  V30 16190 C 1541.43 -1.64502 1.16713 0
M  V30 16191 C 1541.74 -1.93577 -0.280563 0
M  V30 16192 O 1542.95 -2.66305 -0.528563 0
M  V30 16193 C 1541.4 -2.96414 2.04125 0
M  V30 16194 C 1541.01 -2.74935 3.53716 0
M  V30 16195 C 1542.76 -3.74337 2.0018 0
M  V30 16196 C 1540.66 -4.02571 4.33232 0
M  V30 16197 H 1539.59 -0.617121 0.433218 0
M  V30 16198 H 1542.24 -0.997521 1.54019 0
M  V30 16199 H 1540.63 -3.62375 1.59687 0
M  V30 16200 H 1541.8 -2.17567 4.06203 0
M  V30 16201 H 1540.12 -2.10407 3.5933 0
M  V30 16202 H 1542.71 -4.6897 2.56849 0
M  V30 16203 H 1543.06 -4.04559 0.981735 0
M  V30 16204 H 1543.59 -3.15216 2.4266 0
M  V30 16205 H 1540.33 -3.77516 5.35875 0
M  V30 16206 H 1539.85 -4.59499 3.85514 0
M  V30 16207 H 1541.53 -4.70719 4.43884 0
M  V30 16208 N 1541.66 -1.11854 -1.11024 0
M  V30 16209 C 1542.89 -0.891419 -1.86379 0
M  V30 16210 C 1543.3 0.562516 -1.80644 0
M  V30 16211 O 1542.64 1.40037 -1.18893 0
M  V30 16212 C 1542.7 -1.28029 -3.3593 0
M  V30 16213 C 1542.37 -2.74427 -3.65429 0
M  V30 16214 C 1543.36 -3.72636 -3.62545 0
M  V30 16215 C 1541.05 -3.11182 -3.94298 0
M  V30 16216 C 1543.04 -5.05615 -3.88113 0
M  V30 16217 C 1540.73 -4.44345 -4.19524 0
M  V30 16218 C 1541.73 -5.41371 -4.16421 0
M  V30 16219 O 1541.41 -6.72135 -4.41009 0
M  V30 16220 H 1541.15 -0.318813 -0.596099 0
M  V30 16221 H 1543.7 -1.49069 -1.41307 0
M  V30 16222 H 1541.93 -0.624186 -3.81629 0
M  V30 16223 H 1543.62 -1.02827 -3.92659 0
M  V30 16224 H 1544.39 -3.45586 -3.40287 0
M  V30 16225 H 1540.26 -2.36274 -3.95848 0
M  V30 16226 H 1543.81 -5.81338 -3.85606 0
M  V30 16227 H 1539.71 -4.71127 -4.41259 0
M  V30 16228 H 1540.47 -6.77989 -4.58555 0
M  V30 16229 N 1543.14 1.28707 -0.909517 0
M  V30 16230 C 1544.09 2.25045 -0.365899 0
M  V30 16231 C 1545.07 1.5228 0.51959 0
M  V30 16232 O 1546.26 1.733 0.360004 0
M  V30 16233 C 1543.39 3.41 0.396725 0
M  V30 16234 C 1542.48 4.21092 -0.504243 0
M  V30 16235 N 1542.87 4.79293 -1.61592 0
M  V30 16236 C 1541.17 4.44964 -0.303843 0
M  V30 16237 C 1541.87 5.39516 -2.17481 0
M  V30 16238 N 1540.84 5.23442 -1.4666 0
M  V30 16239 H 1544.65 2.67611 -1.21497 0
M  V30 16240 H 1542.16 1.4343 -0.761686 0
M  V30 16241 H 1544.16 4.09094 0.80299 0
M  V30 16242 H 1542.82 2.99969 1.24294 0
M  V30 16243 H 1543.83 4.77785 -1.99856 0
M  V30 16244 H 1540.5 4.14456 0.503201 0
M  V30 16245 H 1541.89 5.95606 -3.10972 0
M  V30 16246 N 1544.61 0.673042 1.42506 0
M  V30 16247 C 1545.55 -0.0452975 2.29155 0
M  V30 16248 C 1546.56 -0.767277 1.43585 0
M  V30 16249 O 1547.75 -0.621728 1.67322 0
M  V30 16250 C 1544.85 -1.0878 3.20967 0
M  V30 16251 C 1544.02 -0.439999 4.35181 0
M  V30 16252 C 1543.08 -1.38205 5.07726 0
M  V30 16253 O 1542.11 -0.883031 5.62309 0
M  V30 16254 N 1543.31 -2.7154 5.13075 0
M  V30 16255 H 1546.07 0.698517 2.91446 0
M  V30 16256 H 1543.63 0.517322 1.53412 0
M  V30 16257 H 1545.63 -1.71925 3.66366 0
M  V30 16258 H 1544.2 -1.73337 2.6014 0
M  V30 16259 H 1543.42 0.370926 3.92451 0
M  V30 16260 H 1544.7 0.0113738 5.08799 0
M  V30 16261 H 1544.1 -3.14623 4.70137 0
M  V30 16262 H 1542.66 -3.29937 5.62126 0
M  V30 16263 N 1546.09 -1.52004 0.416254 0
M  V30 16264 C 1547 -2.30947 -0.412403 0
M  V30 16265 C 1548.02 -1.38969 -1.04707 0
M  V30 16266 O 1549.19 -1.72044 -1.04703 0
M  V30 16267 C 1546.26 -3.12078 -1.51024 0
M  V30 16268 C 1545.32 -4.19805 -0.897892 0
M  V30 16269 C 1544.55 -4.97059 -1.94341 0
M  V30 16270 O 1544.78 -4.74695 -3.16261 0
M  V30 16271 O 1543.71 -5.81715 -1.54567 0
M  V30 16272 H 1547.54 -3.02817 0.231473 0
M  V30 16273 H 1545.12 -1.4832 0.179283 0
M  V30 16274 H 1547 -3.6258 -2.14741 0
M  V30 16275 H 1545.68 -2.42995 -2.13858 0
M  V30 16276 H 1544.59 -3.73433 -0.223236 0
M  V30 16277 H 1545.92 -4.91201 -0.31336 0
M  V30 16278 N 1547.57 -0.146903 -1.56914 0
M  V30 16279 C 1548.53 0.778709 -2.15566 0
M  V30 16280 C 1549.53 1.1753 -1.09742 0
M  V30 16281 O 1550.72 1.09624 -1.35382 0
M  V30 16282 C 1547.86 2.0567 -2.71869 0
M  V30 16283 H 1549.05 0.268506 -2.98696 0
M  V30 16284 H 1546.6 0.10254 -1.55963 0
M  V30 16285 H 1547.34 2.61057 -1.92405 0
M  V30 16286 H 1547.12 1.78154 -3.4929 0
M  V30 16287 H 1548.61 2.71779 -3.17059 0
M  V30 16288 N 1549.05 1.57088 0.126881 0
M  V30 16289 C 1550.29 1.8625 0.842031 0
M  V30 16290 C 1550.65 0.733868 1.77421 0
M  V30 16291 O 1551.85 0.907051 2.53034 0
M  V30 16292 C 1550.12 3.2063 1.57897 0
M  V30 16293 S 1551.68 3.71403 2.33677 0
M  V30 16294 H 1548.5 0.653034 0.28119 0
M  V30 16295 H 1551.1 1.9524 0.100825 0
M  V30 16296 H 1549.81 4.00722 0.885982 0
M  V30 16297 H 1549.34 3.14698 2.3607 0
M  V30 16298 H 1551.35 3.42274 3.59253 0
M  V30 16299 N 1550.53 -0.396836 1.52522 0
M  V30 16300 C 1551.77 -1.14037 1.66853 0
M  V30 16301 C 1552.1 -1.90706 0.406987 0
M  V30 16302 O 1551.37 -1.87165 -0.578443 0
M  V30 16303 H 1549.95 -0.423967 0.615029 0
M  V30 16304 H 1552.61 -0.451042 1.89609 0
M  V30 16305 H 1551.7 -1.84763 2.51533 0
M  V30 16306 N 1552.01 -1.43353 -0.654814 0
M  V30 16307 C 1553.25 -1.44599 -1.41193 0
M  V30 16308 C 1553.57 -0.0707955 -1.94871 0
M  V30 16309 O 1552.84 0.893637 -1.7433 0
M  V30 16310 H 1551.42 -0.532373 -0.524011 0
M  V30 16311 H 1554.09 -1.78942 -0.772388 0
M  V30 16312 H 1553.18 -2.15761 -2.25508 0
M  V30 16313 N 1553.48 0.89303 -1.29857 0
M  V30 16314 C 1554.72 1.65836 -1.19489 0
M  V30 16315 C 1555.09 1.90389 0.248194 0
M  V30 16316 O 1556.29 2.6457 0.474963 0
M  V30 16317 C 1554.56 2.96706 -1.9925 0
M  V30 16318 S 1556.12 3.8771 -2.05492 0
M  V30 16319 H 1552.94 0.569282 -0.425956 0
M  V30 16320 H 1555.54 1.06061 -1.64229 0
M  V30 16321 H 1554.24 2.76554 -3.03226 0
M  V30 16322 H 1553.77 3.61518 -1.55141 0
M  V30 16323 H 1555.79 4.82052 -1.17644 0
M  V30 16324 N 1554.96 1.12442 1.10429 0
M  V30 16325 C 1556.21 0.874466 1.81758 0
M  V30 16326 C 1556.52 -0.601487 1.86122 0
M  V30 16327 O 1557.73 -0.968037 2.53656 0
M  V30 16328 C 1556.19 1.51478 3.2647 0
M  V30 16329 C 1555.79 3.02552 3.30403 0
M  V30 16330 C 1557.54 1.34511 4.02625 0
M  V30 16331 C 1555.44 3.59518 4.69575 0
M  V30 16332 H 1554.37 0.323494 0.681078 0
M  V30 16333 H 1557.03 1.35091 1.24188 0
M  V30 16334 H 1555.41 0.966 3.84037 0
M  V30 16335 H 1556.58 3.63924 2.82659 0
M  V30 16336 H 1554.9 3.18917 2.67733 0
M  V30 16337 H 1557.49 1.74492 5.05427 0
M  V30 16338 H 1557.84 0.288788 4.15297 0
M  V30 16339 H 1558.37 1.86311 3.51473 0
M  V30 16340 H 1555.11 4.6491 4.62103 0
M  V30 16341 H 1554.63 3.02922 5.17686 0
M  V30 16342 H 1556.31 3.58581 5.38543 0
M  V30 16343 N 1556.44 -1.28223 0.91633 0
M  V30 16344 C 1557.69 -1.94149 0.546705 0
M  V30 16345 C 1558 -1.72904 -0.914529 0
M  V30 16346 O 1559.21 -2.33075 -1.39243 0
M  V30 16347 C 1557.66 -3.47759 0.92691 0
M  V30 16348 C 1557.27 -3.77779 2.40805 0
M  V30 16349 C 1559.02 -4.19829 0.627994 0
M  V30 16350 C 1556.92 -5.2471 2.72825 0
M  V30 16351 H 1555.85 -0.726787 0.200739 0
M  V30 16352 H 1558.5 -1.45694 1.1156 0
M  V30 16353 H 1556.89 -3.9496 0.286779 0
M  V30 16354 H 1558.06 -3.41377 3.09513 0
M  V30 16355 H 1556.37 -3.18887 2.67769 0
M  V30 16356 H 1558.97 -5.27999 0.843862 0
M  V30 16357 H 1559.31 -4.14028 -0.434315 0
M  V30 16358 H 1559.85 -3.78413 1.22671 0
M  V30 16359 H 1556.59 -5.35591 3.77919 0
M  V30 16360 H 1556.11 -5.623 2.08756 0
M  V30 16361 H 1557.79 -5.92475 2.59965 0
M  V30 16362 N 1557.92 -0.68059 -1.42147 0
M  V30 16363 C 1559.14 -0.212293 -2.06311 0
M  V30 16364 C 1559.57 1.12402 -1.50822 0
M  V30 16365 O 1558.93 1.70037 -0.629051 0
M  V30 16366 C 1558.97 -0.164156 -3.60226 0
M  V30 16367 O 1558.08 0.865582 -4.03214 0
M  V30 16368 H 1557.42 -0.107451 -0.655248 0
M  V30 16369 H 1559.95 -0.931233 -1.82179 0
M  V30 16370 H 1559.96 0.0100422 -4.07999 0
M  V30 16371 H 1558.63 -1.13952 -3.99985 0
M  V30 16372 H 1557.21 0.661955 -3.66978 0
M  V30 16373 N 1559.4 1.51781 -0.424309 0
M  V30 16374 C 1560.64 2.02269 0.146709 0
M  V30 16375 C 1560.97 1.30859 1.4349 0
M  V30 16376 O 1560.25 0.419504 1.89922 0
M  V30 16377 C 1560.53 3.58101 0.378861 0
M  V30 16378 C 1560.39 4.40143 -0.92707 0
M  V30 16379 C 1561.7 4.2469 1.15438 0
M  V30 16380 H 1558.82 0.735174 0.0518456 0
M  V30 16381 H 1561.47 1.81537 -0.560753 0
M  V30 16382 H 1559.62 3.75897 0.981496 0
M  V30 16383 H 1561.29 4.34025 -1.56268 0
M  V30 16384 H 1559.53 4.05748 -1.53464 0
M  V30 16385 H 1560.2 5.47299 -0.718837 0
M  V30 16386 H 1562.68 4.11086 0.644041 0
M  V30 16387 H 1561.55 5.33633 1.28557 0
M  V30 16388 H 1561.81 3.84668 2.17905 0
M  V30 16389 N 1560.87 0.155222 1.56834 0
M  V30 16390 C 1562.12 -0.49285 1.95998 0
M  V30 16391 C 1562.44 -1.64857 1.0415 0
M  V30 16392 O 1561.71 -1.9562 0.104654 0
M  V30 16393 H 1560.29 -0.185063 0.723713 0
M  V30 16394 H 1562.95 0.232644 1.93507 0
M  V30 16395 H 1562.05 -0.863552 2.99915 0
M  V30 16396 N 1562.35 -1.57153 -0.118549 0
M  V30 16397 C 1563.6 -1.84511 -0.824623 0
M  V30 16398 C 1563.92 -0.740473 -1.80394 0
M  V30 16399 O 1563.19 0.235481 -1.9448 0
M  V30 16400 H 1561.77 -0.680764 -0.307522 0
M  V30 16401 H 1564.43 -1.94613 -0.105764 0
M  V30 16402 H 1563.53 -2.80444 -1.36958 0
M  V30 16403 N 1563.83 0.388742 -1.5273 0
M  V30 16404 C 1564.76 1.49441 -1.73781 0
M  V30 16405 C 1565.77 1.50602 -0.618285 0
M  V30 16406 O 1566.96 1.545 -0.893986 0
M  V30 16407 C 1564.06 2.88288 -1.78166 0
M  V30 16408 C 1563.24 3.11089 -3.07478 0
M  V30 16409 C 1562.3 4.2992 -3.03407 0
M  V30 16410 O 1561.32 4.26212 -3.77269 0
M  V30 16411 N 1562.52 5.36121 -2.2261 0
M  V30 16412 H 1565.29 1.3177 -2.69178 0
M  V30 16413 H 1562.85 0.578258 -1.51221 0
M  V30 16414 H 1564.84 3.65884 -1.72949 0
M  V30 16415 H 1563.41 2.99317 -0.901553 0
M  V30 16416 H 1562.63 2.21356 -3.26183 0
M  V30 16417 H 1563.92 3.23177 -3.92981 0
M  V30 16418 H 1563.32 5.41988 -1.62067 0
M  V30 16419 H 1561.87 6.12381 -2.23232 0
M  V30 16420 N 1565.31 1.43698 0.647203 0
M  V30 16421 C 1566.56 1.44918 1.40292 0
M  V30 16422 C 1566.87 0.0794243 1.95439 0
M  V30 16423 O 1568.08 -0.0309052 2.71482 0
M  V30 16424 C 1566.53 2.55052 2.53923 0
M  V30 16425 C 1566.14 3.98161 2.05357 0
M  V30 16426 C 1567.88 2.65473 3.31246 0
M  V30 16427 C 1565.79 4.99749 3.16235 0
M  V30 16428 H 1564.72 0.539106 0.527144 0
M  V30 16429 H 1567.37 1.69708 0.697951 0
M  V30 16430 H 1565.75 2.23473 3.26919 0
M  V30 16431 H 1566.93 4.3923 1.39333 0
M  V30 16432 H 1565.24 3.91839 1.40896 0
M  V30 16433 H 1567.84 3.38546 4.13873 0
M  V30 16434 H 1568.18 1.70745 3.79673 0
M  V30 16435 H 1568.72 2.96383 2.65334 0
M  V30 16436 H 1565.45 5.96051 2.7277 0
M  V30 16437 H 1564.97 4.63288 3.80952 0
M  V30 16438 H 1566.65 5.22725 3.81271 0
M  V30 16439 N 1566.79 -0.886131 1.30328 0
M  V30 16440 C 1568.2 -1.45328 1.17203 0
M  V30 16441 C 1568.55 -1.94874 -0.227719 0
M  V30 16442 O 1567.67 -1.84901 -1.12431 0
M  V30 16443 C 1568.27 -2.64149 2.12157 0
M  V30 16444 C 1566.83 -3.16958 2.03014 0
M  V30 16445 C 1565.97 -1.89651 2.02306 0
M  V30 16446 H 1568.93 -0.696177 1.42615 0
M  V30 16447 H 1568.95 -3.40325 1.70173 0
M  V30 16448 H 1568.46 -2.28058 3.14024 0
M  V30 16449 H 1566.56 -3.57709 1.04285 0
M  V30 16450 H 1566.67 -3.80336 2.91344 0
M  V30 16451 H 1565.04 -2.07933 1.47091 0
M  V30 16452 H 1565.82 -1.5582 3.05901 0
M  V30 16453 N 1568.26 -1.13026 -1.09832 0
M  V30 16454 C 1569.21 -0.799174 -2.1844 0
M  V30 16455 C 1570.21 0.216695 -1.68008 0
M  V30 16456 O 1571.41 0.0742662 -1.79847 0
M  V30 16457 H 1567.79 -0.24064 -0.712458 0
M  V30 16458 H 1569.76 -1.72342 -2.436 0
M  V30 16459 C 1568.51 -0.276925 -3.46595 0
M  V30 16460 H 1567.83 -1.04993 -3.85768 0
M  V30 16461 H 1569.27 -0.0836468 -4.23917 0
M  V30 16462 C 1567.73 0.996479 -3.21826 0
M  V30 16463 O 1568.26 2.0731 -3.44072 0
M  V30 16464 N 1566.47 0.925903 -2.75455 0
M  V30 16465 H 1566.01 0.0496383 -2.57552 0
M  V30 16466 H 1565.97 1.77853 -2.5926 0
M  V30 16467 N 1569.74 1.27735 -0.923117 0
M  V30 16468 C 1570.69 2.28975 -0.409065 0
M  V30 16469 C 1571.68 1.61723 0.504194 0
M  V30 16470 O 1572.89 1.75848 0.384402 0
M  V30 16471 H 1569.27 0.743354 -0.113705 0
M  V30 16472 H 1571.24 2.69751 -1.27582 0
M  V30 16473 C 1569.99 3.46158 0.327099 0
M  V30 16474 H 1569.31 3.98117 -0.366444 0
M  V30 16475 H 1570.75 4.18968 0.65128 0
M  V30 16476 C 1569.21 2.99724 1.53842 0
M  V30 16477 O 1569.74 3.03001 2.6373 0
M  V30 16478 N 1567.94 2.55274 1.38865 0
M  V30 16479 H 1567.49 2.52807 0.494629 0
M  V30 16480 H 1567.45 2.24567 2.20039 0
M  V30 16481 N 1571.22 0.688118 1.41784 0
M  V30 16482 C 1572.15 0.0323199 2.33478 0
M  V30 16483 C 1573.13 -0.775145 1.51412 0
M  V30 16484 O 1574.32 -0.72962 1.79973 0
M  V30 16485 C 1571.45 -0.910141 3.35162 0
M  V30 16486 C 1570.4 -0.210312 4.27483 0
M  V30 16487 C 1569.73 -1.26662 5.19481 0
M  V30 16488 C 1571.03 0.918839 5.14154 0
M  V30 16489 H 1572.72 0.798138 2.88566 0
M  V30 16490 H 1570.27 0.385262 1.38751 0
M  V30 16491 H 1572.22 -1.3781 3.98229 0
M  V30 16492 H 1570.94 -1.70754 2.78408 0
M  V30 16493 H 1569.6 0.237544 3.6583 0
M  V30 16494 H 1569.25 -2.05635 4.59046 0
M  V30 16495 H 1568.95 -0.803416 5.82082 0
M  V30 16496 H 1570.47 -1.73524 5.85424 0
M  V30 16497 H 1571.89 0.531499 5.70831 0
M  V30 16498 H 1570.29 1.30867 5.85657 0
M  V30 16499 H 1571.36 1.7618 4.51762 0
M  V30 16500 N 1572.7 -1.51554 0.432352 0
M  V30 16501 C 1573.66 -2.26195 -0.369912 0
M  V30 16502 C 1574.66 -1.29446 -0.953961 0
M  V30 16503 O 1575.85 -1.53199 -0.829193 0
M  V30 16504 C 1572.98 -3.04993 -1.52289 0
M  V30 16505 H 1574.18 -2.98551 0.284173 0
M  V30 16506 H 1571.73 -1.55197 0.1854 0
M  V30 16507 H 1572.46 -2.37043 -2.21317 0
M  V30 16508 H 1572.25 -3.76051 -1.11032 0
M  V30 16509 H 1573.74 -3.61547 -2.08982 0
M  V30 16510 N 1574.18 -0.163538 -1.56749 0
M  V30 16511 C 1575.42 0.48412 -1.96937 0
M  V30 16512 C 1575.76 1.63418 -1.04919 0
M  V30 16513 O 1575.03 1.94269 -0.094783 0
M  V30 16514 C 1575.31 0.974532 -3.46663 0
M  V30 16515 C 1575.17 -0.175173 -4.49459 0
M  V30 16516 C 1576.49 1.85082 -3.9929 0
M  V30 16517 H 1573.6 0.174503 -0.716043 0
M  V30 16518 H 1576.25 -0.248103 -1.88373 0
M  V30 16519 H 1574.4 1.59849 -3.54091 0
M  V30 16520 H 1576.07 -0.812038 -4.54096 0
M  V30 16521 H 1574.31 -0.831853 -4.2575 0
M  V30 16522 H 1574.98 0.20996 -5.51601 0
M  V30 16523 H 1577.46 1.32488 -3.94444 0
M  V30 16524 H 1576.33 2.163 -5.04485 0
M  V30 16525 H 1576.6 2.79378 -3.42638 0
M  V30 16526 N 1575.65 1.57214 0.110213 0
M  V30 16527 C 1577.07 1.74402 0.666405 0
M  V30 16528 C 1577.42 0.783524 1.79876 0
M  V30 16529 O 1576.54 -0.0415306 2.1636 0
M  V30 16530 C 1577.14 3.1624 1.21564 0
M  V30 16531 C 1575.7 3.34904 1.71804 0
M  V30 16532 C 1574.84 2.70249 0.621347 0
M  V30 16533 H 1577.79 1.58277 -0.115765 0
M  V30 16534 H 1577.81 3.18276 2.0852 0
M  V30 16535 H 1577.33 3.86123 0.391273 0
M  V30 16536 H 1575.43 2.70077 2.56689 0
M  V30 16537 H 1575.54 4.43126 1.82143 0
M  V30 16538 H 1573.9 2.31727 1.05711 0
M  V30 16539 H 1574.69 3.42762 -0.192185 0
M  V30 16540 N 1577.13 -0.380637 1.52934 0
M  V30 16541 C 1578.06 -1.47174 1.81279 0
M  V30 16542 C 1579.04 -1.56549 0.665319 0
M  V30 16543 O 1580.23 -1.71362 0.913722 0
M  V30 16544 C 1577.36 -2.84691 1.98918 0
M  V30 16545 C 1576.31 -2.90151 3.14637 0
M  V30 16546 C 1575.64 -4.30198 3.17544 0
M  V30 16547 C 1576.94 -2.59037 4.53539 0
M  V30 16548 H 1578.63 -1.23703 2.7265 0
M  V30 16549 H 1576.18 -0.593654 1.31194 0
M  V30 16550 H 1578.13 -3.61034 2.1733 0
M  V30 16551 H 1576.86 -3.09517 1.04244 0
M  V30 16552 H 1575.51 -2.16257 2.96021 0
M  V30 16553 H 1575.16 -4.52076 2.20536 0
M  V30 16554 H 1574.86 -4.3477 3.95284 0
M  V30 16555 H 1576.39 -5.08435 3.38121 0
M  V30 16556 H 1577.8 -3.25096 4.72214 0
M  V30 16557 H 1576.2 -2.74946 5.33408 0
M  V30 16558 H 1577.27 -1.54342 4.59681 0
M  V30 16559 N 1578.61 -1.44039 -0.639573 0
M  V30 16560 C 1579.84 -1.49626 -1.42462 0
M  V30 16561 C 1580.25 -0.117078 -1.88837 0
M  V30 16562 O 1579.59 0.885666 -1.6094 0
M  V30 16563 C 1579.65 -2.39182 -2.68388 0
M  V30 16564 C 1579.32 -3.86496 -2.43865 0
M  V30 16565 C 1580.31 -4.7725 -2.06224 0
M  V30 16566 C 1578 -4.31117 -2.57766 0
M  V30 16567 C 1579.99 -6.10625 -1.82801 0
M  V30 16568 C 1577.68 -5.64541 -2.33958 0
M  V30 16569 C 1578.68 -6.54113 -1.96533 0
M  V30 16570 O 1578.37 -7.85068 -1.72983 0
M  V30 16571 H 1578.1 -0.510054 -0.443645 0
M  V30 16572 H 1580.65 -1.89593 -0.790162 0
M  V30 16573 H 1578.88 -1.94127 -3.34442 0
M  V30 16574 H 1580.57 -2.35816 -3.30372 0
M  V30 16575 H 1581.34 -4.44051 -1.95048 0
M  V30 16576 H 1577.22 -3.61663 -2.85868 0
M  V30 16577 H 1580.76 -6.80499 -1.53514 0
M  V30 16578 H 1576.66 -5.97304 -2.44741 0
M  V30 16579 H 1577.43 -7.96782 -1.87298 0
M  V30 16580 N 1580.09 0.879207 -1.30796 0
M  V30 16581 C 1581.04 1.98553 -1.17667 0
M  V30 16582 C 1582.01 1.65974 -0.0647231 0
M  V30 16583 O 1583.19 1.89336 -0.235941 0
M  V30 16584 C 1580.33 3.3368 -0.880434 0
M  V30 16585 C 1579.44 3.78913 -2.07482 0
M  V30 16586 C 1578.58 5.02714 -1.71617 0
M  V30 16587 C 1577.62 5.40371 -2.87517 0
M  V30 16588 N 1576.75 6.55352 -2.5191 0
M  V30 16589 H 1581.59 2.09115 -2.12309 0
M  V30 16590 H 1579.13 1.02382 -1.05623 0
M  V30 16591 H 1581.09 4.11467 -0.689278 0
M  V30 16592 H 1579.72 3.22787 0.0291283 0
M  V30 16593 H 1578.77 2.96987 -2.37704 0
M  V30 16594 H 1580.08 4.02757 -2.94259 0
M  V30 16595 H 1579.24 5.88142 -1.4891 0
M  V30 16596 H 1577.98 4.80754 -0.820181 0
M  V30 16597 H 1576.98 4.53466 -3.10883 0
M  V30 16598 H 1578.21 5.64301 -3.77811 0
M  V30 16599 H 1576.15 6.34956 -1.64823 0
M  V30 16600 H 1576.07 6.79093 -3.32217 0
M  V30 16601 H 1577.34 7.43996 -2.32573 0
M  V30 16602 N 1581.57 1.13606 1.09231 0
M  V30 16603 C 1582.52 0.810747 2.18013 0
M  V30 16604 C 1583.51 -0.207782 1.68121 0
M  V30 16605 O 1584.72 -0.0647274 1.79884 0
M  V30 16606 H 1581.09 0.244415 0.711172 0
M  V30 16607 H 1583.06 1.73632 2.42682 0
M  V30 16608 C 1581.81 0.295302 3.46444 0
M  V30 16609 H 1581.13 1.07037 3.85205 0
M  V30 16610 H 1582.57 0.106127 4.23867 0
M  V30 16611 C 1581.03 -0.979398 3.2235 0
M  V30 16612 O 1581.56 -2.05483 3.45166 0
M  V30 16613 N 1579.77 -0.911282 2.75942 0
M  V30 16614 H 1579.32 -0.035979 2.57575 0
M  V30 16615 H 1579.27 -1.76476 2.60199 0
M  V30 16616 N 1583.05 -1.27244 0.929878 0
M  V30 16617 C 1584.29 -1.93886 0.570331 0
M  V30 16618 C 1584.61 -1.7342 -0.891656 0
M  V30 16619 O 1583.88 -1.0832 -1.63228 0
M  V30 16620 H 1582.46 -0.717476 0.207937 0
M  V30 16621 H 1585.13 -1.5491 1.18275 0
M  V30 16622 H 1584.22 -3.02236 0.778463 0
M  V30 16623 N 1584.52 -0.695628 -1.41417 0
M  V30 16624 C 1585.77 -0.226954 -2.01526 0
M  V30 16625 C 1586.1 1.1704 -1.54968 0
M  V30 16626 O 1585.38 1.78999 -0.760895 0
M  V30 16627 C 1585.66 -0.284704 -3.58973 0
M  V30 16628 C 1585.51 -1.71901 -4.15656 0
M  V30 16629 C 1586.83 0.355454 -4.38662 0
M  V30 16630 H 1583.95 -0.0839425 -0.732204 0
M  V30 16631 H 1586.59 -0.884359 -1.68164 0
M  V30 16632 H 1584.74 0.275041 -3.87525 0
M  V30 16633 H 1586.42 -2.3326 -3.97979 0
M  V30 16634 H 1584.66 -2.25314 -3.70696 0
M  V30 16635 H 1585.33 -1.71095 -5.24815 0
M  V30 16636 H 1587.81 -0.121256 -4.15923 0
M  V30 16637 H 1586.68 0.284503 -5.48162 0
M  V30 16638 H 1586.94 1.43617 -4.18123 0
M  V30 16639 N 1586 1.51322 -0.440383 0
M  V30 16640 C 1586.95 2.27823 0.369526 0
M  V30 16641 C 1587.92 1.31543 1.01418 0
M  V30 16642 O 1589.1 1.60449 1.03251 0
M  V30 16643 C 1586.24 3.12553 1.46304 0
M  V30 16644 C 1585.36 4.23829 0.836217 0
M  V30 16645 C 1584.49 4.95865 1.90504 0
M  V30 16646 C 1583.53 5.99058 1.25681 0
M  V30 16647 N 1582.67 6.64489 2.26712 0
M  V30 16648 H 1587.51 2.96593 -0.289205 0
M  V30 16649 H 1585.04 1.46287 -0.154466 0
M  V30 16650 H 1587 3.60006 2.10836 0
M  V30 16651 H 1585.63 2.4589 2.09136 0
M  V30 16652 H 1584.68 3.80318 0.0791116 0
M  V30 16653 H 1586 4.97753 0.322989 0
M  V30 16654 H 1585.15 5.46881 2.6269 0
M  V30 16655 H 1583.89 4.21578 2.452 0
M  V30 16656 H 1582.89 5.47331 0.520422 0
M  V30 16657 H 1584.12 6.75303 0.717138 0
M  V30 16658 H 1582.07 5.93014 2.80483 0
M  V30 16659 H 1581.98 7.34188 1.80289 0
M  V30 16660 H 1583.25 7.20134 2.98373 0
M  V30 16661 N 1587.48 0.171848 1.5666 0
M  V30 16662 C 1588.73 -0.473061 1.96074 0
M  V30 16663 C 1589.04 -1.64353 1.06054 0
M  V30 16664 O 1590.25 -2.35471 1.35151 0
M  V30 16665 C 1588.7 -0.892995 3.48645 0
M  V30 16666 C 1588.31 0.251902 4.47291 0
M  V30 16667 C 1590.06 -1.50629 3.96877 0
M  V30 16668 C 1587.96 -0.187691 5.91102 0
M  V30 16669 H 1586.89 -0.180503 0.732075 0
M  V30 16670 H 1589.54 0.260164 1.81646 0
M  V30 16671 H 1587.93 -1.68221 3.58494 0
M  V30 16672 H 1589.1 1.02923 4.49159 0
M  V30 16673 H 1587.41 0.775193 4.09121 0
M  V30 16674 H 1590.01 -1.84724 5.01778 0
M  V30 16675 H 1590.35 -2.4044 3.39844 0
M  V30 16676 H 1590.89 -0.781502 3.90048 0
M  V30 16677 H 1587.63 0.675653 6.52009 0
M  V30 16678 H 1587.15 -0.93037 5.9254 0
M  V30 16679 H 1588.83 -0.631385 6.43912 0
M  V30 16680 N 1588.96 -1.5727 -0.101874 0
M  V30 16681 C 1589.89 -1.96813 -1.15498 0
M  V30 16682 C 1590.87 -0.840319 -1.39203 0
M  V30 16683 O 1592.05 -1.10002 -1.53075 0
M  V30 16684 C 1589.18 -2.27908 -2.5055 0
M  V30 16685 C 1588.23 -3.50388 -2.43168 0
M  V30 16686 S 1589.06 -5.02354 -1.85475 0
M  V30 16687 C 1590.21 -5.36619 -3.22166 0
M  V30 16688 H 1590.45 -2.8583 -0.81785 0
M  V30 16689 H 1587.98 -1.5127 -0.309296 0
M  V30 16690 H 1589.94 -2.465 -3.2825 0
M  V30 16691 H 1588.6 -1.39475 -2.81435 0
M  V30 16692 H 1587.79 -3.69565 -3.42692 0
M  V30 16693 H 1587.39 -3.31271 -1.73596 0
M  V30 16694 H 1589.69 -5.32849 -4.18423 0
M  V30 16695 H 1590.63 -6.37703 -3.07799 0
M  V30 16696 H 1591.04 -4.64082 -3.21385 0
M  V30 16697 N 1590.44 0.372521 -1.53134 0
M  V30 16698 C 1591.68 1.11368 -1.68646 0
M  V30 16699 C 1592 1.90034 -0.437275 0
M  V30 16700 O 1591.27 1.88062 0.548593 0
M  V30 16701 H 1589.85 0.414129 -0.621696 0
M  V30 16702 H 1592.52 0.42082 -1.90303 0
M  V30 16703 H 1591.61 1.80738 -2.54441 0
M  V30 16704 N 1591.91 1.44376 0.631925 0
M  V30 16705 C 1593.14 1.50598 1.41873 0
M  V30 16706 C 1593.56 0.130589 1.88348 0
M  V30 16707 O 1592.91 -0.86336 1.60787 0
M  V30 16708 C 1592.96 2.47 2.63957 0
M  V30 16709 O 1592.69 3.79192 2.1942 0
M  V30 16710 C 1594.19 2.62678 3.57092 0
M  V30 16711 H 1591.41 0.510792 0.435124 0
M  V30 16712 H 1593.95 1.89332 0.772893 0
M  V30 16713 H 1592.11 2.11404 3.24634 0
M  V30 16714 H 1592.52 4.31231 2.98563 0
M  V30 16715 H 1593.99 3.34161 4.39364 0
M  V30 16716 H 1594.47 1.67881 4.05848 0
M  V30 16717 H 1595.08 2.99172 3.02285 0
M  V30 16718 N 1593.39 -0.872258 1.31261 0
M  V30 16719 C 1594.62 -1.6632 1.23905 0
M  V30 16720 C 1595.04 -1.87109 -0.192878 0
M  V30 16721 O 1594.4 -1.4112 -1.1382 0
M  V30 16722 C 1594.45 -3.00979 1.98606 0
M  V30 16723 O 1593.55 -3.90642 1.32183 0
M  V30 16724 H 1592.89 -0.507736 0.427902 0
M  V30 16725 H 1595.42 -1.0877 1.73292 0
M  V30 16726 H 1595.43 -3.50931 2.08113 0
M  V30 16727 H 1594.11 -2.85168 3.02741 0
M  V30 16728 H 1592.68 -3.4909 1.31112 0
M  V30 16729 N 1594.87 -1.14184 -1.08627 0
M  V30 16730 C 1596.28 -0.920108 -1.62453 0
M  V30 16731 C 1596.63 0.541577 -1.88577 0
M  V30 16732 O 1595.76 1.41002 -1.64157 0
M  V30 16733 C 1596.35 -1.6638 -2.95132 0
M  V30 16734 C 1594.91 -1.48771 -3.45752 0
M  V30 16735 C 1594.06 -1.68774 -2.20024 0
M  V30 16736 H 1597.01 -1.29396 -0.91882 0
M  V30 16737 H 1597.03 -1.12568 -3.63468 0
M  V30 16738 H 1596.54 -2.72759 -2.76087 0
M  V30 16739 H 1594.64 -0.44729 -3.69905 0
M  V30 16740 H 1594.76 -2.25619 -4.2265 0
M  V30 16741 H 1593.12 -1.11321 -2.29084 0
M  V30 16742 H 1593.9 -2.76491 -2.03489 0
M  V30 16743 N 1596.35 1.26749 -0.936613 0
M  V30 16744 C 1597.28 2.2892 -0.460213 0
M  V30 16745 C 1598.26 1.63065 0.484135 0
M  V30 16746 O 1599.44 1.90305 0.386973 0
M  V30 16747 C 1596.57 3.46172 0.279648 0
M  V30 16748 C 1595.53 4.24083 -0.57771 0
M  V30 16749 C 1594.85 5.33903 0.291843 0
M  V30 16750 C 1596.15 4.88562 -1.84673 0
M  V30 16751 H 1597.85 2.69019 -1.31412 0
M  V30 16752 H 1595.39 1.29325 -0.633333 0
M  V30 16753 H 1597.35 4.16755 0.623931 0
M  V30 16754 H 1596.07 3.05014 1.16765 0
M  V30 16755 H 1594.73 3.55258 -0.904824 0
M  V30 16756 H 1594.38 4.88986 1.17906 0
M  V30 16757 H 1594.08 5.8694 -0.278372 0
M  V30 16758 H 1595.6 6.07326 0.631498 0
M  V30 16759 H 1597.02 5.51384 -1.56997 0
M  V30 16760 H 1595.41 5.51697 -2.36115 0
M  V30 16761 H 1596.48 4.11761 -2.56088 0
M  V30 16762 N 1597.83 0.703118 1.41046 0
M  V30 16763 C 1598.76 0.00331992 2.292 0
M  V30 16764 C 1599.77 -0.736648 1.4518 0
M  V30 16765 O 1600.96 -0.586097 1.68604 0
M  V30 16766 C 1598.06 -1.01948 3.23203 0
M  V30 16767 C 1597.23 -0.347591 4.36017 0
M  V30 16768 C 1596.29 -1.27404 5.10543 0
M  V30 16769 O 1595.32 -0.763558 5.64055 0
M  V30 16770 N 1596.52 -2.60596 5.1872 0
M  V30 16771 H 1599.29 0.760179 2.89899 0
M  V30 16772 H 1596.85 0.549747 1.52281 0
M  V30 16773 H 1598.84 -1.64115 3.6993 0
M  V30 16774 H 1597.41 -1.6778 2.63758 0
M  V30 16775 H 1596.63 0.454088 3.91576 0
M  V30 16776 H 1597.92 0.119295 5.0866 0
M  V30 16777 H 1597.31 -3.0458 4.76705 0
M  V30 16778 H 1595.87 -3.17939 5.68998 0
M  V30 16779 N 1599.3 -1.51086 0.448402 0
M  V30 16780 C 1600.55 -2.01367 -0.115904 0
M  V30 16781 C 1600.87 -1.33658 -1.42811 0
M  V30 16782 O 1602.07 -1.74968 -2.07602 0
M  V30 16783 C 1600.53 -3.58981 -0.257092 0
M  V30 16784 C 1600.14 -4.35634 1.04534 0
M  V30 16785 C 1601.88 -4.17373 -0.774573 0
M  V30 16786 C 1599.79 -5.84978 0.869184 0
M  V30 16787 H 1598.72 -0.752528 -0.0470907 0
M  V30 16788 H 1601.37 -1.74098 0.57985 0
M  V30 16789 H 1599.75 -3.82742 -1.01611 0
M  V30 16790 H 1600.92 -4.23612 1.81354 0
M  V30 16791 H 1599.24 -3.88745 1.49219 0
M  V30 16792 H 1601.84 -5.26673 -0.923032 0
M  V30 16793 H 1602.18 -3.77267 -1.75997 0
M  V30 16794 H 1602.71 -3.97732 -0.0735697 0
M  V30 16795 H 1599.45 -6.29516 1.82729 0
M  V30 16796 H 1598.97 -5.99634 0.140969 0
M  V30 16797 H 1600.65 -6.44852 0.526752 0
M  V30 16798 N 1600.78 -0.180154 -1.56567 0
M  V30 16799 C 1602.06 0.509347 -1.88852 0
M  V30 16800 C 1602.44 1.80697 -1.09141 0
M  V30 16801 O 1601.79 2.27726 -0.187974 0
M  V30 16802 C 1602 0.742669 -3.41006 0
M  V30 16803 C 1603.35 1.06873 -4.1093 0
M  V30 16804 O 1604.37 0.830907 -3.46373 0
M  V30 16805 O 1603.23 1.51784 -5.24999 0
M  V30 16806 H 1600.32 0.263629 -0.783855 0
M  V30 16807 H 1602.87 -0.219251 -1.68278 0
M  V30 16808 H 1601.64 -0.17431 -3.90912 0
M  V30 16809 H 1601.26 1.52427 -3.67222 0
M  V30 16810 N 1602.26 1.57322 0.0935319 0
M  V30 16811 C 1603.68 1.5319 0.447781 0
M  V30 16812 C 1603.88 0.897107 1.80428 0
M  V30 16813 O 1602.93 0.490285 2.47694 0
M  V30 16814 C 1604.25 2.97908 0.408832 0
M  V30 16815 C 1605.79 3.09132 0.490576 0
M  V30 16816 C 1606.27 4.55459 0.481759 0
M  V30 16817 N 1607.76 4.60013 0.542468 0
M  V30 16818 C 1608.49 5.70683 0.557509 0
M  V30 16819 N 1607.99 6.9078 0.528664 0
M  V30 16820 N 1609.78 5.58862 0.602438 0
M  V30 16821 H 1601.93 1.96962 -0.794965 0
M  V30 16822 H 1604.2 0.900583 -0.296064 0
M  V30 16823 H 1603.9 3.47823 -0.520766 0
M  V30 16824 H 1603.78 3.56678 1.22722 0
M  V30 16825 H 1606.16 2.59203 1.41059 0
M  V30 16826 H 1606.25 2.53311 -0.355982 0
M  V30 16827 H 1605.89 5.0604 -0.43432 0
M  V30 16828 H 1605.82 5.09119 1.34555 0
M  V30 16829 H 1608.31 3.73578 0.569892 0
M  V30 16830 H 1608.62 7.70887 0.543467 0
M  V30 16831 H 1606.97 6.9323 0.495687 0
M  V30 16832 H 1610.16 4.63942 0.622514 0
M  V30 16833 H 1610.33 6.45116 0.610691 0
M  V30 16834 N 1603.74 -0.364395 1.53329 0
M  V30 16835 C 1604.7 -1.42927 1.79178 0
M  V30 16836 C 1605.7 -1.4653 0.662235 0
M  V30 16837 O 1606.89 -1.4727 0.930442 0
M  V30 16838 C 1604.02 -2.82035 1.91492 0
M  V30 16839 H 1605.22 -1.21281 2.74283 0
M  V30 16840 H 1602.77 -0.597596 1.44425 0
M  V30 16841 H 1603.5 -3.08993 0.984579 0
M  V30 16842 H 1603.29 -2.80818 2.73649 0
M  V30 16843 H 1604.78 -3.59148 2.13078 0
M  V30 16844 N 1605.22 -1.44709 -0.62426 0
M  V30 16845 C 1606.13 -1.54608 -1.76447 0
M  V30 16846 C 1607.14 -0.43137 -1.68568 0
M  V30 16847 O 1608.32 -0.6897 -1.89222 0
M  V30 16848 C 1605.38 -1.49404 -3.12857 0
M  V30 16849 C 1604.44 -2.71782 -3.32315 0
M  V30 16850 C 1603.68 -2.66817 -4.62217 0
M  V30 16851 O 1603.9 -1.73205 -5.43467 0
M  V30 16852 O 1602.83 -3.57773 -4.84027 0
M  V30 16853 H 1606.66 -2.50951 -1.71048 0
M  V30 16854 H 1604.25 -1.27033 -0.786326 0
M  V30 16855 H 1606.13 -1.4905 -3.9416 0
M  V30 16856 H 1604.8 -0.562078 -3.18783 0
M  V30 16857 H 1603.71 -2.77702 -2.50664 0
M  V30 16858 H 1605.04 -3.64048 -3.31255 0
M  V30 16859 N 1606.69 0.865285 -1.31722 0
M  V30 16860 C 1607.97 1.60146 -1.12306 0
M  V30 16861 C 1608.35 2.08653 0.320508 0
M  V30 16862 O 1607.7 1.86841 1.31539 0
M  V30 16863 C 1607.91 2.75583 -2.14138 0
M  V30 16864 C 1609.26 3.45429 -2.46909 0
M  V30 16865 O 1610.28 2.85795 -2.12602 0
M  V30 16866 O 1609.14 4.53017 -3.05676 0
M  V30 16867 H 1606.23 0.704786 -0.432673 0
M  V30 16868 H 1608.78 0.910339 -1.43216 0
M  V30 16869 H 1607.55 2.37187 -3.1122 0
M  V30 16870 H 1607.18 3.52378 -1.84161 0
M  V30 16871 N 1608.17 1.14759 1.0802 0
M  V30 16872 C 1609.59 0.8888 1.32561 0
M  V30 16873 C 1609.79 -0.467926 1.95992 0
M  V30 16874 O 1608.84 -1.21135 2.21546 0
M  V30 16875 C 1610.16 2.02456 2.22333 0
M  V30 16876 C 1611.71 2.05831 2.35802 0
M  V30 16877 C 1612.18 3.18711 3.28918 0
M  V30 16878 N 1613.67 3.18315 3.36496 0
M  V30 16879 C 1614.41 4.02297 4.08589 0
M  V30 16880 N 1613.9 4.96327 4.83354 0
M  V30 16881 N 1615.7 3.90344 4.0446 0
M  V30 16882 H 1607.85 2.02135 0.652307 0
M  V30 16883 H 1610.11 0.881021 0.35001 0
M  V30 16884 H 1609.82 3.00354 1.82976 0
M  V30 16885 H 1609.69 1.95108 3.2282 0
M  V30 16886 H 1612.08 1.08537 2.74415 0
M  V30 16887 H 1612.16 2.17248 1.35044 0
M  V30 16888 H 1611.8 4.16253 2.91025 0
M  V30 16889 H 1611.73 3.04531 4.29614 0
M  V30 16890 H 1614.22 2.50214 2.83199 0
M  V30 16891 H 1614.54 5.56865 5.35837 0
M  V30 16892 H 1612.88 5.00321 4.82394 0
M  V30 16893 H 1616.07 3.162 3.45159 0
M  V30 16894 H 1616.24 4.56019 4.60381 0
M  V30 16895 N 1609.65 -1.26251 0.943322 0
M  V30 16896 C 1610.88 -1.98278 0.608341 0
M  V30 16897 C 1611.3 -1.69756 -0.810208 0
M  V30 16898 O 1610.66 -0.946846 -1.54611 0
M  V30 16899 C 1610.71 -3.50205 0.859591 0
M  V30 16900 O 1609.81 -4.12345 -0.0672371 0
M  V30 16901 H 1609.15 -0.621973 0.232477 0
M  V30 16902 H 1611.68 -1.60662 1.26684 0
M  V30 16903 H 1611.69 -4.00449 0.781341 0
M  V30 16904 H 1610.37 -3.70294 1.89354 0
M  V30 16905 H 1608.94 -3.72848 0.0622543 0
M  V30 16906 N 1611.13 -0.710588 -1.40671 0
M  V30 16907 C 1612.38 -0.244967 -2.00207 0
M  V30 16908 C 1612.69 1.16693 -1.56978 0
M  V30 16909 O 1613.9 1.73081 -2.09177 0
M  V30 16910 C 1612.35 -0.387049 -3.57813 0
M  V30 16911 C 1611.96 -1.80527 -4.10017 0
M  V30 16912 C 1613.71 0.0180338 -4.24496 0
M  V30 16913 C 1611.61 -1.89821 -5.60109 0
M  V30 16914 H 1610.54 -0.087831 -0.748867 0
M  V30 16915 H 1613.19 -0.880956 -1.6097 0
M  V30 16916 H 1611.58 0.317442 -3.94726 0
M  V30 16917 H 1612.75 -2.53974 -3.84492 0
M  V30 16918 H 1611.06 -2.16137 -3.55913 0
M  V30 16919 H 1613.66 -0.0307544 -5.34691 0
M  V30 16920 H 1614 1.05915 -4.02601 0
M  V30 16921 H 1614.54 -0.63672 -3.92671 0
M  V30 16922 H 1611.28 -2.92036 -5.86852 0
M  V30 16923 H 1610.8 -1.20779 -5.87514 0
M  V30 16924 H 1612.48 -1.66801 -6.25129 0
M  V30 16925 N 1612.61 1.50847 -0.456408 0
M  V30 16926 C 1613.85 2.02235 0.103618 0
M  V30 16927 C 1614.18 1.33939 1.41034 0
M  V30 16928 O 1613.44 0.449209 1.90475 0
M  V30 16929 C 1613.74 3.55678 0.350374 0
M  V30 16930 C 1613.4 4.42371 -0.872844 0
M  V30 16931 C 1612.06 4.65784 -1.20825 0
M  V30 16932 C 1614.42 4.9311 -1.68797 0
M  V30 16933 C 1611.74 5.3718 -2.35911 0
M  V30 16934 C 1614.1 5.65769 -2.82998 0
M  V30 16935 C 1612.76 5.8744 -3.16971 0
M  V30 16936 H 1612.03 0.740029 0.0379167 0
M  V30 16937 H 1614.68 1.81609 -0.607497 0
M  V30 16938 H 1612.98 3.74739 1.14359 0
M  V30 16939 H 1614.68 3.92991 0.797418 0
M  V30 16940 H 1611.27 4.24358 -0.601511 0
M  V30 16941 H 1615.45 4.74889 -1.44203 0
M  V30 16942 H 1610.71 5.52169 -2.62524 0
M  V30 16943 H 1614.88 6.04069 -3.46516 0
M  V30 16944 H 1612.51 6.42541 -4.06258 0
M  V30 16945 N 1614.09 0.188454 1.56469 0
M  V30 16946 C 1615.31 -0.460975 2.02212 0
M  V30 16947 C 1615.74 -1.54856 1.06777 0
M  V30 16948 O 1615.09 -1.81231 0.0501425 0
M  V30 16949 C 1615.14 -1.00047 3.46443 0
M  V30 16950 O 1614.25 -2.1137 3.54114 0
M  V30 16951 H 1613.59 -0.108497 0.655076 0
M  V30 16952 H 1616.12 0.297381 2.02427 0
M  V30 16953 H 1616.13 -1.31876 3.86099 0
M  V30 16954 H 1614.8 -0.204273 4.15398 0
M  V30 16955 H 1613.38 -1.80456 3.26328 0
M  V30 16956 N 1615.56 -1.5737 -0.0851874 0
M  V30 16957 C 1616.53 -2.01789 -1.08692 0
M  V30 16958 C 1617.53 -0.912872 -1.32376 0
M  V30 16959 O 1618.72 -1.1781 -1.28322 0
M  V30 16960 C 1615.85 -2.38708 -2.43375 0
M  V30 16961 H 1617.04 -2.91511 -0.704359 0
M  V30 16962 H 1614.59 -1.52765 -0.330528 0
M  V30 16963 H 1615.33 -1.5197 -2.86488 0
M  V30 16964 H 1615.11 -3.19331 -2.2753 0
M  V30 16965 H 1616.6 -2.73697 -3.15404 0
M  V30 16966 N 1617.04 0.356258 -1.53521 0
M  V30 16967 C 1618.29 1.09953 -1.70406 0
M  V30 16968 C 1618.62 1.8869 -0.459304 0
M  V30 16969 O 1617.9 1.86751 0.54354 0
M  V30 16970 C 1618.18 2.05114 -2.95973 0
M  V30 16971 C 1618.03 1.29924 -4.30627 0
M  V30 16972 C 1619.35 3.0511 -3.17168 0
M  V30 16973 H 1616.47 0.398343 -0.620074 0
M  V30 16974 H 1619.11 0.379376 -1.86174 0
M  V30 16975 H 1617.26 2.66524 -2.82661 0
M  V30 16976 H 1618.93 0.71226 -4.55768 0
M  V30 16977 H 1617.18 0.601141 -4.29615 0
M  V30 16978 H 1617.85 1.99624 -5.1464 0
M  V30 16979 H 1620.32 2.53809 -3.29728 0
M  V30 16980 H 1619.2 3.68908 -4.06445 0
M  V30 16981 H 1619.46 3.75794 -2.32876 0
M  V30 16982 N 1618.52 1.45038 0.616577 0
M  V30 16983 C 1619.45 1.55858 1.73869 0
M  V30 16984 C 1620.43 0.410657 1.65069 0
M  V30 16985 O 1621.62 0.632652 1.83606 0
M  V30 16986 C 1618.75 1.51635 3.12448 0
M  V30 16987 C 1617.7 2.65053 3.36052 0
M  V30 16988 C 1617.03 2.45883 4.74811 0
M  V30 16989 C 1618.33 4.07121 3.27185 0
M  V30 16990 H 1620.02 2.49784 1.6507 0
M  V30 16991 H 1617.57 1.20216 0.792724 0
M  V30 16992 H 1619.52 1.57803 3.90738 0
M  V30 16993 H 1618.24 0.542342 3.22066 0
M  V30 16994 H 1616.9 2.58299 2.60149 0
M  V30 16995 H 1616.55 1.46641 4.8115 0
M  V30 16996 H 1616.25 3.21935 4.9156 0
M  V30 16997 H 1617.77 2.53892 5.55312 0
M  V30 16998 H 1619.19 4.15167 3.9536 0
M  V30 16999 H 1617.58 4.83491 3.55466 0
M  V30 17000 H 1618.65 4.29663 2.24762 0
M  V30 17001 N 1620 -0.858287 1.32179 0
M  V30 17002 C 1621.27 -1.59548 1.13154 0
M  V30 17003 C 1621.65 -2.0882 -0.309439 0
M  V30 17004 O 1621 -1.87536 -1.30547 0
M  V30 17005 C 1621.21 -2.74443 2.15597 0
M  V30 17006 C 1622.56 -3.44115 2.48737 0
M  V30 17007 O 1623.58 -2.84664 2.14114 0
M  V30 17008 O 1622.44 -4.51389 3.08074 0
M  V30 17009 H 1619.54 -0.702481 0.436405 0
M  V30 17010 H 1622.08 -0.902731 1.43697 0
M  V30 17011 H 1620.86 -2.35533 3.12473 0
M  V30 17012 H 1620.48 -3.51397 1.86028 0
M  V30 17013 N 1621.48 -1.1533 -1.07409 0
M  V30 17014 C 1622.39 -0.863514 -2.1813 0
M  V30 17015 C 1623.4 0.159954 -1.73263 0
M  V30 17016 O 1624.58 -0.0139818 -2.01395 0
M  V30 17017 C 1621.64 -0.356271 -3.44865 0
M  V30 17018 C 1620.7 -1.44356 -4.04302 0
M  V30 17019 C 1619.94 -0.960429 -5.24987 0
M  V30 17020 O 1620.16 0.194227 -5.70069 0
M  V30 17021 O 1619.09 -1.74387 -5.76084 0
M  V30 17022 H 1622.92 -1.78909 -2.45408 0
M  V30 17023 H 1620.5 -0.932362 -1.16736 0
M  V30 17024 H 1622.39 -0.0798183 -4.21324 0
M  V30 17025 H 1621.06 0.541445 -3.1914 0
M  V30 17026 H 1619.97 -1.77361 -3.29384 0
M  V30 17027 H 1621.3 -2.31617 -4.34298 0
M  V30 17028 N 1622.95 1.25748 -0.950004 0
M  V30 17029 C 1623.88 2.28419 -0.484467 0
M  V30 17030 C 1624.86 1.63569 0.466813 0
M  V30 17031 O 1626.05 1.90705 0.366766 0
M  V30 17032 C 1623.18 3.46449 0.242916 0
M  V30 17033 C 1622.13 4.23447 -0.622657 0
M  V30 17034 C 1621.46 5.34182 0.235199 0
M  V30 17035 C 1622.76 4.86576 -1.89845 0
M  V30 17036 H 1624.45 2.6761 -1.34257 0
M  V30 17037 H 1622 1.28646 -0.647014 0
M  V30 17038 H 1623.95 4.17394 0.579693 0
M  V30 17039 H 1622.68 3.06235 1.13523 0
M  V30 17040 H 1621.34 3.54279 -0.942453 0
M  V30 17041 H 1620.98 4.90209 1.12713 0
M  V30 17042 H 1620.68 5.86612 -0.340609 0
M  V30 17043 H 1622.21 6.07961 0.567048 0
M  V30 17044 H 1623.62 5.49688 -1.62837 0
M  V30 17045 H 1622.02 5.49162 -2.41954 0
M  V30 17046 H 1623.09 4.09021 -2.60441 0
M  V30 17047 N 1624.43 0.718038 1.40292 0
M  V30 17048 C 1625.38 0.0670495 2.30703 0
M  V30 17049 C 1626.35 -0.747716 1.48319 0
M  V30 17050 O 1627.53 -0.711161 1.77051 0
M  V30 17051 C 1624.67 -0.846918 3.34546 0
M  V30 17052 C 1623.79 -0.0213622 4.31995 0
M  V30 17053 C 1622.92 -0.935035 5.22906 0
M  V30 17054 C 1621.96 -0.103715 6.12012 0
M  V30 17055 N 1621.1 -0.972397 6.95334 0
M  V30 17056 H 1625.94 0.843724 2.85806 0
M  V30 17057 H 1623.47 0.427756 1.40743 0
M  V30 17058 H 1625.43 -1.39109 3.93325 0
M  V30 17059 H 1624.06 -1.58975 2.80939 0
M  V30 17060 H 1623.11 0.640026 3.74977 0
M  V30 17061 H 1624.43 0.62215 4.94905 0
M  V30 17062 H 1623.58 -1.54766 5.86628 0
M  V30 17063 H 1622.32 -1.61236 4.60276 0
M  V30 17064 H 1621.32 0.521826 5.47318 0
M  V30 17065 H 1622.55 0.570146 6.76702 0
M  V30 17066 H 1620.5 -1.63533 6.3529 0
M  V30 17067 H 1620.41 -0.384977 7.55019 0
M  V30 17068 H 1621.68 -1.57112 7.63503 0
M  V30 17069 N 1625.91 -1.50602 0.464402 0
M  V30 17070 C 1627.16 -2.02587 -0.0930295 0
M  V30 17071 C 1627.49 -1.34618 -1.3997 0
M  V30 17072 O 1626.76 -0.469711 -1.88743 0
M  V30 17073 C 1627.05 -3.5898 -0.283783 0
M  V30 17074 C 1626.9 -4.3753 1.04344 0
M  V30 17075 C 1628.22 -4.27602 -1.04138 0
M  V30 17076 H 1625.34 -0.73629 -0.0323356 0
M  V30 17077 H 1627.98 -1.79986 0.608687 0
M  V30 17078 H 1626.13 -3.78368 -0.881488 0
M  V30 17079 H 1627.8 -4.29729 1.67721 0
M  V30 17080 H 1626.05 -4.01536 1.64168 0
M  V30 17081 H 1626.72 -5.45201 0.863691 0
M  V30 17082 H 1629.19 -4.12649 -0.534822 0
M  V30 17083 H 1628.07 -5.36854 -1.14364 0
M  V30 17084 H 1628.33 -3.9031 -2.0763 0
M  V30 17085 N 1627.39 -0.19675 -1.56367 0
M  V30 17086 C 1628.35 0.709734 -2.17934 0
M  V30 17087 C 1629.35 1.13979 -1.13426 0
M  V30 17088 O 1630.54 1.05261 -1.38801 0
M  V30 17089 C 1627.67 1.96917 -2.78274 0
M  V30 17090 H 1628.87 0.173342 -2.99399 0
M  V30 17091 H 1626.42 0.0528698 -1.56211 0
M  V30 17092 H 1627.15 2.54804 -2.00613 0
M  V30 17093 H 1626.94 1.66951 -3.54781 0
M  V30 17094 H 1628.43 2.61554 -3.25545 0
M  V30 17095 N 1628.87 1.57413 0.0768405 0
M  V30 17096 C 1629.8 2.00058 1.11845 0
M  V30 17097 C 1630.81 0.905783 1.35275 0
M  V30 17098 O 1632 1.18372 1.33605 0
M  V30 17099 C 1629.1 2.32002 2.47039 0
M  V30 17100 C 1628.27 3.63265 2.43634 0
M  V30 17101 C 1627.33 3.82937 3.60896 0
M  V30 17102 O 1626.36 4.54582 3.42555 0
M  V30 17103 N 1627.56 3.24904 4.81059 0
M  V30 17104 H 1630.33 2.90026 0.75533 0
M  V30 17105 H 1627.89 1.59707 0.265567 0
M  V30 17106 H 1629.88 2.4234 3.24119 0
M  V30 17107 H 1628.45 1.4795 2.75372 0
M  V30 17108 H 1627.67 3.63727 1.51974 0
M  V30 17109 H 1628.96 4.49462 2.38455 0
M  V30 17110 H 1628.35 2.66742 4.98864 0
M  V30 17111 H 1626.91 3.40699 5.55669 0
M  V30 17112 N 1630.34 -0.348112 1.53707 0
M  V30 17113 C 1631.31 -1.41018 1.80683 0
M  V30 17114 C 1632.31 -1.4582 0.67774 0
M  V30 17115 O 1633.5 -1.46275 0.94601 0
M  V30 17116 C 1630.63 -2.79988 1.94473 0
M  V30 17117 H 1631.82 -1.18365 2.75554 0
M  V30 17118 H 1629.38 -0.582244 1.4505 0
M  V30 17119 H 1630.11 -3.07931 1.0173 0
M  V30 17120 H 1629.9 -2.77899 2.76612 0
M  V30 17121 H 1631.39 -3.56868 2.16876 0
M  V30 17122 N 1631.82 -1.45363 -0.608876 0
M  V30 17123 C 1633.23 -1.43794 -1.19081 0
M  V30 17124 C 1633.58 -0.164874 -1.95506 0
M  V30 17125 O 1632.71 0.733623 -2.03585 0
M  V30 17126 C 1633.3 -2.60506 -2.16615 0
M  V30 17127 C 1631.86 -2.62061 -2.70187 0
M  V30 17128 C 1631.01 -2.36018 -1.4557 0
M  V30 17129 H 1633.96 -1.53622 -0.39826 0
M  V30 17130 H 1633.98 -2.34531 -2.99625 0
M  V30 17131 H 1633.49 -3.53147 -1.60963 0
M  V30 17132 H 1631.6 -1.73423 -3.2978 0
M  V30 17133 H 1631.71 -3.61242 -3.14708 0
M  V30 17134 H 1630.07 -1.8555 -1.74481 0
M  V30 17135 H 1630.86 -3.30802 -0.917884 0
M  V30 17136 N 1633.3 0.851265 -1.32632 0
M  V30 17137 C 1634.55 1.60785 -1.24578 0
M  V30 17138 C 1634.9 1.91462 0.189803 0
M  V30 17139 O 1634.19 1.54839 1.12851 0
M  V30 17140 C 1634.39 2.93312 -2.04212 0
M  V30 17141 C 1634.22 2.75579 -3.55368 0
M  V30 17142 C 1632.99 2.73784 -4.247 0
M  V30 17143 C 1635.19 2.49095 -4.49951 0
M  V30 17144 N 1633.17 2.47298 -5.61887 0
M  V30 17145 C 1634.54 2.32046 -5.74939 0
M  V30 17146 C 1636.59 2.34591 -4.39171 0
M  V30 17147 C 1635.3 2.01965 -6.90364 0
M  V30 17148 C 1637.32 2.05902 -5.54399 0
M  V30 17149 C 1636.68 1.89655 -6.78388 0
M  V30 17150 H 1632.78 0.591922 -0.511031 0
M  V30 17151 H 1635.37 1.00037 -1.67035 0
M  V30 17152 H 1633.54 3.52033 -1.64095 0
M  V30 17153 H 1635.27 3.58369 -1.88026 0
M  V30 17154 H 1632.03 2.86845 -3.76851 0
M  V30 17155 H 1632.45 2.36973 -6.34171 0
M  V30 17156 H 1637.09 2.45871 -3.43959 0
M  V30 17157 H 1634.81 1.89423 -7.85585 0
M  V30 17158 H 1638.4 1.95452 -5.47987 0
M  V30 17159 H 1637.28 1.67772 -7.66043 0
M  V30 17160 N 1634.78 1.15898 1.06796 0
M  V30 17161 C 1635.73 0.860895 2.14143 0
M  V30 17162 C 1636.7 -0.188539 1.65026 0
M  V30 17163 O 1637.88 -0.0548558 1.90721 0
M  V30 17164 C 1635.02 0.362533 3.4319 0
M  V30 17165 C 1634.13 1.4742 4.06068 0
M  V30 17166 C 1633.27 0.931377 5.22971 0
M  V30 17167 C 1632.31 2.0196 5.77822 0
M  V30 17168 N 1631.44 1.49274 6.86048 0
M  V30 17169 H 1636.28 1.78023 2.38981 0
M  V30 17170 H 1633.82 0.888173 1.1726 0
M  V30 17171 H 1635.78 0.0552592 4.17163 0
M  V30 17172 H 1634.41 -0.519869 3.18586 0
M  V30 17173 H 1633.46 1.89754 3.29693 0
M  V30 17174 H 1634.77 2.29559 4.42836 0
M  V30 17175 H 1633.93 0.576982 6.0395 0
M  V30 17176 H 1632.67 0.0792265 4.87636 0
M  V30 17177 H 1631.67 2.38275 4.95485 0
M  V30 17178 H 1632.9 2.87562 6.15211 0
M  V30 17179 H 1630.84 0.663037 6.52641 0
M  V30 17180 H 1630.76 2.25035 7.21731 0
M  V30 17181 H 1632.03 1.16676 7.70718 0
M  V30 17182 N 1636.26 -1.25243 0.956659 0
M  V30 17183 C 1637.22 -2.24054 0.482949 0
M  V30 17184 C 1638.22 -1.55367 -0.41447 0
M  V30 17185 O 1639.41 -1.72912 -0.211475 0
M  V30 17186 C 1636.54 -3.3956 -0.301975 0
M  V30 17187 H 1637.73 -2.67476 1.35634 0
M  V30 17188 H 1635.29 -1.37665 0.740138 0
M  V30 17189 H 1636.02 -3.01561 -1.19294 0
M  V30 17190 H 1635.81 -3.90607 0.341876 0
M  V30 17191 H 1637.3 -4.1293 -0.622807 0
M  V30 17192 N 1637.73 -0.725468 -1.3991 0
M  V30 17193 C 1638.98 -0.26965 -2.00999 0
M  V30 17194 C 1639.31 1.13727 -1.57416 0
M  V30 17195 O 1638.59 1.77345 -0.798693 0
M  V30 17196 C 1638.87 -0.360784 -3.58288 0
M  V30 17197 C 1638.72 -1.80679 -4.11916 0
M  V30 17198 C 1640.04 0.262328 -4.39317 0
M  V30 17199 H 1637.16 -0.0994547 -0.730259 0
M  V30 17200 H 1639.8 -0.91983 -1.6625 0
M  V30 17201 H 1637.95 0.192779 -3.88021 0
M  V30 17202 H 1639.63 -2.4165 -3.92942 0
M  V30 17203 H 1637.87 -2.33127 -3.65834 0
M  V30 17204 H 1638.54 -1.82189 -5.21068 0
M  V30 17205 H 1641.02 -0.209452 -4.15573 0
M  V30 17206 H 1639.89 0.168166 -5.48642 0
M  V30 17207 H 1640.15 1.34716 -4.21075 0
M  V30 17208 N 1639.21 1.50354 -0.472382 0
M  V30 17209 C 1640.16 2.30173 0.335135 0
M  V30 17210 C 1641.15 1.37517 0.98921 0
M  V30 17211 O 1642.36 1.54703 0.920168 0
M  V30 17212 H 1638.74 0.741212 0.126918 0
M  V30 17213 H 1640.71 2.96239 -0.358449 0
M  V30 17214 C 1639.46 3.18104 1.40375 0
M  V30 17215 H 1638.78 3.8931 0.90984 0
M  V30 17216 H 1640.22 3.76947 1.94132 0
M  V30 17217 C 1638.68 2.35785 2.40639 0
M  V30 17218 O 1639.21 2.04185 3.45936 0
M  V30 17219 N 1637.41 1.98342 2.12389 0
M  V30 17220 H 1636.96 2.2424 1.26784 0
M  V30 17221 H 1636.92 1.43567 2.79707 0
M  V30 17222 N 1640.69 0.205039 1.56261 0
M  V30 17223 C 1641.92 -0.43642 2.02245 0
M  V30 17224 C 1642.33 -1.54504 1.08508 0
M  V30 17225 O 1641.69 -1.82269 0.0916991 0
M  V30 17226 C 1641.74 -0.983483 3.47865 0
M  V30 17227 O 1641.46 0.0809166 4.38025 0
M  V30 17228 C 1642.96 -1.69983 4.09415 0
M  V30 17229 H 1640.18 -0.108577 0.662157 0
M  V30 17230 H 1642.73 0.316659 2.02033 0
M  V30 17231 H 1640.88 -1.6869 3.48744 0
M  V30 17232 H 1641.3 -0.327751 5.23475 0
M  V30 17233 H 1642.77 -2.03481 5.13127 0
M  V30 17234 H 1643.25 -2.60711 3.5345 0
M  V30 17235 H 1643.85 -1.04202 4.12337 0
M  V30 17236 N 1642.17 -1.57451 -0.0684915 0
M  V30 17237 C 1643.1 -2.06954 -1.0813 0
M  V30 17238 C 1644.08 -0.963716 -1.40166 0
M  V30 17239 O 1645.27 -1.23664 -1.49736 0
M  V30 17240 C 1642.4 -2.51622 -2.39381 0
M  V30 17241 C 1641.35 -3.66111 -2.2169 0
M  V30 17242 C 1640.68 -3.96846 -3.58354 0
M  V30 17243 C 1641.98 -4.96036 -1.63541 0
M  V30 17244 H 1643.67 -2.91822 -0.66936 0
M  V30 17245 H 1641.22 -1.40387 -0.320533 0
M  V30 17246 H 1643.17 -2.84867 -3.1053 0
M  V30 17247 H 1641.89 -1.63788 -2.82562 0
M  V30 17248 H 1640.55 -3.33155 -1.52982 0
M  V30 17249 H 1640.2 -3.06137 -3.9911 0
M  V30 17250 H 1639.9 -4.73939 -3.47354 0
M  V30 17251 H 1641.42 -4.3259 -4.30927 0
M  V30 17252 H 1642.84 -5.27491 -2.24559 0
M  V30 17253 H 1641.23 -5.77474 -1.63228 0
M  V30 17254 H 1642.3 -4.81208 -0.597199 0
M  V30 17255 N 1643.65 0.339955 -1.5389 0
M  V30 17256 C 1644.6 1.43787 -1.82833 0
M  V30 17257 C 1645.59 1.54303 -0.699058 0
M  V30 17258 O 1646.8 1.56884 -0.882455 0
M  V30 17259 H 1643.17 0.479497 -0.579298 0
M  V30 17260 H 1645.14 1.16592 -2.7468 0
M  V30 17261 C 1643.89 2.80257 -2.05794 0
M  V30 17262 H 1643.21 2.72933 -2.92143 0
M  V30 17263 H 1644.65 3.56191 -2.30009 0
M  V30 17264 C 1643.11 3.26143 -0.844532 0
M  V30 17265 O 1643.64 4.01674 -0.0457121 0
M  V30 17266 N 1641.85 2.82988 -0.660748 0
M  V30 17267 H 1641.4 2.21687 -1.31198 0
M  V30 17268 H 1641.35 3.14044 0.149661 0
M  V30 17269 N 1645.13 1.45684 0.601159 0
M  V30 17270 C 1646.04 1.57396 1.73965 0
M  V30 17271 C 1647.05 0.458133 1.6786 0
M  V30 17272 O 1648.23 0.719717 1.88101 0
M  V30 17273 C 1645.29 1.54363 3.1044 0
M  V30 17274 C 1644.35 2.77034 3.27949 0
M  V30 17275 C 1643.59 2.74136 4.57914 0
M  V30 17276 O 1643.81 1.81829 5.40643 0
M  V30 17277 O 1642.74 3.65428 4.78274 0
M  V30 17278 H 1646.57 2.5364 1.67034 0
M  V30 17279 H 1644.15 1.28267 0.766017 0
M  V30 17280 H 1646.04 1.55302 3.91739 0
M  V30 17281 H 1644.71 0.612723 3.17848 0
M  V30 17282 H 1643.62 2.81655 2.46214 0
M  V30 17283 H 1644.95 3.69272 3.25422 0
M  V30 17284 N 1646.6 -0.84422 1.33082 0
M  V30 17285 C 1647.57 -1.93519 1.22813 0
M  V30 17286 C 1648.57 -1.60113 0.148516 0
M  V30 17287 O 1649.76 -1.69553 0.399668 0
M  V30 17288 C 1646.89 -3.29045 0.891179 0
M  V30 17289 H 1648.08 -2.04051 2.1978 0
M  V30 17290 H 1645.63 -1.03567 1.17063 0
M  V30 17291 H 1646.37 -3.2421 -0.0762276 0
M  V30 17292 H 1646.15 -3.54671 1.67186 0
M  V30 17293 H 1647.64 -4.08984 0.843932 0
M  V30 17294 N 1648.08 -1.16463 -1.0618 0
M  V30 17295 C 1649.01 -0.895399 -2.1565 0
M  V30 17296 C 1649.99 0.158729 -1.69358 0
M  V30 17297 O 1651.18 0.010586 -1.94197 0
M  V30 17298 C 1648.31 -0.396959 -3.45024 0
M  V30 17299 C 1647.26 -1.38913 -4.0483 0
M  V30 17300 C 1646.59 -0.749043 -5.29427 0
M  V30 17301 C 1647.89 -2.7591 -4.43476 0
M  V30 17302 H 1649.58 -1.81085 -2.38429 0
M  V30 17303 H 1647.13 -0.872098 -1.14588 0
M  V30 17304 H 1649.08 -0.196086 -4.20944 0
M  V30 17305 H 1647.8 0.554002 -3.21867 0
M  V30 17306 H 1646.46 -1.57657 -3.30968 0
M  V30 17307 H 1646.11 0.208439 -5.02568 0
M  V30 17308 H 1645.81 -1.41128 -5.704 0
M  V30 17309 H 1647.34 -0.558217 -6.08043 0
M  V30 17310 H 1648.75 -2.60942 -5.10473 0
M  V30 17311 H 1647.15 -3.38618 -4.95437 0
M  V30 17312 H 1648.22 -3.31076 -3.54284 0
M  V30 17313 N 1649.56 1.24734 -0.963288 0
M  V30 17314 C 1650.47 2.29268 -0.497316 0
M  V30 17315 C 1651.49 1.68356 0.439572 0
M  V30 17316 O 1652.66 1.98942 0.313697 0
M  V30 17317 C 1649.73 3.46068 0.209261 0
M  V30 17318 C 1648.79 4.22394 -0.766907 0
M  V30 17319 C 1648.02 5.33617 -0.0939542 0
M  V30 17320 O 1648.24 5.59323 1.11864 0
M  V30 17321 O 1647.18 5.96774 -0.78388 0
M  V30 17322 H 1651 2.71235 -1.36622 0
M  V30 17323 H 1648.59 1.30344 -0.730126 0
M  V30 17324 H 1650.47 4.17015 0.606367 0
M  V30 17325 H 1649.15 3.06087 1.0532 0
M  V30 17326 H 1648.05 3.53841 -1.21439 0
M  V30 17327 H 1649.39 4.66181 -1.57912 0
M  V30 17328 N 1651.04 0.732878 1.39523 0
M  V30 17329 C 1652.28 0.279891 2.00556 0
M  V30 17330 C 1652.61 -1.13223 1.58148 0
M  V30 17331 O 1651.87 -1.78575 0.800591 0
M  V30 17332 C 1652.17 0.32714 3.559 0
M  V30 17333 C 1651.83 1.69198 4.17951 0
M  V30 17334 C 1650.49 2.06555 4.34613 0
M  V30 17335 C 1652.85 2.58821 4.52395 0
M  V30 17336 C 1650.17 3.33047 4.83008 0
M  V30 17337 C 1652.53 3.84682 5.02197 0
M  V30 17338 C 1651.19 4.22134 5.17068 0
M  V30 17339 H 1650.46 0.102419 0.733888 0
M  V30 17340 H 1653.11 0.939304 1.66881 0
M  V30 17341 H 1651.41 -0.415849 3.89587 0
M  V30 17342 H 1653.11 -0.0414564 4.00979 0
M  V30 17343 H 1649.7 1.39153 4.05382 0
M  V30 17344 H 1653.88 2.31231 4.39142 0
M  V30 17345 H 1649.14 3.6201 4.92706 0
M  V30 17346 H 1653.31 4.54286 5.27823 0
M  V30 17347 H 1650.94 5.20215 5.54329 0
M  V30 17348 N 1652.52 -1.50101 0.480349 0
M  V30 17349 C 1653.48 -2.27258 -0.297763 0
M  V30 17350 C 1654.48 -1.32415 -0.912296 0
M  V30 17351 O 1655.67 -1.5576 -0.780035 0
M  V30 17352 C 1652.8 -3.09684 -1.42508 0
M  V30 17353 H 1653.99 -2.97495 0.379011 0
M  V30 17354 H 1651.55 -1.54528 0.234681 0
M  V30 17355 H 1652.28 -2.43964 -2.13663 0
M  V30 17356 H 1652.07 -3.79393 -0.990125 0
M  V30 17357 H 1653.56 -3.68013 -1.97374 0
M  V30 17358 N 1653.99 -0.213323 -1.5615 0
M  V30 17359 C 1654.94 0.700175 -2.19923 0
M  V30 17360 C 1655.91 1.19641 -1.15218 0
M  V30 17361 O 1657.1 1.257 -1.43542 0
M  V30 17362 C 1654.24 1.90629 -2.87671 0
M  V30 17363 C 1653.35 1.44973 -4.06948 0
M  V30 17364 C 1652.48 2.61277 -4.62502 0
M  V30 17365 C 1651.52 2.12316 -5.74098 0
M  V30 17366 N 1650.66 3.21862 -6.23978 0
M  V30 17367 H 1655.5 0.14961 -2.97624 0
M  V30 17368 H 1653.04 0.0620957 -1.46969 0
M  V30 17369 H 1654.99 2.61431 -3.2513 0
M  V30 17370 H 1653.62 2.42987 -2.12502 0
M  V30 17371 H 1652.68 0.636917 -3.7503 0
M  V30 17372 H 1653.99 1.05065 -4.87609 0
M  V30 17373 H 1653.14 3.40174 -5.02361 0
M  V30 17374 H 1651.88 3.04468 -3.80987 0
M  V30 17375 H 1650.89 1.31877 -5.33749 0
M  V30 17376 H 1652.11 1.70134 -6.57443 0
M  V30 17377 H 1650.06 3.64551 -5.45379 0
M  V30 17378 H 1649.97 2.86181 -6.9974 0
M  V30 17379 H 1651.24 4.0092 -6.68493 0
M  V30 17380 N 1655.47 1.57485 0.0601405 0
M  V30 17381 C 1656.7 1.92438 0.773466 0
M  V30 17382 C 1657.12 0.810755 1.6973 0
M  V30 17383 O 1656.48 -0.235697 1.79761 0
M  V30 17384 C 1656.53 3.26381 1.53323 0
M  V30 17385 O 1655.63 3.16436 2.64465 0
M  V30 17386 H 1654.97 0.629838 0.210239 0
M  V30 17387 H 1657.5 2.04585 0.0248981 0
M  V30 17388 H 1657.51 3.60534 1.90996 0
M  V30 17389 H 1656.19 4.07007 0.855468 0
M  V30 17390 H 1654.77 2.93862 2.29564 0
M  V30 17391 N 1656.95 -0.331789 1.54068 0
M  V30 17392 C 1658.2 -1.07228 1.72134 0
M  V30 17393 C 1658.53 -1.87936 0.489265 0
M  V30 17394 O 1657.8 -1.87592 -0.513761 0
M  V30 17395 C 1658.09 -2.00379 2.99199 0
M  V30 17396 C 1657.94 -1.23056 4.3264 0
M  V30 17397 C 1659.26 -3.00026 3.21982 0
M  V30 17398 H 1656.38 -0.388428 0.626333 0
M  V30 17399 H 1659.02 -0.34971 1.86754 0
M  V30 17400 H 1657.17 -2.61993 2.86865 0
M  V30 17401 H 1658.84 -0.639661 4.56844 0
M  V30 17402 H 1657.09 -0.532717 4.30517 0
M  V30 17403 H 1657.76 -1.91411 5.17751 0
M  V30 17404 H 1660.23 -2.48531 3.33724 0
M  V30 17405 H 1659.11 -3.62395 4.12263 0
M  V30 17406 H 1659.37 -3.72041 2.38826 0
M  V30 17407 N 1658.43 -1.46001 -0.593424 0
M  V30 17408 C 1659.71 -1.4123 -1.35327 0
M  V30 17409 C 1660.09 -0.0901956 -2.10907 0
M  V30 17410 O 1659.43 0.928102 -2.08803 0
M  V30 17411 C 1659.64 -2.63515 -2.28825 0
M  V30 17412 C 1660.99 -3.09208 -2.90991 0
M  V30 17413 O 1662.02 -2.63988 -2.39142 0
M  V30 17414 O 1660.87 -3.87723 -3.8514 0
M  V30 17415 H 1657.97 -0.561132 -0.607503 0
M  V30 17416 H 1660.51 -1.58151 -0.615333 0
M  V30 17417 H 1659.29 -3.51308 -1.72333 0
M  V30 17418 H 1658.91 -2.48999 -3.09976 0
M  V30 17419 N 1659.91 0.83715 -1.33527 0
M  V30 17420 C 1661.14 1.6222 -1.27938 0
M  V30 17421 C 1661.54 1.88592 0.151584 0
M  V30 17422 O 1660.89 1.46772 1.1047 0
M  V30 17423 C 1660.95 2.99561 -1.98754 0
M  V30 17424 C 1660.61 2.96152 -3.48056 0
M  V30 17425 C 1661.61 2.71745 -4.43227 0
M  V30 17426 C 1659.3 3.16233 -3.90259 0
M  V30 17427 C 1661.29 2.67451 -5.78575 0
M  V30 17428 C 1658.98 3.11564 -5.2571 0
M  V30 17429 C 1659.97 2.87204 -6.1968 0
M  V30 17430 O 1659.66 2.82441 -7.5265 0
M  V30 17431 H 1659.39 0.511419 -0.442071 0
M  V30 17432 H 1661.95 1.05075 -1.76489 0
M  V30 17433 H 1660.18 3.58568 -1.44797 0
M  V30 17434 H 1661.87 3.60444 -1.86642 0
M  V30 17435 H 1662.63 2.5598 -4.11946 0
M  V30 17436 H 1658.51 3.34214 -3.17525 0
M  V30 17437 H 1662.06 2.48356 -6.51893 0
M  V30 17438 H 1657.95 3.26879 -5.56615 0
M  V30 17439 H 1658.72 2.98271 -7.62218 0
M  V30 17440 N 1661.38 1.17024 1.05561 0
M  V30 17441 C 1662.8 0.962856 1.59956 0
M  V30 17442 C 1663.15 -0.491388 1.89947 0
M  V30 17443 O 1662.27 -1.366 1.67838 0
M  V30 17444 C 1662.87 1.74146 2.90617 0
M  V30 17445 C 1661.43 1.57885 3.41686 0
M  V30 17446 C 1660.57 1.74548 2.15472 0
M  V30 17447 H 1663.52 1.31787 0.88419 0
M  V30 17448 H 1663.54 1.22165 3.60355 0
M  V30 17449 H 1663.06 2.79984 2.68758 0
M  V30 17450 H 1661.16 0.545207 3.6859 0
M  V30 17451 H 1661.27 2.36745 4.16519 0
M  V30 17452 H 1659.63 1.17356 2.26052 0
M  V30 17453 H 1660.42 2.81789 1.96087 0
M  V30 17454 N 1662.86 -1.24221 0.969889 0
M  V30 17455 C 1664.1 -1.94094 0.640856 0
M  V30 17456 C 1664.47 -1.74112 -0.809267 0
M  V30 17457 O 1665.67 -2.38039 -1.24863 0
M  V30 17458 C 1663.94 -3.42892 1.00797 0
M  V30 17459 S 1665.5 -4.3156 0.79382 0
M  V30 17460 H 1662.32 -0.671028 0.235036 0
M  V30 17461 H 1664.92 -1.50541 1.24731 0
M  V30 17462 H 1663.62 -3.54942 2.0602 0
M  V30 17463 H 1663.15 -3.91438 0.392386 0
M  V30 17464 H 1665.17 -4.95117 -0.327707 0
M  V30 17465 N 1664.34 -0.740267 -1.39132 0
M  V30 17466 C 1665.27 -0.118951 -2.33197 0
M  V30 17467 C 1666.25 0.718416 -1.54184 0
M  V30 17468 O 1667.44 0.662322 -1.82557 0
M  V30 17469 C 1664.57 0.78512 -3.38309 0
M  V30 17470 C 1663.52 0.0515093 -4.27969 0
M  V30 17471 C 1662.85 1.07295 -5.23824 0
M  V30 17472 C 1664.15 -1.10903 -5.1039 0
M  V30 17473 H 1665.84 -0.904687 -2.85405 0
M  V30 17474 H 1663.39 -0.436493 -1.37225 0
M  V30 17475 H 1665.34 1.22935 -4.03069 0
M  V30 17476 H 1664.06 1.60303 -2.84553 0
M  V30 17477 H 1662.72 -0.373156 -3.64696 0
M  V30 17478 H 1662.37 1.88456 -4.66362 0
M  V30 17479 H 1662.07 0.586827 -5.84662 0
M  V30 17480 H 1663.59 1.51677 -5.91461 0
M  V30 17481 H 1665.01 -0.742993 -5.68465 0
M  V30 17482 H 1663.41 -1.52513 -5.80396 0
M  V30 17483 H 1664.48 -1.92825 -4.44912 0
M  V30 17484 N 1665.82 1.49844 -0.488302 0
M  V30 17485 C 1666.75 2.31737 0.286432 0
M  V30 17486 C 1667.73 1.39424 0.974418 0
M  V30 17487 O 1668.91 1.68339 0.968274 0
M  V30 17488 C 1666.04 3.19616 1.35878 0
M  V30 17489 C 1665 4.20619 0.791409 0
M  V30 17490 C 1664.32 4.9735 1.96333 0
M  V30 17491 C 1665.62 5.21882 -0.208975 0
M  V30 17492 H 1667.32 2.96755 -0.397092 0
M  V30 17493 H 1664.86 1.42709 -0.192413 0
M  V30 17494 H 1666.82 3.75711 1.90838 0
M  V30 17495 H 1665.54 2.52516 2.07131 0
M  V30 17496 H 1664.2 3.65651 0.263647 0
M  V30 17497 H 1663.85 4.26708 2.66325 0
M  V30 17498 H 1663.55 5.65684 1.58983 0
M  V30 17499 H 1665.07 5.56286 2.51751 0
M  V30 17500 H 1666.49 5.72746 0.252049 0
M  V30 17501 H 1664.88 5.98033 -0.497638 0
M  V30 17502 H 1665.95 4.7157 -1.12916 0
M  V30 17503 N 1667.3 0.221601 1.56034 0
M  V30 17504 C 1668.71 -0.133783 1.59038 0
M  V30 17505 C 1668.91 -1.58952 1.23841 0
M  V30 17506 O 1667.97 -2.32972 0.973677 0
M  V30 17507 C 1669.28 0.192549 3.00083 0
M  V30 17508 C 1670.83 0.134791 3.1271 0
M  V30 17509 C 1671.3 0.434799 4.55931 0
M  V30 17510 N 1672.8 0.384372 4.61602 0
M  V30 17511 C 1673.53 0.59 5.70357 0
M  V30 17512 N 1673.03 0.857405 6.87474 0
M  V30 17513 N 1674.82 0.522433 5.59667 0
M  V30 17514 H 1666.97 1.17124 1.77189 0
M  V30 17515 H 1669.23 0.46946 0.823597 0
M  V30 17516 H 1668.94 1.20292 3.30488 0
M  V30 17517 H 1668.81 -0.49243 3.73972 0
M  V30 17518 H 1671.2 -0.866221 2.821 0
M  V30 17519 H 1671.28 0.853247 2.4115 0
M  V30 17520 H 1670.93 1.43325 4.87258 0
M  V30 17521 H 1670.86 -0.304849 5.25717 0
M  V30 17522 H 1673.35 0.185389 3.77445 0
M  V30 17523 H 1673.66 1.00241 7.66271 0
M  V30 17524 H 1672 0.894599 6.89218 0
M  V30 17525 H 1675.2 0.313754 4.67047 0
M  V30 17526 H 1675.37 0.686094 6.44358 0
M  V30 17527 N 1668.77 -1.57515 -0.0517878 0
M  V30 17528 C 1670.19 -1.76755 -0.601218 0
M  V30 17529 C 1670.54 -0.849744 -1.76844 0
M  V30 17530 O 1669.66 -0.0387987 -2.16365 0
M  V30 17531 C 1670.26 -3.20534 -1.09743 0
M  V30 17532 C 1668.82 -3.41049 -1.59256 0
M  V30 17533 C 1667.96 -2.72369 -0.520618 0
M  V30 17534 H 1670.91 -1.57739 0.174429 0
M  V30 17535 H 1670.93 -3.25796 -1.96563 0
M  V30 17536 H 1670.45 -3.87309 -0.247696 0
M  V30 17537 H 1668.55 -2.79417 -2.46489 0
M  V30 17538 H 1668.66 -4.49581 -1.65572 0
M  V30 17539 H 1667.02 -2.3549 -0.97038 0
M  V30 17540 H 1667.81 -3.41812 0.319266 0
M  V30 17541 N 1670.25 0.323614 -1.54242 0
M  V30 17542 C 1671.48 1.08548 -1.76726 0
M  V30 17543 C 1671.9 1.8093 -0.514375 0
M  V30 17544 O 1671.26 1.73255 0.534069 0
M  V30 17545 C 1671.31 2.05928 -2.96017 0
M  V30 17546 O 1670.41 3.13825 -2.67559 0
M  V30 17547 H 1669.75 0.31297 -0.585616 0
M  V30 17548 H 1672.28 0.367925 -2.01265 0
M  V30 17549 H 1672.29 2.48799 -3.23362 0
M  V30 17550 H 1670.97 1.52646 -3.86875 0
M  V30 17551 H 1669.55 2.7563 -2.51163 0
M  V30 17552 N 1671.73 1.46313 0.585673 0
M  V30 17553 C 1672.96 1.54811 1.36811 0
M  V30 17554 C 1673.37 0.187083 1.88273 0
M  V30 17555 O 1672.71 -0.825324 1.64116 0
M  V30 17556 C 1672.77 2.48978 2.59326 0
M  V30 17557 C 1672.44 3.9528 2.29352 0
M  V30 17558 C 1673.44 4.84575 1.88369 0
M  V30 17559 C 1671.12 4.40387 2.41588 0
M  V30 17560 C 1673.11 6.16989 1.60012 0
M  V30 17561 C 1670.8 5.72836 2.12844 0
M  V30 17562 C 1671.8 6.60956 1.72121 0
M  V30 17563 O 1671.49 7.90947 1.43727 0
M  V30 17564 H 1671.22 0.526169 0.424409 0
M  V30 17565 H 1673.77 1.92395 0.719251 0
M  V30 17566 H 1672 2.06406 3.27007 0
M  V30 17567 H 1673.69 2.47915 3.21392 0
M  V30 17568 H 1674.46 4.50984 1.78433 0
M  V30 17569 H 1670.34 3.72024 2.72249 0
M  V30 17570 H 1673.88 6.85728 1.28152 0
M  V30 17571 H 1669.78 6.05976 2.22403 0
M  V30 17572 H 1670.55 8.03185 1.57597 0
M  V30 17573 N 1673.21 -0.830057 1.33969 0
M  V30 17574 C 1674.46 -1.58821 1.26111 0
M  V30 17575 C 1674.79 -1.9345 -0.170484 0
M  V30 17576 O 1674.06 -1.59433 -1.11407 0
M  V30 17577 C 1674.35 -2.89243 2.14501 0
M  V30 17578 C 1674.2 -2.61239 3.66162 0
M  V30 17579 C 1675.52 -3.90752 2.02487 0
M  V30 17580 H 1672.64 -0.576255 0.459455 0
M  V30 17581 H 1675.28 -0.956736 1.64154 0
M  V30 17582 H 1673.43 -3.43133 1.82186 0
M  V30 17583 H 1675.1 -2.13713 4.08809 0
M  V30 17584 H 1673.34 -1.94796 3.87604 0
M  V30 17585 H 1674.02 -3.54212 4.23365 0
M  V30 17586 H 1676.49 -3.46194 2.30844 0
M  V30 17587 H 1675.37 -4.79825 2.6657 0
M  V30 17588 H 1675.63 -4.30649 0.999704 0
M  V30 17589 N 1674.69 -1.17582 -1.04939 0
M  V30 17590 C 1675.62 -0.918221 -2.14688 0
M  V30 17591 C 1676.6 0.140757 -1.69517 0
M  V30 17592 O 1677.78 -0.0100118 -1.94197 0
M  V30 17593 C 1674.91 -0.433531 -3.44584 0
M  V30 17594 C 1673.87 -1.43199 -4.03334 0
M  V30 17595 C 1673.19 -0.805154 -5.28603 0
M  V30 17596 C 1674.49 -2.80598 -4.40525 0
M  V30 17597 H 1676.19 -1.83604 -2.36495 0
M  V30 17598 H 1673.73 -0.884202 -1.13657 0
M  V30 17599 H 1675.69 -0.240722 -4.20712 0
M  V30 17600 H 1674.41 0.519832 -3.22437 0
M  V30 17601 H 1673.07 -1.61158 -3.29277 0
M  V30 17602 H 1672.72 0.155124 -5.02761 0
M  V30 17603 H 1672.42 -1.4717 -5.68871 0
M  V30 17604 H 1673.94 -0.622677 -6.07417 0
M  V30 17605 H 1675.36 -2.66341 -5.07676 0
M  V30 17606 H 1673.75 -3.43854 -4.91817 0
M  V30 17607 H 1674.82 -3.34815 -3.50752 0
M  V30 17608 N 1676.17 1.23705 -0.976463 0
M  V30 17609 C 1677.39 1.96595 -0.660697 0
M  V30 17610 C 1677.82 1.71845 0.764916 0
M  V30 17611 O 1677.17 0.987506 1.52046 0
M  V30 17612 C 1677.22 3.47803 -0.95214 0
M  V30 17613 O 1676.33 4.12378 -0.0421126 0
M  V30 17614 H 1675.67 0.615591 -0.248886 0
M  V30 17615 H 1678.2 1.57247 -1.30899 0
M  V30 17616 H 1678.21 3.98236 -0.887238 0
M  V30 17617 H 1676.88 3.65144 -1.99105 0
M  V30 17618 H 1675.46 3.72552 -0.161087 0
M  V30 17619 N 1677.64 0.747635 1.38738 0
M  V30 17620 C 1678.89 0.300552 1.99853 0
M  V30 17621 C 1679.21 -1.11986 1.59638 0
M  V30 17622 O 1678.48 -1.76477 0.850447 0
M  V30 17623 H 1677.06 0.108134 0.739132 0
M  V30 17624 H 1679.72 0.960405 1.69594 0
M  V30 17625 H 1678.82 0.358956 3.10029 0
M  V30 17626 N 1679.12 -1.49583 0.496242 0
M  V30 17627 C 1680.35 -2.07342 -0.0490986 0
M  V30 17628 C 1680.77 -1.35474 -1.30493 0
M  V30 17629 O 1680.13 -0.410005 -1.76603 0
M  V30 17630 C 1680.18 -3.59427 -0.290601 0
M  V30 17631 O 1679.28 -3.89111 -1.36626 0
M  V30 17632 H 1678.62 -0.663562 0.0241141 0
M  V30 17633 H 1681.15 -1.92452 0.6945 0
M  V30 17634 H 1681.16 -4.04627 -0.523549 0
M  V30 17635 H 1679.84 -4.11147 0.626959 0
M  V30 17636 H 1678.41 -3.55726 -1.11864 0
M  V30 17637 N 1680.6 -0.229873 -1.55915 0
M  V30 17638 C 1681.56 0.663347 -2.19391 0
M  V30 17639 C 1682.56 1.11548 -1.15818 0
M  V30 17640 O 1683.75 1.02294 -1.41002 0
M  V30 17641 C 1680.88 1.9097 -2.82389 0
M  V30 17642 H 1682.08 0.109797 -2.99699 0
M  V30 17643 H 1679.63 0.0197234 -1.56288 0
M  V30 17644 H 1680.37 2.50491 -2.05973 0
M  V30 17645 H 1680.15 1.59388 -3.58243 0
M  V30 17646 H 1681.64 2.5459 -3.31019 0
M  V30 17647 N 1682.08 1.5754 0.0434337 0
M  V30 17648 C 1683.01 2.00964 1.08114 0
M  V30 17649 C 1683.99 0.891404 1.35988 0
M  V30 17650 O 1685.17 1.15607 1.48887 0
M  V30 17651 C 1682.3 2.3705 2.41919 0
M  V30 17652 C 1681.35 3.59171 2.29996 0
M  V30 17653 S 1682.18 5.08892 1.66702 0
M  V30 17654 C 1683.33 5.48206 3.02028 0
M  V30 17655 H 1683.57 2.88668 0.711202 0
M  V30 17656 H 1681.1 1.52314 0.25294 0
M  V30 17657 H 1683.06 2.58513 3.18875 0
M  V30 17658 H 1681.72 1.49824 2.76064 0
M  V30 17659 H 1680.91 3.82029 3.28739 0
M  V30 17660 H 1680.51 3.37486 1.61181 0
M  V30 17661 H 1682.81 5.48012 3.98358 0
M  V30 17662 H 1683.75 6.48688 2.83919 0
M  V30 17663 H 1684.16 4.7569 3.03939 0
M  V30 17664 N 1683.56 -0.31543 1.54411 0
M  V30 17665 C 1684.5 -1.4086 1.85098 0
M  V30 17666 C 1685.5 -1.53172 0.723518 0
M  V30 17667 O 1686.7 -1.55461 0.907303 0
M  V30 17668 H 1683.08 -0.47022 0.586853 0
M  V30 17669 H 1685.05 -1.12207 2.765 0
M  V30 17670 C 1683.8 -2.76948 2.10227 0
M  V30 17671 H 1683.12 -2.68251 2.96448 0
M  V30 17672 H 1684.56 -3.52486 2.35647 0
M  V30 17673 C 1683.02 -3.24758 0.896312 0
M  V30 17674 O 1683.55 -4.0155 0.109609 0
M  V30 17675 N 1681.76 -2.81901 0.705685 0
M  V30 17676 H 1681.3 -2.19571 1.34708 0
M  V30 17677 H 1681.26 -3.14242 -0.0996804 0
M  V30 17678 N 1685.03 -1.46622 -0.577906 0
M  V30 17679 C 1686.28 -1.52406 -1.33792 0
M  V30 17680 C 1686.61 -0.177147 -1.9339 0
M  V30 17681 O 1685.89 0.81197 -1.76741 0
M  V30 17682 C 1686.17 -2.62633 -2.46366 0
M  V30 17683 C 1686.02 -4.06871 -1.91771 0
M  V30 17684 C 1687.34 -2.68909 -3.4839 0
M  V30 17685 H 1684.46 -0.554833 -0.485107 0
M  V30 17686 H 1687.1 -1.78582 -0.648739 0
M  V30 17687 H 1685.25 -2.40444 -3.05154 0
M  V30 17688 H 1686.93 -4.40361 -1.37403 0
M  V30 17689 H 1685.17 -4.16124 -1.2257 0
M  V30 17690 H 1685.84 -4.79734 -2.73056 0
M  V30 17691 H 1688.32 -2.88868 -2.9949 0
M  V30 17692 H 1687.19 -3.47846 -4.24611 0
M  V30 17693 H 1687.45 -1.75148 -4.05925 0
M  V30 17694 N 1686.51 0.822941 -1.34408 0
M  V30 17695 C 1687.76 1.58149 -1.26951 0
M  V30 17696 C 1688.09 1.93538 0.160222 0
M  V30 17697 O 1687.37 1.60021 1.1056 0
M  V30 17698 C 1687.65 2.88101 -2.16032 0
M  V30 17699 C 1687.5 2.59293 -3.67542 0
M  V30 17700 C 1688.82 3.89673 -2.04556 0
M  V30 17701 H 1685.94 0.573811 -0.462504 0
M  V30 17702 H 1688.58 0.948017 -1.64659 0
M  V30 17703 H 1686.73 3.42162 -1.84003 0
M  V30 17704 H 1688.4 2.11542 -4.09936 0
M  V30 17705 H 1686.65 1.92738 -3.88632 0
M  V30 17706 H 1687.32 3.51962 -4.25238 0
M  V30 17707 H 1689.79 3.44965 -2.32677 0
M  V30 17708 H 1688.67 4.78404 -2.69111 0
M  V30 17709 H 1688.93 4.30113 -1.02253 0
M  V30 17710 N 1687.99 1.18137 1.04314 0
M  V30 17711 C 1689.24 0.975203 1.77471 0
M  V30 17712 C 1689.57 -0.495399 1.88085 0
M  V30 17713 O 1688.82 -1.38401 1.38361 0
M  V30 17714 C 1689.12 1.57211 3.20966 0
M  V30 17715 C 1688.79 3.06842 3.30392 0
M  V30 17716 C 1687.45 3.47683 3.32671 0
M  V30 17717 C 1689.8 4.02855 3.30692 0
M  V30 17718 C 1687.13 4.83116 3.3289 0
M  V30 17719 C 1689.48 5.382 3.3245 0
M  V30 17720 C 1688.14 5.78492 3.33021 0
M  V30 17721 H 1687.41 0.356852 0.649413 0
M  V30 17722 H 1690.06 1.47163 1.22536 0
M  V30 17723 H 1688.37 0.997616 3.78886 0
M  V30 17724 H 1690.06 1.38804 3.76211 0
M  V30 17725 H 1686.65 2.74291 3.29336 0
M  V30 17726 H 1690.84 3.72355 3.28124 0
M  V30 17727 H 1686.09 5.13634 3.31647 0
M  V30 17728 H 1690.27 6.12367 3.31631 0
M  V30 17729 H 1687.89 6.83412 3.32944 0
M  V30 17730 N 1689.47 -1.23186 0.98301 0
M  V30 17731 C 1690.69 -1.96242 0.671114 0
M  V30 17732 C 1691.12 -1.72248 -0.755792 0
M  V30 17733 O 1690.48 -0.995555 -1.5152 0
M  V30 17734 C 1690.52 -3.47293 0.970571 0
M  V30 17735 O 1689.63 -4.1235 0.0639814 0
M  V30 17736 H 1688.97 -0.614262 0.252147 0
M  V30 17737 H 1691.5 -1.56551 1.31731 0
M  V30 17738 H 1691.51 -3.9776 0.908345 0
M  V30 17739 H 1690.18 -3.64083 2.01039 0
M  V30 17740 H 1688.76 -3.72461 0.180842 0
M  V30 17741 N 1690.95 -0.754982 -1.38339 0
M  V30 17742 C 1691.86 -0.130303 -2.34238 0
M  V30 17743 C 1692.87 0.699048 -1.5934 0
M  V30 17744 O 1694.05 0.622876 -1.91526 0
M  V30 17745 C 1691.11 0.751285 -3.38462 0
M  V30 17746 C 1690.17 -0.0925987 -4.292 0
M  V30 17747 C 1689.41 0.747007 -5.28446 0
M  V30 17748 O 1689.63 1.98495 -5.34749 0
M  V30 17749 O 1688.56 0.165072 -6.01674 0
M  V30 17750 H 1692.39 -0.92233 -2.89356 0
M  V30 17751 H 1689.98 -0.515896 -1.4021 0
M  V30 17752 H 1691.86 1.2551 -4.02275 0
M  V30 17753 H 1690.53 1.52178 -2.85698 0
M  V30 17754 H 1689.44 -0.64239 -3.68543 0
M  V30 17755 H 1690.77 -0.825784 -4.85223 0
M  V30 17756 N 1692.42 1.49318 -0.504168 0
M  V30 17757 C 1693.7 1.95332 0.102393 0
M  V30 17758 C 1694.08 1.44576 1.53821 0
M  V30 17759 O 1693.43 0.660894 2.18734 0
M  V30 17760 C 1693.64 3.48998 0.0117694 0
M  V30 17761 C 1694.99 4.24201 0.184101 0
M  V30 17762 O 1696.01 3.56094 0.0868056 0
M  V30 17763 O 1694.87 5.45147 0.384267 0
M  V30 17764 H 1691.96 0.821691 0.0935582 0
M  V30 17765 H 1694.51 1.5995 -0.566932 0
M  V30 17766 H 1693.28 3.78585 -0.989413 0
M  V30 17767 H 1692.91 3.91006 0.7211 0
M  V30 17768 N 1693.9 0.238138 1.5579 0
M  V30 17769 C 1694.81 -0.676049 2.24648 0
M  V30 17770 C 1695.83 -1.20038 1.25964 0
M  V30 17771 O 1697 -1.2385 1.58818 0
M  V30 17772 C 1694.07 -1.86014 2.92574 0
M  V30 17773 C 1693.13 -1.37615 4.06646 0
M  V30 17774 C 1692.36 -2.5038 4.71323 0
M  V30 17775 O 1692.59 -3.68906 4.35045 0
M  V30 17776 O 1691.52 -2.20636 5.60003 0
M  V30 17777 H 1695.35 -0.119372 3.03465 0
M  V30 17778 H 1692.93 0.00699789 1.49398 0
M  V30 17779 H 1694.81 -2.55132 3.35389 0
M  V30 17780 H 1693.49 -2.4046 2.16704 0
M  V30 17781 H 1692.4 -0.652503 3.68366 0
M  V30 17782 H 1693.73 -0.877871 4.84308 0
M  V30 17783 N 1695.38 -1.57561 -0.0350783 0
M  V30 17784 C 1696.31 -2.01535 -1.07046 0
M  V30 17785 C 1697.29 -0.898604 -1.35513 0
M  V30 17786 O 1698.48 -1.16395 -1.48271 0
M  V30 17787 C 1695.6 -2.3833 -2.40659 0
M  V30 17788 C 1694.65 -3.60386 -2.28088 0
M  V30 17789 S 1695.48 -5.09768 -1.64001 0
M  V30 17790 C 1696.64 -5.498 -2.99116 0
M  V30 17791 H 1696.87 -2.89041 -0.695884 0
M  V30 17792 H 1694.4 -1.52446 -0.244859 0
M  V30 17793 H 1696.36 -2.602 -3.175 0
M  V30 17794 H 1695.02 -1.51286 -2.75266 0
M  V30 17795 H 1694.22 -3.83767 -3.26709 0
M  V30 17796 H 1693.82 -3.38336 -1.59389 0
M  V30 17797 H 1696.11 -5.50117 -3.95447 0
M  V30 17798 H 1697.05 -6.50184 -2.80475 0
M  V30 17799 H 1697.46 -4.77296 -3.01412 0
M  V30 17800 N 1696.86 0.307236 -1.54576 0
M  V30 17801 C 1697.81 1.3787 -1.85096 0
M  V30 17802 C 1698.78 1.5066 -0.69935 0
M  V30 17803 O 1699.96 1.65618 -0.947373 0
M  V30 17804 C 1697.1 2.73976 -2.09836 0
M  V30 17805 C 1696.21 2.69687 -3.3748 0
M  V30 17806 C 1695.35 3.97746 -3.52096 0
M  V30 17807 C 1694.39 3.87829 -4.73556 0
M  V30 17808 N 1693.52 5.07651 -4.8501 0
M  V30 17809 H 1698.36 1.11144 -2.76498 0
M  V30 17810 H 1695.9 0.537696 -1.36921 0
M  V30 17811 H 1697.86 3.53121 -2.22174 0
M  V30 17812 H 1696.49 2.98977 -1.21707 0
M  V30 17813 H 1695.54 1.82441 -3.33795 0
M  V30 17814 H 1696.85 2.58247 -4.26743 0
M  V30 17815 H 1696.01 4.85327 -3.64065 0
M  V30 17816 H 1694.75 4.12012 -2.60955 0
M  V30 17817 H 1693.75 2.98633 -4.61626 0
M  V30 17818 H 1694.98 3.75114 -5.66098 0
M  V30 17819 H 1692.92 5.22393 -3.9679 0
M  V30 17820 H 1692.84 4.9861 -5.68264 0
M  V30 17821 H 1694.11 5.969 -5.01328 0
M  V30 17822 N 1698.34 1.46926 0.570122 0
M  V30 17823 C 1699.28 1.58442 1.67824 0
M  V30 17824 C 1700.25 0.428053 1.6049 0
M  V30 17825 O 1701.44 0.646445 1.79515 0
M  V30 17826 C 1698.58 1.59253 3.06158 0
M  V30 17827 C 1697.69 2.85714 3.24024 0
M  V30 17828 C 1696.83 2.77945 4.52681 0
M  V30 17829 C 1695.87 3.99289 4.63934 0
M  V30 17830 N 1695 3.89833 5.83931 0
M  V30 17831 H 1699.84 2.5309 1.5732 0
M  V30 17832 H 1697.38 1.25549 0.766548 0
M  V30 17833 H 1699.34 1.57707 3.86244 0
M  V30 17834 H 1697.97 0.68127 3.15529 0
M  V30 17835 H 1697.02 2.97184 2.37458 0
M  V30 17836 H 1698.33 3.7561 3.28206 0
M  V30 17837 H 1697.49 2.74576 5.41011 0
M  V30 17838 H 1696.22 1.85711 4.50958 0
M  V30 17839 H 1695.23 4.02976 3.74019 0
M  V30 17840 H 1696.45 4.92635 4.67427 0
M  V30 17841 H 1694.4 3.00393 5.83181 0
M  V30 17842 H 1694.32 4.73395 5.89434 0
M  V30 17843 H 1695.59 3.90459 6.74657 0
M  V30 17844 N 1699.82 -0.815801 1.34842 0
M  V30 17845 C 1701.06 -1.57241 1.27599 0
M  V30 17846 C 1701.39 -1.93904 -0.152127 0
M  V30 17847 O 1700.65 -1.60819 -1.11515 0
M  V30 17848 C 1700.94 -2.87795 2.11917 0
M  V30 17849 C 1700.61 -2.70392 3.60831 0
M  V30 17850 C 1699.27 -2.65353 4.01424 0
M  V30 17851 C 1701.62 -2.53569 4.55359 0
M  V30 17852 C 1698.95 -2.41422 5.34726 0
M  V30 17853 C 1701.3 -2.31169 5.8885 0
M  V30 17854 C 1699.97 -2.24546 6.28598 0
M  V30 17855 H 1699.24 -0.575386 0.466918 0
M  V30 17856 H 1701.89 -0.943355 1.66653 0
M  V30 17857 H 1700.19 -3.5503 1.65714 0
M  V30 17858 H 1701.89 -3.45436 2.03654 0
M  V30 17859 H 1698.48 -2.75157 3.28613 0
M  V30 17860 H 1702.66 -2.5648 4.2489 0
M  V30 17861 H 1697.92 -2.34758 5.64534 0
M  V30 17862 H 1702.09 -2.1714 6.61682 0
M  V30 17863 H 1699.72 -2.05765 7.31823 0
M  V30 17864 N 1701.29 -1.18689 -1.03686 0
M  V30 17865 C 1702.22 -0.94094 -2.13702 0
M  V30 17866 C 1703.2 0.12277 -1.69656 0
M  V30 17867 O 1704.39 -0.0306085 -1.94176 0
M  V30 17868 C 1701.52 -0.470054 -3.44104 0
M  V30 17869 C 1700.47 -1.47468 -4.01792 0
M  V30 17870 C 1699.8 -0.861174 -5.2772 0
M  V30 17871 C 1701.1 -2.85254 -4.37524 0
M  V30 17872 H 1702.79 -1.86102 -2.34534 0
M  V30 17873 H 1700.34 -0.896207 -1.12713 0
M  V30 17874 H 1702.29 -0.28533 -4.20433 0
M  V30 17875 H 1701.02 0.485604 -3.2297 0
M  V30 17876 H 1699.68 -1.64641 -3.2755 0
M  V30 17877 H 1699.32 0.10179 -5.02897 0
M  V30 17878 H 1699.02 -1.53196 -5.67278 0
M  V30 17879 H 1700.55 -0.687066 -6.06722 0
M  V30 17880 H 1701.96 -2.71711 -5.04823 0
M  V30 17881 H 1700.36 -3.49051 -4.88143 0
M  V30 17882 H 1701.43 -3.38516 -3.47181 0
M  V30 17883 N 1702.77 1.22662 -0.989529 0
M  V30 17884 C 1703.68 2.28162 -0.545835 0
M  V30 17885 C 1704.7 1.69251 0.403762 0
M  V30 17886 O 1705.87 1.99563 0.271428 0
M  V30 17887 C 1702.94 3.46434 0.135808 0
M  V30 17888 C 1702 4.20673 -0.85633 0
M  V30 17889 C 1701.23 5.33298 -0.207121 0
M  V30 17890 O 1701.46 5.6157 0.99975 0
M  V30 17891 O 1700.39 5.94977 -0.910288 0
M  V30 17892 H 1704.22 2.68276 -1.42344 0
M  V30 17893 H 1701.8 1.28766 -0.757609 0
M  V30 17894 H 1703.68 4.18207 0.517776 0
M  V30 17895 H 1702.36 3.08252 0.988035 0
M  V30 17896 H 1701.26 3.51186 -1.28917 0
M  V30 17897 H 1702.6 4.62726 -1.67765 0
M  V30 17898 N 1704.25 0.762308 1.37937 0
M  V30 17899 C 1705.16 0.142724 2.34165 0
M  V30 17900 C 1706.18 -0.690588 1.59709 0
M  V30 17901 O 1707.35 -0.61271 1.91854 0
M  V30 17902 C 1704.42 -0.733325 3.38856 0
M  V30 17903 C 1703.48 0.115359 4.29145 0
M  V30 17904 C 1702.71 -0.718972 5.28835 0
M  V30 17905 O 1702.93 -1.95656 5.35794 0
M  V30 17906 O 1701.87 -0.133162 6.01753 0
M  V30 17907 H 1705.69 0.937662 2.88863 0
M  V30 17908 H 1703.28 0.523325 1.39935 0
M  V30 17909 H 1705.16 -1.23374 4.02935 0
M  V30 17910 H 1703.84 -1.50661 2.86501 0
M  V30 17911 H 1702.74 0.661926 3.68197 0
M  V30 17912 H 1704.08 0.851505 4.84779 0
M  V30 17913 N 1705.73 -1.49049 0.51208 0
M  V30 17914 C 1706.69 -2.27838 -0.249491 0
M  V30 17915 C 1707.69 -1.34321 -0.884004 0
M  V30 17916 O 1708.88 -1.57379 -0.74682 0
M  V30 17917 C 1706.01 -3.12637 -1.35908 0
M  V30 17918 H 1707.21 -2.96625 0.442029 0
M  V30 17919 H 1704.76 -1.53996 0.267406 0
M  V30 17920 H 1705.49 -2.48441 -2.0844 0
M  V30 17921 H 1705.28 -3.81408 -0.909427 0
M  V30 17922 H 1706.77 -3.72117 -1.89523 0
M  V30 17923 N 1707.21 -0.246397 -1.55662 0
M  V30 17924 C 1708.43 0.382645 -2.03331 0
M  V30 17925 C 1708.85 1.51573 -1.12566 0
M  V30 17926 O 1708.21 1.81962 -0.139992 0
M  V30 17927 C 1708.26 0.890907 -3.5035 0
M  V30 17928 O 1707.98 -0.197023 -4.37657 0
M  V30 17929 C 1709.48 1.59069 -4.13778 0
M  V30 17930 H 1706.7 0.0909834 -0.664803 0
M  V30 17931 H 1709.24 -0.370113 -2.01123 0
M  V30 17932 H 1707.4 1.59385 -3.53094 0
M  V30 17933 H 1707.81 0.188846 -5.2416 0
M  V30 17934 H 1709.29 1.89805 -5.18342 0
M  V30 17935 H 1709.76 2.51248 -3.60238 0
M  V30 17936 H 1710.37 0.932333 -4.14955 0
M  V30 17937 N 1708.68 1.57577 0.026722 0
M  V30 17938 C 1710.1 1.54951 0.382406 0
M  V30 17939 C 1710.3 0.972826 1.76461 0
M  V30 17940 O 1709.36 0.5949 2.45392 0
M  V30 17941 C 1710.67 2.99374 0.282111 0
M  V30 17942 C 1712.22 3.10934 0.359022 0
M  V30 17943 C 1712.69 4.57093 0.28815 0
M  V30 17944 N 1714.18 4.61899 0.346873 0
M  V30 17945 C 1714.92 5.72534 0.314961 0
M  V30 17946 N 1714.41 6.92401 0.235205 0
M  V30 17947 N 1716.21 5.60915 0.364863 0
M  V30 17948 H 1708.36 1.93413 -0.877788 0
M  V30 17949 H 1710.62 0.887216 -0.333995 0
M  V30 17950 H 1710.33 3.45301 -0.667821 0
M  V30 17951 H 1710.2 3.61562 1.07484 0
M  V30 17952 H 1712.59 2.64953 1.29939 0
M  V30 17953 H 1712.67 2.51573 -0.4631 0
M  V30 17954 H 1712.31 5.03742 -0.648558 0
M  V30 17955 H 1712.24 5.14368 1.12841 0
M  V30 17956 H 1714.73 3.75659 0.410932 0
M  V30 17957 H 1715.05 7.72498 0.216019 0
M  V30 17958 H 1713.39 6.94709 0.201219 0
M  V30 17959 H 1716.58 4.66165 0.42518 0
M  V30 17960 H 1716.76 6.47126 0.336526 0
M  V30 17961 N 1710.16 -0.299034 1.54737 0
M  V30 17962 C 1711.41 -1.03553 1.74369 0
M  V30 17963 C 1711.74 -1.86856 0.529019 0
M  V30 17964 O 1711.02 -1.8864 -0.473854 0
M  V30 17965 C 1711.3 -1.93988 3.03382 0
M  V30 17966 C 1711.15 -1.13852 4.35153 0
M  V30 17967 C 1712.47 -2.93128 3.28274 0
M  V30 17968 H 1709.59 -0.375055 0.634431 0
M  V30 17969 H 1712.23 -0.310018 1.87454 0
M  V30 17970 H 1710.38 -2.5585 2.92358 0
M  V30 17971 H 1712.05 -0.542614 4.58098 0
M  V30 17972 H 1710.3 -0.441278 4.3155 0
M  V30 17973 H 1710.97 -1.80385 5.21694 0
M  V30 17974 H 1713.44 -2.41396 3.38921 0
M  V30 17975 H 1712.32 -3.53569 4.19857 0
M  V30 17976 H 1712.58 -3.66892 2.46663 0
M  V30 17977 N 1711.64 -1.47227 -0.562322 0
M  V30 17978 C 1712.86 -1.5744 -1.35008 0
M  V30 17979 C 1713.29 -0.223223 -1.86771 0
M  V30 17980 O 1712.65 0.800078 -1.62691 0
M  V30 17981 C 1712.7 -2.5992 -2.49948 0
M  V30 17982 O 1711.8 -2.14836 -3.52022 0
M  V30 17983 H 1711.14 -0.529064 -0.401232 0
M  V30 17984 H 1713.67 -1.92966 -0.680084 0
M  V30 17985 H 1713.68 -2.80177 -2.96588 0
M  V30 17986 H 1712.36 -3.58031 -2.11629 0
M  V30 17987 H 1710.93 -2.04655 -3.11722 0
M  V30 17988 N 1713.12 0.808639 -1.35273 0
M  V30 17989 C 1714.05 1.92839 -1.23878 0
M  V30 17990 C 1715.06 1.61987 -0.162543 0
M  V30 17991 O 1716.25 1.73593 -0.41564 0
M  V30 17992 C 1713.35 3.27158 -0.884369 0
M  V30 17993 C 1712.52 3.85931 -2.05855 0
M  V30 17994 C 1711.58 4.98652 -1.68025 0
M  V30 17995 O 1710.61 5.16188 -2.39871 0
M  V30 17996 N 1711.81 5.77363 -0.602684 0
M  V30 17997 H 1714.58 2.03141 -2.20349 0
M  V30 17998 H 1712.14 0.985956 -1.28415 0
M  V30 17999 H 1714.13 4.00033 -0.612814 0
M  V30 18000 H 1712.7 3.12599 -0.00940584 0
M  V30 18001 H 1711.92 3.05274 -2.49402 0
M  V30 18002 H 1713.21 4.21929 -2.84347 0
M  V30 18003 H 1712.61 5.657 -0.00570741 0
M  V30 18004 H 1711.16 6.50627 -0.390903 0
M  V30 18005 N 1714.6 1.19237 1.03055 0
M  V30 18006 C 1715.51 0.943876 2.14775 0
M  V30 18007 C 1716.52 -0.0955384 1.73738 0
M  V30 18008 O 1717.7 0.0887187 2.01204 0
M  V30 18009 C 1714.76 0.48402 3.43305 0
M  V30 18010 C 1713.82 1.59262 3.98665 0
M  V30 18011 C 1713.06 1.15461 5.21061 0
M  V30 18012 O 1713.28 0.0174841 5.70397 0
M  V30 18013 O 1712.21 1.95648 5.69215 0
M  V30 18014 H 1716.04 1.87894 2.38599 0
M  V30 18015 H 1713.63 0.975046 1.13195 0
M  V30 18016 H 1715.51 0.236135 4.20738 0
M  V30 18017 H 1714.18 -0.422626 3.20929 0
M  V30 18018 H 1713.09 1.89464 3.22574 0
M  V30 18019 H 1714.42 2.47576 4.25402 0
M  V30 18020 N 1716.07 -1.22136 0.99602 0
M  V30 18021 C 1717.02 -2.2199 0.520059 0
M  V30 18022 C 1718.01 -1.55497 -0.413454 0
M  V30 18023 O 1719.2 -1.75369 -0.239765 0
M  V30 18024 C 1716.33 -3.42923 -0.160875 0
M  V30 18025 C 1715.42 -4.16618 0.793126 0
M  V30 18026 N 1715.81 -4.67022 1.94226 0
M  V30 18027 C 1714.1 -4.41814 0.609648 0
M  V30 18028 C 1714.81 -5.23252 2.5413 0
M  V30 18029 N 1713.78 -5.12096 1.8237 0
M  V30 18030 H 1717.58 -2.58606 1.39643 0
M  V30 18031 H 1715.1 -1.37842 0.858682 0
M  V30 18032 H 1717.09 -4.13654 -0.519266 0
M  V30 18033 H 1715.75 -3.07818 -1.03334 0
M  V30 18034 H 1716.77 -4.62882 2.32294 0
M  V30 18035 H 1713.44 -4.16938 -0.216495 0
M  V30 18036 H 1714.83 -5.72769 3.51263 0
M  V30 18037 N 1717.55 -0.769612 -1.37531 0
M  V30 18038 C 1718.96 -0.398644 -1.82394 0
M  V30 18039 C 1719.31 1.07493 -1.64133 0
M  V30 18040 O 1718.44 1.83234 -1.15127 0
M  V30 18041 C 1719.03 -0.716789 -3.31131 0
M  V30 18042 C 1717.59 -0.398903 -3.7428 0
M  V30 18043 C 1716.74 -0.96173 -2.60089 0
M  V30 18044 H 1719.69 -0.964441 -1.26033 0
M  V30 18045 H 1719.71 -0.00067688 -3.805 0
M  V30 18046 H 1719.22 -1.78933 -3.4439 0
M  V30 18047 H 1717.33 0.666412 -3.66592 0
M  V30 18048 H 1717.44 -0.90566 -4.70462 0
M  V30 18049 H 1715.8 -0.386103 -2.51757 0
M  V30 18050 H 1716.59 -2.03963 -2.76141 0
M  V30 18051 N 1719.03 1.48775 -0.519977 0
M  V30 18052 C 1720.28 2.02792 0.0177768 0
M  V30 18053 C 1720.61 1.3972 1.34878 0
M  V30 18054 O 1719.88 0.539438 1.8687 0
M  V30 18055 C 1720.17 3.59786 0.150355 0
M  V30 18056 C 1720.02 4.33356 -1.20511 0
M  V30 18057 C 1721.34 4.31172 0.881959 0
M  V30 18058 H 1718.46 0.736983 0.00498634 0
M  V30 18059 H 1721.1 1.77603 -0.675069 0
M  V30 18060 H 1719.25 3.81378 0.740452 0
M  V30 18061 H 1720.92 4.23209 -1.83554 0
M  V30 18062 H 1719.17 3.95167 -1.78957 0
M  V30 18063 H 1719.84 5.4162 -1.06544 0
M  V30 18064 H 1722.31 4.14349 0.381302 0
M  V30 18065 H 1721.19 5.40729 0.943601 0
M  V30 18066 H 1721.45 3.97747 1.93001 0
M  V30 18067 N 1720.51 0.254649 1.55529 0
M  V30 18068 C 1721.75 -0.368477 1.99424 0
M  V30 18069 C 1722.09 -1.57023 1.14269 0
M  V30 18070 O 1721.36 -1.93386 0.207886 0
M  V30 18071 C 1721.65 -0.77076 3.51755 0
M  V30 18072 C 1721.5 0.436923 4.47673 0
M  V30 18073 C 1722.82 -1.61487 4.09402 0
M  V30 18074 H 1719.94 -0.132459 0.724999 0
M  V30 18075 H 1722.58 0.357508 1.86606 0
M  V30 18076 H 1720.73 -1.38932 3.62809 0
M  V30 18077 H 1722.4 1.07541 4.4859 0
M  V30 18078 H 1720.64 1.07866 4.20175 0
M  V30 18079 H 1721.31 0.111996 5.51886 0
M  V30 18080 H 1723.79 -1.09265 4.01498 0
M  V30 18081 H 1722.67 -1.86519 5.16238 0
M  V30 18082 H 1722.93 -2.58926 3.58343 0
M  V30 18083 N 1721.99 -1.57589 -0.0183649 0
M  V30 18084 C 1722.92 -2.1029 -1.01492 0
M  V30 18085 C 1723.9 -1.00782 -1.37029 0
M  V30 18086 O 1725.08 -1.28365 -1.45726 0
M  V30 18087 C 1722.21 -2.59111 -2.31255 0
M  V30 18088 C 1721.17 -3.72979 -2.0993 0
M  V30 18089 C 1720.49 -4.08046 -3.45547 0
M  V30 18090 C 1721.79 -5.00988 -1.47677 0
M  V30 18091 H 1723.49 -2.93804 -0.57618 0
M  V30 18092 H 1721.03 -1.41336 -0.275708 0
M  V30 18093 H 1722.99 -2.94602 -3.0131 0
M  V30 18094 H 1721.71 -1.72694 -2.77208 0
M  V30 18095 H 1720.37 -3.37853 -1.42306 0
M  V30 18096 H 1720.02 -3.1868 -3.89169 0
M  V30 18097 H 1719.72 -4.8475 -3.32101 0
M  V30 18098 H 1721.24 -4.46081 -4.16947 0
M  V30 18099 H 1722.65 -5.34368 -2.07663 0
M  V30 18100 H 1721.05 -5.82375 -1.44774 0
M  V30 18101 H 1722.12 -4.82865 -0.443804 0
M  V30 18102 N 1723.46 0.290824 -1.54893 0
M  V30 18103 C 1724.69 1.04344 -1.78661 0
M  V30 18104 C 1725.11 1.80578 -0.551083 0
M  V30 18105 O 1724.46 1.76091 0.479394 0
M  V30 18106 C 1724.52 2.01604 -3.00064 0
M  V30 18107 O 1724.24 1.28461 -4.18843 0
M  V30 18108 C 1725.74 2.88822 -3.36298 0
M  V30 18109 H 1722.96 0.309018 -0.595608 0
M  V30 18110 H 1725.5 0.327011 -2.01868 0
M  V30 18111 H 1723.66 2.68735 -2.79035 0
M  V30 18112 H 1724.07 1.93864 -4.87357 0
M  V30 18113 H 1725.54 3.52898 -4.24461 0
M  V30 18114 H 1726.02 3.5766 -2.54904 0
M  V30 18115 H 1726.63 2.27208 -3.59523 0
M  V30 18116 N 1724.94 1.47523 0.554506 0
M  V30 18117 C 1725.89 1.60213 1.66134 0
M  V30 18118 C 1726.86 0.445051 1.60027 0
M  V30 18119 O 1728.04 0.665449 1.7882 0
M  V30 18120 C 1725.18 1.62491 3.04452 0
M  V30 18121 C 1724.3 2.89134 3.20976 0
M  V30 18122 C 1723.43 2.82731 4.49707 0
M  V30 18123 C 1722.47 4.04187 4.59673 0
M  V30 18124 N 1721.61 3.96004 5.79763 0
M  V30 18125 H 1726.45 2.54744 1.54626 0
M  V30 18126 H 1723.99 1.26355 0.753189 0
M  V30 18127 H 1725.94 1.61795 3.84549 0
M  V30 18128 H 1724.57 0.714698 3.14789 0
M  V30 18129 H 1723.63 2.99685 2.34292 0
M  V30 18130 H 1724.94 3.79069 3.24203 0
M  V30 18131 H 1724.09 2.80299 5.38068 0
M  V30 18132 H 1722.83 1.90483 4.48963 0
M  V30 18133 H 1721.84 4.06921 3.69724 0
M  V30 18134 H 1723.06 4.97565 4.62175 0
M  V30 18135 H 1721.01 3.06561 5.79962 0
M  V30 18136 H 1720.92 4.7962 5.8438 0
M  V30 18137 H 1722.19 3.97593 6.70478 0
M  V30 18138 N 1726.42 -0.801453 1.357 0
M  V30 18139 C 1727.67 -1.55879 1.2926 0
M  V30 18140 C 1728 -1.94055 -0.131552 0
M  V30 18141 O 1727.25 -1.61993 -1.09803 0
M  V30 18142 C 1727.55 -2.85531 2.14957 0
M  V30 18143 C 1727.22 -2.6655 3.63679 0
M  V30 18144 C 1725.88 -2.61081 4.04216 0
M  V30 18145 C 1728.23 -2.48725 4.58023 0
M  V30 18146 C 1725.56 -2.35737 5.37257 0
M  V30 18147 C 1727.91 -2.2491 5.91268 0
M  V30 18148 C 1726.57 -2.17867 6.30944 0
M  V30 18149 H 1725.84 -0.570401 0.472994 0
M  V30 18150 H 1728.49 -0.925627 1.67644 0
M  V30 18151 H 1726.8 -3.53252 1.69471 0
M  V30 18152 H 1728.49 -3.43256 2.07307 0
M  V30 18153 H 1725.08 -2.71656 3.31513 0
M  V30 18154 H 1729.27 -2.51959 4.27587 0
M  V30 18155 H 1724.52 -2.28758 5.66992 0
M  V30 18156 H 1728.7 -2.1011 6.63948 0
M  V30 18157 H 1726.32 -1.97991 7.33964 0
M  V30 18158 N 1727.9 -1.19782 -1.02421 0
M  V30 18159 C 1729.14 -1.0048 -1.76158 0
M  V30 18160 C 1729.48 0.46281 -1.88605 0
M  V30 18161 O 1728.75 1.34366 -1.40628 0
M  V30 18162 C 1729.04 -1.67999 -3.1851 0
M  V30 18163 C 1728.89 -3.22155 -3.13905 0
M  V30 18164 C 1730.21 -1.40681 -4.17009 0
M  V30 18165 H 1727.33 -0.366436 -0.639448 0
M  V30 18166 H 1729.97 -1.47688 -1.19534 0
M  V30 18167 H 1728.12 -1.27862 -3.66856 0
M  V30 18168 H 1729.79 -3.71536 -2.7342 0
M  V30 18169 H 1728.03 -3.53456 -2.51498 0
M  V30 18170 H 1728.7 -3.64548 -4.14498 0
M  V30 18171 H 1731.18 -1.75488 -3.77284 0
M  V30 18172 H 1730.06 -1.90467 -5.14795 0
M  V30 18173 H 1730.32 -0.332889 -4.40845 0
M  V30 18174 N 1729.38 1.21606 -1.00248 0
M  V30 18175 C 1730.29 2.2757 -0.570004 0
M  V30 18176 C 1731.3 1.69669 0.385788 0
M  V30 18177 O 1732.48 1.99839 0.250246 0
M  V30 18178 C 1729.54 3.46558 0.0990566 0
M  V30 18179 C 1728.61 4.19741 -0.9009 0
M  V30 18180 C 1727.84 5.33048 -0.263673 0
M  V30 18181 O 1728.06 5.62599 0.940131 0
M  V30 18182 O 1727 5.93978 -0.973342 0
M  V30 18183 H 1730.82 2.66751 -1.45182 0
M  V30 18184 H 1728.41 1.27955 -0.771224 0
M  V30 18185 H 1730.29 4.18733 0.47339 0
M  V30 18186 H 1728.96 3.09283 0.955285 0
M  V30 18187 H 1727.87 3.49798 -1.32634 0
M  V30 18188 H 1729.2 4.60921 -1.72664 0
M  V30 18189 N 1730.86 0.776895 1.37121 0
M  V30 18190 C 1732.1 0.342876 1.9917 0
M  V30 18191 C 1732.42 -1.08574 1.61977 0
M  V30 18192 O 1731.69 -1.74634 0.887689 0
M  V30 18193 H 1730.27 0.123788 0.736672 0
M  V30 18194 H 1732.94 0.996163 1.67519 0
M  V30 18195 H 1732.03 0.424637 3.09198 0
M  V30 18196 N 1732.33 -1.48497 0.527859 0
M  V30 18197 C 1733.3 -2.2809 -0.225312 0
M  V30 18198 C 1734.3 -1.35251 -0.869707 0
M  V30 18199 O 1735.49 -1.58163 -0.730086 0
M  V30 18200 C 1732.62 -3.14061 -1.32584 0
M  V30 18201 H 1733.81 -2.96139 0.473465 0
M  V30 18202 H 1731.36 -1.53703 0.283724 0
M  V30 18203 H 1732.1 -2.50638 -2.05794 0
M  V30 18204 H 1731.88 -3.82351 -0.868922 0
M  V30 18205 H 1733.37 -3.74106 -1.85566 0
M  V30 18206 N 1733.81 -0.262893 -1.55392 0
M  V30 18207 C 1735.23 0.09157 -1.59337 0
M  V30 18208 C 1735.43 1.55612 -1.28012 0
M  V30 18209 O 1734.48 2.30308 -1.0351 0
M  V30 18210 C 1735.8 -0.272043 -2.99467 0
M  V30 18211 C 1737.34 -0.217653 -3.12242 0
M  V30 18212 C 1737.82 -0.555528 -4.54618 0
M  V30 18213 N 1739.31 -0.506623 -4.60421 0
M  V30 18214 C 1740.05 -0.741013 -5.68592 0
M  V30 18215 N 1739.54 -1.03937 -6.84959 0
M  V30 18216 N 1741.33 -0.670636 -5.58085 0
M  V30 18217 H 1733.49 -1.2178 -1.74021 0
M  V30 18218 H 1735.75 -0.491131 -0.81086 0
M  V30 18219 H 1735.45 -1.29012 -3.27183 0
M  V30 18220 H 1735.33 0.393105 -3.75146 0
M  V30 18221 H 1737.72 0.791123 -2.84298 0
M  V30 18222 H 1737.8 -0.916884 -2.38803 0
M  V30 18223 H 1737.44 -1.56193 -4.83287 0
M  V30 18224 H 1737.37 0.165358 -5.2634 0
M  V30 18225 H 1739.86 -0.285397 -3.76821 0
M  V30 18226 H 1740.17 -1.20522 -7.63344 0
M  V30 18227 H 1738.52 -1.07702 -6.86604 0
M  V30 18228 H 1741.71 -0.437473 -4.66051 0
M  V30 18229 H 1741.88 -0.856692 -6.42312 0
M  V30 18230 N 1735.29 1.57597 0.0100073 0
M  V30 18231 C 1736.2 2.11209 1.02117 0
M  V30 18232 C 1737.22 1.05503 1.38366 0
M  V30 18233 O 1738.39 1.37348 1.47301 0
M  V30 18234 C 1735.46 2.59654 2.2974 0
M  V30 18235 C 1734.52 3.79921 1.99896 0
M  V30 18236 C 1733.75 4.26046 3.21435 0
M  V30 18237 O 1733.97 3.71566 4.32775 0
M  V30 18238 O 1732.91 5.18301 3.06018 0
M  V30 18239 H 1736.73 2.97805 0.595469 0
M  V30 18240 H 1734.32 1.47647 0.228208 0
M  V30 18241 H 1736.2 2.91058 3.04735 0
M  V30 18242 H 1734.88 1.76161 2.71568 0
M  V30 18243 H 1733.78 3.53506 1.22409 0
M  V30 18244 H 1735.12 4.64457 1.62912 0
M  V30 18245 N 1736.77 -0.282606 1.55045 0
M  V30 18246 C 1738.01 -1.01698 1.75458 0
M  V30 18247 C 1738.35 -1.86284 0.548808 0
M  V30 18248 O 1737.62 -1.89131 -0.45382 0
M  V30 18249 C 1737.9 -1.90759 3.05423 0
M  V30 18250 C 1737.76 -1.0923 4.36336 0
M  V30 18251 C 1739.08 -2.8963 3.31364 0
M  V30 18252 H 1736.2 -0.368305 0.638373 0
M  V30 18253 H 1738.84 -0.290118 1.87772 0
M  V30 18254 H 1736.99 -2.52734 2.95055 0
M  V30 18255 H 1738.66 -0.493996 4.58647 0
M  V30 18256 H 1736.9 -0.395481 4.31994 0
M  V30 18257 H 1737.57 -1.74842 5.23578 0
M  V30 18258 H 1740.05 -2.37788 3.41462 0
M  V30 18259 H 1738.93 -3.49096 4.23584 0
M  V30 18260 H 1739.19 -3.64255 2.50541 0
M  V30 18261 N 1738.25 -1.47815 -0.546675 0
M  V30 18262 C 1739.16 -1.63744 -1.68003 0
M  V30 18263 C 1740.17 -0.520118 -1.66044 0
M  V30 18264 O 1741.35 -0.789033 -1.853 0
M  V30 18265 C 1738.41 -1.65778 -3.04497 0
M  V30 18266 C 1737.47 -2.89015 -3.17441 0
M  V30 18267 C 1736.71 -2.90943 -4.47424 0
M  V30 18268 O 1736.93 -2.01769 -5.33522 0
M  V30 18269 O 1735.86 -3.82927 -4.64382 0
M  V30 18270 H 1739.69 -2.59665 -1.57505 0
M  V30 18271 H 1737.27 -1.31022 -0.717883 0
M  V30 18272 H 1739.16 -1.69734 -3.85705 0
M  V30 18273 H 1737.83 -0.730268 -3.15355 0
M  V30 18274 H 1736.74 -2.90599 -2.35591 0
M  V30 18275 H 1738.07 -3.81095 -3.11492 0
M  V30 18276 N 1739.72 0.794246 -1.36123 0
M  V30 18277 C 1740.66 1.91303 -1.24412 0
M  V30 18278 C 1741.63 1.62085 -0.129318 0
M  V30 18279 O 1742.82 1.86104 -0.299599 0
M  V30 18280 C 1739.95 3.26009 -0.918476 0
M  V30 18281 C 1738.99 3.74163 -2.04705 0
M  V30 18282 S 1739.82 3.90497 -3.66432 0
M  V30 18283 C 1740.98 5.28086 -3.3597 0
M  V30 18284 H 1741.21 2.00944 -2.19109 0
M  V30 18285 H 1738.75 0.952959 -1.21483 0
M  V30 18286 H 1740.7 4.03823 -0.737402 0
M  V30 18287 H 1739.37 3.14098 0.0106309 0
M  V30 18288 H 1738.56 4.7176 -1.77365 0
M  V30 18289 H 1738.16 3.03384 -2.1871 0
M  V30 18290 H 1740.45 6.12502 -2.89564 0
M  V30 18291 H 1741.4 5.60427 -4.32813 0
M  V30 18292 H 1741.8 4.94958 -2.71436 0
M  V30 18293 N 1741.2 1.20323 1.01785 0
M  V30 18294 C 1742.48 0.921703 1.72522 0
M  V30 18295 C 1742.86 -0.569838 2.03264 0
M  V30 18296 O 1742.21 -1.53115 1.69611 0
M  V30 18297 C 1742.42 1.79335 2.99399 0
M  V30 18298 C 1743.76 2.03442 3.72688 0
M  V30 18299 O 1744.79 1.76578 3.09352 0
M  V30 18300 O 1743.65 2.48803 4.86579 0
M  V30 18301 H 1740.74 0.344505 0.751828 0
M  V30 18302 H 1743.29 1.31191 1.07644 0
M  V30 18303 H 1742.06 2.80339 2.72994 0
M  V30 18304 H 1741.68 1.40314 3.72018 0
M  V30 18305 N 1742.68 -1.21073 1.00892 0
M  V30 18306 C 1743.64 -2.21804 0.577543 0
M  V30 18307 C 1744.64 -1.56985 -0.348201 0
M  V30 18308 O 1745.83 -1.73653 -0.137947 0
M  V30 18309 C 1742.96 -3.40535 -0.157685 0
M  V30 18310 H 1744.16 -2.61483 1.46856 0
M  V30 18311 H 1741.71 -1.34402 0.79786 0
M  V30 18312 H 1742.45 -3.0635 -1.06397 0
M  V30 18313 H 1742.23 -3.88805 0.507238 0
M  V30 18314 H 1743.72 -4.152 -0.447109 0
M  V30 18315 N 1744.16 -0.784156 -1.36707 0
M  V30 18316 C 1745.4 -0.354658 -1.99675 0
M  V30 18317 C 1745.74 1.06948 -1.62098 0
M  V30 18318 O 1745.01 1.73798 -0.873192 0
M  V30 18319 C 1745.3 -0.512421 -3.56435 0
M  V30 18320 C 1745.15 -1.97987 -4.03883 0
M  V30 18321 C 1746.47 0.075762 -4.40035 0
M  V30 18322 H 1743.59 -0.130338 -0.725383 0
M  V30 18323 H 1746.23 -0.989515 -1.62199 0
M  V30 18324 H 1744.38 0.0280323 -3.8849 0
M  V30 18325 H 1746.05 -2.58098 -3.82339 0
M  V30 18326 H 1744.29 -2.48433 -3.55617 0
M  V30 18327 H 1744.96 -2.04125 -5.12871 0
M  V30 18328 H 1747.44 -0.385522 -4.1431 0
M  V30 18329 H 1746.32 -0.0646832 -5.48862 0
M  V30 18330 H 1746.58 1.16735 -4.2641 0
M  V30 18331 N 1745.64 1.48215 -0.535727 0
M  V30 18332 C 1746.88 2.021 -0.00372016 0
M  V30 18333 C 1747.21 1.41456 1.34221 0
M  V30 18334 O 1746.48 0.581987 1.87055 0
M  V30 18335 H 1745.06 0.746998 0.00161295 0
M  V30 18336 H 1747.72 1.81862 -0.700863 0
M  V30 18337 H 1746.81 3.11939 0.100352 0
M  V30 18338 N 1747.11 0.27113 1.5525 0
M  V30 18339 C 1748.06 -0.618069 2.2237 0
M  V30 18340 C 1749.03 -1.15282 1.19579 0
M  V30 18341 O 1750.22 -1.20285 1.48108 0
M  V30 18342 C 1747.36 -1.79821 2.94548 0
M  V30 18343 C 1746.47 -1.29769 4.12049 0
M  V30 18344 C 1745.6 -2.43931 4.7188 0
M  V30 18345 C 1744.64 -1.90862 5.81582 0
M  V30 18346 N 1743.78 -2.98482 6.35494 0
M  V30 18347 H 1748.62 -0.0390456 2.97974 0
M  V30 18348 H 1746.16 -0.00750636 1.47098 0
M  V30 18349 H 1748.12 -2.49184 3.34609 0
M  V30 18350 H 1746.75 -2.34933 2.21374 0
M  V30 18351 H 1745.8 -0.497288 3.77136 0
M  V30 18352 H 1747.11 -0.868957 4.91173 0
M  V30 18353 H 1746.26 -3.21295 5.1464 0
M  V30 18354 H 1745 -2.90118 3.92024 0
M  V30 18355 H 1744.01 -1.11977 5.38276 0
M  V30 18356 H 1745.23 -1.45616 6.63304 0
M  V30 18357 H 1743.18 -3.44058 5.58534 0
M  V30 18358 H 1743.1 -2.60014 7.09879 0
M  V30 18359 H 1744.36 -3.75833 6.82913 0
M  V30 18360 N 1748.59 -1.576 -0.00164943 0
M  V30 18361 C 1749.87 -1.81716 -0.723788 0
M  V30 18362 C 1750.25 -0.875694 -1.9208 0
M  V30 18363 O 1749.6 0.0759629 -2.28374 0
M  V30 18364 C 1749.81 -3.30164 -1.13106 0
M  V30 18365 C 1751.16 -3.95859 -1.5356 0
M  V30 18366 O 1752.18 -3.34477 -1.2249 0
M  V30 18367 O 1751.04 -5.03986 -2.1133 0
M  V30 18368 H 1748.13 -0.748213 -0.352287 0
M  V30 18369 H 1750.68 -1.69683 0.0236782 0
M  V30 18370 H 1749.45 -3.90313 -0.277771 0
M  V30 18371 H 1749.07 -3.47188 -1.93768 0
M  V30 18372 N 1750.07 0.274379 -1.55193 0
M  V30 18373 C 1751.32 1.00418 -1.75387 0
M  V30 18374 C 1751.64 1.86868 -0.557244 0
M  V30 18375 O 1750.91 1.9117 0.427883 0
M  V30 18376 H 1749.49 0.373753 -0.646775 0
M  V30 18377 H 1752.15 0.298942 -1.92594 0
M  V30 18378 H 1751.25 1.64191 -2.6542 0
M  V30 18379 N 1751.55 1.48103 0.538828 0
M  V30 18380 C 1752.96 1.34028 0.866532 0
M  V30 18381 C 1753.16 0.3446 1.98531 0
M  V30 18382 O 1752.22 -0.237347 2.51382 0
M  V30 18383 C 1753.53 2.73833 1.24241 0
M  V30 18384 C 1755.08 2.82256 1.35279 0
M  V30 18385 C 1755.56 4.22744 1.76214 0
M  V30 18386 N 1757.05 4.25374 1.83332 0
M  V30 18387 C 1757.78 5.31009 2.16373 0
M  V30 18388 N 1757.28 6.4693 2.47899 0
M  V30 18389 N 1759.07 5.18397 2.17304 0
M  V30 18390 H 1751.22 2.11461 -0.199502 0
M  V30 18391 H 1753.49 0.947627 -0.0266031 0
M  V30 18392 H 1753.19 3.48213 0.494025 0
M  V30 18393 H 1753.07 3.0679 2.19453 0
M  V30 18394 H 1755.45 2.08137 2.09196 0
M  V30 18395 H 1755.53 2.5293 0.382096 0
M  V30 18396 H 1755.18 4.97375 1.02862 0
M  V30 18397 H 1755.11 4.49507 2.74319 0
M  V30 18398 H 1757.6 3.41755 1.61282 0
M  V30 18399 H 1757.91 7.23279 2.7219 0
M  V30 18400 H 1756.26 6.50219 2.45438 0
M  V30 18401 H 1759.45 4.26855 1.92126 0
M  V30 18402 H 1759.62 6.00824 2.42722 0
M  V30 18403 N 1753.03 -0.787016 1.36542 0
M  V30 18404 C 1754.27 -1.54728 1.311 0
M  V30 18405 C 1754.61 -1.93895 -0.108853 0
M  V30 18406 O 1753.88 -1.62896 -1.06278 0
M  V30 18407 C 1754.16 -2.82272 2.23594 0
M  V30 18408 C 1754.02 -2.49457 3.74287 0
M  V30 18409 C 1755.34 -3.84112 2.14816 0
M  V30 18410 H 1752.45 -0.561347 0.477555 0
M  V30 18411 H 1755.1 -0.904027 1.67115 0
M  V30 18412 H 1753.25 -3.37163 1.93011 0
M  V30 18413 H 1754.92 -2.00599 4.15401 0
M  V30 18414 H 1753.16 -1.82366 3.93605 0
M  V30 18415 H 1753.83 -3.40563 4.3442 0
M  V30 18416 H 1756.31 -3.38674 2.41741 0
M  V30 18417 H 1755.18 -4.71101 2.817 0
M  V30 18418 H 1755.45 -4.2725 1.13621 0
M  V30 18419 N 1754.5 -1.20861 -1.01145 0
M  V30 18420 C 1755.75 -1.01613 -1.74234 0
M  V30 18421 C 1756.07 0.451683 -1.90313 0
M  V30 18422 O 1757.27 0.763408 -2.60546 0
M  V30 18423 C 1755.73 -1.76942 -3.134 0
M  V30 18424 C 1755.34 -3.27851 -3.05316 0
M  V30 18425 C 1757.08 -1.6608 -3.90663 0
M  V30 18426 C 1754.99 -3.95696 -4.39521 0
M  V30 18427 H 1753.92 -0.376593 -0.653218 0
M  V30 18428 H 1756.57 -1.44533 -1.1306 0
M  V30 18429 H 1754.95 -1.26812 -3.75146 0
M  V30 18430 H 1756.12 -3.85234 -2.52846 0
M  V30 18431 H 1754.44 -3.39184 -2.41543 0
M  V30 18432 H 1757.04 -2.14105 -4.89963 0
M  V30 18433 H 1757.38 -0.617892 -4.11689 0
M  V30 18434 H 1757.91 -2.13652 -3.35556 0
M  V30 18435 H 1754.65 -5.00161 -4.23697 0
M  V30 18436 H 1754.17 -3.43102 -4.91977 0
M  V30 18437 H 1755.85 -4.00242 -5.08346 0
M  V30 18438 N 1755.98 1.20536 -1.01532 0
M  V30 18439 C 1757.21 1.94393 -0.722908 0
M  V30 18440 C 1757.63 1.74191 0.709857 0
M  V30 18441 O 1756.99 1.03538 1.48827 0
M  V30 18442 C 1757.04 3.44597 -1.06231 0
M  V30 18443 O 1756.14 4.12036 -0.173286 0
M  V30 18444 H 1755.48 0.607361 -0.268345 0
M  V30 18445 H 1758.01 1.53003 -1.35835 0
M  V30 18446 H 1758.02 3.95212 -1.01348 0
M  V30 18447 H 1756.7 3.58624 -2.10621 0
M  V30 18448 H 1755.28 3.71851 -0.27953 0
M  V30 18449 N 1757.46 0.791395 1.36289 0
M  V30 18450 C 1758.41 0.164218 2.27408 0
M  V30 18451 C 1759.39 -0.653018 1.47053 0
M  V30 18452 O 1760.59 -0.512767 1.6941 0
M  V30 18453 C 1757.72 -0.698551 3.36118 0
M  V30 18454 C 1756.8 0.127583 4.23908 0
M  V30 18455 N 1757.19 1.18307 4.91769 0
M  V30 18456 C 1755.49 -0.0932621 4.45902 0
M  V30 18457 C 1756.19 1.68616 5.56726 0
M  V30 18458 N 1755.17 0.995058 5.34415 0
M  V30 18459 H 1758.97 0.972045 2.7736 0
M  V30 18460 H 1756.48 0.63105 1.49638 0
M  V30 18461 H 1758.48 -1.16379 4.00327 0
M  V30 18462 H 1757.14 -1.5049 2.8772 0
M  V30 18463 H 1758.15 1.56553 4.93672 0
M  V30 18464 H 1754.83 -0.869962 4.08336 0
M  V30 18465 H 1756.22 2.56745 6.20912 0
M  V30 18466 N 1758.94 -1.47929 0.54358 0
M  V30 18467 C 1759.9 -2.28316 -0.201107 0
M  V30 18468 C 1760.9 -1.36165 -0.855313 0
M  V30 18469 O 1762.09 -1.58928 -0.71327 0
M  V30 18470 C 1759.22 -3.1545 -1.29245 0
M  V30 18471 H 1760.42 -2.9562 0.504848 0
M  V30 18472 H 1757.97 -1.53394 0.300011 0
M  V30 18473 H 1758.71 -2.52807 -2.03124 0
M  V30 18474 H 1758.49 -3.83251 -0.82832 0
M  V30 18475 H 1759.98 -3.76053 -1.81587 0
M  V30 18476 N 1760.42 -0.27936 -1.55104 0
M  V30 18477 C 1761.67 0.336866 -1.98867 0
M  V30 18478 C 1761.98 1.56656 -1.17124 0
M  V30 18479 O 1763.19 2.25601 -1.51051 0
M  V30 18480 C 1761.64 0.650699 -3.53969 0
M  V30 18481 C 1761.25 -0.559433 -4.44493 0
M  V30 18482 C 1762.99 1.22931 -4.0631 0
M  V30 18483 C 1760.9 -0.219952 -5.90991 0
M  V30 18484 H 1759.83 0.129643 -0.742771 0
M  V30 18485 H 1762.48 -0.384678 -1.79423 0
M  V30 18486 H 1760.86 1.43126 -3.6923 0
M  V30 18487 H 1762.04 -1.3362 -4.41001 0
M  V30 18488 H 1760.35 -1.05519 -4.02809 0
M  V30 18489 H 1762.95 1.49719 -5.13311 0
M  V30 18490 H 1763.29 2.16458 -3.55601 0
M  V30 18491 H 1763.83 0.51095 -3.94505 0
M  V30 18492 H 1760.56 -1.1232 -6.45805 0
M  V30 18493 H 1760.08 0.519971 -5.97542 0
M  V30 18494 H 1761.76 0.186308 -6.46732 0
M  V30 18495 N 1761.9 1.57599 -0.0067085 0
M  V30 18496 C 1763.12 1.95545 0.69115 0
M  V30 18497 C 1763.55 0.882014 1.66139 0
M  V30 18498 O 1762.9 -0.159242 1.80599 0
M  V30 18499 C 1762.95 3.3259 1.39342 0
M  V30 18500 O 1762.06 3.27368 2.50806 0
M  V30 18501 H 1761.4 0.638188 0.183336 0
M  V30 18502 H 1763.93 2.04506 -0.0618957 0
M  V30 18503 H 1763.94 3.6831 1.75532 0
M  V30 18504 H 1762.61 4.10269 0.682072 0
M  V30 18505 H 1761.19 3.03334 2.16894 0
M  V30 18506 N 1763.37 -0.266145 1.55336 0
M  V30 18507 C 1764.28 -1.35103 1.91793 0
M  V30 18508 C 1765.3 -1.5368 0.815985 0
M  V30 18509 O 1766.48 -1.67675 1.11567 0
M  V30 18510 C 1763.54 -2.68905 2.1884 0
M  V30 18511 C 1762.6 -2.59015 3.42359 0
M  V30 18512 C 1761.83 -3.86437 3.68106 0
M  V30 18513 O 1762.06 -4.87436 2.96247 0
M  V30 18514 O 1760.99 -3.86227 4.61641 0
M  V30 18515 H 1764.82 -1.07181 2.84158 0
M  V30 18516 H 1762.4 -0.465262 1.41971 0
M  V30 18517 H 1764.28 -3.48008 2.3763 0
M  V30 18518 H 1762.96 -2.96599 1.29656 0
M  V30 18519 H 1761.87 -1.78264 3.28896 0
M  V30 18520 H 1763.2 -2.3627 4.31784 0
M  V30 18521 N 1764.85 -1.48386 -0.530967 0
M  V30 18522 C 1765.8 -1.59236 -1.6318 0
M  V30 18523 C 1766.79 -0.449549 -1.54492 0
M  V30 18524 O 1767.98 -0.700935 -1.6253 0
M  V30 18525 C 1765.11 -1.6343 -3.01903 0
M  V30 18526 C 1764.19 -2.83188 -3.15699 0
M  V30 18527 N 1764.58 -4.07616 -2.99471 0
M  V30 18528 C 1762.88 -2.80499 -3.46751 0
M  V30 18529 C 1763.58 -4.87959 -3.16657 0
M  V30 18530 N 1762.56 -4.20757 -3.44186 0
M  V30 18531 H 1766.36 -2.53187 -1.49243 0
M  V30 18532 H 1763.87 -1.44744 -0.7364 0
M  V30 18533 H 1765.87 -1.69297 -3.80978 0
M  V30 18534 H 1764.53 -0.705948 -3.16933 0
M  V30 18535 H 1765.54 -4.38068 -2.76255 0
M  V30 18536 H 1762.22 -1.96916 -3.68145 0
M  V30 18537 H 1763.61 -5.96705 -3.08857 0
M  V30 18538 N 1766.33 0.779763 -1.36958 0
M  V30 18539 C 1767.58 1.54031 -1.31918 0
M  V30 18540 C 1767.91 1.9395 0.0985685 0
M  V30 18541 O 1767.18 1.63458 1.05413 0
M  V30 18542 C 1767.47 2.81083 -2.25088 0
M  V30 18543 C 1767.32 2.47469 -3.75605 0
M  V30 18544 C 1768.64 3.82968 -2.1685 0
M  V30 18545 H 1765.76 0.558806 -0.480526 0
M  V30 18546 H 1768.4 0.895152 -1.67592 0
M  V30 18547 H 1766.55 3.36135 -1.94796 0
M  V30 18548 H 1768.22 1.98393 -4.16459 0
M  V30 18549 H 1766.46 1.80276 -3.94567 0
M  V30 18550 H 1767.14 3.38255 -4.3622 0
M  V30 18551 H 1769.61 3.37388 -2.43534 0
M  V30 18552 H 1768.49 4.69601 -2.84194 0
M  V30 18553 H 1768.75 4.26642 -1.15885 0
M  V30 18554 N 1767.81 1.21396 1.00503 0
M  V30 18555 C 1768.72 0.989221 2.12724 0
M  V30 18556 C 1769.73 -0.0586646 1.73901 0
M  V30 18557 O 1770.91 0.131377 2.00971 0
M  V30 18558 C 1767.97 0.556731 3.42201 0
M  V30 18559 C 1767.04 1.67683 3.95197 0
M  V30 18560 C 1766.27 1.26488 5.18494 0
M  V30 18561 O 1766.49 0.13847 5.70232 0
M  V30 18562 O 1765.43 2.07678 5.64937 0
M  V30 18563 H 1769.25 1.92913 2.3456 0
M  V30 18564 H 1766.84 0.998837 1.11102 0
M  V30 18565 H 1768.72 0.325327 4.20142 0
M  V30 18566 H 1767.39 -0.354457 3.21753 0
M  V30 18567 H 1766.3 1.96263 3.18483 0
M  V30 18568 H 1767.63 2.56544 4.20055 0
M  V30 18569 N 1769.29 -1.19996 1.0217 0
M  V30 18570 C 1770.56 -1.85214 0.628894 0
M  V30 18571 C 1770.94 -1.91292 -0.892784 0
M  V30 18572 O 1770.29 -1.42455 -1.78658 0
M  V30 18573 C 1770.5 -3.24576 1.28262 0
M  V30 18574 C 1771.85 -4.0081 1.4013 0
M  V30 18575 O 1772.87 -3.33948 1.23923 0
M  V30 18576 O 1771.73 -5.20561 1.66368 0
M  V30 18577 H 1768.83 -0.797842 0.217664 0
M  V30 18578 H 1771.37 -1.27544 1.1194 0
M  V30 18579 H 1770.14 -3.14947 2.32216 0
M  V30 18580 H 1769.77 -3.89884 0.77952 0
M  V30 18581 N 1770.76 -0.798611 -1.35867 0
M  V30 18582 C 1771.73 -0.209177 -2.28243 0
M  V30 18583 C 1772.73 0.598842 -1.49233 0
M  V30 18584 O 1773.92 0.418491 -1.69098 0
M  V30 18585 C 1771.05 0.709336 -3.33438 0
M  V30 18586 H 1772.24 -1.02382 -2.81883 0
M  V30 18587 H 1769.79 -0.568687 -1.45587 0
M  V30 18588 H 1770.53 1.54797 -2.84971 0
M  V30 18589 H 1770.31 0.131756 -3.91879 0
M  V30 18590 H 1771.8 1.11632 -4.02403 0
M  V30 18591 N 1772.24 1.47639 -0.551417 0
M  V30 18592 C 1773.49 2.02084 -0.0251553 0
M  V30 18593 C 1773.81 1.42872 1.32713 0
M  V30 18594 O 1773.08 0.601794 1.86428 0
M  V30 18595 H 1771.66 0.746973 -0.00631005 0
M  V30 18596 H 1774.32 1.81109 -0.720113 0
M  V30 18597 H 1773.42 3.12028 0.0672608 0
M  V30 18598 N 1773.72 0.287581 1.54954 0
M  V30 18599 C 1774.97 -0.326093 2.00161 0
M  V30 18600 C 1775.3 -1.54564 1.17574 0
M  V30 18601 O 1774.57 -1.92901 0.248859 0
M  V30 18602 C 1774.86 -0.695974 3.5331 0
M  V30 18603 C 1774.71 0.531783 4.46645 0
M  V30 18604 C 1776.03 -1.52767 4.12735 0
M  V30 18605 H 1773.15 -0.117051 0.727646 0
M  V30 18606 H 1775.79 0.39701 1.85806 0
M  V30 18607 H 1773.94 -1.31205 3.65674 0
M  V30 18608 H 1775.61 1.17032 4.46208 0
M  V30 18609 H 1773.86 1.16754 4.17793 0
M  V30 18610 H 1774.53 0.229034 5.51525 0
M  V30 18611 H 1777 -1.00724 4.03725 0
M  V30 18612 H 1775.88 -1.75527 5.20078 0
M  V30 18613 H 1776.14 -2.51267 3.63755 0
M  V30 18614 N 1775.2 -1.57593 0.0150662 0
M  V30 18615 C 1776.15 -2.0585 -0.980291 0
M  V30 18616 C 1777.13 -0.956179 -1.29406 0
M  V30 18617 O 1778.32 -1.21985 -1.28253 0
M  V30 18618 C 1775.45 -2.57769 -2.26738 0
M  V30 18619 C 1774.54 -3.74906 -1.98259 0
M  V30 18620 N 1774.93 -4.8604 -1.39995 0
M  V30 18621 C 1773.23 -3.83124 -2.28325 0
M  V30 18622 C 1773.93 -5.67368 -1.28329 0
M  V30 18623 N 1772.91 -5.13837 -1.77404 0
M  V30 18624 H 1776.71 -2.89181 -0.524549 0
M  V30 18625 H 1774.22 -1.61281 -0.190285 0
M  V30 18626 H 1776.22 -2.90624 -2.98903 0
M  V30 18627 H 1774.88 -1.75862 -2.72952 0
M  V30 18628 H 1775.89 -5.06583 -1.07678 0
M  V30 18629 H 1772.57 -3.12099 -2.77309 0
M  V30 18630 H 1773.96 -6.66704 -0.833956 0
M  V30 18631 N 1776.68 0.257904 -1.55475 0
M  V30 18632 C 1777.9 1.00955 -1.81171 0
M  V30 18633 C 1778.33 1.78586 -0.590651 0
M  V30 18634 O 1777.68 1.75365 0.460105 0
M  V30 18635 C 1777.73 1.93188 -3.04485 0
M  V30 18636 O 1776.84 3.02194 -2.80628 0
M  V30 18637 H 1776.18 0.28785 -0.598363 0
M  V30 18638 H 1778.71 0.28223 -2.02644 0
M  V30 18639 H 1778.72 2.3486 -3.33624 0
M  V30 18640 H 1777.39 1.361 -3.93001 0
M  V30 18641 H 1775.97 2.64729 -2.62627 0
M  V30 18642 N 1778.15 1.48666 0.52309 0
M  V30 18643 C 1779.4 1.56724 1.27601 0
M  V30 18644 C 1779.72 0.245958 1.93443 0
M  V30 18645 O 1778.99 -0.733053 1.81668 0
M  V30 18646 H 1777.57 0.57739 0.473952 0
M  V30 18647 H 1780.24 1.85169 0.608144 0
M  V30 18648 H 1779.33 2.35188 2.05166 0
M  V30 18649 N 1779.63 -0.772489 1.37369 0
M  V30 18650 C 1780.91 -1.52029 1.23072 0
M  V30 18651 C 1781.29 -2.10365 -0.176011 0
M  V30 18652 O 1780.64 -1.95459 -1.18356 0
M  V30 18653 C 1780.85 -2.60176 2.32614 0
M  V30 18654 C 1782.2 -3.27599 2.70118 0
M  V30 18655 O 1783.22 -2.70471 2.31785 0
M  V30 18656 O 1782.08 -4.30883 3.36158 0
M  V30 18657 H 1779.17 -0.673306 0.480196 0
M  V30 18658 H 1781.72 -0.809518 1.49147 0
M  V30 18659 H 1780.49 -2.15185 3.2682 0
M  V30 18660 H 1780.11 -3.38855 2.07998 0
M  V30 18661 N 1781.11 -1.21927 -0.998575 0
M  V30 18662 C 1782.07 -0.985744 -2.0692 0
M  V30 18663 C 1783.07 0.0456907 -1.60735 0
M  V30 18664 O 1784.26 -0.192241 -1.73136 0
M  V30 18665 C 1781.4 -0.48779 -3.37392 0
M  V30 18666 H 1782.59 -1.93563 -2.2907 0
M  V30 18667 H 1780.14 -1.03716 -1.1693 0
M  V30 18668 H 1780.88 0.466723 -3.20924 0
M  V30 18669 H 1780.66 -1.23186 -3.72247 0
M  V30 18670 H 1782.15 -0.344469 -4.16177 0
M  V30 18671 N 1782.59 1.19452 -1.02805 0
M  V30 18672 C 1783.82 1.93075 -0.743624 0
M  V30 18673 C 1784.23 1.75446 0.697425 0
M  V30 18674 O 1783.59 1.07583 1.47418 0
M  V30 18675 C 1783.64 3.44855 -1.08431 0
M  V30 18676 O 1783.36 3.61916 -2.46877 0
M  V30 18677 C 1784.86 4.35601 -0.822571 0
M  V30 18678 H 1782.08 0.613327 -0.272159 0
M  V30 18679 H 1784.63 1.51617 -1.37232 0
M  V30 18680 H 1782.78 3.84149 -0.500812 0
M  V30 18681 H 1783.19 4.55785 -2.59538 0
M  V30 18682 H 1784.67 5.40706 -1.11092 0
M  V30 18683 H 1785.15 4.38527 0.243026 0
M  V30 18684 H 1785.75 4.01987 -1.38876 0
M  V30 18685 N 1784.07 0.805805 1.35442 0
M  V30 18686 C 1785 0.230077 2.32364 0
M  V30 18687 C 1785.98 -0.644034 1.57436 0
M  V30 18688 O 1787.16 -0.574467 1.85509 0
M  V30 18689 C 1784.29 -0.622814 3.4167 0
M  V30 18690 C 1783.25 0.152739 4.27727 0
M  V30 18691 C 1782.57 -0.821803 5.28347 0
M  V30 18692 C 1783.87 1.35128 5.04517 0
M  V30 18693 H 1785.57 1.03983 2.80763 0
M  V30 18694 H 1783.11 0.501467 1.34986 0
M  V30 18695 H 1785.07 -1.03564 4.08476 0
M  V30 18696 H 1783.79 -1.46544 2.91877 0
M  V30 18697 H 1782.45 0.546732 3.625 0
M  V30 18698 H 1782.1 -1.65991 4.74822 0
M  V30 18699 H 1781.8 -0.307209 5.86796 0
M  V30 18700 H 1783.32 -1.23285 5.98024 0
M  V30 18701 H 1784.73 1.01337 5.64273 0
M  V30 18702 H 1783.13 1.80031 5.72459 0
M  V30 18703 H 1784.2 2.13833 4.35205 0
M  V30 18704 N 1785.54 -1.47344 0.559239 0
M  V30 18705 C 1786.48 -2.26985 -0.235197 0
M  V30 18706 C 1787.46 -1.34177 -0.918443 0
M  V30 18707 O 1788.64 -1.63561 -0.937027 0
M  V30 18708 C 1785.77 -3.11267 -1.33532 0
M  V30 18709 C 1784.81 -4.19667 -0.760412 0
M  V30 18710 S 1785.65 -5.34044 0.394576 0
M  V30 18711 C 1786.8 -6.21891 -0.707314 0
M  V30 18712 H 1787.03 -2.94017 0.440606 0
M  V30 18713 H 1784.57 -1.50482 0.345606 0
M  V30 18714 H 1786.53 -3.60395 -1.96534 0
M  V30 18715 H 1785.19 -2.43593 -1.98296 0
M  V30 18716 H 1784.38 -4.78375 -1.58661 0
M  V30 18717 H 1783.98 -3.73429 -0.206528 0
M  V30 18718 H 1786.27 -6.58362 -1.59891 0
M  V30 18719 H 1787.22 -7.07925 -0.157535 0
M  V30 18720 H 1787.62 -5.55556 -1.0009 0
M  V30 18721 N 1787.02 -0.295795 -1.54799 0
M  V30 18722 C 1787.95 0.575863 -2.26288 0
M  V30 18723 C 1788.93 1.14217 -1.26049 0
M  V30 18724 O 1790.12 1.17248 -1.54812 0
M  V30 18725 C 1787.25 1.7503 -2.9997 0
M  V30 18726 C 1786.2 1.31459 -4.07311 0
M  V30 18727 C 1785.53 2.57377 -4.6868 0
M  V30 18728 C 1786.83 0.449629 -5.20361 0
M  V30 18729 H 1788.52 -0.0203797 -2.99393 0
M  V30 18730 H 1786.07 -0.0112418 -1.43996 0
M  V30 18731 H 1788.02 2.36615 -3.487 0
M  V30 18732 H 1786.75 2.3727 -2.24434 0
M  V30 18733 H 1785.4 0.721829 -3.59423 0
M  V30 18734 H 1785.05 3.1792 -3.89789 0
M  V30 18735 H 1784.75 2.28927 -5.41171 0
M  V30 18736 H 1786.28 3.19774 -5.2017 0
M  V30 18737 H 1787.69 0.971014 -5.65017 0
M  V30 18738 H 1786.09 0.259121 -5.9954 0
M  V30 18739 H 1787.16 -0.526564 -4.82032 0
M  V30 18740 N 1788.5 1.57583 -0.0234236 0
M  V30 18741 C 1789.91 1.79422 0.516201 0
M  V30 18742 C 1790.26 0.933151 1.72588 0
M  V30 18743 O 1789.39 0.141985 2.15934 0
M  V30 18744 C 1789.98 3.25405 0.943248 0
M  V30 18745 C 1788.54 3.48259 1.42802 0
M  V30 18746 C 1787.69 2.74543 0.390074 0
M  V30 18747 H 1790.64 1.56727 -0.24949 0
M  V30 18748 H 1790.66 3.34803 1.80795 0
M  V30 18749 H 1790.17 3.88049 0.0626242 0
M  V30 18750 H 1788.27 2.9086 2.32877 0
M  V30 18751 H 1788.39 4.56968 1.43933 0
M  V30 18752 H 1786.75 2.39852 0.856919 0
M  V30 18753 H 1787.53 3.399 -0.481986 0
M  V30 18754 N 1789.98 -0.249655 1.5561 0
M  V30 18755 C 1791.21 -0.995707 1.81365 0
M  V30 18756 C 1791.62 -1.79054 0.598767 0
M  V30 18757 O 1790.98 -1.773 -0.432538 0
M  V30 18758 C 1791.03 -1.93577 3.05303 0
M  V30 18759 O 1790.75 -1.17311 4.22102 0
M  V30 18760 C 1792.25 -2.79804 3.43838 0
M  V30 18761 H 1789.47 -0.293118 0.603591 0
M  V30 18762 H 1792.02 -0.273374 2.02665 0
M  V30 18763 H 1790.17 -2.61242 2.86062 0
M  V30 18764 H 1790.59 -1.80875 4.92326 0
M  V30 18765 H 1792.06 -3.4152 4.33668 0
M  V30 18766 H 1792.54 -3.50776 2.64298 0
M  V30 18767 H 1793.14 -2.17596 3.6542 0
M  V30 18768 N 1791.46 -1.48941 -0.515198 0
M  V30 18769 C 1792.39 -1.60665 -1.63461 0
M  V30 18770 C 1793.4 -0.490076 -1.55248 0
M  V30 18771 O 1794.59 -0.761549 -1.61439 0
M  V30 18772 C 1791.69 -1.53414 -3.02187 0
M  V30 18773 C 1790.86 -2.80364 -3.3573 0
M  V30 18774 C 1789.92 -2.66362 -4.53804 0
M  V30 18775 O 1788.95 -3.40276 -4.5629 0
M  V30 18776 N 1790.15 -1.76961 -5.5287 0
M  V30 18777 H 1792.92 -2.57206 -1.53836 0
M  V30 18778 H 1790.48 -1.45851 -0.702786 0
M  V30 18779 H 1792.47 -1.41721 -3.79074 0
M  V30 18780 H 1791.04 -0.647891 -3.05812 0
M  V30 18781 H 1790.26 -3.06513 -2.47878 0
M  V30 18782 H 1791.55 -3.64555 -3.54932 0
M  V30 18783 H 1790.95 -1.16139 -5.5365 0
M  V30 18784 H 1789.5 -1.71198 -6.28915 0
M  V30 18785 N 1792.94 0.765193 -1.37777 0
M  V30 18786 C 1794.16 1.55436 -1.36556 0
M  V30 18787 C 1794.58 1.8874 0.0475187 0
M  V30 18788 O 1793.94 1.51933 1.01107 0
M  V30 18789 C 1793.99 2.86063 -2.21021 0
M  V30 18790 O 1793.71 2.54183 -3.56823 0
M  V30 18791 C 1795.21 3.80261 -2.27851 0
M  V30 18792 H 1792.43 0.481331 -0.467506 0
M  V30 18793 H 1794.97 0.947906 -1.81204 0
M  V30 18794 H 1793.13 3.43114 -1.79864 0
M  V30 18795 H 1793.54 3.37879 -4.01171 0
M  V30 18796 H 1795.02 4.68904 -2.91261 0
M  V30 18797 H 1795.49 4.19865 -1.28881 0
M  V30 18798 H 1796.1 3.29137 -2.69349 0
M  V30 18799 N 1794.41 1.22455 0.992094 0
M  V30 18800 C 1795.66 1.04373 1.72596 0
M  V30 18801 C 1795.98 -0.421349 1.91008 0
M  V30 18802 O 1797.18 -0.72186 2.61728 0
M  V30 18803 C 1795.64 1.81906 3.10545 0
M  V30 18804 C 1795.25 3.32667 3.00061 0
M  V30 18805 C 1796.99 1.72274 3.87972 0
M  V30 18806 C 1794.9 4.02638 4.3317 0
M  V30 18807 H 1793.83 0.386937 0.647144 0
M  V30 18808 H 1796.48 1.46313 1.10746 0
M  V30 18809 H 1794.86 1.32764 3.73081 0
M  V30 18810 H 1796.03 3.89208 2.46685 0
M  V30 18811 H 1794.35 3.42984 2.36117 0
M  V30 18812 H 1796.95 2.21872 4.86494 0
M  V30 18813 H 1797.29 0.68331 4.10654 0
M  V30 18814 H 1797.82 2.18963 3.32115 0
M  V30 18815 H 1794.56 5.06838 4.15687 0
M  V30 18816 H 1794.08 3.50885 4.86456 0
M  V30 18817 H 1795.76 4.08279 5.01914 0
M  V30 18818 N 1795.89 -1.18905 1.03437 0
M  V30 18819 C 1797.12 -1.93219 0.753743 0
M  V30 18820 C 1797.54 -1.75299 -0.682055 0
M  V30 18821 O 1796.9 -1.05892 -1.47161 0
M  V30 18822 C 1796.95 -3.42864 1.117 0
M  V30 18823 O 1796.05 -4.11708 0.238816 0
M  V30 18824 H 1795.39 -0.603015 0.277973 0
M  V30 18825 H 1797.92 -1.50823 1.38252 0
M  V30 18826 H 1797.93 -3.9355 1.07623 0
M  V30 18827 H 1796.61 -3.55228 2.163 0
M  V30 18828 H 1795.18 -3.71359 0.338652 0
M  V30 18829 N 1797.37 -0.812977 -1.35013 0
M  V30 18830 C 1798.3 -0.185443 -2.28449 0
M  V30 18831 C 1799.31 0.618951 -1.50575 0
M  V30 18832 O 1800.5 0.450262 -1.72728 0
M  V30 18833 C 1797.6 0.759419 -3.30282 0
M  V30 18834 C 1796.78 1.09356e-05 -4.374 0
M  V30 18835 C 1795.84 0.864309 -5.19053 0
M  V30 18836 O 1794.86 0.312916 -5.68339 0
M  V30 18837 N 1796.06 2.18551 -5.37788 0
M  V30 18838 H 1798.83 -0.988144 -2.82941 0
M  V30 18839 H 1796.39 -0.669018 -1.47431 0
M  V30 18840 H 1798.38 1.342 -3.81802 0
M  V30 18841 H 1796.95 1.4629 -2.76257 0
M  V30 18842 H 1796.17 -0.763818 -3.86729 0
M  V30 18843 H 1797.46 -0.523125 -5.06104 0
M  V30 18844 H 1796.86 2.65735 -4.99401 0
M  V30 18845 H 1795.41 2.71718 -5.92463 0
M  V30 18846 N 1798.85 1.47045 -0.567045 0
M  V30 18847 C 1800.1 2.02046 -0.0465877 0
M  V30 18848 C 1800.42 1.44271 1.3119 0
M  V30 18849 O 1799.69 0.621533 1.85779 0
M  V30 18850 H 1798.27 0.746864 -0.0142323 0
M  V30 18851 H 1800.93 1.80335 -0.739281 0
M  V30 18852 H 1800.02 3.12081 0.0341623 0
M  V30 18853 N 1800.33 0.304 1.5464 0
M  V30 18854 C 1801.29 -0.557917 2.22306 0
M  V30 18855 C 1802.29 -1.05895 1.21008 0
M  V30 18856 O 1803.48 -0.954497 1.45722 0
M  V30 18857 C 1800.61 -1.77279 2.91178 0
M  V30 18858 H 1801.8 0.0333187 2.99881 0
M  V30 18859 H 1799.36 0.0548659 1.56204 0
M  V30 18860 H 1800.09 -2.40378 2.17689 0
M  V30 18861 H 1799.88 -1.42115 3.65439 0
M  V30 18862 H 1801.37 -2.38507 3.42789 0
M  V30 18863 N 1801.8 -1.57568 0.0317802 0
M  V30 18864 C 1803.05 -1.91087 -0.645639 0
M  V30 18865 C 1803.37 -0.910108 -1.73137 0
M  V30 18866 O 1804.57 -1.13665 -2.46562 0
M  V30 18867 C 1803.03 -3.39317 -1.19966 0
M  V30 18868 C 1802.64 -4.47759 -0.147068 0
M  V30 18869 C 1804.38 -3.81901 -1.85343 0
M  V30 18870 C 1802.29 -5.87088 -0.712872 0
M  V30 18871 H 1801.22 -0.713112 -0.244923 0
M  V30 18872 H 1803.87 -1.83241 0.0975145 0
M  V30 18873 H 1802.25 -3.42105 -1.99451 0
M  V30 18874 H 1803.42 -4.56535 0.625518 0
M  V30 18875 H 1801.74 -4.14395 0.408109 0
M  V30 18876 H 1804.34 -4.83352 -2.28636 0
M  V30 18877 H 1804.68 -3.17104 -2.69724 0
M  V30 18878 H 1805.21 -3.81548 -1.12544 0
M  V30 18879 H 1801.95 -6.55434 0.0928582 0
M  V30 18880 H 1801.47 -5.81913 -1.45388 0
M  V30 18881 H 1803.15 -6.3574 -1.20179 0
M  V30 18882 N 1803.28 0.241399 -1.5574 0
M  V30 18883 C 1804.19 1.32034 -1.93918 0
M  V30 18884 C 1805.21 1.52363 -0.840331 0
M  V30 18885 O 1806.38 1.65879 -1.1422 0
M  V30 18886 C 1803.45 2.6539 -2.2309 0
M  V30 18887 C 1802.51 2.53536 -3.46436 0
M  V30 18888 C 1801.74 3.80532 -3.74208 0
M  V30 18889 O 1801.97 4.82662 -3.03964 0
M  V30 18890 O 1800.9 3.78834 -4.67727 0
M  V30 18891 H 1804.73 1.02647 -2.85827 0
M  V30 18892 H 1802.31 0.442616 -1.42693 0
M  V30 18893 H 1804.19 3.44184 -2.43137 0
M  V30 18894 H 1802.87 2.94499 -1.34358 0
M  V30 18895 H 1801.78 1.73009 -3.3169 0
M  V30 18896 H 1803.11 2.29371 -4.35488 0
M  V30 18897 N 1804.76 1.49212 0.507292 0
M  V30 18898 C 1805.71 1.65417 1.60953 0
M  V30 18899 C 1806.68 0.495737 1.5853 0
M  V30 18900 O 1807.86 0.722002 1.76612 0
M  V30 18901 C 1805 1.72095 2.99128 0
M  V30 18902 C 1804.12 2.99199 3.11615 0
M  V30 18903 C 1803.25 2.96895 4.40485 0
M  V30 18904 C 1802.29 4.18607 4.46581 0
M  V30 18905 N 1801.43 4.14248 5.66871 0
M  V30 18906 H 1806.27 2.59535 1.46444 0
M  V30 18907 H 1803.8 1.28687 0.712609 0
M  V30 18908 H 1805.76 1.73947 3.79207 0
M  V30 18909 H 1804.39 0.814484 3.12356 0
M  V30 18910 H 1803.44 3.06988 2.24639 0
M  V30 18911 H 1804.76 3.89192 3.11979 0
M  V30 18912 H 1803.91 2.97275 5.28878 0
M  V30 18913 H 1802.65 2.0467 4.42675 0
M  V30 18914 H 1801.65 4.18477 3.56591 0
M  V30 18915 H 1802.88 5.12017 4.46112 0
M  V30 18916 H 1800.82 3.24857 5.69916 0
M  V30 18917 H 1800.74 4.97969 5.68826 0
M  V30 18918 H 1802.01 4.18722 6.57489 0
M  V30 18919 N 1806.24 -0.757876 1.38181 0
M  V30 18920 C 1807.48 -1.51912 1.34352 0
M  V30 18921 C 1807.82 -1.94082 -0.0677003 0
M  V30 18922 O 1807.09 -1.65114 -1.02799 0
M  V30 18923 C 1807.38 -2.77466 2.29531 0
M  V30 18924 C 1807.23 -2.41462 3.79495 0
M  V30 18925 C 1808.55 -3.79469 2.22915 0
M  V30 18926 H 1805.67 -0.551091 0.489355 0
M  V30 18927 H 1808.31 -0.868376 1.68995 0
M  V30 18928 H 1806.46 -3.32994 2.00119 0
M  V30 18929 H 1808.13 -1.91742 4.19562 0
M  V30 18930 H 1806.37 -1.73976 3.97385 0
M  V30 18931 H 1807.04 -3.31272 4.41546 0
M  V30 18932 H 1809.52 -3.33471 2.48871 0
M  V30 18933 H 1808.4 -4.6502 2.91629 0
M  V30 18934 H 1808.66 -4.24744 1.22658 0
M  V30 18935 N 1807.72 -1.22979 -0.985586 0
M  V30 18936 C 1808.66 -1.00637 -2.07704 0
M  V30 18937 C 1809.63 0.0744076 -1.65933 0
M  V30 18938 O 1810.82 -0.0766583 -1.90646 0
M  V30 18939 C 1807.96 -0.598088 -3.39878 0
M  V30 18940 C 1807.07 -1.75043 -3.94948 0
M  V30 18941 C 1806.21 -1.28943 -5.15313 0
M  V30 18942 C 1805.25 -2.41285 -5.62537 0
M  V30 18943 N 1804.38 -1.9618 -6.74135 0
M  V30 18944 H 1809.22 -1.94063 -2.26149 0
M  V30 18945 H 1806.76 -0.966841 -1.10863 0
M  V30 18946 H 1808.72 -0.342503 -4.15792 0
M  V30 18947 H 1807.35 0.299167 -3.21411 0
M  V30 18948 H 1806.4 -2.12015 -3.15838 0
M  V30 18949 H 1807.71 -2.5952 -4.25971 0
M  V30 18950 H 1806.87 -0.99166 -5.98541 0
M  V30 18951 H 1805.6 -0.41496 -4.85931 0
M  V30 18952 H 1804.61 -2.71842 -4.77893 0
M  V30 18953 H 1805.83 -3.2926 -5.9394 0
M  V30 18954 H 1803.78 -1.11105 -6.46523 0
M  V30 18955 H 1803.7 -2.74219 -7.04514 0
M  V30 18956 H 1804.97 -1.69492 -7.6085 0
M  V30 18957 N 1809.19 1.18355 -1.04066 0
M  V30 18958 C 1810.47 1.8419 -0.65828 0
M  V30 18959 C 1810.85 1.92688 0.862238 0
M  V30 18960 O 1810.2 1.4528 1.76369 0
M  V30 18961 C 1810.41 3.22495 -1.3341 0
M  V30 18962 C 1811.76 3.9853 -1.46489 0
M  V30 18963 O 1812.78 3.31934 -1.29221 0
M  V30 18964 O 1811.64 5.17848 -1.74629 0
M  V30 18965 H 1808.73 0.794278 -0.230329 0
M  V30 18966 H 1811.28 1.25747 -1.13955 0
M  V30 18967 H 1810.05 3.11213 -2.37197 0
M  V30 18968 H 1809.68 3.88594 -0.841449 0
M  V30 18969 N 1810.67 0.820125 1.3458 0
M  V30 18970 C 1811.64 0.245462 2.27882 0
M  V30 18971 C 1812.64 -0.575025 1.50167 0
M  V30 18972 O 1813.83 -0.391536 1.69743 0
M  V30 18973 C 1810.96 -0.656199 3.34525 0
M  V30 18974 H 1812.15 1.06853 2.80218 0
M  V30 18975 H 1809.7 0.591777 1.44664 0
M  V30 18976 H 1810.44 -1.50244 2.87398 0
M  V30 18977 H 1810.22 -0.0693951 3.92039 0
M  V30 18978 H 1811.71 -1.05216 4.04128 0
M  V30 18979 N 1812.15 -1.46743 0.574835 0
M  V30 18980 C 1813.38 -2.06805 0.0627992 0
M  V30 18981 C 1813.79 -1.42482 -1.23872 0
M  V30 18982 O 1813.15 -0.527375 -1.74714 0
M  V30 18983 C 1813.2 -3.61307 -0.117983 0
M  V30 18984 O 1812.92 -4.23222 1.13201 0
M  V30 18985 C 1814.42 -4.3828 -0.665277 0
M  V30 18986 H 1811.64 -0.668835 0.0538616 0
M  V30 18987 H 1814.19 -1.88488 0.793265 0
M  V30 18988 H 1812.34 -3.79078 -0.798641 0
M  V30 18989 H 1812.76 -5.15992 0.940853 0
M  V30 18990 H 1814.23 -5.47004 -0.740985 0
M  V30 18991 H 1814.71 -4.05777 -1.68052 0
M  V30 18992 H 1815.31 -4.25295 -0.0197462 0
M  V30 18993 N 1813.63 -0.312197 -1.54477 0
M  V30 18994 C 1815.04 0.0408317 -1.59548 0
M  V30 18995 C 1815.24 1.51461 -1.32898 0
M  V30 18996 O 1814.3 2.26899 -1.10785 0
M  V30 18997 C 1815.61 -0.367179 -2.9845 0
M  V30 18998 C 1817.16 -0.31688 -3.11392 0
M  V30 18999 C 1817.64 -0.699881 -4.52621 0
M  V30 19000 N 1819.13 -0.652846 -4.58576 0
M  V30 19001 C 1819.86 -0.921531 -5.65946 0
M  V30 19002 N 1819.36 -1.25676 -6.81306 0
M  V30 19003 N 1821.15 -0.847847 -5.55669 0
M  V30 19004 H 1813.3 -1.27255 -1.70059 0
M  V30 19005 H 1815.57 -0.516679 -0.794825 0
M  V30 19006 H 1815.27 -1.39356 -3.22913 0
M  V30 19007 H 1815.15 0.273556 -3.76207 0
M  V30 19008 H 1817.53 0.700275 -2.86671 0
M  V30 19009 H 1817.61 -0.992393 -2.35765 0
M  V30 19010 H 1817.26 -1.7149 -4.78073 0
M  V30 19011 H 1817.19 -0.00217708 -5.266 0
M  V30 19012 H 1819.68 -0.405135 -3.75722 0
M  V30 19013 H 1819.99 -1.44746 -7.59123 0
M  V30 19014 H 1818.34 -1.29491 -6.8283 0
M  V30 19015 H 1821.53 -0.585523 -4.64424 0
M  V30 19016 H 1821.7 -1.06061 -6.39261 0
M  V30 19017 N 1815.11 1.57549 -0.040136 0
M  V30 19018 C 1816.05 2.10879 0.938013 0
M  V30 19019 C 1817.02 1.01348 1.31597 0
M  V30 19020 O 1818.21 1.28832 1.40737 0
M  V30 19021 C 1815.35 2.64938 2.21138 0
M  V30 19022 C 1814.46 3.88516 1.88889 0
M  V30 19023 C 1813.6 4.3093 3.10601 0
M  V30 19024 C 1812.64 5.47237 2.74223 0
M  V30 19025 N 1811.77 5.84755 3.88594 0
M  V30 19026 H 1816.61 2.94169 0.476328 0
M  V30 19027 H 1814.15 1.45392 0.223503 0
M  V30 19028 H 1816.11 2.94375 2.95633 0
M  V30 19029 H 1814.74 1.84463 2.64903 0
M  V30 19030 H 1813.79 3.6574 1.04588 0
M  V30 19031 H 1815.1 4.7308 1.58103 0
M  V30 19032 H 1814.26 4.61861 3.93407 0
M  V30 19033 H 1812.99 3.45155 3.44557 0
M  V30 19034 H 1812 5.15988 1.89831 0
M  V30 19035 H 1813.22 6.34719 2.41472 0
M  V30 19036 H 1811.17 5.01935 4.22371 0
M  V30 19037 H 1811.09 6.63984 3.6147 0
M  V30 19038 H 1812.36 6.20297 4.72072 0
M  V30 19039 N 1816.58 -0.233136 1.55866 0
M  V30 19040 C 1817.83 -0.957205 1.7754 0
M  V30 19041 C 1818.15 -1.85956 0.606601 0
M  V30 19042 O 1819.35 -2.62142 0.706687 0
M  V30 19043 C 1817.81 -1.75215 3.14369 0
M  V30 19044 C 1817.42 -0.896509 4.38938 0
M  V30 19045 C 1819.16 -2.46813 3.45374 0
M  V30 19046 C 1817.07 -1.68814 5.66794 0
M  V30 19047 H 1816 -0.361139 0.661887 0
M  V30 19048 H 1818.65 -0.211424 1.82278 0
M  V30 19049 H 1817.03 -2.54041 3.03775 0
M  V30 19050 H 1818.2 -0.149614 4.60557 0
M  V30 19051 H 1816.52 -0.293211 4.15366 0
M  V30 19052 H 1819.12 -3.0652 4.38121 0
M  V30 19053 H 1819.46 -3.19121 2.67334 0
M  V30 19054 H 1819.99 -1.74987 3.57245 0
M  V30 19055 H 1816.73 -1.00855 6.47695 0
M  V30 19056 H 1816.25 -2.40995 5.49255 0
M  V30 19057 H 1817.93 -2.25178 6.06551 0
M  V30 19058 N 1818.06 -1.49479 -0.499372 0
M  V30 19059 C 1819.03 -1.6575 -1.58302 0
M  V30 19060 C 1820.03 -0.529236 -1.51841 0
M  V30 19061 O 1821.22 -0.795721 -1.54964 0
M  V30 19062 C 1818.35 -1.65639 -2.97954 0
M  V30 19063 H 1819.54 -2.62404 -1.45203 0
M  V30 19064 H 1817.09 -1.38535 -0.723725 0
M  V30 19065 H 1817.83 -0.705752 -3.16527 0
M  V30 19066 H 1817.61 -2.47578 -3.04051 0
M  V30 19067 H 1819.1 -1.80279 -3.76682 0
M  V30 19068 N 1819.54 0.750537 -1.38581 0
M  V30 19069 C 1820.49 1.86434 -1.36056 0
M  V30 19070 C 1821.46 1.64601 -0.222625 0
M  V30 19071 O 1822.64 1.86225 -0.41533 0
M  V30 19072 C 1819.78 3.23769 -1.19447 0
M  V30 19073 C 1818.9 3.57412 -2.42653 0
M  V30 19074 C 1818.03 4.84067 -2.18751 0
M  V30 19075 C 1817.07 5.10506 -3.37713 0
M  V30 19076 N 1816.21 6.28358 -3.13227 0
M  V30 19077 H 1821.05 1.87927 -2.31274 0
M  V30 19078 H 1818.58 0.91849 -1.14901 0
M  V30 19079 H 1820.54 4.03024 -1.07832 0
M  V30 19080 H 1819.17 3.21595 -0.278665 0
M  V30 19081 H 1818.22 2.72978 -2.64929 0
M  V30 19082 H 1819.54 3.72876 -3.31307 0
M  V30 19083 H 1818.69 5.71271 -2.0429 0
M  V30 19084 H 1817.43 4.70748 -1.27467 0
M  V30 19085 H 1816.43 4.2177 -3.5269 0
M  V30 19086 H 1817.66 5.25721 -4.29877 0
M  V30 19087 H 1815.61 6.16355 -2.24593 0
M  V30 19088 H 1815.52 6.44337 -3.95432 0
M  V30 19089 H 1816.79 7.18441 -3.02428 0
M  V30 19090 N 1821.02 1.235 0.979051 0
M  V30 19091 C 1821.98 1.01854 2.05325 0
M  V30 19092 C 1822.98 -0.0201133 1.60787 0
M  V30 19093 O 1824.17 0.219761 1.72808 0
M  V30 19094 C 1821.3 0.541404 3.36573 0
M  V30 19095 H 1822.5 1.97183 2.25962 0
M  V30 19096 H 1820.05 1.05563 1.15265 0
M  V30 19097 H 1820.79 -0.415607 3.21626 0
M  V30 19098 H 1820.57 1.29092 3.7024 0
M  V30 19099 H 1822.06 0.410635 4.15576 0
M  V30 19100 N 1822.5 -1.17802 1.04693 0
M  V30 19101 C 1823.74 -1.87938 0.754024 0
M  V30 19102 C 1824.07 -1.80737 -0.718644 0
M  V30 19103 O 1823.33 -1.20657 -1.54079 0
M  V30 19104 C 1823.63 -3.37585 1.17349 0
M  V30 19105 C 1823.29 -3.6499 2.64751 0
M  V30 19106 C 1821.95 -3.72179 3.05019 0
M  V30 19107 C 1824.31 -3.76869 3.60027 0
M  V30 19108 C 1821.63 -3.88731 4.39437 0
M  V30 19109 C 1823.99 -3.94939 4.94172 0
M  V30 19110 C 1822.65 -4.00365 5.34101 0
M  V30 19111 H 1821.92 -0.687714 0.275917 0
M  V30 19112 H 1824.57 -1.39392 1.31309 0
M  V30 19113 H 1822.87 -3.88153 0.533333 0
M  V30 19114 H 1824.57 -3.90206 0.924134 0
M  V30 19115 H 1821.16 -3.60016 2.32565 0
M  V30 19116 H 1825.34 -3.70641 3.30059 0
M  V30 19117 H 1820.6 -3.91179 4.69882 0
M  V30 19118 H 1824.77 -4.03072 5.67896 0
M  V30 19119 H 1822.4 -4.12944 6.38264 0
M  V30 19120 N 1823.98 -0.827251 -1.34143 0
M  V30 19121 C 1824.94 -0.257543 -2.27748 0
M  V30 19122 C 1825.94 0.567053 -1.5047 0
M  V30 19123 O 1827.13 0.382529 -1.69948 0
M  V30 19124 C 1824.26 0.638449 -3.34868 0
M  V30 19125 H 1825.45 -1.08338 -2.79648 0
M  V30 19126 H 1823.01 -0.599441 -1.44348 0
M  V30 19127 H 1823.74 1.48717 -2.8819 0
M  V30 19128 H 1823.53 0.0486033 -3.9207 0
M  V30 19129 H 1825.02 1.03071 -4.0468 0
M  V30 19130 N 1825.45 1.46436 -0.582609 0
M  V30 19131 C 1826.7 2.01592 -0.0658642 0
M  V30 19132 C 1827.02 1.45972 1.30198 0
M  V30 19133 O 1828.22 1.92948 1.91006 0
M  V30 19134 C 1826.68 3.59837 -0.0671547 0
M  V30 19135 C 1826.29 4.24453 -1.43331 0
M  V30 19136 C 1828.03 4.22652 0.395652 0
M  V30 19137 C 1825.94 5.74777 -1.39233 0
M  V30 19138 H 1824.87 0.753712 -0.0208533 0
M  V30 19139 H 1827.52 1.6817 -0.734241 0
M  V30 19140 H 1825.9 3.90336 0.667385 0
M  V30 19141 H 1827.07 4.05564 -2.18757 0
M  V30 19142 H 1825.39 3.73732 -1.83613 0
M  V30 19143 H 1827.99 5.32844 0.445101 0
M  V30 19144 H 1828.33 3.91581 1.41316 0
M  V30 19145 H 1828.86 3.96779 -0.284821 0
M  V30 19146 H 1825.6 6.10508 -2.38664 0
M  V30 19147 H 1825.12 5.9593 -0.680268 0
M  V30 19148 H 1826.8 6.37491 -1.1052 0
M  V30 19149 N 1826.93 0.320385 1.54309 0
M  V30 19150 C 1828.16 -0.28794 2.05391 0
M  V30 19151 C 1828.58 -1.45249 1.19517 0
M  V30 19152 O 1827.94 -1.80154 0.203556 0
M  V30 19153 C 1827.99 -0.703261 3.53676 0
M  V30 19154 O 1827.09 -1.80598 3.70753 0
M  V30 19155 H 1826.43 -0.052589 0.661914 0
M  V30 19156 H 1828.96 0.46787 1.99179 0
M  V30 19157 H 1828.97 -0.986793 3.95887 0
M  V30 19158 H 1827.65 0.148514 4.15635 0
M  V30 19159 H 1826.22 -1.5215 3.40448 0
M  V30 19160 N 1828.41 -1.57525 0.0484906 0
M  V30 19161 C 1829.66 -1.92204 -0.624654 0
M  V30 19162 C 1829.98 -0.927289 -1.71541 0
M  V30 19163 O 1829.25 0.0282687 -1.9588 0
M  V30 19164 H 1827.83 -0.709494 -0.233724 0
M  V30 19165 H 1830.49 -1.94639 0.100861 0
M  V30 19166 H 1829.59 -2.93368 -1.06498 0
M  V30 19167 N 1829.89 0.224867 -1.55988 0
M  V30 19168 C 1831.3 0.792138 -1.69062 0
M  V30 19169 C 1831.65 1.85123 -0.649908 0
M  V30 19170 O 1830.77 2.15477 0.199614 0
M  V30 19171 C 1831.37 1.44361 -3.06505 0
M  V30 19172 C 1829.93 1.95831 -3.21446 0
M  V30 19173 C 1829.08 0.81728 -2.64983 0
M  V30 19174 H 1832.03 0.000270833 -1.587 0
M  V30 19175 H 1832.05 2.31233 -3.02178 0
M  V30 19176 H 1831.56 0.672544 -3.82228 0
M  V30 19177 H 1829.66 2.75749 -2.50586 0
M  V30 19178 H 1829.77 2.14056 -4.28622 0
M  V30 19179 H 1828.14 1.22371 -2.23377 0
M  V30 19180 H 1828.92 0.058944 -3.43249 0
M  V30 19181 N 1831.37 1.49742 0.491438 0
M  V30 19182 C 1832.61 1.59711 1.24494 0
M  V30 19183 C 1832.94 0.288122 1.92354 0
M  V30 19184 O 1832.2 -0.724652 1.81789 0
M  V30 19185 C 1832.49 2.71245 2.32725 0
M  V30 19186 C 1832.16 4.12423 1.82258 0
M  V30 19187 C 1830.82 4.50841 1.68214 0
M  V30 19188 C 1833.17 5.00741 1.44595 0
M  V30 19189 C 1830.5 5.75339 1.149 0
M  V30 19190 C 1832.85 6.25767 0.927292 0
M  V30 19191 C 1831.52 6.63005 0.773323 0
M  V30 19192 H 1830.79 0.584422 0.455556 0
M  V30 19193 H 1833.44 1.83607 0.544137 0
M  V30 19194 H 1831.74 2.41357 3.08632 0
M  V30 19195 H 1833.44 2.76165 2.90747 0
M  V30 19196 H 1830.03 3.82104 1.94151 0
M  V30 19197 H 1834.21 4.71709 1.54288 0
M  V30 19198 H 1829.47 6.02883 1.01699 0
M  V30 19199 H 1833.64 6.93574 0.626707 0
M  V30 19200 H 1831.27 7.59356 0.358031 0
M  V30 19201 N 1832.84 -0.743177 1.38977 0
M  V30 19202 C 1833.79 -1.87846 1.37174 0
M  V30 19203 C 1834.79 -1.67454 0.256059 0
M  V30 19204 O 1835.99 -1.74895 0.425658 0
M  V30 19205 H 1832.37 -0.618206 0.428166 0
M  V30 19206 H 1834.34 -1.86483 2.32952 0
M  V30 19207 C 1833.09 -3.25443 1.22401 0
M  V30 19208 H 1832.41 -3.41727 2.07516 0
M  V30 19209 H 1833.85 -4.05095 1.25195 0
M  V30 19210 C 1832.31 -3.36831 -0.0682569 0
M  V30 19211 O 1832.84 -3.87964 -1.04147 0
M  V30 19212 N 1831.05 -2.90315 -0.128582 0
M  V30 19213 H 1830.59 -2.48893 0.664077 0
M  V30 19214 H 1830.55 -2.98315 -0.992762 0
M  V30 19215 N 1834.32 -1.24018 -0.972487 0
M  V30 19216 C 1835.57 -1.07861 -1.71738 0
M  V30 19217 C 1835.9 0.382399 -1.90398 0
M  V30 19218 O 1835.18 1.2828 -1.462 0
M  V30 19219 C 1835.46 -1.81357 -3.11098 0
M  V30 19220 C 1835.31 -3.35179 -2.99959 0
M  V30 19221 C 1836.63 -1.58242 -4.10667 0
M  V30 19222 H 1833.75 -0.393228 -0.623331 0
M  V30 19223 H 1836.39 -1.52625 -1.13162 0
M  V30 19224 H 1834.54 -1.43307 -3.61103 0
M  V30 19225 H 1836.21 -3.82798 -2.57416 0
M  V30 19226 H 1834.46 -3.63805 -2.3628 0
M  V30 19227 H 1835.13 -3.818 -3.98664 0
M  V30 19228 H 1837.6 -1.91332 -3.69501 0
M  V30 19229 H 1836.48 -2.1213 -5.06253 0
M  V30 19230 H 1836.74 -0.519567 -4.39036 0
M  V30 19231 N 1835.8 1.17245 -1.05316 0
M  V30 19232 C 1836.73 2.20844 -0.613228 0
M  V30 19233 C 1837.75 1.5955 0.323671 0
M  V30 19234 O 1838.93 1.78121 0.116209 0
M  V30 19235 C 1836.03 3.38679 0.122482 0
M  V30 19236 C 1835.21 4.29541 -0.825429 0
M  V30 19237 C 1834.27 5.26038 -0.130752 0
M  V30 19238 O 1833.29 5.64032 -0.765248 0
M  V30 19239 N 1834.49 5.69369 1.13136 0
M  V30 19240 H 1837.26 2.5921 -1.50434 0
M  V30 19241 H 1834.82 1.32156 -0.935221 0
M  V30 19242 H 1836.81 4.00267 0.597368 0
M  V30 19243 H 1835.38 2.989 0.915278 0
M  V30 19244 H 1834.6 3.65366 -1.47991 0
M  V30 19245 H 1835.89 4.87138 -1.46882 0
M  V30 19246 H 1835.29 5.40576 1.66716 0
M  V30 19247 H 1833.85 6.33095 1.55029 0
M  V30 19248 N 1837.28 0.834353 1.33702 0
M  V30 19249 C 1838.53 0.427887 1.97928 0
M  V30 19250 C 1838.85 -1.0118 1.66111 0
M  V30 19251 O 1838.11 -1.72144 0.930848 0
M  V30 19252 C 1838.41 0.590236 3.52493 0
M  V30 19253 C 1838.07 1.99735 4.04249 0
M  V30 19254 C 1836.74 2.38224 4.18094 0
M  V30 19255 C 1839.09 2.91665 4.3195 0
M  V30 19256 C 1836.42 3.67957 4.56973 0
M  V30 19257 C 1838.77 4.20874 4.72279 0
M  V30 19258 C 1837.43 4.59326 4.8433 0
M  V30 19259 H 1836.7 0.156575 0.724269 0
M  V30 19260 H 1839.35 1.06051 1.59454 0
M  V30 19261 H 1837.65 -0.125718 3.91598 0
M  V30 19262 H 1839.35 0.256094 4.00181 0
M  V30 19263 H 1835.94 1.6884 3.93943 0
M  V30 19264 H 1840.12 2.63168 4.20781 0
M  V30 19265 H 1835.38 3.9756 4.64495 0
M  V30 19266 H 1839.55 4.92187 4.92671 0
M  V30 19267 H 1837.18 5.59901 5.14213 0
M  V30 19268 N 1838.76 -1.46125 0.590367 0
M  V30 19269 C 1839.69 -2.33159 -0.126114 0
M  V30 19270 C 1840.67 -1.45806 -0.876057 0
M  V30 19271 O 1841.85 -1.7461 -0.850009 0
M  V30 19272 C 1838.98 -3.28217 -1.13537 0
M  V30 19273 C 1837.94 -4.25072 -0.499773 0
M  V30 19274 C 1837.26 -5.09694 -1.61605 0
M  V30 19275 C 1838.56 -5.19202 0.567992 0
M  V30 19276 H 1840.26 -2.93315 0.600577 0
M  V30 19277 H 1837.8 -1.41044 0.290265 0
M  V30 19278 H 1839.76 -3.87965 -1.64503 0
M  V30 19279 H 1838.48 -2.66185 -1.89244 0
M  V30 19280 H 1837.14 -3.66598 -0.0111313 0
M  V30 19281 H 1836.79 -4.44041 -2.36297 0
M  V30 19282 H 1836.49 -5.75292 -1.19637 0
M  V30 19283 H 1838.01 -5.72307 -2.12832 0
M  V30 19284 H 1839.42 -5.73121 0.143102 0
M  V30 19285 H 1837.82 -5.93184 0.908428 0
M  V30 19286 H 1838.89 -4.62671 1.45133 0
M  V30 19287 N 1840.23 -0.328564 -1.54137 0
M  V30 19288 C 1841.48 0.272909 -2.00955 0
M  V30 19289 C 1841.81 1.51393 -1.2163 0
M  V30 19290 O 1841.09 1.92174 -0.299916 0
M  V30 19291 C 1841.37 0.602055 -3.55031 0
M  V30 19292 C 1841.22 -0.650016 -4.45078 0
M  V30 19293 C 1842.54 1.4177 -4.1664 0
M  V30 19294 H 1839.66 0.0977177 -0.730493 0
M  V30 19295 H 1842.3 -0.446133 -1.84688 0
M  V30 19296 H 1840.45 1.21464 -3.69024 0
M  V30 19297 H 1842.13 -1.28821 -4.42948 0
M  V30 19298 H 1840.37 -1.2779 -4.1455 0
M  V30 19299 H 1841.04 -0.375181 -5.50724 0
M  V30 19300 H 1843.52 0.899849 -4.06254 0
M  V30 19301 H 1842.39 1.61676 -5.24549 0
M  V30 19302 H 1842.65 2.41534 -3.70289 0
M  V30 19303 N 1841.71 1.57497 -0.0568439 0
M  V30 19304 C 1842.66 2.11862 0.915593 0
M  V30 19305 C 1843.63 1.02738 1.30515 0
M  V30 19306 O 1844.81 1.30318 1.39362 0
M  V30 19307 C 1841.95 2.67269 2.18315 0
M  V30 19308 C 1841.07 3.90498 1.84757 0
M  V30 19309 C 1840.2 4.342 3.06013 0
M  V30 19310 C 1839.24 5.50115 2.68403 0
M  V30 19311 N 1838.38 5.88844 3.8237 0
M  V30 19312 H 1843.22 2.94657 0.445101 0
M  V30 19313 H 1840.76 1.45621 0.20807 0
M  V30 19314 H 1842.71 2.97494 2.92494 0
M  V30 19315 H 1841.34 1.87262 2.62931 0
M  V30 19316 H 1840.4 3.66828 1.00703 0
M  V30 19317 H 1841.71 4.7473 1.53077 0
M  V30 19318 H 1840.86 4.66008 3.88486 0
M  V30 19319 H 1839.6 3.4879 3.40876 0
M  V30 19320 H 1838.61 5.17973 1.84348 0
M  V30 19321 H 1839.83 6.37244 2.34726 0
M  V30 19322 H 1837.78 5.06387 4.17024 0
M  V30 19323 H 1837.69 6.67781 3.54407 0
M  V30 19324 H 1838.96 6.25269 4.65466 0
M  V30 19325 N 1843.19 -0.216591 1.56105 0
M  V30 19326 C 1844.44 -0.938392 1.78993 0
M  V30 19327 C 1844.76 -1.84671 0.626215 0
M  V30 19328 O 1844.03 -1.92626 -0.356636 0
M  V30 19329 H 1842.61 -0.349491 0.660201 0
M  V30 19330 H 1845.27 -0.227256 1.93571 0
M  V30 19331 H 1844.37 -1.54227 2.71331 0
M  V30 19332 N 1844.67 -1.5 -0.48349 0
M  V30 19333 C 1845.62 -1.68467 -1.6038 0
M  V30 19334 C 1846.61 -0.550508 -1.60205 0
M  V30 19335 O 1847.82 -0.730656 -1.64504 0
M  V30 19336 H 1844.19 -0.531525 -0.531964 0
M  V30 19337 H 1846.16 -2.62468 -1.41962 0
M  V30 19338 C 1844.91 -1.78462 -2.98407 0
M  V30 19339 H 1844.23 -2.65117 -2.99254 0
M  V30 19340 H 1845.67 -1.95413 -3.76284 0
M  V30 19341 C 1844.13 -0.533368 -3.32651 0
M  V30 19342 O 1844.66 0.333087 -4.00317 0
M  V30 19343 N 1842.87 -0.391077 -2.87957 0
M  V30 19344 H 1842.42 -1.09719 -2.33066 0
M  V30 19345 H 1842.37 0.444995 -3.11235 0
M  V30 19346 N 1846.15 0.735796 -1.39369 0
M  V30 19347 C 1847.42 1.48712 -1.27059 0
M  V30 19348 C 1847.8 2.10758 0.120174 0
M  V30 19349 O 1847.15 1.98528 1.13132 0
M  V30 19350 C 1847.36 2.53918 -2.3943 0
M  V30 19351 C 1848.71 3.20322 -2.78709 0
M  V30 19352 O 1849.73 2.6423 -2.38874 0
M  V30 19353 O 1848.59 4.21819 -3.47463 0
M  V30 19354 H 1845.69 0.660337 -0.497879 0
M  V30 19355 H 1848.23 0.76969 -1.51241 0
M  V30 19356 H 1847 2.06444 -3.3241 0
M  V30 19357 H 1846.63 3.33221 -2.16909 0
M  V30 19358 N 1847.63 1.24532 0.965897 0
M  V30 19359 C 1848.87 1.0877 1.71163 0
M  V30 19360 C 1849.2 -0.372297 1.90598 0
M  V30 19361 O 1848.48 -1.27503 1.46878 0
M  V30 19362 C 1848.76 1.83004 3.10131 0
M  V30 19363 C 1848.62 3.36765 2.98177 0
M  V30 19364 C 1849.93 1.60417 4.09822 0
M  V30 19365 H 1847.05 0.396528 0.621236 0
M  V30 19366 H 1849.7 1.53223 1.12351 0
M  V30 19367 H 1847.85 1.4522 3.60338 0
M  V30 19368 H 1849.52 3.84158 2.55382 0
M  V30 19369 H 1847.76 3.65053 2.34347 0
M  V30 19370 H 1848.43 3.83909 3.96633 0
M  V30 19371 H 1850.91 1.93289 3.68482 0
M  V30 19372 H 1849.78 2.14812 5.05121 0
M  V30 19373 H 1850.04 0.542843 4.38755 0
M  V30 19374 N 1849.1 -1.16685 1.05936 0
M  V30 19375 C 1850.03 -2.23129 0.688153 0
M  V30 19376 C 1851.01 -1.67108 -0.31765 0
M  V30 19377 O 1852.2 -1.93233 -0.193578 0
M  V30 19378 C 1849.33 -3.47229 0.069991 0
M  V30 19379 C 1848.28 -4.16121 1.00137 0
M  V30 19380 C 1847.61 -5.34131 0.246699 0
M  V30 19381 C 1848.91 -4.67508 2.32882 0
M  V30 19382 H 1850.6 -2.54436 1.57806 0
M  V30 19383 H 1848.15 -1.22298 0.76021 0
M  V30 19384 H 1850.1 -4.20918 -0.201545 0
M  V30 19385 H 1848.83 -3.15212 -0.854909 0
M  V30 19386 H 1847.49 -3.44355 1.25759 0
M  V30 19387 H 1847.13 -4.98366 -0.681204 0
M  V30 19388 H 1846.83 -5.81163 0.867373 0
M  V30 19389 H 1848.36 -6.10598 -0.0173762 0
M  V30 19390 H 1849.77 -5.32795 2.11666 0
M  V30 19391 H 1848.17 -5.25147 2.90414 0
M  V30 19392 H 1849.24 -3.83912 2.96209 0
M  V30 19393 N 1850.58 -0.841432 -1.33258 0
M  V30 19394 C 1851.83 -0.439027 -1.97991 0
M  V30 19395 C 1852.16 0.999767 -1.66488 0
M  V30 19396 O 1851.44 1.69938 -0.94612 0
M  V30 19397 C 1851.72 -0.663137 -3.53941 0
M  V30 19398 C 1851.57 -2.14939 -3.95122 0
M  V30 19399 C 1852.89 -0.11094 -4.3996 0
M  V30 19400 H 1850.01 -0.160987 -0.719203 0
M  V30 19401 H 1852.65 -1.05742 -1.57856 0
M  V30 19402 H 1850.8 -0.136765 -3.88259 0
M  V30 19403 H 1852.47 -2.74082 -3.71048 0
M  V30 19404 H 1850.72 -2.63293 -3.4476 0
M  V30 19405 H 1851.39 -2.25694 -5.03752 0
M  V30 19406 H 1853.86 -0.560898 -4.12302 0
M  V30 19407 H 1852.74 -0.297416 -5.48094 0
M  V30 19408 H 1853 0.985446 -4.30977 0
M  V30 19409 N 1852.06 1.4581 -0.598108 0
M  V30 19410 C 1853.31 2.01511 -0.0872421 0
M  V30 19411 C 1853.62 1.47345 1.28642 0
M  V30 19412 O 1854.83 1.94963 1.88949 0
M  V30 19413 C 1853.28 3.59746 -0.105317 0
M  V30 19414 C 1852.89 4.22909 -1.47824 0
M  V30 19415 C 1854.64 4.23048 0.350802 0
M  V30 19416 C 1852.54 5.73268 -1.45321 0
M  V30 19417 H 1851.47 0.753448 -0.0288462 0
M  V30 19418 H 1854.12 1.67382 -0.752037 0
M  V30 19419 H 1852.51 3.91022 0.625947 0
M  V30 19420 H 1853.68 4.03221 -2.23046 0
M  V30 19421 H 1851.99 3.71763 -1.87566 0
M  V30 19422 H 1854.59 5.33286 0.388561 0
M  V30 19423 H 1854.93 3.93058 1.37155 0
M  V30 19424 H 1855.47 3.96455 -0.326889 0
M  V30 19425 H 1852.21 6.07942 -2.45126 0
M  V30 19426 H 1851.73 5.95175 -0.743436 0
M  V30 19427 H 1853.41 6.36283 -1.17275 0
M  V30 19428 N 1853.54 0.336733 1.53961 0
M  V30 19429 C 1854.45 -0.531812 2.28493 0
M  V30 19430 C 1855.46 -1.11784 1.33343 0
M  V30 19431 O 1856.64 -1.13499 1.66373 0
M  V30 19432 C 1853.7 -1.67031 3.03812 0
M  V30 19433 C 1852.77 -1.11475 4.14574 0
M  V30 19434 C 1852 -2.19898 4.86292 0
M  V30 19435 O 1852.22 -3.40492 4.57625 0
M  V30 19436 O 1851.16 -1.84576 5.72901 0
M  V30 19437 H 1854.98 0.0738624 3.0361 0
M  V30 19438 H 1852.57 0.101996 1.49051 0
M  V30 19439 H 1854.45 -2.33286 3.50936 0
M  V30 19440 H 1853.12 -2.26192 2.31558 0
M  V30 19441 H 1852.03 -0.416915 3.7177 0
M  V30 19442 H 1853.36 -0.568092 4.88911 0
M  V30 19443 N 1855.02 -1.57465 0.0651956 0
M  V30 19444 C 1856.26 -1.95112 -0.609158 0
M  V30 19445 C 1856.62 -0.94429 -1.67174 0
M  V30 19446 O 1857.82 -1.20818 -2.40117 0
M  V30 19447 C 1856.09 -3.37459 -1.17711 0
M  V30 19448 S 1857.65 -3.97076 -1.86752 0
M  V30 19449 H 1854.47 -0.682395 -0.199644 0
M  V30 19450 H 1857.07 -1.95016 0.137478 0
M  V30 19451 H 1855.77 -4.08525 -0.391829 0
M  V30 19452 H 1855.31 -3.41083 -1.96026 0
M  V30 19453 H 1857.32 -3.83443 -3.14938 0
M  V30 19454 N 1856.49 0.20831 -1.56217 0
M  V30 19455 C 1857.44 1.27775 -1.94362 0
M  V30 19456 C 1858.44 1.47824 -0.827316 0
M  V30 19457 O 1859.64 1.48841 -1.01224 0
M  V30 19458 H 1856.02 0.428676 -0.617852 0
M  V30 19459 H 1857.99 0.928929 -2.83573 0
M  V30 19460 C 1856.74 2.61808 -2.28806 0
M  V30 19461 H 1856.06 2.47192 -3.14223 0
M  V30 19462 H 1857.5 3.35416 -2.59369 0
M  V30 19463 C 1855.96 3.17812 -1.1179 0
M  V30 19464 O 1856.49 3.99841 -0.385968 0
M  V30 19465 N 1854.69 2.7637 -0.898205 0
M  V30 19466 H 1854.24 2.0977 -1.49514 0
M  V30 19467 H 1854.2 3.14182 -0.117031 0
M  V30 19468 N 1857.97 1.50255 0.475528 0
M  V30 19469 C 1858.9 1.71721 1.58222 0
M  V30 19470 C 1859.88 0.56612 1.60403 0
M  V30 19471 O 1861.07 0.804774 1.7674 0
M  V30 19472 C 1858.2 1.80726 2.96573 0
M  V30 19473 C 1857.15 2.95877 3.09258 0
M  V30 19474 C 1856.48 2.9002 4.49213 0
M  V30 19475 C 1857.78 4.36452 2.86891 0
M  V30 19476 H 1859.47 2.6438 1.40511 0
M  V30 19477 H 1857.02 1.27224 0.674533 0
M  V30 19478 H 1858.97 1.94328 3.73918 0
M  V30 19479 H 1857.69 0.846846 3.1543 0
M  V30 19480 H 1856.35 2.81918 2.34345 0
M  V30 19481 H 1856 1.91834 4.64982 0
M  V30 19482 H 1855.7 3.67322 4.58637 0
M  V30 19483 H 1857.23 3.05665 5.28584 0
M  V30 19484 H 1858.64 4.5096 3.53989 0
M  V30 19485 H 1857.04 5.15171 3.07765 0
M  V30 19486 H 1858.11 4.49129 1.82786 0
M  V30 19487 N 1859.45 -0.728395 1.39758 0
M  V30 19488 C 1860.87 -1.03481 1.21506 0
M  V30 19489 C 1861.07 -2.01336 0.0812728 0
M  V30 19490 O 1860.12 -2.46099 -0.564956 0
M  V30 19491 C 1861.43 -1.59078 2.55176 0
M  V30 19492 C 1862.98 -1.71126 2.62078 0
M  V30 19493 C 1863.46 -2.30131 3.95985 0
M  V30 19494 N 1864.95 -2.37532 3.97659 0
M  V30 19495 C 1865.68 -2.8414 4.98048 0
M  V30 19496 N 1865.18 -3.30595 6.08834 0
M  V30 19497 N 1866.97 -2.83409 4.85423 0
M  V30 19498 H 1859.12 -0.0795283 2.12251 0
M  V30 19499 H 1861.39 -0.0978972 0.942932 0
M  V30 19500 H 1861.09 -0.946401 3.38727 0
M  V30 19501 H 1860.97 -2.5779 2.75362 0
M  V30 19502 H 1863.35 -2.34684 1.78906 0
M  V30 19503 H 1863.43 -0.710485 2.45735 0
M  V30 19504 H 1863.08 -1.67198 4.79591 0
M  V30 19505 H 1863.01 -3.30898 4.09651 0
M  V30 19506 H 1865.5 -2.04706 3.17654 0
M  V30 19507 H 1865.81 -3.64689 6.81338 0
M  V30 19508 H 1864.16 -3.28587 6.12418 0
M  V30 19509 H 1867.35 -2.46444 3.97974 0
M  V30 19510 H 1867.52 -3.19417 5.63806 0
M  V30 19511 N 1860.93 -1.25042 -0.959279 0
M  V30 19512 C 1861.89 -1.05107 -2.03679 0
M  V30 19513 C 1862.89 -0.0054691 -1.60799 0
M  V30 19514 O 1864.08 -0.247225 -1.72437 0
M  V30 19515 C 1861.21 -0.594881 -3.35669 0
M  V30 19516 H 1862.41 -2.00753 -2.22796 0
M  V30 19517 H 1859.96 -1.07384 -1.13571 0
M  V30 19518 H 1860.69 0.364387 -3.22246 0
M  V30 19519 H 1860.48 -1.34966 -3.68139 0
M  V30 19520 H 1861.97 -0.476698 -4.1487 0
M  V30 19521 N 1862.41 1.16121 -1.06553 0
M  V30 19522 C 1863.63 1.91152 -0.804706 0
M  V30 19523 C 1864.06 1.77045 0.635338 0
M  V30 19524 O 1863.41 1.09757 1.44302 0
M  V30 19525 C 1863.46 3.39782 -1.20751 0
M  V30 19526 O 1862.57 4.1093 -0.347889 0
M  V30 19527 H 1861.91 0.595433 -0.293863 0
M  V30 19528 H 1864.44 1.47104 -1.42203 0
M  V30 19529 H 1864.45 3.90558 -1.1802 0
M  V30 19530 H 1863.12 3.49369 -2.25642 0
M  V30 19531 H 1861.7 3.70331 -0.436993 0
M  V30 19532 N 1863.88 0.848487 1.3281 0
M  V30 19533 C 1865.3 0.537529 1.50276 0
M  V30 19534 C 1865.5 -0.93314 1.78591 0
M  V30 19535 O 1864.56 -1.71649 1.85184 0
M  V30 19536 C 1865.87 1.41919 2.65103 0
M  V30 19537 C 1867.42 1.41897 2.78988 0
M  V30 19538 C 1867.89 2.2857 3.96888 0
M  V30 19539 N 1869.38 2.26331 4.04139 0
M  V30 19540 C 1870.12 2.90127 4.94585 0
M  V30 19541 N 1869.61 3.63011 5.9008 0
M  V30 19542 N 1871.41 2.79547 4.87658 0
M  V30 19543 H 1863.56 1.80038 1.12695 0
M  V30 19544 H 1865.82 0.768636 0.554889 0
M  V30 19545 H 1865.53 2.4647 2.50889 0
M  V30 19546 H 1865.4 1.10213 3.60739 0
M  V30 19547 H 1867.79 0.381128 2.92628 0
M  V30 19548 H 1867.87 1.77614 1.84084 0
M  V30 19549 H 1867.51 3.32418 3.84006 0
M  V30 19550 H 1867.44 1.90188 4.91056 0
M  V30 19551 H 1869.93 1.73337 3.35802 0
M  V30 19552 H 1870.25 4.08872 6.55777 0
M  V30 19553 H 1868.59 3.67119 5.90126 0
M  V30 19554 H 1871.78 2.22162 4.12021 0
M  V30 19555 H 1871.96 3.29548 5.57944 0
M  V30 19556 N 1865.36 -1.4549 0.605832 0
M  V30 19557 C 1866.59 -2.07135 0.104838 0
M  V30 19558 C 1867.01 -1.4478 -1.20085 0
M  V30 19559 O 1866.37 -0.539875 -1.73075 0
M  V30 19560 C 1866.42 -3.60593 -0.0231858 0
M  V30 19561 O 1865.52 -3.98173 -1.07386 0
M  V30 19562 H 1864.86 -0.659945 0.0732691 0
M  V30 19563 H 1867.39 -1.8677 0.835343 0
M  V30 19564 H 1867.4 -4.07396 -0.221964 0
M  V30 19565 H 1866.08 -4.05364 0.930211 0
M  V30 19566 H 1864.66 -3.63044 -0.851689 0
M  V30 19567 N 1866.84 -0.344893 -1.5378 0
M  V30 19568 C 1868.09 0.251208 -2.00936 0
M  V30 19569 C 1868.42 1.50449 -1.23269 0
M  V30 19570 O 1867.67 1.93249 -0.308738 0
M  V30 19571 C 1867.97 0.609495 -3.52165 0
M  V30 19572 C 1867.64 -0.547063 -4.47569 0
M  V30 19573 C 1866.3 -0.864456 -4.73372 0
M  V30 19574 C 1868.65 -1.3229 -5.04132 0
M  V30 19575 C 1865.98 -1.96003 -5.52991 0
M  V30 19576 C 1868.33 -2.40874 -5.84947 0
M  V30 19577 C 1866.99 -2.73171 -6.09043 0
M  V30 19578 H 1866.26 0.0919233 -0.735276 0
M  V30 19579 H 1868.91 -0.473086 -1.85564 0
M  V30 19580 H 1867.22 1.41452 -3.65375 0
M  V30 19581 H 1868.91 1.08262 -3.86109 0
M  V30 19582 H 1865.5 -0.289626 -4.2762 0
M  V30 19583 H 1869.69 -1.09095 -4.84161 0
M  V30 19584 H 1864.94 -2.21449 -5.69886 0
M  V30 19585 H 1869.12 -3.01421 -6.27789 0
M  V30 19586 H 1866.74 -3.5819 -6.70525 0
M  V30 19587 N 1868.32 1.57428 -0.0735454 0
M  V30 19588 C 1869.73 1.80973 0.458858 0
M  V30 19589 C 1870.08 0.987586 1.69532 0
M  V30 19590 O 1869.21 0.210611 2.15373 0
M  V30 19591 C 1869.8 3.28241 0.839246 0
M  V30 19592 C 1868.36 3.52626 1.3165 0
M  V30 19593 C 1867.51 2.75645 0.302533 0
M  V30 19594 H 1870.46 1.55854 -0.299225 0
M  V30 19595 H 1870.48 3.40386 1.70052 0
M  V30 19596 H 1869.99 3.88052 -0.0608625 0
M  V30 19597 H 1868.09 2.98121 2.23505 0
M  V30 19598 H 1868.2 4.61316 1.29322 0
M  V30 19599 H 1866.57 2.42457 0.780179 0
M  V30 19600 H 1867.35 3.38194 -0.589878 0
M  V30 19601 N 1869.8 -0.200022 1.56326 0
M  V30 19602 C 1871.04 -0.921174 1.80335 0
M  V30 19603 C 1871.37 -1.83461 0.645946 0
M  V30 19604 O 1870.63 -1.92198 -0.368568 0
M  V30 19605 C 1870.93 -1.77356 3.1029 0
M  V30 19606 C 1870.59 -1.01153 4.39407 0
M  V30 19607 C 1869.25 -0.801112 4.74485 0
M  V30 19608 C 1871.61 -0.474992 5.19031 0
M  V30 19609 C 1868.93 -0.0425991 5.86685 0
M  V30 19610 C 1871.29 0.270286 6.32022 0
M  V30 19611 C 1869.95 0.491763 6.65686 0
M  V30 19612 H 1869.22 -0.337082 0.659892 0
M  V30 19613 H 1871.87 -0.187867 1.90576 0
M  V30 19614 H 1870.17 -2.57539 2.95264 0
M  V30 19615 H 1871.87 -2.33406 3.26071 0
M  V30 19616 H 1868.46 -1.18553 4.11877 0
M  V30 19617 H 1872.64 -0.624969 4.92349 0
M  V30 19618 H 1867.9 0.139015 6.11242 0
M  V30 19619 H 1872.07 0.693432 6.92939 0
M  V30 19620 H 1869.7 1.08142 7.52469 0
M  V30 19621 N 1871.27 -1.50505 -0.467553 0
M  V30 19622 C 1872.52 -1.6191 -1.22118 0
M  V30 19623 C 1872.85 -0.320112 -1.91544 0
M  V30 19624 O 1872.13 0.678631 -1.82277 0
M  V30 19625 C 1872.41 -2.80184 -2.26206 0
M  V30 19626 C 1872.26 -4.19975 -1.61062 0
M  V30 19627 C 1873.58 -2.94011 -3.27484 0
M  V30 19628 H 1870.7 -0.589289 -0.442615 0
M  V30 19629 H 1873.34 -1.82902 -0.514484 0
M  V30 19630 H 1871.49 -2.62417 -2.86478 0
M  V30 19631 H 1873.17 -4.4934 -1.04359 0
M  V30 19632 H 1871.41 -4.24069 -0.91365 0
M  V30 19633 H 1872.08 -4.98667 -2.36718 0
M  V30 19634 H 1874.56 -3.10288 -2.77238 0
M  V30 19635 H 1873.43 -3.78384 -3.97639 0
M  V30 19636 H 1873.69 -2.04777 -3.91815 0
M  V30 19637 N 1872.75 0.720973 -1.40142 0
M  V30 19638 C 1873.98 1.51519 -1.41622 0
M  V30 19639 C 1874.4 1.88093 -0.0162669 0
M  V30 19640 O 1873.76 1.52895 0.974307 0
M  V30 19641 C 1873.81 2.77041 -2.30826 0
M  V30 19642 O 1872.91 3.73532 -1.74779 0
M  V30 19643 H 1872.25 0.457034 -0.481681 0
M  V30 19644 H 1874.78 0.88837 -1.84307 0
M  V30 19645 H 1874.79 3.25628 -2.45826 0
M  V30 19646 H 1873.47 2.49755 -3.32558 0
M  V30 19647 H 1872.05 3.32356 -1.69097 0
M  V30 19648 N 1874.23 1.25549 0.952634 0
M  V30 19649 C 1875.18 1.06108 2.04963 0
M  V30 19650 C 1876.15 -0.0303872 1.66072 0
M  V30 19651 O 1877.33 0.127178 1.90376 0
M  V30 19652 C 1874.47 0.68799 3.38173 0
M  V30 19653 C 1873.59 1.85452 3.90168 0
M  V30 19654 C 1872.72 1.4256 5.11713 0
M  V30 19655 C 1871.76 2.56115 5.55942 0
M  V30 19656 N 1870.9 2.13984 6.68697 0
M  V30 19657 H 1875.74 1.99991 2.20925 0
M  V30 19658 H 1873.27 0.995895 1.08261 0
M  V30 19659 H 1875.23 0.452622 4.14737 0
M  V30 19660 H 1873.86 -0.213845 3.22091 0
M  V30 19661 H 1872.91 2.20314 3.10106 0
M  V30 19662 H 1874.23 2.70722 4.1894 0
M  V30 19663 H 1873.38 1.15 5.95701 0
M  V30 19664 H 1872.12 0.54365 4.8466 0
M  V30 19665 H 1871.12 2.84417 4.70518 0
M  V30 19666 H 1872.35 3.44891 5.85002 0
M  V30 19667 H 1870.29 1.28208 6.4335 0
M  V30 19668 H 1870.21 2.92801 6.96996 0
M  V30 19669 H 1871.48 1.89605 7.56089 0
M  V30 19670 N 1875.71 -1.15554 1.07168 0
M  V30 19671 C 1876.94 -1.90182 0.81477 0
M  V30 19672 C 1877.35 -1.77914 -0.631829 0
M  V30 19673 O 1876.71 -1.1298 -1.43324 0
M  V30 19674 C 1876.76 -3.40593 1.21155 0
M  V30 19675 O 1876.48 -3.52504 2.60139 0
M  V30 19676 C 1877.98 -4.32248 0.983675 0
M  V30 19677 H 1875.2 -0.602804 0.294735 0
M  V30 19678 H 1877.75 -1.46419 1.42764 0
M  V30 19679 H 1875.9 -3.82026 0.643041 0
M  V30 19680 H 1876.31 -4.45839 2.76275 0
M  V30 19681 H 1877.79 -5.3621 1.31084 0
M  V30 19682 H 1878.27 -4.39127 -0.0801022 0
M  V30 19683 H 1878.87 -3.96556 1.537 0
M  V30 19684 N 1877.19 -0.855519 -1.32358 0
M  V30 19685 C 1878.12 -0.316159 -2.3135 0
M  V30 19686 C 1879.1 0.585159 -1.59718 0
M  V30 19687 O 1880.28 0.505221 -1.87513 0
M  V30 19688 C 1877.41 0.495577 -3.43746 0
M  V30 19689 C 1876.37 -0.311382 -4.26866 0
M  V30 19690 C 1875.69 0.625144 -5.31033 0
M  V30 19691 C 1876.99 -1.5376 -4.99154 0
M  V30 19692 H 1878.69 -1.14331 -2.7671 0
M  V30 19693 H 1876.23 -0.551221 -1.33032 0
M  V30 19694 H 1878.19 0.883325 -4.12038 0
M  V30 19695 H 1876.91 1.3561 -2.97115 0
M  V30 19696 H 1875.57 -0.680895 -3.60221 0
M  V30 19697 H 1875.22 1.48254 -4.80656 0
M  V30 19698 H 1874.92 0.0892112 -5.87532 0
M  V30 19699 H 1876.44 1.01005 -6.02188 0
M  V30 19700 H 1877.86 -1.2221 -5.60123 0
M  V30 19701 H 1876.25 -2.01153 -5.65382 0
M  V30 19702 H 1877.32 -2.29838 -4.26969 0
M  V30 19703 N 1878.67 1.45167 -0.61354 0
M  V30 19704 C 1879.91 2.01796 -0.110844 0
M  V30 19705 C 1880.23 1.48372 1.26534 0
M  V30 19706 O 1879.5 0.680323 1.83707 0
M  V30 19707 H 1878.08 0.746034 -0.0379861 0
M  V30 19708 H 1880.75 1.77892 -0.796279 0
M  V30 19709 H 1879.84 3.12032 -0.0651413 0
M  V30 19710 N 1880.14 0.353044 1.53595 0
M  V30 19711 C 1881.39 -0.240904 2.01364 0
M  V30 19712 C 1881.72 -1.49438 1.24023 0
M  V30 19713 O 1881 -1.91672 0.330451 0
M  V30 19714 C 1881.28 -0.545497 3.55944 0
M  V30 19715 C 1881.13 0.720742 4.43988 0
M  V30 19716 C 1882.45 -1.35124 4.18843 0
M  V30 19717 H 1879.57 -0.0860838 0.731955 0
M  V30 19718 H 1882.21 0.475459 1.83955 0
M  V30 19719 H 1880.36 -1.15578 3.7091 0
M  V30 19720 H 1882.04 1.35852 4.40842 0
M  V30 19721 H 1880.28 1.34369 4.12465 0
M  V30 19722 H 1880.95 0.462749 5.50057 0
M  V30 19723 H 1883.43 -0.835104 4.07634 0
M  V30 19724 H 1882.3 -1.53311 5.27055 0
M  V30 19725 H 1882.56 -2.35612 3.74085 0
M  V30 19726 N 1881.62 -1.57387 0.0818932 0
M  V30 19727 C 1882.9 -1.85297 -0.626447 0
M  V30 19728 C 1883.28 -0.976281 -1.87168 0
M  V30 19729 O 1882.63 -0.0451999 -2.28455 0
M  V30 19730 C 1882.84 -3.35695 -0.954461 0
M  V30 19731 C 1884.18 -4.03442 -1.32361 0
M  V30 19732 O 1885.21 -3.40499 -1.04588 0
M  V30 19733 O 1884.07 -5.1448 -1.84317 0
M  V30 19734 H 1881.16 -0.765835 -0.31213 0
M  V30 19735 H 1883.71 -1.69319 0.11359 0
M  V30 19736 H 1882.48 -3.91237 -0.0704846 0
M  V30 19737 H 1882.1 -3.56971 -1.75092 0
M  V30 19738 N 1883.1 0.191729 -1.56429 0
M  V30 19739 C 1884.35 0.911598 -1.80821 0
M  V30 19740 C 1884.67 1.83115 -0.655667 0
M  V30 19741 O 1883.93 1.92391 0.35837 0
M  V30 19742 C 1884.23 1.75708 -3.11226 0
M  V30 19743 C 1883.89 0.988211 -4.39938 0
M  V30 19744 C 1882.56 0.775937 -4.74903 0
M  V30 19745 C 1884.91 0.447459 -5.19276 0
M  V30 19746 C 1882.24 0.0114851 -5.86699 0
M  V30 19747 C 1884.59 -0.303799 -6.3187 0
M  V30 19748 C 1883.25 -0.527059 -6.65416 0
M  V30 19749 H 1882.52 0.333577 -0.66167 0
M  V30 19750 H 1885.17 0.177758 -1.90673 0
M  V30 19751 H 1883.47 2.5597 -2.96626 0
M  V30 19752 H 1885.17 2.31674 -3.27304 0
M  V30 19753 H 1881.76 1.16368 -4.125 0
M  V30 19754 H 1885.95 0.59885 -4.92674 0
M  V30 19755 H 1881.2 -0.171429 -6.1116 0
M  V30 19756 H 1885.38 -0.730171 -6.92562 0
M  V30 19757 H 1883 -1.12131 -7.51885 0
M  V30 19758 N 1884.58 1.50751 0.459565 0
M  V30 19759 C 1885.83 1.61553 1.20762 0
M  V30 19760 C 1886.14 0.326862 1.9285 0
M  V30 19761 O 1887.35 0.313951 2.69679 0
M  V30 19762 C 1885.8 2.8522 2.19494 0
M  V30 19763 C 1885.41 4.21008 1.53156 0
M  V30 19764 C 1887.15 3.05373 2.94869 0
M  V30 19765 C 1885.06 5.35848 2.50241 0
M  V30 19766 H 1883.99 0.601658 0.454448 0
M  V30 19767 H 1886.64 1.77195 0.476886 0
M  V30 19768 H 1885.02 2.63163 2.95908 0
M  V30 19769 H 1886.2 4.53363 0.824521 0
M  V30 19770 H 1884.51 4.06554 0.900178 0
M  V30 19771 H 1887.11 3.88342 3.67552 0
M  V30 19772 H 1887.45 2.17557 3.54929 0
M  V30 19773 H 1887.99 3.27665 2.25566 0
M  V30 19774 H 1884.72 6.25854 1.94904 0
M  V30 19775 H 1884.24 5.07896 3.19063 0
M  V30 19776 H 1885.92 5.66894 3.11834 0
M  V30 19777 N 1886.06 -0.713531 1.40522 0
M  V30 19778 C 1887.33 -1.46672 1.29409 0
M  V30 19779 C 1887.71 -2.10922 -0.0866293 0
M  V30 19780 O 1887.06 -2.00303 -1.09959 0
M  V30 19781 C 1887.27 -2.50076 2.4344 0
M  V30 19782 C 1888.62 -3.15848 2.8377 0
M  V30 19783 O 1889.64 -2.60396 2.43048 0
M  V30 19784 O 1888.5 -4.16238 3.5413 0
M  V30 19785 H 1885.6 -0.652333 0.508322 0
M  V30 19786 H 1888.14 -0.745531 1.52446 0
M  V30 19787 H 1886.91 -2.01129 3.35653 0
M  V30 19788 H 1886.54 -3.29728 2.22183 0
M  V30 19789 N 1887.53 -1.26053 -0.945962 0
M  V30 19790 C 1888.78 -1.1148 -1.69411 0
M  V30 19791 C 1889.11 0.341927 -1.91166 0
M  V30 19792 O 1888.39 1.2515 -1.48888 0
M  V30 19793 C 1888.67 -1.87915 -3.07181 0
M  V30 19794 C 1888.52 -3.41466 -2.92781 0
M  V30 19795 C 1889.84 -1.66917 -4.07218 0
M  V30 19796 H 1886.96 -0.406361 -0.614849 0
M  V30 19797 H 1889.6 -1.54991 -1.099 0
M  V30 19798 H 1887.75 -1.50934 -3.57982 0
M  V30 19799 H 1889.43 -3.88172 -2.49238 0
M  V30 19800 H 1887.67 -3.68735 -2.2851 0
M  V30 19801 H 1888.34 -3.90171 -3.90475 0
M  V30 19802 H 1890.82 -1.99127 -3.6536 0
M  V30 19803 H 1889.69 -2.22821 -5.01639 0
M  V30 19804 H 1889.95 -0.612576 -4.37835 0
M  V30 19805 N 1889.01 1.14984 -1.07779 0
M  V30 19806 C 1889.97 2.1806 -0.705879 0
M  V30 19807 C 1890.97 1.58748 0.256082 0
M  V30 19808 O 1892.16 1.74162 0.0364678 0
M  V30 19809 C 1889.3 3.40875 -0.0411253 0
M  V30 19810 H 1890.49 2.52476 -1.61852 0
M  V30 19811 H 1888.04 1.29522 -0.874863 0
M  V30 19812 H 1888.78 3.12032 0.883548 0
M  V30 19813 H 1888.56 3.85186 -0.73306 0
M  V30 19814 H 1890.05 4.171 0.204275 0
M  V30 19815 N 1890.49 0.862526 1.31902 0
M  V30 19816 C 1891.72 0.484006 2.01159 0
M  V30 19817 C 1892.13 -0.92148 1.64785 0
M  V30 19818 O 1891.49 -1.60254 0.873216 0
M  V30 19819 C 1891.54 0.622709 3.56096 0
M  V30 19820 O 1891.26 1.97284 3.91166 0
M  V30 19821 C 1892.76 0.244225 4.42627 0
M  V30 19822 H 1889.98 0.189378 0.643721 0
M  V30 19823 H 1892.53 1.16164 1.68304 0
M  V30 19824 H 1890.68 -0.00728166 3.87399 0
M  V30 19825 H 1891.1 1.97525 4.85885 0
M  V30 19826 H 1892.57 0.392254 5.50605 0
M  V30 19827 H 1893.05 -0.816006 4.31553 0
M  V30 19828 H 1893.65 0.84961 4.16727 0
M  V30 19829 N 1891.97 -1.4484 0.62123 0
M  V30 19830 C 1892.92 -2.30626 -0.0895817 0
M  V30 19831 C 1893.89 -1.42906 -0.846593 0
M  V30 19832 O 1895.07 -1.7182 -0.829611 0
M  V30 19833 C 1892.21 -3.28032 -1.07188 0
M  V30 19834 C 1891.32 -4.30855 -0.314319 0
M  V30 19835 C 1890.46 -5.1536 -1.28755 0
M  V30 19836 C 1889.5 -6.09899 -0.518581 0
M  V30 19837 N 1888.63 -6.87137 -1.44178 0
M  V30 19838 H 1893.47 -2.90871 0.64793 0
M  V30 19839 H 1891.01 -1.4332 0.33131 0
M  V30 19840 H 1892.97 -3.82984 -1.65467 0
M  V30 19841 H 1891.6 -2.6951 -1.77664 0
M  V30 19842 H 1890.65 -3.78455 0.38422 0
M  V30 19843 H 1891.96 -4.97985 0.285042 0
M  V30 19844 H 1891.12 -5.7478 -1.94198 0
M  V30 19845 H 1889.86 -4.4828 -1.92084 0
M  V30 19846 H 1888.86 -5.49597 0.149399 0
M  V30 19847 H 1890.09 -6.79011 0.109851 0
M  V30 19848 H 1888.03 -6.22735 -2.06246 0
M  V30 19849 H 1887.95 -7.50669 -0.896192 0
M  V30 19850 H 1889.22 -7.51088 -2.08536 0
M  V30 19851 N 1893.45 -0.361184 -1.53405 0
M  V30 19852 C 1894.69 0.230222 -2.01489 0
M  V30 19853 C 1895.03 1.48779 -1.24814 0
M  V30 19854 O 1894.3 1.91494 -0.340612 0
M  V30 19855 C 1894.58 0.526613 -3.56229 0
M  V30 19856 C 1894.44 -0.744277 -4.436 0
M  V30 19857 C 1895.76 1.32901 -4.19554 0
M  V30 19858 H 1892.87 0.0822009 -0.732402 0
M  V30 19859 H 1895.52 -0.485208 -1.837 0
M  V30 19860 H 1893.67 1.13609 -3.71517 0
M  V30 19861 H 1895.34 -1.38188 -4.40116 0
M  V30 19862 H 1893.58 -1.36555 -4.11747 0
M  V30 19863 H 1894.25 -0.491913 -5.49804 0
M  V30 19864 H 1896.73 0.813474 -4.08071 0
M  V30 19865 H 1895.6 1.50513 -5.27861 0
M  V30 19866 H 1895.87 2.33625 -3.75329 0
M  V30 19867 N 1894.92 1.57341 -0.0902386 0
M  V30 19868 C 1895.86 2.09404 0.906927 0
M  V30 19869 C 1896.84 1.00345 1.27944 0
M  V30 19870 O 1898.02 1.2781 1.38553 0
M  V30 19871 C 1895.15 2.567 2.20959 0
M  V30 19872 C 1894.19 3.77371 1.98729 0
M  V30 19873 S 1895.03 5.21189 1.22974 0
M  V30 19874 C 1896.18 5.71831 2.5448 0
M  V30 19875 H 1896.41 2.93657 0.463996 0
M  V30 19876 H 1893.95 1.5391 0.122943 0
M  V30 19877 H 1895.91 2.84608 2.95819 0
M  V30 19878 H 1894.57 1.72682 2.62373 0
M  V30 19879 H 1893.76 4.08516 2.95179 0
M  V30 19880 H 1893.36 3.49932 1.31999 0
M  V30 19881 H 1895.65 5.79801 3.50481 0
M  V30 19882 H 1896.6 6.70416 2.27921 0
M  V30 19883 H 1897 4.99738 2.6253 0
M  V30 19884 N 1896.4 -0.183431 1.56529 0
M  V30 19885 C 1897.65 -0.900237 1.80495 0
M  V30 19886 C 1897.96 -1.83932 0.665454 0
M  V30 19887 O 1899.17 -2.59761 0.789728 0
M  V30 19888 C 1897.63 -1.65125 3.19784 0
M  V30 19889 C 1897.23 -0.756411 4.41568 0
M  V30 19890 C 1898.98 -2.357 3.53052 0
M  V30 19891 C 1896.89 -1.50696 5.71878 0
M  V30 19892 H 1895.82 -0.339898 0.673042 0
M  V30 19893 H 1898.47 -0.153327 1.82858 0
M  V30 19894 H 1896.85 -2.44248 3.11703 0
M  V30 19895 H 1898.02 -0.00301509 4.608 0
M  V30 19896 H 1896.34 -0.160916 4.16089 0
M  V30 19897 H 1898.93 -2.92426 4.4765 0
M  V30 19898 H 1899.28 -3.10454 2.77352 0
M  V30 19899 H 1899.81 -1.63533 3.62632 0
M  V30 19900 H 1896.55 -0.801985 6.50575 0
M  V30 19901 H 1896.07 -2.23399 5.56644 0
M  V30 19902 H 1897.75 -2.05768 6.13407 0
M  V30 19903 N 1897.88 -1.50992 -0.451564 0
M  V30 19904 C 1899.13 -1.62633 -1.19978 0
M  V30 19905 C 1899.45 -0.337971 -1.92049 0
M  V30 19906 O 1898.72 0.645542 -1.84958 0
M  V30 19907 H 1897.3 -0.599345 -0.445864 0
M  V30 19908 H 1899.96 -1.8786 -0.519104 0
M  V30 19909 H 1899.06 -2.44709 -1.93711 0
M  V30 19910 N 1899.36 0.706069 -1.40899 0
M  V30 19911 C 1900.27 1.85007 -1.44255 0
M  V30 19912 C 1901.28 1.70761 -0.334174 0
M  V30 19913 O 1902.46 1.9286 -0.580258 0
M  V30 19914 C 1899.53 3.20896 -1.31251 0
M  V30 19915 C 1898.59 3.47327 -2.52314 0
M  V30 19916 C 1897.82 4.76732 -2.39922 0
M  V30 19917 O 1898.04 5.5249 -1.41813 0
M  V30 19918 O 1896.98 5.03713 -3.2948 0
M  V30 19919 H 1900.8 1.85132 -2.40748 0
M  V30 19920 H 1898.39 0.857751 -1.22323 0
M  V30 19921 H 1900.27 4.02045 -1.26244 0
M  V30 19922 H 1898.94 3.21477 -0.378684 0
M  V30 19923 H 1897.85 2.66149 -2.62899 0
M  V30 19924 H 1899.18 3.5155 -3.4449 0
M  V30 19925 N 1900.84 1.26553 0.939264 0
M  V30 19926 C 1901.78 1.08092 2.05958 0
M  V30 19927 C 1902.78 0.00730279 1.69398 0
M  V30 19928 O 1903.98 0.164131 1.7925 0
M  V30 19929 H 1900.36 0.33271 0.674394 0
M  V30 19930 H 1902.33 2.03032 2.18679 0
M  V30 19931 C 1901.08 0.732672 3.39893 0
M  V30 19932 H 1900.4 1.55067 3.68503 0
M  V30 19933 H 1901.84 0.643305 4.19091 0
M  V30 19934 C 1900.3 -0.5623 3.32174 0
M  V30 19935 O 1900.83 -1.60007 3.68457 0
M  V30 19936 N 1899.04 -0.553643 2.85277 0
M  V30 19937 H 1898.58 0.291265 2.55948 0
M  V30 19938 H 1898.54 -1.4202 2.80495 0
M  V30 19939 N 1902.31 -1.14411 1.08387 0
M  V30 19940 C 1903.56 -1.85719 0.814638 0
M  V30 19941 C 1903.89 -1.82715 -0.657934 0
M  V30 19942 O 1903.17 -1.2577 -1.48365 0
M  V30 19943 C 1903.45 -3.34363 1.33691 0
M  V30 19944 C 1903.3 -3.4594 2.87481 0
M  V30 19945 C 1904.62 -4.29457 0.962006 0
M  V30 19946 H 1901.74 -0.674332 0.297399 0
M  V30 19947 H 1904.38 -1.34354 1.34346 0
M  V30 19948 H 1902.53 -3.78237 0.887082 0
M  V30 19949 H 1904.21 -3.10854 3.40833 0
M  V30 19950 H 1902.45 -2.87158 3.25151 0
M  V30 19951 H 1903.12 -4.50423 3.19097 0
M  V30 19952 H 1905.6 -3.93599 1.34979 0
M  V30 19953 H 1904.47 -5.31922 1.35464 0
M  V30 19954 H 1904.73 -4.41906 -0.130987 0
M  V30 19955 N 1903.79 -0.869509 -1.31443 0
M  V30 19956 C 1905.07 -0.400903 -1.91447 0
M  V30 19957 C 1905.45 1.117 -1.79127 0
M  V30 19958 O 1904.8 1.94536 -1.19866 0
M  V30 19959 C 1905.01 -0.881767 -3.37677 0
M  V30 19960 C 1906.36 -0.90763 -4.14786 0
M  V30 19961 O 1907.38 -0.82739 -3.46457 0
M  V30 19962 O 1906.24 -1.02365 -5.36827 0
M  V30 19963 H 1903.33 -0.119842 -0.818271 0
M  V30 19964 H 1905.88 -0.957391 -1.40115 0
M  V30 19965 H 1904.65 -1.92533 -3.40657 0
M  V30 19966 H 1904.27 -0.303565 -3.96439 0
M  V30 19967 N 1905.27 1.44508 -0.628902 0
M  V30 19968 C 1906.18 2.34468 0.0786233 0
M  V30 19969 C 1907.2 1.52489 0.838046 0
M  V30 19970 O 1908.37 1.85224 0.790813 0
M  V30 19971 C 1905.44 3.30435 1.04945 0
M  V30 19972 C 1904.5 4.28322 0.289643 0
M  V30 19973 C 1903.73 5.19704 1.21422 0
M  V30 19974 O 1903.95 5.14967 2.45286 0
M  V30 19975 O 1902.89 5.97819 0.699748 0
M  V30 19976 H 1906.71 2.96414 -0.661222 0
M  V30 19977 H 1904.3 1.44244 -0.3891 0
M  V30 19978 H 1906.18 3.89513 1.60804 0
M  V30 19979 H 1904.86 2.71025 1.76994 0
M  V30 19980 H 1903.76 3.72797 -0.311936 0
M  V30 19981 H 1905.1 4.90646 -0.390789 0
M  V30 19982 N 1906.75 0.369315 1.53212 0
M  V30 19983 C 1907.7 -0.475399 2.25851 0
M  V30 19984 C 1908.67 -1.07444 1.26669 0
M  V30 19985 O 1909.85 -1.10623 1.55458 0
M  V30 19986 C 1906.99 -1.60725 3.05388 0
M  V30 19987 C 1906.1 -1.03302 4.19467 0
M  V30 19988 C 1905.24 -2.13427 4.86438 0
M  V30 19989 C 1904.28 -1.53489 5.92543 0
M  V30 19990 N 1903.42 -2.57463 6.5319 0
M  V30 19991 H 1908.26 0.150534 2.9762 0
M  V30 19992 H 1905.79 0.0860577 1.46848 0
M  V30 19993 H 1907.75 -2.274 3.49779 0
M  V30 19994 H 1906.38 -2.20378 2.35867 0
M  V30 19995 H 1905.43 -0.256437 3.79535 0
M  V30 19996 H 1906.74 -0.55483 4.95705 0
M  V30 19997 H 1905.9 -2.87915 5.34032 0
M  V30 19998 H 1904.64 -2.64599 4.09681 0
M  V30 19999 H 1903.64 -0.775176 5.44308 0
M  V30 20000 H 1904.87 -1.03137 6.71222 0
M  V30 20001 H 1902.81 -3.07841 5.79284 0
M  V30 20002 H 1902.73 -2.14342 7.24978 0
M  V30 20003 H 1904 -3.31642 7.05432 0
M  V30 20004 N 1908.23 -1.57291 0.0985816 0
M  V30 20005 C 1909.18 -2.10757 -0.869797 0
M  V30 20006 C 1910.16 -1.02343 -1.24156 0
M  V30 20007 O 1911.35 -1.28612 -1.21606 0
M  V30 20008 C 1908.48 -2.69425 -2.12756 0
M  V30 20009 C 1907.57 -3.84888 -1.78107 0
M  V30 20010 N 1907.96 -4.92778 -1.14034 0
M  V30 20011 C 1906.26 -3.94688 -2.07695 0
M  V30 20012 C 1906.96 -5.73373 -0.980736 0
M  V30 20013 N 1905.93 -5.22519 -1.49917 0
M  V30 20014 H 1909.74 -2.91555 -0.370523 0
M  V30 20015 H 1907.25 -1.62063 -0.104525 0
M  V30 20016 H 1909.25 -3.0606 -2.83077 0
M  V30 20017 H 1907.91 -1.90083 -2.63246 0
M  V30 20018 H 1908.92 -5.11578 -0.806735 0
M  V30 20019 H 1905.6 -3.2636 -2.60375 0
M  V30 20020 H 1906.99 -6.70188 -0.479379 0
M  V30 20021 N 1909.71 0.175127 -1.56624 0
M  V30 20022 C 1910.64 1.21918 -1.99144 0
M  V30 20023 C 1911.62 1.4638 -0.866428 0
M  V30 20024 O 1912.8 1.57779 -1.13223 0
M  V30 20025 C 1909.93 2.55897 -2.34807 0
M  V30 20026 C 1908.89 2.46011 -3.50232 0
M  V30 20027 C 1908.21 3.84445 -3.71626 0
M  V30 20028 C 1909.51 1.96808 -4.83801 0
M  V30 20029 H 1911.21 0.86575 -2.8661 0
M  V30 20030 H 1908.75 0.415014 -1.3789 0
M  V30 20031 H 1910.7 3.29136 -2.63149 0
M  V30 20032 H 1909.43 2.9302 -1.44245 0
M  V30 20033 H 1908.09 1.75227 -3.22011 0
M  V30 20034 H 1907.74 4.18955 -2.78362 0
M  V30 20035 H 1907.44 3.787 -4.49288 0
M  V30 20036 H 1908.96 4.59276 -4.02366 0
M  V30 20037 H 1910.37 2.59819 -5.11045 0
M  V30 20038 H 1908.77 2.0202 -5.65073 0
M  V30 20039 H 1909.84 0.922209 -4.7605 0
M  V30 20040 N 1911.18 1.5123 0.44355 0
M  V30 20041 C 1912.59 1.56137 1.02362 0
M  V30 20042 C 1912.95 0.381135 1.92462 0
M  V30 20043 O 1912.07 -0.502817 2.10477 0
M  V30 20044 C 1912.67 2.82967 1.8632 0
M  V30 20045 C 1911.22 2.90466 2.39388 0
M  V30 20046 C 1910.37 2.50735 1.18438 0
M  V30 20047 H 1913.32 1.57096 0.22506 0
M  V30 20048 H 1913.34 2.66378 2.71704 0
M  V30 20049 H 1912.86 3.68848 1.20717 0
M  V30 20050 H 1910.96 2.09 3.08463 0
M  V30 20051 H 1911.07 3.9398 2.7261 0
M  V30 20052 H 1909.43 2.03792 1.52778 0
M  V30 20053 H 1910.22 3.38954 0.544549 0
M  V30 20054 N 1912.66 -0.698586 1.41271 0
M  V30 20055 C 1913.89 -1.48743 1.43816 0
M  V30 20056 C 1914.3 -1.88752 0.0425858 0
M  V30 20057 O 1913.66 -1.56584 -0.937425 0
M  V30 20058 C 1913.71 -2.75192 2.34418 0
M  V30 20059 O 1913.43 -2.36869 3.68544 0
M  V30 20060 C 1914.93 -3.68957 2.45735 0
M  V30 20061 H 1912.15 -0.458477 0.489938 0
M  V30 20062 H 1914.7 -0.860372 1.85521 0
M  V30 20063 H 1912.85 -3.34142 1.9603 0
M  V30 20064 H 1913.27 -3.18354 4.16834 0
M  V30 20065 H 1914.74 -4.54473 3.13302 0
M  V30 20066 H 1915.22 -4.13237 1.48767 0
M  V30 20067 H 1915.82 -3.15912 2.84745 0
M  V30 20068 N 1914.14 -1.27049 -0.93254 0
M  V30 20069 C 1915.07 -1.11867 -2.04959 0
M  V30 20070 C 1916.05 -0.0214563 -1.70086 0
M  V30 20071 O 1917.24 -0.195063 -1.93218 0
M  V30 20072 C 1914.37 -0.759993 -3.38883 0
M  V30 20073 C 1913.32 -1.8099 -3.87849 0
M  V30 20074 C 1912.65 -1.30532 -5.18522 0
M  V30 20075 C 1913.95 -3.21309 -4.11774 0
M  V30 20076 H 1915.64 -2.05309 -2.17918 0
M  V30 20077 H 1913.19 -0.988507 -1.04712 0
M  V30 20078 H 1915.14 -0.640623 -4.16502 0
M  V30 20079 H 1913.86 0.210139 -3.25923 0
M  V30 20080 H 1912.52 -1.91809 -3.12418 0
M  V30 20081 H 1912.17 -0.324784 -5.0195 0
M  V30 20082 H 1911.87 -2.00722 -5.52254 0
M  V30 20083 H 1913.39 -1.19879 -5.98716 0
M  V30 20084 H 1914.81 -3.13517 -4.79979 0
M  V30 20085 H 1913.2 -3.89166 -4.56804 0
M  V30 20086 H 1914.27 -3.66722 -3.17243 0
M  V30 20087 N 1915.62 1.13835 -1.08993 0
M  V30 20088 C 1916.89 1.81232 -0.735809 0
M  V30 20089 C 1917.27 1.96172 0.779737 0
M  V30 20090 O 1916.62 1.52629 1.70049 0
M  V30 20091 C 1916.83 3.16546 -1.46968 0
M  V30 20092 C 1918.18 3.91958 -1.6326 0
M  V30 20093 O 1919.2 3.26155 -1.43183 0
M  V30 20094 O 1918.06 5.09976 -1.96435 0
M  V30 20095 H 1915.16 0.783794 -0.26381 0
M  V30 20096 H 1917.7 1.20801 -1.19186 0
M  V30 20097 H 1916.48 3.00872 -2.50183 0
M  V30 20098 H 1916.1 3.84676 -1.00551 0
M  V30 20099 N 1917.1 0.876467 1.3098 0
M  V30 20100 C 1918.05 0.308508 2.25903 0
M  V30 20101 C 1919.03 -0.558176 1.50908 0
M  V30 20102 O 1920.22 -0.403991 1.72328 0
M  V30 20103 C 1917.35 -0.483379 3.3988 0
M  V30 20104 C 1916.44 0.396914 4.22239 0
M  V30 20105 N 1916.83 1.49342 4.8325 0
M  V30 20106 C 1915.13 0.190504 4.45593 0
M  V30 20107 C 1915.83 2.0368 5.44876 0
M  V30 20108 N 1914.8 1.33291 5.27005 0
M  V30 20109 H 1918.6 1.14647 2.70617 0
M  V30 20110 H 1916.12 0.724937 1.45322 0
M  V30 20111 H 1918.12 -0.906842 4.06918 0
M  V30 20112 H 1916.78 -1.31888 2.96708 0
M  V30 20113 H 1917.79 1.87632 4.82716 0
M  V30 20114 H 1914.46 -0.608515 4.13042 0
M  V30 20115 H 1915.85 2.95713 6.03327 0
M  V30 20116 N 1918.57 -1.44173 0.636557 0
M  V30 20117 C 1919.98 -1.8534 0.224954 0
M  V30 20118 C 1920.34 -1.53271 -1.22485 0
M  V30 20119 O 1919.46 -0.973441 -1.93269 0
M  V30 20120 C 1920.06 -3.36413 0.401492 0
M  V30 20121 C 1918.61 -3.76374 0.0443511 0
M  V30 20122 C 1917.76 -2.67995 0.712303 0
M  V30 20123 H 1920.71 -1.34562 0.841356 0
M  V30 20124 H 1920.73 -3.78812 -0.357965 0
M  V30 20125 H 1920.25 -3.59722 1.45677 0
M  V30 20126 H 1918.35 -3.58679 -1.00897 0
M  V30 20127 H 1918.46 -4.76904 0.458196 0
M  V30 20128 H 1916.82 -2.54275 0.147092 0
M  V30 20129 H 1917.61 -2.94136 1.77028 0
M  V30 20130 N 1920.05 -0.377435 -1.53014 0
M  V30 20131 C 1921.3 0.209712 -2.00607 0
M  V30 20132 C 1921.61 1.48891 -1.2685 0
M  V30 20133 O 1922.82 2.15538 -1.65093 0
M  V30 20134 C 1921.28 0.424271 -3.5739 0
M  V30 20135 C 1920.88 -0.840982 -4.40036 0
M  V30 20136 C 1922.63 0.968428 -4.13306 0
M  V30 20137 C 1920.53 -0.595355 -5.88396 0
M  V30 20138 H 1919.46 0.0821436 -0.749512 0
M  V30 20139 H 1922.12 -0.498005 -1.76613 0
M  V30 20140 H 1920.5 1.19354 -3.77585 0
M  V30 20141 H 1921.67 -1.61396 -4.31611 0
M  V30 20142 H 1919.99 -1.30922 -3.95283 0
M  V30 20143 H 1922.58 1.16771 -5.21794 0
M  V30 20144 H 1922.93 1.93405 -3.68647 0
M  V30 20145 H 1923.46 0.259025 -3.96956 0
M  V30 20146 H 1920.2 -1.53164 -6.37355 0
M  V30 20147 H 1919.72 0.138904 -5.99639 0
M  V30 20148 H 1921.4 -0.225366 -6.46607 0
M  V30 20149 N 1921.53 1.57237 -0.106922 0
M  V30 20150 C 1922.78 1.9395 0.553733 0
M  V30 20151 C 1923.09 0.991678 1.68597 0
M  V30 20152 O 1924.3 1.25299 2.40858 0
M  V30 20153 C 1922.75 3.44655 1.0364 0
M  V30 20154 C 1922.36 4.4795 -0.0667311 0
M  V30 20155 C 1924.11 3.90309 1.66911 0
M  V30 20156 C 1922.01 5.8982 0.431953 0
M  V30 20157 H 1920.94 0.723986 0.21062 0
M  V30 20158 H 1923.59 1.82567 -0.18483 0
M  V30 20159 H 1921.98 3.51231 1.82901 0
M  V30 20160 H 1923.15 4.5303 -0.842624 0
M  V30 20161 H 1921.47 4.11976 -0.605358 0
M  V30 20162 H 1924.06 4.9371 2.05315 0
M  V30 20163 H 1924.41 3.29612 2.54287 0
M  V30 20164 H 1924.94 3.86483 0.942119 0
M  V30 20165 H 1921.68 6.54245 -0.405469 0
M  V30 20166 H 1921.2 5.88187 1.17459 0
M  V30 20167 H 1922.88 6.4075 0.897104 0
M  V30 20168 N 1923.01 -0.166818 1.56715 0
M  V30 20169 C 1924.42 -0.728845 1.71886 0
M  V30 20170 C 1924.77 -1.82584 0.718168 0
M  V30 20171 O 1923.9 -2.1607 -0.119503 0
M  V30 20172 C 1924.49 -1.32885 3.11652 0
M  V30 20173 C 1923.05 -1.83766 3.28492 0
M  V30 20174 C 1922.2 -0.718371 2.67833 0
M  V30 20175 H 1925.15 0.0586298 1.58592 0
M  V30 20176 H 1925.17 -2.19858 3.10552 0
M  V30 20177 H 1924.68 -0.530219 3.84461 0
M  V30 20178 H 1922.78 -2.66259 2.60647 0
M  V30 20179 H 1922.89 -1.98 4.36271 0
M  V30 20180 H 1921.26 -1.13996 2.27765 0
M  V30 20181 H 1922.04 0.0684914 3.43232 0
M  V30 20182 N 1924.49 -1.51463 -0.435524 0
M  V30 20183 C 1925.45 -1.72315 -1.51129 0
M  V30 20184 C 1926.45 -0.593161 -1.4946 0
M  V30 20185 O 1927.64 -0.860731 -1.5145 0
M  V30 20186 C 1924.77 -1.78127 -2.9066 0
M  V30 20187 H 1925.96 -2.68327 -1.33943 0
M  V30 20188 H 1923.52 -1.4148 -0.664317 0
M  V30 20189 H 1924.25 -0.839367 -3.13249 0
M  V30 20190 H 1924.04 -2.60252 -2.93277 0
M  V30 20191 H 1925.53 -1.96093 -3.68697 0
M  V30 20192 N 1925.96 0.691085 -1.4164 0
M  V30 20193 C 1927.24 1.44595 -1.31726 0
M  V30 20194 C 1927.62 2.11033 0.0530624 0
M  V30 20195 O 1926.97 2.02027 1.06759 0
M  V30 20196 C 1927.18 2.46172 -2.47387 0
M  V30 20197 C 1928.53 3.11293 -2.88759 0
M  V30 20198 O 1929.55 2.56497 -2.47159 0
M  V30 20199 O 1928.41 4.10551 -3.60707 0
M  V30 20200 H 1925.5 0.644163 -0.518635 0
M  V30 20201 H 1928.05 0.721184 -1.53613 0
M  V30 20202 H 1926.82 1.95764 -3.3881 0
M  V30 20203 H 1926.45 3.26151 -2.27401 0
M  V30 20204 N 1927.44 1.27542 0.925789 0
M  V30 20205 C 1928.67 1.16641 1.70524 0
M  V30 20206 C 1929.08 -0.279149 1.87129 0
M  V30 20207 O 1928.42 -1.20171 1.38941 0
M  V30 20208 C 1928.49 1.77978 3.12352 0
M  V30 20209 C 1928.15 3.27168 3.19077 0
M  V30 20210 C 1929.15 4.23775 3.01182 0
M  V30 20211 C 1926.83 3.67911 3.41975 0
M  V30 20212 C 1928.83 5.59102 3.06077 0
M  V30 20213 C 1926.51 5.03367 3.46504 0
M  V30 20214 C 1927.51 5.98773 3.28573 0
M  V30 20215 O 1927.2 7.3176 3.3284 0
M  V30 20216 H 1926.93 0.406366 0.540225 0
M  V30 20217 H 1929.48 1.68956 1.16803 0
M  V30 20218 H 1927.71 1.20143 3.67563 0
M  V30 20219 H 1929.4 1.61765 3.72273 0
M  V30 20220 H 1930.17 3.93635 2.83331 0
M  V30 20221 H 1926.05 2.94125 3.54981 0
M  V30 20222 H 1929.59 6.33547 2.92 0
M  V30 20223 H 1925.49 5.33162 3.63879 0
M  V30 20224 H 1926.26 7.40233 3.49282 0
M  V30 20225 N 1928.92 -1.13255 1.09595 0
M  V30 20226 C 1930.17 -1.84844 0.83429 0
M  V30 20227 C 1930.5 -1.83403 -0.638518 0
M  V30 20228 O 1929.77 -1.27337 -1.47022 0
M  V30 20229 C 1930.06 -3.32926 1.3723 0
M  V30 20230 C 1929.91 -3.42872 2.91134 0
M  V30 20231 C 1931.23 -4.28413 1.0075 0
M  V30 20232 H 1928.35 -0.671139 0.304534 0
M  V30 20233 H 1930.99 -1.32922 1.35764 0
M  V30 20234 H 1929.14 -3.77275 0.927149 0
M  V30 20235 H 1930.81 -3.07222 3.44111 0
M  V30 20236 H 1929.06 -2.83693 3.28178 0
M  V30 20237 H 1929.73 -4.47013 3.23857 0
M  V30 20238 H 1932.2 -3.92145 1.39146 0
M  V30 20239 H 1931.08 -5.30455 1.41098 0
M  V30 20240 H 1931.34 -4.4202 -0.0841095 0
M  V30 20241 N 1930.4 -0.883401 -1.30514 0
M  V30 20242 C 1931.36 -0.353908 -2.26451 0
M  V30 20243 C 1932.36 0.502723 -1.52739 0
M  V30 20244 O 1933.55 0.310104 -1.71418 0
M  V30 20245 C 1930.68 0.495846 -3.37275 0
M  V30 20246 H 1931.88 -1.20101 -2.74801 0
M  V30 20247 H 1929.43 -0.660124 -1.41676 0
M  V30 20248 H 1930.16 1.3636 -2.94239 0
M  V30 20249 H 1929.95 -0.117731 -3.91923 0
M  V30 20250 H 1931.44 0.858149 -4.08688 0
M  V30 20251 N 1931.88 1.43833 -0.644194 0
M  V30 20252 C 1933.13 2.01132 -0.151307 0
M  V30 20253 C 1933.44 1.51363 1.23889 0
M  V30 20254 O 1934.64 2.00876 1.8265 0
M  V30 20255 C 1933.1 3.59229 -0.219714 0
M  V30 20256 C 1932.71 4.17992 -1.61204 0
M  V30 20257 C 1934.45 4.2395 0.216034 0
M  V30 20258 C 1932.36 5.68354 -1.63486 0
M  V30 20259 H 1931.29 0.752149 -0.052802 0
M  V30 20260 H 1933.94 1.64904 -0.804907 0
M  V30 20261 H 1932.32 3.92815 0.501229 0
M  V30 20262 H 1933.5 3.95921 -2.35761 0
M  V30 20263 H 1931.81 3.65608 -1.99299 0
M  V30 20264 H 1934.41 5.34253 0.218703 0
M  V30 20265 H 1934.75 3.97222 1.24581 0
M  V30 20266 H 1935.28 3.95214 -0.452852 0
M  V30 20267 H 1932.02 5.99836 -2.64343 0
M  V30 20268 H 1931.54 5.92508 -0.93241 0
M  V30 20269 H 1933.22 6.3223 -1.37458 0
M  V30 20270 N 1933.35 0.385544 1.52811 0
M  V30 20271 C 1934.3 -0.451417 2.26342 0
M  V30 20272 C 1935.27 -1.06094 1.27801 0
M  V30 20273 O 1936.46 -1.08968 1.56623 0
M  V30 20274 C 1933.6 -1.57477 3.07075 0
M  V30 20275 C 1932.71 -0.988468 4.20539 0
M  V30 20276 C 1931.84 -2.08256 4.88675 0
M  V30 20277 C 1930.88 -1.47196 5.94138 0
M  V30 20278 N 1930.02 -2.5052 6.55884 0
M  V30 20279 H 1934.86 0.182092 2.97443 0
M  V30 20280 H 1932.4 0.101628 1.46749 0
M  V30 20281 H 1934.36 -2.23677 3.52171 0
M  V30 20282 H 1932.99 -2.17864 2.38191 0
M  V30 20283 H 1932.04 -0.216168 3.79785 0
M  V30 20284 H 1933.35 -0.502223 4.96265 0
M  V30 20285 H 1932.5 -2.82235 5.37055 0
M  V30 20286 H 1931.24 -2.60239 4.12464 0
M  V30 20287 H 1930.25 -0.717401 5.45099 0
M  V30 20288 H 1931.47 -0.960124 6.72279 0
M  V30 20289 H 1929.42 -3.0168 5.82516 0
M  V30 20290 H 1929.34 -2.0664 7.27211 0
M  V30 20291 H 1930.6 -3.24141 7.0891 0
M  V30 20292 N 1934.83 -1.57178 0.115259 0
M  V30 20293 C 1935.8 -2.13953 -0.821982 0
M  V30 20294 C 1936.8 -1.07352 -1.19717 0
M  V30 20295 O 1937.99 -1.33146 -1.12329 0
M  V30 20296 C 1935.12 -2.6767 -2.11106 0
M  V30 20297 H 1936.31 -2.98094 -0.328631 0
M  V30 20298 H 1933.86 -1.55725 -0.133942 0
M  V30 20299 H 1934.6 -1.87106 -2.6488 0
M  V30 20300 H 1934.38 -3.4563 -1.85155 0
M  V30 20301 H 1935.87 -3.11519 -2.78111 0
M  V30 20302 N 1936.31 0.158505 -1.56801 0
M  V30 20303 C 1937.72 0.71972 -1.7227 0
M  V30 20304 C 1938.07 1.822 -0.72784 0
M  V30 20305 O 1937.2 2.1613 0.108043 0
M  V30 20306 C 1937.79 1.31231 -3.12352 0
M  V30 20307 C 1936.35 1.82021 -3.29462 0
M  V30 20308 C 1935.5 0.704157 -2.68211 0
M  V30 20309 H 1938.45 -0.0670395 -1.58558 0
M  V30 20310 H 1938.47 2.18208 -3.11714 0
M  V30 20311 H 1937.98 0.509823 -3.84737 0
M  V30 20312 H 1936.08 2.64873 -2.62056 0
M  V30 20313 H 1936.2 1.95684 -4.37315 0
M  V30 20314 H 1934.56 1.12787 -2.28366 0
M  V30 20315 H 1935.34 -0.0866929 -3.43191 0
M  V30 20316 N 1937.79 1.51692 0.427485 0
M  V30 20317 C 1938.72 1.68413 1.53988 0
M  V30 20318 C 1939.7 0.531673 1.53662 0
M  V30 20319 O 1940.88 0.756748 1.72643 0
M  V30 20320 C 1938.01 1.70671 2.92556 0
M  V30 20321 C 1937.06 2.91998 3.10868 0
M  V30 20322 S 1937.89 4.52653 2.86122 0
M  V30 20323 C 1939.05 4.5767 4.26953 0
M  V30 20324 H 1939.28 2.62501 1.39573 0
M  V30 20325 H 1936.81 1.41499 0.617842 0
M  V30 20326 H 1938.77 1.72657 3.72424 0
M  V30 20327 H 1937.43 0.777425 3.04327 0
M  V30 20328 H 1936.62 2.90008 4.12203 0
M  V30 20329 H 1936.23 2.87805 2.38839 0
M  V30 20330 H 1938.52 4.33917 5.20309 0
M  V30 20331 H 1939.46 5.59529 4.33974 0
M  V30 20332 H 1939.87 3.8689 4.11067 0
M  V30 20333 N 1939.27 -0.683564 1.42004 0
M  V30 20334 C 1940.51 -1.44363 1.42005 0
M  V30 20335 C 1940.84 -1.94471 0.0333832 0
M  V30 20336 O 1940.1 -1.70716 -0.95679 0
M  V30 20337 C 1940.4 -2.66286 2.38383 0
M  V30 20338 C 1940.06 -2.34769 3.8496 0
M  V30 20339 C 1938.72 -2.25884 4.24888 0
M  V30 20340 C 1941.08 -2.09012 4.77455 0
M  V30 20341 C 1938.4 -1.89356 5.55303 0
M  V30 20342 C 1940.76 -1.73991 6.08202 0
M  V30 20343 C 1939.42 -1.6361 6.47138 0
M  V30 20344 H 1938.69 -0.528262 0.519634 0
M  V30 20345 H 1941.34 -0.780217 1.74885 0
M  V30 20346 H 1939.64 -3.37618 1.98799 0
M  V30 20347 H 1941.34 -3.24452 2.35652 0
M  V30 20348 H 1937.93 -2.42583 3.53343 0
M  V30 20349 H 1942.11 -2.14814 4.47402 0
M  V30 20350 H 1937.37 -1.79882 5.84339 0
M  V30 20351 H 1941.54 -1.53084 6.79366 0
M  V30 20352 H 1939.17 -1.35075 7.48103 0
M  V30 20353 N 1940.75 -1.28031 -0.919012 0
M  V30 20354 C 1941.97 -1.17828 -1.70679 0
M  V30 20355 C 1942.4 0.260207 -1.86292 0
M  V30 20356 O 1941.75 1.18833 -1.36925 0
M  V30 20357 C 1941.8 -1.87626 -3.07943 0
M  V30 20358 O 1940.91 -1.18014 -3.95154 0
M  V30 20359 H 1940.25 -0.40932 -0.522832 0
M  V30 20360 H 1942.78 -1.69258 -1.14947 0
M  V30 20361 H 1942.79 -1.95327 -3.58206 0
M  V30 20362 H 1941.46 -2.92263 -2.95897 0
M  V30 20363 H 1940.04 -1.18441 -3.5359 0
M  V30 20364 N 1942.22 1.12672 -1.10194 0
M  V30 20365 C 1943.47 1.84605 -0.85397 0
M  V30 20366 C 1943.82 1.82345 0.613845 0
M  V30 20367 O 1943.12 1.25627 1.44667 0
M  V30 20368 C 1943.31 3.31602 -1.33322 0
M  V30 20369 C 1943.14 3.48177 -2.8461 0
M  V30 20370 C 1941.91 3.61958 -3.52582 0
M  V30 20371 C 1944.11 3.43553 -3.82722 0
M  V30 20372 N 1942.09 3.66874 -4.92216 0
M  V30 20373 C 1943.46 3.54933 -5.08352 0
M  V30 20374 C 1945.52 3.27003 -3.75465 0
M  V30 20375 C 1944.22 3.51472 -6.27583 0
M  V30 20376 C 1946.25 3.24853 -4.94191 0
M  V30 20377 C 1945.61 3.36792 -6.18669 0
M  V30 20378 H 1941.71 0.69135 -0.365458 0
M  V30 20379 H 1944.29 1.3491 -1.40383 0
M  V30 20380 H 1942.46 3.79845 -0.810711 0
M  V30 20381 H 1944.19 3.9138 -1.02975 0
M  V30 20382 H 1940.95 3.63969 -3.03024 0
M  V30 20383 H 1941.37 3.73003 -5.64976 0
M  V30 20384 H 1946.01 3.16668 -2.80145 0
M  V30 20385 H 1943.73 3.60577 -7.23194 0
M  V30 20386 H 1947.32 3.13232 -4.90282 0
M  V30 20387 H 1946.2 3.35099 -7.08998 0
M  V30 20388 N 1943.7 0.89031 1.30043 0
M  V30 20389 C 1945.11 0.561241 1.78065 0
M  V30 20390 C 1945.46 -0.922791 1.73144 0
M  V30 20391 O 1944.59 -1.72124 1.31157 0
M  V30 20392 C 1945.18 1.01201 3.23332 0
M  V30 20393 C 1943.74 0.734261 3.69169 0
M  V30 20394 C 1942.89 1.19199 2.50373 0
M  V30 20395 H 1945.84 1.074 1.16838 0
M  V30 20396 H 1945.86 0.343251 3.78949 0
M  V30 20397 H 1945.37 2.09213 3.26881 0
M  V30 20398 H 1943.47 -0.33365 3.71103 0
M  V30 20399 H 1943.59 1.32556 4.60397 0
M  V30 20400 H 1941.95 0.6112 2.47258 0
M  V30 20401 H 1942.73 2.27997 2.56656 0
M  V30 20402 N 1945.18 -1.43489 0.651812 0
M  V30 20403 C 1946.6 -1.56374 0.31925 0
M  V30 20404 C 1946.8 -1.63573 -1.1767 0
M  V30 20405 O 1945.85 -1.59003 -1.96149 0
M  V30 20406 C 1947.16 -2.82532 1.02937 0
M  V30 20407 C 1948.71 -2.96274 1.00949 0
M  V30 20408 C 1949.19 -4.25262 1.70047 0
M  V30 20409 N 1950.68 -4.32123 1.66805 0
M  V30 20410 C 1951.41 -5.30693 2.17146 0
M  V30 20411 N 1950.91 -6.3555 2.75769 0
M  V30 20412 N 1952.7 -5.22337 2.07654 0
M  V30 20413 H 1944.85 -1.3706 1.6226 0
M  V30 20414 H 1947.12 -0.658169 0.682289 0
M  V30 20415 H 1946.82 -2.83271 2.08448 0
M  V30 20416 H 1946.7 -3.72713 0.580047 0
M  V30 20417 H 1949.08 -2.95077 -0.0372118 0
M  V30 20418 H 1949.16 -2.07386 1.49749 0
M  V30 20419 H 1948.81 -4.2722 2.74673 0
M  V30 20420 H 1948.74 -5.13044 1.18714 0
M  V30 20421 H 1951.23 -3.56968 1.24024 0
M  V30 20422 H 1951.54 -7.0708 3.11861 0
M  V30 20423 H 1949.89 -6.36177 2.79829 0
M  V30 20424 H 1953.08 -4.39336 1.61561 0
M  V30 20425 H 1953.25 -5.98998 2.47195 0
M  V30 20426 N 1946.66 -0.393643 -1.52605 0
M  V30 20427 C 1947.59 0.430786 -2.29492 0
M  V30 20428 C 1948.57 1.0597 -1.33058 0
M  V30 20429 O 1949.75 1.07165 -1.61955 0
M  V30 20430 C 1946.88 1.55599 -3.10494 0
M  V30 20431 C 1945.84 1.05289 -4.14847 0
M  V30 20432 C 1945.16 2.2705 -4.841 0
M  V30 20433 C 1946.46 0.117789 -5.22167 0
M  V30 20434 H 1948.16 -0.210741 -2.98657 0
M  V30 20435 H 1945.7 -0.102795 -1.43633 0
M  V30 20436 H 1947.66 2.1396 -3.63042 0
M  V30 20437 H 1946.38 2.22517 -2.39069 0
M  V30 20438 H 1945.04 0.491788 -3.63286 0
M  V30 20439 H 1944.69 2.92487 -4.09219 0
M  V30 20440 H 1944.39 1.94047 -5.54635 0
M  V30 20441 H 1945.91 2.86045 -5.39454 0
M  V30 20442 H 1947.33 0.609718 -5.70049 0
M  V30 20443 H 1945.72 -0.122689 -5.99975 0
M  V30 20444 H 1946.79 -0.832053 -4.77708 0
M  V30 20445 N 1948.14 1.57115 -0.123593 0
M  V30 20446 C 1949.55 1.5789 0.232975 0
M  V30 20447 C 1949.75 1.13659 1.66385 0
M  V30 20448 O 1948.81 0.826084 2.38604 0
M  V30 20449 C 1950.12 3.007 -0.0045178 0
M  V30 20450 C 1951.67 3.12941 0.0610235 0
M  V30 20451 C 1952.14 4.57758 -0.148835 0
M  V30 20452 N 1953.63 4.63103 -0.0949606 0
M  V30 20453 C 1954.37 5.7293 -0.232177 0
M  V30 20454 N 1953.87 6.9149 -0.42582 0
M  V30 20455 N 1955.66 5.61839 -0.171428 0
M  V30 20456 H 1947.81 1.84166 -1.05814 0
M  V30 20457 H 1950.07 0.851342 -0.417038 0
M  V30 20458 H 1949.78 3.37364 -0.993901 0
M  V30 20459 H 1949.65 3.70161 0.725327 0
M  V30 20460 H 1952.04 2.76131 1.04094 0
M  V30 20461 H 1952.12 2.46014 -0.700776 0
M  V30 20462 H 1951.76 4.95267 -1.12574 0
M  V30 20463 H 1951.69 5.22782 0.633006 0
M  V30 20464 H 1954.19 3.77866 0.0510058 0
M  V30 20465 H 1954.5 7.7104 -0.521263 0
M  V30 20466 H 1952.84 6.93464 -0.461851 0
M  V30 20467 H 1956.03 4.68095 -0.0210758 0
M  V30 20468 H 1956.21 6.47387 -0.281807 0
M  V30 20469 N 1949.61 -0.150187 1.56883 0
M  V30 20470 C 1950.89 -0.891842 1.74085 0
M  V30 20471 C 1951.27 -1.99479 0.690751 0
M  V30 20472 O 1950.62 -2.26641 -0.290877 0
M  V30 20473 C 1950.83 -1.43722 3.18033 0
M  V30 20474 C 1952.18 -1.90188 3.79623 0
M  V30 20475 O 1953.2 -1.53471 3.21442 0
M  V30 20476 O 1952.06 -2.57892 4.81824 0
M  V30 20477 H 1949.15 -0.421241 0.711678 0
M  V30 20478 H 1951.7 -0.136362 1.69151 0
M  V30 20479 H 1950.47 -0.644422 3.85957 0
M  V30 20480 H 1950.09 -2.2563 3.27379 0
M  V30 20481 N 1951.09 -1.51916 -0.419434 0
M  V30 20482 C 1952.06 -1.73908 -1.49293 0
M  V30 20483 C 1953.06 -0.60898 -1.48822 0
M  V30 20484 O 1954.25 -0.876745 -1.50528 0
M  V30 20485 C 1951.38 -1.812 -2.88755 0
M  V30 20486 H 1952.57 -2.69732 -1.3109 0
M  V30 20487 H 1950.12 -1.42176 -0.649274 0
M  V30 20488 H 1950.86 -0.872544 -3.12341 0
M  V30 20489 H 1950.64 -2.63348 -2.905 0
M  V30 20490 H 1952.13 -1.99992 -3.66596 0
M  V30 20491 N 1952.57 0.676023 -1.42365 0
M  V30 20492 C 1953.85 1.43189 -1.33252 0
M  V30 20493 C 1954.23 2.11078 0.0306765 0
M  V30 20494 O 1953.58 2.03148 1.0461 0
M  V30 20495 C 1953.79 2.43534 -2.49984 0
M  V30 20496 C 1955.13 3.08213 -2.92044 0
M  V30 20497 O 1956.16 2.53861 -2.49866 0
M  V30 20498 O 1955.02 4.06702 -3.65042 0
M  V30 20499 H 1952.11 0.638626 -0.525438 0
M  V30 20500 H 1954.66 0.704851 -1.5437 0
M  V30 20501 H 1953.43 1.92159 -3.40867 0
M  V30 20502 H 1953.05 3.23721 -2.30847 0
M  V30 20503 N 1954.05 1.28517 0.912209 0
M  V30 20504 C 1955.46 1.14251 1.4766 0
M  V30 20505 C 1955.81 -0.266935 1.94376 0
M  V30 20506 O 1954.94 -1.16134 1.82598 0
M  V30 20507 C 1955.53 2.06792 2.6837 0
M  V30 20508 C 1954.09 1.96587 3.20984 0
M  V30 20509 C 1953.24 1.98444 1.93689 0
M  V30 20510 H 1956.19 1.41184 0.724769 0
M  V30 20511 H 1956.21 1.63282 3.43685 0
M  V30 20512 H 1955.72 3.09365 2.34339 0
M  V30 20513 H 1953.82 0.970565 3.59737 0
M  V30 20514 H 1953.93 2.83622 3.86129 0
M  V30 20515 H 1952.3 1.42872 2.10855 0
M  V30 20516 H 1953.08 3.02699 1.61951 0
M  V30 20517 N 1955.53 -1.12086 1.1079 0
M  V30 20518 C 1956.78 -1.83036 0.847387 0
M  V30 20519 C 1957.09 -1.85209 -0.629051 0
M  V30 20520 O 1958.29 -2.52191 -1.00559 0
M  V30 20521 C 1956.75 -3.28682 1.46615 0
M  V30 20522 C 1956.36 -3.34858 2.97614 0
M  V30 20523 C 1958.1 -4.04578 1.28519 0
M  V30 20524 C 1956.01 -4.7486 3.52508 0
M  V30 20525 H 1954.94 -0.685806 0.313347 0
M  V30 20526 H 1957.59 -1.2618 1.33233 0
M  V30 20527 H 1955.97 -3.85429 0.908883 0
M  V30 20528 H 1957.15 -2.8803 3.59688 0
M  V30 20529 H 1955.46 -2.72438 3.14907 0
M  V30 20530 H 1958.06 -5.07962 1.6697 0
M  V30 20531 H 1958.4 -4.1568 0.227105 0
M  V30 20532 H 1958.93 -3.542 1.81073 0
M  V30 20533 H 1955.67 -4.68954 4.57999 0
M  V30 20534 H 1955.19 -5.22125 2.95203 0
M  V30 20535 H 1956.87 -5.43807 3.50546 0
M  V30 20536 N 1957 -0.897194 -1.29569 0
M  V30 20537 C 1957.93 -0.389601 -2.30227 0
M  V30 20538 C 1958.92 0.53405 -1.61499 0
M  V30 20539 O 1960.1 0.44531 -1.89025 0
M  V30 20540 C 1957.23 0.385966 -3.45149 0
M  V30 20541 C 1956.18 -0.447028 -4.25659 0
M  V30 20542 C 1955.51 0.455883 -5.32753 0
M  V30 20543 C 1956.81 -1.69562 -4.9401 0
M  V30 20544 H 1958.5 -1.23077 -2.72933 0
M  V30 20545 H 1956.05 -0.593265 -1.31211 0
M  V30 20546 H 1958 0.751791 -4.1464 0
M  V30 20547 H 1956.73 1.26089 -3.01279 0
M  V30 20548 H 1955.39 -0.795152 -3.57873 0
M  V30 20549 H 1955.03 1.32887 -4.85129 0
M  V30 20550 H 1954.73 -0.0977528 -5.87519 0
M  V30 20551 H 1956.26 0.817956 -6.05097 0
M  V30 20552 H 1957.67 -1.39968 -5.55951 0
M  V30 20553 H 1956.07 -2.19039 -5.58697 0
M  V30 20554 H 1957.14 -2.43305 -4.19441 0
M  V30 20555 N 1958.48 1.43142 -0.659413 0
M  V30 20556 C 1959.9 1.56203 -0.327538 0
M  V30 20557 C 1960.1 1.64194 1.16801 0
M  V30 20558 O 1959.15 1.60041 1.95303 0
M  V30 20559 C 1960.47 2.81982 -1.04434 0
M  V30 20560 C 1962.02 2.95735 -1.02518 0
M  V30 20561 C 1962.49 4.24354 -1.723 0
M  V30 20562 N 1963.98 4.31232 -1.69094 0
M  V30 20563 C 1964.72 5.29534 -2.19957 0
M  V30 20564 N 1964.21 6.34078 -2.79135 0
M  V30 20565 N 1966.01 5.21229 -2.10421 0
M  V30 20566 H 1958.16 1.36198 -1.62984 0
M  V30 20567 H 1960.42 0.654541 -0.685769 0
M  V30 20568 H 1960.13 2.82162 -2.09947 0
M  V30 20569 H 1960 3.72401 -0.599805 0
M  V30 20570 H 1962.39 2.95092 0.0215626 0
M  V30 20571 H 1962.47 2.06589 -1.50846 0
M  V30 20572 H 1962.11 4.25758 -2.76935 0
M  V30 20573 H 1962.04 5.12408 -1.21433 0
M  V30 20574 H 1964.53 3.56306 -1.25915 0
M  V30 20575 H 1964.85 7.05417 -3.15606 0
M  V30 20576 H 1963.19 6.34684 -2.83199 0
M  V30 20577 H 1966.38 4.38473 -1.63888 0
M  V30 20578 H 1966.55 5.97679 -2.50368 0
M  V30 20579 N 1959.96 0.40173 1.52394 0
M  V30 20580 C 1961.2 -0.176078 2.0364 0
M  V30 20581 C 1961.56 -1.43004 1.28117 0
M  V30 20582 O 1962.77 -2.08581 1.69551 0
M  V30 20583 C 1961.04 -0.425192 3.54862 0
M  V30 20584 S 1962.6 -0.971506 4.2791 0
M  V30 20585 H 1959.41 -0.0484885 0.709345 0
M  V30 20586 H 1962.02 0.552944 1.87517 0
M  V30 20587 H 1960.72 0.494352 4.07412 0
M  V30 20588 H 1960.25 -1.18229 3.75214 0
M  V30 20589 H 1962.27 -2.25275 4.42115 0
M  V30 20590 N 1961.44 -1.57047 0.131923 0
M  V30 20591 C 1962.35 -2.19545 -0.826862 0
M  V30 20592 C 1963.36 -1.17532 -1.28305 0
M  V30 20593 O 1964.54 -1.50052 -1.34337 0
M  V30 20594 C 1961.61 -2.79284 -2.0543 0
M  V30 20595 C 1960.67 -3.96375 -1.64879 0
M  V30 20596 C 1959.9 -4.53256 -2.81771 0
M  V30 20597 O 1960.12 -4.09022 -3.97564 0
M  V30 20598 O 1959.06 -5.43748 -2.58111 0
M  V30 20599 H 1962.88 -3.01957 -0.324926 0
M  V30 20600 H 1960.47 -1.49102 -0.0943495 0
M  V30 20601 H 1962.35 -3.17312 -2.77292 0
M  V30 20602 H 1961.02 -1.99895 -2.54605 0
M  V30 20603 H 1959.93 -3.63092 -0.900848 0
M  V30 20604 H 1961.26 -4.77238 -1.20434 0
M  V30 20605 N 1962.92 0.141865 -1.5696 0
M  V30 20606 C 1963.85 1.20469 -1.9381 0
M  V30 20607 C 1964.83 1.41296 -0.804621 0
M  V30 20608 O 1966.01 1.55825 -1.06071 0
M  V30 20609 C 1963.14 2.56269 -2.21458 0
M  V30 20610 C 1962.18 2.52006 -3.44086 0
M  V30 20611 S 1963.02 1.98199 -4.97471 0
M  V30 20612 C 1964.17 3.35718 -5.28246 0
M  V30 20613 H 1964.41 0.890327 -2.83656 0
M  V30 20614 H 1961.94 0.347693 -1.50434 0
M  V30 20615 H 1963.9 3.34417 -2.38066 0
M  V30 20616 H 1962.56 2.84893 -1.32268 0
M  V30 20617 H 1961.75 3.51986 -3.60724 0
M  V30 20618 H 1961.35 1.8197 -3.26746 0
M  V30 20619 H 1963.65 4.31848 -5.22028 0
M  V30 20620 H 1964.59 3.23928 -6.29663 0
M  V30 20621 H 1965 3.33091 -4.55753 0
M  V30 20622 N 1964.39 1.52136 0.411372 0
M  V30 20623 C 1965.36 1.74698 1.48369 0
M  V30 20624 C 1966.36 0.616863 1.48497 0
M  V30 20625 O 1967.55 0.884716 1.50061 0
M  V30 20626 C 1964.68 1.82729 2.8779 0
M  V30 20627 H 1965.87 2.70424 1.29658 0
M  V30 20628 H 1963.43 1.42519 0.641725 0
M  V30 20629 H 1964.16 0.889096 3.11874 0
M  V30 20630 H 1963.95 2.64884 2.891 0
M  V30 20631 H 1965.44 2.01934 3.6553 0
M  V30 20632 N 1965.87 -0.668464 1.42721 0
M  V30 20633 C 1967.1 -1.46158 1.47148 0
M  V30 20634 C 1967.52 -1.87903 0.0860652 0
M  V30 20635 O 1966.88 -1.56406 -0.91689 0
M  V30 20636 C 1966.93 -2.68284 2.40949 0
M  V30 20637 O 1966.03 -3.66787 1.88522 0
M  V30 20638 H 1965.37 -0.438842 0.498311 0
M  V30 20639 H 1967.9 -0.819353 1.87477 0
M  V30 20640 H 1967.91 -3.1628 2.57742 0
M  V30 20641 H 1966.59 -2.3724 3.41599 0
M  V30 20642 H 1965.17 -3.25851 1.81315 0
M  V30 20643 N 1967.35 -1.28999 -0.905381 0
M  V30 20644 C 1968.58 -1.19512 -1.68892 0
M  V30 20645 C 1968.99 0.245073 -1.87203 0
M  V30 20646 O 1968.35 1.16474 -1.405 0
M  V30 20647 C 1968.4 -1.89822 -3.07652 0
M  V30 20648 O 1968.12 -3.28217 -2.90181 0
M  V30 20649 C 1969.62 -1.86742 -4.02048 0
M  V30 20650 H 1966.84 -0.414483 -0.527678 0
M  V30 20651 H 1969.39 -1.70271 -1.1326 0
M  V30 20652 H 1967.54 -1.42913 -3.60076 0
M  V30 20653 H 1967.96 -3.63549 -3.78064 0
M  V30 20654 H 1969.43 -2.40512 -4.96848 0
M  V30 20655 H 1969.91 -0.841659 -4.3106 0
M  V30 20656 H 1970.51 -2.33369 -3.55555 0
M  V30 20657 N 1968.83 1.11497 -1.11383 0
M  V30 20658 C 1970.08 1.8286 -0.860611 0
M  V30 20659 C 1970.4 1.85032 0.615471 0
M  V30 20660 O 1969.67 1.32047 1.44708 0
M  V30 20661 H 1968.25 0.677153 -0.315392 0
M  V30 20662 H 1970.91 1.34963 -1.40609 0
M  V30 20663 H 1970.01 2.86743 -1.23227 0
M  V30 20664 N 1970.31 0.904053 1.29092 0
M  V30 20665 C 1971.22 0.389825 2.31339 0
M  V30 20666 C 1972.23 -0.517628 1.66122 0
M  V30 20667 O 1973.41 -0.406158 1.97262 0
M  V30 20668 C 1970.47 -0.370468 3.44715 0
M  V30 20669 C 1969.54 0.569032 4.25512 0
M  V30 20670 C 1968.77 -0.155071 5.33475 0
M  V30 20671 O 1968.99 -1.37834 5.53496 0
M  V30 20672 O 1967.93 0.504642 5.99781 0
M  V30 20673 H 1971.75 1.2382 2.77313 0
M  V30 20674 H 1969.34 0.668528 1.33608 0
M  V30 20675 H 1971.22 -0.800237 4.13732 0
M  V30 20676 H 1969.89 -1.19484 3.00841 0
M  V30 20677 H 1968.8 1.048 3.59121 0
M  V30 20678 H 1970.13 1.35994 4.7304 0
M  V30 20679 N 1971.79 -1.4279 0.666995 0
M  V30 20680 C 1973.03 -2.01942 0.186305 0
M  V30 20681 C 1973.36 -1.52579 -1.20139 0
M  V30 20682 O 1972.64 -0.724677 -1.80496 0
M  V30 20683 C 1972.92 -3.59474 0.212322 0
M  V30 20684 C 1972.78 -4.19035 1.63491 0
M  V30 20685 C 1974.09 -4.37857 -0.443762 0
M  V30 20686 H 1971.21 -0.733747 0.0691733 0
M  V30 20687 H 1973.86 -1.69912 0.850298 0
M  V30 20688 H 1972.01 -3.86892 -0.353062 0
M  V30 20689 H 1973.68 -4.02598 2.25195 0
M  V30 20690 H 1971.92 -3.75161 2.178 0
M  V30 20691 H 1972.59 -5.28155 1.60486 0
M  V30 20692 H 1975.07 -4.16083 0.0374331 0
M  V30 20693 H 1973.94 -5.47478 -0.394887 0
M  V30 20694 H 1974.2 -4.15144 -1.52012 0
M  V30 20695 N 1973.26 -0.409806 -1.52179 0
M  V30 20696 C 1974.23 0.40345 -2.25621 0
M  V30 20697 C 1975.23 0.973072 -1.28015 0
M  V30 20698 O 1976.42 0.851845 -1.51951 0
M  V30 20699 C 1973.55 1.568 -3.02699 0
M  V30 20700 H 1974.74 -0.239822 -2.9894 0
M  V30 20701 H 1972.29 -0.162341 -1.55455 0
M  V30 20702 H 1973.03 2.24811 -2.33731 0
M  V30 20703 H 1972.81 1.16603 -3.74361 0
M  V30 20704 H 1974.3 2.14326 -3.58405 0
M  V30 20705 N 1974.74 1.56975 -0.14025 0
M  V30 20706 C 1975.98 1.97796 0.515374 0
M  V30 20707 C 1976.35 1.02298 1.62478 0
M  V30 20708 O 1977.55 1.32137 2.34079 0
M  V30 20709 C 1975.82 3.42691 1.01477 0
M  V30 20710 S 1977.38 4.05534 1.67594 0
M  V30 20711 H 1974.19 0.691143 0.166859 0
M  V30 20712 H 1976.8 1.94138 -0.230367 0
M  V30 20713 H 1975.5 4.09929 0.19647 0
M  V30 20714 H 1975.03 3.50047 1.79529 0
M  V30 20715 H 1977.05 3.98032 2.96285 0
M  V30 20716 N 1976.22 -0.133539 1.57033 0
M  V30 20717 C 1977.47 -0.843859 1.8408 0
M  V30 20718 C 1977.79 -1.80556 0.723177 0
M  V30 20719 O 1977.05 -1.93588 -0.286718 0
M  V30 20720 C 1977.35 -1.64036 3.17533 0
M  V30 20721 C 1977.01 -0.82425 4.43302 0
M  V30 20722 C 1975.68 -0.599146 4.77455 0
M  V30 20723 C 1978.03 -0.254425 5.20579 0
M  V30 20724 C 1975.36 0.206272 5.86337 0
M  V30 20725 C 1977.71 0.538105 6.30307 0
M  V30 20726 C 1976.37 0.773661 6.63001 0
M  V30 20727 H 1975.64 -0.30879 0.673595 0
M  V30 20728 H 1978.29 -0.106868 1.91202 0
M  V30 20729 H 1976.59 -2.44784 3.05921 0
M  V30 20730 H 1978.29 -2.19367 3.35677 0
M  V30 20731 H 1974.88 -1.00978 4.16535 0
M  V30 20732 H 1979.07 -0.415584 4.94557 0
M  V30 20733 H 1974.32 0.398139 6.10102 0
M  V30 20734 H 1978.5 0.986708 6.89374 0
M  V30 20735 H 1976.12 1.3996 7.47205 0
M  V30 20736 N 1977.7 -1.52352 -0.403298 0
M  V30 20737 C 1978.95 -1.66368 -1.14744 0
M  V30 20738 C 1979.27 -0.398899 -1.90876 0
M  V30 20739 O 1978.54 0.586372 -1.86918 0
M  V30 20740 H 1977.12 -0.613226 -0.426571 0
M  V30 20741 H 1979.78 -1.89416 -0.459075 0
M  V30 20742 H 1978.87 -2.50748 -1.85828 0
M  V30 20743 N 1979.18 0.660885 -1.43074 0
M  V30 20744 C 1980.09 1.80324 -1.50068 0
M  V30 20745 C 1981.1 1.69611 -0.388331 0
M  V30 20746 O 1982.28 1.90916 -0.641321 0
M  V30 20747 C 1979.34 3.16557 -1.41394 0
M  V30 20748 C 1978.4 3.39124 -2.63236 0
M  V30 20749 C 1977.64 4.68858 -2.54967 0
M  V30 20750 O 1977.86 5.47699 -1.59318 0
M  V30 20751 O 1976.79 4.92975 -3.45339 0
M  V30 20752 H 1980.62 1.77379 -2.46516 0
M  V30 20753 H 1978.2 0.8184 -1.2499 0
M  V30 20754 H 1980.09 3.97825 -1.38971 0
M  V30 20755 H 1978.76 3.2011 -0.480768 0
M  V30 20756 H 1977.67 2.5765 -2.71233 0
M  V30 20757 H 1979 3.40413 -3.555 0
M  V30 20758 N 1980.65 1.29477 0.898527 0
M  V30 20759 C 1981.9 1.17284 1.64587 0
M  V30 20760 C 1982.22 -0.275718 1.93041 0
M  V30 20761 O 1981.49 -1.18847 1.55731 0
M  V30 20762 H 1980.07 0.431068 0.610073 0
M  V30 20763 H 1982.74 1.62419 1.07732 0
M  V30 20764 H 1981.83 1.72375 2.60179 0
M  V30 20765 N 1982.13 -1.10905 1.11972 0
M  V30 20766 C 1983.38 -1.82127 0.866753 0
M  V30 20767 C 1983.69 -1.85866 -0.609372 0
M  V30 20768 O 1984.9 -2.53243 -0.978781 0
M  V30 20769 C 1983.36 -3.27109 1.50093 0
M  V30 20770 C 1982.96 -3.31682 3.01149 0
M  V30 20771 C 1984.71 -4.03192 1.32803 0
M  V30 20772 C 1982.62 -4.71095 3.57524 0
M  V30 20773 H 1981.55 -0.682444 0.320604 0
M  V30 20774 H 1984.2 -1.24759 1.34564 0
M  V30 20775 H 1982.58 -3.84443 0.949712 0
M  V30 20776 H 1983.75 -2.84199 3.62722 0
M  V30 20777 H 1982.07 -2.69082 3.17779 0
M  V30 20778 H 1984.66 -5.06162 1.72348 0
M  V30 20779 H 1985.01 -4.15416 0.271181 0
M  V30 20780 H 1985.54 -3.52259 1.84819 0
M  V30 20781 H 1982.28 -4.6407 4.62947 0
M  V30 20782 H 1981.8 -5.18965 3.00725 0
M  V30 20783 H 1983.48 -5.40059 3.56294 0
M  V30 20784 N 1983.61 -0.910886 -1.2861 0
M  V30 20785 C 1984.56 -0.368294 -2.25006 0
M  V30 20786 C 1985.54 0.517969 -1.52335 0
M  V30 20787 O 1986.74 0.358159 -1.73338 0
M  V30 20788 C 1983.87 0.393096 -3.41042 0
M  V30 20789 C 1982.95 -0.508724 -4.21038 0
M  V30 20790 N 1983.34 -1.62102 -4.79121 0
M  V30 20791 C 1981.64 -0.308578 -4.44931 0
M  V30 20792 C 1982.34 -2.18055 -5.39284 0
M  V30 20793 N 1981.32 -1.47217 -5.23286 0
M  V30 20794 H 1985.12 -1.21781 -2.67482 0
M  V30 20795 H 1982.63 -0.763212 -1.43349 0
M  V30 20796 H 1984.63 0.798636 -4.09179 0
M  V30 20797 H 1983.29 1.23975 -3.00101 0
M  V30 20798 H 1984.3 -2.00364 -4.77572 0
M  V30 20799 H 1980.98 0.49879 -4.1451 0
M  V30 20800 H 1982.37 -3.11606 -5.95274 0
M  V30 20801 N 1985.09 1.42434 -0.674558 0
M  V30 20802 C 1986.32 2.05881 -0.205113 0
M  V30 20803 C 1986.73 1.50677 1.13763 0
M  V30 20804 O 1986.09 0.646479 1.70666 0
M  V30 20805 C 1986.14 3.61262 -0.131194 0
M  V30 20806 O 1985.86 4.14419 -1.42087 0
M  V30 20807 C 1987.36 4.41821 0.361775 0
M  V30 20808 H 1984.58 0.663535 -0.0998083 0
M  V30 20809 H 1987.13 1.82575 -0.921226 0
M  V30 20810 H 1985.28 3.8368 0.535604 0
M  V30 20811 H 1985.69 5.08285 -1.29407 0
M  V30 20812 H 1987.17 5.50809 0.362405 0
M  V30 20813 H 1987.65 4.1639 1.39699 0
M  V30 20814 H 1988.25 4.24421 -0.273278 0
M  V30 20815 N 1986.57 0.417871 1.51959 0
M  V30 20816 C 1987.53 -0.391479 2.25832 0
M  V30 20817 C 1988.53 -0.96627 1.2853 0
M  V30 20818 O 1989.72 -0.843774 1.52401 0
M  V30 20819 C 1986.85 -1.55192 3.03526 0
M  V30 20820 H 1988.04 0.255672 2.98808 0
M  V30 20821 H 1985.6 0.170583 1.55366 0
M  V30 20822 H 1986.33 -2.23569 2.3492 0
M  V30 20823 H 1986.12 -1.14616 3.74974 0
M  V30 20824 H 1987.61 -2.12422 3.59537 0
M  V30 20825 N 1988.04 -1.56898 0.148573 0
M  V30 20826 C 1989.29 -1.96175 -0.502146 0
M  V30 20827 C 1989.62 -1.0335 -1.6477 0
M  V30 20828 O 1988.87 -0.0630213 -1.95599 0
M  V30 20829 C 1989.17 -3.41691 -1.04795 0
M  V30 20830 C 1988.84 -4.50895 -0.0206862 0
M  V30 20831 C 1987.5 -4.80488 0.261702 0
M  V30 20832 C 1989.85 -5.16774 0.677784 0
M  V30 20833 C 1987.18 -5.73266 1.24834 0
M  V30 20834 C 1989.53 -6.10615 1.65325 0
M  V30 20835 C 1988.2 -6.38585 1.94332 0
M  V30 20836 H 1987.47 -0.717856 -0.183748 0
M  V30 20837 H 1990.11 -1.90044 0.235735 0
M  V30 20838 H 1988.42 -3.44662 -1.8632 0
M  V30 20839 H 1990.12 -3.6941 -1.56004 0
M  V30 20840 H 1986.71 -4.27865 -0.250964 0
M  V30 20841 H 1990.89 -4.94043 0.472813 0
M  V30 20842 H 1986.15 -5.93229 1.4795 0
M  V30 20843 H 1990.32 -6.60738 2.19997 0
M  V30 20844 H 1987.95 -7.1028 2.70935 0
M  V30 20845 N 1989.52 0.125209 -1.57102 0
M  V30 20846 C 1990.45 1.15521 -2.02922 0
M  V30 20847 C 1991.43 1.43549 -0.912559 0
M  V30 20848 O 1992.62 1.54097 -1.18185 0
M  V30 20849 C 1989.75 2.48297 -2.42829 0
M  V30 20850 C 1988.7 2.34744 -3.57881 0
M  V30 20851 C 1988.03 3.72427 -3.83669 0
M  V30 20852 C 1989.33 1.81317 -4.89818 0
M  V30 20853 H 1991.02 0.774129 -2.89219 0
M  V30 20854 H 1988.57 0.370935 -1.3914 0
M  V30 20855 H 1990.52 3.20597 -2.73487 0
M  V30 20856 H 1989.25 2.88283 -1.53495 0
M  V30 20857 H 1987.9 1.64893 -3.27423 0
M  V30 20858 H 1987.55 4.09887 -2.9155 0
M  V30 20859 H 1987.25 3.64215 -4.61109 0
M  V30 20860 H 1988.78 4.46242 -4.16773 0
M  V30 20861 H 1990.19 2.43429 -5.19052 0
M  V30 20862 H 1988.59 1.83941 -5.71214 0
M  V30 20863 H 1989.66 0.770291 -4.78743 0
M  V30 20864 N 1991 1.52564 0.395213 0
M  V30 20865 C 1991.95 1.769 1.48239 0
M  V30 20866 C 1992.92 0.611965 1.54416 0
M  V30 20867 O 1994.1 0.851019 1.7077 0
M  V30 20868 C 1991.24 1.93809 2.85538 0
M  V30 20869 C 1990.36 3.2149 2.88562 0
M  V30 20870 C 1989.49 3.28751 4.17248 0
M  V30 20871 C 1988.53 4.5058 4.143 0
M  V30 20872 N 1987.67 4.55156 5.34581 0
M  V30 20873 H 1992.51 2.69683 1.26788 0
M  V30 20874 H 1990.04 1.33618 0.615189 0
M  V30 20875 H 1992 2.01597 3.6526 0
M  V30 20876 H 1990.63 1.04394 3.05453 0
M  V30 20877 H 1989.68 3.22805 2.01249 0
M  V30 20878 H 1991 4.11262 2.82251 0
M  V30 20879 H 1990.15 3.35687 5.0537 0
M  V30 20880 H 1988.89 2.36943 4.26274 0
M  V30 20881 H 1987.89 4.43775 3.24567 0
M  V30 20882 H 1989.12 5.43698 4.06902 0
M  V30 20883 H 1987.06 3.66237 5.44248 0
M  V30 20884 H 1986.98 5.38791 5.30321 0
M  V30 20885 H 1988.25 4.6634 6.24618 0
M  V30 20886 N 1992.48 -0.653289 1.43422 0
M  V30 20887 C 1993.44 -1.74802 1.48246 0
M  V30 20888 C 1994.44 -1.56552 0.367179 0
M  V30 20889 O 1995.63 -1.62451 0.628923 0
M  V30 20890 C 1992.76 -3.13673 1.33499 0
M  V30 20891 H 1993.96 -1.71906 2.4574 0
M  V30 20892 H 1991.51 -0.864936 1.30187 0
M  V30 20893 H 1992.24 -3.22181 0.370118 0
M  V30 20894 H 1992.03 -3.28325 2.14348 0
M  V30 20895 H 1993.52 -3.93502 1.39806 0
M  V30 20896 N 1993.96 -1.29952 -0.891648 0
M  V30 20897 C 1994.89 -1.10092 -1.99887 0
M  V30 20898 C 1995.87 -0.0104614 -1.62597 0
M  V30 20899 O 1997.05 -0.162725 -1.87796 0
M  V30 20900 C 1994.18 -0.677652 -3.31852 0
M  V30 20901 C 1993.22 -1.768 -3.88129 0
M  V30 20902 S 1994.06 -3.36899 -4.16244 0
M  V30 20903 C 1995.21 -2.96459 -5.51237 0
M  V30 20904 H 1995.45 -2.0383 -2.16427 0
M  V30 20905 H 1992.98 -1.1419 -1.03923 0
M  V30 20906 H 1994.94 -0.440168 -4.08133 0
M  V30 20907 H 1993.6 0.240259 -3.1318 0
M  V30 20908 H 1992.79 -1.42397 -4.83466 0
M  V30 20909 H 1992.39 -1.95942 -3.18564 0
M  V30 20910 H 1994.69 -2.44005 -6.32035 0
M  V30 20911 H 1995.63 -3.90678 -5.90573 0
M  V30 20912 H 1996.04 -2.3452 -5.13479 0
M  V30 20913 N 1995.44 1.1031 -1.12559 0
M  V30 20914 C 1996.37 2.18738 -0.817073 0
M  V30 20915 C 1997.35 1.68675 0.219681 0
M  V30 20916 O 1998.53 1.94033 0.0805889 0
M  V30 20917 C 1995.66 3.46231 -0.272317 0
M  V30 20918 C 1994.62 4.09575 -1.24228 0
M  V30 20919 C 1993.94 5.31784 -0.557693 0
M  V30 20920 C 1995.24 4.53135 -2.59743 0
M  V30 20921 H 1996.94 2.44802 -1.72372 0
M  V30 20922 H 1994.48 1.17658 -0.830221 0
M  V30 20923 H 1996.43 4.21377 -0.0442049 0
M  V30 20924 H 1995.16 3.19661 0.669677 0
M  V30 20925 H 1993.82 3.36437 -1.45622 0
M  V30 20926 H 1993.47 5.0149 0.389484 0
M  V30 20927 H 1993.17 5.75117 -1.20473 0
M  V30 20928 H 1994.69 6.0966 -0.338649 0
M  V30 20929 H 1996.1 5.19548 -2.42369 0
M  V30 20930 H 1994.5 5.07322 -3.20537 0
M  V30 20931 H 1995.57 3.65989 -3.18088 0
M  V30 20932 N 1996.91 0.917694 1.28125 0
M  V30 20933 C 1998.14 0.56827 1.99463 0
M  V30 20934 C 1998.56 -0.844246 1.6809 0
M  V30 20935 O 1997.92 -1.56487 0.915504 0
M  V30 20936 C 1997.97 0.788859 3.51866 0
M  V30 20937 O 1997.07 -0.150301 4.12126 0
M  V30 20938 H 1996.41 0.219899 0.626531 0
M  V30 20939 H 1998.94 1.23421 1.63182 0
M  V30 20940 H 1998.95 0.700502 4.01942 0
M  V30 20941 H 1997.63 1.81855 3.74034 0
M  V30 20942 H 1996.21 -0.012878 3.72898 0
M  V30 20943 N 1998.39 -1.42074 0.682102 0
M  V30 20944 C 1999.62 -2.05769 0.216029 0
M  V30 20945 C 2000.03 -1.51278 -1.12962 0
M  V30 20946 O 1999.39 -0.655521 -1.70321 0
M  V30 20947 C 1999.44 -3.61187 0.150351 0
M  V30 20948 O 1999.16 -4.13659 1.44283 0
M  V30 20949 C 2000.66 -4.42007 -0.338339 0
M  V30 20950 H 1997.88 -0.662997 0.103326 0
M  V30 20951 H 2000.43 -1.82084 0.930895 0
M  V30 20952 H 1998.58 -3.83958 -0.515249 0
M  V30 20953 H 1999 -5.07592 1.32101 0
M  V30 20954 H 2000.47 -5.50994 -0.33319 0
M  V30 20955 H 2000.95 -4.17125 -1.37489 0
M  V30 20956 H 2001.55 -4.2427 0.295782 0
M  V30 20957 N 1999.87 -0.425924 -1.51735 0
M  V30 20958 C 2001.12 0.144058 -2.01586 0
M  V30 20959 C 2001.44 1.44204 -1.31264 0
M  V30 20960 O 2000.71 1.9081 -0.443661 0
M  V30 20961 H 1999.29 0.0562264 -0.744881 0
M  V30 20962 H 2001.95 -0.566016 -1.865 0
M  V30 20963 H 2001.05 0.328161 -3.1037 0
M  V30 20964 N 2001.35 1.56817 -0.156891 0
M  V30 20965 C 2002.59 1.96439 0.491735 0
M  V30 20966 C 2002.92 1.04222 1.64219 0
M  V30 20967 O 2002.18 0.0733934 1.95562 0
M  V30 20968 C 2002.48 3.42242 1.02981 0
M  V30 20969 C 2002.14 4.509 -0.00322619 0
M  V30 20970 C 2000.8 4.80342 -0.28718 0
M  V30 20971 C 2003.16 5.16407 -0.70518 0
M  V30 20972 C 2000.48 5.72595 -1.27872 0
M  V30 20973 C 2002.84 6.09729 -1.68561 0
M  V30 20974 C 2001.5 6.37546 -1.97716 0
M  V30 20975 H 2000.77 0.718821 0.179939 0
M  V30 20976 H 2003.42 1.89916 -0.24581 0
M  V30 20977 H 2001.72 3.45646 1.8449 0
M  V30 20978 H 2003.42 3.70232 1.54043 0
M  V30 20979 H 2000.01 4.27992 0.228269 0
M  V30 20980 H 2004.19 4.93785 -0.499006 0
M  V30 20981 H 1999.45 5.92436 -1.51094 0
M  V30 20982 H 2003.62 6.59562 -2.23498 0
M  V30 20983 H 2001.25 7.08833 -2.74698 0
M  V30 20984 N 2002.83 -0.116876 1.57166 0
M  V30 20985 C 2003.77 -1.14325 2.00496 0
M  V30 20986 C 2004.74 -1.41031 0.877465 0
M  V30 20987 O 2005.93 -1.52861 1.14185 0
M  V30 20988 C 2003.07 -2.46409 2.41612 0
M  V30 20989 C 2002.18 -2.26621 3.67787 0
M  V30 20990 C 2001.32 -3.51951 3.97875 0
M  V30 20991 C 2000.35 -3.27329 5.17225 0
M  V30 20992 N 1999.49 -4.44867 5.43174 0
M  V30 20993 H 2004.33 -0.766757 2.87967 0
M  V30 20994 H 2001.87 -0.367106 1.42446 0
M  V30 20995 H 2003.83 -3.23465 2.63488 0
M  V30 20996 H 2002.46 -2.81947 1.5718 0
M  V30 20997 H 2001.51 -1.40472 3.53513 0
M  V30 20998 H 2002.82 -2.04405 4.54994 0
M  V30 20999 H 2001.97 -4.37424 4.20411 0
M  V30 21000 H 2000.71 -3.772 3.09147 0
M  V30 21001 H 1999.72 -2.40247 4.94532 0
M  V30 21002 H 2000.94 -3.03448 6.07533 0
M  V30 21003 H 1998.89 -4.70233 4.57403 0
M  V30 21004 H 1998.81 -4.25764 6.24709 0
M  V30 21005 H 2000.07 -5.31468 5.7023 0
M  V30 21006 N 2004.3 -1.52772 -0.387116 0
M  V30 21007 C 2005.55 -1.67131 -1.12916 0
M  V30 21008 C 2005.87 -0.418501 -1.9107 0
M  V30 21009 O 2007.07 -0.442261 -2.67874 0
M  V30 21010 C 2005.53 -2.95368 -2.05635 0
M  V30 21011 C 2005.14 -4.27835 -1.32895 0
M  V30 21012 C 2006.88 -3.19093 -2.79964 0
M  V30 21013 C 2004.79 -5.47177 -2.2439 0
M  V30 21014 H 2003.72 -0.622655 -0.425225 0
M  V30 21015 H 2006.37 -1.79268 -0.391801 0
M  V30 21016 H 2004.75 -2.76981 -2.83015 0
M  V30 21017 H 2005.92 -4.56781 -0.607276 0
M  V30 21018 H 2004.24 -4.10385 -0.705181 0
M  V30 21019 H 2006.84 -4.05436 -3.48605 0
M  V30 21020 H 2007.18 -2.34244 -3.44145 0
M  V30 21021 H 2007.71 -3.38054 -2.09676 0
M  V30 21022 H 2004.45 -6.3444 -1.64822 0
M  V30 21023 H 2003.97 -5.22541 -2.94468 0
M  V30 21024 H 2005.65 -5.81126 -2.84432 0
M  V30 21025 N 2005.78 0.645673 -1.43767 0
M  V30 21026 C 2007.19 1.22702 -1.40717 0
M  V30 21027 C 2007.54 1.95862 -0.115066 0
M  V30 21028 O 2006.67 2.01652 0.785197 0
M  V30 21029 C 2007.26 2.23174 -2.54909 0
M  V30 21030 C 2005.82 2.76769 -2.551 0
M  V30 21031 C 2004.97 1.5153 -2.32237 0
M  V30 21032 H 2007.92 0.437227 -1.52558 0
M  V30 21033 H 2007.94 3.05497 -2.2683 0
M  V30 21034 H 2007.45 1.69898 -3.48936 0
M  V30 21035 H 2005.55 3.34087 -1.64974 0
M  V30 21036 H 2005.67 3.23799 -3.53116 0
M  V30 21037 H 2004.03 1.79146 -1.81049 0
M  V30 21038 H 2004.81 1.00177 -3.28359 0
M  V30 21039 N 2007.26 1.30423 0.884744 0
M  V30 21040 C 2008.19 1.12637 1.99613 0
M  V30 21041 C 2009.2 0.0695549 1.62651 0
M  V30 21042 O 2010.39 0.315593 1.75688 0
M  V30 21043 C 2007.49 0.695652 3.31683 0
M  V30 21044 C 2006.67 1.83427 3.97081 0
M  V30 21045 C 2005.73 1.39206 5.07453 0
M  V30 21046 O 2004.75 2.09931 5.29072 0
M  V30 21047 N 2005.95 0.27121 5.79866 0
M  V30 21048 H 2008.72 2.0836 2.15421 0
M  V30 21049 H 2006.28 1.22561 1.05784 0
M  V30 21050 H 2008.27 0.382828 4.02885 0
M  V30 21051 H 2006.84 -0.169542 3.1214 0
M  V30 21052 H 2006.06 2.31519 3.19049 0
M  V30 21053 H 2007.35 2.5973 4.37513 0
M  V30 21054 H 2006.75 -0.318111 5.64805 0
M  V30 21055 H 2005.3 0.0178406 6.51798 0
M  V30 21056 N 2008.74 -1.09711 1.13142 0
M  V30 21057 C 2009.68 -2.16265 0.806118 0
M  V30 21058 C 2010.65 -1.64493 -0.230476 0
M  V30 21059 O 2011.84 -1.9052 -0.103375 0
M  V30 21060 C 2008.98 -3.44002 0.275075 0
M  V30 21061 C 2008.09 -4.09688 1.37038 0
M  V30 21062 C 2007.23 -5.25172 0.797983 0
M  V30 21063 C 2006.27 -5.82775 1.87189 0
M  V30 21064 N 2005.4 -6.89625 1.31766 0
M  V30 21065 H 2010.24 -2.43434 1.71883 0
M  V30 21066 H 2007.78 -1.19482 0.858044 0
M  V30 21067 H 2009.74 -4.17169 -0.0509244 0
M  V30 21068 H 2008.37 -3.1716 -0.600779 0
M  V30 21069 H 2007.42 -3.34415 1.81302 0
M  V30 21070 H 2008.73 -4.48535 2.18215 0
M  V30 21071 H 2007.89 -6.05223 0.423093 0
M  V30 21072 H 2006.63 -4.87679 -0.0448997 0
M  V30 21073 H 2005.63 -5.01388 2.25588 0
M  V30 21074 H 2006.86 -6.2233 2.71812 0
M  V30 21075 H 2004.8 -6.54117 0.496729 0
M  V30 21076 H 2004.72 -7.27224 2.06594 0
M  V30 21077 H 2005.99 -7.73438 0.970242 0
M  V30 21078 N 2010.22 -0.924476 -1.27637 0
M  V30 21079 C 2011.46 -0.562107 -1.94126 0
M  V30 21080 C 2011.79 0.898999 -1.7304 0
M  V30 21081 O 2011.06 1.63686 -1.07627 0
M  V30 21082 H 2009.64 -0.204894 -0.718351 0
M  V30 21083 H 2012.3 -1.17617 -1.5541 0
M  V30 21084 H 2011.39 -0.765644 -3.02563 0
M  V30 21085 N 2011.69 1.41711 -0.689627 0
M  V30 21086 C 2012.94 2.00548 -0.215219 0
M  V30 21087 C 2013.26 1.55228 1.19011 0
M  V30 21088 O 2014.46 2.06585 1.76167 0
M  V30 21089 C 2012.92 3.58348 -0.333888 0
M  V30 21090 C 2012.53 4.12652 -1.74421 0
M  V30 21091 C 2014.27 4.24423 0.0810486 0
M  V30 21092 C 2012.18 5.62865 -1.81485 0
M  V30 21093 H 2011.11 0.750088 -0.0767043 0
M  V30 21094 H 2013.76 1.6226 -0.856963 0
M  V30 21095 H 2012.14 3.94211 0.376004 0
M  V30 21096 H 2013.31 3.8822 -2.48238 0
M  V30 21097 H 2011.63 3.59082 -2.1083 0
M  V30 21098 H 2014.23 5.34678 0.0486243 0
M  V30 21099 H 2014.57 4.00984 1.1188 0
M  V30 21100 H 2015.1 3.93573 -0.578357 0
M  V30 21101 H 2011.84 5.91122 -2.83292 0
M  V30 21102 H 2011.36 5.89242 -1.12044 0
M  V30 21103 H 2013.04 6.27536 -1.57503 0
M  V30 21104 N 2013.17 0.433965 1.51507 0
M  V30 21105 C 2014.1 -0.369789 2.30553 0
M  V30 21106 C 2015.08 -1.02405 1.35821 0
M  V30 21107 O 2016.27 -1.02833 1.64739 0
M  V30 21108 C 2013.4 -1.47312 3.1451 0
M  V30 21109 C 2012.35 -0.942531 4.17493 0
M  V30 21110 C 2011.68 -2.14135 4.89949 0
M  V30 21111 C 2012.98 0.0206958 5.22296 0
M  V30 21112 H 2014.67 0.289851 2.97994 0
M  V30 21113 H 2012.22 0.14084 1.4331 0
M  V30 21114 H 2014.17 -2.04259 3.68587 0
M  V30 21115 H 2012.9 -2.161 2.44884 0
M  V30 21116 H 2011.55 -0.395296 3.64463 0
M  V30 21117 H 2011.2 -2.81535 4.1683 0
M  V30 21118 H 2010.9 -1.79273 5.59584 0
M  V30 21119 H 2012.43 -2.71642 5.46848 0
M  V30 21120 H 2013.84 -0.458366 5.71465 0
M  V30 21121 H 2012.24 0.281718 5.99438 0
M  V30 21122 H 2013.31 0.958416 4.75334 0
M  V30 21123 N 2014.65 -1.56732 0.165206 0
M  V30 21124 C 2015.9 -1.95872 -0.481368 0
M  V30 21125 C 2016.21 -1.05357 -1.64801 0
M  V30 21126 O 2017.42 -1.34152 -2.36041 0
M  V30 21127 C 2015.87 -3.48264 -0.907766 0
M  V30 21128 C 2015.48 -4.47394 0.232939 0
M  V30 21129 C 2017.23 -3.96235 -1.5231 0
M  V30 21130 C 2015.13 -5.91017 -0.212747 0
M  V30 21131 H 2014.06 -0.731304 -0.183605 0
M  V30 21132 H 2016.71 -1.81755 0.252461 0
M  V30 21133 H 2015.1 -3.57777 -1.69739 0
M  V30 21134 H 2016.27 -4.49591 1.01018 0
M  V30 21135 H 2014.59 -4.09446 0.757843 0
M  V30 21136 H 2017.18 -5.0099 -1.8685 0
M  V30 21137 H 2017.53 -3.38822 -2.41879 0
M  V30 21138 H 2018.06 -3.89713 -0.798029 0
M  V30 21139 H 2014.8 -6.52289 0.648008 0
M  V30 21140 H 2014.32 -5.92141 -0.955479 0
M  V30 21141 H 2016 -6.43638 -0.658675 0
M  V30 21142 N 2016.13 0.10854 -1.57226 0
M  V30 21143 C 2017.38 0.812858 -1.85033 0
M  V30 21144 C 2017.7 1.79919 -0.751944 0
M  V30 21145 O 2016.97 1.94626 0.223093 0
M  V30 21146 H 2015.55 0.303181 -0.682708 0
M  V30 21147 H 2018.21 0.0933699 -1.94676 0
M  V30 21148 H 2017.31 1.35169 -2.81311 0
M  V30 21149 N 2017.61 1.52975 0.379009 0
M  V30 21150 C 2018.86 1.67728 1.12028 0
M  V30 21151 C 2019.17 0.428628 1.90846 0
M  V30 21152 O 2020.37 0.456461 2.67635 0
M  V30 21153 C 2018.83 2.96454 2.04066 0
M  V30 21154 C 2018.44 4.28534 1.30624 0
M  V30 21155 C 2020.18 3.20574 2.78267 0
M  V30 21156 C 2018.09 5.4836 2.21485 0
M  V30 21157 H 2017.02 0.624902 0.421917 0
M  V30 21158 H 2019.67 1.79474 0.382288 0
M  V30 21159 H 2018.05 2.78478 2.81542 0
M  V30 21160 H 2019.23 4.57097 0.583043 0
M  V30 21161 H 2017.54 4.10754 0.683407 0
M  V30 21162 H 2020.14 4.07279 3.4645 0
M  V30 21163 H 2020.48 2.36066 3.42898 0
M  V30 21164 H 2021.01 3.39162 2.0788 0
M  V30 21165 H 2017.75 6.35305 1.61455 0
M  V30 21166 H 2017.27 5.24095 2.91692 0
M  V30 21167 H 2018.95 5.82626 2.81346 0
M  V30 21168 N 2019.08 -0.63804 1.44107 0
M  V30 21169 C 2020.02 -1.76333 1.46421 0
M  V30 21170 C 2021.03 -1.58805 0.358429 0
M  V30 21171 O 2022.22 -1.67246 0.623768 0
M  V30 21172 C 2019.32 -3.13967 1.27586 0
M  V30 21173 C 2018.49 -3.58016 2.51283 0
M  V30 21174 C 2017.55 -4.74503 2.27449 0
M  V30 21175 O 2016.58 -4.83167 3.00895 0
M  V30 21176 N 2017.78 -5.6574 1.3007 0
M  V30 21177 H 2020.54 -1.74822 2.43429 0
M  V30 21178 H 2018.1 -0.822384 1.39458 0
M  V30 21179 H 2020.1 -3.89605 1.09499 0
M  V30 21180 H 2018.67 -3.10162 0.389684 0
M  V30 21181 H 2017.89 -2.7266 2.84693 0
M  V30 21182 H 2019.17 -3.84197 3.33572 0
M  V30 21183 H 2018.57 -5.61427 0.693968 0
M  V30 21184 H 2017.13 -6.41037 1.17964 0
M  V30 21185 N 2020.56 -1.3089 -0.877815 0
M  V30 21186 C 2021.49 -1.13694 -1.99013 0
M  V30 21187 C 2022.51 -0.0781797 -1.62612 0
M  V30 21188 O 2023.7 -0.324906 -1.75518 0
M  V30 21189 C 2020.8 -0.713232 -3.3131 0
M  V30 21190 C 2019.97 -1.8553 -3.96103 0
M  V30 21191 C 2019.03 -1.41895 -5.06707 0
M  V30 21192 O 2018.05 -2.12734 -5.27952 0
M  V30 21193 N 2019.26 -0.301958 -5.79714 0
M  V30 21194 H 2022.02 -2.09499 -2.14313 0
M  V30 21195 H 2019.58 -1.2312 -1.05133 0
M  V30 21196 H 2021.57 -0.404189 -4.02677 0
M  V30 21197 H 2020.14 0.152987 -3.12225 0
M  V30 21198 H 2019.36 -2.33208 -3.17817 0
M  V30 21199 H 2020.65 -2.62046 -4.3613 0
M  V30 21200 H 2020.05 0.288154 -5.64966 0
M  V30 21201 H 2018.61 -0.0524068 -6.51779 0
M  V30 21202 N 2022.04 1.0911 -1.13723 0
M  V30 21203 C 2023.27 1.85648 -0.924643 0
M  V30 21204 C 2023.69 1.80727 0.521458 0
M  V30 21205 O 2023.05 1.18712 1.3703 0
M  V30 21206 C 2023.1 3.31415 -1.42115 0
M  V30 21207 O 2022.2 4.07886 -0.608521 0
M  V30 21208 H 2021.54 0.575539 -0.331136 0
M  V30 21209 H 2024.07 1.37763 -1.5127 0
M  V30 21210 H 2024.08 3.82262 -1.42619 0
M  V30 21211 H 2022.76 3.34311 -2.47404 0
M  V30 21212 H 2021.33 3.66802 -0.671625 0
M  V30 21213 N 2023.52 0.931232 1.27145 0
M  V30 21214 C 2024.77 0.573527 1.94208 0
M  V30 21215 C 2025.09 -0.885797 1.73159 0
M  V30 21216 O 2024.35 -1.64765 1.05598 0
M  V30 21217 C 2024.65 0.850081 3.47143 0
M  V30 21218 C 2024.31 2.29171 3.88319 0
M  V30 21219 C 2022.98 2.68581 3.99271 0
M  V30 21220 C 2025.33 3.22903 4.09125 0
M  V30 21221 C 2022.66 4.00841 4.2842 0
M  V30 21222 C 2025.01 4.54747 4.39759 0
M  V30 21223 C 2023.67 4.93987 4.48924 0
M  V30 21224 H 2022.94 0.209868 0.710659 0
M  V30 21225 H 2025.59 1.17586 1.51148 0
M  V30 21226 H 2023.89 0.165107 3.91452 0
M  V30 21227 H 2025.59 0.552233 3.97179 0
M  V30 21228 H 2022.18 1.97597 3.80334 0
M  V30 21229 H 2026.36 2.93656 4.001 0
M  V30 21230 H 2021.62 4.3092 4.33726 0
M  V30 21231 H 2025.79 5.27377 4.54804 0
M  V30 21232 H 2023.42 5.96501 4.71265 0
M  V30 21233 N 2025 -1.41343 0.697132 0
M  V30 21234 C 2026.41 -1.5528 0.368838 0
M  V30 21235 C 2026.61 -1.67234 -1.12406 0
M  V30 21236 O 2025.67 -1.65163 -1.90991 0
M  V30 21237 C 2026.98 -2.79114 1.11873 0
M  V30 21238 C 2028.53 -2.92913 1.10323 0
M  V30 21239 C 2029.01 -4.19637 1.83491 0
M  V30 21240 N 2030.5 -4.26598 1.80468 0
M  V30 21241 C 2031.23 -5.23516 2.33919 0
M  V30 21242 N 2030.73 -6.26455 2.95849 0
M  V30 21243 N 2032.52 -5.15467 2.24166 0
M  V30 21244 H 2024.67 -1.31829 1.66538 0
M  V30 21245 H 2026.93 -0.636129 0.702882 0
M  V30 21246 H 2026.64 -2.76496 2.17354 0
M  V30 21247 H 2026.51 -3.70679 0.69833 0
M  V30 21248 H 2028.9 -2.95046 0.0566834 0
M  V30 21249 H 2028.98 -2.02517 1.56271 0
M  V30 21250 H 2028.63 -4.18265 2.88126 0
M  V30 21251 H 2028.56 -5.09008 1.34976 0
M  V30 21252 H 2031.05 -3.52842 1.35318 0
M  V30 21253 H 2031.36 -6.96801 3.34198 0
M  V30 21254 H 2029.71 -6.26952 2.99927 0
M  V30 21255 H 2032.9 -4.33973 1.75456 0
M  V30 21256 H 2033.07 -5.90831 2.66126 0
M  V30 21257 N 2026.48 -0.441993 -1.51275 0
M  V30 21258 C 2027.89 0.0200405 -1.86689 0
M  V30 21259 C 2028.24 1.41527 -1.35885 0
M  V30 21260 O 2027.36 2.04366 -0.711583 0
M  V30 21261 C 2027.96 0.0431426 -3.38773 0
M  V30 21262 C 2026.52 0.449604 -3.73705 0
M  V30 21263 C 2025.66 -0.354706 -2.75022 0
M  V30 21264 H 2028.61 -0.657627 -1.44433 0
M  V30 21265 H 2028.64 0.851643 -3.70847 0
M  V30 21266 H 2028.15 -0.97245 -3.75719 0
M  V30 21267 H 2026.25 1.47063 -3.4235 0
M  V30 21268 H 2026.36 0.171167 -4.78794 0
M  V30 21269 H 2024.73 0.187631 -2.54008 0
M  V30 21270 H 2025.51 -1.36926 -3.14811 0
M  V30 21271 N 2027.95 1.56642 -0.173515 0
M  V30 21272 C 2029.37 1.58552 0.182625 0
M  V30 21273 C 2029.57 1.18895 1.62685 0
M  V30 21274 O 2028.63 0.901576 2.35856 0
M  V30 21275 C 2029.94 3.00533 -0.100181 0
M  V30 21276 C 2031.49 3.12976 -0.038567 0
M  V30 21277 C 2031.96 4.57053 -0.294392 0
M  V30 21278 N 2033.45 4.62566 -0.242245 0
M  V30 21279 C 2034.19 5.71901 -0.414333 0
M  V30 21280 N 2033.68 6.89785 -0.645597 0
M  V30 21281 N 2035.48 5.61009 -0.350085 0
M  V30 21282 H 2027.63 1.80706 -1.1162 0
M  V30 21283 H 2029.89 0.837643 -0.443912 0
M  V30 21284 H 2029.6 3.34031 -1.10073 0
M  V30 21285 H 2029.47 3.72281 0.607196 0
M  V30 21286 H 2031.86 2.79303 0.952559 0
M  V30 21287 H 2031.94 2.4366 -0.778688 0
M  V30 21288 H 2031.58 4.91435 -1.28274 0
M  V30 21289 H 2031.51 5.24531 0.466366 0
M  V30 21290 H 2034 3.77837 -0.0692351 0
M  V30 21291 H 2034.32 7.68991 -0.766299 0
M  V30 21292 H 2032.66 6.91643 -0.682238 0
M  V30 21293 H 2035.85 4.67791 -0.169986 0
M  V30 21294 H 2036.03 6.46163 -0.487625 0
M  V30 21295 N 2029.43 -0.1002 1.57281 0
M  V30 21296 C 2030.68 -0.804623 1.85828 0
M  V30 21297 C 2031.01 -1.78981 0.761313 0
M  V30 21298 O 2030.26 -1.94153 -0.245591 0
M  V30 21299 C 2030.56 -1.57263 3.20941 0
M  V30 21300 C 2030.23 -0.730033 4.44951 0
M  V30 21301 C 2028.89 -0.497735 4.78619 0
M  V30 21302 C 2031.24 -0.143946 5.21001 0
M  V30 21303 C 2028.57 0.330597 5.85768 0
M  V30 21304 C 2030.92 0.671681 6.29024 0
M  V30 21305 C 2029.58 0.914119 6.61211 0
M  V30 21306 H 2028.85 -0.294433 0.679993 0
M  V30 21307 H 2031.5 -0.0662872 1.91385 0
M  V30 21308 H 2029.81 -2.3824 3.11045 0
M  V30 21309 H 2031.5 -2.12197 3.40255 0
M  V30 21310 H 2028.09 -0.921196 4.18583 0
M  V30 21311 H 2032.28 -0.310588 4.95327 0
M  V30 21312 H 2027.53 0.527461 6.09121 0
M  V30 21313 H 2031.71 1.13271 6.87126 0
M  V30 21314 H 2029.33 1.55777 7.44068 0
M  V30 21315 N 2030.91 -1.53174 -0.370891 0
M  V30 21316 C 2031.84 -1.82213 -1.46017 0
M  V30 21317 C 2032.82 -0.675274 -1.56122 0
M  V30 21318 O 2034.01 -0.924614 -1.70776 0
M  V30 21319 C 2031.14 -2.00727 -2.83419 0
M  V30 21320 C 2030.09 -3.16478 -2.88141 0
M  V30 21321 C 2029.42 -3.20276 -4.28167 0
M  V30 21322 C 2030.72 -4.55179 -2.56143 0
M  V30 21323 H 2032.41 -2.73432 -1.21965 0
M  V30 21324 H 2029.96 -1.31569 -0.585288 0
M  V30 21325 H 2031.91 -2.19625 -3.59643 0
M  V30 21326 H 2030.63 -1.06213 -3.08847 0
M  V30 21327 H 2029.29 -2.97392 -2.14367 0
M  V30 21328 H 2028.94 -2.2341 -4.50663 0
M  V30 21329 H 2028.64 -3.98044 -4.32244 0
M  V30 21330 H 2030.16 -3.41352 -5.06272 0
M  V30 21331 H 2031.58 -4.74274 -3.22082 0
M  V30 21332 H 2029.97 -5.35148 -2.71544 0
M  V30 21333 H 2031.04 -4.60654 -1.51412 0
M  V30 21334 N 2032.39 0.630389 -1.44443 0
M  V30 21335 C 2033.64 1.38719 -1.46975 0
M  V30 21336 C 2033.96 1.94723 -0.103861 0
M  V30 21337 O 2033.23 1.75822 0.863919 0
M  V30 21338 H 2031.81 0.5149 -0.54119 0
M  V30 21339 H 2034.47 0.741905 -1.80227 0
M  V30 21340 H 2033.56 2.21813 -2.19557 0
M  V30 21341 N 2033.87 1.31354 0.870861 0
M  V30 21342 C 2035.11 1.21167 1.62623 0
M  V30 21343 C 2035.44 -0.22989 1.92835 0
M  V30 21344 O 2034.72 -1.16257 1.55931 0
M  V30 21345 C 2035 2.05505 2.95702 0
M  V30 21346 C 2034.86 3.57955 2.72375 0
M  V30 21347 C 2036.17 1.90375 3.96794 0
M  V30 21348 H 2033.29 0.441517 0.590111 0
M  V30 21349 H 2035.94 1.61134 1.00676 0
M  V30 21350 H 2034.09 1.71549 3.48573 0
M  V30 21351 H 2035.76 4.02044 2.26183 0
M  V30 21352 H 2034 3.81431 2.06623 0
M  V30 21353 H 2034.67 4.12273 3.67063 0
M  V30 21354 H 2037.15 2.20089 3.53129 0
M  V30 21355 H 2036.02 2.51689 4.87795 0
M  V30 21356 H 2036.28 0.866804 4.33519 0
M  V30 21357 N 2035.34 -1.08505 1.143 0
M  V30 21358 C 2036.31 -2.13573 0.831813 0
M  V30 21359 C 2037.31 -1.59971 -0.163092 0
M  V30 21360 O 2038.5 -1.74078 0.0651356 0
M  V30 21361 C 2035.63 -3.40056 0.239795 0
M  V30 21362 H 2036.82 -2.4261 1.76297 0
M  V30 21363 H 2034.37 -1.24201 0.94889 0
M  V30 21364 H 2035.11 -3.16652 -0.700121 0
M  V30 21365 H 2034.89 -3.80257 0.956388 0
M  V30 21366 H 2036.38 -4.17582 0.0392538 0
M  V30 21367 N 2036.82 -0.937962 -1.26649 0
M  V30 21368 C 2037.73 -0.451023 -2.30224 0
M  V30 21369 C 2038.75 0.473402 -1.67436 0
M  V30 21370 O 2039.92 0.353715 -1.9827 0
M  V30 21371 C 2036.99 0.278943 -3.45576 0
M  V30 21372 C 2036.05 -0.681649 -4.23854 0
M  V30 21373 C 2035.28 0.0135756 -5.33698 0
M  V30 21374 O 2035.51 1.2311 -5.56956 0
M  V30 21375 O 2034.44 -0.663486 -5.98232 0
M  V30 21376 H 2038.27 -1.31129 -2.73932 0
M  V30 21377 H 2035.85 -0.703717 -1.31788 0
M  V30 21378 H 2037.73 0.690262 -4.15708 0
M  V30 21379 H 2036.41 1.11465 -3.03903 0
M  V30 21380 H 2035.31 -1.14285 -3.56216 0
M  V30 21381 H 2036.65 -1.48488 -4.69268 0
M  V30 21382 N 2038.3 1.40971 -0.704618 0
M  V30 21383 C 2039.23 2.29199 -0.00575899 0
M  V30 21384 C 2040.24 1.45259 0.735102 0
M  V30 21385 O 2041.43 1.68666 0.584302 0
M  V30 21386 C 2038.53 3.23311 1.01604 0
M  V30 21387 C 2037.71 4.36053 0.342951 0
M  V30 21388 C 2036.77 5.10679 1.26861 0
M  V30 21389 O 2035.79 5.64136 0.757556 0
M  V30 21390 N 2036.99 5.18997 2.60043 0
M  V30 21391 H 2039.76 2.89818 -0.763264 0
M  V30 21392 H 2037.32 1.52222 -0.551367 0
M  V30 21393 H 2039.31 3.70104 1.63722 0
M  V30 21394 H 2037.88 2.63937 1.675 0
M  V30 21395 H 2037.1 3.91527 -0.458254 0
M  V30 21396 H 2038.39 5.08647 -0.124708 0
M  V30 21397 H 2037.79 4.77029 3.04072 0
M  V30 21398 H 2036.34 5.69336 3.17333 0
M  V30 21399 N 2039.78 0.45001 1.51039 0
M  V30 21400 C 2040.71 -0.345315 2.30933 0
M  V30 21401 C 2041.69 -1.00959 1.36899 0
M  V30 21402 O 2042.87 -1.0108 1.6582 0
M  V30 21403 C 2040 -1.43968 3.16055 0
M  V30 21404 C 2038.96 -0.898198 4.18469 0
M  V30 21405 C 2038.28 -2.08927 4.92193 0
M  V30 21406 C 2039.58 0.0760911 5.22245 0
M  V30 21407 H 2041.28 0.321441 2.97669 0
M  V30 21408 H 2038.82 0.156032 1.43152 0
M  V30 21409 H 2040.78 -2.00338 3.70732 0
M  V30 21410 H 2039.5 -2.1349 2.47163 0
M  V30 21411 H 2038.16 -0.356617 3.64861 0
M  V30 21412 H 2037.81 -2.77098 4.19792 0
M  V30 21413 H 2037.51 -1.73328 5.61454 0
M  V30 21414 H 2039.03 -2.65827 5.49698 0
M  V30 21415 H 2040.45 -0.397728 5.71919 0
M  V30 21416 H 2038.84 0.345281 5.99106 0
M  V30 21417 H 2039.91 1.00878 4.74291 0
M  V30 21418 N 2041.26 -1.56548 0.18182 0
M  V30 21419 C 2042.21 -2.15071 -0.756856 0
M  V30 21420 C 2043.19 -1.0878 -1.18557 0
M  V30 21421 O 2044.38 -1.34877 -1.14618 0
M  V30 21422 C 2041.51 -2.80324 -1.98175 0
M  V30 21423 C 2040.6 -3.93788 -1.57455 0
M  V30 21424 N 2040.99 -4.9813 -0.877524 0
M  V30 21425 C 2039.29 -4.05143 -1.86482 0
M  V30 21426 C 2039.99 -5.77765 -0.675425 0
M  V30 21427 N 2038.96 -5.29731 -1.22009 0
M  V30 21428 H 2042.77 -2.93109 -0.215455 0
M  V30 21429 H 2040.28 -1.62389 -0.0184721 0
M  V30 21430 H 2042.28 -3.20635 -2.66456 0
M  V30 21431 H 2040.94 -2.0377 -2.528 0
M  V30 21432 H 2041.95 -5.15135 -0.534425 0
M  V30 21433 H 2038.62 -3.39703 -2.42709 0
M  V30 21434 H 2040.01 -6.71787 -0.123453 0
M  V30 21435 N 2042.73 0.0918577 -1.57332 0
M  V30 21436 C 2043.68 1.13005 -2.03304 0
M  V30 21437 C 2044.68 1.4128 -0.934688 0
M  V30 21438 O 2045.88 1.40923 -1.11986 0
M  V30 21439 H 2042.26 0.381664 -0.647948 0
M  V30 21440 H 2044.23 0.716022 -2.89682 0
M  V30 21441 C 2042.98 2.44114 -2.47595 0
M  V30 21442 H 2042.3 2.23203 -3.31694 0
M  V30 21443 H 2043.74 3.15252 -2.83535 0
M  V30 21444 C 2042.2 3.08644 -1.35057 0
M  V30 21445 O 2042.73 3.95877 -0.681498 0
M  V30 21446 N 2040.94 2.68946 -1.10074 0
M  V30 21447 H 2040.48 1.98101 -1.64662 0
M  V30 21448 H 2040.44 3.12448 -0.349761 0
M  V30 21449 N 2044.21 1.53368 0.362763 0
M  V30 21450 C 2045.12 1.82969 1.46832 0
M  V30 21451 C 2046.14 0.718285 1.58482 0
M  V30 21452 O 2047.31 1.00863 1.74323 0
M  V30 21453 C 2044.38 2.01596 2.82064 0
M  V30 21454 C 2043.44 3.25491 2.79918 0
M  V30 21455 C 2042.67 3.4322 4.087 0
M  V30 21456 O 2042.9 2.65185 5.05008 0
M  V30 21457 O 2041.83 4.36585 4.1434 0
M  V30 21458 H 2045.66 2.769 1.24741 0
M  V30 21459 H 2043.24 1.38783 0.553131 0
M  V30 21460 H 2045.12 2.15403 3.62187 0
M  V30 21461 H 2043.8 1.10854 3.04127 0
M  V30 21462 H 2042.71 3.17105 1.98483 0
M  V30 21463 H 2044.04 4.16164 2.62809 0
M  V30 21464 N 2045.69 -0.62272 1.44776 0
M  V30 21465 C 2046.94 -1.37937 1.47708 0
M  V30 21466 C 2047.26 -1.94665 0.114186 0
M  V30 21467 O 2046.53 -1.76277 -0.854583 0
M  V30 21468 H 2045.11 -0.512023 0.543914 0
M  V30 21469 H 2047.77 -0.732336 1.80618 0
M  V30 21470 H 2046.87 -2.20646 2.2073 0
M  V30 21471 N 2047.17 -1.31814 -0.863883 0
M  V30 21472 C 2048.42 -1.21847 -1.61739 0
M  V30 21473 C 2048.74 0.221932 -1.9323 0
M  V30 21474 O 2048 1.1724 -1.56695 0
M  V30 21475 C 2048.3 -2.01404 -2.95248 0
M  V30 21476 C 2047.96 -3.50849 -2.83224 0
M  V30 21477 C 2046.63 -3.91597 -2.79653 0
M  V30 21478 C 2048.98 -4.45922 -2.6982 0
M  V30 21479 C 2046.31 -5.25675 -2.60543 0
M  V30 21480 C 2048.66 -5.80133 -2.52247 0
M  V30 21481 C 2047.32 -6.20094 -2.47062 0
M  V30 21482 H 2046.59 -0.445871 -0.591845 0
M  V30 21483 H 2049.24 -1.63143 -1.00282 0
M  V30 21484 H 2047.54 -1.52808 -3.60773 0
M  V30 21485 H 2049.24 -1.91069 -3.52553 0
M  V30 21486 H 2045.83 -3.1848 -2.86825 0
M  V30 21487 H 2050.01 -4.15368 -2.71631 0
M  V30 21488 H 2045.27 -5.55704 -2.54958 0
M  V30 21489 H 2049.44 -6.53424 -2.40853 0
M  V30 21490 H 2047.07 -7.23929 -2.32014 0
M  V30 21491 N 2048.65 1.07897 -1.14873 0
M  V30 21492 C 2049.59 2.14955 -0.840422 0
M  V30 21493 C 2050.56 1.64839 0.204277 0
M  V30 21494 O 2051.75 1.9066 0.0730523 0
M  V30 21495 C 2048.89 3.43521 -0.329768 0
M  V30 21496 C 2048 4.07456 -1.43538 0
M  V30 21497 C 2047.14 5.23836 -0.881432 0
M  V30 21498 C 2046.18 5.79723 -1.96437 0
M  V30 21499 N 2045.31 6.87441 -1.42721 0
M  V30 21500 H 2050.15 2.40669 -1.75734 0
M  V30 21501 H 2047.69 1.18102 -0.876944 0
M  V30 21502 H 2049.65 4.17197 -0.01545 0
M  V30 21503 H 2048.28 3.18076 0.550246 0
M  V30 21504 H 2047.33 3.31489 -1.86599 0
M  V30 21505 H 2048.64 4.45007 -2.25323 0
M  V30 21506 H 2047.8 6.04473 -0.519325 0
M  V30 21507 H 2046.53 4.87689 -0.0326916 0
M  V30 21508 H 2045.54 4.97736 -2.33536 0
M  V30 21509 H 2046.76 6.17927 -2.81678 0
M  V30 21510 H 2044.71 6.53244 -0.600731 0
M  V30 21511 H 2044.63 7.23845 -2.18137 0
M  V30 21512 H 2045.9 7.71797 -1.09317 0
M  V30 21513 N 2050.12 0.944665 1.2615 0
M  V30 21514 C 2051.05 0.47478 2.28622 0
M  V30 21515 C 2052.04 -0.473742 1.6337 0
M  V30 21516 O 2053.22 -0.374847 1.90548 0
M  V30 21517 C 2050.35 -0.2576 3.46343 0
M  V30 21518 C 2049.3 0.604701 4.23707 0
M  V30 21519 C 2048.63 -0.257841 5.34078 0
M  V30 21520 C 2049.93 1.8778 4.87377 0
M  V30 21521 H 2051.62 1.33122 2.68177 0
M  V30 21522 H 2049.17 0.641555 1.28919 0
M  V30 21523 H 2051.12 -0.597382 4.17144 0
M  V30 21524 H 2049.85 -1.14821 3.05751 0
M  V30 21525 H 2048.51 0.927426 3.54675 0
M  V30 21526 H 2048.15 -1.1479 4.89727 0
M  V30 21527 H 2047.85 0.315739 5.86751 0
M  V30 21528 H 2049.38 -0.592815 6.07715 0
M  V30 21529 H 2050.79 1.60505 5.50374 0
M  V30 21530 H 2049.19 2.39623 5.50182 0
M  V30 21531 H 2050.26 2.58705 4.10122 0
M  V30 21532 N 2051.6 -1.40596 0.712085 0
M  V30 21533 C 2052.85 -2.0095 0.250087 0
M  V30 21534 C 2053.18 -1.5645 -1.15558 0
M  V30 21535 O 2052.43 -0.773994 -1.79744 0
M  V30 21536 C 2052.73 -3.56346 0.27427 0
M  V30 21537 C 2052.4 -4.20416 1.62975 0
M  V30 21538 C 2051.06 -4.37632 2.0008 0
M  V30 21539 C 2053.41 -4.56187 2.52076 0
M  V30 21540 C 2050.74 -4.87899 3.2584 0
M  V30 21541 C 2053.09 -5.07853 3.77185 0
M  V30 21542 C 2051.76 -5.23277 4.14412 0
M  V30 21543 H 2051.03 -0.735327 0.0915134 0
M  V30 21544 H 2053.67 -1.68257 0.914427 0
M  V30 21545 H 2051.98 -3.88927 -0.473638 0
M  V30 21546 H 2053.67 -4.00873 -0.100977 0
M  V30 21547 H 2050.26 -4.07403 1.3312 0
M  V30 21548 H 2054.45 -4.42527 2.24686 0
M  V30 21549 H 2049.7 -4.98026 3.54655 0
M  V30 21550 H 2053.88 -5.34509 4.46401 0
M  V30 21551 H 2051.51 -5.6199 5.11929 0
M  V30 21552 N 2053.08 -0.458013 -1.50798 0
M  V30 21553 C 2054.04 0.331466 -2.26791 0
M  V30 21554 C 2055.04 0.931853 -1.31046 0
M  V30 21555 O 2056.23 0.803071 -1.54585 0
M  V30 21556 C 2053.37 1.4709 -3.07534 0
M  V30 21557 H 2054.56 -0.334805 -2.98025 0
M  V30 21558 H 2052.11 -0.211715 -1.54859 0
M  V30 21559 H 2052.85 2.17261 -2.40765 0
M  V30 21560 H 2052.63 1.04634 -3.77881 0
M  V30 21561 H 2054.12 2.02815 -3.65042 0
M  V30 21562 N 2054.56 1.56449 -0.190119 0
M  V30 21563 C 2055.79 2.01819 0.455699 0
M  V30 21564 C 2056.2 1.07029 1.55532 0
M  V30 21565 O 2055.56 0.0743024 1.82349 0
M  V30 21566 C 2055.61 3.4691 1.01663 0
M  V30 21567 O 2055.33 4.38083 -0.0391156 0
M  V30 21568 C 2056.83 4.07774 1.73882 0
M  V30 21569 H 2054.05 0.661091 0.114891 0
M  V30 21570 H 2056.6 2.02326 -0.297366 0
M  V30 21571 H 2054.75 3.47118 1.7201 0
M  V30 21572 H 2055.17 5.23138 0.377687 0
M  V30 21573 H 2056.64 5.11162 2.08368 0
M  V30 21574 H 2057.12 3.50946 2.64071 0
M  V30 21575 H 2057.72 4.11324 1.08132 0
M  V30 21576 N 2056.04 -0.0835127 1.57379 0
M  V30 21577 C 2056.95 -1.11858 2.06216 0
M  V30 21578 C 2057.96 -1.43137 0.989333 0
M  V30 21579 O 2059.14 -1.53548 1.30327 0
M  V30 21580 C 2056.2 -2.41603 2.48655 0
M  V30 21581 C 2055.27 -2.17401 3.70183 0
M  V30 21582 C 2054.5 -3.40959 4.10588 0
M  V30 21583 O 2054.72 -4.49637 3.50974 0
M  V30 21584 O 2053.66 -3.29863 5.03462 0
M  V30 21585 H 2057.48 -0.733741 2.94703 0
M  V30 21586 H 2055.07 -0.296834 1.46421 0
M  V30 21587 H 2056.95 -3.1798 2.76526 0
M  V30 21588 H 2055.62 -2.7949 1.63301 0
M  V30 21589 H 2054.53 -1.38767 3.47411 0
M  V30 21590 H 2055.86 -1.84401 4.56352 0
M  V30 21591 N 2057.52 -1.53558 -0.354624 0
M  V30 21592 C 2058.48 -1.80084 -1.41783 0
M  V30 21593 C 2059.48 -0.671552 -1.46105 0
M  V30 21594 O 2060.67 -0.939801 -1.46674 0
M  V30 21595 C 2057.8 -1.93284 -2.8081 0
M  V30 21596 H 2058.99 -2.75049 -1.19532 0
M  V30 21597 H 2056.55 -1.44802 -0.588388 0
M  V30 21598 H 2057.28 -1.00423 -3.0836 0
M  V30 21599 H 2057.07 -2.75432 -2.7907 0
M  V30 21600 H 2058.56 -2.15361 -3.57784 0
M  V30 21601 N 2058.99 0.615033 -1.45104 0
M  V30 21602 C 2060.22 1.40105 -1.52244 0
M  V30 21603 C 2060.64 1.88183 -0.152561 0
M  V30 21604 O 2059.99 1.61783 0.844537 0
M  V30 21605 C 2060.04 2.61056 -2.50064 0
M  V30 21606 O 2059.77 2.14979 -3.81727 0
M  V30 21607 C 2061.27 3.54003 -2.66828 0
M  V30 21608 H 2058.49 0.429133 -0.515835 0
M  V30 21609 H 2061.03 0.750744 -1.90221 0
M  V30 21610 H 2059.19 3.22145 -2.15178 0
M  V30 21611 H 2059.6 2.9351 -4.34686 0
M  V30 21612 H 2061.07 4.35434 -3.39266 0
M  V30 21613 H 2061.55 4.03861 -1.72606 0
M  V30 21614 H 2062.16 2.98773 -3.0268 0
M  V30 21615 N 2060.47 1.3227 0.85688 0
M  V30 21616 C 2061.7 1.25837 1.64863 0
M  V30 21617 C 2062.12 -0.171028 1.87321 0
M  V30 21618 O 2061.48 -1.12165 1.42438 0
M  V30 21619 C 2061.53 2.02105 2.9864 0
M  V30 21620 O 2060.63 1.36733 3.89073 0
M  V30 21621 H 2059.97 0.433799 0.502707 0
M  V30 21622 H 2062.5 1.7455 1.0674 0
M  V30 21623 H 2062.51 2.12195 3.48479 0
M  V30 21624 H 2061.19 3.06048 2.81616 0
M  V30 21625 H 2059.76 1.35177 3.47537 0
M  V30 21626 N 2061.95 -1.07287 1.15444 0
M  V30 21627 C 2063.23 -1.76634 0.840221 0
M  V30 21628 C 2063.61 -2.00384 -0.664037 0
M  V30 21629 O 2062.95 -1.62284 -1.60861 0
M  V30 21630 C 2063.16 -3.07439 1.65174 0
M  V30 21631 C 2064.51 -3.81773 1.85835 0
M  V30 21632 O 2065.54 -3.17252 1.61955 0
M  V30 21633 O 2064.4 -4.97656 2.25834 0
M  V30 21634 H 2061.49 -0.76708 0.309059 0
M  V30 21635 H 2064.04 -1.13646 1.26026 0
M  V30 21636 H 2062.81 -2.85774 2.67299 0
M  V30 21637 H 2062.43 -3.78159 1.22807 0
M  V30 21638 N 2063.43 -0.951342 -1.25647 0
M  V30 21639 C 2064.67 -0.614797 -1.93886 0
M  V30 21640 C 2065.03 0.838497 -1.73168 0
M  V30 21641 O 2064.32 1.5933 -1.06417 0
M  V30 21642 C 2064.52 -0.9052 -3.45747 0
M  V30 21643 C 2064.34 -2.38517 -3.81234 0
M  V30 21644 C 2063.11 -3.04215 -4.03462 0
M  V30 21645 C 2065.31 -3.36431 -3.88997 0
M  V30 21646 N 2063.29 -4.42119 -4.25916 0
M  V30 21647 C 2064.67 -4.5963 -4.16101 0
M  V30 21648 C 2066.72 -3.31315 -3.71665 0
M  V30 21649 C 2065.42 -5.78348 -4.27676 0
M  V30 21650 C 2067.45 -4.49368 -3.84477 0
M  V30 21651 C 2066.81 -5.71352 -4.1199 0
M  V30 21652 H 2062.91 -0.275524 -0.731854 0
M  V30 21653 H 2065.49 -1.22284 -1.51508 0
M  V30 21654 H 2063.67 -0.326116 -3.87028 0
M  V30 21655 H 2065.4 -0.528894 -4.01229 0
M  V30 21656 H 2062.15 -2.54797 -3.99219 0
M  V30 21657 H 2062.58 -5.13529 -4.41155 0
M  V30 21658 H 2067.22 -2.38054 -3.49414 0
M  V30 21659 H 2064.94 -6.72052 -4.48745 0
M  V30 21660 H 2068.52 -4.46953 -3.72457 0
M  V30 21661 H 2067.4 -6.61176 -4.21682 0
M  V30 21662 N 2064.91 1.40216 -0.719531 0
M  V30 21663 C 2065.84 2.33348 -0.08432 0
M  V30 21664 C 2066.82 1.53101 0.741225 0
M  V30 21665 O 2068 1.81553 0.68935 0
M  V30 21666 C 2065.13 3.37106 0.835256 0
M  V30 21667 C 2064.09 4.27845 0.115036 0
M  V30 21668 C 2063.41 5.22174 1.15059 0
M  V30 21669 C 2064.71 5.1198 -1.03314 0
M  V30 21670 H 2066.41 2.86716 -0.862219 0
M  V30 21671 H 2063.95 1.37858 -0.416073 0
M  V30 21672 H 2065.9 4.012 1.28905 0
M  V30 21673 H 2064.63 2.82142 1.6451 0
M  V30 21674 H 2063.29 3.6521 -0.318975 0
M  V30 21675 H 2062.94 4.63513 1.95359 0
M  V30 21676 H 2062.64 5.83727 0.673556 0
M  V30 21677 H 2064.16 5.89144 1.60441 0
M  V30 21678 H 2065.57 5.69505 -0.658522 0
M  V30 21679 H 2063.97 5.82596 -1.4388 0
M  V30 21680 H 2065.04 4.47725 -1.86199 0
M  V30 21681 N 2066.38 0.466004 1.50553 0
M  V30 21682 C 2067.33 -0.344889 2.30029 0
M  V30 21683 C 2068.33 -0.995031 1.37097 0
M  V30 21684 O 2069.53 -0.926717 1.54311 0
M  V30 21685 H 2065.91 -0.130059 0.740668 0
M  V30 21686 H 2067.88 0.345888 2.96389 0
M  V30 21687 C 2066.63 -1.41723 3.17506 0
M  V30 21688 H 2065.95 -0.926335 3.8892 0
M  V30 21689 H 2067.39 -1.95728 3.7612 0
M  V30 21690 C 2065.85 -2.41636 2.34763 0
M  V30 21691 O 2066.38 -3.46798 2.02716 0
M  V30 21692 N 2064.58 -2.13228 1.97439 0
M  V30 21693 H 2064.13 -1.27733 2.23701 0
M  V30 21694 H 2064.09 -2.80313 1.4238 0
M  V30 21695 N 2067.86 -1.56346 0.198413 0
M  V30 21696 C 2068.82 -2.1801 -0.707414 0
M  V30 21697 C 2069.82 -1.13547 -1.13858 0
M  V30 21698 O 2071.01 -1.38913 -1.05114 0
M  V30 21699 C 2068.15 -2.78484 -1.96621 0
M  V30 21700 H 2069.34 -2.99417 -0.170156 0
M  V30 21701 H 2066.89 -1.56216 -0.0512075 0
M  V30 21702 H 2067.63 -2.00884 -2.5459 0
M  V30 21703 H 2067.41 -3.54959 -1.66574 0
M  V30 21704 H 2068.9 -3.25823 -2.61207 0
M  V30 21705 N 2069.34 0.0751653 -1.57421 0
M  V30 21706 C 2070.29 1.10843 -2.04491 0
M  V30 21707 C 2071.28 1.4028 -0.94962 0
M  V30 21708 O 2072.49 1.39727 -1.13474 0
M  V30 21709 H 2068.86 0.37477 -0.651959 0
M  V30 21710 H 2070.83 0.685258 -2.90425 0
M  V30 21711 C 2069.58 2.41474 -2.50171 0
M  V30 21712 H 2068.91 2.19672 -3.34042 0
M  V30 21713 H 2070.35 3.12227 -2.86863 0
M  V30 21714 C 2068.81 3.07194 -1.38323 0
M  V30 21715 O 2069.34 3.95132 -0.723447 0
M  V30 21716 N 2067.54 2.67764 -1.1292 0
M  V30 21717 H 2067.09 1.96344 -1.66754 0
M  V30 21718 H 2067.05 3.1206 -0.382881 0
M  V30 21719 N 2070.82 1.53744 0.346476 0
M  V30 21720 C 2071.77 1.82222 1.44561 0
M  V30 21721 C 2072.76 0.69251 1.54598 0
M  V30 21722 O 2073.97 0.875797 1.57257 0
M  V30 21723 H 2070.34 0.577261 0.481948 0
M  V30 21724 H 2072.31 2.74183 1.17755 0
M  V30 21725 C 2071.06 2.04604 2.81127 0
M  V30 21726 H 2070.38 2.90983 2.74169 0
M  V30 21727 H 2071.82 2.28497 3.57162 0
M  V30 21728 C 2070.28 0.830699 3.26498 0
M  V30 21729 O 2070.81 0.0286844 4.0169 0
M  V30 21730 N 2069.02 0.648746 2.83266 0
M  V30 21731 H 2068.57 1.30257 2.22241 0
M  V30 21732 H 2068.52 -0.162972 3.13977 0
M  V30 21733 N 2072.3 -0.607329 1.45428 0
M  V30 21734 C 2073.54 -1.36835 1.49679 0
M  V30 21735 C 2073.88 -1.93708 0.138148 0
M  V30 21736 O 2073.15 -1.75069 -0.847414 0
M  V30 21737 C 2073.43 -2.51607 2.57616 0
M  V30 21738 C 2073.29 -1.99929 4.02925 0
M  V30 21739 C 2074.61 -3.53738 2.61835 0
M  V30 21740 H 2071.72 -0.496187 0.544947 0
M  V30 21741 H 2074.37 -0.684587 1.77238 0
M  V30 21742 H 2072.52 -3.09936 2.34247 0
M  V30 21743 H 2074.19 -1.46247 4.37504 0
M  V30 21744 H 2072.43 -1.30929 4.1357 0
M  V30 21745 H 2073.1 -2.82666 4.74135 0
M  V30 21746 H 2075.58 -3.0525 2.82775 0
M  V30 21747 H 2074.45 -4.31533 3.39221 0
M  V30 21748 H 2074.72 -4.09372 1.66935 0
M  V30 21749 N 2073.77 -1.32722 -0.849853 0
M  V30 21750 C 2075.19 -1.21166 -1.42041 0
M  V30 21751 C 2075.54 0.173892 -1.95428 0
M  V30 21752 O 2074.66 1.07289 -1.87931 0
M  V30 21753 C 2075.26 -2.19361 -2.58198 0
M  V30 21754 C 2073.82 -2.11677 -3.11239 0
M  V30 21755 C 2072.96 -2.07459 -1.84 0
M  V30 21756 H 2075.91 -1.44481 -0.656583 0
M  V30 21757 H 2075.93 -1.79494 -3.35503 0
M  V30 21758 H 2075.45 -3.20194 -2.19312 0
M  V30 21759 H 2073.55 -1.1411 -3.54697 0
M  V30 21760 H 2073.66 -3.01721 -3.72157 0
M  V30 21761 H 2072.02 -1.5277 -2.03798 0
M  V30 21762 H 2072.81 -3.10081 -1.47325 0
M  V30 21763 N 2075.25 1.06673 -1.16011 0
M  V30 21764 C 2076.22 2.12223 -0.865686 0
M  V30 21765 C 2077.22 1.6021 0.137621 0
M  V30 21766 O 2078.41 1.73953 -0.0928217 0
M  V30 21767 C 2075.54 3.39631 -0.293865 0
M  V30 21768 H 2076.73 2.39774 -1.80134 0
M  V30 21769 H 2074.28 1.22675 -0.968529 0
M  V30 21770 H 2075.02 3.17726 0.649656 0
M  V30 21771 H 2074.8 3.78688 -1.01676 0
M  V30 21772 H 2076.29 4.17466 -0.105682 0
M  V30 21773 N 2076.73 0.957992 1.25141 0
M  V30 21774 C 2077.96 0.631888 1.97015 0
M  V30 21775 C 2078.37 -0.796708 1.71167 0
M  V30 21776 O 2077.73 -1.53335 0.989683 0
M  V30 21777 C 2077.78 0.885137 3.50496 0
M  V30 21778 O 2077.5 2.25756 3.75454 0
M  V30 21779 C 2079 0.571882 4.39596 0
M  V30 21780 H 2076.22 0.236606 0.6279 0
M  V30 21781 H 2078.77 1.28328 1.59224 0
M  V30 21782 H 2076.92 0.280102 3.86386 0
M  V30 21783 H 2077.34 2.33023 4.69894 0
M  V30 21784 H 2078.81 0.799598 5.46178 0
M  V30 21785 H 2079.29 -0.493643 4.36417 0
M  V30 21786 H 2079.89 1.15639 4.09277 0
M  V30 21787 N 2078.21 -1.39832 0.726957 0
M  V30 21788 C 2079.62 -1.83534 0.342368 0
M  V30 21789 C 2079.97 -1.6075 -1.12489 0
M  V30 21790 O 2079.1 -1.09438 -1.86688 0
M  V30 21791 C 2079.69 -3.33178 0.614625 0
M  V30 21792 C 2078.25 -3.7533 0.283621 0
M  V30 21793 C 2077.4 -2.62923 0.881297 0
M  V30 21794 H 2080.35 -1.28939 0.925229 0
M  V30 21795 H 2080.37 -3.80322 -0.116329 0
M  V30 21796 H 2079.88 -3.49729 1.68259 0
M  V30 21797 H 2077.98 -3.64369 -0.778826 0
M  V30 21798 H 2078.09 -4.73025 0.760562 0
M  V30 21799 H 2076.46 -2.52825 0.308504 0
M  V30 21800 H 2077.24 -2.82282 1.95375 0
M  V30 21801 N 2079.69 -0.473982 -1.50304 0
M  V30 21802 C 2080.93 0.0801282 -2.02642 0
M  V30 21803 C 2081.27 1.3911 -1.35506 0
M  V30 21804 O 2080.54 1.8844 -0.481719 0
M  V30 21805 C 2080.82 0.26092 -3.59153 0
M  V30 21806 C 2080.68 -1.07128 -4.36857 0
M  V30 21807 C 2082 1.01413 -4.28256 0
M  V30 21808 H 2079.11 0.0276467 -0.736481 0
M  V30 21809 H 2081.76 -0.620135 -1.79595 0
M  V30 21810 H 2079.91 0.857378 -3.78921 0
M  V30 21811 H 2081.58 -1.70454 -4.28653 0
M  V30 21812 H 2079.82 -1.66721 -4.00483 0
M  V30 21813 H 2080.49 -0.898389 -5.4464 0
M  V30 21814 H 2082.97 0.508536 -4.12981 0
M  V30 21815 H 2081.84 1.10943 -5.37571 0
M  V30 21816 H 2082.11 2.05141 -3.91624 0
M  V30 21817 N 2081.16 1.56239 -0.206702 0
M  V30 21818 C 2082.13 2.18382 0.695843 0
M  V30 21819 C 2083.13 1.14149 1.13255 0
M  V30 21820 O 2084.32 1.39468 1.04376 0
M  V30 21821 C 2081.45 2.79522 1.95141 0
M  V30 21822 H 2082.64 2.99503 0.154275 0
M  V30 21823 H 2080.2 1.56241 0.0429222 0
M  V30 21824 H 2080.93 2.02231 2.53521 0
M  V30 21825 H 2080.72 3.55837 1.64689 0
M  V30 21826 H 2082.21 3.27203 2.59476 0
M  V30 21827 N 2082.64 -0.0668159 1.57458 0
M  V30 21828 C 2083.89 -0.760886 1.88632 0
M  V30 21829 C 2084.24 -1.74934 0.800989 0
M  V30 21830 O 2083.54 -1.90612 -0.194354 0
M  V30 21831 C 2083.73 -1.5042 3.24204 0
M  V30 21832 C 2083.56 -0.589245 4.45823 0
M  V30 21833 C 2082.33 -0.224323 5.04802 0
M  V30 21834 C 2084.53 0.116178 5.14169 0
M  V30 21835 N 2082.51 0.695839 6.09944 0
M  V30 21836 C 2083.88 0.893346 6.1353 0
M  V30 21837 C 2085.94 0.187124 4.97548 0
M  V30 21838 C 2084.64 1.73488 6.98065 0
M  V30 21839 C 2086.66 1.01565 5.82614 0
M  V30 21840 C 2086.03 1.78085 6.81517 0
M  V30 21841 H 2082.13 -0.253704 0.739702 0
M  V30 21842 H 2084.71 -0.022212 1.94687 0
M  V30 21843 H 2082.88 -2.21357 3.19148 0
M  V30 21844 H 2084.61 -2.14768 3.43011 0
M  V30 21845 H 2081.37 -0.57828 4.70056 0
M  V30 21846 H 2081.79 1.14931 6.67173 0
M  V30 21847 H 2086.43 -0.390148 4.20996 0
M  V30 21848 H 2084.15 2.3231 7.73988 0
M  V30 21849 H 2087.74 1.07358 5.71809 0
M  V30 21850 H 2086.62 2.41162 7.46198 0
M  V30 21851 N 2084.12 -1.53926 -0.338317 0
M  V30 21852 C 2085.53 -1.62818 -0.913629 0
M  V30 21853 C 2085.88 -0.512813 -1.8938 0
M  V30 21854 O 2085.01 0.356629 -2.13441 0
M  V30 21855 C 2085.6 -2.9513 -1.66385 0
M  V30 21856 C 2084.16 -3.06267 -2.1881 0
M  V30 21857 C 2083.31 -2.58298 -1.00884 0
M  V30 21858 H 2086.26 -1.58273 -0.116306 0
M  V30 21859 H 2086.28 -2.84463 -2.52708 0
M  V30 21860 H 2085.79 -3.76288 -0.950215 0
M  V30 21861 H 2083.89 -2.29753 -2.93333 0
M  V30 21862 H 2084.01 -4.11824 -2.44822 0
M  V30 21863 H 2082.37 -2.13832 -1.38376 0
M  V30 21864 H 2083.15 -3.419 -0.309757 0
M  V30 21865 N 2085.6 0.599608 -1.45748 0
M  V30 21866 C 2086.82 1.38971 -1.53954 0
M  V30 21867 C 2087.25 1.87278 -0.175618 0
M  V30 21868 O 2086.61 1.60602 0.841223 0
M  V30 21869 C 2086.66 2.56482 -2.53474 0
M  V30 21870 O 2085.76 3.57375 -2.05808 0
M  V30 21871 H 2085.1 0.414567 -0.518681 0
M  V30 21872 H 2087.63 0.728972 -1.91173 0
M  V30 21873 H 2087.64 3.03623 -2.72539 0
M  V30 21874 H 2086.32 2.20672 -3.52529 0
M  V30 21875 H 2084.89 3.1683 -1.96656 0
M  V30 21876 N 2087.08 1.33171 0.842803 0
M  V30 21877 C 2088.01 1.18931 1.95929 0
M  V30 21878 C 2089.02 0.121266 1.62348 0
M  V30 21879 O 2090.21 0.371327 1.74595 0
M  V30 21880 C 2087.31 0.800822 3.29302 0
M  V30 21881 C 2086.48 1.95967 3.91044 0
M  V30 21882 C 2085.54 1.5528 5.02767 0
M  V30 21883 O 2084.57 2.26657 5.22126 0
M  V30 21884 N 2085.77 0.455553 5.7871 0
M  V30 21885 H 2088.54 2.15108 2.08683 0
M  V30 21886 H 2086.1 1.25865 1.01832 0
M  V30 21887 H 2088.09 0.510809 4.01463 0
M  V30 21888 H 2086.66 -0.0701517 3.12521 0
M  V30 21889 H 2085.88 2.41553 3.11522 0
M  V30 21890 H 2087.17 2.73517 4.29029 0
M  V30 21891 H 2086.57 -0.138262 5.65531 0
M  V30 21892 H 2085.12 0.225196 6.51411 0
M  V30 21893 N 2088.56 -1.06056 1.16576 0
M  V30 21894 C 2089.47 -2.17107 0.888912 0
M  V30 21895 C 2090.48 -1.73438 -0.139723 0
M  V30 21896 O 2091.66 -2.01365 0.0374846 0
M  V30 21897 C 2088.72 -3.44425 0.396494 0
M  V30 21898 C 2087.78 -4.02589 1.49065 0
M  V30 21899 C 2087.02 -5.2383 1.02163 0
M  V30 21900 O 2087.24 -5.70257 -0.127684 0
M  V30 21901 O 2086.17 -5.7401 1.81098 0
M  V30 21902 H 2090 -2.43304 1.81761 0
M  V30 21903 H 2087.58 -1.1564 0.945923 0
M  V30 21904 H 2089.47 -4.21203 0.128983 0
M  V30 21905 H 2088.14 -3.1975 -0.504164 0
M  V30 21906 H 2087.05 -3.27292 1.81193 0
M  V30 21907 H 2088.38 -4.31565 2.3667 0
M  V30 21908 N 2090.03 -0.964615 -1.24631 0
M  V30 21909 C 2091.28 -0.623582 -1.92239 0
M  V30 21910 C 2091.6 0.843493 -1.75813 0
M  V30 21911 O 2090.87 1.60179 -1.12781 0
M  V30 21912 H 2089.45 -0.227644 -0.711468 0
M  V30 21913 H 2092.11 -1.22502 -1.51589 0
M  V30 21914 H 2091.21 -0.861514 -2.99974 0
M  V30 21915 N 2091.51 1.39445 -0.734362 0
M  V30 21916 C 2092.44 2.29135 -0.0543743 0
M  V30 21917 C 2093.46 1.46785 0.704126 0
M  V30 21918 O 2094.65 1.69867 0.548394 0
M  V30 21919 C 2091.75 3.25393 0.947229 0
M  V30 21920 C 2090.92 4.36683 0.250381 0
M  V30 21921 C 2089.98 5.13255 1.16 0
M  V30 21922 O 2089 5.65616 0.637723 0
M  V30 21923 N 2090.21 5.24396 2.48976 0
M  V30 21924 H 2092.97 2.88134 -0.824567 0
M  V30 21925 H 2090.53 1.51018 -0.583531 0
M  V30 21926 H 2092.52 3.73494 1.55834 0
M  V30 21927 H 2091.09 2.6743 1.61863 0
M  V30 21928 H 2090.31 3.90467 -0.5412 0
M  V30 21929 H 2091.6 5.08268 -0.232571 0
M  V30 21930 H 2091 4.83371 2.93885 0
M  V30 21931 H 2089.56 5.75939 3.05185 0
M  V30 21932 N 2092.99 0.481946 1.5005 0
M  V30 21933 C 2093.94 -0.320472 2.30382 0
M  V30 21934 C 2094.93 -0.980434 1.38144 0
M  V30 21935 O 2096.14 -0.910298 1.55285 0
M  V30 21936 H 2092.51 -0.122196 0.742006 0
M  V30 21937 H 2094.48 0.377305 2.96005 0
M  V30 21938 C 2093.23 -1.38347 3.18991 0
M  V30 21939 H 2092.56 -0.885033 3.89881 0
M  V30 21940 H 2094 -1.91728 3.78175 0
M  V30 21941 C 2092.45 -2.39133 2.37313 0
M  V30 21942 O 2092.98 -3.44629 2.06383 0
M  V30 21943 N 2091.19 -2.11122 1.9969 0
M  V30 21944 H 2090.74 -1.25354 2.25043 0
M  V30 21945 H 2090.7 -2.78787 1.45345 0
M  V30 21946 N 2094.47 -1.56127 0.214985 0
M  V30 21947 C 2095.88 -1.8437 -0.294058 0
M  V30 21948 C 2096.23 -1.13621 -1.59952 0
M  V30 21949 O 2095.35 -0.403663 -2.12602 0
M  V30 21950 C 2095.95 -3.34464 -0.540311 0
M  V30 21951 C 2094.51 -3.63047 -0.993677 0
M  V30 21952 C 2093.66 -2.77249 -0.0531319 0
M  V30 21953 H 2096.61 -1.52527 0.43833 0
M  V30 21954 H 2096.63 -3.54314 -1.38716 0
M  V30 21955 H 2096.14 -3.85928 0.409992 0
M  V30 21956 H 2094.24 -3.17033 -1.95757 0
M  V30 21957 H 2094.35 -4.71086 -0.872629 0
M  V30 21958 H 2092.72 -2.48496 -0.558718 0
M  V30 21959 H 2093.5 -3.3151 0.891971 0
M  V30 21960 N 2095.95 0.0584645 -1.57492 0
M  V30 21961 C 2097.17 0.771417 -1.9252 0
M  V30 21962 C 2097.6 1.69644 -0.812561 0
M  V30 21963 O 2096.95 1.79786 0.233784 0
M  V30 21964 C 2097 1.52975 -3.26544 0
M  V30 21965 O 2096.11 2.64128 -3.16718 0
M  V30 21966 H 2095.45 0.209569 -0.630061 0
M  V30 21967 H 2097.98 0.022721 -2.04587 0
M  V30 21968 H 2097.99 1.90612 -3.60737 0
M  V30 21969 H 2096.66 0.851136 -4.07098 0
M  V30 21970 H 2095.24 2.29251 -2.94106 0
M  V30 21971 N 2097.42 1.54103 0.330149 0
M  V30 21972 C 2098.35 1.8602 1.41134 0
M  V30 21973 C 2099.33 0.716429 1.54277 0
M  V30 21974 O 2100.52 0.969568 1.68265 0
M  V30 21975 C 2097.65 2.08171 2.77997 0
M  V30 21976 C 2096.6 3.24007 2.79649 0
M  V30 21977 C 2095.93 3.31516 4.19525 0
M  V30 21978 C 2097.23 4.6181 2.43985 0
M  V30 21979 H 2098.92 2.76569 1.14672 0
M  V30 21980 H 2096.47 1.33074 0.550199 0
M  V30 21981 H 2098.42 2.29083 3.53694 0
M  V30 21982 H 2097.15 1.14364 3.05922 0
M  V30 21983 H 2095.81 3.02971 2.06407 0
M  V30 21984 H 2095.45 2.3528 4.44581 0
M  V30 21985 H 2095.15 4.09364 4.21538 0
M  V30 21986 H 2096.68 3.54655 4.97044 0
M  V30 21987 H 2098.09 4.82647 3.09395 0
M  V30 21988 H 2096.49 5.4216 2.5726 0
M  V30 21989 H 2097.56 4.64507 1.39146 0
M  V30 21990 N 2098.9 -0.59187 1.46064 0
M  V30 21991 C 2100.13 -1.38153 1.54688 0
M  V30 21992 C 2100.55 -1.87183 0.185547 0
M  V30 21993 O 2099.91 -1.61046 -0.832694 0
M  V30 21994 C 2099.96 -2.55134 2.54831 0
M  V30 21995 O 2099.06 -3.56279 2.077 0
M  V30 21996 H 2098.4 -0.41181 0.520873 0
M  V30 21997 H 2100.93 -0.718824 1.91557 0
M  V30 21998 H 2100.94 -3.02173 2.74145 0
M  V30 21999 H 2099.62 -2.188 3.53694 0
M  V30 22000 H 2098.2 -3.15782 1.98333 0
M  V30 22001 N 2100.38 -1.33616 -0.835729 0
M  V30 22002 C 2101.61 -1.28444 -1.6284 0
M  V30 22003 C 2102.03 0.141205 -1.87569 0
M  V30 22004 O 2101.39 1.09885 -1.44205 0
M  V30 22005 C 2101.44 -2.0683 -2.95387 0
M  V30 22006 O 2100.54 -1.42905 -3.86849 0
M  V30 22007 H 2099.88 -0.441742 -0.495742 0
M  V30 22008 H 2102.41 -1.76226 -1.0395 0
M  V30 22009 H 2102.42 -2.17712 -3.45059 0
M  V30 22010 H 2101.1 -3.1049 -2.76711 0
M  V30 22011 H 2099.67 -1.40689 -3.45342 0
M  V30 22012 N 2101.86 1.05436 -1.17136 0
M  V30 22013 C 2103.11 1.77784 -0.952661 0
M  V30 22014 C 2103.42 1.88561 0.519999 0
M  V30 22015 O 2104.63 2.57625 0.856841 0
M  V30 22016 C 2103.08 3.19575 -1.65529 0
M  V30 22017 C 2102.69 3.16936 -3.16631 0
M  V30 22018 C 2104.43 3.96397 -1.51888 0
M  V30 22019 C 2102.34 4.535 -3.79594 0
M  V30 22020 H 2101.27 0.66637 -0.352799 0
M  V30 22021 H 2103.92 1.18197 -1.40363 0
M  V30 22022 H 2102.3 3.79474 -1.13205 0
M  V30 22023 H 2103.48 2.6657 -3.75869 0
M  V30 22024 H 2101.79 2.53614 -3.30256 0
M  V30 22025 H 2104.39 4.97363 -1.96302 0
M  V30 22026 H 2104.73 4.13649 -0.469072 0
M  V30 22027 H 2105.27 3.4304 -2.01416 0
M  V30 22028 H 2102.01 4.41453 -4.84561 0
M  V30 22029 H 2101.53 5.04026 -3.25143 0
M  V30 22030 H 2103.2 5.22444 -3.81656 0
M  V30 22031 N 2103.34 0.971211 1.24118 0
M  V30 22032 C 2104.75 0.678316 1.44468 0
M  V30 22033 C 2104.95 -0.75867 1.86672 0
M  V30 22034 O 2104.01 -1.53217 2.00701 0
M  V30 22035 C 2105.32 1.66541 2.50369 0
M  V30 22036 C 2106.87 1.67842 2.64193 0
M  V30 22037 C 2107.34 2.65358 3.73295 0
M  V30 22038 N 2108.84 2.63821 3.80727 0
M  V30 22039 C 2109.57 3.35947 4.6468 0
M  V30 22040 N 2109.07 4.17602 5.52794 0
M  V30 22041 N 2110.86 3.24755 4.58793 0
M  V30 22042 H 2103.01 1.8996 0.950216 0
M  V30 22043 H 2105.27 0.818026 0.479101 0
M  V30 22044 H 2104.98 2.69261 2.26255 0
M  V30 22045 H 2104.85 1.44095 3.48592 0
M  V30 22046 H 2107.24 0.658308 2.87664 0
M  V30 22047 H 2107.32 1.94351 1.66316 0
M  V30 22048 H 2106.97 3.67505 3.50574 0
M  V30 22049 H 2106.9 2.36127 4.70693 0
M  V30 22050 H 2109.39 2.04554 3.17751 0
M  V30 22051 H 2109.7 4.69515 6.13821 0
M  V30 22052 H 2108.04 4.21695 5.52447 0
M  V30 22053 H 2111.24 2.60422 3.8897 0
M  V30 22054 H 2111.41 3.81228 5.23994 0
M  V30 22055 N 2104.81 -1.39054 0.741747 0
M  V30 22056 C 2105.76 -2.30556 0.106197 0
M  V30 22057 C 2106.73 -1.49566 -0.722434 0
M  V30 22058 O 2107.92 -1.78233 -0.681008 0
M  V30 22059 C 2105.06 -3.35936 -0.790013 0
M  V30 22060 C 2104.17 -4.31969 0.051964 0
M  V30 22061 C 2103.3 -5.24418 -0.846146 0
M  V30 22062 C 2102.34 -6.121 0.000177444 0
M  V30 22063 N 2101.48 -6.96884 -0.854237 0
M  V30 22064 H 2106.32 -2.84333 0.892113 0
M  V30 22065 H 2103.86 -1.39997 0.451583 0
M  V30 22066 H 2105.82 -3.95629 -1.32413 0
M  V30 22067 H 2104.45 -2.83597 -1.54183 0
M  V30 22068 H 2103.5 -3.73837 0.70358 0
M  V30 22069 H 2104.81 -4.93777 0.706061 0
M  V30 22070 H 2103.96 -5.8917 -1.44786 0
M  V30 22071 H 2102.7 -4.62947 -1.53401 0
M  V30 22072 H 2101.71 -5.46353 0.614648 0
M  V30 22073 H 2102.93 -6.75637 0.684921 0
M  V30 22074 H 2100.88 -6.37974 -1.52727 0
M  V30 22075 H 2100.8 -7.55564 -0.256771 0
M  V30 22076 H 2102.06 -7.66059 -1.4413 0
M  V30 22077 N 2106.29 -0.489897 -1.49792 0
M  V30 22078 C 2107.22 0.283966 -2.31767 0
M  V30 22079 C 2108.2 0.972934 -1.39528 0
M  V30 22080 O 2109.39 0.966482 -1.68442 0
M  V30 22081 C 2106.52 1.35538 -3.19761 0
M  V30 22082 C 2105.47 0.786932 -4.20703 0
M  V30 22083 C 2104.8 1.95803 -4.97559 0
M  V30 22084 C 2106.1 -0.214528 -5.21859 0
M  V30 22085 H 2107.79 -0.40025 -2.96713 0
M  V30 22086 H 2105.34 -0.193932 -1.42688 0
M  V30 22087 H 2107.29 1.90438 -3.75914 0
M  V30 22088 H 2106.02 2.06862 -2.52736 0
M  V30 22089 H 2104.67 0.259755 -3.65679 0
M  V30 22090 H 2104.32 2.65871 -4.26992 0
M  V30 22091 H 2104.02 1.58381 -5.65853 0
M  V30 22092 H 2105.55 2.51159 -5.56553 0
M  V30 22093 H 2106.96 0.245954 -5.72772 0
M  V30 22094 H 2105.36 -0.504002 -5.9798 0
M  V30 22095 H 2106.43 -1.13417 -4.71449 0
M  V30 22096 N 2107.77 1.56011 -0.223262 0
M  V30 22097 C 2109.02 1.97523 0.40834 0
M  V30 22098 C 2109.33 1.11401 1.60777 0
M  V30 22099 O 2110.54 1.4282 2.309 0
M  V30 22100 C 2108.99 3.51393 0.777885 0
M  V30 22101 C 2108.6 4.46221 -0.398826 0
M  V30 22102 C 2110.35 4.01614 1.37499 0
M  V30 22103 C 2108.25 5.914 -0.00675168 0
M  V30 22104 H 2107.18 0.737614 0.156337 0
M  V30 22105 H 2109.83 1.80693 -0.319744 0
M  V30 22106 H 2108.22 3.6383 1.56344 0
M  V30 22107 H 2109.39 4.45532 -1.17635 0
M  V30 22108 H 2107.71 4.06351 -0.909284 0
M  V30 22109 H 2110.3 5.0758 1.68127 0
M  V30 22110 H 2110.65 3.47566 2.29137 0
M  V30 22111 H 2111.18 3.92406 0.65284 0
M  V30 22112 H 2107.92 6.49435 -0.889654 0
M  V30 22113 H 2107.44 5.95279 0.735052 0
M  V30 22114 H 2109.12 6.4564 0.419339 0
M  V30 22115 N 2109.25 -0.0501116 1.5752 0
M  V30 22116 C 2110.66 -0.405366 1.54366 0
M  V30 22117 C 2110.86 -1.77885 0.946523 0
M  V30 22118 O 2109.92 -2.46248 0.558406 0
M  V30 22119 C 2111.23 -0.326523 2.98922 0
M  V30 22120 C 2112.78 -0.40514 3.10367 0
M  V30 22121 C 2113.26 -0.355974 4.56615 0
M  V30 22122 N 2114.75 -0.415404 4.61334 0
M  V30 22123 C 2115.48 -0.39992 5.72004 0
M  V30 22124 N 2114.98 -0.337966 6.91975 0
M  V30 22125 N 2116.77 -0.448091 5.60311 0
M  V30 22126 H 2108.92 0.848979 1.94695 0
M  V30 22127 H 2111.19 0.320787 0.892076 0
M  V30 22128 H 2110.89 0.616487 3.46255 0
M  V30 22129 H 2110.77 -1.12839 3.59927 0
M  V30 22130 H 2113.15 -1.33858 2.62995 0
M  V30 22131 H 2113.23 0.425702 2.52233 0
M  V30 22132 H 2112.88 0.573705 5.04649 0
M  V30 22133 H 2112.81 -1.20464 5.12636 0
M  V30 22134 H 2115.3 -0.466654 3.75008 0
M  V30 22135 H 2115.61 -0.330673 7.72092 0
M  V30 22136 H 2113.96 -0.304327 6.94333 0
M  V30 22137 H 2117.15 -0.494336 4.65482 0
M  V30 22138 H 2117.32 -0.432555 6.46555 0
M  V30 22139 N 2110.73 -1.54276 -0.321972 0
M  V30 22140 C 2112 -1.63209 -1.07806 0
M  V30 22141 C 2112.38 -0.466965 -2.0587 0
M  V30 22142 O 2111.73 0.538598 -2.22062 0
M  V30 22143 C 2111.94 -3.00279 -1.77858 0
M  V30 22144 C 2113.29 -3.5638 -2.30822 0
M  V30 22145 O 2114.31 -3.02594 -1.87923 0
M  V30 22146 O 2113.17 -4.50507 -3.09364 0
M  V30 22147 H 2110.27 -0.660982 -0.497023 0
M  V30 22148 H 2112.81 -1.66622 -0.321736 0
M  V30 22149 H 2111.58 -3.76518 -1.06537 0
M  V30 22150 H 2111.21 -3.00552 -2.60297 0
M  V30 22151 N 2112.2 0.584116 -1.46376 0
M  V30 22152 C 2113.45 1.33973 -1.51313 0
M  V30 22153 C 2113.77 1.94294 -0.165758 0
M  V30 22154 O 2113.04 1.78481 0.807546 0
M  V30 22155 H 2111.62 0.497422 -0.557298 0
M  V30 22156 H 2114.29 0.684191 -1.82496 0
M  V30 22157 H 2113.38 2.14716 -2.26503 0
M  V30 22158 N 2113.68 1.34058 0.828631 0
M  V30 22159 C 2114.91 1.29306 1.62156 0
M  V30 22160 C 2115.33 -0.131256 1.87641 0
M  V30 22161 O 2114.69 -1.09118 1.44786 0
M  V30 22162 C 2114.74 2.08394 2.94286 0
M  V30 22163 O 2113.84 1.44955 3.86085 0
M  V30 22164 H 2113.18 0.444364 0.493393 0
M  V30 22165 H 2115.71 1.76775 1.03014 0
M  V30 22166 H 2115.72 2.19539 3.43899 0
M  V30 22167 H 2114.4 3.11953 2.7506 0
M  V30 22168 H 2112.98 1.42518 3.44591 0
M  V30 22169 N 2115.16 -1.04814 1.17694 0
M  V30 22170 C 2116.41 -1.77277 0.962076 0
M  V30 22171 C 2116.72 -1.88834 -0.509992 0
M  V30 22172 O 2117.93 -2.58075 -0.843166 0
M  V30 22173 C 2116.39 -3.18693 1.67221 0
M  V30 22174 C 2115.99 -3.15253 3.18308 0
M  V30 22175 C 2117.74 -3.95585 1.53988 0
M  V30 22176 C 2115.64 -4.51481 3.81993 0
M  V30 22177 H 2114.57 -0.66449 0.356328 0
M  V30 22178 H 2117.23 -1.17451 1.40988 0
M  V30 22179 H 2115.61 -3.78868 1.15216 0
M  V30 22180 H 2116.78 -2.64573 3.77277 0
M  V30 22181 H 2115.1 -2.51859 3.31596 0
M  V30 22182 H 2117.69 -4.96315 1.98937 0
M  V30 22183 H 2118.04 -4.13394 0.491003 0
M  V30 22184 H 2118.57 -3.41967 2.03232 0
M  V30 22185 H 2115.31 -4.38877 4.86895 0
M  V30 22186 H 2114.83 -5.02295 3.27811 0
M  V30 22187 H 2116.51 -5.20413 3.84421 0
M  V30 22188 N 2116.64 -0.977779 -1.23601 0
M  V30 22189 C 2117.92 -0.561714 -1.87361 0
M  V30 22190 C 2118.3 0.961166 -1.87949 0
M  V30 22191 O 2117.64 1.83678 -1.35922 0
M  V30 22192 C 2117.85 -1.16478 -3.28989 0
M  V30 22193 C 2119.2 -1.2559 -4.05601 0
M  V30 22194 O 2120.23 -1.11804 -3.38199 0
M  V30 22195 O 2119.09 -1.47493 -5.2622 0
M  V30 22196 H 2116.18 -0.18876 -0.80517 0
M  V30 22197 H 2118.73 -1.07269 -1.31497 0
M  V30 22198 H 2117.5 -2.20711 -3.23114 0
M  V30 22199 H 2117.12 -0.638457 -3.9244 0
M  V30 22200 N 2118.12 1.38658 -0.749111 0
M  V30 22201 C 2119.05 2.33116 -0.133797 0
M  V30 22202 C 2120.03 1.54639 0.708583 0
M  V30 22203 O 2121.21 1.82975 0.650684 0
M  V30 22204 C 2118.34 3.38802 0.763563 0
M  V30 22205 C 2117.3 4.27993 0.0242578 0
M  V30 22206 C 2116.62 5.24497 1.03957 0
M  V30 22207 C 2117.92 5.09673 -1.14151 0
M  V30 22208 H 2119.62 2.84823 -0.922842 0
M  V30 22209 H 2117.16 1.36944 -0.445221 0
M  V30 22210 H 2119.12 4.03844 1.20366 0
M  V30 22211 H 2117.84 2.85568 1.58488 0
M  V30 22212 H 2116.5 3.64451 -0.39637 0
M  V30 22213 H 2116.15 4.67552 1.85483 0
M  V30 22214 H 2115.85 5.85024 0.549587 0
M  V30 22215 H 2117.37 5.92415 1.47908 0
M  V30 22216 H 2118.79 5.6798 -0.779174 0
M  V30 22217 H 2117.18 5.79413 -1.56206 0
M  V30 22218 H 2118.25 4.43675 -1.95654 0
M  V30 22219 N 2119.6 0.497834 1.49531 0
M  V30 22220 C 2120.84 -0.0478795 2.02743 0
M  V30 22221 C 2121.17 -1.36937 1.37702 0
M  V30 22222 O 2120.45 -1.8765 0.511637 0
M  V30 22223 C 2120.73 -0.203749 3.59523 0
M  V30 22224 C 2120.59 1.14064 4.35097 0
M  V30 22225 C 2121.9 -0.945869 4.29815 0
M  V30 22226 H 2119.02 -0.0159264 0.736828 0
M  V30 22227 H 2121.67 0.648629 1.78586 0
M  V30 22228 H 2119.82 -0.796987 3.80237 0
M  V30 22229 H 2121.49 1.77252 4.25887 0
M  V30 22230 H 2119.73 1.73071 3.9778 0
M  V30 22231 H 2120.4 0.984923 5.43142 0
M  V30 22232 H 2122.88 -0.44277 4.13738 0
M  V30 22233 H 2121.75 -1.02377 5.39268 0
M  V30 22234 H 2122.01 -1.98884 3.94839 0
M  V30 22235 N 2121.07 -1.5589 0.231532 0
M  V30 22236 C 2122.32 -1.97737 -0.397859 0
M  V30 22237 C 2122.64 -1.12252 -1.60184 0
M  V30 22238 O 2123.84 -1.44042 -2.30139 0
M  V30 22239 C 2122.3 -3.518 -0.759238 0
M  V30 22240 C 2121.91 -4.46003 0.422484 0
M  V30 22241 C 2123.65 -4.02338 -1.35368 0
M  V30 22242 C 2121.56 -5.91388 0.0381149 0
M  V30 22243 H 2120.49 -0.738433 -0.152423 0
M  V30 22244 H 2123.14 -1.80521 0.329322 0
M  V30 22245 H 2121.52 -3.64654 -1.54412 0
M  V30 22246 H 2122.69 -4.44902 1.19996 0
M  V30 22247 H 2121.01 -4.05863 0.930821 0
M  V30 22248 H 2123.61 -5.08464 -1.65433 0
M  V30 22249 H 2123.95 -3.48776 -2.2729 0
M  V30 22250 H 2124.48 -3.92747 -0.632021 0
M  V30 22251 H 2121.22 -6.48954 0.924083 0
M  V30 22252 H 2120.74 -5.9566 -0.703473 0
M  V30 22253 H 2122.42 -6.45853 -0.385094 0
M  V30 22254 N 2122.55 0.0417572 -1.57545 0
M  V30 22255 C 2123.5 1.0648 -2.06796 0
M  V30 22256 C 2124.49 1.38234 -0.979162 0
M  V30 22257 O 2125.7 1.37288 -1.16413 0
M  V30 22258 H 2122.07 0.360857 -0.659762 0
M  V30 22259 H 2124.05 0.6235 -2.91813 0
M  V30 22260 C 2122.79 2.36114 -2.55236 0
M  V30 22261 H 2122.12 2.12537 -3.38627 0
M  V30 22262 H 2123.56 3.06072 -2.93421 0
M  V30 22263 C 2122.02 3.04191 -1.44808 0
M  V30 22264 O 2122.55 3.93508 -0.807098 0
M  V30 22265 N 2120.75 2.65308 -1.18574 0
M  V30 22266 H 2120.3 1.92763 -1.70881 0
M  V30 22267 H 2120.26 3.11178 -0.448987 0
M  V30 22268 N 2124.03 1.54445 0.313786 0
M  V30 22269 C 2124.96 1.87506 1.39153 0
M  V30 22270 C 2125.94 0.732752 1.53508 0
M  V30 22271 O 2127.13 0.98736 1.67227 0
M  V30 22272 C 2124.26 2.11107 2.75773 0
M  V30 22273 C 2123.21 3.26954 2.76197 0
M  V30 22274 C 2122.54 3.35947 4.15985 0
M  V30 22275 C 2123.84 4.64372 2.39073 0
M  V30 22276 H 2125.53 2.7777 1.11732 0
M  V30 22277 H 2123.08 1.33651 0.536054 0
M  V30 22278 H 2125.03 2.32821 3.51244 0
M  V30 22279 H 2123.75 1.17602 3.04692 0
M  V30 22280 H 2122.41 3.05144 2.03182 0
M  V30 22281 H 2122.06 2.39982 4.42061 0
M  V30 22282 H 2121.76 4.13812 4.17173 0
M  V30 22283 H 2123.28 3.59906 4.93254 0
M  V30 22284 H 2124.7 4.85901 3.04258 0
M  V30 22285 H 2123.09 5.44858 2.51496 0
M  V30 22286 H 2124.16 4.65956 1.34211 0
M  V30 22287 N 2125.51 -0.576345 1.46683 0
M  V30 22288 C 2126.92 -1.15848 1.46411 0
M  V30 22289 C 2127.27 -1.9509 0.208383 0
M  V30 22290 O 2126.39 -2.05169 -0.688092 0
M  V30 22291 C 2126.99 -2.10758 2.65267 0
M  V30 22292 C 2125.55 -2.64282 2.68015 0
M  V30 22293 C 2124.7 -1.40277 2.39202 0
M  V30 22294 H 2127.65 -0.363942 1.54471 0
M  V30 22295 H 2127.67 -2.94327 2.41147 0
M  V30 22296 H 2127.18 -1.53056 3.56645 0
M  V30 22297 H 2125.28 -3.25835 1.80726 0
M  V30 22298 H 2125.39 -3.06583 3.68163 0
M  V30 22299 H 2123.76 -1.70304 1.8939 0
M  V30 22300 H 2124.54 -0.843968 3.32764 0
M  V30 22301 N 2126.99 -1.34495 -0.82151 0
M  V30 22302 C 2127.93 -1.26196 -1.9539 0
M  V30 22303 C 2128.93 -0.159788 -1.68645 0
M  V30 22304 O 2130.13 -0.32485 -1.77044 0
M  V30 22305 H 2126.51 -0.392077 -0.6417 0
M  V30 22306 H 2128.48 -2.21896 -1.99511 0
M  V30 22307 C 2127.23 -1.03571 -3.31916 0
M  V30 22308 H 2126.55 -1.87615 -3.53045 0
M  V30 22309 H 2127.99 -1.01801 -4.11597 0
M  V30 22310 C 2126.45 0.260949 -3.35888 0
M  V30 22311 O 2126.98 1.26183 -3.81367 0
M  V30 22312 N 2125.19 0.29455 -2.89103 0
M  V30 22313 H 2124.73 -0.520521 -2.52286 0
M  V30 22314 H 2124.69 1.16189 -2.92143 0
M  V30 22315 N 2128.46 1.04188 -1.18248 0
M  V30 22316 C 2129.41 2.14282 -0.904765 0
M  V30 22317 C 2130.41 1.68865 0.134493 0
M  V30 22318 O 2131.61 1.79995 -0.013541 0
M  V30 22319 H 2127.99 0.699873 -0.275103 0
M  V30 22320 H 2129.96 2.34904 -1.84018 0
M  V30 22321 C 2128.71 3.44832 -0.445645 0
M  V30 22322 H 2128.03 3.80187 -1.23683 0
M  V30 22323 H 2129.47 4.23005 -0.29031 0
M  V30 22324 C 2127.93 3.26303 0.838325 0
M  V30 22325 O 2128.46 3.53774 1.90282 0
M  V30 22326 N 2126.67 2.79643 0.79045 0
M  V30 22327 H 2126.21 2.57488 -0.0760399 0
M  V30 22328 H 2126.17 2.67626 1.64996 0
M  V30 22329 N 2129.94 0.98432 1.23081 0
M  V30 22330 C 2130.89 0.520259 2.26707 0
M  V30 22331 C 2131.88 -0.424715 1.63989 0
M  V30 22332 O 2133.09 -0.298177 1.77513 0
M  V30 22333 H 2129.47 0.149826 0.736923 0
M  V30 22334 H 2131.44 1.40587 2.63207 0
M  V30 22335 C 2130.19 -0.157874 3.47341 0
M  V30 22336 H 2129.51 0.560186 3.95856 0
M  V30 22337 H 2130.95 -0.446157 4.21646 0
M  V30 22338 C 2129.41 -1.3904 3.0687 0
M  V30 22339 O 2129.94 -2.48637 3.15503 0
M  V30 22340 N 2128.14 -1.26249 2.61743 0
M  V30 22341 H 2127.69 -0.370736 2.54918 0
M  V30 22342 H 2127.65 -2.08824 2.35032 0
M  V30 22343 N 2131.42 -1.38259 0.756453 0
M  V30 22344 C 2132.65 -2.04335 0.324799 0
M  V30 22345 C 2133.06 -1.57053 -1.04784 0
M  V30 22346 O 2132.42 -0.744882 -1.66607 0
M  V30 22347 C 2132.47 -3.59882 0.341597 0
M  V30 22348 O 2132.19 -4.0543 1.66008 0
M  V30 22349 C 2133.69 -4.43179 -0.103565 0
M  V30 22350 H 2130.91 -0.656588 0.138324 0
M  V30 22351 H 2133.46 -1.76894 1.02611 0
M  V30 22352 H 2131.61 -3.8615 -0.310997 0
M  V30 22353 H 2132.03 -4.99876 1.58822 0
M  V30 22354 H 2133.5 -5.51985 -0.0406515 0
M  V30 22355 H 2133.98 -4.23827 -1.15185 0
M  V30 22356 H 2134.58 -4.22106 0.520263 0
M  V30 22357 N 2132.9 -0.505757 -1.49264 0
M  V30 22358 C 2133.85 0.270127 -2.29214 0
M  V30 22359 C 2134.82 0.956031 -1.35828 0
M  V30 22360 O 2136 0.961771 -1.64787 0
M  V30 22361 C 2133.14 1.32577 -3.18618 0
M  V30 22362 C 2132.25 0.65116 -4.27064 0
M  V30 22363 C 2131.39 1.68765 -5.03678 0
M  V30 22364 C 2130.43 0.995172 -6.03956 0
M  V30 22365 N 2129.56 1.97608 -6.73718 0
M  V30 22366 H 2134.4 -0.41788 -2.95056 0
M  V30 22367 H 2131.94 -0.217921 -1.45477 0
M  V30 22368 H 2133.9 1.94985 -3.68832 0
M  V30 22369 H 2132.53 1.98248 -2.5475 0
M  V30 22370 H 2131.58 -0.0863124 -3.80302 0
M  V30 22371 H 2132.89 0.106277 -4.98687 0
M  V30 22372 H 2132.05 2.38665 -5.57785 0
M  V30 22373 H 2130.79 2.2664 -4.3184 0
M  V30 22374 H 2129.79 0.281968 -5.49076 0
M  V30 22375 H 2131.02 0.422861 -6.77782 0
M  V30 22376 H 2128.96 2.54436 -6.04647 0
M  V30 22377 H 2128.88 1.48199 -7.41332 0
M  V30 22378 H 2130.15 2.66782 -7.32426 0
M  V30 22379 N 2134.38 1.55765 -0.239796 0
M  V30 22380 C 2135.62 1.98769 0.386916 0
M  V30 22381 C 2135.95 1.12781 1.58464 0
M  V30 22382 O 2135.21 0.176954 1.94898 0
M  V30 22383 C 2135.51 3.4722 0.846952 0
M  V30 22384 C 2135.17 4.50249 -0.242234 0
M  V30 22385 C 2133.83 4.78145 -0.541395 0
M  V30 22386 C 2136.19 5.11943 -0.977925 0
M  V30 22387 C 2133.51 5.65012 -1.58045 0
M  V30 22388 C 2135.87 5.99937 -2.00644 0
M  V30 22389 C 2134.53 6.26169 -2.31233 0
M  V30 22390 H 2133.8 0.727348 0.141583 0
M  V30 22391 H 2136.45 1.88346 -0.346135 0
M  V30 22392 H 2134.75 3.54939 1.65908 0
M  V30 22393 H 2136.45 3.77877 1.34201 0
M  V30 22394 H 2133.04 4.286 0.00107931 0
M  V30 22395 H 2137.22 4.90446 -0.76005 0
M  V30 22396 H 2132.48 5.83594 -1.82286 0
M  V30 22397 H 2136.65 6.46787 -2.58146 0
M  V30 22398 H 2134.28 6.93276 -3.11886 0
M  V30 22399 N 2135.85 -0.0334016 1.57565 0
M  V30 22400 C 2137.1 -0.726157 1.89354 0
M  V30 22401 C 2137.43 -1.75237 0.837002 0
M  V30 22402 O 2136.71 -1.93933 -0.148452 0
M  V30 22403 C 2136.99 -1.39963 3.31787 0
M  V30 22404 C 2136.84 -0.387227 4.4813 0
M  V30 22405 C 2138.16 -2.33475 3.73065 0
M  V30 22406 H 2135.28 -0.262518 0.688661 0
M  V30 22407 H 2137.92 0.0110285 1.89997 0
M  V30 22408 H 2136.07 -2.02797 3.31369 0
M  V30 22409 H 2137.75 0.238867 4.60681 0
M  V30 22410 H 2135.99 0.293911 4.32803 0
M  V30 22411 H 2136.66 -0.896846 5.44666 0
M  V30 22412 H 2139.14 -1.80688 3.74822 0
M  V30 22413 H 2138.01 -2.7758 4.73541 0
M  V30 22414 H 2138.27 -3.19962 3.05085 0
M  V30 22415 N 2137.33 -1.54609 -0.305591 0
M  V30 22416 C 2138.28 -1.81626 -1.37826 0
M  V30 22417 C 2139.27 -0.673168 -1.46141 0
M  V30 22418 O 2140.46 -0.933678 -1.50371 0
M  V30 22419 C 2137.59 -2.06297 -2.74402 0
M  V30 22420 C 2136.67 -3.26778 -2.70328 0
M  V30 22421 N 2137.06 -4.47436 -2.3587 0
M  V30 22422 C 2135.36 -3.28713 -3.01436 0
M  V30 22423 C 2136.06 -5.29437 -2.4098 0
M  V30 22424 N 2135.04 -4.67048 -2.78149 0
M  V30 22425 H 2138.84 -2.72481 -1.10142 0
M  V30 22426 H 2136.36 -1.54046 -0.514153 0
M  V30 22427 H 2138.35 -2.23798 -3.51739 0
M  V30 22428 H 2137.01 -1.16707 -3.03001 0
M  V30 22429 H 2138.02 -4.74118 -2.08404 0
M  V30 22430 H 2134.7 -2.49214 -3.3496 0
M  V30 22431 H 2136.09 -6.35833 -2.17177 0
M  V30 22432 N 2138.81 0.568558 -1.46987 0
M  V30 22433 C 2140.09 1.3291 -1.43507 0
M  V30 22434 C 2140.47 2.10724 -0.12598 0
M  V30 22435 O 2139.82 2.10348 0.892528 0
M  V30 22436 C 2140.03 2.2432 -2.6736 0
M  V30 22437 C 2141.37 2.85701 -3.14102 0
M  V30 22438 O 2142.4 2.34627 -2.68009 0
M  V30 22439 O 2141.26 3.78504 -3.94204 0
M  V30 22440 H 2138.35 0.597891 -0.571363 0
M  V30 22441 H 2140.9 0.588401 -1.59173 0
M  V30 22442 H 2139.67 1.66345 -3.54182 0
M  V30 22443 H 2139.29 3.05705 -2.54224 0
M  V30 22444 N 2140.29 1.34929 0.814366 0
M  V30 22445 C 2141.24 1.27231 1.94718 0
M  V30 22446 C 2142.23 0.16873 1.68558 0
M  V30 22447 O 2143.44 0.334235 1.7687 0
M  V30 22448 H 2139.81 0.395475 0.639612 0
M  V30 22449 H 2141.78 2.22951 1.98332 0
M  V30 22450 C 2140.53 1.0533 3.31362 0
M  V30 22451 H 2139.85 1.89485 3.52045 0
M  V30 22452 H 2141.29 1.03983 4.11052 0
M  V30 22453 C 2139.75 -0.243132 3.36022 0
M  V30 22454 O 2140.28 -1.24159 3.82031 0
M  V30 22455 N 2138.49 -0.279214 2.89256 0
M  V30 22456 H 2138.04 0.533893 2.52007 0
M  V30 22457 H 2137.99 -1.14638 2.92755 0
M  V30 22458 N 2141.77 -1.0356 1.18799 0
M  V30 22459 C 2143 -1.80226 1.01006 0
M  V30 22460 C 2143.4 -1.83904 -0.444538 0
M  V30 22461 O 2142.75 -1.27698 -1.32056 0
M  V30 22462 C 2142.81 -3.26949 1.49481 0
M  V30 22463 C 2142.47 -3.46921 2.97481 0
M  V30 22464 C 2143.47 -3.37692 3.95297 0
M  V30 22465 C 2141.16 -3.73353 3.36025 0
M  V30 22466 C 2143.15 -3.54609 5.29652 0
M  V30 22467 C 2140.84 -3.89916 4.70541 0
M  V30 22468 C 2141.83 -3.80545 5.67164 0
M  V30 22469 O 2141.52 -3.96627 6.99244 0
M  V30 22470 H 2141.25 -0.574238 0.356688 0
M  V30 22471 H 2143.81 -1.31373 1.57894 0
M  V30 22472 H 2142.04 -3.76795 0.869635 0
M  V30 22473 H 2143.73 -3.85189 1.28001 0
M  V30 22474 H 2144.49 -3.1723 3.66865 0
M  V30 22475 H 2140.37 -3.79743 2.61374 0
M  V30 22476 H 2143.92 -3.47211 6.05054 0
M  V30 22477 H 2139.81 -4.09873 4.98672 0
M  V30 22478 H 2140.58 -4.13758 7.0622 0
M  V30 22479 N 2143.25 -0.990834 -1.22557 0
M  V30 22480 C 2144.49 -0.666519 -1.91534 0
M  V30 22481 C 2144.82 0.799165 -1.76994 0
M  V30 22482 O 2144.1 1.57769 -1.13751 0
M  V30 22483 C 2144.38 -1.07064 -3.43816 0
M  V30 22484 C 2144.24 -2.59473 -3.67415 0
M  V30 22485 C 2145.55 -0.622332 -4.35678 0
M  V30 22486 H 2142.67 -0.243613 -0.695573 0
M  V30 22487 H 2145.32 -1.23399 -1.44474 0
M  V30 22488 H 2143.47 -0.587797 -3.84028 0
M  V30 22489 H 2145.14 -3.15412 -3.3662 0
M  V30 22490 H 2143.38 -3.01635 -3.11767 0
M  V30 22491 H 2144.05 -2.828 -4.74055 0
M  V30 22492 H 2146.53 -1.03704 -4.0297 0
M  V30 22493 H 2145.4 -0.933416 -5.40905 0
M  V30 22494 H 2145.66 0.477057 -4.39519 0
M  V30 22495 N 2144.72 1.37856 -0.763775 0
M  V30 22496 C 2145.97 1.99126 -0.321223 0
M  V30 22497 C 2146.29 1.61318 1.10615 0
M  V30 22498 O 2147.49 2.15633 1.64969 0
M  V30 22499 C 2145.95 3.56074 -0.523371 0
M  V30 22500 C 2145.56 4.02826 -1.96049 0
M  V30 22501 C 2147.3 4.24256 -0.144043 0
M  V30 22502 C 2145.21 5.52454 -2.11066 0
M  V30 22503 H 2144.14 0.744968 -0.116357 0
M  V30 22504 H 2146.79 1.5749 -0.941769 0
M  V30 22505 H 2145.17 3.9565 0.166513 0
M  V30 22506 H 2146.34 3.74515 -2.68468 0
M  V30 22507 H 2144.66 3.47402 -2.29567 0
M  V30 22508 H 2147.26 5.34184 -0.234865 0
M  V30 22509 H 2147.6 4.06351 0.904676 0
M  V30 22510 H 2148.13 3.89954 -0.786169 0
M  V30 22511 H 2144.87 5.75275 -3.14228 0
M  V30 22512 H 2144.39 5.82474 -1.43121 0
M  V30 22513 H 2146.07 6.18305 -1.90546 0
M  V30 22514 N 2146.2 0.513665 1.48994 0
M  V30 22515 C 2147.62 0.170439 1.58687 0
M  V30 22516 C 2147.82 -1.32564 1.51754 0
M  V30 22517 O 2146.87 -2.10262 1.39807 0
M  V30 22518 C 2148.19 0.758488 2.90977 0
M  V30 22519 C 2149.73 0.725739 3.0447 0
M  V30 22520 C 2150.21 1.29207 4.39397 0
M  V30 22521 N 2151.7 1.25333 4.45922 0
M  V30 22522 C 2152.44 1.66159 5.48798 0
M  V30 22523 N 2151.93 2.14638 6.58713 0
M  V30 22524 N 2153.72 1.57496 5.39584 0
M  V30 22525 H 2145.88 1.48619 1.51744 0
M  V30 22526 H 2148.14 0.617216 0.719548 0
M  V30 22527 H 2147.84 1.8082 3.01657 0
M  V30 22528 H 2147.72 0.226166 3.76521 0
M  V30 22529 H 2150.11 -0.315169 2.93412 0
M  V30 22530 H 2150.19 1.29535 2.20577 0
M  V30 22531 H 2149.83 2.33183 4.51207 0
M  V30 22532 H 2149.76 0.69829 5.2195 0
M  V30 22533 H 2152.25 0.89826 3.67069 0
M  V30 22534 H 2152.56 2.43827 7.33327 0
M  V30 22535 H 2150.91 2.18621 6.5972 0
M  V30 22536 H 2154.1 1.19432 4.52608 0
M  V30 22537 H 2154.27 1.89636 6.19631 0
M  V30 22538 N 2147.68 -1.55636 0.248053 0
M  V30 22539 C 2149.1 -1.59242 -0.10677 0
M  V30 22540 C 2149.3 -1.26521 -1.56827 0
M  V30 22541 O 2148.35 -1.01308 -2.31285 0
M  V30 22542 C 2149.66 -2.99713 0.243455 0
M  V30 22543 C 2151.21 -3.12436 0.187848 0
M  V30 22544 C 2151.69 -4.55128 0.512122 0
M  V30 22545 N 2153.18 -4.60884 0.462665 0
M  V30 22546 C 2153.91 -5.69273 0.686723 0
M  V30 22547 N 2153.41 -6.8592 0.973967 0
M  V30 22548 N 2155.2 -5.587 0.617351 0
M  V30 22549 H 2147.35 -1.75175 1.20114 0
M  V30 22550 H 2149.62 -0.81551 0.483371 0
M  V30 22551 H 2149.32 -3.28399 1.25884 0
M  V30 22552 H 2149.2 -3.74754 -0.428884 0
M  V30 22553 H 2151.58 -2.8353 -0.818215 0
M  V30 22554 H 2151.66 -2.39667 0.894055 0
M  V30 22555 H 2151.31 -4.84755 1.51575 0
M  V30 22556 H 2151.24 -5.26159 -0.215575 0
M  V30 22557 H 2153.73 -3.77076 0.249427 0
M  V30 22558 H 2154.04 -7.64459 1.13232 0
M  V30 22559 H 2152.39 -6.87601 1.01145 0
M  V30 22560 H 2155.58 -4.66447 0.392982 0
M  V30 22561 H 2155.75 -6.431 0.795363 0
M  V30 22562 N 2149.16 0.0250451 -1.5758 0
M  V30 22563 C 2150.39 0.72671 -1.93718 0
M  V30 22564 C 2150.8 1.68677 -0.848148 0
M  V30 22565 O 2150.16 1.81658 0.175105 0
M  V30 22566 C 2150.21 1.4803 -3.29802 0
M  V30 22567 O 2149.93 0.55877 -4.34522 0
M  V30 22568 C 2151.43 2.27876 -3.80247 0
M  V30 22569 H 2148.65 0.203986 -0.639242 0
M  V30 22570 H 2151.19 -0.0186251 -2.04492 0
M  V30 22571 H 2149.35 2.17748 -3.20413 0
M  V30 22572 H 2149.76 1.08769 -5.13098 0
M  V30 22573 H 2151.24 2.7614 -4.77965 0
M  V30 22574 H 2151.71 3.09471 -3.11648 0
M  V30 22575 H 2152.32 1.63224 -3.92731 0
M  V30 22576 N 2150.64 1.54769 0.297388 0
M  V30 22577 C 2151.6 1.85222 1.35002 0
M  V30 22578 C 2152.6 0.725316 1.43512 0
M  V30 22579 O 2153.79 0.993591 1.43085 0
M  V30 22580 C 2150.92 2.03573 2.73443 0
M  V30 22581 H 2152.11 2.79296 1.09241 0
M  V30 22582 H 2149.67 1.46886 0.53424 0
M  V30 22583 H 2150.4 1.11799 3.0442 0
M  V30 22584 H 2150.19 2.85599 2.68655 0
M  V30 22585 H 2151.68 2.28492 3.49545 0
M  V30 22586 N 2152.11 -0.560755 1.47286 0
M  V30 22587 C 2153.36 -1.32004 1.53957 0
M  V30 22588 C 2153.69 -1.9317 0.199705 0
M  V30 22589 O 2152.97 -1.77676 -0.791288 0
M  V30 22590 C 2153.25 -2.43284 2.6549 0
M  V30 22591 C 2153.1 -1.87009 4.09081 0
M  V30 22592 C 2154.42 -3.45228 2.72957 0
M  V30 22593 H 2151.54 -0.478599 0.560457 0
M  V30 22594 H 2154.18 -0.627854 1.79327 0
M  V30 22595 H 2152.33 -3.02327 2.43989 0
M  V30 22596 H 2154.01 -1.32254 4.41935 0
M  V30 22597 H 2152.25 -1.17705 4.17526 0
M  V30 22598 H 2152.92 -2.67438 4.82888 0
M  V30 22599 H 2155.4 -2.96099 2.92344 0
M  V30 22600 H 2154.27 -4.20522 3.52778 0
M  V30 22601 H 2154.53 -4.03854 1.79874 0
M  V30 22602 N 2153.59 -1.35359 -0.807199 0
M  V30 22603 C 2154.87 -1.19163 -1.55111 0
M  V30 22604 C 2155.25 0.22949 -2.09849 0
M  V30 22605 O 2154.6 1.23292 -1.92383 0
M  V30 22606 C 2154.81 -2.25917 -2.66012 0
M  V30 22607 C 2156.15 -2.61693 -3.34368 0
M  V30 22608 O 2157.18 -2.24826 -2.76282 0
M  V30 22609 O 2156.04 -3.25083 -4.39299 0
M  V30 22610 H 2153.13 -0.462906 -0.685308 0
M  V30 22611 H 2155.68 -1.47039 -0.847213 0
M  V30 22612 H 2154.45 -3.21238 -2.23432 0
M  V30 22613 H 2154.07 -1.99307 -3.44038 0
M  V30 22614 N 2155.07 1.02928 -1.19346 0
M  V30 22615 C 2156.29 1.80485 -1.02175 0
M  V30 22616 C 2156.72 1.83238 0.424925 0
M  V30 22617 O 2156.08 1.25809 1.30545 0
M  V30 22618 C 2156.13 3.23415 -1.59483 0
M  V30 22619 O 2155.23 4.04087 -0.823877 0
M  V30 22620 H 2154.57 0.557177 -0.361178 0
M  V30 22621 H 2157.1 1.29551 -1.5836 0
M  V30 22622 H 2157.11 3.74164 -1.62681 0
M  V30 22623 H 2155.79 3.20727 -2.64777 0
M  V30 22624 H 2154.36 3.62726 -0.865114 0
M  V30 22625 N 2156.55 0.997319 1.2203 0
M  V30 22626 C 2157.8 0.674331 1.90518 0
M  V30 22627 C 2158.12 -0.796582 1.77988 0
M  V30 22628 O 2157.39 -1.57133 1.16988 0
M  V30 22629 H 2155.97 0.246427 0.705183 0
M  V30 22630 H 2158.63 1.26478 1.48288 0
M  V30 22631 H 2157.72 0.940744 2.97584 0
M  V30 22632 N 2158.03 -1.37449 0.771075 0
M  V30 22633 C 2159.28 -1.98953 0.331779 0
M  V30 22634 C 2159.59 -1.61903 -1.09758 0
M  V30 22635 O 2160.79 -2.16505 -1.63823 0
M  V30 22636 C 2159.25 -3.55792 0.542247 0
M  V30 22637 C 2158.86 -4.01781 1.98183 0
M  V30 22638 C 2160.6 -4.24173 0.16654 0
M  V30 22639 C 2158.51 -5.51327 2.13993 0
M  V30 22640 H 2157.44 -0.74434 0.120306 0
M  V30 22641 H 2160.09 -1.56988 0.950108 0
M  V30 22642 H 2158.47 -3.95733 -0.145529 0
M  V30 22643 H 2159.65 -3.73086 2.7045 0
M  V30 22644 H 2157.96 -3.46179 2.31406 0
M  V30 22645 H 2160.56 -5.34052 0.263191 0
M  V30 22646 H 2160.9 -4.06825 -0.883113 0
M  V30 22647 H 2161.43 -3.89532 0.806838 0
M  V30 22648 H 2158.17 -5.736 3.17275 0
M  V30 22649 H 2157.69 -5.81707 1.46208 0
M  V30 22650 H 2159.37 -6.17286 1.93822 0
M  V30 22651 N 2159.5 -0.52156 -1.4872 0
M  V30 22652 C 2160.92 -0.0789475 -1.86533 0
M  V30 22653 C 2161.27 1.34125 -1.43196 0
M  V30 22654 O 2160.39 2.00307 -0.818913 0
M  V30 22655 C 2160.99 -0.136494 -3.38525 0
M  V30 22656 C 2159.55 0.250879 -3.75563 0
M  V30 22657 C 2158.69 -0.499991 -2.72755 0
M  V30 22658 H 2161.64 -0.733264 -1.40744 0
M  V30 22659 H 2161.66 0.653868 -3.7484 0
M  V30 22660 H 2161.18 -1.17024 -3.70036 0
M  V30 22661 H 2159.28 1.28709 -3.49664 0
M  V30 22662 H 2159.39 -0.0828724 -4.79028 0
M  V30 22663 H 2157.75 0.0527232 -2.54645 0
M  V30 22664 H 2158.54 -1.53421 -3.0711 0
M  V30 22665 N 2160.98 1.55502 -0.256304 0
M  V30 22666 C 2161.91 2.24749 0.633265 0
M  V30 22667 C 2162.89 1.23102 1.17388 0
M  V30 22668 O 2164.08 1.51778 1.2115 0
M  V30 22669 C 2161.21 2.95418 1.82607 0
M  V30 22670 C 2160.16 4.03834 1.41782 0
M  V30 22671 C 2159.49 4.61978 2.69222 0
M  V30 22672 C 2160.79 5.19048 0.581913 0
M  V30 22673 H 2162.48 2.99348 0.0558207 0
M  V30 22674 H 2160.03 1.43978 0.0254079 0
M  V30 22675 H 2161.98 3.42565 2.45412 0
M  V30 22676 H 2160.71 2.18323 2.42905 0
M  V30 22677 H 2159.36 3.5747 0.813066 0
M  V30 22678 H 2159.01 3.81572 3.27737 0
M  V30 22679 H 2158.71 5.3517 2.42625 0
M  V30 22680 H 2160.24 5.11864 3.32908 0
M  V30 22681 H 2161.65 5.62363 1.11449 0
M  V30 22682 H 2160.05 5.98687 0.411617 0
M  V30 22683 H 2161.12 4.83216 -0.403719 0
M  V30 22684 N 2162.46 -0.0166879 1.57591 0
M  V30 22685 C 2163.39 -1.01268 2.10398 0
M  V30 22686 C 2164.37 -1.36922 1.00928 0
M  V30 22687 O 2165.56 -1.45589 1.2852 0
M  V30 22688 C 2162.69 -2.30979 2.59357 0
M  V30 22689 C 2161.64 -2.09533 3.73202 0
M  V30 22690 C 2160.97 -3.45113 4.08413 0
M  V30 22691 C 2162.27 -1.47144 5.01145 0
M  V30 22692 H 2163.96 -0.573053 2.93865 0
M  V30 22693 H 2161.51 -0.274203 1.41365 0
M  V30 22694 H 2163.46 -3.00996 2.94923 0
M  V30 22695 H 2162.18 -2.77024 1.72989 0
M  V30 22696 H 2160.84 -1.41946 3.38004 0
M  V30 22697 H 2160.49 -3.88829 3.19094 0
M  V30 22698 H 2160.19 -3.31585 4.85104 0
M  V30 22699 H 2161.71 -4.16472 4.46524 0
M  V30 22700 H 2163.13 -2.07094 5.34588 0
M  V30 22701 H 2161.53 -1.44154 5.82529 0
M  V30 22702 H 2162.6 -0.438665 4.82912 0
M  V30 22703 N 2163.94 -1.54924 -0.289176 0
M  V30 22704 C 2165.17 -1.78772 -1.04154 0
M  V30 22705 C 2165.58 -0.553005 -1.8052 0
M  V30 22706 O 2164.94 0.47752 -1.76142 0
M  V30 22707 C 2164.99 -3.00278 -2.01284 0
M  V30 22708 O 2164.71 -4.18979 -1.28015 0
M  V30 22709 C 2166.21 -3.36605 -2.88464 0
M  V30 22710 H 2163.43 -0.595936 -0.308384 0
M  V30 22711 H 2165.98 -2.01903 -0.324862 0
M  V30 22712 H 2164.13 -2.79321 -2.68438 0
M  V30 22713 H 2164.54 -4.87563 -1.93345 0
M  V30 22714 H 2166.02 -4.24837 -3.52446 0
M  V30 22715 H 2166.5 -2.55285 -3.57388 0
M  V30 22716 H 2167.1 -3.59764 -2.26825 0
M  V30 22717 N 2165.42 0.552936 -1.47582 0
M  V30 22718 C 2166.36 1.68064 -1.60802 0
M  V30 22719 C 2167.36 1.62599 -0.475175 0
M  V30 22720 O 2168.56 1.67733 -0.653122 0
M  V30 22721 H 2164.94 0.556179 -0.506131 0
M  V30 22722 H 2166.91 1.54051 -2.5556 0
M  V30 22723 C 2165.66 3.06407 -1.64348 0
M  V30 22724 H 2164.98 3.11295 -2.50869 0
M  V30 22725 H 2166.42 3.8499 -1.77647 0
M  V30 22726 C 2164.88 3.34777 -0.377611 0
M  V30 22727 O 2165.41 3.98327 0.519466 0
M  V30 22728 N 2163.62 2.89467 -0.256324 0
M  V30 22729 H 2163.16 2.3793 -0.98727 0
M  V30 22730 H 2163.12 3.0882 0.589696 0
M  V30 22731 N 2166.89 1.35785 0.800009 0
M  V30 22732 C 2168.14 1.29425 1.55741 0
M  V30 22733 C 2168.47 -0.129487 1.94068 0
M  V30 22734 O 2167.72 -1.09631 1.6211 0
M  V30 22735 C 2168.02 2.15261 2.85302 0
M  V30 22736 C 2167.69 3.63962 2.66162 0
M  V30 22737 C 2166.35 4.04493 2.60651 0
M  V30 22738 C 2168.7 4.58288 2.48238 0
M  V30 22739 C 2166.03 5.37507 2.35166 0
M  V30 22740 C 2168.38 5.91507 2.24281 0
M  V30 22741 C 2167.05 6.31175 2.17195 0
M  V30 22742 H 2166.32 0.473601 0.569898 0
M  V30 22743 H 2168.96 1.67742 0.923842 0
M  V30 22744 H 2167.27 1.69846 3.53071 0
M  V30 22745 H 2168.97 2.07672 3.43036 0
M  V30 22746 H 2165.56 3.31802 2.71303 0
M  V30 22747 H 2169.74 4.27854 2.51504 0
M  V30 22748 H 2165 5.67235 2.28154 0
M  V30 22749 H 2169.17 6.64171 2.09403 0
M  V30 22750 H 2166.8 7.34175 1.9721 0
M  V30 22751 N 2168.37 -1.02294 1.19891 0
M  V30 22752 C 2169.3 -2.108 0.899788 0
M  V30 22753 C 2170.32 -1.62429 -0.109916 0
M  V30 22754 O 2171.51 -1.78094 0.120276 0
M  V30 22755 C 2168.61 -3.37325 0.326304 0
M  V30 22756 C 2167.78 -4.1486 1.38601 0
M  V30 22757 C 2166.84 -5.19693 0.824993 0
M  V30 22758 O 2165.86 -5.48966 1.50415 0
M  V30 22759 N 2167.07 -5.79328 -0.36876 0
M  V30 22760 H 2169.83 -2.37048 1.8338 0
M  V30 22761 H 2167.39 -1.18633 1.10172 0
M  V30 22762 H 2169.38 -4.04651 -0.0629984 0
M  V30 22763 H 2167.95 -3.08377 -0.512119 0
M  V30 22764 H 2167.17 -3.42596 1.94991 0
M  V30 22765 H 2168.46 -4.63446 2.09989 0
M  V30 22766 H 2167.86 -5.57871 -0.93792 0
M  V30 22767 H 2166.42 -6.48033 -0.699773 0
M  V30 22768 N 2169.85 -1.00378 -1.21499 0
M  V30 22769 C 2171.1 -0.686796 -1.90817 0
M  V30 22770 C 2171.43 0.780348 -1.77832 0
M  V30 22771 O 2170.7 1.56554 -1.15418 0
M  V30 22772 C 2170.99 -1.10705 -3.42661 0
M  V30 22773 C 2170.84 -2.63355 -3.64642 0
M  V30 22774 C 2172.16 -0.668506 -4.34993 0
M  V30 22775 H 2169.28 -0.250976 -0.69295 0
M  V30 22776 H 2171.92 -1.24924 -1.43157 0
M  V30 22777 H 2170.07 -0.628496 -3.83383 0
M  V30 22778 H 2171.74 -3.18964 -3.33256 0
M  V30 22779 H 2169.99 -3.04925 -3.0855 0
M  V30 22780 H 2170.66 -2.87812 -4.71029 0
M  V30 22781 H 2173.13 -1.07972 -4.01847 0
M  V30 22782 H 2172.01 -0.990733 -5.39885 0
M  V30 22783 H 2172.27 0.430413 -4.4 0
M  V30 22784 N 2171.33 1.37038 -0.778354 0
M  V30 22785 C 2172.56 2.03792 -0.357266 0
M  V30 22786 C 2172.97 1.587 1.02272 0
M  V30 22787 O 2172.33 0.771294 1.654 0
M  V30 22788 C 2172.38 3.59293 -0.398808 0
M  V30 22789 O 2172.1 4.02737 -1.72437 0
M  V30 22790 C 2173.6 4.43288 0.0330462 0
M  V30 22791 H 2170.82 0.654304 -0.148753 0
M  V30 22792 H 2173.37 1.75239 -1.05412 0
M  V30 22793 H 2171.52 3.86596 0.249525 0
M  V30 22794 H 2171.93 4.97286 -1.66754 0
M  V30 22795 H 2173.41 5.5198 -0.0471696 0
M  V30 22796 H 2173.89 4.25606 1.08428 0
M  V30 22797 H 2174.49 4.21225 -0.58735 0
M  V30 22798 N 2172.81 0.529439 1.48441 0
M  V30 22799 C 2173.75 -0.233627 2.29615 0
M  V30 22800 C 2174.72 -0.934301 1.37332 0
M  V30 22801 O 2175.91 -0.935433 1.66296 0
M  V30 22802 C 2173.05 -1.27491 3.20687 0
M  V30 22803 C 2172.16 -0.583135 4.28046 0
M  V30 22804 C 2171.3 -1.6073 5.06299 0
M  V30 22805 C 2170.34 -0.898962 6.05463 0
M  V30 22806 N 2169.47 -1.86865 6.76776 0
M  V30 22807 H 2174.31 0.464768 2.94353 0
M  V30 22808 H 2171.85 0.241037 1.45112 0
M  V30 22809 H 2173.81 -1.89092 3.71887 0
M  V30 22810 H 2172.44 -1.9417 2.57872 0
M  V30 22811 H 2171.49 0.146804 3.80117 0
M  V30 22812 H 2172.8 -0.0269268 4.98793 0
M  V30 22813 H 2171.96 -2.29761 5.61511 0
M  V30 22814 H 2170.7 -2.19741 4.35391 0
M  V30 22815 H 2169.7 -0.194579 5.49456 0
M  V30 22816 H 2170.93 -0.314978 6.78369 0
M  V30 22817 H 2168.87 -2.44784 6.08619 0
M  V30 22818 H 2168.79 -1.36386 7.43596 0
M  V30 22819 H 2170.06 -2.55096 7.36577 0
M  V30 22820 N 2174.29 -1.55364 0.264547 0
M  V30 22821 C 2175.22 -2.25081 -0.621337 0
M  V30 22822 C 2176.2 -1.23722 -1.16734 0
M  V30 22823 O 2177.38 -1.52418 -1.20343 0
M  V30 22824 C 2174.51 -2.96382 -1.81038 0
M  V30 22825 C 2173.47 -4.0458 -1.39638 0
M  V30 22826 C 2172.79 -4.63399 -2.66768 0
M  V30 22827 C 2174.09 -5.1935 -0.554378 0
M  V30 22828 H 2175.79 -2.99373 -0.0399448 0
M  V30 22829 H 2173.33 -1.43989 -0.0177721 0
M  V30 22830 H 2175.28 -3.43862 -2.43592 0
M  V30 22831 H 2174.01 -2.19608 -2.41744 0
M  V30 22832 H 2172.67 -3.57896 -0.794097 0
M  V30 22833 H 2172.32 -3.83305 -3.25709 0
M  V30 22834 H 2172.02 -5.36449 -2.39784 0
M  V30 22835 H 2173.54 -5.13622 -3.30189 0
M  V30 22836 H 2174.95 -5.62946 -1.08465 0
M  V30 22837 H 2173.35 -5.98897 -0.379861 0
M  V30 22838 H 2174.42 -4.82996 0.42934 0
M  V30 22839 N 2175.76 0.00833021 -1.57598 0
M  V30 22840 C 2177.01 0.694911 -1.90203 0
M  V30 22841 C 2177.34 1.74238 -0.864369 0
M  V30 22842 O 2176.59 1.95254 0.131976 0
M  V30 22843 C 2176.89 1.38284 -3.29564 0
M  V30 22844 C 2176.56 0.469372 -4.4845 0
M  V30 22845 C 2175.22 0.21784 -4.80707 0
M  V30 22846 C 2177.57 -0.160058 -5.20954 0
M  V30 22847 C 2174.9 -0.671554 -5.82844 0
M  V30 22848 C 2177.25 -1.03728 -6.24038 0
M  V30 22849 C 2175.92 -1.29807 -6.54757 0
M  V30 22850 H 2175.19 0.254286 -0.696003 0
M  V30 22851 H 2177.83 -0.0454086 -1.91446 0
M  V30 22852 H 2176.14 2.197 -3.24406 0
M  V30 22853 H 2177.84 1.91998 -3.52048 0
M  V30 22854 H 2174.43 0.675583 -4.23242 0
M  V30 22855 H 2178.61 0.0212698 -4.96295 0
M  V30 22856 H 2173.87 -0.881698 -6.05009 0
M  V30 22857 H 2178.04 -1.5314 -6.79353 0
M  V30 22858 H 2175.67 -1.98894 -7.3372 0
M  V30 22859 N 2177.24 1.55075 0.280956 0
M  V30 22860 C 2178.2 1.86644 1.33029 0
M  V30 22861 C 2179.2 0.740496 1.42735 0
M  V30 22862 O 2180.39 1.00871 1.42023 0
M  V30 22863 C 2177.53 2.06462 2.71268 0
M  V30 22864 H 2178.72 2.80439 1.06273 0
M  V30 22865 H 2176.27 1.47445 0.51863 0
M  V30 22866 H 2177.01 1.15021 3.03217 0
M  V30 22867 H 2176.79 2.88433 2.65611 0
M  V30 22868 H 2178.28 2.32186 3.47101 0
M  V30 22869 N 2178.72 -0.545102 1.47873 0
M  V30 22870 C 2179.63 -1.67829 1.63922 0
M  V30 22871 C 2180.65 -1.65989 0.521885 0
M  V30 22872 O 2181.82 -1.85216 0.791005 0
M  V30 22873 C 2178.89 -3.0432 1.66102 0
M  V30 22874 C 2177.95 -3.17134 2.89352 0
M  V30 22875 C 2177.18 -4.47114 2.91419 0
M  V30 22876 O 2177.4 -5.33307 2.02337 0
M  V30 22877 O 2176.34 -4.63974 3.83421 0
M  V30 22878 H 2180.16 -1.57229 2.59832 0
M  V30 22879 H 2177.75 -0.716489 1.31098 0
M  V30 22880 H 2179.63 -3.85524 1.70145 0
M  V30 22881 H 2178.31 -3.15277 0.733623 0
M  V30 22882 H 2177.21 -2.35282 2.90849 0
M  V30 22883 H 2178.55 -3.11086 3.81426 0
M  V30 22884 N 2180.2 -1.36208 -0.792797 0
M  V30 22885 C 2181.16 -1.30111 -1.88689 0
M  V30 22886 C 2182.16 -0.209535 -1.59429 0
M  V30 22887 O 2183.35 -0.464108 -1.67904 0
M  V30 22888 C 2180.48 -1.01615 -3.25403 0
M  V30 22889 H 2181.68 -2.2741 -1.95511 0
M  V30 22890 H 2179.23 -1.20931 -0.990219 0
M  V30 22891 H 2179.96 -0.0476043 -3.24265 0
M  V30 22892 H 2179.75 -1.80604 -3.48029 0
M  V30 22893 H 2181.24 -0.999458 -4.05463 0
M  V30 22894 N 2181.68 1.01656 -1.20431 0
M  V30 22895 C 2182.92 1.75515 -1.016 0
M  V30 22896 C 2183.25 1.88896 0.450791 0
M  V30 22897 O 2182.53 1.4148 1.33468 0
M  V30 22898 C 2182.81 3.17433 -1.70024 0
M  V30 22899 C 2182.67 3.11847 -3.24147 0
M  V30 22900 C 2183.98 4.16105 -1.43334 0
M  V30 22901 H 2181.1 0.637102 -0.370501 0
M  V30 22902 H 2183.75 1.18591 -1.48446 0
M  V30 22903 H 2181.9 3.66035 -1.30195 0
M  V30 22904 H 2183.57 2.71049 -3.7327 0
M  V30 22905 H 2181.81 2.49242 -3.55051 0
M  V30 22906 H 2182.48 4.12169 -3.6718 0
M  V30 22907 H 2184.96 3.76159 -1.77887 0
M  V30 22908 H 2183.83 5.13571 -1.93741 0
M  V30 22909 H 2184.09 4.40624 -0.360952 0
M  V30 22910 N 2183.15 1.01021 1.20965 0
M  V30 22911 C 2184.09 0.533213 2.22911 0
M  V30 22912 C 2185.1 -0.38098 1.58279 0
M  V30 22913 O 2186.29 -0.180348 1.77587 0
M  V30 22914 C 2183.39 -0.244499 3.38017 0
M  V30 22915 C 2182.56 0.670039 4.32237 0
M  V30 22916 C 2181.62 -0.0589738 5.26167 0
M  V30 22917 O 2180.65 0.561411 5.66425 0
M  V30 22918 N 2181.85 -1.33588 5.6492 0
M  V30 22919 H 2184.61 1.40992 2.64464 0
M  V30 22920 H 2182.17 0.886969 1.35442 0
M  V30 22921 H 2184.17 -0.74128 3.97853 0
M  V30 22922 H 2182.74 -1.02244 2.95406 0
M  V30 22923 H 2181.96 1.34723 3.70464 0
M  V30 22924 H 2183.24 1.29225 4.92116 0
M  V30 22925 H 2182.64 -1.86096 5.34214 0
M  V30 22926 H 2181.2 -1.77752 6.27095 0
M  V30 22927 N 2184.63 -1.36623 0.78561 0
M  V30 22928 C 2185.58 -2.30101 0.179493 0
M  V30 22929 C 2186.55 -1.51789 -0.674485 0
M  V30 22930 O 2187.73 -1.80309 -0.623959 0
M  V30 22931 C 2184.87 -3.38279 -0.682737 0
M  V30 22932 C 2183.99 -4.31585 0.189365 0
M  V30 22933 C 2183.12 -5.26844 -0.678879 0
M  V30 22934 C 2182.16 -6.1179 0.194912 0
M  V30 22935 N 2181.3 -6.99249 -0.632096 0
M  V30 22936 H 2186.14 -2.81351 0.98212 0
M  V30 22937 H 2183.67 -1.38489 0.495893 0
M  V30 22938 H 2185.63 -3.99642 -1.19759 0
M  V30 22939 H 2184.26 -2.88359 -1.45083 0
M  V30 22940 H 2183.31 -3.71409 0.822157 0
M  V30 22941 H 2184.63 -4.91281 0.862795 0
M  V30 22942 H 2183.78 -5.93478 -1.25969 0
M  V30 22943 H 2182.52 -4.67593 -1.38595 0
M  V30 22944 H 2181.52 -5.44121 0.788155 0
M  V30 22945 H 2182.75 -6.73116 0.899523 0
M  V30 22946 H 2180.7 -6.4251 -1.32353 0
M  V30 22947 H 2180.61 -7.55998 -0.0162646 0
M  V30 22948 H 2181.88 -7.70257 -1.19686 0
M  V30 22949 N 2186.11 -0.537304 -1.48158 0
M  V30 22950 C 2187.33 -0.00809879 -2.07398 0
M  V30 22951 C 2187.76 1.26708 -1.39021 0
M  V30 22952 O 2187.12 1.75405 -0.458551 0
M  V30 22953 C 2187.17 0.191371 -3.60092 0
M  V30 22954 O 2186.27 1.25844 -3.9273 0
M  V30 22955 H 2185.61 -0.042404 -0.662645 0
M  V30 22956 H 2188.14 -0.747308 -1.90464 0
M  V30 22957 H 2188.15 0.411766 -4.05917 0
M  V30 22958 H 2186.83 -0.740103 -4.09262 0
M  V30 22959 H 2185.4 1.02012 -3.58675 0
M  V30 22960 N 2187.59 1.55221 -0.272782 0
M  V30 22961 C 2189 1.59392 0.0814225 0
M  V30 22962 C 2189.2 1.29 1.54794 0
M  V30 22963 O 2188.26 1.04975 2.29644 0
M  V30 22964 C 2189.57 2.99288 -0.291106 0
M  V30 22965 C 2191.12 3.12097 -0.23753 0
M  V30 22966 C 2191.6 4.54255 -0.584464 0
M  V30 22967 N 2193.09 4.60089 -0.53593 0
M  V30 22968 C 2193.82 5.68108 -0.777202 0
M  V30 22969 N 2193.32 6.84283 -1.08297 0
M  V30 22970 N 2195.11 5.57647 -0.706157 0
M  V30 22971 H 2187.26 1.73242 -1.22886 0
M  V30 22972 H 2189.53 0.807717 -0.496284 0
M  V30 22973 H 2189.23 3.26355 -1.31093 0
M  V30 22974 H 2189.11 3.75389 0.36921 0
M  V30 22975 H 2191.49 2.84796 0.773005 0
M  V30 22976 H 2191.57 2.38214 -0.93207 0
M  V30 22977 H 2191.22 4.82282 -1.59267 0
M  V30 22978 H 2191.15 5.26435 0.13184 0
M  V30 22979 H 2193.64 3.76631 -0.309385 0
M  V30 22980 H 2193.95 7.62561 -1.2538 0
M  V30 22981 H 2192.3 6.85904 -1.12072 0
M  V30 22982 H 2195.49 4.65763 -0.46714 0
M  V30 22983 H 2195.66 6.41754 -0.897574 0
M  V30 22984 N 2189.07 2.77022e-05 1.576 0
M  V30 22985 C 2190.01 -0.991376 2.08424 0
M  V30 22986 C 2190.98 -1.34134 0.979661 0
M  V30 22987 O 2192.17 -1.4397 1.25209 0
M  V30 22988 C 2189.31 -2.27808 2.59224 0
M  V30 22989 C 2188.42 -1.98715 3.83584 0
M  V30 22990 C 2187.56 -3.21468 4.22885 0
M  V30 22991 C 2186.6 -2.88061 5.40081 0
M  V30 22992 N 2185.73 -4.0335 5.74676 0
M  V30 22993 H 2190.57 -0.551038 2.92861 0
M  V30 22994 H 2188.11 -0.260432 1.44776 0
M  V30 22995 H 2190.07 -3.03029 2.86756 0
M  V30 22996 H 2188.7 -2.69511 1.77661 0
M  V30 22997 H 2187.75 -1.13862 3.62959 0
M  V30 22998 H 2189.06 -1.70092 4.68903 0
M  V30 22999 H 2188.22 -4.05034 4.517 0
M  V30 23000 H 2186.95 -3.53229 3.36275 0
M  V30 23001 H 2185.96 -2.02902 5.1099 0
M  V30 23002 H 2187.18 -2.57547 6.28368 0
M  V30 23003 H 2185.13 -4.35008 4.91023 0
M  V30 23004 H 2185.05 -3.78251 6.5457 0
M  V30 23005 H 2186.32 -4.87705 6.08082 0
M  V30 23006 N 2190.54 -1.55222 -0.272728 0
M  V30 23007 C 2191.79 -1.76102 -1.00578 0
M  V30 23008 C 2192.12 -0.560658 -1.85931 0
M  V30 23009 O 2191.4 0.441768 -1.89417 0
M  V30 23010 C 2191.68 -3.06631 -1.88811 0
M  V30 23011 C 2191.53 -4.37022 -1.06449 0
M  V30 23012 C 2192.85 -3.33202 -2.87514 0
M  V30 23013 H 2189.97 -0.640705 -0.364233 0
M  V30 23014 H 2192.61 -1.87953 -0.278156 0
M  V30 23015 H 2190.76 -2.96659 -2.5085 0
M  V30 23016 H 2192.44 -4.58953 -0.464782 0
M  V30 23017 H 2190.68 -4.32237 -0.367967 0
M  V30 23018 H 2191.35 -5.24681 -1.71505 0
M  V30 23019 H 2193.83 -3.42969 -2.35609 0
M  V30 23020 H 2192.7 -4.25798 -3.46392 0
M  V30 23021 H 2192.96 -2.52855 -3.62652 0
M  V30 23022 N 2192.02 0.537252 -1.4816 0
M  V30 23023 C 2193.3 1.29837 -1.46294 0
M  V30 23024 C 2193.68 2.10409 -0.17065 0
M  V30 23025 O 2193.03 2.12194 0.847709 0
M  V30 23026 C 2193.24 2.18598 -2.72058 0
M  V30 23027 C 2194.59 2.78974 -3.20092 0
M  V30 23028 O 2195.61 2.28889 -2.72925 0
M  V30 23029 O 2194.47 3.70057 -4.02144 0
M  V30 23030 H 2191.56 0.585637 -0.583916 0
M  V30 23031 H 2194.11 0.554506 -1.60385 0
M  V30 23032 H 2192.88 1.58795 -3.57631 0
M  V30 23033 H 2192.5 3.00244 -2.60651 0
M  V30 23034 N 2193.5 1.36626 0.785562 0
M  V30 23035 C 2194.73 1.344 1.57961 0
M  V30 23036 C 2195.15 -0.071493 1.87964 0
M  V30 23037 O 2194.51 -1.04457 1.48184 0
M  V30 23038 C 2194.56 2.17651 2.87507 0
M  V30 23039 O 2193.66 1.57165 3.81278 0
M  V30 23040 H 2193 0.459836 0.479006 0
M  V30 23041 H 2195.53 1.79962 0.973379 0
M  V30 23042 H 2195.54 2.30368 3.36741 0
M  V30 23043 H 2194.22 3.20546 2.64997 0
M  V30 23044 H 2192.79 1.53409 3.39883 0
M  V30 23045 N 2194.98 -1.01016 1.20969 0
M  V30 23046 C 2195.93 -2.09689 0.964317 0
M  V30 23047 C 2196.9 -1.6575 -0.107824 0
M  V30 23048 O 2198.08 -1.90762 0.0382323 0
M  V30 23049 C 2195.22 -3.41014 0.52949 0
M  V30 23050 C 2194.33 -3.98395 1.6705 0
M  V30 23051 C 2193.47 -5.17806 1.18534 0
M  V30 23052 C 2192.51 -5.67284 2.29902 0
M  V30 23053 N 2191.64 -6.77951 1.82558 0
M  V30 23054 H 2196.48 -2.30013 1.89467 0
M  V30 23055 H 2194.02 -1.12788 0.944309 0
M  V30 23056 H 2195.98 -4.16397 0.258662 0
M  V30 23057 H 2194.61 -3.20743 -0.363862 0
M  V30 23058 H 2193.66 -3.20046 2.05609 0
M  V30 23059 H 2194.97 -4.31113 2.50885 0
M  V30 23060 H 2194.13 -6.00417 0.870867 0
M  V30 23061 H 2192.87 -4.86669 0.316973 0
M  V30 23062 H 2191.87 -4.83273 2.62158 0
M  V30 23063 H 2193.1 -6.00453 3.17226 0
M  V30 23064 H 2191.04 -6.4863 0.980568 0
M  V30 23065 H 2190.96 -7.09896 2.59969 0
M  V30 23066 H 2192.23 -7.6411 1.54129 0
M  V30 23067 N 2196.46 -1.01661 -1.20428 0
M  V30 23068 C 2197.68 -0.724976 -1.94316 0
M  V30 23069 C 2198.11 0.708003 -1.74267 0
M  V30 23070 O 2197.46 1.48717 -1.03696 0
M  V30 23071 C 2197.51 -1.06597 -3.44484 0
M  V30 23072 O 2196.62 -0.177671 -4.12017 0
M  V30 23073 H 2195.96 -0.268991 -0.607075 0
M  V30 23074 H 2198.49 -1.35998 -1.52858 0
M  V30 23075 H 2198.5 -1.01769 -3.95104 0
M  V30 23076 H 2197.17 -2.11003 -3.584 0
M  V30 23077 H 2195.75 -0.283486 -3.71821 0
M  V30 23078 N 2197.93 1.36205 -0.792844 0
M  V30 23079 C 2198.86 2.32573 -0.207894 0
M  V30 23080 C 2199.85 1.56815 0.659028 0
M  V30 23081 O 2201.03 1.84952 0.592143 0
M  V30 23082 C 2198.16 3.4106 0.655389 0
M  V30 23083 C 2197.11 4.27854 -0.111917 0
M  V30 23084 C 2196.44 5.27539 0.872181 0
M  V30 23085 C 2197.74 5.05784 -1.30308 0
M  V30 23086 H 2199.43 2.81743 -1.01299 0
M  V30 23087 H 2196.98 1.35459 -0.488564 0
M  V30 23088 H 2198.93 4.07469 1.07457 0
M  V30 23089 H 2197.66 2.90466 1.49323 0
M  V30 23090 H 2196.32 3.63005 -0.512116 0
M  V30 23091 H 2195.96 4.73217 1.70514 0
M  V30 23092 H 2195.66 5.86477 0.363188 0
M  V30 23093 H 2197.19 5.96821 1.28986 0
M  V30 23094 H 2198.6 5.65214 -0.959478 0
M  V30 23095 H 2197 5.7415 -1.7456 0
M  V30 23096 H 2198.07 4.37226 -2.0967 0
M  V30 23097 N 2199.41 0.545154 1.47871 0
M  V30 23098 C 2200.66 0.0166214 2.02493 0
M  V30 23099 C 2200.99 -1.32834 1.42076 0
M  V30 23100 O 2200.24 -1.87472 0.561492 0
M  V30 23101 C 2200.54 -0.138607 3.57131 0
M  V30 23102 C 2200.21 1.13392 4.36409 0
M  V30 23103 C 2198.87 1.48264 4.5779 0
M  V30 23104 C 2201.22 1.97772 4.82219 0
M  V30 23105 C 2198.55 2.67385 5.22228 0
M  V30 23106 C 2200.9 3.16086 5.47971 0
M  V30 23107 C 2199.57 3.51285 5.67587 0
M  V30 23108 H 2198.84 0.0060822 0.740975 0
M  V30 23109 H 2201.48 0.714238 1.77682 0
M  V30 23110 H 2199.79 -0.919105 3.80867 0
M  V30 23111 H 2201.48 -0.562712 3.97032 0
M  V30 23112 H 2198.07 0.852371 4.20039 0
M  V30 23113 H 2202.26 1.72141 4.6549 0
M  V30 23114 H 2197.51 2.94841 5.35611 0
M  V30 23115 H 2201.69 3.81765 5.82433 0
M  V30 23116 H 2199.32 4.43686 6.1729 0
M  V30 23117 N 2200.89 -1.55074 0.28101 0
M  V30 23118 C 2201.84 -2.19449 -0.618547 0
M  V30 23119 C 2202.82 -1.161 -1.11398 0
M  V30 23120 O 2204.02 -1.41893 -1.05808 0
M  V30 23121 C 2201.15 -2.9236 -1.79946 0
M  V30 23122 C 2200.23 -4.03004 -1.32093 0
M  V30 23123 N 2200.62 -5.02702 -0.558956 0
M  V30 23124 C 2198.92 -4.16182 -1.60338 0
M  V30 23125 C 2199.62 -5.80891 -0.30662 0
M  V30 23126 N 2198.6 -5.36418 -0.880731 0
M  V30 23127 H 2202.4 -2.93886 -0.0286121 0
M  V30 23128 H 2199.91 -1.62178 0.0848389 0
M  V30 23129 H 2201.91 -3.36932 -2.45525 0
M  V30 23130 H 2200.57 -2.19435 -2.39329 0
M  V30 23131 H 2201.58 -5.17491 -0.205736 0
M  V30 23132 H 2198.26 -3.54451 -2.20614 0
M  V30 23133 H 2199.65 -6.71212 0.304028 0
M  V30 23134 N 2202.37 -0.00838561 -1.57598 0
M  V30 23135 C 2203.6 0.684462 -1.94932 0
M  V30 23136 C 2204.01 1.6737 -0.882262 0
M  V30 23137 O 2203.35 1.83114 0.146589 0
M  V30 23138 C 2203.41 1.46485 -3.28302 0
M  V30 23139 C 2203.08 0.63626 -4.52549 0
M  V30 23140 C 2204.07 -0.07965 -5.19839 0
M  V30 23141 C 2201.76 0.579761 -4.98943 0
M  V30 23142 C 2203.75 -0.840954 -6.31828 0
M  V30 23143 C 2201.44 -0.185262 -6.10819 0
M  V30 23144 C 2202.44 -0.894346 -6.77119 0
M  V30 23145 O 2202.13 -1.64687 -7.8685 0
M  V30 23146 H 2201.86 0.195038 -0.647253 0
M  V30 23147 H 2204.41 -0.0581632 -2.05318 0
M  V30 23148 H 2202.64 2.25214 -3.14349 0
M  V30 23149 H 2204.33 2.04383 -3.50689 0
M  V30 23150 H 2205.1 -0.0452054 -4.84979 0
M  V30 23151 H 2200.98 1.12122 -4.47157 0
M  V30 23152 H 2204.52 -1.39495 -6.83511 0
M  V30 23153 H 2200.42 -0.221498 -6.4512 0
M  V30 23154 H 2201.18 -1.56446 -8.0341 0
M  V30 23155 N 2203.85 1.55365 0.264492 0
M  V30 23156 C 2205.26 1.47395 0.612125 0
M  V30 23157 C 2205.46 0.695052 1.89133 0
M  V30 23158 O 2204.52 0.217319 2.51563 0
M  V30 23159 C 2205.83 2.91675 0.731184 0
M  V30 23160 C 2207.38 3.01941 0.824677 0
M  V30 23161 C 2207.86 4.47492 0.975443 0
M  V30 23162 N 2209.35 4.51356 1.04075 0
M  V30 23163 C 2210.08 5.61203 1.17636 0
M  V30 23164 N 2209.58 6.80899 1.27862 0
M  V30 23165 N 2211.37 5.48963 1.20814 0
M  V30 23166 H 2203.52 2.04455 -0.575492 0
M  V30 23167 H 2205.78 0.927493 -0.196115 0
M  V30 23168 H 2205.49 3.51427 -0.138454 0
M  V30 23169 H 2205.36 3.41172 1.60877 0
M  V30 23170 H 2207.75 2.42279 1.68478 0
M  V30 23171 H 2207.83 2.55682 -0.0776929 0
M  V30 23172 H 2207.48 5.07758 0.119969 0
M  V30 23173 H 2207.41 4.91415 1.89259 0
M  V30 23174 H 2209.9 3.65138 0.973782 0
M  V30 23175 H 2210.21 7.60367 1.38067 0
M  V30 23176 H 2208.56 6.83694 1.24851 0
M  V30 23177 H 2211.75 4.5439 1.12461 0
M  V30 23178 H 2211.92 6.34613 1.31038 0
M  V30 23179 N 2205.33 -0.529387 1.48443 0
M  V30 23180 C 2206.26 -1.64986 1.59098 0
M  V30 23181 C 2207.27 -1.55709 0.47524 0
M  V30 23182 O 2208.46 -1.62159 0.746109 0
M  V30 23183 C 2205.56 -3.03638 1.50524 0
M  V30 23184 C 2204.73 -3.3839 2.77148 0
M  V30 23185 C 2203.79 -4.56325 2.6202 0
M  V30 23186 O 2202.82 -4.59516 3.35907 0
M  V30 23187 N 2204.02 -5.54533 1.71677 0
M  V30 23188 H 2206.78 -1.56283 2.55726 0
M  V30 23189 H 2204.35 -0.716672 1.45174 0
M  V30 23190 H 2206.34 -3.80409 1.38098 0
M  V30 23191 H 2204.91 -3.06417 0.618681 0
M  V30 23192 H 2204.13 -2.50791 3.04134 0
M  V30 23193 H 2205.42 -3.58395 3.61152 0
M  V30 23194 H 2204.81 -5.54733 1.10851 0
M  V30 23195 H 2203.37 -6.3052 1.65189 0
M  V30 23196 N 2206.8 -1.37041 -0.778305 0
M  V30 23197 C 2208.03 -1.3487 -1.56504 0
M  V30 23198 C 2208.44 0.069447 -1.89073 0
M  V30 23199 O 2207.78 1.03985 -1.51436 0
M  V30 23200 C 2207.85 -2.1159 -2.90637 0
M  V30 23201 C 2207.51 -3.60603 -2.80739 0
M  V30 23202 C 2208.51 -4.54623 -2.52218 0
M  V30 23203 C 2206.19 -4.03638 -2.98967 0
M  V30 23204 C 2208.19 -5.89656 -2.42043 0
M  V30 23205 C 2205.87 -5.38759 -2.88413 0
M  V30 23206 C 2206.87 -6.3158 -2.59991 0
M  V30 23207 O 2206.56 -7.64218 -2.49451 0
M  V30 23208 H 2206.29 -0.463888 -0.491715 0
M  V30 23209 H 2208.85 -1.80891 -0.973021 0
M  V30 23210 H 2207.08 -1.60249 -3.51933 0
M  V30 23211 H 2208.76 -2.02137 -3.51988 0
M  V30 23212 H 2209.53 -4.22685 -2.37828 0
M  V30 23213 H 2205.41 -3.31755 -3.20093 0
M  V30 23214 H 2208.95 -6.62075 -2.19779 0
M  V30 23215 H 2204.85 -5.703 -3.0237 0
M  V30 23216 H 2205.62 -7.74465 -2.6485 0
M  V30 23217 N 2208.28 1.00373 -1.21503 0
M  V30 23218 C 2209.51 1.78278 -1.0598 0
M  V30 23219 C 2209.93 1.84098 0.385962 0
M  V30 23220 O 2209.29 1.28549 1.27847 0
M  V30 23221 C 2209.34 3.1996 -1.66307 0
M  V30 23222 O 2208.44 4.02248 -0.909404 0
M  V30 23223 H 2207.78 0.54939 -0.372916 0
M  V30 23224 H 2210.31 1.26162 -1.61072 0
M  V30 23225 H 2210.32 3.70629 -1.70581 0
M  V30 23226 H 2209 3.15038 -2.71521 0
M  V30 23227 H 2207.57 3.60809 -0.941859 0
M  V30 23228 N 2209.76 1.02298 1.19887 0
M  V30 23229 C 2210.72 0.60339 2.21115 0
M  V30 23230 C 2211.72 -0.329856 1.5738 0
M  V30 23231 O 2212.91 -0.117672 1.73802 0
M  V30 23232 C 2210.04 -0.117932 3.40696 0
M  V30 23233 H 2211.24 1.49898 2.59751 0
M  V30 23234 H 2208.79 0.813491 1.33462 0
M  V30 23235 H 2209.53 -1.02814 3.07571 0
M  V30 23236 H 2209.31 0.552579 3.88187 0
M  V30 23237 H 2210.8 -0.398623 4.15693 0
M  V30 23238 N 2211.24 -1.35782 0.800057 0
M  V30 23239 C 2212.49 -1.9856 0.376632 0
M  V30 23240 C 2212.81 -1.63797 -1.0581 0
M  V30 23241 O 2212.08 -0.917202 -1.73102 0
M  V30 23242 H 2210.66 -0.734465 0.136274 0
M  V30 23243 H 2213.32 -1.65804 1.02445 0
M  V30 23244 H 2212.41 -3.08432 0.477056 0
M  V30 23245 N 2212.72 -0.552988 -1.4758 0
M  V30 23246 C 2213.66 0.197067 -2.29957 0
M  V30 23247 C 2214.63 0.912335 -1.38801 0
M  V30 23248 O 2215.82 0.908859 -1.67763 0
M  V30 23249 C 2212.96 1.22373 -3.22674 0
M  V30 23250 C 2212.07 0.514963 -4.2892 0
M  V30 23251 C 2211.21 1.52655 -5.08792 0
M  V30 23252 C 2210.24 0.802524 -6.06816 0
M  V30 23253 N 2209.38 1.76074 -6.79663 0
M  V30 23254 H 2214.22 -0.511538 -2.93577 0
M  V30 23255 H 2211.76 -0.264093 -1.4471 0
M  V30 23256 H 2213.72 1.83152 -3.74848 0
M  V30 23257 H 2212.35 1.90042 -2.60929 0
M  V30 23258 H 2211.4 -0.207259 -3.79835 0
M  V30 23259 H 2212.71 -0.0524302 -4.98772 0
M  V30 23260 H 2211.86 2.20799 -5.65095 0
M  V30 23261 H 2210.6 2.12786 -4.38832 0
M  V30 23262 H 2209.61 0.107141 -5.49696 0
M  V30 23263 H 2210.83 0.207016 -6.78784 0
M  V30 23264 H 2208.78 2.35071 -6.12436 0
M  V30 23265 H 2208.7 1.24539 -7.45672 0
M  V30 23266 H 2209.96 2.43346 -7.40542 0
M  V30 23267 N 2214.19 1.54923 -0.28923 0
M  V30 23268 C 2215.16 2.21763 0.579105 0
M  V30 23269 C 2216.16 1.19992 1.07045 0
M  V30 23270 O 2217.35 1.44805 0.968359 0
M  V30 23271 C 2214.48 2.89473 1.8005 0
M  V30 23272 H 2215.67 2.999 -0.00470179 0
M  V30 23273 H 2213.22 1.56249 -0.0399581 0
M  V30 23274 H 2213.96 2.15386 2.42445 0
M  V30 23275 H 2213.74 3.64067 1.45595 0
M  V30 23276 H 2215.23 3.40498 2.41767 0
M  V30 23277 N 2215.67 0.0167433 1.57591 0
M  V30 23278 C 2216.63 -0.954167 2.08395 0
M  V30 23279 C 2217.63 -1.26196 0.996553 0
M  V30 23280 O 2218.82 -1.20436 1.25861 0
M  V30 23281 C 2215.96 -2.27431 2.53944 0
M  V30 23282 H 2217.15 -0.514399 2.95455 0
M  V30 23283 H 2214.7 -0.231062 1.54583 0
M  V30 23284 H 2215.44 -2.76063 1.70176 0
M  V30 23285 H 2215.22 -2.06406 3.33375 0
M  V30 23286 H 2216.71 -2.97048 2.93517 0
M  V30 23287 O 2217.19 -1.61014 -0.125165 0
M  V30 23288 H 2217.88 -1.7829 -0.75712 0
M  V30 END ATOM
M  V30 BEGIN BOND
M  V30 END BOND
M  V30 END CTAB
M  END
$$$$
