drugbank_target|O15143 Actin-related protein 2/3 complex subunit 1B (DB08235; DB08236)
 OpenBabel12092120503D

  0  0  0     0  0            999 V3000
M  V30 BEGIN CTAB
M  V30 COUNTS 5712 5783 0 0 0
M  V30 BEGIN ATOM
M  V30 1 H -0.908 1.98254 -0.117106 0
M  V30 2 N 0 1.576 0 0
M  V30 3 C 0.933 2.03868 1.02534 0
M  V30 4 C 1.911 0.928543 1.3348 0
M  V30 5 O 3.095 1.19667 1.45644 0
M  V30 6 C 0.222 2.43627 2.35294 0
M  V30 7 C -0.732 3.65373 2.2001 0
M  V30 8 S 0.101 5.13292 1.52614 0
M  V30 9 C 1.257 5.56322 2.86805 0
M  V30 10 H 1.49 2.90518 0.631377 0
M  V30 11 H -0.977 1.52953 0.210867 0
M  V30 12 H 0.981 2.67203 3.11629 0
M  V30 13 H -0.358 1.57376 2.7183 0
M  V30 14 H -1.165 3.90944 3.18086 0
M  V30 15 H -1.563 3.418 1.51819 0
M  V30 16 H 0.729 5.58782 3.83104 0
M  V30 17 H 1.672 6.56266 2.65933 0
M  V30 18 H 2.08 4.83886 2.90714 0
M  V30 19 N 1.4781 -0.272755 1.55222 0
M  V30 20 C 2.4411 -1.32041 1.87344 0
M  V30 21 C 3.4411 -1.42342 0.74803 0
M  V30 22 O 4.6311 -1.41488 1.0162 0
M  V30 23 C 1.7631 -2.70173 2.07893 0
M  V30 24 H 2.9561 -1.04789 2.80997 0
M  V30 25 H 0.5091 -0.51083 1.47717 0
M  V30 26 H 1.2441 -3.02605 1.16622 0
M  V30 27 H 1.0291 -2.64082 2.89833 0
M  V30 28 H 2.5191 -3.45869 2.34017 0
M  V30 29 N 2.9562 -1.48159 -0.537278 0
M  V30 30 C 4.1862 -1.59223 -1.3165 0
M  V30 31 C 4.5942 -0.248849 -1.87556 0
M  V30 32 O 3.9372 0.770949 -1.6674 0
M  V30 33 C 3.9992 -2.57365 -2.51005 0
M  V30 34 C 3.6632 -4.02603 -2.16239 0
M  V30 35 C 4.6602 -4.90503 -1.72344 0
M  V30 36 C 2.3452 -4.48088 -2.26986 0
M  V30 37 C 4.3392 -6.21913 -1.39651 0
M  V30 38 C 2.0262 -5.7952 -1.93906 0
M  V30 39 C 3.0242 -6.66255 -1.50309 0
M  V30 40 O 2.7122 -7.95243 -1.17659 0
M  V30 41 H 2.4442 -0.539831 -0.406889 0
M  V30 42 H 4.9982 -1.94655 -0.655641 0
M  V30 43 H 3.2282 -2.1704 -3.20048 0
M  V30 44 H 4.9172 -2.58342 -3.13072 0
M  V30 45 H 5.6832 -4.56604 -1.63517 0
M  V30 46 H 1.5622 -3.80769 -2.59877 0
M  V30 47 H 5.1062 -6.89569 -1.0555 0
M  V30 48 H 1.0032 -6.12957 -2.02371 0
M  V30 49 H 1.7712 -8.0793 -1.31119 0
M  V30 50 N 4.4343 0.785586 -1.36625 0
M  V30 51 C 5.3843 1.88822 -1.27789 0
M  V30 52 C 6.3683 1.60014 -0.168579 0
M  V30 53 O 7.5603 1.72381 -0.401737 0
M  V30 54 C 4.6893 3.26092 -1.07327 0
M  V30 55 C 3.7753 3.60897 -2.22743 0
M  V30 56 N 4.1663 3.66982 -3.48077 0
M  V30 57 C 2.4643 3.90981 -2.14593 0
M  V30 58 C 3.1653 3.98137 -4.24101 0
M  V30 59 N 2.1413 4.13319 -3.53084 0
M  V30 60 H 5.9433 1.91759 -2.22723 0
M  V30 61 H 3.4573 0.981311 -1.29399 0
M  V30 62 H 5.4543 4.04954 -0.990842 0
M  V30 63 H 4.1143 3.24428 -0.132977 0
M  V30 64 H 5.1253 3.49531 -3.82163 0
M  V30 65 H 1.8023 3.9722 -1.2854 0
M  V30 66 H 3.1923 4.09737 -5.32509 0
M  V30 67 N 5.9124 1.20967 1.01018 0
M  V30 68 C 7.1374 1.0503 1.78839 0
M  V30 69 C 7.5624 -0.395752 1.8389 0
M  V30 70 O 6.9204 -1.28529 1.27867 0
M  V30 71 C 6.9684 1.64602 3.2084 0
M  V30 72 O 6.0724 0.887988 4.02726 0
M  V30 73 H 5.4134 0.369987 0.551367 0
M  V30 74 H 7.9434 1.60399 1.27018 0
M  V30 75 H 7.9534 1.68607 3.71532 0
M  V30 76 H 6.6284 2.69841 3.16479 0
M  V30 77 H 5.2054 0.922648 3.61305 0
M  V30 78 N 7.3905 -1.2043 1.01659 0
M  V30 79 C 8.6375 -1.89797 0.705917 0
M  V30 80 C 8.9655 -1.78848 -0.764439 0
M  V30 81 O 8.2205 -1.16694 -1.57102 0
M  V30 82 C 8.5195 -3.40464 1.08714 0
M  V30 83 C 8.1855 -3.71614 2.5537 0
M  V30 84 C 6.8475 -3.79826 2.95441 0
M  V30 85 C 9.1995 -3.85915 3.50313 0
M  V30 86 C 6.5275 -3.99797 4.29394 0
M  V30 87 C 8.8795 -4.07396 4.83954 0
M  V30 88 C 7.5435 -4.13837 5.23732 0
M  V30 89 H 6.8135 -0.694518 0.258313 0
M  V30 90 H 9.4605 -1.42691 1.27717 0
M  V30 91 H 7.7655 -3.89385 0.434309 0
M  V30 92 H 9.4625 -3.92433 0.824461 0
M  V30 93 H 6.0525 -3.65822 2.23321 0
M  V30 94 H 10.2365 -3.78926 3.20513 0
M  V30 95 H 5.4925 -4.03018 4.59768 0
M  V30 96 H 9.6665 -4.17404 5.57447 0
M  V30 97 H 7.2935 -4.29064 6.27541 0
M  V30 98 N 8.8686 -0.792821 -1.36206 0
M  V30 99 C 9.7986 -0.207853 -2.32573 0
M  V30 100 C 10.7796 0.659055 -1.56813 0
M  V30 101 O 11.9646 0.592176 -1.84951 0
M  V30 102 C 9.0946 0.655449 -3.41059 0
M  V30 103 C 8.0486 -0.111842 -4.27854 0
M  V30 104 C 7.3746 0.872274 -5.27537 0
M  V30 105 C 8.6746 -1.30299 -5.05786 0
M  V30 106 H 10.3686 -1.01294 -2.81744 0
M  V30 107 H 7.9146 -0.48854 -1.3546 0
M  V30 108 H 9.8676 1.07464 -4.07467 0
M  V30 109 H 8.5916 1.49328 -2.90463 0
M  V30 110 H 7.2506 -0.512053 -3.63006 0
M  V30 111 H 6.8986 1.70523 -4.73214 0
M  V30 112 H 6.5986 0.363291 -5.86476 0
M  V30 113 H 8.1226 1.28996 -5.96818 0
M  V30 114 H 9.5366 -0.959379 -5.65216 0
M  V30 115 H 7.9336 -1.7455 -5.74154 0
M  V30 116 H 9.0036 -2.09663 -4.37229 0
M  V30 117 N 10.3467 1.47872 -0.545128 0
M  V30 118 C 11.5927 2.02793 -0.0166104 0
M  V30 119 C 11.9257 1.41987 1.32489 0
M  V30 120 O 11.2007 0.571045 1.85928 0
M  V30 121 C 11.4837 3.59989 0.0893294 0
M  V30 122 C 11.3367 4.3125 -1.27841 0
M  V30 123 C 12.6557 4.32606 0.808724 0
M  V30 124 H 9.7747 0.736962 -0.00751035 0
M  V30 125 H 12.4167 1.76433 -0.705085 0
M  V30 126 H 10.5667 3.82579 0.675681 0
M  V30 127 H 12.2387 4.20035 -1.90704 0
M  V30 128 H 10.4817 3.92076 -1.85632 0
M  V30 129 H 11.1527 5.39736 -1.15713 0
M  V30 130 H 13.6287 4.14936 0.310992 0
M  V30 131 H 12.5047 5.42251 0.851782 0
M  V30 132 H 12.7657 4.00963 1.86229 0
M  V30 133 N 11.8248 0.280983 1.55075 0
M  V30 134 C 12.7348 -0.61388 2.26426 0
M  V30 135 C 13.7508 -1.16521 1.29224 0
M  V30 136 O 14.9268 -1.19426 1.62171 0
M  V30 137 C 11.9918 -1.7788 2.9759 0
M  V30 138 C 11.0528 -1.26355 4.10284 0
M  V30 139 C 10.2858 -2.37295 4.78045 0
M  V30 140 O 10.5088 -3.56777 4.45047 0
M  V30 141 O 9.4428 -2.05119 5.65871 0
M  V30 142 H 13.2688 -0.0356932 3.03679 0
M  V30 143 H 10.8538 0.0481686 1.49322 0
M  V30 144 H 12.7358 -2.45791 3.42293 0
M  V30 145 H 11.4108 -2.34397 2.23249 0
M  V30 146 H 10.3178 -0.550735 3.70024 0
M  V30 147 H 11.6508 -0.744065 4.86543 0
M  V30 148 N 13.3029 -1.57598 0.00835791 0
M  V30 149 C 14.7139 -1.7892 -0.53333 0
M  V30 150 C 15.0649 -0.916609 -1.73473 0
M  V30 151 O 14.1899 -0.121336 -2.1606 0
M  V30 152 C 14.7849 -3.24488 -0.974313 0
M  V30 153 C 13.3439 -3.46878 -1.46125 0
M  V30 154 C 12.4909 -2.74157 -0.416302 0
M  V30 155 H 15.4419 -1.56958 0.234495 0
M  V30 156 H 15.4629 -3.3306 -1.83988 0
M  V30 157 H 14.9749 -3.87972 -0.099718 0
M  V30 158 H 13.0759 -2.8862 -2.35646 0
M  V30 159 H 13.1889 -4.55572 -1.48295 0
M  V30 160 H 11.5529 -2.39022 -0.87981 0
M  V30 161 H 12.3359 -3.40345 0.44947 0
M  V30 162 N 14.781 0.264519 -1.55364 0
M  V30 163 C 16.03 0.992812 -1.75574 0
M  V30 164 C 16.343 1.87142 -0.568979 0
M  V30 165 O 17.549 2.63513 -0.653682 0
M  V30 166 C 16.005 1.81519 -3.10771 0
M  V30 167 C 15.613 0.984839 -4.37041 0
M  V30 168 C 17.357 2.53727 -3.40327 0
M  V30 169 C 15.264 1.80209 -5.63275 0
M  V30 170 H 14.194 0.374412 -0.65447 0
M  V30 171 H 16.845 0.248138 -1.81815 0
M  V30 172 H 15.227 2.60115 -2.98591 0
M  V30 173 H 16.401 0.242455 -4.60162 0
M  V30 174 H 14.716 0.37691 -4.14691 0
M  V30 175 H 17.313 3.15292 -4.3185 0
M  V30 176 H 17.656 3.24447 -2.60845 0
M  V30 177 H 18.189 1.82156 -3.53644 0
M  V30 178 H 14.928 1.13896 -6.45529 0
M  V30 179 H 14.448 2.52022 -5.44284 0
M  V30 180 H 16.127 2.37364 -6.01887 0
M  V30 181 N 16.2591 1.48442 0.529413 0
M  V30 182 C 17.4841 1.60406 1.31471 0
M  V30 183 C 17.9091 0.264738 1.86228 0
M  V30 184 O 17.2671 -0.763668 1.64432 0
M  V30 185 C 17.3151 2.65419 2.44101 0
M  V30 186 O 16.4191 2.22618 3.47153 0
M  V30 187 H 15.7601 0.537863 0.389357 0
M  V30 188 H 18.2901 1.94432 0.636965 0
M  V30 189 H 18.3001 2.86709 2.90279 0
M  V30 190 H 16.9751 3.62652 2.03608 0
M  V30 191 H 15.5521 2.11543 3.0709 0
M  V30 192 N 17.7372 -0.778329 1.37039 0
M  V30 193 C 18.9772 -1.54973 1.33276 0
M  V30 194 C 19.3412 -1.91816 -0.0839376 0
M  V30 195 O 20.5422 -2.6767 -0.246228 0
M  V30 196 C 18.8132 -2.78517 2.23971 0
M  V30 197 S 20.3722 -3.6865 2.37997 0
M  V30 198 H 17.1902 -0.530639 0.473226 0
M  V30 199 H 19.7922 -0.915806 1.72723 0
M  V30 200 H 18.4962 -2.4952 3.25835 0
M  V30 201 H 18.0272 -3.46875 1.85584 0
M  V30 202 H 20.0422 -4.70182 1.58567 0
M  V30 203 N 19.2153 -1.21501 -1.00376 0
M  V30 204 C 20.1653 -0.942843 -2.07592 0
M  V30 205 C 21.1493 0.102384 -1.60574 0
M  V30 206 O 22.3413 -0.10671 -1.76678 0
M  V30 207 C 19.4703 -0.510729 -3.3948 0
M  V30 208 C 18.5563 -1.59009 -3.93163 0
M  V30 209 N 18.9473 -2.81544 -4.20198 0
M  V30 210 C 17.2453 -1.45925 -4.21452 0
M  V30 211 C 17.9463 -3.51261 -4.63671 0
M  V30 212 N 16.9223 -2.78703 -4.66718 0
M  V30 213 H 20.7243 -1.87378 -2.26421 0
M  V30 214 H 18.2383 -1.11093 -1.18458 0
M  V30 215 H 20.2353 -0.297101 -4.1584 0
M  V30 216 H 18.8953 0.413436 -3.22057 0
M  V30 217 H 19.9063 -3.18075 -4.08716 0
M  V30 218 H 16.5833 -0.600467 -4.13159 0
M  V30 219 H 17.9733 -4.56183 -4.93302 0
M  V30 220 N 20.6934 1.19889 -1.02296 0
M  V30 221 C 21.6564 2.21116 -0.603351 0
M  V30 222 C 22.6564 1.5738 0.329884 0
M  V30 223 O 23.8464 1.73802 0.117702 0
M  V30 224 C 20.9784 3.40696 0.117992 0
M  V30 225 H 22.1714 2.59754 -1.49893 0
M  V30 226 H 19.7244 1.33463 -0.813468 0
M  V30 227 H 20.4594 3.07569 1.0282 0
M  V30 228 H 20.2444 3.88188 -0.552511 0
M  V30 229 H 21.7344 4.15692 0.398696 0
M  V30 230 N 22.1715 0.800033 1.35784 0
M  V30 231 C 23.4175 0.38701 1.99684 0
M  V30 232 C 23.7725 -1.03268 1.62338 0
M  V30 233 O 23.0655 -1.70543 0.87325 0
M  V30 234 C 23.2595 0.500276 3.53881 0
M  V30 235 C 23.0885 1.92942 4.06206 0
M  V30 236 C 21.8585 2.55637 4.35865 0
M  V30 237 C 24.0565 2.89307 4.25213 0
M  V30 238 N 22.0385 3.9003 4.74078 0
M  V30 239 C 23.4095 4.08556 4.66349 0
M  V30 240 C 25.4645 2.86225 4.07406 0
M  V30 241 C 24.1675 5.25146 4.91543 0
M  V30 242 C 26.1935 4.02011 4.33752 0
M  V30 243 C 25.5555 5.20007 4.75155 0
M  V30 244 H 21.6545 0.189252 0.758754 0
M  V30 245 H 24.2385 1.03988 1.64604 0
M  V30 246 H 22.4095 -0.122568 3.88207 0
M  V30 247 H 24.1415 0.0624733 4.04652 0
M  V30 248 H 20.8965 2.07039 4.25948 0
M  V30 249 H 21.3205 4.59205 4.97454 0
M  V30 250 H 25.9625 1.96154 3.74544 0
M  V30 251 H 23.6805 6.15794 5.23281 0
M  V30 252 H 27.2665 4.00999 4.21534 0
M  V30 253 H 26.1465 6.08113 4.95145 0
M  V30 254 N 23.6496 -1.47581 0.552962 0
M  V30 255 C 24.5976 -2.31648 -0.21023 0
M  V30 256 C 25.5916 -1.42663 -0.913432 0
M  V30 257 O 26.7976 -1.5945 -0.835201 0
M  V30 258 H 23.1726 -0.746989 -0.0866676 0
M  V30 259 H 25.1436 -2.93869 0.518051 0
M  V30 260 C 23.8926 -3.25226 -1.22976 0
M  V30 261 H 23.2156 -3.93658 -0.698077 0
M  V30 262 H 24.6556 -3.86889 -1.73473 0
M  V30 263 C 23.1146 -2.48448 -2.27542 0
M  V30 264 O 23.6446 -2.22585 -3.34393 0
M  V30 265 N 21.8506 -2.09532 -2.01357 0
M  V30 266 H 21.3976 -2.30765 -1.14478 0
M  V30 267 H 21.3556 -1.58476 -2.71538 0
M  V30 268 N 25.1277 -0.289203 -1.54924 0
M  V30 269 C 26.0747 0.592115 -2.23075 0
M  V30 270 C 27.0447 1.13881 -1.20915 0
M  V30 271 O 28.2297 1.18551 -1.495 0
M  V30 272 C 25.3697 1.76376 -2.96623 0
M  V30 273 C 24.4827 1.24959 -4.13533 0
M  V30 274 C 23.6177 2.38416 -4.74691 0
M  V30 275 C 22.6567 1.84072 -5.83767 0
M  V30 276 N 21.7937 2.91057 -6.38929 0
M  V30 277 H 26.6337 0.00432038 -2.98 0
M  V30 278 H 24.1707 -0.00963529 -1.47097 0
M  V30 279 H 26.1287 2.45268 -3.3749 0
M  V30 280 H 24.7587 2.32337 -2.24097 0
M  V30 281 H 23.8107 0.453307 -3.77689 0
M  V30 282 H 25.1227 0.811662 -4.92152 0
M  V30 283 H 24.2767 3.15276 -5.18349 0
M  V30 284 H 23.0157 2.8553 -3.95378 0
M  V30 285 H 22.0207 1.05697 -5.39545 0
M  V30 286 H 23.2457 1.37877 -6.64956 0
M  V30 287 H 21.1917 3.37526 -5.62505 0
M  V30 288 H 21.1087 2.51724 -7.12861 0
M  V30 289 H 22.3767 3.6785 -6.87246 0
M  V30 290 N 26.6058 1.57591 -0.0167156 0
M  V30 291 C 27.8828 1.82547 0.702564 0
M  V30 292 C 28.2628 0.898018 1.91047 0
M  V30 293 O 27.6108 -0.0493456 2.28447 0
M  V30 294 C 27.8208 3.31459 1.09251 0
M  V30 295 C 29.1688 3.97622 1.48937 0
M  V30 296 O 30.1928 3.35881 1.18584 0
M  V30 297 O 29.0518 5.06415 2.05442 0
M  V30 298 H 26.1458 0.752268 0.343544 0
M  V30 299 H 28.6918 1.69644 -0.0434495 0
M  V30 300 H 27.4638 3.9061 0.23227 0
M  V30 301 H 27.0868 3.49422 1.89709 0
M  V30 302 N 28.0839 -0.256276 1.55502 0
M  V30 303 C 29.4999 -0.604325 1.47716 0
M  V30 304 C 29.6999 -1.88763 0.705039 0
M  V30 305 O 28.7559 -2.51445 0.230613 0
M  V30 306 C 30.0689 -0.715756 2.92057 0
M  V30 307 C 31.6169 -0.808706 3.02372 0
M  V30 308 C 32.0919 -0.951777 4.48001 0
M  V30 309 N 33.5829 -1.01688 4.519 0
M  V30 310 C 34.3179 -1.14668 5.61817 0
M  V30 311 N 33.8139 -1.24261 6.81565 0
M  V30 312 N 35.6069 -1.1791 5.49594 0
M  V30 313 H 27.7579 0.586291 2.04148 0
M  V30 314 H 30.0209 0.201015 0.926443 0
M  V30 315 H 29.7269 0.157027 3.51349 0
M  V30 316 H 29.6009 -1.59071 3.42018 0
M  V30 317 H 31.9879 -1.67195 2.43166 0
M  V30 318 H 32.0689 0.0912063 2.55637 0
M  V30 319 H 31.7129 -0.0931291 5.07815 0
M  V30 320 H 31.6429 -1.86659 4.92408 0
M  V30 321 H 34.1339 -0.954468 3.65648 0
M  V30 322 H 34.4469 -1.34046 7.61086 0
M  V30 323 H 32.7919 -1.21236 6.84344 0
M  V30 324 H 35.9829 -1.10057 4.54978 0
M  V30 325 H 36.1559 -1.27681 6.35296 0
M  V30 326 N 29.562 -1.4872 -0.521534 0
M  V30 327 C 30.79 -1.60843 -1.30142 0
M  V30 328 C 31.205 -0.271897 -1.86832 0
M  V30 329 O 30.562 0.739969 -1.66825 0
M  V30 330 C 30.613 -2.66155 -2.4463 0
M  V30 331 O 30.334 -3.94623 -1.90275 0
M  V30 332 C 31.835 -2.88795 -3.36322 0
M  V30 333 H 29.055 -0.542075 -0.395468 0
M  V30 334 H 31.599 -1.94609 -0.628285 0
M  V30 335 H 29.754 -2.35224 -3.07812 0
M  V30 336 H 30.168 -4.52468 -2.65279 0
M  V30 337 H 31.642 -3.66264 -4.12983 0
M  V30 338 H 32.119 -1.97934 -3.9207 0
M  V30 339 H 32.725 -3.21063 -2.78924 0
M  V30 340 N 31.0401 0.771051 -1.3745 0
M  V30 341 C 31.9721 1.89352 -1.29146 0
M  V30 342 C 32.9851 1.61477 -0.207124 0
M  V30 343 O 34.1741 1.72382 -0.463324 0
M  V30 344 C 31.2741 3.24596 -0.974195 0
M  V30 345 C 30.4471 3.80111 -2.16413 0
M  V30 346 C 29.5061 4.93832 -1.81703 0
M  V30 347 O 28.5321 5.09382 -2.54006 0
M  V30 348 N 29.7341 5.75483 -0.761573 0
M  V30 349 H 32.4991 1.96991 -2.25864 0
M  V30 350 H 30.0601 0.950191 -1.31084 0
M  V30 351 H 32.0521 3.98193 -0.722828 0
M  V30 352 H 30.6221 3.12454 -0.0955527 0
M  V30 353 H 29.8421 2.98284 -2.57721 0
M  V30 354 H 31.1301 4.13932 -2.95867 0
M  V30 355 H 30.5281 5.65469 -0.161609 0
M  V30 356 H 29.0851 6.49302 -0.570064 0
M  V30 357 N 32.5182 1.22032 0.997298 0
M  V30 358 C 33.7672 1.03637 1.73038 0
M  V30 359 C 34.0802 -0.429475 1.90827 0
M  V30 360 O 35.2862 -0.732995 2.61418 0
M  V30 361 C 33.7422 1.80582 3.11317 0
M  V30 362 C 33.3502 3.31387 3.01474 0
M  V30 363 C 35.0942 1.70621 3.88701 0
M  V30 364 C 33.0012 4.00791 4.3488 0
M  V30 365 H 31.9312 0.384179 0.648785 0
M  V30 366 H 34.5822 1.4584 1.11368 0
M  V30 367 H 32.9642 1.31175 3.73643 0
M  V30 368 H 34.1382 3.88155 2.4834 0
M  V30 369 H 32.4532 3.41976 2.37575 0
M  V30 370 H 35.0502 2.19799 4.87434 0
M  V30 371 H 35.3932 0.665823 4.10941 0
M  V30 372 H 35.9262 2.17547 3.33044 0
M  V30 373 H 32.6652 5.05064 4.1784 0
M  V30 374 H 32.1852 3.48811 4.87945 0
M  V30 375 H 33.8642 4.06139 5.03647 0
M  V30 376 N 33.9963 -1.19345 1.0293 0
M  V30 377 C 34.9593 -2.20793 0.615069 0
M  V30 378 C 35.9593 -1.57553 -0.321533 0
M  V30 379 O 37.1493 -1.73862 -0.108483 0
M  V30 380 C 34.2813 -3.40754 -0.0999222 0
M  V30 381 H 35.4743 -2.58955 1.51269 0
M  V30 382 H 33.0273 -1.3303 0.820534 0
M  V30 383 H 33.7623 -3.0811 -1.01187 0
M  V30 384 H 33.5473 -3.87889 0.57309 0
M  V30 385 H 35.0373 -4.15898 -0.376645 0
M  V30 386 N 35.4744 -0.807222 -1.35358 0
M  V30 387 C 36.7234 -0.384376 -1.98004 0
M  V30 388 C 37.0364 1.0543 -1.64754 0
M  V30 389 O 38.2424 1.58029 -2.20769 0
M  V30 390 C 36.6984 -0.636326 -3.5423 0
M  V30 391 C 36.3064 -2.08759 -3.96388 0
M  V30 392 C 38.0504 -0.278869 -4.23583 0
M  V30 393 C 35.9574 -2.28525 -5.45463 0
M  V30 394 H 34.8874 -0.139986 -0.740891 0
M  V30 395 H 37.5384 -0.991369 -1.54415 0
M  V30 396 H 35.9204 0.0406256 -3.95979 0
M  V30 397 H 37.0944 -2.8024 -3.6579 0
M  V30 398 H 35.4094 -2.40497 -3.39926 0
M  V30 399 H 38.0064 -0.404599 -5.33167 0
M  V30 400 H 38.3494 0.775012 -4.09022 0
M  V30 401 H 38.8824 -0.909764 -3.87257 0
M  V30 402 H 35.6214 -3.32361 -5.64992 0
M  V30 403 H 35.1414 -1.61569 -5.77629 0
M  V30 404 H 36.8204 -2.10109 -6.11934 0
M  V30 405 N 36.9525 1.47285 -0.560781 0
M  V30 406 C 38.1925 2.0436 -0.0404627 0
M  V30 407 C 38.5565 1.42534 1.28639 0
M  V30 408 O 39.7575 1.90677 1.89462 0
M  V30 409 C 38.0285 3.57369 0.0471856 0
M  V30 410 S 39.5875 4.3579 0.513109 0
M  V30 411 H 36.4055 0.710492 -0.0268674 0
M  V30 412 H 39.0075 1.80611 -0.748323 0
M  V30 413 H 37.7115 3.9989 -0.922817 0
M  V30 414 H 37.2425 3.8562 0.778491 0
M  V30 415 H 39.2575 4.63476 1.77212 0
M  V30 416 N 38.4306 0.297415 1.54768 0
M  V30 417 C 39.8416 -0.195947 1.85669 0
M  V30 418 C 40.1926 -1.53707 1.21937 0
M  V30 419 O 39.3176 -2.10164 0.515754 0
M  V30 420 C 39.9126 -0.362318 3.36857 0
M  V30 421 C 38.4716 -0.799901 3.67802 0
M  V30 422 C 37.6186 0.0938578 2.77141 0
M  V30 423 H 40.5696 0.518538 1.4999 0
M  V30 424 H 40.5906 -1.19745 3.61167 0
M  V30 425 H 40.1026 0.613921 3.83214 0
M  V30 426 H 38.2036 -1.78682 3.26961 0
M  V30 427 H 38.3166 -0.621773 4.75048 0
M  V30 428 H 36.6806 -0.426254 2.51108 0
M  V30 429 H 37.4636 1.06639 3.26318 0
M  V30 430 N 39.9087 -1.5758 0.0250728 0
M  V30 431 C 40.8567 -2.11125 -0.97617 0
M  V30 432 C 41.8507 -1.03689 -1.33959 0
M  V30 433 O 43.0567 -1.22128 -1.3223 0
M  V30 434 H 39.4317 -0.674468 -0.332561 0
M  V30 435 H 41.4027 -2.94194 -0.499223 0
M  V30 436 C 40.1517 -2.65017 -2.2508 0
M  V30 437 H 39.4747 -3.47333 -1.9799 0
M  V30 438 H 40.9147 -3.06133 -2.93357 0
M  V30 439 C 39.3737 -1.57574 -2.97779 0
M  V30 440 O 39.9037 -0.973203 -3.89733 0
M  V30 441 N 38.1097 -1.29716 -2.60043 0
M  V30 442 H 37.6567 -1.789 -1.85345 0
M  V30 443 H 37.6147 -0.58051 -3.08994 0
M  V30 444 N 41.3868 0.248026 -1.55636 0
M  V30 445 C 42.3348 1.32683 -1.91045 0
M  V30 446 C 43.3288 1.49883 -0.789401 0
M  V30 447 O 44.5348 1.51371 -0.974007 0
M  V30 448 H 40.9098 0.444272 -0.606734 0
M  V30 449 H 42.8808 1.00085 -2.81115 0
M  V30 450 C 41.6298 2.6755 -2.22064 0
M  V30 451 H 40.9528 2.55114 -3.07826 0
M  V30 452 H 42.3928 3.41912 -2.50743 0
M  V30 453 C 40.8518 3.20556 -1.0366 0
M  V30 454 O 41.3818 4.00695 -0.284016 0
M  V30 455 N 39.5878 2.78568 -0.82753 0
M  V30 456 H 39.1348 2.1351 -1.44123 0
M  V30 457 H 39.0928 3.14378 -0.0369803 0
M  V30 458 N 42.8649 1.48995 0.513639 0
M  V30 459 C 43.8149 1.61127 1.61314 0
M  V30 460 C 44.7989 0.467521 1.53958 0
M  V30 461 O 45.9909 0.719826 1.61702 0
M  V30 462 C 43.1199 1.66937 2.99978 0
M  V30 463 C 42.2059 2.86847 3.12377 0
M  V30 464 N 42.5969 4.11078 2.94701 0
M  V30 465 C 40.8949 2.84521 3.43459 0
M  V30 466 C 41.5959 4.91615 3.10949 0
M  V30 467 N 40.5719 4.24739 3.3926 0
M  V30 468 H 44.3739 2.54909 1.46282 0
M  V30 469 H 41.8879 1.45593 0.719483 0
M  V30 470 H 43.8849 1.73725 3.78979 0
M  V30 471 H 42.5449 0.742831 3.16089 0
M  V30 472 H 43.5559 4.41258 2.71131 0
M  V30 473 H 40.2329 2.01192 3.65825 0
M  V30 474 H 41.6229 6.00264 3.01882 0
M  V30 475 N 44.343 -0.763751 1.37857 0
M  V30 476 C 45.253 -1.90817 1.36478 0
M  V30 477 C 46.269 -1.71997 0.263248 0
M  V30 478 O 47.445 -1.95095 0.499979 0
M  V30 479 C 44.51 -3.2605 1.17864 0
M  V30 480 C 43.571 -3.57467 2.3773 0
M  V30 481 C 42.804 -4.86249 2.19995 0
M  V30 482 O 43.027 -5.57884 1.18836 0
M  V30 483 O 41.961 -5.16911 3.08361 0
M  V30 484 H 45.787 -1.94933 2.32884 0
M  V30 485 H 43.372 -0.907619 1.1867 0
M  V30 486 H 45.254 -4.06924 1.09504 0
M  V30 487 H 43.929 -3.22769 0.245372 0
M  V30 488 H 42.836 -2.76796 2.51664 0
M  V30 489 H 44.169 -3.655 3.29652 0
M  V30 490 N 45.8211 -1.22559 -0.990812 0
M  V30 491 C 47.0671 -1.05297 -1.73322 0
M  V30 492 C 47.4001 0.410655 -1.89808 0
M  V30 493 O 46.6751 1.30439 -1.44277 0
M  V30 494 C 46.9581 -1.76713 -3.13759 0
M  V30 495 C 46.8111 -3.30684 -3.04907 0
M  V30 496 C 48.1301 -1.52121 -4.12974 0
M  V30 497 H 45.2491 -0.38392 -0.629106 0
M  V30 498 H 47.8911 -1.50926 -1.15418 0
M  V30 499 H 46.0411 -1.37924 -3.63193 0
M  V30 500 H 47.7131 -3.7893 -2.63077 0
M  V30 501 H 45.9561 -3.60253 -2.41661 0
M  V30 502 H 46.6271 -3.75833 -4.04294 0
M  V30 503 H 49.1031 -1.85819 -3.72304 0
M  V30 504 H 47.9791 -2.04582 -5.0935 0
M  V30 505 H 48.2401 -0.454257 -4.3976 0
M  V30 506 N 47.2992 1.18797 -1.03562 0
M  V30 507 C 48.2492 2.20161 -0.592724 0
M  V30 508 C 49.2332 1.56772 0.362133 0
M  V30 509 O 50.4252 1.76062 0.182009 0
M  V30 510 C 47.5542 3.43266 0.0481024 0
M  V30 511 C 46.6402 4.13786 -0.9296 0
M  V30 512 N 47.0312 4.60388 -2.09467 0
M  V30 513 C 45.3292 4.39572 -0.754499 0
M  V30 514 C 46.0302 5.14619 -2.71187 0
M  V30 515 N 45.0062 5.05826 -1.991 0
M  V30 516 H 48.8082 2.53877 -1.48066 0
M  V30 517 H 46.3222 1.34946 -0.903514 0
M  V30 518 H 48.3192 4.15136 0.383058 0
M  V30 519 H 46.9792 3.11048 0.931636 0
M  V30 520 H 47.9902 4.54999 -2.47379 0
M  V30 521 H 44.6672 4.17425 0.0793713 0
M  V30 522 H 46.0572 5.60917 -3.69895 0
M  V30 523 N 48.7773 0.814389 1.34928 0
M  V30 524 C 50.0263 0.394871 1.97797 0
M  V30 525 C 50.3393 -1.04555 1.65311 0
M  V30 526 O 51.5453 -1.56856 2.21604 0
M  V30 527 C 50.0013 0.655103 3.53888 0
M  V30 528 C 49.6093 2.10858 3.95276 0
M  V30 529 C 51.3533 0.301329 4.23429 0
M  V30 530 C 49.2603 2.31415 5.44244 0
M  V30 531 H 48.1903 0.143913 0.740139 0
M  V30 532 H 50.8413 0.999544 1.53888 0
M  V30 533 H 49.2233 -0.0196253 3.95995 0
M  V30 534 H 50.3973 2.82176 3.64298 0
M  V30 535 H 48.7123 2.42297 3.38646 0
M  V30 536 H 51.3093 0.432869 5.32945 0
M  V30 537 H 51.6523 -0.75331 4.09428 0
M  V30 538 H 52.1853 0.930288 3.86769 0
M  V30 539 H 48.9243 3.35353 5.63222 0
M  V30 540 H 48.4443 1.6463 5.76764 0
M  V30 541 H 50.1233 2.13352 6.10811 0
M  V30 542 N 50.2554 -1.46986 0.568584 0
M  V30 543 C 51.4854 -2.0653 0.0539173 0
M  V30 544 C 51.8934 -1.42004 -1.25026 0
M  V30 545 O 51.2364 -0.514541 -1.76347 0
M  V30 546 C 51.2984 -3.58938 -0.200854 0
M  V30 547 C 50.9624 -4.45572 1.01559 0
M  V30 548 C 51.9594 -4.82986 1.92407 0
M  V30 549 C 49.6444 -4.8692 1.23346 0
M  V30 550 C 51.6384 -5.60559 3.03402 0
M  V30 551 C 49.3254 -5.64255 2.34649 0
M  V30 552 C 50.3234 -6.00986 3.24507 0
M  V30 553 O 50.0114 -6.76761 4.33878 0
M  V30 554 H 49.7434 -0.674292 0.0480234 0
M  V30 555 H 52.2974 -1.89812 0.784896 0
M  V30 556 H 50.5274 -3.73911 -0.986279 0
M  V30 557 H 52.2164 -4.0046 -0.662294 0
M  V30 558 H 52.9824 -4.51633 1.76785 0
M  V30 559 H 48.8614 -4.57789 0.543178 0
M  V30 560 H 52.4054 -5.89147 3.73565 0
M  V30 561 H 48.3024 -5.95021 2.5024 0
M  V30 562 H 49.0704 -6.95168 4.32068 0
M  V30 563 N 51.7335 -0.305618 -1.54608 0
M  V30 564 C 52.6435 0.57778 -2.27374 0
M  V30 565 C 53.6595 1.14451 -1.31061 0
M  V30 566 O 54.8355 1.16831 -1.6405 0
M  V30 567 C 51.9005 1.73123 -3.00382 0
M  V30 568 C 50.9615 1.19812 -4.12242 0
M  V30 569 C 50.1945 2.2966 -4.81759 0
M  V30 570 O 50.4175 3.49651 -4.50666 0
M  V30 571 O 49.3515 1.96091 -5.69062 0
M  V30 572 H 53.1775 -0.012624 -3.03697 0
M  V30 573 H 50.7625 -0.0719184 -1.49227 0
M  V30 574 H 52.6445 2.40315 -3.4616 0
M  V30 575 H 51.3195 2.30815 -2.26949 0
M  V30 576 H 50.2265 0.491798 -3.70853 0
M  V30 577 H 51.5595 0.666566 -4.87666 0
M  V30 578 N 53.2116 1.57565 -0.0334293 0
M  V30 579 C 54.1586 2.10478 0.946981 0
M  V30 580 C 55.1286 1.00787 1.32027 0
M  V30 581 O 56.3136 1.28232 1.41284 0
M  V30 582 C 53.4536 2.63994 2.22263 0
M  V30 583 C 52.5666 3.87709 1.90541 0
M  V30 584 C 51.7016 4.29604 3.12433 0
M  V30 585 C 50.7406 5.46065 2.76549 0
M  V30 586 N 49.8776 5.83096 3.9108 0
M  V30 587 H 54.7176 2.93963 0.488846 0
M  V30 588 H 52.2546 1.45296 0.22969 0
M  V30 589 H 54.2126 2.93114 2.96884 0
M  V30 590 H 52.8426 1.83333 2.65685 0
M  V30 591 H 51.8946 3.65291 1.06144 0
M  V30 592 H 53.2066 4.72403 1.60116 0
M  V30 593 H 52.3606 4.60182 3.9537 0
M  V30 594 H 51.0996 3.43685 3.46023 0
M  V30 595 H 50.1046 5.15176 1.92026 0
M  V30 596 H 51.3296 6.33685 2.44171 0
M  V30 597 H 49.2756 5.00132 4.24504 0
M  V30 598 H 49.1926 6.6244 3.64293 0
M  V30 599 H 50.4606 6.18282 4.74708 0
M  V30 600 N 54.6897 -0.239769 1.55765 0
M  V30 601 C 55.9147 -0.988373 1.82335 0
M  V30 602 C 56.3397 -1.77886 0.611421 0
M  V30 603 O 55.6977 -1.75889 -0.439639 0
M  V30 604 C 55.7457 -1.89627 3.06715 0
M  V30 605 O 54.8497 -2.98904 2.84131 0
M  V30 606 H 54.1907 -0.280858 0.601677 0
M  V30 607 H 56.7207 -0.258597 2.02959 0
M  V30 608 H 56.7307 -2.30957 3.36338 0
M  V30 609 H 55.4057 -1.31511 3.9456 0
M  V30 610 H 53.9827 -2.61651 2.65694 0
M  V30 611 N 56.1678 -1.49265 -0.50573 0
M  V30 612 C 57.4158 -1.582 -1.25766 0
M  V30 613 C 57.7368 -0.268482 -1.93143 0
M  V30 614 O 57.0068 0.711833 -1.8251 0
M  V30 615 H 55.5868 -0.582873 -0.467191 0
M  V30 616 H 58.2488 -1.85865 -0.586525 0
M  V30 617 H 57.3448 -2.37563 -2.02412 0
M  V30 618 N 57.6459 0.756429 -1.3826 0
M  V30 619 C 58.6089 1.85176 -1.35065 0
M  V30 620 C 59.6089 1.58818 -0.251703 0
M  V30 621 O 60.7989 1.66615 -0.508433 0
M  V30 622 C 57.9309 3.22596 -1.10201 0
M  V30 623 H 59.1239 1.89417 -2.3251 0
M  V30 624 H 56.6769 0.95783 -1.23512 0
M  V30 625 H 57.4119 3.24025 -0.133504 0
M  V30 626 H 57.1969 3.43122 -1.89762 0
M  V30 627 H 58.6869 4.02673 -1.10654 0
M  V30 628 N 59.124 1.23083 0.984299 0
M  V30 629 C 60.071 1.00854 2.07598 0
M  V30 630 C 61.041 -0.0726709 1.65941 0
M  V30 631 O 62.226 0.0786535 1.90638 0
M  V30 632 C 59.366 0.601645 3.39815 0
M  V30 633 C 58.479 1.75456 3.94765 0
M  V30 634 C 57.614 1.29482 5.15177 0
M  V30 635 C 56.653 2.41873 5.62284 0
M  V30 636 N 55.79 1.96885 6.73929 0
M  V30 637 H 60.63 1.943 2.25946 0
M  V30 638 H 58.167 0.968001 1.10762 0
M  V30 639 H 60.125 0.346854 4.15756 0
M  V30 640 H 58.755 -0.295803 3.21442 0
M  V30 641 H 57.807 2.12346 3.15616 0
M  V30 642 H 59.119 2.59965 4.25699 0
M  V30 643 H 58.273 0.997923 5.98437 0
M  V30 644 H 57.012 0.420046 4.85888 0
M  V30 645 H 56.017 2.72342 4.77608 0
M  V30 646 H 57.242 3.29881 5.93595 0
M  V30 647 H 55.188 1.11782 6.46406 0
M  V30 648 H 55.105 2.74956 7.04227 0
M  V30 649 H 56.373 1.70289 7.60672 0
M  V30 650 N 60.6021 -1.18246 1.0419 0
M  V30 651 C 61.8481 -1.88793 0.75689 0
M  V30 652 C 62.2031 -1.78909 -0.707767 0
M  V30 653 O 61.4961 -1.1794 -1.50999 0
M  V30 654 C 61.6901 -3.38082 1.15911 0
M  V30 655 C 61.5191 -3.62496 2.66133 0
M  V30 656 C 60.2891 -3.7979 3.33298 0
M  V30 657 C 62.4871 -3.62976 3.64353 0
M  V30 658 N 60.4691 -3.91955 4.72487 0
M  V30 659 C 61.8401 -3.80869 4.89222 0
M  V30 660 C 63.8951 -3.46071 3.57965 0
M  V30 661 C 62.5981 -3.83608 6.08471 0
M  V30 662 C 64.6241 -3.50093 4.76643 0
M  V30 663 C 63.9861 -3.68484 6.00332 0
M  V30 664 H 60.0851 -0.709406 0.32904 0
M  V30 665 H 62.6691 -1.42022 1.33183 0
M  V30 666 H 60.8401 -3.83544 0.612238 0
M  V30 667 H 62.5721 -3.96202 0.824989 0
M  V30 668 H 59.3271 -3.79224 2.83701 0
M  V30 669 H 59.7511 -4.01857 5.44831 0
M  V30 670 H 64.3931 -3.30797 2.63311 0
M  V30 671 H 62.1111 -3.97669 7.0348 0
M  V30 672 H 65.6971 -3.38285 4.73344 0
M  V30 673 H 64.5771 -3.71488 6.90627 0
M  V30 674 N 62.0802 -0.821533 -1.34494 0
M  V30 675 C 63.3082 -0.421884 -2.02553 0
M  V30 676 C 63.7232 0.971745 -1.61872 0
M  V30 677 O 63.0802 1.62864 -0.823496 0
M  V30 678 C 63.1312 -0.51285 -3.57844 0
M  V30 679 O 62.8522 -1.85155 -3.97051 0
M  V30 680 C 64.3532 -0.107921 -4.43169 0
M  V30 681 H 61.5732 -0.169482 -0.649243 0
M  V30 682 H 64.1172 -1.1093 -1.71798 0
M  V30 683 H 62.2722 0.126474 -3.87193 0
M  V30 684 H 62.6862 -1.82482 -4.91732 0
M  V30 685 H 64.1602 -0.222657 -5.51551 0
M  V30 686 H 64.6372 0.948401 -4.28838 0
M  V30 687 H 65.2432 -0.720989 -4.19144 0
M  V30 688 N 63.5583 1.46682 -0.576371 0
M  V30 689 C 64.5053 2.30241 0.160499 0
M  V30 690 C 65.4753 1.40233 0.890162 0
M  V30 691 O 66.6603 1.69186 0.882084 0
M  V30 692 C 63.8003 3.24578 1.1723 0
M  V30 693 C 62.9133 4.29684 0.446736 0
M  V30 694 C 62.0483 5.11154 1.44551 0
M  V30 695 C 61.0873 6.08015 0.70599 0
M  V30 696 N 60.2243 6.82376 1.65251 0
M  V30 697 H 65.0643 2.92727 -0.558127 0
M  V30 698 H 62.6013 1.44272 -0.287056 0
M  V30 699 H 64.5593 3.77711 1.77172 0
M  V30 700 H 63.1893 2.63916 1.85872 0
M  V30 701 H 62.2413 3.79458 -0.267594 0
M  V30 702 H 63.5533 4.98626 -0.131686 0
M  V30 703 H 62.7073 5.68533 2.11791 0
M  V30 704 H 61.4463 4.42158 2.05786 0
M  V30 705 H 60.4513 5.49796 0.0197725 0
M  V30 706 H 61.6763 6.79028 0.09912 0
M  V30 707 H 59.6223 6.16094 2.25308 0
M  V30 708 H 59.5393 7.47556 1.12673 0
M  V30 709 H 60.8073 7.44316 2.31546 0
M  V30 710 N 65.0364 0.313813 1.54444 0
M  V30 711 C 66.2824 -0.292108 2.00685 0
M  V30 712 C 66.6154 -1.52548 1.20177 0
M  V30 713 O 65.8904 -1.92452 0.281531 0
M  V30 714 C 66.1734 -0.635968 3.5444 0
M  V30 715 C 66.0264 0.607437 4.4568 0
M  V30 716 C 67.3454 -1.45747 4.15266 0
M  V30 717 H 64.4644 -0.104697 0.729526 0
M  V30 718 H 67.1064 0.428457 1.85106 0
M  V30 719 H 65.2564 -1.24986 3.67846 0
M  V30 720 H 66.9284 1.24581 4.44159 0
M  V30 721 H 65.1714 1.23822 4.15753 0
M  V30 722 H 65.8424 0.322515 5.51057 0
M  V30 723 H 68.3184 -0.938645 4.05375 0
M  V30 724 H 67.1944 -1.66683 5.2298 0
M  V30 725 H 67.4554 -2.45063 3.67963 0
M  V30 726 N 66.5145 -1.57545 0.0417849 0
M  V30 727 C 67.4645 -2.07483 -0.945247 0
M  V30 728 C 68.4485 -0.977983 -1.27767 0
M  V30 729 O 69.6405 -1.24142 -1.26166 0
M  V30 730 C 66.7695 -2.61576 -2.22335 0
M  V30 731 C 65.8555 -3.78213 -1.91874 0
M  V30 732 N 66.2465 -4.88344 -1.31733 0
M  V30 733 C 64.5445 -3.8694 -2.21796 0
M  V30 734 C 65.2455 -5.69462 -1.1869 0
M  V30 735 N 64.2215 -5.16771 -1.68666 0
M  V30 736 H 68.0235 -2.90029 -0.475441 0
M  V30 737 H 65.5375 -1.61581 -0.162911 0
M  V30 738 H 67.5345 -2.95651 -2.93932 0
M  V30 739 H 66.1945 -1.80465 -2.69931 0
M  V30 740 H 67.2055 -5.08335 -0.990729 0
M  V30 741 H 63.8825 -3.16757 -2.71977 0
M  V30 742 H 65.2725 -6.68023 -0.720793 0
M  V30 743 N 67.9926 0.231505 -1.5589 0
M  V30 744 C 68.9026 1.308 -1.94752 0
M  V30 745 C 69.9186 1.51826 -0.849989 0
M  V30 746 O 71.0946 1.6515 -1.15271 0
M  V30 747 C 68.1596 2.63968 -2.24771 0
M  V30 748 C 67.2206 2.51331 -3.48039 0
M  V30 749 C 66.4536 3.78148 -3.76616 0
M  V30 750 O 66.6766 4.80722 -3.07022 0
M  V30 751 O 65.6106 3.75857 -4.70123 0
M  V30 752 H 69.4366 1.0083 -2.86474 0
M  V30 753 H 67.0216 0.433547 -1.42971 0
M  V30 754 H 68.9036 3.42633 -2.45318 0
M  V30 755 H 67.5786 2.9364 -1.36225 0
M  V30 756 H 66.4856 1.709 -3.32782 0
M  V30 757 H 67.8186 2.26601 -4.36936 0
M  V30 758 N 69.4707 1.49531 0.497807 0
M  V30 759 C 70.4007 1.6935 1.60757 0
M  V30 760 C 71.3817 0.542218 1.61227 0
M  V30 761 O 72.5667 0.778417 1.77917 0
M  V30 762 C 69.6967 1.76298 2.99226 0
M  V30 763 C 68.6507 2.91248 3.13622 0
M  V30 764 C 67.9767 2.83312 4.53474 0
M  V30 765 C 69.2767 4.3214 2.93346 0
M  V30 766 H 70.9707 2.62263 1.44425 0
M  V30 767 H 68.5167 1.26208 0.693367 0
M  V30 768 H 70.4697 1.88749 3.76765 0
M  V30 769 H 69.1937 0.799871 3.16654 0
M  V30 770 H 67.8527 2.78404 2.38509 0
M  V30 771 H 67.5007 1.84902 4.67782 0
M  V30 772 H 67.2007 3.60465 4.64046 0
M  V30 773 H 68.7247 2.97775 5.33069 0
M  V30 774 H 70.1387 4.45649 3.60652 0
M  V30 775 H 68.5357 5.1054 3.15387 0
M  V30 776 H 69.6057 4.46363 1.89441 0
M  V30 777 N 70.9488 -0.749086 1.3866 0
M  V30 778 C 71.8958 -1.86291 1.36251 0
M  V30 779 C 72.8658 -1.64578 0.224347 0
M  V30 780 O 74.0508 -1.86181 0.417279 0
M  V30 781 C 71.1908 -3.23644 1.19786 0
M  V30 782 C 70.3038 -3.57158 2.43027 0
M  V30 783 C 69.4388 -4.83838 2.19258 0
M  V30 784 C 68.4778 -5.10152 3.38247 0
M  V30 785 N 67.6148 -6.28029 3.13884 0
M  V30 786 H 72.4548 -1.87685 2.3147 0
M  V30 787 H 69.9918 -0.917287 1.14997 0
M  V30 788 H 71.9498 -4.0291 1.08254 0
M  V30 789 H 70.5798 -3.21566 0.282031 0
M  V30 790 H 69.6318 -2.72701 2.65214 0
M  V30 791 H 70.9438 -3.7253 3.31697 0
M  V30 792 H 70.0978 -5.71057 2.04888 0
M  V30 793 H 68.8368 -4.70614 1.2796 0
M  V30 794 H 67.8418 -4.21401 3.53131 0
M  V30 795 H 69.0668 -5.25271 4.30427 0
M  V30 796 H 67.0128 -6.1612 2.25238 0
M  V30 797 H 66.9298 -6.43922 3.96106 0
M  V30 798 H 68.1978 -7.18124 3.03179 0
M  V30 799 N 72.4269 -1.23603 -0.977757 0
M  V30 800 C 73.3369 -1.03632 -2.1047 0
M  V30 801 C 74.3529 0.0199435 -1.73989 0
M  V30 802 O 75.5289 -0.176076 -2.00629 0
M  V30 803 C 72.5939 -0.63276 -3.40877 0
M  V30 804 C 71.6549 -1.76437 -3.91367 0
M  V30 805 C 70.8879 -1.37997 -5.15551 0
M  V30 806 O 71.1109 -0.265357 -5.69782 0
M  V30 807 O 70.0449 -2.20201 -5.60174 0
M  V30 808 H 73.8709 -1.98086 -2.30208 0
M  V30 809 H 71.4559 -1.02332 -1.08851 0
M  V30 810 H 73.3379 -0.418761 -4.19314 0
M  V30 811 H 72.0129 0.282754 -3.22463 0
M  V30 812 H 70.9199 -2.03304 -3.14036 0
M  V30 813 H 72.2529 -2.6583 -4.14241 0
M  V30 814 N 73.905 1.17692 -1.04816 0
M  V30 815 C 74.855 2.1952 -0.616042 0
M  V30 816 C 75.839 1.57147 0.345485 0
M  V30 817 O 77.031 1.76245 0.163325 0
M  V30 818 C 74.16 3.43298 0.0116917 0
M  V30 819 C 73.246 4.12777 -0.973435 0
M  V30 820 N 73.637 4.5814 -2.14339 0
M  V30 821 C 71.935 4.38747 -0.80108 0
M  V30 822 C 72.636 5.11713 -2.7663 0
M  V30 823 N 71.612 5.03686 -2.04453 0
M  V30 824 H 75.414 2.52293 -1.5075 0
M  V30 825 H 72.928 1.3398 -0.917776 0
M  V30 826 H 74.925 4.15519 0.339006 0
M  V30 827 H 73.585 3.12018 0.898593 0
M  V30 828 H 74.596 4.52349 -2.52191 0
M  V30 829 H 71.273 4.17485 0.0350934 0
M  V30 830 H 72.663 5.56962 -3.75823 0
M  V30 831 N 75.3831 0.828654 1.34056 0
M  V30 832 C 76.3311 0.242973 2.31327 0
M  V30 833 C 77.3251 -0.61944 1.57668 0
M  V30 834 O 78.5311 -0.51014 1.7262 0
M  V30 835 H 74.9061 0.059834 0.749616 0
M  V30 836 H 76.8771 1.07809 2.78244 0
M  V30 837 C 75.6261 -0.575733 3.429 0
M  V30 838 H 74.9491 0.0785582 3.99723 0
M  V30 839 H 76.3891 -0.951547 4.13185 0
M  V30 840 C 74.8481 -1.75044 2.87856 0
M  V30 841 O 75.3781 -2.84882 2.83205 0
M  V30 842 N 73.5841 -1.56903 2.44602 0
M  V30 843 H 73.1311 -0.675547 2.48584 0
M  V30 844 H 73.0891 -2.35652 2.08124 0
M  V30 845 N 76.8612 -1.46375 0.584142 0
M  V30 846 C 78.1092 -2.01978 0.0701287 0
M  V30 847 C 78.4302 -1.4579 -1.295 0
M  V30 848 O 77.7002 -0.64314 -1.85042 0
M  V30 849 H 76.2802 -0.746648 0.0229345 0
M  V30 850 H 78.9422 -1.79461 0.760245 0
M  V30 851 H 78.0382 -3.121 0.0022064 0
M  V30 852 N 78.3393 -0.321999 -1.54275 0
M  V30 853 C 79.2713 0.578671 -2.21775 0
M  V30 854 C 80.2843 1.08109 -1.21722 0
M  V30 855 O 81.4733 0.994938 -1.482 0
M  V30 856 C 78.5733 1.80661 -2.86731 0
M  V30 857 C 77.7463 1.44314 -4.12907 0
M  V30 858 C 76.8053 2.52845 -4.61472 0
M  V30 859 O 75.8313 2.17054 -5.2619 0
M  V30 860 N 77.0333 3.83748 -4.35566 0
M  V30 861 H 79.7983 0.000709447 -2.997 0
M  V30 862 H 77.3593 -0.145132 -1.61248 0
M  V30 863 H 79.3513 2.52655 -3.16145 0
M  V30 864 H 77.9213 2.29245 -2.12521 0
M  V30 865 H 77.1413 0.554906 -3.90275 0
M  V30 866 H 78.4293 1.17598 -4.95023 0
M  V30 867 H 77.8273 4.15625 -3.83761 0
M  V30 868 H 76.3843 4.51977 -4.69638 0
M  V30 869 N 79.8174 1.5752 -0.0501392 0
M  V30 870 C 81.0634 1.92936 0.624798 0
M  V30 871 C 81.3964 0.928685 1.70555 0
M  V30 872 O 80.6714 -0.0454779 1.94447 0
M  V30 873 C 80.9544 3.38737 1.22185 0
M  V30 874 C 80.8074 4.49552 0.149218 0
M  V30 875 C 82.1264 3.84913 2.13378 0
M  V30 876 H 79.2454 0.701604 0.225657 0
M  V30 877 H 81.8874 1.89671 -0.111693 0
M  V30 878 H 80.0374 3.4165 1.84953 0
M  V30 879 H 81.7094 4.58768 -0.482648 0
M  V30 880 H 79.9524 4.30638 -0.522841 0
M  V30 881 H 80.6234 5.48653 0.606966 0
M  V30 882 H 83.0994 3.8387 1.60572 0
M  V30 883 H 81.9754 4.87584 2.52097 0
M  V30 884 H 82.2364 3.21611 3.03346 0
M  V30 885 N 81.2955 -0.223234 1.56011 0
M  V30 886 C 82.5235 -0.964812 1.83027 0
M  V30 887 C 82.9385 -1.78013 0.62904 0
M  V30 888 O 82.2955 -1.78008 -0.402414 0
M  V30 889 C 82.3465 -1.88373 3.08542 0
M  V30 890 O 82.0675 -1.10137 4.2403 0
M  V30 891 C 83.5685 -2.73934 3.48533 0
M  V30 892 H 80.7885 -0.282842 0.608475 0
M  V30 893 H 83.3325 -0.238971 2.03099 0
M  V30 894 H 81.4875 -2.56354 2.9045 0
M  V30 895 H 81.9015 -1.72501 4.95322 0
M  V30 896 H 83.3755 -3.34117 4.39397 0
M  V30 897 H 83.8525 -3.46244 2.70207 0
M  V30 898 H 84.4585 -2.11369 3.69057 0
M  V30 899 N 82.7736 -1.49793 -0.48987 0
M  V30 900 C 84.0216 -1.59525 -1.24081 0
M  V30 901 C 84.3426 -0.288953 -1.92847 0
M  V30 902 O 83.6126 0.692436 -1.83254 0
M  V30 903 H 82.1926 -0.587796 -0.460983 0
M  V30 904 H 84.8546 -1.86477 -0.566778 0
M  V30 905 H 83.9506 -2.39696 -1.99881 0
M  V30 906 N 84.2517 0.741722 -1.39055 0
M  V30 907 C 85.5007 1.49656 -1.35225 0
M  V30 908 C 85.8137 1.95533 0.0512708 0
M  V30 909 O 87.0197 2.7067 0.212138 0
M  V30 910 C 85.4757 2.70389 -2.37525 0
M  V30 911 C 85.0837 2.31489 -3.83558 0
M  V30 912 C 86.8277 3.48236 -2.42759 0
M  V30 913 C 84.7347 3.48903 -4.77515 0
M  V30 914 H 83.6647 0.56197 -0.502699 0
M  V30 915 H 86.3157 0.809727 -1.64668 0
M  V30 916 H 84.6977 3.41113 -2.01142 0
M  V30 917 H 85.8717 1.68354 -4.28945 0
M  V30 918 H 84.1867 1.66749 -3.81554 0
M  V30 919 H 86.7837 4.35558 -3.1015 0
M  V30 920 H 87.1267 3.90229 -1.45008 0
M  V30 921 H 87.6597 2.84535 -2.78002 0
M  V30 922 H 84.3987 3.11966 -5.76504 0
M  V30 923 H 83.9187 4.11041 -4.36813 0
M  V30 924 H 85.5977 4.15328 -4.96096 0
M  V30 925 N 85.7298 1.2412 0.971189 0
M  V30 926 C 87.0068 0.986867 1.6888 0
M  V30 927 C 87.3868 -0.491857 2.0529 0
M  V30 928 O 86.7348 -1.46531 1.75331 0
M  V30 929 C 86.9448 1.9063 2.92338 0
M  V30 930 C 88.2928 2.17515 3.64654 0
M  V30 931 O 89.3168 1.88254 3.02388 0
M  V30 932 O 88.1758 2.6719 4.7673 0
M  V30 933 H 85.2698 0.372944 0.738134 0
M  V30 934 H 87.8158 1.35203 1.02559 0
M  V30 935 H 86.5878 2.90552 2.62097 0
M  V30 936 H 86.2108 1.54408 3.66393 0
M  V30 937 N 87.2079 -1.17134 1.05439 0
M  V30 938 C 88.4539 -1.87979 0.776872 0
M  V30 939 C 88.8089 -1.7965 -0.688751 0
M  V30 940 O 88.1019 -1.19535 -1.4974 0
M  V30 941 C 88.2959 -3.36833 1.19491 0
M  V30 942 C 88.1249 -3.59653 2.69963 0
M  V30 943 C 86.8949 -3.76234 3.37307 0
M  V30 944 C 89.0929 -3.59091 3.68182 0
M  V30 945 N 87.0749 -3.86922 4.76618 0
M  V30 946 C 88.4459 -3.75659 4.93235 0
M  V30 947 C 90.5009 -3.42255 3.61616 0
M  V30 948 C 89.2039 -3.77133 6.12506 0
M  V30 949 C 91.2299 -3.45018 4.8033 0
M  V30 950 C 90.5919 -3.62096 6.04207 0
M  V30 951 H 86.6909 -0.705876 0.336546 0
M  V30 952 H 89.2749 -1.40602 1.34682 0
M  V30 953 H 87.4459 -3.82873 0.652884 0
M  V30 954 H 89.1779 -3.95305 0.866966 0
M  V30 955 H 85.9329 -3.76193 2.87708 0
M  V30 956 H 86.3569 -3.96055 5.49062 0
M  V30 957 H 90.9989 -3.27986 2.66805 0
M  V30 958 H 88.7169 -3.90186 7.07659 0
M  V30 959 H 92.3029 -3.33246 4.76905 0
M  V30 960 H 91.1829 -3.64142 6.94529 0
M  V30 961 N 88.686 -0.835752 -1.33615 0
M  V30 962 C 89.649 -0.272 -2.2758 0
M  V30 963 C 90.649 0.557487 -1.50827 0
M  V30 964 O 91.839 0.37173 -1.70188 0
M  V30 965 C 88.971 0.617173 -3.35267 0
M  V30 966 H 90.164 -1.10111 -2.78954 0
M  V30 967 H 87.717 -0.608594 -1.43965 0
M  V30 968 H 88.452 1.46884 -2.89129 0
M  V30 969 H 88.237 0.0237066 -3.92093 0
M  V30 970 H 89.727 1.005 -4.05326 0
M  V30 971 N 90.1641 1.46063 -0.591896 0
M  V30 972 C 91.5751 1.85944 -0.167822 0
M  V30 973 C 91.9261 1.49429 1.27143 0
M  V30 974 O 91.0511 0.913515 1.96173 0
M  V30 975 C 91.6461 3.37489 -0.297794 0
M  V30 976 C 90.2051 3.76332 0.0714732 0
M  V30 977 C 89.3521 2.7006 -0.629509 0
M  V30 978 H 92.3031 1.37087 -0.799555 0
M  V30 979 H 92.3241 3.77532 0.474349 0
M  V30 980 H 91.8361 3.64034 -1.3454 0
M  V30 981 H 89.9371 3.55405 1.11886 0
M  V30 982 H 90.0501 4.78088 -0.311245 0
M  V30 983 H 88.4141 2.54607 -0.0687867 0
M  V30 984 H 89.1971 2.99444 -1.67894 0
M  V30 985 N 91.6422 0.330177 1.54103 0
M  V30 986 C 92.5522 -0.541534 2.28264 0
M  V30 987 C 93.5682 -1.12351 1.32866 0
M  V30 988 O 94.7442 -1.14206 1.65888 0
M  V30 989 C 91.8092 -1.68322 3.03098 0
M  V30 990 C 90.8702 -1.13238 4.14096 0
M  V30 991 C 90.1032 -2.21966 4.85352 0
M  V30 992 O 90.3262 -3.42437 4.56172 0
M  V30 993 O 89.2602 -1.87013 5.7211 0
M  V30 994 H 93.0862 0.060938 3.03639 0
M  V30 995 H 90.6712 0.09565 1.49093 0
M  V30 996 H 92.5532 -2.34777 3.49939 0
M  V30 997 H 91.2282 -2.27176 2.30593 0
M  V30 998 H 90.1352 -0.432736 3.71589 0
M  V30 999 H 91.4682 -0.588898 4.88664 0
M  V30 1000 N 93.1203 -1.57491 0.0584922 0
M  V30 1001 C 94.3453 -1.97711 -0.62652 0
M  V30 1002 C 94.7703 -0.936132 -1.63151 0
M  V30 1003 O 94.1283 0.099811 -1.81025 0
M  V30 1004 C 94.1763 -3.36989 -1.28338 0
M  V30 1005 O 93.2803 -3.35433 -2.39913 0
M  V30 1006 H 92.6213 -0.643868 -0.162266 0
M  V30 1007 H 95.1513 -2.04193 0.129064 0
M  V30 1008 H 95.1613 -3.73879 -1.63335 0
M  V30 1009 H 93.8363 -4.12289 -0.546889 0
M  V30 1010 H 92.4133 -3.10298 -2.06809 0
M  V30 1011 N 94.5984 0.214957 -1.56127 0
M  V30 1012 C 95.5464 1.28601 -1.93816 0
M  V30 1013 C 96.5404 1.48175 -0.821016 0
M  V30 1014 O 97.7464 1.49271 -1.0059 0
M  V30 1015 H 94.1214 0.431302 -0.616022 0
M  V30 1016 H 96.0924 0.940991 -2.83175 0
M  V30 1017 C 94.8414 2.62779 -2.27689 0
M  V30 1018 H 94.1644 2.48527 -3.13168 0
M  V30 1019 H 95.6044 3.36517 -2.57939 0
M  V30 1020 C 94.0634 3.18285 -1.10436 0
M  V30 1021 O 94.5934 4.00002 -0.368945 0
M  V30 1022 N 92.7994 2.7675 -0.886433 0
M  V30 1023 H 92.3464 2.10404 -1.48619 0
M  V30 1024 H 92.3044 3.14229 -0.103656 0
M  V30 1025 N 96.0765 1.50051 0.48192 0
M  V30 1026 C 97.4925 1.37237 0.814756 0
M  V30 1027 C 97.6925 0.420109 1.97072 0
M  V30 1028 O 96.7485 -0.141246 2.52105 0
M  V30 1029 C 98.0615 2.78375 1.13701 0
M  V30 1030 C 99.6095 2.87213 1.2441 0
M  V30 1031 C 100.084 4.29161 1.59954 0
M  V30 1032 N 101.575 4.32061 1.66967 0
M  V30 1033 C 102.31 5.38879 1.95952 0
M  V30 1034 N 101.806 6.55918 2.23031 0
M  V30 1035 N 103.599 5.26312 1.97363 0
M  V30 1036 H 95.7505 2.10546 -0.28005 0
M  V30 1037 H 98.0135 0.945921 -0.0627454 0
M  V30 1038 H 97.7195 3.49845 0.360787 0
M  V30 1039 H 97.5935 3.14941 2.07586 0
M  V30 1040 H 99.9805 2.15969 2.01101 0
M  V30 1041 H 100.061 2.54204 0.285299 0
M  V30 1042 H 99.7055 5.00938 0.838067 0
M  V30 1043 H 99.6355 4.59648 2.56966 0
M  V30 1044 H 102.126 3.47661 1.48123 0
M  V30 1045 H 102.439 7.33139 2.44391 0
M  V30 1046 H 100.784 6.59112 2.20447 0
M  V30 1047 H 103.975 4.33876 1.75697 0
M  V30 1048 H 104.148 6.09649 2.19618 0
M  V30 1049 N 97.5546 -0.734337 1.39446 0
M  V30 1050 C 98.8036 -1.48937 1.36017 0
M  V30 1051 C 99.1166 -1.95557 -0.0409005 0
M  V30 1052 O 100.323 -2.70779 -0.19778 0
M  V30 1053 C 98.7786 -2.69125 2.38955 0
M  V30 1054 C 98.3866 -2.29452 3.8478 0
M  V30 1055 C 100.131 -3.46944 2.44603 0
M  V30 1056 C 98.0376 -3.46366 4.79358 0
M  V30 1057 H 96.9676 -0.559296 0.505672 0
M  V30 1058 H 99.6186 -0.800983 1.65095 0
M  V30 1059 H 98.0006 -3.40041 2.02948 0
M  V30 1060 H 99.1746 -1.66077 4.29831 0
M  V30 1061 H 97.4896 -1.64723 3.82433 0
M  V30 1062 H 100.087 -4.33907 3.12456 0
M  V30 1063 H 100.43 -3.89454 1.47076 0
M  V30 1064 H 100.963 -2.83056 2.79507 0
M  V30 1065 H 97.7016 -3.08905 5.78151 0
M  V30 1066 H 97.2216 -4.08719 4.38986 0
M  V30 1067 H 98.9006 -4.12691 4.98292 0
M  V30 1068 N 99.0327 -1.24633 -0.964593 0
M  V30 1069 C 100.279 -1.08949 -1.71049 0
M  V30 1070 C 100.612 0.370302 -1.90637 0
M  V30 1071 O 99.8867 1.27349 -1.47011 0
M  V30 1072 C 100.17 -1.83329 -3.0994 0
M  V30 1073 C 100.023 -3.37077 -2.97824 0
M  V30 1074 C 101.342 -1.60846 -4.09654 0
M  V30 1075 H 98.4607 -0.397178 -0.620821 0
M  V30 1076 H 101.103 -1.5334 -1.12191 0
M  V30 1077 H 99.2527 -1.45597 -3.60186 0
M  V30 1078 H 100.925 -3.84425 -2.5498 0
M  V30 1079 H 99.1677 -3.65298 -2.33965 0
M  V30 1080 H 99.8387 -3.84324 -3.96231 0
M  V30 1081 H 102.315 -1.93674 -3.68279 0
M  V30 1082 H 101.191 -2.1534 -5.04896 0
M  V30 1083 H 101.452 -0.547434 -4.38698 0
M  V30 1084 N 100.511 1.16574 -1.06058 0
M  V30 1085 C 101.739 1.90952 -0.796552 0
M  V30 1086 C 102.154 1.77302 0.648808 0
M  V30 1087 O 101.511 1.11605 1.44397 0
M  V30 1088 C 101.562 3.41736 -1.17894 0
M  V30 1089 O 101.283 3.54975 -2.56758 0
M  V30 1090 C 102.784 4.33169 -0.942308 0
M  V30 1091 H 100.004 0.605594 -0.288959 0
M  V30 1092 H 102.548 1.47777 -1.41358 0
M  V30 1093 H 100.703 3.82623 -0.606491 0
M  V30 1094 H 101.117 4.4846 -2.72 0
M  V30 1095 H 102.591 5.37439 -1.25952 0
M  V30 1096 H 103.068 4.3903 0.122078 0
M  V30 1097 H 103.674 3.98007 -1.49902 0
M  V30 1098 N 101.989 0.842826 1.3317 0
M  V30 1099 C 103.229 0.446574 1.99462 0
M  V30 1100 C 103.593 -0.976818 1.65295 0
M  V30 1101 O 104.794 -1.477 2.24584 0
M  V30 1102 C 103.065 0.665353 3.51152 0
M  V30 1103 S 104.624 0.364911 4.3728 0
M  V30 1104 H 101.442 0.167803 0.690915 0
M  V30 1105 H 104.044 1.09297 1.62094 0
M  V30 1106 H 102.748 1.7006 3.73507 0
M  V30 1107 H 102.279 0.00494568 3.934 0
M  V30 1108 H 104.294 -0.813761 4.89482 0
M  V30 1109 N 103.467 -1.45747 0.599634 0
M  V30 1110 C 104.715 -2.01893 0.0915472 0
M  V30 1111 C 105.036 -1.47155 -1.27946 0
M  V30 1112 O 104.306 -0.66273 -1.84349 0
M  V30 1113 H 102.886 -0.746363 0.0308524 0
M  V30 1114 H 105.548 -1.78645 0.779237 0
M  V30 1115 H 104.644 -3.1208 0.0353086 0
M  V30 1116 N 104.945 -0.338344 -1.53925 0
M  V30 1117 C 106.173 0.261298 -2.05243 0
M  V30 1118 C 106.588 1.44625 -1.21363 0
M  V30 1119 O 105.945 1.80811 -0.247736 0
M  V30 1120 C 105.996 0.681412 -3.5502 0
M  V30 1121 O 105.717 -0.456414 -4.35716 0
M  V30 1122 C 107.218 1.34232 -4.22489 0
M  V30 1123 H 104.438 0.0513685 -0.669031 0
M  V30 1124 H 106.982 -0.488822 -1.98572 0
M  V30 1125 H 105.137 1.38148 -3.61931 0
M  V30 1126 H 105.551 -0.122564 -5.24357 0
M  V30 1127 H 107.025 1.58708 -5.28693 0
M  V30 1128 H 107.502 2.29426 -3.74514 0
M  V30 1129 H 108.108 0.684424 -4.19757 0
M  V30 1130 N 106.423 1.57458 -0.0668435 0
M  V30 1131 C 107.7 1.8469 0.644132 0
M  V30 1132 C 108.08 0.958343 1.88093 0
M  V30 1133 O 107.428 0.0233579 2.28488 0
M  V30 1134 C 107.638 3.34767 0.986509 0
M  V30 1135 C 108.986 4.02159 1.36212 0
M  V30 1136 O 110.01 3.39484 1.07839 0
M  V30 1137 O 108.869 5.12694 1.89227 0
M  V30 1138 H 105.963 0.762816 0.319437 0
M  V30 1139 H 108.509 1.6942 -0.0973986 0
M  V30 1140 H 107.281 3.91151 0.107883 0
M  V30 1141 H 106.904 3.55281 1.78497 0
M  V30 1142 N 107.901 -0.206675 1.56239 0
M  V30 1143 C 109.317 -0.557025 1.49564 0
M  V30 1144 C 109.517 -1.86424 0.764735 0
M  V30 1145 O 108.573 -2.50584 0.310491 0
M  V30 1146 C 109.886 -0.622478 2.94186 0
M  V30 1147 C 111.434 -0.712099 3.04792 0
M  V30 1148 C 111.909 -0.808767 4.50803 0
M  V30 1149 N 113.4 -0.8726 4.54907 0
M  V30 1150 C 114.135 -0.967365 5.65181 0
M  V30 1151 N 113.631 -1.02515 6.85173 0
M  V30 1152 N 115.424 -1.00366 5.53067 0
M  V30 1153 H 107.575 0.650943 2.02179 0
M  V30 1154 H 109.838 0.230387 0.919579 0
M  V30 1155 H 109.544 0.268727 3.50672 0
M  V30 1156 H 109.418 -1.4811 3.46905 0
M  V30 1157 H 111.805 -1.59374 2.48363 0
M  V30 1158 H 111.886 0.172489 2.55218 0
M  V30 1159 H 111.53 0.0684754 5.07854 0
M  V30 1160 H 111.46 -1.70899 4.98098 0
M  V30 1161 H 113.951 -0.837657 3.68499 0
M  V30 1162 H 114.264 -1.09765 7.64965 0
M  V30 1163 H 112.609 -0.994026 6.87855 0
M  V30 1164 H 115.8 -0.95527 4.58249 0
M  V30 1165 H 115.973 -1.07405 6.39037 0
M  V30 1166 N 109.379 -1.50304 -0.473955 0
M  V30 1167 C 110.327 -1.69482 -1.59307 0
M  V30 1168 C 111.321 -0.560669 -1.59853 0
M  V30 1169 O 112.527 -0.741087 -1.64036 0
M  V30 1170 H 108.902 -0.534892 -0.528578 0
M  V30 1171 H 110.873 -2.63364 -1.40293 0
M  V30 1172 C 109.622 -1.80354 -2.97267 0
M  V30 1173 H 108.945 -2.67012 -2.97564 0
M  V30 1174 H 110.385 -1.97798 -3.75036 0
M  V30 1175 C 108.844 -0.55448 -3.32306 0
M  V30 1176 O 109.374 0.307661 -4.0052 0
M  V30 1177 N 107.58 -0.409354 -2.87702 0
M  V30 1178 H 107.127 -1.11196 -2.32364 0
M  V30 1179 H 107.085 0.425223 -3.11511 0
M  V30 1180 N 110.857 0.726932 -1.39834 0
M  V30 1181 C 111.82 1.82269 -1.38962 0
M  V30 1182 C 112.82 1.58248 -0.285334 0
M  V30 1183 O 114.01 1.65499 -0.54366 0
M  V30 1184 C 111.142 3.20186 -1.17019 0
M  V30 1185 H 112.335 1.84443 -2.36476 0
M  V30 1186 H 109.888 0.931416 -1.25516 0
M  V30 1187 H 110.623 3.23669 -0.202204 0
M  V30 1188 H 110.408 3.3902 -1.96998 0
M  V30 1189 H 111.898 4.00235 -1.1917 0
M  V30 1190 N 112.336 1.25143 0.95797 0
M  V30 1191 C 113.566 1.12261 1.73439 0
M  V30 1192 C 113.974 -0.326715 1.86358 0
M  V30 1193 O 113.317 -1.2367 1.35836 0
M  V30 1194 C 113.379 1.69966 3.16784 0
M  V30 1195 C 113.043 3.18936 3.27305 0
M  V30 1196 C 114.04 4.15968 3.11877 0
M  V30 1197 C 111.725 3.59083 3.51234 0
M  V30 1198 C 113.719 5.51126 3.20217 0
M  V30 1199 C 111.406 4.9438 3.5921 0
M  V30 1200 C 112.404 5.90211 3.43716 0
M  V30 1201 O 112.092 7.23046 3.51368 0
M  V30 1202 H 111.824 0.392476 0.550399 0
M  V30 1203 H 114.378 1.65927 1.21068 0
M  V30 1204 H 112.608 1.10744 3.70503 0
M  V30 1205 H 114.297 1.52232 3.76272 0
M  V30 1206 H 115.063 3.86292 2.93264 0
M  V30 1207 H 110.942 2.84989 3.62356 0
M  V30 1208 H 114.486 6.25905 3.0804 0
M  V30 1209 H 110.383 5.23723 3.77339 0
M  V30 1210 H 111.151 7.31097 3.6802 0
M  V30 1211 N 113.814 -1.1601 1.06675 0
M  V30 1212 C 115.06 -1.86909 0.786945 0
M  V30 1213 C 115.393 -1.81717 -0.685018 0
M  V30 1214 O 114.668 -1.23551 -1.50218 0
M  V30 1215 C 114.951 -3.36313 1.28707 0
M  V30 1216 C 114.804 -3.50175 2.82308 0
M  V30 1217 C 116.123 -4.3084 0.898071 0
M  V30 1218 H 113.242 -0.678677 0.287343 0
M  V30 1219 H 115.884 -1.36336 1.32334 0
M  V30 1220 H 114.034 -3.79513 0.830768 0
M  V30 1221 H 115.706 -3.15886 3.36175 0
M  V30 1222 H 113.949 -2.91959 3.20847 0
M  V30 1223 H 114.62 -4.55116 3.12368 0
M  V30 1224 H 117.096 -3.95561 1.29114 0
M  V30 1225 H 115.972 -5.33876 1.27543 0
M  V30 1226 H 116.233 -4.41662 -0.196651 0
M  V30 1227 N 115.292 -0.849877 -1.32721 0
M  V30 1228 C 116.538 -0.460855 -1.9811 0
M  V30 1229 C 116.893 0.971716 -1.66059 0
M  V30 1230 O 116.186 1.67184 -0.935944 0
M  V30 1231 C 116.38 -0.631272 -3.51781 0
M  V30 1232 C 116.209 -2.07886 -3.98765 0
M  V30 1233 C 114.979 -2.71637 -4.26077 0
M  V30 1234 C 117.177 -3.04889 -4.14182 0
M  V30 1235 N 115.159 -4.07356 -4.59276 0
M  V30 1236 C 116.53 -4.25583 -4.50865 0
M  V30 1237 C 118.585 -3.01148 -3.96503 0
M  V30 1238 C 117.288 -5.43027 -4.71714 0
M  V30 1239 C 119.314 -4.17832 -4.18533 0
M  V30 1240 C 118.676 -5.37284 -4.55528 0
M  V30 1241 H 114.775 -0.217283 -0.751207 0
M  V30 1242 H 117.359 -1.10026 -1.60631 0
M  V30 1243 H 115.53 -0.0215966 -3.88394 0
M  V30 1244 H 117.262 -0.212614 -4.04141 0
M  V30 1245 H 114.017 -2.22705 -4.17971 0
M  V30 1246 H 114.441 -4.77351 -4.80068 0
M  V30 1247 H 119.083 -2.0992 -3.67006 0
M  V30 1248 H 116.801 -6.34791 -5.00066 0
M  V30 1249 H 120.387 -4.16368 -4.06361 0
M  V30 1250 H 119.267 -6.26071 -4.72234 0
M  V30 1251 N 116.77 1.45427 -0.607355 0
M  V30 1252 C 117.998 2.06614 -0.108814 0
M  V30 1253 C 118.413 1.45204 1.2067 0
M  V30 1254 O 117.77 0.566132 1.73497 0
M  V30 1255 C 117.821 3.61481 0.0375347 0
M  V30 1256 O 117.542 4.20598 -1.22593 0
M  V30 1257 C 119.043 4.39652 0.567561 0
M  V30 1258 H 116.263 0.66747 -0.0687351 0
M  V30 1259 H 118.807 1.86675 -0.835022 0
M  V30 1260 H 116.962 3.80762 0.714068 0
M  V30 1261 H 117.376 5.1377 -1.05547 0
M  V30 1262 H 118.85 5.48518 0.61905 0
M  V30 1263 H 119.327 4.09417 1.58978 0
M  V30 1264 H 119.933 4.25234 -0.0749202 0
M  V30 1265 N 118.248 0.346503 1.53744 0
M  V30 1266 C 119.178 -0.501193 2.28058 0
M  V30 1267 C 120.159 -1.10014 1.29734 0
M  V30 1268 O 121.344 -1.12097 1.58581 0
M  V30 1269 C 118.474 -1.65078 3.05559 0
M  V30 1270 C 117.428 -1.18003 4.11411 0
M  V30 1271 C 116.754 -2.41837 4.76884 0
M  V30 1272 C 118.054 -0.278394 5.21558 0
M  V30 1273 H 119.748 0.11875 2.99164 0
M  V30 1274 H 117.294 0.0585531 1.43881 0
M  V30 1275 H 119.247 -2.25028 3.56287 0
M  V30 1276 H 117.971 -2.29767 2.32109 0
M  V30 1277 H 116.63 -0.603331 3.61601 0
M  V30 1278 H 116.278 -3.0494 4.00026 0
M  V30 1279 H 115.978 -2.1102 5.48402 0
M  V30 1280 H 117.502 -3.02508 5.30397 0
M  V30 1281 H 118.916 -0.784823 5.67903 0
M  V30 1282 H 117.313 -0.0619707 6.00068 0
M  V30 1283 H 118.383 0.684677 4.80042 0
M  V30 1284 N 119.726 -1.57421 0.075193 0
M  V30 1285 C 120.673 -2.12915 -0.890843 0
M  V30 1286 C 121.643 -1.04252 -1.29309 0
M  V30 1287 O 122.828 -1.31933 -1.37834 0
M  V30 1288 C 119.968 -2.69795 -2.15186 0
M  V30 1289 C 119.081 -3.92624 -1.80194 0
M  V30 1290 C 118.216 -4.37736 -3.00933 0
M  V30 1291 C 117.255 -5.53205 -2.61974 0
M  V30 1292 N 116.392 -5.9326 -3.75483 0
M  V30 1293 H 121.232 -2.95156 -0.410735 0
M  V30 1294 H 118.769 -1.45854 -0.191086 0
M  V30 1295 H 120.727 -3.00883 -2.89008 0
M  V30 1296 H 119.357 -1.90313 -2.60731 0
M  V30 1297 H 118.409 -3.67977 -0.964218 0
M  V30 1298 H 119.721 -4.76482 -1.47534 0
M  V30 1299 H 118.875 -4.70503 -3.8303 0
M  V30 1300 H 117.614 -3.52739 -3.36789 0
M  V30 1301 H 116.619 -5.20086 -1.783 0
M  V30 1302 H 117.844 -6.39936 -2.27284 0
M  V30 1303 H 115.79 -5.11212 -4.11094 0
M  V30 1304 H 115.707 -6.71865 -3.46602 0
M  V30 1305 H 116.975 -6.30651 -4.58148 0
M  V30 1306 N 121.204 0.198386 -1.56346 0
M  V30 1307 C 122.452 0.91747 -1.80075 0
M  V30 1308 C 122.773 1.83929 -0.647692 0
M  V30 1309 O 122.043 1.93029 0.334166 0
M  V30 1310 H 120.623 0.341774 -0.664228 0
M  V30 1311 H 123.285 0.204684 -1.93822 0
M  V30 1312 H 122.381 1.51055 -2.7311 0
M  V30 1313 N 122.682 1.50554 0.465978 0
M  V30 1314 C 124.098 1.38093 0.800154 0
M  V30 1315 C 124.298 0.440988 1.96615 0
M  V30 1316 O 123.354 -0.114499 2.5224 0
M  V30 1317 C 124.667 2.79565 1.10742 0
M  V30 1318 C 126.215 2.88516 1.21357 0
M  V30 1319 C 126.69 4.30833 1.55393 0
M  V30 1320 N 128.181 4.33807 1.62375 0
M  V30 1321 C 128.916 5.40927 1.90225 0
M  V30 1322 N 128.412 6.58247 2.16062 0
M  V30 1323 N 130.205 5.28376 1.9177 0
M  V30 1324 H 122.356 2.10237 -0.302366 0
M  V30 1325 H 124.619 0.945203 -0.0727746 0
M  V30 1326 H 124.325 3.50208 0.323661 0
M  V30 1327 H 124.199 3.17125 2.04234 0
M  V30 1328 H 126.586 2.1809 1.98799 0
M  V30 1329 H 126.667 2.54492 0.258321 0
M  V30 1330 H 126.311 5.01799 0.784889 0
M  V30 1331 H 126.241 4.62347 2.52076 0
M  V30 1332 H 128.732 3.49212 1.44427 0
M  V30 1333 H 129.045 7.3569 2.36601 0
M  V30 1334 H 127.39 6.61413 2.13444 0
M  V30 1335 H 130.581 4.35715 1.71085 0
M  V30 1336 H 130.754 6.11944 2.13139 0
M  V30 1337 N 124.16 -0.719506 1.40217 0
M  V30 1338 C 125.388 -1.50864 1.41589 0
M  V30 1339 C 125.803 -1.88794 0.0145275 0
M  V30 1340 O 125.16 -1.55174 -0.960594 0
M  V30 1341 C 125.211 -2.78646 2.30302 0
M  V30 1342 O 124.932 -2.42321 3.64983 0
M  V30 1343 C 126.433 -3.72569 2.40224 0
M  V30 1344 H 123.653 -0.465709 0.48307 0
M  V30 1345 H 126.197 -0.88785 1.84221 0
M  V30 1346 H 124.352 -3.37019 1.91042 0
M  V30 1347 H 124.766 -3.24514 4.12057 0
M  V30 1348 H 126.24 -4.5908 3.06512 0
M  V30 1349 H 126.717 -4.15403 1.42608 0
M  V30 1350 H 127.323 -3.20109 2.80019 0
M  V30 1351 N 125.638 -1.25649 -0.95132 0
M  V30 1352 C 126.884 -1.11766 -1.69941 0
M  V30 1353 C 127.239 0.33735 -1.89419 0
M  V30 1354 O 126.532 1.24491 -1.45645 0
M  V30 1355 C 126.726 -1.80909 -3.08231 0
M  V30 1356 C 126.555 -3.32984 -3.02245 0
M  V30 1357 C 125.325 -4.02247 -3.05819 0
M  V30 1358 C 127.523 -4.29332 -2.83157 0
M  V30 1359 N 125.505 -5.41072 -2.90024 0
M  V30 1360 C 126.876 -5.55265 -2.75828 0
M  V30 1361 C 128.931 -4.19707 -2.67863 0
M  V30 1362 C 127.634 -6.72671 -2.54767 0
M  V30 1363 C 129.66 -5.36809 -2.48173 0
M  V30 1364 C 129.022 -6.61683 -2.41567 0
M  V30 1365 H 125.121 -0.463708 -0.629682 0
M  V30 1366 H 127.705 -1.58796 -1.12659 0
M  V30 1367 H 125.876 -1.36369 -3.63673 0
M  V30 1368 H 127.608 -1.59739 -3.71841 0
M  V30 1369 H 124.363 -3.53531 -3.15139 0
M  V30 1370 H 124.787 -6.13938 -2.85323 0
M  V30 1371 H 129.429 -3.23907 -2.71743 0
M  V30 1372 H 127.147 -7.68577 -2.49629 0
M  V30 1373 H 130.733 -5.31224 -2.37259 0
M  V30 1374 H 129.613 -7.50768 -2.26531 0
M  V30 1375 N 127.117 1.15442 -1.07289 0
M  V30 1376 C 128.064 2.20161 -0.692653 0
M  V30 1377 C 129.034 1.63073 0.31564 0
M  V30 1378 O 130.219 1.89725 0.202235 0
M  V30 1379 C 127.359 3.44967 -0.0959509 0
M  V30 1380 C 126.472 4.16256 -1.15564 0
M  V30 1381 C 125.607 5.28609 -0.524011 0
M  V30 1382 C 124.646 5.91715 -1.56653 0
M  V30 1383 N 123.783 6.9554 -0.957531 0
M  V30 1384 H 128.623 2.52037 -1.59002 0
M  V30 1385 H 126.16 1.2378 -0.794798 0
M  V30 1386 H 128.118 4.16341 0.267628 0
M  V30 1387 H 126.748 3.1361 0.764772 0
M  V30 1388 H 125.8 3.43385 -1.6368 0
M  V30 1389 H 127.112 4.59268 -1.94613 0
M  V30 1390 H 126.266 6.06604 -0.108032 0
M  V30 1391 H 125.005 4.86787 0.29825 0
M  V30 1392 H 124.01 5.12433 -1.9923 0
M  V30 1393 H 125.235 6.35614 -2.39107 0
M  V30 1394 H 123.181 6.55814 -0.156162 0
M  V30 1395 H 123.098 7.36977 -1.68526 0
M  V30 1396 H 124.366 7.77435 -0.567032 0
M  V30 1397 N 128.595 0.856903 1.32268 0
M  V30 1398 C 130.006 0.515711 1.79436 0
M  V30 1399 C 130.357 -0.966586 1.70738 0
M  V30 1400 O 129.482 -1.75409 1.26731 0
M  V30 1401 C 130.077 0.929335 3.25805 0
M  V30 1402 C 128.636 0.640006 3.70919 0
M  V30 1403 C 127.783 1.12784 2.53328 0
M  V30 1404 H 130.734 1.04389 1.19535 0
M  V30 1405 H 130.755 0.246633 3.797 0
M  V30 1406 H 130.267 2.00821 3.32103 0
M  V30 1407 H 128.368 -0.428051 3.70133 0
M  V30 1408 H 128.481 1.20788 4.63624 0
M  V30 1409 H 126.845 0.548033 2.48734 0
M  V30 1410 H 127.628 2.21387 2.62379 0
M  V30 1411 N 130.073 -1.45103 0.615059 0
M  V30 1412 C 131.301 -2.06553 0.11977 0
M  V30 1413 C 131.716 -1.45842 -1.19898 0
M  V30 1414 O 131.073 -0.575325 -1.73194 0
M  V30 1415 C 131.124 -3.61495 -0.018364 0
M  V30 1416 O 130.845 -4.19942 1.24822 0
M  V30 1417 C 132.346 -4.39947 -0.544237 0
M  V30 1418 H 129.566 -0.667096 0.0722739 0
M  V30 1419 H 132.11 -1.8623 0.84491 0
M  V30 1420 H 130.265 -3.81135 -0.693865 0
M  V30 1421 H 130.679 -5.13204 1.0827 0
M  V30 1422 H 132.153 -5.48838 -0.589953 0
M  V30 1423 H 132.63 -4.10255 -1.56805 0
M  V30 1424 H 133.236 -4.25188 0.0974703 0
M  V30 1425 N 131.551 -0.354651 -1.53558 0
M  V30 1426 C 132.481 0.489091 -2.2832 0
M  V30 1427 C 133.462 1.09324 -1.30316 0
M  V30 1428 O 134.647 1.11255 -1.59173 0
M  V30 1429 C 131.777 1.63456 -3.0643 0
M  V30 1430 C 130.731 1.1582 -4.12031 0
M  V30 1431 C 130.057 2.39305 -4.7816 0
M  V30 1432 C 131.357 0.250731 -5.21698 0
M  V30 1433 H 133.051 -0.134614 -2.99097 0
M  V30 1434 H 130.597 -0.0661826 -1.43848 0
M  V30 1435 H 132.55 2.23136 -3.57475 0
M  V30 1436 H 131.274 2.28533 -2.33325 0
M  V30 1437 H 129.933 0.584146 -3.61916 0
M  V30 1438 H 129.581 3.02814 -4.01637 0
M  V30 1439 H 129.281 2.08109 -5.49513 0
M  V30 1440 H 130.805 2.99691 -5.31994 0
M  V30 1441 H 132.219 0.754695 -5.68311 0
M  V30 1442 H 130.616 0.0301468 -6.00092 0
M  V30 1443 H 131.686 -0.710125 -4.79672 0
M  V30 1444 N 133.029 1.57378 -0.0835403 0
M  V30 1445 C 134.275 1.94217 0.583733 0
M  V30 1446 C 134.608 0.964653 1.68547 0
M  V30 1447 O 133.883 -0.00422258 1.945 0
M  V30 1448 C 134.166 3.41253 1.14972 0
M  V30 1449 C 134.019 4.49768 0.0538277 0
M  V30 1450 C 135.338 3.89352 2.05166 0
M  V30 1451 H 132.457 0.706233 0.210724 0
M  V30 1452 H 135.099 1.89392 -0.1519 0
M  V30 1453 H 133.249 3.45496 1.77665 0
M  V30 1454 H 134.921 4.57641 -0.579851 0
M  V30 1455 H 133.164 4.29432 -0.614068 0
M  V30 1456 H 133.835 5.49817 0.490452 0
M  V30 1457 H 136.311 3.87189 1.52393 0
M  V30 1458 H 135.187 4.92822 2.41698 0
M  V30 1459 H 135.448 3.27973 2.96456 0
M  V30 1460 N 134.507 -0.190092 1.56449 0
M  V30 1461 C 135.756 -0.907912 1.80111 0
M  V30 1462 C 136.069 -1.84214 0.657619 0
M  V30 1463 O 137.275 -2.60094 0.778663 0
M  V30 1464 C 135.731 -1.66485 3.19078 0
M  V30 1465 C 135.339 -0.7752 4.41242 0
M  V30 1466 C 137.083 -2.37201 3.52045 0
M  V30 1467 C 134.99 -1.53129 5.71231 0
M  V30 1468 H 133.92 -0.34276 0.671589 0
M  V30 1469 H 136.571 -0.161109 1.82791 0
M  V30 1470 H 134.953 -2.45572 3.10661 0
M  V30 1471 H 136.127 -0.0226298 4.60794 0
M  V30 1472 H 134.442 -0.178627 4.16017 0
M  V30 1473 H 137.039 -2.94329 4.46402 0
M  V30 1474 H 137.382 -3.11632 2.76028 0
M  V30 1475 H 137.915 -1.65075 3.61932 0
M  V30 1476 H 134.654 -0.82967 6.50228 0
M  V30 1477 H 134.174 -2.25767 5.55688 0
M  V30 1478 H 135.853 -2.08377 6.12526 0
M  V30 1479 N 135.985 -1.50799 -0.457987 0
M  V30 1480 C 136.915 -1.73553 -1.5621 0
M  V30 1481 C 137.896 -0.584774 -1.59732 0
M  V30 1482 O 139.081 -0.825314 -1.7579 0
M  V30 1483 C 136.211 -1.84169 -2.94447 0
M  V30 1484 C 135.165 -2.99461 -3.0579 0
M  V30 1485 C 134.491 -2.95235 -4.45803 0
M  V30 1486 C 135.791 -4.39766 -2.81786 0
M  V30 1487 H 137.485 -2.66 -1.37421 0
M  V30 1488 H 135.031 -1.28002 -0.659662 0
M  V30 1489 H 136.984 -1.98672 -3.71628 0
M  V30 1490 H 135.708 -0.883545 -3.14422 0
M  V30 1491 H 134.367 -2.8463 -2.31044 0
M  V30 1492 H 134.015 -1.97239 -4.62715 0
M  V30 1493 H 133.715 -3.72642 -4.54326 0
M  V30 1494 H 135.239 -3.11803 -5.24987 0
M  V30 1495 H 136.653 -4.55054 -3.4871 0
M  V30 1496 H 135.05 -5.18722 -3.0174 0
M  V30 1497 H 136.12 -4.51229 -1.7754 0
M  V30 1498 N 137.463 0.71206 -1.40597 0
M  V30 1499 C 138.879 1.02058 -1.22704 0
M  V30 1500 C 139.079 2.01228 -0.104729 0
M  V30 1501 O 138.135 2.4674 0.53624 0
M  V30 1502 C 139.448 1.56094 -2.57012 0
M  V30 1503 C 140.996 1.6806 -2.64054 0
M  V30 1504 C 141.471 2.25501 -3.9864 0
M  V30 1505 N 142.962 2.32882 -4.004 0
M  V30 1506 C 143.697 2.78317 -5.01325 0
M  V30 1507 N 143.193 3.23478 -6.12645 0
M  V30 1508 N 144.986 2.77733 -4.88693 0
M  V30 1509 H 137.137 0.0547896 -2.12329 0
M  V30 1510 H 139.4 0.0869027 -0.944008 0
M  V30 1511 H 139.106 0.906865 -3.39807 0
M  V30 1512 H 138.98 2.54564 -2.78347 0
M  V30 1513 H 141.367 2.32583 -1.81629 0
M  V30 1514 H 141.448 0.681802 -2.46546 0
M  V30 1515 H 141.092 1.61598 -4.81506 0
M  V30 1516 H 141.022 3.26102 -4.13479 0
M  V30 1517 H 143.513 2.00991 -3.20017 0
M  V30 1518 H 143.826 3.56725 -6.85542 0
M  V30 1519 H 142.171 3.21429 -6.16205 0
M  V30 1520 H 145.362 2.4179 -4.00818 0
M  V30 1521 H 145.535 3.12826 -5.67489 0
M  V30 1522 N 138.941 1.26152 0.944643 0
M  V30 1523 C 140.19 1.10883 1.68487 0
M  V30 1524 C 140.503 -0.348153 1.92477 0
M  V30 1525 O 141.709 -0.621459 2.64292 0
M  V30 1526 C 140.165 1.93624 3.03377 0
M  V30 1527 C 139.773 3.43875 2.87148 0
M  V30 1528 C 141.517 1.86954 3.81115 0
M  V30 1529 C 139.424 4.18875 4.1749 0
M  V30 1530 H 138.354 0.41135 0.631907 0
M  V30 1531 H 141.005 1.50433 1.05082 0
M  V30 1532 H 139.387 1.46904 3.67743 0
M  V30 1533 H 140.561 3.98338 2.31653 0
M  V30 1534 H 138.876 3.51744 2.22856 0
M  V30 1535 H 141.473 2.40275 4.77673 0
M  V30 1536 H 141.816 0.839518 4.07747 0
M  V30 1537 H 142.349 2.31477 3.23517 0
M  V30 1538 H 139.088 5.22332 3.96043 0
M  V30 1539 H 138.608 3.69193 4.72712 0
M  V30 1540 H 140.287 4.27134 4.85968 0
M  V30 1541 N 140.419 -1.14872 1.07899 0
M  V30 1542 C 141.367 -2.21857 0.698727 0
M  V30 1543 C 142.361 -1.66845 -0.293086 0
M  V30 1544 O 143.567 -1.79321 -0.156204 0
M  V30 1545 H 139.942 -0.722691 0.207899 0
M  V30 1546 H 141.913 -2.51205 1.61054 0
M  V30 1547 C 140.662 -3.47498 0.11858 0
M  V30 1548 H 139.985 -3.90154 0.872914 0
M  V30 1549 H 141.425 -4.23858 -0.109759 0
M  V30 1550 C 139.884 -3.16947 -1.1422 0
M  V30 1551 O 140.414 -3.3426 -2.22785 0
M  V30 1552 N 138.62 -2.70946 -1.05055 0
M  V30 1553 H 138.167 -2.57058 -0.167038 0
M  V30 1554 H 138.125 -2.50879 -1.89491 0
M  V30 1555 N 141.898 -0.863906 -1.31812 0
M  V30 1556 C 143.314 -0.555004 -1.49639 0
M  V30 1557 C 143.514 0.912266 -1.79666 0
M  V30 1558 O 142.57 1.69479 -1.87171 0
M  V30 1559 C 143.883 -1.44998 -2.63431 0
M  V30 1560 C 145.431 -1.45138 -2.77316 0
M  V30 1561 C 145.906 -2.33179 -3.94197 0
M  V30 1562 N 147.397 -2.31025 -4.01474 0
M  V30 1563 C 148.132 -2.95871 -4.9117 0
M  V30 1564 N 147.628 -3.69863 -5.8581 0
M  V30 1565 N 149.421 -2.85211 -4.84367 0
M  V30 1566 H 141.572 -1.81339 -1.10589 0
M  V30 1567 H 143.835 -0.77505 -0.545895 0
M  V30 1568 H 143.541 -2.49377 -2.48 0
M  V30 1569 H 143.415 -1.14409 -3.59431 0
M  V30 1570 H 145.802 -0.415201 -2.92164 0
M  V30 1571 H 145.883 -1.79747 -1.82001 0
M  V30 1572 H 145.527 -3.3687 -3.80107 0
M  V30 1573 H 145.457 -1.95897 -4.88807 0
M  V30 1574 H 147.948 -1.77238 -3.33759 0
M  V30 1575 H 148.261 -4.16486 -6.50968 0
M  V30 1576 H 146.606 -3.73971 -5.85808 0
M  V30 1577 H 149.797 -2.26948 -4.09405 0
M  V30 1578 H 149.97 -3.36027 -5.54066 0
M  V30 1579 N 143.376 1.44774 -0.622745 0
M  V30 1580 C 144.339 2.29069 0.0774015 0
M  V30 1581 C 145.339 1.4059 0.780461 0
M  V30 1582 O 146.529 1.62551 0.626322 0
M  V30 1583 C 143.661 3.21974 1.12006 0
M  V30 1584 H 144.854 2.92459 -0.663901 0
M  V30 1585 H 142.407 1.51548 -0.382486 0
M  V30 1586 H 143.142 2.63417 1.89162 0
M  V30 1587 H 142.927 3.87168 0.619951 0
M  V30 1588 H 144.417 3.85318 1.60995 0
M  V30 1589 N 144.854 0.36279 1.53368 0
M  V30 1590 C 145.817 -0.472679 2.24273 0
M  V30 1591 C 146.817 -1.012 1.24961 0
M  V30 1592 O 148.007 -0.898194 1.49259 0
M  V30 1593 C 145.139 -1.66039 2.97731 0
M  V30 1594 H 146.332 0.14773 2.99536 0
M  V30 1595 H 143.885 0.114434 1.55881 0
M  V30 1596 H 144.62 -2.31896 2.26704 0
M  V30 1597 H 144.405 -1.28066 3.70596 0
M  V30 1598 H 145.895 -2.25252 3.51641 0
M  V30 1599 N 146.332 -1.57332 0.0918853 0
M  V30 1600 C 147.748 -1.57389 -0.264766 0
M  V30 1601 C 147.948 -1.10281 -1.68643 0
M  V30 1602 O 147.004 -0.777801 -2.40222 0
M  V30 1603 C 148.317 -3.00648 -0.0561195 0
M  V30 1604 C 149.865 -3.12754 -0.124116 0
M  V30 1605 C 150.34 -4.57965 0.0564972 0
M  V30 1606 N 151.831 -4.632 0.00155611 0
M  V30 1607 C 152.566 -5.73281 0.116598 0
M  V30 1608 N 152.062 -6.92208 0.286294 0
M  V30 1609 N 153.855 -5.6207 0.0580973 0
M  V30 1610 H 146.006 -1.86262 1.02079 0
M  V30 1611 H 148.269 -0.859579 0.399786 0
M  V30 1612 H 147.975 -3.393 0.925669 0
M  V30 1613 H 147.849 -3.68623 -0.799823 0
M  V30 1614 H 150.236 -2.73976 -1.09641 0
M  V30 1615 H 150.317 -2.47377 0.651024 0
M  V30 1616 H 149.961 -4.97436 1.02564 0
M  V30 1617 H 149.891 -5.21399 -0.738297 0
M  V30 1618 H 152.382 -3.77686 -0.127192 0
M  V30 1619 H 152.695 -7.71934 0.365676 0
M  V30 1620 H 151.04 -6.94254 0.32192 0
M  V30 1621 H 154.231 -4.68043 -0.0733204 0
M  V30 1622 H 154.404 -6.47824 0.151203 0
M  V30 1623 N 147.81 0.181792 -1.56548 0
M  V30 1624 C 149.05 0.906711 -1.83189 0
M  V30 1625 C 149.414 1.79882 -0.671312 0
M  V30 1626 O 150.615 2.56054 -0.81792 0
M  V30 1627 C 148.886 1.69023 -3.14906 0
M  V30 1628 S 150.445 2.46535 -3.62996 0
M  V30 1629 H 147.263 0.303877 -0.642791 0
M  V30 1630 H 149.865 0.169107 -1.94767 0
M  V30 1631 H 148.569 1.02571 -3.97376 0
M  V30 1632 H 148.1 2.46941 -3.06241 0
M  V30 1633 H 150.115 3.71014 -3.29489 0
M  V30 1634 N 149.288 1.51039 0.449983 0
M  V30 1635 C 150.534 1.63322 1.20223 0
M  V30 1636 C 150.867 0.34241 1.91158 0
M  V30 1637 O 150.142 -0.657344 1.83055 0
M  V30 1638 C 150.425 2.82801 2.22925 0
M  V30 1639 C 150.278 4.21823 1.56157 0
M  V30 1640 C 151.597 2.97807 3.24035 0
M  V30 1641 H 148.716 0.594407 0.435718 0
M  V30 1642 H 151.358 1.83489 0.493136 0
M  V30 1643 H 149.508 2.65738 2.834 0
M  V30 1644 H 151.18 4.50526 0.991162 0
M  V30 1645 H 149.423 4.25105 0.864172 0
M  V30 1646 H 150.094 5.01391 2.30891 0
M  V30 1647 H 152.57 3.13497 2.73603 0
M  V30 1648 H 151.446 3.82992 3.93202 0
M  V30 1649 H 151.707 2.09328 3.89402 0
M  V30 1650 N 150.766 -0.704594 1.40972 0
M  V30 1651 C 152.182 -1.01406 1.23244 0
M  V30 1652 C 152.382 -2.01169 0.115399 0
M  V30 1653 O 151.438 -2.47021 -0.523147 0
M  V30 1654 C 152.751 -1.54728 2.57836 0
M  V30 1655 C 154.299 -1.66658 2.64942 0
M  V30 1656 C 154.774 -2.23383 3.9983 0
M  V30 1657 N 156.265 -2.30756 4.01629 0
M  V30 1658 C 157 -2.75655 5.02794 0
M  V30 1659 N 156.496 -3.20225 6.14352 0
M  V30 1660 N 158.289 -2.75138 4.90159 0
M  V30 1661 H 150.44 -0.0435285 2.12355 0
M  V30 1662 H 152.703 -0.0818951 0.944456 0
M  V30 1663 H 152.409 -0.888832 3.40283 0
M  V30 1664 H 152.283 -2.53084 2.79693 0
M  V30 1665 H 154.67 -2.31617 1.8286 0
M  V30 1666 H 154.751 -0.668717 2.46904 0
M  V30 1667 H 154.395 -1.59043 4.82357 0
M  V30 1668 H 154.325 -3.23904 4.15203 0
M  V30 1669 H 156.816 -1.99291 3.21079 0
M  V30 1670 H 157.129 -3.53084 6.87424 0
M  V30 1671 H 155.474 -3.18156 6.17901 0
M  V30 1672 H 158.665 -2.39661 4.02095 0
M  V30 1673 H 158.838 -3.09812 5.6914 0
M  V30 1674 N 152.244 -1.26651 -0.937939 0
M  V30 1675 C 153.49 -1.13562 -1.68746 0
M  V30 1676 C 153.845 0.317241 -1.89767 0
M  V30 1677 O 153.138 1.22939 -1.46957 0
M  V30 1678 C 153.332 -1.84168 -3.06295 0
M  V30 1679 C 153.161 -3.36171 -2.98696 0
M  V30 1680 C 151.931 -4.05468 -3.01535 0
M  V30 1681 C 154.129 -4.32312 -2.78588 0
M  V30 1682 N 152.111 -5.44118 -2.84269 0
M  V30 1683 C 153.482 -5.58159 -2.69924 0
M  V30 1684 C 155.537 -4.22524 -2.63396 0
M  V30 1685 C 154.24 -6.75335 -2.47618 0
M  V30 1686 C 156.266 -5.39411 -2.42466 0
M  V30 1687 C 155.628 -6.64208 -2.34536 0
M  V30 1688 H 151.727 -0.470361 -0.624728 0
M  V30 1689 H 154.311 -1.59982 -1.10968 0
M  V30 1690 H 152.482 -1.40219 -3.62206 0
M  V30 1691 H 154.214 -1.63674 -3.70126 0
M  V30 1692 H 150.969 -3.56854 -3.11372 0
M  V30 1693 H 151.393 -6.1693 -2.78795 0
M  V30 1694 H 156.035 -3.26771 -2.68292 0
M  V30 1695 H 153.753 -7.71182 -2.41463 0
M  V30 1696 H 157.339 -5.33711 -2.31611 0
M  V30 1697 H 156.219 -7.53129 -2.18555 0
M  V30 1698 N 153.722 1.14298 -1.08507 0
M  V30 1699 C 154.685 2.17607 -0.719711 0
M  V30 1700 C 155.685 1.58907 0.245997 0
M  V30 1701 O 156.875 1.74181 0.0254081 0
M  V30 1702 C 154.007 3.40842 -0.0627695 0
M  V30 1703 H 155.2 2.51443 -1.63452 0
M  V30 1704 H 152.753 1.28963 -0.88307 0
M  V30 1705 H 153.488 3.12587 0.863716 0
M  V30 1706 H 153.273 3.84713 -0.757504 0
M  V30 1707 H 154.763 4.17221 0.177786 0
M  V30 1708 N 155.201 0.870884 1.31352 0
M  V30 1709 C 156.612 0.534714 1.78879 0
M  V30 1710 C 156.963 -0.948423 1.71754 0
M  V30 1711 O 156.088 -1.74055 1.28584 0
M  V30 1712 C 156.683 0.963839 3.24801 0
M  V30 1713 C 155.242 0.679311 3.70219 0
M  V30 1714 C 154.389 1.15465 2.52117 0
M  V30 1715 H 157.34 1.05651 1.18421 0
M  V30 1716 H 157.361 0.286892 3.79417 0
M  V30 1717 H 156.873 2.04332 3.29955 0
M  V30 1718 H 154.974 -0.388769 3.70566 0
M  V30 1719 H 155.087 1.25698 4.62317 0
M  V30 1720 H 153.451 0.574383 2.48139 0
M  V30 1721 H 154.234 2.24157 2.60016 0
M  V30 1722 N 156.679 -1.44442 0.630414 0
M  V30 1723 C 157.627 -2.32437 -0.0871428 0
M  V30 1724 C 158.621 -1.47304 -0.836525 0
M  V30 1725 O 159.827 -1.63653 -0.749506 0
M  V30 1726 H 156.202 -0.750533 -0.0469495 0
M  V30 1727 H 158.173 -2.90709 0.673096 0
M  V30 1728 C 156.922 -3.31288 -1.05563 0
M  V30 1729 H 156.245 -3.96805 -0.488426 0
M  V30 1730 H 157.685 -3.9554 -1.52721 0
M  V30 1731 C 156.144 -2.6016 -2.14052 0
M  V30 1732 O 156.674 -2.39997 -3.22124 0
M  V30 1733 N 154.88 -2.19911 -1.89967 0
M  V30 1734 H 154.427 -2.36509 -1.02085 0
M  V30 1735 H 154.385 -1.72646 -2.62756 0
M  V30 1736 N 158.157 -0.370918 -1.53173 0
M  V30 1737 C 159.067 0.480823 -2.2962 0
M  V30 1738 C 160.083 1.08789 -1.35798 0
M  V30 1739 O 161.259 1.09768 -1.68858 0
M  V30 1740 C 158.324 1.60227 -3.07454 0
M  V30 1741 C 157.385 1.0222 -4.16953 0
M  V30 1742 C 156.618 2.0902 -4.91066 0
M  V30 1743 O 156.841 3.30222 -4.65091 0
M  V30 1744 O 155.775 1.71778 -5.76867 0
M  V30 1745 H 159.601 -0.141421 -3.03371 0
M  V30 1746 H 157.186 -0.135146 -1.48787 0
M  V30 1747 H 159.068 2.25417 -3.56041 0
M  V30 1748 H 157.743 2.20982 -2.36535 0
M  V30 1749 H 156.65 0.334064 -3.72605 0
M  V30 1750 H 157.983 0.459131 -4.90054 0
M  V30 1751 N 159.635 1.57281 -0.100228 0
M  V30 1752 C 160.583 2.15542 0.874328 0
M  V30 1753 C 161.577 1.09962 1.28859 0
M  V30 1754 O 162.783 1.28298 1.26252 0
M  V30 1755 H 159.158 0.689567 0.300003 0
M  V30 1756 H 161.129 2.96241 0.35829 0
M  V30 1757 C 159.878 2.75454 2.1218 0
M  V30 1758 H 159.201 3.56384 1.81193 0
M  V30 1759 H 160.641 3.19781 2.78417 0
M  V30 1760 C 159.1 1.71602 2.89921 0
M  V30 1761 O 159.63 1.15804 3.84646 0
M  V30 1762 N 157.836 1.41975 2.53558 0
M  V30 1763 H 157.383 1.87539 1.76598 0
M  V30 1764 H 157.341 0.727274 3.05873 0
M  V30 1765 N 161.113 -0.173488 1.56642 0
M  V30 1766 C 162.06 -1.21482 1.96242 0
M  V30 1767 C 163.03 -1.44104 0.826027 0
M  V30 1768 O 164.215 -1.5688 1.08597 0
M  V30 1769 C 161.355 -2.54964 2.32567 0
M  V30 1770 C 160.468 -2.39739 3.59373 0
M  V30 1771 C 159.603 -3.66072 3.84921 0
M  V30 1772 C 158.642 -3.45771 5.05083 0
M  V30 1773 N 157.779 -4.64169 5.26775 0
M  V30 1774 H 162.619 -0.870123 2.85014 0
M  V30 1775 H 160.156 -0.418245 1.41029 0
M  V30 1776 H 162.114 -3.32758 2.5165 0
M  V30 1777 H 160.744 -2.87433 1.46908 0
M  V30 1778 H 159.796 -1.53131 3.48217 0
M  V30 1779 H 161.108 -2.20683 4.47326 0
M  V30 1780 H 160.262 -4.52303 4.0436 0
M  V30 1781 H 159.001 -3.88105 2.9534 0
M  V30 1782 H 158.006 -2.57927 4.85545 0
M  V30 1783 H 159.231 -3.25163 5.96193 0
M  V30 1784 H 157.177 -4.86425 4.40144 0
M  V30 1785 H 157.094 -4.48019 6.08946 0
M  V30 1786 H 158.362 -5.51689 5.5069 0
M  V30 1787 N 162.591 -1.51276 -0.441967 0
M  V30 1788 C 163.838 -1.63715 -1.19179 0
M  V30 1789 C 164.166 -0.351175 -1.91303 0
M  V30 1790 O 163.421 0.664524 -1.84072 0
M  V30 1791 C 163.72 -2.78746 -2.23686 0
M  V30 1792 C 163.386 -4.18189 -1.68607 0
M  V30 1793 C 162.048 -4.56125 -1.53308 0
M  V30 1794 C 164.4 -5.05222 -1.28062 0
M  V30 1795 C 161.728 -5.78804 -0.959317 0
M  V30 1796 C 164.08 -6.28476 -0.721162 0
M  V30 1797 C 162.744 -6.65188 -0.55504 0
M  V30 1798 H 162.014 -0.599076 -0.436106 0
M  V30 1799 H 164.661 -1.85296 -0.48351 0
M  V30 1800 H 162.966 -2.51369 -3.00535 0
M  V30 1801 H 164.663 -2.8557 -2.81515 0
M  V30 1802 H 161.253 -3.88277 -1.8149 0
M  V30 1803 H 165.437 -4.76524 -1.38704 0
M  V30 1804 H 160.693 -6.05899 -0.81833 0
M  V30 1805 H 164.867 -6.95259 -0.398458 0
M  V30 1806 H 162.494 -7.60123 -0.108311 0
M  V30 1807 N 164.069 0.697108 -1.41344 0
M  V30 1808 C 165.032 1.79281 -1.42797 0
M  V30 1809 C 166.032 1.57607 -0.318837 0
M  V30 1810 O 167.222 1.64309 -0.578642 0
M  V30 1811 C 164.354 3.17632 -1.23785 0
M  V30 1812 H 165.547 1.79385 -2.40335 0
M  V30 1813 H 163.1 0.904582 -1.27464 0
M  V30 1814 H 163.835 3.23167 -0.270814 0
M  V30 1815 H 163.62 3.34765 -2.04144 0
M  V30 1816 H 165.11 3.97617 -1.27633 0
M  V30 1817 N 165.547 1.27147 0.931209 0
M  V30 1818 C 166.793 1.13446 1.68101 0
M  V30 1819 C 167.126 -0.319628 1.91552 0
M  V30 1820 O 166.401 -1.23407 1.50336 0
M  V30 1821 C 166.684 1.91482 3.0497 0
M  V30 1822 C 166.537 3.44855 2.88782 0
M  V30 1823 C 167.856 1.71651 4.05246 0
M  V30 1824 H 164.975 0.413498 0.610072 0
M  V30 1825 H 167.617 1.56261 1.08086 0
M  V30 1826 H 165.767 1.55095 3.56199 0
M  V30 1827 H 167.439 3.9105 2.44698 0
M  V30 1828 H 165.682 3.71373 2.24198 0
M  V30 1829 H 166.353 3.94694 3.85902 0
M  V30 1830 H 168.829 2.0337 3.63015 0
M  V30 1831 H 167.705 2.28651 4.99009 0
M  V30 1832 H 167.966 0.663555 4.37092 0
M  V30 1833 N 167.025 -1.13721 1.09112 0
M  V30 1834 C 168.273 -1.84559 0.823562 0
M  V30 1835 C 168.594 -1.83754 -0.652658 0
M  V30 1836 O 167.864 -1.29102 -1.47342 0
M  V30 1837 H 166.444 -0.683376 0.301673 0
M  V30 1838 H 169.106 -1.37771 1.37859 0
M  V30 1839 H 168.202 -2.8917 1.17419 0
M  V30 1840 N 168.503 -0.877838 -1.30888 0
M  V30 1841 C 169.728 -0.506629 -2.01117 0
M  V30 1842 C 170.153 0.895564 -1.65412 0
M  V30 1843 O 169.511 1.5923 -0.866922 0
M  V30 1844 C 169.559 -0.680223 -3.54126 0
M  V30 1845 O 168.663 0.277033 -4.11468 0
M  V30 1846 H 168.004 -0.200518 -0.633 0
M  V30 1847 H 170.534 -1.18342 -1.66902 0
M  V30 1848 H 170.544 -0.5765 -4.03907 0
M  V30 1849 H 169.219 -1.70261 -3.79452 0
M  V30 1850 H 167.796 0.127606 -3.72682 0
M  V30 1851 N 169.982 1.44106 -0.638065 0
M  V30 1852 C 171.23 2.01579 -0.145043 0
M  V30 1853 C 171.551 1.50496 1.24 0
M  V30 1854 O 170.821 0.711374 1.82527 0
M  V30 1855 H 169.401 0.745282 -0.05063 0
M  V30 1856 H 172.063 1.76516 -0.826327 0
M  V30 1857 H 171.159 3.11877 -0.118039 0
M  V30 1858 N 171.46 0.379036 1.52974 0
M  V30 1859 C 172.685 -0.209353 2.06341 0
M  V30 1860 C 173.11 -1.40583 1.24972 0
M  V30 1861 O 172.468 -1.79246 0.272155 0
M  V30 1862 C 172.516 -0.567786 3.56102 0
M  V30 1863 O 171.62 -1.66318 3.77375 0
M  V30 1864 H 170.961 -0.0272919 0.663439 0
M  V30 1865 H 173.491 0.543536 1.97248 0
M  V30 1866 H 173.501 -0.835003 3.99364 0
M  V30 1867 H 172.176 0.307013 4.14765 0
M  V30 1868 H 170.753 -1.39048 3.46006 0
M  V30 1869 N 172.938 -1.57226 0.108567 0
M  V30 1870 C 174.354 -1.5766 -0.248058 0
M  V30 1871 C 174.554 -1.12063 -1.67464 0
M  V30 1872 O 173.61 -0.803236 -2.39383 0
M  V30 1873 C 174.923 -3.0069 -0.0242287 0
M  V30 1874 C 176.471 -3.12868 -0.0909372 0
M  V30 1875 C 176.946 -4.57879 0.105067 0
M  V30 1876 N 178.437 -4.63172 0.0506846 0
M  V30 1877 C 179.172 -5.73126 0.177396 0
M  V30 1878 N 178.668 -6.91866 0.359696 0
M  V30 1879 N 180.461 -5.61977 0.117709 0
M  V30 1880 H 172.612 -1.85169 1.04049 0
M  V30 1881 H 174.875 -0.85529 0.40888 0
M  V30 1882 H 174.581 -3.38299 0.961604 0
M  V30 1883 H 174.455 -3.6945 -0.76068 0
M  V30 1884 H 176.842 -2.75124 -1.06729 0
M  V30 1885 H 176.923 -2.46672 0.677225 0
M  V30 1886 H 176.567 -4.96321 1.07834 0
M  V30 1887 H 176.497 -5.22153 -0.682954 0
M  V30 1888 H 178.988 -3.778 -0.0871266 0
M  V30 1889 H 179.301 -7.71503 0.447529 0
M  V30 1890 H 177.646 -6.93874 0.395536 0
M  V30 1891 H 180.837 -4.68094 -0.0236741 0
M  V30 1892 H 181.01 -6.47627 0.219905 0
M  V30 1893 N 174.416 0.165178 -1.56732 0
M  V30 1894 C 175.662 0.882112 -1.82611 0
M  V30 1895 C 175.995 1.81628 -0.687378 0
M  V30 1896 O 175.27 1.92009 0.310267 0
M  V30 1897 C 175.553 1.67245 -3.18906 0
M  V30 1898 C 175.406 0.760987 -4.43316 0
M  V30 1899 C 176.725 2.63884 -3.52212 0
M  V30 1900 H 173.844 0.319242 -0.664269 0
M  V30 1901 H 176.486 0.148052 -1.89422 0
M  V30 1902 H 174.636 2.29824 -3.1323 0
M  V30 1903 H 176.308 0.147596 -4.61064 0
M  V30 1904 H 174.551 0.0694102 -4.33744 0
M  V30 1905 H 175.222 1.34962 -5.35247 0
M  V30 1906 H 177.698 2.11429 -3.58381 0
M  V30 1907 H 176.574 3.16245 -4.48643 0
M  V30 1908 H 176.835 3.44377 -2.77231 0
M  V30 1909 N 175.894 1.51508 0.433938 0
M  V30 1910 C 177.143 1.63578 1.18005 0
M  V30 1911 C 177.456 0.359514 1.92268 0
M  V30 1912 O 178.662 0.359632 2.69108 0
M  V30 1913 C 177.118 2.88901 2.14626 0
M  V30 1914 C 176.726 4.23544 1.45995 0
M  V30 1915 C 178.47 3.10328 2.89649 0
M  V30 1916 C 176.377 5.40014 2.4112 0
M  V30 1917 H 175.307 0.609277 0.444182 0
M  V30 1918 H 177.958 1.77978 0.446773 0
M  V30 1919 H 176.34 2.68142 2.91403 0
M  V30 1920 H 177.514 4.54696 0.747532 0
M  V30 1921 H 175.829 4.08021 0.831115 0
M  V30 1922 H 178.426 3.94518 3.60915 0
M  V30 1923 H 178.769 2.23544 3.51189 0
M  V30 1924 H 179.302 3.31443 2.19978 0
M  V30 1925 H 176.041 6.29068 1.84264 0
M  V30 1926 H 175.561 5.13233 3.10406 0
M  V30 1927 H 177.24 5.72099 3.02177 0
M  V30 1928 N 177.372 -0.689602 1.41712 0
M  V30 1929 C 178.597 -1.48329 1.44959 0
M  V30 1930 C 179.022 -1.8801 0.0581283 0
M  V30 1931 O 178.38 -1.55026 -0.940035 0
M  V30 1932 C 178.428 -2.71835 2.36935 0
M  V30 1933 O 177.532 -3.69549 1.8305 0
M  V30 1934 H 176.873 -0.446199 0.491734 0
M  V30 1935 H 179.403 -0.847127 1.86239 0
M  V30 1936 H 179.413 -3.20076 2.53013 0
M  V30 1937 H 178.088 -2.42291 3.38035 0
M  V30 1938 H 176.665 -3.2851 1.76452 0
M  V30 1939 N 178.85 -1.27639 -0.924453 0
M  V30 1940 C 180.099 -1.13549 -1.66702 0
M  V30 1941 C 180.412 0.317487 -1.93006 0
M  V30 1942 O 181.618 0.579333 -2.65247 0
M  V30 1943 C 180.074 -1.98426 -3.00259 0
M  V30 1944 C 179.682 -3.484 -2.81641 0
M  V30 1945 C 181.426 -1.92993 -3.78092 0
M  V30 1946 C 179.333 -4.25464 -4.10773 0
M  V30 1947 H 178.263 -0.421351 -0.625283 0
M  V30 1948 H 180.914 -1.52085 -1.02676 0
M  V30 1949 H 179.296 -1.52736 -3.6536 0
M  V30 1950 H 180.47 -4.01973 -2.25287 0
M  V30 1951 H 178.785 -3.55245 -2.17232 0
M  V30 1952 H 181.382 -2.47844 -4.7379 0
M  V30 1953 H 181.725 -0.904281 -4.0636 0
M  V30 1954 H 182.258 -2.36595 -3.19793 0
M  V30 1955 H 178.997 -5.28566 -3.87683 0
M  V30 1956 H 178.517 -3.76667 -4.66779 0
M  V30 1957 H 180.196 -4.34812 -4.79111 0
M  V30 1958 N 180.328 1.1314 -1.09713 0
M  V30 1959 C 181.568 1.8613 -0.844683 0
M  V30 1960 C 181.932 1.81765 0.618491 0
M  V30 1961 O 183.133 2.50024 0.98699 0
M  V30 1962 C 181.404 3.30151 -1.36877 0
M  V30 1963 S 182.963 4.206 -1.25064 0
M  V30 1964 H 179.781 0.642056 -0.305427 0
M  V30 1965 H 182.383 1.36343 -1.4011 0
M  V30 1966 H 181.087 3.30883 -2.42786 0
M  V30 1967 H 180.618 3.85 -0.808614 0
M  V30 1968 H 182.633 4.95783 -0.203486 0
M  V30 1969 N 181.806 0.884767 1.30421 0
M  V30 1970 C 183.036 0.517293 2.00019 0
M  V30 1971 C 183.444 -0.898632 1.66497 0
M  V30 1972 O 182.787 -1.60245 0.898181 0
M  V30 1973 C 182.849 0.612025 3.54252 0
M  V30 1974 C 182.513 1.99222 4.1129 0
M  V30 1975 C 183.51 2.9616 4.273 0
M  V30 1976 C 181.195 2.29755 4.46674 0
M  V30 1977 C 183.189 4.21764 4.77906 0
M  V30 1978 C 180.876 3.55606 4.96979 0
M  V30 1979 C 181.874 4.51425 5.12547 0
M  V30 1980 O 181.562 5.75043 5.61766 0
M  V30 1981 H 181.294 0.198529 0.64619 0
M  V30 1982 H 183.848 1.1919 1.67281 0
M  V30 1983 H 182.078 -0.119561 3.86515 0
M  V30 1984 H 183.767 0.255859 4.05093 0
M  V30 1985 H 184.533 2.73882 4.00267 0
M  V30 1986 H 180.412 1.55942 4.33824 0
M  V30 1987 H 183.956 4.96561 4.89972 0
M  V30 1988 H 179.853 3.7772 5.23448 0
M  V30 1989 H 180.621 5.77422 5.80109 0
M  V30 1990 N 183.284 -1.43765 0.645699 0
M  V30 1991 C 184.531 -2.01898 0.15604 0
M  V30 1992 C 184.859 -1.50887 -1.22733 0
M  V30 1993 O 184.114 -0.689271 -1.8316 0
M  V30 1994 C 184.413 -3.57238 0.107679 0
M  V30 1995 C 184.079 -4.27564 1.43178 0
M  V30 1996 C 182.741 -4.46492 1.7944 0
M  V30 1997 C 185.093 -4.67454 2.30513 0
M  V30 1998 C 182.421 -5.02573 3.02716 0
M  V30 1999 C 184.773 -5.24901 3.53074 0
M  V30 2000 C 183.437 -5.42046 3.89541 0
M  V30 2001 H 182.707 -0.738797 0.057099 0
M  V30 2002 H 185.354 -1.72341 0.834912 0
M  V30 2003 H 183.659 -3.86293 -0.654618 0
M  V30 2004 H 185.356 -3.99965 -0.287938 0
M  V30 2005 H 181.946 -4.13171 1.13963 0
M  V30 2006 H 186.13 -4.5253 2.0379 0
M  V30 2007 H 181.386 -5.14033 3.31028 0
M  V30 2008 H 185.56 -5.54758 4.20971 0
M  V30 2009 H 183.187 -5.85268 4.85145 0
M  V30 2010 N 184.763 -0.387143 -1.52771 0
M  V30 2011 C 185.673 0.456442 -2.30117 0
M  V30 2012 C 186.689 1.07342 -1.36944 0
M  V30 2013 O 187.865 1.07971 -1.70013 0
M  V30 2014 C 184.93 1.56957 -3.09136 0
M  V30 2015 C 183.991 0.977916 -4.18014 0
M  V30 2016 C 183.224 2.038 -4.93256 0
M  V30 2017 O 183.447 3.25271 -4.68567 0
M  V30 2018 O 182.381 1.6565 -5.78657 0
M  V30 2019 H 186.207 -0.17359 -3.03203 0
M  V30 2020 H 183.792 -0.150919 -1.48636 0
M  V30 2021 H 185.674 2.21628 -3.58412 0
M  V30 2022 H 184.349 2.18461 -2.38865 0
M  V30 2023 H 183.256 0.294525 -3.72939 0
M  V30 2024 H 184.589 0.407128 -4.90513 0
M  V30 2025 N 186.241 1.57166 -0.116904 0
M  V30 2026 C 187.173 2.12271 0.864507 0
M  V30 2027 C 188.186 1.06494 1.23138 0
M  V30 2028 O 189.375 1.33873 1.18069 0
M  V30 2029 C 186.475 2.60564 2.16702 0
M  V30 2030 C 185.648 3.90416 1.97216 0
M  V30 2031 C 184.707 4.24329 3.11178 0
M  V30 2032 O 183.733 4.93182 2.84184 0
M  V30 2033 N 184.935 3.8148 4.37554 0
M  V30 2034 H 187.7 2.97102 0.393726 0
M  V30 2035 H 185.261 1.61759 0.0675805 0
M  V30 2036 H 187.253 2.80282 2.91932 0
M  V30 2037 H 185.823 1.80623 2.55135 0
M  V30 2038 H 185.043 3.79627 1.06192 0
M  V30 2039 H 186.331 4.75327 1.81499 0
M  V30 2040 H 185.729 3.25943 4.62361 0
M  V30 2041 H 184.286 4.06311 5.09661 0
M  V30 2042 N 187.719 -0.156864 1.56817 0
M  V30 2043 C 188.629 -1.2136 2.00771 0
M  V30 2044 C 189.645 -1.47598 0.921459 0
M  V30 2045 O 190.821 -1.59462 1.2302 0
M  V30 2046 C 187.886 -2.52943 2.37109 0
M  V30 2047 C 186.947 -2.34439 3.59634 0
M  V30 2048 C 186.18 -3.59748 3.94229 0
M  V30 2049 O 186.403 -4.65526 3.29609 0
M  V30 2050 O 185.337 -3.52998 4.8752 0
M  V30 2051 H 189.163 -0.870468 2.90958 0
M  V30 2052 H 186.748 -0.36484 1.44877 0
M  V30 2053 H 188.63 -3.30538 2.61386 0
M  V30 2054 H 187.305 -2.86806 1.5008 0
M  V30 2055 H 186.212 -1.54828 3.40557 0
M  V30 2056 H 187.545 -2.05496 4.4725 0
M  V30 2057 N 189.197 -1.51736 -0.425897 0
M  V30 2058 C 190.145 -1.74464 -1.53834 0
M  V30 2059 C 191.139 -0.611241 -1.57988 0
M  V30 2060 O 192.345 -0.792899 -1.61596 0
M  V30 2061 H 188.72 -0.551437 -0.511293 0
M  V30 2062 H 190.691 -2.67694 -1.31843 0
M  V30 2063 C 189.44 -1.8972 -2.91379 0
M  V30 2064 H 188.763 -2.76344 -2.88919 0
M  V30 2065 H 190.203 -2.09629 -3.68553 0
M  V30 2066 C 188.662 -0.65992 -3.30374 0
M  V30 2067 O 189.192 0.180083 -4.01296 0
M  V30 2068 N 187.398 -0.500677 -2.86254 0
M  V30 2069 H 186.945 -1.18532 -2.28709 0
M  V30 2070 H 186.903 0.325903 -3.12706 0
M  V30 2071 N 190.675 0.682077 -1.42076 0
M  V30 2072 C 191.952 1.43755 -1.32642 0
M  V30 2073 C 192.332 2.11063 0.0396611 0
M  V30 2074 O 191.68 2.02701 1.05474 0
M  V30 2075 C 191.89 2.44596 -2.48946 0
M  V30 2076 C 193.238 3.09454 -2.9073 0
M  V30 2077 O 194.262 2.54922 -2.48783 0
M  V30 2078 O 193.121 4.08253 -3.63307 0
M  V30 2079 H 190.215 0.640857 -0.522715 0
M  V30 2080 H 192.761 0.711415 -1.54068 0
M  V30 2081 H 191.533 1.93609 -3.40046 0
M  V30 2082 H 191.156 3.24701 -2.29467 0
M  V30 2083 N 192.153 1.28127 0.917671 0
M  V30 2084 C 193.399 1.16232 1.66918 0
M  V30 2085 C 193.754 -0.28701 1.90247 0
M  V30 2086 O 193.047 -1.20586 1.48895 0
M  V30 2087 C 193.241 1.89018 3.03327 0
M  V30 2088 C 193.07 3.4088 2.9331 0
M  V30 2089 C 191.84 4.10214 2.95047 0
M  V30 2090 C 194.038 4.36689 2.71675 0
M  V30 2091 N 192.02 5.48571 2.75577 0
M  V30 2092 C 193.391 5.62382 2.6101 0
M  V30 2093 C 195.446 4.26661 2.56641 0
M  V30 2094 C 194.149 6.79189 2.36843 0
M  V30 2095 C 196.175 5.432 2.33853 0
M  V30 2096 C 195.537 6.67855 2.23939 0
M  V30 2097 H 191.636 0.48024 0.617166 0
M  V30 2098 H 194.22 1.61727 1.08409 0
M  V30 2099 H 192.391 1.45963 3.59929 0
M  V30 2100 H 194.123 1.69541 3.67475 0
M  V30 2101 H 190.878 3.61762 3.05655 0
M  V30 2102 H 191.302 6.21287 2.68945 0
M  V30 2103 H 195.944 3.30998 2.63059 0
M  V30 2104 H 193.662 7.74926 2.29164 0
M  V30 2105 H 197.248 5.37328 2.23091 0
M  V30 2106 H 196.128 7.56511 2.06546 0
M  V30 2107 N 193.631 -1.12557 1.10312 0
M  V30 2108 C 194.877 -1.84515 0.855901 0
M  V30 2109 C 195.232 -1.82409 -0.611936 0
M  V30 2110 O 194.525 -1.25778 -1.44535 0
M  V30 2111 C 194.719 -3.31462 1.33669 0
M  V30 2112 C 194.548 -3.47879 2.84974 0
M  V30 2113 C 193.318 -3.61589 3.52961 0
M  V30 2114 C 195.516 -3.43152 3.83081 0
M  V30 2115 N 193.498 -3.66359 4.926 0
M  V30 2116 C 194.869 -3.54401 5.08724 0
M  V30 2117 C 196.924 -3.2661 3.75807 0
M  V30 2118 C 195.627 -3.50815 6.2795 0
M  V30 2119 C 197.653 -3.24335 4.94531 0
M  V30 2120 C 197.015 -3.36144 6.19021 0
M  V30 2121 H 193.114 -0.690967 0.366182 0
M  V30 2122 H 195.698 -1.34763 1.40524 0
M  V30 2123 H 193.869 -3.7976 0.814686 0
M  V30 2124 H 195.601 -3.91272 1.03385 0
M  V30 2125 H 192.356 -3.63652 3.03404 0
M  V30 2126 H 192.78 -3.72411 5.65366 0
M  V30 2127 H 197.422 -3.16375 2.80476 0
M  V30 2128 H 195.14 -3.5982 7.23571 0
M  V30 2129 H 198.726 -3.12719 4.9061 0
M  V30 2130 H 197.606 -3.34357 7.09348 0
M  V30 2131 N 195.109 -0.891671 -1.2995 0
M  V30 2132 C 196.355 -0.514261 -1.96171 0
M  V30 2133 C 196.688 0.935506 -1.70182 0
M  V30 2134 O 195.963 1.66204 -1.01028 0
M  V30 2135 C 196.246 -0.797719 -3.51153 0
M  V30 2136 C 196.099 -2.2986 -3.86632 0
M  V30 2137 C 197.418 -0.278749 -4.39216 0
M  V30 2138 H 194.537 -0.188314 -0.712535 0
M  V30 2139 H 197.179 -1.11689 -1.53706 0
M  V30 2140 H 195.329 -0.284826 -3.87455 0
M  V30 2141 H 197.001 -2.88042 -3.60319 0
M  V30 2142 H 195.244 -2.76257 -3.34462 0
M  V30 2143 H 195.915 -2.44753 -4.94773 0
M  V30 2144 H 198.391 -0.717825 -4.09862 0
M  V30 2145 H 197.267 -0.506353 -5.46559 0
M  V30 2146 H 197.528 0.820266 -4.34424 0
M  V30 2147 N 196.587 1.43421 -0.653314 0
M  V30 2148 C 197.827 2.03689 -0.170346 0
M  V30 2149 C 198.191 1.50427 1.19314 0
M  V30 2150 O 199.392 2.0234 1.76952 0
M  V30 2151 C 197.663 3.56946 -0.180183 0
M  V30 2152 S 199.222 4.38171 0.234925 0
M  V30 2153 H 196.04 0.707345 -0.0719976 0
M  V30 2154 H 198.642 1.75486 -0.86167 0
M  V30 2155 H 197.346 3.93212 -1.17526 0
M  V30 2156 H 196.877 3.89791 0.531675 0
M  V30 2157 H 198.892 4.73808 1.47378 0
M  V30 2158 N 198.065 0.39524 1.52563 0
M  V30 2159 C 199.012 -0.437036 2.26624 0
M  V30 2160 C 199.982 -1.05281 1.28472 0
M  V30 2161 O 201.167 -1.07971 1.57311 0
M  V30 2162 C 198.307 -1.55524 3.08069 0
M  V30 2163 C 197.42 -0.961745 4.21158 0
M  V30 2164 C 196.555 -2.05149 4.89987 0
M  V30 2165 C 195.594 -1.4342 5.95061 0
M  V30 2166 N 194.731 -2.46351 6.57462 0
M  V30 2167 H 199.571 0.200976 2.97322 0
M  V30 2168 H 197.108 0.110944 1.46681 0
M  V30 2169 H 199.066 -2.21437 3.53584 0
M  V30 2170 H 197.696 -2.16348 2.3957 0
M  V30 2171 H 196.748 -0.192048 3.79915 0
M  V30 2172 H 198.06 -0.470701 4.96574 0
M  V30 2173 H 197.214 -2.78819 5.38837 0
M  V30 2174 H 195.953 -2.57615 4.14109 0
M  V30 2175 H 194.958 -0.682774 5.45544 0
M  V30 2176 H 196.183 -0.917416 6.72875 0
M  V30 2177 H 194.129 -2.97975 5.8442 0
M  V30 2178 H 194.046 -2.02019 7.28508 0
M  V30 2179 H 195.314 -3.19633 7.10954 0
M  V30 2180 N 199.544 -1.57102 0.125237 0
M  V30 2181 C 200.494 -2.12202 -0.833936 0
M  V30 2182 C 201.478 -1.04433 -1.22403 0
M  V30 2183 O 202.67 -1.30655 -1.19408 0
M  V30 2184 C 199.799 -2.72994 -2.08157 0
M  V30 2185 C 198.885 -3.87852 -1.71556 0
M  V30 2186 N 199.276 -4.9464 -1.05662 0
M  V30 2187 C 197.574 -3.98153 -2.00973 0
M  V30 2188 C 198.275 -5.74953 -0.883376 0
M  V30 2189 N 197.251 -5.24985 -1.41036 0
M  V30 2190 H 201.053 -2.92141 -0.321035 0
M  V30 2191 H 198.567 -1.62217 -0.0770315 0
M  V30 2192 H 200.564 -3.10816 -2.77847 0
M  V30 2193 H 199.224 -1.9452 -2.59985 0
M  V30 2194 H 200.235 -5.12872 -0.719878 0
M  V30 2195 H 196.912 -3.30728 -2.54804 0
M  V30 2196 H 198.302 -6.70904 -0.365675 0
M  V30 2197 N 201.022 0.148545 -1.56898 0
M  V30 2198 C 202.271 0.85984 -1.82454 0
M  V30 2199 C 202.584 1.82406 -0.706229 0
M  V30 2200 O 203.79 2.57938 -0.847349 0
M  V30 2201 C 202.246 1.57967 -3.2338 0
M  V30 2202 C 201.854 0.65794 -4.43142 0
M  V30 2203 C 203.598 2.27784 -3.58211 0
M  V30 2204 C 201.505 1.3793 -5.75091 0
M  V30 2205 H 200.435 0.324834 -0.68044 0
M  V30 2206 H 203.086 0.112588 -1.83154 0
M  V30 2207 H 201.468 2.37249 -3.17063 0
M  V30 2208 H 202.642 -0.0995497 -4.60692 0
M  V30 2209 H 200.957 0.0682643 -4.16344 0
M  V30 2210 H 203.554 2.8239 -4.54048 0
M  V30 2211 H 203.897 3.04204 -2.84193 0
M  V30 2212 H 204.43 1.55421 -3.66182 0
M  V30 2213 H 201.169 0.656982 -6.52199 0
M  V30 2214 H 200.689 2.10954 -5.61479 0
M  V30 2215 H 202.368 1.92063 -6.17835 0
M  V30 2216 N 202.5 1.5196 0.417844 0
M  V30 2217 C 203.447 1.74678 1.50852 0
M  V30 2218 C 204.417 0.588947 1.55308 0
M  V30 2219 O 205.602 0.825544 1.72016 0
M  V30 2220 C 202.742 1.89544 2.88387 0
M  V30 2221 C 201.855 3.17166 2.93309 0
M  V30 2222 C 200.99 3.22513 4.22088 0
M  V30 2223 C 200.029 4.44372 4.20951 0
M  V30 2224 N 199.166 4.47161 5.41287 0
M  V30 2225 H 204.006 2.67768 1.30783 0
M  V30 2226 H 201.543 1.32689 0.63498 0
M  V30 2227 H 203.501 1.96146 3.68216 0
M  V30 2228 H 202.131 0.998424 3.06971 0
M  V30 2229 H 201.183 3.19778 2.06024 0
M  V30 2230 H 202.495 4.07021 2.88332 0
M  V30 2231 H 201.649 3.28139 5.10303 0
M  V30 2232 H 200.388 2.30581 4.29748 0
M  V30 2233 H 199.393 4.38902 3.31127 0
M  V30 2234 H 200.618 5.3759 4.14938 0
M  V30 2235 H 198.564 3.58108 5.49632 0
M  V30 2236 H 198.481 5.3085 5.3827 0
M  V30 2237 H 199.749 4.57005 6.3148 0
M  V30 2238 N 203.978 -0.674533 1.42435 0
M  V30 2239 C 204.925 -1.78807 1.45934 0
M  V30 2240 C 205.895 -1.63157 0.311271 0
M  V30 2241 O 207.08 -1.83707 0.515383 0
M  V30 2242 C 204.22 -3.16839 1.36773 0
M  V30 2243 C 203.333 -3.43774 2.61617 0
M  V30 2244 C 202.468 -4.71536 2.44597 0
M  V30 2245 C 201.507 -4.91505 3.64814 0
M  V30 2246 N 200.644 -6.10508 3.46734 0
M  V30 2247 H 205.484 -1.75151 2.41093 0
M  V30 2248 H 203.021 -0.85504 1.19697 0
M  V30 2249 H 204.979 -3.96606 1.29459 0
M  V30 2250 H 203.609 -3.19619 0.452089 0
M  V30 2251 H 202.661 -2.58259 2.79297 0
M  V30 2252 H 203.973 -3.54423 3.50978 0
M  V30 2253 H 203.127 -5.59393 2.3487 0
M  V30 2254 H 201.866 -4.6317 1.52726 0
M  V30 2255 H 200.871 -4.0209 3.74972 0
M  V30 2256 H 202.096 -5.01716 4.57665 0
M  V30 2257 H 200.042 -6.03315 2.5758 0
M  V30 2258 H 199.959 -6.2202 4.29682 0
M  V30 2259 H 201.227 -7.01044 3.40819 0
M  V30 2260 N 205.456 -1.28612 -0.910864 0
M  V30 2261 C 206.867 -1.14406 -1.47541 0
M  V30 2262 C 207.218 0.264901 -1.94403 0
M  V30 2263 O 206.343 1.15942 -1.82719 0
M  V30 2264 C 206.938 -2.07073 -2.68153 0
M  V30 2265 C 205.497 -1.96923 -3.20778 0
M  V30 2266 C 204.644 -1.98646 -1.93481 0
M  V30 2267 H 207.595 -1.41259 -0.723291 0
M  V30 2268 H 207.616 -1.63642 -3.43514 0
M  V30 2269 H 207.128 -3.09611 -2.34015 0
M  V30 2270 H 205.229 -0.97433 -3.59635 0
M  V30 2271 H 205.342 -2.84026 -3.85832 0
M  V30 2272 H 203.706 -1.43093 -2.10705 0
M  V30 2273 H 204.489 -3.02868 -1.61634 0
M  V30 2274 N 206.934 1.1197 -1.10907 0
M  V30 2275 C 208.183 1.82947 -0.849302 0
M  V30 2276 C 208.496 1.85275 0.627112 0
M  V30 2277 O 209.702 2.52296 1.00295 0
M  V30 2278 C 208.158 3.28529 -1.46959 0
M  V30 2279 C 207.766 3.34546 -2.97965 0
M  V30 2280 C 209.51 4.04443 -1.28942 0
M  V30 2281 C 207.417 4.74491 -3.53004 0
M  V30 2282 H 206.347 0.685477 -0.314065 0
M  V30 2283 H 208.998 1.2604 -1.33365 0
M  V30 2284 H 207.38 3.85333 -0.912917 0
M  V30 2285 H 208.554 2.87654 -3.59989 0
M  V30 2286 H 206.869 2.72108 -3.15192 0
M  V30 2287 H 209.466 5.07787 -1.67502 0
M  V30 2288 H 209.809 4.15656 -0.231456 0
M  V30 2289 H 210.342 3.5401 -1.81443 0
M  V30 2290 H 207.081 4.68474 -4.58489 0
M  V30 2291 H 206.601 5.21816 -2.9575 0
M  V30 2292 H 208.28 5.4344 -3.51115 0
M  V30 2293 N 208.412 0.89855 1.29475 0
M  V30 2294 C 209.828 0.594483 1.48115 0
M  V30 2295 C 210.028 -0.86431 1.82022 0
M  V30 2296 O 209.084 -1.64457 1.91599 0
M  V30 2297 C 210.397 1.51932 2.59494 0
M  V30 2298 C 211.945 1.5244 2.7337 0
M  V30 2299 C 212.42 2.43548 3.87877 0
M  V30 2300 N 213.911 2.41589 3.95208 0
M  V30 2301 C 214.646 3.08789 4.83153 0
M  V30 2302 N 214.142 3.85265 5.75798 0
M  V30 2303 N 215.935 2.97952 4.76635 0
M  V30 2304 H 208.086 1.84207 1.05742 0
M  V30 2305 H 210.349 0.789251 0.525154 0
M  V30 2306 H 210.055 2.55865 2.41301 0
M  V30 2307 H 209.929 1.23899 3.56271 0
M  V30 2308 H 212.316 0.492518 2.90961 0
M  V30 2309 H 212.397 1.8451 1.77172 0
M  V30 2310 H 212.041 3.46829 3.71041 0
M  V30 2311 H 211.971 2.08788 4.83441 0
M  V30 2312 H 214.462 1.86025 3.28943 0
M  V30 2313 H 214.775 4.33598 6.39697 0
M  V30 2314 H 213.12 3.89371 5.75687 0
M  V30 2315 H 216.311 2.37723 4.03244 0
M  V30 2316 H 216.484 3.50599 5.44962 0
M  V30 2317 N 209.89 -1.43072 0.660911 0
M  V30 2318 C 211.115 -2.06584 0.183805 0
M  V30 2319 C 211.54 -1.49257 -1.14472 0
M  V30 2320 O 210.898 -0.605528 -1.70889 0
M  V30 2321 C 210.946 -3.60418 0.114434 0
M  V30 2322 O 210.05 -4.01981 -0.921137 0
M  V30 2323 H 209.391 -0.656669 0.0983994 0
M  V30 2324 H 211.921 -1.83447 0.906006 0
M  V30 2325 H 211.931 -4.07946 -0.0663394 0
M  V30 2326 H 210.606 -4.01519 1.08422 0
M  V30 2327 H 209.183 -3.66029 -0.71253 0
M  V30 2328 N 211.368 -0.403325 -1.52352 0
M  V30 2329 C 212.596 0.174012 -2.06167 0
M  V30 2330 C 213.011 1.39347 -1.27388 0
M  V30 2331 O 212.368 1.79597 -0.324201 0
M  V30 2332 C 212.419 0.530223 -3.5759 0
M  V30 2333 O 212.14 -0.640806 -4.33388 0
M  V30 2334 C 213.641 1.16192 -4.27802 0
M  V30 2335 H 210.861 0.0229464 -0.670608 0
M  V30 2336 H 213.405 -0.572604 -1.9632 0
M  V30 2337 H 211.56 1.22673 -3.67464 0
M  V30 2338 H 211.974 -0.344851 -5.23365 0
M  V30 2339 H 213.448 1.36141 -5.34948 0
M  V30 2340 H 213.925 2.13335 -3.83907 0
M  V30 2341 H 214.531 0.505775 -4.22282 0
M  V30 2342 N 212.846 1.57033 -0.133567 0
M  V30 2343 C 214.092 1.95976 0.521649 0
M  V30 2344 C 214.425 1.01779 1.65393 0
M  V30 2345 O 213.7 0.0576581 1.94415 0
M  V30 2346 C 213.983 3.44738 1.04057 0
M  V30 2347 C 213.836 4.49711 -0.0892897 0
M  V30 2348 C 215.155 3.95682 1.92675 0
M  V30 2349 H 212.274 0.712579 0.188149 0
M  V30 2350 H 214.916 1.88813 -0.212076 0
M  V30 2351 H 213.066 3.50973 1.66583 0
M  V30 2352 H 214.738 4.55565 -0.725152 0
M  V30 2353 H 212.981 4.27261 -0.750378 0
M  V30 2354 H 213.652 5.51099 0.315284 0
M  V30 2355 H 216.128 3.91841 1.39998 0
M  V30 2356 H 215.004 5.00262 2.25897 0
M  V30 2357 H 215.265 3.37239 2.85872 0
M  V30 2358 N 214.325 -0.140222 1.56975 0
M  V30 2359 C 215.255 -1.17456 2.01808 0
M  V30 2360 C 216.236 -1.44415 0.898794 0
M  V30 2361 O 217.421 -1.5522 1.16707 0
M  V30 2362 C 214.551 -2.50607 2.40444 0
M  V30 2363 C 213.505 -2.38155 3.55621 0
M  V30 2364 C 212.831 -3.76078 3.80091 0
M  V30 2365 C 214.131 -1.85991 4.88062 0
M  V30 2366 H 215.825 -0.801743 2.88466 0
M  V30 2367 H 213.371 -0.38422 1.38779 0
M  V30 2368 H 215.324 -3.23197 2.7041 0
M  V30 2369 H 214.048 -2.89737 1.50732 0
M  V30 2370 H 212.707 -1.68016 3.25832 0
M  V30 2371 H 212.355 -4.12656 2.87618 0
M  V30 2372 H 212.055 -3.68606 4.57606 0
M  V30 2373 H 213.579 -4.50206 4.12488 0
M  V30 2374 H 214.993 -2.4838 5.16701 0
M  V30 2375 H 213.39 -1.89393 5.6943 0
M  V30 2376 H 214.46 -0.816023 4.77984 0
M  V30 2377 N 215.803 -1.52179 -0.40978 0
M  V30 2378 C 217.028 -1.70347 -1.18308 0
M  V30 2379 C 217.453 -0.411887 -1.83535 0
M  V30 2380 O 216.811 0.630587 -1.6998 0
M  V30 2381 C 216.859 -2.83977 -2.22238 0
M  V30 2382 O 215.963 -2.495 -3.28365 0
M  V30 2383 H 215.304 -0.567103 -0.345384 0
M  V30 2384 H 217.834 -1.98879 -0.480445 0
M  V30 2385 H 217.844 -3.0887 -2.66577 0
M  V30 2386 H 216.519 -3.77685 -1.74146 0
M  V30 2387 H 215.096 -2.35277 -2.89308 0
M  V30 2388 N 217.281 0.66697 -1.42791 0
M  V30 2389 C 218.211 1.79218 -1.49677 0
M  V30 2390 C 219.192 1.66405 -0.352623 0
M  V30 2391 O 220.377 1.85708 -0.567993 0
M  V30 2392 C 217.507 3.17565 -1.40605 0
M  V30 2393 C 216.461 3.45124 -2.53127 0
M  V30 2394 C 215.787 4.83127 -2.29112 0
M  V30 2395 C 217.087 3.41236 -3.95418 0
M  V30 2396 H 218.781 1.73713 -2.43853 0
M  V30 2397 H 216.327 0.83432 -1.17367 0
M  V30 2398 H 218.28 3.96022 -1.44029 0
M  V30 2399 H 217.004 3.23767 -0.429271 0
M  V30 2400 H 215.663 2.69031 -2.49034 0
M  V30 2401 H 215.311 4.85988 -1.29709 0
M  V30 2402 H 215.011 5.02528 -3.04531 0
M  V30 2403 H 216.535 5.63859 -2.34297 0
M  V30 2404 H 217.949 4.09651 -4.01073 0
M  V30 2405 H 216.346 3.72173 -4.70752 0
M  V30 2406 H 217.416 2.39665 -4.21532 0
M  V30 2407 N 218.759 1.29093 0.90403 0
M  V30 2408 C 220.036 1.075 1.63411 0
M  V30 2409 C 220.416 -0.382346 2.07609 0
M  V30 2410 O 219.764 -1.37031 1.82851 0
M  V30 2411 C 219.974 2.05858 2.81822 0
M  V30 2412 C 221.322 2.36539 3.52611 0
M  V30 2413 O 222.346 2.04019 2.91984 0
M  V30 2414 O 221.205 2.92085 4.61897 0
M  V30 2415 H 218.299 0.411547 0.717327 0
M  V30 2416 H 220.845 1.40449 0.952479 0
M  V30 2417 H 219.617 3.04037 2.46327 0
M  V30 2418 H 219.24 1.73613 3.57693 0
M  V30 2419 N 220.237 -1.11381 1.11499 0
M  V30 2420 C 221.483 -1.83597 0.875423 0
M  V30 2421 C 221.838 -1.83048 -0.592555 0
M  V30 2422 O 221.131 -1.27304 -1.43193 0
M  V30 2423 C 221.325 -3.30026 1.37177 0
M  V30 2424 C 221.154 -3.44837 2.88647 0
M  V30 2425 C 219.924 -3.57825 3.56776 0
M  V30 2426 C 222.122 -3.3907 3.86699 0
M  V30 2427 N 220.104 -3.61113 4.96458 0
M  V30 2428 C 221.475 -3.48986 5.12454 0
M  V30 2429 C 223.53 -3.22605 3.7925 0
M  V30 2430 C 222.233 -3.44135 6.31636 0
M  V30 2431 C 224.259 -3.19072 4.97943 0
M  V30 2432 C 223.621 -3.29559 6.22551 0
M  V30 2433 H 219.72 -0.687044 0.37349 0
M  V30 2434 H 222.304 -1.33265 1.41946 0
M  V30 2435 H 220.475 -3.78874 0.854919 0
M  V30 2436 H 222.207 -3.90153 1.07529 0
M  V30 2437 H 218.962 -3.60414 3.07244 0
M  V30 2438 H 219.386 -3.66394 5.69284 0
M  V30 2439 H 224.028 -3.13382 2.83816 0
M  V30 2440 H 221.746 -3.52126 7.27347 0
M  V30 2441 H 225.332 -3.07498 4.93899 0
M  V30 2442 H 224.212 -3.26815 7.12855 0
M  V30 2443 N 221.715 -0.905404 -1.28997 0
M  V30 2444 C 222.665 -0.358713 -2.25161 0
M  V30 2445 C 223.649 0.524449 -1.52113 0
M  V30 2446 O 224.841 0.365534 -1.73184 0
M  V30 2447 C 221.97 0.407609 -3.40872 0
M  V30 2448 C 221.056 -0.490797 -4.21251 0
M  V30 2449 N 221.447 -1.60061 -4.79806 0
M  V30 2450 C 219.745 -0.289636 -4.45059 0
M  V30 2451 C 220.446 -2.15757 -5.40207 0
M  V30 2452 N 219.422 -1.44988 -5.23908 0
M  V30 2453 H 223.224 -1.20642 -2.67998 0
M  V30 2454 H 220.738 -0.757103 -1.43672 0
M  V30 2455 H 222.735 0.816046 -4.08835 0
M  V30 2456 H 221.395 1.25251 -2.9957 0
M  V30 2457 H 222.406 -1.98329 -4.7842 0
M  V30 2458 H 219.083 0.51643 -4.14294 0
M  V30 2459 H 220.473 -3.09069 -5.96595 0
M  V30 2460 N 223.193 1.4272 -0.668489 0
M  V30 2461 C 224.604 1.84793 -0.266151 0
M  V30 2462 C 224.955 1.55959 1.19043 0
M  V30 2463 O 224.08 1.01622 1.91055 0
M  V30 2464 C 224.675 3.35436 -0.476271 0
M  V30 2465 C 223.234 3.76182 -0.128113 0
M  V30 2466 C 222.381 2.66344 -0.771777 0
M  V30 2467 H 225.332 1.32656 -0.871098 0
M  V30 2468 H 225.353 3.79515 0.273561 0
M  V30 2469 H 224.865 3.5639 -1.53647 0
M  V30 2470 H 222.966 3.60836 0.928891 0
M  V30 2471 H 223.079 4.75766 -0.564231 0
M  V30 2472 H 221.443 2.53885 -0.203652 0
M  V30 2473 H 222.226 2.90123 -1.83531 0
M  V30 2474 N 224.671 0.411399 1.52136 0
M  V30 2475 C 225.619 -0.427633 2.28635 0
M  V30 2476 C 226.613 -1.04383 1.33419 0
M  V30 2477 O 227.819 -0.981772 1.50868 0
M  V30 2478 H 224.194 -0.156689 0.735495 0
M  V30 2479 H 226.165 0.238761 2.97443 0
M  V30 2480 C 224.914 -1.53082 3.12188 0
M  V30 2481 H 224.237 -1.06601 3.85326 0
M  V30 2482 H 225.677 -2.09167 3.68816 0
M  V30 2483 C 224.136 -2.49946 2.25895 0
M  V30 2484 O 224.666 -3.53884 1.90076 0
M  V30 2485 N 222.872 -2.2021 1.8962 0
M  V30 2486 H 222.419 -1.35719 2.18948 0
M  V30 2487 H 222.377 -2.85266 1.32176 0
M  V30 2488 N 226.149 -1.5696 0.141893 0
M  V30 2489 C 227.097 -2.17784 -0.816874 0
M  V30 2490 C 228.091 -1.1334 -1.25899 0
M  V30 2491 O 229.297 -1.316 -1.22806 0
M  V30 2492 H 225.672 -0.697278 -0.281615 0
M  V30 2493 H 227.643 -2.97087 -0.279621 0
M  V30 2494 C 226.392 -2.80983 -2.04802 0
M  V30 2495 H 225.715 -3.61062 -1.7168 0
M  V30 2496 H 227.155 -3.2705 -2.69841 0
M  V30 2497 C 225.614 -1.79228 -2.8527 0
M  V30 2498 O 226.144 -1.25962 -3.8144 0
M  V30 2499 N 224.35 -1.48647 -2.49704 0
M  V30 2500 H 223.897 -1.92155 -1.71564 0
M  V30 2501 H 223.855 -0.808115 -3.03837 0
M  V30 2502 N 227.627 0.131896 -1.57047 0
M  V30 2503 C 228.873 0.843179 -1.84441 0
M  V30 2504 C 229.206 1.80129 -0.725749 0
M  V30 2505 O 228.481 1.92624 0.269469 0
M  V30 2506 C 228.764 1.60442 -3.22382 0
M  V30 2507 C 228.617 0.666782 -4.4483 0
M  V30 2508 C 229.936 2.56354 -3.5773 0
M  V30 2509 H 227.055 0.305081 -0.670891 0
M  V30 2510 H 229.697 0.107839 -1.89694 0
M  V30 2511 H 227.847 2.23128 -3.18035 0
M  V30 2512 H 229.519 0.0497646 -4.61273 0
M  V30 2513 H 227.762 -0.022609 -4.33794 0
M  V30 2514 H 228.433 1.23579 -5.37989 0
M  V30 2515 H 230.909 2.0378 -3.62785 0
M  V30 2516 H 229.785 3.06657 -4.5525 0
M  V30 2517 H 230.046 3.38419 -2.84473 0
M  V30 2518 N 229.106 1.52395 0.401703 0
M  V30 2519 C 230.036 1.79231 1.49661 0
M  V30 2520 C 231.017 0.643654 1.57452 0
M  V30 2521 O 232.202 0.889989 1.72606 0
M  V30 2522 C 229.332 1.94971 2.87409 0
M  V30 2523 C 228.286 3.10604 2.94465 0
M  V30 2524 C 227.612 3.11577 4.34538 0
M  V30 2525 C 228.912 4.49921 2.6527 0
M  V30 2526 H 230.606 2.70917 1.27454 0
M  V30 2527 H 228.152 1.30362 0.6117 0
M  V30 2528 H 230.105 2.12328 3.63999 0
M  V30 2529 H 228.829 0.999632 3.10926 0
M  V30 2530 H 227.488 2.93009 2.20321 0
M  V30 2531 H 227.136 2.14277 4.55076 0
M  V30 2532 H 226.836 3.89247 4.40183 0
M  V30 2533 H 228.36 3.31073 5.13053 0
M  V30 2534 H 229.774 4.67683 3.31581 0
M  V30 2535 H 228.171 5.29564 2.82281 0
M  V30 2536 H 229.241 4.57507 1.60671 0
M  V30 2537 N 230.584 -0.659388 1.43143 0
M  V30 2538 C 231.514 -1.78422 1.50625 0
M  V30 2539 C 232.495 -1.66216 0.361443 0
M  V30 2540 O 233.68 -1.85404 0.577834 0
M  V30 2541 C 230.81 -3.16815 1.42287 0
M  V30 2542 C 229.764 -3.43777 2.54954 0
M  V30 2543 C 229.09 -4.81905 2.31671 0
M  V30 2544 C 230.39 -3.39134 3.97222 0
M  V30 2545 H 232.084 -1.72417 2.44771 0
M  V30 2546 H 229.63 -0.828084 1.17808 0
M  V30 2547 H 231.583 -3.95253 1.46127 0
M  V30 2548 H 230.307 -3.23534 0.446435 0
M  V30 2549 H 228.966 -2.67707 2.50457 0
M  V30 2550 H 228.614 -4.85294 1.32284 0
M  V30 2551 H 228.314 -5.00906 3.07192 0
M  V30 2552 H 229.838 -5.62609 2.37284 0
M  V30 2553 H 231.252 -4.07518 4.03239 0
M  V30 2554 H 229.649 -3.69671 4.72719 0
M  V30 2555 H 230.719 -2.37426 4.22797 0
M  V30 2556 N 232.062 -1.29571 -0.897171 0
M  V30 2557 C 233.025 -1.14913 -1.98312 0
M  V30 2558 C 234.025 -0.0838629 -1.60581 0
M  V30 2559 O 235.215 -0.331006 -1.71026 0
M  V30 2560 C 232.347 -0.757835 -3.3237 0
M  V30 2561 H 233.54 -2.11377 -2.12743 0
M  V30 2562 H 231.093 -1.12793 -1.08201 0
M  V30 2563 H 231.828 0.206837 -3.2364 0
M  V30 2564 H 231.613 -1.52755 -3.61121 0
M  V30 2565 H 233.103 -0.678408 -4.12053 0
M  V30 2566 N 233.54 1.10788 -1.12088 0
M  V30 2567 C 234.503 2.15207 -0.788577 0
M  V30 2568 C 235.503 1.59609 0.195317 0
M  V30 2569 O 236.693 1.74174 -0.0300193 0
M  V30 2570 C 233.825 3.4047 -0.171174 0
M  V30 2571 H 235.018 2.46116 -1.71368 0
M  V30 2572 H 232.571 1.26089 -0.923652 0
M  V30 2573 H 233.306 3.15176 0.763832 0
M  V30 2574 H 233.091 3.82109 -0.879514 0
M  V30 2575 H 234.581 4.17576 0.04496 0
M  V30 2576 N 235.018 0.912232 1.28515 0
M  V30 2577 C 236.266 0.543523 1.94654 0
M  V30 2578 C 236.587 -0.9155 1.72173 0
M  V30 2579 O 235.857 -1.64708 1.06058 0
M  V30 2580 H 234.437 0.198017 0.720277 0
M  V30 2581 H 237.099 1.16126 1.56527 0
M  V30 2582 H 236.195 0.736684 3.03281 0
M  V30 2583 N 236.496 -1.42363 0.676048 0
M  V30 2584 C 237.721 -2.06377 0.205705 0
M  V30 2585 C 238.146 -1.50463 -1.12883 0
M  V30 2586 O 237.504 -0.623619 -1.70237 0
M  V30 2587 C 237.552 -3.60277 0.152655 0
M  V30 2588 O 236.656 -4.02935 -0.87845 0
M  V30 2589 H 235.997 -0.655588 0.105359 0
M  V30 2590 H 238.527 -1.82475 0.925412 0
M  V30 2591 H 238.537 -4.07993 -0.0230675 0
M  V30 2592 H 237.212 -4.00346 1.12675 0
M  V30 2593 H 235.789 -3.66764 -0.673668 0
M  V30 2594 N 237.974 -0.419461 -1.51915 0
M  V30 2595 C 239.214 0.152336 -2.03832 0
M  V30 2596 C 239.578 1.41501 -1.29775 0
M  V30 2597 O 240.779 2.06591 -1.7197 0
M  V30 2598 C 239.05 0.383812 -3.55333 0
M  V30 2599 S 240.609 0.921577 -4.29013 0
M  V30 2600 H 237.427 0.0402193 -0.709862 0
M  V30 2601 H 240.029 -0.574758 -1.8686 0
M  V30 2602 H 238.733 -0.541794 -4.06808 0
M  V30 2603 H 238.264 1.13849 -3.76566 0
M  V30 2604 H 240.279 2.20108 -4.4471 0
M  V30 2605 N 239.452 1.56882 -0.150215 0
M  V30 2606 C 240.729 1.87844 0.545327 0
M  V30 2607 C 241.109 1.0567 1.82749 0
M  V30 2608 O 240.457 0.144442 2.28043 0
M  V30 2609 C 240.667 3.39526 0.80767 0
M  V30 2610 C 242.015 4.08814 1.14703 0
M  V30 2611 O 243.039 3.44723 0.896917 0
M  V30 2612 O 241.898 5.22004 1.61784 0
M  V30 2613 H 238.992 0.778677 0.278553 0
M  V30 2614 H 241.538 1.68666 -0.187068 0
M  V30 2615 H 240.31 3.91173 -0.0996096 0
M  V30 2616 H 239.933 3.64243 1.59413 0
M  V30 2617 N 240.93 -0.123565 1.57115 0
M  V30 2618 C 242.177 -0.832153 1.84612 0
M  V30 2619 C 242.505 -1.80093 0.734627 0
M  V30 2620 O 241.76 -1.93766 -0.27442 0
M  V30 2621 C 242.059 -1.62016 3.18568 0
M  V30 2622 C 241.725 -0.796084 4.43817 0
M  V30 2623 C 240.387 -0.568816 4.77826 0
M  V30 2624 C 242.739 -0.221364 5.2073 0
M  V30 2625 C 240.067 0.243499 5.86194 0
M  V30 2626 C 242.419 0.578117 6.29953 0
M  V30 2627 C 241.083 0.815744 6.62497 0
M  V30 2628 H 240.353 -0.304507 0.675542 0
M  V30 2629 H 243 -0.0947248 1.91266 0
M  V30 2630 H 241.305 -2.42837 3.0747 0
M  V30 2631 H 243.002 -2.17231 3.37064 0
M  V30 2632 H 239.592 -0.983307 4.17168 0
M  V30 2633 H 243.776 -0.384173 4.94811 0
M  V30 2634 H 239.032 0.436871 6.09837 0
M  V30 2635 H 243.206 1.03046 6.88734 0
M  V30 2636 H 240.833 1.44701 7.46301 0
M  V30 2637 N 242.408 -1.52605 -0.393616 0
M  V30 2638 C 243.355 -1.77055 -1.48054 0
M  V30 2639 C 244.325 -0.61358 -1.54352 0
M  V30 2640 O 245.51 -0.852806 -1.70681 0
M  V30 2641 C 242.65 -1.94108 -2.85335 0
M  V30 2642 C 241.763 -3.21792 -2.88226 0
M  V30 2643 C 240.898 -3.29188 -4.16904 0
M  V30 2644 C 239.937 -4.51013 -4.13828 0
M  V30 2645 N 239.074 -4.55716 -5.34105 0
M  V30 2646 H 243.914 -2.69815 -1.26506 0
M  V30 2647 H 241.451 -1.33683 -0.61379 0
M  V30 2648 H 243.409 -2.01979 -3.65049 0
M  V30 2649 H 242.039 -1.04713 -3.05344 0
M  V30 2650 H 241.091 -3.23015 -2.00911 0
M  V30 2651 H 242.403 -4.11557 -2.8182 0
M  V30 2652 H 241.557 -3.36216 -5.05018 0
M  V30 2653 H 240.296 -2.37389 -4.26026 0
M  V30 2654 H 239.301 -4.44115 -3.24102 0
M  V30 2655 H 240.526 -5.44123 -4.06333 0
M  V30 2656 H 238.472 -3.66807 -5.43865 0
M  V30 2657 H 238.389 -5.39346 -5.29756 0
M  V30 2658 H 239.657 -4.66993 -6.2413 0
M  V30 2659 N 243.887 0.651787 -1.4349 0
M  V30 2660 C 245.127 1.42345 -1.46688 0
M  V30 2661 C 245.491 1.91793 -0.0891023 0
M  V30 2662 O 246.692 2.688 0.00423594 0
M  V30 2663 C 244.963 2.57221 -2.48137 0
M  V30 2664 S 246.522 3.45725 -2.70221 0
M  V30 2665 H 243.34 0.485878 -0.51908 0
M  V30 2666 H 245.942 0.756578 -1.80267 0
M  V30 2667 H 244.646 2.1917 -3.46976 0
M  V30 2668 H 244.177 3.28757 -2.16061 0
M  V30 2669 H 246.192 4.53996 -2.00255 0
M  V30 2670 N 245.365 1.30045 0.890287 0
M  V30 2671 C 246.781 1.08261 1.17268 0
M  V30 2672 C 246.981 -0.160063 2.00863 0
M  V30 2673 O 246.037 -0.855181 2.37577 0
M  V30 2674 C 247.35 2.34323 1.8845 0
M  V30 2675 C 248.898 2.39735 2.01237 0
M  V30 2676 C 249.373 3.65625 2.7583 0
M  V30 2677 N 250.864 3.66402 2.83379 0
M  V30 2678 C 251.599 4.60498 3.41657 0
M  V30 2679 N 251.095 5.64933 4.01026 0
M  V30 2680 N 252.888 4.48051 3.39421 0
M  V30 2681 H 245.039 2.09777 0.332762 0
M  V30 2682 H 247.302 0.92446 0.209948 0
M  V30 2683 H 247.008 3.2498 1.34465 0
M  V30 2684 H 246.882 2.4256 2.88867 0
M  V30 2685 H 249.269 1.4956 2.54393 0
M  V30 2686 H 249.35 2.35476 0.999232 0
M  V30 2687 H 248.994 4.56156 2.23347 0
M  V30 2688 H 248.924 3.67144 3.77509 0
M  V30 2689 H 251.415 2.90896 2.41222 0
M  V30 2690 H 251.728 6.32841 4.43545 0
M  V30 2691 H 250.073 5.68732 3.99461 0
M  V30 2692 H 253.264 3.65649 2.92264 0
M  V30 2693 H 253.437 5.21565 3.84544 0
M  V30 2694 N 246.843 -1.10192 1.12674 0
M  V30 2695 C 248.092 -1.81573 0.8783 0
M  V30 2696 C 248.405 -1.86249 -0.597557 0
M  V30 2697 O 249.611 -2.5386 -0.962681 0
M  V30 2698 C 248.067 -3.26149 1.52167 0
M  V30 2699 C 247.675 -3.29763 3.03249 0
M  V30 2700 C 249.419 -4.0234 1.3536 0
M  V30 2701 C 247.326 -4.68815 3.60508 0
M  V30 2702 H 246.256 -0.680394 0.324931 0
M  V30 2703 H 248.907 -1.23902 1.35353 0
M  V30 2704 H 247.289 -3.83832 0.974104 0
M  V30 2705 H 248.463 -2.8189 3.6452 0
M  V30 2706 H 246.778 -2.67059 3.19481 0
M  V30 2707 H 249.375 -5.05058 1.75559 0
M  V30 2708 H 249.718 -4.15235 0.297554 0
M  V30 2709 H 250.251 -3.51079 1.87052 0
M  V30 2710 H 246.99 -4.61121 4.65884 0
M  V30 2711 H 246.51 -5.17045 3.04014 0
M  V30 2712 H 248.189 -5.37785 3.59717 0
M  V30 2713 N 248.321 -0.919034 -1.28029 0
M  V30 2714 C 249.568 -0.554934 -1.94748 0
M  V30 2715 C 249.896 0.90231 -1.72304 0
M  V30 2716 O 249.151 1.65767 -1.04018 0
M  V30 2717 C 249.45 -0.816855 -3.4794 0
M  V30 2718 C 249.116 -2.25448 -3.90492 0
M  V30 2719 C 247.778 -2.64752 -4.01821 0
M  V30 2720 C 250.13 -3.18977 -4.12193 0
M  V30 2721 C 247.458 -3.96727 -4.32232 0
M  V30 2722 C 249.81 -4.50523 -4.44086 0
M  V30 2723 C 248.474 -4.89673 -4.53626 0
M  V30 2724 H 247.744 -0.203065 -0.712633 0
M  V30 2725 H 250.391 -1.16136 -1.52265 0
M  V30 2726 H 248.696 -0.127677 -3.91592 0
M  V30 2727 H 250.393 -0.514238 -3.97689 0
M  V30 2728 H 246.983 -1.93952 -3.82205 0
M  V30 2729 H 251.167 -2.89817 -4.02889 0
M  V30 2730 H 246.423 -4.26754 -4.37825 0
M  V30 2731 H 250.597 -5.23005 -4.59825 0
M  V30 2732 H 248.224 -5.91969 -4.76946 0
M  V30 2733 N 249.799 1.42003 -0.683588 0
M  V30 2734 C 251.024 2.06265 -0.216647 0
M  V30 2735 C 251.449 1.51059 1.12083 0
M  V30 2736 O 250.807 0.632638 1.69904 0
M  V30 2737 C 250.855 3.60191 -0.171759 0
M  V30 2738 O 249.959 4.03396 0.857069 0
M  V30 2739 H 249.3 0.65502 -0.108834 0
M  V30 2740 H 251.83 1.81982 -0.935077 0
M  V30 2741 H 251.84 4.08 0.0014303 0
M  V30 2742 H 250.515 3.99743 -1.14796 0
M  V30 2743 H 249.092 3.67117 0.654208 0
M  V30 2744 N 251.277 0.427512 1.51691 0
M  V30 2745 C 252.24 -0.377132 2.26076 0
M  V30 2746 C 253.24 -0.958089 1.29141 0
M  V30 2747 O 254.43 -0.83408 1.52934 0
M  V30 2748 C 251.562 -1.53262 3.04506 0
M  V30 2749 H 252.755 0.27464 2.9864 0
M  V30 2750 H 250.308 0.180445 1.55255 0
M  V30 2751 H 251.043 -2.22072 2.36335 0
M  V30 2752 H 250.828 -1.12232 3.75694 0
M  V30 2753 H 252.318 -2.10135 3.60878 0
M  V30 2754 N 252.755 -1.56801 0.158532 0
M  V30 2755 C 253.985 -2.00568 -0.495583 0
M  V30 2756 C 254.393 -1.03774 -1.58201 0
M  V30 2757 O 253.736 -0.0285797 -1.83678 0
M  V30 2758 C 253.798 -3.40768 -1.14532 0
M  V30 2759 C 253.462 -4.56553 -0.202101 0
M  V30 2760 C 254.459 -5.16714 0.574675 0
M  V30 2761 C 252.144 -5.02197 -0.101648 0
M  V30 2762 C 254.138 -6.20939 1.43924 0
M  V30 2763 C 251.825 -6.06274 0.766508 0
M  V30 2764 C 252.823 -6.65515 1.53555 0
M  V30 2765 O 252.511 -7.67575 2.38922 0
M  V30 2766 H 252.243 -0.662893 -0.13247 0
M  V30 2767 H 254.797 -2.03829 0.253559 0
M  V30 2768 H 253.027 -3.34381 -1.94233 0
M  V30 2769 H 254.716 -3.6857 -1.70033 0
M  V30 2770 H 255.482 -4.82341 0.507167 0
M  V30 2771 H 251.361 -4.55807 -0.689994 0
M  V30 2772 H 254.905 -6.67107 2.03996 0
M  V30 2773 H 250.802 -6.40073 0.835266 0
M  V30 2774 H 251.57 -7.84844 2.32296 0
M  V30 2775 N 254.233 0.115231 -1.57178 0
M  V30 2776 C 255.482 0.820945 -1.84237 0
M  V30 2777 C 255.795 1.80866 -0.744761 0
M  V30 2778 O 257.001 2.56083 -0.901871 0
M  V30 2779 C 255.457 1.51072 -3.26658 0
M  V30 2780 C 255.065 0.563795 -4.44438 0
M  V30 2781 C 256.809 2.20134 -3.62962 0
M  V30 2782 C 254.716 1.25701 -5.77887 0
M  V30 2783 H 253.646 0.310328 -0.687177 0
M  V30 2784 H 256.297 0.0737134 -1.83352 0
M  V30 2785 H 254.679 2.30471 -3.22024 0
M  V30 2786 H 255.853 -0.197247 -4.60378 0
M  V30 2787 H 254.168 -0.0200638 -4.16395 0
M  V30 2788 H 256.765 2.72696 -4.59936 0
M  V30 2789 H 257.108 2.98107 -2.90582 0
M  V30 2790 H 257.641 1.47619 -3.69396 0
M  V30 2791 H 254.38 0.518493 -6.53446 0
M  V30 2792 H 253.9 1.98997 -5.65827 0
M  V30 2793 H 255.579 1.78915 -6.2177 0
M  V30 2794 N 255.711 1.52812 0.385517 0
M  V30 2795 C 256.658 1.77838 1.47113 0
M  V30 2796 C 257.628 0.621757 1.54024 0
M  V30 2797 O 258.813 0.861846 1.70226 0
M  V30 2798 C 255.953 1.95618 2.84302 0
M  V30 2799 C 255.066 3.23316 2.86515 0
M  V30 2800 C 254.201 3.31394 4.15152 0
M  V30 2801 C 253.24 4.53201 4.1143 0
M  V30 2802 N 252.377 4.58542 5.3168 0
M  V30 2803 H 257.217 2.70482 1.25073 0
M  V30 2804 H 254.754 1.34006 0.606692 0
M  V30 2805 H 256.712 2.03912 3.63972 0
M  V30 2806 H 255.342 1.06331 3.04784 0
M  V30 2807 H 254.394 3.24076 1.99195 0
M  V30 2808 H 255.706 4.13045 2.79634 0
M  V30 2809 H 254.86 3.3889 5.03228 0
M  V30 2810 H 253.599 2.39645 4.24761 0
M  V30 2811 H 252.604 4.45827 3.21742 0
M  V30 2812 H 253.829 5.46271 4.03442 0
M  V30 2813 H 251.775 3.69686 5.41912 0
M  V30 2814 H 251.692 5.42148 5.26889 0
M  V30 2815 H 252.96 4.70296 6.21644 0
M  V30 2816 N 257.189 -0.644168 1.43834 0
M  V30 2817 C 258.099 -1.78563 1.52159 0
M  V30 2818 C 259.115 -1.69147 0.408069 0
M  V30 2819 O 260.291 -1.90156 0.663524 0
M  V30 2820 C 257.356 -3.14888 1.45073 0
M  V30 2821 C 256.417 -3.36034 2.6717 0
M  V30 2822 C 255.65 -4.65855 2.60413 0
M  V30 2823 O 255.873 -5.45805 1.65689 0
M  V30 2824 O 254.807 -4.88918 3.5106 0
M  V30 2825 H 258.633 -1.74494 2.48567 0
M  V30 2826 H 256.218 -0.80378 1.25935 0
M  V30 2827 H 258.1 -3.96179 1.43597 0
M  V30 2828 H 256.775 -3.19528 0.518037 0
M  V30 2829 H 255.682 -2.54472 2.74217 0
M  V30 2830 H 257.015 -3.36247 3.59442 0
M  V30 2831 N 258.668 -1.30515 -0.883378 0
M  V30 2832 C 259.914 -1.19607 -1.63774 0
M  V30 2833 C 260.247 0.248314 -1.92606 0
M  V30 2834 O 259.522 1.17742 -1.54813 0
M  V30 2835 C 259.805 -2.02669 -2.97653 0
M  V30 2836 C 259.658 -3.55335 -2.75784 0
M  V30 2837 C 260.977 -1.86573 -3.98596 0
M  V30 2838 H 258.096 -0.435856 -0.594305 0
M  V30 2839 H 260.738 -1.60165 -1.02212 0
M  V30 2840 H 258.888 -1.68208 -3.50197 0
M  V30 2841 H 260.56 -3.99863 -2.30016 0
M  V30 2842 H 258.803 -3.79438 -2.1026 0
M  V30 2843 H 259.474 -4.08745 -3.70988 0
M  V30 2844 H 261.95 -2.16703 -3.55217 0
M  V30 2845 H 260.826 -2.47014 -4.90179 0
M  V30 2846 H 261.087 -0.825321 -4.34328 0
M  V30 2847 N 260.146 1.09593 -1.13257 0
M  V30 2848 C 261.056 2.19739 -0.821691 0
M  V30 2849 C 262.072 1.72926 0.19302 0
M  V30 2850 O 263.248 2.01385 0.0244895 0
M  V30 2851 C 260.313 3.45482 -0.290333 0
M  V30 2852 C 259.374 4.06985 -1.36607 0
M  V30 2853 C 258.607 5.26726 -0.859975 0
M  V30 2854 O 258.83 5.69594 0.303082 0
M  V30 2855 O 257.764 5.7931 -1.63351 0
M  V30 2856 H 261.59 2.48781 -1.74189 0
M  V30 2857 H 259.175 1.18496 -0.909894 0
M  V30 2858 H 261.057 4.214 0.000674022 0
M  V30 2859 H 259.732 3.18047 0.602306 0
M  V30 2860 H 258.639 3.32712 -1.71037 0
M  V30 2861 H 259.972 4.38643 -2.23279 0
M  V30 2862 N 261.624 0.925811 1.2754 0
M  V30 2863 C 262.534 0.428993 2.30644 0
M  V30 2864 C 263.55 -0.489387 1.66976 0
M  V30 2865 O 264.726 -0.372653 1.97922 0
M  V30 2866 C 261.791 -0.311967 3.45294 0
M  V30 2867 C 260.852 0.641098 4.24486 0
M  V30 2868 C 260.085 -0.0645955 5.33661 0
M  V30 2869 O 260.308 -1.28429 5.55754 0
M  V30 2870 O 259.242 0.606265 5.98839 0
M  V30 2871 H 263.068 1.28504 2.75173 0
M  V30 2872 H 260.653 0.691086 1.32455 0
M  V30 2873 H 262.535 -0.729972 4.15029 0
M  V30 2874 H 261.21 -1.14365 3.02824 0
M  V30 2875 H 260.117 1.10874 3.57292 0
M  V30 2876 H 261.45 1.43995 4.70666 0
M  V30 2877 N 263.102 -1.41638 0.69111 0
M  V30 2878 C 264.518 -1.55435 0.362224 0
M  V30 2879 C 264.718 -1.66754 -1.13117 0
M  V30 2880 O 263.774 -1.64348 -1.91692 0
M  V30 2881 C 265.087 -2.79588 1.10684 0
M  V30 2882 C 266.635 -2.9338 1.09075 0
M  V30 2883 C 267.11 -4.20414 1.81703 0
M  V30 2884 N 268.601 -4.27362 1.7865 0
M  V30 2885 C 269.336 -5.24507 2.31689 0
M  V30 2886 N 268.832 -6.27708 2.93179 0
M  V30 2887 N 270.625 -5.16416 2.2197 0
M  V30 2888 H 262.776 -1.32536 1.65976 0
M  V30 2889 H 265.039 -0.639115 0.700168 0
M  V30 2890 H 264.745 -2.77419 2.16175 0
M  V30 2891 H 264.619 -3.70973 0.682545 0
M  V30 2892 H 267.006 -2.95067 0.0441238 0
M  V30 2893 H 267.087 -2.0318 1.55407 0
M  V30 2894 H 266.731 -4.19488 2.86343 0
M  V30 2895 H 266.661 -5.09578 1.32808 0
M  V30 2896 H 269.152 -3.53415 1.33815 0
M  V30 2897 H 269.465 -6.98217 3.31229 0
M  V30 2898 H 267.81 -6.28223 2.97255 0
M  V30 2899 H 271.001 -4.34716 1.73607 0
M  V30 2900 H 271.174 -5.91958 2.63609 0
M  V30 2901 N 264.58 -0.43555 -1.51462 0
M  V30 2902 C 265.991 0.0279871 -1.86679 0
M  V30 2903 C 266.342 1.42104 -1.35281 0
M  V30 2904 O 265.467 2.04667 -0.702878 0
M  V30 2905 C 266.062 0.0575626 -3.38751 0
M  V30 2906 C 264.621 0.465507 -3.7351 0
M  V30 2907 C 263.768 -0.342996 -2.75171 0
M  V30 2908 H 266.719 -0.651473 -1.44712 0
M  V30 2909 H 266.74 0.867421 -3.70481 0
M  V30 2910 H 266.252 -0.956448 -3.7613 0
M  V30 2911 H 264.353 1.48519 -3.41721 0
M  V30 2912 H 264.466 0.191546 -4.78717 0
M  V30 2913 H 262.83 0.198442 -2.53926 0
M  V30 2914 H 263.613 -1.35585 -3.15391 0
M  V30 2915 N 266.058 1.56714 -0.166846 0
M  V30 2916 C 267.021 2.16539 0.751232 0
M  V30 2917 C 268.021 1.11228 1.16125 0
M  V30 2918 O 269.211 1.36765 1.07894 0
M  V30 2919 C 266.343 2.74462 2.02196 0
M  V30 2920 H 267.536 2.99013 0.230499 0
M  V30 2921 H 265.089 1.56081 0.0826982 0
M  V30 2922 H 265.824 1.95709 2.58589 0
M  V30 2923 H 265.609 3.51527 1.73698 0
M  V30 2924 H 267.099 3.20489 2.67725 0
M  V30 2925 N 267.536 -0.106894 1.57237 0
M  V30 2926 C 268.947 -0.662723 1.74542 0
M  V30 2927 C 269.298 -1.7971 0.787319 0
M  V30 2928 O 268.423 -2.16368 -0.0369636 0
M  V30 2929 C 269.018 -1.20896 3.16496 0
M  V30 2930 C 267.577 -1.71096 3.35266 0
M  V30 2931 C 266.724 -0.615642 2.7038 0
M  V30 2932 H 269.675 0.119106 1.58252 0
M  V30 2933 H 269.696 -2.07847 3.18716 0
M  V30 2934 H 269.208 -0.383122 3.86204 0
M  V30 2935 H 267.309 -2.56119 2.70618 0
M  V30 2936 H 267.422 -1.81208 4.43509 0
M  V30 2937 H 265.786 -1.05222 2.31949 0
M  V30 2938 H 266.569 0.199419 3.4272 0
M  V30 2939 N 269.014 -1.53014 -0.377408 0
M  V30 2940 C 270.242 -1.72515 -1.14219 0
M  V30 2941 C 270.657 -0.448735 -1.8339 0
M  V30 2942 O 270.014 0.577592 -1.73119 0
M  V30 2943 C 270.065 -2.8826 -2.18148 0
M  V30 2944 O 269.786 -4.10962 -1.51795 0
M  V30 2945 C 271.287 -3.19536 -3.07264 0
M  V30 2946 H 268.507 -0.577301 -0.342001 0
M  V30 2947 H 271.051 -1.99712 -0.439935 0
M  V30 2948 H 269.206 -2.63492 -2.83991 0
M  V30 2949 H 269.62 -4.75693 -2.20945 0
M  V30 2950 H 271.094 -4.03959 -3.76193 0
M  V30 2951 H 271.571 -2.34403 -3.71419 0
M  V30 2952 H 272.177 -3.46186 -2.47053 0
M  V30 2953 N 270.492 0.636531 -1.44174 0
M  V30 2954 C 271.903 1.21806 -1.41493 0
M  V30 2955 C 272.254 1.95785 -0.1275 0
M  V30 2956 O 271.379 2.02147 0.772376 0
M  V30 2957 C 271.974 2.21551 -2.56321 0
M  V30 2958 C 270.533 2.75143 -2.56853 0
M  V30 2959 C 269.68 1.50052 -2.33195 0
M  V30 2960 H 272.631 0.427531 -1.52833 0
M  V30 2961 H 272.652 3.0405 -2.28765 0
M  V30 2962 H 272.164 1.67679 -3.50008 0
M  V30 2963 H 270.265 3.33033 -1.67093 0
M  V30 2964 H 270.378 3.2155 -3.55165 0
M  V30 2965 H 268.742 1.77993 -1.82183 0
M  V30 2966 H 269.525 0.980903 -3.28988 0
M  V30 2967 N 271.97 1.30982 0.876444 0
M  V30 2968 C 273.216 1.21484 1.63136 0
M  V30 2969 C 273.571 -0.226339 1.91064 0
M  V30 2970 O 272.864 -1.15788 1.52656 0
M  V30 2971 C 273.058 1.98572 2.9716 0
M  V30 2972 C 272.887 3.50039 2.82317 0
M  V30 2973 C 271.657 4.19393 2.81847 0
M  V30 2974 C 273.855 4.45111 2.57644 0
M  V30 2975 N 271.837 5.57061 2.57985 0
M  V30 2976 C 273.208 5.70402 2.42986 0
M  V30 2977 C 275.263 4.3461 2.42937 0
M  V30 2978 C 273.966 6.8638 2.15115 0
M  V30 2979 C 275.992 5.50365 2.16454 0
M  V30 2980 C 275.354 6.74642 2.02578 0
M  V30 2981 H 271.453 0.499632 0.601575 0
M  V30 2982 H 274.037 1.65094 1.03209 0
M  V30 2983 H 272.208 1.5734 3.55104 0
M  V30 2984 H 273.94 1.81146 3.61895 0
M  V30 2985 H 270.695 3.71303 2.93991 0
M  V30 2986 H 271.119 6.29529 2.49043 0
M  V30 2987 H 275.761 3.39199 2.52396 0
M  V30 2988 H 273.479 7.81824 2.04394 0
M  V30 2989 H 277.065 5.44154 2.05884 0
M  V30 2990 H 275.945 7.62699 1.82374 0
M  V30 2991 N 273.449 -1.08991 1.13837 0
M  V30 2992 C 274.697 -1.80899 0.901098 0
M  V30 2993 C 275.018 -1.86356 -0.574134 0
M  V30 2994 O 274.288 -1.35235 -1.41733 0
M  V30 2995 H 272.868 -0.669966 0.330386 0
M  V30 2996 H 275.53 -1.318 1.43578 0
M  V30 2997 H 274.626 -2.83929 1.29578 0
M  V30 2998 N 274.927 -0.932562 -1.27047 0
M  V30 2999 C 276.152 -0.591474 -1.98787 0
M  V30 3000 C 276.577 0.824601 -1.69062 0
M  V30 3001 O 275.935 1.5541 -0.933677 0
M  V30 3002 C 275.983 -0.829808 -3.50922 0
M  V30 3003 O 275.087 0.102266 -4.12273 0
M  V30 3004 H 274.428 -0.227185 -0.623926 0
M  V30 3005 H 276.958 -1.25314 -1.61733 0
M  V30 3006 H 276.968 -0.747292 -4.01098 0
M  V30 3007 H 275.643 -1.86201 -3.7189 0
M  V30 3008 H 274.22 -0.0305761 -3.72887 0
M  V30 3009 N 276.405 1.4127 -0.698611 0
M  V30 3010 C 277.352 2.30773 -0.0352094 0
M  V30 3011 C 278.322 1.47273 0.768111 0
M  V30 3012 O 279.507 1.76053 0.735524 0
M  V30 3013 C 276.647 3.33346 0.893 0
M  V30 3014 C 275.76 4.31924 0.0809695 0
M  V30 3015 C 274.895 5.21566 1.0071 0
M  V30 3016 C 273.934 6.11811 0.188155 0
M  V30 3017 N 273.071 6.93926 1.06825 0
M  V30 3018 H 277.911 2.86943 -0.804207 0
M  V30 3019 H 275.448 1.4132 -0.408294 0
M  V30 3020 H 277.406 3.91368 1.44523 0
M  V30 3021 H 276.036 2.78719 1.62836 0
M  V30 3022 H 275.088 3.75825 -0.588224 0
M  V30 3023 H 276.4 4.95716 -0.553801 0
M  V30 3024 H 275.554 5.84437 1.62845 0
M  V30 3025 H 274.293 4.58008 1.67572 0
M  V30 3026 H 273.298 5.47986 -0.446254 0
M  V30 3027 H 274.523 6.77425 -0.476716 0
M  V30 3028 H 272.469 6.32973 1.72283 0
M  V30 3029 H 272.386 7.54416 0.489123 0
M  V30 3030 H 273.654 7.61262 1.67632 0
M  V30 3031 N 277.883 0.443576 1.51229 0
M  V30 3032 C 278.816 -0.410089 2.24485 0
M  V30 3033 C 279.794 -1.01949 1.26669 0
M  V30 3034 O 280.978 -1.06075 1.55821 0
M  V30 3035 C 278.105 -1.57211 3.00004 0
M  V30 3036 C 277.151 -1.08279 4.12526 0
M  V30 3037 S 277.984 -0.0197476 5.35496 0
M  V30 3038 C 279.14 -1.18629 6.14555 0
M  V30 3039 H 279.373 0.211832 2.96544 0
M  V30 3040 H 276.906 0.228156 1.52705 0
M  V30 3041 H 278.864 -2.23825 3.44111 0
M  V30 3042 H 277.525 -2.16547 2.27522 0
M  V30 3043 H 276.718 -1.95193 4.64667 0
M  V30 3044 H 276.32 -0.494797 3.70713 0
M  V30 3045 H 278.612 -2.10344 6.4402 0
M  V30 3046 H 279.555 -0.70472 7.04584 0
M  V30 3047 H 279.963 -1.42768 5.46148 0
M  V30 3048 N 279.361 -1.56624 0.175154 0
M  V30 3049 C 280.772 -1.83561 -0.340916 0
M  V30 3050 C 281.123 -1.09511 -1.62794 0
M  V30 3051 O 280.248 -0.349389 -2.13561 0
M  V30 3052 C 280.843 -3.32979 -0.625313 0
M  V30 3053 C 279.402 -3.60399 -1.08581 0
M  V30 3054 C 278.549 -2.77024 -0.123722 0
M  V30 3055 H 281.5 -1.53593 0.399344 0
M  V30 3056 H 281.521 -3.50666 -1.47694 0
M  V30 3057 H 281.033 -3.86847 0.311575 0
M  V30 3058 H 279.134 -3.11945 -2.03767 0
M  V30 3059 H 279.247 -4.68711 -0.992317 0
M  V30 3060 H 277.611 -2.46993 -0.621821 0
M  V30 3061 H 278.394 -3.33674 0.807256 0
M  V30 3062 N 280.839 0.0985539 -1.57292 0
M  V30 3063 C 282.086 0.802678 -1.85912 0
M  V30 3064 C 282.414 1.78901 -0.763186 0
M  V30 3065 O 281.669 1.94178 0.243559 0
M  V30 3066 C 281.968 1.56927 -3.21105 0
M  V30 3067 C 281.634 0.725376 -4.45027 0
M  V30 3068 C 280.296 0.492726 -4.78671 0
M  V30 3069 C 282.648 0.138493 -5.21016 0
M  V30 3070 C 279.976 -0.336727 -5.85733 0
M  V30 3071 C 282.328 -0.678264 -6.28953 0
M  V30 3072 C 280.992 -0.921039 -6.61115 0
M  V30 3073 H 280.262 0.293721 -0.680301 0
M  V30 3074 H 282.909 0.0642841 -1.91392 0
M  V30 3075 H 281.214 2.37914 -3.11294 0
M  V30 3076 H 282.911 2.11841 -3.40477 0
M  V30 3077 H 279.501 0.916815 -4.18679 0
M  V30 3078 H 283.685 0.305404 -4.95359 0
M  V30 3079 H 278.941 -0.533836 -6.09065 0
M  V30 3080 H 283.115 -1.1399 -6.87007 0
M  V30 3081 H 280.742 -1.56556 -7.43905 0
M  V30 3082 N 282.317 1.53212 0.369288 0
M  V30 3083 C 283.565 1.68881 1.11012 0
M  V30 3084 C 283.886 0.441285 1.89941 0
M  V30 3085 O 283.156 -0.544623 1.88177 0
M  V30 3086 H 281.736 0.622569 0.412816 0
M  V30 3087 H 284.398 1.90391 0.416802 0
M  V30 3088 H 283.494 2.54822 1.80201 0
M  V30 3089 N 283.795 -0.628877 1.44509 0
M  V30 3090 C 284.705 -1.7694 1.54044 0
M  V30 3091 C 285.721 -1.68705 0.425987 0
M  V30 3092 O 286.897 -1.89442 0.683656 0
M  V30 3093 C 283.962 -3.13332 1.48405 0
M  V30 3094 C 283.023 -3.33181 2.70719 0
M  V30 3095 C 282.256 -4.63067 2.6534 0
M  V30 3096 O 282.479 -5.44017 1.71469 0
M  V30 3097 O 281.413 -4.85167 3.56226 0
M  V30 3098 H 285.239 -1.71848 2.50403 0
M  V30 3099 H 282.824 -0.790378 1.26781 0
M  V30 3100 H 284.706 -3.94634 1.47791 0
M  V30 3101 H 283.381 -3.1896 0.551898 0
M  V30 3102 H 282.288 -2.51549 2.769 0
M  V30 3103 H 283.621 -3.32416 3.62988 0
M  V30 3104 N 285.273 -1.31445 -0.869486 0
M  V30 3105 C 286.203 -1.21727 -1.99261 0
M  V30 3106 C 287.184 -0.104359 -1.6978 0
M  V30 3107 O 288.369 -0.289038 -1.92037 0
M  V30 3108 C 285.499 -0.924317 -3.34774 0
M  V30 3109 C 284.453 -1.99685 -3.78563 0
M  V30 3110 C 283.779 -1.55658 -5.11541 0
M  V30 3111 C 285.079 -3.41003 -3.95619 0
M  V30 3112 H 286.773 -2.1569 -2.07649 0
M  V30 3113 H 284.319 -1.03839 -0.997675 0
M  V30 3114 H 286.272 -0.842934 -4.12883 0
M  V30 3115 H 284.996 0.0509793 -3.2656 0
M  V30 3116 H 283.655 -2.06813 -3.02694 0
M  V30 3117 H 283.303 -0.569132 -4.9977 0
M  V30 3118 H 283.003 -2.27409 -5.41811 0
M  V30 3119 H 284.527 -1.48928 -5.92159 0
M  V30 3120 H 285.941 -3.36547 -4.64122 0
M  V30 3121 H 284.338 -4.10975 -4.37286 0
M  V30 3122 H 285.408 -3.81754 -2.98985 0
M  V30 3123 N 286.751 1.08385 -1.14413 0
M  V30 3124 C 287.684 2.14642 -0.774871 0
M  V30 3125 C 288.662 1.60761 0.243876 0
M  V30 3126 O 289.846 1.88031 0.132883 0
M  V30 3127 C 286.973 3.38366 -0.150491 0
M  V30 3128 C 286.019 4.10997 -1.13945 0
M  V30 3129 S 286.852 4.63797 -2.67679 0
M  V30 3130 C 288.008 5.90808 -2.06631 0
M  V30 3131 H 288.241 2.45633 -1.67487 0
M  V30 3132 H 285.774 1.20498 -0.96538 0
M  V30 3133 H 287.732 4.09996 0.203334 0
M  V30 3134 H 286.393 3.05572 0.72694 0
M  V30 3135 H 285.586 4.99783 -0.65059 0
M  V30 3136 H 285.188 3.4528 -1.43727 0
M  V30 3137 H 287.48 6.62411 -1.4219 0
M  V30 3138 H 288.423 6.4439 -2.93542 0
M  V30 3139 H 288.831 5.4383 -1.51357 0
M  V30 3140 N 288.23 0.939286 1.26551 0
M  V30 3141 C 289.477 0.585847 1.9384 0
M  V30 3142 C 289.805 -0.874784 1.73718 0
M  V30 3143 O 289.06 -1.64092 1.06642 0
M  V30 3144 C 289.359 0.872106 3.46596 0
M  V30 3145 C 289.025 2.31632 3.86856 0
M  V30 3146 C 287.687 2.71111 3.97558 0
M  V30 3147 C 290.039 3.25494 4.07066 0
M  V30 3148 C 287.367 4.03553 4.25866 0
M  V30 3149 C 289.719 4.57531 4.36862 0
M  V30 3150 C 288.383 4.96828 4.45778 0
M  V30 3151 H 287.653 0.214377 0.709312 0
M  V30 3152 H 290.3 1.18544 1.50398 0
M  V30 3153 H 288.605 0.18996 3.91339 0
M  V30 3154 H 290.302 0.577442 3.96821 0
M  V30 3155 H 286.892 2.00008 3.79071 0
M  V30 3156 H 291.076 2.9619 3.98227 0
M  V30 3157 H 286.332 4.33665 4.30981 0
M  V30 3158 H 290.506 5.30254 4.51446 0
M  V30 3159 H 288.133 5.99482 4.67468 0
M  V30 3160 N 289.708 -1.40897 0.706093 0
M  V30 3161 C 290.618 -2.3455 0.0482286 0
M  V30 3162 C 291.634 -1.56796 -0.754396 0
M  V30 3163 O 292.81 -1.89228 -0.689538 0
M  V30 3164 C 289.875 -3.35625 -0.869303 0
M  V30 3165 C 288.936 -4.29261 -0.0576994 0
M  V30 3166 C 288.169 -5.25508 -0.931531 0
M  V30 3167 O 288.392 -5.27472 -2.17092 0
M  V30 3168 O 287.326 -6.00727 -0.375587 0
M  V30 3169 H 291.152 -2.92407 0.820476 0
M  V30 3170 H 288.737 -1.4193 0.4665 0
M  V30 3171 H 290.619 -3.97635 -1.39514 0
M  V30 3172 H 289.294 -2.80196 -1.62086 0
M  V30 3173 H 288.201 -3.70566 0.512988 0
M  V30 3174 H 289.534 -4.87817 0.655426 0
M  V30 3175 N 291.186 -0.45159 -1.50991 0
M  V30 3176 C 292.411 0.110667 -2.07105 0
M  V30 3177 C 292.836 1.3446 -1.31538 0
M  V30 3178 O 292.194 1.77743 -0.357365 0
M  V30 3179 C 292.242 0.397238 -3.58405 0
M  V30 3180 O 291.346 1.48124 -3.84881 0
M  V30 3181 H 290.687 -0.00439271 -0.663985 0
M  V30 3182 H 293.217 -0.637026 -1.9443 0
M  V30 3183 H 293.227 0.64351 -4.02893 0
M  V30 3184 H 291.902 -0.504553 -4.12828 0
M  V30 3185 H 290.479 1.22381 -3.52246 0
M  V30 3186 N 292.664 1.56529 -0.183458 0
M  V30 3187 C 293.889 2.02064 0.467428 0
M  V30 3188 C 294.314 1.06282 1.55196 0
M  V30 3189 O 293.672 0.0443565 1.81246 0
M  V30 3190 C 293.72 3.46122 1.01153 0
M  V30 3191 O 292.824 3.53437 2.12499 0
M  V30 3192 H 292.165 0.654726 0.110588 0
M  V30 3193 H 294.695 2.02521 -0.290917 0
M  V30 3194 H 294.705 3.85676 1.33108 0
M  V30 3195 H 293.38 4.15331 0.217533 0
M  V30 3196 H 291.957 3.2575 1.81497 0
M  V30 3197 N 294.142 -0.090211 1.57342 0
M  V30 3198 C 295.367 -0.810082 1.90925 0
M  V30 3199 C 295.792 -1.71248 0.778187 0
M  V30 3200 O 295.15 -1.79278 -0.269991 0
M  V30 3201 C 295.198 -1.59529 3.23393 0
M  V30 3202 O 294.302 -2.70461 3.11327 0
M  V30 3203 H 293.643 -0.222231 0.625707 0
M  V30 3204 H 296.173 -0.0639716 2.045 0
M  V30 3205 H 296.183 -1.97847 3.5682 0
M  V30 3206 H 294.858 -0.933055 4.05299 0
M  V30 3207 H 293.435 -2.35135 2.89423 0
M  V30 3208 N 295.62 -1.53406 -0.361157 0
M  V30 3209 C 296.845 -1.74024 -1.12829 0
M  V30 3210 C 297.27 -0.470069 -1.82132 0
M  V30 3211 O 296.628 0.57619 -1.719 0
M  V30 3212 C 296.676 -2.90903 -2.13091 0
M  V30 3213 O 295.78 -2.59821 -3.20261 0
M  V30 3214 H 295.121 -0.577804 -0.327168 0
M  V30 3215 H 297.651 -2.00307 -0.41693 0
M  V30 3216 H 297.661 -3.17194 -2.56616 0
M  V30 3217 H 296.336 -3.83034 -1.62042 0
M  V30 3218 H 294.913 -2.44362 -2.81677 0
M  V30 3219 N 297.098 0.621204 -1.44841 0
M  V30 3220 C 298.338 1.39201 -1.49674 0
M  V30 3221 C 298.702 1.91561 -0.129764 0
M  V30 3222 O 299.903 2.68748 -0.0527814 0
M  V30 3223 C 298.174 2.519 -2.53537 0
M  V30 3224 S 299.733 3.39916 -2.77494 0
M  V30 3225 H 296.551 0.474758 -0.529269 0
M  V30 3226 H 299.153 0.718171 -1.81831 0
M  V30 3227 H 297.857 2.11761 -3.51547 0
M  V30 3228 H 297.388 3.241 -2.22986 0
M  V30 3229 H 299.403 4.49646 -2.0984 0
M  V30 3230 N 298.576 1.31904 0.862503 0
M  V30 3231 C 299.824 1.21776 1.61292 0
M  V30 3232 C 300.145 -0.222413 1.93727 0
M  V30 3233 O 299.415 -1.1451 1.58947 0
M  V30 3234 H 297.995 0.447717 0.597962 0
M  V30 3235 H 300.657 1.65326 1.03215 0
M  V30 3236 H 299.753 1.7948 2.5533 0
M  V30 3237 N 300.054 -1.07777 1.14986 0
M  V30 3238 C 301.3 -1.80719 0.93339 0
M  V30 3239 C 301.655 -1.8484 -0.534019 0
M  V30 3240 O 300.948 -1.31795 -1.3907 0
M  V30 3241 C 301.142 -3.25495 1.47608 0
M  V30 3242 C 300.971 -3.3548 2.99472 0
M  V30 3243 C 299.741 -3.46293 3.6798 0
M  V30 3244 C 301.939 -3.26596 3.97291 0
M  V30 3245 N 299.921 -3.45136 5.07695 0
M  V30 3246 C 301.292 -3.32506 5.23297 0
M  V30 3247 C 303.347 -3.10376 3.89321 0
M  V30 3248 C 302.05 -3.23866 6.42264 0
M  V30 3249 C 304.076 -3.03069 5.07842 0
M  V30 3250 C 303.438 -3.09587 6.32721 0
M  V30 3251 H 299.537 -0.674814 0.395158 0
M  V30 3252 H 302.121 -1.28681 1.46114 0
M  V30 3253 H 300.292 -3.75963 0.975022 0
M  V30 3254 H 302.024 -3.86535 1.19887 0
M  V30 3255 H 298.779 -3.50456 3.18555 0
M  V30 3256 H 299.203 -3.48097 5.80653 0
M  V30 3257 H 303.845 -3.04194 2.93642 0
M  V30 3258 H 301.563 -3.28807 7.38181 0
M  V30 3259 H 305.149 -2.91629 5.03432 0
M  V30 3260 H 304.029 -3.0397 7.22891 0
M  V30 3261 N 301.532 -0.945985 -1.26051 0
M  V30 3262 C 302.778 -0.597002 -1.93814 0
M  V30 3263 C 303.111 0.862484 -1.73997 0
M  V30 3264 O 302.386 1.61769 -1.07986 0
M  V30 3265 C 302.669 -0.945937 -3.47454 0
M  V30 3266 C 302.522 -2.46052 -3.76535 0
M  V30 3267 C 303.841 -0.464785 -4.37639 0
M  V30 3268 H 300.96 -0.218366 -0.703907 0
M  V30 3269 H 303.602 -1.18107 -1.48831 0
M  V30 3270 H 301.752 -0.448902 -3.85898 0
M  V30 3271 H 303.424 -3.03065 -3.47778 0
M  V30 3272 H 301.667 -2.90194 -3.22444 0
M  V30 3273 H 302.338 -2.65517 -4.83947 0
M  V30 3274 H 304.814 -0.891016 -4.06448 0
M  V30 3275 H 303.69 -0.737712 -5.4392 0
M  V30 3276 H 303.951 0.635274 -4.37512 0
M  V30 3277 N 303.011 1.40521 -0.713556 0
M  V30 3278 C 303.961 2.27971 -0.036165 0
M  V30 3279 C 304.945 1.43151 0.734623 0
M  V30 3280 O 306.137 1.66261 0.607158 0
M  V30 3281 C 303.266 3.31661 0.886331 0
M  V30 3282 C 302.352 4.23955 0.110836 0
M  V30 3283 N 302.743 4.97641 -0.904847 0
M  V30 3284 C 301.041 4.44674 0.343692 0
M  V30 3285 C 301.742 5.65322 -1.37064 0
M  V30 3286 N 300.718 5.39162 -0.693168 0
M  V30 3287 H 304.52 2.82384 -0.814645 0
M  V30 3288 H 302.034 1.52948 -0.545963 0
M  V30 3289 H 304.031 3.93154 1.38692 0
M  V30 3290 H 302.691 2.78808 1.66421 0
M  V30 3291 H 303.702 5.01689 -1.28563 0
M  V30 3292 H 300.379 4.02801 1.09805 0
M  V30 3293 H 301.769 6.34359 -2.21447 0
M  V30 3294 N 304.489 0.459591 1.5075 0
M  V30 3295 C 305.737 -0.0991532 2.01857 0
M  V30 3296 C 306.058 -1.41247 1.34441 0
M  V30 3297 O 305.328 -1.89775 0.486022 0
M  V30 3298 H 303.908 -0.039633 0.745948 0
M  V30 3299 H 306.57 0.607387 1.85194 0
M  V30 3300 H 305.666 -0.258998 3.11023 0
M  V30 3301 N 305.967 -1.56429 0.191757 0
M  V30 3302 C 307.213 -1.97777 -0.448554 0
M  V30 3303 C 307.546 -1.07847 -1.61501 0
M  V30 3304 O 306.821 -0.129774 -1.94067 0
M  V30 3305 C 307.104 -3.48362 -0.911906 0
M  V30 3306 C 306.957 -4.4907 0.256136 0
M  V30 3307 C 308.276 -4.02561 -1.77857 0
M  V30 3308 H 305.395 -0.719071 -0.161572 0
M  V30 3309 H 308.037 -1.87896 0.282007 0
M  V30 3310 H 306.187 -3.56914 -1.53442 0
M  V30 3311 H 307.859 -4.5256 0.893733 0
M  V30 3312 H 306.102 -4.24181 0.908436 0
M  V30 3313 H 306.773 -5.51889 -0.11053 0
M  V30 3314 H 309.249 -3.96767 -1.25359 0
M  V30 3315 H 308.125 -5.08301 -2.07174 0
M  V30 3316 H 308.386 -3.47616 -2.73158 0
M  V30 3317 N 307.445 0.0818655 -1.57387 0
M  V30 3318 C 308.685 0.788375 -1.88584 0
M  V30 3319 C 309.049 1.75248 -0.784351 0
M  V30 3320 O 310.25 2.50334 -0.979105 0
M  V30 3321 C 308.521 1.48654 -3.25018 0
M  V30 3322 S 310.08 2.22951 -3.7794 0
M  V30 3323 H 306.898 0.262383 -0.660815 0
M  V30 3324 H 309.5 0.0448995 -1.95448 0
M  V30 3325 H 308.204 0.770919 -4.03094 0
M  V30 3326 H 307.735 2.26965 -3.21326 0
M  V30 3327 H 309.75 3.49309 -3.52417 0
M  V30 3328 N 308.923 1.53595 0.353017 0
M  V30 3329 C 310.17 1.70385 1.09431 0
M  V30 3330 C 310.498 0.462113 1.88931 0
M  V30 3331 O 309.753 -0.556074 1.87633 0
M  V30 3332 C 310.052 2.91313 2.07054 0
M  V30 3333 C 309.718 4.27308 1.43939 0
M  V30 3334 C 308.38 4.64287 1.26454 0
M  V30 3335 C 310.732 5.11829 0.983883 0
M  V30 3336 C 308.06 5.83412 0.620226 0
M  V30 3337 C 310.412 6.31611 0.353516 0
M  V30 3338 C 309.076 6.67293 0.166272 0
M  V30 3339 H 308.346 0.623484 0.400436 0
M  V30 3340 H 310.993 1.87799 0.374655 0
M  V30 3341 H 309.298 2.68463 2.85368 0
M  V30 3342 H 310.995 3.01497 2.64387 0
M  V30 3343 H 307.585 3.98198 1.58543 0
M  V30 3344 H 311.769 4.838 1.10685 0
M  V30 3345 H 307.025 6.09639 0.463681 0
M  V30 3346 H 311.199 6.964 -0.00757555 0
M  V30 3347 H 308.826 7.59461 -0.335047 0
M  V30 3348 N 310.401 -0.613514 1.45168 0
M  V30 3349 C 311.626 -1.40437 1.52618 0
M  V30 3350 C 312.051 -1.87438 0.157707 0
M  V30 3351 O 311.409 -1.59791 -0.856537 0
M  V30 3352 C 311.457 -2.58894 2.51011 0
M  V30 3353 O 310.561 -3.59326 2.02382 0
M  V30 3354 H 309.902 -0.419506 0.514695 0
M  V30 3355 H 312.432 -0.747215 1.90467 0
M  V30 3356 H 312.442 -3.06214 2.69624 0
M  V30 3357 H 311.117 -2.24032 3.50403 0
M  V30 3358 H 309.694 -3.18695 1.93618 0
M  V30 3359 N 311.879 -1.3236 -0.855495 0
M  V30 3360 C 312.842 -1.21164 -1.94556 0
M  V30 3361 C 313.842 -0.134908 -1.60233 0
M  V30 3362 O 315.032 -0.385249 -1.69887 0
M  V30 3363 C 312.164 -0.863192 -3.29791 0
M  V30 3364 H 313.357 -2.18038 -2.05911 0
M  V30 3365 H 310.91 -1.16179 -1.04557 0
M  V30 3366 H 311.645 0.103769 -3.24134 0
M  V30 3367 H 311.43 -1.64166 -3.56078 0
M  V30 3368 H 312.92 -0.809156 -4.09686 0
M  V30 3369 N 313.357 1.07166 -1.15556 0
M  V30 3370 C 314.582 1.84053 -0.955988 0
M  V30 3371 C 315.007 1.81586 0.490739 0
M  V30 3372 O 314.365 1.21018 1.34997 0
M  V30 3373 C 314.413 3.28957 -1.47714 0
M  V30 3374 O 313.517 4.06795 -0.677593 0
M  V30 3375 H 312.858 0.569842 -0.340847 0
M  V30 3376 H 315.388 1.35178 -1.53584 0
M  V30 3377 H 315.398 3.79788 -1.4908 0
M  V30 3378 H 314.073 3.30068 -2.53037 0
M  V30 3379 H 312.65 3.6561 -0.733721 0
M  V30 3380 N 314.835 0.952656 1.25548 0
M  V30 3381 C 316.083 0.605176 1.92826 0
M  V30 3382 C 316.404 -0.860261 1.74999 0
M  V30 3383 O 315.674 -1.6125 1.11244 0
M  V30 3384 H 314.254 0.220832 0.713612 0
M  V30 3385 H 316.916 1.21047 1.52754 0
M  V30 3386 H 316.012 0.832798 3.00784 0
M  V30 3387 N 316.313 -1.40141 0.720998 0
M  V30 3388 C 317.538 -2.05618 0.271258 0
M  V30 3389 C 317.963 -1.53978 -1.08039 0
M  V30 3390 O 317.321 -0.677463 -1.68167 0
M  V30 3391 C 317.369 -3.59609 0.267197 0
M  V30 3392 O 316.473 -4.05526 -0.749814 0
M  V30 3393 H 315.814 -0.651904 0.126162 0
M  V30 3394 H 318.344 -1.79439 0.982997 0
M  V30 3395 H 318.354 -4.0786 0.106744 0
M  V30 3396 H 317.029 -3.96559 1.25354 0
M  V30 3397 H 315.606 -3.68722 -0.556644 0
M  V30 3398 N 317.792 -0.46758 -1.50504 0
M  V30 3399 C 319.208 -0.121533 -1.59137 0
M  V30 3400 C 319.408 1.3717 -1.47603 0
M  V30 3401 O 318.464 2.14464 -1.33272 0
M  V30 3402 C 319.777 -0.6686 -2.93173 0
M  V30 3403 C 321.325 -0.631716 -3.06559 0
M  V30 3404 C 321.8 -1.15627 -4.43164 0
M  V30 3405 N 323.291 -1.11553 -4.49567 0
M  V30 3406 C 324.026 -1.49195 -5.5365 0
M  V30 3407 N 323.522 -1.94269 -6.65005 0
M  V30 3408 N 325.315 -1.4082 -5.44175 0
M  V30 3409 H 317.466 -1.4388 -1.56245 0
M  V30 3410 H 319.729 -0.594784 -0.738198 0
M  V30 3411 H 319.435 -1.71453 -3.07078 0
M  V30 3412 H 319.309 -0.11021 -3.77039 0
M  V30 3413 H 321.696 0.405297 -2.92304 0
M  V30 3414 H 321.777 -1.22687 -2.24458 0
M  V30 3415 H 321.421 -2.1919 -4.58168 0
M  V30 3416 H 321.351 -0.537365 -5.23851 0
M  V30 3417 H 323.842 -0.784895 -3.69659 0
M  V30 3418 H 324.155 -2.21148 -7.40482 0
M  V30 3419 H 322.5 -1.98219 -6.66134 0
M  V30 3420 H 325.691 -1.0545 -4.56068 0
M  V30 3421 H 325.864 -1.70481 -6.25172 0
M  V30 3422 N 319.27 1.56325 -0.20005 0
M  V30 3423 C 320.516 1.98012 0.438059 0
M  V30 3424 C 320.849 1.08702 1.60927 0
M  V30 3425 O 320.124 0.140064 1.93995 0
M  V30 3426 C 320.407 3.48841 0.893419 0
M  V30 3427 C 320.26 4.48928 -0.279947 0
M  V30 3428 C 321.579 4.03498 1.75719 0
M  V30 3429 H 318.698 0.719918 0.157757 0
M  V30 3430 H 321.34 1.87743 -0.291968 0
M  V30 3431 H 319.49 3.57723 1.51547 0
M  V30 3432 H 321.162 4.52079 -0.91772 0
M  V30 3433 H 319.405 4.23694 -0.930919 0
M  V30 3434 H 320.076 5.5194 0.0812601 0
M  V30 3435 H 322.552 3.97427 1.23253 0
M  V30 3436 H 321.428 5.09393 2.04476 0
M  V30 3437 H 321.689 3.4906 2.71311 0
M  V30 3438 N 320.748 -0.0735177 1.57428 0
M  V30 3439 C 321.711 -1.07192 2.02589 0
M  V30 3440 C 322.711 -1.31695 0.922661 0
M  V30 3441 O 323.901 -1.27445 1.18758 0
M  V30 3442 C 321.033 -2.41599 2.40506 0
M  V30 3443 H 322.226 -0.682727 2.92025 0
M  V30 3444 H 319.779 -0.319193 1.53006 0
M  V30 3445 H 320.514 -2.85354 1.5409 0
M  V30 3446 H 320.299 -2.25156 3.21009 0
M  V30 3447 H 321.789 -3.13367 2.76027 0
M  V30 3448 N 322.226 -1.5378 -0.344866 0
M  V30 3449 C 323.472 -1.72158 -1.0832 0
M  V30 3450 C 323.827 -0.478218 -1.86362 0
M  V30 3451 O 323.12 0.529152 -1.84148 0
M  V30 3452 C 323.314 -2.92407 -2.05506 0
M  V30 3453 C 323.143 -4.28318 -1.37017 0
M  V30 3454 C 321.913 -4.92832 -1.11558 0
M  V30 3455 C 324.111 -5.08086 -0.797071 0
M  V30 3456 N 322.093 -6.12619 -0.396358 0
M  V30 3457 C 323.464 -6.1965 -0.208336 0
M  V30 3458 C 325.519 -4.92986 -0.697787 0
M  V30 3459 C 324.222 -7.17763 0.470023 0
M  V30 3460 C 326.248 -5.91391 -0.033171 0
M  V30 3461 C 325.61 -7.02292 0.544599 0
M  V30 3462 H 321.709 -0.683017 -0.380805 0
M  V30 3463 H 324.293 -1.91211 -0.366961 0
M  V30 3464 H 322.464 -2.74857 -2.74423 0
M  V30 3465 H 324.196 -2.9951 -2.72169 0
M  V30 3466 H 320.951 -4.52362 -1.40234 0
M  V30 3467 H 321.375 -6.7698 -0.0515119 0
M  V30 3468 H 326.017 -4.07414 -1.13022 0
M  V30 3469 H 323.735 -8.0291 0.914351 0
M  V30 3470 H 327.321 -5.81784 0.0430009 0
M  V30 3471 H 326.201 -7.77129 1.05073 0
M  V30 3472 N 323.704 0.605807 -1.45491 0
M  V30 3473 C 324.95 1.36679 -1.49823 0
M  V30 3474 C 325.283 1.93693 -0.140175 0
M  V30 3475 O 324.558 1.75158 0.845581 0
M  V30 3476 C 324.841 2.51337 -2.57879 0
M  V30 3477 C 324.694 1.99508 -4.03134 0
M  V30 3478 C 326.013 3.53463 -2.62205 0
M  V30 3479 H 323.132 0.495617 -0.545466 0
M  V30 3480 H 325.774 0.682732 -1.7731 0
M  V30 3481 H 323.924 3.09691 -2.34571 0
M  V30 3482 H 325.596 1.45789 -4.37656 0
M  V30 3483 H 323.839 1.30496 -4.13707 0
M  V30 3484 H 324.51 2.82169 -4.74431 0
M  V30 3485 H 326.986 3.04953 -2.83095 0
M  V30 3486 H 325.862 4.31178 -3.39672 0
M  V30 3487 H 326.123 4.09197 -1.67363 0
M  V30 3488 N 325.182 1.32811 0.848464 0
M  V30 3489 C 326.407 1.26882 1.6406 0
M  V30 3490 C 326.832 -0.15913 1.87426 0
M  V30 3491 O 326.19 -1.11258 1.43148 0
M  V30 3492 C 326.238 2.03997 2.97351 0
M  V30 3493 O 325.342 1.39201 3.88197 0
M  V30 3494 H 324.683 0.436982 0.499943 0
M  V30 3495 H 327.213 1.75224 1.0563 0
M  V30 3496 H 327.223 2.14403 3.47124 0
M  V30 3497 H 325.898 3.0783 2.79666 0
M  V30 3498 H 324.475 1.37381 3.46671 0
M  V30 3499 N 326.66 -1.06551 1.16123 0
M  V30 3500 C 327.61 -2.12209 0.833736 0
M  V30 3501 C 328.594 -1.59825 -0.185656 0
M  V30 3502 O 329.786 -1.76994 0.0147906 0
M  V30 3503 C 326.915 -3.41674 0.333697 0
M  V30 3504 C 326.001 -4.00892 1.38372 0
M  V30 3505 N 326.392 -4.34256 2.59337 0
M  V30 3506 C 324.69 -4.28463 1.23836 0
M  V30 3507 C 325.391 -4.81291 3.26701 0
M  V30 3508 N 324.367 -4.80565 2.54083 0
M  V30 3509 H 328.169 -2.35849 1.75364 0
M  V30 3510 H 325.683 -1.24068 1.04789 0
M  V30 3511 H 327.68 -4.16822 0.0806918 0
M  V30 3512 H 326.34 -3.19475 -0.58017 0
M  V30 3513 H 327.351 -4.24687 2.96415 0
M  V30 3514 H 324.028 -4.15721 0.38504 0
M  V30 3515 H 325.418 -5.16332 4.29943 0
M  V30 3516 N 328.138 -0.959301 -1.25041 0
M  V30 3517 C 329.415 -0.533805 -1.88175 0
M  V30 3518 C 329.795 0.988994 -1.865 0
M  V30 3519 O 329.143 1.85677 -1.33177 0
M  V30 3520 C 329.353 -1.11575 -3.30684 0
M  V30 3521 C 330.701 -1.19548 -4.07423 0
M  V30 3522 O 331.725 -1.06765 -3.39823 0
M  V30 3523 O 330.584 -1.39656 -5.28354 0
M  V30 3524 H 327.678 -0.176772 -0.807887 0
M  V30 3525 H 330.224 -1.05303 -1.33076 0
M  V30 3526 H 328.996 -2.15884 -3.26358 0
M  V30 3527 H 328.619 -0.580059 -3.93346 0
M  V30 3528 N 329.616 1.39756 -0.72842 0
M  V30 3529 C 330.841 2.05472 -0.282159 0
M  V30 3530 C 331.266 1.54549 1.07221 0
M  V30 3531 O 330.624 0.686372 1.67805 0
M  V30 3532 C 330.672 3.59462 -0.286264 0
M  V30 3533 O 329.776 4.05918 0.728298 0
M  V30 3534 H 329.117 0.651226 -0.129618 0
M  V30 3535 H 331.647 1.78915 -0.992499 0
M  V30 3536 H 331.657 4.07798 -0.128373 0
M  V30 3537 H 330.332 3.95889 -1.27456 0
M  V30 3538 H 328.909 3.69012 0.537081 0
M  V30 3539 N 331.094 0.475555 1.50254 0
M  V30 3540 C 332.322 -0.0754493 2.06762 0
M  V30 3541 C 332.737 -1.33111 1.33891 0
M  V30 3542 O 332.094 -1.77846 0.40952 0
M  V30 3543 C 332.145 -0.359008 3.59713 0
M  V30 3544 O 331.866 0.846851 4.29837 0
M  V30 3545 C 333.367 -0.956484 4.32858 0
M  V30 3546 H 330.587 0.00907525 0.670939 0
M  V30 3547 H 333.131 0.665618 1.93364 0
M  V30 3548 H 331.286 -1.05001 3.72899 0
M  V30 3549 H 331.7 0.594162 5.21124 0
M  V30 3550 H 333.174 -1.10463 5.40834 0
M  V30 3551 H 333.651 -1.94775 3.93649 0
M  V30 3552 H 334.257 -0.303723 4.24214 0
M  V30 3553 N 332.573 -1.56217 0.208337 0
M  V30 3554 C 333.819 -1.98242 -0.427552 0
M  V30 3555 C 334.152 -1.09554 -1.60348 0
M  V30 3556 O 333.427 -0.15035 -1.93918 0
M  V30 3557 C 333.71 -3.4931 -0.874907 0
M  V30 3558 C 333.563 -4.48773 0.303751 0
M  V30 3559 C 334.882 -4.04424 -1.73577 0
M  V30 3560 H 332.001 -0.720744 -0.153936 0
M  V30 3561 H 334.643 -1.87586 0.30192 0
M  V30 3562 H 332.793 -3.58522 -1.49648 0
M  V30 3563 H 334.465 -4.51586 0.941682 0
M  V30 3564 H 332.708 -4.23194 0.953375 0
M  V30 3565 H 333.379 -5.51976 -0.0519883 0
M  V30 3566 H 335.855 -3.98075 -1.21143 0
M  V30 3567 H 334.731 -5.1047 -2.01771 0
M  V30 3568 H 334.992 -3.50494 -2.69456 0
M  V30 3569 N 334.051 0.0651679 -1.57465 0
M  V30 3570 C 335.291 0.768329 -1.8941 0
M  V30 3571 C 335.655 1.74406 -0.802894 0
M  V30 3572 O 336.856 2.49281 -1.0056 0
M  V30 3573 C 335.127 1.45199 -3.26576 0
M  V30 3574 S 336.686 2.1893 -3.80283 0
M  V30 3575 H 333.504 0.255359 -0.663561 0
M  V30 3576 H 336.106 0.024167 -1.95485 0
M  V30 3577 H 334.81 0.728123 -4.03889 0
M  V30 3578 H 334.341 2.23545 -3.23715 0
M  V30 3579 H 336.356 3.45551 -3.56102 0
M  V30 3580 N 335.529 1.53961 0.336706 0
M  V30 3581 C 336.459 1.85417 1.41925 0
M  V30 3582 C 337.44 0.709856 1.5458 0
M  V30 3583 O 338.625 0.962396 1.68676 0
M  V30 3584 C 335.755 2.06985 2.78881 0
M  V30 3585 C 334.709 3.22813 2.81026 0
M  V30 3586 C 334.035 3.29727 4.20932 0
M  V30 3587 C 335.335 4.60767 2.45949 0
M  V30 3588 H 337.029 2.76079 1.15848 0
M  V30 3589 H 334.575 1.32839 0.555859 0
M  V30 3590 H 336.528 2.27575 3.54665 0
M  V30 3591 H 335.252 1.13061 3.06406 0
M  V30 3592 H 333.911 3.0209 2.07695 0
M  V30 3593 H 333.559 2.33385 4.45579 0
M  V30 3594 H 333.259 4.07566 4.23277 0
M  V30 3595 H 334.783 3.52536 4.98549 0
M  V30 3596 H 336.197 4.81325 3.11446 0
M  V30 3597 H 334.594 5.4106 2.59566 0
M  V30 3598 H 335.664 4.6391 1.41122 0
M  V30 3599 N 337.007 -0.598083 1.45811 0
M  V30 3600 C 337.97 -1.69018 1.54808 0
M  V30 3601 C 338.97 -1.55037 0.426652 0
M  V30 3602 O 340.16 -1.59932 0.690456 0
M  V30 3603 C 337.292 -3.0835 1.45371 0
M  V30 3604 H 338.485 -1.62403 2.52121 0
M  V30 3605 H 336.038 -0.814626 1.33392 0
M  V30 3606 H 336.773 -3.20534 0.492793 0
M  V30 3607 H 336.558 -3.19907 2.26721 0
M  V30 3608 H 338.048 -3.8788 1.54721 0
M  V30 3609 N 338.485 -1.33259 -0.841409 0
M  V30 3610 C 339.762 -1.15174 -1.58096 0
M  V30 3611 C 340.142 0.282858 -2.09196 0
M  V30 3612 O 339.49 1.28151 -1.89181 0
M  V30 3613 C 339.7 -2.1907 -2.71679 0
M  V30 3614 C 341.048 -2.53093 -3.40924 0
M  V30 3615 O 342.072 -2.17717 -2.81918 0
M  V30 3616 O 340.931 -3.1379 -4.47435 0
M  V30 3617 H 338.025 -0.445303 -0.696875 0
M  V30 3618 H 340.571 -1.44833 -0.884385 0
M  V30 3619 H 339.343 -3.15443 -2.31541 0
M  V30 3620 H 338.966 -1.90481 -3.49002 0
M  V30 3621 N 339.963 1.05934 -1.16686 0
M  V30 3622 C 340.926 2.11669 -0.879144 0
M  V30 3623 C 341.926 1.60294 0.127445 0
M  V30 3624 O 343.116 1.7389 -0.103865 0
M  V30 3625 C 340.248 3.39438 -0.315425 0
M  V30 3626 H 341.441 2.38626 -1.81653 0
M  V30 3627 H 338.994 1.22058 -0.976299 0
M  V30 3628 H 339.729 3.18132 0.629468 0
M  V30 3629 H 339.514 3.78034 -1.04079 0
M  V30 3630 H 341.004 4.17391 -0.132189 0
M  V30 3631 N 341.441 0.965919 1.2453 0
M  V30 3632 C 342.718 0.543777 1.87889 0
M  V30 3633 C 343.098 -0.97909 1.87021 0
M  V30 3634 O 342.446 -1.84969 1.3416 0
M  V30 3635 C 342.656 1.13327 3.30088 0
M  V30 3636 C 344.004 1.21707 4.06783 0
M  V30 3637 O 345.028 1.08566 3.39252 0
M  V30 3638 O 343.887 1.42456 5.27606 0
M  V30 3639 H 340.981 0.181054 0.806938 0
M  V30 3640 H 343.527 1.06007 1.32516 0
M  V30 3641 H 342.299 2.17612 3.25209 0
M  V30 3642 H 341.922 0.600911 3.93033 0
M  V30 3643 N 342.919 -1.39368 0.735821 0
M  V30 3644 C 343.866 -2.30599 0.0963825 0
M  V30 3645 C 344.836 -1.49257 -0.728794 0
M  V30 3646 O 346.021 -1.77941 -0.688588 0
M  V30 3647 C 343.161 -3.35596 -0.804305 0
M  V30 3648 C 342.274 -4.31987 0.0335761 0
M  V30 3649 C 341.409 -5.24053 -0.868461 0
M  V30 3650 C 340.448 -6.12095 -0.0258776 0
M  V30 3651 N 339.585 -6.96514 -0.883893 0
M  V30 3652 H 344.425 -2.8471 0.880002 0
M  V30 3653 H 341.962 -1.40188 0.445619 0
M  V30 3654 H 343.92 -3.95062 -1.34096 0
M  V30 3655 H 342.55 -2.82938 -1.55389 0
M  V30 3656 H 341.602 -3.74133 0.68766 0
M  V30 3657 H 342.914 -4.94074 0.685036 0
M  V30 3658 H 342.068 -5.88549 -1.47293 0
M  V30 3659 H 340.807 -4.62289 -1.5537 0
M  V30 3660 H 339.812 -5.4661 0.591386 0
M  V30 3661 H 341.037 -6.75923 0.656156 0
M  V30 3662 H 338.983 -6.37318 -1.55441 0
M  V30 3663 H 338.9 -7.55448 -0.288931 0
M  V30 3664 H 340.168 -7.65439 -1.4739 0
M  V30 3665 N 344.397 -0.483516 -1.5 0
M  V30 3666 C 345.344 0.304164 -2.28787 0
M  V30 3667 C 346.314 0.976114 -1.34392 0
M  V30 3668 O 347.499 0.986156 -1.63339 0
M  V30 3669 C 344.639 1.37298 -3.16612 0
M  V30 3670 C 343.752 0.714561 -4.26049 0
M  V30 3671 C 342.887 1.76232 -5.01114 0
M  V30 3672 C 341.926 1.08483 -6.0241 0
M  V30 3673 N 341.063 2.076 -6.70706 0
M  V30 3674 H 345.903 -0.373981 -2.95644 0
M  V30 3675 H 343.44 -0.196275 -1.45785 0
M  V30 3676 H 345.398 2.00445 -3.65893 0
M  V30 3677 H 344.028 2.02012 -2.51776 0
M  V30 3678 H 343.08 -0.0297798 -3.80388 0
M  V30 3679 H 344.392 0.180383 -4.98474 0
M  V30 3680 H 343.546 2.46929 -5.54176 0
M  V30 3681 H 342.285 2.33033 -4.28424 0
M  V30 3682 H 341.29 0.363545 -5.48597 0
M  V30 3683 H 342.515 0.523551 -6.77079 0
M  V30 3684 H 340.461 2.63394 -6.00799 0
M  V30 3685 H 340.378 1.59201 -7.39047 0
M  V30 3686 H 341.646 2.77639 -7.2838 0
M  V30 3687 N 345.875 1.56104 -0.216619 0
M  V30 3688 C 346.808 2.16026 0.735395 0
M  V30 3689 C 347.786 1.1032 1.1945 0
M  V30 3690 O 348.97 1.38549 1.27814 0
M  V30 3691 C 346.097 2.73656 1.99575 0
M  V30 3692 C 345.143 3.92146 1.67702 0
M  V30 3693 S 345.976 5.29397 0.806145 0
M  V30 3694 C 347.132 5.90463 2.07617 0
M  V30 3695 H 347.365 2.96439 0.226072 0
M  V30 3696 H 344.898 1.544 -0.00136639 0
M  V30 3697 H 346.856 3.075 2.71945 0
M  V30 3698 H 345.517 1.93245 2.47619 0
M  V30 3699 H 344.71 4.30954 2.61332 0
M  V30 3700 H 344.312 3.59423 1.03398 0
M  V30 3701 H 346.604 6.06136 3.02664 0
M  V30 3702 H 347.547 6.86589 1.73207 0
M  V30 3703 H 347.955 5.19252 2.21445 0
M  V30 3704 N 347.353 -0.0568162 1.57498 0
M  V30 3705 C 348.316 -1.05038 2.03715 0
M  V30 3706 C 349.316 -1.30709 0.936577 0
M  V30 3707 O 350.506 -1.26178 1.20103 0
M  V30 3708 C 347.638 -2.39034 2.43055 0
M  V30 3709 H 348.831 -0.651715 2.92733 0
M  V30 3710 H 346.384 -0.302947 1.53336 0
M  V30 3711 H 347.119 -2.83703 1.57108 0
M  V30 3712 H 346.904 -2.21739 3.2338 0
M  V30 3713 H 348.394 -3.10421 2.79336 0
M  V30 3714 N 348.832 -1.54138 -0.328536 0
M  V30 3715 C 350.078 -1.7236 -1.06865 0
M  V30 3716 C 350.411 -0.493231 -1.87832 0
M  V30 3717 O 349.686 0.5098 -1.877 0
M  V30 3718 C 349.969 -2.99621 -1.99747 0
M  V30 3719 C 349.822 -4.32899 -1.22143 0
M  V30 3720 C 351.141 -3.22615 -2.99345 0
M  V30 3721 H 348.26 -0.627151 -0.387105 0
M  V30 3722 H 350.902 -1.86827 -0.345767 0
M  V30 3723 H 349.052 -2.87418 -2.61387 0
M  V30 3724 H 350.724 -4.56978 -0.630017 0
M  V30 3725 H 348.967 -4.30628 -0.523628 0
M  V30 3726 H 349.638 -5.18154 -1.90318 0
M  V30 3727 H 352.114 -3.34248 -2.47826 0
M  V30 3728 H 350.99 -4.13027 -3.61524 0
M  V30 3729 H 351.251 -2.3961 -3.71536 0
M  V30 3730 N 350.31 0.590341 -1.46126 0
M  V30 3731 C 351.273 1.68194 -1.55703 0
M  V30 3732 C 352.273 1.54808 -0.434868 0
M  V30 3733 O 353.463 1.59564 -0.698928 0
M  V30 3734 C 350.595 3.07575 -1.47005 0
M  V30 3735 H 351.788 1.61064 -2.52979 0
M  V30 3736 H 349.341 0.807541 -1.33823 0
M  V30 3737 H 350.076 3.20268 -0.509785 0
M  V30 3738 H 349.861 3.187 -2.28414 0
M  V30 3739 H 351.351 3.87055 -1.56776 0
M  V30 3740 N 351.788 1.33704 0.83433 0
M  V30 3741 C 353.016 1.28467 1.62185 0
M  V30 3742 C 353.431 -0.143526 1.88254 0
M  V30 3743 O 352.788 -1.08709 1.4659 0
M  V30 3744 C 352.839 2.06174 2.96942 0
M  V30 3745 O 352.56 3.43422 2.72016 0
M  V30 3746 C 354.061 2.08201 3.91366 0
M  V30 3747 H 351.281 0.4424 0.504503 0
M  V30 3748 H 353.825 1.76145 1.03891 0
M  V30 3749 H 351.98 1.62167 3.51825 0
M  V30 3750 H 352.394 3.83453 3.57861 0
M  V30 3751 H 353.868 2.67017 4.83121 0
M  V30 3752 H 354.345 1.07343 4.2588 0
M  V30 3753 H 354.951 2.52246 3.42421 0
M  V30 3754 N 353.266 -1.05314 1.17247 0
M  V30 3755 C 354.196 -2.1498 0.911362 0
M  V30 3756 C 355.177 -1.69471 -0.146169 0
M  V30 3757 O 356.362 -1.942 0.003812 0
M  V30 3758 C 353.492 -3.4472 0.422528 0
M  V30 3759 C 352.446 -4.03789 1.4191 0
M  V30 3760 C 351.772 -5.28858 0.788274 0
M  V30 3761 C 353.072 -4.41418 2.7919 0
M  V30 3762 H 354.766 -2.3708 1.82848 0
M  V30 3763 H 352.312 -1.13938 0.880569 0
M  V30 3764 H 354.265 -4.20787 0.227289 0
M  V30 3765 H 352.989 -3.22269 -0.530123 0
M  V30 3766 H 351.648 -3.2979 1.60106 0
M  V30 3767 H 351.296 -5.02709 -0.171173 0
M  V30 3768 H 350.996 -5.69338 1.45353 0
M  V30 3769 H 352.52 -6.07612 0.603282 0
M  V30 3770 H 353.934 -5.08524 2.64719 0
M  V30 3771 H 352.331 -4.92913 3.42282 0
M  V30 3772 H 353.401 -3.51819 3.33693 0
M  V30 3773 N 354.744 -0.972509 -1.24016 0
M  V30 3774 C 355.707 -0.511403 -2.23422 0
M  V30 3775 C 356.707 0.394679 -1.55881 0
M  V30 3776 O 357.897 0.189469 -1.73167 0
M  V30 3777 C 355.029 0.258769 -3.39916 0
M  V30 3778 H 356.222 -1.39024 -2.6573 0
M  V30 3779 H 353.775 -0.757585 -1.36713 0
M  V30 3780 H 354.51 1.1545 -3.03054 0
M  V30 3781 H 354.295 -0.391522 -3.9014 0
M  V30 3782 H 355.785 0.570244 -4.13688 0
M  V30 3783 N 356.222 1.38976 -0.743202 0
M  V30 3784 C 357.447 2.05161 -0.303936 0
M  V30 3785 C 357.872 1.55677 1.05576 0
M  V30 3786 O 357.23 0.704131 1.67068 0
M  V30 3787 C 357.278 3.59138 -0.324373 0
M  V30 3788 O 356.382 4.06668 0.685204 0
M  V30 3789 H 355.723 0.649815 -0.136518 0
M  V30 3790 H 358.253 1.77852 -1.01142 0
M  V30 3791 H 358.263 4.07639 -0.171618 0
M  V30 3792 H 356.938 3.94515 -1.31647 0
M  V30 3793 H 355.515 3.69561 0.497913 0
M  V30 3794 N 357.7 0.491464 1.49741 0
M  V30 3795 C 358.61 -0.296835 2.32715 0
M  V30 3796 C 359.626 -0.976536 1.44013 0
M  V30 3797 O 360.802 -0.960023 1.77047 0
M  V30 3798 C 357.867 -1.35288 3.19215 0
M  V30 3799 C 356.928 -0.687632 4.23757 0
M  V30 3800 C 356.161 -1.69336 5.06123 0
M  V30 3801 O 356.384 -2.92219 4.89861 0
M  V30 3802 O 355.318 -1.25394 5.88693 0
M  V30 3803 H 359.144 0.382048 3.01287 0
M  V30 3804 H 356.729 0.252953 1.47243 0
M  V30 3805 H 358.611 -1.96411 3.72828 0
M  V30 3806 H 357.286 -2.01487 2.53347 0
M  V30 3807 H 356.193 -0.0369159 3.74082 0
M  V30 3808 H 357.526 -0.0682566 4.92153 0
M  V30 3809 N 359.178 -1.55987 0.224894 0
M  V30 3810 C 360.406 -2.02784 -0.410665 0
M  V30 3811 C 360.821 -1.10464 -1.53112 0
M  V30 3812 O 360.178 -0.114871 -1.82138 0
M  V30 3813 C 360.229 -3.49087 -0.939165 0
M  V30 3814 O 359.95 -4.37887 0.136614 0
M  V30 3815 C 361.451 -4.11543 -1.64763 0
M  V30 3816 H 358.671 -0.663484 -0.100148 0
M  V30 3817 H 361.215 -2.01614 0.342326 0
M  V30 3818 H 359.37 -3.50861 -1.64242 0
M  V30 3819 H 359.784 -5.23849 -0.261155 0
M  V30 3820 H 361.258 -5.15673 -1.96939 0
M  V30 3821 H 361.735 -3.56736 -2.56195 0
M  V30 3822 H 362.341 -4.13629 -0.989503 0
M  V30 3823 N 360.656 0.0484629 -1.57525 0
M  V30 3824 C 361.586 1.0549 -2.08313 0
M  V30 3825 C 362.567 1.38929 -0.981463 0
M  V30 3826 O 363.752 1.48151 -1.25558 0
M  V30 3827 C 360.882 2.36162 -2.54646 0
M  V30 3828 C 359.836 2.17016 -3.68901 0
M  V30 3829 C 359.162 3.53278 -4.01371 0
M  V30 3830 C 360.462 1.57219 -4.98076 0
M  V30 3831 H 362.156 0.632195 -2.92649 0
M  V30 3832 H 359.702 0.302654 -1.40784 0
M  V30 3833 H 361.655 3.06882 -2.88793 0
M  V30 3834 H 360.379 2.80456 -1.67368 0
M  V30 3835 H 359.038 1.48733 -3.35073 0
M  V30 3836 H 358.686 3.95185 -3.11188 0
M  V30 3837 H 358.386 3.41299 -4.78318 0
M  V30 3838 H 359.91 4.25391 -4.38035 0
M  V30 3839 H 361.324 2.17832 -5.30304 0
M  V30 3840 H 359.721 1.55871 -5.79503 0
M  V30 3841 H 360.791 0.535956 -4.81929 0
M  V30 3842 N 362.134 1.5431 0.320358 0
M  V30 3843 C 363.545 1.63872 0.894594 0
M  V30 3844 C 363.896 0.534847 1.88769 0
M  V30 3845 O 363.021 -0.331732 2.13842 0
M  V30 3846 C 363.616 2.97049 1.62934 0
M  V30 3847 C 362.175 3.08796 2.15226 0
M  V30 3848 C 361.322 2.59456 0.978671 0
M  V30 3849 H 364.273 1.58398 0.0978544 0
M  V30 3850 H 364.294 2.87388 2.49376 0
M  V30 3851 H 363.806 3.7737 0.906302 0
M  V30 3852 H 361.907 2.33156 2.90636 0
M  V30 3853 H 362.02 4.14649 2.40006 0
M  V30 3854 H 360.384 2.1543 1.35875 0
M  V30 3855 H 361.167 3.42237 0.269895 0
M  V30 3856 N 363.613 -0.582584 1.46437 0
M  V30 3857 C 364.543 -1.70187 1.59871 0
M  V30 3858 C 365.524 -1.64066 0.449042 0
M  V30 3859 O 366.709 -1.82081 0.6753 0
M  V30 3860 C 363.839 -3.08827 1.58881 0
M  V30 3861 C 362.793 -3.29779 2.72819 0
M  V30 3862 C 362.119 -4.68947 2.5689 0
M  V30 3863 C 363.419 -3.17601 4.1464 0
M  V30 3864 H 365.113 -1.592 2.53566 0
M  V30 3865 H 362.659 -0.764472 1.22032 0
M  V30 3866 H 364.612 -3.86951 1.66873 0
M  V30 3867 H 363.336 -3.20713 0.617306 0
M  V30 3868 H 361.995 -2.54054 2.64296 0
M  V30 3869 H 361.643 -4.77599 1.57823 0
M  V30 3870 H 361.343 -4.83919 3.33312 0
M  V30 3871 H 362.867 -5.4924 2.66773 0
M  V30 3872 H 364.281 -3.8557 4.24274 0
M  V30 3873 H 362.678 -3.44094 4.9165 0
M  V30 3874 H 363.748 -2.14681 4.34788 0
M  V30 3875 N 365.091 -1.34144 -0.827227 0
M  V30 3876 C 366.021 -1.28005 -1.95287 0
M  V30 3877 C 367.002 -0.158321 -1.69362 0
M  V30 3878 O 368.187 -0.349987 -1.9102 0
M  V30 3879 C 365.317 -1.03036 -3.31664 0
M  V30 3880 C 364.271 -2.11628 -3.72019 0
M  V30 3881 C 363.597 -1.71854 -5.0633 0
M  V30 3882 C 364.897 -3.53417 -3.8457 0
M  V30 3883 H 366.591 -2.22187 -2.00682 0
M  V30 3884 H 364.137 -1.0696 -0.964135 0
M  V30 3885 H 366.09 -0.973863 -4.09993 0
M  V30 3886 H 364.814 -0.0529391 -3.26557 0
M  V30 3887 H 363.473 -2.16339 -2.95961 0
M  V30 3888 H 363.121 -0.727841 -4.97706 0
M  V30 3889 H 362.821 -2.44531 -5.34302 0
M  V30 3890 H 364.345 -1.67692 -5.87122 0
M  V30 3891 H 365.759 -3.51142 -4.5318 0
M  V30 3892 H 364.156 -4.24679 -4.2399 0
M  V30 3893 H 365.226 -3.91072 -2.86689 0
M  V30 3894 N 366.569 1.04691 -1.17803 0
M  V30 3895 C 367.532 2.10724 -0.901545 0
M  V30 3896 C 368.532 1.6042 0.110437 0
M  V30 3897 O 369.722 1.7377 -0.122303 0
M  V30 3898 C 366.854 3.39084 -0.351409 0
M  V30 3899 H 368.047 2.36686 -1.84174 0
M  V30 3900 H 365.6 1.21015 -0.98919 0
M  V30 3901 H 366.335 3.18782 0.59569 0
M  V30 3902 H 366.12 3.76909 -1.08083 0
M  V30 3903 H 367.61 4.17227 -0.176451 0
M  V30 3904 N 368.047 0.979072 1.23499 0
M  V30 3905 C 368.977 0.537606 2.27227 0
M  V30 3906 C 369.958 -0.428539 1.64613 0
M  V30 3907 O 371.143 -0.322191 1.91509 0
M  V30 3908 C 368.273 -0.162052 3.46922 0
M  V30 3909 C 367.227 0.721242 4.21879 0
M  V30 3910 C 366.553 -0.110555 5.34586 0
M  V30 3911 C 367.853 2.01141 4.82016 0
M  V30 3912 H 369.547 1.40462 2.64406 0
M  V30 3913 H 367.093 0.67684 1.27102 0
M  V30 3914 H 369.046 -0.482192 4.18632 0
M  V30 3915 H 367.77 -1.06351 3.08799 0
M  V30 3916 H 366.429 1.02482 3.51984 0
M  V30 3917 H 366.077 -1.0125 4.92704 0
M  V30 3918 H 365.777 0.477325 5.85658 0
M  V30 3919 H 367.301 -0.425107 6.09118 0
M  V30 3920 H 368.715 1.75612 5.45741 0
M  V30 3921 H 367.112 2.54695 5.43369 0
M  V30 3922 H 368.182 2.69909 4.02836 0
M  V30 3923 N 369.525 -1.3858 0.750561 0
M  V30 3924 C 370.753 -2.04471 0.316098 0
M  V30 3925 C 371.168 -1.56606 -1.05452 0
M  V30 3926 O 370.525 -0.737784 -1.66922 0
M  V30 3927 C 370.576 -3.60025 0.326275 0
M  V30 3928 O 370.297 -4.06133 1.6428 0
M  V30 3929 C 371.798 -4.43131 -0.122429 0
M  V30 3930 H 369.018 -0.65717 0.135528 0
M  V30 3931 H 371.562 -1.77329 1.01857 0
M  V30 3932 H 369.717 -3.86014 -0.327431 0
M  V30 3933 H 370.131 -5.00547 1.56693 0
M  V30 3934 H 371.605 -5.51963 -0.0641473 0
M  V30 3935 H 372.082 -4.23333 -1.16988 0
M  V30 3936 H 372.688 -4.22323 0.50229 0
M  V30 3937 N 371.003 -0.499398 -1.49478 0
M  V30 3938 C 372.25 0.0456899 -2.02448 0
M  V30 3939 C 372.578 1.37142 -1.37921 0
M  V30 3940 O 371.833 1.89111 -0.503544 0
M  V30 3941 C 372.132 0.248424 -3.56536 0
M  V30 3942 C 371.798 -0.999107 -4.39692 0
M  V30 3943 C 370.46 -1.34108 -4.62135 0
M  V30 3944 C 372.812 -1.82842 -4.88076 0
M  V30 3945 C 370.14 -2.51191 -5.30208 0
M  V30 3946 C 372.492 -2.99076 -5.57437 0
M  V30 3947 C 371.156 -3.33655 -5.78127 0
M  V30 3948 H 370.426 0.0167191 -0.740811 0
M  V30 3949 H 373.073 -0.65923 -1.79795 0
M  V30 3950 H 371.378 1.03586 -3.77859 0
M  V30 3951 H 373.075 0.684605 -3.95113 0
M  V30 3952 H 369.665 -0.722729 -4.22463 0
M  V30 3953 H 373.849 -1.57737 -4.70566 0
M  V30 3954 H 369.105 -2.78221 -5.44429 0
M  V30 3955 H 373.279 -3.63664 -5.93904 0
M  V30 3956 H 370.906 -4.24483 -6.30649 0
M  V30 3957 N 372.481 1.55866 -0.233164 0
M  V30 3958 C 373.73 1.97779 0.39579 0
M  V30 3959 C 374.043 1.12419 1.60066 0
M  V30 3960 O 375.249 1.44283 2.29988 0
M  V30 3961 C 373.705 3.5188 0.755556 0
M  V30 3962 C 373.313 4.45959 -0.427152 0
M  V30 3963 C 375.057 4.02479 1.34946 0
M  V30 3964 C 372.964 5.91383 -0.0443043 0
M  V30 3965 H 371.894 0.738592 0.15165 0
M  V30 3966 H 374.545 1.80486 -0.331212 0
M  V30 3967 H 372.927 3.64816 1.5403 0
M  V30 3968 H 374.101 4.44776 -1.20462 0
M  V30 3969 H 372.416 4.05765 -0.935068 0
M  V30 3970 H 375.013 5.08637 1.649 0
M  V30 3971 H 375.356 3.49014 2.26925 0
M  V30 3972 H 375.889 3.92813 0.62791 0
M  V30 3973 H 372.628 6.48857 -0.930874 0
M  V30 3974 H 372.148 5.95734 0.697238 0
M  V30 3975 H 373.827 6.45893 0.378334 0
M  V30 3976 N 373.959 -0.0401083 1.57549 0
M  V30 3977 C 375.187 -0.745196 1.93014 0
M  V30 3978 C 375.602 -1.6948 0.831984 0
M  V30 3979 O 374.959 -1.81482 -0.192463 0
M  V30 3980 C 375.01 -1.51176 3.28372 0
M  V30 3981 O 374.731 -0.600284 4.33968 0
M  V30 3982 C 376.232 -2.315 3.78051 0
M  V30 3983 H 373.452 -0.210088 0.637263 0
M  V30 3984 H 375.996 -0.000924689 2.045 0
M  V30 3985 H 374.151 -2.20801 3.18317 0
M  V30 3986 H 374.565 -1.13669 5.12035 0
M  V30 3987 H 376.039 -2.80697 4.75303 0
M  V30 3988 H 376.516 -3.12436 3.08675 0
M  V30 3989 H 377.122 -1.66971 3.91153 0
M  V30 3990 N 375.437 -1.54477 -0.31217 0
M  V30 3991 C 376.714 -1.63891 -1.06767 0
M  V30 3992 C 377.094 -0.480028 -2.0557 0
M  V30 3993 O 376.442 0.524487 -2.22399 0
M  V30 3994 C 376.652 -3.01402 -1.75948 0
M  V30 3995 C 378 -3.57838 -2.28554 0
M  V30 3996 O 379.024 -3.03782 -1.85998 0
M  V30 3997 O 377.883 -4.52462 -3.06497 0
M  V30 3998 H 374.977 -0.664125 -0.492816 0
M  V30 3999 H 377.523 -1.66823 -0.311149 0
M  V30 4000 H 376.295 -3.77187 -1.04144 0
M  V30 4001 H 375.918 -3.02199 -2.58383 0
M  V30 4002 N 376.915 0.57481 -1.46744 0
M  V30 4003 C 377.863 1.70435 -1.58286 0
M  V30 4004 C 378.857 1.63287 -0.450956 0
M  V30 4005 O 380.063 1.68685 -0.628121 0
M  V30 4006 H 376.438 0.56364 -0.497809 0
M  V30 4007 H 378.409 1.57833 -2.53242 0
M  V30 4008 C 377.158 3.08815 -1.59776 0
M  V30 4009 H 376.481 3.1499 -2.46214 0
M  V30 4010 H 377.921 3.87588 -1.71905 0
M  V30 4011 C 376.38 3.35301 -0.327812 0
M  V30 4012 O 376.91 3.97511 0.57861 0
M  V30 4013 N 375.116 2.89816 -0.213274 0
M  V30 4014 H 374.663 2.39371 -0.951798 0
M  V30 4015 H 374.621 3.0791 0.63553 0
M  V30 4016 N 378.394 1.34581 0.820102 0
M  V30 4017 C 379.619 1.30333 1.61332 0
M  V30 4018 C 380.044 -0.119339 1.87721 0
M  V30 4019 O 379.402 -1.08197 1.45475 0
M  V30 4020 C 379.45 2.10258 2.92957 0
M  V30 4021 O 378.554 1.47404 3.85157 0
M  V30 4022 H 377.895 0.447488 0.490561 0
M  V30 4023 H 380.425 1.77425 1.01889 0
M  V30 4024 H 380.435 2.21718 3.42498 0
M  V30 4025 H 379.11 3.13693 2.73074 0
M  V30 4026 H 377.687 1.44703 3.43679 0
M  V30 4027 N 379.872 -1.04064 1.18357 0
M  V30 4028 C 380.802 -2.14001 0.934113 0
M  V30 4029 C 381.783 -1.69616 -0.128186 0
M  V30 4030 O 382.968 -1.94185 0.0244093 0
M  V30 4031 C 380.098 -3.44253 0.459066 0
M  V30 4032 C 379.052 -4.02261 1.46185 0
M  V30 4033 C 378.378 -5.27992 0.844322 0
M  V30 4034 C 379.678 -4.38432 2.83856 0
M  V30 4035 H 381.372 -2.35127 1.85352 0
M  V30 4036 H 378.918 -1.12998 0.892604 0
M  V30 4037 H 380.871 -4.20522 0.271907 0
M  V30 4038 H 379.595 -3.22813 -0.495912 0
M  V30 4039 H 378.254 -3.28074 1.63595 0
M  V30 4040 H 377.902 -5.02862 -0.117845 0
M  V30 4041 H 377.602 -5.67765 1.51384 0
M  V30 4042 H 379.126 -6.06938 0.667693 0
M  V30 4043 H 380.54 -5.05688 2.70098 0
M  V30 4044 H 378.937 -4.89254 3.47491 0
M  V30 4045 H 380.007 -3.4826 3.37406 0
M  V30 4046 N 381.35 -0.985608 -1.22978 0
M  V30 4047 C 382.596 -0.65836 -1.91816 0
M  V30 4048 C 382.929 0.806692 -1.76653 0
M  V30 4049 O 382.204 1.58252 -1.13078 0
M  V30 4050 C 382.487 -1.056 -3.44268 0
M  V30 4051 C 382.34 -2.57906 -3.68516 0
M  V30 4052 C 383.659 -0.603781 -4.35939 0
M  V30 4053 H 380.778 -0.24065 -0.696604 0
M  V30 4054 H 383.42 -1.22783 -1.44998 0
M  V30 4055 H 381.57 -0.571445 -3.84274 0
M  V30 4056 H 383.242 -3.13976 -3.3796 0
M  V30 4057 H 381.485 -3.00305 -3.13048 0
M  V30 4058 H 382.156 -2.80779 -4.75255 0
M  V30 4059 H 384.632 -1.01987 -4.03408 0
M  V30 4060 H 383.508 -0.910383 -5.41298 0
M  V30 4061 H 383.769 0.495761 -4.39312 0
M  V30 4062 N 382.828 1.3818 -0.7579 0
M  V30 4063 C 383.791 2.28764 -0.141286 0
M  V30 4064 C 384.791 1.47388 0.642907 0
M  V30 4065 O 385.981 1.67781 0.468536 0
M  V30 4066 C 383.113 3.31184 0.808069 0
M  V30 4067 H 384.306 2.848 -0.939633 0
M  V30 4068 H 381.859 1.47212 -0.525191 0
M  V30 4069 H 382.594 2.80247 1.63193 0
M  V30 4070 H 382.379 3.91314 0.248104 0
M  V30 4071 H 383.869 3.98909 1.23536 0
M  V30 4072 N 384.306 0.507319 1.49211 0
M  V30 4073 C 385.269 -0.256763 2.27757 0
M  V30 4074 C 386.269 -0.888287 1.34038 0
M  V30 4075 O 387.459 -0.751841 1.5714 0
M  V30 4076 C 384.591 -1.36905 3.12202 0
M  V30 4077 H 385.784 0.432557 2.96764 0
M  V30 4078 H 383.337 0.262488 1.5408 0
M  V30 4079 H 384.072 -2.09233 2.47775 0
M  V30 4080 H 383.857 -0.921599 3.81115 0
M  V30 4081 H 385.347 -1.9071 3.7151 0
M  V30 4082 N 385.784 -1.5574 0.241426 0
M  V30 4083 C 387.032 -1.98417 -0.384075 0
M  V30 4084 C 387.353 -1.13078 -1.58866 0
M  V30 4085 O 386.623 -0.212312 -1.94746 0
M  V30 4086 H 385.203 -0.732813 -0.144894 0
M  V30 4087 H 387.865 -1.9193 0.338943 0
M  V30 4088 H 386.961 -3.04219 -0.696939 0
M  V30 4089 N 387.262 0.0317525 -1.57568 0
M  V30 4090 C 388.212 1.04101 -2.02847 0
M  V30 4091 C 389.196 1.3219 -0.917317 0
M  V30 4092 O 390.388 1.31819 -1.18121 0
M  V30 4093 C 387.517 2.34295 -2.5092 0
M  V30 4094 C 386.603 2.09308 -3.68851 0
M  V30 4095 N 386.994 1.5437 -4.81667 0
M  V30 4096 C 385.292 2.39604 -3.76172 0
M  V30 4097 C 385.993 1.45126 -5.63306 0
M  V30 4098 N 384.969 1.92589 -5.08341 0
M  V30 4099 H 388.771 0.610217 -2.87495 0
M  V30 4100 H 386.285 0.238108 -1.60645 0
M  V30 4101 H 388.282 3.07404 -2.81617 0
M  V30 4102 H 386.942 2.78055 -1.67677 0
M  V30 4103 H 387.953 1.22678 -5.03161 0
M  V30 4104 H 384.63 2.86457 -3.03724 0
M  V30 4105 H 386.02 1.03163 -6.63933 0
M  V30 4106 N 388.74 1.54641 0.303973 0
M  V30 4107 C 390.017 1.64455 1.05896 0
M  V30 4108 C 390.397 0.490923 2.05312 0
M  V30 4109 O 389.745 -0.512685 2.22674 0
M  V30 4110 C 389.955 3.02331 1.74347 0
M  V30 4111 C 391.303 3.59045 2.26653 0
M  V30 4112 O 392.327 3.04764 1.84384 0
M  V30 4113 O 391.186 4.54081 3.04093 0
M  V30 4114 H 388.28 0.666729 0.489287 0
M  V30 4115 H 390.826 1.66986 0.302298 0
M  V30 4116 H 389.598 3.77734 1.02142 0
M  V30 4117 H 389.221 3.03565 2.56777 0
M  V30 4118 N 390.218 -0.567019 1.47046 0
M  V30 4119 C 391.458 -1.3355 1.54738 0
M  V30 4120 C 391.822 -1.90947 0.200772 0
M  V30 4121 O 393.023 -2.68367 0.152489 0
M  V30 4122 C 391.294 -2.42317 2.62712 0
M  V30 4123 S 392.853 -3.29383 2.89918 0
M  V30 4124 H 389.671 -0.454788 0.546525 0
M  V30 4125 H 392.273 -0.650191 1.84371 0
M  V30 4126 H 390.977 -1.98568 3.59164 0
M  V30 4127 H 390.508 -3.15601 2.34861 0
M  V30 4128 H 392.523 -4.41548 2.26384 0
M  V30 4129 N 391.696 -1.35014 -0.812953 0
M  V30 4130 C 392.943 -1.27931 -1.56971 0
M  V30 4131 C 393.271 0.148034 -1.93936 0
M  V30 4132 O 392.526 1.11175 -1.61054 0
M  V30 4133 C 392.825 -2.12524 -2.87347 0
M  V30 4134 C 392.491 -3.61401 -2.6963 0
M  V30 4135 C 391.153 -4.01983 -2.64506 0
M  V30 4136 C 393.505 -4.55894 -2.52607 0
M  V30 4137 C 390.833 -5.35235 -2.40293 0
M  V30 4138 C 393.185 -5.89336 -2.29925 0
M  V30 4139 C 391.849 -6.2907 -2.23219 0
M  V30 4140 H 391.119 -0.468131 -0.574399 0
M  V30 4141 H 393.766 -1.66851 -0.939836 0
M  V30 4142 H 392.071 -1.66463 -3.54679 0
M  V30 4143 H 393.768 -2.04383 -3.45005 0
M  V30 4144 H 390.358 -3.29193 -2.74463 0
M  V30 4145 H 394.542 -4.25431 -2.55583 0
M  V30 4146 H 389.798 -5.65028 -2.33566 0
M  V30 4147 H 393.972 -6.62139 -2.15743 0
M  V30 4148 H 391.599 -7.32256 -2.04219 0
M  V30 4149 N 393.175 1.03435 -1.18907 0
M  V30 4150 C 394.586 1.58195 -0.991523 0
M  V30 4151 C 394.937 1.90801 0.457081 0
M  V30 4152 O 394.062 1.70272 1.33553 0
M  V30 4153 C 394.657 2.87432 -1.79355 0
M  V30 4154 C 393.216 3.38785 -1.64017 0
M  V30 4155 C 392.363 2.12292 -1.78402 0
M  V30 4156 H 395.314 0.860299 -1.33359 0
M  V30 4157 H 395.335 3.58096 -1.28638 0
M  V30 4158 H 394.847 2.63669 -2.84781 0
M  V30 4159 H 392.948 3.67547 -0.611536 0
M  V30 4160 H 393.061 4.12186 -2.44212 0
M  V30 4161 H 391.425 2.23901 -1.2141 0
M  V30 4162 H 392.208 1.90977 -2.85277 0
M  V30 4163 N 394.653 0.992116 1.22453 0
M  V30 4164 C 395.899 0.668523 1.91464 0
M  V30 4165 C 396.232 -0.797313 1.77078 0
M  V30 4166 O 395.507 -1.5765 1.13916 0
M  V30 4167 C 395.79 1.07424 3.43703 0
M  V30 4168 C 395.643 2.59857 3.67143 0
M  V30 4169 C 396.962 0.626891 4.35612 0
M  V30 4170 H 394.081 0.244341 0.695318 0
M  V30 4171 H 396.723 1.2355 1.44345 0
M  V30 4172 H 394.873 0.591816 3.83966 0
M  V30 4173 H 396.545 3.15764 3.3629 0
M  V30 4174 H 394.788 3.01961 3.11451 0
M  V30 4175 H 395.459 2.83296 4.73759 0
M  V30 4176 H 397.935 1.04125 4.02861 0
M  V30 4177 H 396.811 0.939076 5.40807 0
M  V30 4178 H 397.072 -0.472457 4.39568 0
M  V30 4179 N 396.131 -1.37776 0.765217 0
M  V30 4180 C 397.061 -2.32945 0.160953 0
M  V30 4181 C 398.042 -1.55454 -0.690516 0
M  V30 4182 O 399.227 -1.83721 -0.629318 0
M  V30 4183 C 396.357 -3.39669 -0.724031 0
M  V30 4184 C 395.311 -4.27992 0.0256173 0
M  V30 4185 C 394.637 -5.25673 -0.978383 0
M  V30 4186 C 395.937 -5.08309 1.20082 0
M  V30 4187 H 397.631 -2.83728 0.955969 0
M  V30 4188 H 395.177 -1.36416 0.461149 0
M  V30 4189 H 397.13 -4.05219 -1.15652 0
M  V30 4190 H 395.854 -2.87396 -1.5515 0
M  V30 4191 H 394.513 -3.63964 0.438812 0
M  V30 4192 H 394.161 -4.69682 -1.80022 0
M  V30 4193 H 393.861 -5.85625 -0.481378 0
M  V30 4194 H 395.385 -5.94098 -1.40995 0
M  V30 4195 H 396.799 -5.67034 0.845307 0
M  V30 4196 H 395.196 -5.77554 1.62947 0
M  V30 4197 H 396.266 -4.41365 2.00811 0
M  V30 4198 N 397.609 -0.515225 -1.4894 0
M  V30 4199 C 398.856 0.024215 -2.02486 0
M  V30 4200 C 399.184 1.35671 -1.39368 0
M  V30 4201 O 398.439 1.88566 -0.523574 0
M  V30 4202 C 398.738 0.210595 -3.56779 0
M  V30 4203 C 398.404 -1.04569 -4.38607 0
M  V30 4204 C 397.066 -1.39002 -4.60686 0
M  V30 4205 C 399.418 -1.88008 -4.86109 0
M  V30 4206 C 396.746 -2.568 -5.27514 0
M  V30 4207 C 399.098 -3.04972 -5.54234 0
M  V30 4208 C 397.762 -3.39768 -5.74555 0
M  V30 4209 H 397.032 0.00886088 -0.740947 0
M  V30 4210 H 399.679 -0.678263 -1.79086 0
M  V30 4211 H 397.984 0.99572 -3.78936 0
M  V30 4212 H 399.681 0.642659 -3.95817 0
M  V30 4213 H 396.271 -0.767497 -4.21672 0
M  V30 4214 H 400.455 -1.62719 -4.68867 0
M  V30 4215 H 395.711 -2.8398 -5.41447 0
M  V30 4216 H 399.885 -3.69943 -5.90013 0
M  V30 4217 H 397.512 -4.31148 -6.26112 0
M  V30 4218 N 399.087 1.5561 -0.249682 0
M  V30 4219 C 400.315 2.03411 0.378352 0
M  V30 4220 C 400.73 1.12886 1.51335 0
M  V30 4221 O 400.087 0.143833 1.81932 0
M  V30 4222 C 400.138 3.50537 0.88351 0
M  V30 4223 O 399.859 4.37614 -0.20626 0
M  V30 4224 C 401.36 4.14113 1.58195 0
M  V30 4225 H 398.58 0.664994 0.08958 0
M  V30 4226 H 401.124 2.01044 -0.374357 0
M  V30 4227 H 399.279 3.5343 1.58639 0
M  V30 4228 H 399.693 5.24199 0.177782 0
M  V30 4229 H 401.167 5.18741 1.8871 0
M  V30 4230 H 401.644 3.60767 2.50487 0
M  V30 4231 H 402.25 4.15151 0.923573 0
M  V30 4232 N 400.565 -0.0233959 1.57583 0
M  V30 4233 C 401.795 -0.723631 1.93513 0
M  V30 4234 C 402.203 -1.69115 0.848333 0
M  V30 4235 O 401.546 -1.82781 -0.183484 0
M  V30 4236 C 401.608 -1.53075 3.25282 0
M  V30 4237 C 401.272 -0.727388 4.51174 0
M  V30 4238 C 402.269 -0.0251924 5.19894 0
M  V30 4239 C 399.954 -0.680256 4.97672 0
M  V30 4240 C 401.948 0.713374 6.33395 0
M  V30 4241 C 399.635 0.0620523 6.11068 0
M  V30 4242 C 400.633 0.757622 6.78785 0
M  V30 4243 O 400.321 1.48787 7.90011 0
M  V30 4244 H 400.053 -0.208051 0.643188 0
M  V30 4245 H 402.607 0.0167489 2.05393 0
M  V30 4246 H 400.837 -2.31508 3.09744 0
M  V30 4247 H 402.526 -2.11413 3.46496 0
M  V30 4248 H 403.292 -0.0526003 4.84971 0
M  V30 4249 H 399.171 -1.21116 4.44805 0
M  V30 4250 H 402.715 1.25683 6.86185 0
M  V30 4251 H 398.612 0.0913634 6.45435 0
M  V30 4252 H 399.38 1.40213 8.06401 0
M  V30 4253 N 402.043 -1.548 -0.295768 0
M  V30 4254 C 403.32 -1.65014 -1.05023 0
M  V30 4255 C 403.7 -0.501805 -2.05049 0
M  V30 4256 O 403.048 0.500869 -2.22943 0
M  V30 4257 C 403.258 -3.03252 -1.72741 0
M  V30 4258 C 404.606 -3.60242 -2.24746 0
M  V30 4259 O 405.63 -3.05737 -1.82765 0
M  V30 4260 O 404.489 -4.55687 -3.01681 0
M  V30 4261 H 401.583 -0.669314 -0.485744 0
M  V30 4262 H 404.129 -1.67144 -0.293438 0
M  V30 4263 H 402.901 -3.7827 -1.00138 0
M  V30 4264 H 402.524 -3.04922 -2.55163 0
M  V30 4265 N 403.521 0.559213 -1.47345 0
M  V30 4266 C 404.484 1.64854 -1.59235 0
M  V30 4267 C 405.484 1.53851 -0.467607 0
M  V30 4268 O 406.674 1.58045 -0.732617 0
M  V30 4269 C 403.806 3.04388 -1.53496 0
M  V30 4270 H 404.999 1.55662 -2.56339 0
M  V30 4271 H 402.552 0.778973 -1.35505 0
M  V30 4272 H 403.287 3.19115 -0.577604 0
M  V30 4273 H 403.072 3.13783 -2.35123 0
M  V30 4274 H 404.562 3.83642 -1.6495 0
M  V30 4275 N 404.999 1.35443 0.805782 0
M  V30 4276 C 405.962 1.28301 1.89925 0
M  V30 4277 C 406.962 0.194285 1.59622 0
M  V30 4278 O 408.152 0.448036 1.6834 0
M  V30 4279 C 405.284 0.984997 3.2636 0
M  V30 4280 H 406.477 2.2553 1.97677 0
M  V30 4281 H 404.03 1.19979 1.00173 0
M  V30 4282 H 404.765 0.016603 3.24296 0
M  V30 4283 H 404.55 1.77269 3.4974 0
M  V30 4284 H 406.04 0.960651 4.064 0
M  V30 4285 N 406.477 -1.02803 1.19454 0
M  V30 4286 C 407.44 -2.09264 0.934955 0
M  V30 4287 C 408.44 -1.60576 -0.0849015 0
M  V30 4288 O 409.63 -1.73554 0.149933 0
M  V30 4289 C 406.762 -3.38482 0.40531 0
M  V30 4290 H 407.955 -2.33726 1.87916 0
M  V30 4291 H 405.508 -1.19426 1.00832 0
M  V30 4292 H 406.243 -3.19689 -0.544899 0
M  V30 4293 H 406.028 -3.75142 1.14065 0
M  V30 4294 H 407.518 -4.16894 0.242806 0
M  V30 4295 N 407.956 -0.998596 -1.21925 0
M  V30 4296 C 409.204 -0.676325 -1.90448 0
M  V30 4297 C 409.525 0.794719 -1.78071 0
M  V30 4298 O 408.795 1.5701 -1.17152 0
M  V30 4299 H 407.375 -0.247165 -0.704925 0
M  V30 4300 H 410.037 -1.26633 -1.48156 0
M  V30 4301 H 409.133 -0.943858 -2.97486 0
M  V30 4302 N 409.434 1.37368 -0.772513 0
M  V30 4303 C 410.367 2.27956 -0.105593 0
M  V30 4304 C 411.345 1.46362 0.708295 0
M  V30 4305 O 412.529 1.75695 0.682895 0
M  V30 4306 C 409.656 3.27687 0.856686 0
M  V30 4307 C 408.702 4.26312 0.1267 0
M  V30 4308 S 409.535 5.22206 -1.1858 0
M  V30 4309 C 410.691 6.25488 -0.227081 0
M  V30 4310 H 410.924 2.84171 -0.87372 0
M  V30 4311 H 408.457 1.43654 -0.565939 0
M  V30 4312 H 410.415 3.85653 1.40648 0
M  V30 4313 H 409.076 2.70417 1.59793 0
M  V30 4314 H 408.269 4.96674 0.856212 0
M  V30 4315 H 407.871 3.72339 -0.352117 0
M  V30 4316 H 410.163 6.74836 0.600231 0
M  V30 4317 H 411.106 7.02371 -0.898899 0
M  V30 4318 H 411.514 5.64267 0.162053 0
M  V30 4319 N 410.912 0.523116 1.48665 0
M  V30 4320 C 411.842 -0.23231 2.32342 0
M  V30 4321 C 412.823 -0.941637 1.41659 0
M  V30 4322 O 414.008 -0.928751 1.70552 0
M  V30 4323 C 411.138 -1.28387 3.22698 0
M  V30 4324 C 410.092 -0.693098 4.22351 0
M  V30 4325 C 409.418 -1.8468 5.01794 0
M  V30 4326 C 410.718 0.33063 5.21252 0
M  V30 4327 H 412.412 0.466192 2.95748 0
M  V30 4328 H 409.958 0.225643 1.42221 0
M  V30 4329 H 411.911 -1.82024 3.80059 0
M  V30 4330 H 410.635 -2.01186 2.57278 0
M  V30 4331 H 409.294 -0.178299 3.66166 0
M  V30 4332 H 408.942 -2.56301 4.32804 0
M  V30 4333 H 408.642 -1.45747 5.69238 0
M  V30 4334 H 410.166 -2.38709 5.62006 0
M  V30 4335 H 411.58 -0.118407 5.73178 0
M  V30 4336 H 409.977 0.636974 5.9671 0
M  V30 4337 H 411.047 1.23883 4.68808 0
M  V30 4338 N 412.39 -1.55475 0.257931 0
M  V30 4339 C 413.615 -2.04064 -0.370488 0
M  V30 4340 C 414.04 -1.13565 -1.49948 0
M  V30 4341 O 413.398 -0.130781 -1.80828 0
M  V30 4342 C 413.446 -3.50554 -0.845237 0
M  V30 4343 O 412.55 -3.63173 -1.95394 0
M  V30 4344 H 411.891 -0.659257 -0.0792243 0
M  V30 4345 H 414.421 -2.00903 0.387212 0
M  V30 4346 H 414.431 -3.91588 -1.14555 0
M  V30 4347 H 413.106 -4.15896 -0.0191259 0
M  V30 4348 H 411.683 -3.34039 -1.65748 0
M  V30 4349 N 413.868 0.0150385 -1.57593 0
M  V30 4350 C 415.115 0.703001 -1.89906 0
M  V30 4351 C 415.443 1.74604 -0.856944 0
M  V30 4352 O 414.698 1.95197 0.140287 0
M  V30 4353 C 414.997 1.39686 -3.28972 0
M  V30 4354 C 414.663 0.488457 -4.48246 0
M  V30 4355 C 413.325 0.2383 -4.8061 0
M  V30 4356 C 415.677 -0.137881 -5.21018 0
M  V30 4357 C 413.005 -0.646738 -5.83125 0
M  V30 4358 C 415.357 -1.0107 -6.24474 0
M  V30 4359 C 414.021 -1.27019 -6.55303 0
M  V30 4360 H 413.291 0.257246 -0.694914 0
M  V30 4361 H 415.938 -0.037259 -1.91464 0
M  V30 4362 H 414.243 2.21079 -3.23468 0
M  V30 4363 H 415.94 1.93495 -3.51227 0
M  V30 4364 H 412.53 0.693593 -4.22951 0
M  V30 4365 H 416.714 0.0423953 -4.96282 0
M  V30 4366 H 411.97 -0.855937 -6.05379 0
M  V30 4367 H 416.144 -1.50247 -6.79999 0
M  V30 4368 H 413.771 -1.95769 -7.3456 0
M  V30 4369 N 415.346 1.54954 0.287554 0
M  V30 4370 C 416.594 1.74528 1.01904 0
M  V30 4371 C 416.915 0.541349 1.87335 0
M  V30 4372 O 416.185 -0.444108 1.908 0
M  V30 4373 H 414.765 0.643576 0.379235 0
M  V30 4374 H 417.427 1.92333 0.315294 0
M  V30 4375 H 416.523 2.64015 1.6644 0
M  V30 4376 N 416.824 -0.551391 1.4764 0
M  V30 4377 C 418.072 -1.30572 1.54258 0
M  V30 4378 C 418.393 -1.93877 0.208963 0
M  V30 4379 O 417.663 -1.80234 -0.767619 0
M  V30 4380 H 416.243 -0.484894 0.568231 0
M  V30 4381 H 418.905 -0.643402 1.83974 0
M  V30 4382 H 418.001 -2.09621 2.31226 0
M  V30 4383 N 418.302 -1.35869 -0.798587 0
M  V30 4384 C 419.718 -1.16082 -1.09532 0
M  V30 4385 C 419.918 0.0213124 -2.01489 0
M  V30 4386 O 418.974 0.689488 -2.42904 0
M  V30 4387 C 420.287 -2.46748 -1.7186 0
M  V30 4388 C 421.835 -2.53028 -1.84244 0
M  V30 4389 C 422.31 -3.83758 -2.49988 0
M  V30 4390 N 423.801 -3.85053 -2.57465 0
M  V30 4391 C 424.536 -4.8294 -3.09122 0
M  V30 4392 N 424.032 -5.91217 -3.61157 0
M  V30 4393 N 425.825 -4.70369 -3.0775 0
M  V30 4394 H 417.976 -2.11571 -0.187461 0
M  V30 4395 H 420.239 -0.936726 -0.145765 0
M  V30 4396 H 419.945 -3.33471 -1.11759 0
M  V30 4397 H 419.819 -2.61883 -2.71472 0
M  V30 4398 H 422.206 -1.66729 -2.43486 0
M  V30 4399 H 422.287 -2.418 -0.834643 0
M  V30 4400 H 421.931 -4.70459 -1.91393 0
M  V30 4401 H 421.861 -3.92278 -3.5132 0
M  V30 4402 H 424.352 -3.06822 -2.20609 0
M  V30 4403 H 424.665 -6.61892 -3.98896 0
M  V30 4404 H 423.01 -5.94899 -3.59333 0
M  V30 4405 H 426.201 -3.84914 -2.66381 0
M  V30 4406 H 426.374 -5.46816 -3.47701 0
M  V30 4407 N 419.78 1.02168 -1.19998 0
M  V30 4408 C 420.71 2.12488 -0.96804 0
M  V30 4409 C 421.691 1.69799 0.101185 0
M  V30 4410 O 422.876 1.94121 -0.0552993 0
M  V30 4411 C 420.006 3.43479 -0.513776 0
M  V30 4412 C 418.96 3.99884 -1.52566 0
M  V30 4413 C 418.286 5.26582 -0.928214 0
M  V30 4414 C 419.586 4.33861 -2.90795 0
M  V30 4415 H 421.28 2.32149 -1.89069 0
M  V30 4416 H 418.826 1.11564 -0.910468 0
M  V30 4417 H 420.779 4.20036 -0.338774 0
M  V30 4418 H 419.503 3.23561 0.444493 0
M  V30 4419 H 418.162 3.25429 -1.68794 0
M  V30 4420 H 417.81 5.02986 0.0378289 0
M  V30 4421 H 417.51 5.65284 -1.60397 0
M  V30 4422 H 419.034 6.05799 -0.764167 0
M  V30 4423 H 420.448 5.01327 -2.78109 0
M  V30 4424 H 418.845 4.83664 -3.55231 0
M  V30 4425 H 419.915 3.42848 -3.42904 0
M  V30 4426 N 421.258 1.00505 1.21394 0
M  V30 4427 C 422.535 0.603277 1.86064 0
M  V30 4428 C 422.915 -0.919095 1.90042 0
M  V30 4429 O 422.263 -1.80607 1.39977 0
M  V30 4430 C 422.473 1.23772 3.26315 0
M  V30 4431 C 423.821 1.34586 4.02705 0
M  V30 4432 O 424.845 1.19304 3.35626 0
M  V30 4433 O 423.704 1.59169 5.22807 0
M  V30 4434 H 420.798 0.206634 0.800769 0
M  V30 4435 H 423.344 1.1017 1.29076 0
M  V30 4436 H 422.116 2.27848 3.18121 0
M  V30 4437 H 421.739 0.725648 3.90922 0
M  V30 4438 N 422.737 -1.36956 0.779787 0
M  V30 4439 C 423.983 -1.99787 0.348281 0
M  V30 4440 C 424.316 -1.61756 -1.07465 0
M  V30 4441 O 423.591 -0.867639 -1.74075 0
M  V30 4442 C 423.874 -3.56597 0.50104 0
M  V30 4443 C 423.727 -4.04513 1.96697 0
M  V30 4444 C 425.046 -4.40008 -0.0898097 0
M  V30 4445 H 422.165 -0.725796 0.128022 0
M  V30 4446 H 424.807 -1.62514 0.984331 0
M  V30 4447 H 422.957 -3.88479 -0.0404347 0
M  V30 4448 H 424.629 -3.83161 2.56876 0
M  V30 4449 H 422.872 -3.56408 2.47297 0
M  V30 4450 H 423.543 -5.1352 2.02486 0
M  V30 4451 H 426.019 -4.14431 0.372293 0
M  V30 4452 H 424.895 -5.4888 0.0471605 0
M  V30 4453 H 425.156 -4.26035 -1.18096 0
M  V30 4454 N 424.215 -0.530993 -1.48385 0
M  V30 4455 C 425.626 -0.0907905 -1.86479 0
M  V30 4456 C 425.977 1.33213 -1.44044 0
M  V30 4457 O 425.102 1.99783 -0.831615 0
M  V30 4458 C 425.697 -0.157987 -3.38431 0
M  V30 4459 C 424.256 0.227026 -3.75715 0
M  V30 4460 C 423.403 -0.5173 -2.72432 0
M  V30 4461 H 426.354 -0.742186 -1.40276 0
M  V30 4462 H 426.375 0.630053 -3.75247 0
M  V30 4463 H 425.887 -1.19372 -3.69286 0
M  V30 4464 H 423.988 1.26486 -3.50474 0
M  V30 4465 H 424.101 -0.113288 -4.78966 0
M  V30 4466 H 422.465 0.0365527 -2.54674 0
M  V30 4467 H 423.248 -1.55368 -3.0613 0
M  V30 4468 N 425.693 1.55336 -0.266172 0
M  V30 4469 C 426.64 2.22172 0.625165 0
M  V30 4470 C 427.61 1.19211 1.15663 0
M  V30 4471 O 428.795 1.47723 1.20758 0
M  V30 4472 C 425.935 2.93972 1.8076 0
M  V30 4473 C 425.048 4.11632 1.31084 0
M  V30 4474 C 424.183 4.71099 2.45436 0
M  V30 4475 C 423.222 5.8097 1.92718 0
M  V30 4476 N 422.359 6.34538 3.00509 0
M  V30 4477 H 427.199 2.9796 0.0485582 0
M  V30 4478 H 424.736 1.47095 0.0122024 0
M  V30 4479 H 426.694 3.33811 2.50251 0
M  V30 4480 H 425.324 2.20623 2.35638 0
M  V30 4481 H 424.376 3.76975 0.509326 0
M  V30 4482 H 425.688 4.90893 0.884633 0
M  V30 4483 H 424.842 5.13612 3.22936 0
M  V30 4484 H 423.581 3.91096 2.91368 0
M  V30 4485 H 422.586 5.37916 1.13695 0
M  V30 4486 H 423.811 6.62836 1.47733 0
M  V30 4487 H 421.757 5.57433 3.45839 0
M  V30 4488 H 421.674 7.09046 2.62279 0
M  V30 4489 H 422.942 6.81709 3.78011 0
M  V30 4490 N 427.171 -0.0066808 1.57599 0
M  V30 4491 C 428.103 -1.02827 2.04839 0
M  V30 4492 C 429.116 -1.31108 0.965113 0
M  V30 4493 O 430.305 -1.28202 1.24203 0
M  V30 4494 C 427.405 -2.36464 2.42771 0
M  V30 4495 C 426.578 -2.27219 3.73751 0
M  V30 4496 C 425.637 -3.43489 3.98625 0
M  V30 4497 O 424.663 -3.21976 4.69382 0
M  V30 4498 N 425.865 -4.66116 3.46 0
M  V30 4499 H 428.63 -0.625455 2.93101 0
M  V30 4500 H 426.191 -0.194198 1.60731 0
M  V30 4501 H 428.183 -3.13008 2.56531 0
M  V30 4502 H 426.753 -2.68512 1.60063 0
M  V30 4503 H 425.973 -1.35629 3.70133 0
M  V30 4504 H 427.261 -2.18208 4.59633 0
M  V30 4505 H 426.659 -4.86493 2.88688 0
M  V30 4506 H 425.216 -5.39949 3.65101 0
M  V30 4507 N 428.649 -1.55105 -0.279332 0
M  V30 4508 C 429.874 -1.7976 -1.03446 0
M  V30 4509 C 430.299 -0.565952 -1.79384 0
M  V30 4510 O 429.657 0.484259 -1.74713 0
M  V30 4511 C 429.705 -3.0179 -1.97371 0
M  V30 4512 O 428.809 -2.76432 -3.06038 0
M  V30 4513 H 428.15 -0.594334 -0.29608 0
M  V30 4514 H 430.68 -2.02235 -0.310165 0
M  V30 4515 H 430.69 -3.30351 -2.39441 0
M  V30 4516 H 429.365 -3.91085 -1.4151 0
M  V30 4517 H 427.942 -2.58949 -2.68328 0
M  V30 4518 N 430.127 0.543554 -1.4793 0
M  V30 4519 C 431.352 1.32995 -1.59145 0
M  V30 4520 C 431.777 1.86472 -0.246956 0
M  V30 4521 O 431.135 1.63696 0.779324 0
M  V30 4522 C 431.183 2.46623 -2.63077 0
M  V30 4523 O 430.287 3.49261 -2.19295 0
M  V30 4524 H 429.628 0.394472 -0.534124 0
M  V30 4525 H 432.158 0.655489 -1.93816 0
M  V30 4526 H 432.168 2.93001 -2.83926 0
M  V30 4527 H 430.843 2.07059 -3.60693 0
M  V30 4528 H 429.42 3.09094 -2.08603 0
M  V30 4529 N 431.605 1.3629 0.791371 0
M  V30 4530 C 432.537 1.26321 1.91248 0
M  V30 4531 C 433.55 0.18313 1.61767 0
M  V30 4532 O 434.739 0.437682 1.73051 0
M  V30 4533 C 431.839 0.925901 3.26007 0
M  V30 4534 C 431.012 2.10746 3.83281 0
M  V30 4535 C 430.071 1.74352 4.96475 0
M  V30 4536 O 429.097 2.46416 5.13096 0
M  V30 4537 N 430.299 0.676058 5.7655 0
M  V30 4538 H 433.064 2.22915 2.00323 0
M  V30 4539 H 430.625 1.29659 0.969546 0
M  V30 4540 H 432.617 0.663636 3.99222 0
M  V30 4541 H 431.187 0.0491581 3.12561 0
M  V30 4542 H 430.407 2.53264 3.02077 0
M  V30 4543 H 431.695 2.8969 4.18279 0
M  V30 4544 H 431.093 0.0776467 5.65647 0
M  V30 4545 H 429.65 0.473612 6.50077 0
M  V30 4546 N 433.083 -1.0153 1.20538 0
M  V30 4547 C 434.499 -1.27461 0.96051 0
M  V30 4548 C 434.699 -1.98273 -0.359193 0
M  V30 4549 O 433.755 -2.27886 -1.0874 0
M  V30 4550 C 435.068 -2.10837 2.14402 0
M  V30 4551 C 436.616 -2.24099 2.18515 0
M  V30 4552 C 437.091 -3.10852 3.36355 0
M  V30 4553 N 438.582 -3.18441 3.36377 0
M  V30 4554 C 439.317 -3.85795 4.24205 0
M  V30 4555 N 438.813 -4.55264 5.22213 0
M  V30 4556 N 440.606 -3.82331 4.12043 0
M  V30 4557 H 432.757 -0.539907 2.05423 0
M  V30 4558 H 435.02 -0.30092 0.898972 0
M  V30 4559 H 434.726 -1.66144 3.09983 0
M  V30 4560 H 434.6 -3.11576 2.12604 0
M  V30 4561 H 436.987 -2.68016 1.23497 0
M  V30 4562 H 437.068 -1.22865 2.24361 0
M  V30 4563 H 436.712 -2.6764 4.31661 0
M  V30 4564 H 436.642 -4.12177 3.27746 0
M  V30 4565 H 439.133 -2.68978 2.65442 0
M  V30 4566 H 439.446 -5.04331 5.85551 0
M  V30 4567 H 437.791 -4.54085 5.26148 0
M  V30 4568 H 440.982 -3.27207 3.34743 0
M  V30 4569 H 441.155 -4.34547 4.807 0
M  V30 4570 N 434.561 -1.01147 -1.20859 0
M  V30 4571 C 435.809 -0.696486 -1.89719 0
M  V30 4572 C 436.13 0.775788 -1.78904 0
M  V30 4573 O 435.4 1.55759 -1.18811 0
M  V30 4574 H 433.98 -0.254628 -0.702263 0
M  V30 4575 H 436.642 -1.28197 -1.46804 0
M  V30 4576 H 435.738 -0.975357 -2.96468 0
M  V30 4577 N 436.039 1.36541 -0.78704 0
M  V30 4578 C 436.969 2.32659 -0.197992 0
M  V30 4579 C 437.95 1.56533 0.665697 0
M  V30 4580 O 439.135 1.84698 0.60001 0
M  V30 4581 C 436.265 3.40778 0.669901 0
M  V30 4582 C 435.219 4.27897 -0.0937039 0
M  V30 4583 C 434.545 5.27163 0.894629 0
M  V30 4584 C 435.845 5.06334 -1.28154 0
M  V30 4585 H 437.539 2.82171 -1.00099 0
M  V30 4586 H 435.085 1.35665 -0.482793 0
M  V30 4587 H 437.038 4.07008 1.09191 0
M  V30 4588 H 435.762 2.89827 1.50558 0
M  V30 4589 H 434.421 3.6322 -0.49666 0
M  V30 4590 H 434.069 4.72486 1.72527 0
M  V30 4591 H 433.769 5.86317 0.388149 0
M  V30 4592 H 435.293 5.96266 1.31525 0
M  V30 4593 H 436.707 5.65617 -0.93541 0
M  V30 4594 H 435.104 5.74888 -1.72115 0
M  V30 4595 H 436.174 4.38114 -2.07807 0
M  V30 4596 N 437.518 0.538854 1.48102 0
M  V30 4597 C 438.746 0.0123136 2.06896 0
M  V30 4598 C 439.161 -1.27312 1.39417 0
M  V30 4599 O 438.518 -1.75949 0.484582 0
M  V30 4600 C 438.569 -0.206118 3.60912 0
M  V30 4601 O 438.29 1.0284 4.25859 0
M  V30 4602 C 439.791 -0.772033 4.36526 0
M  V30 4603 H 437.011 0.0375239 0.66995 0
M  V30 4604 H 439.555 0.747032 1.90367 0
M  V30 4605 H 437.71 -0.89091 3.77017 0
M  V30 4606 H 438.124 0.814654 5.18135 0
M  V30 4607 H 439.598 -0.874251 5.45033 0
M  V30 4608 H 440.075 -1.77904 4.01555 0
M  V30 4609 H 440.681 -0.123526 4.25121 0
M  V30 4610 N 438.996 -1.55193 0.274407 0
M  V30 4611 C 439.959 -2.212 -0.600279 0
M  V30 4612 C 440.959 -1.18963 -1.08187 0
M  V30 4613 O 442.149 -1.43873 -0.982158 0
M  V30 4614 C 439.281 -2.87739 -1.82809 0
M  V30 4615 H 440.474 -2.9989 -0.0239682 0
M  V30 4616 H 438.027 -1.5628 0.0250192 0
M  V30 4617 H 438.762 -2.13058 -2.44493 0
M  V30 4618 H 438.547 -3.62658 -1.49069 0
M  V30 4619 H 440.037 -3.38171 -2.45011 0
M  V30 4620 N 440.474 -0.00167713 -1.576 0
M  V30 4621 C 441.89 0.354422 -1.55615 0
M  V30 4622 C 442.09 1.74679 -1.00447 0
M  V30 4623 O 441.146 2.4428 -0.639022 0
M  V30 4624 C 442.459 0.22812 -2.99833 0
M  V30 4625 C 444.007 0.302934 -3.11531 0
M  V30 4626 C 444.482 0.205737 -4.57538 0
M  V30 4627 N 445.973 0.263584 -4.62449 0
M  V30 4628 C 446.708 0.211742 -5.73009 0
M  V30 4629 N 446.204 0.110399 -6.92712 0
M  V30 4630 N 447.997 0.263729 -5.61481 0
M  V30 4631 H 440.148 -0.912498 -1.918 0
M  V30 4632 H 442.411 -0.349928 -0.881053 0
M  V30 4633 H 442.117 -0.729934 -3.44042 0
M  V30 4634 H 441.991 1.00951 -3.6344 0
M  V30 4635 H 444.378 1.25143 -2.67251 0
M  V30 4636 H 444.459 -0.508357 -2.50698 0
M  V30 4637 H 444.103 -0.739225 -5.02492 0
M  V30 4638 H 444.033 1.03554 -5.16318 0
M  V30 4639 H 446.524 0.343173 -3.76339 0
M  V30 4640 H 446.837 0.0767828 -7.72762 0
M  V30 4641 H 445.182 0.0760025 -6.94958 0
M  V30 4642 H 448.373 0.34111 -4.66855 0
M  V30 4643 H 448.546 0.219862 -6.47627 0
M  V30 4644 N 441.952 1.55251 0.271103 0
M  V30 4645 C 442.862 1.9136 1.35714 0
M  V30 4646 C 443.878 0.811075 1.5394 0
M  V30 4647 O 445.054 1.11031 1.6803 0
M  V30 4648 C 442.119 2.1798 2.69603 0
M  V30 4649 C 441.18 3.4153 2.60107 0
M  V30 4650 C 440.413 3.66871 3.8761 0
M  V30 4651 O 440.636 2.94689 4.8838 0
M  V30 4652 O 439.57 4.60405 3.87699 0
M  V30 4653 H 443.396 2.83815 1.08088 0
M  V30 4654 H 440.981 1.41821 0.469792 0
M  V30 4655 H 442.863 2.36518 3.48765 0
M  V30 4656 H 441.538 1.28708 2.97012 0
M  V30 4657 H 440.445 3.28325 1.79314 0
M  V30 4658 H 441.778 4.31027 2.37647 0
M  V30 4659 N 443.43 -0.535701 1.48216 0
M  V30 4660 C 444.846 -0.863701 1.3421 0
M  V30 4661 C 445.046 -1.98458 0.34879 0
M  V30 4662 O 444.102 -2.51432 -0.23204 0
M  V30 4663 C 445.415 -1.23662 2.74095 0
M  V30 4664 C 446.963 -1.34683 2.82541 0
M  V30 4665 C 447.438 -1.75322 4.23115 0
M  V30 4666 N 448.929 -1.82434 4.2576 0
M  V30 4667 C 449.664 -2.15252 5.31464 0
M  V30 4668 N 449.16 -2.46533 6.47452 0
M  V30 4669 N 450.953 -2.16209 5.18855 0
M  V30 4670 H 443.104 0.203965 2.11418 0
M  V30 4671 H 445.367 0.0286033 0.947568 0
M  V30 4672 H 445.073 -0.486674 3.48316 0
M  V30 4673 H 444.947 -2.18805 3.07253 0
M  V30 4674 H 447.334 -2.08756 2.08579 0
M  V30 4675 H 447.415 -0.376756 2.5301 0
M  V30 4676 H 447.059 -1.01812 4.97591 0
M  V30 4677 H 446.989 -2.7337 4.50085 0
M  V30 4678 H 449.48 -1.6056 3.42095 0
M  V30 4679 H 449.793 -2.70662 7.23852 0
M  V30 4680 H 448.138 -2.44065 6.50736 0
M  V30 4681 H 451.329 -1.91224 4.2726 0
M  V30 4682 H 451.502 -2.41453 6.01335 0
M  V30 4683 N 444.908 -1.36708 -0.784132 0
M  V30 4684 C 446.155 -1.31231 -1.54222 0
M  V30 4685 C 446.483 0.106864 -1.94206 0
M  V30 4686 O 445.738 1.07734 -1.63376 0
M  V30 4687 C 446.037 -2.18571 -2.82774 0
M  V30 4688 C 445.703 -3.67039 -2.61903 0
M  V30 4689 C 444.365 -4.07503 -2.55919 0
M  V30 4690 C 446.717 -4.61149 -2.4288 0
M  V30 4691 C 444.045 -5.40211 -2.28886 0
M  V30 4692 C 446.397 -5.94081 -2.17373 0
M  V30 4693 C 445.061 -6.33664 -2.09825 0
M  V30 4694 H 444.331 -0.48021 -0.56434 0
M  V30 4695 H 446.978 -1.68807 -0.904233 0
M  V30 4696 H 445.283 -1.73949 -3.51068 0
M  V30 4697 H 446.98 -2.11655 -3.40592 0
M  V30 4698 H 443.57 -3.34941 -2.67418 0
M  V30 4699 H 447.754 -4.30756 -2.46501 0
M  V30 4700 H 443.01 -5.69855 -2.21529 0
M  V30 4701 H 447.184 -6.66566 -2.01649 0
M  V30 4702 H 444.811 -7.36423 -1.88641 0
M  V30 4703 N 446.386 1.0089 -1.21074 0
M  V30 4704 C 447.318 2.09737 -0.924291 0
M  V30 4705 C 448.331 1.62546 0.0909809 0
M  V30 4706 O 449.52 1.77942 -0.141021 0
M  V30 4707 C 446.62 3.36922 -0.36559 0
M  V30 4708 C 445.793 4.13216 -1.43426 0
M  V30 4709 C 444.852 5.18696 -0.885496 0
M  V30 4710 O 443.878 5.47176 -1.56801 0
M  V30 4711 N 445.08 5.79718 0.301227 0
M  V30 4712 H 447.845 2.34895 -1.8613 0
M  V30 4713 H 445.406 1.17341 -1.11546 0
M  V30 4714 H 447.398 4.04697 0.0158407 0
M  V30 4715 H 445.968 3.08952 0.476149 0
M  V30 4716 H 445.188 3.40301 -1.9897 0
M  V30 4717 H 446.476 4.60967 -2.15376 0
M  V30 4718 H 445.874 5.58926 0.872849 0
M  V30 4719 H 444.431 6.48804 0.624211 0
M  V30 4720 N 447.864 1.01787 1.20321 0
M  V30 4721 C 448.812 0.58254 2.25187 0
M  V30 4722 C 449.806 -0.379359 1.65098 0
M  V30 4723 O 451.012 -0.249142 1.78267 0
M  V30 4724 H 447.387 0.170078 0.732514 0
M  V30 4725 H 449.358 1.47788 2.59232 0
M  V30 4726 C 448.107 -0.0620885 3.47645 0
M  V30 4727 H 447.43 0.669069 3.94162 0
M  V30 4728 H 448.87 -0.329784 4.22716 0
M  V30 4729 C 447.329 -1.3053 3.10586 0
M  V30 4730 O 447.859 -2.39848 3.22236 0
M  V30 4731 N 446.065 -1.18988 2.65123 0
M  V30 4732 H 445.612 -0.300341 2.55843 0
M  V30 4733 H 445.57 -2.02267 2.40698 0
M  V30 4734 N 449.342 -1.36122 0.79427 0
M  V30 4735 C 450.272 -2.32551 0.210328 0
M  V30 4736 C 451.253 -1.56884 -0.657386 0
M  V30 4737 O 452.438 -1.85014 -0.590207 0
M  V30 4738 C 449.568 -3.41128 -0.651819 0
M  V30 4739 C 448.522 -4.27842 0.116395 0
M  V30 4740 C 447.848 -5.2763 -0.86666 0
M  V30 4741 C 449.148 -5.05647 1.30837 0
M  V30 4742 H 450.842 -2.81636 1.01594 0
M  V30 4743 H 448.388 -1.35407 0.489981 0
M  V30 4744 H 450.341 -4.07581 -1.07031 0
M  V30 4745 H 449.065 -2.90622 -1.49019 0
M  V30 4746 H 447.724 -3.62952 0.515915 0
M  V30 4747 H 447.372 -4.73395 -1.70019 0
M  V30 4748 H 447.072 -5.86514 -0.35705 0
M  V30 4749 H 448.596 -5.96955 -1.28361 0
M  V30 4750 H 450.01 -5.65113 0.965393 0
M  V30 4751 H 448.407 -5.73967 1.75161 0
M  V30 4752 H 449.477 -4.37006 2.10128 0
M  V30 4753 N 450.82 -0.546701 -1.47814 0
M  V30 4754 C 452.097 0.0464413 -1.95545 0
M  V30 4755 C 452.477 1.4962 -1.48919 0
M  V30 4756 O 451.825 2.16752 -0.723232 0
M  V30 4757 C 452.035 -0.0881298 -3.48889 0
M  V30 4758 C 453.383 0.0626059 -4.24554 0
M  V30 4759 O 454.407 -0.0151555 -3.56197 0
M  V30 4760 O 453.266 0.228071 -5.46024 0
M  V30 4761 H 450.36 0.0700004 -0.824032 0
M  V30 4762 H 452.906 -0.612482 -1.58262 0
M  V30 4763 H 451.678 -1.09737 -3.75597 0
M  V30 4764 H 451.301 0.608886 -3.9291 0
M  V30 4765 N 452.299 1.55045 -0.282633 0
M  V30 4766 C 453.246 2.22822 0.601566 0
M  V30 4767 C 454.216 1.20431 1.14392 0
M  V30 4768 O 455.401 1.48996 1.19184 0
M  V30 4769 C 452.541 2.95873 1.77632 0
M  V30 4770 C 451.654 4.12999 1.26711 0
M  V30 4771 C 450.789 4.73676 2.40426 0
M  V30 4772 C 449.828 5.82981 1.86545 0
M  V30 4773 N 448.965 6.3769 2.93762 0
M  V30 4774 H 453.805 2.97995 0.0169528 0
M  V30 4775 H 451.342 1.471 -0.00339964 0
M  V30 4776 H 453.3 3.36447 2.46697 0
M  V30 4777 H 451.93 2.2311 2.33285 0
M  V30 4778 H 450.982 3.77494 0.469314 0
M  V30 4779 H 452.294 4.91803 0.832518 0
M  V30 4780 H 451.448 5.17008 3.17471 0
M  V30 4781 H 450.187 3.94164 2.87203 0
M  V30 4782 H 449.192 5.39092 1.07983 0
M  V30 4783 H 450.417 6.64366 1.40694 0
M  V30 4784 H 448.363 5.61069 3.39908 0
M  V30 4785 H 448.28 7.11788 2.54744 0
M  V30 4786 H 449.548 6.8568 3.7076 0
M  V30 4787 N 453.777 0.010035 1.57597 0
M  V30 4788 C 454.724 -0.978122 2.09049 0
M  V30 4789 C 455.694 -1.33509 0.988159 0
M  V30 4790 O 456.879 -1.43172 1.26121 0
M  V30 4791 C 454.019 -2.26158 2.60666 0
M  V30 4792 C 453.132 -1.96275 3.84838 0
M  V30 4793 C 452.267 -3.18776 4.24918 0
M  V30 4794 C 451.306 -2.84625 5.41899 0
M  V30 4795 N 450.443 -3.99693 5.77226 0
M  V30 4796 H 455.283 -0.532431 2.93205 0
M  V30 4797 H 452.82 -0.251234 1.44939 0
M  V30 4798 H 454.778 -3.01202 2.88675 0
M  V30 4799 H 453.408 -2.68378 1.79369 0
M  V30 4800 H 452.46 -1.11555 3.63675 0
M  V30 4801 H 453.772 -1.67111 4.69974 0
M  V30 4802 H 452.926 -4.02157 4.54262 0
M  V30 4803 H 451.665 -3.51087 3.38511 0
M  V30 4804 H 450.67 -1.99653 5.12268 0
M  V30 4805 H 451.895 -2.53551 6.29991 0
M  V30 4806 H 449.841 -4.31882 4.93776 0
M  V30 4807 H 449.758 -3.74087 6.56959 0
M  V30 4808 H 451.026 -4.83834 6.11167 0
M  V30 4809 N 455.255 -1.55392 -0.262866 0
M  V30 4810 C 456.218 -1.88181 -1.30846 0
M  V30 4811 C 457.218 -0.757079 -1.41862 0
M  V30 4812 O 458.408 -1.02519 -1.40838 0
M  V30 4813 C 455.54 -2.09609 -2.68844 0
M  V30 4814 H 456.733 -2.81659 -1.02997 0
M  V30 4815 H 454.286 -1.48039 -0.501414 0
M  V30 4816 H 455.021 -1.18547 -3.01856 0
M  V30 4817 H 454.806 -2.91508 -2.62231 0
M  V30 4818 H 456.296 -2.36215 -3.44372 0
M  V30 4819 N 456.733 0.527833 -1.48498 0
M  V30 4820 C 457.958 1.313 -1.60546 0
M  V30 4821 C 458.383 1.86199 -0.26672 0
M  V30 4822 O 457.741 1.64513 0.761918 0
M  V30 4823 C 457.789 2.43818 -2.65678 0
M  V30 4824 O 456.893 3.46916 -2.22987 0
M  V30 4825 H 456.234 0.388784 -0.538277 0
M  V30 4826 H 458.764 0.634896 -1.945 0
M  V30 4827 H 458.774 2.89973 -2.87018 0
M  V30 4828 H 457.449 2.03222 -3.62869 0
M  V30 4829 H 456.026 3.06864 -2.11869 0
M  V30 4830 N 458.211 1.37122 0.776871 0
M  V30 4831 C 459.436 1.354 1.57104 0
M  V30 4832 C 459.861 -0.0595562 1.88006 0
M  V30 4833 O 459.219 -1.03514 1.48844 0
M  V30 4834 C 459.267 2.19472 2.8612 0
M  V30 4835 O 458.371 1.59582 3.80273 0
M  V30 4836 H 457.712 0.462869 0.476076 0
M  V30 4837 H 460.242 1.80577 0.961932 0
M  V30 4838 H 460.252 2.32502 3.35271 0
M  V30 4839 H 458.927 3.22222 2.62956 0
M  V30 4840 H 457.504 1.55564 3.38902 0
M  V30 4841 N 459.689 -1.00246 1.21608 0
M  V30 4842 C 460.599 -2.12515 0.993709 0
M  V30 4843 C 461.615 -1.73913 -0.0549939 0
M  V30 4844 O 462.791 -2.00943 0.135619 0
M  V30 4845 C 459.856 -3.42083 0.563953 0
M  V30 4846 C 458.917 -3.94843 1.68516 0
M  V30 4847 C 458.15 -5.18226 1.27582 0
M  V30 4848 O 458.373 -5.70201 0.150506 0
M  V30 4849 O 457.307 -5.64497 2.0887 0
M  V30 4850 H 461.133 -2.34152 1.93407 0
M  V30 4851 H 458.718 -1.10891 1.00118 0
M  V30 4852 H 460.6 -4.20073 0.334194 0
M  V30 4853 H 459.275 -3.21828 -0.347665 0
M  V30 4854 H 458.182 -3.18068 1.96935 0
M  V30 4855 H 459.515 -4.19512 2.5743 0
M  V30 4856 N 461.167 -1.02423 -1.1978 0
M  V30 4857 C 462.415 -0.716569 -1.8897 0
M  V30 4858 C 462.736 0.756769 -1.79716 0
M  V30 4859 O 462.006 1.5449 -1.20456 0
M  V30 4860 H 460.586 -0.262062 -0.699523 0
M  V30 4861 H 463.248 -1.29747 -1.45436 0
M  V30 4862 H 462.344 -1.00675 -2.95417 0
M  V30 4863 N 462.645 1.35699 -0.801477 0
M  V30 4864 C 463.893 1.9852 -0.37871 0
M  V30 4865 C 464.214 1.63907 1.05638 0
M  V30 4866 O 463.484 0.919013 1.73006 0
M  V30 4867 H 462.064 0.734322 -0.137042 0
M  V30 4868 H 464.726 1.65697 -1.02619 0
M  V30 4869 H 463.822 3.08382 -0.480284 0
M  V30 4870 N 464.123 0.554532 1.47522 0
M  V30 4871 C 465.351 0.034257 2.06872 0
M  V30 4872 C 465.766 -1.25826 1.40759 0
M  V30 4873 O 465.123 -1.75425 0.503217 0
M  V30 4874 C 465.174 -0.167827 3.6111 0
M  V30 4875 O 464.895 1.07351 4.24744 0
M  V30 4876 C 466.396 -0.72569 4.3732 0
M  V30 4877 H 463.616 0.0446275 0.669514 0
M  V30 4878 H 466.16 0.767181 1.89564 0
M  V30 4879 H 464.315 -0.850872 3.7794 0
M  V30 4880 H 464.729 0.869563 5.17242 0
M  V30 4881 H 466.203 -0.816394 5.45929 0
M  V30 4882 H 466.68 -1.73635 4.0342 0
M  V30 4883 H 467.286 -0.0784292 4.25228 0
M  V30 4884 N 465.601 -1.54893 0.290851 0
M  V30 4885 C 466.564 -2.21824 -0.576784 0
M  V30 4886 C 467.564 -1.20104 -1.06919 0
M  V30 4887 O 468.754 -1.44906 -0.966843 0
M  V30 4888 C 465.886 -2.89662 -1.79747 0
M  V30 4889 H 467.079 -2.99899 0.00784051 0
M  V30 4890 H 464.632 -1.56245 0.0415934 0
M  V30 4891 H 465.367 -2.15639 -2.42219 0
M  V30 4892 H 465.152 -3.64219 -1.45214 0
M  V30 4893 H 466.642 -3.4075 -2.4141 0
M  V30 4894 N 467.08 -0.0183926 -1.57589 0
M  V30 4895 C 468.043 0.951986 -2.08494 0
M  V30 4896 C 469.043 1.26092 -0.997874 0
M  V30 4897 O 470.233 1.20304 -1.25987 0
M  V30 4898 C 467.365 2.27165 -2.54182 0
M  V30 4899 H 468.558 0.511307 -2.95509 0
M  V30 4900 H 466.111 0.229444 -1.54607 0
M  V30 4901 H 466.846 2.75884 -1.70465 0
M  V30 4902 H 466.631 2.06057 -3.33591 0
M  V30 4903 H 468.121 2.9674 -2.93828 0
M  V30 4904 N 468.558 1.5553 0.254621 0
M  V30 4905 C 469.806 1.7665 0.981793 0
M  V30 4906 C 470.127 0.580963 1.86145 0
M  V30 4907 O 469.397 -0.403537 1.91699 0
M  V30 4908 H 467.977 0.651475 0.365498 0
M  V30 4909 H 470.639 1.92958 0.274426 0
M  V30 4910 H 469.735 2.67486 1.60802 0
M  V30 4911 N 470.036 -0.519951 1.48776 0
M  V30 4912 C 470.999 -1.60574 1.6355 0
M  V30 4913 C 471.999 -1.52557 0.508234 0
M  V30 4914 O 473.189 -1.56047 0.774262 0
M  V30 4915 C 470.321 -3.00211 1.61512 0
M  V30 4916 H 471.514 -1.4881 2.60376 0
M  V30 4917 H 469.067 -0.742772 1.37523 0
M  V30 4918 H 469.802 -3.17471 0.662009 0
M  V30 4919 H 469.587 -3.07439 2.43359 0
M  V30 4920 H 471.077 -3.79134 1.75064 0
M  V30 4921 N 471.514 -1.37532 -0.769588 0
M  V30 4922 C 472.762 -1.32597 -1.5252 0
M  V30 4923 C 473.083 0.0884294 -1.94799 0
M  V30 4924 O 472.353 1.03289 -1.66458 0
M  V30 4925 H 470.933 -0.487846 -0.565699 0
M  V30 4926 H 473.595 -1.72044 -0.915806 0
M  V30 4927 H 472.691 -1.96643 -2.42359 0
M  V30 4928 N 472.992 0.995999 -1.22138 0
M  V30 4929 C 473.922 2.10387 -1.01289 0
M  V30 4930 C 474.903 1.69975 0.0651454 0
M  V30 4931 O 476.088 1.9396 -0.0964628 0
M  V30 4932 C 473.218 3.42312 -0.586517 0
M  V30 4933 C 472.172 3.96558 -1.61014 0
M  V30 4934 C 471.498 5.24494 -1.0397 0
M  V30 4935 C 472.798 4.27595 -2.99933 0
M  V30 4936 H 474.492 2.28086 -1.93951 0
M  V30 4937 H 472.038 1.09607 -0.933928 0
M  V30 4938 H 473.991 4.19223 -0.427793 0
M  V30 4939 H 472.715 3.24431 0.375761 0
M  V30 4940 H 471.374 3.21776 -1.75658 0
M  V30 4941 H 471.022 5.02953 -0.0688703 0
M  V30 4942 H 470.722 5.61755 -1.72352 0
M  V30 4943 H 472.246 6.04042 -0.892494 0
M  V30 4944 H 473.66 4.95315 -2.8868 0
M  V30 4945 H 472.057 4.76021 -3.6541 0
M  V30 4946 H 473.127 3.35498 -3.50099 0
M  V30 4947 N 474.47 1.03057 1.19235 0
M  V30 4948 C 475.747 0.642608 1.84743 0
M  V30 4949 C 476.127 -0.878577 1.91948 0
M  V30 4950 O 475.475 -1.77597 1.43776 0
M  V30 4951 C 475.685 1.30665 3.23616 0
M  V30 4952 C 477.033 1.43098 3.9976 0
M  V30 4953 O 478.057 1.26396 3.3302 0
M  V30 4954 O 476.916 1.70223 5.19313 0
M  V30 4955 H 474.01 0.223573 0.796206 0
M  V30 4956 H 476.556 1.12883 1.26711 0
M  V30 4957 H 475.328 2.34544 3.13217 0
M  V30 4958 H 474.951 0.808405 3.89295 0
M  V30 4959 N 475.948 -1.35272 0.808662 0
M  V30 4960 C 477.173 -2.03477 0.401475 0
M  V30 4961 C 477.598 -1.60537 -0.980279 0
M  V30 4962 O 476.956 -0.78304 -1.63518 0
M  V30 4963 C 477.004 -3.57181 0.495354 0
M  V30 4964 O 476.108 -4.09474 -0.490397 0
M  V30 4965 H 475.449 -0.642561 0.167366 0
M  V30 4966 H 477.979 -1.72824 1.09512 0
M  V30 4967 H 477.989 -4.06356 0.365912 0
M  V30 4968 H 476.664 -3.87784 1.5032 0
M  V30 4969 H 475.241 -3.71516 -0.321023 0
M  V30 4970 N 477.426 -0.562348 -1.47226 0
M  V30 4971 C 478.356 0.170627 -2.32876 0
M  V30 4972 C 479.337 0.903748 -1.44106 0
M  V30 4973 O 480.522 0.883206 -1.72954 0
M  V30 4974 C 477.652 1.19786 -3.25989 0
M  V30 4975 C 476.606 0.580875 -4.2404 0
M  V30 4976 C 475.932 1.71311 -5.06514 0
M  V30 4977 C 477.232 -0.468714 -5.20193 0
M  V30 4978 H 478.926 -0.544441 -2.94408 0
M  V30 4979 H 476.472 -0.263271 -1.41573 0
M  V30 4980 H 478.425 1.71884 -3.84752 0
M  V30 4981 H 477.149 1.94294 -2.62521 0
M  V30 4982 H 475.808 0.0811538 -3.6651 0
M  V30 4983 H 475.456 2.44736 -4.39447 0
M  V30 4984 H 475.156 1.30604 -5.72902 0
M  V30 4985 H 476.68 2.23725 -5.68137 0
M  V30 4986 H 478.094 -0.0336028 -5.7329 0
M  V30 4987 H 476.491 -0.794957 -5.94811 0
M  V30 4988 H 477.561 -1.36269 -4.65359 0
M  V30 4989 N 478.904 1.54736 -0.299062 0
M  V30 4990 C 479.854 2.20155 0.592932 0
M  V30 4991 C 480.838 1.1739 1.10038 0
M  V30 4992 O 482.03 1.43116 1.04147 0
M  V30 4993 C 479.159 2.94437 1.76527 0
M  V30 4994 C 478.245 4.04516 1.27388 0
M  V30 4995 N 478.636 5.03319 0.500339 0
M  V30 4996 C 476.934 4.18022 1.55478 0
M  V30 4997 C 477.635 5.81209 0.238909 0
M  V30 4998 N 476.611 5.37408 0.818163 0
M  V30 4999 H 480.413 2.93899 -0.00563596 0
M  V30 5000 H 477.927 1.62068 -0.103732 0
M  V30 5001 H 479.924 3.3977 2.41582 0
M  V30 5002 H 478.584 2.22209 2.36756 0
M  V30 5003 H 479.595 5.17696 0.145419 0
M  V30 5004 H 476.272 3.56998 2.16469 0
M  V30 5005 H 477.662 6.70812 -0.382223 0
M  V30 5006 N 480.382 0.0267497 1.57577 0
M  V30 5007 C 481.329 -0.955894 2.10075 0
M  V30 5008 C 482.299 -1.32453 1.00226 0
M  V30 5009 O 483.484 -1.41826 1.27632 0
M  V30 5010 C 480.624 -2.2338 2.6305 0
M  V30 5011 C 479.737 -1.92183 3.86898 0
M  V30 5012 C 478.872 -3.14251 4.28275 0
M  V30 5013 C 477.911 -2.78862 5.44888 0
M  V30 5014 N 477.048 -3.93548 5.81433 0
M  V30 5015 H 481.888 -0.501303 2.93753 0
M  V30 5016 H 479.425 -0.235847 1.45197 0
M  V30 5017 H 481.383 -2.98124 2.91853 0
M  V30 5018 H 480.013 -2.6646 1.82205 0
M  V30 5019 H 479.065 -1.07692 3.64838 0
M  V30 5020 H 480.377 -1.62117 4.7172 0
M  V30 5021 H 479.531 -3.97317 4.58502 0
M  V30 5022 H 478.27 -3.47476 3.42215 0
M  V30 5023 H 477.275 -1.94208 5.14357 0
M  V30 5024 H 478.5 -2.46855 6.32645 0
M  V30 5025 H 476.446 -4.2662 4.98328 0
M  V30 5026 H 476.363 -3.67098 6.6089 0
M  V30 5027 H 477.631 -4.77325 6.16264 0
M  V30 5028 N 481.861 -1.55662 -0.24637 0
M  V30 5029 C 482.809 -1.91186 -1.3248 0
M  V30 5030 C 483.803 -0.790996 -1.49799 0
M  V30 5031 O 485.009 -0.975617 -1.51267 0
M  V30 5032 H 481.384 -0.607207 -0.443626 0
M  V30 5033 H 483.355 -2.81221 -0.997853 0
M  V30 5034 C 482.104 -2.22349 -2.67313 0
M  V30 5035 H 481.427 -3.08097 -2.54786 0
M  V30 5036 H 482.867 -2.51107 -3.41645 0
M  V30 5037 C 481.326 -1.04001 -3.20446 0
M  V30 5038 O 481.856 -0.28828 -4.00664 0
M  V30 5039 N 480.062 -0.830494 -2.7848 0
M  V30 5040 H 479.609 -1.4435 -2.13356 0
M  V30 5041 H 479.567 -0.0403258 -3.14374 0
M  V30 5042 N 483.339 0.512053 -1.4905 0
M  V30 5043 C 484.564 1.2959 -1.6193 0
M  V30 5044 C 484.989 1.85906 -0.286454 0
M  V30 5045 O 484.347 1.65312 0.744426 0
M  V30 5046 C 484.395 2.40987 -2.68249 0
M  V30 5047 O 483.499 3.44531 -2.26654 0
M  V30 5048 H 482.84 0.383053 -0.542371 0
M  V30 5049 H 485.37 0.614231 -1.95162 0
M  V30 5050 H 485.38 2.86913 -2.90078 0
M  V30 5051 H 484.055 1.99361 -3.65004 0
M  V30 5052 H 482.632 3.046 -2.15112 0
M  V30 5053 N 484.817 1.37938 0.762283 0
M  V30 5054 C 486.063 1.33866 1.52341 0
M  V30 5055 C 486.396 -0.0738961 1.94059 0
M  V30 5056 O 485.671 -1.03326 1.64785 0
M  V30 5057 C 485.954 2.28644 2.78197 0
M  V30 5058 C 485.807 3.78722 2.42672 0
M  V30 5059 C 487.126 2.21702 3.80179 0
M  V30 5060 H 484.245 0.487593 0.55265 0
M  V30 5061 H 486.887 1.68717 0.873767 0
M  V30 5062 H 485.037 1.99055 3.33631 0
M  V30 5063 H 486.709 4.18948 1.93081 0
M  V30 5064 H 484.952 3.96827 1.75244 0
M  V30 5065 H 485.623 4.40486 3.3268 0
M  V30 5066 H 488.099 2.47805 3.34263 0
M  V30 5067 H 486.975 2.90143 4.65949 0
M  V30 5068 H 487.236 1.21301 4.25133 0
M  V30 5069 N 486.295 -0.989507 1.22664 0
M  V30 5070 C 487.52 -1.77031 1.08051 0
M  V30 5071 C 487.945 -1.84535 -0.364483 0
M  V30 5072 O 487.303 -1.3003 -1.2634 0
M  V30 5073 C 487.351 -3.18 1.70024 0
M  V30 5074 O 486.455 -4.01161 0.956216 0
M  V30 5075 H 485.796 -0.545008 0.379292 0
M  V30 5076 H 488.326 -1.24277 1.62531 0
M  V30 5077 H 488.336 -3.68616 1.74888 0
M  V30 5078 H 487.011 -3.11853 2.75174 0
M  V30 5079 H 485.588 -3.59687 0.98384 0
M  V30 5080 N 487.773 -1.03688 -1.18687 0
M  V30 5081 C 488.705 -0.582696 -2.21669 0
M  V30 5082 C 489.718 0.345656 -1.59088 0
M  V30 5083 O 490.907 0.140776 -1.77944 0
M  V30 5084 C 488.007 0.169204 -3.38477 0
M  V30 5085 C 487.18 -0.766079 -4.30639 0
M  V30 5086 C 486.239 -0.0581541 -5.26168 0
M  V30 5087 O 485.265 -0.687346 -5.65035 0
M  V30 5088 N 486.467 1.20981 -5.67753 0
M  V30 5089 H 489.232 -1.46843 -2.61261 0
M  V30 5090 H 486.793 -0.916896 -1.33434 0
M  V30 5091 H 488.785 0.652543 -3.99405 0
M  V30 5092 H 487.355 0.956435 -2.97609 0
M  V30 5093 H 486.575 -1.42935 -3.67373 0
M  V30 5094 H 487.863 -1.40146 -4.89118 0
M  V30 5095 H 487.261 1.74159 -5.38224 0
M  V30 5096 H 485.818 1.6375 -6.30896 0
M  V30 5097 N 489.251 1.34841 -0.815825 0
M  V30 5098 C 490.5 1.97755 -0.396976 0
M  V30 5099 C 490.813 1.65422 1.04379 0
M  V30 5100 O 492.019 2.21771 1.5662 0
M  V30 5101 C 490.475 3.53818 -0.658869 0
M  V30 5102 C 490.083 3.95051 -2.11278 0
M  V30 5103 C 491.827 4.23397 -0.305834 0
M  V30 5104 C 489.734 5.43997 -2.31994 0
M  V30 5105 H 488.664 0.739985 -0.1447 0
M  V30 5106 H 491.315 1.53781 -1.00118 0
M  V30 5107 H 489.697 3.95997 0.0154112 0
M  V30 5108 H 490.871 3.63998 -2.82564 0
M  V30 5109 H 489.186 3.38388 -2.42657 0
M  V30 5110 H 491.783 5.32899 -0.43854 0
M  V30 5111 H 492.126 4.09508 0.748952 0
M  V30 5112 H 492.659 3.8667 -0.934403 0
M  V30 5113 H 489.398 5.62865 -3.35952 0
M  V30 5114 H 488.918 5.76589 -1.65244 0
M  V30 5115 H 490.597 6.10584 -2.14001 0
M  V30 5116 N 490.729 0.570148 1.46925 0
M  V30 5117 C 491.954 0.0542592 2.07329 0
M  V30 5118 C 492.379 -1.23582 1.41806 0
M  V30 5119 O 491.737 -1.74341 0.497479 0
M  V30 5120 C 491.785 -0.111175 3.60429 0
M  V30 5121 O 490.889 -1.17071 3.95434 0
M  V30 5122 H 490.23 0.0571425 0.661537 0
M  V30 5123 H 492.76 0.789516 1.88753 0
M  V30 5124 H 492.77 -0.321315 4.06733 0
M  V30 5125 H 491.445 0.831012 4.07513 0
M  V30 5126 H 490.022 -0.940029 3.60857 0
M  V30 5127 N 492.207 -1.54576 0.307264 0
M  V30 5128 C 493.453 -2.0056 -0.300612 0
M  V30 5129 C 493.786 -1.1953 -1.53057 0
M  V30 5130 O 493.061 -0.27337 -1.92569 0
M  V30 5131 C 493.344 -3.54167 -0.650987 0
M  V30 5132 C 493.197 -4.45933 0.588539 0
M  V30 5133 C 494.516 -4.14645 -1.47506 0
M  V30 5134 H 491.635 -0.729075 -0.107788 0
M  V30 5135 H 494.277 -1.85286 0.420606 0
M  V30 5136 H 492.427 -3.67313 -1.26544 0
M  V30 5137 H 494.099 -4.44683 1.22697 0
M  V30 5138 H 492.342 -4.16274 1.22058 0
M  V30 5139 H 493.013 -5.51189 0.299153 0
M  V30 5140 H 495.489 -4.04973 -0.955821 0
M  V30 5141 H 494.365 -5.22269 -1.68899 0
M  V30 5142 H 494.626 -3.66921 -2.4662 0
M  V30 5143 N 493.685 -0.035106 -1.57561 0
M  V30 5144 C 494.615 0.942993 -2.13612 0
M  V30 5145 C 495.596 1.33531 -1.05373 0
M  V30 5146 O 496.781 1.41287 -1.33235 0
M  V30 5147 C 493.911 2.22332 -2.66807 0
M  V30 5148 C 492.865 1.97156 -3.79886 0
M  V30 5149 C 492.191 3.31506 -4.19533 0
M  V30 5150 C 493.491 1.30596 -5.05709 0
M  V30 5151 H 495.185 0.476179 -2.95589 0
M  V30 5152 H 492.731 0.227602 -1.4219 0
M  V30 5153 H 494.684 2.91142 -3.04654 0
M  V30 5154 H 493.408 2.7119 -1.81999 0
M  V30 5155 H 492.067 1.30763 -3.42486 0
M  V30 5156 H 491.715 3.78134 -3.31698 0
M  V30 5157 H 491.415 3.15465 -4.95738 0
M  V30 5158 H 492.939 4.01574 -4.59968 0
M  V30 5159 H 494.353 1.89416 -5.41105 0
M  V30 5160 H 492.75 1.24934 -5.86951 0
M  V30 5161 H 493.82 0.279742 -4.84092 0
M  V30 5162 N 495.163 1.55791 0.238111 0
M  V30 5163 C 496.388 1.8244 0.986432 0
M  V30 5164 C 496.813 0.613314 1.7782 0
M  V30 5165 O 496.171 -0.437767 1.75935 0
M  V30 5166 C 496.219 3.06917 1.893 0
M  V30 5167 O 495.323 2.84449 2.98601 0
M  V30 5168 H 494.664 0.601975 0.280218 0
M  V30 5169 H 497.194 2.02987 0.256437 0
M  V30 5170 H 497.204 3.36583 2.30598 0
M  V30 5171 H 495.879 3.947 1.31091 0
M  V30 5172 H 494.456 2.65972 2.61368 0
M  V30 5173 N 496.642 -0.504142 1.49319 0
M  V30 5174 C 497.89 -1.25598 1.58334 0
M  V30 5175 C 498.211 -1.93114 0.270538 0
M  V30 5176 O 497.481 -1.82585 -0.709891 0
M  V30 5177 H 496.061 -0.466571 0.58337 0
M  V30 5178 H 498.723 -0.584547 1.85928 0
M  V30 5179 H 497.819 -2.02159 2.37778 0
M  V30 5180 N 498.12 -1.38341 -0.754957 0
M  V30 5181 C 499.368 -1.34208 -1.51105 0
M  V30 5182 C 499.689 0.0677634 -1.94882 0
M  V30 5183 O 498.959 1.01517 -1.67544 0
M  V30 5184 H 497.539 -0.493819 -0.560493 0
M  V30 5185 H 500.201 -1.73005 -0.897507 0
M  V30 5186 H 499.297 -1.99203 -2.4026 0
M  V30 5187 N 499.598 0.982988 -1.23187 0
M  V30 5188 C 500.545 2.07491 -1.01075 0
M  V30 5189 C 501.515 1.65949 0.070905 0
M  V30 5190 O 502.7 1.90629 -0.0806822 0
M  V30 5191 C 499.84 3.39751 -0.605261 0
M  V30 5192 C 498.953 3.94578 -1.75876 0
M  V30 5193 C 498.088 5.15039 -1.3003 0
M  V30 5194 C 497.127 5.62027 -2.42472 0
M  V30 5195 N 496.264 6.73719 -1.97602 0
M  V30 5196 H 501.104 2.25739 -1.9454 0
M  V30 5197 H 498.641 1.10659 -0.969179 0
M  V30 5198 H 500.599 4.15719 -0.351279 0
M  V30 5199 H 499.229 3.21473 0.292382 0
M  V30 5200 H 498.281 3.1539 -2.12681 0
M  V30 5201 H 499.593 4.25422 -2.60418 0
M  V30 5202 H 498.747 5.9833 -1.00429 0
M  V30 5203 H 497.486 4.85843 -0.425216 0
M  V30 5204 H 496.491 4.77318 -2.7285 0
M  V30 5205 H 497.716 5.93244 -3.30512 0
M  V30 5206 H 495.662 6.46287 -1.1247 0
M  V30 5207 H 495.579 7.03934 -2.75705 0
M  V30 5208 H 496.847 7.6049 -1.71098 0
M  V30 5209 N 501.076 1.04316 1.18135 0
M  V30 5210 C 502.039 0.640794 2.2006 0
M  V30 5211 C 503.039 -0.303124 1.57917 0
M  V30 5212 O 504.229 -0.0881855 1.73977 0
M  V30 5213 C 501.361 -0.060148 3.40847 0
M  V30 5214 H 502.554 1.54281 2.57172 0
M  V30 5215 H 500.107 0.836004 1.32063 0
M  V30 5216 H 500.842 -0.975845 3.0927 0
M  V30 5217 H 500.627 0.618319 3.87194 0
M  V30 5218 H 502.117 -0.328082 4.16309 0
M  V30 5219 N 502.554 -1.34406 0.822964 0
M  V30 5220 C 503.501 -2.29519 0.24284 0
M  V30 5221 C 504.471 -1.5359 -0.632397 0
M  V30 5222 O 505.656 -1.8196 -0.57403 0
M  V30 5223 C 502.796 -3.40032 -0.58925 0
M  V30 5224 C 501.909 -4.30899 0.308236 0
M  V30 5225 C 501.044 -5.28515 -0.533425 0
M  V30 5226 C 500.083 -6.1102 0.363444 0
M  V30 5227 N 499.22 -7.00725 -0.439147 0
M  V30 5228 H 504.06 -2.78537 1.05929 0
M  V30 5229 H 501.597 -1.3707 0.533872 0
M  V30 5230 H 503.555 -4.0279 -1.087 0
M  V30 5231 H 502.185 -2.92248 -1.37081 0
M  V30 5232 H 501.237 -3.69002 0.924203 0
M  V30 5233 H 502.549 -4.88717 0.997862 0
M  V30 5234 H 501.703 -5.96725 -1.09565 0
M  V30 5235 H 500.442 -4.71235 -1.25656 0
M  V30 5236 H 499.447 -5.41743 0.937812 0
M  V30 5237 H 500.672 -6.70381 1.08469 0
M  V30 5238 H 498.618 -6.45913 -1.14595 0
M  V30 5239 H 498.535 -7.55756 0.19209 0
M  V30 5240 H 499.803 -7.73263 -0.984124 0
M  V30 5241 N 504.032 -0.577932 -1.46621 0
M  V30 5242 C 505.272 -0.0643097 -2.04299 0
M  V30 5243 C 505.636 1.26967 -1.44026 0
M  V30 5244 O 506.837 1.87224 -1.92875 0
M  V30 5245 C 505.108 0.00547588 -3.574 0
M  V30 5246 S 506.667 0.462216 -4.36359 0
M  V30 5247 H 503.485 -0.0351573 -0.71013 0
M  V30 5248 H 506.087 -0.76935 -1.79725 0
M  V30 5249 H 504.791 -0.969423 -3.98786 0
M  V30 5250 H 504.322 0.733435 -3.86503 0
M  V30 5251 H 506.337 1.71791 -4.65513 0
M  V30 5252 N 505.51 1.54411 -0.315457 0
M  V30 5253 C 506.735 2.05299 0.294496 0
M  V30 5254 C 507.16 1.19052 1.4563 0
M  V30 5255 O 506.518 0.197804 1.80218 0
M  V30 5256 C 506.566 3.5345 0.714549 0
M  V30 5257 O 505.67 3.70175 1.81781 0
M  V30 5258 H 505.011 0.661743 0.0547019 0
M  V30 5259 H 507.541 1.99327 -0.461508 0
M  V30 5260 H 507.551 3.9557 0.999426 0
M  V30 5261 H 506.226 4.1568 -0.135244 0
M  V30 5262 H 504.803 3.3996 1.53236 0
M  V30 5263 N 506.988 0.0434614 1.5754 0
M  V30 5264 C 507.92 -0.962586 2.08007 0
M  V30 5265 C 508.933 -1.27972 1.00634 0
M  V30 5266 O 510.122 -1.24186 1.28219 0
M  V30 5267 C 507.222 -2.28621 2.50171 0
M  V30 5268 C 506.395 -2.15214 3.80791 0
M  V30 5269 C 505.454 -3.30633 4.09351 0
M  V30 5270 O 504.48 -3.0688 4.79388 0
M  V30 5271 N 505.682 -4.54873 3.60654 0
M  V30 5272 H 508.447 -0.531891 2.94942 0
M  V30 5273 H 506.008 -0.142965 1.61268 0
M  V30 5274 H 508 -3.04689 2.66359 0
M  V30 5275 H 506.57 -2.63283 1.68525 0
M  V30 5276 H 505.79 -1.23785 3.74261 0
M  V30 5277 H 507.078 -2.03475 4.66343 0
M  V30 5278 H 506.476 -4.77063 3.04019 0
M  V30 5279 H 505.033 -5.2806 3.82094 0
M  V30 5280 N 508.466 -1.55915 -0.229846 0
M  V30 5281 C 509.713 -1.78542 -0.955452 0
M  V30 5282 C 510.041 -0.610785 -1.84661 0
M  V30 5283 O 509.296 0.405213 -1.91459 0
M  V30 5284 C 509.595 -3.06845 -1.8325 0
M  V30 5285 C 509.261 -4.37395 -1.09528 0
M  V30 5286 C 507.923 -4.72868 -0.891598 0
M  V30 5287 C 510.275 -5.18029 -0.574046 0
M  V30 5288 C 507.603 -5.86496 -0.154655 0
M  V30 5289 C 509.955 -6.32423 0.149513 0
M  V30 5290 C 508.619 -6.66504 0.364519 0
M  V30 5291 H 507.889 -0.653333 -0.349625 0
M  V30 5292 H 510.536 -1.90183 -0.224235 0
M  V30 5293 H 508.841 -2.90291 -2.63132 0
M  V30 5294 H 510.538 -3.21553 -2.39592 0
M  V30 5295 H 507.128 -4.09538 -1.26399 0
M  V30 5296 H 511.312 -4.91066 -0.718899 0
M  V30 5297 H 506.568 -6.11396 0.0222356 0
M  V30 5298 H 510.742 -6.94137 0.560947 0
M  V30 5299 H 508.369 -7.54397 0.937495 0
M  V30 5300 N 509.944 0.496216 -1.49584 0
M  V30 5301 C 511.184 1.26015 -1.60933 0
M  V30 5302 C 511.548 1.89772 -0.291646 0
M  V30 5303 O 512.749 2.67334 -0.280357 0
M  V30 5304 C 511.02 2.29506 -2.73974 0
M  V30 5305 S 512.579 3.15175 -3.05303 0
M  V30 5306 H 509.397 0.428194 -0.567601 0
M  V30 5307 H 511.999 0.561484 -1.87263 0
M  V30 5308 H 510.703 1.81205 -3.68229 0
M  V30 5309 H 510.234 3.04036 -2.49651 0
M  V30 5310 H 512.249 4.30244 -2.47193 0
M  V30 5311 N 511.423 1.38739 0.74761 0
M  V30 5312 C 512.651 1.38521 1.53686 0
M  V30 5313 C 513.066 -0.0235129 1.88785 0
M  V30 5314 O 512.423 -0.991662 1.53207 0
M  V30 5315 C 512.474 2.24641 2.83229 0
M  V30 5316 O 512.195 3.60026 2.49625 0
M  V30 5317 C 513.696 2.32669 3.77333 0
M  V30 5318 H 510.916 0.473589 0.475347 0
M  V30 5319 H 513.46 1.82395 0.924786 0
M  V30 5320 H 511.615 1.84213 3.40799 0
M  V30 5321 H 512.029 4.05435 3.3275 0
M  V30 5322 H 513.503 2.97201 4.65162 0
M  V30 5323 H 513.98 1.3421 4.18192 0
M  V30 5324 H 514.586 2.73512 3.25685 0
M  V30 5325 N 512.901 -0.976442 1.23707 0
M  V30 5326 C 514.129 -1.75341 1.09833 0
M  V30 5327 C 514.544 -1.8553 -0.349885 0
M  V30 5328 O 513.901 -1.33732 -1.24185 0
M  V30 5329 C 513.952 -3.17833 1.72233 0
M  V30 5330 O 513.673 -3.08167 3.11391 0
M  V30 5331 C 515.174 -4.11906 1.63853 0
M  V30 5332 H 512.394 -0.550137 0.384175 0
M  V30 5333 H 514.938 -1.2265 1.63638 0
M  V30 5334 H 513.093 -3.67538 1.22452 0
M  V30 5335 H 513.507 -3.97897 3.41729 0
M  V30 5336 H 514.981 -5.09579 2.12211 0
M  V30 5337 H 515.458 -4.35109 0.598092 0
M  V30 5338 H 516.064 -3.68107 2.13019 0
M  V30 5339 N 514.379 -1.04941 -1.1758 0
M  V30 5340 C 515.627 -0.756492 -1.87408 0
M  V30 5341 C 515.948 0.718478 -1.81281 0
M  V30 5342 O 515.218 1.519 -1.23706 0
M  V30 5343 H 513.798 -0.276841 -0.693807 0
M  V30 5344 H 516.46 -1.32803 -1.42652 0
M  V30 5345 H 515.556 -1.06918 -2.93215 0
M  V30 5346 N 515.857 1.33968 -0.830081 0
M  V30 5347 C 516.79 2.27303 -0.202182 0
M  V30 5348 C 517.768 1.49235 0.645581 0
M  V30 5349 O 518.952 1.78433 0.607762 0
M  V30 5350 C 516.079 3.31025 0.716932 0
M  V30 5351 C 515.125 4.26466 -0.0542271 0
M  V30 5352 S 515.958 5.16707 -1.40622 0
M  V30 5353 C 517.114 6.23962 -0.492167 0
M  V30 5354 H 517.347 2.8021 -0.99346 0
M  V30 5355 H 514.88 1.41124 -0.626359 0
M  V30 5356 H 516.838 3.91271 1.24165 0
M  V30 5357 H 515.499 2.76951 1.4818 0
M  V30 5358 H 514.692 4.99858 0.644785 0
M  V30 5359 H 514.294 3.7051 -0.509722 0
M  V30 5360 H 516.586 6.76774 0.31347 0
M  V30 5361 H 517.529 6.97927 -1.19599 0
M  V30 5362 H 517.937 5.64447 -0.0774176 0
M  V30 5363 N 517.335 0.585699 1.46312 0
M  V30 5364 C 518.612 0.00542031 1.95599 0
M  V30 5365 C 518.992 -1.45619 1.52834 0
M  V30 5366 O 518.34 -2.14759 0.780446 0
M  V30 5367 C 518.55 0.180601 3.48532 0
M  V30 5368 C 519.898 0.049979 4.24571 0
M  V30 5369 O 520.922 0.109589 3.56031 0
M  V30 5370 O 519.781 -0.0832226 5.46437 0
M  V30 5371 H 516.875 -0.0481281 0.825598 0
M  V30 5372 H 519.421 0.654227 1.56582 0
M  V30 5373 H 518.193 1.19657 3.72556 0
M  V30 5374 H 517.816 -0.504498 3.94386 0
M  V30 5375 N 518.813 -1.54241 0.323641 0
M  V30 5376 C 520.061 -2.00174 -0.278359 0
M  V30 5377 C 520.382 -1.2134 -1.52648 0
M  V30 5378 O 519.652 -0.315244 -1.93347 0
M  V30 5379 H 518.232 -0.739463 -0.105845 0
M  V30 5380 H 520.894 -1.89864 0.440204 0
M  V30 5381 H 519.99 -3.07486 -0.5347 0
M  V30 5382 N 520.291 -0.0518155 -1.57515 0
M  V30 5383 C 521.539 0.620595 -1.92336 0
M  V30 5384 C 521.86 1.71345 -0.930907 0
M  V30 5385 O 521.13 1.95885 0.0241341 0
M  V30 5386 H 519.71 0.232226 -0.709986 0
M  V30 5387 H 522.372 -0.104969 -1.94617 0
M  V30 5388 H 521.468 1.05879 -2.93592 0
M  V30 5389 N 521.769 1.56035 0.221574 0
M  V30 5390 C 522.702 1.87427 1.30178 0
M  V30 5391 C 523.68 0.731658 1.45209 0
M  V30 5392 O 524.864 0.980016 1.61022 0
M  V30 5393 C 521.991 2.08127 2.67209 0
M  V30 5394 C 521.037 3.30813 2.69194 0
M  V30 5395 S 521.87 4.86738 2.23263 0
M  V30 5396 C 523.026 5.10474 3.62171 0
M  V30 5397 H 523.259 2.78756 1.03355 0
M  V30 5398 H 520.792 1.48469 0.423813 0
M  V30 5399 H 522.75 2.20736 3.46101 0
M  V30 5400 H 521.411 1.17595 2.91256 0
M  V30 5401 H 520.604 3.42341 3.6989 0
M  V30 5402 H 520.206 3.1706 1.98366 0
M  V30 5403 H 522.498 4.9937 4.5786 0
M  V30 5404 H 523.441 6.12359 3.55558 0
M  V30 5405 H 523.849 4.38208 3.55857 0
M  V30 5406 N 523.247 -0.488276 1.49845 0
M  V30 5407 C 524.472 -1.26997 1.63971 0
M  V30 5408 C 524.897 -1.85427 0.315994 0
M  V30 5409 O 524.255 -1.66475 -0.718032 0
M  V30 5410 C 524.303 -2.36689 2.72049 0
M  V30 5411 O 523.407 -3.40882 2.32107 0
M  V30 5412 H 522.748 -0.374376 0.548396 0
M  V30 5413 H 525.278 -0.583104 1.96115 0
M  V30 5414 H 525.288 -2.82262 2.94605 0
M  V30 5415 H 523.963 -1.93529 3.68129 0
M  V30 5416 H 522.54 -3.01139 2.19931 0
M  V30 5417 N 524.725 -1.39134 -0.740242 0
M  V30 5418 C 525.974 -1.35384 -1.49512 0
M  V30 5419 C 526.287 0.04919 -1.95538 0
M  V30 5420 O 527.493 0.209257 -2.70692 0
M  V30 5421 C 525.949 -2.37812 -2.70136 0
M  V30 5422 C 525.557 -3.83804 -2.31081 0
M  V30 5423 C 527.301 -2.4313 -3.47977 0
M  V30 5424 C 525.208 -4.77886 -3.48395 0
M  V30 5425 H 524.138 -0.503297 -0.561434 0
M  V30 5426 H 526.789 -1.64754 -0.807974 0
M  V30 5427 H 525.171 -2.01505 -3.40899 0
M  V30 5428 H 526.345 -4.29123 -1.67898 0
M  V30 5429 H 524.66 -3.81732 -1.66343 0
M  V30 5430 H 527.257 -3.10614 -4.35228 0
M  V30 5431 H 527.6 -1.45423 -3.90074 0
M  V30 5432 H 528.133 -2.78304 -2.84239 0
M  V30 5433 H 524.872 -5.76836 -3.11353 0
M  V30 5434 H 524.392 -4.3725 -4.10576 0
M  V30 5435 H 526.071 -4.96538 -4.148 0
M  V30 5436 N 526.204 0.969867 -1.24223 0
M  V30 5437 C 527.45 1.71582 -1.09231 0
M  V30 5438 C 527.805 1.88898 0.365432 0
M  V30 5439 O 527.098 1.43781 1.2664 0
M  V30 5440 C 527.292 3.10883 -1.76314 0
M  V30 5441 C 527.121 3.07155 -3.2846 0
M  V30 5442 C 525.891 3.11757 -3.97663 0
M  V30 5443 C 528.089 2.895 -4.25082 0
M  V30 5444 N 526.071 2.98025 -5.36707 0
M  V30 5445 C 527.442 2.84041 -5.51109 0
M  V30 5446 C 529.497 2.74064 -4.15684 0
M  V30 5447 C 528.2 2.64725 -6.68815 0
M  V30 5448 C 530.226 2.56115 -5.33066 0
M  V30 5449 C 529.588 2.51363 -6.58024 0
M  V30 5450 H 525.687 0.636496 -0.454309 0
M  V30 5451 H 528.271 1.15004 -1.57106 0
M  V30 5452 H 526.442 3.65657 -1.30955 0
M  V30 5453 H 528.174 3.74171 -1.54201 0
M  V30 5454 H 524.929 3.20352 -3.48814 0
M  V30 5455 H 525.353 2.94405 -6.09635 0
M  V30 5456 H 529.995 2.76521 -3.19837 0
M  V30 5457 H 527.713 2.61011 -7.64787 0
M  V30 5458 H 531.299 2.45119 -5.27644 0
M  V30 5459 H 530.179 2.37651 -7.47323 0
M  V30 5460 N 527.682 1.05563 1.17022 0
M  V30 5461 C 528.959 0.68165 1.83338 0
M  V30 5462 C 529.339 -0.837665 1.93769 0
M  V30 5463 O 528.687 -1.74507 1.47511 0
M  V30 5464 C 528.897 1.375 3.20772 0
M  V30 5465 C 530.245 1.51545 3.96635 0
M  V30 5466 O 531.269 1.33431 3.30264 0
M  V30 5467 O 530.128 1.812 5.15586 0
M  V30 5468 H 527.222 0.240412 0.791285 0
M  V30 5469 H 529.768 1.15545 1.24288 0
M  V30 5470 H 528.54 2.41135 3.08171 0
M  V30 5471 H 528.163 0.890798 3.87493 0
M  V30 5472 N 529.16 -1.33526 0.837174 0
M  V30 5473 C 530.406 -1.9813 0.432704 0
M  V30 5474 C 530.739 -1.66168 -1.00508 0
M  V30 5475 O 530.014 -0.94069 -1.70239 0
M  V30 5476 C 530.297 -3.54151 0.651834 0
M  V30 5477 C 530.15 -3.95806 2.13676 0
M  V30 5478 C 531.469 -4.39993 0.0968937 0
M  V30 5479 H 528.588 -0.719713 0.15869 0
M  V30 5480 H 531.23 -1.58193 1.05237 0
M  V30 5481 H 529.38 -3.88301 0.124369 0
M  V30 5482 H 531.052 -3.71921 2.72896 0
M  V30 5483 H 529.295 -3.45599 2.62191 0
M  V30 5484 H 529.966 -5.0447 2.24084 0
M  V30 5485 H 532.442 -4.12479 0.547733 0
M  V30 5486 H 531.318 -5.48186 0.279917 0
M  V30 5487 H 531.579 -4.3066 -0.9992 0
M  V30 5488 N 530.638 -0.59345 -1.46 0
M  V30 5489 C 531.585 0.133618 -2.30413 0
M  V30 5490 C 532.555 0.873736 -1.41262 0
M  V30 5491 O 533.74 0.862279 -1.70204 0
M  V30 5492 C 530.88 1.13434 -3.25924 0
M  V30 5493 C 529.993 0.39656 -4.30176 0
M  V30 5494 C 529.128 1.38575 -5.12806 0
M  V30 5495 C 528.167 0.634984 -6.08797 0
M  V30 5496 N 527.304 1.57276 -6.84258 0
M  V30 5497 H 532.144 -0.592252 -2.92055 0
M  V30 5498 H 529.681 -0.303874 -1.43927 0
M  V30 5499 H 531.639 1.72752 -3.79753 0
M  V30 5500 H 530.269 1.82779 -2.66067 0
M  V30 5501 H 529.321 -0.311861 -3.79119 0
M  V30 5502 H 530.633 -0.189869 -4.98438 0
M  V30 5503 H 529.787 2.05141 -5.70966 0
M  V30 5504 H 528.526 2.00611 -4.44529 0
M  V30 5505 H 527.531 -0.0443925 -5.49782 0
M  V30 5506 H 528.756 0.0198678 -6.79097 0
M  V30 5507 H 526.702 2.18103 -6.18682 0
M  V30 5508 H 526.619 1.03941 -7.48821 0
M  V30 5509 H 527.887 2.22844 -7.46968 0
M  V30 5510 N 532.116 1.54067 -0.331816 0
M  V30 5511 C 533.341 2.05599 0.272705 0
M  V30 5512 C 533.766 1.2059 1.44359 0
M  V30 5513 O 533.124 0.216907 1.79998 0
M  V30 5514 C 533.172 3.54188 0.677021 0
M  V30 5515 O 532.276 3.72082 1.77844 0
M  V30 5516 H 531.617 0.662286 0.0476801 0
M  V30 5517 H 534.147 1.98826 -0.482624 0
M  V30 5518 H 534.157 3.96608 0.957415 0
M  V30 5519 H 532.832 4.15513 -0.179325 0
M  V30 5520 H 531.409 3.41566 1.49622 0
M  V30 5521 N 533.594 0.0601682 1.57485 0
M  V30 5522 C 534.524 -0.90889 2.15085 0
M  V30 5523 C 535.505 -1.31838 1.07484 0
M  V30 5524 O 536.69 -1.3915 1.35466 0
M  V30 5525 C 533.82 -2.18059 2.7031 0
M  V30 5526 C 532.774 -1.91088 3.82974 0
M  V30 5527 C 532.1 -3.24789 4.24754 0
M  V30 5528 C 533.4 -1.22535 5.07723 0
M  V30 5529 H 535.094 -0.429093 2.96309 0
M  V30 5530 H 532.64 -0.204952 1.42534 0
M  V30 5531 H 534.593 -2.86258 3.09248 0
M  V30 5532 H 533.317 -2.6826 1.8629 0
M  V30 5533 H 531.976 -1.25297 3.44523 0
M  V30 5534 H 531.624 -3.72809 3.37672 0
M  V30 5535 H 531.324 -3.07538 5.00694 0
M  V30 5536 H 532.848 -3.94205 4.66299 0
M  V30 5537 H 534.262 -1.80783 5.4405 0
M  V30 5538 H 532.659 -1.1558 5.88864 0
M  V30 5539 H 533.729 -0.202692 4.84476 0
M  V30 5540 N 535.072 -1.5615 -0.213296 0
M  V30 5541 C 535.982 -1.96265 -1.28519 0
M  V30 5542 C 536.998 -0.86765 -1.50824 0
M  V30 5543 O 538.174 -1.17191 -1.63793 0
M  V30 5544 C 535.239 -2.27836 -2.61327 0
M  V30 5545 C 534.3 -3.50949 -2.47252 0
M  V30 5546 C 533.533 -3.81004 -3.73727 0
M  V30 5547 O 533.756 -3.12612 -4.77106 0
M  V30 5548 O 532.69 -4.74477 -3.70344 0
M  V30 5549 H 536.516 -2.87631 -0.974795 0
M  V30 5550 H 534.101 -1.43467 -0.416832 0
M  V30 5551 H 535.983 -2.49299 -3.39747 0
M  V30 5552 H 534.658 -1.39643 -2.9203 0
M  V30 5553 H 533.565 -3.34754 -1.67004 0
M  V30 5554 H 534.898 -4.39551 -2.21486 0
M  V30 5555 N 536.55 0.480323 -1.50102 0
M  V30 5556 C 537.775 1.26126 -1.64642 0
M  V30 5557 C 538.2 1.85257 -0.325823 0
M  V30 5558 O 537.558 1.66854 0.709194 0
M  V30 5559 C 537.606 2.35243 -2.73301 0
M  V30 5560 O 536.71 3.39646 -2.33911 0
M  V30 5561 H 536.051 0.371463 -0.550374 0
M  V30 5562 H 538.581 0.572696 -1.96421 0
M  V30 5563 H 538.591 2.80695 -2.96098 0
M  V30 5564 H 537.266 1.91574 -3.6915 0
M  V30 5565 H 535.843 2.99969 -2.21525 0
M  V30 5566 N 538.028 1.39524 0.732853 0
M  V30 5567 C 538.991 1.38189 1.82857 0
M  V30 5568 C 539.991 0.278624 1.58368 0
M  V30 5569 O 541.181 0.536639 1.65728 0
M  V30 5570 C 538.313 1.15661 3.2068 0
M  V30 5571 H 539.506 2.35692 1.85444 0
M  V30 5572 H 537.059 1.2512 0.936728 0
M  V30 5573 H 537.794 0.188482 3.23752 0
M  V30 5574 H 537.579 1.95559 3.39852 0
M  V30 5575 H 539.069 1.17472 4.00737 0
M  V30 5576 N 539.506 -0.963266 1.24736 0
M  V30 5577 C 540.436 -2.07628 1.06832 0
M  V30 5578 C 541.417 -1.70088 -0.0200566 0
M  V30 5579 O 542.602 -1.93636 0.147854 0
M  V30 5580 C 539.732 -3.40636 0.677069 0
M  V30 5581 C 538.686 -3.9215 1.71471 0
M  V30 5582 C 538.012 -5.21553 1.1784 0
M  V30 5583 C 539.312 -4.19493 3.11164 0
M  V30 5584 H 541.006 -2.22864 1.9993 0
M  V30 5585 H 538.552 -1.07093 0.96266 0
M  V30 5586 H 540.505 -4.17941 0.538792 0
M  V30 5587 H 539.229 -3.25313 -0.289612 0
M  V30 5588 H 537.888 -3.17005 1.84128 0
M  V30 5589 H 537.536 -5.02593 0.202195 0
M  V30 5590 H 537.236 -5.56988 1.87185 0
M  V30 5591 H 538.76 -6.01463 1.05233 0
M  V30 5592 H 540.174 -4.87487 3.01711 0
M  V30 5593 H 538.571 -4.66165 3.77902 0
M  V30 5594 H 539.641 -3.26097 3.58871 0
M  V30 5595 N 540.985 -1.06182 -1.16461 0
M  V30 5596 C 541.932 -0.671613 -2.20812 0
M  V30 5597 C 542.902 0.331186 -1.62765 0
M  V30 5598 O 544.087 0.22033 -1.89524 0
M  V30 5599 C 541.227 -0.063029 -3.45042 0
M  V30 5600 C 540.34 -1.11587 -4.1734 0
M  V30 5601 C 539.475 -0.473546 -5.29085 0
M  V30 5602 C 538.514 -1.51 -5.93182 0
M  V30 5603 N 537.651 -0.891118 -6.96422 0
M  V30 5604 H 542.491 -1.56589 -2.53542 0
M  V30 5605 H 540.028 -0.782951 -1.24532 0
M  V30 5606 H 541.986 0.307344 -4.16066 0
M  V30 5607 H 540.616 0.794663 -3.12866 0
M  V30 5608 H 539.668 -1.60396 -3.44931 0
M  V30 5609 H 540.98 -1.90221 -4.61104 0
M  V30 5610 H 540.134 -0.0501432 -6.06679 0
M  V30 5611 H 538.873 0.344687 -4.8648 0
M  V30 5612 H 537.878 -1.94331 -5.14311 0
M  V30 5613 H 539.103 -2.33031 -6.37866 0
M  V30 5614 H 537.049 -0.0935753 -6.55933 0
M  V30 5615 H 536.966 -1.61486 -7.38551 0
M  V30 5616 H 538.234 -0.492822 -7.77941 0
M  V30 5617 N 542.463 1.3308 -0.844243 0
M  V30 5618 C 543.74 1.92178 -0.364261 0
M  V30 5619 C 544.12 1.76961 1.15101 0
M  V30 5620 O 543.468 1.16128 1.9679 0
M  V30 5621 C 543.678 3.393 -0.817106 0
M  V30 5622 C 545.026 4.16444 -0.828236 0
M  V30 5623 O 546.05 3.47975 -0.761062 0
M  V30 5624 O 544.909 5.38685 -0.920926 0
M  V30 5625 H 542.003 0.820411 -0.10419 0
M  V30 5626 H 544.549 1.41918 -0.930453 0
M  V30 5627 H 543.321 3.44272 -1.85991 0
M  V30 5628 H 542.944 3.96947 -0.227785 0
M  V30 5629 N 543.941 0.601185 1.45683 0
M  V30 5630 C 544.871 -0.108824 2.33246 0
M  V30 5631 C 545.852 -0.865223 1.46451 0
M  V30 5632 O 547.037 -0.83704 1.75235 0
M  V30 5633 C 544.167 -1.11101 3.2905 0
M  V30 5634 C 543.121 -0.468244 4.25431 0
M  V30 5635 C 542.447 -1.57822 5.10878 0
M  V30 5636 C 543.747 0.606469 5.18767 0
M  V30 5637 H 545.441 0.622306 2.92861 0
M  V30 5638 H 542.987 0.300714 1.40825 0
M  V30 5639 H 544.94 -1.61622 3.89174 0
M  V30 5640 H 543.664 -1.87265 2.67581 0
M  V30 5641 H 542.323 0.0160484 3.66596 0
M  V30 5642 H 541.971 -2.32998 4.45781 0
M  V30 5643 H 541.671 -1.15369 5.76163 0
M  V30 5644 H 543.195 -2.08583 5.73869 0
M  V30 5645 H 544.609 0.185589 5.73 0
M  V30 5646 H 543.006 0.952381 5.92494 0
M  V30 5647 H 544.076 1.48559 4.61582 0
M  V30 5648 N 545.419 -1.53889 0.339982 0
M  V30 5649 C 546.366 -2.24902 -0.518452 0
M  V30 5650 C 547.336 -1.24593 -1.09844 0
M  V30 5651 O 548.521 -1.53317 -1.13572 0
M  V30 5652 C 545.661 -3.02262 -1.66529 0
M  V30 5653 C 544.774 -4.17418 -1.11295 0
M  V30 5654 C 543.909 -4.82273 -2.2268 0
M  V30 5655 C 542.948 -5.89503 -1.6478 0
M  V30 5656 N 542.085 -6.48153 -2.69893 0
M  V30 5657 H 546.925 -2.97853 0.0936579 0
M  V30 5658 H 544.462 -1.46986 0.0579924 0
M  V30 5659 H 546.42 -3.45371 -2.3404 0
M  V30 5660 H 545.05 -2.31614 -2.24844 0
M  V30 5661 H 544.102 -3.78976 -0.328886 0
M  V30 5662 H 545.414 -4.94554 -0.649414 0
M  V30 5663 H 544.568 -5.28435 -2.98063 0
M  V30 5664 H 543.307 -4.04552 -2.72376 0
M  V30 5665 H 542.312 -5.42728 -0.879004 0
M  V30 5666 H 543.537 -6.6913 -1.1594 0
M  V30 5667 H 541.483 -5.73298 -3.1885 0
M  V30 5668 H 541.4 -7.20752 -2.28151 0
M  V30 5669 H 542.668 -6.98968 -3.45056 0
M  V30 5670 N 546.897 -0.0685191 -1.57451 0
M  V30 5671 C 548.146 0.600898 -1.92541 0
M  V30 5672 C 548.459 1.70967 -0.950239 0
M  V30 5673 O 549.665 2.43844 -1.19384 0
M  V30 5674 C 548.121 1.12019 -3.42023 0
M  V30 5675 C 547.729 0.0426028 -4.4798 0
M  V30 5676 C 549.473 1.76386 -3.86119 0
M  V30 5677 C 547.38 0.575759 -5.88591 0
M  V30 5678 H 546.31 0.228225 -0.71863 0
M  V30 5679 H 548.961 -0.140223 -1.82963 0
M  V30 5680 H 547.343 1.91418 -3.46663 0
M  V30 5681 H 548.517 -0.73182 -4.54952 0
M  V30 5682 H 546.832 -0.504642 -4.13331 0
M  V30 5683 H 549.429 2.17302 -4.88553 0
M  V30 5684 H 549.772 2.62255 -3.23308 0
M  V30 5685 H 550.305 1.03615 -3.84069 0
M  V30 5686 H 547.044 -0.245691 -6.55039 0
M  V30 5687 H 546.564 1.31778 -5.85145 0
M  V30 5688 H 548.243 1.0532 -6.3837 0
M  V30 5689 N 548.375 1.56261 0.205012 0
M  V30 5690 C 549.322 1.93754 1.25411 0
M  V30 5691 C 550.292 0.796826 1.45739 0
M  V30 5692 O 551.477 1.05414 1.59036 0
M  V30 5693 C 548.617 2.27383 2.59598 0
M  V30 5694 C 547.73 3.5447 2.46931 0
M  V30 5695 C 546.865 3.77468 3.73753 0
M  V30 5696 C 545.904 4.98014 3.55877 0
M  V30 5697 N 545.041 5.17316 4.74688 0
M  V30 5698 H 549.881 2.83203 0.92737 0
M  V30 5699 H 547.418 1.40158 0.446574 0
M  V30 5700 H 549.376 2.44895 3.37761 0
M  V30 5701 H 548.006 1.41088 2.90335 0
M  V30 5702 H 547.058 3.45061 1.60116 0
M  V30 5703 H 548.37 4.42789 2.29651 0
M  V30 5704 H 547.524 3.95165 4.60358 0
M  V30 5705 H 546.263 2.87461 3.93976 0
M  V30 5706 H 545.268 4.80249 2.67657 0
M  V30 5707 H 546.493 5.8952 3.37109 0
M  V30 5708 H 544.439 4.30255 4.95194 0
M  V30 5709 H 544.356 5.99796 4.60197 0
M  V30 5710 H 545.624 5.39463 5.62672 0
M  V30 5711 O 549.892 -0.350324 1.57655 0
M  V30 5712 H 550.583 -1.00029 1.65873 0
M  V30 END ATOM
M  V30 BEGIN BOND
M  V30 END BOND
M  V30 END CTAB
M  END
$$$$
