4476947
  -OEChem-10051720273D

 46 45  0     0  0  0  0  0  0999 V2000
    4.9836   -1.3413    0.0472 O   0  0  0  0  0  0  0  0  0  0  0  0
    8.5823    0.8475   -0.1565 O   0  0  0  0  0  0  0  0  0  0  0  0
    7.6692   -1.2275   -0.0780 O   0  0  0  0  0  0  0  0  0  0  0  0
   -2.6803   -0.3242    0.0303 C   0  0  0  0  0  0  0  0  0  0  0  0
   -1.4458    0.5816    0.0603 C   0  0  0  0  0  0  0  0  0  0  0  0
   -3.9706    0.4987    0.0278 C   0  0  0  0  0  0  0  0  0  0  0  0
   -0.1560   -0.2416    0.0949 C   0  0  0  0  0  0  0  0  0  0  0  0
   -5.2395   -0.3585    0.0303 C   0  0  0  0  0  0  0  0  0  0  0  0
    1.1125    0.6172    0.1029 C   0  0  0  0  0  0  0  0  0  0  0  0
   -6.5284    0.4626   -0.0473 C   0  0  0  0  0  0  0  0  0  0  0  0
    2.4035   -0.2079    0.0615 C   0  0  0  0  0  0  0  0  0  0  0  0
   -7.7629   -0.4418   -0.0294 C   0  0  0  0  0  0  0  0  0  0  0  0
    3.6541    0.6711    0.0768 C   0  0  0  0  0  0  0  0  0  0  0  0
   -9.0528    0.3771   -0.0743 C   0  0  0  0  0  0  0  0  0  0  0  0
  -10.2811   -0.5187   -0.0895 C   0  0  0  0  0  0  0  0  0  0  0  0
    4.9597   -0.1123    0.0417 C   0  0  0  0  0  0  0  0  0  0  0  0
    6.2207    0.7308   -0.0179 C   0  0  0  0  0  0  0  0  0  0  0  0
    7.5317   -0.0128   -0.0809 C   0  0  0  0  0  0  0  0  0  0  0  0
   -2.6500   -0.9626   -0.8608 H   0  0  0  0  0  0  0  0  0  0  0  0
   -2.6724   -0.9866    0.9043 H   0  0  0  0  0  0  0  0  0  0  0  0
   -1.4438    1.2306   -0.8237 H   0  0  0  0  0  0  0  0  0  0  0  0
   -1.4853    1.2335    0.9412 H   0  0  0  0  0  0  0  0  0  0  0  0
   -3.9791    1.1489   -0.8559 H   0  0  0  0  0  0  0  0  0  0  0  0
   -3.9847    1.1574    0.9051 H   0  0  0  0  0  0  0  0  0  0  0  0
   -0.1581   -0.8857    0.9829 H   0  0  0  0  0  0  0  0  0  0  0  0
   -0.1310   -0.9059   -0.7780 H   0  0  0  0  0  0  0  0  0  0  0  0
   -5.2528   -0.9731    0.9390 H   0  0  0  0  0  0  0  0  0  0  0  0
   -5.2042   -1.0515   -0.8195 H   0  0  0  0  0  0  0  0  0  0  0  0
    1.1129    1.2478    1.0004 H   0  0  0  0  0  0  0  0  0  0  0  0
    1.0934    1.2939   -0.7604 H   0  0  0  0  0  0  0  0  0  0  0  0
   -6.5684    1.1588    0.7990 H   0  0  0  0  0  0  0  0  0  0  0  0
   -6.5252    1.0657   -0.9632 H   0  0  0  0  0  0  0  0  0  0  0  0
    2.4261   -0.8917    0.9192 H   0  0  0  0  0  0  0  0  0  0  0  0
    2.4083   -0.8353   -0.8385 H   0  0  0  0  0  0  0  0  0  0  0  0
   -7.7539   -1.0606    0.8762 H   0  0  0  0  0  0  0  0  0  0  0  0
   -7.7292   -1.1241   -0.8875 H   0  0  0  0  0  0  0  0  0  0  0  0
    3.6614    1.2870    0.9832 H   0  0  0  0  0  0  0  0  0  0  0  0
    3.6415    1.3373   -0.7933 H   0  0  0  0  0  0  0  0  0  0  0  0
   -9.1021    1.0424    0.7955 H   0  0  0  0  0  0  0  0  0  0  0  0
   -9.0605    1.0110   -0.9686 H   0  0  0  0  0  0  0  0  0  0  0  0
  -10.2786   -1.1735   -0.9668 H   0  0  0  0  0  0  0  0  0  0  0  0
  -10.3206   -1.1453    0.8072 H   0  0  0  0  0  0  0  0  0  0  0  0
  -11.1919    0.0874   -0.1207 H   0  0  0  0  0  0  0  0  0  0  0  0
    6.2373    1.3605    0.8781 H   0  0  0  0  0  0  0  0  0  0  0  0
    6.1528    1.3588   -0.9129 H   0  0  0  0  0  0  0  0  0  0  0  0
    9.4398    0.3733   -0.2035 H   0  0  0  0  0  0  0  0  0  0  0  0
  1 16  2  0  0  0  0
  2 18  1  0  0  0  0
  2 46  1  0  0  0  0
  3 18  2  0  0  0  0
  4  5  1  0  0  0  0
  4  6  1  0  0  0  0
  4 19  1  0  0  0  0
  4 20  1  0  0  0  0
  5  7  1  0  0  0  0
  5 21  1  0  0  0  0
  5 22  1  0  0  0  0
  6  8  1  0  0  0  0
  6 23  1  0  0  0  0
  6 24  1  0  0  0  0
  7  9  1  0  0  0  0
  7 25  1  0  0  0  0
  7 26  1  0  0  0  0
  8 10  1  0  0  0  0
  8 27  1  0  0  0  0
  8 28  1  0  0  0  0
  9 11  1  0  0  0  0
  9 29  1  0  0  0  0
  9 30  1  0  0  0  0
 10 12  1  0  0  0  0
 10 31  1  0  0  0  0
 10 32  1  0  0  0  0
 11 13  1  0  0  0  0
 11 33  1  0  0  0  0
 11 34  1  0  0  0  0
 12 14  1  0  0  0  0
 12 35  1  0  0  0  0
 12 36  1  0  0  0  0
 13 16  1  0  0  0  0
 13 37  1  0  0  0  0
 13 38  1  0  0  0  0
 14 15  1  0  0  0  0
 14 39  1  0  0  0  0
 14 40  1  0  0  0  0
 15 41  1  0  0  0  0
 15 42  1  0  0  0  0
 15 43  1  0  0  0  0
 16 17  1  0  0  0  0
 17 18  1  0  0  0  0
 17 44  1  0  0  0  0
 17 45  1  0  0  0  0
M  END
> <DATABASE_ID>
DB04039

> <DATABASE_NAME>
drugbank

> <ORIGINAL_SOURCE>
PUBCHEM

> <ORIGINAL_SOURCE_URL>
https://pubchem.ncbi.nlm.nih.gov/rest/pug/compound/inchikey/CJTNJZWHYGHVCD-UHFFFAOYSA-N/SDF?record_type=3d

> <SMILES>
CCCCCCCCCCCCC(=O)CC(O)=O

> <INCHI_IDENTIFIER>
InChI=1S/C15H28O3/c1-2-3-4-5-6-7-8-9-10-11-12-14(16)13-15(17)18/h2-13H2,1H3,(H,17,18)

> <INCHI_KEY>
CJTNJZWHYGHVCD-UHFFFAOYSA-N

> <FORMULA>
C15H28O3

> <MOLECULAR_WEIGHT>
256.381

> <EXACT_MASS>
256.203844762

> <JCHEM_ACCEPTOR_COUNT>
3

> <JCHEM_AVERAGE_POLARIZABILITY>
31.76339933439015

> <JCHEM_BIOAVAILABILITY>
0

> <JCHEM_DONOR_COUNT>
1

> <JCHEM_FORMAL_CHARGE>
0

> <JCHEM_GHOSE_FILTER>
1

> <JCHEM_IUPAC>
3-oxopentadecanoic acid

> <ALOGPS_LOGP>
5.06

> <JCHEM_LOGP>
5.1447307513333325

> <ALOGPS_LOGS>
-5.08

> <JCHEM_MDDR_LIKE_RULE>
0

> <JCHEM_NUMBER_OF_RINGS>
0

> <JCHEM_PHYSIOLOGICAL_CHARGE>
-1

> <JCHEM_PKA>
15.053950588383103

> <JCHEM_PKA_STRONGEST_ACIDIC>
4.442108390075651

> <JCHEM_PKA_STRONGEST_BASIC>
-7.537532992598466

> <JCHEM_POLAR_SURFACE_AREA>
54.370000000000005

> <JCHEM_REFRACTIVITY>
73.17579999999998

> <JCHEM_ROTATABLE_BOND_COUNT>
13

> <JCHEM_RULE_OF_FIVE>
0

> <ALOGPS_SOLUBILITY>
2.11e-03 g/l

> <JCHEM_TRADITIONAL_IUPAC>
3-oxo-pentadecanoic acid

> <JCHEM_VEBER_RULE>
0

> <DRUGBANK_ID>
DB04039

> <SECONDARY_ACCESSION_NUMBERS>
EXPT02034

> <DRUG_GROUPS>
experimental

> <GENERIC_NAME>
3-Oxo-Pentadecanoic Acid

$$$$