5035
  -OEChem-10051719163D

 61 65  0     0  0  0  0  0  0999 V2000
    4.0189    0.3111   -1.9135 S   0  0  0  0  0  0  0  0  0  0  0  0
   -3.2873   -1.0574    1.8254 O   0  0  0  0  0  0  0  0  0  0  0  0
    2.7782    0.4367    2.6086 O   0  0  0  0  0  0  0  0  0  0  0  0
    5.6953   -4.5966   -1.6723 O   0  0  0  0  0  0  0  0  0  0  0  0
    1.1669    6.0780   -0.5661 O   0  0  0  0  0  0  0  0  0  0  0  0
   -6.2556   -0.3140   -0.2296 N   0  0  0  0  0  0  0  0  0  0  0  0
   -6.3206   -1.5546   -1.0148 C   0  0  0  0  0  0  0  0  0  0  0  0
   -7.6008    0.1670    0.1158 C   0  0  0  0  0  0  0  0  0  0  0  0
   -7.1103   -1.3484   -2.3081 C   0  0  0  0  0  0  0  0  0  0  0  0
   -8.4324    0.4298   -1.1408 C   0  0  0  0  0  0  0  0  0  0  0  0
   -8.5081   -0.8099   -2.0246 C   0  0  0  0  0  0  0  0  0  0  0  0
   -5.4581   -0.5152    0.9798 C   0  0  0  0  0  0  0  0  0  0  0  0
   -4.0281   -0.8889    0.6238 C   0  0  0  0  0  0  0  0  0  0  0  0
   -1.9446   -0.7894    1.7662 C   0  0  0  0  0  0  0  0  0  0  0  0
    2.9652   -0.1693    0.3338 C   0  0  0  0  0  0  0  0  0  0  0  0
    3.6021   -1.3872   -0.0091 C   0  0  0  0  0  0  0  0  0  0  0  0
    3.0966    0.8282   -0.5767 C   0  0  0  0  0  0  0  0  0  0  0  0
    4.2367   -1.2652   -1.2490 C   0  0  0  0  0  0  0  0  0  0  0  0
    0.7801   -0.2489    1.6476 C   0  0  0  0  0  0  0  0  0  0  0  0
    2.2055    0.0328    1.5850 C   0  0  0  0  0  0  0  0  0  0  0  0
   -1.2550   -0.9880    0.5756 C   0  0  0  0  0  0  0  0  0  0  0  0
   -1.2858   -0.3234    2.8981 C   0  0  0  0  0  0  0  0  0  0  0  0
    0.1121   -0.7169    0.5161 C   0  0  0  0  0  0  0  0  0  0  0  0
    0.0811   -0.0522    2.8386 C   0  0  0  0  0  0  0  0  0  0  0  0
    2.5979    2.1856   -0.5741 C   0  0  0  0  0  0  0  0  0  0  0  0
    3.6887   -2.6278    0.6679 C   0  0  0  0  0  0  0  0  0  0  0  0
    4.9470   -2.3384   -1.8217 C   0  0  0  0  0  0  0  0  0  0  0  0
    4.3924   -3.6943    0.1024 C   0  0  0  0  0  0  0  0  0  0  0  0
    5.0146   -3.5488   -1.1293 C   0  0  0  0  0  0  0  0  0  0  0  0
    3.3680    3.2066   -0.0220 C   0  0  0  0  0  0  0  0  0  0  0  0
    1.3490    2.4667   -1.1236 C   0  0  0  0  0  0  0  0  0  0  0  0
    2.8866    4.5158   -0.0194 C   0  0  0  0  0  0  0  0  0  0  0  0
    0.8677    3.7760   -1.1210 C   0  0  0  0  0  0  0  0  0  0  0  0
    1.6365    4.8005   -0.5688 C   0  0  0  0  0  0  0  0  0  0  0  0
   -6.7712   -2.3677   -0.4308 H   0  0  0  0  0  0  0  0  0  0  0  0
   -5.3313   -1.8877   -1.3390 H   0  0  0  0  0  0  0  0  0  0  0  0
   -7.5271    1.1062    0.6774 H   0  0  0  0  0  0  0  0  0  0  0  0
   -8.1217   -0.5565    0.7570 H   0  0  0  0  0  0  0  0  0  0  0  0
   -7.1844   -2.2965   -2.8528 H   0  0  0  0  0  0  0  0  0  0  0  0
   -6.5741   -0.6463   -2.9594 H   0  0  0  0  0  0  0  0  0  0  0  0
   -7.9883    1.2571   -1.7088 H   0  0  0  0  0  0  0  0  0  0  0  0
   -9.4433    0.7435   -0.8569 H   0  0  0  0  0  0  0  0  0  0  0  0
   -9.1029   -1.5823   -1.5218 H   0  0  0  0  0  0  0  0  0  0  0  0
   -9.0176   -0.5716   -2.9647 H   0  0  0  0  0  0  0  0  0  0  0  0
   -5.4322    0.4078    1.5740 H   0  0  0  0  0  0  0  0  0  0  0  0
   -5.8940   -1.2831    1.6331 H   0  0  0  0  0  0  0  0  0  0  0  0
   -3.9680   -1.8436    0.0954 H   0  0  0  0  0  0  0  0  0  0  0  0
   -3.6106   -0.0893   -0.0030 H   0  0  0  0  0  0  0  0  0  0  0  0
   -1.7301   -1.3781   -0.3192 H   0  0  0  0  0  0  0  0  0  0  0  0
   -1.8267   -0.1689    3.8274 H   0  0  0  0  0  0  0  0  0  0  0  0
    0.6141   -0.8941   -0.4299 H   0  0  0  0  0  0  0  0  0  0  0  0
    0.5758    0.3116    3.7352 H   0  0  0  0  0  0  0  0  0  0  0  0
    3.2081   -2.7615    1.6341 H   0  0  0  0  0  0  0  0  0  0  0  0
    5.4325   -2.2221   -2.7870 H   0  0  0  0  0  0  0  0  0  0  0  0
    4.4474   -4.6392    0.6366 H   0  0  0  0  0  0  0  0  0  0  0  0
    4.3437    3.0011    0.4118 H   0  0  0  0  0  0  0  0  0  0  0  0
    0.7376    1.6810   -1.5604 H   0  0  0  0  0  0  0  0  0  0  0  0
    3.4898    5.3096    0.4126 H   0  0  0  0  0  0  0  0  0  0  0  0
   -0.1076    3.9845   -1.5525 H   0  0  0  0  0  0  0  0  0  0  0  0
    6.0644   -4.3235   -2.5297 H   0  0  0  0  0  0  0  0  0  0  0  0
    0.2891    6.0919   -0.9850 H   0  0  0  0  0  0  0  0  0  0  0  0
  1 17  1  0  0  0  0
  1 18  1  0  0  0  0
  2 13  1  0  0  0  0
  2 14  1  0  0  0  0
  3 20  2  0  0  0  0
  4 29  1  0  0  0  0
  4 60  1  0  0  0  0
  5 34  1  0  0  0  0
  5 61  1  0  0  0  0
  6  7  1  0  0  0  0
  6  8  1  0  0  0  0
  6 12  1  0  0  0  0
  7  9  1  0  0  0  0
  7 35  1  0  0  0  0
  7 36  1  0  0  0  0
  8 10  1  0  0  0  0
  8 37  1  0  0  0  0
  8 38  1  0  0  0  0
  9 11  1  0  0  0  0
  9 39  1  0  0  0  0
  9 40  1  0  0  0  0
 10 11  1  0  0  0  0
 10 41  1  0  0  0  0
 10 42  1  0  0  0  0
 11 43  1  0  0  0  0
 11 44  1  0  0  0  0
 12 13  1  0  0  0  0
 12 45  1  0  0  0  0
 12 46  1  0  0  0  0
 13 47  1  0  0  0  0
 13 48  1  0  0  0  0
 14 21  2  0  0  0  0
 14 22  1  0  0  0  0
 15 16  1  0  0  0  0
 15 17  2  0  0  0  0
 15 20  1  0  0  0  0
 16 18  2  0  0  0  0
 16 26  1  0  0  0  0
 17 25  1  0  0  0  0
 18 27  1  0  0  0  0
 19 20  1  0  0  0  0
 19 23  2  0  0  0  0
 19 24  1  0  0  0  0
 21 23  1  0  0  0  0
 21 49  1  0  0  0  0
 22 24  2  0  0  0  0
 22 50  1  0  0  0  0
 23 51  1  0  0  0  0
 24 52  1  0  0  0  0
 25 30  2  0  0  0  0
 25 31  1  0  0  0  0
 26 28  2  0  0  0  0
 26 53  1  0  0  0  0
 27 29  2  0  0  0  0
 27 54  1  0  0  0  0
 28 29  1  0  0  0  0
 28 55  1  0  0  0  0
 30 32  1  0  0  0  0
 30 56  1  0  0  0  0
 31 33  2  0  0  0  0
 31 57  1  0  0  0  0
 32 34  2  0  0  0  0
 32 58  1  0  0  0  0
 33 34  1  0  0  0  0
 33 59  1  0  0  0  0
M  END
> <DATABASE_ID>
DB00481

> <DATABASE_NAME>
drugbank

> <ORIGINAL_SOURCE>
PUBCHEM

> <ORIGINAL_SOURCE_URL>
https://pubchem.ncbi.nlm.nih.gov/rest/pug/compound/inchikey/GZUITABIAKMVPG-UHFFFAOYSA-N/SDF?record_type=3d

> <SMILES>
OC1=CC=C(C=C1)C1=C(C(=O)C2=CC=C(OCCN3CCCCC3)C=C2)C2=C(S1)C=C(O)C=C2

> <INCHI_IDENTIFIER>
InChI=1S/C28H27NO4S/c30-21-8-4-20(5-9-21)28-26(24-13-10-22(31)18-25(24)34-28)27(32)19-6-11-23(12-7-19)33-17-16-29-14-2-1-3-15-29/h4-13,18,30-31H,1-3,14-17H2

> <INCHI_KEY>
GZUITABIAKMVPG-UHFFFAOYSA-N

> <FORMULA>
C28H27NO4S

> <MOLECULAR_WEIGHT>
473.583

> <EXACT_MASS>
473.166079047

> <JCHEM_ACCEPTOR_COUNT>
5

> <JCHEM_AVERAGE_POLARIZABILITY>
52.54504114929282

> <JCHEM_BIOAVAILABILITY>
1

> <JCHEM_DONOR_COUNT>
2

> <JCHEM_FORMAL_CHARGE>
0

> <JCHEM_GHOSE_FILTER>
0

> <JCHEM_IUPAC>
2-(4-hydroxyphenyl)-3-{4-[2-(piperidin-1-yl)ethoxy]benzoyl}-1-benzothiophen-6-ol

> <ALOGPS_LOGP>
5.45

> <JCHEM_LOGP>
5.6926295073730415

> <ALOGPS_LOGS>
-5.97

> <JCHEM_MDDR_LIKE_RULE>
1

> <JCHEM_NUMBER_OF_RINGS>
5

> <JCHEM_PHYSIOLOGICAL_CHARGE>
1

> <JCHEM_PKA>
9.552212516519601

> <JCHEM_PKA_STRONGEST_ACIDIC>
8.892227074120992

> <JCHEM_PKA_STRONGEST_BASIC>
7.953595413831779

> <JCHEM_POLAR_SURFACE_AREA>
70

> <JCHEM_REFRACTIVITY>
135.48000000000002

> <JCHEM_ROTATABLE_BOND_COUNT>
7

> <JCHEM_RULE_OF_FIVE>
0

> <ALOGPS_SOLUBILITY>
5.12e-04 g/l

> <JCHEM_TRADITIONAL_IUPAC>
raloxifene

> <JCHEM_VEBER_RULE>
0

> <DRUGBANK_ID>
DB00481

> <SECONDARY_ACCESSION_NUMBERS>
APRD00400

> <DRUG_GROUPS>
approved; investigational

> <GENERIC_NAME>
Raloxifene

> <SYNONYMS>
(2-(4-Hydroxyphenyl)-6-hydroxybenzo(b)thien-3-yl)(4-(2-(1-piperidinyl)ethoxy)phenyl)methanone; Raloxifene; RaloxifÃ¨ne; Raloxifeno; Raloxifenum

> <PRODUCTS>
Act Raloxifene; Apo-raloxifene; Evista; Evista (60mg); Optruma; PMS-raloxifene; Raloxifene; Raloxifene Hydrochloride; Raloxifene Teva; Raloxifene hydrochloride; Teva-raloxifene

> <INTERNATIONAL_BRANDS>
Keoxifene

> <SALTS>
Raloxifene Hydrochloride

$$$$