drugbank_target|P50453 Serpin B9 (DB00481)
 OpenBabel12092121063D

  0  0  0     0  0            999 V3000
M  V30 BEGIN CTAB
M  V30 COUNTS 5935 5993 0 0 0
M  V30 BEGIN ATOM
M  V30 1 H -0.908 1.98254 -0.117106 0
M  V30 2 N 0 1.576 0 0
M  V30 3 C 0.933 2.03868 1.02534 0
M  V30 4 C 1.911 0.928543 1.3348 0
M  V30 5 O 3.095 1.19667 1.45644 0
M  V30 6 C 0.222 2.43627 2.35294 0
M  V30 7 C -0.732 3.65373 2.2001 0
M  V30 8 S 0.101 5.13292 1.52614 0
M  V30 9 C 1.257 5.56322 2.86805 0
M  V30 10 H 1.49 2.90518 0.631377 0
M  V30 11 H -0.977 1.52953 0.210867 0
M  V30 12 H 0.981 2.67203 3.11629 0
M  V30 13 H -0.358 1.57376 2.7183 0
M  V30 14 H -1.165 3.90944 3.18086 0
M  V30 15 H -1.563 3.418 1.51819 0
M  V30 16 H 0.729 5.58782 3.83104 0
M  V30 17 H 1.672 6.56266 2.65933 0
M  V30 18 H 2.08 4.83886 2.90714 0
M  V30 19 N 1.4781 -0.272755 1.55222 0
M  V30 20 C 2.3881 -1.35918 1.91216 0
M  V30 21 C 3.4041 -1.54026 0.809436 0
M  V30 22 O 4.5801 -1.68148 1.10852 0
M  V30 23 C 1.6451 -2.69834 2.17693 0
M  V30 24 C 0.7061 -2.6047 3.41253 0
M  V30 25 C -0.0609 -3.88 3.66458 0
M  V30 26 O 0.1621 -4.88693 2.94169 0
M  V30 27 O -0.9039 -3.88189 4.59992 0
M  V30 28 H 2.9221 -1.0839 2.83699 0
M  V30 29 H 0.5071 -0.471301 1.41771 0
M  V30 30 H 2.3891 -3.49017 2.36147 0
M  V30 31 H 1.0641 -2.97148 1.28392 0
M  V30 32 H -0.0289 -1.79663 3.28134 0
M  V30 33 H 1.3041 -2.38106 4.30774 0
M  V30 34 N 2.9562 -1.48159 -0.537278 0
M  V30 35 C 4.1842 -1.59454 -1.31841 0
M  V30 36 C 4.5992 -0.252065 -1.8711 0
M  V30 37 O 3.9562 0.757621 -1.66031 0
M  V30 38 C 4.0072 -2.63546 -2.47439 0
M  V30 39 O 3.7282 -3.92583 -1.94449 0
M  V30 40 C 5.2292 -2.85212 -3.39366 0
M  V30 41 H 2.4492 -0.53785 -0.401196 0
M  V30 42 H 4.9932 -1.93932 -0.648891 0
M  V30 43 H 3.1482 -2.31946 -3.1029 0
M  V30 44 H 3.5622 -4.49629 -2.70063 0
M  V30 45 H 5.0362 -3.61863 -4.16844 0
M  V30 46 H 5.5132 -1.93765 -3.94147 0
M  V30 47 H 6.1192 -3.18086 -2.82314 0
M  V30 48 N 4.4343 0.785586 -1.36625 0
M  V30 49 C 5.3643 1.91259 -1.33949 0
M  V30 50 C 6.3453 1.68795 -0.210325 0
M  V30 51 O 7.5303 1.89854 -0.408561 0
M  V30 52 C 4.6603 3.28339 -1.13186 0
M  V30 53 C 3.6143 3.65335 -2.22967 0
M  V30 54 C 2.9403 5.00806 -1.87342 0
M  V30 55 C 4.2403 3.7352 -3.65075 0
M  V30 56 H 5.9343 1.93755 -2.28253 0
M  V30 57 H 3.4803 0.930788 -1.09874 0
M  V30 58 H 5.4333 4.06804 -1.09948 0
M  V30 59 H 4.1573 3.2624 -0.153332 0
M  V30 60 H 2.8163 2.89169 -2.25337 0
M  V30 61 H 2.4643 4.95233 -0.880545 0
M  V30 62 H 2.1643 5.26529 -2.60846 0
M  V30 63 H 3.6883 5.81687 -1.85667 0
M  V30 64 H 5.1023 4.42168 -3.64911 0
M  V30 65 H 3.4993 4.10731 -4.37516 0
M  V30 66 H 4.5693 2.74527 -3.99703 0
M  V30 67 N 5.9124 1.20967 1.01018 0
M  V30 68 C 7.1374 1.0503 1.78839 0
M  V30 69 C 7.5624 -0.395752 1.8389 0
M  V30 70 O 6.9204 -1.28529 1.27867 0
M  V30 71 C 6.9684 1.64602 3.2084 0
M  V30 72 O 6.0724 0.887988 4.02726 0
M  V30 73 H 5.4134 0.369987 0.551367 0
M  V30 74 H 7.9434 1.60399 1.27018 0
M  V30 75 H 7.9534 1.68607 3.71532 0
M  V30 76 H 6.6284 2.69841 3.16479 0
M  V30 77 H 5.2054 0.922648 3.61305 0
M  V30 78 N 7.3905 -1.2043 1.01659 0
M  V30 79 C 8.3385 -2.25249 0.580143 0
M  V30 80 C 9.3325 -1.65057 -0.381115 0
M  V30 81 O 10.5385 -1.78241 -0.251039 0
M  V30 82 H 6.9135 -0.732695 0.169299 0
M  V30 83 H 8.8845 -2.59389 1.47512 0
M  V30 84 C 7.6335 -3.47638 -0.065788 0
M  V30 85 H 6.9565 -3.94233 0.664874 0
M  V30 86 H 8.3965 -4.2268 -0.334282 0
M  V30 87 C 6.8555 -3.10447 -1.3086 0
M  V30 88 O 7.3855 -3.21981 -2.4019 0
M  V30 89 N 5.5915 -2.64996 -1.1927 0
M  V30 90 H 5.1385 -2.55811 -0.303064 0
M  V30 91 H 5.0965 -2.40482 -2.02523 0
M  V30 92 N 8.8686 -0.792821 -1.36206 0
M  V30 93 C 9.8316 -0.199459 -2.2833 0
M  V30 94 C 10.8316 0.605189 -1.48977 0
M  V30 95 O 12.0216 0.425685 -1.68919 0
M  V30 96 C 9.1536 0.723523 -3.33134 0
M  V30 97 H 10.3466 -1.01181 -2.82316 0
M  V30 98 H 7.8996 -0.562485 -1.45828 0
M  V30 99 H 8.6346 1.56008 -2.84309 0
M  V30 100 H 8.4196 0.148436 -3.91819 0
M  V30 101 H 9.9096 1.13344 -4.01924 0
M  V30 102 N 10.3467 1.47872 -0.545128 0
M  V30 103 C 11.5717 2.07391 -0.0190611 0
M  V30 104 C 11.9967 1.39688 1.25971 0
M  V30 105 O 11.3547 0.467816 1.7516 0
M  V30 106 C 11.4027 3.60188 0.172335 0
M  V30 107 O 10.5067 3.9339 1.23766 0
M  V30 108 H 9.8477 0.662411 -0.0459059 0
M  V30 109 H 12.3777 1.90066 -0.757365 0
M  V30 110 H 12.3877 4.06129 0.390305 0
M  V30 111 H 11.0627 4.08865 -0.761725 0
M  V30 112 H 9.6397 3.5921 1.00114 0
M  V30 113 N 11.8248 0.280983 1.55075 0
M  V30 114 C 13.0728 -0.333455 1.9933 0
M  V30 115 C 13.3938 -1.55937 1.17085 0
M  V30 116 O 12.6638 -1.94143 0.261805 0
M  V30 117 H 11.2438 -0.126197 0.736263 0
M  V30 118 H 13.9058 0.387678 1.91005 0
M  V30 119 H 13.0018 -0.619292 3.05894 0
M  V30 120 N 13.3029 -1.57598 0.00835791 0
M  V30 121 C 14.5309 -1.95214 -0.68549 0
M  V30 122 C 14.9459 -0.883706 -1.66841 0
M  V30 123 O 14.3029 0.136565 -1.81988 0
M  V30 124 C 14.3539 -3.32865 -1.41007 0
M  V30 125 O 14.0749 -4.35609 -0.466552 0
M  V30 126 C 15.5759 -3.84991 -2.19765 0
M  V30 127 H 12.7959 -0.643422 -0.190392 0
M  V30 128 H 15.3399 -2.04406 0.0619607 0
M  V30 129 H 13.4949 -3.24956 -2.10908 0
M  V30 130 H 13.9089 -5.15288 -0.978699 0
M  V30 131 H 15.3829 -4.8371 -2.65948 0
M  V30 132 H 15.8599 -3.18137 -3.02796 0
M  V30 133 H 16.4659 -3.96103 -1.54864 0
M  V30 134 N 14.781 0.264519 -1.55364 0
M  V30 135 C 16.028 0.994986 -1.7637 0
M  V30 136 C 16.356 1.85976 -0.5695 0
M  V30 137 O 15.611 1.90509 0.44776 0
M  V30 138 C 15.91 1.9004 -3.02687 0
M  V30 139 C 15.576 1.19243 -4.34847 0
M  V30 140 C 14.238 0.996709 -4.70764 0
M  V30 141 C 16.59 0.689296 -5.16622 0
M  V30 142 C 13.918 0.285261 -5.86006 0
M  V30 143 C 16.27 -0.00860079 -6.32599 0
M  V30 144 C 14.934 -0.215963 -6.67151 0
M  V30 145 H 14.204 0.364091 -0.645383 0
M  V30 146 H 16.851 0.266543 -1.89636 0
M  V30 147 H 15.156 2.69533 -2.84357 0
M  V30 148 H 16.853 2.46695 -3.16137 0
M  V30 149 H 13.443 1.3549 -4.06621 0
M  V30 150 H 17.627 0.828108 -4.89342 0
M  V30 151 H 12.883 0.113961 -6.11294 0
M  V30 152 H 17.057 -0.406186 -6.95214 0
M  V30 153 H 14.684 -0.769217 -7.56298 0
M  V30 154 N 16.2591 1.48442 0.529413 0
M  V30 155 C 17.2221 1.62524 1.61612 0
M  V30 156 C 18.2221 0.498509 1.52877 0
M  V30 157 O 19.4121 0.76431 1.56537 0
M  V30 158 C 16.5441 1.59597 3.01233 0
M  V30 159 H 17.7371 2.59423 1.50465 0
M  V30 160 H 15.2901 1.37047 0.751514 0
M  V30 161 H 16.0251 0.641781 3.17886 0
M  V30 162 H 15.8101 2.41397 3.08982 0
M  V30 163 H 17.3001 1.72646 3.80241 0
M  V30 164 N 17.7372 -0.778329 1.37039 0
M  V30 165 C 18.9862 -1.53189 1.3121 0
M  V30 166 C 19.2992 -1.95328 -0.103095 0
M  V30 167 O 20.5052 -2.70012 -0.283826 0
M  V30 168 C 18.9612 -2.76591 2.30272 0
M  V30 169 C 18.5692 -2.41577 3.77286 0
M  V30 170 C 20.3132 -3.5455 2.33441 0
M  V30 171 C 18.2202 -3.61441 4.68096 0
M  V30 172 H 17.1502 -0.5751 0.487622 0
M  V30 173 H 19.8012 -0.853101 1.62464 0
M  V30 174 H 18.1832 -3.46326 1.92027 0
M  V30 175 H 19.3572 -1.79668 4.2433 0
M  V30 176 H 17.6722 -1.76806 3.76999 0
M  V30 177 H 20.2692 -4.43628 2.98493 0
M  V30 178 H 20.6122 -3.93936 1.34611 0
M  V30 179 H 21.1452 -2.91805 2.7036 0
M  V30 180 H 17.8842 -3.27142 5.6803 0
M  V30 181 H 17.4042 -4.22478 4.25761 0
M  V30 182 H 19.0832 -4.28335 4.8491 0
M  V30 183 N 19.2153 -1.21501 -1.00376 0
M  V30 184 C 20.6313 -0.972629 -1.26539 0
M  V30 185 C 20.8313 0.340257 -1.98606 0
M  V30 186 O 19.8873 1.06561 -2.28913 0
M  V30 187 C 21.2003 -2.16404 -2.08781 0
M  V30 188 C 22.7483 -2.20643 -2.22004 0
M  V30 189 C 23.2233 -3.39306 -3.07629 0
M  V30 190 N 24.7143 -3.39401 -3.15217 0
M  V30 191 C 25.4493 -4.27867 -3.81729 0
M  V30 192 N 24.9453 -5.26533 -4.5026 0
M  V30 193 N 26.7383 -4.15672 -3.78382 0
M  V30 194 H 18.8893 -2.05929 -0.520281 0
M  V30 195 H 21.1523 -0.901803 -0.292328 0
M  V30 196 H 20.8583 -3.11554 -1.63178 0
M  V30 197 H 20.7323 -2.15567 -3.09533 0
M  V30 198 H 23.1193 -1.26048 -2.66825 0
M  V30 199 H 23.2003 -2.25523 -1.20718 0
M  V30 200 H 22.8443 -4.34195 -2.63509 0
M  V30 201 H 22.7743 -3.31665 -4.09031 0
M  V30 202 H 25.2653 -2.67997 -2.66432 0
M  V30 203 H 25.5783 -5.90337 -4.98721 0
M  V30 204 H 23.9233 -5.30457 -4.49044 0
M  V30 205 H 27.1143 -3.3785 -3.23998 0
M  V30 206 H 27.2873 -4.84825 -4.2994 0
M  V30 207 N 20.6934 1.19889 -1.02296 0
M  V30 208 C 21.6234 2.25141 -0.619174 0
M  V30 209 C 22.6044 1.66051 0.368915 0
M  V30 210 O 23.7894 1.92546 0.252941 0
M  V30 211 C 20.9194 3.4728 0.0368783 0
M  V30 212 C 19.8734 4.19005 -0.872865 0
M  V30 213 C 19.1994 5.34637 -0.0822402 0
M  V30 214 C 20.4994 4.74452 -2.18387 0
M  V30 215 H 22.1934 2.59171 -1.49903 0
M  V30 216 H 19.7394 1.24579 -0.722222 0
M  V30 217 H 21.6924 4.20098 0.330958 0
M  V30 218 H 20.4164 3.12433 0.95149 0
M  V30 219 H 19.0754 3.48061 -1.15105 0
M  V30 220 H 18.7234 4.96034 0.83422 0
M  V30 221 H 18.4234 5.83557 -0.688149 0
M  V30 222 H 19.9474 6.10255 0.205238 0
M  V30 223 H 21.3614 5.39055 -1.95172 0
M  V30 224 H 19.7584 5.33834 -2.74119 0
M  V30 225 H 20.8284 3.92844 -2.84257 0
M  V30 226 N 22.1715 0.800033 1.35784 0
M  V30 227 C 23.1015 0.220184 2.3246 0
M  V30 228 C 24.0825 -0.65073 1.57161 0
M  V30 229 O 25.2675 -0.582359 1.85263 0
M  V30 230 C 22.3975 -0.637353 3.41402 0
M  V30 231 C 21.3515 0.134531 4.27789 0
M  V30 232 C 20.6775 -0.844285 5.27992 0
M  V30 233 C 21.9775 1.32979 5.05088 0
M  V30 234 H 23.6715 1.02787 2.81203 0
M  V30 235 H 21.2175 0.495717 1.35199 0
M  V30 236 H 23.1705 -1.05302 4.08031 0
M  V30 237 H 21.8945 -1.47785 2.91251 0
M  V30 238 H 20.5535 0.531296 3.6273 0
M  V30 239 H 20.2015 -1.68011 4.74111 0
M  V30 240 H 19.9015 -0.332184 5.8666 0
M  V30 241 H 21.4255 -1.2583 5.97494 0
M  V30 242 H 22.8395 0.98934 5.64699 0
M  V30 243 H 21.2365 1.77593 5.7322 0
M  V30 244 H 22.3065 2.11978 4.36111 0
M  V30 245 N 23.6496 -1.47581 0.552962 0
M  V30 246 C 24.5966 -2.29957 -0.197108 0
M  V30 247 C 25.5666 -1.38799 -0.912359 0
M  V30 248 O 26.7516 -1.67761 -0.908888 0
M  V30 249 C 23.8916 -3.22672 -1.22379 0
M  V30 250 C 23.0046 -4.28919 -0.515038 0
M  V30 251 C 22.1396 -5.0879 -1.52664 0
M  V30 252 C 21.1786 -6.06815 -0.802631 0
M  V30 253 N 20.3156 -6.7966 -1.76086 0
M  V30 254 H 25.1556 -2.93578 0.511486 0
M  V30 255 H 22.6926 -1.4471 0.264067 0
M  V30 256 H 24.6506 -3.74845 -1.83159 0
M  V30 257 H 23.2806 -2.60925 -1.90047 0
M  V30 258 H 22.3326 -3.79835 0.207192 0
M  V30 259 H 23.6446 -4.98773 0.0523425 0
M  V30 260 H 22.7986 -5.65091 -2.20809 0
M  V30 261 H 21.5376 -4.38828 -2.12794 0
M  V30 262 H 20.5426 -5.49695 -0.107238 0
M  V30 263 H 21.7676 -6.78784 -0.207135 0
M  V30 264 H 19.7136 -6.12432 -2.35081 0
M  V30 265 H 19.6306 -7.45669 -1.24552 0
M  V30 266 H 20.8986 -7.40538 -2.43359 0
M  V30 267 N 25.1277 -0.289203 -1.54924 0
M  V30 268 C 26.3767 0.324231 -1.99077 0
M  V30 269 C 26.6897 1.5591 -1.18117 0
M  V30 270 O 27.8957 2.24637 -1.52481 0
M  V30 271 C 26.3517 0.628209 -3.54375 0
M  V30 272 C 25.9597 -0.587647 -4.44129 0
M  V30 273 C 27.7037 1.20349 -4.07083 0
M  V30 274 C 25.6107 -0.257475 -5.90839 0
M  V30 275 H 24.5407 0.124924 -0.743579 0
M  V30 276 H 27.1917 -0.396063 -1.79175 0
M  V30 277 H 25.5737 1.40778 -3.70132 0
M  V30 278 H 26.7477 -1.36418 -4.40144 0
M  V30 279 H 25.0627 -1.08074 -4.0213 0
M  V30 280 H 27.6597 1.46456 -5.14252 0
M  V30 281 H 28.0027 2.14195 -3.56968 0
M  V30 282 H 28.5357 0.485889 -3.94821 0
M  V30 283 H 25.2747 -1.16419 -6.45079 0
M  V30 284 H 24.7947 0.482018 -5.9786 0
M  V30 285 H 26.4737 0.145238 -6.46837 0
M  V30 286 N 26.6058 1.57591 -0.0167156 0
M  V30 287 C 27.5358 2.12496 0.967858 0
M  V30 288 C 28.5168 1.03807 1.34752 0
M  V30 289 O 29.7018 1.31577 1.42833 0
M  V30 290 C 26.8318 2.64194 2.25431 0
M  V30 291 C 25.7858 3.77559 2.01576 0
M  V30 292 C 25.1118 4.15636 3.36379 0
M  V30 293 C 26.4118 5.04151 1.36489 0
M  V30 294 H 28.1058 2.95013 0.510643 0
M  V30 295 H 25.6518 1.41915 0.244181 0
M  V30 296 H 27.6048 3.01236 2.94678 0
M  V30 297 H 26.3288 1.78821 2.73296 0
M  V30 298 H 24.9878 3.40937 1.34751 0
M  V30 299 H 24.6358 3.27263 3.81979 0
M  V30 300 H 24.3358 4.92022 3.21229 0
M  V30 301 H 25.8598 4.5525 4.06915 0
M  V30 302 H 27.2738 5.38857 1.95718 0
M  V30 303 H 25.6708 5.85453 1.31776 0
M  V30 304 H 26.7408 4.83733 0.336219 0
M  V30 305 N 28.0839 -0.256276 1.55502 0
M  V30 306 C 29.3239 -0.993081 1.78654 0
M  V30 307 C 29.6879 -1.8288 0.584724 0
M  V30 308 O 30.8889 -2.59665 0.694822 0
M  V30 309 C 29.1599 -1.83856 3.06483 0
M  V30 310 S 30.7189 -2.63573 3.5082 0
M  V30 311 H 27.5369 -0.334199 0.62756 0
M  V30 312 H 30.1389 -0.26184 1.93739 0
M  V30 313 H 28.8429 -1.21414 3.92029 0
M  V30 314 H 28.3739 -2.61271 2.94111 0
M  V30 315 H 30.3889 -3.86312 3.11412 0
M  V30 316 N 29.562 -1.4872 -0.521534 0
M  V30 317 C 30.494 -1.59968 -1.64143 0
M  V30 318 C 31.507 -0.483463 -1.55456 0
M  V30 319 O 32.696 -0.75467 -1.61762 0
M  V30 320 C 29.796 -1.52127 -3.02838 0
M  V30 321 C 28.969 -2.78932 -3.36921 0
M  V30 322 C 28.028 -2.64428 -4.54933 0
M  V30 323 O 27.054 -3.38331 -4.57735 0
M  V30 324 N 28.256 -1.74606 -5.53618 0
M  V30 325 H 31.021 -2.56548 -1.54929 0
M  V30 326 H 28.582 -1.45551 -0.708988 0
M  V30 327 H 30.574 -1.40106 -3.79674 0
M  V30 328 H 29.144 -0.634868 -3.06085 0
M  V30 329 H 28.364 -3.05455 -2.4918 0
M  V30 330 H 29.652 -3.63041 -3.56481 0
M  V30 331 H 29.05 -1.13782 -5.54139 0
M  V30 332 H 27.607 -1.6852 -6.29638 0
M  V30 333 N 31.0401 0.771051 -1.3745 0
M  V30 334 C 32.3171 1.519 -1.23231 0
M  V30 335 C 32.6971 2.10383 0.173809 0
M  V30 336 O 32.0451 1.95583 1.18151 0
M  V30 337 C 32.2551 2.59933 -2.32886 0
M  V30 338 C 33.6031 3.27316 -2.70461 0
M  V30 339 O 34.6271 2.70228 -2.32068 0
M  V30 340 O 33.4861 4.30531 -3.36608 0
M  V30 341 H 30.5801 0.672803 -0.480901 0
M  V30 342 H 33.1261 0.807957 -1.49232 0
M  V30 343 H 31.8981 2.14842 -3.27045 0
M  V30 344 H 31.5211 3.38637 -2.08353 0
M  V30 345 N 32.5182 1.22032 0.997298 0
M  V30 346 C 33.4662 0.983634 2.10778 0
M  V30 347 C 34.4602 -0.0717564 1.69248 0
M  V30 348 O 35.6662 0.080304 1.79821 0
M  V30 349 H 32.0412 0.300877 0.689186 0
M  V30 350 H 34.0122 1.92606 2.27916 0
M  V30 351 C 32.7612 0.57326 3.42942 0
M  V30 352 H 32.0842 1.37702 3.75338 0
M  V30 353 H 33.5242 0.447031 4.21637 0
M  V30 354 C 31.9832 -0.7167 3.29188 0
M  V30 355 O 32.5132 -1.77027 3.60589 0
M  V30 356 N 30.7192 -0.686167 2.82383 0
M  V30 357 H 30.2662 0.171507 2.57028 0
M  V30 358 H 30.2242 -1.54955 2.73562 0
M  V30 359 N 33.9963 -1.19345 1.0293 0
M  V30 360 C 35.4073 -1.70725 0.755633 0
M  V30 361 C 35.7583 -1.82326 -0.724676 0
M  V30 362 O 34.8833 -1.49471 -1.56484 0
M  V30 363 C 35.4783 -3.10084 1.36503 0
M  V30 364 C 34.0373 -3.58723 1.13994 0
M  V30 365 C 33.1843 -2.35577 1.46283 0
M  V30 366 H 36.1353 -1.0418 1.19718 0
M  V30 367 H 36.1563 -3.72787 0.762217 0
M  V30 368 H 35.6683 -3.01609 2.44241 0
M  V30 369 H 33.7693 -3.72512 0.0807901 0
M  V30 370 H 33.8823 -4.42816 1.82894 0
M  V30 371 H 32.2463 -2.38935 0.88217 0
M  V30 372 H 33.0293 -2.29731 2.55105 0
M  V30 373 N 35.4744 -0.807222 -1.35358 0
M  V30 374 C 36.6994 -0.399309 -2.0352 0
M  V30 375 C 37.1244 0.981986 -1.60433 0
M  V30 376 O 36.4824 1.63601 -0.781299 0
M  V30 377 C 36.5304 -0.491552 -3.57234 0
M  V30 378 O 35.6344 0.494754 -4.09421 0
M  V30 379 H 34.9754 -0.166682 -0.642739 0
M  V30 380 H 37.5054 -1.09328 -1.72941 0
M  V30 381 H 37.5154 -0.361588 -4.06395 0
M  V30 382 H 36.1904 -1.49907 -3.87944 0
M  V30 383 H 34.7674 0.324977 -3.71481 0
M  V30 384 N 36.9525 1.47285 -0.560781 0
M  V30 385 C 37.9025 2.27073 0.205384 0
M  V30 386 C 38.8865 1.34569 0.882044 0
M  V30 387 O 40.0785 1.58899 0.77976 0
M  V30 388 C 37.2075 3.20414 1.23247 0
M  V30 389 C 36.2935 4.20399 0.559041 0
M  V30 390 N 36.6845 5.04423 -0.372927 0
M  V30 391 C 34.9825 4.38536 0.812522 0
M  V30 392 C 35.6835 5.76655 -0.764446 0
M  V30 393 N 34.6595 5.43471 -0.11848 0
M  V30 394 H 38.4615 2.89422 -0.511117 0
M  V30 395 H 35.9755 1.57868 -0.380975 0
M  V30 396 H 37.9725 3.76262 1.79534 0
M  V30 397 H 36.6325 2.59623 1.95002 0
M  V30 398 H 37.6435 5.1248 -0.747287 0
M  V30 399 H 34.3205 3.88913 1.51832 0
M  V30 400 H 35.7105 6.54238 -1.53045 0
M  V30 401 N 38.4306 0.297415 1.54768 0
M  V30 402 C 39.3786 -0.596051 2.24833 0
M  V30 403 C 40.3726 -1.13992 1.25308 0
M  V30 404 O 41.5786 -1.09098 1.4317 0
M  V30 405 H 37.9536 -0.210814 0.721846 0
M  V30 406 H 39.9246 0.0174667 2.98395 0
M  V30 407 C 38.6736 -1.75818 2.99972 0
M  V30 408 H 37.9966 -1.3489 3.76357 0
M  V30 409 H 39.4366 -2.35949 3.52284 0
M  V30 410 C 37.8956 -2.66014 2.06732 0
M  V30 411 O 38.4256 -3.67009 1.63302 0
M  V30 412 N 36.6316 -2.33669 1.72763 0
M  V30 413 H 36.1786 -1.51586 2.08277 0
M  V30 414 H 36.1366 -2.94285 1.10652 0
M  V30 415 N 39.9087 -1.5758 0.0250728 0
M  V30 416 C 41.1547 -1.91917 -0.655413 0
M  V30 417 C 41.4877 -0.901433 -1.72011 0
M  V30 418 O 40.7627 0.0764069 -1.9435 0
M  V30 419 C 41.0457 -3.36751 -1.27558 0
M  V30 420 C 40.8987 -4.49258 -0.220719 0
M  V30 421 C 42.2177 -3.81469 -2.19475 0
M  V30 422 H 39.3367 -0.697925 -0.23679 0
M  V30 423 H 41.9787 -1.89825 0.0815036 0
M  V30 424 H 40.1287 -3.38664 -1.90365 0
M  V30 425 H 41.8007 -4.59478 0.409601 0
M  V30 426 H 40.0437 -4.31415 0.454264 0
M  V30 427 H 40.7147 -5.47618 -0.694175 0
M  V30 428 H 43.1907 -3.81266 -1.66659 0
M  V30 429 H 42.0667 -4.83512 -2.59822 0
M  V30 430 H 42.3277 -3.16744 -3.08424 0
M  V30 431 N 41.3868 0.248026 -1.55636 0
M  V30 432 C 42.6338 0.976224 -1.77415 0
M  V30 433 C 42.9618 1.85361 -0.589193 0
M  V30 434 O 42.2168 1.90973 0.427529 0
M  V30 435 C 42.5158 1.86819 -3.04686 0
M  V30 436 C 42.1818 1.14625 -4.36087 0
M  V30 437 C 40.8438 0.946723 -4.71795 0
M  V30 438 C 43.1958 0.634463 -5.17324 0
M  V30 439 C 40.5238 0.223091 -5.86276 0
M  V30 440 C 42.8758 -0.0756959 -6.32555 0
M  V30 441 C 41.5398 -0.286711 -6.66884 0
M  V30 442 H 40.8098 0.357226 -0.649208 0
M  V30 443 H 43.4568 0.246415 -1.89908 0
M  V30 444 H 41.7618 2.66502 -2.872 0
M  V30 445 H 43.4588 2.43329 -3.18735 0
M  V30 446 H 40.0488 1.3117 -4.08035 0
M  V30 447 H 44.2328 0.77616 -4.90193 0
M  V30 448 H 39.4888 0.0491185 -6.1138 0
M  V30 449 H 43.6628 -0.479899 -6.94745 0
M  V30 450 H 41.2898 -0.849389 -7.5544 0
M  V30 451 N 42.8649 1.48995 0.513639 0
M  V30 452 C 44.1049 1.59452 1.27885 0
M  V30 453 C 44.4689 0.269479 1.90099 0
M  V30 454 O 45.6699 0.249139 2.67643 0
M  V30 455 C 43.9409 2.71277 2.32688 0
M  V30 456 S 45.4999 3.01604 3.18717 0
M  V30 457 H 42.3179 0.562565 0.434789 0
M  V30 458 H 44.9199 1.86595 0.583301 0
M  V30 459 H 43.6239 3.66089 1.8549 0
M  V30 460 H 43.1549 2.46086 3.06929 0
M  V30 461 H 45.1699 2.42155 4.331 0
M  V30 462 N 44.343 -0.763751 1.37857 0
M  V30 463 C 45.568 -1.55805 1.36893 0
M  V30 464 C 45.993 -1.88054 -0.0416135 0
M  V30 465 O 45.351 -1.49825 -1.02089 0
M  V30 466 C 45.399 -2.84012 2.22192 0
M  V30 467 O 44.503 -3.78732 1.63204 0
M  V30 468 H 43.844 -0.471638 0.46739 0
M  V30 469 H 46.374 -0.944657 1.81487 0
M  V30 470 H 46.384 -3.33037 2.35691 0
M  V30 471 H 45.059 -2.59869 3.24716 0
M  V30 472 H 43.636 -3.37402 1.58791 0
M  V30 473 N 45.8211 -1.22559 -0.990812 0
M  V30 474 C 47.2321 -1.04791 -1.54518 0
M  V30 475 C 47.5831 0.387998 -1.92325 0
M  V30 476 O 46.7081 1.27328 -1.74976 0
M  V30 477 C 47.3031 -1.896 -2.80779 0
M  V30 478 C 45.8621 -1.76124 -3.32652 0
M  V30 479 C 45.0091 -1.8594 -2.05722 0
M  V30 480 H 47.9601 -1.36374 -0.811662 0
M  V30 481 H 47.9811 -1.41464 -3.53225 0
M  V30 482 H 47.4931 -2.94101 -2.53231 0
M  V30 483 H 45.5941 -0.743643 -3.65104 0
M  V30 484 H 45.7071 -2.58913 -4.03114 0
M  V30 485 H 44.0711 -1.29403 -2.19379 0
M  V30 486 H 44.8541 -2.91976 -1.80568 0
M  V30 487 N 47.2992 1.18797 -1.03562 0
M  V30 488 C 48.5452 1.8893 -0.737113 0
M  V30 489 C 48.8782 1.79837 0.732956 0
M  V30 490 O 48.1532 1.19525 1.5344 0
M  V30 491 C 48.4362 3.39607 -1.19745 0
M  V30 492 C 48.2892 3.57537 -2.72924 0
M  V30 493 C 49.6082 4.33069 -0.783526 0
M  V30 494 H 46.7272 0.686057 -0.269249 0
M  V30 495 H 49.3692 1.39797 -1.28673 0
M  V30 496 H 47.5192 3.81583 -0.729855 0
M  V30 497 H 49.1912 3.24688 -3.27682 0
M  V30 498 H 47.4342 3.00363 -3.12993 0
M  V30 499 H 48.1052 4.63238 -3.00191 0
M  V30 500 H 50.5812 3.98846 -1.18581 0
M  V30 501 H 49.4572 5.3707 -1.13343 0
M  V30 502 H 49.7182 4.40986 0.313681 0
M  V30 503 N 48.7773 0.814389 1.34928 0
M  V30 504 C 50.0023 0.410097 2.03305 0
M  V30 505 C 50.4273 -0.973464 1.60951 0
M  V30 506 O 49.7853 -1.63185 0.789964 0
M  V30 507 C 49.8333 0.51049 3.56968 0
M  V30 508 O 48.9373 -0.473035 4.09678 0
M  V30 509 H 48.2783 0.170088 0.641846 0
M  V30 510 H 50.8083 1.10244 1.72358 0
M  V30 511 H 50.8183 0.383135 4.06197 0
M  V30 512 H 49.4933 1.51963 3.87144 0
M  V30 513 H 48.0703 -0.305272 3.71648 0
M  V30 514 N 50.2554 -1.46986 0.568584 0
M  V30 515 C 51.5044 -2.01646 0.0465894 0
M  V30 516 C 51.8174 -1.44721 -1.31587 0
M  V30 517 O 53.0234 -1.91113 -1.92842 0
M  V30 518 C 51.4794 -3.59885 0.032752 0
M  V30 519 C 51.0874 -4.25804 1.39266 0
M  V30 520 C 52.8314 -4.22255 -0.436038 0
M  V30 521 C 50.7384 -5.76081 1.33732 0
M  V30 522 H 49.6684 -0.753876 0.013647 0
M  V30 523 H 52.3194 -1.68864 0.718131 0
M  V30 524 H 50.7014 -3.8968 -0.704669 0
M  V30 525 H 51.8754 -4.07637 2.1487 0
M  V30 526 H 50.1904 -3.7547 1.80032 0
M  V30 527 H 52.7874 -5.32394 -0.49602 0
M  V30 528 H 53.1304 -3.90212 -1.45053 0
M  V30 529 H 53.6634 -3.97033 0.246877 0
M  V30 530 H 50.4024 -6.12761 2.32817 0
M  V30 531 H 49.9224 -5.96553 0.623267 0
M  V30 532 H 51.6014 -6.38518 1.0442 0
M  V30 533 N 51.7335 -0.305618 -1.54608 0
M  V30 534 C 52.9585 0.307562 -2.05107 0
M  V30 535 C 53.3835 1.46385 -1.18123 0
M  V30 536 O 52.7415 1.8034 -0.186324 0
M  V30 537 C 52.7895 0.73704 -3.52987 0
M  V30 538 O 51.8935 1.84134 -3.6901 0
M  V30 539 H 51.2345 0.0589143 -0.661381 0
M  V30 540 H 53.7645 -0.448807 -1.99617 0
M  V30 541 H 53.7745 1.02459 -3.94925 0
M  V30 542 H 52.4495 -0.108773 -4.15758 0
M  V30 543 H 51.0265 1.55398 -3.38978 0
M  V30 544 N 53.2116 1.57565 -0.0334293 0
M  V30 545 C 54.4366 1.96689 0.657895 0
M  V30 546 C 54.8616 0.910057 1.64619 0
M  V30 547 O 54.2196 -0.128598 1.80843 0
M  V30 548 C 54.2676 3.34905 1.33683 0
M  V30 549 O 53.3716 3.31574 2.45219 0
M  V30 550 H 52.7126 0.641205 0.172489 0
M  V30 551 H 55.2426 2.04372 -0.0965621 0
M  V30 552 H 55.2526 3.71234 1.69262 0
M  V30 553 H 53.9276 4.11366 0.612411 0
M  V30 554 H 52.5046 3.06968 2.11719 0
M  V30 555 N 54.6897 -0.239769 1.55765 0
M  V30 556 C 55.6527 -1.28038 1.90103 0
M  V30 557 C 56.6527 -1.40723 0.778055 0
M  V30 558 O 57.8427 -1.39301 1.04599 0
M  V30 559 C 54.9747 -2.65702 2.13577 0
M  V30 560 H 56.1677 -0.988048 2.83157 0
M  V30 561 H 53.7207 -0.479382 1.48767 0
M  V30 562 H 54.4557 -3.00063 1.23015 0
M  V30 563 H 54.2407 -2.57875 2.95369 0
M  V30 564 H 55.7307 -3.40828 2.41301 0
M  V30 565 N 56.1678 -1.49265 -0.50573 0
M  V30 566 C 57.0978 -1.68495 -1.61653 0
M  V30 567 C 58.0788 -0.53366 -1.61512 0
M  V30 568 O 59.2638 -0.76897 -1.78327 0
M  V30 569 C 56.3938 -1.74709 -3.00157 0
M  V30 570 C 55.3478 -2.89581 -3.15162 0
M  V30 571 C 54.6738 -2.80903 -4.5497 0
M  V30 572 C 55.9738 -4.30578 -2.95634 0
M  V30 573 H 57.6678 -2.61493 -1.45814 0
M  V30 574 H 55.2138 -1.25838 -0.70005 0
M  V30 575 H 57.1668 -1.86748 -3.77761 0
M  V30 576 H 55.8908 -0.783067 -3.17074 0
M  V30 577 H 54.5498 -2.77136 -2.39982 0
M  V30 578 H 54.1978 -1.82419 -4.68756 0
M  V30 579 H 53.8978 -3.57999 -4.65951 0
M  V30 580 H 55.4218 -2.94944 -5.34641 0
M  V30 581 H 56.8358 -4.4373 -3.63011 0
M  V30 582 H 55.2328 -5.0886 -3.18091 0
M  V30 583 H 56.3028 -4.45352 -1.91806 0
M  V30 584 N 57.6459 0.756429 -1.3826 0
M  V30 585 C 58.6089 1.85176 -1.35065 0
M  V30 586 C 59.6089 1.58818 -0.251703 0
M  V30 587 O 60.7989 1.66615 -0.508433 0
M  V30 588 C 57.9309 3.22596 -1.10201 0
M  V30 589 H 59.1239 1.89417 -2.3251 0
M  V30 590 H 56.6769 0.95783 -1.23512 0
M  V30 591 H 57.4119 3.24025 -0.133504 0
M  V30 592 H 57.1969 3.43122 -1.89762 0
M  V30 593 H 58.6869 4.02673 -1.10654 0
M  V30 594 N 59.124 1.23083 0.984299 0
M  V30 595 C 60.057 0.951786 2.07404 0
M  V30 596 C 61.035 -0.10848 1.62238 0
M  V30 597 O 62.219 0.0249467 1.88483 0
M  V30 598 C 59.346 0.433142 3.35919 0
M  V30 599 C 58.392 1.47941 4.0002 0
M  V30 600 S 59.225 3.05556 4.39768 0
M  V30 601 C 60.381 2.55351 5.71442 0
M  V30 602 H 60.614 1.87456 2.30754 0
M  V30 603 H 58.147 1.06284 1.11996 0
M  V30 604 H 60.105 0.140506 4.10259 0
M  V30 605 H 58.766 -0.468656 3.10584 0
M  V30 606 H 57.959 1.06658 4.92585 0
M  V30 607 H 57.561 1.7212 3.3204 0
M  V30 608 H 59.853 1.97128 6.48187 0
M  V30 609 H 60.796 3.46441 6.17563 0
M  V30 610 H 61.204 1.96339 5.29255 0
M  V30 611 N 60.6021 -1.18246 1.0419 0
M  V30 612 C 61.8481 -1.88536 0.747122 0
M  V30 613 C 62.1811 -1.80223 -0.723409 0
M  V30 614 O 61.4561 -1.20337 -1.52804 0
M  V30 615 C 61.7391 -3.38968 1.21544 0
M  V30 616 C 61.5921 -3.56084 2.74816 0
M  V30 617 C 62.9111 -4.32648 0.806482 0
M  V30 618 H 60.0301 -0.684619 0.272883 0
M  V30 619 H 62.6721 -1.39113 1.29413 0
M  V30 620 H 60.8221 -3.8119 0.750081 0
M  V30 621 H 62.4941 -3.22946 3.29399 0
M  V30 622 H 60.7371 -2.98699 3.14582 0
M  V30 623 H 61.4081 -4.61639 3.02644 0
M  V30 624 H 63.8841 -3.98211 1.20695 0
M  V30 625 H 62.7601 -5.36462 1.1619 0
M  V30 626 H 63.0211 -4.41146 -0.29029 0
M  V30 627 N 62.0802 -0.821533 -1.34494 0
M  V30 628 C 63.0102 -0.257138 -2.3208 0
M  V30 629 C 63.9912 0.625645 -1.58176 0
M  V30 630 O 65.1762 0.552811 -1.86166 0
M  V30 631 C 62.3062 0.582958 -3.42372 0
M  V30 632 C 61.2602 -0.202571 -4.2752 0
M  V30 633 C 60.5862 0.760179 -5.29269 0
M  V30 634 C 61.8862 -1.40998 -5.02908 0
M  V30 635 H 63.5802 -1.07247 -2.79532 0
M  V30 636 H 61.1262 -0.517163 -1.34393 0
M  V30 637 H 63.0792 0.987972 -4.09655 0
M  V30 638 H 61.8032 1.43133 -2.93565 0
M  V30 639 H 60.4622 -0.588936 -3.61838 0
M  V30 640 H 60.1102 1.60447 -4.76724 0
M  V30 641 H 59.8102 0.238809 -5.87115 0
M  V30 642 H 61.3342 1.16308 -5.9942 0
M  V30 643 H 62.7482 -1.07905 -5.63054 0
M  V30 644 H 61.1452 -1.86689 -5.70322 0
M  V30 645 H 62.2152 -2.1889 -4.32684 0
M  V30 646 N 63.5583 1.46682 -0.576371 0
M  V30 647 C 64.4883 2.33028 0.148397 0
M  V30 648 C 65.4693 1.44961 0.889956 0
M  V30 649 O 66.6543 1.73789 0.866662 0
M  V30 650 C 63.7843 3.27117 1.1667 0
M  V30 651 C 62.7383 4.24575 0.540386 0
M  V30 652 C 62.0643 5.08126 1.6647 0
M  V30 653 C 63.3643 5.19722 -0.518331 0
M  V30 654 H 65.0583 2.93875 -0.572509 0
M  V30 655 H 62.6043 1.41315 -0.276768 0
M  V30 656 H 64.5573 3.86374 1.68204 0
M  V30 657 H 63.2813 2.64364 1.9178 0
M  V30 658 H 61.9403 3.66571 0.0461769 0
M  V30 659 H 61.5883 4.41762 2.40531 0
M  V30 660 H 61.2883 5.74122 1.25131 0
M  V30 661 H 62.8123 5.70246 2.18293 0
M  V30 662 H 64.2263 5.73232 -0.0883058 0
M  V30 663 H 62.6233 5.94026 -0.851679 0
M  V30 664 H 63.6933 4.64037 -1.40703 0
M  V30 665 N 65.0364 0.313813 1.54444 0
M  V30 666 C 66.2844 -0.291099 1.99993 0
M  V30 667 C 66.6054 -1.53418 1.20366 0
M  V30 668 O 65.8754 -1.93544 0.302927 0
M  V30 669 H 64.4554 -0.110552 0.738774 0
M  V30 670 H 67.1174 0.428106 1.9014 0
M  V30 671 H 66.2134 -0.554268 3.07139 0
M  V30 672 N 66.5145 -1.57545 0.0417849 0
M  V30 673 C 67.4775 -2.09885 -0.92093 0
M  V30 674 C 68.4775 -1.01648 -1.24596 0
M  V30 675 O 69.6675 -1.27759 -1.1842 0
M  V30 676 C 66.7995 -2.57527 -2.23367 0
M  V30 677 H 67.9925 -2.96236 -0.467382 0
M  V30 678 H 65.5455 -1.5493 -0.206467 0
M  V30 679 H 66.2805 -1.74542 -2.73323 0
M  V30 680 H 66.0655 -3.36613 -2.01083 0
M  V30 681 H 67.5555 -2.98201 -2.92346 0
M  V30 682 N 67.9926 0.231505 -1.5589 0
M  V30 683 C 68.9396 1.28682 -1.91598 0
M  V30 684 C 69.9096 1.47071 -0.771974 0
M  V30 685 O 71.0946 1.60802 -1.027 0
M  V30 686 C 68.2346 2.6342 -2.22944 0
M  V30 687 C 67.3476 2.52912 -3.50228 0
M  V30 688 C 66.4826 3.80106 -3.7107 0
M  V30 689 C 65.5216 3.64279 -4.91902 0
M  V30 690 N 64.6586 4.834 -5.09184 0
M  V30 691 H 69.4986 0.975305 -2.81588 0
M  V30 692 H 67.0356 0.470299 -1.39379 0
M  V30 693 H 68.9936 3.41869 -2.39126 0
M  V30 694 H 67.6236 2.92687 -1.36139 0
M  V30 695 H 66.6756 1.6595 -3.42294 0
M  V30 696 H 67.9876 2.37133 -4.38827 0
M  V30 697 H 67.1416 4.66999 -3.87295 0
M  V30 698 H 65.8806 3.98799 -2.80733 0
M  V30 699 H 64.8856 2.7577 -4.75637 0
M  V30 700 H 66.1106 3.47067 -5.83714 0
M  V30 701 H 64.0566 5.02425 -4.21788 0
M  V30 702 H 63.9736 4.70311 -5.91898 0
M  V30 703 H 65.2416 5.71747 -5.29835 0
M  V30 704 N 69.4707 1.49531 0.497807 0
M  V30 705 C 70.7187 1.58865 1.24926 0
M  V30 706 C 71.0397 0.278721 1.92998 0
M  V30 707 O 70.3097 -0.702144 1.82885 0
M  V30 708 H 68.8897 0.585343 0.464094 0
M  V30 709 H 71.5517 1.86174 0.57666 0
M  V30 710 H 70.6477 2.38633 2.01149 0
M  V30 711 N 70.9488 -0.749086 1.3866 0
M  V30 712 C 71.8968 -1.88428 1.36373 0
M  V30 713 C 72.8908 -1.67561 0.248929 0
M  V30 714 O 74.0968 -1.75074 0.41821 0
M  V30 715 H 70.4718 -0.620023 0.42553 0
M  V30 716 H 72.4428 -1.87473 2.32156 0
M  V30 717 C 71.1918 -3.25961 1.21014 0
M  V30 718 H 70.5148 -3.42607 2.06059 0
M  V30 719 H 71.9548 -4.05625 1.23469 0
M  V30 720 C 70.4138 -3.36799 -0.0825941 0
M  V30 721 O 70.9438 -3.87517 -1.05797 0
M  V30 722 N 69.1498 -2.90258 -0.140939 0
M  V30 723 H 68.6968 -2.49174 0.653477 0
M  V30 724 H 68.6548 -2.97889 -1.00545 0
M  V30 725 N 72.4269 -1.23603 -0.977757 0
M  V30 726 C 73.6549 -1.09646 -1.75458 0
M  V30 727 C 74.0699 0.351859 -1.85492 0
M  V30 728 O 73.4269 1.24327 -1.336 0
M  V30 729 C 73.4779 -1.71895 -3.18016 0
M  V30 730 O 73.1989 -3.11063 -3.08498 0
M  V30 731 C 74.6999 -1.63415 -4.12081 0
M  V30 732 H 71.9199 -0.38359 -0.550545 0
M  V30 733 H 74.4639 -1.63507 -1.22824 0
M  V30 734 H 72.6189 -1.22061 -3.67668 0
M  V30 735 H 73.0329 -3.41305 -3.9826 0
M  V30 736 H 74.5069 -2.11669 -5.09804 0
M  V30 737 H 74.9839 -0.593462 -4.35172 0
M  V30 738 H 75.5899 -2.12628 -3.68334 0
M  V30 739 N 73.905 1.17692 -1.04816 0
M  V30 740 C 74.868 2.19787 -0.650117 0
M  V30 741 C 75.868 1.58044 0.296427 0
M  V30 742 O 77.058 1.74012 0.0808097 0
M  V30 743 C 74.19 3.40869 0.0456987 0
M  V30 744 H 75.383 2.56516 -1.5537 0
M  V30 745 H 72.936 1.31708 -0.841594 0
M  V30 746 H 73.671 3.09681 0.962726 0
M  V30 747 H 73.456 3.86928 -0.634727 0
M  V30 748 H 74.946 4.16445 0.310432 0
M  V30 749 N 75.3831 0.828654 1.34056 0
M  V30 750 C 76.6111 0.43262 2.02326 0
M  V30 751 C 77.0261 -0.963147 1.62385 0
M  V30 752 O 76.3831 -1.62425 0.832121 0
M  V30 753 C 76.4341 0.53182 3.57567 0
M  V30 754 O 76.1551 1.87258 3.96063 0
M  V30 755 C 77.6561 0.131422 4.43105 0
M  V30 756 H 74.8761 0.172923 0.648335 0
M  V30 757 H 77.4201 1.1184 1.71208 0
M  V30 758 H 75.5751 -0.105938 3.87255 0
M  V30 759 H 75.9891 1.85087 4.90758 0
M  V30 760 H 77.4631 0.251904 5.51425 0
M  V30 761 H 77.9401 -0.925645 4.29335 0
M  V30 762 H 78.5461 0.743207 4.18756 0
M  V30 763 N 76.8612 -1.46375 0.584142 0
M  V30 764 C 77.7932 -2.28443 -0.186119 0
M  V30 765 C 78.8062 -1.38596 -0.854115 0
M  V30 766 O 79.9952 -1.63183 -0.723438 0
M  V30 767 C 77.0952 -3.13671 -1.28311 0
M  V30 768 C 76.2682 -4.31652 -0.706758 0
M  V30 769 C 75.3272 -4.98267 -1.69163 0
M  V30 770 O 74.3532 -5.55815 -1.22712 0
M  V30 771 N 75.5552 -4.95408 -3.02575 0
M  V30 772 H 78.3202 -2.9519 0.517986 0
M  V30 773 H 75.8812 -1.56303 0.42201 0
M  V30 774 H 77.8732 -3.55101 -1.94128 0
M  V30 775 H 76.4432 -2.48989 -1.89005 0
M  V30 776 H 75.6632 -3.93989 0.128908 0
M  V30 777 H 76.9512 -5.07906 -0.301506 0
M  V30 778 H 76.3492 -4.49902 -3.42936 0
M  V30 779 H 74.9062 -5.40774 -3.63877 0
M  V30 780 N 78.3393 -0.321999 -1.54275 0
M  V30 781 C 79.2723 0.58718 -2.20516 0
M  V30 782 C 80.2503 1.11693 -1.18167 0
M  V30 783 O 81.4343 1.18122 -1.46899 0
M  V30 784 C 78.5613 1.80554 -2.86562 0
M  V30 785 C 77.6073 1.40718 -4.02617 0
M  V30 786 S 78.4403 0.445218 -5.33646 0
M  V30 787 C 79.5963 1.6709 -6.03185 0
M  V30 788 H 79.8293 0.0244875 -2.9729 0
M  V30 789 H 77.3623 -0.106087 -1.54035 0
M  V30 790 H 79.3203 2.50462 -3.25237 0
M  V30 791 H 77.9813 2.33942 -2.09595 0
M  V30 792 H 77.1743 2.31501 -4.47687 0
M  V30 793 H 76.7763 0.78782 -3.65608 0
M  V30 794 H 79.0683 2.60856 -6.25268 0
M  V30 795 H 80.0113 1.26239 -6.96756 0
M  V30 796 H 80.4193 1.85716 -5.33076 0
M  V30 797 N 79.8174 1.5752 -0.0501392 0
M  V30 798 C 80.7804 2.1037 0.909786 0
M  V30 799 C 81.7804 1.02308 1.24056 0
M  V30 800 O 82.9704 1.28385 1.17741 0
M  V30 801 C 80.1024 2.58708 2.21998 0
M  V30 802 H 81.2954 2.96479 0.451665 0
M  V30 803 H 78.8484 1.55038 0.198248 0
M  V30 804 H 79.5834 1.75989 2.72394 0
M  V30 805 H 79.3684 3.37675 1.99295 0
M  V30 806 H 80.8584 2.99747 2.9076 0
M  V30 807 N 81.2955 -0.223234 1.56011 0
M  V30 808 C 82.2275 -1.30006 1.88762 0
M  V30 809 C 83.2405 -1.43129 0.775746 0
M  V30 810 O 84.4295 -1.44057 1.05403 0
M  V30 811 C 81.5295 -2.67589 2.07965 0
M  V30 812 C 80.7025 -2.76434 3.38973 0
M  V30 813 C 79.7615 -3.95019 3.47629 0
M  V30 814 O 78.7875 -3.83436 4.20672 0
M  V30 815 N 79.9895 -5.09249 2.78649 0
M  V30 816 H 82.7545 -1.02238 2.81722 0
M  V30 817 H 80.3155 -0.413278 1.56536 0
M  V30 818 H 82.3075 -3.45297 2.11073 0
M  V30 819 H 80.8775 -2.87964 1.21638 0
M  V30 820 H 80.0975 -1.85216 3.47978 0
M  V30 821 H 81.3855 -2.79313 4.25278 0
M  V30 822 H 80.7835 -5.21556 2.19081 0
M  V30 823 H 79.3405 -5.85007 2.8742 0
M  V30 824 N 82.7736 -1.49793 -0.48987 0
M  V30 825 C 83.7366 -1.66752 -1.57246 0
M  V30 826 C 84.7366 -0.538867 -1.51502 0
M  V30 827 O 85.9266 -0.805545 -1.54456 0
M  V30 828 C 83.0586 -1.67528 -2.96896 0
M  V30 829 H 84.2516 -2.63321 -1.43534 0
M  V30 830 H 81.8046 -1.38992 -0.714914 0
M  V30 831 H 82.5396 -0.725837 -3.16073 0
M  V30 832 H 82.3246 -2.49504 -3.02473 0
M  V30 833 H 83.8146 -1.82667 -3.7553 0
M  V30 834 N 84.2517 0.741722 -1.39055 0
M  V30 835 C 85.1817 1.869 -1.39966 0
M  V30 836 C 86.1627 1.6804 -0.26392 0
M  V30 837 O 87.3477 1.88458 -0.468755 0
M  V30 838 C 84.4777 3.24572 -1.23574 0
M  V30 839 C 83.4317 3.58056 -2.34477 0
M  V30 840 C 82.7577 4.94593 -2.0318 0
M  V30 841 C 84.0577 3.61716 -3.76774 0
M  V30 842 H 85.7517 1.86395 -2.34302 0
M  V30 843 H 83.2977 0.895361 -1.1278 0
M  V30 844 H 85.2507 4.031 -1.22834 0
M  V30 845 H 83.9747 3.25587 -0.257045 0
M  V30 846 H 82.6337 2.81854 -2.34423 0
M  V30 847 H 82.2817 4.92181 -1.03765 0
M  V30 848 H 81.9817 5.17964 -2.77465 0
M  V30 849 H 83.5057 5.75486 -2.04079 0
M  V30 850 H 84.9197 4.30335 -3.78794 0
M  V30 851 H 83.3167 3.96603 -4.50362 0
M  V30 852 H 84.3867 2.61672 -4.08235 0
M  V30 853 N 85.7298 1.2412 0.971189 0
M  V30 854 C 86.9548 1.10667 1.75407 0
M  V30 855 C 87.3798 -0.337048 1.85056 0
M  V30 856 O 86.7378 -1.24396 1.31892 0
M  V30 857 C 86.7858 1.74726 3.15441 0
M  V30 858 O 85.8898 1.01566 3.99697 0
M  V30 859 H 85.2308 0.387341 0.539317 0
M  V30 860 H 87.7608 1.64358 1.2185 0
M  V30 861 H 87.7708 1.80341 3.6598 0
M  V30 862 H 86.4458 2.79773 3.07734 0
M  V30 863 H 85.0228 1.03713 3.58187 0
M  V30 864 N 87.2079 -1.17134 1.05439 0
M  V30 865 C 88.1379 -2.2342 0.678649 0
M  V30 866 C 89.1189 -1.66971 -0.32476 0
M  V30 867 O 90.3039 -1.93149 -0.201802 0
M  V30 868 C 87.4339 -3.47256 0.0552099 0
M  V30 869 C 86.3879 -4.16543 0.98365 0
M  V30 870 C 85.7139 -5.34231 0.223961 0
M  V30 871 C 87.0139 -4.68495 2.3089 0
M  V30 872 H 88.7079 -2.55105 1.56722 0
M  V30 873 H 86.2539 -1.2262 0.754998 0
M  V30 874 H 88.2069 -4.20828 -0.21946 0
M  V30 875 H 86.9309 -3.14846 -0.868319 0
M  V30 876 H 85.5899 -3.44887 1.24293 0
M  V30 877 H 85.2379 -4.98071 -0.702412 0
M  V30 878 H 84.9379 -5.81527 0.842627 0
M  V30 879 H 86.4619 -6.10585 -0.0433671 0
M  V30 880 H 87.8759 -5.33691 2.09396 0
M  V30 881 H 86.2729 -5.26379 2.88176 0
M  V30 882 H 87.3429 -3.85169 2.94572 0
M  V30 883 N 88.686 -0.835752 -1.33615 0
M  V30 884 C 89.634 -0.255238 -2.31195 0
M  V30 885 C 90.628 0.61107 -1.57995 0
M  V30 886 O 91.834 0.500979 -1.72888 0
M  V30 887 H 88.209 -0.0638085 -0.749288 0
M  V30 888 H 90.18 -1.09283 -2.77669 0
M  V30 889 C 88.929 0.55754 -3.43201 0
M  V30 890 H 88.252 -0.0997553 -3.99676 0
M  V30 891 H 89.692 0.929622 -4.13683 0
M  V30 892 C 88.151 1.73515 -2.88781 0
M  V30 893 O 88.681 2.83376 -2.84712 0
M  V30 894 N 86.887 1.55603 -2.4543 0
M  V30 895 H 86.434 0.662354 -2.48939 0
M  V30 896 H 86.392 2.34545 -2.09371 0
M  V30 897 N 90.1641 1.46063 -0.591896 0
M  V30 898 C 91.3921 2.06717 -0.0868936 0
M  V30 899 C 91.8071 1.43916 1.22203 0
M  V30 900 O 91.1641 0.547698 1.74088 0
M  V30 901 C 91.2151 3.6142 0.0758725 0
M  V30 902 O 90.9361 4.21874 -1.18126 0
M  V30 903 C 92.4371 4.39025 0.61416 0
M  V30 904 H 89.6571 0.668162 -0.0616518 0
M  V30 905 H 92.2011 1.8755 -0.815175 0
M  V30 906 H 90.3561 3.79983 0.754413 0
M  V30 907 H 90.7701 5.14861 -1.00092 0
M  V30 908 H 92.2441 5.4783 0.677193 0
M  V30 909 H 92.7211 4.07708 1.63312 0
M  V30 910 H 93.3271 4.2529 -0.0298142 0
M  V30 911 N 91.6422 0.330177 1.54103 0
M  V30 912 C 92.5522 -0.541534 2.28264 0
M  V30 913 C 93.5682 -1.12351 1.32866 0
M  V30 914 O 94.7442 -1.14206 1.65888 0
M  V30 915 C 91.8092 -1.68322 3.03098 0
M  V30 916 C 90.8702 -1.13238 4.14096 0
M  V30 917 C 90.1032 -2.21966 4.85352 0
M  V30 918 O 90.3262 -3.42437 4.56172 0
M  V30 919 O 89.2602 -1.87013 5.7211 0
M  V30 920 H 93.0862 0.060938 3.03639 0
M  V30 921 H 90.6712 0.09565 1.49093 0
M  V30 922 H 92.5532 -2.34777 3.49939 0
M  V30 923 H 91.2282 -2.27176 2.30593 0
M  V30 924 H 90.1352 -0.432736 3.71589 0
M  V30 925 H 91.4682 -0.588898 4.88664 0
M  V30 926 N 93.1203 -1.57491 0.0584922 0
M  V30 927 C 94.0303 -2.15448 -0.928414 0
M  V30 928 C 95.0463 -1.11416 -1.3365 0
M  V30 929 O 96.2223 -1.4362 -1.41193 0
M  V30 930 C 93.2873 -2.69393 -2.18239 0
M  V30 931 C 92.3483 -3.88249 -1.83196 0
M  V30 932 C 91.5813 -4.39613 -3.02616 0
M  V30 933 O 91.8043 -3.90023 -4.16219 0
M  V30 934 O 90.7383 -5.31111 -2.83204 0
M  V30 935 H 94.5643 -3.00112 -0.465483 0
M  V30 936 H 92.1493 -1.48499 -0.163826 0
M  V30 937 H 94.0313 -3.04026 -2.91798 0
M  V30 938 H 92.7063 -1.87796 -2.63656 0
M  V30 939 H 91.6133 -3.58492 -1.06931 0
M  V30 940 H 92.9463 -4.71098 -1.42573 0
M  V30 941 N 94.5984 0.214957 -1.56127 0
M  V30 942 C 95.8754 0.963093 -1.70247 0
M  V30 943 C 96.2554 2.02166 -0.60764 0
M  V30 944 O 95.6034 2.25244 0.384385 0
M  V30 945 C 95.8134 1.56756 -3.11815 0
M  V30 946 C 97.1614 2.0573 -3.7143 0
M  V30 947 O 98.1854 1.66637 -3.14818 0
M  V30 948 O 97.0444 2.77603 -4.70743 0
M  V30 949 H 94.1384 0.450321 -0.693643 0
M  V30 950 H 96.6844 0.206219 -1.68442 0
M  V30 951 H 95.4564 0.803533 -3.82961 0
M  V30 952 H 95.0794 2.3898 -3.17765 0
M  V30 953 N 96.0765 1.50051 0.48192 0
M  V30 954 C 97.3255 1.59741 1.23149 0
M  V30 955 C 97.6385 0.298163 1.93314 0
M  V30 956 O 98.8445 0.273835 2.70116 0
M  V30 957 C 97.3005 2.81926 2.23708 0
M  V30 958 C 96.9085 4.18685 1.59396 0
M  V30 959 C 98.6525 3.00956 2.99375 0
M  V30 960 C 96.5595 5.3207 2.58178 0
M  V30 961 H 95.4895 0.594838 0.46334 0
M  V30 962 H 98.1405 1.76467 0.503169 0
M  V30 963 H 96.5225 2.58736 2.99786 0
M  V30 964 H 97.6965 4.52088 0.891811 0
M  V30 965 H 96.0115 4.05171 0.960503 0
M  V30 966 H 98.6085 3.82836 3.73283 0
M  V30 967 H 98.9515 2.12258 3.58123 0
M  V30 968 H 99.4845 3.24277 2.30411 0
M  V30 969 H 96.2235 6.22888 2.04184 0
M  V30 970 H 95.7435 5.03098 3.26577 0
M  V30 971 H 97.4225 5.62196 3.20225 0
M  V30 972 N 97.5546 -0.734337 1.39446 0
M  V30 973 C 98.5046 -1.83949 1.34709 0
M  V30 974 C 99.4886 -1.59279 0.227851 0
M  V30 975 O 100.681 -1.70771 0.465438 0
M  V30 976 C 97.8096 -3.21884 1.19356 0
M  V30 977 C 96.8956 -3.52381 2.35984 0
M  V30 978 N 97.2866 -3.53811 3.61457 0
M  V30 979 C 95.5846 -3.82747 2.28956 0
M  V30 980 C 96.2856 -3.82122 4.38586 0
M  V30 981 N 95.2616 -3.9993 3.68181 0
M  V30 982 H 99.0636 -1.83361 2.29687 0
M  V30 983 H 96.5776 -0.932609 1.32952 0
M  V30 984 H 98.5746 -4.00998 1.14046 0
M  V30 985 H 97.2346 -3.23711 0.253295 0
M  V30 986 H 98.2456 -3.35107 3.94872 0
M  V30 987 H 94.9226 -3.92175 1.43194 0
M  V30 988 H 96.3126 -3.89691 5.47349 0
M  V30 989 N 99.0327 -1.24633 -0.964593 0
M  V30 990 C 100.449 -1.01239 -1.2338 0
M  V30 991 C 100.649 0.2769 -1.99588 0
M  V30 992 O 99.7047 0.992241 -2.32187 0
M  V30 993 C 101.018 -2.22937 -2.01791 0
M  V30 994 C 102.566 -2.27594 -2.14872 0
M  V30 995 C 103.041 -3.48921 -2.96678 0
M  V30 996 N 104.532 -3.49257 -3.04259 0
M  V30 997 C 105.267 -4.39795 -3.67924 0
M  V30 998 N 104.763 -5.40591 -4.33281 0
M  V30 999 N 106.556 -4.275 -3.64966 0
M  V30 1000 H 98.7067 -2.0748 -0.454502 0
M  V30 1001 H 100.97 -0.910647 -0.26349 0
M  V30 1002 H 100.676 -3.16587 -1.53184 0
M  V30 1003 H 100.55 -2.25306 -3.02518 0
M  V30 1004 H 102.937 -1.34473 -2.6268 0
M  V30 1005 H 103.018 -2.2925 -1.13482 0
M  V30 1006 H 102.662 -4.42359 -2.49562 0
M  V30 1007 H 102.592 -3.4451 -3.98272 0
M  V30 1008 H 105.083 -2.76337 -2.57771 0
M  V30 1009 H 105.396 -6.05904 -4.79687 0
M  V30 1010 H 103.741 -5.44475 -4.3194 0
M  V30 1011 H 106.932 -3.47987 -3.13086 0
M  V30 1012 H 107.105 -4.98258 -4.14298 0
M  V30 1013 N 100.511 1.16574 -1.06058 0
M  V30 1014 C 101.474 2.19085 -0.673392 0
M  V30 1015 C 102.474 1.5835 0.279648 0
M  V30 1016 O 103.664 1.74088 0.0623488 0
M  V30 1017 C 100.796 3.40899 0.00954234 0
M  V30 1018 H 101.989 2.54853 -1.58081 0
M  V30 1019 H 99.5418 1.30808 -0.855516 0
M  V30 1020 H 100.277 3.10684 0.929826 0
M  V30 1021 H 100.062 3.86233 -0.67573 0
M  V30 1022 H 101.552 4.1675 0.266245 0
M  V30 1023 N 101.989 0.842826 1.3317 0
M  V30 1024 C 103.236 0.440447 1.97652 0
M  V30 1025 C 103.564 -1.00123 1.6675 0
M  V30 1026 O 102.819 -1.7155 0.941761 0
M  V30 1027 C 103.118 0.612607 3.52111 0
M  V30 1028 C 102.784 2.02297 4.02972 0
M  V30 1029 C 101.446 2.40874 4.16573 0
M  V30 1030 C 103.798 2.94402 4.30089 0
M  V30 1031 C 101.126 3.70852 4.54627 0
M  V30 1032 C 103.478 4.23865 4.69597 0
M  V30 1033 C 102.142 4.62392 4.81404 0
M  V30 1034 H 101.412 0.161171 0.72326 0
M  V30 1035 H 104.059 1.07061 1.58777 0
M  V30 1036 H 102.364 -0.100849 3.9167 0
M  V30 1037 H 104.061 0.2815 4.00011 0
M  V30 1038 H 100.651 1.71338 3.92863 0
M  V30 1039 H 104.835 2.65835 4.19101 0
M  V30 1040 H 100.091 4.00501 4.61962 0
M  V30 1041 H 104.265 4.95306 4.89536 0
M  V30 1042 H 101.892 5.63154 5.10648 0
M  V30 1043 N 103.467 -1.45747 0.599634 0
M  V30 1044 C 104.399 -2.28628 -0.161879 0
M  V30 1045 C 105.412 -1.39494 -0.839367 0
M  V30 1046 O 106.601 -1.63941 -0.706089 0
M  V30 1047 C 103.701 -3.15014 -1.24976 0
M  V30 1048 C 102.874 -4.32378 -0.660935 0
M  V30 1049 C 101.933 -5.00033 -1.63869 0
M  V30 1050 O 100.959 -5.57085 -1.1681 0
M  V30 1051 N 102.161 -4.98589 -2.97303 0
M  V30 1052 H 104.926 -2.94624 0.549265 0
M  V30 1053 H 102.487 -1.55847 0.438565 0
M  V30 1054 H 104.479 -3.5714 -1.9035 0
M  V30 1055 H 103.049 -2.5098 -1.86354 0
M  V30 1056 H 102.269 -3.9383 0.170688 0
M  V30 1057 H 103.557 -5.08197 -0.247619 0
M  V30 1058 H 102.955 -4.53514 -3.38145 0
M  V30 1059 H 101.512 -5.44603 -3.58121 0
M  V30 1060 N 104.945 -0.338344 -1.53925 0
M  V30 1061 C 106.17 0.263987 -2.05713 0
M  V30 1062 C 106.595 1.43847 -1.21201 0
M  V30 1063 O 105.953 1.79904 -0.224535 0
M  V30 1064 C 106.001 0.662 -3.54471 0
M  V30 1065 O 105.105 1.76265 -3.72833 0
M  V30 1066 H 104.446 0.0448722 -0.662482 0
M  V30 1067 H 106.976 -0.491048 -1.9862 0
M  V30 1068 H 106.986 0.940594 -3.9701 0
M  V30 1069 H 105.661 -0.196937 -4.15433 0
M  V30 1070 H 104.238 1.48173 -3.42198 0
M  V30 1071 N 106.423 1.57458 -0.0668435 0
M  V30 1072 C 107.353 2.15468 0.899764 0
M  V30 1073 C 108.334 1.08042 1.31381 0
M  V30 1074 O 109.519 1.36054 1.38574 0
M  V30 1075 C 106.649 2.71232 2.16911 0
M  V30 1076 C 105.603 3.83781 1.89463 0
M  V30 1077 C 104.929 4.26127 3.22986 0
M  V30 1078 C 106.229 5.08238 1.20381 0
M  V30 1079 H 107.923 2.96488 0.416529 0
M  V30 1080 H 105.469 1.4262 0.198908 0
M  V30 1081 H 107.422 3.10458 2.84945 0
M  V30 1082 H 106.146 1.87426 2.67468 0
M  V30 1083 H 104.805 3.45051 1.23836 0
M  V30 1084 H 104.453 3.39249 3.71374 0
M  V30 1085 H 104.153 5.01993 3.05413 0
M  V30 1086 H 105.677 4.67966 3.92225 0
M  V30 1087 H 107.091 5.44811 1.78475 0
M  V30 1088 H 105.488 5.89349 1.13083 0
M  V30 1089 H 106.558 4.84558 0.182153 0
M  V30 1090 N 107.901 -0.206675 1.56239 0
M  V30 1091 C 108.831 -1.25909 1.96645 0
M  V30 1092 C 109.812 -1.48097 0.836734 0
M  V30 1093 O 110.997 -1.6003 1.10019 0
M  V30 1094 C 108.127 -2.6058 2.29599 0
M  V30 1095 C 107.081 -2.53024 3.452 0
M  V30 1096 C 106.407 -3.91861 3.63798 0
M  V30 1097 C 107.707 -2.06524 4.79734 0
M  V30 1098 H 109.401 -0.923369 2.84806 0
M  V30 1099 H 106.947 -0.442735 1.37025 0
M  V30 1100 H 108.9 -3.34375 2.56459 0
M  V30 1101 H 107.624 -2.95869 1.38307 0
M  V30 1102 H 106.283 -1.81684 3.18412 0
M  V30 1103 H 105.931 -4.24483 2.69857 0
M  V30 1104 H 105.631 -3.87683 4.4156 0
M  V30 1105 H 107.155 -4.67296 3.93022 0
M  V30 1106 H 108.569 -2.70072 5.05702 0
M  V30 1107 H 106.966 -2.13374 5.60885 0
M  V30 1108 H 108.036 -1.01802 4.74093 0
M  V30 1109 N 109.379 -1.50304 -0.473955 0
M  V30 1110 C 110.607 -1.64902 -1.24959 0
M  V30 1111 C 111.022 -0.331198 -1.85872 0
M  V30 1112 O 110.379 0.68652 -1.69095 0
M  V30 1113 C 110.43 -2.73803 -2.36038 0
M  V30 1114 O 110.151 -4.00477 -1.77624 0
M  V30 1115 C 111.652 -2.99349 -3.26964 0
M  V30 1116 H 108.872 -0.554383 -0.378022 0
M  V30 1117 H 111.416 -1.9651 -0.566054 0
M  V30 1118 H 109.571 -2.44898 -3.00173 0
M  V30 1119 H 109.985 -4.60678 -2.5075 0
M  V30 1120 H 111.459 -3.79217 -4.01121 0
M  V30 1121 H 111.936 -2.10307 -3.85574 0
M  V30 1122 H 112.542 -3.29774 -2.68569 0
M  V30 1123 N 110.857 0.726932 -1.39834 0
M  V30 1124 C 111.767 1.87131 -1.41489 0
M  V30 1125 C 112.783 1.71239 -0.308757 0
M  V30 1126 O 113.959 1.93701 -0.551529 0
M  V30 1127 C 111.024 3.22811 -1.26468 0
M  V30 1128 C 110.085 3.51039 -2.47124 0
M  V30 1129 C 109.318 4.80245 -2.3281 0
M  V30 1130 O 109.541 5.54537 -1.33585 0
M  V30 1131 O 108.475 5.08554 -3.21957 0
M  V30 1132 H 112.301 1.8869 -2.3797 0
M  V30 1133 H 109.886 0.875837 -1.21035 0
M  V30 1134 H 111.768 4.03877 -1.20255 0
M  V30 1135 H 110.443 3.22005 -0.330862 0
M  V30 1136 H 109.35 2.70027 -2.58914 0
M  V30 1137 H 110.683 3.56632 -3.39227 0
M  V30 1138 N 112.336 1.25143 0.95797 0
M  V30 1139 C 113.582 1.09855 1.70469 0
M  V30 1140 C 113.915 -0.360187 1.90831 0
M  V30 1141 O 113.19 -1.26568 1.47685 0
M  V30 1142 C 113.473 1.8497 3.08963 0
M  V30 1143 C 113.326 3.38652 2.96032 0
M  V30 1144 C 114.645 1.63016 4.08795 0
M  V30 1145 H 111.764 0.400465 0.618706 0
M  V30 1146 H 114.406 1.53933 1.11376 0
M  V30 1147 H 112.556 1.47505 3.59409 0
M  V30 1148 H 114.228 3.85772 2.52938 0
M  V30 1149 H 112.471 3.66534 2.32025 0
M  V30 1150 H 113.142 3.8642 3.94187 0
M  V30 1151 H 115.618 1.95625 3.67247 0
M  V30 1152 H 114.494 2.18015 5.03747 0
M  V30 1153 H 114.755 0.570692 4.38401 0
M  V30 1154 N 113.814 -1.1601 1.06675 0
M  V30 1155 C 114.762 -2.22586 0.675157 0
M  V30 1156 C 115.756 -1.66525 -0.310766 0
M  V30 1157 O 116.962 -1.79145 -0.175215 0
M  V30 1158 H 113.337 -0.724855 0.200223 0
M  V30 1159 H 115.308 -2.52899 1.58381 0
M  V30 1160 C 114.057 -3.47604 0.0817162 0
M  V30 1161 H 113.38 -3.91058 0.831484 0
M  V30 1162 H 114.82 -4.23718 -0.154708 0
M  V30 1163 C 113.279 -3.15718 -1.17576 0
M  V30 1164 O 113.809 -3.31878 -2.26318 0
M  V30 1165 N 112.015 -2.69816 -1.07923 0
M  V30 1166 H 111.562 -2.56866 -0.194293 0
M  V30 1167 H 111.52 -2.48855 -1.92141 0
M  V30 1168 N 115.292 -0.849877 -1.32721 0
M  V30 1169 C 116.239 -0.289033 -2.28983 0
M  V30 1170 C 117.209 0.601324 -1.54833 0
M  V30 1171 O 118.394 0.537253 -1.8308 0
M  V30 1172 C 115.534 0.520623 -3.4115 0
M  V30 1173 C 114.647 -0.394989 -4.3019 0
M  V30 1174 C 113.782 0.426834 -5.29482 0
M  V30 1175 C 112.821 -0.486476 -6.10164 0
M  V30 1176 N 111.958 0.297879 -7.01468 0
M  V30 1177 H 116.798 -1.11519 -2.76347 0
M  V30 1178 H 114.335 -0.56138 -1.35967 0
M  V30 1179 H 116.293 1.00563 -4.04899 0
M  V30 1180 H 114.923 1.31165 -2.9495 0
M  V30 1181 H 113.975 -0.99836 -3.67065 0
M  V30 1182 H 115.287 -1.09612 -4.86607 0
M  V30 1183 H 114.441 0.975205 -5.98811 0
M  V30 1184 H 113.18 1.16136 -4.73671 0
M  V30 1185 H 112.185 -1.04677 -5.39743 0
M  V30 1186 H 113.41 -1.21953 -6.6806 0
M  V30 1187 H 111.356 1.01558 -6.48091 0
M  V30 1188 H 111.273 -0.344318 -7.55216 0
M  V30 1189 H 112.541 0.828131 -7.75089 0
M  V30 1190 N 116.77 1.45427 -0.607355 0
M  V30 1191 C 117.733 2.28974 0.101693 0
M  V30 1192 C 118.733 1.39754 0.795329 0
M  V30 1193 O 119.923 1.61878 0.643527 0
M  V30 1194 C 117.055 3.20768 1.15414 0
M  V30 1195 H 118.248 2.93147 -0.632844 0
M  V30 1196 H 115.801 1.51945 -0.366391 0
M  V30 1197 H 116.536 2.61395 1.91945 0
M  V30 1198 H 116.321 3.86489 0.66098 0
M  V30 1199 H 117.811 3.83589 1.65073 0
M  V30 1200 N 118.248 0.346503 1.53744 0
M  V30 1201 C 119.496 -0.248612 2.00565 0
M  V30 1202 C 119.817 -1.5083 1.23593 0
M  V30 1203 O 119.087 -1.92858 0.343912 0
M  V30 1204 H 117.667 -0.0948564 0.740953 0
M  V30 1205 H 120.329 0.468341 1.89189 0
M  V30 1206 H 119.425 -0.488994 3.08245 0
M  V30 1207 N 119.726 -1.57421 0.075193 0
M  V30 1208 C 120.954 -1.97946 -0.602076 0
M  V30 1209 C 121.369 -0.953674 -1.62943 0
M  V30 1210 O 120.726 0.0592551 -1.82404 0
M  V30 1211 C 120.777 -3.38546 -1.26762 0
M  V30 1212 O 120.498 -4.37195 -0.281376 0
M  V30 1213 C 121.999 -3.93966 -2.03239 0
M  V30 1214 H 119.219 -0.650918 -0.162931 0
M  V30 1215 H 121.763 -2.03959 0.148601 0
M  V30 1216 H 119.918 -3.33609 -1.96936 0
M  V30 1217 H 120.332 -5.18975 -0.759267 0
M  V30 1218 H 121.806 -4.94555 -2.45193 0
M  V30 1219 H 122.283 -3.30693 -2.8903 0
M  V30 1220 H 122.889 -4.02315 -1.37924 0
M  V30 1221 N 121.204 0.198386 -1.56346 0
M  V30 1222 C 122.136 1.26987 -1.90806 0
M  V30 1223 C 123.149 1.41877 -0.798419 0
M  V30 1224 O 124.338 1.42362 -1.07682 0
M  V30 1225 C 121.438 2.64246 -2.12196 0
M  V30 1226 C 120.611 2.71007 -3.43328 0
M  V30 1227 C 119.67 3.89439 -3.5387 0
M  V30 1228 O 118.696 3.76695 -4.26719 0
M  V30 1229 N 119.898 5.04752 -2.86715 0
M  V30 1230 H 122.663 0.977433 -2.83313 0
M  V30 1231 H 120.224 0.388322 -1.57174 0
M  V30 1232 H 122.216 3.41896 -2.1654 0
M  V30 1233 H 120.786 2.85992 -1.26204 0
M  V30 1234 H 120.006 1.79657 -3.50881 0
M  V30 1235 H 121.294 2.72512 -4.29668 0
M  V30 1236 H 120.692 5.18004 -2.2735 0
M  V30 1237 H 119.249 5.8036 -2.96691 0
M  V30 1238 N 122.682 1.50554 0.465978 0
M  V30 1239 C 123.912 1.65323 1.23903 0
M  V30 1240 C 124.32 0.338051 1.86155 0
M  V30 1241 O 123.663 -0.690518 1.70228 0
M  V30 1242 C 123.725 2.69048 2.3844 0
M  V30 1243 C 123.389 4.12462 1.96784 0
M  V30 1244 C 124.386 4.98168 1.48745 0
M  V30 1245 C 122.071 4.58407 2.05349 0
M  V30 1246 C 124.065 6.27868 1.0982 0
M  V30 1247 C 121.752 5.88112 1.66035 0
M  V30 1248 C 122.75 6.72668 1.18349 0
M  V30 1249 O 122.438 7.99951 0.795825 0
M  V30 1250 H 122.17 0.558629 0.38067 0
M  V30 1251 H 124.724 1.97561 0.562022 0
M  V30 1252 H 122.954 2.32062 3.09328 0
M  V30 1253 H 124.643 2.72985 3.0039 0
M  V30 1254 H 125.409 4.63885 1.41546 0
M  V30 1255 H 121.288 3.92735 2.41414 0
M  V30 1256 H 124.832 6.93819 0.725293 0
M  V30 1257 H 120.729 6.21914 1.72895 0
M  V30 1258 H 121.497 8.13265 0.924222 0
M  V30 1259 N 124.16 -0.719506 1.40217 0
M  V30 1260 C 125.09 -1.8465 1.42922 0
M  V30 1261 C 126.071 -1.67599 0.29062 0
M  V30 1262 O 127.256 -1.87688 0.498677 0
M  V30 1263 C 124.386 -3.22565 1.28722 0
M  V30 1264 C 123.34 -3.54281 2.40144 0
M  V30 1265 C 122.666 -4.91298 2.11023 0
M  V30 1266 C 123.966 -3.55676 3.82481 0
M  V30 1267 H 125.66 -1.82644 2.37237 0
M  V30 1268 H 123.206 -0.877305 1.1419 0
M  V30 1269 H 125.159 -4.01095 1.29232 0
M  V30 1270 H 123.883 -3.25137 0.308811 0
M  V30 1271 H 122.542 -2.78088 2.38877 0
M  V30 1272 H 122.19 -4.90468 1.11582 0
M  V30 1273 H 121.89 -5.13485 2.8567 0
M  V30 1274 H 123.414 -5.72166 2.13209 0
M  V30 1275 H 124.828 -4.24254 3.85592 0
M  V30 1276 H 123.225 -3.89388 4.56614 0
M  V30 1277 H 124.295 -2.55144 4.12346 0
M  V30 1278 N 125.638 -1.25649 -0.95132 0
M  V30 1279 C 126.568 -1.08808 -2.06599 0
M  V30 1280 C 127.549 0.00382547 -1.701 0
M  V30 1281 O 128.734 -0.166325 -1.93486 0
M  V30 1282 C 125.864 -0.709542 -3.39975 0
M  V30 1283 C 124.818 -1.75206 -3.90496 0
M  V30 1284 C 124.144 -1.22811 -5.20405 0
M  V30 1285 C 125.444 -3.15153 -4.16504 0
M  V30 1286 H 127.138 -2.02048 -2.20946 0
M  V30 1287 H 124.684 -0.972835 -1.06169 0
M  V30 1288 H 126.637 -0.578649 -4.17408 0
M  V30 1289 H 125.361 0.258556 -3.25575 0
M  V30 1290 H 124.02 -1.87145 -3.15234 0
M  V30 1291 H 123.668 -0.250145 -5.02378 0
M  V30 1292 H 123.368 -1.92492 -5.55176 0
M  V30 1293 H 124.892 -1.10968 -6.00432 0
M  V30 1294 H 126.306 -3.06349 -4.84586 0
M  V30 1295 H 124.703 -3.82333 -4.62538 0
M  V30 1296 H 125.773 -3.61966 -3.22658 0
M  V30 1297 N 127.117 1.15442 -1.07289 0
M  V30 1298 C 128.533 1.38201 -0.798288 0
M  V30 1299 C 128.733 1.92429 0.597769 0
M  V30 1300 O 127.789 2.12962 1.3566 0
M  V30 1301 C 129.102 2.35357 -1.87156 0
M  V30 1302 C 130.65 2.49021 -1.89624 0
M  V30 1303 C 131.125 3.49468 -2.96034 0
M  V30 1304 N 132.616 3.57003 -2.95132 0
M  V30 1305 C 133.351 4.34543 -3.74112 0
M  V30 1306 N 132.847 5.15421 -4.6294 0
M  V30 1307 N 134.64 4.29625 -3.62462 0
M  V30 1308 H 126.791 0.78584 -1.97328 0
M  V30 1309 H 129.054 0.408065 -0.855679 0
M  V30 1310 H 128.76 2.02626 -2.87464 0
M  V30 1311 H 128.634 3.35129 -1.73114 0
M  V30 1312 H 131.021 2.81051 -0.899687 0
M  V30 1313 H 131.102 1.4925 -2.07745 0
M  V30 1314 H 130.746 3.18173 -3.95889 0
M  V30 1315 H 130.676 4.48992 -2.75161 0
M  V30 1316 H 133.167 2.99276 -2.30743 0
M  V30 1317 H 133.48 5.7183 -5.19837 0
M  V30 1318 H 131.825 5.14729 -4.66989 0
M  V30 1319 H 135.016 3.65505 -2.92444 0
M  V30 1320 H 135.189 4.89807 -4.24256 0
M  V30 1321 N 128.595 0.856903 1.32268 0
M  V30 1322 C 129.823 0.475439 2.01363 0
M  V30 1323 C 130.238 -0.928486 1.64392 0
M  V30 1324 O 129.595 -1.60624 0.866387 0
M  V30 1325 C 129.646 0.607545 3.56358 0
M  V30 1326 O 129.367 1.95617 3.92002 0
M  V30 1327 C 130.868 0.225382 4.42727 0
M  V30 1328 H 128.088 0.186636 0.644521 0
M  V30 1329 H 130.632 1.15446 1.68797 0
M  V30 1330 H 128.787 -0.0237719 3.87393 0
M  V30 1331 H 129.201 1.95455 4.86721 0
M  V30 1332 H 130.675 0.368813 5.50767 0
M  V30 1333 H 131.152 -0.834369 4.31202 0
M  V30 1334 H 131.758 0.831864 4.17085 0
M  V30 1335 N 130.073 -1.45103 0.615059 0
M  V30 1336 C 131.036 -2.29025 -0.0895485 0
M  V30 1337 C 132.036 -1.40174 -0.787906 0
M  V30 1338 O 133.226 -1.62217 -0.634933 0
M  V30 1339 C 130.358 -3.21376 -1.13711 0
M  V30 1340 H 131.551 -2.92807 0.648382 0
M  V30 1341 H 129.104 -1.51749 0.374444 0
M  V30 1342 H 129.839 -2.6241 -1.90556 0
M  V30 1343 H 129.624 -3.86834 -0.640475 0
M  V30 1344 H 131.114 -3.84459 -1.63036 0
M  V30 1345 N 131.551 -0.354651 -1.53558 0
M  V30 1346 C 132.499 0.512195 -2.26891 0
M  V30 1347 C 133.493 1.09263 -1.29452 0
M  V30 1348 O 134.699 1.03709 -1.47121 0
M  V30 1349 H 131.074 0.183878 -0.729173 0
M  V30 1350 H 133.045 -0.128202 -2.98124 0
M  V30 1351 C 131.794 1.64563 -3.06291 0
M  V30 1352 H 131.117 1.20829 -3.81104 0
M  V30 1353 H 132.557 2.22711 -3.60799 0
M  V30 1354 C 131.016 2.58158 -2.16462 0
M  V30 1355 O 131.546 3.60695 -1.76811 0
M  V30 1356 N 129.752 2.27096 -1.81317 0
M  V30 1357 H 129.299 1.43751 -2.1376 0
M  V30 1358 H 129.257 2.89975 -1.21498 0
M  V30 1359 N 133.029 1.57378 -0.0835403 0
M  V30 1360 C 134.445 1.57246 0.273109 0
M  V30 1361 C 134.645 1.09385 1.69225 0
M  V30 1362 O 133.701 0.765051 2.40631 0
M  V30 1363 C 135.014 3.00614 0.0720628 0
M  V30 1364 C 136.562 3.12684 0.1407 0
M  V30 1365 C 137.037 4.57989 -0.0322094 0
M  V30 1366 N 138.528 4.63194 0.0230085 0
M  V30 1367 C 139.263 5.73335 -0.0861941 0
M  V30 1368 N 138.759 6.9235 -0.24958 0
M  V30 1369 N 140.552 5.62093 -0.0282886 0
M  V30 1370 H 132.703 1.86801 -1.0109 0
M  V30 1371 H 134.966 0.861687 -0.395222 0
M  V30 1372 H 134.672 3.39786 -0.907662 0
M  V30 1373 H 134.546 3.68193 0.81936 0
M  V30 1374 H 136.933 2.73391 1.11092 0
M  V30 1375 H 137.014 2.47719 -0.637896 0
M  V30 1376 H 136.658 4.97973 -0.999247 0
M  V30 1377 H 136.588 5.21 0.765937 0
M  V30 1378 H 139.079 3.77613 0.14722 0
M  V30 1379 H 139.392 7.72117 -0.324733 0
M  V30 1380 H 137.737 6.94415 -0.285097 0
M  V30 1381 H 140.928 4.67997 0.0981408 0
M  V30 1382 H 141.101 6.47895 -0.116845 0
M  V30 1383 N 134.507 -0.190092 1.56449 0
M  V30 1384 C 135.437 -1.23816 1.97969 0
M  V30 1385 C 136.418 -1.47201 0.852395 0
M  V30 1386 O 137.603 -1.58854 1.1171 0
M  V30 1387 C 134.733 -2.5813 2.3235 0
M  V30 1388 C 133.687 -2.49348 3.47864 0
M  V30 1389 C 133.013 -3.8798 3.67934 0
M  V30 1390 C 134.313 -2.01424 4.81898 0
M  V30 1391 H 136.007 -0.89311 2.85769 0
M  V30 1392 H 133.553 -0.428177 1.37487 0
M  V30 1393 H 135.506 -3.31637 2.59991 0
M  V30 1394 H 134.23 -2.94386 1.41438 0
M  V30 1395 H 132.889 -1.78297 3.20321 0
M  V30 1396 H 132.537 -4.21597 2.74344 0
M  V30 1397 H 132.237 -3.82978 4.45648 0
M  V30 1398 H 133.761 -4.63101 3.97957 0
M  V30 1399 H 135.175 -2.64693 5.08538 0
M  V30 1400 H 133.572 -2.07413 5.63116 0
M  V30 1401 H 134.642 -0.967677 4.75146 0
M  V30 1402 N 135.985 -1.50799 -0.457987 0
M  V30 1403 C 137.232 -1.62442 -1.20908 0
M  V30 1404 C 137.56 -0.330865 -1.91665 0
M  V30 1405 O 136.815 0.68401 -1.83357 0
M  V30 1406 C 137.114 -2.76358 -2.2663 0
M  V30 1407 C 136.78 -4.16378 -1.73033 0
M  V30 1408 C 135.442 -4.54473 -1.58138 0
M  V30 1409 C 137.794 -5.03836 -1.33413 0
M  V30 1410 C 135.122 -5.77754 -1.02065 0
M  V30 1411 C 137.474 -6.27676 -0.78778 0
M  V30 1412 C 136.138 -6.64562 -0.625561 0
M  V30 1413 H 135.408 -0.594417 -0.442435 0
M  V30 1414 H 138.055 -1.84772 -0.503136 0
M  V30 1415 H 136.36 -2.48167 -3.03184 0
M  V30 1416 H 138.057 -2.82568 -2.84528 0
M  V30 1417 H 134.647 -3.86331 -1.85598 0
M  V30 1418 H 138.831 -4.75026 -1.4375 0
M  V30 1419 H 134.087 -6.04997 -0.882547 0
M  V30 1420 H 138.261 -6.94797 -0.472177 0
M  V30 1421 H 135.888 -7.59965 -0.188926 0
M  V30 1422 N 137.463 0.71206 -1.40597 0
M  V30 1423 C 138.711 1.46907 -1.38791 0
M  V30 1424 C 139.032 1.94998 0.00780391 0
M  V30 1425 O 138.302 1.70587 0.963174 0
M  V30 1426 H 136.882 0.545043 -0.51082 0
M  V30 1427 H 139.544 0.843882 -1.75683 0
M  V30 1428 H 138.64 2.34021 -2.06496 0
M  V30 1429 N 138.941 1.26152 0.944643 0
M  V30 1430 C 139.851 1.09176 2.07648 0
M  V30 1431 C 140.867 0.0261935 1.7398 0
M  V30 1432 O 142.043 0.229208 2.00091 0
M  V30 1433 C 139.108 0.722915 3.39079 0
M  V30 1434 C 138.169 1.86752 3.86552 0
M  V30 1435 C 137.402 1.51617 5.11711 0
M  V30 1436 O 137.625 0.416331 5.68879 0
M  V30 1437 O 136.559 2.34975 5.54139 0
M  V30 1438 H 140.385 2.0412 2.24875 0
M  V30 1439 H 137.97 1.05182 1.061 0
M  V30 1440 H 139.852 0.529787 4.18056 0
M  V30 1441 H 138.527 -0.197159 3.23099 0
M  V30 1442 H 137.434 2.11558 3.08535 0
M  V30 1443 H 138.767 2.76719 4.07047 0
M  V30 1444 N 140.419 -1.14872 1.07899 0
M  V30 1445 C 141.366 -2.19791 0.704319 0
M  V30 1446 C 142.336 -1.63238 -0.306987 0
M  V30 1447 O 143.521 -1.8983 -0.192171 0
M  V30 1448 C 140.661 -3.44911 0.114244 0
M  V30 1449 C 139.774 -4.15637 1.1777 0
M  V30 1450 C 138.909 -5.28324 0.552037 0
M  V30 1451 C 137.948 -5.90875 1.59789 0
M  V30 1452 N 137.085 -6.95022 0.994404 0
M  V30 1453 H 141.925 -2.5119 1.60336 0
M  V30 1454 H 139.462 -1.23356 0.801352 0
M  V30 1455 H 141.42 -4.16477 -0.245544 0
M  V30 1456 H 140.05 -3.14011 -0.74813 0
M  V30 1457 H 139.102 -3.42512 1.65499 0
M  V30 1458 H 140.414 -4.5823 1.97046 0
M  V30 1459 H 139.568 -6.06538 0.1402 0
M  V30 1460 H 138.307 -4.86939 -0.272431 0
M  V30 1461 H 137.312 -5.11369 2.01945 0
M  V30 1462 H 138.537 -6.34337 2.42474 0
M  V30 1463 H 136.483 -6.55722 0.190939 0
M  V30 1464 H 136.4 -7.36073 1.72432 0
M  V30 1465 H 137.668 -7.77123 0.608253 0
M  V30 1466 N 141.898 -0.863906 -1.31812 0
M  V30 1467 C 143.126 -0.486111 -2.01108 0
M  V30 1468 C 143.541 0.919755 -1.64882 0
M  V30 1469 O 142.898 1.60162 -0.874893 0
M  V30 1470 C 142.949 -0.626435 -3.56031 0
M  V30 1471 O 142.67 -1.97693 -3.90959 0
M  V30 1472 C 144.171 -0.248857 -4.42601 0
M  V30 1473 H 141.391 -0.190052 -0.643523 0
M  V30 1474 H 143.935 -1.1634 -1.68182 0
M  V30 1475 H 142.09 0.00322717 -3.874 0
M  V30 1476 H 142.504 -1.98034 -4.85678 0
M  V30 1477 H 143.978 -0.398016 -5.50563 0
M  V30 1478 H 144.455 0.811489 -4.31638 0
M  V30 1479 H 145.061 -0.853971 -4.16638 0
M  V30 1480 N 143.376 1.44774 -0.622745 0
M  V30 1481 C 144.616 2.04004 -0.127102 0
M  V30 1482 C 144.98 1.47862 1.22478 0
M  V30 1483 O 146.181 1.98541 1.81204 0
M  V30 1484 C 144.452 3.57247 -0.104429 0
M  V30 1485 S 146.011 4.37574 0.327814 0
M  V30 1486 H 142.829 0.708713 -0.0569776 0
M  V30 1487 H 145.431 1.77275 -0.824253 0
M  V30 1488 H 144.135 3.95616 -1.09159 0
M  V30 1489 H 143.666 3.88575 0.614236 0
M  V30 1490 H 145.681 4.70575 1.57395 0
M  V30 1491 N 144.854 0.36279 1.53368 0
M  V30 1492 C 145.786 -0.519668 2.23231 0
M  V30 1493 C 146.799 -1.04844 1.24546 0
M  V30 1494 O 147.988 -0.955296 1.50786 0
M  V30 1495 C 145.088 -1.72995 2.9142 0
M  V30 1496 C 144.261 -1.33316 4.16588 0
M  V30 1497 C 143.32 -2.40521 4.68013 0
M  V30 1498 O 142.346 -2.03027 5.3176 0
M  V30 1499 N 143.548 -3.72065 4.45587 0
M  V30 1500 H 146.313 0.078751 2.99597 0
M  V30 1501 H 143.874 0.187833 1.60807 0
M  V30 1502 H 145.866 -2.44184 3.22733 0
M  V30 1503 H 144.436 -2.2353 2.18525 0
M  V30 1504 H 143.656 -0.451236 3.91609 0
M  V30 1505 H 144.944 -1.04432 4.97967 0
M  V30 1506 H 144.342 -4.05304 3.94646 0
M  V30 1507 H 142.899 -4.39366 4.81457 0
M  V30 1508 N 146.332 -1.57332 0.0918853 0
M  V30 1509 C 147.579 -1.94236 -0.572577 0
M  V30 1510 C 147.907 -0.973398 -1.6839 0
M  V30 1511 O 147.162 0.00756912 -1.95699 0
M  V30 1512 C 147.461 -3.37689 -1.17051 0
M  V30 1513 C 147.127 -4.50527 -0.183304 0
M  V30 1514 C 145.789 -4.81119 0.0882276 0
M  V30 1515 C 148.141 -5.18883 0.49095 0
M  V30 1516 C 145.469 -5.77395 1.04076 0
M  V30 1517 C 147.821 -6.1618 1.43193 0
M  V30 1518 C 146.485 -6.45179 1.71173 0
M  V30 1519 H 145.755 -0.710762 -0.209521 0
M  V30 1520 H 148.402 -1.9077 0.167036 0
M  V30 1521 H 146.707 -3.37718 -1.9863 0
M  V30 1522 H 148.404 -3.63543 -1.69227 0
M  V30 1523 H 144.994 -4.26681 -0.405124 0
M  V30 1524 H 149.178 -4.95427 0.294312 0
M  V30 1525 H 144.434 -5.98179 1.26457 0
M  V30 1526 H 148.608 -6.68243 1.96023 0
M  V30 1527 H 146.235 -7.1959 2.4514 0
M  V30 1528 N 147.81 0.181792 -1.56548 0
M  V30 1529 C 148.74 1.22765 -1.98623 0
M  V30 1530 C 149.721 1.46747 -0.860189 0
M  V30 1531 O 150.906 1.58259 -1.12551 0
M  V30 1532 C 148.036 2.56894 -2.33715 0
M  V30 1533 C 146.99 2.475 -3.49182 0
M  V30 1534 C 146.316 3.86023 -3.69986 0
M  V30 1535 C 147.616 1.98866 -4.82959 0
M  V30 1536 H 149.31 0.877942 -2.86239 0
M  V30 1537 H 146.856 0.42088 -1.37712 0
M  V30 1538 H 148.809 3.30253 -2.61746 0
M  V30 1539 H 147.533 2.93632 -1.42997 0
M  V30 1540 H 146.192 1.76596 -3.21262 0
M  V30 1541 H 145.84 4.20136 -2.76576 0
M  V30 1542 H 145.54 3.80609 -4.47672 0
M  V30 1543 H 147.064 4.60984 -4.00407 0
M  V30 1544 H 148.478 2.61992 -5.09934 0
M  V30 1545 H 146.875 2.04424 -5.64208 0
M  V30 1546 H 147.945 0.942465 -4.75653 0
M  V30 1547 N 149.288 1.51039 0.449983 0
M  V30 1548 C 150.513 1.6715 1.22783 0
M  V30 1549 C 150.938 0.363081 1.84563 0
M  V30 1550 O 150.296 -0.675433 1.68249 0
M  V30 1551 C 150.344 2.77985 2.29689 0
M  V30 1552 O 149.448 2.40707 3.34864 0
M  V30 1553 H 148.789 0.557746 0.360299 0
M  V30 1554 H 151.319 1.97535 0.533005 0
M  V30 1555 H 151.329 3.01693 2.74673 0
M  V30 1556 H 150.004 3.72935 1.84098 0
M  V30 1557 H 148.581 2.27523 2.95445 0
M  V30 1558 N 150.766 -0.704594 1.40972 0
M  V30 1559 C 151.994 -1.49354 1.43182 0
M  V30 1560 C 152.409 -1.88768 0.0345508 0
M  V30 1561 O 151.766 -1.56184 -0.944081 0
M  V30 1562 C 151.817 -2.76187 2.33244 0
M  V30 1563 O 151.538 -2.38436 3.67532 0
M  V30 1564 C 153.039 -3.7 2.44162 0
M  V30 1565 H 150.259 -0.460559 0.487982 0
M  V30 1566 H 152.803 -0.868261 1.85153 0
M  V30 1567 H 150.958 -3.34974 1.94606 0
M  V30 1568 H 151.372 -3.20126 4.15475 0
M  V30 1569 H 152.846 -4.55803 3.11364 0
M  V30 1570 H 153.323 -4.13867 1.47006 0
M  V30 1571 H 153.929 -3.17121 2.83398 0
M  V30 1572 N 152.244 -1.26651 -0.937939 0
M  V30 1573 C 153.491 -1.12387 -1.6845 0
M  V30 1574 C 153.819 0.332208 -1.91642 0
M  V30 1575 O 153.074 1.2602 -1.49725 0
M  V30 1576 C 153.373 -1.84168 -3.06295 0
M  V30 1577 C 153.039 -3.34056 -3.02849 0
M  V30 1578 C 151.701 -3.74942 -3.01616 0
M  V30 1579 C 154.053 -4.29741 -2.9491 0
M  V30 1580 C 151.381 -5.09894 -2.90215 0
M  V30 1581 C 153.733 -5.64738 -2.8505 0
M  V30 1582 C 152.397 -6.0493 -2.82162 0
M  V30 1583 H 151.667 -0.411252 -0.616403 0
M  V30 1584 H 154.314 -1.57134 -1.09459 0
M  V30 1585 H 152.619 -1.319 -3.6893 0
M  V30 1586 H 154.316 -1.70569 -3.62915 0
M  V30 1587 H 150.906 -3.01534 -3.0459 0
M  V30 1588 H 155.09 -3.99133 -2.94969 0
M  V30 1589 H 150.346 -5.40194 -2.86358 0
M  V30 1590 H 154.52 -6.38561 -2.77872 0
M  V30 1591 H 152.147 -7.09457 -2.73084 0
M  V30 1592 N 153.722 1.14298 -1.08507 0
M  V30 1593 C 154.669 2.19414 -0.715965 0
M  V30 1594 C 155.639 1.63399 0.298326 0
M  V30 1595 O 156.824 1.89929 0.182101 0
M  V30 1596 C 153.964 3.44845 -0.132534 0
M  V30 1597 C 153.077 4.15007 -1.19973 0
M  V30 1598 C 152.212 5.28024 -0.580048 0
M  V30 1599 C 151.251 5.9002 -1.62921 0
M  V30 1600 N 150.388 6.94485 -1.03125 0
M  V30 1601 H 155.228 2.50336 -1.61666 0
M  V30 1602 H 152.765 1.2293 -0.807882 0
M  V30 1603 H 154.723 4.16601 0.223454 0
M  V30 1604 H 153.353 3.14403 0.731467 0
M  V30 1605 H 152.405 3.41629 -1.67313 0
M  V30 1606 H 153.717 4.57178 -1.99473 0
M  V30 1607 H 152.871 6.06455 -0.172364 0
M  V30 1608 H 151.61 4.87076 0.246603 0
M  V30 1609 H 150.615 5.10291 -2.04654 0
M  V30 1610 H 151.84 6.33042 -2.45835 0
M  V30 1611 H 149.786 6.55612 -0.225711 0
M  V30 1612 H 149.703 7.35148 -1.76334 0
M  V30 1613 H 150.971 7.7679 -0.649458 0
M  V30 1614 N 155.201 0.870884 1.31352 0
M  V30 1615 C 156.111 0.330783 2.32256 0
M  V30 1616 C 157.127 -0.559767 1.6475 0
M  V30 1617 O 158.303 -0.456263 1.96164 0
M  V30 1618 C 155.368 -0.458137 3.4366 0
M  V30 1619 C 154.429 0.460482 4.26823 0
M  V30 1620 C 153.662 -0.290881 5.32907 0
M  V30 1621 O 153.885 -1.51885 5.49806 0
M  V30 1622 O 152.819 0.351732 6.00871 0
M  V30 1623 H 156.645 1.16718 2.80376 0
M  V30 1624 H 154.23 0.634285 1.35267 0
M  V30 1625 H 156.112 -0.905343 4.1156 0
M  V30 1626 H 154.787 -1.27106 2.97701 0
M  V30 1627 H 153.694 0.956207 3.61673 0
M  V30 1628 H 155.027 1.23903 4.7635 0
M  V30 1629 N 156.679 -1.44442 0.630414 0
M  V30 1630 C 157.904 -2.06927 0.139944 0
M  V30 1631 C 158.329 -1.46795 -1.17613 0
M  V30 1632 O 157.687 -0.569144 -1.72135 0
M  V30 1633 C 157.735 -3.6058 0.0379581 0
M  V30 1634 O 156.839 -3.99937 -1.0062 0
M  V30 1635 H 156.18 -0.658608 0.0844483 0
M  V30 1636 H 158.71 -1.85327 0.866891 0
M  V30 1637 H 158.72 -4.07714 -0.152856 0
M  V30 1638 H 157.395 -4.03728 0.998809 0
M  V30 1639 H 155.972 -3.64436 -0.79001 0
M  V30 1640 N 158.157 -0.370918 -1.53173 0
M  V30 1641 C 159.397 0.217106 -2.03244 0
M  V30 1642 C 159.761 1.45558 -1.25207 0
M  V30 1643 O 160.962 2.11957 -1.65311 0
M  V30 1644 C 159.233 0.496664 -3.53932 0
M  V30 1645 S 160.792 1.0576 -4.25864 0
M  V30 1646 H 157.61 0.0627827 -0.708223 0
M  V30 1647 H 160.212 -0.515019 -1.88594 0
M  V30 1648 H 158.916 -0.412096 -4.08326 0
M  V30 1649 H 158.447 1.25772 -3.72753 0
M  V30 1650 H 160.462 2.34145 -4.37482 0
M  V30 1651 N 159.635 1.57281 -0.100228 0
M  V30 1652 C 160.565 2.17328 0.853857 0
M  V30 1653 C 161.546 1.10804 1.2906 0
M  V30 1654 O 162.731 1.38963 1.35657 0
M  V30 1655 C 159.861 2.75772 2.11109 0
M  V30 1656 C 158.815 3.87713 1.81279 0
M  V30 1657 C 158.141 4.32882 3.13874 0
M  V30 1658 C 159.441 5.10677 1.09574 0
M  V30 1659 H 161.135 2.97305 0.353545 0
M  V30 1660 H 158.681 1.43009 0.168612 0
M  V30 1661 H 160.634 3.16433 2.78296 0
M  V30 1662 H 159.358 1.93057 2.63432 0
M  V30 1663 H 158.017 3.476 1.16489 0
M  V30 1664 H 157.665 3.47051 3.64095 0
M  V30 1665 H 157.365 5.08358 2.94696 0
M  V30 1666 H 158.889 4.7618 3.82211 0
M  V30 1667 H 160.303 5.48474 1.66879 0
M  V30 1668 H 158.7 5.91615 1.00557 0
M  V30 1669 H 159.77 4.84835 0.0793299 0
M  V30 1670 N 161.113 -0.173488 1.56642 0
M  V30 1671 C 162.045 -1.23935 1.92802 0
M  V30 1672 C 163.058 -1.40589 0.820889 0
M  V30 1673 O 164.247 -1.40631 1.09933 0
M  V30 1674 C 161.347 -2.60837 2.16373 0
M  V30 1675 C 160.52 -2.6551 3.47596 0
M  V30 1676 C 159.579 -3.8376 3.60021 0
M  V30 1677 O 158.605 -3.69859 4.32658 0
M  V30 1678 N 159.807 -5.00127 2.94709 0
M  V30 1679 H 162.572 -0.932236 2.84832 0
M  V30 1680 H 160.133 -0.363268 1.57772 0
M  V30 1681 H 162.125 -3.38407 2.21952 0
M  V30 1682 H 160.695 -2.83948 1.30738 0
M  V30 1683 H 159.915 -1.74052 3.53694 0
M  V30 1684 H 161.203 -2.65641 4.33949 0
M  V30 1685 H 160.601 -5.14322 2.35563 0
M  V30 1686 H 159.158 -5.75567 3.05886 0
M  V30 1687 N 162.591 -1.51276 -0.441967 0
M  V30 1688 C 163.838 -1.63715 -1.19179 0
M  V30 1689 C 164.166 -0.351175 -1.91303 0
M  V30 1690 O 163.421 0.664524 -1.84072 0
M  V30 1691 C 163.72 -2.78746 -2.23686 0
M  V30 1692 C 163.386 -4.18189 -1.68607 0
M  V30 1693 C 162.048 -4.56125 -1.53308 0
M  V30 1694 C 164.4 -5.05222 -1.28062 0
M  V30 1695 C 161.728 -5.78804 -0.959317 0
M  V30 1696 C 164.08 -6.28476 -0.721162 0
M  V30 1697 C 162.744 -6.65188 -0.55504 0
M  V30 1698 H 162.014 -0.599076 -0.436106 0
M  V30 1699 H 164.661 -1.85296 -0.48351 0
M  V30 1700 H 162.966 -2.51369 -3.00535 0
M  V30 1701 H 164.663 -2.8557 -2.81515 0
M  V30 1702 H 161.253 -3.88277 -1.8149 0
M  V30 1703 H 165.437 -4.76524 -1.38704 0
M  V30 1704 H 160.693 -6.05899 -0.81833 0
M  V30 1705 H 164.867 -6.95259 -0.398458 0
M  V30 1706 H 162.494 -7.60123 -0.108311 0
M  V30 1707 N 164.069 0.697108 -1.41344 0
M  V30 1708 C 165.299 1.48377 -1.43763 0
M  V30 1709 C 165.707 1.89156 -0.0408726 0
M  V30 1710 O 165.05 1.57239 0.949812 0
M  V30 1711 C 165.112 2.7781 -2.2817 0
M  V30 1712 C 164.776 2.59244 -3.76353 0
M  V30 1713 C 165.773 2.25292 -4.68551 0
M  V30 1714 C 163.458 2.74933 -4.20378 0
M  V30 1715 C 165.452 2.07264 -6.02761 0
M  V30 1716 C 163.139 2.56521 -5.54653 0
M  V30 1717 C 164.137 2.22737 -6.4566 0
M  V30 1718 O 163.825 2.04485 -7.77458 0
M  V30 1719 H 163.557 0.463842 -0.491759 0
M  V30 1720 H 166.111 0.865934 -1.86255 0
M  V30 1721 H 164.341 3.41995 -1.8049 0
M  V30 1722 H 166.03 3.39608 -2.22309 0
M  V30 1723 H 166.796 2.12787 -4.35829 0
M  V30 1724 H 162.675 3.00213 -3.49848 0
M  V30 1725 H 166.219 1.80817 -6.73759 0
M  V30 1726 H 162.116 2.68616 -5.86955 0
M  V30 1727 H 162.884 2.1926 -7.88586 0
M  V30 1728 N 165.547 1.27147 0.931209 0
M  V30 1729 C 166.497 1.06227 2.01742 0
M  V30 1730 C 167.481 -0.00859065 1.60898 0
M  V30 1731 O 168.673 0.209537 1.75755 0
M  V30 1732 C 165.802 0.707787 3.35924 0
M  V30 1733 C 164.888 1.81661 3.83223 0
M  V30 1734 N 165.279 3.05564 4.03069 0
M  V30 1735 C 163.577 1.70249 4.12227 0
M  V30 1736 C 164.278 3.77697 4.42403 0
M  V30 1737 N 163.254 3.0544 4.49675 0
M  V30 1738 H 167.056 2.00261 2.15111 0
M  V30 1739 H 164.57 1.1781 1.11779 0
M  V30 1740 H 166.567 0.539043 4.134 0
M  V30 1741 H 165.227 -0.224964 3.2392 0
M  V30 1742 H 166.238 3.41363 3.89476 0
M  V30 1743 H 162.915 0.840329 4.08956 0
M  V30 1744 H 164.305 4.84168 4.65866 0
M  V30 1745 N 167.025 -1.13721 1.09112 0
M  V30 1746 C 167.988 -2.17222 0.731241 0
M  V30 1747 C 168.988 -1.59035 -0.237566 0
M  V30 1748 O 170.178 -1.74192 -0.0161704 0
M  V30 1749 C 167.31 -3.40804 0.0808443 0
M  V30 1750 H 168.503 -2.50573 1.64783 0
M  V30 1751 H 166.056 -1.28493 0.889897 0
M  V30 1752 H 166.791 -3.1304 -0.847127 0
M  V30 1753 H 166.576 -3.84306 0.777896 0
M  V30 1754 H 168.066 -4.1731 -0.155657 0
M  V30 1755 N 168.503 -0.877838 -1.30888 0
M  V30 1756 C 169.413 -0.343096 -2.32078 0
M  V30 1757 C 170.429 0.551022 -1.65045 0
M  V30 1758 O 171.605 0.445854 -1.96403 0
M  V30 1759 C 168.67 0.439905 -3.43898 0
M  V30 1760 C 167.731 -0.483111 -4.26573 0
M  V30 1761 C 166.964 0.262616 -5.33053 0
M  V30 1762 O 167.187 1.48967 -5.50604 0
M  V30 1763 O 166.121 -0.383593 -6.00676 0
M  V30 1764 H 169.947 -1.18203 -2.79753 0
M  V30 1765 H 167.532 -0.64145 -1.34929 0
M  V30 1766 H 169.414 0.883504 -4.12034 0
M  V30 1767 H 168.089 1.25526 -2.98371 0
M  V30 1768 H 166.996 -0.975374 -3.61161 0
M  V30 1769 H 168.329 -1.26427 -4.75686 0
M  V30 1770 N 169.982 1.44106 -0.638065 0
M  V30 1771 C 170.912 2.33448 0.0494287 0
M  V30 1772 C 171.893 1.48606 0.827672 0
M  V30 1773 O 173.078 1.77308 0.792173 0
M  V30 1774 C 170.208 3.31771 1.02691 0
M  V30 1775 C 169.162 4.26485 0.359823 0
M  V30 1776 C 168.488 5.14729 1.44769 0
M  V30 1777 C 169.788 5.17056 -0.738296 0
M  V30 1778 H 171.482 2.91183 -0.696636 0
M  V30 1779 H 169.028 1.40014 -0.336456 0
M  V30 1780 H 170.981 3.93161 1.51666 0
M  V30 1781 H 169.705 2.7226 1.80395 0
M  V30 1782 H 168.364 3.66437 -0.10934 0
M  V30 1783 H 168.012 4.51566 2.21578 0
M  V30 1784 H 167.712 5.78913 1.00668 0
M  V30 1785 H 169.236 5.78991 1.93911 0
M  V30 1786 H 170.65 5.72342 -0.331354 0
M  V30 1787 H 169.047 5.89879 -1.10286 0
M  V30 1788 H 170.117 4.57652 -1.60258 0
M  V30 1789 N 171.46 0.379036 1.52974 0
M  V30 1790 C 172.407 -0.461048 2.26148 0
M  V30 1791 C 173.377 -1.06637 1.27349 0
M  V30 1792 O 174.562 -1.09633 1.56157 0
M  V30 1793 C 171.702 -1.58782 3.06402 0
M  V30 1794 C 170.815 -1.00636 4.20115 0
M  V30 1795 C 169.95 -2.10334 4.87784 0
M  V30 1796 C 168.989 -1.49724 5.93506 0
M  V30 1797 N 168.126 -2.5331 6.54812 0
M  V30 1798 H 172.966 0.169429 2.97518 0
M  V30 1799 H 170.503 0.0953806 1.4679 0
M  V30 1800 H 172.461 -2.25174 3.51215 0
M  V30 1801 H 171.091 -2.18876 2.37261 0
M  V30 1802 H 170.143 -0.232332 3.7969 0
M  V30 1803 H 171.455 -0.523343 4.96047 0
M  V30 1804 H 170.609 -2.84519 5.35849 0
M  V30 1805 H 169.348 -2.61992 4.11353 0
M  V30 1806 H 168.353 -0.740598 5.44789 0
M  V30 1807 H 169.578 -0.988732 6.71864 0
M  V30 1808 H 167.524 -3.04156 5.81227 0
M  V30 1809 H 167.441 -2.09734 7.26325 0
M  V30 1810 H 168.709 -3.27155 7.07524 0
M  V30 1811 N 172.938 -1.57226 0.108567 0
M  V30 1812 C 173.848 -2.18292 -0.859401 0
M  V30 1813 C 174.864 -1.15612 -1.30038 0
M  V30 1814 O 176.04 -1.48039 -1.36552 0
M  V30 1815 C 173.105 -2.762 -2.09558 0
M  V30 1816 C 172.166 -3.93881 -1.70752 0
M  V30 1817 C 171.399 -4.49018 -2.88477 0
M  V30 1818 O 171.622 -4.03068 -4.036 0
M  V30 1819 O 170.556 -5.39852 -2.66164 0
M  V30 1820 H 174.382 -3.01441 -0.369769 0
M  V30 1821 H 171.967 -1.48945 -0.1165 0
M  V30 1822 H 173.849 -3.13156 -2.81978 0
M  V30 1823 H 172.524 -1.96089 -2.57548 0
M  V30 1824 H 171.431 -3.61713 -0.954714 0
M  V30 1825 H 172.764 -4.75396 -1.27513 0
M  V30 1826 N 174.416 0.165178 -1.56732 0
M  V30 1827 C 175.346 1.20651 -1.99914 0
M  V30 1828 C 176.327 1.45827 -0.875705 0
M  V30 1829 O 177.512 1.57057 -1.14223 0
M  V30 1830 C 174.642 2.54401 -2.36427 0
M  V30 1831 C 173.596 2.43782 -3.51787 0
M  V30 1832 C 172.922 3.82078 -3.7406 0
M  V30 1833 C 174.222 1.93732 -4.85041 0
M  V30 1834 H 175.916 0.847534 -2.87154 0
M  V30 1835 H 173.462 0.40625 -1.38151 0
M  V30 1836 H 175.415 3.27458 -2.65234 0
M  V30 1837 H 174.139 2.92098 -1.46103 0
M  V30 1838 H 172.798 1.73178 -3.23117 0
M  V30 1839 H 172.446 4.17179 -2.81017 0
M  V30 1840 H 172.146 3.7584 -4.51684 0
M  V30 1841 H 173.67 4.56712 -4.05274 0
M  V30 1842 H 175.084 2.56569 -5.12684 0
M  V30 1843 H 173.481 1.98428 -5.66345 0
M  V30 1844 H 174.551 0.891962 -4.76626 0
M  V30 1845 N 175.894 1.51508 0.433938 0
M  V30 1846 C 177.119 1.68443 1.21003 0
M  V30 1847 C 177.544 0.382636 1.84167 0
M  V30 1848 O 176.902 -0.65755 1.68956 0
M  V30 1849 C 176.95 2.80405 2.26727 0
M  V30 1850 O 176.054 2.44245 3.32292 0
M  V30 1851 H 175.395 0.561536 0.354363 0
M  V30 1852 H 177.925 1.9809 0.512024 0
M  V30 1853 H 177.935 3.0459 2.71457 0
M  V30 1854 H 176.61 3.74867 1.80132 0
M  V30 1855 H 175.187 2.30644 2.93015 0
M  V30 1856 N 177.372 -0.689602 1.41712 0
M  V30 1857 C 178.619 -1.44966 1.4139 0
M  V30 1858 C 178.947 -1.94484 0.025105 0
M  V30 1859 O 178.202 -1.70307 -0.964048 0
M  V30 1860 C 178.501 -2.67298 2.37247 0
M  V30 1861 C 178.167 -2.36405 3.83958 0
M  V30 1862 C 176.829 -2.27691 4.23923 0
M  V30 1863 C 179.181 -2.11043 4.76561 0
M  V30 1864 C 176.509 -1.91719 5.54492 0
M  V30 1865 C 178.861 -1.76578 6.07456 0
M  V30 1866 C 177.525 -1.66363 6.46436 0
M  V30 1867 H 176.795 -0.53047 0.517381 0
M  V30 1868 H 179.442 -0.787655 1.74552 0
M  V30 1869 H 177.747 -3.38461 1.9736 0
M  V30 1870 H 179.444 -3.25452 2.34269 0
M  V30 1871 H 176.034 -2.44085 3.52308 0
M  V30 1872 H 180.218 -2.16717 4.46483 0
M  V30 1873 H 175.474 -1.82367 5.83568 0
M  V30 1874 H 179.648 -1.55974 6.78708 0
M  V30 1875 H 177.275 -1.38258 7.47522 0
M  V30 1876 N 178.85 -1.27639 -0.924453 0
M  V30 1877 C 180.099 -1.13549 -1.66702 0
M  V30 1878 C 180.412 0.317487 -1.93006 0
M  V30 1879 O 181.618 0.579333 -2.65247 0
M  V30 1880 C 180.074 -1.98426 -3.00259 0
M  V30 1881 C 179.682 -3.484 -2.81641 0
M  V30 1882 C 181.426 -1.92993 -3.78092 0
M  V30 1883 C 179.333 -4.25464 -4.10773 0
M  V30 1884 H 178.263 -0.421351 -0.625283 0
M  V30 1885 H 180.914 -1.52085 -1.02676 0
M  V30 1886 H 179.296 -1.52736 -3.6536 0
M  V30 1887 H 180.47 -4.01973 -2.25287 0
M  V30 1888 H 178.785 -3.55245 -2.17232 0
M  V30 1889 H 181.382 -2.47844 -4.7379 0
M  V30 1890 H 181.725 -0.904281 -4.0636 0
M  V30 1891 H 182.258 -2.36595 -3.19793 0
M  V30 1892 H 178.997 -5.28566 -3.87683 0
M  V30 1893 H 178.517 -3.76667 -4.66779 0
M  V30 1894 H 180.196 -4.34812 -4.79111 0
M  V30 1895 N 180.328 1.1314 -1.09713 0
M  V30 1896 C 181.744 1.36477 -0.827423 0
M  V30 1897 C 181.944 1.93654 0.556817 0
M  V30 1898 O 181 2.15791 1.31112 0
M  V30 1899 C 182.313 2.31334 -1.92106 0
M  V30 1900 C 183.861 2.44943 -1.94864 0
M  V30 1901 C 184.336 3.4311 -3.0338 0
M  V30 1902 N 185.827 3.50662 -3.02639 0
M  V30 1903 C 186.562 4.2651 -3.83246 0
M  V30 1904 N 186.058 5.05485 -4.73768 0
M  V30 1905 N 187.851 4.2184 -3.71493 0
M  V30 1906 H 180.002 0.743807 -1.9895 0
M  V30 1907 H 182.265 0.389823 -0.864143 0
M  V30 1908 H 181.971 1.96483 -2.91698 0
M  V30 1909 H 181.845 3.31381 -1.80184 0
M  V30 1910 H 184.232 2.79079 -0.959099 0
M  V30 1911 H 184.313 1.4481 -2.10864 0
M  V30 1912 H 183.957 3.09704 -4.02549 0
M  V30 1913 H 183.887 4.43055 -2.84622 0
M  V30 1914 H 186.378 2.94315 -2.37039 0
M  V30 1915 H 186.691 5.60675 -5.3185 0
M  V30 1916 H 185.036 5.04708 -4.77802 0
M  V30 1917 H 188.227 3.5922 -3.00131 0
M  V30 1918 H 188.4 4.80697 -4.3455 0
M  V30 1919 N 181.806 0.884767 1.30421 0
M  V30 1920 C 182.769 0.356277 2.26414 0
M  V30 1921 C 183.769 -0.501124 1.52792 0
M  V30 1922 O 184.959 -0.30831 1.7145 0
M  V30 1923 C 182.091 -0.492316 3.37326 0
M  V30 1924 H 183.284 1.20389 2.74675 0
M  V30 1925 H 180.837 0.661607 1.41607 0
M  V30 1926 H 181.572 -1.36052 2.94381 0
M  V30 1927 H 181.357 0.121832 3.91911 0
M  V30 1928 H 182.847 -0.853871 4.08777 0
M  V30 1929 N 183.284 -1.43765 0.645699 0
M  V30 1930 C 184.247 -2.29163 -0.0409488 0
M  V30 1931 C 185.247 -1.41813 -0.757996 0
M  V30 1932 O 186.437 -1.63527 -0.600382 0
M  V30 1933 C 183.569 -3.23716 -1.06869 0
M  V30 1934 H 184.762 -2.91366 0.710345 0
M  V30 1935 H 182.315 -1.5092 0.406547 0
M  V30 1936 H 183.05 -2.66393 -1.84947 0
M  V30 1937 H 182.835 -3.88105 -0.558277 0
M  V30 1938 H 184.325 -3.87831 -1.54845 0
M  V30 1939 N 184.763 -0.387143 -1.52771 0
M  V30 1940 C 185.673 0.456442 -2.30117 0
M  V30 1941 C 186.689 1.07342 -1.36944 0
M  V30 1942 O 187.865 1.07971 -1.70013 0
M  V30 1943 C 184.93 1.56957 -3.09136 0
M  V30 1944 C 183.991 0.977916 -4.18014 0
M  V30 1945 C 183.224 2.038 -4.93256 0
M  V30 1946 O 183.447 3.25271 -4.68567 0
M  V30 1947 O 182.381 1.6565 -5.78657 0
M  V30 1948 H 186.207 -0.17359 -3.03203 0
M  V30 1949 H 183.792 -0.150919 -1.48636 0
M  V30 1950 H 185.674 2.21628 -3.58412 0
M  V30 1951 H 184.349 2.18461 -2.38865 0
M  V30 1952 H 183.256 0.294525 -3.72939 0
M  V30 1953 H 184.589 0.407128 -4.90513 0
M  V30 1954 N 186.241 1.57166 -0.116904 0
M  V30 1955 C 187.151 2.18745 0.847812 0
M  V30 1956 C 188.167 1.163 1.29423 0
M  V30 1957 O 189.343 1.48761 1.35765 0
M  V30 1958 C 186.408 2.77307 2.0809 0
M  V30 1959 C 185.469 3.94781 1.68661 0
M  V30 1960 C 184.702 4.50541 2.86091 0
M  V30 1961 O 184.925 4.05202 4.01456 0
M  V30 1962 O 183.859 5.41256 2.63298 0
M  V30 1963 H 187.685 3.01632 0.353778 0
M  V30 1964 H 185.27 1.49005 0.108599 0
M  V30 1965 H 187.152 3.14647 2.80313 0
M  V30 1966 H 185.827 1.97452 2.56504 0
M  V30 1967 H 184.734 3.62214 0.935518 0
M  V30 1968 H 186.067 4.76065 1.24991 0
M  V30 1969 N 187.719 -0.156864 1.56817 0
M  V30 1970 C 188.944 -0.890331 1.87318 0
M  V30 1971 C 189.369 -1.74394 0.704855 0
M  V30 1972 O 188.727 -1.77972 -0.345786 0
M  V30 1973 C 188.775 -1.73102 3.16336 0
M  V30 1974 O 187.879 -2.83422 2.99576 0
M  V30 1975 H 187.22 -0.24857 0.615718 0
M  V30 1976 H 189.75 -0.150649 2.04045 0
M  V30 1977 H 189.76 -2.12803 3.48107 0
M  V30 1978 H 188.435 -1.10412 4.00976 0
M  V30 1979 H 187.012 -2.47199 2.7919 0
M  V30 1980 N 189.197 -1.51736 -0.425897 0
M  V30 1981 C 190.613 -1.40166 -0.76326 0
M  V30 1982 C 190.813 -0.492962 -1.95377 0
M  V30 1983 O 189.869 0.0475815 -2.52455 0
M  V30 1984 C 191.182 -2.82403 -1.03291 0
M  V30 1985 C 192.73 -2.91632 -1.13665 0
M  V30 1986 C 193.205 -4.34801 -1.43916 0
M  V30 1987 N 194.696 -4.3796 -1.50816 0
M  V30 1988 C 195.431 -5.4578 -1.75817 0
M  V30 1989 N 194.927 -6.63744 -1.98534 0
M  V30 1990 N 196.72 -5.33274 -1.77694 0
M  V30 1991 H 188.871 -2.09361 0.358 0
M  V30 1992 H 191.134 -0.942941 0.0978094 0
M  V30 1993 H 190.84 -3.50943 -0.230696 0
M  V30 1994 H 190.714 -3.22428 -1.95754 0
M  V30 1995 H 193.101 -2.23284 -1.92947 0
M  V30 1996 H 193.182 -2.55088 -0.190756 0
M  V30 1997 H 192.826 -5.03703 -0.65157 0
M  V30 1998 H 192.756 -4.68868 -2.39729 0
M  V30 1999 H 195.247 -3.52919 -1.35118 0
M  V30 2000 H 195.56 -7.41704 -2.17013 0
M  V30 2001 H 193.905 -6.66839 -1.95832 0
M  V30 2002 H 197.096 -4.40098 -1.59473 0
M  V30 2003 H 197.269 -6.1738 -1.9684 0
M  V30 2004 N 190.675 0.682077 -1.42076 0
M  V30 2005 C 191.622 1.79578 -1.44984 0
M  V30 2006 C 192.592 1.6332 -0.302614 0
M  V30 2007 O 193.777 1.83978 -0.505633 0
M  V30 2008 C 190.917 3.1756 -1.35091 0
M  V30 2009 C 190.03 3.45156 -2.59791 0
M  V30 2010 C 189.165 4.72826 -2.42093 0
M  V30 2011 C 188.204 4.93433 -3.62202 0
M  V30 2012 N 187.341 6.12338 -3.43491 0
M  V30 2013 H 192.181 1.76427 -2.40161 0
M  V30 2014 H 189.718 0.861376 -1.19242 0
M  V30 2015 H 191.676 3.97287 -1.27354 0
M  V30 2016 H 190.306 3.19854 -0.435133 0
M  V30 2017 H 189.358 2.59736 -2.77923 0
M  V30 2018 H 190.67 3.5628 -3.49094 0
M  V30 2019 H 189.824 5.60631 -2.319 0
M  V30 2020 H 188.563 4.63973 -1.50268 0
M  V30 2021 H 187.568 4.04073 -3.72834 0
M  V30 2022 H 188.793 5.04136 -4.54998 0
M  V30 2023 H 186.739 6.04672 -2.54377 0
M  V30 2024 H 186.656 6.2429 -4.26377 0
M  V30 2025 H 187.924 7.02841 -3.37097 0
M  V30 2026 N 192.153 1.28127 0.917671 0
M  V30 2027 C 193.103 1.08361 2.00604 0
M  V30 2028 C 194.087 0.00847518 1.60898 0
M  V30 2029 O 195.279 0.228167 1.75523 0
M  V30 2030 C 192.408 0.743376 3.35155 0
M  V30 2031 C 191.494 1.85716 3.81275 0
M  V30 2032 N 191.885 3.09822 3.99805 0
M  V30 2033 C 190.183 1.74612 4.10398 0
M  V30 2034 C 190.884 3.82368 4.38372 0
M  V30 2035 N 189.86 3.10192 4.4641 0
M  V30 2036 H 193.662 2.02531 2.12975 0
M  V30 2037 H 191.176 1.18989 1.10523 0
M  V30 2038 H 193.173 0.582859 4.12805 0
M  V30 2039 H 191.833 -0.190595 3.2414 0
M  V30 2040 H 192.844 3.45475 3.85833 0
M  V30 2041 H 189.521 0.883657 4.08041 0
M  V30 2042 H 190.911 4.89082 4.60704 0
M  V30 2043 N 193.631 -1.12557 1.10312 0
M  V30 2044 C 194.88 -1.83395 0.839588 0
M  V30 2045 C 195.193 -1.84939 -0.636929 0
M  V30 2046 O 196.399 -2.51761 -1.01631 0
M  V30 2047 C 194.855 -3.29303 1.45215 0
M  V30 2048 C 194.463 -3.36122 2.96186 0
M  V30 2049 C 196.207 -4.05121 1.26796 0
M  V30 2050 C 194.114 -4.76357 3.50483 0
M  V30 2051 H 193.044 -0.687133 0.310425 0
M  V30 2052 H 195.695 -1.26746 1.32694 0
M  V30 2053 H 194.077 -3.85812 0.892469 0
M  V30 2054 H 195.251 -2.89559 3.58458 0
M  V30 2055 H 193.566 -2.73776 3.13745 0
M  V30 2056 H 196.163 -5.08668 1.64806 0
M  V30 2057 H 196.506 -4.15773 0.209409 0
M  V30 2058 H 197.039 -3.54967 1.79563 0
M  V30 2059 H 193.778 -4.70899 4.55998 0
M  V30 2060 H 193.298 -5.23377 2.92978 0
M  V30 2061 H 194.977 -5.45294 3.48228 0
M  V30 2062 N 195.109 -0.891671 -1.2995 0
M  V30 2063 C 196.057 -0.353066 -2.29905 0
M  V30 2064 C 197.051 0.543509 -1.60444 0
M  V30 2065 O 198.257 0.4272 -1.74857 0
M  V30 2066 H 194.632 -0.095531 -0.745907 0
M  V30 2067 H 196.603 -1.20961 -2.72784 0
M  V30 2068 C 195.352 0.411475 -3.45257 0
M  V30 2069 H 194.675 -0.269182 -3.98893 0
M  V30 2070 H 196.115 0.753328 -4.17254 0
M  V30 2071 C 194.574 1.6111 -2.9588 0
M  V30 2072 O 195.104 2.71045 -2.96475 0
M  V30 2073 N 193.31 1.45054 -2.51809 0
M  V30 2074 H 192.857 0.556175 -2.51524 0
M  V30 2075 H 192.815 2.25453 -2.1913 0
M  V30 2076 N 196.587 1.43421 -0.653314 0
M  V30 2077 C 197.815 2.06163 -0.174491 0
M  V30 2078 C 198.23 1.48969 1.1599 0
M  V30 2079 O 197.587 0.621042 1.71608 0
M  V30 2080 C 197.638 3.61417 -0.0774865 0
M  V30 2081 O 197.359 4.16485 -1.35912 0
M  V30 2082 C 198.86 4.41235 0.427402 0
M  V30 2083 H 196.08 0.664946 -0.0899353 0
M  V30 2084 H 198.624 1.83924 -0.893988 0
M  V30 2085 H 196.779 3.82841 0.59257 0
M  V30 2086 H 197.193 5.10153 -1.21839 0
M  V30 2087 H 198.667 5.5021 0.44423 0
M  V30 2088 H 199.144 4.14268 1.45873 0
M  V30 2089 H 199.75 4.2478 -0.210167 0
M  V30 2090 N 198.065 0.39524 1.52563 0
M  V30 2091 C 199.311 -0.177763 2.02622 0
M  V30 2092 C 199.666 -1.43974 1.27629 0
M  V30 2093 O 198.959 -1.87995 0.36992 0
M  V30 2094 C 199.153 -0.493444 3.53977 0
M  V30 2095 C 198.982 0.736392 4.4363 0
M  V30 2096 C 197.752 1.25744 4.89404 0
M  V30 2097 C 199.95 1.61046 4.88435 0
M  V30 2098 N 197.932 2.44421 5.63145 0
M  V30 2099 C 199.303 2.64359 5.60816 0
M  V30 2100 C 201.358 1.62985 4.70468 0
M  V30 2101 C 200.061 3.69505 6.17137 0
M  V30 2102 C 202.087 2.67042 5.27677 0
M  V30 2103 C 201.449 3.69077 5.99968 0
M  V30 2104 H 197.548 -0.0269794 0.781534 0
M  V30 2105 H 200.132 0.546466 1.86874 0
M  V30 2106 H 198.303 -1.18672 3.69826 0
M  V30 2107 H 200.035 -1.05412 3.90731 0
M  V30 2108 H 196.79 0.817546 4.6649 0
M  V30 2109 H 197.214 3.04485 6.04663 0
M  V30 2110 H 201.856 0.854442 4.14076 0
M  V30 2111 H 199.574 4.4791 6.72608 0
M  V30 2112 H 203.16 2.69433 5.15652 0
M  V30 2113 H 202.04 4.48273 6.43444 0
M  V30 2114 N 199.544 -1.57102 0.125237 0
M  V30 2115 C 200.79 -1.95697 -0.532035 0
M  V30 2116 C 201.123 -1.009 -1.6593 0
M  V30 2117 O 200.398 -0.047347 -1.94442 0
M  V30 2118 C 200.681 -3.44181 -1.05884 0
M  V30 2119 C 200.534 -4.49752 0.0654392 0
M  V30 2120 C 201.853 -3.94655 -1.9477 0
M  V30 2121 H 198.972 -0.711571 -0.191925 0
M  V30 2122 H 201.614 -1.88923 0.20206 0
M  V30 2123 H 199.764 -3.50085 -1.68442 0
M  V30 2124 H 201.436 -4.55943 0.700982 0
M  V30 2125 H 199.679 -4.27653 0.727709 0
M  V30 2126 H 200.35 -5.50924 -0.344505 0
M  V30 2127 H 202.826 -3.91094 -1.42074 0
M  V30 2128 H 201.702 -4.99057 -2.28546 0
M  V30 2129 H 201.963 -3.35718 -2.87656 0
M  V30 2130 N 201.022 0.148545 -1.56898 0
M  V30 2131 C 202.247 0.880385 -1.87787 0
M  V30 2132 C 202.672 1.74018 -0.714093 0
M  V30 2133 O 202.03 1.78153 0.336343 0
M  V30 2134 C 202.078 1.71422 -3.17249 0
M  V30 2135 O 201.182 2.8183 -3.01074 0
M  V30 2136 H 200.523 0.245301 -0.617028 0
M  V30 2137 H 203.053 0.139826 -2.04122 0
M  V30 2138 H 203.063 2.10954 -3.49231 0
M  V30 2139 H 201.738 1.08284 -4.01556 0
M  V30 2140 H 200.315 2.45715 -2.80497 0
M  V30 2141 N 202.5 1.5196 0.417844 0
M  V30 2142 C 203.447 1.74678 1.50852 0
M  V30 2143 C 204.417 0.588947 1.55308 0
M  V30 2144 O 205.602 0.825544 1.72016 0
M  V30 2145 C 202.742 1.89544 2.88387 0
M  V30 2146 C 201.855 3.17166 2.93309 0
M  V30 2147 C 200.99 3.22513 4.22088 0
M  V30 2148 C 200.029 4.44372 4.20951 0
M  V30 2149 N 199.166 4.47161 5.41287 0
M  V30 2150 H 204.006 2.67768 1.30783 0
M  V30 2151 H 201.543 1.32689 0.63498 0
M  V30 2152 H 203.501 1.96146 3.68216 0
M  V30 2153 H 202.131 0.998424 3.06971 0
M  V30 2154 H 201.183 3.19778 2.06024 0
M  V30 2155 H 202.495 4.07021 2.88332 0
M  V30 2156 H 201.649 3.28139 5.10303 0
M  V30 2157 H 200.388 2.30581 4.29748 0
M  V30 2158 H 199.393 4.38902 3.31127 0
M  V30 2159 H 200.618 5.3759 4.14938 0
M  V30 2160 H 198.564 3.58108 5.49632 0
M  V30 2161 H 198.481 5.3085 5.3827 0
M  V30 2162 H 199.749 4.57005 6.3148 0
M  V30 2163 N 203.978 -0.674533 1.42435 0
M  V30 2164 C 204.925 -1.78807 1.45934 0
M  V30 2165 C 205.895 -1.63157 0.311271 0
M  V30 2166 O 207.08 -1.83707 0.515383 0
M  V30 2167 C 204.22 -3.16839 1.36773 0
M  V30 2168 C 203.333 -3.43774 2.61617 0
M  V30 2169 C 202.468 -4.71536 2.44597 0
M  V30 2170 C 201.507 -4.91505 3.64814 0
M  V30 2171 N 200.644 -6.10508 3.46734 0
M  V30 2172 H 205.484 -1.75151 2.41093 0
M  V30 2173 H 203.021 -0.85504 1.19697 0
M  V30 2174 H 204.979 -3.96606 1.29459 0
M  V30 2175 H 203.609 -3.19619 0.452089 0
M  V30 2176 H 202.661 -2.58259 2.79297 0
M  V30 2177 H 203.973 -3.54423 3.50978 0
M  V30 2178 H 203.127 -5.59393 2.3487 0
M  V30 2179 H 201.866 -4.6317 1.52726 0
M  V30 2180 H 200.871 -4.0209 3.74972 0
M  V30 2181 H 202.096 -5.01716 4.57665 0
M  V30 2182 H 200.042 -6.03315 2.5758 0
M  V30 2183 H 199.959 -6.2202 4.29682 0
M  V30 2184 H 201.227 -7.01044 3.40819 0
M  V30 2185 N 205.456 -1.28612 -0.910864 0
M  V30 2186 C 206.684 -1.18792 -1.69399 0
M  V30 2187 C 207.099 0.253039 -1.87097 0
M  V30 2188 O 206.456 1.17071 -1.40003 0
M  V30 2189 C 206.507 -1.88511 -3.08457 0
M  V30 2190 O 206.228 -3.26979 -2.91576 0
M  V30 2191 C 207.729 -1.85029 -4.02839 0
M  V30 2192 H 204.949 -0.412233 -0.529438 0
M  V30 2193 H 207.493 -1.69788 -1.13984 0
M  V30 2194 H 205.648 -1.41379 -3.60681 0
M  V30 2195 H 206.062 -3.61936 -3.79608 0
M  V30 2196 H 207.536 -2.38395 -4.97867 0
M  V30 2197 H 208.013 -0.823303 -4.31414 0
M  V30 2198 H 208.619 -2.31853 -3.56545 0
M  V30 2199 N 206.934 1.1197 -1.10907 0
M  V30 2200 C 207.844 2.21433 -0.774896 0
M  V30 2201 C 208.86 1.72478 0.229657 0
M  V30 2202 O 210.036 2.01288 0.0672008 0
M  V30 2203 C 207.101 3.4602 -0.216986 0
M  V30 2204 C 206.162 4.09791 -1.27944 0
M  V30 2205 C 205.395 5.28431 -0.748055 0
M  V30 2206 O 205.618 5.68823 0.423833 0
M  V30 2207 O 204.552 5.82644 -1.51027 0
M  V30 2208 H 208.378 2.5242 -1.68873 0
M  V30 2209 H 205.963 1.20399 -0.884555 0
M  V30 2210 H 207.845 4.21304 0.090059 0
M  V30 2211 H 206.52 3.16698 0.669633 0
M  V30 2212 H 205.427 3.36265 -1.63941 0
M  V30 2213 H 206.76 4.4328 -2.13925 0
M  V30 2214 N 208.412 0.89855 1.29475 0
M  V30 2215 C 209.66 0.522847 1.9522 0
M  V30 2216 C 209.981 -0.93371 1.71192 0
M  V30 2217 O 209.251 -1.65823 1.04305 0
M  V30 2218 H 207.831 0.190366 0.722336 0
M  V30 2219 H 210.493 1.14459 1.5775 0
M  V30 2220 H 209.589 0.704476 3.04045 0
M  V30 2221 N 209.89 -1.43072 0.660911 0
M  V30 2222 C 210.837 -2.30785 -0.0259884 0
M  V30 2223 C 211.807 -1.45184 -0.806888 0
M  V30 2224 O 212.992 -1.74041 -0.781943 0
M  V30 2225 C 210.132 -3.30861 -0.981067 0
M  V30 2226 C 209.245 -4.31558 -0.195458 0
M  V30 2227 C 208.38 -5.18712 -1.14503 0
M  V30 2228 C 207.419 -6.11097 -0.350299 0
M  V30 2229 N 206.556 -6.90849 -1.25186 0
M  V30 2230 H 211.396 -2.88975 0.727846 0
M  V30 2231 H 208.933 -1.42353 0.370682 0
M  V30 2232 H 210.891 -3.87399 -1.54849 0
M  V30 2233 H 209.521 -2.74304 -1.70169 0
M  V30 2234 H 208.573 -3.77252 0.488374 0
M  V30 2235 H 209.885 -4.9701 0.422176 0
M  V30 2236 H 209.039 -5.79914 -1.78284 0
M  V30 2237 H 207.778 -4.53404 -1.79656 0
M  V30 2238 H 206.783 -5.48976 0.300808 0
M  V30 2239 H 208.008 -6.7845 0.296941 0
M  V30 2240 H 205.954 -6.28182 -1.89005 0
M  V30 2241 H 205.871 -7.52854 -0.688971 0
M  V30 2242 H 207.139 -7.5655 -1.87757 0
M  V30 2243 N 211.368 -0.403325 -1.52352 0
M  V30 2244 C 212.617 0.175668 -2.00934 0
M  V30 2245 C 212.93 1.46718 -1.29356 0
M  V30 2246 O 214.136 2.12708 -1.68724 0
M  V30 2247 C 212.592 0.363612 -3.58058 0
M  V30 2248 C 212.2 -0.915472 -4.38547 0
M  V30 2249 C 213.944 0.89821 -4.14888 0
M  V30 2250 C 211.851 -0.695035 -5.87302 0
M  V30 2251 H 210.781 0.0694234 -0.750797 0
M  V30 2252 H 213.432 -0.527879 -1.75743 0
M  V30 2253 H 211.814 1.12935 -3.79555 0
M  V30 2254 H 212.988 -1.68691 -4.28812 0
M  V30 2255 H 211.303 -1.37606 -3.93006 0
M  V30 2256 H 213.9 1.07907 -5.23699 0
M  V30 2257 H 214.243 1.87126 -3.71873 0
M  V30 2258 H 214.776 0.191681 -3.97338 0
M  V30 2259 H 211.515 -1.63948 -6.34666 0
M  V30 2260 H 211.035 0.0372116 -5.99788 0
M  V30 2261 H 212.714 -0.33497 -6.46132 0
M  V30 2262 N 212.846 1.57033 -0.133567 0
M  V30 2263 C 213.756 2.19632 0.824564 0
M  V30 2264 C 214.772 1.17666 1.28182 0
M  V30 2265 O 215.948 1.50193 1.3418 0
M  V30 2266 C 213.013 2.79499 2.05137 0
M  V30 2267 C 212.074 3.96548 1.64464 0
M  V30 2268 C 211.307 4.5355 2.81297 0
M  V30 2269 O 211.53 4.09438 3.97136 0
M  V30 2270 O 210.464 5.44018 2.57542 0
M  V30 2271 H 214.29 3.01991 0.321766 0
M  V30 2272 H 211.875 1.49112 0.0927889 0
M  V30 2273 H 213.757 3.17602 2.7696 0
M  V30 2274 H 212.432 2.00162 2.54395 0
M  V30 2275 H 211.339 3.63186 0.897048 0
M  V30 2276 H 212.672 4.77364 1.19934 0
M  V30 2277 N 214.325 -0.140222 1.56975 0
M  V30 2278 C 215.235 -1.19223 2.02047 0
M  V30 2279 C 216.251 -1.46612 0.937062 0
M  V30 2280 O 217.427 -1.58148 1.24704 0
M  V30 2281 C 214.492 -2.50414 2.39778 0
M  V30 2282 C 213.553 -2.30612 3.621 0
M  V30 2283 C 212.786 -3.55547 3.98023 0
M  V30 2284 O 213.009 -4.62004 3.34528 0
M  V30 2285 O 211.943 -3.47808 4.91237 0
M  V30 2286 H 215.769 -0.839559 2.91865 0
M  V30 2287 H 213.354 -0.349453 1.45256 0
M  V30 2288 H 215.236 -3.27747 2.64877 0
M  V30 2289 H 213.911 -2.85198 1.53114 0
M  V30 2290 H 212.818 -1.51207 3.4218 0
M  V30 2291 H 214.151 -2.00741 4.49404 0
M  V30 2292 N 215.803 -1.52179 -0.40978 0
M  V30 2293 C 216.733 -1.78435 -1.5061 0
M  V30 2294 C 217.714 -0.635295 -1.57791 0
M  V30 2295 O 218.899 -0.880823 -1.73076 0
M  V30 2296 C 216.029 -1.93444 -2.88439 0
M  V30 2297 C 214.983 -3.09038 -2.96108 0
M  V30 2298 C 214.309 -3.09268 -4.36185 0
M  V30 2299 C 215.609 -4.48508 -2.67652 0
M  V30 2300 H 217.303 -2.70237 -1.28889 0
M  V30 2301 H 214.849 -1.30036 -0.618605 0
M  V30 2302 H 216.802 -2.10394 -3.65119 0
M  V30 2303 H 215.526 -0.983129 -3.11452 0
M  V30 2304 H 214.185 -2.91837 -2.21872 0
M  V30 2305 H 213.833 -2.11861 -4.56206 0
M  V30 2306 H 213.533 -3.86907 -4.42241 0
M  V30 2307 H 215.057 -3.28348 -5.14801 0
M  V30 2308 H 216.471 -4.65918 -3.34056 0
M  V30 2309 H 214.868 -5.28059 -2.85085 0
M  V30 2310 H 215.938 -4.56649 -1.63095 0
M  V30 2311 N 217.281 0.66697 -1.42791 0
M  V30 2312 C 218.211 1.79218 -1.49677 0
M  V30 2313 C 219.192 1.66405 -0.352623 0
M  V30 2314 O 220.377 1.85708 -0.567993 0
M  V30 2315 C 217.507 3.17565 -1.40605 0
M  V30 2316 C 216.461 3.45124 -2.53127 0
M  V30 2317 C 215.787 4.83127 -2.29112 0
M  V30 2318 C 217.087 3.41236 -3.95418 0
M  V30 2319 H 218.781 1.73713 -2.43853 0
M  V30 2320 H 216.327 0.83432 -1.17367 0
M  V30 2321 H 218.28 3.96022 -1.44029 0
M  V30 2322 H 217.004 3.23767 -0.429271 0
M  V30 2323 H 215.663 2.69031 -2.49034 0
M  V30 2324 H 215.311 4.85988 -1.29709 0
M  V30 2325 H 215.011 5.02528 -3.04531 0
M  V30 2326 H 216.535 5.63859 -2.34297 0
M  V30 2327 H 217.949 4.09651 -4.01073 0
M  V30 2328 H 216.346 3.72173 -4.70752 0
M  V30 2329 H 217.416 2.39665 -4.21532 0
M  V30 2330 N 218.759 1.29093 0.90403 0
M  V30 2331 C 220.17 1.15186 1.46932 0
M  V30 2332 C 220.521 -0.254587 1.94541 0
M  V30 2333 O 219.646 -1.14972 1.83332 0
M  V30 2334 C 220.241 2.08492 2.67051 0
M  V30 2335 C 218.8 1.98621 3.19729 0
M  V30 2336 C 217.947 1.9967 1.92425 0
M  V30 2337 H 220.898 1.41641 0.715789 0
M  V30 2338 H 220.919 1.65461 3.42641 0
M  V30 2339 H 220.431 3.10847 2.3237 0
M  V30 2340 H 218.532 0.993389 3.59114 0
M  V30 2341 H 218.645 2.86068 3.8432 0
M  V30 2342 H 217.009 1.44208 2.09943 0
M  V30 2343 H 217.792 3.03721 1.60026 0
M  V30 2344 N 220.237 -1.11381 1.11499 0
M  V30 2345 C 221.485 -1.8277 0.862524 0
M  V30 2346 C 221.806 -1.85097 -0.613534 0
M  V30 2347 O 221.076 -1.32198 -1.4457 0
M  V30 2348 H 219.656 -0.676823 0.316101 0
M  V30 2349 H 222.318 -1.34816 1.4075 0
M  V30 2350 H 221.414 -2.86614 1.23527 0
M  V30 2351 N 221.715 -0.905404 -1.28997 0
M  V30 2352 C 222.94 -0.549175 -1.99997 0
M  V30 2353 C 223.365 0.860276 -1.67275 0
M  V30 2354 O 222.723 1.57355 -0.900502 0
M  V30 2355 C 222.771 -0.755185 -3.52604 0
M  V30 2356 O 221.875 0.189692 -4.11964 0
M  V30 2357 H 221.216 -0.213899 -0.628604 0
M  V30 2358 H 223.746 -1.21856 -1.64354 0
M  V30 2359 H 223.756 -0.662045 -4.02593 0
M  V30 2360 H 222.431 -1.78271 -3.75755 0
M  V30 2361 H 221.008 0.0485257 -3.72868 0
M  V30 2362 N 223.193 1.4272 -0.668489 0
M  V30 2363 C 224.418 2.06484 -0.194758 0
M  V30 2364 C 224.843 1.49862 1.13679 0
M  V30 2365 O 224.201 0.614582 1.70565 0
M  V30 2366 C 224.249 3.60353 -0.133546 0
M  V30 2367 O 223.353 4.02464 0.899806 0
M  V30 2368 H 222.694 0.656137 -0.10188 0
M  V30 2369 H 225.224 1.82964 -0.915722 0
M  V30 2370 H 225.234 4.07976 0.0447041 0
M  V30 2371 H 223.909 4.00938 -1.1055 0
M  V30 2372 H 222.486 3.66402 0.693109 0
M  V30 2373 N 224.671 0.411399 1.52136 0
M  V30 2374 C 225.92 -0.165009 2.01024 0
M  V30 2375 C 226.233 -1.4603 1.30133 0
M  V30 2376 O 227.439 -2.1181 1.69849 0
M  V30 2377 C 225.895 -0.344618 3.58246 0
M  V30 2378 C 225.503 0.938716 4.38055 0
M  V30 2379 C 227.247 -0.876195 4.15359 0
M  V30 2380 C 225.154 0.726172 5.86925 0
M  V30 2381 H 224.084 -0.0654407 0.751155 0
M  V30 2382 H 226.735 0.537192 1.75461 0
M  V30 2383 H 225.117 -1.10921 3.80148 0
M  V30 2384 H 226.291 1.70963 4.27912 0
M  V30 2385 H 224.606 1.39688 3.92271 0
M  V30 2386 H 227.203 -1.05128 5.24263 0
M  V30 2387 H 227.546 -1.85152 3.7286 0
M  V30 2388 H 228.079 -0.170607 3.97434 0
M  V30 2389 H 224.818 1.67312 6.33788 0
M  V30 2390 H 224.338 -0.00540283 5.998 0
M  V30 2391 H 226.017 0.369231 6.45946 0
M  V30 2392 N 226.149 -1.5696 0.141893 0
M  V30 2393 C 227.426 -1.87553 -0.555281 0
M  V30 2394 C 227.806 -1.04699 -1.83306 0
M  V30 2395 O 227.154 -0.132346 -2.28116 0
M  V30 2396 C 227.364 -3.39093 -0.825664 0
M  V30 2397 C 228.712 -4.08199 -1.16869 0
M  V30 2398 O 229.736 -3.44242 -0.915185 0
M  V30 2399 O 228.595 -5.21139 -1.6455 0
M  V30 2400 H 225.689 -0.777188 -0.282679 0
M  V30 2401 H 228.235 -1.68763 0.17812 0
M  V30 2402 H 227.007 -3.91221 0.0788633 0
M  V30 2403 H 226.63 -3.63393 -1.61343 0
M  V30 2404 N 227.627 0.131896 -1.57047 0
M  V30 2405 C 228.59 1.14638 -1.98471 0
M  V30 2406 C 229.59 1.35029 -0.873148 0
M  V30 2407 O 230.78 1.31764 -1.13946 0
M  V30 2408 C 227.912 2.50358 -2.31373 0
M  V30 2409 H 229.105 0.79064 -2.8929 0
M  V30 2410 H 226.658 0.375761 -1.51716 0
M  V30 2411 H 227.393 2.90876 -1.43393 0
M  V30 2412 H 227.178 2.36915 -3.12432 0
M  V30 2413 H 228.668 3.23395 -2.64207 0
M  V30 2414 N 229.106 1.52395 0.401703 0
M  V30 2415 C 230.016 1.7917 1.51444 0
M  V30 2416 C 231.032 0.677691 1.6026 0
M  V30 2417 O 232.208 0.963909 1.76835 0
M  V30 2418 C 229.273 1.94347 2.87107 0
M  V30 2419 C 228.334 3.18257 2.88116 0
M  V30 2420 C 227.567 3.32701 4.17308 0
M  V30 2421 O 227.79 2.52238 5.11598 0
M  V30 2422 O 226.724 4.25891 4.25324 0
M  V30 2423 H 230.55 2.73633 1.31752 0
M  V30 2424 H 228.135 1.3733 0.588296 0
M  V30 2425 H 230.017 2.06109 3.67555 0
M  V30 2426 H 228.692 1.03073 3.06851 0
M  V30 2427 H 227.599 3.11947 2.06494 0
M  V30 2428 H 228.932 4.09336 2.73322 0
M  V30 2429 N 230.584 -0.659388 1.43143 0
M  V30 2430 C 231.812 -1.44723 1.47861 0
M  V30 2431 C 232.227 -1.88563 0.0945886 0
M  V30 2432 O 231.584 -1.59108 -0.893915 0
M  V30 2433 C 231.635 -2.68627 2.41913 0
M  V30 2434 O 231.356 -2.26623 3.74932 0
M  V30 2435 C 232.857 -3.62045 2.55809 0
M  V30 2436 H 230.077 -0.444801 0.502387 0
M  V30 2437 H 232.621 -0.808916 1.87821 0
M  V30 2438 H 230.776 -3.28613 2.05164 0
M  V30 2439 H 231.19 -3.06745 4.2545 0
M  V30 2440 H 232.664 -4.45666 3.25708 0
M  V30 2441 H 233.141 -4.08981 1.60099 0
M  V30 2442 H 233.747 -3.07944 2.93344 0
M  V30 2443 N 232.062 -1.29571 -0.897171 0
M  V30 2444 C 233.478 -1.07637 -1.17841 0
M  V30 2445 C 233.678 0.170713 -2.00776 0
M  V30 2446 O 232.734 0.867768 -2.3712 0
M  V30 2447 C 234.047 -2.3332 -1.8969 0
M  V30 2448 C 235.595 -2.38664 -2.02505 0
M  V30 2449 C 236.07 -3.64157 -2.77765 0
M  V30 2450 N 237.561 -3.64894 -2.85318 0
M  V30 2451 C 238.296 -4.58679 -3.44094 0
M  V30 2452 N 237.792 -5.62799 -4.04017 0
M  V30 2453 N 239.585 -4.46245 -3.41793 0
M  V30 2454 H 231.736 -2.09598 -0.343883 0
M  V30 2455 H 233.999 -0.923333 -0.214848 0
M  V30 2456 H 233.705 -3.24262 -1.36187 0
M  V30 2457 H 233.579 -2.41025 -2.9015 0
M  V30 2458 H 235.966 -1.48208 -2.55183 0
M  V30 2459 H 236.047 -2.34943 -1.01171 0
M  V30 2460 H 235.691 -4.54965 -2.25763 0
M  V30 2461 H 235.621 -3.65137 -3.7945 0
M  V30 2462 H 238.112 -2.89613 -2.42761 0
M  V30 2463 H 238.425 -6.3048 -4.46895 0
M  V30 2464 H 236.77 -5.66605 -4.02472 0
M  V30 2465 H 239.961 -3.64094 -2.94199 0
M  V30 2466 H 240.134 -5.19518 -3.87304 0
M  V30 2467 N 233.54 1.10788 -1.12088 0
M  V30 2468 C 234.47 2.19083 -0.807755 0
M  V30 2469 C 235.451 1.6858 0.226859 0
M  V30 2470 O 236.636 1.93997 0.0888475 0
M  V30 2471 C 233.766 3.46344 -0.257576 0
M  V30 2472 C 232.72 4.101 -1.22483 0
M  V30 2473 C 232.046 5.32016 -0.535052 0
M  V30 2474 C 233.346 4.54236 -2.57811 0
M  V30 2475 H 235.04 2.45534 -1.71328 0
M  V30 2476 H 232.586 1.1801 -0.825205 0
M  V30 2477 H 234.539 4.21392 -0.0262679 0
M  V30 2478 H 233.263 3.19373 0.683278 0
M  V30 2479 H 231.922 3.37054 -1.44189 0
M  V30 2480 H 231.57 5.01319 0.410827 0
M  V30 2481 H 231.27 5.75625 -1.18024 0
M  V30 2482 H 232.794 6.09799 -0.312695 0
M  V30 2483 H 234.208 5.20575 -2.40155 0
M  V30 2484 H 232.605 5.08682 -3.18375 0
M  V30 2485 H 233.675 3.6734 -3.16528 0
M  V30 2486 N 235.018 0.912232 1.28515 0
M  V30 2487 C 236.264 0.545405 1.95328 0
M  V30 2488 C 236.597 -0.908313 1.71649 0
M  V30 2489 O 235.872 -1.64575 1.03659 0
M  V30 2490 C 236.155 0.853483 3.4984 0
M  V30 2491 C 236.008 2.35982 3.82926 0
M  V30 2492 C 237.327 0.348589 4.38717 0
M  V30 2493 H 234.446 0.199626 0.709449 0
M  V30 2494 H 237.088 1.1412 1.5191 0
M  V30 2495 H 235.238 0.34643 3.86952 0
M  V30 2496 H 236.91 2.93738 3.55691 0
M  V30 2497 H 235.153 2.81543 3.30024 0
M  V30 2498 H 235.824 2.52593 4.90816 0
M  V30 2499 H 238.3 0.78294 4.08668 0
M  V30 2500 H 237.176 0.593242 5.45685 0
M  V30 2501 H 237.437 -0.751049 4.35674 0
M  V30 2502 N 236.496 -1.42363 0.676048 0
M  V30 2503 C 237.426 -2.33497 0.0124832 0
M  V30 2504 C 238.407 -1.50748 -0.787981 0
M  V30 2505 O 239.592 -1.79346 -0.744884 0
M  V30 2506 C 236.722 -3.34377 -0.938582 0
M  V30 2507 C 235.676 -4.27289 -0.246622 0
M  V30 2508 C 235.002 -5.18386 -1.31071 0
M  V30 2509 C 236.302 -5.14916 0.875125 0
M  V30 2510 H 237.996 -2.89233 0.773593 0
M  V30 2511 H 235.542 -1.39073 0.37346 0
M  V30 2512 H 237.495 -3.97044 -1.41188 0
M  V30 2513 H 236.219 -2.76947 -1.73113 0
M  V30 2514 H 234.878 -3.66018 0.206456 0
M  V30 2515 H 234.526 -4.57282 -2.09528 0
M  V30 2516 H 234.226 -5.81378 -0.852839 0
M  V30 2517 H 235.75 -5.83929 -1.78492 0
M  V30 2518 H 237.164 -5.71262 0.482983 0
M  V30 2519 H 235.561 -5.86747 1.25887 0
M  V30 2520 H 236.631 -4.53242 1.72335 0
M  V30 2521 N 237.974 -0.419461 -1.51915 0
M  V30 2522 C 239.22 0.153166 -2.02221 0
M  V30 2523 C 239.553 1.43907 -1.30401 0
M  V30 2524 O 238.828 1.90055 -0.413438 0
M  V30 2525 C 239.111 0.390291 -3.57979 0
M  V30 2526 C 238.964 -0.913014 -4.40436 0
M  V30 2527 C 240.283 1.16794 -4.2432 0
M  V30 2528 H 237.402 0.0541924 -0.735005 0
M  V30 2529 H 240.044 -0.554955 -1.81715 0
M  V30 2530 H 238.194 0.993491 -3.75582 0
M  V30 2531 H 239.866 -1.54882 -4.34522 0
M  V30 2532 H 238.109 -1.52168 -4.06236 0
M  V30 2533 H 238.78 -0.701361 -5.47526 0
M  V30 2534 H 241.256 0.657161 -4.10878 0
M  V30 2535 H 240.132 1.3026 -5.3322 0
M  V30 2536 H 240.393 2.19132 -3.83971 0
M  V30 2537 N 239.452 1.56882 -0.150215 0
M  V30 2538 C 240.4 2.18214 0.805313 0
M  V30 2539 C 241.394 1.14006 1.25296 0
M  V30 2540 O 242.6 1.3225 1.22107 0
M  V30 2541 H 238.975 0.698762 0.277913 0
M  V30 2542 H 240.946 2.97231 0.263862 0
M  V30 2543 C 239.695 2.82065 2.03309 0
M  V30 2544 H 239.018 3.61968 1.69763 0
M  V30 2545 H 240.458 3.28477 2.68103 0
M  V30 2546 C 238.917 1.80739 2.84315 0
M  V30 2547 O 239.447 1.27983 3.80767 0
M  V30 2548 N 237.653 1.4997 2.48913 0
M  V30 2549 H 237.2 1.93062 1.70542 0
M  V30 2550 H 237.158 0.824217 3.03404 0
M  V30 2551 N 240.93 -0.123565 1.57115 0
M  V30 2552 C 241.893 -1.13583 1.99076 0
M  V30 2553 C 242.893 -1.34564 0.880296 0
M  V30 2554 O 244.083 -1.31158 1.14644 0
M  V30 2555 C 241.215 -2.49128 2.32698 0
M  V30 2556 H 242.408 -0.775287 2.89706 0
M  V30 2557 H 239.961 -0.36771 1.51913 0
M  V30 2558 H 240.696 -2.90111 1.44934 0
M  V30 2559 H 240.481 -2.35255 3.13684 0
M  V30 2560 H 241.971 -3.2199 2.65918 0
M  V30 2561 N 242.408 -1.52605 -0.393616 0
M  V30 2562 C 243.657 -1.66649 -1.13627 0
M  V30 2563 C 243.97 -0.410364 -1.91247 0
M  V30 2564 O 245.176 -0.430854 -2.68059 0
M  V30 2565 C 243.632 -2.9449 -2.06891 0
M  V30 2566 C 243.24 -4.27266 -1.34714 0
M  V30 2567 C 244.984 -3.17899 -2.81319 0
M  V30 2568 C 242.891 -5.46217 -2.26717 0
M  V30 2569 H 241.821 -0.62084 -0.427871 0
M  V30 2570 H 244.472 -1.791 -0.399428 0
M  V30 2571 H 242.854 -2.75774 -2.84191 0
M  V30 2572 H 244.028 -4.56518 -0.626714 0
M  V30 2573 H 242.343 -4.10081 -0.722643 0
M  V30 2574 H 244.94 -4.03949 -3.50328 0
M  V30 2575 H 245.283 -2.32777 -3.45139 0
M  V30 2576 H 245.816 -3.37159 -2.11113 0
M  V30 2577 H 242.555 -6.33733 -1.67521 0
M  V30 2578 H 242.075 -5.21283 -2.96689 0
M  V30 2579 H 243.754 -5.7991 -2.86903 0
M  V30 2580 N 243.887 0.651787 -1.4349 0
M  V30 2581 C 245.117 1.43728 -1.48411 0
M  V30 2582 C 245.525 1.8893 -0.10103 0
M  V30 2583 O 244.868 1.60182 0.899307 0
M  V30 2584 C 244.93 2.70411 -2.36893 0
M  V30 2585 C 244.594 2.4714 -3.8441 0
M  V30 2586 C 245.591 2.10271 -4.75481 0
M  V30 2587 C 243.276 2.6142 -4.28912 0
M  V30 2588 C 245.27 1.87982 -6.0905 0
M  V30 2589 C 242.957 2.38746 -5.62533 0
M  V30 2590 C 243.955 2.02083 -6.5242 0
M  V30 2591 O 243.643 1.79647 -7.8357 0
M  V30 2592 H 243.375 0.447962 -0.506267 0
M  V30 2593 H 245.929 0.80624 -1.88915 0
M  V30 2594 H 244.159 3.36079 -1.91278 0
M  V30 2595 H 245.848 3.32364 -2.33 0
M  V30 2596 H 246.614 1.98814 -4.42378 0
M  V30 2597 H 242.493 2.88931 -3.59222 0
M  V30 2598 H 246.037 1.5929 -6.7917 0
M  V30 2599 H 241.934 2.49806 -5.95203 0
M  V30 2600 H 242.702 1.9406 -7.95162 0
M  V30 2601 N 245.365 1.30045 0.890287 0
M  V30 2602 C 246.612 1.18561 1.64163 0
M  V30 2603 C 246.94 -0.260852 1.92743 0
M  V30 2604 O 246.195 -1.20376 1.54299 0
M  V30 2605 C 246.494 1.95409 2.99249 0
M  V30 2606 C 246.16 3.45066 2.90242 0
M  V30 2607 C 244.822 3.85878 2.87492 0
M  V30 2608 C 247.174 4.4039 2.78758 0
M  V30 2609 C 244.502 5.20314 2.7109 0
M  V30 2610 C 246.854 5.74928 2.63894 0
M  V30 2611 C 245.518 6.14986 2.59516 0
M  V30 2612 H 244.788 0.433846 0.600715 0
M  V30 2613 H 247.435 1.61088 1.03552 0
M  V30 2614 H 245.74 1.45501 3.63781 0
M  V30 2615 H 247.437 1.8392 3.56334 0
M  V30 2616 H 244.027 3.12631 2.93189 0
M  V30 2617 H 248.211 4.09806 2.79952 0
M  V30 2618 H 243.467 5.50449 2.66112 0
M  V30 2619 H 247.641 6.48434 2.53981 0
M  V30 2620 H 245.268 7.19104 2.46565 0
M  V30 2621 N 246.843 -1.10192 1.12674 0
M  V30 2622 C 247.79 -2.16606 0.796906 0
M  V30 2623 C 248.76 -1.64394 -0.237476 0
M  V30 2624 O 249.945 -1.90474 -0.111484 0
M  V30 2625 C 247.085 -3.44116 0.26043 0
M  V30 2626 C 246.198 -4.10268 1.35293 0
M  V30 2627 C 245.333 -5.25507 0.775621 0
M  V30 2628 C 244.372 -5.83567 1.84706 0
M  V30 2629 N 243.509 -6.90179 1.28829 0
M  V30 2630 H 248.349 -2.44163 1.70846 0
M  V30 2631 H 245.886 -1.19846 0.85295 0
M  V30 2632 H 247.844 -4.17143 -0.0686814 0
M  V30 2633 H 246.474 -3.16901 -0.614274 0
M  V30 2634 H 245.526 -3.35184 1.79877 0
M  V30 2635 H 246.838 -4.4946 2.16303 0
M  V30 2636 H 245.992 -6.05398 0.397327 0
M  V30 2637 H 244.731 -4.87656 -0.0656581 0
M  V30 2638 H 243.736 -5.02344 2.23452 0
M  V30 2639 H 244.961 -6.23482 2.69161 0
M  V30 2640 H 242.907 -6.54322 0.468881 0
M  V30 2641 H 242.824 -7.28097 2.03497 0
M  V30 2642 H 244.092 -7.73844 0.937311 0
M  V30 2643 N 248.321 -0.919034 -1.28029 0
M  V30 2644 C 249.569 -0.553838 -1.94363 0
M  V30 2645 C 249.89 0.906357 -1.72656 0
M  V30 2646 O 249.16 1.64143 -1.0693 0
M  V30 2647 H 247.74 -0.201834 -0.719216 0
M  V30 2648 H 250.402 -1.16954 -1.55909 0
M  V30 2649 H 249.498 -0.752758 -3.02886 0
M  V30 2650 N 249.799 1.42003 -0.683588 0
M  V30 2651 C 250.746 2.30798 -0.0107309 0
M  V30 2652 C 251.716 1.4645 0.783688 0
M  V30 2653 O 252.901 1.75263 0.754156 0
M  V30 2654 C 250.041 3.3238 0.928306 0
M  V30 2655 C 249.154 4.31814 0.126776 0
M  V30 2656 C 248.289 5.20468 1.06236 0
M  V30 2657 C 247.328 6.11577 0.253035 0
M  V30 2658 N 246.465 6.92754 1.14179 0
M  V30 2659 H 251.305 2.8778 -0.773727 0
M  V30 2660 H 248.842 1.41745 -0.393283 0
M  V30 2661 H 250.8 3.89813 1.48666 0
M  V30 2662 H 249.43 2.76976 1.65783 0
M  V30 2663 H 248.482 3.76427 -0.54833 0
M  V30 2664 H 249.794 4.96276 -0.501192 0
M  V30 2665 H 248.948 5.82677 1.69035 0
M  V30 2666 H 247.687 4.56204 1.7242 0
M  V30 2667 H 246.692 5.48428 -0.388108 0
M  V30 2668 H 247.917 6.77892 -0.404839 0
M  V30 2669 H 245.863 6.3111 1.78987 0
M  V30 2670 H 245.78 7.53855 0.569111 0
M  V30 2671 H 247.048 7.59441 1.75697 0
M  V30 2672 N 251.277 0.427512 1.51691 0
M  V30 2673 C 252.523 -0.134744 2.02953 0
M  V30 2674 C 252.878 -1.41235 1.30654 0
M  V30 2675 O 252.171 -1.87168 0.409713 0
M  V30 2676 C 252.365 -0.418249 3.54944 0
M  V30 2677 C 252.194 0.830327 4.41968 0
M  V30 2678 C 250.964 1.36097 4.86627 0
M  V30 2679 C 253.162 1.7137 4.84909 0
M  V30 2680 N 251.144 2.56311 5.57833 0
M  V30 2681 C 252.515 2.76195 5.55082 0
M  V30 2682 C 254.57 1.72928 4.66905 0
M  V30 2683 C 253.273 3.82512 6.09161 0
M  V30 2684 C 255.299 2.78175 5.21894 0
M  V30 2685 C 254.661 3.8172 5.92004 0
M  V30 2686 H 250.76 -0.0103958 0.781931 0
M  V30 2687 H 253.344 0.585981 1.85673 0
M  V30 2688 H 251.515 -1.10801 3.7226 0
M  V30 2689 H 253.247 -0.970999 3.92879 0
M  V30 2690 H 250.002 0.916311 4.64651 0
M  V30 2691 H 250.426 3.17242 5.98069 0
M  V30 2692 H 255.068 0.942081 4.12171 0
M  V30 2693 H 252.786 4.62077 6.62956 0
M  V30 2694 H 256.372 2.8031 5.09821 0
M  V30 2695 H 255.252 4.61821 6.33791 0
M  V30 2696 N 252.755 -1.56801 0.158532 0
M  V30 2697 C 253.703 -2.18638 -0.793729 0
M  V30 2698 C 254.697 -1.14669 -1.24689 0
M  V30 2699 O 255.903 -1.32895 -1.21403 0
M  V30 2700 H 252.278 -0.700226 -0.274204 0
M  V30 2701 H 254.249 -2.97367 -0.248095 0
M  V30 2702 C 252.998 -2.83139 -2.0181 0
M  V30 2703 H 252.321 -3.62863 -1.67841 0
M  V30 2704 H 253.761 -3.29894 -2.66357 0
M  V30 2705 C 252.22 -1.82244 -2.83353 0
M  V30 2706 O 252.75 -1.3 -3.80083 0
M  V30 2707 N 250.956 -1.51288 -2.48114 0
M  V30 2708 H 250.503 -1.93964 -1.69516 0
M  V30 2709 H 250.461 -0.840296 -3.02963 0
M  V30 2710 N 254.233 0.115231 -1.57178 0
M  V30 2711 C 255.143 1.15994 -2.03918 0
M  V30 2712 C 256.159 1.45103 -0.960268 0
M  V30 2713 O 257.335 1.56144 -1.27204 0
M  V30 2714 C 254.4 2.46568 -2.43732 0
M  V30 2715 C 253.461 2.24822 -3.65723 0
M  V30 2716 C 252.694 3.4917 -4.03629 0
M  V30 2717 O 252.917 4.56623 -3.41835 0
M  V30 2718 O 251.851 3.39949 -4.96708 0
M  V30 2719 H 255.677 0.793019 -2.93164 0
M  V30 2720 H 253.262 0.3263 -1.45793 0
M  V30 2721 H 255.144 3.23492 -2.70057 0
M  V30 2722 H 253.819 2.82726 -1.57631 0
M  V30 2723 H 252.726 1.45744 -3.44542 0
M  V30 2724 H 254.059 1.93566 -4.52541 0
M  V30 2725 N 255.711 1.52812 0.385517 0
M  V30 2726 C 257.122 1.5993 0.963293 0
M  V30 2727 C 257.473 0.454302 1.90868 0
M  V30 2728 O 256.598 -0.422132 2.12243 0
M  V30 2729 C 257.193 2.89871 1.75387 0
M  V30 2730 C 255.752 2.99389 2.28129 0
M  V30 2731 C 254.899 2.55071 1.08783 0
M  V30 2732 H 257.85 1.5784 0.164948 0
M  V30 2733 H 257.871 2.76553 2.61341 0
M  V30 2734 H 257.383 3.73186 1.06554 0
M  V30 2735 H 255.484 2.20619 3.00263 0
M  V30 2736 H 255.597 4.04096 2.57377 0
M  V30 2737 H 253.961 2.09473 1.4489 0
M  V30 2738 H 254.744 3.40785 0.414807 0
M  V30 2739 N 257.189 -0.644168 1.43834 0
M  V30 2740 C 258.436 -1.40395 1.4593 0
M  V30 2741 C 258.764 -1.94305 0.0869658 0
M  V30 2742 O 258.019 -1.73288 -0.909378 0
M  V30 2743 C 258.318 -2.59615 2.45631 0
M  V30 2744 C 257.984 -2.2407 3.91284 0
M  V30 2745 C 256.646 -2.14089 4.30952 0
M  V30 2746 C 258.998 -1.95775 4.83034 0
M  V30 2747 C 256.326 -1.73981 5.6031 0
M  V30 2748 C 258.678 -1.57163 6.12766 0
M  V30 2749 C 257.342 -1.45713 6.51402 0
M  V30 2750 H 256.612 -0.513741 0.533995 0
M  V30 2751 H 259.259 -0.731724 1.76969 0
M  V30 2752 H 257.564 -3.32011 2.08028 0
M  V30 2753 H 259.261 -3.17834 2.44504 0
M  V30 2754 H 255.851 -2.32753 3.59895 0
M  V30 2755 H 260.035 -2.02403 4.53152 0
M  V30 2756 H 255.291 -1.63709 5.89075 0
M  V30 2757 H 259.465 -1.34303 6.83327 0
M  V30 2758 H 257.092 -1.14406 7.51542 0
M  V30 2759 N 258.668 -1.30515 -0.883378 0
M  V30 2760 C 259.945 -1.10086 -1.6168 0
M  V30 2761 C 260.325 0.349269 -2.08191 0
M  V30 2762 O 259.673 1.34105 -1.85008 0
M  V30 2763 C 259.883 -2.10315 -2.78511 0
M  V30 2764 C 261.231 -2.42119 -3.48803 0
M  V30 2765 O 262.255 -2.08638 -2.88702 0
M  V30 2766 O 261.114 -2.99396 -4.57192 0
M  V30 2767 H 258.208 -0.422907 -0.710689 0
M  V30 2768 H 260.754 -1.41947 -0.930015 0
M  V30 2769 H 259.526 -3.07917 -2.41459 0
M  V30 2770 H 259.149 -1.79282 -3.54886 0
M  V30 2771 N 260.146 1.09593 -1.13257 0
M  V30 2772 C 261.056 2.19739 -0.821691 0
M  V30 2773 C 262.072 1.72926 0.19302 0
M  V30 2774 O 263.248 2.01385 0.0244895 0
M  V30 2775 C 260.313 3.45482 -0.290333 0
M  V30 2776 C 259.374 4.06985 -1.36607 0
M  V30 2777 C 258.607 5.26726 -0.859975 0
M  V30 2778 O 258.83 5.69594 0.303082 0
M  V30 2779 O 257.764 5.7931 -1.63351 0
M  V30 2780 H 261.59 2.48781 -1.74189 0
M  V30 2781 H 259.175 1.18496 -0.909894 0
M  V30 2782 H 261.057 4.214 0.000674022 0
M  V30 2783 H 259.732 3.18047 0.602306 0
M  V30 2784 H 258.639 3.32712 -1.71037 0
M  V30 2785 H 259.972 4.38643 -2.23279 0
M  V30 2786 N 261.624 0.925811 1.2754 0
M  V30 2787 C 262.852 0.581509 1.9856 0
M  V30 2788 C 263.267 -0.840041 1.69082 0
M  V30 2789 O 262.624 -1.55805 0.950312 0
M  V30 2790 C 262.675 0.795589 3.52637 0
M  V30 2791 O 262.396 2.16121 3.81082 0
M  V30 2792 C 263.897 0.459744 4.4091 0
M  V30 2793 H 261.117 0.220538 0.633722 0
M  V30 2794 H 263.661 1.24232 1.6244 0
M  V30 2795 H 261.816 0.18161 3.86974 0
M  V30 2796 H 262.23 2.2098 4.75676 0
M  V30 2797 H 263.704 0.660244 5.48037 0
M  V30 2798 H 264.181 -0.604625 4.35018 0
M  V30 2799 H 264.787 1.05178 4.12089 0
M  V30 2800 N 263.102 -1.41638 0.69111 0
M  V30 2801 C 264.332 -2.0533 0.228758 0
M  V30 2802 C 264.74 -1.52089 -1.12541 0
M  V30 2803 O 264.083 -0.662145 -1.71351 0
M  V30 2804 C 264.145 -3.59349 0.10407 0
M  V30 2805 C 263.809 -4.35362 1.38956 0
M  V30 2806 C 264.806 -4.64942 2.32648 0
M  V30 2807 C 262.491 -4.74714 1.64169 0
M  V30 2808 C 264.485 -5.32828 3.49818 0
M  V30 2809 C 262.172 -5.42338 2.81625 0
M  V30 2810 C 263.17 -5.71322 3.74273 0
M  V30 2811 O 262.858 -6.37554 4.89673 0
M  V30 2812 H 262.59 -0.667796 0.104997 0
M  V30 2813 H 265.144 -1.82477 0.942938 0
M  V30 2814 H 263.374 -3.80924 -0.665839 0
M  V30 2815 H 265.063 -4.04633 -0.320519 0
M  V30 2816 H 265.829 -4.35025 2.14425 0
M  V30 2817 H 261.708 -4.51538 0.929202 0
M  V30 2818 H 265.252 -5.55368 4.22152 0
M  V30 2819 H 261.149 -5.71673 2.99768 0
M  V30 2820 H 261.917 -6.56049 4.8943 0
M  V30 2821 N 264.58 -0.43555 -1.51462 0
M  V30 2822 C 265.808 0.130242 -2.0649 0
M  V30 2823 C 266.223 1.36614 -1.30315 0
M  V30 2824 O 265.58 1.78869 -0.362223 0
M  V30 2825 C 265.631 0.454253 -3.58635 0
M  V30 2826 O 265.352 -0.73259 -4.31931 0
M  V30 2827 C 266.853 1.07091 -4.3017 0
M  V30 2828 H 264.073 0.00871669 -0.670943 0
M  V30 2829 H 266.617 -0.614117 -1.95061 0
M  V30 2830 H 264.772 1.14851 -3.69984 0
M  V30 2831 H 265.186 -0.455787 -5.22516 0
M  V30 2832 H 266.66 1.24764 -5.37716 0
M  V30 2833 H 267.137 2.05144 -3.88346 0
M  V30 2834 H 267.743 0.416089 -4.2326 0
M  V30 2835 N 266.058 1.56714 -0.166846 0
M  V30 2836 C 267.474 1.58473 0.189372 0
M  V30 2837 C 267.674 1.18201 1.63189 0
M  V30 2838 O 266.73 0.891528 2.36237 0
M  V30 2839 C 268.043 3.00573 -0.0873872 0
M  V30 2840 C 269.591 3.1299 -0.0252443 0
M  V30 2841 C 270.066 4.57174 -0.274934 0
M  V30 2842 N 271.557 4.62665 -0.222553 0
M  V30 2843 C 272.292 5.72072 -0.389985 0
M  V30 2844 N 271.788 6.90054 -0.616229 0
M  V30 2845 N 273.581 5.61153 -0.326202 0
M  V30 2846 H 265.732 1.8118 -1.10849 0
M  V30 2847 H 267.995 0.839525 -0.440342 0
M  V30 2848 H 267.701 3.34497 -1.0865 0
M  V30 2849 H 267.575 3.72019 0.623037 0
M  V30 2850 H 269.962 2.78895 0.96444 0
M  V30 2851 H 270.043 2.43989 -0.768309 0
M  V30 2852 H 269.687 4.91976 -1.26181 0
M  V30 2853 H 269.617 5.24328 0.48869 0
M  V30 2854 H 272.108 3.77863 -0.0531512 0
M  V30 2855 H 272.421 7.69311 -0.733559 0
M  V30 2856 H 270.766 6.91927 -0.652791 0
M  V30 2857 H 273.957 4.67859 -0.150072 0
M  V30 2858 H 274.13 6.46364 -0.460116 0
M  V30 2859 N 267.536 -0.106894 1.57237 0
M  V30 2860 C 268.446 -1.14911 2.0453 0
M  V30 2861 C 269.462 -1.44592 0.96795 0
M  V30 2862 O 270.638 -1.55468 1.2803 0
M  V30 2863 C 267.703 -2.45272 2.45036 0
M  V30 2864 C 266.764 -2.22879 3.66911 0
M  V30 2865 C 265.997 -3.47024 4.05475 0
M  V30 2866 O 266.22 -4.54804 3.44252 0
M  V30 2867 O 265.154 -3.3731 4.98504 0
M  V30 2868 H 268.98 -0.777461 2.9358 0
M  V30 2869 H 266.565 -0.318563 1.45964 0
M  V30 2870 H 268.447 -3.22055 2.71769 0
M  V30 2871 H 267.122 -2.81886 1.59129 0
M  V30 2872 H 266.029 -1.43915 3.45311 0
M  V30 2873 H 267.362 -1.91163 4.53561 0
M  V30 2874 N 269.014 -1.53014 -0.377408 0
M  V30 2875 C 269.947 -1.73382 -1.48371 0
M  V30 2876 C 270.925 -0.581879 -1.51832 0
M  V30 2877 O 272.109 -0.81307 -1.70063 0
M  V30 2878 C 269.236 -1.80192 -2.8679 0
M  V30 2879 C 268.282 -3.02056 -3.01105 0
M  V30 2880 S 269.115 -4.61811 -2.71093 0
M  V30 2881 C 270.271 -4.71453 -4.11683 0
M  V30 2882 H 270.504 -2.66946 -1.30872 0
M  V30 2883 H 268.037 -1.43453 -0.571012 0
M  V30 2884 H 269.995 -1.84802 -3.6655 0
M  V30 2885 H 268.656 -0.877008 -3.01608 0
M  V30 2886 H 267.849 -3.03396 -4.02451 0
M  V30 2887 H 267.451 -2.95498 -2.29253 0
M  V30 2888 H 269.743 -4.50781 -5.0577 0
M  V30 2889 H 270.686 -5.73487 -4.15353 0
M  V30 2890 H 271.094 -4.00189 -3.98132 0
M  V30 2891 N 270.492 0.636531 -1.44174 0
M  V30 2892 C 271.903 1.21806 -1.41493 0
M  V30 2893 C 272.254 1.95785 -0.1275 0
M  V30 2894 O 271.379 2.02147 0.772376 0
M  V30 2895 C 271.974 2.21551 -2.56321 0
M  V30 2896 C 270.533 2.75143 -2.56853 0
M  V30 2897 C 269.68 1.50052 -2.33195 0
M  V30 2898 H 272.631 0.427531 -1.52833 0
M  V30 2899 H 272.652 3.0405 -2.28765 0
M  V30 2900 H 272.164 1.67679 -3.50008 0
M  V30 2901 H 270.265 3.33033 -1.67093 0
M  V30 2902 H 270.378 3.2155 -3.55165 0
M  V30 2903 H 268.742 1.77993 -1.82183 0
M  V30 2904 H 269.525 0.980903 -3.28988 0
M  V30 2905 N 271.97 1.30982 0.876444 0
M  V30 2906 C 273.217 1.20296 1.62896 0
M  V30 2907 C 273.545 -0.240395 1.93009 0
M  V30 2908 O 272.8 -1.18733 1.55567 0
M  V30 2909 C 273.099 1.98572 2.9716 0
M  V30 2910 C 272.765 3.48125 2.86566 0
M  V30 2911 C 271.427 3.88905 2.83383 0
M  V30 2912 C 273.779 4.43322 2.74071 0
M  V30 2913 C 271.107 5.2316 2.65556 0
M  V30 2914 C 273.459 5.77695 2.57781 0
M  V30 2915 C 272.123 6.17704 2.52979 0
M  V30 2916 H 271.393 0.440193 0.59608 0
M  V30 2917 H 274.04 1.62177 1.01837 0
M  V30 2918 H 272.345 1.49352 3.62217 0
M  V30 2919 H 274.042 1.8769 3.54364 0
M  V30 2920 H 270.632 3.15723 2.89856 0
M  V30 2921 H 274.816 4.12752 2.75589 0
M  V30 2922 H 270.072 5.53241 2.60259 0
M  V30 2923 H 274.246 6.51091 2.47089 0
M  V30 2924 H 271.873 7.21678 2.38924 0
M  V30 2925 N 273.449 -1.08991 1.13837 0
M  V30 2926 C 274.396 -2.15748 0.819835 0
M  V30 2927 C 275.366 -1.64636 -0.220026 0
M  V30 2928 O 276.551 -1.90582 -0.0912757 0
M  V30 2929 C 273.691 -3.4382 0.296913 0
M  V30 2930 C 272.804 -4.0881 1.39636 0
M  V30 2931 C 271.939 -5.24655 0.831314 0
M  V30 2932 C 270.978 -5.81575 1.90886 0
M  V30 2933 N 270.115 -6.88774 1.36142 0
M  V30 2934 H 274.955 -2.42338 1.73426 0
M  V30 2935 H 272.492 -1.18935 0.865613 0
M  V30 2936 H 274.45 -4.17193 -0.0244339 0
M  V30 2937 H 273.08 -3.17535 -0.580628 0
M  V30 2938 H 272.132 -3.33258 1.83422 0
M  V30 2939 H 273.444 -4.47141 2.21058 0
M  V30 2940 H 272.598 -6.04942 0.461515 0
M  V30 2941 H 271.337 -4.87698 -0.013932 0
M  V30 2942 H 270.342 -4.99946 2.28767 0
M  V30 2943 H 271.567 -6.20592 2.75758 0
M  V30 2944 H 269.513 -6.53788 0.538254 0
M  V30 2945 H 269.43 -7.25898 2.11208 0
M  V30 2946 H 270.698 -7.72806 1.01933 0
M  V30 2947 N 274.927 -0.932562 -1.27047 0
M  V30 2948 C 276.176 -0.571351 -1.93439 0
M  V30 2949 C 276.489 0.892467 -1.74053 0
M  V30 2950 O 277.695 1.36267 -2.34826 0
M  V30 2951 C 276.151 -0.97106 -3.46552 0
M  V30 2952 C 275.759 -2.4559 -3.74686 0
M  V30 2953 C 277.503 -0.681333 -4.18997 0
M  V30 2954 C 275.41 -2.79475 -5.21198 0
M  V30 2955 H 274.34 -0.209966 -0.724176 0
M  V30 2956 H 276.991 -1.13403 -1.44263 0
M  V30 2957 H 275.373 -0.336983 -3.94564 0
M  V30 2958 H 276.547 -3.13829 -3.37414 0
M  V30 2959 H 274.862 -2.71802 -3.15456 0
M  V30 2960 H 277.459 -0.910939 -5.26883 0
M  V30 2961 H 277.802 0.381628 -4.14547 0
M  V30 2962 H 278.335 -1.27473 -3.76823 0
M  V30 2963 H 275.074 -3.847 -5.30741 0
M  V30 2964 H 274.594 -2.1589 -5.596 0
M  V30 2965 H 276.273 -2.67478 -5.89122 0
M  V30 2966 N 276.405 1.4127 -0.698611 0
M  V30 2967 C 277.353 2.32588 -0.023855 0
M  V30 2968 C 278.347 1.51128 0.765292 0
M  V30 2969 O 279.553 1.67043 0.670571 0
M  V30 2970 H 275.928 0.751918 0.0110871 0
M  V30 2971 H 277.899 2.87167 -0.811031 0
M  V30 2972 C 276.648 3.35947 0.896369 0
M  V30 2973 H 275.971 3.98684 0.298548 0
M  V30 2974 H 277.411 4.02376 1.33676 0
M  V30 2975 C 275.87 2.70076 2.01396 0
M  V30 2976 O 276.4 2.55093 3.10307 0
M  V30 2977 N 274.606 2.28724 1.79259 0
M  V30 2978 H 274.153 2.4111 0.906841 0
M  V30 2979 H 274.111 1.84986 2.54219 0
M  V30 2980 N 277.883 0.443576 1.51229 0
M  V30 2981 C 278.815 -0.400608 2.25672 0
M  V30 2982 C 279.828 -0.980945 1.29928 0
M  V30 2983 O 281.017 -0.874024 1.55638 0
M  V30 2984 C 278.117 -1.57304 3.00181 0
M  V30 2985 C 277.29 -1.11046 4.23069 0
M  V30 2986 C 276.349 -2.15374 4.80105 0
M  V30 2987 O 275.375 -1.74554 5.41774 0
M  V30 2988 N 276.577 -3.47922 4.64683 0
M  V30 2989 H 279.342 0.23745 2.98758 0
M  V30 2990 H 276.903 0.272809 1.59585 0
M  V30 2991 H 278.895 -2.26733 3.35223 0
M  V30 2992 H 277.465 -2.11632 2.30066 0
M  V30 2993 H 276.685 -0.243019 3.9345 0
M  V30 2994 H 277.973 -0.778888 5.02803 0
M  V30 2995 H 277.371 -3.83815 4.15575 0
M  V30 2996 H 275.928 -4.13228 5.0407 0
M  V30 2997 N 279.361 -1.56624 0.175154 0
M  V30 2998 C 280.271 -2.21741 -0.766042 0
M  V30 2999 C 281.287 -1.21023 -1.25018 0
M  V30 3000 O 282.463 -1.53697 -1.3015 0
M  V30 3001 C 279.528 -2.84839 -1.97655 0
M  V30 3002 C 278.589 -4.00769 -1.53892 0
M  V30 3003 C 277.822 -4.60849 -2.69173 0
M  V30 3004 O 278.045 -4.19823 -3.86141 0
M  V30 3005 O 276.979 -5.50655 -2.43028 0
M  V30 3006 H 280.805 -3.02738 -0.241585 0
M  V30 3007 H 278.39 -1.49305 -0.053222 0
M  V30 3008 H 280.272 -3.24834 -2.68442 0
M  V30 3009 H 278.947 -2.06836 -2.48999 0
M  V30 3010 H 277.854 -3.65436 -0.80044 0
M  V30 3011 H 279.187 -4.80376 -1.07236 0
M  V30 3012 N 280.839 0.0985539 -1.57292 0
M  V30 3013 C 281.749 1.13824 -2.05137 0
M  V30 3014 C 282.765 1.44076 -0.975604 0
M  V30 3015 O 283.941 1.54786 -1.28853 0
M  V30 3016 C 281.006 2.43969 -2.46333 0
M  V30 3017 C 280.067 2.2093 -3.68087 0
M  V30 3018 C 279.3 3.44869 -4.0731 0
M  V30 3019 O 279.523 4.52972 -3.46659 0
M  V30 3020 O 278.457 3.34661 -5.00285 0
M  V30 3021 H 282.283 0.761881 -2.93988 0
M  V30 3022 H 279.868 0.310818 -1.46131 0
M  V30 3023 H 281.75 3.20609 -2.73473 0
M  V30 3024 H 280.425 2.81038 -1.60621 0
M  V30 3025 H 279.332 1.42081 -3.46069 0
M  V30 3026 H 280.665 1.88755 -4.54568 0
M  V30 3027 N 282.317 1.53212 0.369288 0
M  V30 3028 C 283.249 1.75668 1.47219 0
M  V30 3029 C 284.262 0.637387 1.49804 0
M  V30 3030 O 285.451 0.913561 1.5335 0
M  V30 3031 C 282.551 1.81818 2.85999 0
M  V30 3032 C 281.724 3.11409 3.07153 0
M  V30 3033 C 280.783 3.08849 4.26026 0
M  V30 3034 O 279.809 3.82659 4.2138 0
M  V30 3035 N 281.011 2.29409 5.33246 0
M  V30 3036 H 283.776 2.70832 1.28337 0
M  V30 3037 H 281.337 1.51944 0.55898 0
M  V30 3038 H 283.329 1.77588 3.63655 0
M  V30 3039 H 281.899 0.939544 2.98146 0
M  V30 3040 H 281.119 3.28971 2.1719 0
M  V30 3041 H 282.407 3.97059 3.18154 0
M  V30 3042 H 281.805 1.68946 5.39883 0
M  V30 3043 H 280.362 2.31001 6.09493 0
M  V30 3044 N 283.795 -0.628877 1.44509 0
M  V30 3045 C 285.211 -0.947305 1.28446 0
M  V30 3046 C 285.411 -2.00275 0.221872 0
M  V30 3047 O 284.467 -2.49447 -0.391471 0
M  V30 3048 C 285.78 -1.40843 2.65676 0
M  V30 3049 C 287.328 -1.52379 2.73404 0
M  V30 3050 C 287.803 -2.01875 4.11109 0
M  V30 3051 N 289.294 -2.09142 4.13296 0
M  V30 3052 C 290.029 -2.48615 5.16699 0
M  V30 3053 N 289.525 -2.87209 6.30462 0
M  V30 3054 N 291.318 -2.48768 5.04054 0
M  V30 3055 H 283.469 0.0690977 2.12288 0
M  V30 3056 H 285.732 -0.0317164 0.947469 0
M  V30 3057 H 285.438 -0.707206 3.44516 0
M  V30 3058 H 285.312 -2.37902 2.92716 0
M  V30 3059 H 287.699 -2.21598 1.9488 0
M  V30 3060 H 287.78 -0.536898 2.50102 0
M  V30 3061 H 287.424 -1.3325 4.90109 0
M  V30 3062 H 287.354 -3.0144 4.31789 0
M  V30 3063 H 289.845 -1.81991 3.31191 0
M  V30 3064 H 290.158 -3.16149 7.05174 0
M  V30 3065 H 288.503 -2.84955 6.33897 0
M  V30 3066 H 291.694 -2.18009 4.14234 0
M  V30 3067 H 291.867 -2.79207 5.84763 0
M  V30 3068 N 285.273 -1.31445 -0.869486 0
M  V30 3069 C 286.684 -1.19042 -1.43826 0
M  V30 3070 C 287.035 0.202919 -1.95148 0
M  V30 3071 O 286.16 1.10071 -1.86315 0
M  V30 3072 C 286.755 -2.15499 -2.6143 0
M  V30 3073 C 285.314 -2.07028 -3.14351 0
M  V30 3074 C 284.461 -2.04701 -1.87063 0
M  V30 3075 H 287.412 -1.43489 -0.677984 0
M  V30 3076 H 287.433 -1.74488 -3.38134 0
M  V30 3077 H 286.945 -3.16899 -2.24046 0
M  V30 3078 H 285.046 -1.08825 -3.56354 0
M  V30 3079 H 285.159 -2.96157 -3.766 0
M  V30 3080 H 283.523 -1.49724 -2.06046 0
M  V30 3081 H 284.306 -3.07857 -1.51917 0
M  V30 3082 N 286.751 1.08385 -1.14413 0
M  V30 3083 C 287.997 1.81044 -0.913834 0
M  V30 3084 C 288.33 1.86004 0.558209 0
M  V30 3085 O 287.605 1.33606 1.4135 0
M  V30 3086 C 287.888 3.26648 -1.51569 0
M  V30 3087 C 287.741 3.29895 -3.0576 0
M  V30 3088 C 289.06 4.23629 -1.19273 0
M  V30 3089 H 286.179 0.65727 -0.333414 0
M  V30 3090 H 288.821 1.26896 -1.41412 0
M  V30 3091 H 286.971 3.72889 -1.09023 0
M  V30 3092 H 288.643 2.91977 -3.57137 0
M  V30 3093 H 286.886 2.69163 -3.40197 0
M  V30 3094 H 287.557 4.32516 -3.42977 0
M  V30 3095 H 290.033 3.85727 -1.56057 0
M  V30 3096 H 288.909 5.23822 -1.64017 0
M  V30 3097 H 289.17 4.41968 -0.108068 0
M  V30 3098 N 288.23 0.939286 1.26551 0
M  V30 3099 C 289.162 0.404704 2.25599 0
M  V30 3100 C 290.175 -0.470983 1.55838 0
M  V30 3101 O 291.364 -0.281734 1.76263 0
M  V30 3102 C 288.464 -0.43764 3.36062 0
M  V30 3103 C 287.637 0.421449 4.35365 0
M  V30 3104 C 286.696 -0.36015 5.24966 0
M  V30 3105 O 285.722 0.236167 5.6871 0
M  V30 3106 N 286.924 -1.65715 5.56344 0
M  V30 3107 H 289.689 1.25618 2.72103 0
M  V30 3108 H 287.25 0.807963 1.40298 0
M  V30 3109 H 289.242 -0.967866 3.92956 0
M  V30 3110 H 287.812 -1.18991 2.89067 0
M  V30 3111 H 287.032 1.1329 3.7757 0
M  V30 3112 H 288.32 1.00835 4.98708 0
M  V30 3113 H 287.718 -2.16378 5.22682 0
M  V30 3114 H 286.275 -2.13366 6.15888 0
M  V30 3115 N 289.708 -1.40897 0.706093 0
M  V30 3116 C 290.641 -2.282 -0.00328781 0
M  V30 3117 C 291.619 -1.42816 -0.77732 0
M  V30 3118 O 292.803 -1.72237 -0.765944 0
M  V30 3119 C 289.93 -3.23226 -1.01205 0
M  V30 3120 C 288.976 -4.25222 -0.329955 0
M  V30 3121 S 289.809 -5.27269 0.935298 0
M  V30 3122 C 290.965 -6.25859 -0.0716061 0
M  V30 3123 H 291.198 -2.88016 0.737143 0
M  V30 3124 H 288.731 -1.46191 0.496756 0
M  V30 3125 H 290.689 -3.78503 -1.58888 0
M  V30 3126 H 289.35 -2.62485 -1.72513 0
M  V30 3127 H 288.543 -4.92023 -1.09221 0
M  V30 3128 H 288.145 -3.73595 0.174069 0
M  V30 3129 H 290.437 -6.71204 -0.921521 0
M  V30 3130 H 291.38 -7.0586 0.562765 0
M  V30 3131 H 291.788 -5.62852 -0.431088 0
M  V30 3132 N 291.186 -0.45159 -1.50991 0
M  V30 3133 C 292.119 0.398179 -2.24699 0
M  V30 3134 C 293.097 1.01276 -1.27208 0
M  V30 3135 O 294.281 1.05247 -1.56382 0
M  V30 3136 C 291.408 1.55618 -3.00833 0
M  V30 3137 C 290.454 1.0609 -4.13095 0
M  V30 3138 S 291.287 -0.00865136 -5.35499 0
M  V30 3139 C 292.443 1.15369 -6.15175 0
M  V30 3140 H 292.676 -0.227555 -2.96428 0
M  V30 3141 H 290.209 -0.236251 -1.52582 0
M  V30 3142 H 292.167 2.21997 -3.45293 0
M  V30 3143 H 290.828 2.15337 -2.28667 0
M  V30 3144 H 290.021 1.92726 -4.65696 0
M  V30 3145 H 289.623 0.47513 -3.7097 0
M  V30 3146 H 291.915 2.06925 -6.45126 0
M  V30 3147 H 292.858 0.667344 -7.04948 0
M  V30 3148 H 293.266 1.3987 -5.46897 0
M  V30 3149 N 292.664 1.56529 -0.183458 0
M  V30 3150 C 293.894 2.01331 0.463612 0
M  V30 3151 C 294.302 1.06278 1.5653 0
M  V30 3152 O 293.645 0.0577976 1.83609 0
M  V30 3153 C 293.707 3.42547 1.09096 0
M  V30 3154 C 293.371 4.56817 0.129442 0
M  V30 3155 C 294.368 5.15734 -0.656807 0
M  V30 3156 C 292.053 5.02295 0.02174 0
M  V30 3157 C 294.047 6.1857 -1.53784 0
M  V30 3158 C 291.734 6.04978 -0.862864 0
M  V30 3159 C 292.732 6.62988 -1.64123 0
M  V30 3160 O 292.42 7.63677 -2.51103 0
M  V30 3161 H 292.152 0.664917 0.121907 0
M  V30 3162 H 294.706 2.034 -0.285954 0
M  V30 3163 H 292.936 3.37428 1.88889 0
M  V30 3164 H 294.625 3.71228 1.64148 0
M  V30 3165 H 295.391 4.81473 -0.583839 0
M  V30 3166 H 291.27 4.56847 0.617392 0
M  V30 3167 H 294.814 6.63777 -2.14583 0
M  V30 3168 H 290.711 6.38663 -0.93699 0
M  V30 3169 H 291.479 7.81049 -2.44753 0
M  V30 3170 N 294.142 -0.090211 1.57342 0
M  V30 3171 C 295.074 -1.13541 1.99101 0
M  V30 3172 C 296.087 -1.3604 0.894258 0
M  V30 3173 O 297.276 -1.34606 1.17233 0
M  V30 3174 C 294.376 -2.49001 2.29895 0
M  V30 3175 C 293.549 -2.46712 3.61182 0
M  V30 3176 C 292.608 -3.64136 3.79857 0
M  V30 3177 O 291.634 -3.46405 4.51655 0
M  V30 3178 N 292.836 -4.83802 3.20806 0
M  V30 3179 H 295.601 -0.779942 2.89373 0
M  V30 3180 H 293.162 -0.279125 1.59476 0
M  V30 3181 H 295.154 -3.26166 2.39578 0
M  V30 3182 H 293.724 -2.76619 1.45605 0
M  V30 3183 H 292.944 -1.55058 3.62423 0
M  V30 3184 H 294.232 -2.42265 4.4742 0
M  V30 3185 H 293.63 -5.01112 2.62494 0
M  V30 3186 H 292.187 -5.58543 3.35966 0
M  V30 3187 N 295.62 -1.53406 -0.361157 0
M  V30 3188 C 296.53 -1.83122 -1.4664 0
M  V30 3189 C 297.546 -0.719943 -1.58407 0
M  V30 3190 O 298.722 -1.01046 -1.74218 0
M  V30 3191 C 295.787 -2.01891 -2.81853 0
M  V30 3192 C 294.848 -3.25784 -2.79577 0
M  V30 3193 C 294.081 -3.43648 -4.0834 0
M  V30 3194 O 294.304 -2.65714 -5.0473 0
M  V30 3195 O 293.238 -4.37018 -4.13883 0
M  V30 3196 H 297.064 -2.7703 -1.24451 0
M  V30 3197 H 294.649 -1.38841 -0.551678 0
M  V30 3198 H 296.531 -2.15782 -3.61962 0
M  V30 3199 H 295.206 -1.11173 -3.0401 0
M  V30 3200 H 294.113 -3.17312 -1.98151 0
M  V30 3201 H 295.446 -4.16439 -2.62373 0
M  V30 3202 N 297.098 0.621204 -1.44841 0
M  V30 3203 C 298.061 1.71459 -1.521 0
M  V30 3204 C 299.061 1.55696 -0.401933 0
M  V30 3205 O 300.251 1.61011 -0.664925 0
M  V30 3206 C 297.383 3.10624 -1.40447 0
M  V30 3207 H 298.576 1.66394 -2.49506 0
M  V30 3208 H 296.129 0.835745 -1.3208 0
M  V30 3209 H 296.864 3.21277 -0.441737 0
M  V30 3210 H 296.649 3.23473 -2.21602 0
M  V30 3211 H 298.139 3.90293 -1.4853 0
M  V30 3212 N 298.576 1.31904 0.862503 0
M  V30 3213 C 299.804 1.24998 1.64873 0
M  V30 3214 C 300.219 -0.183425 1.87907 0
M  V30 3215 O 299.576 -1.11794 1.44251 0
M  V30 3216 C 299.627 1.99829 3.01248 0
M  V30 3217 O 299.348 3.37575 2.79239 0
M  V30 3218 C 300.849 1.99852 3.95694 0
M  V30 3219 H 298.069 0.431599 0.513773 0
M  V30 3220 H 300.613 1.73901 1.07604 0
M  V30 3221 H 298.768 1.54668 3.55185 0
M  V30 3222 H 299.182 3.75776 3.65914 0
M  V30 3223 H 300.656 2.56709 4.88676 0
M  V30 3224 H 301.133 0.982852 4.28062 0
M  V30 3225 H 301.739 2.44926 3.47694 0
M  V30 3226 N 300.054 -1.07777 1.14986 0
M  V30 3227 C 301.301 -1.8029 0.922056 0
M  V30 3228 C 301.629 -1.86531 -0.55105 0
M  V30 3229 O 300.884 -1.34189 -1.42449 0
M  V30 3230 C 301.183 -3.25495 1.47608 0
M  V30 3231 C 300.849 -3.39361 2.96893 0
M  V30 3232 C 299.511 -3.42852 3.37647 0
M  V30 3233 C 301.863 -3.42512 3.92854 0
M  V30 3234 C 299.191 -3.47094 4.73015 0
M  V30 3235 C 301.543 -3.4829 5.28088 0
M  V30 3236 C 300.207 -3.50058 5.68345 0
M  V30 3237 H 299.477 -0.659727 0.337404 0
M  V30 3238 H 302.124 -1.26854 1.43459 0
M  V30 3239 H 300.429 -3.81683 0.88463 0
M  V30 3240 H 302.126 -3.80168 1.27568 0
M  V30 3241 H 298.716 -3.37339 2.64387 0
M  V30 3242 H 302.9 -3.3904 3.62444 0
M  V30 3243 H 298.156 -3.46758 5.03556 0
M  V30 3244 H 302.33 -3.49675 6.02246 0
M  V30 3245 H 299.957 -3.53097 6.73221 0
M  V30 3246 N 301.532 -0.945985 -1.26051 0
M  V30 3247 C 302.479 -0.45809 -2.26208 0
M  V30 3248 C 303.449 0.484816 -1.58867 0
M  V30 3249 O 304.634 0.399969 -1.86561 0
M  V30 3250 C 301.774 0.266131 -3.44072 0
M  V30 3251 C 300.887 -0.713005 -4.26075 0
M  V30 3252 C 300.022 0.0329013 -5.3119 0
M  V30 3253 C 299.061 -0.93774 -6.04874 0
M  V30 3254 N 298.198 -0.223274 -7.01745 0
M  V30 3255 H 303.038 -1.3171 -2.67313 0
M  V30 3256 H 300.575 -0.66069 -1.31428 0
M  V30 3257 H 302.533 0.702514 -4.11243 0
M  V30 3258 H 301.163 1.08925 -3.03867 0
M  V30 3259 H 300.215 -1.26789 -3.58648 0
M  V30 3260 H 301.527 -1.45406 -4.77136 0
M  V30 3261 H 300.681 0.528335 -6.04395 0
M  V30 3262 H 299.42 0.806801 -4.8098 0
M  V30 3263 H 298.425 -1.44425 -5.30492 0
M  V30 3264 H 299.65 -1.71172 -6.57173 0
M  V30 3265 H 297.596 0.532046 -6.53839 0
M  V30 3266 H 297.513 -0.90357 -7.50581 0
M  V30 3267 H 298.781 0.250907 -7.79096 0
M  V30 3268 N 303.011 1.40521 -0.713556 0
M  V30 3269 C 303.941 2.33381 -0.0743864 0
M  V30 3270 C 304.922 1.52784 0.747735 0
M  V30 3271 O 306.107 1.81258 0.697071 0
M  V30 3272 C 303.237 3.36748 0.849598 0
M  V30 3273 C 302.191 4.27793 0.133247 0
M  V30 3274 C 301.517 5.21679 1.17281 0
M  V30 3275 C 302.817 5.12415 -1.01134 0
M  V30 3276 H 304.511 2.87081 -0.850007 0
M  V30 3277 H 302.057 1.38034 -0.410201 0
M  V30 3278 H 304.01 4.00648 1.30612 0
M  V30 3279 H 302.734 2.81439 1.65709 0
M  V30 3280 H 301.393 3.65342 -0.303426 0
M  V30 3281 H 301.041 4.62677 1.9733 0
M  V30 3282 H 300.741 5.83435 0.698397 0
M  V30 3283 H 302.265 5.88456 1.62947 0
M  V30 3284 H 303.679 5.69781 -0.634274 0
M  V30 3285 H 302.076 5.83203 -1.41399 0
M  V30 3286 H 303.146 4.48514 -1.84292 0
M  V30 3287 N 304.489 0.459591 1.5075 0
M  V30 3288 C 305.452 -0.329093 2.26825 0
M  V30 3289 C 306.452 -0.930481 1.31144 0
M  V30 3290 O 307.642 -0.801453 1.54669 0
M  V30 3291 C 304.774 -1.46768 3.07688 0
M  V30 3292 H 305.967 0.337924 2.9799 0
M  V30 3293 H 303.52 0.213336 1.54837 0
M  V30 3294 H 304.255 -2.17009 2.40993 0
M  V30 3295 H 304.04 -1.04238 3.77991 0
M  V30 3296 H 305.53 -2.02433 3.65254 0
M  V30 3297 N 305.967 -1.56429 0.191757 0
M  V30 3298 C 306.917 -2.15548 -0.743184 0
M  V30 3299 C 307.901 -1.09531 -1.17863 0
M  V30 3300 O 309.093 -1.35602 -1.13759 0
M  V30 3301 C 306.222 -2.81577 -1.96391 0
M  V30 3302 C 305.308 -3.9478 -1.54951 0
M  V30 3303 N 305.699 -4.98677 -0.845876 0
M  V30 3304 C 303.997 -4.06319 -1.83905 0
M  V30 3305 C 304.698 -5.78183 -0.638724 0
M  V30 3306 N 303.674 -5.30495 -1.18643 0
M  V30 3307 H 307.476 -2.9324 -0.196839 0
M  V30 3308 H 304.99 -1.62398 -0.0081603 0
M  V30 3309 H 306.987 -3.22321 -2.64415 0
M  V30 3310 H 305.647 -2.05371 -2.51501 0
M  V30 3311 H 306.658 -5.15464 -0.501704 0
M  V30 3312 H 303.335 -3.41238 -2.40548 0
M  V30 3313 H 304.725 -6.71851 -0.0807929 0
M  V30 3314 N 307.445 0.0818655 -1.57387 0
M  V30 3315 C 308.691 0.784074 -1.8703 0
M  V30 3316 C 309.024 1.77729 -0.782689 0
M  V30 3317 O 308.299 1.93384 0.208051 0
M  V30 3318 C 308.582 1.50105 -3.27323 0
M  V30 3319 C 308.435 0.524925 -4.46727 0
M  V30 3320 C 309.754 2.44843 -3.65705 0
M  V30 3321 H 306.873 0.283582 -0.680257 0
M  V30 3322 H 309.515 0.0474352 -1.89941 0
M  V30 3323 H 307.665 2.12897 -3.24972 0
M  V30 3324 H 309.337 -0.0970111 -4.61198 0
M  V30 3325 H 307.58 -0.160606 -4.33503 0
M  V30 3326 H 308.251 1.064 -5.41648 0
M  V30 3327 H 310.727 1.92135 -3.69085 0
M  V30 3328 H 309.603 2.92018 -4.64776 0
M  V30 3329 H 309.864 3.29197 -2.95096 0
M  V30 3330 N 308.923 1.53595 0.353017 0
M  V30 3331 C 310.171 1.70049 1.09215 0
M  V30 3332 C 310.492 0.461406 1.89463 0
M  V30 3333 O 309.762 -0.524633 1.88744 0
M  V30 3334 H 308.342 0.626912 0.40619 0
M  V30 3335 H 311.004 1.90822 0.396585 0
M  V30 3336 H 310.1 2.56718 1.77488 0
M  V30 3337 N 310.401 -0.613514 1.45168 0
M  V30 3338 C 311.311 -1.75296 1.55912 0
M  V30 3339 C 312.327 -1.68244 0.443856 0
M  V30 3340 O 313.503 -1.88706 0.70371 0
M  V30 3341 C 310.568 -3.1174 1.5172 0
M  V30 3342 C 309.629 -3.30291 2.74238 0
M  V30 3343 C 308.862 -4.60226 2.70236 0
M  V30 3344 O 309.085 -5.42168 1.77229 0
M  V30 3345 O 308.019 -4.81361 3.61352 0
M  V30 3346 H 311.845 -1.69183 2.52212 0
M  V30 3347 H 309.43 -0.776886 1.27612 0
M  V30 3348 H 311.312 -3.93044 1.51968 0
M  V30 3349 H 309.987 -3.18357 0.585697 0
M  V30 3350 H 308.894 -2.48598 2.79553 0
M  V30 3351 H 310.227 -3.28547 3.66494 0
M  V30 3352 N 311.879 -1.3236 -0.855495 0
M  V30 3353 C 313.125 -1.23054 -1.612 0
M  V30 3354 C 313.458 0.207404 -1.93089 0
M  V30 3355 O 312.733 1.14432 -1.57275 0
M  V30 3356 C 313.016 -2.08937 -2.93287 0
M  V30 3357 C 312.869 -3.61105 -2.68185 0
M  V30 3358 C 314.188 -1.94986 -3.94549 0
M  V30 3359 H 311.307 -0.448364 -0.584926 0
M  V30 3360 H 313.949 -1.62297 -0.987917 0
M  V30 3361 H 312.099 -1.75599 -3.46551 0
M  V30 3362 H 313.771 -4.04652 -2.21483 0
M  V30 3363 H 312.014 -3.83813 -2.02164 0
M  V30 3364 H 312.685 -4.16522 -3.62234 0
M  V30 3365 H 315.161 -2.24189 -3.5054 0
M  V30 3366 H 314.037 -2.57356 -4.84829 0
M  V30 3367 H 314.298 -0.917263 -4.3248 0
M  V30 3368 N 313.357 1.07166 -1.15556 0
M  V30 3369 C 314.773 1.31899 -0.898603 0
M  V30 3370 C 314.973 1.96333 0.453383 0
M  V30 3371 O 314.029 2.22438 1.19489 0
M  V30 3372 C 315.342 2.20826 -2.04099 0
M  V30 3373 C 316.89 2.34269 -2.07574 0
M  V30 3374 C 317.365 3.26546 -3.21141 0
M  V30 3375 N 318.856 3.34127 -3.20801 0
M  V30 3376 C 319.591 4.05595 -4.05315 0
M  V30 3377 N 319.087 4.79661 -4.99897 0
M  V30 3378 N 320.88 4.01555 -3.93332 0
M  V30 3379 H 313.031 0.637302 -2.02613 0
M  V30 3380 H 315.294 0.343468 -0.883591 0
M  V30 3381 H 315 1.80744 -3.01703 0
M  V30 3382 H 314.874 3.21364 -1.97496 0
M  V30 3383 H 317.261 2.73603 -1.10568 0
M  V30 3384 H 317.342 1.33429 -2.18244 0
M  V30 3385 H 316.986 2.87931 -4.184 0
M  V30 3386 H 316.916 4.27345 -3.07708 0
M  V30 3387 H 319.407 2.81336 -2.52306 0
M  V30 3388 H 319.72 5.31694 -5.60822 0
M  V30 3389 H 318.065 4.78671 -5.03884 0
M  V30 3390 H 321.256 3.42806 -3.18751 0
M  V30 3391 H 321.429 4.56987 -4.5942 0
M  V30 3392 N 314.835 0.952656 1.25548 0
M  V30 3393 C 315.798 0.475794 2.24207 0
M  V30 3394 C 316.798 -0.419428 1.55234 0
M  V30 3395 O 317.988 -0.216994 1.72843 0
M  V30 3396 C 315.12 -0.312814 3.39462 0
M  V30 3397 H 316.313 1.34779 2.67908 0
M  V30 3398 H 313.866 0.735739 1.37901 0
M  V30 3399 H 314.601 -1.20257 3.01179 0
M  V30 3400 H 314.386 0.329404 3.90714 0
M  V30 3401 H 315.876 -0.635986 4.12729 0
M  V30 3402 N 316.313 -1.40141 0.720998 0
M  V30 3403 C 317.245 -2.29177 0.0324669 0
M  V30 3404 C 318.258 -1.46105 -0.718126 0
M  V30 3405 O 319.447 -1.69335 -0.564608 0
M  V30 3406 C 316.547 -3.24473 -0.978292 0
M  V30 3407 C 315.72 -4.36423 -0.292115 0
M  V30 3408 C 314.779 -5.12122 -1.20901 0
M  V30 3409 O 313.805 -5.64981 -0.691766 0
M  V30 3410 N 315.007 -5.21992 -2.53978 0
M  V30 3411 H 317.772 -2.88909 0.796984 0
M  V30 3412 H 315.333 -1.51569 0.569068 0
M  V30 3413 H 317.325 -3.71987 -1.59398 0
M  V30 3414 H 315.895 -2.65871 -1.64413 0
M  V30 3415 H 315.115 -3.90967 0.503847 0
M  V30 3416 H 316.403 -5.08467 0.183971 0
M  V30 3417 H 315.801 -4.8054 -2.98493 0
M  V30 3418 H 314.358 -5.72995 -3.10677 0
M  V30 3419 N 317.792 -0.46758 -1.50504 0
M  V30 3420 C 318.722 0.318381 -2.31319 0
M  V30 3421 C 319.703 0.993564 -1.38066 0
M  V30 3422 O 320.888 0.991411 -1.66987 0
M  V30 3423 C 318.018 1.40275 -3.17711 0
M  V30 3424 C 316.972 0.849373 -4.19487 0
M  V30 3425 C 316.298 2.03177 -4.94594 0
M  V30 3426 C 317.598 -0.136942 -5.2212 0
M  V30 3427 H 319.292 -0.356106 -2.97275 0
M  V30 3428 H 316.838 -0.172703 -1.42961 0
M  V30 3429 H 318.791 1.96004 -3.73042 0
M  V30 3430 H 317.515 2.10596 -2.49634 0
M  V30 3431 H 316.174 0.314076 -3.65252 0
M  V30 3432 H 315.822 2.72187 -4.22993 0
M  V30 3433 H 315.522 1.66774 -5.63436 0
M  V30 3434 H 317.046 2.59403 -5.52759 0
M  V30 3435 H 318.46 0.331056 -5.72343 0
M  V30 3436 H 316.857 -0.41507 -5.98663 0
M  V30 3437 H 317.927 -1.06398 -4.73083 0
M  V30 3438 N 319.27 1.56325 -0.20005 0
M  V30 3439 C 320.2 2.22318 0.713916 0
M  V30 3440 C 321.181 1.18788 1.21752 0
M  V30 3441 O 322.366 1.47309 1.26545 0
M  V30 3442 C 319.496 2.88639 1.93144 0
M  V30 3443 C 318.45 3.98457 1.56255 0
M  V30 3444 C 317.776 4.51967 2.85709 0
M  V30 3445 C 319.076 5.16612 0.768747 0
M  V30 3446 H 320.77 2.98952 0.163755 0
M  V30 3447 H 318.316 1.43792 0.0773219 0
M  V30 3448 H 320.269 3.33491 2.57608 0
M  V30 3449 H 318.993 2.09419 2.50621 0
M  V30 3450 H 317.652 3.54305 0.941471 0
M  V30 3451 H 317.3 3.69503 3.41287 0
M  V30 3452 H 317 5.26071 2.6177 0
M  V30 3453 H 318.524 4.99523 3.51154 0
M  V30 3454 H 319.938 5.57977 1.3166 0
M  V30 3455 H 318.335 5.96812 0.627286 0
M  V30 3456 H 319.405 4.84358 -0.229168 0
M  V30 3457 N 320.748 -0.0735177 1.57428 0
M  V30 3458 C 321.658 -1.10547 2.06922 0
M  V30 3459 C 322.674 -1.42506 0.998402 0
M  V30 3460 O 323.85 -1.52717 1.31299 0
M  V30 3461 C 320.915 -2.40019 2.50184 0
M  V30 3462 C 319.976 -2.15046 3.71556 0
M  V30 3463 C 319.209 -3.38345 4.12745 0
M  V30 3464 O 319.432 -4.47399 3.53822 0
M  V30 3465 O 318.366 -3.2666 5.05546 0
M  V30 3466 H 322.192 -0.715013 2.95163 0
M  V30 3467 H 319.777 -0.287531 1.46607 0
M  V30 3468 H 321.659 -3.16218 2.78539 0
M  V30 3469 H 320.334 -2.78447 1.65072 0
M  V30 3470 H 319.241 -1.36558 3.48285 0
M  V30 3471 H 320.574 -1.81499 4.57514 0
M  V30 3472 N 322.226 -1.5378 -0.344866 0
M  V30 3473 C 323.156 -1.84662 -1.42906 0
M  V30 3474 C 324.137 -0.701648 -1.54955 0
M  V30 3475 O 325.322 -0.953438 -1.69184 0
M  V30 3476 C 322.452 -2.05503 -2.79974 0
M  V30 3477 C 321.406 -3.21318 -2.82734 0
M  V30 3478 C 320.732 -3.2749 -4.22675 0
M  V30 3479 C 322.032 -4.59456 -2.48389 0
M  V30 3480 H 323.726 -2.75461 -1.17311 0
M  V30 3481 H 321.272 -1.32542 -0.562896 0
M  V30 3482 H 323.225 -2.25691 -3.55867 0
M  V30 3483 H 321.949 -1.11434 -3.07002 0
M  V30 3484 H 320.608 -3.00984 -2.09294 0
M  V30 3485 H 320.256 -2.31019 -4.4681 0
M  V30 3486 H 319.956 -4.05316 -4.25433 0
M  V30 3487 H 321.48 -3.49887 -5.00412 0
M  V30 3488 H 322.894 -4.79667 -3.13995 0
M  V30 3489 H 321.291 -5.39675 -2.62432 0
M  V30 3490 H 322.361 -4.63155 -1.4358 0
M  V30 3491 N 323.704 0.605807 -1.45491 0
M  V30 3492 C 325.115 1.18777 -1.44045 0
M  V30 3493 C 325.466 1.95471 -0.169001 0
M  V30 3494 O 324.591 2.0374 0.729324 0
M  V30 3495 C 325.186 2.16064 -2.60963 0
M  V30 3496 C 323.745 2.69633 -2.62631 0
M  V30 3497 C 322.892 1.45072 -2.36325 0
M  V30 3498 H 325.843 0.395017 -1.53705 0
M  V30 3499 H 325.864 2.9913 -2.35163 0
M  V30 3500 H 325.376 1.60217 -3.53486 0
M  V30 3501 H 323.477 3.29414 -1.74119 0
M  V30 3502 H 323.59 3.13944 -3.61906 0
M  V30 3503 H 321.954 1.74089 -1.85917 0
M  V30 3504 H 322.737 0.910899 -3.30995 0
M  V30 3505 N 325.182 1.32811 0.848464 0
M  V30 3506 C 326.412 1.26556 1.63301 0
M  V30 3507 C 326.82 -0.1676 1.88456 0
M  V30 3508 O 326.163 -1.11713 1.45828 0
M  V30 3509 C 326.225 1.96202 3.01239 0
M  V30 3510 C 325.889 3.45528 2.99098 0
M  V30 3511 C 326.886 4.40903 2.75501 0
M  V30 3512 C 324.571 3.87558 3.19537 0
M  V30 3513 C 326.565 5.76282 2.72356 0
M  V30 3514 C 324.252 5.23044 3.16019 0
M  V30 3515 C 325.25 6.17217 2.92458 0
M  V30 3516 O 324.938 7.50223 2.88825 0
M  V30 3517 H 324.67 0.43771 0.515156 0
M  V30 3518 H 327.224 1.7559 1.0657 0
M  V30 3519 H 325.454 1.41746 3.59785 0
M  V30 3520 H 327.143 1.83573 3.62016 0
M  V30 3521 H 327.909 4.09756 2.5947 0
M  V30 3522 H 323.788 3.14674 3.369 0
M  V30 3523 H 327.332 6.4976 2.53886 0
M  V30 3524 H 323.229 5.53818 3.31596 0
M  V30 3525 H 323.997 7.59657 3.04735 0
M  V30 3526 N 326.66 -1.06551 1.16123 0
M  V30 3527 C 327.623 -2.12132 0.867906 0
M  V30 3528 C 328.623 -1.60224 -0.135944 0
M  V30 3529 O 329.813 -1.73943 0.0946422 0
M  V30 3530 C 326.945 -3.396 0.297419 0
M  V30 3531 H 328.138 -2.39586 1.80385 0
M  V30 3532 H 325.691 -1.22574 0.969812 0
M  V30 3533 H 326.426 -3.17794 -0.64633 0
M  V30 3534 H 326.211 -3.78581 1.02073 0
M  V30 3535 H 327.701 -4.17455 0.110052 0
M  V30 3536 N 328.138 -0.959301 -1.25041 0
M  V30 3537 C 329.554 -0.664474 -1.4511 0
M  V30 3538 C 329.754 0.776481 -1.85938 0
M  V30 3539 O 328.81 1.55128 -1.99227 0
M  V30 3540 C 330.123 -1.64139 -2.5195 0
M  V30 3541 C 331.671 -1.65309 -2.65786 0
M  V30 3542 C 332.146 -2.61777 -3.75815 0
M  V30 3543 N 333.637 -2.60169 -3.83231 0
M  V30 3544 C 334.372 -3.31489 -4.6787 0
M  V30 3545 N 333.868 -4.12298 -5.56761 0
M  V30 3546 N 335.661 -3.20354 -4.61876 0
M  V30 3547 H 327.812 -1.89043 -0.968332 0
M  V30 3548 H 330.075 -0.813408 -0.4869 0
M  V30 3549 H 329.781 -2.67086 -2.28819 0
M  V30 3550 H 329.655 -1.40756 -3.49954 0
M  V30 3551 H 332.042 -0.630778 -2.8828 0
M  V30 3552 H 332.123 -1.92753 -1.68167 0
M  V30 3553 H 331.767 -3.64137 -3.54071 0
M  V30 3554 H 331.697 -2.31616 -4.72929 0
M  V30 3555 H 334.188 -2.01507 -3.19692 0
M  V30 3556 H 334.501 -4.63625 -6.18281 0
M  V30 3557 H 332.846 -4.16395 -5.56454 0
M  V30 3558 H 336.037 -2.56692 -3.91442 0
M  V30 3559 H 336.21 -3.76201 -5.27614 0
M  V30 3560 N 329.616 1.39756 -0.72842 0
M  V30 3561 C 330.563 2.30647 -0.0841519 0
M  V30 3562 C 331.533 1.48869 0.7367 0
M  V30 3563 O 332.718 1.77574 0.698015 0
M  V30 3564 C 329.858 3.35165 0.822091 0
M  V30 3565 C 328.971 4.31999 -0.0106663 0
M  V30 3566 C 328.106 5.23585 0.896241 0
M  V30 3567 C 327.145 6.12072 0.0583381 0
M  V30 3568 N 326.282 6.96035 0.920818 0
M  V30 3569 H 331.122 2.85173 -0.864891 0
M  V30 3570 H 328.659 1.40422 -0.438179 0
M  V30 3571 H 330.617 3.94345 1.36189 0
M  V30 3572 H 329.247 2.8211 1.56888 0
M  V30 3573 H 328.299 3.74492 -0.66781 0
M  V30 3574 H 329.611 4.9443 -0.658825 0
M  V30 3575 H 328.765 5.87759 1.50412 0
M  V30 3576 H 327.504 4.61459 1.57819 0
M  V30 3577 H 326.509 5.46916 -0.562389 0
M  V30 3578 H 327.734 6.76261 -0.6203 0
M  V30 3579 H 325.68 6.36485 1.58818 0
M  V30 3580 H 325.597 7.55284 0.32899 0
M  V30 3581 H 326.865 7.64646 1.51447 0
M  V30 3582 N 331.094 0.475555 1.50254 0
M  V30 3583 C 332.004 -0.321501 2.32387 0
M  V30 3584 C 333.02 -0.991755 1.42969 0
M  V30 3585 O 334.196 -0.978747 1.76018 0
M  V30 3586 C 331.261 -1.38667 3.17762 0
M  V30 3587 C 330.322 -0.732538 4.23004 0
M  V30 3588 C 329.555 -1.74695 5.04299 0
M  V30 3589 O 329.778 -2.97399 4.86734 0
M  V30 3590 O 328.712 -1.31631 5.8733 0
M  V30 3591 H 332.538 0.350071 3.01676 0
M  V30 3592 H 330.123 0.237321 1.47503 0
M  V30 3593 H 332.005 -2.00354 3.70724 0
M  V30 3594 H 330.68 -2.04163 2.51196 0
M  V30 3595 H 329.587 -0.0765902 3.74022 0
M  V30 3596 H 330.92 -0.120452 4.92053 0
M  V30 3597 N 332.573 -1.56217 0.208337 0
M  V30 3598 C 333.503 -2.22694 -0.702116 0
M  V30 3599 C 334.484 -1.19432 -1.2112 0
M  V30 3600 O 335.669 -1.47978 -1.25762 0
M  V30 3601 C 332.799 -2.8966 -1.9161 0
M  V30 3602 C 331.753 -3.9928 -1.5414 0
M  V30 3603 C 331.079 -4.53476 -2.83308 0
M  V30 3604 C 332.379 -5.17012 -0.741339 0
M  V30 3605 H 334.073 -2.99034 -0.147898 0
M  V30 3606 H 331.619 -1.43831 -0.0696951 0
M  V30 3607 H 333.572 -3.34852 -2.55836 0
M  V30 3608 H 332.296 -2.10746 -2.49507 0
M  V30 3609 H 330.955 -3.54799 -0.922668 0
M  V30 3610 H 330.603 -3.71308 -3.39322 0
M  V30 3611 H 330.303 -5.27451 -2.58976 0
M  V30 3612 H 331.827 -5.01378 -3.485 0
M  V30 3613 H 333.241 -5.58667 -1.28699 0
M  V30 3614 H 331.638 -5.97137 -0.595627 0
M  V30 3615 H 332.708 -4.8423 0.254851 0
M  V30 3616 N 334.051 0.0651679 -1.57465 0
M  V30 3617 C 335.276 0.779605 -1.9219 0
M  V30 3618 C 335.701 1.69988 -0.805333 0
M  V30 3619 O 335.059 1.79685 0.241435 0
M  V30 3620 C 335.107 1.54364 -3.2589 0
M  V30 3621 O 334.211 2.65474 -3.1559 0
M  V30 3622 H 333.552 0.212249 -0.629163 0
M  V30 3623 H 336.082 0.0314294 -2.04576 0
M  V30 3624 H 336.092 1.92146 -3.59922 0
M  V30 3625 H 334.767 0.868457 -4.06732 0
M  V30 3626 H 333.344 2.30501 -2.93128 0
M  V30 3627 N 335.529 1.53961 0.336706 0
M  V30 3628 C 336.459 1.85417 1.41925 0
M  V30 3629 C 337.44 0.709856 1.5458 0
M  V30 3630 O 338.625 0.962396 1.68676 0
M  V30 3631 C 335.755 2.06985 2.78881 0
M  V30 3632 C 334.709 3.22813 2.81026 0
M  V30 3633 C 334.035 3.29727 4.20932 0
M  V30 3634 C 335.335 4.60767 2.45949 0
M  V30 3635 H 337.029 2.76079 1.15848 0
M  V30 3636 H 334.575 1.32839 0.555859 0
M  V30 3637 H 336.528 2.27575 3.54665 0
M  V30 3638 H 335.252 1.13061 3.06406 0
M  V30 3639 H 333.911 3.0209 2.07695 0
M  V30 3640 H 333.559 2.33385 4.45579 0
M  V30 3641 H 333.259 4.07566 4.23277 0
M  V30 3642 H 334.783 3.52536 4.98549 0
M  V30 3643 H 336.197 4.81325 3.11446 0
M  V30 3644 H 334.594 5.4106 2.59566 0
M  V30 3645 H 335.664 4.6391 1.41122 0
M  V30 3646 N 337.007 -0.598083 1.45811 0
M  V30 3647 C 337.937 -1.71873 1.58057 0
M  V30 3648 C 338.918 -1.64533 0.431615 0
M  V30 3649 O 340.103 -1.82787 0.65595 0
M  V30 3650 C 337.233 -3.10495 1.55597 0
M  V30 3651 C 336.187 -3.32654 2.69305 0
M  V30 3652 C 335.513 -4.71646 2.51902 0
M  V30 3653 C 336.813 -3.21981 4.11248 0
M  V30 3654 H 338.507 -1.61881 2.51863 0
M  V30 3655 H 336.053 -0.777372 1.21214 0
M  V30 3656 H 338.006 -3.88699 1.6276 0
M  V30 3657 H 336.73 -3.2135 0.583255 0
M  V30 3658 H 335.389 -2.56843 2.61586 0
M  V30 3659 H 335.037 -4.79246 1.52748 0
M  V30 3660 H 334.737 -4.87426 3.2816 0
M  V30 3661 H 336.261 -5.52038 2.60933 0
M  V30 3662 H 337.675 -3.90049 4.20161 0
M  V30 3663 H 336.072 -3.49289 4.87972 0
M  V30 3664 H 337.142 -2.1928 4.32486 0
M  V30 3665 N 338.485 -1.33259 -0.841409 0
M  V30 3666 C 339.731 -1.24757 -1.59886 0
M  V30 3667 C 340.064 0.186913 -1.93298 0
M  V30 3668 O 339.339 1.12757 -1.5848 0
M  V30 3669 C 339.622 -2.12036 -2.91055 0
M  V30 3670 C 339.475 -3.63929 -2.6434 0
M  V30 3671 C 340.794 -1.9916 -3.92458 0
M  V30 3672 H 337.913 -0.454542 -0.580138 0
M  V30 3673 H 340.555 -1.63335 -0.970647 0
M  V30 3674 H 338.705 -1.79265 -3.44669 0
M  V30 3675 H 340.377 -4.06978 -2.17178 0
M  V30 3676 H 338.62 -3.85935 -1.98082 0
M  V30 3677 H 339.291 -4.20341 -3.57796 0
M  V30 3678 H 341.767 -2.27895 -3.48143 0
M  V30 3679 H 340.643 -2.62484 -4.82072 0
M  V30 3680 H 340.904 -0.963082 -4.31482 0
M  V30 3681 N 339.963 1.05934 -1.16686 0
M  V30 3682 C 340.893 2.1546 -0.899949 0
M  V30 3683 C 341.874 1.69391 0.155154 0
M  V30 3684 O 343.059 1.94199 0.00648693 0
M  V30 3685 C 340.189 3.44939 -0.404241 0
M  V30 3686 C 339.143 4.04536 -1.39767 0
M  V30 3687 C 338.469 5.29268 -0.760216 0
M  V30 3688 C 339.769 4.42893 -2.76845 0
M  V30 3689 H 341.463 2.38046 -1.81588 0
M  V30 3690 H 339.009 1.14404 -0.874514 0
M  V30 3691 H 340.962 4.20901 -0.204971 0
M  V30 3692 H 339.686 3.21983 0.547206 0
M  V30 3693 H 338.345 3.30635 -1.58355 0
M  V30 3694 H 337.993 5.02611 0.197831 0
M  V30 3695 H 337.693 5.70101 -1.42332 0
M  V30 3696 H 339.217 6.07924 -0.57105 0
M  V30 3697 H 340.631 5.09921 -2.62019 0
M  V30 3698 H 339.028 4.94721 -3.39663 0
M  V30 3699 H 340.098 3.53584 -3.31823 0
M  V30 3700 N 341.441 0.965919 1.2453 0
M  V30 3701 C 342.371 0.513476 2.27784 0
M  V30 3702 C 343.352 -0.445974 1.6415 0
M  V30 3703 O 344.537 -0.342485 1.91156 0
M  V30 3704 C 341.667 -0.198839 3.4673 0
M  V30 3705 C 340.621 0.676456 4.2262 0
M  V30 3706 C 339.947 -0.167248 5.34438 0
M  V30 3707 C 341.247 1.96017 4.84123 0
M  V30 3708 H 342.941 1.3765 2.65881 0
M  V30 3709 H 340.487 0.663321 1.27813 0
M  V30 3710 H 342.44 -0.526567 4.18097 0
M  V30 3711 H 341.164 -1.0962 3.07654 0
M  V30 3712 H 339.823 0.98743 3.53052 0
M  V30 3713 H 339.471 -1.0647 4.91603 0
M  V30 3714 H 339.171 0.415181 5.86131 0
M  V30 3715 H 340.695 -0.489688 6.08633 0
M  V30 3716 H 342.109 1.69814 5.47573 0
M  V30 3717 H 340.506 2.48918 5.4604 0
M  V30 3718 H 341.576 2.65622 4.05676 0
M  V30 3719 N 342.919 -1.39368 0.735821 0
M  V30 3720 C 344.33 -1.83313 0.354015 0
M  V30 3721 C 344.681 -1.61461 -1.11466 0
M  V30 3722 O 343.806 -1.10621 -1.85989 0
M  V30 3723 C 344.401 -3.32781 0.635769 0
M  V30 3724 C 342.96 -3.75142 0.307448 0
M  V30 3725 C 342.107 -2.62358 0.897974 0
M  V30 3726 H 345.058 -1.28349 0.933398 0
M  V30 3727 H 345.079 -3.80388 -0.0921773 0
M  V30 3728 H 344.591 -3.48654 1.70476 0
M  V30 3729 H 342.692 -3.64857 -0.755674 0
M  V30 3730 H 342.805 -4.72532 0.790583 0
M  V30 3731 H 341.169 -2.52624 0.324551 0
M  V30 3732 H 341.952 -2.81036 1.97164 0
M  V30 3733 N 344.397 -0.483516 -1.5 0
M  V30 3734 C 345.674 0.129337 -1.95172 0
M  V30 3735 C 346.054 1.55802 -1.4244 0
M  V30 3736 O 345.402 2.19625 -0.630649 0
M  V30 3737 C 345.612 0.0599251 -3.48949 0
M  V30 3738 C 346.96 0.242617 -4.23906 0
M  V30 3739 O 347.984 0.135933 -3.55941 0
M  V30 3740 O 346.843 0.459454 -5.44565 0
M  V30 3741 H 343.937 0.104887 -0.820322 0
M  V30 3742 H 346.483 -0.544807 -1.60717 0
M  V30 3743 H 345.255 -0.937079 -3.79914 0
M  V30 3744 H 344.878 0.774984 -3.89974 0
M  V30 3745 N 345.875 1.56104 -0.216619 0
M  V30 3746 C 347.152 1.89988 0.465165 0
M  V30 3747 C 347.532 1.13326 1.78102 0
M  V30 3748 O 346.88 0.241033 2.27225 0
M  V30 3749 C 347.09 3.42646 0.662939 0
M  V30 3750 C 348.438 4.13311 0.972602 0
M  V30 3751 O 349.462 3.48217 0.749901 0
M  V30 3752 O 348.321 5.28396 1.39499 0
M  V30 3753 H 345.415 0.78979 0.245276 0
M  V30 3754 H 347.961 1.67721 -0.258436 0
M  V30 3755 H 346.733 3.90399 -0.26543 0
M  V30 3756 H 346.356 3.70677 1.43821 0
M  V30 3757 N 347.353 -0.0568162 1.57498 0
M  V30 3758 C 348.601 -0.751617 1.87604 0
M  V30 3759 C 348.922 -1.77351 0.81066 0
M  V30 3760 O 348.192 -1.95254 -0.159018 0
M  V30 3761 H 346.772 -0.280583 0.692302 0
M  V30 3762 H 349.434 -0.0293483 1.94878 0
M  V30 3763 H 348.53 -1.25852 2.856 0
M  V30 3764 N 348.832 -1.54138 -0.328536 0
M  V30 3765 C 350.078 -1.7236 -1.06865 0
M  V30 3766 C 350.411 -0.493231 -1.87832 0
M  V30 3767 O 349.686 0.5098 -1.877 0
M  V30 3768 C 349.969 -2.99621 -1.99747 0
M  V30 3769 C 349.822 -4.32899 -1.22143 0
M  V30 3770 C 351.141 -3.22615 -2.99345 0
M  V30 3771 H 348.26 -0.627151 -0.387105 0
M  V30 3772 H 350.902 -1.86827 -0.345767 0
M  V30 3773 H 349.052 -2.87418 -2.61387 0
M  V30 3774 H 350.724 -4.56978 -0.630017 0
M  V30 3775 H 348.967 -4.30628 -0.523628 0
M  V30 3776 H 349.638 -5.18154 -1.90318 0
M  V30 3777 H 352.114 -3.34248 -2.47826 0
M  V30 3778 H 350.99 -4.13027 -3.61524 0
M  V30 3779 H 351.251 -2.3961 -3.71536 0
M  V30 3780 N 350.31 0.590341 -1.46126 0
M  V30 3781 C 351.22 1.72793 -1.58681 0
M  V30 3782 C 352.236 1.67516 -0.470566 0
M  V30 3783 O 353.412 1.87562 -0.733642 0
M  V30 3784 C 350.477 3.09287 -1.5666 0
M  V30 3785 C 349.538 3.25886 -2.79458 0
M  V30 3786 C 348.771 4.55869 -2.77524 0
M  V30 3787 O 348.994 5.3928 -1.85832 0
M  V30 3788 O 347.928 4.75552 -3.68964 0
M  V30 3789 H 351.754 1.65149 -2.54872 0
M  V30 3790 H 349.339 0.756486 -1.28832 0
M  V30 3791 H 351.221 3.90577 -1.58202 0
M  V30 3792 H 349.896 3.17385 -0.636271 0
M  V30 3793 H 348.803 2.44119 -2.83472 0
M  V30 3794 H 350.136 3.22675 -3.71674 0
M  V30 3795 N 351.788 1.33704 0.83433 0
M  V30 3796 C 352.718 1.26967 1.95963 0
M  V30 3797 C 353.699 0.149337 1.69443 0
M  V30 3798 O 354.884 0.339852 1.91203 0
M  V30 3799 C 352.014 1.01275 3.32206 0
M  V30 3800 C 350.968 2.09652 3.73136 0
M  V30 3801 C 350.294 1.69166 5.07235 0
M  V30 3802 C 351.594 3.51372 3.86439 0
M  V30 3803 H 353.288 2.2112 2.01857 0
M  V30 3804 H 350.834 1.06447 0.969793 0
M  V30 3805 H 352.787 0.952106 4.10503 0
M  V30 3806 H 351.511 0.0356203 3.26581 0
M  V30 3807 H 350.17 2.14766 2.97104 0
M  V30 3808 H 349.818 0.701437 4.98085 0
M  V30 3809 H 349.518 2.41694 5.35591 0
M  V30 3810 H 351.042 1.64576 5.88003 0
M  V30 3811 H 352.456 3.48734 4.55036 0
M  V30 3812 H 350.853 4.22425 4.26236 0
M  V30 3813 H 351.923 3.89546 2.88759 0
M  V30 3814 N 353.266 -1.05314 1.17247 0
M  V30 3815 C 354.491 -1.82509 0.985148 0
M  V30 3816 C 354.916 -1.82343 -0.461788 0
M  V30 3817 O 354.274 -1.23151 -1.33055 0
M  V30 3818 C 354.322 -3.26566 1.52929 0
M  V30 3819 O 353.426 -4.05666 0.742225 0
M  V30 3820 H 352.767 -0.564347 0.349869 0
M  V30 3821 H 355.297 -1.32718 1.55715 0
M  V30 3822 H 355.307 -3.77369 1.55103 0
M  V30 3823 H 353.982 -3.26001 2.58256 0
M  V30 3824 H 352.559 -3.64397 0.791794 0
M  V30 3825 N 354.744 -0.972509 -1.24016 0
M  V30 3826 C 355.972 -0.654803 -1.96265 0
M  V30 3827 C 356.387 0.776708 -1.72083 0
M  V30 3828 O 355.744 1.52171 -1.00748 0
M  V30 3829 C 355.795 -0.92592 -3.49441 0
M  V30 3830 O 355.516 -2.30116 -3.72798 0
M  V30 3831 C 357.017 -0.623068 -4.38899 0
M  V30 3832 H 354.237 -0.243907 -0.6251 0
M  V30 3833 H 356.781 -1.30175 -1.57717 0
M  V30 3834 H 354.936 -0.325108 -3.86033 0
M  V30 3835 H 355.35 -2.38483 -4.67147 0
M  V30 3836 H 356.824 -0.863189 -5.45209 0
M  V30 3837 H 357.301 0.442754 -4.36963 0
M  V30 3838 H 357.907 -1.204 -4.07902 0
M  V30 3839 N 356.222 1.38976 -0.743202 0
M  V30 3840 C 357.468 2.0064 -0.295189 0
M  V30 3841 C 357.801 1.5885 1.11716 0
M  V30 3842 O 357.076 0.821181 1.76315 0
M  V30 3843 C 357.359 3.578 -0.406318 0
M  V30 3844 C 357.212 4.09586 -1.85903 0
M  V30 3845 C 358.531 4.39616 0.206439 0
M  V30 3846 H 355.65 0.728935 -0.108733 0
M  V30 3847 H 358.292 1.65067 -0.940897 0
M  V30 3848 H 356.442 3.88235 0.143419 0
M  V30 3849 H 358.114 3.89837 -2.46627 0
M  V30 3850 H 356.357 3.6284 -2.3776 0
M  V30 3851 H 357.028 5.18708 -1.888 0
M  V30 3852 H 359.504 4.15273 -0.262283 0
M  V30 3853 H 358.38 5.48812 0.0983819 0
M  V30 3854 H 358.641 4.22754 1.2935 0
M  V30 3855 N 357.7 0.491464 1.49741 0
M  V30 3856 C 358.61 -0.296835 2.32715 0
M  V30 3857 C 359.626 -0.976536 1.44013 0
M  V30 3858 O 360.802 -0.960023 1.77047 0
M  V30 3859 C 357.867 -1.35288 3.19215 0
M  V30 3860 C 356.928 -0.687632 4.23757 0
M  V30 3861 C 356.161 -1.69336 5.06123 0
M  V30 3862 O 356.384 -2.92219 4.89861 0
M  V30 3863 O 355.318 -1.25394 5.88693 0
M  V30 3864 H 359.144 0.382048 3.01287 0
M  V30 3865 H 356.729 0.252953 1.47243 0
M  V30 3866 H 358.611 -1.96411 3.72828 0
M  V30 3867 H 357.286 -2.01487 2.53347 0
M  V30 3868 H 356.193 -0.0369159 3.74082 0
M  V30 3869 H 357.526 -0.0682566 4.92153 0
M  V30 3870 N 359.178 -1.55987 0.224894 0
M  V30 3871 C 360.125 -2.20436 -0.68385 0
M  V30 3872 C 361.095 -1.16102 -1.18783 0
M  V30 3873 O 362.28 -1.4447 -1.24632 0
M  V30 3874 C 359.42 -2.89076 -1.88491 0
M  V30 3875 C 358.533 -4.08012 -1.41951 0
M  V30 3876 C 357.668 -4.64426 -2.5784 0
M  V30 3877 C 356.707 -5.75656 -2.08053 0
M  V30 3878 N 355.844 -6.26347 -3.17227 0
M  V30 3879 H 360.684 -2.97727 -0.12754 0
M  V30 3880 H 358.221 -1.47011 -0.0511978 0
M  V30 3881 H 360.179 -3.27059 -2.59014 0
M  V30 3882 H 358.809 -2.14298 -2.41405 0
M  V30 3883 H 357.861 -3.75492 -0.609095 0
M  V30 3884 H 359.173 -4.88375 -1.01447 0
M  V30 3885 H 358.327 -5.04869 -3.3644 0
M  V30 3886 H 357.066 -3.83233 -3.01635 0
M  V30 3887 H 356.071 -5.34712 -1.27916 0
M  V30 3888 H 357.296 -6.58686 -1.65255 0
M  V30 3889 H 355.242 -5.48067 -3.60497 0
M  V30 3890 H 355.159 -7.01843 -2.80986 0
M  V30 3891 H 356.427 -6.71447 -3.95953 0
M  V30 3892 N 360.656 0.0484629 -1.57525 0
M  V30 3893 C 361.881 0.759177 -1.93006 0
M  V30 3894 C 362.306 1.69125 -0.823317 0
M  V30 3895 O 361.664 1.79931 0.222364 0
M  V30 3896 C 361.712 1.50899 -3.27509 0
M  V30 3897 O 360.816 2.62112 -3.18388 0
M  V30 3898 H 360.157 0.205564 -0.631379 0
M  V30 3899 H 362.687 0.00972959 -2.04598 0
M  V30 3900 H 362.697 1.88317 -3.6194 0
M  V30 3901 H 361.372 0.825269 -4.0763 0
M  V30 3902 H 359.949 2.27379 -2.95556 0
M  V30 3903 N 362.134 1.5431 0.320358 0
M  V30 3904 C 363.064 1.86912 1.3995 0
M  V30 3905 C 364.045 0.726211 1.53819 0
M  V30 3906 O 365.23 0.980233 1.67646 0
M  V30 3907 C 362.36 2.09932 2.7667 0
M  V30 3908 C 361.314 3.25776 2.77586 0
M  V30 3909 C 360.64 3.34173 4.17412 0
M  V30 3910 C 361.94 4.6335 2.41048 0
M  V30 3911 H 363.634 2.77292 1.12914 0
M  V30 3912 H 361.18 1.33421 0.541738 0
M  V30 3913 H 363.133 2.31324 3.52232 0
M  V30 3914 H 361.857 1.16304 3.0519 0
M  V30 3915 H 360.516 3.04276 2.04479 0
M  V30 3916 H 360.164 2.38098 4.43078 0
M  V30 3917 H 359.864 4.12033 4.18931 0
M  V30 3918 H 361.388 3.57803 4.94782 0
M  V30 3919 H 362.802 4.84602 3.06324 0
M  V30 3920 H 361.199 5.43782 2.53813 0
M  V30 3921 H 362.269 4.65381 1.36193 0
M  V30 3922 N 363.613 -0.582584 1.46437 0
M  V30 3923 C 364.841 -1.36682 1.55324 0
M  V30 3924 C 365.256 -1.87796 0.194409 0
M  V30 3925 O 364.613 -1.63623 -0.808318 0
M  V30 3926 C 364.664 -2.55426 2.55812 0
M  V30 3927 O 364.385 -2.0643 3.86417 0
M  V30 3928 C 365.886 -3.47976 2.74641 0
M  V30 3929 H 363.106 -0.417545 0.525259 0
M  V30 3930 H 365.65 -0.708219 1.91845 0
M  V30 3931 H 363.805 -3.17275 2.22295 0
M  V30 3932 H 364.219 -2.83762 4.41111 0
M  V30 3933 H 365.693 -4.27775 3.48874 0
M  V30 3934 H 366.17 -3.99919 1.81553 0
M  V30 3935 H 366.776 -2.91962 3.09255 0
M  V30 3936 N 365.091 -1.34144 -0.827227 0
M  V30 3937 C 366.338 -1.26258 -1.58319 0
M  V30 3938 C 366.666 0.168595 -1.93768 0
M  V30 3939 O 365.921 1.12877 -1.59866 0
M  V30 3940 C 366.22 -2.09464 -2.89585 0
M  V30 3941 C 365.886 -3.58521 -2.73448 0
M  V30 3942 C 364.548 -3.99155 -2.68754 0
M  V30 3943 C 366.9 -4.53189 -2.57428 0
M  V30 3944 C 364.228 -5.32656 -2.45957 0
M  V30 3945 C 366.58 -5.86864 -2.36163 0
M  V30 3946 C 365.244 -6.26667 -2.29879 0
M  V30 3947 H 364.514 -0.462013 -0.579332 0
M  V30 3948 H 367.161 -1.65845 -0.95748 0
M  V30 3949 H 365.466 -1.62692 -3.56425 0
M  V30 3950 H 367.163 -2.00712 -3.47154 0
M  V30 3951 H 363.753 -3.26264 -2.77939 0
M  V30 3952 H 367.937 -4.22696 -2.60081 0
M  V30 3953 H 363.193 -5.62519 -2.39546 0
M  V30 3954 H 367.367 -6.59813 -2.22754 0
M  V30 3955 H 364.994 -7.30049 -2.11975 0
M  V30 3956 N 366.569 1.04691 -1.17803 0
M  V30 3957 C 367.479 2.16057 -0.914151 0
M  V30 3958 C 368.495 1.73589 0.119503 0
M  V30 3959 O 369.671 2.01308 -0.0609468 0
M  V30 3960 C 366.736 3.4394 -0.436603 0
M  V30 3961 C 365.797 4.00825 -1.53746 0
M  V30 3962 C 365.03 5.22604 -1.0826 0
M  V30 3963 O 365.253 5.70367 0.0612244 0
M  V30 3964 O 364.187 5.7186 -1.87775 0
M  V30 3965 H 368.013 2.41169 -1.84584 0
M  V30 3966 H 365.598 1.1453 -0.959334 0
M  V30 3967 H 367.48 4.21024 -0.178057 0
M  V30 3968 H 366.155 3.20316 0.466869 0
M  V30 3969 H 365.062 3.25158 -1.84995 0
M  V30 3970 H 366.395 4.28778 -2.41683 0
M  V30 3971 N 368.047 0.979072 1.23499 0
M  V30 3972 C 368.994 0.517904 2.24914 0
M  V30 3973 C 369.964 -0.442525 1.60097 0
M  V30 3974 O 371.149 -0.350365 1.87556 0
M  V30 3975 C 368.289 -0.174813 3.44657 0
M  V30 3976 C 367.402 0.825721 4.24035 0
M  V30 3977 C 366.537 0.107946 5.3109 0
M  V30 3978 C 365.576 1.09778 6.02175 0
M  V30 3979 N 364.713 0.40925 7.00906 0
M  V30 3980 H 369.553 1.38751 2.63727 0
M  V30 3981 H 367.09 0.695303 1.2963 0
M  V30 3982 H 369.048 -0.593233 4.12961 0
M  V30 3983 H 367.678 -1.0083 3.06648 0
M  V30 3984 H 366.73 1.36253 3.55161 0
M  V30 3985 H 368.042 1.58005 4.73113 0
M  V30 3986 H 367.196 -0.367904 6.05583 0
M  V30 3987 H 365.935 -0.678994 4.8295 0
M  V30 3988 H 364.94 1.5844 5.26476 0
M  V30 3989 H 366.165 1.88536 6.52404 0
M  V30 3990 H 364.111 -0.358506 6.5502 0
M  V30 3991 H 364.028 1.10226 7.47921 0
M  V30 3992 H 365.296 -0.0442557 7.79487 0
M  V30 3993 N 369.525 -1.3858 0.750561 0
M  V30 3994 C 370.455 -2.33102 0.136237 0
M  V30 3995 C 371.436 -1.54713 -0.706965 0
M  V30 3996 O 372.621 -1.83043 -0.648769 0
M  V30 3997 C 369.751 -3.38882 -0.760017 0
M  V30 3998 C 368.705 -4.27995 -0.0197785 0
M  V30 3999 C 368.031 -5.24605 -1.03408 0
M  V30 4000 C 369.331 -5.09554 1.14684 0
M  V30 4001 H 371.025 -2.84726 0.925822 0
M  V30 4002 H 368.571 -1.36898 0.446654 0
M  V30 4003 H 370.524 -4.0397 -1.19943 0
M  V30 4004 H 369.248 -2.85734 -1.58189 0
M  V30 4005 H 367.907 -3.64409 0.400184 0
M  V30 4006 H 367.555 -4.67746 -1.84994 0
M  V30 4007 H 367.255 -5.85081 -0.543464 0
M  V30 4008 H 368.779 -5.9257 -1.47288 0
M  V30 4009 H 370.193 -5.67899 0.785118 0
M  V30 4010 H 368.59 -5.7925 1.56812 0
M  V30 4011 H 369.66 -4.4347 1.96118 0
M  V30 4012 N 371.003 -0.499398 -1.49478 0
M  V30 4013 C 372.231 0.0425456 -2.06856 0
M  V30 4014 C 372.646 1.30964 -1.35992 0
M  V30 4015 O 372.003 1.77172 -0.437762 0
M  V30 4016 C 372.054 0.301735 -3.60239 0
M  V30 4017 O 371.775 -0.915127 -4.28436 0
M  V30 4018 C 373.276 0.887499 -4.34325 0
M  V30 4019 H 370.496 -0.0197482 -0.670709 0
M  V30 4020 H 373.04 -0.696297 -1.92281 0
M  V30 4021 H 371.195 0.990556 -3.74522 0
M  V30 4022 H 371.609 -0.676993 -5.20113 0
M  V30 4023 H 373.083 1.01845 -5.42523 0
M  V30 4024 H 373.56 1.88488 -3.96698 0
M  V30 4025 H 374.166 0.236196 -4.24644 0
M  V30 4026 N 372.481 1.55866 -0.233164 0
M  V30 4027 C 373.444 2.1953 0.658715 0
M  V30 4028 C 374.444 1.16053 1.11303 0
M  V30 4029 O 375.634 1.41218 1.01996 0
M  V30 4030 C 372.766 2.82791 1.90373 0
M  V30 4031 H 373.959 2.99721 0.10347 0
M  V30 4032 H 371.512 1.56291 0.0164245 0
M  V30 4033 H 372.247 2.06501 2.50056 0
M  V30 4034 H 372.032 3.58578 1.58632 0
M  V30 4035 H 373.522 3.31556 2.53891 0
M  V30 4036 N 373.959 -0.0401083 1.57549 0
M  V30 4037 C 375.205 -0.728793 1.89895 0
M  V30 4038 C 375.56 -1.73551 0.830535 0
M  V30 4039 O 374.853 -1.90914 -0.162007 0
M  V30 4040 C 375.047 -1.44902 3.26708 0
M  V30 4041 C 374.876 -0.513568 4.46758 0
M  V30 4042 C 373.646 -0.138698 5.0511 0
M  V30 4043 C 375.844 0.203341 5.13898 0
M  V30 4044 N 373.826 0.799159 6.08676 0
M  V30 4045 C 375.197 0.997246 6.11927 0
M  V30 4046 C 377.252 0.271459 4.97159 0
M  V30 4047 C 375.955 1.85299 6.95023 0
M  V30 4048 C 377.981 1.11429 5.80808 0
M  V30 4049 C 377.343 1.89615 6.78399 0
M  V30 4050 H 373.442 -0.241125 0.743897 0
M  V30 4051 H 376.026 0.0108016 1.94697 0
M  V30 4052 H 374.197 -2.15914 3.22856 0
M  V30 4053 H 375.929 -2.08921 3.46603 0
M  V30 4054 H 372.684 -0.498496 4.70969 0
M  V30 4055 H 373.108 1.26227 6.65128 0
M  V30 4056 H 377.75 -0.318709 4.21597 0
M  V30 4057 H 375.468 2.454 7.69938 0
M  V30 4058 H 379.054 1.17038 5.69906 0
M  V30 4059 H 377.934 2.53779 7.42001 0
M  V30 4060 N 375.437 -1.54477 -0.31217 0
M  V30 4061 C 376.665 -1.77205 -1.068 0
M  V30 4062 C 377.08 -0.526114 -1.81321 0
M  V30 4063 O 376.437 0.503647 -1.75413 0
M  V30 4064 C 376.488 -2.97253 -2.05725 0
M  V30 4065 O 376.209 -4.1703 -1.34228 0
M  V30 4066 C 377.71 -3.32281 -2.93435 0
M  V30 4067 H 374.93 -0.591287 -0.317208 0
M  V30 4068 H 377.474 -2.01398 -0.354834 0
M  V30 4069 H 375.629 -2.753 -2.72559 0
M  V30 4070 H 376.043 -4.84636 -2.00571 0
M  V30 4071 H 377.517 -4.19551 -3.58721 0
M  V30 4072 H 377.994 -2.49945 -3.61143 0
M  V30 4073 H 378.6 -3.56353 -2.32147 0
M  V30 4074 N 376.915 0.57481 -1.46744 0
M  V30 4075 C 377.862 1.68329 -1.57905 0
M  V30 4076 C 378.832 1.60625 -0.422927 0
M  V30 4077 O 380.017 1.79721 -0.640711 0
M  V30 4078 C 377.157 3.06665 -1.58274 0
M  V30 4079 C 376.27 3.24935 -2.84678 0
M  V30 4080 C 375.405 4.53566 -2.76499 0
M  V30 4081 C 374.444 4.65207 -3.97806 0
M  V30 4082 N 373.581 5.85172 -3.87967 0
M  V30 4083 H 378.421 1.58127 -2.52587 0
M  V30 4084 H 375.958 0.770552 -1.25303 0
M  V30 4085 H 377.916 3.86745 -1.56473 0
M  V30 4086 H 376.546 3.15745 -0.671194 0
M  V30 4087 H 375.598 2.38405 -2.96424 0
M  V30 4088 H 376.91 3.29403 -3.7456 0
M  V30 4089 H 376.064 5.41885 -2.72848 0
M  V30 4090 H 374.803 4.51548 -1.8427 0
M  V30 4091 H 373.808 3.75304 -4.0178 0
M  V30 4092 H 375.033 4.68997 -4.9114 0
M  V30 4093 H 372.979 5.84137 -2.98529 0
M  V30 4094 H 372.896 5.90943 -4.71511 0
M  V30 4095 H 374.164 6.759 -3.88303 0
M  V30 4096 N 378.394 1.34581 0.820102 0
M  V30 4097 C 379.805 1.24298 1.39309 0
M  V30 4098 C 380.156 -0.130351 1.95767 0
M  V30 4099 O 379.281 -1.0308 1.90272 0
M  V30 4100 C 379.876 2.25054 2.53251 0
M  V30 4101 C 378.435 2.18552 3.0645 0
M  V30 4102 C 377.582 2.11503 1.79337 0
M  V30 4103 H 380.533 1.45906 0.624262 0
M  V30 4104 H 380.554 1.86917 3.31425 0
M  V30 4105 H 380.066 3.24996 2.1213 0
M  V30 4106 H 378.167 1.21976 3.52069 0
M  V30 4107 H 378.28 3.0993 3.65349 0
M  V30 4108 H 376.644 1.57268 2.00347 0
M  V30 4109 H 377.427 3.13284 1.40386 0
M  V30 4110 N 379.872 -1.04064 1.18357 0
M  V30 4111 C 381.149 -1.74252 0.888581 0
M  V30 4112 C 381.529 -2.02138 -0.60856 0
M  V30 4113 O 380.877 -1.66656 -1.56327 0
M  V30 4114 C 381.087 -3.0277 1.73584 0
M  V30 4115 C 382.435 -3.76506 1.96286 0
M  V30 4116 O 383.459 -3.12668 1.70637 0
M  V30 4117 O 382.318 -4.91243 2.39464 0
M  V30 4118 H 379.412 -0.758271 0.330082 0
M  V30 4119 H 381.958 -1.1013 1.2911 0
M  V30 4120 H 380.73 -2.78299 2.75073 0
M  V30 4121 H 380.353 -3.74631 1.33183 0
M  V30 4122 N 381.35 -0.985608 -1.22978 0
M  V30 4123 C 382.59 -0.665487 -1.93263 0
M  V30 4124 C 382.954 0.78706 -1.75127 0
M  V30 4125 O 384.155 1.21826 -2.39608 0
M  V30 4126 C 382.426 -1.0515 -3.41582 0
M  V30 4127 S 383.985 -0.848637 -4.30516 0
M  V30 4128 H 380.803 -0.24355 -0.667985 0
M  V30 4129 H 383.405 -1.26635 -1.48942 0
M  V30 4130 H 382.109 -2.10517 -3.52293 0
M  V30 4131 H 381.64 -0.442134 -3.90908 0
M  V30 4132 H 383.655 0.264717 -4.95493 0
M  V30 4133 N 382.828 1.3818 -0.7579 0
M  V30 4134 C 383.761 2.28055 -0.0814093 0
M  V30 4135 C 384.739 1.45603 0.723779 0
M  V30 4136 O 385.923 1.74961 0.701491 0
M  V30 4137 C 383.05 3.2676 0.891394 0
M  V30 4138 C 382.096 4.26153 0.171909 0
M  V30 4139 S 382.929 5.23434 -1.13035 0
M  V30 4140 C 384.085 6.25694 -0.160727 0
M  V30 4141 H 384.318 2.85082 -0.84353 0
M  V30 4142 H 381.851 1.44246 -0.550671 0
M  V30 4143 H 383.809 3.8414 1.44731 0
M  V30 4144 H 382.47 2.68706 1.62652 0
M  V30 4145 H 381.663 4.95738 0.908843 0
M  V30 4146 H 381.265 3.72691 -0.312606 0
M  V30 4147 H 383.557 6.74161 0.671773 0
M  V30 4148 H 384.5 7.03285 -0.824353 0
M  V30 4149 H 384.908 5.64064 0.221892 0
M  V30 4150 N 384.306 0.507319 1.49211 0
M  V30 4151 C 385.253 -0.267728 2.29242 0
M  V30 4152 C 386.223 -0.954609 1.35928 0
M  V30 4153 O 387.408 -0.960046 1.64887 0
M  V30 4154 C 384.548 -1.32243 3.18756 0
M  V30 4155 C 383.661 -0.64669 4.27132 0
M  V30 4156 C 382.796 -1.68238 5.03855 0
M  V30 4157 C 381.835 -0.98885 6.0406 0
M  V30 4158 N 380.972 -1.96903 6.73924 0
M  V30 4159 H 385.812 0.420968 2.95012 0
M  V30 4160 H 383.349 0.219443 1.45454 0
M  V30 4161 H 385.307 -1.94599 3.69036 0
M  V30 4162 H 383.937 -1.97981 2.54958 0
M  V30 4163 H 382.989 0.0902926 3.80293 0
M  V30 4164 H 384.301 -0.101058 4.98698 0
M  V30 4165 H 383.455 -2.38081 5.58034 0
M  V30 4166 H 382.194 -2.26187 4.32077 0
M  V30 4167 H 381.199 -0.276222 5.49106 0
M  V30 4168 H 382.424 -0.415767 6.77826 0
M  V30 4169 H 380.37 -2.53803 6.04913 0
M  V30 4170 H 380.287 -1.47423 7.41487 0
M  V30 4171 H 381.555 -2.66015 7.32705 0
M  V30 4172 N 385.784 -1.5574 0.241426 0
M  V30 4173 C 387.009 -2.0366 -0.392111 0
M  V30 4174 C 387.434 -1.11969 -1.51144 0
M  V30 4175 O 386.792 -0.111594 -1.80956 0
M  V30 4176 C 386.84 -3.49638 -0.882371 0
M  V30 4177 O 385.944 -3.6108 -1.99235 0
M  V30 4178 H 385.285 -0.658379 -0.0862122 0
M  V30 4179 H 387.815 -2.01302 0.365881 0
M  V30 4180 H 387.825 -3.90351 -1.18702 0
M  V30 4181 H 386.5 -4.15852 -0.0632361 0
M  V30 4182 H 385.077 -3.32262 -1.69282 0
M  V30 4183 N 387.262 0.0317525 -1.57568 0
M  V30 4184 C 388.49 0.734949 -1.93407 0
M  V30 4185 C 388.905 1.69036 -0.84096 0
M  V30 4186 O 388.262 1.81582 0.182836 0
M  V30 4187 C 388.313 1.49432 -3.29169 0
M  V30 4188 O 388.034 0.577261 -4.3428 0
M  V30 4189 C 389.535 2.29492 -3.79273 0
M  V30 4190 H 386.755 0.206706 -0.638368 0
M  V30 4191 H 389.299 -0.00992046 -2.04498 0
M  V30 4192 H 387.454 2.1911 -3.19483 0
M  V30 4193 H 387.868 1.10952 -5.1263 0
M  V30 4194 H 389.342 2.78172 -4.76785 0
M  V30 4195 H 389.819 3.10794 -3.10328 0
M  V30 4196 H 390.425 1.64894 -3.92033 0
M  V30 4197 N 388.74 1.54641 0.303973 0
M  V30 4198 C 389.65 1.88439 1.39743 0
M  V30 4199 C 390.666 0.778239 1.55626 0
M  V30 4200 O 391.842 1.07442 1.70347 0
M  V30 4201 C 388.907 2.12212 2.74166 0
M  V30 4202 C 387.968 3.35936 2.67293 0
M  V30 4203 C 387.201 3.58566 3.95305 0
M  V30 4204 O 387.424 2.84263 4.9452 0
M  V30 4205 O 386.358 4.52078 3.97378 0
M  V30 4206 H 390.184 2.81458 1.14083 0
M  V30 4207 H 387.769 1.40793 0.499768 0
M  V30 4208 H 389.651 2.29067 3.53704 0
M  V30 4209 H 388.326 1.22379 2.99675 0
M  V30 4210 H 387.233 3.24448 1.86237 0
M  V30 4211 H 388.566 4.2589 2.46736 0
M  V30 4212 N 390.218 -0.567019 1.47046 0
M  V30 4213 C 391.464 -1.32658 1.53394 0
M  V30 4214 C 391.797 -1.93254 0.19148 0
M  V30 4215 O 391.072 -1.77338 -0.798844 0
M  V30 4216 C 391.355 -2.44412 2.64452 0
M  V30 4217 C 391.208 -1.88749 4.08282 0
M  V30 4218 C 392.527 -3.46387 2.71485 0
M  V30 4219 H 389.646 -0.48098 0.558415 0
M  V30 4220 H 392.288 -0.635481 1.79058 0
M  V30 4221 H 390.438 -3.03363 2.427 0
M  V30 4222 H 392.11 -1.34134 4.41368 0
M  V30 4223 H 390.353 -1.19481 4.17021 0
M  V30 4224 H 391.024 -2.69491 4.81745 0
M  V30 4225 H 393.5 -2.9734 2.91081 0
M  V30 4226 H 392.376 -4.2202 3.50985 0
M  V30 4227 H 392.637 -4.04616 1.78153 0
M  V30 4228 N 391.696 -1.35014 -0.812953 0
M  V30 4229 C 392.606 -1.2951 -1.95613 0
M  V30 4230 C 393.622 -0.20107 -1.72834 0
M  V30 4231 O 394.798 -0.42932 -1.96771 0
M  V30 4232 C 391.863 -1.06033 -3.30088 0
M  V30 4233 C 390.924 -2.24688 -3.65805 0
M  V30 4234 C 390.157 -2.02322 -4.93864 0
M  V30 4235 O 390.38 -0.986464 -5.61805 0
M  V30 4236 O 389.314 -2.89525 -5.27692 0
M  V30 4237 H 393.14 -2.25705 -2.03202 0
M  V30 4238 H 390.725 -1.15321 -0.949811 0
M  V30 4239 H 392.607 -0.94763 -4.10607 0
M  V30 4240 H 391.282 -0.128852 -3.23443 0
M  V30 4241 H 390.189 -2.41521 -2.85689 0
M  V30 4242 H 391.522 -3.16261 -3.77147 0
M  V30 4243 N 393.175 1.03435 -1.18907 0
M  V30 4244 C 394.421 1.77005 -0.989798 0
M  V30 4245 C 394.754 1.88205 0.478816 0
M  V30 4246 O 394.029 1.39481 1.35556 0
M  V30 4247 C 394.312 3.19925 -1.65287 0
M  V30 4248 C 394.165 3.1663 -3.19477 0
M  V30 4249 C 395.484 4.18189 -1.37134 0
M  V30 4250 H 392.603 0.642538 -0.360991 0
M  V30 4251 H 395.245 1.20784 -1.46667 0
M  V30 4252 H 393.395 3.67929 -1.24741 0
M  V30 4253 H 395.067 2.76567 -3.692 0
M  V30 4254 H 393.31 2.54491 -3.51307 0
M  V30 4255 H 393.981 4.1758 -3.61013 0
M  V30 4256 H 396.457 3.78761 -1.72276 0
M  V30 4257 H 395.333 5.16394 -1.86087 0
M  V30 4258 H 395.594 4.41112 -0.295424 0
M  V30 4259 N 394.653 0.992116 1.22453 0
M  V30 4260 C 395.583 0.561677 2.26644 0
M  V30 4261 C 396.564 -0.411055 1.65059 0
M  V30 4262 O 397.749 -0.301861 1.9184 0
M  V30 4263 C 394.879 -0.125247 3.47074 0
M  V30 4264 C 393.833 0.765948 4.21091 0
M  V30 4265 C 393.159 -0.0538484 5.34673 0
M  V30 4266 C 394.459 2.06242 4.79856 0
M  V30 4267 H 396.153 1.43259 2.62902 0
M  V30 4268 H 393.699 0.690283 1.26377 0
M  V30 4269 H 395.652 -0.437764 4.1912 0
M  V30 4270 H 394.376 -1.03069 3.0991 0
M  V30 4271 H 393.035 1.0621 3.50878 0
M  V30 4272 H 392.683 -0.960188 4.9375 0
M  V30 4273 H 392.383 0.539415 5.85119 0
M  V30 4274 H 393.907 -0.360477 6.09535 0
M  V30 4275 H 395.321 1.8139 5.43848 0
M  V30 4276 H 393.718 2.60444 5.40638 0
M  V30 4277 H 394.788 2.74167 3.99951 0
M  V30 4278 N 396.131 -1.37776 0.765217 0
M  V30 4279 C 397.061 -2.32945 0.160953 0
M  V30 4280 C 398.042 -1.55454 -0.690516 0
M  V30 4281 O 399.227 -1.83721 -0.629318 0
M  V30 4282 C 396.357 -3.39669 -0.724031 0
M  V30 4283 C 395.311 -4.27992 0.0256173 0
M  V30 4284 C 394.637 -5.25673 -0.978383 0
M  V30 4285 C 395.937 -5.08309 1.20082 0
M  V30 4286 H 397.631 -2.83728 0.955969 0
M  V30 4287 H 395.177 -1.36416 0.461149 0
M  V30 4288 H 397.13 -4.05219 -1.15652 0
M  V30 4289 H 395.854 -2.87396 -1.5515 0
M  V30 4290 H 394.513 -3.63964 0.438812 0
M  V30 4291 H 394.161 -4.69682 -1.80022 0
M  V30 4292 H 393.861 -5.85625 -0.481378 0
M  V30 4293 H 395.385 -5.94098 -1.40995 0
M  V30 4294 H 396.799 -5.67034 0.845307 0
M  V30 4295 H 395.196 -5.77554 1.62947 0
M  V30 4296 H 396.266 -4.41365 2.00811 0
M  V30 4297 N 397.609 -0.515225 -1.4894 0
M  V30 4298 C 399.02 -0.0710067 -1.86565 0
M  V30 4299 C 399.371 1.34733 -1.42623 0
M  V30 4300 O 398.496 2.00653 -0.810379 0
M  V30 4301 C 399.091 -0.122083 -3.3858 0
M  V30 4302 C 397.65 0.266863 -3.75453 0
M  V30 4303 C 396.797 -0.488376 -2.72966 0
M  V30 4304 H 399.748 -0.727266 -1.41055 0
M  V30 4305 H 399.769 0.669818 -3.74558 0
M  V30 4306 H 399.281 -1.15448 -3.70531 0
M  V30 4307 H 397.382 1.30196 -3.49113 0
M  V30 4308 H 397.495 -0.0624811 -4.79059 0
M  V30 4309 H 395.859 0.0635622 -2.54621 0
M  V30 4310 H 396.642 -1.52113 -3.07761 0
M  V30 4311 N 399.087 1.5561 -0.249682 0
M  V30 4312 C 400.034 2.21496 0.648694 0
M  V30 4313 C 401.004 1.17977 1.16921 0
M  V30 4314 O 402.189 1.46434 1.22318 0
M  V30 4315 C 399.329 2.92039 1.83868 0
M  V30 4316 C 398.442 4.10219 1.35442 0
M  V30 4317 C 397.577 4.6847 2.50419 0
M  V30 4318 C 396.616 5.78893 1.98869 0
M  V30 4319 N 395.753 6.31315 3.07223 0
M  V30 4320 H 400.593 2.97892 0.0801582 0
M  V30 4321 H 398.13 1.47074 0.0278031 0
M  V30 4322 H 400.088 3.31138 2.53778 0
M  V30 4323 H 398.718 2.18111 2.37965 0
M  V30 4324 H 397.77 3.76413 0.54928 0
M  V30 4325 H 399.082 4.89927 0.936649 0
M  V30 4326 H 398.236 5.10158 3.28366 0
M  V30 4327 H 396.975 3.87984 2.95499 0
M  V30 4328 H 395.98 5.3668 1.19393 0
M  V30 4329 H 397.205 6.61232 1.54755 0
M  V30 4330 H 395.151 5.53733 3.51732 0
M  V30 4331 H 395.068 7.06224 2.69784 0
M  V30 4332 H 396.336 6.77662 3.8522 0
M  V30 4333 N 400.565 -0.0233959 1.57583 0
M  V30 4334 C 401.812 -0.713063 1.8953 0
M  V30 4335 C 402.14 -1.75056 0.847673 0
M  V30 4336 O 401.395 -1.95119 -0.150636 0
M  V30 4337 C 401.694 -1.41428 3.28227 0
M  V30 4338 C 401.36 -0.512222 4.47981 0
M  V30 4339 C 400.022 -0.263785 4.80476 0
M  V30 4340 C 402.374 0.110248 5.21083 0
M  V30 4341 C 399.702 0.615804 5.83459 0
M  V30 4342 C 402.054 0.977573 6.25001 0
M  V30 4343 C 400.718 1.23542 6.55968 0
M  V30 4344 H 399.988 -0.260928 0.69354 0
M  V30 4345 H 402.635 0.0271047 1.91481 0
M  V30 4346 H 400.94 -2.22791 3.22291 0
M  V30 4347 H 402.637 -1.95355 3.50196 0
M  V30 4348 H 399.227 -0.716013 4.22577 0
M  V30 4349 H 403.411 -0.0687137 4.96252 0
M  V30 4350 H 398.667 0.82382 6.05824 0
M  V30 4351 H 402.841 1.46638 6.80786 0
M  V30 4352 H 400.468 1.91871 7.35588 0
M  V30 4353 N 402.043 -1.548 -0.295768 0
M  V30 4354 C 402.99 -1.86113 -1.36494 0
M  V30 4355 C 403.96 -0.7105 -1.50137 0
M  V30 4356 O 405.145 -0.959626 -1.64912 0
M  V30 4357 C 402.285 -2.11861 -2.72413 0
M  V30 4358 C 401.398 -3.39471 -2.67177 0
M  V30 4359 C 400.533 -3.55035 -3.95125 0
M  V30 4360 C 399.572 -4.76418 -3.84308 0
M  V30 4361 N 398.709 -4.8876 -5.04042 0
M  V30 4362 H 403.549 -2.77314 -1.09091 0
M  V30 4363 H 401.086 -1.37315 -0.52753 0
M  V30 4364 H 403.044 -2.24786 -3.51464 0
M  V30 4365 H 401.674 -1.2392 -2.98066 0
M  V30 4366 H 400.726 -3.35139 -1.79962 0
M  V30 4367 H 402.038 -4.28646 -2.55076 0
M  V30 4368 H 401.192 -3.67653 -4.82614 0
M  V30 4369 H 399.931 -2.64002 -4.10066 0
M  V30 4370 H 398.936 -4.63827 -2.95202 0
M  V30 4371 H 400.161 -5.68863 -3.70906 0
M  V30 4372 H 398.107 -4.00652 -5.19436 0
M  V30 4373 H 398.024 -5.71945 -4.94384 0
M  V30 4374 H 399.292 -5.0574 -5.93167 0
M  V30 4375 N 403.521 0.559213 -1.47345 0
M  V30 4376 C 404.451 1.67622 -1.62558 0
M  V30 4377 C 405.432 1.63331 -0.475087 0
M  V30 4378 O 406.617 1.80983 -0.704182 0
M  V30 4379 C 403.747 3.0626 -1.63774 0
M  V30 4380 C 402.701 3.25397 -2.7803 0
M  V30 4381 C 402.027 4.64801 -2.64318 0
M  V30 4382 C 403.327 3.10965 -4.19641 0
M  V30 4383 H 405.021 1.55146 -2.56067 0
M  V30 4384 H 402.567 0.744961 -1.23233 0
M  V30 4385 H 404.52 3.84247 -1.73008 0
M  V30 4386 H 403.244 3.1969 -0.66825 0
M  V30 4387 H 401.903 2.49817 -2.68304 0
M  V30 4388 H 401.551 4.75028 -1.65401 0
M  V30 4389 H 401.251 4.78555 -3.40968 0
M  V30 4390 H 402.775 5.44926 -2.75478 0
M  V30 4391 H 404.189 3.78772 -4.30354 0
M  V30 4392 H 402.586 3.36229 -4.97062 0
M  V30 4393 H 403.656 2.07736 -4.38148 0
M  V30 4394 N 404.999 1.35443 0.805782 0
M  V30 4395 C 405.931 1.24285 1.92577 0
M  V30 4396 C 406.944 0.165962 1.61952 0
M  V30 4397 O 408.133 0.419303 1.73505 0
M  V30 4398 C 405.233 0.891272 3.2697 0
M  V30 4399 C 404.406 2.06669 3.85495 0
M  V30 4400 C 403.465 1.69077 4.98297 0
M  V30 4401 O 402.491 2.4096 5.15681 0
M  V30 4402 N 403.693 0.614869 5.77234 0
M  V30 4403 H 406.458 2.20777 2.02676 0
M  V30 4404 H 404.019 1.28623 0.983243 0
M  V30 4405 H 406.011 0.621256 3.99903 0
M  V30 4406 H 404.581 0.016004 3.12596 0
M  V30 4407 H 403.801 2.50046 3.04747 0
M  V30 4408 H 405.089 2.85237 4.21328 0
M  V30 4409 H 404.487 0.017648 5.65697 0
M  V30 4410 H 403.044 0.404636 6.50543 0
M  V30 4411 N 406.477 -1.02803 1.19454 0
M  V30 4412 C 407.387 -2.14575 0.948408 0
M  V30 4413 C 408.403 -1.73757 -0.091871 0
M  V30 4414 O 409.579 -2.01185 0.0929654 0
M  V30 4415 C 406.644 -3.43202 0.491265 0
M  V30 4416 C 405.705 -3.98328 1.60103 0
M  V30 4417 C 404.938 -5.20816 1.16561 0
M  V30 4418 O 405.161 -5.70392 0.0295238 0
M  V30 4419 O 404.095 -5.68801 1.96849 0
M  V30 4420 H 407.921 -2.38202 1.88397 0
M  V30 4421 H 405.506 -1.12989 0.977433 0
M  V30 4422 H 407.388 -4.20687 0.245015 0
M  V30 4423 H 406.063 -3.21018 -0.415851 0
M  V30 4424 H 404.97 -3.22174 1.90144 0
M  V30 4425 H 406.303 -4.24879 2.48473 0
M  V30 4426 N 407.956 -0.998596 -1.21925 0
M  V30 4427 C 409.233 -0.593401 -1.86382 0
M  V30 4428 C 409.613 0.92916 -1.89552 0
M  V30 4429 O 408.961 1.81347 -1.39017 0
M  V30 4430 C 409.171 -1.22039 -3.26967 0
M  V30 4431 C 410.519 -1.32449 -4.03413 0
M  V30 4432 O 411.543 -1.17522 -3.36254 0
M  V30 4433 O 410.402 -1.56395 -5.23644 0
M  V30 4434 H 407.496 -0.202385 -0.801854 0
M  V30 4435 H 410.042 -1.09484 -1.29659 0
M  V30 4436 H 408.814 -2.26158 -3.19325 0
M  V30 4437 H 408.437 -0.704906 -3.91301 0
M  V30 4438 N 409.434 1.37368 -0.772513 0
M  V30 4439 C 410.664 2.03647 -0.348082 0
M  V30 4440 C 411.072 1.58392 1.03482 0
M  V30 4441 O 410.415 0.760921 1.672 0
M  V30 4442 C 410.477 3.58131 -0.313404 0
M  V30 4443 C 410.141 4.2652 -1.64102 0
M  V30 4444 C 411.138 4.50587 -2.5936 0
M  V30 4445 C 408.823 4.64335 -1.91567 0
M  V30 4446 C 410.817 5.11526 -3.80289 0
M  V30 4447 C 408.504 5.24996 -3.12766 0
M  V30 4448 C 409.502 5.48529 -4.06946 0
M  V30 4449 O 409.19 6.07921 -5.26011 0
M  V30 4450 H 408.922 0.660538 -0.143753 0
M  V30 4451 H 411.476 1.76669 -1.04772 0
M  V30 4452 H 409.706 3.84159 0.442617 0
M  V30 4453 H 411.395 4.05813 0.0840613 0
M  V30 4454 H 412.161 4.21784 -2.39423 0
M  V30 4455 H 408.04 4.45353 -1.19088 0
M  V30 4456 H 411.584 5.29811 -4.53813 0
M  V30 4457 H 407.481 5.53223 -3.32588 0
M  V30 4458 H 408.249 6.26398 -5.26847 0
M  V30 4459 N 410.912 0.523116 1.48665 0
M  V30 4460 C 412.189 -0.0775449 1.95446 0
M  V30 4461 C 412.569 -1.5197 1.4652 0
M  V30 4462 O 411.917 -2.17876 0.688657 0
M  V30 4463 C 412.127 0.0326135 3.48985 0
M  V30 4464 C 413.475 -0.130141 4.24401 0
M  V30 4465 O 414.499 -0.0415142 3.56176 0
M  V30 4466 O 413.358 -0.31491 5.45592 0
M  V30 4467 H 410.452 -0.0831012 0.822814 0
M  V30 4468 H 412.998 0.587227 1.59216 0
M  V30 4469 H 411.77 1.03748 3.77296 0
M  V30 4470 H 411.393 -0.671317 3.91892 0
M  V30 4471 N 412.39 -1.55475 0.257931 0
M  V30 4472 C 413.323 -2.179 -0.677862 0
M  V30 4473 C 414.301 -1.13448 -1.16483 0
M  V30 4474 O 415.485 -1.41889 -1.24095 0
M  V30 4475 C 412.612 -2.78851 -1.92249 0
M  V30 4476 C 411.658 -3.96454 -1.57246 0
M  V30 4477 S 412.491 -5.31349 -0.665501 0
M  V30 4478 C 413.647 -5.9576 -1.91889 0
M  V30 4479 H 413.88 -2.96934 -0.147396 0
M  V30 4480 H 411.413 -1.54342 0.0423023 0
M  V30 4481 H 413.371 -3.14602 -2.63697 0
M  V30 4482 H 412.032 -1.99742 -2.42409 0
M  V30 4483 H 411.225 -4.37731 -2.49814 0
M  V30 4484 H 410.827 -3.62038 -0.938325 0
M  V30 4485 H 413.119 -6.13947 -2.86487 0
M  V30 4486 H 414.062 -6.9094 -1.54942 0
M  V30 4487 H 414.47 -5.2494 -2.076 0
M  V30 4488 N 413.868 0.0150385 -1.57593 0
M  V30 4489 C 414.778 1.02791 -2.10882 0
M  V30 4490 C 415.794 1.38702 -1.0506 0
M  V30 4491 O 416.97 1.47739 -1.36877 0
M  V30 4492 C 414.035 2.30568 -2.58919 0
M  V30 4493 C 413.096 2.01108 -3.79281 0
M  V30 4494 C 412.329 3.22794 -4.25018 0
M  V30 4495 O 412.552 4.33959 -3.70183 0
M  V30 4496 O 411.486 3.07672 -5.17322 0
M  V30 4497 H 415.312 0.604973 -2.97613 0
M  V30 4498 H 412.897 0.23292 -1.47573 0
M  V30 4499 H 414.779 3.05662 -2.90084 0
M  V30 4500 H 413.454 2.72129 -1.75293 0
M  V30 4501 H 412.361 1.23537 -3.53114 0
M  V30 4502 H 413.694 1.64394 -4.63935 0
M  V30 4503 N 415.346 1.54954 0.287554 0
M  V30 4504 C 416.571 1.79209 1.04397 0
M  V30 4505 C 416.996 0.556431 1.79682 0
M  V30 4506 O 416.354 -0.493518 1.74454 0
M  V30 4507 C 416.402 3.00739 1.98969 0
M  V30 4508 O 415.506 2.74805 3.075 0
M  V30 4509 H 414.847 0.592755 0.299227 0
M  V30 4510 H 417.377 2.02068 0.320886 0
M  V30 4511 H 417.387 3.29077 2.4119 0
M  V30 4512 H 416.062 3.90329 1.43582 0
M  V30 4513 H 414.639 2.57523 2.69697 0
M  V30 4514 N 416.824 -0.551391 1.4764 0
M  V30 4515 C 418.07 -1.31024 1.54792 0
M  V30 4516 C 418.403 -1.9304 0.211967 0
M  V30 4517 O 417.678 -1.78175 -0.77999 0
M  V30 4518 C 417.961 -2.41593 2.67029 0
M  V30 4519 C 417.814 -1.84408 4.10261 0
M  V30 4520 C 419.133 -3.43488 2.75143 0
M  V30 4521 H 416.252 -0.475031 0.563485 0
M  V30 4522 H 418.894 -0.616454 1.79722 0
M  V30 4523 H 417.044 -3.00772 2.45904 0
M  V30 4524 H 418.716 -1.29445 4.42766 0
M  V30 4525 H 416.959 -1.15051 4.18265 0
M  V30 4526 H 417.63 -2.64367 4.84576 0
M  V30 4527 H 420.106 -2.94236 2.94218 0
M  V30 4528 H 418.982 -4.18274 3.55441 0
M  V30 4529 H 419.243 -4.02703 1.82435 0
M  V30 4530 N 418.302 -1.35869 -0.798587 0
M  V30 4531 C 419.232 -1.32118 -1.92528 0
M  V30 4532 C 420.213 -0.194209 -1.68988 0
M  V30 4533 O 421.398 -0.390426 -1.90235 0
M  V30 4534 C 418.528 -1.10047 -3.29404 0
M  V30 4535 C 417.482 -2.19471 -3.67446 0
M  V30 4536 C 416.808 -1.82555 -5.02571 0
M  V30 4537 C 418.108 -3.61495 -3.76987 0
M  V30 4538 H 419.802 -2.26394 -1.95924 0
M  V30 4539 H 417.348 -1.08981 -0.94123 0
M  V30 4540 H 419.301 -1.06061 -4.07835 0
M  V30 4541 H 418.025 -0.122195 -3.26371 0
M  V30 4542 H 416.684 -2.22568 -2.91306 0
M  V30 4543 H 416.332 -0.833249 -4.9605 0
M  V30 4544 H 416.032 -2.5581 -5.28995 0
M  V30 4545 H 417.556 -1.80108 -5.83432 0
M  V30 4546 H 418.97 -3.60676 -4.4563 0
M  V30 4547 H 417.367 -4.33577 -4.14887 0
M  V30 4548 H 418.437 -3.97065 -2.78329 0
M  V30 4549 N 419.78 1.02168 -1.19998 0
M  V30 4550 C 421.196 1.27969 -0.953737 0
M  V30 4551 C 421.396 1.98079 0.369703 0
M  V30 4552 O 420.452 2.27306 1.09947 0
M  V30 4553 C 421.765 2.11971 -2.13281 0
M  V30 4554 C 423.313 2.25255 -2.17323 0
M  V30 4555 C 423.788 3.12632 -3.34702 0
M  V30 4556 N 425.279 3.2022 -3.34684 0
M  V30 4557 C 426.014 3.88039 -4.22153 0
M  V30 4558 N 425.51 4.58027 -5.19791 0
M  V30 4559 N 427.303 3.84511 -4.10009 0
M  V30 4560 H 419.454 0.550794 -2.05134 0
M  V30 4561 H 421.717 0.305683 -0.897364 0
M  V30 4562 H 421.423 1.67785 -3.09097 0
M  V30 4563 H 421.297 3.12699 -2.10949 0
M  V30 4564 H 423.684 2.68667 -1.22073 0
M  V30 4565 H 423.765 1.24053 -2.23706 0
M  V30 4566 H 423.409 2.69926 -4.30235 0
M  V30 4567 H 423.339 4.13909 -3.25556 0
M  V30 4568 H 425.83 2.70382 -2.64012 0
M  V30 4569 H 426.143 5.07429 -5.82868 0
M  V30 4570 H 424.488 4.56869 -5.23733 0
M  V30 4571 H 427.679 3.28978 -3.33003 0
M  V30 4572 H 427.852 4.3709 -4.78389 0
M  V30 4573 N 421.258 1.00505 1.21394 0
M  V30 4574 C 422.208 0.536503 2.21598 0
M  V30 4575 C 423.192 -0.401914 1.55799 0
M  V30 4576 O 424.384 -0.226757 1.75541 0
M  V30 4577 C 421.513 -0.135446 3.43033 0
M  V30 4578 C 420.599 0.823992 4.16018 0
M  V30 4579 N 420.99 1.97683 4.6557 0
M  V30 4580 C 419.288 0.642387 4.4135 0
M  V30 4581 C 419.989 2.58003 5.21354 0
M  V30 4582 N 418.965 1.86162 5.1073 0
M  V30 4583 H 422.767 1.41557 2.57563 0
M  V30 4584 H 420.281 0.868878 1.37202 0
M  V30 4585 H 422.278 -0.488584 4.14027 0
M  V30 4586 H 420.938 -1.01049 3.08576 0
M  V30 4587 H 421.949 2.3572 4.61147 0
M  V30 4588 H 418.626 -0.185578 4.17087 0
M  V30 4589 H 420.016 3.555 5.70149 0
M  V30 4590 N 422.737 -1.36956 0.779787 0
M  V30 4591 C 423.667 -2.32761 0.185651 0
M  V30 4592 C 424.648 -1.56177 -0.673989 0
M  V30 4593 O 425.833 -1.84378 -0.609797 0
M  V30 4594 C 422.963 -3.40418 -0.687964 0
M  V30 4595 C 421.917 -4.27941 0.0710102 0
M  V30 4596 C 421.243 -5.26681 -0.922573 0
M  V30 4597 C 422.543 -5.07006 1.25467 0
M  V30 4598 H 424.237 -2.82698 0.986008 0
M  V30 4599 H 421.783 -1.3592 0.475592 0
M  V30 4600 H 423.736 -4.06423 -1.11348 0
M  V30 4601 H 422.46 -2.89025 -1.52093 0
M  V30 4602 H 421.119 -3.63478 0.47739 0
M  V30 4603 H 420.767 -4.71565 -1.7503 0
M  V30 4604 H 420.467 -5.86103 -0.419237 0
M  V30 4605 H 421.991 -5.9556 -1.34686 0
M  V30 4606 H 423.405 -5.66105 0.905401 0
M  V30 4607 H 421.802 -5.75793 1.69063 0
M  V30 4608 H 422.872 -4.3921 2.05481 0
M  V30 4609 N 424.215 -0.530993 -1.48385 0
M  V30 4610 C 425.463 0.00273189 -2.021 0
M  V30 4611 C 425.784 1.34672 -1.41027 0
M  V30 4612 O 425.054 1.8724 -0.576012 0
M  V30 4613 H 423.634 0.00399774 -0.746989 0
M  V30 4614 H 426.296 -0.695054 -1.82085 0
M  V30 4615 H 425.392 0.11031 -3.11905 0
M  V30 4616 N 425.693 1.55336 -0.266172 0
M  V30 4617 C 426.942 1.98574 0.353749 0
M  V30 4618 C 427.255 1.15789 1.57646 0
M  V30 4619 O 428.461 1.49129 2.26876 0
M  V30 4620 C 426.917 3.53403 0.680747 0
M  V30 4621 C 426.525 4.44953 -0.52165 0
M  V30 4622 C 428.269 4.05251 1.26379 0
M  V30 4623 C 426.176 5.91156 -0.169736 0
M  V30 4624 H 425.106 0.741643 0.135949 0
M  V30 4625 H 427.757 1.79743 -0.369421 0
M  V30 4626 H 426.139 3.68001 1.46257 0
M  V30 4627 H 427.313 4.42121 -1.29869 0
M  V30 4628 H 425.628 4.03691 -1.02093 0
M  V30 4629 H 428.225 5.12021 1.54074 0
M  V30 4630 H 428.568 3.53749 2.19471 0
M  V30 4631 H 429.101 3.94057 0.544447 0
M  V30 4632 H 425.84 6.46736 -1.0683 0
M  V30 4633 H 425.36 5.97079 0.570717 0
M  V30 4634 H 427.039 6.4655 0.241245 0
M  V30 4635 N 427.171 -0.0066808 1.57599 0
M  V30 4636 C 428.417 -0.693947 1.90558 0
M  V30 4637 C 428.75 -1.73792 0.866594 0
M  V30 4638 O 428.025 -1.94156 -0.115548 0
M  V30 4639 C 428.308 -1.34317 3.34112 0
M  V30 4640 C 428.161 -0.311189 4.48722 0
M  V30 4641 C 429.48 -2.27116 3.7697 0
M  V30 4642 H 426.599 -0.250803 0.693013 0
M  V30 4643 H 429.241 0.043242 1.89951 0
M  V30 4644 H 427.391 -1.9715 3.3476 0
M  V30 4645 H 429.063 0.316944 4.6021 0
M  V30 4646 H 427.306 0.367253 4.32243 0
M  V30 4647 H 427.977 -0.804366 5.46108 0
M  V30 4648 H 430.453 -1.74306 3.77831 0
M  V30 4649 H 429.329 -2.69511 4.78179 0
M  V30 4650 H 429.59 -3.14743 3.10466 0
M  V30 4651 N 428.649 -1.55105 -0.279332 0
M  V30 4652 C 429.926 -1.66119 -1.03267 0
M  V30 4653 C 430.306 -0.523525 -2.04505 0
M  V30 4654 O 429.654 0.477194 -2.23462 0
M  V30 4655 C 429.864 -3.05067 -1.69515 0
M  V30 4656 C 431.212 -3.62606 -2.20912 0
M  V30 4657 O 432.236 -3.07659 -1.79512 0
M  V30 4658 O 431.095 -4.58861 -2.96831 0
M  V30 4659 H 428.189 -0.674429 -0.478618 0
M  V30 4660 H 430.735 -1.67446 -0.275694 0
M  V30 4661 H 429.507 -3.79311 -0.9612 0
M  V30 4662 H 429.13 -3.07611 -2.51915 0
M  V30 4663 N 430.127 0.543554 -1.4793 0
M  V30 4664 C 431.09 1.63156 -1.60975 0
M  V30 4665 C 432.09 1.53346 -0.483899 0
M  V30 4666 O 433.28 1.5726 -0.749339 0
M  V30 4667 C 430.412 3.02743 -1.56716 0
M  V30 4668 H 431.605 1.52934 -2.57975 0
M  V30 4669 H 429.158 0.764557 -1.36324 0
M  V30 4670 H 429.893 3.18484 -0.611418 0
M  V30 4671 H 429.678 3.11272 -2.38438 0
M  V30 4672 H 431.168 3.81871 -1.6901 0
M  V30 4673 N 431.605 1.3629 0.791371 0
M  V30 4674 C 432.852 1.30412 1.54916 0
M  V30 4675 C 433.18 -0.117162 1.94147 0
M  V30 4676 O 432.435 -1.08599 1.62803 0
M  V30 4677 C 432.734 2.17068 2.8393 0
M  V30 4678 C 432.4 3.65645 2.63846 0
M  V30 4679 C 431.062 4.0614 2.58077 0
M  V30 4680 C 433.414 4.59855 2.45322 0
M  V30 4681 C 430.742 5.3899 2.31748 0
M  V30 4682 C 433.094 5.9292 2.2052 0
M  V30 4683 C 431.758 6.32542 2.13183 0
M  V30 4684 H 431.028 0.47721 0.566879 0
M  V30 4685 H 433.675 1.68325 0.913172 0
M  V30 4686 H 431.98 1.72085 3.51986 0
M  V30 4687 H 433.677 2.09846 3.4171 0
M  V30 4688 H 430.267 3.33518 2.69191 0
M  V30 4689 H 434.451 4.29443 2.48782 0
M  V30 4690 H 429.707 5.68672 2.24548 0
M  V30 4691 H 433.881 6.65487 2.05182 0
M  V30 4692 H 431.508 7.35412 1.92544 0
M  V30 4693 N 433.083 -1.0153 1.20538 0
M  V30 4694 C 434.015 -2.10224 0.913155 0
M  V30 4695 C 435.028 -1.62495 -0.0995998 0
M  V30 4696 O 436.217 -1.78014 0.131582 0
M  V30 4697 C 433.317 -3.37111 0.347717 0
M  V30 4698 C 432.49 -4.13971 1.41233 0
M  V30 4699 C 431.549 -5.19158 0.857976 0
M  V30 4700 O 430.575 -5.48 1.53897 0
M  V30 4701 N 431.777 -5.7955 -0.331966 0
M  V30 4702 H 434.542 -2.35879 1.84881 0
M  V30 4703 H 432.103 -1.17931 1.10923 0
M  V30 4704 H 434.095 -4.04683 -0.0373026 0
M  V30 4705 H 432.665 -3.08696 -0.492527 0
M  V30 4706 H 431.885 -3.41351 1.97163 0
M  V30 4707 H 433.173 -4.62103 2.12928 0
M  V30 4708 H 432.571 -5.58455 -0.902478 0
M  V30 4709 H 431.128 -6.48464 -0.65861 0
M  V30 4710 N 434.561 -1.01147 -1.20859 0
M  V30 4711 C 435.493 -0.535546 -2.22855 0
M  V30 4712 C 436.506 0.379323 -1.58319 0
M  V30 4713 O 437.695 0.178489 -1.77605 0
M  V30 4714 C 434.795 0.240962 -3.38042 0
M  V30 4715 C 433.968 -0.674562 -4.32167 0
M  V30 4716 C 433.027 0.053467 -5.26173 0
M  V30 4717 O 432.053 -0.567339 -5.66366 0
M  V30 4718 N 433.255 1.32997 -5.65059 0
M  V30 4719 H 436.02 -1.41268 -2.64317 0
M  V30 4720 H 433.581 -0.888386 -1.35349 0
M  V30 4721 H 435.573 0.737115 -3.97931 0
M  V30 4722 H 434.143 1.01935 -2.95513 0
M  V30 4723 H 433.363 -1.35111 -3.70322 0
M  V30 4724 H 434.651 -1.2974 -4.91981 0
M  V30 4725 H 434.049 1.85536 -5.34409 0
M  V30 4726 H 432.606 1.77095 -6.2728 0
M  V30 4727 N 436.039 1.36541 -0.78704 0
M  V30 4728 C 437.287 1.98911 -0.357633 0
M  V30 4729 C 437.608 1.62778 1.07371 0
M  V30 4730 O 436.878 0.900612 1.73971 0
M  V30 4731 H 435.458 0.735734 -0.129246 0
M  V30 4732 H 438.12 1.66776 -1.00855 0
M  V30 4733 H 437.216 3.08874 -0.447549 0
M  V30 4734 N 437.518 0.538854 1.48102 0
M  V30 4735 C 438.465 -0.219042 2.29758 0
M  V30 4736 C 439.435 -0.925562 1.37922 0
M  V30 4737 O 440.62 -0.924855 1.66886 0
M  V30 4738 C 437.76 -1.25452 3.2149 0
M  V30 4739 C 436.873 -0.555943 4.28408 0
M  V30 4740 C 436.008 -1.57512 5.0731 0
M  V30 4741 C 435.047 -0.860498 6.06021 0
M  V30 4742 N 434.184 -1.82564 6.77949 0
M  V30 4743 H 439.024 0.483449 2.94052 0
M  V30 4744 H 436.561 0.250247 1.44956 0
M  V30 4745 H 438.519 -1.86727 3.7308 0
M  V30 4746 H 437.149 -1.92528 2.591 0
M  V30 4747 H 436.201 0.170938 3.80016 0
M  V30 4748 H 437.513 0.00474616 4.988 0
M  V30 4749 H 436.667 -2.26191 5.62959 0
M  V30 4750 H 435.406 -2.16972 4.36778 0
M  V30 4751 H 434.411 -0.159686 5.49568 0
M  V30 4752 H 435.636 -0.271897 6.78555 0
M  V30 4753 H 433.582 -2.40915 6.10161 0
M  V30 4754 H 433.499 -1.31662 7.44447 0
M  V30 4755 H 434.767 -2.50414 7.38182 0
M  V30 4756 N 438.996 -1.55193 0.274407 0
M  V30 4757 C 439.959 -2.212 -0.600279 0
M  V30 4758 C 440.959 -1.18963 -1.08187 0
M  V30 4759 O 442.149 -1.43873 -0.982158 0
M  V30 4760 C 439.281 -2.87739 -1.82809 0
M  V30 4761 H 440.474 -2.9989 -0.0239682 0
M  V30 4762 H 438.027 -1.5628 0.0250192 0
M  V30 4763 H 438.762 -2.13058 -2.44493 0
M  V30 4764 H 438.547 -3.62658 -1.49069 0
M  V30 4765 H 440.037 -3.38171 -2.45011 0
M  V30 4766 N 440.474 -0.00167713 -1.576 0
M  V30 4767 C 441.751 0.719951 -1.81868 0
M  V30 4768 C 442.131 1.91895 -0.879747 0
M  V30 4769 O 441.479 2.28389 0.0711423 0
M  V30 4770 C 441.689 1.12409 -3.30402 0
M  V30 4771 C 443.037 1.52724 -3.96182 0
M  V30 4772 O 444.061 1.21784 -3.34734 0
M  V30 4773 O 442.92 2.10265 -5.04431 0
M  V30 4774 H 440.014 0.350707 -0.748955 0
M  V30 4775 H 442.56 -0.0272597 -1.69678 0
M  V30 4776 H 441.332 0.269532 -3.90371 0
M  V30 4777 H 440.955 1.93035 -3.47596 0
M  V30 4778 N 441.952 1.55251 0.271103 0
M  V30 4779 C 442.882 1.9127 1.33933 0
M  V30 4780 C 443.863 0.77478 1.5143 0
M  V30 4781 O 445.048 1.03307 1.64442 0
M  V30 4782 C 442.178 2.18627 2.69851 0
M  V30 4783 C 441.132 3.34442 2.67081 0
M  V30 4784 C 440.458 3.47284 4.06569 0
M  V30 4785 C 441.758 4.70784 2.26185 0
M  V30 4786 H 443.452 2.80744 1.04035 0
M  V30 4787 H 440.998 1.35077 0.499017 0
M  V30 4788 H 442.951 2.42413 3.44694 0
M  V30 4789 H 441.675 1.25955 3.01335 0
M  V30 4790 H 440.334 3.10627 1.94695 0
M  V30 4791 H 439.982 2.52074 4.35279 0
M  V30 4792 H 439.682 4.25152 4.0561 0
M  V30 4793 H 441.206 3.73363 4.83148 0
M  V30 4794 H 442.62 4.94102 2.90751 0
M  V30 4795 H 441.017 5.51582 2.36384 0
M  V30 4796 H 442.087 4.69478 1.21319 0
M  V30 4797 N 443.43 -0.535701 1.48216 0
M  V30 4798 C 444.655 -1.32149 1.59848 0
M  V30 4799 C 445.08 -1.86338 0.256842 0
M  V30 4800 O 444.438 -1.64107 -0.770632 0
M  V30 4801 C 444.486 -2.45224 2.64381 0
M  V30 4802 O 443.59 -3.48093 2.21144 0
M  V30 4803 H 442.931 -0.391634 0.536208 0
M  V30 4804 H 445.461 -0.645202 1.94161 0
M  V30 4805 H 445.471 -2.91491 2.85476 0
M  V30 4806 H 444.146 -2.05143 3.61786 0
M  V30 4807 H 442.723 -3.07984 2.10239 0
M  V30 4808 N 444.908 -1.36708 -0.784132 0
M  V30 4809 C 445.871 -1.31307 -1.87859 0
M  V30 4810 C 446.871 -0.219654 -1.59293 0
M  V30 4811 O 448.061 -0.47476 -1.67606 0
M  V30 4812 C 445.193 -1.03679 -3.24751 0
M  V30 4813 H 446.386 -2.28647 -1.94064 0
M  V30 4814 H 443.939 -1.21558 -0.98252 0
M  V30 4815 H 444.674 -0.0681936 -3.24228 0
M  V30 4816 H 444.459 -1.82811 -3.46876 0
M  V30 4817 H 445.949 -1.02518 -4.04821 0
M  V30 4818 N 446.386 1.0089 -1.21074 0
M  V30 4819 C 447.319 2.09279 -0.909806 0
M  V30 4820 C 448.297 1.61986 0.141145 0
M  V30 4821 O 449.481 1.88495 0.0130332 0
M  V30 4822 C 446.608 3.36723 -0.365374 0
M  V30 4823 C 445.654 4.02919 -1.39852 0
M  V30 4824 S 446.487 4.45835 -2.96633 0
M  V30 4825 C 447.643 5.76471 -2.43786 0
M  V30 4826 H 447.876 2.34484 -1.82769 0
M  V30 4827 H 445.409 1.14115 -1.04006 0
M  V30 4828 H 447.367 4.10459 -0.0578203 0
M  V30 4829 H 446.028 3.09577 0.531136 0
M  V30 4830 H 445.221 4.94634 -0.967117 0
M  V30 4831 H 444.823 3.35441 -1.65395 0
M  V30 4832 H 447.115 6.52027 -1.84029 0
M  V30 4833 H 448.058 6.24418 -3.33928 0
M  V30 4834 H 448.466 5.33104 -1.85636 0
M  V30 4835 N 447.864 1.01787 1.20321 0
M  V30 4836 C 449.089 0.727009 1.9424 0
M  V30 4837 C 449.514 -0.706179 1.74341 0
M  V30 4838 O 448.872 -1.48609 1.03852 0
M  V30 4839 C 448.92 1.06958 3.44372 0
M  V30 4840 O 448.024 0.181983 4.11998 0
M  V30 4841 H 447.365 0.269626 0.606793 0
M  V30 4842 H 449.895 1.36158 1.52716 0
M  V30 4843 H 449.905 1.02182 3.94997 0
M  V30 4844 H 448.58 2.11378 3.58179 0
M  V30 4845 H 447.157 0.287378 3.71791 0
M  V30 4846 N 449.342 -1.36122 0.79427 0
M  V30 4847 C 450.305 -2.28309 0.201889 0
M  V30 4848 C 451.305 -1.49041 -0.603603 0
M  V30 4849 O 452.495 -1.68964 -0.423888 0
M  V30 4850 C 449.627 -3.3321 -0.719978 0
M  V30 4851 H 450.82 -2.82208 1.01481 0
M  V30 4852 H 448.373 -1.45768 0.564037 0
M  V30 4853 H 449.108 -2.84475 -1.55706 0
M  V30 4854 H 448.893 -3.91835 -0.144266 0
M  V30 4855 H 450.383 -4.02044 -1.12916 0
M  V30 4856 N 450.82 -0.546701 -1.47814 0
M  V30 4857 C 451.73 0.21026 -2.33656 0
M  V30 4858 C 452.746 0.922413 -1.47538 0
M  V30 4859 O 453.922 0.893652 -1.80488 0
M  V30 4860 C 450.987 1.23348 -3.24016 0
M  V30 4861 C 450.048 0.529883 -4.26017 0
M  V30 4862 C 449.281 1.50435 -5.12059 0
M  V30 4863 O 449.504 2.73837 -5.00369 0
M  V30 4864 O 448.438 1.03459 -5.92942 0
M  V30 4865 H 452.264 -0.493605 -2.99662 0
M  V30 4866 H 449.849 -0.307427 -1.46203 0
M  V30 4867 H 451.731 1.82438 -3.79861 0
M  V30 4868 H 450.406 1.91945 -2.60651 0
M  V30 4869 H 449.313 -0.101948 -3.73961 0
M  V30 4870 H 450.646 -0.11445 -4.92067 0
M  V30 4871 N 452.299 1.55045 -0.282633 0
M  V30 4872 C 453.715 1.59441 0.0712997 0
M  V30 4873 C 453.915 1.2998 1.53972 0
M  V30 4874 O 452.971 1.06431 2.28973 0
M  V30 4875 C 454.284 2.99097 -0.310104 0
M  V30 4876 C 455.832 3.1194 -0.257343 0
M  V30 4877 C 456.307 4.53875 -0.613297 0
M  V30 4878 N 457.798 4.5974 -0.565134 0
M  V30 4879 C 458.533 5.67603 -0.81326 0
M  V30 4880 N 458.029 6.83582 -1.1264 0
M  V30 4881 N 459.822 5.57187 -0.741553 0
M  V30 4882 H 451.973 1.72458 -1.23984 0
M  V30 4883 H 454.236 0.804549 -0.501403 0
M  V30 4884 H 453.942 3.25516 -1.33163 0
M  V30 4885 H 453.816 3.75616 0.345366 0
M  V30 4886 H 456.203 2.85281 0.754905 0
M  V30 4887 H 456.284 2.37618 -0.947178 0
M  V30 4888 H 455.928 4.81261 -1.62327 0
M  V30 4889 H 455.858 5.26508 0.09841 0
M  V30 4890 H 458.349 3.76427 -0.333294 0
M  V30 4891 H 458.662 7.6175 -1.30219 0
M  V30 4892 H 457.007 6.85179 -1.16425 0
M  V30 4893 H 460.198 4.65457 -0.496705 0
M  V30 4894 H 460.371 6.41171 -0.938306 0
M  V30 4895 N 453.777 0.010035 1.57597 0
M  V30 4896 C 455.054 -0.710296 1.82248 0
M  V30 4897 C 455.434 -1.91426 0.889911 0
M  V30 4898 O 454.782 -2.28424 -0.0590292 0
M  V30 4899 C 454.992 -1.10655 3.30993 0
M  V30 4900 C 456.34 -1.50621 3.96987 0
M  V30 4901 O 457.364 -1.20007 3.35375 0
M  V30 4902 O 456.223 -2.07587 5.05539 0
M  V30 4903 H 453.317 -0.34673 0.750804 0
M  V30 4904 H 455.863 0.0362578 1.69661 0
M  V30 4905 H 454.635 -0.248826 3.90508 0
M  V30 4906 H 454.258 -1.91189 3.48615 0
M  V30 4907 N 455.255 -1.55392 -0.262866 0
M  V30 4908 C 456.185 -1.91978 -1.32917 0
M  V30 4909 C 457.166 -0.7828 -1.51017 0
M  V30 4910 O 458.351 -1.04178 -1.63892 0
M  V30 4911 C 455.481 -2.20055 -2.68687 0
M  V30 4912 C 454.435 -3.35854 -2.65304 0
M  V30 4913 C 453.761 -3.49435 -4.04721 0
M  V30 4914 C 455.061 -4.71977 -2.23685 0
M  V30 4915 H 456.755 -2.81292 -1.02544 0
M  V30 4916 H 454.301 -1.3534 -0.491846 0
M  V30 4917 H 456.254 -2.44237 -3.43404 0
M  V30 4918 H 454.978 -1.27551 -3.00663 0
M  V30 4919 H 453.637 -3.11655 -1.93045 0
M  V30 4920 H 453.285 -2.54379 -4.33936 0
M  V30 4921 H 452.985 -4.27297 -4.0335 0
M  V30 4922 H 454.509 -3.7592 -4.81161 0
M  V30 4923 H 455.923 -4.95637 -2.88127 0
M  V30 4924 H 454.32 -5.52828 -2.33456 0
M  V30 4925 H 455.39 -4.70115 -1.18827 0
M  V30 4926 N 456.733 0.527833 -1.48498 0
M  V30 4927 C 457.973 1.29401 -1.58224 0
M  V30 4928 C 458.337 1.90348 -0.251327 0
M  V30 4929 O 459.538 2.67868 -0.223588 0
M  V30 4930 C 457.809 2.35266 -2.69044 0
M  V30 4931 S 459.368 3.2158 -2.98549 0
M  V30 4932 H 456.186 0.440138 -0.558391 0
M  V30 4933 H 458.788 0.601079 -1.8603 0
M  V30 4934 H 457.492 1.88975 -3.64303 0
M  V30 4935 H 457.023 3.09263 -2.43146 0
M  V30 4936 H 459.038 4.35391 -2.38011 0
M  V30 4937 N 458.211 1.37122 0.776871 0
M  V30 4938 C 459.141 1.35164 1.90402 0
M  V30 4939 C 460.122 0.221069 1.68657 0
M  V30 4940 O 461.307 0.420642 1.8959 0
M  V30 4941 C 458.437 1.15274 3.27611 0
M  V30 4942 C 457.391 2.25289 3.63908 0
M  V30 4943 C 456.717 1.90527 4.99603 0
M  V30 4944 C 458.017 3.67446 3.71188 0
M  V30 4945 H 459.711 2.29482 1.92297 0
M  V30 4946 H 457.257 1.10465 0.923773 0
M  V30 4947 H 459.21 1.12536 4.06096 0
M  V30 4948 H 457.934 0.174102 3.26136 0
M  V30 4949 H 456.593 2.27174 2.87728 0
M  V30 4950 H 456.241 0.91206 4.94662 0
M  V30 4951 H 455.941 2.64193 5.24858 0
M  V30 4952 H 457.465 1.89367 5.80493 0
M  V30 4953 H 458.879 3.67719 4.39836 0
M  V30 4954 H 457.276 4.40123 4.07936 0
M  V30 4955 H 458.346 4.01443 2.71977 0
M  V30 4956 N 459.689 -1.00246 1.21608 0
M  V30 4957 C 460.914 -1.78167 1.06167 0
M  V30 4958 C 461.339 -1.84138 -0.384035 0
M  V30 4959 O 460.697 -1.28683 -1.27712 0
M  V30 4960 C 460.745 -3.19786 1.66642 0
M  V30 4961 O 459.849 -4.02153 0.913613 0
M  V30 4962 H 459.19 -0.549 0.37349 0
M  V30 4963 H 461.72 -1.25994 1.61204 0
M  V30 4964 H 461.73 -3.70451 1.70969 0
M  V30 4965 H 460.405 -3.14754 2.7185 0
M  V30 4966 H 458.982 -3.60711 0.945635 0
M  V30 4967 N 461.167 -1.02423 -1.1978 0
M  V30 4968 C 462.114 -0.601023 -2.22837 0
M  V30 4969 C 463.084 0.382801 -1.61629 0
M  V30 4970 O 464.269 0.280514 -1.88727 0
M  V30 4971 C 461.409 0.0467755 -3.45068 0
M  V30 4972 C 460.522 -0.98253 -4.20678 0
M  V30 4973 C 459.657 -0.304982 -5.30324 0
M  V30 4974 C 458.696 -1.32052 -5.97686 0
M  V30 4975 N 457.833 -0.669105 -6.98904 0
M  V30 4976 H 462.673 -1.48444 -2.58396 0
M  V30 4977 H 460.21 -0.742936 -1.2696 0
M  V30 4978 H 462.168 0.439556 -4.14878 0
M  V30 4979 H 460.798 0.893796 -3.10179 0
M  V30 4980 H 459.85 -1.49341 -3.49859 0
M  V30 4981 H 461.162 -1.75455 -4.66923 0
M  V30 4982 H 460.316 0.142893 -6.06532 0
M  V30 4983 H 459.055 0.499283 -4.85138 0
M  V30 4984 H 458.06 -1.7787 -5.20233 0
M  V30 4985 H 459.285 -2.1262 -6.44957 0
M  V30 4986 H 457.231 0.115152 -6.55899 0
M  V30 4987 H 457.148 -1.37908 -7.43315 0
M  V30 4988 H 458.416 -0.245076 -7.79115 0
M  V30 4989 N 462.645 1.35699 -0.801477 0
M  V30 4990 C 463.892 1.98913 -0.379459 0
M  V30 4991 C 464.22 1.63592 1.05204 0
M  V30 4992 O 463.475 0.888563 1.74365 0
M  V30 4993 C 463.774 3.53828 -0.504041 0
M  V30 4994 C 463.44 4.09002 -1.8981 0
M  V30 4995 C 462.102 4.23783 -2.27951 0
M  V30 4996 C 464.454 4.38939 -2.81038 0
M  V30 4997 C 461.782 4.65816 -3.56696 0
M  V30 4998 C 464.134 4.82409 -4.09224 0
M  V30 4999 C 462.798 4.95395 -4.4737 0
M  V30 5000 H 462.068 0.727874 -0.138854 0
M  V30 5001 H 464.715 1.61994 -1.02128 0
M  V30 5002 H 463.02 3.91175 0.221242 0
M  V30 5003 H 464.717 4.00687 -0.158361 0
M  V30 5004 H 461.307 3.97946 -1.59176 0
M  V30 5005 H 465.491 4.27077 -2.52821 0
M  V30 5006 H 460.747 4.74059 -3.86106 0
M  V30 5007 H 464.921 5.04535 -4.80018 0
M  V30 5008 H 462.548 5.27724 -5.47185 0
M  V30 5009 N 464.123 0.554532 1.47522 0
M  V30 5010 C 465.369 0.0295227 2.02779 0
M  V30 5011 C 465.702 -1.31582 1.42828 0
M  V30 5012 O 464.977 -1.85561 0.582872 0
M  V30 5013 C 465.26 -0.0664057 3.60039 0
M  V30 5014 C 465.113 1.30585 4.30427 0
M  V30 5015 C 466.432 -0.781162 4.33112 0
M  V30 5016 H 463.551 0.0122027 0.736899 0
M  V30 5017 H 466.193 0.716305 1.7598 0
M  V30 5018 H 464.343 -0.651307 3.83002 0
M  V30 5019 H 466.015 1.93374 4.18813 0
M  V30 5020 H 464.258 1.88125 3.90886 0
M  V30 5021 H 464.929 1.19147 5.38988 0
M  V30 5022 H 467.405 -0.284565 4.15126 0
M  V30 5023 H 466.281 -0.817237 5.42782 0
M  V30 5024 H 466.542 -1.83672 4.0214 0
M  V30 5025 N 465.601 -1.54893 0.290851 0
M  V30 5026 C 466.551 -2.19838 -0.604599 0
M  V30 5027 C 467.535 -1.16805 -1.10659 0
M  V30 5028 O 468.727 -1.42562 -1.04905 0
M  V30 5029 C 465.856 -2.93497 -1.78086 0
M  V30 5030 C 464.942 -4.03835 -1.29531 0
M  V30 5031 N 465.333 -5.03047 -0.527024 0
M  V30 5032 C 463.631 -4.17192 -1.57693 0
M  V30 5033 C 464.332 -5.81074 -0.269728 0
M  V30 5034 N 463.308 -5.36966 -0.846651 0
M  V30 5035 H 467.11 -2.93898 -0.00995032 0
M  V30 5036 H 464.624 -1.62121 0.0951353 0
M  V30 5037 H 466.621 -3.38484 -2.43381 0
M  V30 5038 H 465.281 -2.2095 -2.37931 0
M  V30 5039 H 466.292 -5.17611 -0.172872 0
M  V30 5040 H 462.969 -3.55845 -2.18359 0
M  V30 5041 H 464.359 -6.71005 0.346643 0
M  V30 5042 N 467.08 -0.0183926 -1.57589 0
M  V30 5043 C 468.027 0.967022 -2.09565 0
M  V30 5044 C 468.997 1.32983 -0.995225 0
M  V30 5045 O 470.182 1.42501 -1.26878 0
M  V30 5046 C 467.322 2.24772 -2.61861 0
M  V30 5047 C 466.435 1.94232 -3.85873 0
M  V30 5048 C 465.57 3.16518 -4.26603 0
M  V30 5049 C 464.609 2.81748 -5.43401 0
M  V30 5050 N 463.746 3.96626 -5.79338 0
M  V30 5051 H 468.586 0.516874 -2.93483 0
M  V30 5052 H 466.123 0.243544 -1.4507 0
M  V30 5053 H 468.081 2.99667 -2.90268 0
M  V30 5054 H 466.711 2.67423 -1.8079 0
M  V30 5055 H 465.763 1.09625 -3.64262 0
M  V30 5056 H 467.075 1.64616 -4.70853 0
M  V30 5057 H 466.229 3.99743 -4.56389 0
M  V30 5058 H 464.968 3.49286 -3.40368 0
M  V30 5059 H 463.973 1.96933 -5.1332 0
M  V30 5060 H 465.198 2.50207 -6.31327 0
M  V30 5061 H 463.144 4.29257 -4.96059 0
M  V30 5062 H 463.061 3.70598 -6.58933 0
M  V30 5063 H 464.329 4.80586 -6.13724 0
M  V30 5064 N 468.558 1.5553 0.254621 0
M  V30 5065 C 469.783 1.81383 1.00573 0
M  V30 5066 C 470.208 0.594419 1.78461 0
M  V30 5067 O 469.566 -0.456403 1.75461 0
M  V30 5068 C 469.614 3.04892 1.92545 0
M  V30 5069 O 468.718 2.81266 3.01601 0
M  V30 5070 H 468.059 0.598969 0.286587 0
M  V30 5071 H 470.589 2.02703 0.277952 0
M  V30 5072 H 470.599 3.34119 2.34155 0
M  V30 5073 H 469.274 3.93287 1.3527 0
M  V30 5074 H 467.851 2.63185 2.64174 0
M  V30 5075 N 470.036 -0.519951 1.48776 0
M  V30 5076 C 471.283 -1.27522 1.57303 0
M  V30 5077 C 471.611 -1.92869 0.251328 0
M  V30 5078 O 470.866 -1.80372 -0.759243 0
M  V30 5079 C 471.165 -2.37864 2.6675 0
M  V30 5080 C 470.831 -1.90103 4.08867 0
M  V30 5081 C 469.493 -1.76795 4.47546 0
M  V30 5082 C 471.845 -1.54133 4.97888 0
M  V30 5083 C 469.173 -1.25868 5.73039 0
M  V30 5084 C 471.525 -1.04665 6.23881 0
M  V30 5085 C 470.189 -0.899823 6.61407 0
M  V30 5086 H 469.459 -0.466636 0.575614 0
M  V30 5087 H 472.106 -0.579109 1.82534 0
M  V30 5088 H 470.411 -3.13186 2.35418 0
M  V30 5089 H 472.108 -2.95969 2.70561 0
M  V30 5090 H 468.698 -2.01414 3.78326 0
M  V30 5091 H 472.882 -1.6327 4.68675 0
M  V30 5092 H 468.138 -1.13196 6.0083 0
M  V30 5093 H 472.312 -0.759074 6.92251 0
M  V30 5094 H 469.939 -0.503011 7.58534 0
M  V30 5095 N 471.514 -1.37532 -0.769588 0
M  V30 5096 C 472.76 -1.33057 -1.53048 0
M  V30 5097 C 473.093 0.0841865 -1.94017 0
M  V30 5098 O 472.368 1.04198 -1.64235 0
M  V30 5099 C 472.651 -2.27166 -2.79406 0
M  V30 5100 C 472.504 -3.77429 -2.44677 0
M  V30 5101 C 473.823 -2.19683 -3.81349 0
M  V30 5102 H 470.942 -0.484655 -0.555228 0
M  V30 5103 H 473.584 -1.68251 -0.882702 0
M  V30 5104 H 471.734 -1.97283 -3.34682 0
M  V30 5105 H 473.406 -4.17918 -1.953 0
M  V30 5106 H 471.649 -3.95892 -1.77346 0
M  V30 5107 H 472.32 -4.38716 -3.35011 0
M  V30 5108 H 474.796 -2.46029 -3.35573 0
M  V30 5109 H 473.672 -2.87668 -4.67481 0
M  V30 5110 H 473.933 -1.19045 -4.25771 0
M  V30 5111 N 472.992 0.995999 -1.22138 0
M  V30 5112 C 473.902 2.11985 -1.00496 0
M  V30 5113 C 474.918 1.7394 0.0457701 0
M  V30 5114 O 476.094 2.00868 -0.146273 0
M  V30 5115 C 473.159 3.41779 -0.582086 0
M  V30 5116 C 472.22 3.93943 -1.70608 0
M  V30 5117 C 471.453 5.17542 -1.30328 0
M  V30 5118 O 471.676 5.70114 -0.180743 0
M  V30 5119 O 470.61 5.63382 -2.11861 0
M  V30 5120 H 474.436 2.33123 -1.94647 0
M  V30 5121 H 472.021 1.10358 -1.00705 0
M  V30 5122 H 473.903 4.1989 -0.356467 0
M  V30 5123 H 472.578 3.22007 0.330592 0
M  V30 5124 H 471.485 3.17019 -1.98619 0
M  V30 5125 H 472.818 4.18141 -2.59651 0
M  V30 5126 N 474.47 1.03057 1.19235 0
M  V30 5127 C 475.716 0.729098 1.89241 0
M  V30 5128 C 476.049 -0.740573 1.79525 0
M  V30 5129 O 475.324 -1.53946 1.18874 0
M  V30 5130 C 475.607 1.18304 3.40112 0
M  V30 5131 C 475.46 2.71406 3.5869 0
M  V30 5132 C 476.779 0.765161 4.33397 0
M  V30 5133 H 473.898 0.266338 0.687192 0
M  V30 5134 H 476.54 1.28079 1.40341 0
M  V30 5135 H 474.69 0.713672 3.81889 0
M  V30 5136 H 476.362 3.26303 3.26074 0
M  V30 5137 H 474.605 3.11717 3.01687 0
M  V30 5138 H 475.276 2.98225 4.64506 0
M  V30 5139 H 477.752 1.16889 3.99345 0
M  V30 5140 H 476.628 1.11065 5.37546 0
M  V30 5141 H 476.889 -0.332372 4.40849 0
M  V30 5142 N 475.948 -1.35272 0.808662 0
M  V30 5143 C 476.896 -2.31663 0.208606 0
M  V30 5144 C 477.89 -1.56731 -0.642778 0
M  V30 5145 O 479.096 -1.71843 -0.53571 0
M  V30 5146 H 475.471 -0.750421 0.0486993 0
M  V30 5147 H 477.442 -2.79814 1.03666 0
M  V30 5148 C 476.191 -3.42008 -0.626573 0
M  V30 5149 H 475.514 -3.99795 0.0192103 0
M  V30 5150 H 476.954 -4.11727 -1.01278 0
M  V30 5151 C 475.413 -2.85226 -1.79298 0
M  V30 5152 O 475.943 -2.78945 -2.89055 0
M  V30 5153 N 474.149 -2.42245 -1.60516 0
M  V30 5154 H 473.696 -2.47554 -0.712375 0
M  V30 5155 H 473.654 -2.04603 -2.38715 0
M  V30 5156 N 477.426 -0.562348 -1.47226 0
M  V30 5157 C 478.336 0.185466 -2.33866 0
M  V30 5158 C 479.352 0.906713 -1.48508 0
M  V30 5159 O 480.528 0.874458 -1.81425 0
M  V30 5160 C 477.593 1.19904 -3.25306 0
M  V30 5161 C 476.654 0.484669 -4.26555 0
M  V30 5162 C 475.887 1.44996 -5.13626 0
M  V30 5163 O 476.11 2.68515 -5.03245 0
M  V30 5164 O 475.044 0.971642 -5.94006 0
M  V30 5165 H 478.87 -0.525361 -2.99121 0
M  V30 5166 H 476.455 -0.322916 -1.45868 0
M  V30 5167 H 478.337 1.78399 -3.81774 0
M  V30 5168 H 477.012 1.8917 -2.62672 0
M  V30 5169 H 475.919 -0.141605 -3.73832 0
M  V30 5170 H 477.252 -0.166634 -4.91918 0
M  V30 5171 N 478.904 1.54736 -0.299062 0
M  V30 5172 C 479.814 2.27127 0.587413 0
M  V30 5173 C 480.83 1.30575 1.15005 0
M  V30 5174 O 482.006 1.63554 1.17525 0
M  V30 5175 C 479.071 2.99645 1.74395 0
M  V30 5176 C 478.132 4.11731 1.21559 0
M  V30 5177 C 477.365 4.80781 2.317 0
M  V30 5178 O 477.588 4.4918 3.51558 0
M  V30 5179 O 476.522 5.68226 1.98501 0
M  V30 5180 H 480.348 3.037 0.000250109 0
M  V30 5181 H 477.933 1.49256 -0.0655919 0
M  V30 5182 H 479.815 3.45138 2.4178 0
M  V30 5183 H 478.49 2.25969 2.31775 0
M  V30 5184 H 477.397 3.70641 0.507514 0
M  V30 5185 H 478.73 4.87379 0.687233 0
M  V30 5186 N 480.382 0.0267497 1.57577 0
M  V30 5187 C 481.63 -0.651116 1.91324 0
M  V30 5188 C 481.951 -1.72804 0.90353 0
M  V30 5189 O 481.221 -1.95822 -0.0552946 0
M  V30 5190 H 479.801 -0.243491 0.706202 0
M  V30 5191 H 482.463 0.0739935 1.94759 0
M  V30 5192 H 481.559 -1.10536 2.9187 0
M  V30 5193 N 481.861 -1.55662 -0.24637 0
M  V30 5194 C 483.089 -1.81575 -0.991876 0
M  V30 5195 C 483.504 -0.602545 -1.78927 0
M  V30 5196 O 482.861 0.428795 -1.77391 0
M  V30 5197 C 482.912 -3.05711 -1.92933 0
M  V30 5198 O 482.633 -4.22348 -1.1642 0
M  V30 5199 C 484.134 -3.44428 -2.79078 0
M  V30 5200 H 481.354 -0.604209 -0.291844 0
M  V30 5201 H 483.898 -2.02722 -0.269095 0
M  V30 5202 H 482.053 -2.86612 -2.60638 0
M  V30 5203 H 482.467 -4.92706 -1.79835 0
M  V30 5204 H 483.941 -4.34388 -3.40603 0
M  V30 5205 H 484.418 -2.65037 -3.50217 0
M  V30 5206 H 485.024 -3.65879 -2.16824 0
M  V30 5207 N 483.339 0.512053 -1.4905 0
M  V30 5208 C 484.249 1.64139 -1.67617 0
M  V30 5209 C 485.265 1.64786 -0.558701 0
M  V30 5210 O 486.441 1.8341 -0.832034 0
M  V30 5211 C 483.506 3.00548 -1.72835 0
M  V30 5212 C 482.567 3.10615 -2.96339 0
M  V30 5213 C 481.8 4.40517 -3.01298 0
M  V30 5214 O 482.023 5.28671 -2.14157 0
M  V30 5215 O 480.957 4.55325 -3.93653 0
M  V30 5216 H 484.783 1.51407 -2.63267 0
M  V30 5217 H 482.368 0.687131 -1.32661 0
M  V30 5218 H 484.25 3.81641 -1.78683 0
M  V30 5219 H 482.925 3.13566 -0.803616 0
M  V30 5220 H 481.832 2.2875 -2.96014 0
M  V30 5221 H 483.165 3.0252 -3.88256 0
M  V30 5222 N 484.817 1.37938 0.762283 0
M  V30 5223 C 485.78 1.34279 1.85747 0
M  V30 5224 C 486.78 0.244969 1.58923 0
M  V30 5225 O 487.97 0.501365 1.66829 0
M  V30 5226 C 485.102 1.08833 3.23061 0
M  V30 5227 H 486.295 2.31705 1.90401 0
M  V30 5228 H 483.848 1.23105 0.963057 0
M  V30 5229 H 484.583 0.119767 3.24079 0
M  V30 5230 H 484.368 1.88306 3.43923 0
M  V30 5231 H 485.858 1.08946 4.03138 0
M  V30 5232 N 486.295 -0.989507 1.22664 0
M  V30 5233 C 487.258 -2.06183 1.00106 0
M  V30 5234 C 488.258 -1.60765 -0.0337726 0
M  V30 5235 O 489.448 -1.72989 0.205072 0
M  V30 5236 C 486.58 -3.37021 0.51279 0
M  V30 5237 H 487.773 -2.27629 1.95256 0
M  V30 5238 H 485.326 -1.16158 1.0458 0
M  V30 5239 H 486.061 -3.21261 -0.442917 0
M  V30 5240 H 485.846 -3.71323 1.25942 0
M  V30 5241 H 487.336 -4.1591 0.375315 0
M  V30 5242 N 487.773 -1.03688 -1.18687 0
M  V30 5243 C 488.736 -0.629115 -2.20397 0
M  V30 5244 C 489.736 0.311495 -1.57754 0
M  V30 5245 O 490.926 0.0974107 -1.73927 0
M  V30 5246 C 488.058 0.0782231 -3.4081 0
M  V30 5247 H 489.251 -1.52915 -2.57987 0
M  V30 5248 H 486.804 -0.828988 -1.32505 0
M  V30 5249 H 487.539 0.992233 -3.08748 0
M  V30 5250 H 487.324 -0.597776 -3.87517 0
M  V30 5251 H 488.814 0.350156 -4.16129 0
M  V30 5252 N 489.251 1.34841 -0.815825 0
M  V30 5253 C 490.214 2.27959 -0.238185 0
M  V30 5254 C 491.214 1.49983 0.579816 0
M  V30 5255 O 492.404 1.69617 0.396953 0
M  V30 5256 C 489.536 3.34314 0.666876 0
M  V30 5257 H 490.729 2.80558 -1.05958 0
M  V30 5258 H 488.282 1.44852 -0.587156 0
M  V30 5259 H 489.017 2.86916 1.5116 0
M  V30 5260 H 488.802 3.92014 0.0819106 0
M  V30 5261 H 490.292 4.0379 1.06506 0
M  V30 5262 N 490.729 0.570148 1.46925 0
M  V30 5263 C 491.954 0.0542592 2.07329 0
M  V30 5264 C 492.379 -1.23582 1.41806 0
M  V30 5265 O 491.737 -1.74341 0.497479 0
M  V30 5266 C 491.785 -0.111175 3.60429 0
M  V30 5267 O 490.889 -1.17071 3.95434 0
M  V30 5268 H 490.23 0.0571425 0.661537 0
M  V30 5269 H 492.76 0.789516 1.88753 0
M  V30 5270 H 492.77 -0.321315 4.06733 0
M  V30 5271 H 491.445 0.831012 4.07513 0
M  V30 5272 H 490.022 -0.940029 3.60857 0
M  V30 5273 N 492.207 -1.54576 0.307264 0
M  V30 5274 C 493.432 -2.05139 -0.305379 0
M  V30 5275 C 493.857 -1.18278 -1.46259 0
M  V30 5276 O 493.215 -0.188243 -1.8032 0
M  V30 5277 C 493.263 -3.53066 -0.733283 0
M  V30 5278 O 492.367 -3.69206 -1.83741 0
M  V30 5279 H 491.708 -0.661444 -0.0582105 0
M  V30 5280 H 494.238 -1.99569 0.450931 0
M  V30 5281 H 494.248 -3.95034 -1.02039 0
M  V30 5282 H 492.923 -4.15746 0.113198 0
M  V30 5283 H 491.5 -3.39143 -1.55037 0
M  V30 5284 N 493.685 -0.035106 -1.57561 0
M  V30 5285 C 494.925 0.646316 -1.93913 0
M  V30 5286 C 495.289 1.68947 -0.912185 0
M  V30 5287 O 496.49 2.42381 -1.1621 0
M  V30 5288 C 494.761 1.24136 -3.35149 0
M  V30 5289 S 496.32 1.94302 -3.93436 0
M  V30 5290 H 493.138 0.212642 -0.678457 0
M  V30 5291 H 495.74 -0.100203 -1.95243 0
M  V30 5292 H 494.444 0.46979 -4.07702 0
M  V30 5293 H 493.975 2.02505 -3.37276 0
M  V30 5294 H 495.99 3.22205 -3.77357 0
M  V30 5295 N 495.163 1.55791 0.238111 0
M  V30 5296 C 496.41 1.78033 0.964907 0
M  V30 5297 C 496.738 0.600984 1.84982 0
M  V30 5298 O 495.993 -0.41536 1.91241 0
M  V30 5299 C 496.292 3.05869 1.84875 0
M  V30 5300 C 495.958 4.36808 1.11846 0
M  V30 5301 C 494.62 4.72388 0.916662 0
M  V30 5302 C 496.972 5.17717 0.60151 0
M  V30 5303 C 494.3 5.86406 0.185756 0
M  V30 5304 C 496.652 6.32494 -0.115972 0
M  V30 5305 C 495.316 6.66688 -0.329168 0
M  V30 5306 H 494.586 0.651469 0.353085 0
M  V30 5307 H 497.233 1.90061 0.234318 0
M  V30 5308 H 495.538 2.88891 2.64668 0
M  V30 5309 H 497.235 3.20278 2.41294 0
M  V30 5310 H 493.825 4.08862 1.28569 0
M  V30 5311 H 498.009 4.90678 0.744932 0
M  V30 5312 H 493.265 6.11399 0.0101886 0
M  V30 5313 H 497.439 6.94425 -0.524127 0
M  V30 5314 H 495.066 7.54884 -0.897474 0
M  V30 5315 N 496.642 -0.504142 1.49319 0
M  V30 5316 C 497.888 -1.26033 1.58882 0
M  V30 5317 C 498.221 -1.92268 0.273274 0
M  V30 5318 O 497.496 -1.80567 -0.72291 0
M  V30 5319 C 497.779 -2.32976 2.7458 0
M  V30 5320 C 497.632 -1.71263 4.1592 0
M  V30 5321 C 498.951 -3.34561 2.85932 0
M  V30 5322 H 496.07 -0.456863 0.578312 0
M  V30 5323 H 498.712 -0.558965 1.81592 0
M  V30 5324 H 496.862 -2.92796 2.55348 0
M  V30 5325 H 498.534 -1.15294 4.4666 0
M  V30 5326 H 496.777 -1.01686 4.21714 0
M  V30 5327 H 497.448 -2.48816 4.92742 0
M  V30 5328 H 499.924 -2.84727 3.0343 0
M  V30 5329 H 498.8 -4.06754 3.68568 0
M  V30 5330 H 499.061 -3.96695 1.95154 0
M  V30 5331 N 498.12 -1.38341 -0.754957 0
M  V30 5332 C 499.366 -1.34672 -1.51628 0
M  V30 5333 C 499.699 0.0636036 -1.94096 0
M  V30 5334 O 498.974 1.0245 -1.6533 0
M  V30 5335 C 499.257 -2.30116 -2.76981 0
M  V30 5336 C 499.11 -3.80003 -2.4066 0
M  V30 5337 C 500.429 -2.23715 -3.78998 0
M  V30 5338 H 497.548 -0.490517 -0.550056 0
M  V30 5339 H 500.19 -1.69178 -0.864807 0
M  V30 5340 H 498.34 -2.00821 -3.3257 0
M  V30 5341 H 500.012 -4.19966 -1.90856 0
M  V30 5342 H 498.255 -3.97751 -1.73137 0
M  V30 5343 H 498.926 -4.42244 -3.30339 0
M  V30 5344 H 501.402 -2.49574 -3.32945 0
M  V30 5345 H 500.278 -2.9261 -4.64403 0
M  V30 5346 H 500.539 -1.23554 -4.24484 0
M  V30 5347 N 499.598 0.982988 -1.23187 0
M  V30 5348 C 500.561 2.05649 -1.01198 0
M  V30 5349 C 501.561 1.6078 0.0252464 0
M  V30 5350 O 502.751 1.72878 -0.214243 0
M  V30 5351 C 499.883 3.36744 -0.530656 0
M  V30 5352 H 501.076 2.2659 -1.96461 0
M  V30 5353 H 498.629 1.15602 -1.05195 0
M  V30 5354 H 499.364 3.21492 0.425873 0
M  V30 5355 H 499.149 3.7065 -1.2791 0
M  V30 5356 H 500.639 4.15705 -0.397366 0
M  V30 5357 N 501.076 1.04316 1.18135 0
M  V30 5358 C 501.986 0.646876 2.25505 0
M  V30 5359 C 503.002 -0.328008 1.7088 0
M  V30 5360 O 504.178 -0.182309 2.00573 0
M  V30 5361 C 501.243 0.0185664 3.46695 0
M  V30 5362 C 500.304 1.04277 4.16443 0
M  V30 5363 C 499.537 0.444352 5.31847 0
M  V30 5364 O 499.76 -0.748735 5.65465 0
M  V30 5365 O 498.694 1.17428 5.90334 0
M  V30 5366 H 502.52 1.54147 2.61672 0
M  V30 5367 H 500.105 0.814188 1.25265 0
M  V30 5368 H 501.987 -0.331068 4.20097 0
M  V30 5369 H 500.662 -0.849814 3.12346 0
M  V30 5370 H 499.569 1.44425 3.45098 0
M  V30 5371 H 500.902 1.882 4.54798 0
M  V30 5372 N 502.554 -1.34406 0.822964 0
M  V30 5373 C 503.794 -2.00103 0.416915 0
M  V30 5374 C 504.158 -1.63826 -1.00125 0
M  V30 5375 O 505.359 -2.22367 -1.51018 0
M  V30 5376 C 503.63 -3.52101 0.613151 0
M  V30 5377 S 505.189 -4.37774 0.299956 0
M  V30 5378 H 502.007 -0.69333 0.157527 0
M  V30 5379 H 504.609 -1.63698 1.06879 0
M  V30 5380 H 503.313 -3.75991 1.64496 0
M  V30 5381 H 502.844 -3.93364 -0.0534554 0
M  V30 5382 H 504.859 -4.8822 -0.886336 0
M  V30 5383 N 504.032 -0.577932 -1.46621 0
M  V30 5384 C 505.272 -0.0643097 -2.04299 0
M  V30 5385 C 505.636 1.26967 -1.44026 0
M  V30 5386 O 506.837 1.87224 -1.92875 0
M  V30 5387 C 505.108 0.00547588 -3.574 0
M  V30 5388 S 506.667 0.462216 -4.36359 0
M  V30 5389 H 503.485 -0.0351573 -0.71013 0
M  V30 5390 H 506.087 -0.76935 -1.79725 0
M  V30 5391 H 504.791 -0.969423 -3.98786 0
M  V30 5392 H 504.322 0.733435 -3.86503 0
M  V30 5393 H 506.337 1.71791 -4.65513 0
M  V30 5394 N 505.51 1.54411 -0.315457 0
M  V30 5395 C 506.443 2.20265 0.596522 0
M  V30 5396 C 507.421 1.17693 1.12192 0
M  V30 5397 O 508.605 1.46397 1.18744 0
M  V30 5398 C 505.732 2.85794 1.81767 0
M  V30 5399 C 504.778 4.02017 1.42424 0
M  V30 5400 S 505.611 5.33452 0.467836 0
M  V30 5401 C 506.767 6.02471 1.69645 0
M  V30 5402 H 507 2.97277 0.0370896 0
M  V30 5403 H 504.533 1.54079 -0.0995562 0
M  V30 5404 H 506.491 3.24172 2.51839 0
M  V30 5405 H 505.152 2.08601 2.34828 0
M  V30 5406 H 504.345 4.46701 2.33396 0
M  V30 5407 H 503.947 3.65271 0.803311 0
M  V30 5408 H 506.239 6.24157 2.63504 0
M  V30 5409 H 507.182 6.96215 1.29192 0
M  V30 5410 H 507.59 5.32284 1.87974 0
M  V30 5411 N 506.988 0.0434614 1.5754 0
M  V30 5412 C 507.898 -0.94893 2.14552 0
M  V30 5413 C 508.914 -1.34707 1.10136 0
M  V30 5414 O 510.09 -1.42557 1.42266 0
M  V30 5415 C 507.155 -2.208 2.67298 0
M  V30 5416 C 506.216 -1.86893 3.86484 0
M  V30 5417 C 505.449 -3.06797 4.36705 0
M  V30 5418 O 505.672 -4.19921 3.86034 0
M  V30 5419 O 504.606 -2.8826 5.28384 0
M  V30 5420 H 508.432 -0.494099 2.99654 0
M  V30 5421 H 506.017 -0.177989 1.48336 0
M  V30 5422 H 507.899 -2.94686 3.01228 0
M  V30 5423 H 506.574 -2.65436 1.85272 0
M  V30 5424 H 505.481 -1.10347 3.57455 0
M  V30 5425 H 506.814 -1.47062 4.69716 0
M  V30 5426 N 508.466 -1.55915 -0.229846 0
M  V30 5427 C 509.691 -1.8296 -0.976743 0
M  V30 5428 C 510.116 -0.622735 -1.77493 0
M  V30 5429 O 509.474 0.428431 -1.76165 0
M  V30 5430 C 509.522 -3.07916 -1.8767 0
M  V30 5431 O 508.626 -2.86028 -2.97088 0
M  V30 5432 H 507.967 -0.603453 -0.277021 0
M  V30 5433 H 510.497 -2.0312 -0.245669 0
M  V30 5434 H 510.507 -3.37802 -2.2881 0
M  V30 5435 H 509.182 -3.95389 -1.28996 0
M  V30 5436 H 507.759 -2.67355 -2.59954 0
M  V30 5437 N 509.944 0.496216 -1.49584 0
M  V30 5438 C 511.192 1.24756 -1.58998 0
M  V30 5439 C 511.513 1.92968 -0.280775 0
M  V30 5440 O 510.783 1.82959 0.700198 0
M  V30 5441 H 509.363 0.463471 -0.585836 0
M  V30 5442 H 512.025 0.574678 -1.86235 0
M  V30 5443 H 511.121 2.00895 -2.38847 0
M  V30 5444 N 511.423 1.38739 0.74761 0
M  V30 5445 C 512.834 1.31507 1.32524 0
M  V30 5446 C 513.185 -0.0263963 1.96182 0
M  V30 5447 O 512.31 -0.92849 1.95469 0
M  V30 5448 C 512.905 2.38162 2.40966 0
M  V30 5449 C 511.464 2.34489 2.94434 0
M  V30 5450 C 510.611 2.20712 1.67873 0
M  V30 5451 H 513.562 1.4901 0.546043 0
M  V30 5452 H 513.583 2.04222 3.21051 0
M  V30 5453 H 513.095 3.35783 1.94605 0
M  V30 5454 H 511.196 1.40467 3.45108 0
M  V30 5455 H 511.309 3.28861 3.48407 0
M  V30 5456 H 509.673 1.67667 1.91729 0
M  V30 5457 H 510.456 3.20285 1.23582 0
M  V30 5458 N 512.901 -0.976442 1.23707 0
M  V30 5459 C 514.317 -1.24341 1.00058 0
M  V30 5460 C 514.517 -1.99315 -0.295932 0
M  V30 5461 O 513.573 -2.3123 -1.01435 0
M  V30 5462 C 514.886 -2.03909 2.21001 0
M  V30 5463 C 516.434 -2.17034 2.25534 0
M  V30 5464 C 516.909 -2.99994 3.46075 0
M  V30 5465 N 518.4 -3.07578 3.46338 0
M  V30 5466 C 519.135 -3.72104 4.36264 0
M  V30 5467 N 518.631 -4.3842 5.36432 0
M  V30 5468 N 520.424 -3.69029 4.23998 0
M  V30 5469 H 512.575 -0.47428 2.07037 0
M  V30 5470 H 514.838 -0.272167 0.908091 0
M  V30 5471 H 514.544 -1.56198 3.15111 0
M  V30 5472 H 514.418 -3.04654 2.22409 0
M  V30 5473 H 516.805 -2.63951 1.31961 0
M  V30 5474 H 516.886 -1.15664 2.28156 0
M  V30 5475 H 516.53 -2.53772 4.39957 0
M  V30 5476 H 516.46 -4.01541 3.40694 0
M  V30 5477 H 518.951 -2.60397 2.73865 0
M  V30 5478 H 519.264 -4.85447 6.013 0
M  V30 5479 H 517.609 -4.37116 5.40328 0
M  V30 5480 H 520.8 -3.16392 3.44984 0
M  V30 5481 H 520.973 -4.19034 4.94282 0
M  V30 5482 N 514.379 -1.04941 -1.1758 0
M  V30 5483 C 515.626 -0.757989 -1.87779 0
M  V30 5484 C 515.954 0.714827 -1.80888 0
M  V30 5485 O 515.209 1.53824 -1.20982 0
M  V30 5486 C 515.508 -1.18062 -3.37337 0
M  V30 5487 C 515.174 -2.65521 -3.6443 0
M  V30 5488 C 513.836 -3.05804 -3.71534 0
M  V30 5489 C 516.188 -3.60822 -3.76108 0
M  V30 5490 C 513.516 -4.40256 -3.87803 0
M  V30 5491 C 515.868 -4.95005 -3.93895 0
M  V30 5492 C 514.532 -5.34945 -3.99237 0
M  V30 5493 H 513.802 -0.277368 -0.68713 0
M  V30 5494 H 516.449 -1.31603 -1.39115 0
M  V30 5495 H 514.754 -0.541525 -3.8804 0
M  V30 5496 H 516.451 -0.932368 -3.9001 0
M  V30 5497 H 513.041 -2.33324 -3.59524 0
M  V30 5498 H 517.225 -3.30841 -3.69943 0
M  V30 5499 H 512.481 -4.70707 -3.90186 0
M  V30 5500 H 516.655 -5.68746 -4.01872 0
M  V30 5501 H 514.282 -6.39135 -4.11596 0
M  V30 5502 N 515.857 1.33968 -0.830081 0
M  V30 5503 C 517.097 1.99879 -0.427521 0
M  V30 5504 C 517.461 1.64355 0.992546 0
M  V30 5505 O 518.662 2.23164 1.49837 0
M  V30 5506 C 516.933 3.51771 -0.631815 0
M  V30 5507 S 518.492 4.37608 -0.323168 0
M  V30 5508 H 515.31 0.692485 -0.161202 0
M  V30 5509 H 517.912 1.63129 -1.07745 0
M  V30 5510 H 516.616 3.75113 -1.66488 0
M  V30 5511 H 516.147 3.93386 0.0325936 0
M  V30 5512 H 518.162 4.88683 0.860432 0
M  V30 5513 N 517.335 0.585699 1.46312 0
M  V30 5514 C 518.298 -0.135673 2.28798 0
M  V30 5515 C 519.298 -0.815988 1.38558 0
M  V30 5516 O 520.488 -0.667487 1.60904 0
M  V30 5517 C 517.62 -1.20163 3.1902 0
M  V30 5518 H 518.813 0.589257 2.94054 0
M  V30 5519 H 516.366 0.343794 1.52472 0
M  V30 5520 H 517.101 -1.95804 2.58517 0
M  V30 5521 H 516.886 -0.718282 3.85465 0
M  V30 5522 H 518.376 -1.70749 3.81096 0
M  V30 5523 N 518.813 -1.54241 0.323641 0
M  V30 5524 C 520.09 -1.92741 -0.333181 0
M  V30 5525 C 520.47 -1.25326 -1.69872 0
M  V30 5526 O 519.818 -0.396991 -2.25025 0
M  V30 5527 C 520.028 -3.46399 -0.425322 0
M  V30 5528 C 521.376 -4.19029 -0.68557 0
M  V30 5529 O 522.4 -3.52555 -0.50824 0
M  V30 5530 O 521.259 -5.36751 -1.02767 0
M  V30 5531 H 518.353 -0.804811 -0.190286 0
M  V30 5532 H 520.899 -1.65542 0.373361 0
M  V30 5533 H 519.671 -3.87643 0.533737 0
M  V30 5534 H 519.294 -3.79704 -1.17944 0
M  V30 5535 N 520.291 -0.0518155 -1.57515 0
M  V30 5536 C 521.241 0.932017 -2.0808 0
M  V30 5537 C 522.225 1.27141 -0.986098 0
M  V30 5538 O 523.417 1.25373 -1.24943 0
M  V30 5539 C 520.546 2.20665 -2.62986 0
M  V30 5540 C 519.632 1.89462 -3.79427 0
M  V30 5541 N 520.023 1.28621 -4.89173 0
M  V30 5542 C 518.321 2.19327 -3.88345 0
M  V30 5543 C 519.022 1.15062 -5.70207 0
M  V30 5544 N 517.998 1.65372 -5.17835 0
M  V30 5545 H 521.8 0.456964 -2.90326 0
M  V30 5546 H 519.314 0.152619 -1.61681 0
M  V30 5547 H 521.311 2.92044 -2.97516 0
M  V30 5548 H 519.971 2.68776 -1.8218 0
M  V30 5549 H 520.982 0.958341 -5.08956 0
M  V30 5550 H 517.659 2.69955 -3.18482 0
M  V30 5551 H 519.049 0.678243 -6.68468 0
M  V30 5552 N 521.769 1.56035 0.221574 0
M  V30 5553 C 523.18 1.69229 0.788567 0
M  V30 5554 C 523.531 0.653814 1.84986 0
M  V30 5555 O 522.656 -0.195065 2.15519 0
M  V30 5556 C 523.251 3.06809 1.43713 0
M  V30 5557 C 521.81 3.21858 1.95152 0
M  V30 5558 C 520.957 2.65155 0.811685 0
M  V30 5559 H 523.908 1.587 -0.00307894 0
M  V30 5560 H 523.929 3.02666 2.30594 0
M  V30 5561 H 523.441 3.82369 0.664475 0
M  V30 5562 H 521.542 2.51167 2.7522 0
M  V30 5563 H 521.655 4.29073 2.1315 0
M  V30 5564 H 520.019 2.23635 1.21899 0
M  V30 5565 H 520.802 3.43261 0.0516987 0
M  V30 5566 N 523.247 -0.488276 1.49845 0
M  V30 5567 C 524.494 -1.24157 1.59973 0
M  V30 5568 C 524.822 -1.92293 0.292182 0
M  V30 5569 O 524.077 -1.81942 -0.720813 0
M  V30 5570 C 524.376 -2.32152 2.71735 0
M  V30 5571 C 524.042 -1.81387 4.12807 0
M  V30 5572 C 522.704 -1.67262 4.51195 0
M  V30 5573 C 525.056 -1.43537 5.01045 0
M  V30 5574 C 522.384 -1.13685 5.7558 0
M  V30 5575 C 524.736 -0.914081 6.25961 0
M  V30 5576 C 523.4 -0.759327 6.63167 0
M  V30 5577 H 522.67 -0.454322 0.585383 0
M  V30 5578 H 525.317 -0.540261 1.83721 0
M  V30 5579 H 523.622 -3.08122 2.42008 0
M  V30 5580 H 525.319 -2.90164 2.76778 0
M  V30 5581 H 521.909 -1.93344 3.82513 0
M  V30 5582 H 526.093 -1.53292 4.72033 0
M  V30 5583 H 521.349 -1.00426 6.03096 0
M  V30 5584 H 525.523 -0.612066 6.93705 0
M  V30 5585 H 523.15 -0.342002 7.5943 0
M  V30 5586 N 524.725 -1.39134 -0.740242 0
M  V30 5587 C 525.655 -1.40165 -1.86751 0
M  V30 5588 C 526.636 -0.265708 -1.68012 0
M  V30 5589 O 527.821 -0.47076 -1.88408 0
M  V30 5590 C 524.951 -1.2392 -3.2444 0
M  V30 5591 C 523.905 -2.34858 -3.57807 0
M  V30 5592 C 523.231 -2.03707 -4.94376 0
M  V30 5593 C 524.531 -3.77159 -3.61315 0
M  V30 5594 H 526.225 -2.345 -1.86145 0
M  V30 5595 H 523.771 -1.12875 -0.89416 0
M  V30 5596 H 525.724 -1.23263 -4.02969 0
M  V30 5597 H 524.448 -0.26051 -3.25559 0
M  V30 5598 H 523.107 -2.34723 -2.81604 0
M  V30 5599 H 522.755 -1.04289 -4.9207 0
M  V30 5600 H 522.455 -2.78016 -5.17669 0
M  V30 5601 H 523.979 -2.04691 -5.75268 0
M  V30 5602 H 525.393 -3.79252 -4.29931 0
M  V30 5603 H 523.79 -4.50784 -3.96124 0
M  V30 5604 H 524.86 -4.08513 -2.61238 0
M  V30 5605 N 526.204 0.969867 -1.24223 0
M  V30 5606 C 527.451 1.71256 -1.08063 0
M  V30 5607 C 527.779 1.90734 0.380872 0
M  V30 5608 O 527.034 1.46469 1.29789 0
M  V30 5609 C 527.333 3.10883 -1.76314 0
M  V30 5610 C 526.999 3.11252 -3.26241 0
M  V30 5611 C 525.661 3.1106 -3.67144 0
M  V30 5612 C 528.013 3.05751 -4.22097 0
M  V30 5613 C 525.341 3.03097 -5.02344 0
M  V30 5614 C 527.693 2.9933 -5.57301 0
M  V30 5615 C 526.357 2.97466 -5.97554 0
M  V30 5616 H 525.627 0.62667 -0.395431 0
M  V30 5617 H 528.274 1.13422 -1.54297 0
M  V30 5618 H 526.579 3.72168 -1.22468 0
M  V30 5619 H 528.276 3.67138 -1.61277 0
M  V30 5620 H 524.866 3.12165 -2.93685 0
M  V30 5621 H 529.05 3.05031 -3.91497 0
M  V30 5622 H 524.306 3.00013 -5.32731 0
M  V30 5623 H 528.48 2.94033 -6.31283 0
M  V30 5624 H 526.107 2.91051 -7.02277 0
M  V30 5625 N 527.682 1.05563 1.17022 0
M  V30 5626 C 528.929 0.767937 1.87374 0
M  V30 5627 C 529.257 -0.705224 1.81265 0
M  V30 5628 O 528.512 -1.5318 1.21796 0
M  V30 5629 C 528.811 1.19849 3.36706 0
M  V30 5630 C 528.477 2.6745 3.63017 0
M  V30 5631 C 527.139 3.0777 3.69907 0
M  V30 5632 C 529.491 3.62811 3.74189 0
M  V30 5633 C 526.819 4.42307 3.85463 0
M  V30 5634 C 529.171 4.97087 3.91264 0
M  V30 5635 C 527.835 5.37055 3.96394 0
M  V30 5636 H 527.105 0.281008 0.68565 0
M  V30 5637 H 529.752 1.32339 1.38415 0
M  V30 5638 H 528.057 0.562096 3.87747 0
M  V30 5639 H 529.754 0.953038 3.8951 0
M  V30 5640 H 526.344 2.35228 3.58282 0
M  V30 5641 H 530.528 3.32798 3.68183 0
M  V30 5642 H 525.784 4.72769 3.87684 0
M  V30 5643 H 529.958 5.70869 3.9885 0
M  V30 5644 H 527.585 6.41308 4.082 0
M  V30 5645 N 529.16 -1.33526 0.837174 0
M  V30 5646 C 530.409 -1.97098 0.428387 0
M  V30 5647 C 530.722 -1.67062 -1.01734 0
M  V30 5648 O 531.928 -2.24235 -1.53072 0
M  V30 5649 C 530.384 -3.52725 0.715075 0
M  V30 5650 C 529.992 -3.9164 2.17537 0
M  V30 5651 C 531.736 -4.22857 0.373154 0
M  V30 5652 C 529.643 -5.40237 2.40619 0
M  V30 5653 H 528.573 -0.737589 0.156455 0
M  V30 5654 H 531.224 -1.52169 1.02552 0
M  V30 5655 H 529.606 -3.95971 0.0475904 0
M  V30 5656 H 530.78 -3.59456 2.88319 0
M  V30 5657 H 529.095 -3.34485 2.4801 0
M  V30 5658 H 531.692 -5.32133 0.523264 0
M  V30 5659 H 532.035 -4.10647 -0.683708 0
M  V30 5660 H 532.568 -3.85135 0.995801 0
M  V30 5661 H 529.307 -5.57449 3.44864 0
M  V30 5662 H 528.827 -5.73887 1.74396 0
M  V30 5663 H 530.506 -6.07102 2.23688 0
M  V30 5664 N 530.638 -0.59345 -1.46 0
M  V30 5665 C 532.054 -0.255965 -1.57534 0
M  V30 5666 C 532.254 1.24167 -1.58697 0
M  V30 5667 O 531.31 2.02398 -1.50968 0
M  V30 5668 C 532.623 -0.91466 -2.86451 0
M  V30 5669 C 534.171 -0.889253 -3.00102 0
M  V30 5670 C 534.646 -1.52769 -4.3177 0
M  V30 5671 N 536.137 -1.49253 -4.38495 0
M  V30 5672 C 536.872 -1.9558 -5.39014 0
M  V30 5673 N 536.368 -2.49929 -6.46148 0
M  V30 5674 N 538.161 -1.86432 -5.30282 0
M  V30 5675 H 530.312 -1.56604 -1.43489 0
M  V30 5676 H 532.575 -0.655207 -0.685133 0
M  V30 5677 H 532.281 -1.96861 -2.91442 0
M  V30 5678 H 532.155 -0.429356 -3.74748 0
M  V30 5679 H 534.542 0.156111 -2.94687 0
M  V30 5680 H 534.623 -1.41268 -2.13253 0
M  V30 5681 H 534.267 -2.57231 -4.37944 0
M  V30 5682 H 534.197 -0.979398 -5.17412 0
M  V30 5683 H 536.688 -1.09536 -3.61677 0
M  V30 5684 H 537.001 -2.83109 -7.19075 0
M  V30 5685 H 535.346 -2.53961 -6.46938 0
M  V30 5686 H 538.537 -1.43722 -4.4549 0
M  V30 5687 H 538.71 -2.22852 -6.08474 0
M  V30 5688 N 532.116 1.54067 -0.331816 0
M  V30 5689 C 533.066 2.21363 0.546101 0
M  V30 5690 C 534.05 1.19698 1.07523 0
M  V30 5691 O 535.242 1.45293 1.01088 0
M  V30 5692 C 532.371 2.98115 1.70242 0
M  V30 5693 C 531.457 4.07127 1.18779 0
M  V30 5694 N 531.848 5.04267 0.393465 0
M  V30 5695 C 530.146 4.21226 1.46576 0
M  V30 5696 C 530.847 5.81585 0.115572 0
M  V30 5697 N 529.823 5.39022 0.703987 0
M  V30 5698 H 533.625 2.93821 -0.0679751 0
M  V30 5699 H 531.139 1.61812 -0.138085 0
M  V30 5700 H 533.136 3.44818 2.34321 0
M  V30 5701 H 531.796 2.27181 2.31989 0
M  V30 5702 H 532.807 5.17888 0.0355757 0
M  V30 5703 H 529.484 3.61509 2.08848 0
M  V30 5704 H 530.874 6.6985 -0.524426 0
M  V30 5705 N 533.594 0.0601682 1.57485 0
M  V30 5706 C 534.542 -0.928899 2.13247 0
M  V30 5707 C 535.536 -1.31616 1.06647 0
M  V30 5708 O 536.742 -1.29476 1.25043 0
M  V30 5709 H 533.117 -0.317455 0.681708 0
M  V30 5710 H 535.088 -0.433566 2.95233 0
M  V30 5711 C 533.837 -2.19121 2.69965 0
M  V30 5712 H 533.16 -1.90204 3.51657 0
M  V30 5713 H 534.6 -2.86465 3.12592 0
M  V30 5714 C 533.059 -2.94195 1.64168 0
M  V30 5715 O 533.589 -3.87468 1.05978 0
M  V30 5716 N 531.795 -2.57089 1.35476 0
M  V30 5717 H 531.342 -1.81314 1.82984 0
M  V30 5718 H 531.3 -3.07624 0.649196 0
M  V30 5719 N 535.072 -1.5615 -0.213296 0
M  V30 5720 C 536.488 -1.49327 -0.56336 0
M  V30 5721 C 536.688 -0.756826 -1.86747 0
M  V30 5722 O 535.744 -0.299866 -2.50713 0
M  V30 5723 C 537.057 -2.9392 -0.634944 0
M  V30 5724 C 538.605 -3.04487 -0.725013 0
M  V30 5725 C 539.08 -4.50456 -0.82787 0
M  V30 5726 N 540.571 -4.54533 -0.891876 0
M  V30 5727 C 541.306 -5.64766 -0.991315 0
M  V30 5728 N 540.802 -6.84733 -1.05419 0
M  V30 5729 N 542.595 -5.52637 -1.02709 0
M  V30 5730 H 534.746 -2.02453 0.642366 0
M  V30 5731 H 537.009 -0.920548 0.226487 0
M  V30 5732 H 536.715 -3.50783 0.253859 0
M  V30 5733 H 536.589 -3.46274 -1.49579 0
M  V30 5734 H 538.976 -2.47685 -1.60425 0
M  V30 5735 H 539.057 -2.55289 0.161669 0
M  V30 5736 H 538.701 -5.07878 0.0469464 0
M  V30 5737 H 538.631 -4.97369 -1.73009 0
M  V30 5738 H 541.122 -3.68141 -0.85327 0
M  V30 5739 H 541.435 -7.64493 -1.13007 0
M  V30 5740 H 539.78 -6.87427 -1.02318 0
M  V30 5741 H 542.971 -4.5784 -0.974687 0
M  V30 5742 H 543.144 -6.38576 -1.10113 0
M  V30 5743 N 536.55 0.480323 -1.50102 0
M  V30 5744 C 537.513 1.56181 -1.6775 0
M  V30 5745 C 538.513 1.51156 -0.548503 0
M  V30 5746 O 539.703 1.5394 -0.815363 0
M  V30 5747 C 536.835 2.95823 -1.69415 0
M  V30 5748 H 538.028 1.41855 -2.6423 0
M  V30 5749 H 535.581 0.70605 -1.39444 0
M  V30 5750 H 536.316 3.15604 -0.745948 0
M  V30 5751 H 536.101 3.00878 -2.51425 0
M  V30 5752 H 537.591 3.74359 -1.85054 0
M  V30 5753 N 538.028 1.39524 0.732853 0
M  V30 5754 C 538.976 1.38563 1.86824 0
M  V30 5755 C 539.97 0.268467 1.67259 0
M  V30 5756 O 541.176 0.438613 1.74574 0
M  V30 5757 H 537.551 0.432737 0.615014 0
M  V30 5758 H 539.522 2.34328 1.84751 0
M  V30 5759 C 538.271 1.2481 3.24527 0
M  V30 5760 H 537.594 2.10044 3.40179 0
M  V30 5761 H 539.034 1.28194 4.04156 0
M  V30 5762 C 537.493 -0.0432825 3.36872 0
M  V30 5763 O 538.023 -1.01268 3.88726 0
M  V30 5764 N 536.229 -0.107055 2.90403 0
M  V30 5765 H 535.776 0.682512 2.48394 0
M  V30 5766 H 535.734 -0.970618 2.99042 0
M  V30 5767 N 539.506 -0.963266 1.24736 0
M  V30 5768 C 540.731 -1.74699 1.11781 0
M  V30 5769 C 541.156 -1.85267 -0.325258 0
M  V30 5770 O 540.514 -1.32681 -1.23553 0
M  V30 5771 C 540.562 -3.14322 1.76731 0
M  V30 5772 O 539.666 -3.99043 1.04109 0
M  V30 5773 H 539.007 -0.53684 0.390767 0
M  V30 5774 H 541.537 -1.20801 1.65131 0
M  V30 5775 H 541.547 -3.64824 1.82668 0
M  V30 5776 H 540.222 -3.05946 2.81726 0
M  V30 5777 H 538.799 -3.5752 1.05991 0
M  V30 5778 N 540.985 -1.06182 -1.16461 0
M  V30 5779 C 542.234 -0.772927 -1.86303 0
M  V30 5780 C 542.547 0.703187 -1.82523 0
M  V30 5781 O 543.753 1.10641 -2.47933 0
M  V30 5782 C 542.209 -1.33249 -3.34324 0
M  V30 5783 C 541.817 -2.83876 -3.46581 0
M  V30 5784 C 543.561 -1.12108 -4.09429 0
M  V30 5785 C 541.468 -3.33082 -4.88682 0
M  V30 5786 H 540.398 -0.285452 -0.697878 0
M  V30 5787 H 543.049 -1.28039 -1.31447 0
M  V30 5788 H 541.431 -0.7528 -3.88779 0
M  V30 5789 H 542.605 -3.47786 -3.02293 0
M  V30 5790 H 540.92 -3.03671 -2.84909 0
M  V30 5791 H 543.517 -1.46361 -5.14279 0
M  V30 5792 H 543.86 -0.0593832 -4.16258 0
M  V30 5793 H 544.393 -1.6665 -3.6121 0
M  V30 5794 H 541.132 -4.38726 -4.87032 0
M  V30 5795 H 540.652 -2.73919 -5.33599 0
M  V30 5796 H 542.331 -3.28344 -5.57494 0
M  V30 5797 N 542.463 1.3308 -0.844243 0
M  V30 5798 C 543.393 2.3161 -0.296493 0
M  V30 5799 C 544.374 1.59215 0.598707 0
M  V30 5800 O 545.559 1.87077 0.521134 0
M  V30 5801 C 542.689 3.43313 0.524762 0
M  V30 5802 C 541.643 4.27115 -0.275106 0
M  V30 5803 C 540.969 5.30483 0.670236 0
M  V30 5804 C 542.269 5.00443 -1.49514 0
M  V30 5805 H 543.963 2.77672 -1.11976 0
M  V30 5806 H 541.509 1.33496 -0.539899 0
M  V30 5807 H 543.462 4.11273 0.918298 0
M  V30 5808 H 542.186 2.95952 1.3813 0
M  V30 5809 H 540.845 3.60787 -0.650267 0
M  V30 5810 H 540.493 4.79379 1.52332 0
M  V30 5811 H 540.193 5.87435 0.139123 0
M  V30 5812 H 541.717 6.01308 1.06117 0
M  V30 5813 H 543.131 5.61141 -1.17447 0
M  V30 5814 H 541.528 5.67071 -1.96343 0
M  V30 5815 H 542.598 4.28906 -2.26202 0
M  V30 5816 N 543.941 0.601185 1.45683 0
M  V30 5817 C 545.188 0.0938811 2.02282 0
M  V30 5818 C 545.516 -1.27315 1.47041 0
M  V30 5819 O 544.771 -1.85193 0.632623 0
M  V30 5820 C 545.07 -0.00222425 3.574 0
M  V30 5821 C 544.736 1.29963 4.31764 0
M  V30 5822 C 543.398 1.65625 4.51798 0
M  V30 5823 C 545.75 2.1603 4.74321 0
M  V30 5824 C 543.078 2.87119 5.11644 0
M  V30 5825 C 545.43 3.36766 5.3551 0
M  V30 5826 C 544.094 3.72689 5.53768 0
M  V30 5827 H 543.364 0.0343535 0.740203 0
M  V30 5828 H 546.011 0.781522 1.74827 0
M  V30 5829 H 544.316 -0.773096 3.84097 0
M  V30 5830 H 546.013 -0.410794 3.9889 0
M  V30 5831 H 542.603 1.01204 4.1648 0
M  V30 5832 H 546.787 1.89778 4.58582 0
M  V30 5833 H 542.043 3.15065 5.2397 0
M  V30 5834 H 546.217 4.03713 5.67441 0
M  V30 5835 H 543.844 4.66918 5.99909 0
M  V30 5836 N 545.419 -1.53889 0.339982 0
M  V30 5837 C 546.659 -2.02765 -0.258011 0
M  V30 5838 C 547.023 -1.22249 -1.48051 0
M  V30 5839 O 548.224 -1.61007 -2.15245 0
M  V30 5840 C 546.495 -3.5286 -0.567872 0
M  V30 5841 S 548.054 -4.23647 -1.14318 0
M  V30 5842 H 544.872 -0.706814 -0.0770389 0
M  V30 5843 H 547.474 -1.89594 0.476917 0
M  V30 5844 H 546.178 -4.09073 0.329745 0
M  V30 5845 H 545.709 -3.70144 -1.33256 0
M  V30 5846 H 547.724 -4.32676 -2.42911 0
M  V30 5847 N 546.897 -0.0685191 -1.57451 0
M  V30 5848 C 548.145 0.60016 -1.92983 0
M  V30 5849 C 548.466 1.70348 -0.949028 0
M  V30 5850 O 547.736 1.959 0.00335647 0
M  V30 5851 H 546.316 0.224682 -0.712409 0
M  V30 5852 H 548.978 -0.125605 -1.94495 0
M  V30 5853 H 548.074 1.02759 -2.94698 0
M  V30 5854 N 548.375 1.56261 0.205012 0
M  V30 5855 C 549.791 1.49623 0.555433 0
M  V30 5856 C 549.991 0.766719 1.86343 0
M  V30 5857 O 549.047 0.313158 2.50551 0
M  V30 5858 C 550.36 2.94253 0.619347 0
M  V30 5859 C 551.908 3.04868 0.708855 0
M  V30 5860 C 552.383 4.50888 0.803969 0
M  V30 5861 N 553.874 4.54999 0.867758 0
M  V30 5862 C 554.609 5.65284 0.96135 0
M  V30 5863 N 554.105 6.85282 1.01786 0
M  V30 5864 N 555.898 5.53174 0.997771 0
M  V30 5865 H 548.049 2.0211 -0.653094 0
M  V30 5866 H 550.312 0.919333 -0.231366 0
M  V30 5867 H 550.018 3.50643 -0.272458 0
M  V30 5868 H 549.892 3.47063 1.47741 0
M  V30 5869 H 552.279 2.48532 1.5911 0
M  V30 5870 H 552.36 2.55199 -0.175205 0
M  V30 5871 H 552.004 5.07846 -0.0738798 0
M  V30 5872 H 551.934 4.98279 1.70369 0
M  V30 5873 H 554.425 3.68588 0.833735 0
M  V30 5874 H 554.738 7.65081 1.08951 0
M  V30 5875 H 553.083 6.8796 0.986706 0
M  V30 5876 H 556.274 4.5835 0.950392 0
M  V30 5877 H 556.447 6.39151 1.06725 0
M  V30 5878 N 549.853 -0.472356 1.50355 0
M  V30 5879 C 551.1 -1.22453 1.61281 0
M  V30 5880 C 551.428 -1.91972 0.31256 0
M  V30 5881 O 550.683 -1.82696 -0.701475 0
M  V30 5882 C 550.982 -2.29257 2.74182 0
M  V30 5883 C 550.648 -1.76999 4.14708 0
M  V30 5884 C 549.31 -1.62467 4.52944 0
M  V30 5885 C 551.662 -1.38215 5.0254 0
M  V30 5886 C 548.99 -1.07574 5.76754 0
M  V30 5887 C 551.342 -0.847638 6.26895 0
M  V30 5888 C 550.006 -0.688946 6.63935 0
M  V30 5889 H 549.276 -0.448087 0.590168 0
M  V30 5890 H 551.923 -0.520744 1.84284 0
M  V30 5891 H 550.228 -3.05538 2.45263 0
M  V30 5892 H 551.925 -2.87212 2.7984 0
M  V30 5893 H 548.515 -1.89276 3.84542 0
M  V30 5894 H 552.699 -1.48276 4.73633 0
M  V30 5895 H 547.955 -0.940237 6.04127 0
M  V30 5896 H 552.129 -0.538455 6.94315 0
M  V30 5897 H 549.756 -0.261435 7.5975 0
M  V30 5898 N 551.331 -1.39911 -0.725443 0
M  V30 5899 C 552.556 -1.41137 -1.5197 0
M  V30 5900 C 552.981 -0.010262 -1.88097 0
M  V30 5901 O 552.339 0.979184 -1.52583 0
M  V30 5902 C 552.387 -2.2994 -2.77777 0
M  V30 5903 O 551.491 -1.73586 -3.74088 0
M  V30 5904 H 550.832 -0.480219 -0.458569 0
M  V30 5905 H 553.362 -1.84023 -0.894249 0
M  V30 5906 H 553.372 -2.44785 -3.26411 0
M  V30 5907 H 552.047 -3.31759 -2.50816 0
M  V30 5908 H 550.624 -1.68035 -3.32894 0
M  V30 5909 N 552.809 0.956637 -1.25245 0
M  V30 5910 C 554.034 1.74104 -1.12706 0
M  V30 5911 C 554.459 1.85436 0.315429 0
M  V30 5912 O 553.817 1.33334 1.22848 0
M  V30 5913 C 553.865 3.1338 -1.78396 0
M  V30 5914 O 552.969 3.98485 -1.06224 0
M  V30 5915 H 552.31 0.53476 -0.393609 0
M  V30 5916 H 554.84 1.19924 -1.65769 0
M  V30 5917 H 554.85 3.6385 -1.846 0
M  V30 5918 H 553.525 3.04448 -2.83345 0
M  V30 5919 H 552.102 3.56952 -1.07886 0
M  V30 5920 N 554.287 1.06798 1.15896 0
M  V30 5921 C 555.698 0.811355 1.68149 0
M  V30 5922 C 556.049 -0.664339 1.8461 0
M  V30 5923 O 555.174 -1.51485 1.54535 0
M  V30 5924 C 555.769 1.46624 3.05429 0
M  V30 5925 C 554.328 1.25726 3.54781 0
M  V30 5926 C 553.475 1.53949 2.3064 0
M  V30 5927 H 556.426 1.23078 1.00187 0
M  V30 5928 H 556.447 0.88437 3.7008 0
M  V30 5929 H 555.959 2.54025 2.93416 0
M  V30 5930 H 554.06 0.20322 3.72045 0
M  V30 5931 H 554.173 1.97354 4.36564 0
M  V30 5932 H 552.537 0.96025 2.35905 0
M  V30 5933 H 553.32 2.6252 2.2122 0
M  V30 5934 O 555.804 -1.27943 0.985539 0
M  V30 5935 H 556.495 -1.83099 0.632003 0
M  V30 END ATOM
M  V30 BEGIN BOND
M  V30 END BOND
M  V30 END CTAB
M  END
$$$$
